# Generated by pormake.
# Topology umq, (4)-cn, num edge types: 1
# Building blocks:
#     Node 0, Type 0, BuildingBlock: AZAVOO_clean_sbu_0, # of connection points: 4
#     Node 1, Type 0, BuildingBlock: AZAVOO_clean_sbu_0, # of connection points: 4
#     Node 2, Type 0, BuildingBlock: AZAVOO_clean_sbu_0, # of connection points: 4
#     Node 3, Type 0, BuildingBlock: AZAVOO_clean_sbu_0, # of connection points: 4
#     Node 4, Type 0, BuildingBlock: AZAVOO_clean_sbu_0, # of connection points: 4
#     Node 5, Type 0, BuildingBlock: AZAVOO_clean_sbu_0, # of connection points: 4
#     Node 6, Type 0, BuildingBlock: AZAVOO_clean_sbu_0, # of connection points: 4
#     Node 7, Type 0, BuildingBlock: AZAVOO_clean_sbu_0, # of connection points: 4
#     Node 8, Type 0, BuildingBlock: AZAVOO_clean_sbu_0, # of connection points: 4
#     Node 9, Type 0, BuildingBlock: AZAVOO_clean_sbu_0, # of connection points: 4
#     Node 10, Type 0, BuildingBlock: AZAVOO_clean_sbu_0, # of connection points: 4
#     Node 11, Type 0, BuildingBlock: AZAVOO_clean_sbu_0, # of connection points: 4
#     Node 12, Type 0, BuildingBlock: AZAVOO_clean_sbu_0, # of connection points: 4
#     Node 13, Type 0, BuildingBlock: AZAVOO_clean_sbu_0, # of connection points: 4
#     Node 14, Type 0, BuildingBlock: AZAVOO_clean_sbu_0, # of connection points: 4
#     Node 15, Type 0, BuildingBlock: AZAVOO_clean_sbu_0, # of connection points: 4
#     Node 16, Type 0, BuildingBlock: AZAVOO_clean_sbu_0, # of connection points: 4
#     Node 17, Type 0, BuildingBlock: AZAVOO_clean_sbu_0, # of connection points: 4
#     Node 18, Type 0, BuildingBlock: AZAVOO_clean_sbu_0, # of connection points: 4
#     Node 19, Type 0, BuildingBlock: AZAVOO_clean_sbu_0, # of connection points: 4
#     Node 20, Type 0, BuildingBlock: AZAVOO_clean_sbu_0, # of connection points: 4
#     Node 21, Type 0, BuildingBlock: AZAVOO_clean_sbu_0, # of connection points: 4
#     Node 22, Type 0, BuildingBlock: AZAVOO_clean_sbu_0, # of connection points: 4
#     Node 23, Type 0, BuildingBlock: AZAVOO_clean_sbu_0, # of connection points: 4
#     Node 24, Type 0, BuildingBlock: AZAVOO_clean_sbu_0, # of connection points: 4
#     Node 25, Type 0, BuildingBlock: AZAVOO_clean_sbu_0, # of connection points: 4
#     Node 26, Type 0, BuildingBlock: AZAVOO_clean_sbu_0, # of connection points: 4
#     Node 27, Type 0, BuildingBlock: AZAVOO_clean_sbu_0, # of connection points: 4
#     Node 28, Type 0, BuildingBlock: AZAVOO_clean_sbu_0, # of connection points: 4
#     Node 29, Type 0, BuildingBlock: AZAVOO_clean_sbu_0, # of connection points: 4
#     Node 30, Type 0, BuildingBlock: AZAVOO_clean_sbu_0, # of connection points: 4
#     Node 31, Type 0, BuildingBlock: AZAVOO_clean_sbu_0, # of connection points: 4
#     Edge 32, Type (0, 0), BuildingBlock: OJICUG_clean_linker_0, # of connection points: 2
#     Edge 33, Type (0, 0), BuildingBlock: OJICUG_clean_linker_0, # of connection points: 2
#     Edge 34, Type (0, 0), BuildingBlock: OJICUG_clean_linker_0, # of connection points: 2
#     Edge 35, Type (0, 0), BuildingBlock: OJICUG_clean_linker_0, # of connection points: 2
#     Edge 36, Type (0, 0), BuildingBlock: OJICUG_clean_linker_0, # of connection points: 2
#     Edge 37, Type (0, 0), BuildingBlock: OJICUG_clean_linker_0, # of connection points: 2
#     Edge 38, Type (0, 0), BuildingBlock: OJICUG_clean_linker_0, # of connection points: 2
#     Edge 39, Type (0, 0), BuildingBlock: OJICUG_clean_linker_0, # of connection points: 2
#     Edge 40, Type (0, 0), BuildingBlock: OJICUG_clean_linker_0, # of connection points: 2
#     Edge 41, Type (0, 0), BuildingBlock: OJICUG_clean_linker_0, # of connection points: 2
#     Edge 42, Type (0, 0), BuildingBlock: OJICUG_clean_linker_0, # of connection points: 2
#     Edge 43, Type (0, 0), BuildingBlock: OJICUG_clean_linker_0, # of connection points: 2
#     Edge 44, Type (0, 0), BuildingBlock: OJICUG_clean_linker_0, # of connection points: 2
#     Edge 45, Type (0, 0), BuildingBlock: OJICUG_clean_linker_0, # of connection points: 2
#     Edge 46, Type (0, 0), BuildingBlock: OJICUG_clean_linker_0, # of connection points: 2
#     Edge 47, Type (0, 0), BuildingBlock: OJICUG_clean_linker_0, # of connection points: 2
#     Edge 48, Type (0, 0), BuildingBlock: OJICUG_clean_linker_0, # of connection points: 2
#     Edge 49, Type (0, 0), BuildingBlock: OJICUG_clean_linker_0, # of connection points: 2
#     Edge 50, Type (0, 0), BuildingBlock: OJICUG_clean_linker_0, # of connection points: 2
#     Edge 51, Type (0, 0), BuildingBlock: OJICUG_clean_linker_0, # of connection points: 2
#     Edge 52, Type (0, 0), BuildingBlock: OJICUG_clean_linker_0, # of connection points: 2
#     Edge 53, Type (0, 0), BuildingBlock: OJICUG_clean_linker_0, # of connection points: 2
#     Edge 54, Type (0, 0), BuildingBlock: OJICUG_clean_linker_0, # of connection points: 2
#     Edge 55, Type (0, 0), BuildingBlock: OJICUG_clean_linker_0, # of connection points: 2
#     Edge 56, Type (0, 0), BuildingBlock: OJICUG_clean_linker_0, # of connection points: 2
#     Edge 57, Type (0, 0), BuildingBlock: OJICUG_clean_linker_0, # of connection points: 2
#     Edge 58, Type (0, 0), BuildingBlock: OJICUG_clean_linker_0, # of connection points: 2
#     Edge 59, Type (0, 0), BuildingBlock: OJICUG_clean_linker_0, # of connection points: 2
#     Edge 60, Type (0, 0), BuildingBlock: OJICUG_clean_linker_0, # of connection points: 2
#     Edge 61, Type (0, 0), BuildingBlock: OJICUG_clean_linker_0, # of connection points: 2
#     Edge 62, Type (0, 0), BuildingBlock: OJICUG_clean_linker_0, # of connection points: 2
#     Edge 63, Type (0, 0), BuildingBlock: OJICUG_clean_linker_0, # of connection points: 2
#     Edge 64, Type (0, 0), BuildingBlock: OJICUG_clean_linker_0, # of connection points: 2
#     Edge 65, Type (0, 0), BuildingBlock: OJICUG_clean_linker_0, # of connection points: 2
#     Edge 66, Type (0, 0), BuildingBlock: OJICUG_clean_linker_0, # of connection points: 2
#     Edge 67, Type (0, 0), BuildingBlock: OJICUG_clean_linker_0, # of connection points: 2
#     Edge 68, Type (0, 0), BuildingBlock: OJICUG_clean_linker_0, # of connection points: 2
#     Edge 69, Type (0, 0), BuildingBlock: OJICUG_clean_linker_0, # of connection points: 2
#     Edge 70, Type (0, 0), BuildingBlock: OJICUG_clean_linker_0, # of connection points: 2
#     Edge 71, Type (0, 0), BuildingBlock: OJICUG_clean_linker_0, # of connection points: 2
#     Edge 72, Type (0, 0), BuildingBlock: OJICUG_clean_linker_0, # of connection points: 2
#     Edge 73, Type (0, 0), BuildingBlock: OJICUG_clean_linker_0, # of connection points: 2
#     Edge 74, Type (0, 0), BuildingBlock: OJICUG_clean_linker_0, # of connection points: 2
#     Edge 75, Type (0, 0), BuildingBlock: OJICUG_clean_linker_0, # of connection points: 2
#     Edge 76, Type (0, 0), BuildingBlock: OJICUG_clean_linker_0, # of connection points: 2
#     Edge 77, Type (0, 0), BuildingBlock: OJICUG_clean_linker_0, # of connection points: 2
#     Edge 78, Type (0, 0), BuildingBlock: OJICUG_clean_linker_0, # of connection points: 2
#     Edge 79, Type (0, 0), BuildingBlock: OJICUG_clean_linker_0, # of connection points: 2
#     Edge 80, Type (0, 0), BuildingBlock: OJICUG_clean_linker_0, # of connection points: 2
#     Edge 81, Type (0, 0), BuildingBlock: OJICUG_clean_linker_0, # of connection points: 2
#     Edge 82, Type (0, 0), BuildingBlock: OJICUG_clean_linker_0, # of connection points: 2
#     Edge 83, Type (0, 0), BuildingBlock: OJICUG_clean_linker_0, # of connection points: 2
#     Edge 84, Type (0, 0), BuildingBlock: OJICUG_clean_linker_0, # of connection points: 2
#     Edge 85, Type (0, 0), BuildingBlock: OJICUG_clean_linker_0, # of connection points: 2
#     Edge 86, Type (0, 0), BuildingBlock: OJICUG_clean_linker_0, # of connection points: 2
#     Edge 87, Type (0, 0), BuildingBlock: OJICUG_clean_linker_0, # of connection points: 2
#     Edge 88, Type (0, 0), BuildingBlock: OJICUG_clean_linker_0, # of connection points: 2
#     Edge 89, Type (0, 0), BuildingBlock: OJICUG_clean_linker_0, # of connection points: 2
#     Edge 90, Type (0, 0), BuildingBlock: OJICUG_clean_linker_0, # of connection points: 2
#     Edge 91, Type (0, 0), BuildingBlock: OJICUG_clean_linker_0, # of connection points: 2
#     Edge 92, Type (0, 0), BuildingBlock: OJICUG_clean_linker_0, # of connection points: 2
#     Edge 93, Type (0, 0), BuildingBlock: OJICUG_clean_linker_0, # of connection points: 2
#     Edge 94, Type (0, 0), BuildingBlock: OJICUG_clean_linker_0, # of connection points: 2
#     Edge 95, Type (0, 0), BuildingBlock: OJICUG_clean_linker_0, # of connection points: 2
# Relax obj value: 0.097
# Max RMSD: 0.122
# Mean RMSD: 0.122
data_MOF--net-umq--node1-AZAVOO_clean_sbu_0--edge1-OJICUG_clean_linker_0
_symmetry_space_group_name_H-M    P1
_symmetry_Int_Tables_number       1
_symmetry_cell_setting            triclinic
loop_
_symmetry_equiv_pos_as_xyz
'x, y, z'
_cell_length_a     48.556634
_cell_length_b     48.592555
_cell_length_c     32.685476
_cell_angle_alpha  89.982905
_cell_angle_beta   90.015944
_cell_angle_gamma 89.923207
loop_
_atom_site_label
_atom_site_type_symbol
_atom_site_fract_x
_atom_site_fract_y
_atom_site_fract_z
_atom_type_partial_charge
Mg0 Mg 0.22302 0.07812 0.19244 0.0
O1 O 0.25527 0.11068 0.20934 0.0
O2 O 0.25393 0.11445 0.27751 0.0
Mg3 Mg 0.22141 0.08632 0.30421 0.0
C4 C 0.26379 0.1213 0.24279 0.0
C5 C 0.23738 0.05236 0.10797 0.0
O6 O 0.22721 0.03091 0.1272 0.0
O7 O 0.25109 0.04411 0.21612 0.0
O8 O 0.24616 0.04889 0.28367 0.0
O9 O 0.19065 0.11041 0.18765 0.0
O10 O 0.20048 0.08819 0.2448 0.0
C11 C 0.25593 0.0362 0.25271 0.0
C12 C 0.18681 0.10732 0.22657 0.0
O13 O 0.23991 0.07489 0.12738 0.0
Mg14 Mg 0.88836 0.22085 0.19106 0.0
O15 O 0.85704 0.25444 0.20757 0.0
O16 O 0.853 0.25359 0.27574 0.0
Mg17 Mg 0.8796 0.21981 0.30284 0.0
C18 C 0.84674 0.26362 0.24086 0.0
C19 C 0.91456 0.23338 0.10622 0.0
O20 O 0.93553 0.22208 0.12536 0.0
O21 O 0.92332 0.2476 0.21495 0.0
O22 O 0.91799 0.24298 0.2825 0.0
O23 O 0.85495 0.18964 0.1863 0.0
O24 O 0.87732 0.19903 0.24348 0.0
C25 C 0.93119 0.25219 0.25164 0.0
C26 C 0.85787 0.18588 0.22527 0.0
O27 O 0.8923 0.23733 0.12583 0.0
Mg28 Mg 0.75188 0.88526 0.1877 0.0
O29 O 0.71856 0.85404 0.20561 0.0
O30 O 0.72114 0.84934 0.27355 0.0
Mg31 Mg 0.7555 0.87564 0.29916 0.0
C32 C 0.71016 0.84351 0.23917 0.0
C33 C 0.73669 0.91189 0.10413 0.0
O34 O 0.74787 0.93292 0.12315 0.0
O35 O 0.72554 0.91998 0.21338 0.0
O36 O 0.73136 0.91397 0.28066 0.0
O37 O 0.78292 0.85169 0.18161 0.0
O38 O 0.77514 0.8745 0.23886 0.0
C39 C 0.72144 0.92737 0.25042 0.0
C40 C 0.78783 0.85492 0.22026 0.0
O41 O 0.73381 0.88936 0.12343 0.0
Mg42 Mg 0.079 0.74661 0.18997 0.0
O43 O 0.11321 0.71572 0.20608 0.0
O44 O 0.1179 0.71758 0.27408 0.0
Mg45 Mg 0.08865 0.74884 0.30144 0.0
C46 C 0.12467 0.70782 0.23927 0.0
C47 C 0.05339 0.73233 0.10557 0.0
O48 O 0.03199 0.74262 0.12487 0.0
O49 O 0.04669 0.71703 0.21471 0.0
O50 O 0.05224 0.72218 0.28213 0.0
O51 O 0.1097 0.78037 0.18452 0.0
O52 O 0.08833 0.76978 0.242 0.0
C53 C 0.03962 0.71178 0.25155 0.0
C54 C 0.10662 0.78429 0.22344 0.0
O55 O 0.07593 0.72958 0.12496 0.0
Mg56 Mg 0.21642 0.88562 0.34474 0.0
O57 O 0.24736 0.85162 0.32798 0.0
O58 O 0.24506 0.84711 0.25998 0.0
Mg59 Mg 0.21365 0.87646 0.23322 0.0
C60 C 0.25506 0.84027 0.29462 0.0
C61 C 0.23142 0.91122 0.4288 0.0
O62 O 0.22121 0.93264 0.40945 0.0
O63 O 0.24586 0.91798 0.31998 0.0
O64 O 0.2406 0.91266 0.25255 0.0
O65 O 0.18285 0.85474 0.35033 0.0
O66 O 0.19302 0.87637 0.29289 0.0
C67 C 0.25112 0.92511 0.28318 0.0
C68 C 0.17877 0.85787 0.31146 0.0
O69 O 0.23382 0.88861 0.40955 0.0
Mg70 Mg 0.08369 0.21589 0.34736 0.0
O71 O 0.11608 0.24827 0.33017 0.0
O72 O 0.12111 0.24564 0.26229 0.0
Mg73 Mg 0.09371 0.21237 0.23601 0.0
C74 C 0.12714 0.25632 0.29678 0.0
C75 C 0.05734 0.23023 0.43115 0.0
O76 O 0.03646 0.21883 0.41203 0.0
O77 O 0.04996 0.24344 0.3215 0.0
O78 O 0.05607 0.23777 0.25423 0.0
O79 O 0.11633 0.18392 0.35364 0.0
O80 O 0.09403 0.19253 0.29616 0.0
C81 C 0.04288 0.24798 0.28443 0.0
C82 C 0.11322 0.17931 0.31489 0.0
O83 O 0.07977 0.23368 0.41178 0.0
Mg84 Mg 0.75206 0.08114 0.34751 0.0
O85 O 0.71885 0.11234 0.32891 0.0
O86 O 0.72184 0.11698 0.26099 0.0
Mg87 Mg 0.75615 0.09028 0.23597 0.0
C88 C 0.71071 0.12293 0.29522 0.0
C89 C 0.73638 0.05479 0.43101 0.0
O90 O 0.74743 0.03363 0.4121 0.0
O91 O 0.72588 0.04633 0.32194 0.0
O92 O 0.73176 0.05221 0.25466 0.0
O93 O 0.78275 0.11495 0.35345 0.0
O94 O 0.77545 0.09166 0.29647 0.0
C95 C 0.72179 0.03891 0.28492 0.0
C96 C 0.78772 0.11157 0.31484 0.0
O97 O 0.73373 0.07734 0.41165 0.0
Mg98 Mg 0.88787 0.74416 0.34295 0.0
O99 O 0.85432 0.71279 0.32656 0.0
O100 O 0.85025 0.71411 0.25841 0.0
Mg101 Mg 0.87934 0.74555 0.23122 0.0
C102 C 0.84326 0.70456 0.29326 0.0
C103 C 0.91314 0.73046 0.42795 0.0
O104 O 0.93465 0.74062 0.40882 0.0
O105 O 0.92107 0.71505 0.3194 0.0
O106 O 0.91609 0.71979 0.25184 0.0
O107 O 0.85644 0.77732 0.34762 0.0
O108 O 0.87823 0.76676 0.29041 0.0
C109 C 0.92865 0.7098 0.28279 0.0
C110 C 0.85946 0.78093 0.30863 0.0
O111 O 0.89074 0.72759 0.40826 0.0
Mg112 Mg 0.74738 0.88713 0.84297 0.0
O113 O 0.71542 0.85409 0.82676 0.0
O114 O 0.71656 0.85 0.75862 0.0
Mg115 Mg 0.74854 0.87844 0.73129 0.0
C116 C 0.70689 0.84322 0.79349 0.0
C117 C 0.73421 0.91272 0.92782 0.0
O118 O 0.74476 0.93397 0.90855 0.0
O119 O 0.71858 0.92054 0.81929 0.0
O120 O 0.72312 0.91548 0.75172 0.0
O121 O 0.78027 0.85538 0.84762 0.0
O122 O 0.76983 0.87725 0.79043 0.0
C123 C 0.71329 0.92811 0.78268 0.0
C124 C 0.78393 0.85843 0.80865 0.0
O125 O 0.7309 0.89035 0.90828 0.0
Mg126 Mg 0.07886 0.74817 0.84487 0.0
O127 O 0.11169 0.71614 0.82761 0.0
O128 O 0.11582 0.71818 0.75955 0.0
Mg129 Mg 0.0876 0.75077 0.73323 0.0
C130 C 0.1225 0.70796 0.79411 0.0
C131 C 0.05322 0.73331 0.92919 0.0
O132 O 0.03177 0.74378 0.91018 0.0
O133 O 0.04517 0.72007 0.82039 0.0
O134 O 0.05043 0.7254 0.75296 0.0
O135 O 0.11095 0.78061 0.8502 0.0
O136 O 0.08868 0.77128 0.79297 0.0
C137 C 0.03765 0.71531 0.7836 0.0
C138 C 0.10773 0.78489 0.81139 0.0
O139 O 0.07572 0.73074 0.90966 0.0
Mg140 Mg 0.22141 0.07893 0.84798 0.0
O141 O 0.25368 0.11132 0.83038 0.0
O142 O 0.25083 0.11622 0.7625 0.0
Mg143 Mg 0.21759 0.08864 0.73657 0.0
C144 C 0.26157 0.12237 0.79692 0.0
C145 C 0.23672 0.05272 0.93167 0.0
O146 O 0.22589 0.03154 0.91259 0.0
O147 O 0.24878 0.04499 0.82228 0.0
O148 O 0.24282 0.05097 0.75505 0.0
O149 O 0.18954 0.11167 0.85407 0.0
O150 O 0.1979 0.08907 0.79681 0.0
C151 C 0.25306 0.03776 0.78522 0.0
C152 C 0.18483 0.10841 0.81537 0.0
O153 O 0.23944 0.07526 0.91232 0.0
Mg154 Mg 0.88738 0.21717 0.84618 0.0
O155 O 0.85514 0.24969 0.82838 0.0
O156 O 0.85071 0.24701 0.7604 0.0
Mg157 Mg 0.87811 0.21351 0.7347 0.0
C158 C 0.84441 0.25777 0.79475 0.0
C159 C 0.91368 0.23176 0.92987 0.0
O160 O 0.93457 0.22032 0.91075 0.0
O161 O 0.92137 0.24442 0.82069 0.0
O162 O 0.9158 0.23853 0.75339 0.0
O163 O 0.85469 0.18536 0.85234 0.0
O164 O 0.87713 0.19375 0.79495 0.0
C165 C 0.92882 0.24872 0.78374 0.0
C166 C 0.85789 0.18063 0.81364 0.0
O167 O 0.89119 0.23511 0.91056 0.0
Mg168 Mg 0.74744 0.07997 0.69193 0.0
O169 O 0.71572 0.11335 0.70798 0.0
O170 O 0.717 0.11769 0.77607 0.0
Mg171 Mg 0.74884 0.08905 0.80353 0.0
C172 C 0.70733 0.12443 0.74117 0.0
C173 C 0.73384 0.05425 0.60729 0.0
O174 O 0.74422 0.03291 0.62664 0.0
O175 O 0.71852 0.04688 0.71596 0.0
O176 O 0.72323 0.05211 0.78348 0.0
O177 O 0.78044 0.11147 0.68692 0.0
O178 O 0.77006 0.08984 0.74431 0.0
C179 C 0.71329 0.03944 0.75264 0.0
C180 C 0.78417 0.10853 0.7259 0.0
O181 O 0.7308 0.07671 0.62672 0.0
Mg182 Mg 0.88605 0.74896 0.68779 0.0
O183 O 0.85295 0.7174 0.70547 0.0
O184 O 0.84827 0.72033 0.77338 0.0
Mg185 Mg 0.8766 0.75291 0.79922 0.0
C186 C 0.8418 0.70974 0.73899 0.0
C187 C 0.91206 0.73294 0.60427 0.0
O188 O 0.93344 0.74336 0.62342 0.0
O189 O 0.91935 0.72079 0.71345 0.0
O190 O 0.91366 0.7268 0.78071 0.0
O191 O 0.85409 0.7816 0.68155 0.0
O192 O 0.87635 0.77269 0.73897 0.0
C193 C 0.92655 0.71626 0.75047 0.0
C194 C 0.85736 0.78624 0.72027 0.0
O195 O 0.88939 0.7308 0.62348 0.0
Mg196 Mg 0.21763 0.88624 0.68976 0.0
O197 O 0.2496 0.85319 0.70622 0.0
O198 O 0.24791 0.84853 0.77423 0.0
Mg199 Mg 0.21559 0.87673 0.80129 0.0
C200 C 0.25793 0.84208 0.73945 0.0
C201 C 0.23187 0.91192 0.60517 0.0
O202 O 0.22136 0.93333 0.62416 0.0
O203 O 0.24614 0.91953 0.71438 0.0
O204 O 0.24119 0.91381 0.78181 0.0
O205 O 0.1849 0.85444 0.68443 0.0
O206 O 0.19471 0.87631 0.7418 0.0
C207 C 0.25121 0.92672 0.75123 0.0
C208 C 0.18083 0.8575 0.72332 0.0
O209 O 0.23472 0.88951 0.62481 0.0
Mg210 Mg 0.08298 0.21717 0.69208 0.0
O211 O 0.11468 0.25023 0.70905 0.0
O212 O 0.1185 0.24898 0.77724 0.0
Mg213 Mg 0.09126 0.21567 0.80388 0.0
C214 C 0.12501 0.25906 0.74252 0.0
C215 C 0.05694 0.23065 0.60749 0.0
O216 O 0.0358 0.21976 0.62665 0.0
O217 O 0.04842 0.24454 0.71581 0.0
O218 O 0.05344 0.23985 0.78339 0.0
O219 O 0.11601 0.18551 0.68733 0.0
O220 O 0.09358 0.19497 0.74443 0.0
C221 C 0.04057 0.24938 0.75242 0.0
C222 C 0.11299 0.18168 0.72627 0.0
O223 O 0.07935 0.23395 0.62698 0.0
Mg224 Mg 0.7179 0.58118 0.69132 0.0
O225 O 0.74974 0.61431 0.70757 0.0
O226 O 0.74863 0.6184 0.77571 0.0
Mg227 Mg 0.71675 0.58979 0.803 0.0
C228 C 0.75825 0.62521 0.74083 0.0
C229 C 0.73138 0.55568 0.60647 0.0
O230 O 0.72103 0.53431 0.6257 0.0
O231 O 0.74687 0.54792 0.71494 0.0
O232 O 0.7424 0.55291 0.78254 0.0
O233 O 0.68491 0.61282 0.68668 0.0
O234 O 0.69544 0.59099 0.74387 0.0
C235 C 0.75227 0.54036 0.75152 0.0
C236 C 0.68129 0.60978 0.72566 0.0
O237 O 0.73442 0.57808 0.62603 0.0
Mg238 Mg 0.38718 0.71936 0.68708 0.0
O239 O 0.35406 0.75103 0.70459 0.0
O240 O 0.34951 0.74833 0.77254 0.0
Mg241 Mg 0.37805 0.71594 0.79861 0.0
C242 C 0.34292 0.75878 0.73808 0.0
C243 C 0.41265 0.73446 0.60286 0.0
O244 O 0.43412 0.72397 0.62179 0.0
O245 O 0.42058 0.74757 0.71209 0.0
O246 O 0.41501 0.74189 0.77943 0.0
O247 O 0.35521 0.68685 0.68138 0.0
O248 O 0.3776 0.69587 0.73862 0.0
C249 C 0.42785 0.75225 0.74902 0.0
C250 C 0.35852 0.68238 0.72013 0.0
O251 O 0.3902 0.73707 0.6225 0.0
Mg252 Mg 0.24902 0.38683 0.69122 0.0
O253 O 0.21662 0.35445 0.70844 0.0
O254 O 0.21841 0.35047 0.77656 0.0
Mg255 Mg 0.25129 0.37825 0.80292 0.0
C256 C 0.20821 0.34386 0.74196 0.0
C257 C 0.23456 0.41285 0.607 0.0
O258 O 0.24519 0.43406 0.62626 0.0
O259 O 0.22112 0.42077 0.71553 0.0
O260 O 0.22625 0.41564 0.78302 0.0
O261 O 0.28119 0.35437 0.686 0.0
O262 O 0.27188 0.37664 0.74324 0.0
C263 C 0.21631 0.42841 0.75225 0.0
C264 C 0.28536 0.35745 0.72486 0.0
O265 O 0.23175 0.3903 0.62632 0.0
Mg266 Mg 0.5815 0.25035 0.68731 0.0
O267 O 0.61411 0.21827 0.70523 0.0
O268 O 0.61898 0.22141 0.77309 0.0
Mg269 Mg 0.59114 0.25457 0.79869 0.0
C270 C 0.6252 0.21055 0.73879 0.0
C271 C 0.55569 0.23541 0.60332 0.0
O272 O 0.5346 0.24683 0.62196 0.0
O273 O 0.54785 0.22278 0.71319 0.0
O274 O 0.55382 0.22884 0.7804 0.0
O275 O 0.61396 0.28236 0.68084 0.0
O276 O 0.59154 0.27408 0.73829 0.0
C277 C 0.54075 0.2184 0.75027 0.0
C278 C 0.61076 0.28717 0.71952 0.0
O279 O 0.57801 0.23214 0.62308 0.0
Mg280 Mg 0.72134 0.38753 0.84157 0.0
O281 O 0.75357 0.35468 0.82546 0.0
O282 O 0.75252 0.35052 0.75733 0.0
Mg283 Mg 0.72011 0.37861 0.72993 0.0
C284 C 0.76223 0.34385 0.79224 0.0
C285 C 0.73504 0.41364 0.92595 0.0
O286 O 0.72455 0.43488 0.90648 0.0
O287 O 0.74966 0.42115 0.81759 0.0
O288 O 0.74492 0.41605 0.75005 0.0
O289 O 0.68875 0.35555 0.84651 0.0
O290 O 0.69895 0.37733 0.78917 0.0
C291 C 0.75465 0.42883 0.78095 0.0
C292 C 0.68502 0.35848 0.80753 0.0
O293 O 0.73801 0.39109 0.90673 0.0
Mg294 Mg 0.57915 0.71935 0.84625 0.0
O295 O 0.61224 0.75093 0.82863 0.0
O296 O 0.61705 0.74796 0.76076 0.0
Mg297 Mg 0.58881 0.7153 0.73487 0.0
C298 C 0.62344 0.75859 0.79515 0.0
C299 C 0.55309 0.7354 0.92971 0.0
O300 O 0.53172 0.72491 0.91062 0.0
O301 O 0.54585 0.74745 0.82043 0.0
O302 O 0.55169 0.74139 0.75321 0.0
O303 O 0.61114 0.68674 0.85263 0.0
O304 O 0.58892 0.69557 0.79515 0.0
C305 C 0.53872 0.75194 0.78337 0.0
C306 C 0.60789 0.68206 0.81392 0.0
O307 O 0.57574 0.73756 0.91048 0.0
Mg308 Mg 0.24876 0.58158 0.84315 0.0
O309 O 0.21616 0.61399 0.82661 0.0
O310 O 0.21735 0.61798 0.75846 0.0
Mg311 Mg 0.25013 0.59025 0.73144 0.0
C312 C 0.20743 0.62459 0.79325 0.0
C313 C 0.23478 0.55537 0.9274 0.0
O314 O 0.24515 0.53412 0.90786 0.0
O315 O 0.22075 0.54767 0.8192 0.0
O316 O 0.22544 0.55279 0.75164 0.0
O317 O 0.28107 0.6139 0.84792 0.0
O318 O 0.27115 0.5918 0.79078 0.0
C319 C 0.21575 0.54 0.78255 0.0
C320 C 0.28491 0.61082 0.80899 0.0
O321 O 0.232 0.578 0.90829 0.0
Mg322 Mg 0.38794 0.24823 0.84626 0.0
O323 O 0.35576 0.21553 0.82945 0.0
O324 O 0.35118 0.21735 0.76144 0.0
Mg325 Mg 0.37846 0.25052 0.73472 0.0
C326 C 0.34496 0.20704 0.79612 0.0
C327 C 0.41392 0.23471 0.93084 0.0
O328 O 0.43496 0.24593 0.91187 0.0
O329 O 0.42213 0.22078 0.8215 0.0
O330 O 0.41634 0.22598 0.75411 0.0
O331 O 0.35519 0.28011 0.85169 0.0
O332 O 0.3775 0.27108 0.79439 0.0
C333 C 0.42954 0.21618 0.78461 0.0
C334 C 0.35829 0.28444 0.81287 0.0
O335 O 0.39163 0.23109 0.91115 0.0
Mg336 Mg 0.24743 0.38813 0.346 0.0
O337 O 0.21594 0.35469 0.32933 0.0
O338 O 0.21814 0.34999 0.26136 0.0
Mg339 Mg 0.2501 0.37861 0.2345 0.0
C340 C 0.20805 0.3434 0.29603 0.0
C341 C 0.23351 0.41366 0.4306 0.0
O342 O 0.24448 0.43483 0.41164 0.0
O343 O 0.21879 0.42132 0.32107 0.0
O344 O 0.22419 0.41561 0.25373 0.0
O345 O 0.28032 0.35645 0.35167 0.0
O346 O 0.27068 0.37833 0.2942 0.0
C347 C 0.21394 0.42852 0.28415 0.0
C348 C 0.28451 0.35949 0.31281 0.0
O349 O 0.23015 0.39137 0.41087 0.0
Mg350 Mg 0.58325 0.24786 0.34281 0.0
O351 O 0.61492 0.21466 0.3262 0.0
O352 O 0.61895 0.21569 0.25802 0.0
Mg353 Mg 0.59187 0.24913 0.23104 0.0
C354 C 0.62535 0.20569 0.29287 0.0
C355 C 0.55667 0.23443 0.42701 0.0
O356 O 0.53558 0.24512 0.4074 0.0
O357 O 0.5487 0.22069 0.31886 0.0
O358 O 0.55382 0.22534 0.2513 0.0
O359 O 0.61636 0.27934 0.34773 0.0
O360 O 0.59411 0.26981 0.29048 0.0
C361 C 0.54084 0.21593 0.28223 0.0
C362 C 0.6135 0.28303 0.30873 0.0
O363 O 0.57927 0.23123 0.40795 0.0
Mg364 Mg 0.71338 0.58326 0.34683 0.0
O365 O 0.7462 0.61497 0.32884 0.0
O366 O 0.74316 0.62002 0.26099 0.0
Mg367 Mg 0.70919 0.59318 0.23547 0.0
C368 C 0.75424 0.62583 0.29531 0.0
C369 C 0.72901 0.55668 0.43018 0.0
O370 O 0.71795 0.53561 0.41112 0.0
O371 O 0.74022 0.54908 0.3207 0.0
O372 O 0.73429 0.55533 0.25349 0.0
O373 O 0.68199 0.61651 0.35325 0.0
O374 O 0.68983 0.59379 0.29593 0.0
C375 C 0.74451 0.54201 0.28357 0.0
C376 C 0.67707 0.61328 0.31461 0.0
O377 O 0.7317 0.57927 0.41096 0.0
Mg378 Mg 0.38621 0.71869 0.34252 0.0
O379 O 0.35169 0.7492 0.3265 0.0
O380 O 0.34684 0.74731 0.25853 0.0
Mg381 Mg 0.37645 0.71641 0.2311 0.0
C382 C 0.34004 0.75697 0.29339 0.0
C383 C 0.41193 0.73403 0.42654 0.0
O384 O 0.43356 0.72431 0.40713 0.0
O385 O 0.41812 0.7486 0.3177 0.0
O386 O 0.4126 0.74351 0.25027 0.0
O387 O 0.35579 0.68471 0.34812 0.0
O388 O 0.37698 0.69544 0.29053 0.0
C389 C 0.42511 0.75401 0.28088 0.0
C390 C 0.35878 0.68084 0.30918 0.0
O391 O 0.38921 0.73593 0.40739 0.0
Mg392 Mg 0.24869 0.57937 0.18846 0.0
O393 O 0.21734 0.613 0.20521 0.0
O394 O 0.21966 0.61766 0.27317 0.0
Mg395 Mg 0.25157 0.58885 0.29993 0.0
C396 C 0.20951 0.6243 0.23854 0.0
C397 C 0.23449 0.55406 0.1038 0.0
O398 O 0.24542 0.53276 0.12258 0.0
O399 O 0.21982 0.54648 0.21345 0.0
O400 O 0.22532 0.55213 0.2808 0.0
O401 O 0.2819 0.61066 0.18272 0.0
O402 O 0.2721 0.58892 0.2402 0.0
C403 C 0.21491 0.53935 0.25038 0.0
C404 C 0.28615 0.60753 0.22156 0.0
O405 O 0.23128 0.57633 0.12365 0.0
Mg406 Mg 0.38677 0.25004 0.1913 0.0
O407 O 0.35498 0.21708 0.20853 0.0
O408 O 0.35106 0.21868 0.27666 0.0
Mg409 Mg 0.37817 0.25216 0.30298 0.0
C410 C 0.34464 0.20837 0.24206 0.0
C411 C 0.41307 0.23578 0.10721 0.0
O412 O 0.4342 0.24656 0.12653 0.0
O413 O 0.42109 0.22264 0.21566 0.0
O414 O 0.41595 0.22765 0.28318 0.0
O415 O 0.35389 0.28183 0.18609 0.0
O416 O 0.37632 0.27271 0.24329 0.0
C417 C 0.42882 0.21789 0.25236 0.0
C418 C 0.35704 0.28608 0.22492 0.0
O419 O 0.3905 0.23284 0.12644 0.0
Mg420 Mg 0.71939 0.38758 0.18614 0.0
O421 O 0.75316 0.35692 0.20465 0.0
O422 O 0.75042 0.35243 0.27261 0.0
Mg423 Mg 0.71565 0.37851 0.29772 0.0
C424 C 0.76156 0.34657 0.23836 0.0
C425 C 0.73404 0.41389 0.10226 0.0
O426 O 0.72252 0.43484 0.12108 0.0
O427 O 0.74493 0.42297 0.21147 0.0
O428 O 0.73906 0.4171 0.27875 0.0
O429 O 0.68917 0.35332 0.18049 0.0
O430 O 0.69627 0.37682 0.23731 0.0
C431 C 0.74874 0.43059 0.24847 0.0
C432 C 0.68417 0.35677 0.21907 0.0
O433 O 0.73743 0.39153 0.12185 0.0
Mg434 Mg 0.57768 0.72407 0.1909 0.0
O435 O 0.61073 0.75591 0.20748 0.0
O436 O 0.61446 0.75485 0.27569 0.0
Mg437 Mg 0.58579 0.7229 0.30271 0.0
C438 C 0.62147 0.76442 0.24086 0.0
C439 C 0.55228 0.73777 0.106 0.0
O440 O 0.53077 0.7277 0.12524 0.0
O441 O 0.54404 0.75275 0.21412 0.0
O442 O 0.5487 0.74807 0.28174 0.0
O443 O 0.6095 0.69123 0.18654 0.0
O444 O 0.58743 0.70173 0.24355 0.0
C445 C 0.53617 0.75787 0.25064 0.0
C446 C 0.60637 0.68768 0.22551 0.0
O447 O 0.57473 0.74055 0.12557 0.0
C448 C 0.31395 0.17543 0.27847 0.0
C449 C 0.32449 0.1856 0.24142 0.0
H450 H 0.2869 0.14731 0.30792 0.0
C451 C 0.31544 0.17392 0.20443 0.0
H452 H 0.3205 0.18381 0.3076 0.0
C453 C 0.29594 0.15272 0.20462 0.0
C454 C 0.28521 0.14287 0.2418 0.0
H455 H 0.32321 0.18126 0.17536 0.0
H456 H 0.28912 0.14429 0.17568 0.0
C457 C 0.29461 0.15438 0.27866 0.0
C458 C 0.81618 0.29629 0.202 0.0
C459 C 0.82616 0.28604 0.23943 0.0
H460 H 0.78787 0.32357 0.17213 0.0
C461 C 0.8156 0.29681 0.2761 0.0
H462 H 0.82394 0.28846 0.1732 0.0
C463 C 0.79506 0.31677 0.27549 0.0
C464 C 0.78451 0.32656 0.2382 0.0
H465 H 0.8229 0.28959 0.30553 0.0
H466 H 0.78726 0.32426 0.30447 0.0
C467 C 0.79553 0.3164 0.20139 0.0
C468 C 0.65531 0.79462 0.27639 0.0
C469 C 0.64344 0.78544 0.23965 0.0
H470 H 0.68541 0.8199 0.305 0.0
C471 C 0.65331 0.79598 0.20236 0.0
H472 H 0.64823 0.78704 0.30572 0.0
C473 C 0.67489 0.81505 0.20195 0.0
C474 C 0.68696 0.82385 0.23881 0.0
H475 H 0.6446 0.78933 0.17351 0.0
H476 H 0.68225 0.82267 0.17279 0.0
C477 C 0.67676 0.81352 0.27597 0.0
C478 C 0.18024 0.65886 0.27431 0.0
C479 C 0.18799 0.64585 0.23769 0.0
H480 H 0.15452 0.68839 0.30344 0.0
C481 C 0.1749 0.65359 0.20105 0.0
H482 H 0.1899 0.65356 0.30314 0.0
C483 C 0.15434 0.67384 0.20122 0.0
C484 C 0.14656 0.68665 0.23805 0.0
H485 H 0.18041 0.64396 0.17231 0.0
H486 H 0.1445 0.67933 0.17262 0.0
C487 C 0.15985 0.67895 0.27448 0.0
C488 C 0.28372 0.80521 0.25887 0.0
C489 C 0.27641 0.81856 0.29541 0.0
H490 H 0.30921 0.7755 0.22967 0.0
C491 C 0.28988 0.81113 0.33188 0.0
H492 H 0.27373 0.81024 0.23019 0.0
C493 C 0.31049 0.79095 0.33158 0.0
C494 C 0.31794 0.7779 0.29479 0.0
H495 H 0.2847 0.82102 0.36056 0.0
H496 H 0.3207 0.78576 0.36003 0.0
C497 C 0.30417 0.78519 0.25857 0.0
C498 C 0.17865 0.30896 0.26037 0.0
C499 C 0.18694 0.32152 0.29707 0.0
H500 H 0.15357 0.27879 0.23156 0.0
C501 C 0.1752 0.3126 0.3341 0.0
H502 H 0.1872 0.31524 0.23122 0.0
C503 C 0.15567 0.29143 0.33429 0.0
C504 C 0.14759 0.27883 0.29746 0.0
H505 H 0.18116 0.32186 0.36291 0.0
H506 H 0.147 0.28491 0.36324 0.0
C507 C 0.15929 0.28793 0.26057 0.0
C508 C 0.67655 0.15286 0.33217 0.0
C509 C 0.68796 0.14315 0.29536 0.0
H510 H 0.6477 0.18032 0.36041 0.0
C511 C 0.67784 0.1534 0.25808 0.0
H512 H 0.68387 0.14532 0.36141 0.0
C513 C 0.65724 0.17329 0.25751 0.0
C514 C 0.64619 0.18352 0.2942 0.0
H515 H 0.68598 0.14629 0.2291 0.0
H516 H 0.65024 0.18084 0.2281 0.0
C517 C 0.65583 0.1729 0.33159 0.0
C518 C 0.78998 0.65382 0.33233 0.0
C519 C 0.77727 0.64568 0.29561 0.0
H520 H 0.82094 0.67885 0.36056 0.0
C521 C 0.78682 0.65668 0.25849 0.0
H522 H 0.78313 0.64568 0.36145 0.0
C523 C 0.80836 0.67547 0.25797 0.0
C524 C 0.82099 0.68387 0.29457 0.0
H525 H 0.77763 0.65086 0.22956 0.0
H526 H 0.81496 0.68353 0.22867 0.0
C527 C 0.81165 0.67279 0.33182 0.0
C528 C 0.67337 0.81337 0.83192 0.0
C529 C 0.68533 0.82179 0.79478 0.0
H530 H 0.6443 0.78673 0.86134 0.0
C531 C 0.67663 0.80935 0.75821 0.0
H532 H 0.67962 0.82257 0.86063 0.0
C533 C 0.65659 0.78897 0.75862 0.0
C534 C 0.6446 0.78042 0.7956 0.0
H535 H 0.68535 0.81525 0.729 0.0
H536 H 0.65056 0.77991 0.7297 0.0
C537 C 0.65315 0.79286 0.83232 0.0
C538 C 0.1552 0.67694 0.75773 0.0
C539 C 0.14377 0.68617 0.79475 0.0
H540 H 0.18394 0.6505 0.72827 0.0
C541 C 0.15316 0.67465 0.8317 0.0
H542 H 0.14848 0.68526 0.72863 0.0
C543 C 0.17376 0.65446 0.83149 0.0
C544 C 0.18528 0.64548 0.79433 0.0
H545 H 0.14476 0.68131 0.86075 0.0
H546 H 0.18073 0.64604 0.86038 0.0
C547 C 0.17564 0.6569 0.75752 0.0
C548 C 0.31278 0.17525 0.76032 0.0
C549 C 0.32424 0.18479 0.79713 0.0
H550 H 0.28434 0.14825 0.73142 0.0
C551 C 0.31539 0.17314 0.83426 0.0
H552 H 0.31912 0.18362 0.73109 0.0
C553 C 0.2952 0.1526 0.83444 0.0
C554 C 0.28354 0.14339 0.79751 0.0
H555 H 0.32385 0.18002 0.86316 0.0
H556 H 0.28857 0.14416 0.86349 0.0
C557 C 0.29274 0.15486 0.7605 0.0
C558 C 0.81482 0.29234 0.83166 0.0
C559 C 0.82385 0.28023 0.79495 0.0
H560 H 0.78821 0.32206 0.85978 0.0
C561 C 0.81283 0.28964 0.75773 0.0
H562 H 0.82294 0.28557 0.86086 0.0
C563 C 0.79313 0.31041 0.75711 0.0
C564 C 0.78381 0.32238 0.79369 0.0
H565 H 0.81931 0.28091 0.72879 0.0
H566 H 0.78509 0.3169 0.72773 0.0
C567 C 0.79495 0.31324 0.83104 0.0
C568 C 0.6544 0.17564 0.70191 0.0
C569 C 0.64599 0.18831 0.73854 0.0
H570 H 0.68044 0.1454 0.67384 0.0
C571 C 0.65774 0.17957 0.77562 0.0
H572 H 0.64572 0.1819 0.67282 0.0
C573 C 0.67744 0.1588 0.7762 0.0
C574 C 0.68602 0.14616 0.73972 0.0
H575 H 0.65179 0.18878 0.80448 0.0
H576 H 0.686 0.15279 0.80548 0.0
C577 C 0.67427 0.15474 0.70249 0.0
C578 C 0.79173 0.65505 0.70234 0.0
C579 C 0.7798 0.64665 0.7395 0.0
H580 H 0.82081 0.68164 0.67285 0.0
C581 C 0.78853 0.65909 0.77605 0.0
H582 H 0.78545 0.64586 0.67364 0.0
C583 C 0.80861 0.67943 0.7756 0.0
C584 C 0.82059 0.68795 0.73859 0.0
H585 H 0.77983 0.6532 0.80528 0.0
H586 H 0.81469 0.68848 0.8045 0.0
C587 C 0.81198 0.67553 0.70189 0.0
C588 C 0.28877 0.80871 0.77483 0.0
C589 C 0.27985 0.82096 0.73822 0.0
H590 H 0.31544 0.77978 0.80346 0.0
C591 C 0.29202 0.81275 0.70113 0.0
H592 H 0.27993 0.81448 0.80402 0.0
C593 C 0.31265 0.79259 0.7008 0.0
C594 C 0.32143 0.78034 0.73756 0.0
H595 H 0.28561 0.82181 0.67238 0.0
H596 H 0.32163 0.78659 0.67181 0.0
C597 C 0.30925 0.78871 0.77451 0.0
C598 C 0.15504 0.29253 0.70439 0.0
C599 C 0.1456 0.28142 0.74156 0.0
H600 H 0.18231 0.32109 0.67518 0.0
C601 C 0.15641 0.29155 0.77846 0.0
H602 H 0.14709 0.28519 0.67542 0.0
C603 C 0.17643 0.31196 0.77832 0.0
C604 C 0.18624 0.32285 0.74128 0.0
H605 H 0.14959 0.2836 0.80771 0.0
H606 H 0.18433 0.31902 0.80748 0.0
C607 C 0.17521 0.31309 0.70425 0.0
C608 C 0.2487 0.07537 0.04123 0.0
C609 C 0.24165 0.05144 0.06306 0.0
H610 H 0.25295 0.09453 0.98256 0.0
C611 C 0.23619 0.02718 0.04111 0.0
H612 H 0.2532 0.09438 0.05717 0.0
C613 C 0.23605 0.02726 0.99833 0.0
C614 C 0.24137 0.05161 0.9765 0.0
H615 H 0.23091 0.00831 0.05692 0.0
H616 H 0.23065 0.00846 0.98245 0.0
C617 C 0.24857 0.07545 0.99841 0.0
C618 C 0.89152 0.24475 0.99661 0.0
C619 C 0.91504 0.23652 0.97466 0.0
H620 H 0.87294 0.25048 0.05543 0.0
C621 C 0.93926 0.23037 0.99643 0.0
H622 H 0.87256 0.24979 0.98081 0.0
C623 C 0.93948 0.23076 0.0392 0.0
C624 C 0.91549 0.23732 0.06122 0.0
H625 H 0.95782 0.22416 0.98052 0.0
H626 H 0.95819 0.22483 0.05497 0.0
C627 C 0.89175 0.24516 0.03944 0.0
C628 C 0.72323 0.88972 0.99471 0.0
C629 C 0.73044 0.91358 0.97285 0.0
H630 H 0.71928 0.87048 0.05337 0.0
C631 C 0.73658 0.93769 0.9948 0.0
H632 H 0.71823 0.87083 0.97878 0.0
C633 C 0.73718 0.93748 0.03757 0.0
C634 C 0.73167 0.91318 0.05939 0.0
H635 H 0.74201 0.9565 0.97897 0.0
H636 H 0.74307 0.95614 0.05341 0.0
C637 C 0.72383 0.88952 0.03753 0.0
C638 C 0.02798 0.73389 0.99605 0.0
C639 C 0.05232 0.72871 0.97404 0.0
H640 H 0.00916 0.7388 0.05475 0.0
C641 C 0.07629 0.72158 0.99579 0.0
H642 H 0.00909 0.73923 0.9803 0.0
C643 C 0.07634 0.72133 0.03862 0.0
C644 C 0.0524 0.72821 0.06061 0.0
H645 H 0.09536 0.71731 0.97981 0.0
H646 H 0.09544 0.71688 0.05443 0.0
C647 C 0.02803 0.73364 0.03882 0.0
C648 C 0.24296 0.88849 0.49572 0.0
C649 C 0.2359 0.91234 0.47367 0.0
H650 H 0.24749 0.86966 0.5546 0.0
C651 C 0.23066 0.93677 0.49537 0.0
H652 H 0.24728 0.86936 0.47998 0.0
C653 C 0.23077 0.93695 0.53814 0.0
C654 C 0.23614 0.9127 0.56024 0.0
H655 H 0.22537 0.95558 0.47938 0.0
H656 H 0.22556 0.95588 0.55383 0.0
C657 C 0.24308 0.88867 0.53855 0.0
C658 C 0.03182 0.22873 0.54057 0.0
C659 C 0.05592 0.2349 0.56256 0.0
H660 H 0.01328 0.22271 0.48189 0.0
C661 C 0.07965 0.24268 0.54078 0.0
H662 H 0.01311 0.22286 0.55634 0.0
C663 C 0.07974 0.24261 0.49795 0.0
C664 C 0.05611 0.23474 0.476 0.0
H665 H 0.09852 0.24773 0.55675 0.0
H666 H 0.09869 0.24758 0.48213 0.0
C667 C 0.03191 0.22865 0.4978 0.0
C668 C 0.72302 0.07726 0.54032 0.0
C669 C 0.73002 0.05335 0.56227 0.0
H670 H 0.71927 0.09646 0.48159 0.0
C671 C 0.73594 0.02914 0.5404 0.0
H672 H 0.71819 0.09623 0.55619 0.0
C673 C 0.73656 0.02928 0.49764 0.0
C674 C 0.73128 0.05362 0.47573 0.0
H675 H 0.7412 0.01029 0.5563 0.0
H676 H 0.74228 0.01053 0.48185 0.0
C677 C 0.72363 0.07739 0.49751 0.0
C678 C 0.88942 0.72076 0.53756 0.0
C679 C 0.91327 0.72792 0.55954 0.0
H680 H 0.87068 0.71569 0.47871 0.0
C681 C 0.93778 0.73274 0.53782 0.0
H682 H 0.87022 0.71676 0.55331 0.0
C683 C 0.93805 0.73213 0.49506 0.0
C684 C 0.91381 0.72668 0.47299 0.0
H685 H 0.95659 0.73808 0.55376 0.0
H686 H 0.95705 0.73703 0.47933 0.0
C687 C 0.88969 0.72014 0.49474 0.0
C688 C 0.72929 0.53076 0.53944 0.0
C689 C 0.7352 0.55489 0.56145 0.0
H690 H 0.72298 0.51231 0.48077 0.0
C691 C 0.74226 0.57883 0.53966 0.0
H692 H 0.72399 0.51189 0.55521 0.0
C693 C 0.74169 0.57907 0.49685 0.0
C694 C 0.73405 0.55538 0.47491 0.0
H695 H 0.74709 0.59774 0.55565 0.0
H696 H 0.74609 0.59816 0.48105 0.0
C697 C 0.72871 0.531 0.49667 0.0
C698 C 0.43755 0.73365 0.49311 0.0
C699 C 0.41303 0.73856 0.4714 0.0
H700 H 0.45674 0.7288 0.55159 0.0
C701 C 0.38908 0.74533 0.49343 0.0
H702 H 0.45643 0.72859 0.47714 0.0
C703 C 0.38927 0.74548 0.53625 0.0
C704 C 0.4134 0.73883 0.55795 0.0
H705 H 0.36987 0.7494 0.47768 0.0
H706 H 0.37019 0.74963 0.55228 0.0
C707 C 0.43773 0.73377 0.53588 0.0
C708 C 0.23522 0.4386 0.49764 0.0
C709 C 0.2294 0.41447 0.47557 0.0
H710 H 0.24112 0.4571 0.55636 0.0
C711 C 0.22219 0.39055 0.4973 0.0
H712 H 0.24064 0.45745 0.48192 0.0
C713 C 0.22248 0.39034 0.54014 0.0
C714 C 0.22997 0.41405 0.56215 0.0
H715 H 0.21745 0.37163 0.48128 0.0
H716 H 0.21794 0.37127 0.55591 0.0
C717 C 0.23549 0.43839 0.54041 0.0
C718 C 0.57869 0.22289 0.53702 0.0
C719 C 0.55483 0.2307 0.55849 0.0
H720 H 0.59798 0.21771 0.47861 0.0
C721 C 0.53076 0.23659 0.53622 0.0
H722 H 0.59756 0.21808 0.55322 0.0
C723 C 0.531 0.23637 0.49344 0.0
C724 C 0.55532 0.23028 0.47193 0.0
H725 H 0.51194 0.24247 0.55175 0.0
H726 H 0.51237 0.24208 0.47729 0.0
C727 C 0.57894 0.22269 0.4942 0.0
C728 C 0.73312 0.43902 0.99261 0.0
C729 C 0.73918 0.41479 0.97089 0.0
H730 H 0.72704 0.45783 0.05109 0.0
C731 C 0.74673 0.39109 0.99294 0.0
H732 H 0.72744 0.45772 0.97663 0.0
C733 C 0.74653 0.39116 0.03576 0.0
C734 C 0.73874 0.41493 0.05744 0.0
H735 H 0.75169 0.37212 0.97717 0.0
H736 H 0.75132 0.37224 0.05178 0.0
C737 C 0.7329 0.43909 0.03539 0.0
C738 C 0.52725 0.73611 0.03899 0.0
C739 C 0.55152 0.74159 0.06098 0.0
H740 H 0.50863 0.73015 0.98035 0.0
C741 C 0.57559 0.74819 0.03916 0.0
H742 H 0.50829 0.73116 0.05479 0.0
C743 C 0.57579 0.74761 0.99635 0.0
C744 C 0.55192 0.74042 0.97444 0.0
H745 H 0.59461 0.75267 0.05512 0.0
H746 H 0.59496 0.75166 0.98053 0.0
C747 C 0.52745 0.73553 0.99623 0.0
C748 C 0.22295 0.57741 0.03734 0.0
C749 C 0.23021 0.55339 0.05886 0.0
H750 H 0.21848 0.59687 0.9789 0.0
C751 C 0.23589 0.5293 0.03659 0.0
H752 H 0.21831 0.5963 0.05352 0.0
C753 C 0.23598 0.52962 0.99382 0.0
C754 C 0.23041 0.55406 0.97229 0.0
H755 H 0.24135 0.51038 0.05216 0.0
H756 H 0.2415 0.51094 0.97771 0.0
C757 C 0.22306 0.57774 0.99451 0.0
C758 C 0.43887 0.23672 0.99789 0.0
C759 C 0.41479 0.2306 0.97581 0.0
H760 H 0.45729 0.24285 0.05663 0.0
C761 C 0.39095 0.22309 0.99752 0.0
H762 H 0.45766 0.24237 0.98218 0.0
C763 C 0.39073 0.22339 0.04035 0.0
C764 C 0.41435 0.23118 0.06238 0.0
H765 H 0.37208 0.21811 0.98149 0.0
H766 H 0.3717 0.21862 0.05611 0.0
C767 C 0.43865 0.23699 0.04067 0.0
C768 C 0.26881 -0.01041 0.22719 0.0
C769 C 0.26741 0.00841 0.2597 0.0
H770 H 0.26548 0.94751 0.20934 0.0
C771 C 0.27015 -0.00146 0.29999 0.0
H772 H 0.26756 -0.00349 0.19572 0.0
C773 C 0.26871 0.97037 0.30788 0.0
C774 C 0.26469 0.95183 0.2755 0.0
H775 H 0.27011 0.01257 0.32575 0.0
H776 H 0.26753 0.96359 0.33941 0.0
C777 C 0.2675 0.96141 0.23507 0.0
C778 C 0.9783 0.26391 0.22683 0.0
C779 C 0.95919 0.26295 0.25901 0.0
H780 H 0.02059 0.26062 0.20983 0.0
C781 C 0.96874 0.26589 0.29945 0.0
H782 H 0.97164 0.26242 0.19527 0.0
C783 C -0.00313 0.26461 0.30788 0.0
C784 C 0.01574 0.26054 0.27593 0.0
H785 H 0.95449 0.26611 0.32494 0.0
H786 H 0.00341 0.2638 0.33955 0.0
C787 C 0.00644 0.26276 0.23525 0.0
C788 C 0.70769 -0.00784 0.30838 0.0
C789 C 0.71021 0.01139 0.27656 0.0
H790 H 0.70847 0.94967 0.3248 0.0
C791 C 0.7076 0.0023 0.23586 0.0
H792 H 0.70888 -0.00149 0.3401 0.0
C793 C 0.70754 0.97423 0.22701 0.0
C794 C 0.71001 0.95497 0.25882 0.0
H795 H 0.70856 0.01671 0.2106 0.0
H796 H 0.70863 0.96787 0.19529 0.0
C797 C 0.70753 0.96408 0.29954 0.0
C798 C -0.00608 0.69508 0.22716 0.0
C799 C 0.01269 0.69862 0.25939 0.0
H800 H 0.9516 0.69486 0.2096 0.0
C801 C 0.00319 0.69602 0.2999 0.0
H802 H 0.00062 0.69611 0.19559 0.0
C803 C 0.97498 0.69551 0.308 0.0
C804 C 0.95607 0.69747 0.27563 0.0
H805 H 0.01725 0.69767 0.32551 0.0
H806 H 0.96823 0.69696 0.33952 0.0
C807 C 0.96572 0.69441 0.23527 0.0
C808 C 0.69792 0.96526 0.73525 0.0
C809 C 0.70084 0.95547 0.77556 0.0
H810 H 0.69908 0.00037 0.69598 0.0
C811 C 0.69828 0.97414 0.8081 0.0
H812 H 0.69883 0.9513 0.70945 0.0
C813 C 0.69819 0.00237 0.80032 0.0
C814 C 0.70082 0.01215 0.75996 0.0
H815 H 0.69961 0.96724 0.83957 0.0
H816 H 0.69933 0.01632 0.82612 0.0
C817 C 0.69798 -0.00651 0.72747 0.0
C818 C 0.97277 0.70047 0.72685 0.0
C819 C 0.95373 0.70373 0.75878 0.0
H820 H 0.01521 0.70068 0.70997 0.0
C821 C 0.963 0.70132 0.79945 0.0
H822 H 0.96627 0.70141 0.69517 0.0
C823 C -0.00886 0.7011 0.808 0.0
C824 C 0.01025 0.70317 0.77593 0.0
H825 H 0.94873 0.7028 0.82483 0.0
H826 H -0.00233 0.70258 0.83962 0.0
C827 C 0.00091 0.70012 0.7354 0.0
C828 C 0.26705 0.96295 0.79978 0.0
C829 C 0.26382 0.95386 0.75917 0.0
H830 H 0.2667 -0.00257 0.84028 0.0
C831 C 0.26641 0.97301 0.72726 0.0
H832 H 0.2661 0.94859 0.8251 0.0
C833 C 0.26697 0.0011 0.73602 0.0
C834 C 0.26482 0.01028 0.77675 0.0
H835 H 0.2648 0.96664 0.69559 0.0
H836 H 0.26592 0.01548 0.71074 0.0
C837 C 0.26749 -0.00896 0.80855 0.0
C838 C 0.97505 0.26405 0.80791 0.0
C839 C 0.95624 0.26071 0.77569 0.0
H840 H 0.01735 0.26393 0.82553 0.0
C841 C 0.96582 0.26275 0.73515 0.0
H842 H 0.96831 0.26336 0.83949 0.0
C843 C -0.00598 0.2629 0.72709 0.0
C844 C 0.0129 0.2611 0.75952 0.0
H845 H 0.95174 0.26117 0.70955 0.0
H846 H 0.00079 0.26126 0.69561 0.0
C847 C 0.00325 0.26431 0.79985 0.0
C848 C 0.76816 0.50332 0.7988 0.0
C849 C 0.76509 0.51316 0.75854 0.0
H850 H 0.76783 0.46809 0.83785 0.0
C851 C 0.76807 0.49463 0.72589 0.0
H852 H 0.76692 0.51719 0.82469 0.0
C853 C 0.76883 0.46639 0.7335 0.0
C854 C 0.76644 0.45644 0.7738 0.0
H855 H 0.76663 0.50159 0.69447 0.0
H856 H 0.76804 0.45249 0.70762 0.0
C857 C 0.76878 0.47508 0.80641 0.0
C858 C 0.50245 0.76694 0.73415 0.0
C859 C 0.51153 0.7644 0.77489 0.0
H860 H 0.468 0.7656 0.69358 0.0
C861 C 0.4923 0.7674 0.80665 0.0
H862 H 0.51686 0.76568 0.70893 0.0
C863 C 0.4642 0.76756 0.79778 0.0
C864 C 0.4551 0.76461 0.75712 0.0
H865 H 0.49865 0.76635 0.83839 0.0
H866 H 0.44978 0.76677 0.82304 0.0
C867 C 0.47435 0.76699 0.72529 0.0
C868 C 0.20148 0.46556 0.80002 0.0
C869 C 0.2041 0.45583 0.75964 0.0
H870 H 0.20263 0.50064 0.83932 0.0
C871 C 0.20125 0.47453 0.72716 0.0
H872 H 0.20265 0.45158 0.82578 0.0
C873 C 0.20101 0.50274 0.735 0.0
C874 C 0.20377 0.5125 0.77534 0.0
H875 H 0.20238 0.46767 0.69567 0.0
H876 H 0.20182 0.51672 0.70921 0.0
C877 C 0.20138 0.49378 0.80785 0.0
C878 C 0.46636 0.20181 0.73596 0.0
C879 C 0.45718 0.20463 0.7766 0.0
H880 H 0.50078 0.20355 0.69537 0.0
C881 C 0.47649 0.20283 0.80846 0.0
H882 H 0.45193 0.20219 0.71068 0.0
C883 C 0.50458 0.20343 0.79962 0.0
C884 C 0.51362 0.20592 0.75886 0.0
H885 H 0.47009 0.20418 0.84015 0.0
H886 H 0.51895 0.20502 0.82486 0.0
C887 C 0.49445 0.20252 0.72711 0.0
C888 C 0.19928 0.49314 0.22665 0.0
C889 C 0.20219 0.51227 0.25853 0.0
H890 H 0.1998 0.45069 0.21005 0.0
C891 C 0.19935 0.50312 0.29919 0.0
H892 H 0.20055 0.49955 0.19496 0.0
C893 C 0.19913 0.47502 0.30792 0.0
C894 C 0.20162 0.45583 0.27603 0.0
H895 H 0.20053 0.51745 0.32451 0.0
H896 H 0.20032 0.46859 0.33961 0.0
C897 C 0.19892 0.46504 0.23538 0.0
C898 C 0.50312 0.20206 0.23483 0.0
C899 C 0.51304 0.2046 0.27512 0.0
H900 H 0.46795 0.20388 0.19567 0.0
C901 C 0.49434 0.20257 0.30773 0.0
H902 H 0.51707 0.20265 0.20898 0.0
C903 C 0.4661 0.20309 0.30004 0.0
C904 C 0.45629 0.20575 0.25969 0.0
H905 H 0.50132 0.20369 0.33917 0.0
H906 H 0.45219 0.20443 0.32587 0.0
C907 C 0.47488 0.2027 0.22713 0.0
C908 C 0.76048 0.49567 0.30648 0.0
C909 C 0.75689 0.51486 0.27482 0.0
H910 H 0.76163 0.45315 0.32267 0.0
C911 C 0.75951 0.50596 0.23401 0.0
H912 H 0.75933 0.50191 0.33825 0.0
C913 C 0.76067 0.47793 0.22502 0.0
C914 C 0.7593 0.45852 0.25676 0.0
H915 H 0.75774 0.52037 0.20885 0.0
H916 H 0.75954 0.4716 0.19328 0.0
C917 C 0.76175 0.46764 0.29748 0.0
C918 C 0.46147 0.77016 0.23269 0.0
C919 C 0.45185 0.76756 0.27313 0.0
H920 H 0.49661 0.76973 0.19341 0.0
C921 C 0.47042 0.77161 0.3055 0.0
H922 H 0.44755 0.76812 0.20697 0.0
C923 C 0.49863 0.77277 0.29766 0.0
C924 C 0.5085 0.76974 0.25742 0.0
H925 H 0.4636 0.7706 0.33703 0.0
H926 H 0.51264 0.77271 0.32345 0.0
C927 C 0.48969 0.77119 0.22485 0.0
C928 C 0.14729 0.14005 0.22857 0.0
C929 C 0.1682 0.12582 0.24933 0.0
H930 H 0.11294 0.1672 0.23305 0.0
C931 C 0.1708 0.12922 0.29184 0.0
H932 H 0.14457 0.13761 0.19587 0.0
C933 C 0.15305 0.14671 0.31311 0.0
C934 C 0.13207 0.16088 0.29238 0.0
H935 H 0.18667 0.11872 0.30883 0.0
H936 H 0.15574 0.14904 0.34583 0.0
C937 C 0.12921 0.15714 0.24993 0.0
C938 C 0.82694 0.14515 0.22818 0.0
C939 C 0.83926 0.16753 0.24807 0.0
H940 H 0.80192 0.10936 0.23391 0.0
C941 C 0.83428 0.17158 0.28996 0.0
H942 H 0.83064 0.1414 0.19597 0.0
C943 C 0.81738 0.15352 0.31165 0.0
C944 C 0.80534 0.1309 0.2919 0.0
H945 H 0.84308 0.18882 0.30606 0.0
H946 H 0.81384 0.15726 0.34389 0.0
C947 C 0.8104 0.12684 0.24997 0.0
C948 C 0.83782 0.79724 0.24326 0.0
C949 C 0.84114 0.7997 0.28581 0.0
H950 H 0.81808 0.81245 0.18926 0.0
C951 C 0.82689 0.82056 0.3066 0.0
H952 H 0.84838 0.78146 0.22621 0.0
C953 C 0.80984 0.83869 0.28525 0.0
C954 C 0.80613 0.83594 0.24278 0.0
H955 H 0.82925 0.82319 0.33932 0.0
H956 H 0.79977 0.85492 0.30218 0.0
C957 C 0.82033 0.81502 0.222 0.0
C958 C 0.14235 0.82166 0.31021 0.0
C959 C 0.15985 0.83957 0.28886 0.0
H960 H 0.11129 0.7909 0.30658 0.0
C961 C 0.15903 0.83972 0.24587 0.0
H962 H 0.14216 0.8213 0.34335 0.0
C963 C 0.14186 0.82165 0.22469 0.0
C964 C 0.1246 0.80351 0.24604 0.0
H965 H 0.17167 0.85362 0.22833 0.0
H966 H 0.14199 0.82206 0.19155 0.0
C967 C 0.12469 0.80407 0.28903 0.0
C968 C 0.81849 0.81996 0.72183 0.0
C969 C 0.83877 0.80495 0.74277 0.0
H970 H 0.78558 0.84877 0.72588 0.0
C971 C 0.8411 0.80804 0.7854 0.0
H972 H 0.81628 0.81823 0.68895 0.0
C973 C 0.82304 0.82517 0.80675 0.0
C974 C 0.80272 0.84012 0.78582 0.0
H975 H 0.85687 0.79737 0.80248 0.0
H976 H 0.82528 0.82699 0.83962 0.0
C977 C 0.80082 0.83754 0.74309 0.0
C978 C 0.16141 0.83908 0.78893 0.0
C979 C 0.16202 0.8391 0.74593 0.0
H980 H 0.14416 0.82161 0.84325 0.0
C981 C 0.14423 0.82148 0.72458 0.0
H982 H 0.17435 0.85268 0.80647 0.0
C983 C 0.12631 0.80417 0.74577 0.0
C984 C 0.12624 0.80358 0.78876 0.0
H985 H 0.14392 0.82125 0.69144 0.0
H986 H 0.11265 0.79128 0.72821 0.0
C987 C 0.14396 0.82127 0.81011 0.0
C988 C 0.13595 0.16682 0.7913 0.0
C989 C 0.13169 0.16334 0.74911 0.0
H990 H 0.1563 0.15241 0.84528 0.0
C991 C 0.1451 0.14172 0.72883 0.0
H992 H 0.12625 0.1834 0.80781 0.0
C993 C 0.16212 0.12369 0.75045 0.0
C994 C 0.16657 0.12729 0.79262 0.0
H995 H 0.142 0.13837 0.69639 0.0
H996 H 0.17152 0.10682 0.73403 0.0
C997 C 0.15332 0.14907 0.81282 0.0
C998 C 0.84097 0.15932 0.74851 0.0
C999 C 0.83912 0.16208 0.79124 0.0
H1000 H 0.82475 0.14062 0.6944 0.0
C1001 C 0.81926 0.14674 0.81244 0.0
H1002 H 0.85639 0.17027 0.7312 0.0
C1003 C 0.80157 0.12912 0.79135 0.0
C1004 C 0.803 0.12686 0.74855 0.0
H1005 H 0.81746 0.14817 0.84541 0.0
H1006 H 0.78673 0.11756 0.80879 0.0
C1007 C 0.82288 0.14217 0.72735 0.0
C1008 C 0.642 0.64282 0.72759 0.0
C1009 C 0.66251 0.62809 0.74848 0.0
H1010 H 0.60806 0.67047 0.73187 0.0
C1011 C 0.66461 0.63092 0.79115 0.0
H1012 H 0.63961 0.6408 0.69477 0.0
C1013 C 0.64695 0.64852 0.81239 0.0
C1014 C 0.62649 0.66331 0.79148 0.0
H1015 H 0.68003 0.6199 0.80832 0.0
H1016 H 0.64931 0.65046 0.84522 0.0
C1017 C 0.62397 0.65997 0.74892 0.0
C1018 C 0.32393 0.64412 0.80702 0.0
C1019 C 0.30361 0.62918 0.78617 0.0
H1020 H 0.35785 0.67172 0.80255 0.0
C1021 C 0.30173 0.63165 0.74343 0.0
H1022 H 0.32614 0.64238 0.83991 0.0
C1023 C 0.31948 0.64902 0.72204 0.0
C1024 C 0.33982 0.66396 0.74287 0.0
H1025 H 0.28647 0.62046 0.72627 0.0
H1026 H 0.3173 0.65063 0.68914 0.0
C1027 C 0.34207 0.66106 0.78555 0.0
C1028 C 0.32091 0.31974 0.81159 0.0
C1029 C 0.3396 0.30303 0.79028 0.0
H1030 H 0.28968 0.35037 0.808 0.0
C1031 C 0.34047 0.3046 0.74736 0.0
H1032 H 0.31991 0.31926 0.8447 0.0
C1033 C 0.32258 0.32202 0.72617 0.0
C1034 C 0.30392 0.33876 0.74749 0.0
H1035 H 0.35492 0.2925 0.72989 0.0
H1036 H 0.32369 0.32264 0.69308 0.0
C1037 C 0.30348 0.33762 0.79045 0.0
C1038 C 0.65073 0.31948 0.72114 0.0
C1039 C 0.62969 0.30553 0.74195 0.0
H1040 H 0.68457 0.34712 0.72527 0.0
C1041 C 0.62692 0.30933 0.78439 0.0
H1042 H 0.65334 0.31712 0.68841 0.0
C1043 C 0.6452 0.32621 0.8057 0.0
C1044 C 0.6662 0.34018 0.78486 0.0
H1045 H 0.6106 0.29946 0.80133 0.0
H1046 H 0.64257 0.32869 0.8384 0.0
C1047 C 0.66867 0.33678 0.74234 0.0
C1048 C 0.32194 0.32362 0.22615 0.0
C1049 C 0.33847 0.30477 0.2475 0.0
H1050 H 0.29278 0.35629 0.22985 0.0
C1051 C 0.33738 0.30437 0.29045 0.0
H1052 H 0.32257 0.32472 0.19306 0.0
C1053 C 0.3197 0.32201 0.31158 0.0
C1054 C 0.30315 0.34085 0.29025 0.0
H1055 H 0.34998 0.29043 0.30801 0.0
H1056 H 0.31921 0.321 0.34468 0.0
C1057 C 0.30472 0.3417 0.24732 0.0
C1058 C 0.64459 0.32363 0.30573 0.0
C1059 C 0.63223 0.30124 0.28592 0.0
H1060 H 0.66983 0.35927 0.2999 0.0
C1061 C 0.63741 0.29696 0.24413 0.0
H1062 H 0.64078 0.32753 0.33787 0.0
C1063 C 0.65448 0.31486 0.22243 0.0
C1064 C 0.66652 0.33751 0.24207 0.0
H1065 H 0.62862 0.27968 0.22812 0.0
H1066 H 0.65812 0.31097 0.19025 0.0
C1067 C 0.66132 0.34176 0.28392 0.0
C1068 C 0.6543 0.62875 0.24985 0.0
C1069 C 0.65893 0.63236 0.29198 0.0
H1070 H 0.63438 0.64371 0.19582 0.0
C1071 C 0.64601 0.65433 0.31219 0.0
H1072 H 0.66339 0.61173 0.23342 0.0
C1073 C 0.62886 0.67233 0.29069 0.0
C1074 C 0.62455 0.66891 0.24849 0.0
H1075 H 0.64909 0.65765 0.34464 0.0
H1076 H 0.61941 0.68905 0.30719 0.0
C1077 C 0.63755 0.64703 0.22825 0.0
C1078 C 0.30622 0.62552 0.287 0.0
C1079 C 0.30514 0.62582 0.24402 0.0
H1080 H 0.32361 0.64296 0.34122 0.0
C1081 C 0.32252 0.6438 0.22257 0.0
H1082 H 0.29368 0.61156 0.3046 0.0
C1083 C 0.34034 0.66129 0.24365 0.0
C1084 C 0.3407 0.66168 0.28665 0.0
H1085 H 0.32251 0.64426 0.18944 0.0
H1086 H 0.35364 0.6745 0.22602 0.0
C1087 C 0.32354 0.64349 0.30809 0.0
loop_
_geom_bond_atom_site_label_1
_geom_bond_atom_site_label_2
_geom_bond_distance
_geom_bond_site_symmetry_2
_ccdc_geom_bond_type
Mg0 O1 2.028 . S
Mg0 O7 1.986 . S
Mg0 O9 2.114 . S
Mg0 O10 2.251 . S
Mg0 O13 2.010 . S
O1 Mg0 2.028 . S
O1 C4 1.250 . S
O2 Mg3 2.028 . S
O2 C4 1.248 . S
Mg3 O2 2.028 . S
Mg3 O8 2.032 . S
Mg3 O10 2.079 . S
C4 O1 1.250 . S
C4 O2 1.248 . S
C5 O6 1.264 . S
C5 O13 1.249 . S
O6 C5 1.264 . S
O7 Mg0 1.986 . S
O7 C11 1.246 . S
O8 Mg3 2.032 . S
O8 C11 1.259 . S
O9 Mg0 2.114 . S
O9 C12 1.252 . S
O10 Mg0 2.251 . S
O10 Mg3 2.079 . S
O10 C12 1.273 . S
C11 O7 1.246 . S
C11 O8 1.259 . S
C12 O9 1.252 . S
C12 O10 1.273 . S
O13 Mg0 2.010 . S
O13 C5 1.249 . S
Mg14 O15 2.028 . S
Mg14 O21 1.986 . S
Mg14 O23 2.114 . S
Mg14 O24 2.251 . S
Mg14 O27 2.010 . S
O15 Mg14 2.028 . S
O15 C18 1.250 . S
O16 Mg17 2.028 . S
O16 C18 1.248 . S
Mg17 O16 2.028 . S
Mg17 O22 2.032 . S
Mg17 O24 2.079 . S
C18 O15 1.250 . S
C18 O16 1.248 . S
C19 O20 1.264 . S
C19 O27 1.249 . S
O20 C19 1.264 . S
O21 Mg14 1.986 . S
O21 C25 1.246 . S
O22 Mg17 2.032 . S
O22 C25 1.259 . S
O23 Mg14 2.114 . S
O23 C26 1.252 . S
O24 Mg14 2.251 . S
O24 Mg17 2.079 . S
O24 C26 1.273 . S
C25 O21 1.246 . S
C25 O22 1.259 . S
C26 O23 1.252 . S
C26 O24 1.273 . S
O27 Mg14 2.010 . S
O27 C19 1.249 . S
Mg28 O29 2.028 . S
Mg28 O35 1.986 . S
Mg28 O37 2.114 . S
Mg28 O38 2.251 . S
Mg28 O41 2.010 . S
O29 Mg28 2.028 . S
O29 C32 1.250 . S
O30 Mg31 2.028 . S
O30 C32 1.248 . S
Mg31 O30 2.028 . S
Mg31 O36 2.032 . S
Mg31 O38 2.079 . S
C32 O29 1.250 . S
C32 O30 1.248 . S
C33 O34 1.264 . S
C33 O41 1.249 . S
O34 C33 1.264 . S
O35 Mg28 1.986 . S
O35 C39 1.246 . S
O36 Mg31 2.032 . S
O36 C39 1.259 . S
O37 Mg28 2.114 . S
O37 C40 1.252 . S
O38 Mg28 2.251 . S
O38 Mg31 2.079 . S
O38 C40 1.273 . S
C39 O35 1.246 . S
C39 O36 1.259 . S
C40 O37 1.252 . S
C40 O38 1.273 . S
O41 Mg28 2.010 . S
O41 C33 1.249 . S
Mg42 O43 2.028 . S
Mg42 O49 1.986 . S
Mg42 O51 2.114 . S
Mg42 O52 2.251 . S
Mg42 O55 2.010 . S
O43 Mg42 2.028 . S
O43 C46 1.250 . S
O44 Mg45 2.028 . S
O44 C46 1.248 . S
Mg45 O44 2.028 . S
Mg45 O50 2.032 . S
Mg45 O52 2.079 . S
C46 O43 1.250 . S
C46 O44 1.248 . S
C47 O48 1.264 . S
C47 O55 1.249 . S
O48 C47 1.264 . S
O49 Mg42 1.986 . S
O49 C53 1.246 . S
O50 Mg45 2.032 . S
O50 C53 1.259 . S
O51 Mg42 2.114 . S
O51 C54 1.252 . S
O52 Mg42 2.251 . S
O52 Mg45 2.079 . S
O52 C54 1.273 . S
C53 O49 1.246 . S
C53 O50 1.259 . S
C54 O51 1.252 . S
C54 O52 1.273 . S
O55 Mg42 2.010 . S
O55 C47 1.249 . S
Mg56 O57 2.028 . S
Mg56 O63 1.986 . S
Mg56 O65 2.114 . S
Mg56 O66 2.251 . S
Mg56 O69 2.010 . S
O57 Mg56 2.028 . S
O57 C60 1.250 . S
O58 Mg59 2.028 . S
O58 C60 1.248 . S
Mg59 O58 2.028 . S
Mg59 O64 2.032 . S
Mg59 O66 2.079 . S
C60 O57 1.250 . S
C60 O58 1.248 . S
C61 O62 1.264 . S
C61 O69 1.249 . S
O62 C61 1.264 . S
O63 Mg56 1.986 . S
O63 C67 1.246 . S
O64 Mg59 2.032 . S
O64 C67 1.259 . S
O65 Mg56 2.114 . S
O65 C68 1.252 . S
O66 Mg56 2.251 . S
O66 Mg59 2.079 . S
O66 C68 1.273 . S
C67 O63 1.246 . S
C67 O64 1.259 . S
C68 O65 1.252 . S
C68 O66 1.273 . S
O69 Mg56 2.010 . S
O69 C61 1.249 . S
Mg70 O71 2.028 . S
Mg70 O77 1.986 . S
Mg70 O79 2.114 . S
Mg70 O80 2.251 . S
Mg70 O83 2.010 . S
O71 Mg70 2.028 . S
O71 C74 1.250 . S
O72 Mg73 2.028 . S
O72 C74 1.248 . S
Mg73 O72 2.028 . S
Mg73 O78 2.032 . S
Mg73 O80 2.079 . S
C74 O71 1.250 . S
C74 O72 1.248 . S
C75 O76 1.264 . S
C75 O83 1.249 . S
O76 C75 1.264 . S
O77 Mg70 1.986 . S
O77 C81 1.246 . S
O78 Mg73 2.032 . S
O78 C81 1.259 . S
O79 Mg70 2.114 . S
O79 C82 1.252 . S
O80 Mg70 2.251 . S
O80 Mg73 2.079 . S
O80 C82 1.273 . S
C81 O77 1.246 . S
C81 O78 1.259 . S
C82 O79 1.252 . S
C82 O80 1.273 . S
O83 Mg70 2.010 . S
O83 C75 1.249 . S
Mg84 O85 2.028 . S
Mg84 O91 1.986 . S
Mg84 O93 2.114 . S
Mg84 O94 2.251 . S
Mg84 O97 2.010 . S
O85 Mg84 2.028 . S
O85 C88 1.250 . S
O86 Mg87 2.028 . S
O86 C88 1.248 . S
Mg87 O86 2.028 . S
Mg87 O92 2.032 . S
Mg87 O94 2.079 . S
C88 O85 1.250 . S
C88 O86 1.248 . S
C89 O90 1.264 . S
C89 O97 1.249 . S
O90 C89 1.264 . S
O91 Mg84 1.986 . S
O91 C95 1.246 . S
O92 Mg87 2.032 . S
O92 C95 1.259 . S
O93 Mg84 2.114 . S
O93 C96 1.252 . S
O94 Mg84 2.251 . S
O94 Mg87 2.079 . S
O94 C96 1.273 . S
C95 O91 1.246 . S
C95 O92 1.259 . S
C96 O93 1.252 . S
C96 O94 1.273 . S
O97 Mg84 2.010 . S
O97 C89 1.249 . S
Mg98 O99 2.028 . S
Mg98 O105 1.986 . S
Mg98 O107 2.114 . S
Mg98 O108 2.251 . S
Mg98 O111 2.010 . S
O99 Mg98 2.028 . S
O99 C102 1.250 . S
O100 Mg101 2.028 . S
O100 C102 1.248 . S
Mg101 O100 2.028 . S
Mg101 O106 2.032 . S
Mg101 O108 2.079 . S
C102 O99 1.250 . S
C102 O100 1.248 . S
C103 O104 1.264 . S
C103 O111 1.249 . S
O104 C103 1.264 . S
O105 Mg98 1.986 . S
O105 C109 1.246 . S
O106 Mg101 2.032 . S
O106 C109 1.259 . S
O107 Mg98 2.114 . S
O107 C110 1.252 . S
O108 Mg98 2.251 . S
O108 Mg101 2.079 . S
O108 C110 1.273 . S
C109 O105 1.246 . S
C109 O106 1.259 . S
C110 O107 1.252 . S
C110 O108 1.273 . S
O111 Mg98 2.010 . S
O111 C103 1.249 . S
Mg112 O113 2.028 . S
Mg112 O119 1.986 . S
Mg112 O121 2.114 . S
Mg112 O122 2.251 . S
Mg112 O125 2.010 . S
O113 Mg112 2.028 . S
O113 C116 1.250 . S
O114 Mg115 2.028 . S
O114 C116 1.248 . S
Mg115 O114 2.028 . S
Mg115 O120 2.032 . S
Mg115 O122 2.079 . S
C116 O113 1.250 . S
C116 O114 1.248 . S
C117 O118 1.264 . S
C117 O125 1.249 . S
O118 C117 1.264 . S
O119 Mg112 1.986 . S
O119 C123 1.246 . S
O120 Mg115 2.032 . S
O120 C123 1.259 . S
O121 Mg112 2.114 . S
O121 C124 1.252 . S
O122 Mg112 2.251 . S
O122 Mg115 2.079 . S
O122 C124 1.273 . S
C123 O119 1.246 . S
C123 O120 1.259 . S
C124 O121 1.252 . S
C124 O122 1.273 . S
O125 Mg112 2.010 . S
O125 C117 1.249 . S
Mg126 O127 2.028 . S
Mg126 O133 1.986 . S
Mg126 O135 2.114 . S
Mg126 O136 2.251 . S
Mg126 O139 2.010 . S
O127 Mg126 2.028 . S
O127 C130 1.250 . S
O128 Mg129 2.028 . S
O128 C130 1.248 . S
Mg129 O128 2.028 . S
Mg129 O134 2.032 . S
Mg129 O136 2.079 . S
C130 O127 1.250 . S
C130 O128 1.248 . S
C131 O132 1.264 . S
C131 O139 1.249 . S
O132 C131 1.264 . S
O133 Mg126 1.986 . S
O133 C137 1.246 . S
O134 Mg129 2.032 . S
O134 C137 1.259 . S
O135 Mg126 2.114 . S
O135 C138 1.252 . S
O136 Mg126 2.251 . S
O136 Mg129 2.079 . S
O136 C138 1.273 . S
C137 O133 1.246 . S
C137 O134 1.259 . S
C138 O135 1.252 . S
C138 O136 1.273 . S
O139 Mg126 2.010 . S
O139 C131 1.249 . S
Mg140 O141 2.028 . S
Mg140 O147 1.986 . S
Mg140 O149 2.114 . S
Mg140 O150 2.251 . S
Mg140 O153 2.010 . S
O141 Mg140 2.028 . S
O141 C144 1.250 . S
O142 Mg143 2.028 . S
O142 C144 1.248 . S
Mg143 O142 2.028 . S
Mg143 O148 2.032 . S
Mg143 O150 2.079 . S
C144 O141 1.250 . S
C144 O142 1.248 . S
C145 O146 1.264 . S
C145 O153 1.249 . S
O146 C145 1.264 . S
O147 Mg140 1.986 . S
O147 C151 1.246 . S
O148 Mg143 2.032 . S
O148 C151 1.259 . S
O149 Mg140 2.114 . S
O149 C152 1.252 . S
O150 Mg140 2.251 . S
O150 Mg143 2.079 . S
O150 C152 1.273 . S
C151 O147 1.246 . S
C151 O148 1.259 . S
C152 O149 1.252 . S
C152 O150 1.273 . S
O153 Mg140 2.010 . S
O153 C145 1.249 . S
Mg154 O155 2.028 . S
Mg154 O161 1.986 . S
Mg154 O163 2.114 . S
Mg154 O164 2.251 . S
Mg154 O167 2.010 . S
O155 Mg154 2.028 . S
O155 C158 1.250 . S
O156 Mg157 2.028 . S
O156 C158 1.248 . S
Mg157 O156 2.028 . S
Mg157 O162 2.032 . S
Mg157 O164 2.079 . S
C158 O155 1.250 . S
C158 O156 1.248 . S
C159 O160 1.264 . S
C159 O167 1.249 . S
O160 C159 1.264 . S
O161 Mg154 1.986 . S
O161 C165 1.246 . S
O162 Mg157 2.032 . S
O162 C165 1.259 . S
O163 Mg154 2.114 . S
O163 C166 1.252 . S
O164 Mg154 2.251 . S
O164 Mg157 2.079 . S
O164 C166 1.273 . S
C165 O161 1.246 . S
C165 O162 1.259 . S
C166 O163 1.252 . S
C166 O164 1.273 . S
O167 Mg154 2.010 . S
O167 C159 1.249 . S
Mg168 O169 2.028 . S
Mg168 O175 1.986 . S
Mg168 O177 2.114 . S
Mg168 O178 2.251 . S
Mg168 O181 2.010 . S
O169 Mg168 2.028 . S
O169 C172 1.250 . S
O170 Mg171 2.028 . S
O170 C172 1.248 . S
Mg171 O170 2.028 . S
Mg171 O176 2.032 . S
Mg171 O178 2.079 . S
C172 O169 1.250 . S
C172 O170 1.248 . S
C173 O174 1.264 . S
C173 O181 1.249 . S
O174 C173 1.264 . S
O175 Mg168 1.986 . S
O175 C179 1.246 . S
O176 Mg171 2.032 . S
O176 C179 1.259 . S
O177 Mg168 2.114 . S
O177 C180 1.252 . S
O178 Mg168 2.251 . S
O178 Mg171 2.079 . S
O178 C180 1.273 . S
C179 O175 1.246 . S
C179 O176 1.259 . S
C180 O177 1.252 . S
C180 O178 1.273 . S
O181 Mg168 2.010 . S
O181 C173 1.249 . S
Mg182 O183 2.028 . S
Mg182 O189 1.986 . S
Mg182 O191 2.114 . S
Mg182 O192 2.251 . S
Mg182 O195 2.010 . S
O183 Mg182 2.028 . S
O183 C186 1.250 . S
O184 Mg185 2.028 . S
O184 C186 1.248 . S
Mg185 O184 2.028 . S
Mg185 O190 2.032 . S
Mg185 O192 2.079 . S
C186 O183 1.250 . S
C186 O184 1.248 . S
C187 O188 1.264 . S
C187 O195 1.249 . S
O188 C187 1.264 . S
O189 Mg182 1.986 . S
O189 C193 1.246 . S
O190 Mg185 2.032 . S
O190 C193 1.259 . S
O191 Mg182 2.114 . S
O191 C194 1.252 . S
O192 Mg182 2.251 . S
O192 Mg185 2.079 . S
O192 C194 1.273 . S
C193 O189 1.246 . S
C193 O190 1.259 . S
C194 O191 1.252 . S
C194 O192 1.273 . S
O195 Mg182 2.010 . S
O195 C187 1.249 . S
Mg196 O197 2.028 . S
Mg196 O203 1.986 . S
Mg196 O205 2.114 . S
Mg196 O206 2.251 . S
Mg196 O209 2.010 . S
O197 Mg196 2.028 . S
O197 C200 1.250 . S
O198 Mg199 2.028 . S
O198 C200 1.248 . S
Mg199 O198 2.028 . S
Mg199 O204 2.032 . S
Mg199 O206 2.079 . S
C200 O197 1.250 . S
C200 O198 1.248 . S
C201 O202 1.264 . S
C201 O209 1.249 . S
O202 C201 1.264 . S
O203 Mg196 1.986 . S
O203 C207 1.246 . S
O204 Mg199 2.032 . S
O204 C207 1.259 . S
O205 Mg196 2.114 . S
O205 C208 1.252 . S
O206 Mg196 2.251 . S
O206 Mg199 2.079 . S
O206 C208 1.273 . S
C207 O203 1.246 . S
C207 O204 1.259 . S
C208 O205 1.252 . S
C208 O206 1.273 . S
O209 Mg196 2.010 . S
O209 C201 1.249 . S
Mg210 O211 2.028 . S
Mg210 O217 1.986 . S
Mg210 O219 2.114 . S
Mg210 O220 2.251 . S
Mg210 O223 2.010 . S
O211 Mg210 2.028 . S
O211 C214 1.250 . S
O212 Mg213 2.028 . S
O212 C214 1.248 . S
Mg213 O212 2.028 . S
Mg213 O218 2.032 . S
Mg213 O220 2.079 . S
C214 O211 1.250 . S
C214 O212 1.248 . S
C215 O216 1.264 . S
C215 O223 1.249 . S
O216 C215 1.264 . S
O217 Mg210 1.986 . S
O217 C221 1.246 . S
O218 Mg213 2.032 . S
O218 C221 1.259 . S
O219 Mg210 2.114 . S
O219 C222 1.252 . S
O220 Mg210 2.251 . S
O220 Mg213 2.079 . S
O220 C222 1.273 . S
C221 O217 1.246 . S
C221 O218 1.259 . S
C222 O219 1.252 . S
C222 O220 1.273 . S
O223 Mg210 2.010 . S
O223 C215 1.249 . S
Mg224 O225 2.028 . S
Mg224 O231 1.986 . S
Mg224 O233 2.114 . S
Mg224 O234 2.251 . S
Mg224 O237 2.010 . S
O225 Mg224 2.028 . S
O225 C228 1.250 . S
O226 Mg227 2.028 . S
O226 C228 1.248 . S
Mg227 O226 2.028 . S
Mg227 O232 2.032 . S
Mg227 O234 2.079 . S
C228 O225 1.250 . S
C228 O226 1.248 . S
C229 O230 1.264 . S
C229 O237 1.249 . S
O230 C229 1.264 . S
O231 Mg224 1.986 . S
O231 C235 1.246 . S
O232 Mg227 2.032 . S
O232 C235 1.259 . S
O233 Mg224 2.114 . S
O233 C236 1.252 . S
O234 Mg224 2.251 . S
O234 Mg227 2.079 . S
O234 C236 1.273 . S
C235 O231 1.246 . S
C235 O232 1.259 . S
C236 O233 1.252 . S
C236 O234 1.273 . S
O237 Mg224 2.010 . S
O237 C229 1.249 . S
Mg238 O239 2.028 . S
Mg238 O245 1.986 . S
Mg238 O247 2.114 . S
Mg238 O248 2.251 . S
Mg238 O251 2.010 . S
O239 Mg238 2.028 . S
O239 C242 1.250 . S
O240 Mg241 2.028 . S
O240 C242 1.248 . S
Mg241 O240 2.028 . S
Mg241 O246 2.032 . S
Mg241 O248 2.079 . S
C242 O239 1.250 . S
C242 O240 1.248 . S
C243 O244 1.264 . S
C243 O251 1.249 . S
O244 C243 1.264 . S
O245 Mg238 1.986 . S
O245 C249 1.246 . S
O246 Mg241 2.032 . S
O246 C249 1.259 . S
O247 Mg238 2.114 . S
O247 C250 1.252 . S
O248 Mg238 2.251 . S
O248 Mg241 2.079 . S
O248 C250 1.273 . S
C249 O245 1.246 . S
C249 O246 1.259 . S
C250 O247 1.252 . S
C250 O248 1.273 . S
O251 Mg238 2.010 . S
O251 C243 1.249 . S
Mg252 O253 2.028 . S
Mg252 O259 1.986 . S
Mg252 O261 2.114 . S
Mg252 O262 2.251 . S
Mg252 O265 2.010 . S
O253 Mg252 2.028 . S
O253 C256 1.250 . S
O254 Mg255 2.028 . S
O254 C256 1.248 . S
Mg255 O254 2.028 . S
Mg255 O260 2.032 . S
Mg255 O262 2.079 . S
C256 O253 1.250 . S
C256 O254 1.248 . S
C257 O258 1.264 . S
C257 O265 1.249 . S
O258 C257 1.264 . S
O259 Mg252 1.986 . S
O259 C263 1.246 . S
O260 Mg255 2.032 . S
O260 C263 1.259 . S
O261 Mg252 2.114 . S
O261 C264 1.252 . S
O262 Mg252 2.251 . S
O262 Mg255 2.079 . S
O262 C264 1.273 . S
C263 O259 1.246 . S
C263 O260 1.259 . S
C264 O261 1.252 . S
C264 O262 1.273 . S
O265 Mg252 2.010 . S
O265 C257 1.249 . S
Mg266 O267 2.028 . S
Mg266 O273 1.986 . S
Mg266 O275 2.114 . S
Mg266 O276 2.251 . S
Mg266 O279 2.010 . S
O267 Mg266 2.028 . S
O267 C270 1.250 . S
O268 Mg269 2.028 . S
O268 C270 1.248 . S
Mg269 O268 2.028 . S
Mg269 O274 2.032 . S
Mg269 O276 2.079 . S
C270 O267 1.250 . S
C270 O268 1.248 . S
C271 O272 1.264 . S
C271 O279 1.249 . S
O272 C271 1.264 . S
O273 Mg266 1.986 . S
O273 C277 1.246 . S
O274 Mg269 2.032 . S
O274 C277 1.259 . S
O275 Mg266 2.114 . S
O275 C278 1.252 . S
O276 Mg266 2.251 . S
O276 Mg269 2.079 . S
O276 C278 1.273 . S
C277 O273 1.246 . S
C277 O274 1.259 . S
C278 O275 1.252 . S
C278 O276 1.273 . S
O279 Mg266 2.010 . S
O279 C271 1.249 . S
Mg280 O281 2.028 . S
Mg280 O287 1.986 . S
Mg280 O289 2.114 . S
Mg280 O290 2.251 . S
Mg280 O293 2.010 . S
O281 Mg280 2.028 . S
O281 C284 1.250 . S
O282 Mg283 2.028 . S
O282 C284 1.248 . S
Mg283 O282 2.028 . S
Mg283 O288 2.032 . S
Mg283 O290 2.079 . S
C284 O281 1.250 . S
C284 O282 1.248 . S
C285 O286 1.264 . S
C285 O293 1.249 . S
O286 C285 1.264 . S
O287 Mg280 1.986 . S
O287 C291 1.246 . S
O288 Mg283 2.032 . S
O288 C291 1.259 . S
O289 Mg280 2.114 . S
O289 C292 1.252 . S
O290 Mg280 2.251 . S
O290 Mg283 2.079 . S
O290 C292 1.273 . S
C291 O287 1.246 . S
C291 O288 1.259 . S
C292 O289 1.252 . S
C292 O290 1.273 . S
O293 Mg280 2.010 . S
O293 C285 1.249 . S
Mg294 O295 2.028 . S
Mg294 O301 1.986 . S
Mg294 O303 2.114 . S
Mg294 O304 2.251 . S
Mg294 O307 2.010 . S
O295 Mg294 2.028 . S
O295 C298 1.250 . S
O296 Mg297 2.028 . S
O296 C298 1.248 . S
Mg297 O296 2.028 . S
Mg297 O302 2.032 . S
Mg297 O304 2.079 . S
C298 O295 1.250 . S
C298 O296 1.248 . S
C299 O300 1.264 . S
C299 O307 1.249 . S
O300 C299 1.264 . S
O301 Mg294 1.986 . S
O301 C305 1.246 . S
O302 Mg297 2.032 . S
O302 C305 1.259 . S
O303 Mg294 2.114 . S
O303 C306 1.252 . S
O304 Mg294 2.251 . S
O304 Mg297 2.079 . S
O304 C306 1.273 . S
C305 O301 1.246 . S
C305 O302 1.259 . S
C306 O303 1.252 . S
C306 O304 1.273 . S
O307 Mg294 2.010 . S
O307 C299 1.249 . S
Mg308 O309 2.028 . S
Mg308 O315 1.986 . S
Mg308 O317 2.114 . S
Mg308 O318 2.251 . S
Mg308 O321 2.010 . S
O309 Mg308 2.028 . S
O309 C312 1.250 . S
O310 Mg311 2.028 . S
O310 C312 1.248 . S
Mg311 O310 2.028 . S
Mg311 O316 2.032 . S
Mg311 O318 2.079 . S
C312 O309 1.250 . S
C312 O310 1.248 . S
C313 O314 1.264 . S
C313 O321 1.249 . S
O314 C313 1.264 . S
O315 Mg308 1.986 . S
O315 C319 1.246 . S
O316 Mg311 2.032 . S
O316 C319 1.259 . S
O317 Mg308 2.114 . S
O317 C320 1.252 . S
O318 Mg308 2.251 . S
O318 Mg311 2.079 . S
O318 C320 1.273 . S
C319 O315 1.246 . S
C319 O316 1.259 . S
C320 O317 1.252 . S
C320 O318 1.273 . S
O321 Mg308 2.010 . S
O321 C313 1.249 . S
Mg322 O323 2.028 . S
Mg322 O329 1.986 . S
Mg322 O331 2.114 . S
Mg322 O332 2.251 . S
Mg322 O335 2.010 . S
O323 Mg322 2.028 . S
O323 C326 1.250 . S
O324 Mg325 2.028 . S
O324 C326 1.248 . S
Mg325 O324 2.028 . S
Mg325 O330 2.032 . S
Mg325 O332 2.079 . S
C326 O323 1.250 . S
C326 O324 1.248 . S
C327 O328 1.264 . S
C327 O335 1.249 . S
O328 C327 1.264 . S
O329 Mg322 1.986 . S
O329 C333 1.246 . S
O330 Mg325 2.032 . S
O330 C333 1.259 . S
O331 Mg322 2.114 . S
O331 C334 1.252 . S
O332 Mg322 2.251 . S
O332 Mg325 2.079 . S
O332 C334 1.273 . S
C333 O329 1.246 . S
C333 O330 1.259 . S
C334 O331 1.252 . S
C334 O332 1.273 . S
O335 Mg322 2.010 . S
O335 C327 1.249 . S
Mg336 O337 2.028 . S
Mg336 O343 1.986 . S
Mg336 O345 2.114 . S
Mg336 O346 2.251 . S
Mg336 O349 2.010 . S
O337 Mg336 2.028 . S
O337 C340 1.250 . S
O338 Mg339 2.028 . S
O338 C340 1.248 . S
Mg339 O338 2.028 . S
Mg339 O344 2.032 . S
Mg339 O346 2.079 . S
C340 O337 1.250 . S
C340 O338 1.248 . S
C341 O342 1.264 . S
C341 O349 1.249 . S
O342 C341 1.264 . S
O343 Mg336 1.986 . S
O343 C347 1.246 . S
O344 Mg339 2.032 . S
O344 C347 1.259 . S
O345 Mg336 2.114 . S
O345 C348 1.252 . S
O346 Mg336 2.251 . S
O346 Mg339 2.079 . S
O346 C348 1.273 . S
C347 O343 1.246 . S
C347 O344 1.259 . S
C348 O345 1.252 . S
C348 O346 1.273 . S
O349 Mg336 2.010 . S
O349 C341 1.249 . S
Mg350 O351 2.028 . S
Mg350 O357 1.986 . S
Mg350 O359 2.114 . S
Mg350 O360 2.251 . S
Mg350 O363 2.010 . S
O351 Mg350 2.028 . S
O351 C354 1.250 . S
O352 Mg353 2.028 . S
O352 C354 1.248 . S
Mg353 O352 2.028 . S
Mg353 O358 2.032 . S
Mg353 O360 2.079 . S
C354 O351 1.250 . S
C354 O352 1.248 . S
C355 O356 1.264 . S
C355 O363 1.249 . S
O356 C355 1.264 . S
O357 Mg350 1.986 . S
O357 C361 1.246 . S
O358 Mg353 2.032 . S
O358 C361 1.259 . S
O359 Mg350 2.114 . S
O359 C362 1.252 . S
O360 Mg350 2.251 . S
O360 Mg353 2.079 . S
O360 C362 1.273 . S
C361 O357 1.246 . S
C361 O358 1.259 . S
C362 O359 1.252 . S
C362 O360 1.273 . S
O363 Mg350 2.010 . S
O363 C355 1.249 . S
Mg364 O365 2.028 . S
Mg364 O371 1.986 . S
Mg364 O373 2.114 . S
Mg364 O374 2.251 . S
Mg364 O377 2.010 . S
O365 Mg364 2.028 . S
O365 C368 1.250 . S
O366 Mg367 2.028 . S
O366 C368 1.248 . S
Mg367 O366 2.028 . S
Mg367 O372 2.032 . S
Mg367 O374 2.079 . S
C368 O365 1.250 . S
C368 O366 1.248 . S
C369 O370 1.264 . S
C369 O377 1.249 . S
O370 C369 1.264 . S
O371 Mg364 1.986 . S
O371 C375 1.246 . S
O372 Mg367 2.032 . S
O372 C375 1.259 . S
O373 Mg364 2.114 . S
O373 C376 1.252 . S
O374 Mg364 2.251 . S
O374 Mg367 2.079 . S
O374 C376 1.273 . S
C375 O371 1.246 . S
C375 O372 1.259 . S
C376 O373 1.252 . S
C376 O374 1.273 . S
O377 Mg364 2.010 . S
O377 C369 1.249 . S
Mg378 O379 2.028 . S
Mg378 O385 1.986 . S
Mg378 O387 2.114 . S
Mg378 O388 2.251 . S
Mg378 O391 2.010 . S
O379 Mg378 2.028 . S
O379 C382 1.250 . S
O380 Mg381 2.028 . S
O380 C382 1.248 . S
Mg381 O380 2.028 . S
Mg381 O386 2.032 . S
Mg381 O388 2.079 . S
C382 O379 1.250 . S
C382 O380 1.248 . S
C383 O384 1.264 . S
C383 O391 1.249 . S
O384 C383 1.264 . S
O385 Mg378 1.986 . S
O385 C389 1.246 . S
O386 Mg381 2.032 . S
O386 C389 1.259 . S
O387 Mg378 2.114 . S
O387 C390 1.252 . S
O388 Mg378 2.251 . S
O388 Mg381 2.079 . S
O388 C390 1.273 . S
C389 O385 1.246 . S
C389 O386 1.259 . S
C390 O387 1.252 . S
C390 O388 1.273 . S
O391 Mg378 2.010 . S
O391 C383 1.249 . S
Mg392 O393 2.028 . S
Mg392 O399 1.986 . S
Mg392 O401 2.114 . S
Mg392 O402 2.251 . S
Mg392 O405 2.010 . S
O393 Mg392 2.028 . S
O393 C396 1.250 . S
O394 Mg395 2.028 . S
O394 C396 1.248 . S
Mg395 O394 2.028 . S
Mg395 O400 2.032 . S
Mg395 O402 2.079 . S
C396 O393 1.250 . S
C396 O394 1.248 . S
C397 O398 1.264 . S
C397 O405 1.249 . S
O398 C397 1.264 . S
O399 Mg392 1.986 . S
O399 C403 1.246 . S
O400 Mg395 2.032 . S
O400 C403 1.259 . S
O401 Mg392 2.114 . S
O401 C404 1.252 . S
O402 Mg392 2.251 . S
O402 Mg395 2.079 . S
O402 C404 1.273 . S
C403 O399 1.246 . S
C403 O400 1.259 . S
C404 O401 1.252 . S
C404 O402 1.273 . S
O405 Mg392 2.010 . S
O405 C397 1.249 . S
Mg406 O407 2.028 . S
Mg406 O413 1.986 . S
Mg406 O415 2.114 . S
Mg406 O416 2.251 . S
Mg406 O419 2.010 . S
O407 Mg406 2.028 . S
O407 C410 1.250 . S
O408 Mg409 2.028 . S
O408 C410 1.248 . S
Mg409 O408 2.028 . S
Mg409 O414 2.032 . S
Mg409 O416 2.079 . S
C410 O407 1.250 . S
C410 O408 1.248 . S
C411 O412 1.264 . S
C411 O419 1.249 . S
O412 C411 1.264 . S
O413 Mg406 1.986 . S
O413 C417 1.246 . S
O414 Mg409 2.032 . S
O414 C417 1.259 . S
O415 Mg406 2.114 . S
O415 C418 1.252 . S
O416 Mg406 2.251 . S
O416 Mg409 2.079 . S
O416 C418 1.273 . S
C417 O413 1.246 . S
C417 O414 1.259 . S
C418 O415 1.252 . S
C418 O416 1.273 . S
O419 Mg406 2.010 . S
O419 C411 1.249 . S
Mg420 O421 2.028 . S
Mg420 O427 1.986 . S
Mg420 O429 2.114 . S
Mg420 O430 2.251 . S
Mg420 O433 2.010 . S
O421 Mg420 2.028 . S
O421 C424 1.250 . S
O422 Mg423 2.028 . S
O422 C424 1.248 . S
Mg423 O422 2.028 . S
Mg423 O428 2.032 . S
Mg423 O430 2.079 . S
C424 O421 1.250 . S
C424 O422 1.248 . S
C425 O426 1.264 . S
C425 O433 1.249 . S
O426 C425 1.264 . S
O427 Mg420 1.986 . S
O427 C431 1.246 . S
O428 Mg423 2.032 . S
O428 C431 1.259 . S
O429 Mg420 2.114 . S
O429 C432 1.252 . S
O430 Mg420 2.251 . S
O430 Mg423 2.079 . S
O430 C432 1.273 . S
C431 O427 1.246 . S
C431 O428 1.259 . S
C432 O429 1.252 . S
C432 O430 1.273 . S
O433 Mg420 2.010 . S
O433 C425 1.249 . S
Mg434 O435 2.028 . S
Mg434 O441 1.986 . S
Mg434 O443 2.114 . S
Mg434 O444 2.251 . S
Mg434 O447 2.010 . S
O435 Mg434 2.028 . S
O435 C438 1.250 . S
O436 Mg437 2.028 . S
O436 C438 1.248 . S
Mg437 O436 2.028 . S
Mg437 O442 2.032 . S
Mg437 O444 2.079 . S
C438 O435 1.250 . S
C438 O436 1.248 . S
C439 O440 1.264 . S
C439 O447 1.249 . S
O440 C439 1.264 . S
O441 Mg434 1.986 . S
O441 C445 1.246 . S
O442 Mg437 2.032 . S
O442 C445 1.259 . S
O443 Mg434 2.114 . S
O443 C446 1.252 . S
O444 Mg434 2.251 . S
O444 Mg437 2.079 . S
O444 C446 1.273 . S
C445 O441 1.246 . S
C445 O442 1.259 . S
C446 O443 1.252 . S
C446 O444 1.273 . S
O447 Mg434 2.010 . S
O447 C439 1.249 . S
C448 C449 1.387 . S
C448 H452 0.950 . S
C448 C457 1.390 . S
C449 C448 1.387 . S
C449 C451 1.387 . S
H450 C457 0.950 . S
C451 C449 1.387 . S
C451 C453 1.390 . S
C451 H455 0.950 . S
H452 C448 0.950 . S
C453 C451 1.390 . S
C453 C454 1.387 . S
C453 H456 0.950 . S
C454 C453 1.387 . S
C454 C457 1.387 . S
H455 C451 0.950 . S
H456 C453 0.950 . S
C457 C448 1.390 . S
C457 H450 0.950 . S
C457 C454 1.387 . S
C458 C459 1.387 . S
C458 H462 0.950 . S
C458 C467 1.390 . S
C459 C458 1.387 . S
C459 C461 1.387 . S
H460 C467 0.950 . S
C461 C459 1.387 . S
C461 C463 1.390 . S
C461 H465 0.950 . S
H462 C458 0.950 . S
C463 C461 1.390 . S
C463 C464 1.387 . S
C463 H466 0.950 . S
C464 C463 1.387 . S
C464 C467 1.387 . S
H465 C461 0.950 . S
H466 C463 0.950 . S
C467 C458 1.390 . S
C467 H460 0.950 . S
C467 C464 1.387 . S
C468 C469 1.387 . S
C468 H472 0.950 . S
C468 C477 1.390 . S
C469 C468 1.387 . S
C469 C471 1.387 . S
H470 C477 0.950 . S
C471 C469 1.387 . S
C471 C473 1.390 . S
C471 H475 0.950 . S
H472 C468 0.950 . S
C473 C471 1.390 . S
C473 C474 1.387 . S
C473 H476 0.950 . S
C474 C473 1.387 . S
C474 C477 1.387 . S
H475 C471 0.950 . S
H476 C473 0.950 . S
C477 C468 1.390 . S
C477 H470 0.950 . S
C477 C474 1.387 . S
C478 C479 1.387 . S
C478 H482 0.950 . S
C478 C487 1.390 . S
C479 C478 1.387 . S
C479 C481 1.387 . S
H480 C487 0.950 . S
C481 C479 1.387 . S
C481 C483 1.390 . S
C481 H485 0.950 . S
H482 C478 0.950 . S
C483 C481 1.390 . S
C483 C484 1.387 . S
C483 H486 0.950 . S
C484 C483 1.387 . S
C484 C487 1.387 . S
H485 C481 0.950 . S
H486 C483 0.950 . S
C487 C478 1.390 . S
C487 H480 0.950 . S
C487 C484 1.387 . S
C488 C489 1.387 . S
C488 H492 0.950 . S
C488 C497 1.390 . S
C489 C488 1.387 . S
C489 C491 1.387 . S
H490 C497 0.950 . S
C491 C489 1.387 . S
C491 C493 1.390 . S
C491 H495 0.950 . S
H492 C488 0.950 . S
C493 C491 1.390 . S
C493 C494 1.387 . S
C493 H496 0.950 . S
C494 C493 1.387 . S
C494 C497 1.387 . S
H495 C491 0.950 . S
H496 C493 0.950 . S
C497 C488 1.390 . S
C497 H490 0.950 . S
C497 C494 1.387 . S
C498 C499 1.387 . S
C498 H502 0.950 . S
C498 C507 1.390 . S
C499 C498 1.387 . S
C499 C501 1.387 . S
H500 C507 0.950 . S
C501 C499 1.387 . S
C501 C503 1.390 . S
C501 H505 0.950 . S
H502 C498 0.950 . S
C503 C501 1.390 . S
C503 C504 1.387 . S
C503 H506 0.950 . S
C504 C503 1.387 . S
C504 C507 1.387 . S
H505 C501 0.950 . S
H506 C503 0.950 . S
C507 C498 1.390 . S
C507 H500 0.950 . S
C507 C504 1.387 . S
C508 C509 1.387 . S
C508 H512 0.950 . S
C508 C517 1.390 . S
C509 C508 1.387 . S
C509 C511 1.387 . S
H510 C517 0.950 . S
C511 C509 1.387 . S
C511 C513 1.390 . S
C511 H515 0.950 . S
H512 C508 0.950 . S
C513 C511 1.390 . S
C513 C514 1.387 . S
C513 H516 0.950 . S
C514 C513 1.387 . S
C514 C517 1.387 . S
H515 C511 0.950 . S
H516 C513 0.950 . S
C517 C508 1.390 . S
C517 H510 0.950 . S
C517 C514 1.387 . S
C518 C519 1.387 . S
C518 H522 0.950 . S
C518 C527 1.390 . S
C519 C518 1.387 . S
C519 C521 1.387 . S
H520 C527 0.950 . S
C521 C519 1.387 . S
C521 C523 1.390 . S
C521 H525 0.950 . S
H522 C518 0.950 . S
C523 C521 1.390 . S
C523 C524 1.387 . S
C523 H526 0.950 . S
C524 C523 1.387 . S
C524 C527 1.387 . S
H525 C521 0.950 . S
H526 C523 0.950 . S
C527 C518 1.390 . S
C527 H520 0.950 . S
C527 C524 1.387 . S
C528 C529 1.387 . S
C528 H532 0.950 . S
C528 C537 1.390 . S
C529 C528 1.387 . S
C529 C531 1.387 . S
H530 C537 0.950 . S
C531 C529 1.387 . S
C531 C533 1.390 . S
C531 H535 0.950 . S
H532 C528 0.950 . S
C533 C531 1.390 . S
C533 C534 1.387 . S
C533 H536 0.950 . S
C534 C533 1.387 . S
C534 C537 1.387 . S
H535 C531 0.950 . S
H536 C533 0.950 . S
C537 C528 1.390 . S
C537 H530 0.950 . S
C537 C534 1.387 . S
C538 C539 1.387 . S
C538 H542 0.950 . S
C538 C547 1.390 . S
C539 C538 1.387 . S
C539 C541 1.387 . S
H540 C547 0.950 . S
C541 C539 1.387 . S
C541 C543 1.390 . S
C541 H545 0.950 . S
H542 C538 0.950 . S
C543 C541 1.390 . S
C543 C544 1.387 . S
C543 H546 0.950 . S
C544 C543 1.387 . S
C544 C547 1.387 . S
H545 C541 0.950 . S
H546 C543 0.950 . S
C547 C538 1.390 . S
C547 H540 0.950 . S
C547 C544 1.387 . S
C548 C549 1.387 . S
C548 H552 0.950 . S
C548 C557 1.390 . S
C549 C548 1.387 . S
C549 C551 1.387 . S
H550 C557 0.950 . S
C551 C549 1.387 . S
C551 C553 1.390 . S
C551 H555 0.950 . S
H552 C548 0.950 . S
C553 C551 1.390 . S
C553 C554 1.387 . S
C553 H556 0.950 . S
C554 C553 1.387 . S
C554 C557 1.387 . S
H555 C551 0.950 . S
H556 C553 0.950 . S
C557 C548 1.390 . S
C557 H550 0.950 . S
C557 C554 1.387 . S
C558 C559 1.387 . S
C558 H562 0.950 . S
C558 C567 1.390 . S
C559 C558 1.387 . S
C559 C561 1.387 . S
H560 C567 0.950 . S
C561 C559 1.387 . S
C561 C563 1.390 . S
C561 H565 0.950 . S
H562 C558 0.950 . S
C563 C561 1.390 . S
C563 C564 1.387 . S
C563 H566 0.950 . S
C564 C563 1.387 . S
C564 C567 1.387 . S
H565 C561 0.950 . S
H566 C563 0.950 . S
C567 C558 1.390 . S
C567 H560 0.950 . S
C567 C564 1.387 . S
C568 C569 1.387 . S
C568 H572 0.950 . S
C568 C577 1.390 . S
C569 C568 1.387 . S
C569 C571 1.387 . S
H570 C577 0.950 . S
C571 C569 1.387 . S
C571 C573 1.390 . S
C571 H575 0.950 . S
H572 C568 0.950 . S
C573 C571 1.390 . S
C573 C574 1.387 . S
C573 H576 0.950 . S
C574 C573 1.387 . S
C574 C577 1.387 . S
H575 C571 0.950 . S
H576 C573 0.950 . S
C577 C568 1.390 . S
C577 H570 0.950 . S
C577 C574 1.387 . S
C578 C579 1.387 . S
C578 H582 0.950 . S
C578 C587 1.390 . S
C579 C578 1.387 . S
C579 C581 1.387 . S
H580 C587 0.950 . S
C581 C579 1.387 . S
C581 C583 1.390 . S
C581 H585 0.950 . S
H582 C578 0.950 . S
C583 C581 1.390 . S
C583 C584 1.387 . S
C583 H586 0.950 . S
C584 C583 1.387 . S
C584 C587 1.387 . S
H585 C581 0.950 . S
H586 C583 0.950 . S
C587 C578 1.390 . S
C587 H580 0.950 . S
C587 C584 1.387 . S
C588 C589 1.387 . S
C588 H592 0.950 . S
C588 C597 1.390 . S
C589 C588 1.387 . S
C589 C591 1.387 . S
H590 C597 0.950 . S
C591 C589 1.387 . S
C591 C593 1.390 . S
C591 H595 0.950 . S
H592 C588 0.950 . S
C593 C591 1.390 . S
C593 C594 1.387 . S
C593 H596 0.950 . S
C594 C593 1.387 . S
C594 C597 1.387 . S
H595 C591 0.950 . S
H596 C593 0.950 . S
C597 C588 1.390 . S
C597 H590 0.950 . S
C597 C594 1.387 . S
C598 C599 1.387 . S
C598 H602 0.950 . S
C598 C607 1.390 . S
C599 C598 1.387 . S
C599 C601 1.387 . S
H600 C607 0.950 . S
C601 C599 1.387 . S
C601 C603 1.390 . S
C601 H605 0.950 . S
H602 C598 0.950 . S
C603 C601 1.390 . S
C603 C604 1.387 . S
C603 H606 0.950 . S
C604 C603 1.387 . S
C604 C607 1.387 . S
H605 C601 0.950 . S
H606 C603 0.950 . S
C607 C598 1.390 . S
C607 H600 0.950 . S
C607 C604 1.387 . S
C608 C609 1.387 . S
C608 H612 0.950 . S
C608 C617 1.390 1_554 S
C609 C608 1.387 . S
C609 C611 1.387 . S
H610 C617 0.950 . S
C611 C609 1.387 . S
C611 C613 1.390 1_554 S
C611 H615 0.950 . S
H612 C608 0.950 . S
C613 C611 1.390 1_556 S
C613 C614 1.387 . S
C613 H616 0.950 . S
C614 C613 1.387 . S
C614 C617 1.387 . S
H615 C611 0.950 . S
H616 C613 0.950 . S
C617 C608 1.390 1_556 S
C617 H610 0.950 . S
C617 C614 1.387 . S
C618 C619 1.387 . S
C618 H622 0.950 . S
C618 C627 1.390 1_556 S
C619 C618 1.387 . S
C619 C621 1.387 . S
H620 C627 0.950 . S
C621 C619 1.387 . S
C621 C623 1.390 1_556 S
C621 H625 0.950 . S
H622 C618 0.950 . S
C623 C621 1.390 1_554 S
C623 C624 1.387 . S
C623 H626 0.950 . S
C624 C623 1.387 . S
C624 C627 1.387 . S
H625 C621 0.950 . S
H626 C623 0.950 . S
C627 C618 1.390 1_554 S
C627 H620 0.950 . S
C627 C624 1.387 . S
C628 C629 1.387 . S
C628 H632 0.950 . S
C628 C637 1.390 1_556 S
C629 C628 1.387 . S
C629 C631 1.387 . S
H630 C637 0.950 . S
C631 C629 1.387 . S
C631 C633 1.390 1_556 S
C631 H635 0.950 . S
H632 C628 0.950 . S
C633 C631 1.390 1_554 S
C633 C634 1.387 . S
C633 H636 0.950 . S
C634 C633 1.387 . S
C634 C637 1.387 . S
H635 C631 0.950 . S
H636 C633 0.950 . S
C637 C628 1.390 1_554 S
C637 H630 0.950 . S
C637 C634 1.387 . S
C638 C639 1.387 . S
C638 H642 0.950 . S
C638 C647 1.390 1_556 S
C639 C638 1.387 . S
C639 C641 1.387 . S
H640 C647 0.950 . S
C641 C639 1.387 . S
C641 C643 1.390 1_556 S
C641 H645 0.950 . S
H642 C638 0.950 . S
C643 C641 1.390 1_554 S
C643 C644 1.387 . S
C643 H646 0.950 . S
C644 C643 1.387 . S
C644 C647 1.387 . S
H645 C641 0.950 . S
H646 C643 0.950 . S
C647 C638 1.390 1_554 S
C647 H640 0.950 . S
C647 C644 1.387 . S
C648 C649 1.387 . S
C648 H652 0.950 . S
C648 C657 1.390 . S
C649 C648 1.387 . S
C649 C651 1.387 . S
H650 C657 0.950 . S
C651 C649 1.387 . S
C651 C653 1.390 . S
C651 H655 0.950 . S
H652 C648 0.950 . S
C653 C651 1.390 . S
C653 C654 1.387 . S
C653 H656 0.950 . S
C654 C653 1.387 . S
C654 C657 1.387 . S
H655 C651 0.950 . S
H656 C653 0.950 . S
C657 C648 1.390 . S
C657 H650 0.950 . S
C657 C654 1.387 . S
C658 C659 1.387 . S
C658 H662 0.950 . S
C658 C667 1.390 . S
C659 C658 1.387 . S
C659 C661 1.387 . S
H660 C667 0.950 . S
C661 C659 1.387 . S
C661 C663 1.390 . S
C661 H665 0.950 . S
H662 C658 0.950 . S
C663 C661 1.390 . S
C663 C664 1.387 . S
C663 H666 0.950 . S
C664 C663 1.387 . S
C664 C667 1.387 . S
H665 C661 0.950 . S
H666 C663 0.950 . S
C667 C658 1.390 . S
C667 H660 0.950 . S
C667 C664 1.387 . S
C668 C669 1.387 . S
C668 H672 0.950 . S
C668 C677 1.390 . S
C669 C668 1.387 . S
C669 C671 1.387 . S
H670 C677 0.950 . S
C671 C669 1.387 . S
C671 C673 1.390 . S
C671 H675 0.950 . S
H672 C668 0.950 . S
C673 C671 1.390 . S
C673 C674 1.387 . S
C673 H676 0.950 . S
C674 C673 1.387 . S
C674 C677 1.387 . S
H675 C671 0.950 . S
H676 C673 0.950 . S
C677 C668 1.390 . S
C677 H670 0.950 . S
C677 C674 1.387 . S
C678 C679 1.387 . S
C678 H682 0.950 . S
C678 C687 1.390 . S
C679 C678 1.387 . S
C679 C681 1.387 . S
H680 C687 0.950 . S
C681 C679 1.387 . S
C681 C683 1.390 . S
C681 H685 0.950 . S
H682 C678 0.950 . S
C683 C681 1.390 . S
C683 C684 1.387 . S
C683 H686 0.950 . S
C684 C683 1.387 . S
C684 C687 1.387 . S
H685 C681 0.950 . S
H686 C683 0.950 . S
C687 C678 1.390 . S
C687 H680 0.950 . S
C687 C684 1.387 . S
C688 C689 1.387 . S
C688 H692 0.950 . S
C688 C697 1.390 . S
C689 C688 1.387 . S
C689 C691 1.387 . S
H690 C697 0.950 . S
C691 C689 1.387 . S
C691 C693 1.390 . S
C691 H695 0.950 . S
H692 C688 0.950 . S
C693 C691 1.390 . S
C693 C694 1.387 . S
C693 H696 0.950 . S
C694 C693 1.387 . S
C694 C697 1.387 . S
H695 C691 0.950 . S
H696 C693 0.950 . S
C697 C688 1.390 . S
C697 H690 0.950 . S
C697 C694 1.387 . S
C698 C699 1.387 . S
C698 H702 0.950 . S
C698 C707 1.390 . S
C699 C698 1.387 . S
C699 C701 1.387 . S
H700 C707 0.950 . S
C701 C699 1.387 . S
C701 C703 1.390 . S
C701 H705 0.950 . S
H702 C698 0.950 . S
C703 C701 1.390 . S
C703 C704 1.387 . S
C703 H706 0.950 . S
C704 C703 1.387 . S
C704 C707 1.387 . S
H705 C701 0.950 . S
H706 C703 0.950 . S
C707 C698 1.390 . S
C707 H700 0.950 . S
C707 C704 1.387 . S
C708 C709 1.387 . S
C708 H712 0.950 . S
C708 C717 1.390 . S
C709 C708 1.387 . S
C709 C711 1.387 . S
H710 C717 0.950 . S
C711 C709 1.387 . S
C711 C713 1.390 . S
C711 H715 0.950 . S
H712 C708 0.950 . S
C713 C711 1.390 . S
C713 C714 1.387 . S
C713 H716 0.950 . S
C714 C713 1.387 . S
C714 C717 1.387 . S
H715 C711 0.950 . S
H716 C713 0.950 . S
C717 C708 1.390 . S
C717 H710 0.950 . S
C717 C714 1.387 . S
C718 C719 1.387 . S
C718 H722 0.950 . S
C718 C727 1.390 . S
C719 C718 1.387 . S
C719 C721 1.387 . S
H720 C727 0.950 . S
C721 C719 1.387 . S
C721 C723 1.390 . S
C721 H725 0.950 . S
H722 C718 0.950 . S
C723 C721 1.390 . S
C723 C724 1.387 . S
C723 H726 0.950 . S
C724 C723 1.387 . S
C724 C727 1.387 . S
H725 C721 0.950 . S
H726 C723 0.950 . S
C727 C718 1.390 . S
C727 H720 0.950 . S
C727 C724 1.387 . S
C728 C729 1.387 . S
C728 H732 0.950 . S
C728 C737 1.390 1_556 S
C729 C728 1.387 . S
C729 C731 1.387 . S
H730 C737 0.950 . S
C731 C729 1.387 . S
C731 C733 1.390 1_556 S
C731 H735 0.950 . S
H732 C728 0.950 . S
C733 C731 1.390 1_554 S
C733 C734 1.387 . S
C733 H736 0.950 . S
C734 C733 1.387 . S
C734 C737 1.387 . S
H735 C731 0.950 . S
H736 C733 0.950 . S
C737 C728 1.390 1_554 S
C737 H730 0.950 . S
C737 C734 1.387 . S
C738 C739 1.387 . S
C738 H742 0.950 . S
C738 C747 1.390 1_554 S
C739 C738 1.387 . S
C739 C741 1.387 . S
H740 C747 0.950 . S
C741 C739 1.387 . S
C741 C743 1.390 1_554 S
C741 H745 0.950 . S
H742 C738 0.950 . S
C743 C741 1.390 1_556 S
C743 C744 1.387 . S
C743 H746 0.950 . S
C744 C743 1.387 . S
C744 C747 1.387 . S
H745 C741 0.950 . S
H746 C743 0.950 . S
C747 C738 1.390 1_556 S
C747 H740 0.950 . S
C747 C744 1.387 . S
C748 C749 1.387 . S
C748 H752 0.950 . S
C748 C757 1.390 1_554 S
C749 C748 1.387 . S
C749 C751 1.387 . S
H750 C757 0.950 . S
C751 C749 1.387 . S
C751 C753 1.390 1_554 S
C751 H755 0.950 . S
H752 C748 0.950 . S
C753 C751 1.390 1_556 S
C753 C754 1.387 . S
C753 H756 0.950 . S
C754 C753 1.387 . S
C754 C757 1.387 . S
H755 C751 0.950 . S
H756 C753 0.950 . S
C757 C748 1.390 1_556 S
C757 H750 0.950 . S
C757 C754 1.387 . S
C758 C759 1.387 . S
C758 H762 0.950 . S
C758 C767 1.390 1_556 S
C759 C758 1.387 . S
C759 C761 1.387 . S
H760 C767 0.950 . S
C761 C759 1.387 . S
C761 C763 1.390 1_556 S
C761 H765 0.950 . S
H762 C758 0.950 . S
C763 C761 1.390 1_554 S
C763 C764 1.387 . S
C763 H766 0.950 . S
C764 C763 1.387 . S
C764 C767 1.387 . S
H765 C761 0.950 . S
H766 C763 0.950 . S
C767 C758 1.390 1_554 S
C767 H760 0.950 . S
C767 C764 1.387 . S
C768 C769 1.387 . S
C768 H772 0.950 . S
C768 C777 1.390 1_545 S
C769 C768 1.387 . S
C769 C771 1.387 . S
H770 C777 0.950 . S
C771 C769 1.387 . S
C771 C773 1.390 1_545 S
C771 H775 0.950 . S
H772 C768 0.950 . S
C773 C771 1.390 1_565 S
C773 C774 1.387 . S
C773 H776 0.950 . S
C774 C773 1.387 . S
C774 C777 1.387 . S
H775 C771 0.950 . S
H776 C773 0.950 . S
C777 C768 1.390 1_565 S
C777 H770 0.950 . S
C777 C774 1.387 . S
C778 C779 1.387 . S
C778 H782 0.950 . S
C778 C787 1.390 1_655 S
C779 C778 1.387 . S
C779 C781 1.387 . S
H780 C787 0.950 . S
C781 C779 1.387 . S
C781 C783 1.390 1_655 S
C781 H785 0.950 . S
H782 C778 0.950 . S
C783 C781 1.390 1_455 S
C783 C784 1.387 . S
C783 H786 0.950 . S
C784 C783 1.387 . S
C784 C787 1.387 . S
H785 C781 0.950 . S
H786 C783 0.950 . S
C787 C778 1.390 1_455 S
C787 H780 0.950 . S
C787 C784 1.387 . S
C788 C789 1.387 . S
C788 H792 0.950 . S
C788 C797 1.390 1_545 S
C789 C788 1.387 . S
C789 C791 1.387 . S
H790 C797 0.950 . S
C791 C789 1.387 . S
C791 C793 1.390 1_545 S
C791 H795 0.950 . S
H792 C788 0.950 . S
C793 C791 1.390 1_565 S
C793 C794 1.387 . S
C793 H796 0.950 . S
C794 C793 1.387 . S
C794 C797 1.387 . S
H795 C791 0.950 . S
H796 C793 0.950 . S
C797 C788 1.390 1_565 S
C797 H790 0.950 . S
C797 C794 1.387 . S
C798 C799 1.387 . S
C798 H802 0.950 . S
C798 C807 1.390 1_455 S
C799 C798 1.387 . S
C799 C801 1.387 . S
H800 C807 0.950 . S
C801 C799 1.387 . S
C801 C803 1.390 1_455 S
C801 H805 0.950 . S
H802 C798 0.950 . S
C803 C801 1.390 1_655 S
C803 C804 1.387 . S
C803 H806 0.950 . S
C804 C803 1.387 . S
C804 C807 1.387 . S
H805 C801 0.950 . S
H806 C803 0.950 . S
C807 C798 1.390 1_655 S
C807 H800 0.950 . S
C807 C804 1.387 . S
C808 C809 1.387 . S
C808 H812 0.950 . S
C808 C817 1.390 1_565 S
C809 C808 1.387 . S
C809 C811 1.387 . S
H810 C817 0.950 . S
C811 C809 1.387 . S
C811 C813 1.390 1_565 S
C811 H815 0.950 . S
H812 C808 0.950 . S
C813 C811 1.390 1_545 S
C813 C814 1.387 . S
C813 H816 0.950 . S
C814 C813 1.387 . S
C814 C817 1.387 . S
H815 C811 0.950 . S
H816 C813 0.950 . S
C817 C808 1.390 1_545 S
C817 H810 0.950 . S
C817 C814 1.387 . S
C818 C819 1.387 . S
C818 H822 0.950 . S
C818 C827 1.390 1_655 S
C819 C818 1.387 . S
C819 C821 1.387 . S
H820 C827 0.950 . S
C821 C819 1.387 . S
C821 C823 1.390 1_655 S
C821 H825 0.950 . S
H822 C818 0.950 . S
C823 C821 1.390 1_455 S
C823 C824 1.387 . S
C823 H826 0.950 . S
C824 C823 1.387 . S
C824 C827 1.387 . S
H825 C821 0.950 . S
H826 C823 0.950 . S
C827 C818 1.390 1_455 S
C827 H820 0.950 . S
C827 C824 1.387 . S
C828 C829 1.387 . S
C828 H832 0.950 . S
C828 C837 1.390 1_565 S
C829 C828 1.387 . S
C829 C831 1.387 . S
H830 C837 0.950 . S
C831 C829 1.387 . S
C831 C833 1.390 1_565 S
C831 H835 0.950 . S
H832 C828 0.950 . S
C833 C831 1.390 1_545 S
C833 C834 1.387 . S
C833 H836 0.950 . S
C834 C833 1.387 . S
C834 C837 1.387 . S
H835 C831 0.950 . S
H836 C833 0.950 . S
C837 C828 1.390 1_545 S
C837 H830 0.950 . S
C837 C834 1.387 . S
C838 C839 1.387 . S
C838 H842 0.950 . S
C838 C847 1.390 1_655 S
C839 C838 1.387 . S
C839 C841 1.387 . S
H840 C847 0.950 . S
C841 C839 1.387 . S
C841 C843 1.390 1_655 S
C841 H845 0.950 . S
H842 C838 0.950 . S
C843 C841 1.390 1_455 S
C843 C844 1.387 . S
C843 H846 0.950 . S
C844 C843 1.387 . S
C844 C847 1.387 . S
H845 C841 0.950 . S
H846 C843 0.950 . S
C847 C838 1.390 1_455 S
C847 H840 0.950 . S
C847 C844 1.387 . S
C848 C849 1.387 . S
C848 H852 0.950 . S
C848 C857 1.390 . S
C849 C848 1.387 . S
C849 C851 1.387 . S
H850 C857 0.950 . S
C851 C849 1.387 . S
C851 C853 1.390 . S
C851 H855 0.950 . S
H852 C848 0.950 . S
C853 C851 1.390 . S
C853 C854 1.387 . S
C853 H856 0.950 . S
C854 C853 1.387 . S
C854 C857 1.387 . S
H855 C851 0.950 . S
H856 C853 0.950 . S
C857 C848 1.390 . S
C857 H850 0.950 . S
C857 C854 1.387 . S
C858 C859 1.387 . S
C858 H862 0.950 . S
C858 C867 1.390 . S
C859 C858 1.387 . S
C859 C861 1.387 . S
H860 C867 0.950 . S
C861 C859 1.387 . S
C861 C863 1.390 . S
C861 H865 0.950 . S
H862 C858 0.950 . S
C863 C861 1.390 . S
C863 C864 1.387 . S
C863 H866 0.950 . S
C864 C863 1.387 . S
C864 C867 1.387 . S
H865 C861 0.950 . S
H866 C863 0.950 . S
C867 C858 1.390 . S
C867 H860 0.950 . S
C867 C864 1.387 . S
C868 C869 1.387 . S
C868 H872 0.950 . S
C868 C877 1.390 . S
C869 C868 1.387 . S
C869 C871 1.387 . S
H870 C877 0.950 . S
C871 C869 1.387 . S
C871 C873 1.390 . S
C871 H875 0.950 . S
H872 C868 0.950 . S
C873 C871 1.390 . S
C873 C874 1.387 . S
C873 H876 0.950 . S
C874 C873 1.387 . S
C874 C877 1.387 . S
H875 C871 0.950 . S
H876 C873 0.950 . S
C877 C868 1.390 . S
C877 H870 0.950 . S
C877 C874 1.387 . S
C878 C879 1.387 . S
C878 H882 0.950 . S
C878 C887 1.390 . S
C879 C878 1.387 . S
C879 C881 1.387 . S
H880 C887 0.950 . S
C881 C879 1.387 . S
C881 C883 1.390 . S
C881 H885 0.950 . S
H882 C878 0.950 . S
C883 C881 1.390 . S
C883 C884 1.387 . S
C883 H886 0.950 . S
C884 C883 1.387 . S
C884 C887 1.387 . S
H885 C881 0.950 . S
H886 C883 0.950 . S
C887 C878 1.390 . S
C887 H880 0.950 . S
C887 C884 1.387 . S
C888 C889 1.387 . S
C888 H892 0.950 . S
C888 C897 1.390 . S
C889 C888 1.387 . S
C889 C891 1.387 . S
H890 C897 0.950 . S
C891 C889 1.387 . S
C891 C893 1.390 . S
C891 H895 0.950 . S
H892 C888 0.950 . S
C893 C891 1.390 . S
C893 C894 1.387 . S
C893 H896 0.950 . S
C894 C893 1.387 . S
C894 C897 1.387 . S
H895 C891 0.950 . S
H896 C893 0.950 . S
C897 C888 1.390 . S
C897 H890 0.950 . S
C897 C894 1.387 . S
C898 C899 1.387 . S
C898 H902 0.950 . S
C898 C907 1.390 . S
C899 C898 1.387 . S
C899 C901 1.387 . S
H900 C907 0.950 . S
C901 C899 1.387 . S
C901 C903 1.390 . S
C901 H905 0.950 . S
H902 C898 0.950 . S
C903 C901 1.390 . S
C903 C904 1.387 . S
C903 H906 0.950 . S
C904 C903 1.387 . S
C904 C907 1.387 . S
H905 C901 0.950 . S
H906 C903 0.950 . S
C907 C898 1.390 . S
C907 H900 0.950 . S
C907 C904 1.387 . S
C908 C909 1.387 . S
C908 H912 0.950 . S
C908 C917 1.390 . S
C909 C908 1.387 . S
C909 C911 1.387 . S
H910 C917 0.950 . S
C911 C909 1.387 . S
C911 C913 1.390 . S
C911 H915 0.950 . S
H912 C908 0.950 . S
C913 C911 1.390 . S
C913 C914 1.387 . S
C913 H916 0.950 . S
C914 C913 1.387 . S
C914 C917 1.387 . S
H915 C911 0.950 . S
H916 C913 0.950 . S
C917 C908 1.390 . S
C917 H910 0.950 . S
C917 C914 1.387 . S
C918 C919 1.387 . S
C918 H922 0.950 . S
C918 C927 1.390 . S
C919 C918 1.387 . S
C919 C921 1.387 . S
H920 C927 0.950 . S
C921 C919 1.387 . S
C921 C923 1.390 . S
C921 H925 0.950 . S
H922 C918 0.950 . S
C923 C921 1.390 . S
C923 C924 1.387 . S
C923 H926 0.950 . S
C924 C923 1.387 . S
C924 C927 1.387 . S
H925 C921 0.950 . S
H926 C923 0.950 . S
C927 C918 1.390 . S
C927 H920 0.950 . S
C927 C924 1.387 . S
C928 C929 1.387 . S
C928 H932 0.950 . S
C928 C937 1.390 . S
C929 C928 1.387 . S
C929 C931 1.387 . S
H930 C937 0.950 . S
C931 C929 1.387 . S
C931 C933 1.390 . S
C931 H935 0.950 . S
H932 C928 0.950 . S
C933 C931 1.390 . S
C933 C934 1.387 . S
C933 H936 0.950 . S
C934 C933 1.387 . S
C934 C937 1.387 . S
H935 C931 0.950 . S
H936 C933 0.950 . S
C937 C928 1.390 . S
C937 H930 0.950 . S
C937 C934 1.387 . S
C938 C939 1.387 . S
C938 H942 0.950 . S
C938 C947 1.390 . S
C939 C938 1.387 . S
C939 C941 1.387 . S
H940 C947 0.950 . S
C941 C939 1.387 . S
C941 C943 1.390 . S
C941 H945 0.950 . S
H942 C938 0.950 . S
C943 C941 1.390 . S
C943 C944 1.387 . S
C943 H946 0.950 . S
C944 C943 1.387 . S
C944 C947 1.387 . S
H945 C941 0.950 . S
H946 C943 0.950 . S
C947 C938 1.390 . S
C947 H940 0.950 . S
C947 C944 1.387 . S
C948 C949 1.387 . S
C948 H952 0.950 . S
C948 C957 1.390 . S
C949 C948 1.387 . S
C949 C951 1.387 . S
H950 C957 0.950 . S
C951 C949 1.387 . S
C951 C953 1.390 . S
C951 H955 0.950 . S
H952 C948 0.950 . S
C953 C951 1.390 . S
C953 C954 1.387 . S
C953 H956 0.950 . S
C954 C953 1.387 . S
C954 C957 1.387 . S
H955 C951 0.950 . S
H956 C953 0.950 . S
C957 C948 1.390 . S
C957 H950 0.950 . S
C957 C954 1.387 . S
C958 C959 1.387 . S
C958 H962 0.950 . S
C958 C967 1.390 . S
C959 C958 1.387 . S
C959 C961 1.387 . S
H960 C967 0.950 . S
C961 C959 1.387 . S
C961 C963 1.390 . S
C961 H965 0.950 . S
H962 C958 0.950 . S
C963 C961 1.390 . S
C963 C964 1.387 . S
C963 H966 0.950 . S
C964 C963 1.387 . S
C964 C967 1.387 . S
H965 C961 0.950 . S
H966 C963 0.950 . S
C967 C958 1.390 . S
C967 H960 0.950 . S
C967 C964 1.387 . S
C968 C969 1.387 . S
C968 H972 0.950 . S
C968 C977 1.390 . S
C969 C968 1.387 . S
C969 C971 1.387 . S
H970 C977 0.950 . S
C971 C969 1.387 . S
C971 C973 1.390 . S
C971 H975 0.950 . S
H972 C968 0.950 . S
C973 C971 1.390 . S
C973 C974 1.387 . S
C973 H976 0.950 . S
C974 C973 1.387 . S
C974 C977 1.387 . S
H975 C971 0.950 . S
H976 C973 0.950 . S
C977 C968 1.390 . S
C977 H970 0.950 . S
C977 C974 1.387 . S
C978 C979 1.387 . S
C978 H982 0.950 . S
C978 C987 1.390 . S
C979 C978 1.387 . S
C979 C981 1.387 . S
H980 C987 0.950 . S
C981 C979 1.387 . S
C981 C983 1.390 . S
C981 H985 0.950 . S
H982 C978 0.950 . S
C983 C981 1.390 . S
C983 C984 1.387 . S
C983 H986 0.950 . S
C984 C983 1.387 . S
C984 C987 1.387 . S
H985 C981 0.950 . S
H986 C983 0.950 . S
C987 C978 1.390 . S
C987 H980 0.950 . S
C987 C984 1.387 . S
C988 C989 1.387 . S
C988 H992 0.950 . S
C988 C997 1.390 . S
C989 C988 1.387 . S
C989 C991 1.387 . S
H990 C997 0.950 . S
C991 C989 1.387 . S
C991 C993 1.390 . S
C991 H995 0.950 . S
H992 C988 0.950 . S
C993 C991 1.390 . S
C993 C994 1.387 . S
C993 H996 0.950 . S
C994 C993 1.387 . S
C994 C997 1.387 . S
H995 C991 0.950 . S
H996 C993 0.950 . S
C997 C988 1.390 . S
C997 H990 0.950 . S
C997 C994 1.387 . S
C998 C999 1.387 . S
C998 H1002 0.950 . S
C998 C1007 1.390 . S
C999 C998 1.387 . S
C999 C1001 1.387 . S
H1000 C1007 0.950 . S
C1001 C999 1.387 . S
C1001 C1003 1.390 . S
C1001 H1005 0.950 . S
H1002 C998 0.950 . S
C1003 C1001 1.390 . S
C1003 C1004 1.387 . S
C1003 H1006 0.950 . S
C1004 C1003 1.387 . S
C1004 C1007 1.387 . S
H1005 C1001 0.950 . S
H1006 C1003 0.950 . S
C1007 C998 1.390 . S
C1007 H1000 0.950 . S
C1007 C1004 1.387 . S
C1008 C1009 1.387 . S
C1008 H1012 0.950 . S
C1008 C1017 1.390 . S
C1009 C1008 1.387 . S
C1009 C1011 1.387 . S
H1010 C1017 0.950 . S
C1011 C1009 1.387 . S
C1011 C1013 1.390 . S
C1011 H1015 0.950 . S
H1012 C1008 0.950 . S
C1013 C1011 1.390 . S
C1013 C1014 1.387 . S
C1013 H1016 0.950 . S
C1014 C1013 1.387 . S
C1014 C1017 1.387 . S
H1015 C1011 0.950 . S
H1016 C1013 0.950 . S
C1017 C1008 1.390 . S
C1017 H1010 0.950 . S
C1017 C1014 1.387 . S
C1018 C1019 1.387 . S
C1018 H1022 0.950 . S
C1018 C1027 1.390 . S
C1019 C1018 1.387 . S
C1019 C1021 1.387 . S
H1020 C1027 0.950 . S
C1021 C1019 1.387 . S
C1021 C1023 1.390 . S
C1021 H1025 0.950 . S
H1022 C1018 0.950 . S
C1023 C1021 1.390 . S
C1023 C1024 1.387 . S
C1023 H1026 0.950 . S
C1024 C1023 1.387 . S
C1024 C1027 1.387 . S
H1025 C1021 0.950 . S
H1026 C1023 0.950 . S
C1027 C1018 1.390 . S
C1027 H1020 0.950 . S
C1027 C1024 1.387 . S
C1028 C1029 1.387 . S
C1028 H1032 0.950 . S
C1028 C1037 1.390 . S
C1029 C1028 1.387 . S
C1029 C1031 1.387 . S
H1030 C1037 0.950 . S
C1031 C1029 1.387 . S
C1031 C1033 1.390 . S
C1031 H1035 0.950 . S
H1032 C1028 0.950 . S
C1033 C1031 1.390 . S
C1033 C1034 1.387 . S
C1033 H1036 0.950 . S
C1034 C1033 1.387 . S
C1034 C1037 1.387 . S
H1035 C1031 0.950 . S
H1036 C1033 0.950 . S
C1037 C1028 1.390 . S
C1037 H1030 0.950 . S
C1037 C1034 1.387 . S
C1038 C1039 1.387 . S
C1038 H1042 0.950 . S
C1038 C1047 1.390 . S
C1039 C1038 1.387 . S
C1039 C1041 1.387 . S
H1040 C1047 0.950 . S
C1041 C1039 1.387 . S
C1041 C1043 1.390 . S
C1041 H1045 0.950 . S
H1042 C1038 0.950 . S
C1043 C1041 1.390 . S
C1043 C1044 1.387 . S
C1043 H1046 0.950 . S
C1044 C1043 1.387 . S
C1044 C1047 1.387 . S
H1045 C1041 0.950 . S
H1046 C1043 0.950 . S
C1047 C1038 1.390 . S
C1047 H1040 0.950 . S
C1047 C1044 1.387 . S
C1048 C1049 1.387 . S
C1048 H1052 0.950 . S
C1048 C1057 1.390 . S
C1049 C1048 1.387 . S
C1049 C1051 1.387 . S
H1050 C1057 0.950 . S
C1051 C1049 1.387 . S
C1051 C1053 1.390 . S
C1051 H1055 0.950 . S
H1052 C1048 0.950 . S
C1053 C1051 1.390 . S
C1053 C1054 1.387 . S
C1053 H1056 0.950 . S
C1054 C1053 1.387 . S
C1054 C1057 1.387 . S
H1055 C1051 0.950 . S
H1056 C1053 0.950 . S
C1057 C1048 1.390 . S
C1057 H1050 0.950 . S
C1057 C1054 1.387 . S
C1058 C1059 1.387 . S
C1058 H1062 0.950 . S
C1058 C1067 1.390 . S
C1059 C1058 1.387 . S
C1059 C1061 1.387 . S
H1060 C1067 0.950 . S
C1061 C1059 1.387 . S
C1061 C1063 1.390 . S
C1061 H1065 0.950 . S
H1062 C1058 0.950 . S
C1063 C1061 1.390 . S
C1063 C1064 1.387 . S
C1063 H1066 0.950 . S
C1064 C1063 1.387 . S
C1064 C1067 1.387 . S
H1065 C1061 0.950 . S
H1066 C1063 0.950 . S
C1067 C1058 1.390 . S
C1067 H1060 0.950 . S
C1067 C1064 1.387 . S
C1068 C1069 1.387 . S
C1068 H1072 0.950 . S
C1068 C1077 1.390 . S
C1069 C1068 1.387 . S
C1069 C1071 1.387 . S
H1070 C1077 0.950 . S
C1071 C1069 1.387 . S
C1071 C1073 1.390 . S
C1071 H1075 0.950 . S
H1072 C1068 0.950 . S
C1073 C1071 1.390 . S
C1073 C1074 1.387 . S
C1073 H1076 0.950 . S
C1074 C1073 1.387 . S
C1074 C1077 1.387 . S
H1075 C1071 0.950 . S
H1076 C1073 0.950 . S
C1077 C1068 1.390 . S
C1077 H1070 0.950 . S
C1077 C1074 1.387 . S
C1078 C1079 1.387 . S
C1078 H1082 0.950 . S
C1078 C1087 1.390 . S
C1079 C1078 1.387 . S
C1079 C1081 1.387 . S
H1080 C1087 0.950 . S
C1081 C1079 1.387 . S
C1081 C1083 1.390 . S
C1081 H1085 0.950 . S
H1082 C1078 0.950 . S
C1083 C1081 1.390 . S
C1083 C1084 1.387 . S
C1083 H1086 0.950 . S
C1084 C1083 1.387 . S
C1084 C1087 1.387 . S
H1085 C1081 0.950 . S
H1086 C1083 0.950 . S
C1087 C1078 1.390 . S
C1087 H1080 0.950 . S
C1087 C1084 1.387 . S
C449 C410 1.297 . S
C454 C4 1.296 . S
C459 C18 1.297 . S
C464 C424 1.296 . S
C469 C438 1.297 . S
C474 C32 1.296 . S
C479 C396 1.297 . S
C484 C46 1.296 . S
C489 C60 1.296 . S
C494 C382 1.297 . S
C499 C340 1.297 . S
C504 C74 1.296 . S
C509 C88 1.297 . S
C514 C354 1.296 . S
C519 C368 1.296 . S
C524 C102 1.297 . S
C529 C116 1.296 . S
C534 C298 1.297 . S
C539 C130 1.297 . S
C544 C312 1.296 . S
C549 C326 1.296 . S
C554 C144 1.297 . S
C559 C158 1.296 . S
C564 C284 1.297 . S
C569 C270 1.297 . S
C574 C172 1.296 . S
C579 C228 1.297 . S
C584 C186 1.296 . S
C589 C200 1.297 . S
C594 C242 1.296 . S
C599 C214 1.296 . S
C604 C256 1.297 . S
C609 C5 1.306 . S
C614 C145 1.304 . S
C619 C159 1.304 . S
C624 C19 1.306 . S
C629 C117 1.304 . S
C634 C33 1.306 . S
C639 C131 1.306 . S
C644 C47 1.304 . S
C649 C61 1.308 . S
C654 C201 1.302 . S
C659 C215 1.307 . S
C664 C75 1.304 . S
C669 C173 1.304 . S
C674 C89 1.306 . S
C679 C187 1.304 . S
C684 C103 1.306 . S
C689 C229 1.307 . S
C694 C369 1.303 . S
C699 C383 1.306 . S
C704 C243 1.304 . S
C709 C341 1.308 . S
C714 C257 1.302 . S
C719 C271 1.306 . S
C724 C355 1.304 . S
C729 C285 1.304 . S
C734 C425 1.306 . S
C739 C439 1.306 . S
C744 C299 1.304 . S
C749 C397 1.304 . S
C754 C313 1.306 . S
C759 C327 1.304 . S
C764 C411 1.306 . S
C769 C11 1.274 . S
C774 C67 1.274 . S
C779 C25 1.276 . S
C784 C81 1.276 . S
C789 C95 1.274 . S
C794 C39 1.274 . S
C799 C53 1.276 . S
C804 C109 1.276 . S
C809 C123 1.274 . S
C814 C179 1.274 . S
C819 C193 1.274 . S
C824 C137 1.274 . S
C829 C207 1.276 . S
C834 C151 1.276 . S
C839 C165 1.274 . S
C844 C221 1.274 . S
C849 C235 1.276 . S
C854 C291 1.276 . S
C859 C305 1.274 . S
C864 C249 1.274 . S
C869 C263 1.274 . S
C874 C319 1.274 . S
C879 C333 1.274 . S
C884 C277 1.274 . S
C889 C403 1.276 . S
C894 C347 1.276 . S
C899 C361 1.274 . S
C904 C417 1.274 . S
C909 C375 1.276 . S
C914 C431 1.276 . S
C919 C389 1.274 . S
C924 C445 1.274 . S
C929 C12 1.526 . S
C934 C82 1.527 . S
C939 C26 1.526 . S
C944 C96 1.527 . S
C949 C110 1.527 . S
C954 C40 1.526 . S
C959 C68 1.526 . S
C964 C54 1.527 . S
C969 C194 1.527 . S
C974 C124 1.526 . S
C979 C208 1.526 . S
C984 C138 1.527 . S
C989 C222 1.526 . S
C994 C152 1.527 . S
C999 C166 1.527 . S
C1004 C180 1.527 . S
C1009 C236 1.526 . S
C1014 C306 1.527 . S
C1019 C320 1.527 . S
C1024 C250 1.527 . S
C1029 C334 1.526 . S
C1034 C264 1.527 . S
C1039 C278 1.526 . S
C1044 C292 1.527 . S
C1049 C418 1.527 . S
C1054 C348 1.526 . S
C1059 C362 1.527 . S
C1064 C432 1.526 . S
C1069 C376 1.526 . S
C1074 C446 1.527 . S
C1079 C404 1.526 . S
C1084 C390 1.527 . S
