# Generated by pormake.
# Topology zga, (5)-cn, num edge types: 1
# Building blocks:
#     Node 0, Type 0, BuildingBlock: BEQFEK_clean_sbu_0, # of connection points: 5
#     Node 1, Type 0, BuildingBlock: BEQFEK_clean_sbu_0, # of connection points: 5
#     Node 2, Type 0, BuildingBlock: BEQFEK_clean_sbu_0, # of connection points: 5
#     Node 3, Type 0, BuildingBlock: BEQFEK_clean_sbu_0, # of connection points: 5
#     Node 4, Type 0, BuildingBlock: BEQFEK_clean_sbu_0, # of connection points: 5
#     Node 5, Type 0, BuildingBlock: BEQFEK_clean_sbu_0, # of connection points: 5
#     Node 6, Type 0, BuildingBlock: BEQFEK_clean_sbu_0, # of connection points: 5
#     Node 7, Type 0, BuildingBlock: BEQFEK_clean_sbu_0, # of connection points: 5
#     Node 8, Type 0, BuildingBlock: BEQFEK_clean_sbu_0, # of connection points: 5
#     Node 9, Type 0, BuildingBlock: BEQFEK_clean_sbu_0, # of connection points: 5
#     Node 10, Type 0, BuildingBlock: BEQFEK_clean_sbu_0, # of connection points: 5
#     Node 11, Type 0, BuildingBlock: BEQFEK_clean_sbu_0, # of connection points: 5
#     Node 12, Type 0, BuildingBlock: BEQFEK_clean_sbu_0, # of connection points: 5
#     Node 13, Type 0, BuildingBlock: BEQFEK_clean_sbu_0, # of connection points: 5
#     Node 14, Type 0, BuildingBlock: BEQFEK_clean_sbu_0, # of connection points: 5
#     Node 15, Type 0, BuildingBlock: BEQFEK_clean_sbu_0, # of connection points: 5
#     Edge 16, Type (0, 0), BuildingBlock: EZIPEK_clean_linker_0, # of connection points: 2
#     Edge 17, Type (0, 0), BuildingBlock: EZIPEK_clean_linker_0, # of connection points: 2
#     Edge 18, Type (0, 0), BuildingBlock: EZIPEK_clean_linker_0, # of connection points: 2
#     Edge 19, Type (0, 0), BuildingBlock: EZIPEK_clean_linker_0, # of connection points: 2
#     Edge 20, Type (0, 0), BuildingBlock: EZIPEK_clean_linker_0, # of connection points: 2
#     Edge 21, Type (0, 0), BuildingBlock: EZIPEK_clean_linker_0, # of connection points: 2
#     Edge 22, Type (0, 0), BuildingBlock: EZIPEK_clean_linker_0, # of connection points: 2
#     Edge 23, Type (0, 0), BuildingBlock: EZIPEK_clean_linker_0, # of connection points: 2
#     Edge 24, Type (0, 0), BuildingBlock: EZIPEK_clean_linker_0, # of connection points: 2
#     Edge 25, Type (0, 0), BuildingBlock: EZIPEK_clean_linker_0, # of connection points: 2
#     Edge 26, Type (0, 0), BuildingBlock: EZIPEK_clean_linker_0, # of connection points: 2
#     Edge 27, Type (0, 0), BuildingBlock: EZIPEK_clean_linker_0, # of connection points: 2
#     Edge 28, Type (0, 0), BuildingBlock: EZIPEK_clean_linker_0, # of connection points: 2
#     Edge 29, Type (0, 0), BuildingBlock: EZIPEK_clean_linker_0, # of connection points: 2
#     Edge 30, Type (0, 0), BuildingBlock: EZIPEK_clean_linker_0, # of connection points: 2
#     Edge 31, Type (0, 0), BuildingBlock: EZIPEK_clean_linker_0, # of connection points: 2
#     Edge 32, Type (0, 0), BuildingBlock: EZIPEK_clean_linker_0, # of connection points: 2
#     Edge 33, Type (0, 0), BuildingBlock: EZIPEK_clean_linker_0, # of connection points: 2
#     Edge 34, Type (0, 0), BuildingBlock: EZIPEK_clean_linker_0, # of connection points: 2
#     Edge 35, Type (0, 0), BuildingBlock: EZIPEK_clean_linker_0, # of connection points: 2
#     Edge 36, Type (0, 0), BuildingBlock: EZIPEK_clean_linker_0, # of connection points: 2
#     Edge 37, Type (0, 0), BuildingBlock: EZIPEK_clean_linker_0, # of connection points: 2
#     Edge 38, Type (0, 0), BuildingBlock: EZIPEK_clean_linker_0, # of connection points: 2
#     Edge 39, Type (0, 0), BuildingBlock: EZIPEK_clean_linker_0, # of connection points: 2
#     Edge 40, Type (0, 0), BuildingBlock: EZIPEK_clean_linker_0, # of connection points: 2
#     Edge 41, Type (0, 0), BuildingBlock: EZIPEK_clean_linker_0, # of connection points: 2
#     Edge 42, Type (0, 0), BuildingBlock: EZIPEK_clean_linker_0, # of connection points: 2
#     Edge 43, Type (0, 0), BuildingBlock: EZIPEK_clean_linker_0, # of connection points: 2
#     Edge 44, Type (0, 0), BuildingBlock: EZIPEK_clean_linker_0, # of connection points: 2
#     Edge 45, Type (0, 0), BuildingBlock: EZIPEK_clean_linker_0, # of connection points: 2
#     Edge 46, Type (0, 0), BuildingBlock: EZIPEK_clean_linker_0, # of connection points: 2
#     Edge 47, Type (0, 0), BuildingBlock: EZIPEK_clean_linker_0, # of connection points: 2
#     Edge 48, Type (0, 0), BuildingBlock: EZIPEK_clean_linker_0, # of connection points: 2
#     Edge 49, Type (0, 0), BuildingBlock: EZIPEK_clean_linker_0, # of connection points: 2
#     Edge 50, Type (0, 0), BuildingBlock: EZIPEK_clean_linker_0, # of connection points: 2
#     Edge 51, Type (0, 0), BuildingBlock: EZIPEK_clean_linker_0, # of connection points: 2
#     Edge 52, Type (0, 0), BuildingBlock: EZIPEK_clean_linker_0, # of connection points: 2
#     Edge 53, Type (0, 0), BuildingBlock: EZIPEK_clean_linker_0, # of connection points: 2
#     Edge 54, Type (0, 0), BuildingBlock: EZIPEK_clean_linker_0, # of connection points: 2
#     Edge 55, Type (0, 0), BuildingBlock: EZIPEK_clean_linker_0, # of connection points: 2
# Relax obj value: 0.172
# Max RMSD: 0.228
# Mean RMSD: 0.186
data_MOF--net-zga--node1-BEQFEK_clean_sbu_0--edge1-EZIPEK_clean_linker_0
_symmetry_space_group_name_H-M    P1
_symmetry_Int_Tables_number       1
_symmetry_cell_setting            triclinic
loop_
_symmetry_equiv_pos_as_xyz
'x, y, z'
_cell_length_a     39.42491
_cell_length_b     66.016858
_cell_length_c     15.083485
_cell_angle_alpha  90.834524
_cell_angle_beta   90.155321
_cell_angle_gamma 101.53573
loop_
_atom_site_label
_atom_site_type_symbol
_atom_site_fract_x
_atom_site_fract_y
_atom_site_fract_z
_atom_type_partial_charge
Co0 Co 0.1093 0.54216 0.04471 0.0
Co1 Co 0.08235 0.54167 0.24038 0.0
C2 C 0.09574 0.58074 0.13757 0.0
O3 O 0.10575 0.57088 0.07306 0.0
O4 O 0.08796 0.57167 0.21103 0.0
C5 C 0.14676 0.54261 0.85387 0.0
O6 O 0.17963 0.54149 0.851 0.0
C7 C 0.081 0.54998 0.43419 0.0
C8 C 0.06892 0.51785 0.48117 0.0
C9 C 0.08087 0.53808 0.51003 0.0
N10 N 0.07198 0.53714 0.3639 0.0
N11 N 0.06334 0.51807 0.39329 0.0
C12 C 0.08975 0.57304 0.42774 0.0
H13 H 0.06752 0.57843 0.39753 0.0
H14 H 0.11222 0.57766 0.38315 0.0
H15 H 0.09543 0.58054 0.49392 0.0
C16 C 0.16058 0.52068 0.12648 0.0
N17 N 0.13372 0.53052 0.13184 0.0
N18 N 0.12367 0.53098 0.21493 0.0
C19 C 0.14483 0.52188 0.2649 0.0
C20 C 0.16854 0.51504 0.21083 0.0
C21 C 0.17756 0.51618 0.04208 0.0
H22 H 0.15759 0.51081 0.99041 0.0
H23 H 0.19453 0.5306 0.01918 0.0
H24 H 0.1935 0.50428 0.05167 0.0
O25 O 0.06231 0.5261 0.03138 0.0
O26 O 0.04173 0.52626 0.1688 0.0
H27 H 0.12338 0.50502 0.37771 0.0
H28 H 0.16808 0.51727 0.39083 0.0
C29 C 0.14283 0.51913 0.36276 0.0
H30 H 0.13548 0.53268 0.39397 0.0
H31 H 0.05667 0.505 0.35222 0.0
O32 O 0.13201 0.54244 0.92854 0.0
C33 C 0.03785 0.52134 0.0866 0.0
Co34 Co 0.15344 0.70741 0.24221 0.0
Co35 Co 0.13107 0.71138 0.04822 0.0
C36 C 0.12331 0.67001 0.1352 0.0
O37 O 0.13669 0.67826 0.20694 0.0
O38 O 0.11906 0.68088 0.06841 0.0
C39 C 0.14153 0.6993 0.40985 0.0
O40 O 0.11379 0.68956 0.36731 0.0
C41 C 0.12712 0.70445 0.85594 0.0
C42 C 0.12627 0.73607 0.81057 0.0
C43 C 0.12834 0.7164 0.7811 0.0
N44 N 0.12581 0.71674 0.92704 0.0
N45 N 0.12448 0.73548 0.89945 0.0
C46 C 0.12833 0.682 0.86012 0.0
H47 H 0.1066 0.67389 0.90098 0.0
H48 H 0.15291 0.68035 0.89235 0.0
H49 H 0.12664 0.6747 0.7931 0.0
C50 C 0.22235 0.72773 0.17267 0.0
N51 N 0.1881 0.7201 0.16428 0.0
N52 N 0.17828 0.72247 0.08221 0.0
C53 C 0.20607 0.73207 0.03638 0.0
C54 C 0.23475 0.73551 0.09152 0.0
C55 C 0.24245 0.72768 0.25671 0.0
H56 H 0.23605 0.71211 0.2865 0.0
H57 H 0.27073 0.7321 0.24489 0.0
H58 H 0.23465 0.7388 0.30459 0.0
O59 O 0.11568 0.72312 0.24803 0.0
O60 O 0.09809 0.72566 0.11032 0.0
H61 H 0.19059 0.75073 0.93571 0.0
H62 H 0.23203 0.74405 0.91579 0.0
C63 C 0.2056 0.7383 0.94172 0.0
H64 H 0.19305 0.72486 0.90147 0.0
H65 H 0.12382 0.74807 0.94162 0.0
O66 O 0.16773 0.7081 0.36606 0.0
C67 C 0.09582 0.72924 0.19274 0.0
Co68 Co 0.84219 0.44926 0.97628 0.0
Co69 Co 0.86761 0.45588 0.7793 0.0
C70 C 0.86194 0.41502 0.87359 0.0
O71 O 0.84864 0.42114 0.94332 0.0
O72 O 0.87029 0.42682 0.80778 0.0
C73 C 0.81899 0.4341 0.14941 0.0
O74 O 0.81069 0.41572 0.11159 0.0
C75 C 0.85529 0.44648 0.59065 0.0
C76 C 0.88945 0.47262 0.52579 0.0
C77 C 0.86465 0.45493 0.50873 0.0
N78 N 0.87333 0.45872 0.65375 0.0
N79 N 0.89399 0.47423 0.61449 0.0
C80 C 0.82861 0.42752 0.60896 0.0
H81 H 0.8177 0.42853 0.67624 0.0
H82 H 0.80766 0.42535 0.55832 0.0
H83 H 0.84105 0.41386 0.60595 0.0
C84 C 0.78302 0.46604 0.90349 0.0
N85 N 0.81319 0.45951 0.89478 0.0
N86 N 0.82428 0.46257 0.81278 0.0
C87 C 0.80164 0.47134 0.76727 0.0
C88 C 0.77472 0.47369 0.82261 0.0
C89 C 0.76381 0.46599 0.98877 0.0
H90 H 0.78 0.47659 0.03706 0.0
H91 H 0.75923 0.45025 0.01694 0.0
H92 H 0.73876 0.47094 0.97916 0.0
O93 O 0.8885 0.46752 0.98032 0.0
O94 O 0.90678 0.47437 0.84266 0.0
H95 H 0.83321 0.48614 0.66198 0.0
H96 H 0.78865 0.48883 0.65578 0.0
C97 C 0.80608 0.47822 0.67325 0.0
H98 H 0.79963 0.46447 0.62889 0.0
H99 H 0.91047 0.48621 0.64832 0.0
O100 O 0.82783 0.45 0.10189 0.0
C101 C 0.91104 0.47657 0.92634 0.0
Co102 Co 0.93002 0.30402 0.96034 0.0
Co103 Co 0.90288 0.29503 0.76511 0.0
C104 C 0.90573 0.33629 0.85472 0.0
O105 O 0.91784 0.3304 0.92601 0.0
O106 O 0.90062 0.32454 0.78635 0.0
C107 C 0.96685 0.30967 0.14951 0.0
O108 O 1.00033 0.31505 0.13639 0.0
C109 C 0.90538 0.30213 0.57418 0.0
C110 C 0.89394 0.27012 0.52142 0.0
C111 C 0.90632 0.29046 0.49701 0.0
N112 N 0.89508 0.28916 0.64134 0.0
N113 N 0.88683 0.27014 0.60861 0.0
C114 C 0.91459 0.32517 0.58494 0.0
H115 H 0.8927 0.33071 0.61665 0.0
H116 H 0.93739 0.32947 0.62962 0.0
H117 H 0.92008 0.3329 0.52027 0.0
C118 C 0.98852 0.28601 0.88869 0.0
N119 N 0.95894 0.29319 0.87885 0.0
N120 N 0.94718 0.28907 0.79726 0.0
C121 C 0.96921 0.27926 0.75323 0.0
C122 C 0.99597 0.27716 0.80916 0.0
C123 C 0.00762 0.2859 0.97411 0.0
H124 H 0.02157 0.30186 0.98964 0.0
H125 H 0.02676 0.27566 0.96994 0.0
H126 H 0.989 0.28063 0.02796 0.0
O127 O 0.88613 0.28452 0.97152 0.0
O128 O 0.86467 0.27799 0.83529 0.0
H129 H 0.94111 0.25639 0.66502 0.0
H130 H 0.98622 0.2639 0.6384 0.0
C131 C 0.9633 0.26965 0.66282 0.0
H132 H 0.95768 0.28113 0.61591 0.0
H133 H 0.87904 0.25702 0.647 0.0
O134 O 0.94619 0.30644 0.08396 0.0
C135 C 0.86251 0.27558 0.91901 0.0
Co136 Co 0.10772 0.04184 0.54198 0.0
Co137 Co 0.0817 0.04209 0.73853 0.0
C138 C 0.10366 0.08128 0.64083 0.0
O139 O 0.10908 0.0713 0.57128 0.0
O140 O 0.09409 0.07213 0.71304 0.0
C141 C 0.12947 0.05527 0.36894 0.0
O142 O 0.13761 0.07375 0.4059 0.0
C143 C 0.09066 0.04926 0.93072 0.0
C144 C 0.05104 0.02419 0.98568 0.0
C145 C 0.07821 0.04011 0.00936 0.0
N146 N 0.07221 0.03897 0.86304 0.0
N147 N 0.04824 0.02417 0.89654 0.0
C148 C 0.12058 0.06693 0.91976 0.0
H149 H 0.13407 0.06521 0.85644 0.0
H150 H 0.13895 0.06802 0.97636 0.0
H151 H 0.11065 0.0815 0.9174 0.0
C152 C 0.15843 0.01975 0.62233 0.0
N153 N 0.13131 0.0293 0.62704 0.0
N154 N 0.11968 0.02868 0.70903 0.0
C155 C 0.13927 0.01856 0.75879 0.0
C156 C 0.16449 0.01276 0.70611 0.0
C157 C 0.17785 0.01739 0.53912 0.0
H158 H 0.15956 0.00931 0.48791 0.0
H159 H 0.18923 0.03293 0.51352 0.0
H160 H 0.19866 0.00859 0.5506 0.0
O161 O 0.05984 0.02709 0.53652 0.0
O162 O 0.03802 0.03029 0.66933 0.0
H163 H 0.10649 0.00842 0.86841 0.0
H164 H 0.1492 0.00279 0.87809 0.0
C165 C 0.13428 0.01432 0.85522 0.0
H166 H 0.14343 0.02883 0.89344 0.0
H167 H 0.03084 0.01353 0.85844 0.0
O168 O 0.12238 0.03942 0.41753 0.0
C169 C 0.0341 0.02448 0.58823 0.0
Co170 Co 0.15281 0.20822 0.73157 0.0
Co171 Co 0.12858 0.21097 0.53797 0.0
C172 C 0.12363 0.17023 0.62615 0.0
O173 O 0.13727 0.17903 0.69653 0.0
O174 O 0.11786 0.18051 0.55893 0.0
C175 C 0.14088 0.19957 0.89853 0.0
O176 O 0.11349 0.18979 0.8547 0.0
C177 C 0.12361 0.20302 0.34659 0.0
C178 C 0.12296 0.23444 0.29835 0.0
C179 C 0.12499 0.21463 0.27055 0.0
N180 N 0.1224 0.21568 0.41654 0.0
N181 N 0.12111 0.23428 0.38725 0.0
C182 C 0.12434 0.18052 0.35321 0.0
H183 H 0.10119 0.17263 0.38986 0.0
H184 H 0.14759 0.17869 0.39144 0.0
H185 H 0.12459 0.17311 0.28678 0.0
C186 C 0.22078 0.229 0.6574 0.0
N187 N 0.18657 0.22102 0.65139 0.0
N188 N 0.17603 0.22251 0.56919 0.0
C189 C 0.20337 0.23173 0.52078 0.0
C190 C 0.23243 0.23591 0.57435 0.0
C191 C 0.24165 0.22967 0.74056 0.0
H192 H 0.22951 0.23747 0.79397 0.0
H193 H 0.24137 0.21363 0.762 0.0
H194 H 0.26879 0.23789 0.73063 0.0
O195 O 0.11484 0.22358 0.73816 0.0
O196 O 0.09589 0.22543 0.6012 0.0
H197 H 0.18737 0.24943 0.41724 0.0
H198 H 0.22841 0.24228 0.39717 0.0
C199 C 0.20218 0.23696 0.42503 0.0
H200 H 0.18921 0.22315 0.38769 0.0
H201 H 0.12065 0.24709 0.42827 0.0
O202 O 0.16712 0.20883 0.85586 0.0
C203 C 0.09441 0.22938 0.68357 0.0
Co204 Co 0.84159 0.94756 0.47015 0.0
Co205 Co 0.86651 0.95751 0.27752 0.0
C206 C 0.86776 0.9165 0.37061 0.0
O207 O 0.84843 0.92008 0.4339 0.0
O208 O 0.87745 0.92999 0.31122 0.0
C209 C 0.81747 0.93296 0.64712 0.0
O210 O 0.80384 0.91493 0.61107 0.0
C211 C 0.8527 0.94764 0.08827 0.0
C212 C 0.88809 0.97295 0.02173 0.0
C213 C 0.86243 0.95562 0.00577 0.0
N214 N 0.87143 0.95977 0.15082 0.0
N215 N 0.89278 0.97479 0.11038 0.0
C216 C 0.82465 0.92938 0.10684 0.0
H217 H 0.82032 0.9276 0.17923 0.0
H218 H 0.80034 0.93117 0.07337 0.0
H219 H 0.83191 0.91525 0.07836 0.0
C220 C 0.77985 0.9629 0.4023 0.0
N221 N 0.81066 0.95721 0.39202 0.0
N222 N 0.82139 0.96105 0.31023 0.0
C223 C 0.79819 0.96977 0.26679 0.0
C224 C 0.77099 0.97099 0.3229 0.0
C225 C 0.76095 0.96219 0.4882 0.0
H226 H 0.77528 0.97434 0.53358 0.0
H227 H 0.76014 0.947 0.5196 0.0
H228 H 0.73426 0.96484 0.4784 0.0
O229 O 0.8877 0.96633 0.47201 0.0
O230 O 0.90033 0.97947 0.33992 0.0
H231 H 0.83065 0.98598 0.16578 0.0
H232 H 0.78685 0.99013 0.16392 0.0
C233 C 0.80318 0.97858 0.17583 0.0
H234 H 0.79547 0.96588 0.12669 0.0
H235 H 0.91 0.98657 0.14337 0.0
O236 O 0.82974 0.94811 0.59799 0.0
C237 C 0.90719 0.979 0.42233 0.0
Co238 Co 0.93244 0.80379 0.47271 0.0
Co239 Co 0.90449 0.79633 0.27672 0.0
C240 C 0.91403 0.83803 0.37455 0.0
O241 O 0.92957 0.83237 0.44109 0.0
O242 O 0.90337 0.82553 0.31062 0.0
C243 C 0.95698 0.81785 0.64994 0.0
O244 O 0.96843 0.8361 0.61565 0.0
C245 C 0.92165 0.8046 0.0903 0.0
C246 C 0.87933 0.78393 0.0181 0.0
C247 C 0.90975 0.79826 0.00612 0.0
N248 N 0.89952 0.79441 0.15001 0.0
N249 N 0.87416 0.7821 0.1063 0.0
C250 C 0.9541 0.81978 0.11308 0.0
H251 H 0.95854 0.82074 0.18582 0.0
H252 H 0.97645 0.81517 0.07941 0.0
H253 H 0.95213 0.8352 0.08781 0.0
C254 C 0.98824 0.78422 0.39872 0.0
N255 N 0.95908 0.7918 0.3908 0.0
N256 N 0.94641 0.78785 0.31004 0.0
C257 C 0.9667 0.77711 0.26503 0.0
C258 C 0.99402 0.77476 0.31894 0.0
C259 C 0.00882 0.78501 0.48244 0.0
H260 H 0.99459 0.77354 0.52914 0.0
H261 H 0.01164 0.80054 0.51413 0.0
H262 H 0.03468 0.78137 0.46954 0.0
O263 O 0.88479 0.78723 0.47439 0.0
O264 O 0.8642 0.77939 0.33805 0.0
H265 H 0.96984 0.7534 0.1671 0.0
H266 H 0.97094 0.77865 0.12427 0.0
C267 C 0.95884 0.76754 0.17488 0.0
H268 H 0.93052 0.76345 0.16337 0.0
H269 H 0.85355 0.77229 0.13662 0.0
O270 O 0.94593 0.80239 0.59918 0.0
C271 C 0.86083 0.77839 0.42209 0.0
Co272 Co 0.60768 0.54523 0.54725 0.0
Co273 Co 0.58159 0.5418 0.74168 0.0
C274 C 0.6019 0.58274 0.65341 0.0
O275 O 0.61048 0.57423 0.58323 0.0
O276 O 0.58991 0.57224 0.7206 0.0
C277 C 0.64326 0.54676 0.36098 0.0
O278 O 0.67656 0.54934 0.37773 0.0
C279 C 0.58288 0.54921 0.9344 0.0
C280 C 0.56945 0.51692 0.97944 0.0
C281 C 0.58278 0.53696 0.00882 0.0
N282 N 0.57247 0.5367 0.86405 0.0
N283 N 0.56299 0.51757 0.8922 0.0
C284 C 0.59313 0.57226 0.9291 0.0
H285 H 0.57223 0.57832 0.89548 0.0
H286 H 0.61675 0.57649 0.88811 0.0
H287 H 0.59783 0.57954 0.99597 0.0
C288 C 0.65857 0.52112 0.61832 0.0
N289 N 0.63188 0.53106 0.62671 0.0
N290 N 0.62173 0.53035 0.71008 0.0
C291 C 0.64257 0.5204 0.75701 0.0
C292 C 0.66629 0.51428 0.7009 0.0
C293 C 0.67607 0.51787 0.53324 0.0
H294 H 0.65682 0.51503 0.47848 0.0
H295 H 0.69568 0.53198 0.51907 0.0
H296 H 0.68945 0.50463 0.53786 0.0
O297 O 0.55935 0.53092 0.53705 0.0
O298 O 0.5395 0.5274 0.67447 0.0
H299 H 0.62014 0.50271 0.86676 0.0
H300 H 0.6654 0.51346 0.88064 0.0
C301 C 0.64063 0.51649 0.85415 0.0
H302 H 0.63476 0.53003 0.88896 0.0
H303 H 0.5551 0.50473 0.85049 0.0
O304 O 0.6217 0.54548 0.42361 0.0
C305 C 0.53518 0.52463 0.59115 0.0
Co306 Co 0.65248 0.71079 0.7388 0.0
Co307 Co 0.63015 0.71161 0.53941 0.0
C308 C 0.62497 0.67186 0.64123 0.0
O309 O 0.63618 0.68148 0.71211 0.0
O310 O 0.62147 0.68142 0.56998 0.0
C311 C 0.67285 0.69763 0.90712 0.0
O312 O 0.67705 0.68081 0.8646 0.0
C313 C 0.64144 0.70237 0.35255 0.0
C314 C 0.613 0.72294 0.28208 0.0
C315 C 0.63433 0.70886 0.26874 0.0
N316 N 0.62556 0.71241 0.4129 0.0
N317 N 0.60831 0.72455 0.37024 0.0
C318 C 0.66383 0.68737 0.37551 0.0
H319 H 0.67922 0.69275 0.43612 0.0
H320 H 0.68123 0.68526 0.3199 0.0
H321 H 0.647 0.67221 0.39008 0.0
C322 C 0.7207 0.73069 0.66332 0.0
N323 N 0.68654 0.72263 0.65613 0.0
N324 N 0.67613 0.72505 0.57446 0.0
C325 C 0.70305 0.73593 0.52931 0.0
C326 C 0.73213 0.73921 0.58261 0.0
C327 C 0.74154 0.73045 0.74599 0.0
H328 H 0.73575 0.71474 0.77453 0.0
H329 H 0.76968 0.73516 0.73276 0.0
H330 H 0.73385 0.74126 0.79553 0.0
O331 O 0.61355 0.72546 0.73756 0.0
O332 O 0.59588 0.72605 0.59768 0.0
H333 H 0.70783 0.76286 0.45073 0.0
H334 H 0.72131 0.74168 0.39741 0.0
C335 C 0.70122 0.74581 0.44147 0.0
H336 H 0.67533 0.74184 0.41108 0.0
H337 H 0.5941 0.73433 0.40139 0.0
O338 O 0.66741 0.71307 0.86409 0.0
C339 C 0.59346 0.73055 0.67965 0.0
Co340 Co 0.34507 0.44939 0.48018 0.0
Co341 Co 0.3681 0.45553 0.28115 0.0
C342 C 0.36567 0.41535 0.3775 0.0
O343 O 0.35302 0.42162 0.44783 0.0
O344 O 0.37263 0.42681 0.31012 0.0
C345 C 0.31867 0.43392 0.65154 0.0
O346 O 0.30531 0.41637 0.61115 0.0
C347 C 0.35507 0.4456 0.09278 0.0
C348 C 0.38646 0.4726 0.02671 0.0
C349 C 0.36293 0.45431 0.01056 0.0
N350 N 0.37269 0.45827 0.15518 0.0
N351 N 0.39177 0.47426 0.11513 0.0
C352 C 0.3298 0.4261 0.11219 0.0
H353 H 0.31923 0.42683 0.18002 0.0
H354 H 0.30846 0.42333 0.06258 0.0
H355 H 0.34339 0.41292 0.1085 0.0
C356 C 0.28461 0.46556 0.41113 0.0
N357 N 0.31455 0.45886 0.40029 0.0
N358 N 0.32448 0.46148 0.31717 0.0
C359 C 0.30117 0.46999 0.27299 0.0
C360 C 0.27517 0.47278 0.33047 0.0
C361 C 0.26692 0.46632 0.4982 0.0
H362 H 0.28467 0.47646 0.54498 0.0
H363 H 0.26118 0.45058 0.52649 0.0
H364 H 0.2426 0.47221 0.4911 0.0
O365 O 0.39032 0.46849 0.48122 0.0
O366 O 0.40697 0.47491 0.34194 0.0
H367 H 0.33078 0.48487 0.16493 0.0
H368 H 0.28549 0.48602 0.16003 0.0
C369 C 0.30421 0.47626 0.17815 0.0
H370 H 0.29864 0.46213 0.13591 0.0
H371 H 0.40755 0.48664 0.14834 0.0
O372 O 0.33187 0.44961 0.60643 0.0
C373 C 0.41182 0.47767 0.42523 0.0
Co374 Co 0.43002 0.30286 0.46928 0.0
Co375 Co 0.40437 0.29547 0.27098 0.0
C376 C 0.40862 0.33638 0.3683 0.0
O377 O 0.42017 0.33015 0.43968 0.0
O378 O 0.40317 0.32483 0.2993 0.0
C379 C 0.45299 0.3185 0.64428 0.0
O380 O 0.46022 0.33689 0.60869 0.0
C381 C 0.42064 0.30393 0.08524 0.0
C382 C 0.38098 0.28137 0.01282 0.0
C383 C 0.40965 0.29705 0.00103 0.0
N384 N 0.39969 0.29277 0.14471 0.0
N385 N 0.37592 0.27932 0.10098 0.0
C386 C 0.45091 0.32073 0.1086 0.0
H387 H 0.4567 0.32087 0.18066 0.0
H388 H 0.4739 0.31858 0.07002 0.0
H389 H 0.44494 0.33586 0.09025 0.0
C390 C 0.48931 0.28631 0.39489 0.0
N391 N 0.45908 0.29276 0.38657 0.0
N392 N 0.4466 0.28807 0.30615 0.0
C393 C 0.46774 0.27776 0.26224 0.0
C394 C 0.49564 0.27649 0.31612 0.0
C395 C 0.51046 0.28854 0.47814 0.0
H396 H 0.51322 0.30452 0.50508 0.0
H397 H 0.53638 0.28488 0.46611 0.0
H398 H 0.49671 0.27788 0.5285 0.0
O399 O 0.38465 0.28412 0.47139 0.0
O400 O 0.36432 0.27824 0.33356 0.0
H401 H 0.47359 0.25461 0.16385 0.0
H402 H 0.47063 0.27943 0.12157 0.0
C403 C 0.46047 0.26789 0.17245 0.0
H404 H 0.43226 0.26244 0.1624 0.0
H405 H 0.35644 0.26865 0.13123 0.0
O406 O 0.4448 0.30252 0.59477 0.0
C407 C 0.36115 0.27572 0.41712 0.0
Co408 Co 0.60822 0.04459 0.04679 0.0
Co409 Co 0.57975 0.04087 0.24052 0.0
C410 C 0.60216 0.08194 0.15285 0.0
O411 O 0.61131 0.07355 0.08303 0.0
O412 O 0.58925 0.07135 0.21898 0.0
C413 C 0.64395 0.04499 0.85749 0.0
O414 O 0.67732 0.04599 0.86807 0.0
C415 C 0.58098 0.04852 0.43341 0.0
C416 C 0.56499 0.01649 0.47987 0.0
C417 C 0.57984 0.03637 0.50859 0.0
N418 N 0.56971 0.03605 0.36339 0.0
N419 N 0.55869 0.01712 0.39245 0.0
C420 C 0.59296 0.07146 0.42721 0.0
H421 H 0.57271 0.07808 0.39348 0.0
H422 H 0.61661 0.07497 0.38594 0.0
H423 H 0.59825 0.07881 0.49379 0.0
C424 C 0.65769 0.02027 0.12155 0.0
N425 N 0.63095 0.03018 0.12855 0.0
N426 N 0.61949 0.02891 0.21081 0.0
C427 C 0.63922 0.01833 0.25826 0.0
C428 C 0.66382 0.01262 0.20374 0.0
C429 C 0.67686 0.01801 0.03804 0.0
H430 H 0.65821 0.01383 0.98241 0.0
H431 H 0.69411 0.03302 0.02357 0.0
H432 H 0.69284 0.00603 0.0444 0.0
O433 O 0.5597 0.03078 0.03369 0.0
O434 O 0.53821 0.02704 0.16976 0.0
H435 H 0.61295 1.00001 0.36179 0.0
H436 H 0.65847 0.00864 0.38198 0.0
C437 C 0.63505 0.01317 0.35407 0.0
H438 H 0.63029 0.02665 0.39143 0.0
H439 H 0.54984 0.0043 0.3513 0.0
O440 O 0.62447 0.04463 0.92432 0.0
C441 C 0.53481 0.0246 0.086 0.0
Co442 Co 0.65525 0.21016 0.24303 0.0
Co443 Co 0.63179 0.21094 0.04846 0.0
C444 C 0.62639 0.17108 0.14056 0.0
O445 O 0.63904 0.1808 0.21012 0.0
O446 O 0.62135 0.18058 0.07034 0.0
C447 C 0.6428 0.20188 0.40891 0.0
O448 O 0.6151 0.19274 0.36459 0.0
C449 C 0.62438 0.20325 0.85688 0.0
C450 C 0.62919 0.23536 0.81063 0.0
C451 C 0.6276 0.2152 0.78159 0.0
N452 N 0.62573 0.216 0.92757 0.0
N453 N 0.62763 0.23505 0.89949 0.0
C454 C 0.62118 0.18033 0.86219 0.0
H455 H 0.59802 0.17374 0.90178 0.0
H456 H 0.64417 0.17691 0.89702 0.0
H457 H 0.61888 0.17293 0.79533 0.0
C458 C 0.72327 0.23107 0.16899 0.0
N459 N 0.68927 0.22249 0.16271 0.0
N460 N 0.6793 0.22232 0.07924 0.0
C461 C 0.707 0.23045 0.02982 0.0
C462 C 0.73551 0.23626 0.08446 0.0
C463 C 0.74338 0.23393 0.25386 0.0
H464 H 0.7297 0.24194 0.30329 0.0
H465 H 0.74463 0.21852 0.28064 0.0
H466 H 0.77005 0.24289 0.2438 0.0
O467 O 0.61772 0.22562 0.24814 0.0
O468 O 0.59881 0.22567 0.11036 0.0
H469 H 0.69582 0.2457 0.91281 0.0
H470 H 0.73367 0.23451 0.90409 0.0
C471 C 0.70709 0.23226 0.93136 0.0
H472 H 0.69156 0.21801 0.90245 0.0
H473 H 0.62968 0.24798 0.94131 0.0
O474 O 0.66946 0.21081 0.367 0.0
C475 C 0.59722 0.23061 0.19171 0.0
Co476 Co 0.34621 0.95084 0.97123 0.0
Co477 Co 0.36688 0.9568 0.77063 0.0
C478 C 0.36832 0.91724 0.86381 0.0
O479 O 0.35837 0.92412 0.93656 0.0
O480 O 0.37126 0.92797 0.79381 0.0
C481 C 0.3216 0.93388 0.14147 0.0
O482 O 0.31122 0.91601 0.10052 0.0
C483 C 0.35587 0.94724 0.5819 0.0
C484 C 0.38204 0.97604 0.51813 0.0
C485 C 0.36203 0.95663 0.50053 0.0
N486 N 0.37106 0.96055 0.6453 0.0
N487 N 0.38706 0.97766 0.60667 0.0
C488 C 0.33436 0.92636 0.59967 0.0
H489 H 0.32097 0.92651 0.66424 0.0
H490 H 0.31517 0.92139 0.5457 0.0
H491 H 0.35162 0.91501 0.60345 0.0
C492 C 0.28415 0.96579 0.90564 0.0
N493 N 0.31431 0.95947 0.89285 0.0
N494 N 0.32305 0.9618 0.80881 0.0
C495 C 0.29839 0.96932 0.76559 0.0
C496 C 0.27302 0.97211 0.82498 0.0
C497 C 0.26779 0.96709 0.9942 0.0
H498 H 0.28731 0.97558 0.04163 0.0
H499 H 0.25899 0.95122 0.01955 0.0
H500 H 0.24538 0.97489 0.99016 0.0
O501 O 0.38949 0.97105 0.97352 0.0
O502 O 0.40618 0.97589 0.83338 0.0
H503 H 0.32441 0.98504 0.65446 0.0
H504 H 0.27797 0.98227 0.65029 0.0
C505 C 0.29946 0.97465 0.66962 0.0
H506 H 0.29703 0.9602 0.62993 0.0
H507 H 0.40045 0.99068 0.64095 0.0
O508 O 0.33269 0.95003 0.09709 0.0
C509 C 0.41089 0.97962 0.91628 0.0
Co510 Co 0.43216 0.80499 0.96976 0.0
Co511 Co 0.40002 0.79551 0.77813 0.0
C512 C 0.40966 0.83784 0.87109 0.0
O513 O 0.42529 0.83267 0.93836 0.0
O514 O 0.39889 0.82513 0.80784 0.0
C515 C 0.46896 0.8063 0.16261 0.0
O516 O 0.50245 0.80717 0.15666 0.0
C517 C 0.40563 0.8038 0.58762 0.0
C518 C 0.38561 0.77281 0.52991 0.0
C519 C 0.40326 0.79248 0.50828 0.0
N520 N 0.39179 0.7911 0.65292 0.0
N521 N 0.37867 0.77281 0.61725 0.0
C522 C 0.42129 0.8262 0.60243 0.0
H523 H 0.40223 0.83389 0.63627 0.0
H524 H 0.44412 0.82761 0.64699 0.0
H525 H 0.42896 0.83415 0.53915 0.0
C526 C 0.48889 0.7873 0.88614 0.0
N527 N 0.45846 0.79372 0.88306 0.0
N528 N 0.44359 0.78836 0.80556 0.0
C529 C 0.46337 0.7775 0.75916 0.0
C530 C 0.49284 0.7768 0.80767 0.0
C531 C 0.51258 0.79 0.96453 0.0
H532 H 0.51745 0.80641 0.98698 0.0
H533 H 0.53749 0.78542 0.94857 0.0
H534 H 0.49982 0.78029 0.01912 0.0
O535 O 0.3856 0.78692 0.98148 0.0
O536 O 0.36296 0.77805 0.84768 0.0
H537 H 0.47101 0.75553 0.65631 0.0
H538 H 0.4508 0.77606 0.62123 0.0
C539 C 0.45247 0.7654 0.67578 0.0
H540 H 0.42673 0.75534 0.68569 0.0
H541 H 0.36731 0.7599 0.65356 0.0
O542 O 0.45094 0.80565 0.09227 0.0
C543 C 0.36146 0.7771 0.93195 0.0
C544 C 0.21283 0.47221 0.292 0.0
C545 C 0.24661 0.48372 0.30984 0.0
C546 C 0.2301 0.51513 0.25378 0.0
C547 C 0.19586 0.50388 0.23965 0.0
N548 N 0.15294 0.47254 0.2553 0.0
N549 N 0.28595 0.51657 0.32436 0.0
C550 C 0.18671 0.48265 0.262 0.0
C551 C 0.25476 0.50535 0.29573 0.0
N552 N 0.20611 0.4512 0.30048 0.0
N553 N 0.23915 0.5351 0.22593 0.0
H554 H 0.30443 0.50987 0.35613 0.0
H555 H 0.29239 0.53264 0.32401 0.0
H556 H 0.22156 0.54302 0.19757 0.0
H557 H 0.26455 0.54337 0.22474 0.0
H558 H 0.18334 0.44156 0.27867 0.0
H559 H 0.22427 0.44315 0.32509 0.0
H560 H 0.14371 0.45792 0.28085 0.0
H561 H 0.1335 0.47925 0.22832 0.0
C562 C 0.07358 0.76224 0.20631 0.0
C563 C 0.06985 0.74093 0.22602 0.0
C564 C 0.01752 0.74213 0.31273 0.0
C565 C 0.02188 0.76354 0.29501 0.0
N566 N 0.05556 0.79483 0.23596 0.0
N567 N 0.04031 0.71063 0.30232 0.0
C568 C 0.05036 0.77383 0.24478 0.0
C569 C 0.04248 0.73092 0.28097 0.0
N570 N 0.09924 0.77136 0.15036 0.0
N571 N 0.98865 0.7324 0.3567 0.0
H572 H 0.05615 0.70138 0.27435 0.0
H573 H 0.024 0.70307 0.35081 0.0
H574 H 0.97051 0.74026 0.38351 0.0
H575 H 0.98149 0.71646 0.3632 0.0
H576 H 0.101 0.78604 0.12446 0.0
H577 H 0.11817 0.76385 0.1256 0.0
H578 H 0.07745 0.80377 0.20766 0.0
H579 H 0.03895 0.80372 0.26309 0.0
C580 C 0.3232 0.74417 0.9823 0.0
C581 C 0.3296 0.76598 0.97504 0.0
C582 C 0.279 0.76748 0.06706 0.0
C583 C 0.27027 0.74564 0.06552 0.0
N584 N 0.28194 0.7128 0.01692 0.0
N585 N 0.3106 0.79818 0.99643 0.0
C586 C 0.29194 0.73383 0.0223 0.0
C587 C 0.30681 0.77762 0.01422 0.0
N588 N 0.34725 0.73342 0.95231 0.0
N589 N 0.26046 0.7785 0.11863 0.0
H590 H 0.3294 0.80573 0.95328 0.0
H591 H 0.29304 0.80719 0.01636 0.0
H592 H 0.23972 0.77144 0.15755 0.0
H593 H 0.2676 0.79441 0.12933 0.0
H594 H 0.34587 0.71777 0.96378 0.0
H595 H 0.36998 0.74051 0.9208 0.0
H596 H 0.2942 0.70346 0.97714 0.0
H597 H 0.26008 0.70471 0.04913 0.0
C598 C 0.96473 0.47774 0.01624 0.0
C599 C 0.9441 0.48836 0.96391 0.0
C600 C 0.98487 0.521 0.9937 0.0
C601 C 0.00382 0.5105 0.05175 0.0
N602 N 0.0087 0.47966 0.13029 0.0
N603 N 0.93147 0.5204 0.91198 0.0
C604 C 0.99259 0.48913 0.06732 0.0
C605 C 0.95339 0.5101 0.95474 0.0
N606 N 0.95893 0.45664 0.01258 0.0
N607 N 0.99712 0.54138 0.9755 0.0
H608 H 0.90841 0.51287 0.88203 0.0
H609 H 0.9348 0.53644 0.91141 0.0
H610 H 0.01857 0.55031 0.00771 0.0
H611 H 0.98711 0.5492 0.92544 0.0
H612 H 0.97483 0.44792 0.04293 0.0
H613 H 0.94045 0.44798 0.97031 0.0
H614 H 0.99916 0.46466 0.15148 0.0
H615 H 0.03006 0.48732 0.16683 0.0
C616 C 0.7528 0.5058 0.78839 0.0
C617 C 0.74572 0.48406 0.79959 0.0
C618 C 0.68619 0.48205 0.74658 0.0
C619 C 0.69436 0.50348 0.72753 0.0
N620 N 0.7361 0.53555 0.7213 0.0
N621 N 0.70715 0.45098 0.78298 0.0
C622 C 0.72792 0.51529 0.74567 0.0
C623 C 0.71272 0.47204 0.77745 0.0
N624 N 0.78311 0.51739 0.8207 0.0
N625 N 0.6529 0.47135 0.73642 0.0
H626 H 0.72558 0.44319 0.80804 0.0
H627 H 0.68514 0.4411 0.75817 0.0
H628 H 0.63327 0.47781 0.7089 0.0
H629 H 0.64419 0.45645 0.75964 0.0
H630 H 0.7886 0.53347 0.82272 0.0
H631 H 0.80173 0.5109 0.85299 0.0
H632 H 0.76113 0.54436 0.72327 0.0
H633 H 0.71827 0.54324 0.69263 0.0
C634 C 0.07507 0.26318 0.70108 0.0
C635 C 0.06941 0.24163 0.71762 0.0
C636 C 0.01733 0.24378 0.80346 0.0
C637 C 0.02349 0.26538 0.78857 0.0
N638 N 0.06031 0.2964 0.73664 0.0
N639 N 0.03813 0.21162 0.79264 0.0
C640 C 0.05307 0.2753 0.74135 0.0
C641 C 0.0415 0.23202 0.7717 0.0
N642 N 0.10131 0.27199 0.64616 0.0
N643 N 0.98756 0.23442 0.84468 0.0
H644 H 0.05374 0.20211 0.76563 0.0
H645 H 0.02123 0.20432 0.84056 0.0
H646 H 0.97 0.24263 0.87193 0.0
H647 H 0.97919 0.21847 0.84818 0.0
H648 H 0.10449 0.287 0.62289 0.0
H649 H 0.11913 0.26391 0.61924 0.0
H650 H 0.08304 0.30494 0.71056 0.0
H651 H 0.04463 0.30564 0.76558 0.0
C652 C 0.79576 0.23521 0.03492 0.0
C653 C 0.77025 0.24699 0.05485 0.0
C654 C 0.80561 0.27747 0.98618 0.0
C655 C 0.82971 0.26522 0.95959 0.0
N656 N 0.84793 0.23259 0.95313 0.0
N657 N 0.74909 0.27872 0.04636 0.0
C658 C 0.82491 0.24411 0.98278 0.0
C659 C 0.77482 0.268 0.03009 0.0
N660 N 0.79193 0.21554 0.06612 0.0
N661 N 0.8127 0.2983 0.97147 0.0
H662 H 0.72733 0.27283 0.08422 0.0
H663 H 0.74837 0.29303 0.01927 0.0
H664 H 0.83426 0.30573 0.93628 0.0
H665 H 0.79848 0.30855 -0.00155 0.0
H666 H 0.81067 0.20653 0.06072 0.0
H667 H 0.77063 0.20859 0.10341 0.0
H668 H 0.84475 0.21669 0.96069 0.0
H669 H 0.86957 0.23881 0.9154 0.0
C670 C 0.21014 0.97106 0.79228 0.0
C671 C 0.24406 0.9828 0.80584 0.0
C672 C 0.22615 0.01402 0.75196 0.0
C673 C 0.19237 0.00221 0.73634 0.0
N674 N 0.15183 0.96965 0.73527 0.0
N675 N 0.28342 0.01571 0.8154 0.0
C676 C 0.18418 0.98076 0.75548 0.0
C677 C 0.25178 0.00439 0.79034 0.0
N678 N 0.20293 0.9507 0.81562 0.0
N679 N 0.23383 0.03435 0.72826 0.0
H680 H 0.30247 0.00915 0.8452 0.0
H681 H 0.29013 0.03175 0.81359 0.0
H682 H 0.21542 0.04221 0.70392 0.0
H683 H 0.25874 0.04328 0.72759 0.0
H684 H 0.1784 0.94132 0.81408 0.0
H685 H 0.22156 0.94322 0.84168 0.0
H686 H 0.14419 0.95375 0.74178 0.0
H687 H 0.13249 0.97626 0.7072 0.0
C688 C 0.28931 0.23374 0.50568 0.0
C689 C 0.26758 0.24602 0.54533 0.0
C690 C 0.30728 0.27764 0.50057 0.0
C691 C 0.32779 0.26535 0.45541 0.0
N692 N 0.33777 0.23209 0.40805 0.0
N693 N 0.25345 0.27927 0.57539 0.0
C694 C 0.31862 0.24347 0.45595 0.0
C695 C 0.27606 0.26789 0.54196 0.0
N696 N 0.28193 0.2128 0.51673 0.0
N697 N 0.3179 0.29869 0.50446 0.0
H698 H 0.23129 0.27273 0.6105 0.0
H699 H 0.25553 0.29501 0.56486 0.0
H700 H 0.33909 0.30665 0.46947 0.0
H701 H 0.30683 0.30833 0.54565 0.0
H702 H 0.298 0.20293 0.49629 0.0
H703 H 0.26061 0.20531 0.55269 0.0
H704 H 0.33088 0.21616 0.39831 0.0
H705 H 0.3598 0.23879 0.37282 0.0
C706 C 0.96738 0.0025 0.41339 0.0
C707 C 0.93805 0.99312 0.46365 0.0
C708 C 0.97178 0.00376 0.59953 0.0
C709 C 0.99929 0.01523 0.54918 0.0
N710 N 0.01306 0.03266 0.40912 0.0
N711 N 0.90967 0.99435 0.60629 0.0
C712 C 0.99389 0.01696 0.45636 0.0
C713 C 0.93925 0.9967 0.55739 0.0
N714 N 0.9717 0.99713 0.32699 0.0
N715 N 0.97633 0.99858 0.68538 0.0
H716 H 0.8851 0.99207 0.57748 0.0
H717 H 0.91 0.9979 0.67398 0.0
H718 H 1.00023 0.00139 0.71738 0.0
H719 H 0.95686 0.98904 0.72071 0.0
H720 H 0.99415 0.00322 0.29204 0.0
H721 H 0.95602 0.98476 0.29412 0.0
H722 H 0.00831 0.03479 0.34213 0.0
H723 H 0.02986 0.04506 0.43937 0.0
C724 C 0.72434 0.01337 0.2568 0.0
C725 C 0.69145 0.00165 0.23159 0.0
C726 C 0.70953 0.96964 0.27462 0.0
C727 C 0.74188 0.98148 0.30298 0.0
N728 N 0.77806 0.01455 0.33765 0.0
N729 N 0.65041 0.96923 0.22789 0.0
C730 C 0.7486 0.00337 0.29921 0.0
C731 C 0.68334 0.97993 0.24403 0.0
N732 N 0.73253 0.03402 0.23901 0.0
N733 N 0.70433 0.94853 0.27409 0.0
H734 H 0.63109 0.97602 0.20085 0.0
H735 H 0.6416 0.95392 0.24589 0.0
H736 H 0.72241 0.94052 0.29936 0.0
H737 H 0.68301 0.93893 0.24453 0.0
H738 H 0.75731 0.04298 0.24641 0.0
H739 H 0.71511 0.04203 0.21037 0.0
H740 H 0.78313 0.03058 0.34492 0.0
H741 H 0.79623 0.00764 0.3696 0.0
C742 C 0.78707 0.73663 0.50519 0.0
C743 C 0.76749 0.74892 0.5533 0.0
C744 C 0.80889 0.78041 0.5145 0.0
C745 C 0.82758 0.76822 0.46237 0.0
N746 N 0.83413 0.73516 0.40279 0.0
N747 N 0.75774 0.7821 0.60192 0.0
C748 C 0.81653 0.74642 0.4561 0.0
C749 C 0.77809 0.7707 0.5583 0.0
N750 N 0.77758 0.71554 0.50799 0.0
N751 N 0.82055 0.80135 0.52132 0.0
H752 H 0.73601 0.77537 0.63824 0.0
H753 H 0.76129 0.79812 0.59999 0.0
H754 H 0.8405 0.80937 0.48251 0.0
H755 H 0.81125 0.81087 0.56681 0.0
H756 H 0.79188 0.70539 0.48071 0.0
H757 H 0.75622 0.70798 0.54357 0.0
H758 H 0.82567 0.71956 0.38739 0.0
H759 H 0.85675 0.74165 0.36954 0.0
C760 C 0.51955 0.74533 0.81093 0.0
C761 C 0.52064 0.76572 0.78103 0.0
C762 C 0.5702 0.76331 0.68582 0.0
C763 C 0.56725 0.74235 0.71015 0.0
N764 N 0.53649 0.71233 0.78571 0.0
N765 N 0.54402 0.79357 0.68319 0.0
C766 C 0.5413 0.73309 0.77042 0.0
C767 C 0.54514 0.77455 0.71646 0.0
N768 N 0.49764 0.73765 0.87797 0.0
N769 N 0.59785 0.77278 0.63677 0.0
H770 H 0.5275 0.80283 0.70767 0.0
H771 H 0.55798 0.79969 0.62795 0.0
H772 H 0.61671 0.7651 0.61277 0.0
H773 H 0.60367 0.78861 0.62549 0.0
H774 H 0.49832 0.72386 0.90987 0.0
H775 H 0.48024 0.74578 0.90656 0.0
H776 H 0.51584 0.70412 0.82153 0.0
H777 H 0.55152 0.70282 0.756 0.0
C778 C 0.49676 0.49102 0.54993 0.0
C779 C 0.50213 0.51289 0.55433 0.0
C780 C 0.44844 0.51199 0.46988 0.0
C781 C 0.44451 0.49026 0.46033 0.0
N782 N 0.46808 0.45953 0.47454 0.0
N783 N 0.48601 0.54465 0.51047 0.0
C784 C 0.46958 0.47989 0.49583 0.0
C785 C 0.47881 0.52353 0.51181 0.0
N786 N 0.51756 0.4809 0.59779 0.0
N787 N 0.4227 0.52147 0.44119 0.0
H788 H 0.50699 0.55356 0.54449 0.0
H789 H 0.47238 0.55333 0.47203 0.0
H790 H 0.40076 0.51354 0.40754 0.0
H791 H 0.42205 0.53688 0.45499 0.0
H792 H 0.51268 0.46491 0.60489 0.0
H793 H 0.53822 0.48858 0.63668 0.0
H794 H 0.48715 0.45142 0.49172 0.0
H795 H 0.44941 0.45131 0.43137 0.0
C796 C 0.52405 0.24572 0.32497 0.0
C797 C 0.52428 0.2658 0.29237 0.0
C798 C 0.57356 0.26323 0.19621 0.0
C799 C 0.57126 0.24249 0.223 0.0
N800 N 0.54175 0.21285 0.30314 0.0
N801 N 0.54703 0.29334 0.19238 0.0
C802 C 0.54599 0.23348 0.28538 0.0
C803 C 0.54846 0.27446 0.22668 0.0
N804 N 0.50262 0.23824 0.39318 0.0
N805 N 0.60062 0.27249 0.14473 0.0
H806 H 0.53092 0.30277 0.21762 0.0
H807 H 0.56047 0.29925 0.13607 0.0
H808 H 0.61948 0.26479 0.12084 0.0
H809 H 0.60602 0.28821 0.13099 0.0
H810 H 0.5044 0.22494 0.42765 0.0
H811 H 0.48445 0.24604 0.41991 0.0
H812 H 0.52161 0.20475 0.34093 0.0
H813 H 0.55672 0.20327 0.27378 0.0
C814 C 0.44801 0.01339 0.96495 0.0
C815 C 0.44402 0.99178 0.95053 0.0
C816 C 0.49683 0.99149 0.0366 0.0
C817 C 0.50198 0.01327 0.04657 0.0
N818 N 0.48534 0.04553 0.01325 0.0
N819 N 0.46629 0.96046 0.96083 0.0
C820 C 0.47837 0.02441 0.00859 0.0
C821 C 0.46899 0.9809 0.98293 0.0
N822 N 0.42222 0.0232 0.9394 0.0
N823 N 0.51827 0.98093 0.07987 0.0
H824 H 0.44605 0.9522 0.92219 0.0
H825 H 0.48533 0.95205 0.97437 0.0
H826 H 0.53926 0.98823 0.11859 0.0
H827 H 0.51388 0.96488 0.0833 0.0
H828 H 0.42148 0.03841 0.95693 0.0
H829 H 0.40037 0.01568 0.90417 0.0
H830 H 0.47146 0.05474 0.97858 0.0
H831 H 0.50637 0.05399 0.04862 0.0
C832 C 0.07659 0.53365 0.67421 0.0
C833 C 0.09539 0.54353 0.60118 0.0
C834 C 0.14291 0.55773 0.70385 0.0
C835 C 0.12737 0.54408 0.77035 0.0
N836 N 0.08079 0.51605 0.81176 0.0
N837 N 0.15115 0.56208 0.54745 0.0
C838 C 0.09436 0.53133 0.75428 0.0
C839 C 0.12972 0.55504 0.616 0.0
N840 N 0.04171 0.52645 0.66713 0.0
N841 N 0.1701 0.57347 0.72437 0.0
H842 H 0.14425 0.55982 0.48134 0.0
H843 H 0.17737 0.56845 0.55653 0.0
H844 H 0.17964 0.57646 0.78883 0.0
H845 H 0.18027 0.58492 0.67938 0.0
H846 H 0.02643 0.52056 0.72078 0.0
H847 H 0.02766 0.52863 0.61051 0.0
H848 H 0.05828 0.50518 0.79791 0.0
H849 H 0.09374 0.51276 0.86838 0.0
C850 C 0.16064 0.70289 0.6563 0.0
C851 C 0.13116 0.71024 0.68743 0.0
C852 C 0.11194 0.71304 0.53562 0.0
C853 C 0.13905 0.70353 0.50507 0.0
N854 N 0.1856 0.68593 0.53671 0.0
N855 N 0.07431 0.71706 0.65754 0.0
C856 C 0.1624 0.69741 0.56548 0.0
C857 C 0.1054 0.71368 0.6273 0.0
N858 N 0.18767 0.70203 0.71189 0.0
N859 N 0.09357 0.72245 0.4777 0.0
H860 H 0.06797 0.71685 0.72467 0.0
H861 H 0.05354 0.71777 0.61558 0.0
H862 H 0.0991 0.72357 0.41036 0.0
H863 H 0.07571 0.73126 0.49799 0.0
H864 H 0.21126 0.69906 0.69002 0.0
H865 H 0.1877 0.70594 0.77874 0.0
H866 H 0.20061 0.67911 0.57964 0.0
H867 H 0.18769 0.6817 0.47034 0.0
C868 C 0.82408 0.45705 0.38161 0.0
C869 C 0.84981 0.44765 0.42058 0.0
C870 C 0.85288 0.42747 0.28417 0.0
C871 C 0.82625 0.43637 0.24609 0.0
N872 N 0.7813 0.4559 0.26447 0.0
N873 N 0.88365 0.42103 0.417 0.0
C874 C 0.8102 0.45 0.29691 0.0
C875 C 0.86233 0.43179 0.37461 0.0
N876 N 0.81365 0.47314 0.42432 0.0
N877 N 0.87107 0.4162 0.2326 0.0
H878 H 0.89255 0.42442 0.48175 0.0
H879 H 0.89033 0.40771 0.39061 0.0
H880 H 0.86606 0.41298 0.16555 0.0
H881 H 0.89332 0.41147 0.25418 0.0
H882 H 0.79789 0.48213 0.39532 0.0
H883 H 0.82278 0.47853 0.48691 0.0
H884 H 0.76631 0.46421 0.3014 0.0
H885 H 0.7704 0.45076 0.203 0.0
C886 C 0.96646 0.31689 0.31494 0.0
C887 C 0.95245 0.30496 0.2397 0.0
C888 C 0.90457 0.28752 0.33105 0.0
C889 C 0.92161 0.29682 0.40871 0.0
N890 N 0.97604 0.31547 0.47179 0.0
N891 N 0.914 0.2736 0.18708 0.0
C892 C 0.95466 0.31017 0.40035 0.0
C893 C 0.92314 0.2887 0.25062 0.0
N894 N 0.99005 0.33494 0.30598 0.0
N895 N 0.87056 0.27785 0.333 0.0
H896 H 0.92919 0.27224 0.13169 0.0
H897 H 0.89403 0.26083 0.19599 0.0
H898 H 0.85526 0.27778 0.38935 0.0
H899 H 0.85673 0.2722 0.27577 0.0
H900 H 0.99861 0.34475 0.35981 0.0
H901 H 0.99778 0.3413 0.24472 0.0
H902 H 0.00136 0.32378 0.46586 0.0
H903 H 0.9703 0.30958 0.53461 0.0
C904 C 0.09139 0.06234 0.24366 0.0
C905 C 0.11875 0.05301 0.27446 0.0
C906 C 0.11739 0.03389 0.13385 0.0
C907 C 0.09266 0.04481 0.10003 0.0
N908 N 0.0604 0.072 0.1172 0.0
N909 N 0.16213 0.03292 0.2435 0.0
C910 C 0.08121 0.05995 0.15307 0.0
C911 C 0.13312 0.03971 0.21774 0.0
N912 N 0.07335 0.07221 0.30178 0.0
N913 N 0.12484 0.01739 0.08767 0.0
H914 H 0.17435 0.03701 0.30449 0.0
H915 H 0.17587 0.0249 0.20135 0.0
H916 H 0.11284 0.01218 0.02779 0.0
H917 H 0.14014 0.00764 0.11287 0.0
H918 H 0.05079 0.07718 0.28437 0.0
H919 H 0.07848 0.07357 0.36961 0.0
H920 H 0.05442 0.08482 0.15005 0.0
H921 H 0.0514 0.07021 0.05188 0.0
C922 C 0.15775 0.20106 0.14633 0.0
C923 C 0.12805 0.20825 0.1771 0.0
C924 C 0.11022 0.21226 0.0249 0.0
C925 C 0.13778 0.20316 0.9942 0.0
N926 N 0.18395 0.18524 0.02535 0.0
N927 N 0.07142 0.21515 0.14565 0.0
C928 C 0.16047 0.19645 0.05478 0.0
C929 C 0.10281 0.21209 0.11628 0.0
N930 N 0.18412 0.19953 0.20303 0.0
N931 N 0.09222 0.22205 0.96754 0.0
H932 H 0.06452 0.21434 0.21244 0.0
H933 H 0.051 0.21617 0.10302 0.0
H934 H 0.09832 0.22371 0.90064 0.0
H935 H 0.07406 0.2306 0.98822 0.0
H936 H 0.20795 0.19679 0.18185 0.0
H937 H 0.18331 0.20249 0.27061 0.0
H938 H 0.19846 0.17796 0.06782 0.0
H939 H 0.18682 0.18173 0.95847 0.0
C940 C 0.82211 0.95748 0.87788 0.0
C941 C 0.84753 0.948 0.91785 0.0
C942 C 0.84606 0.92474 0.78843 0.0
C943 C 0.8232 0.93561 0.7447 0.0
N944 N 0.78741 0.96115 0.74761 0.0
N945 N 0.88494 0.92333 0.91272 0.0
C946 C 0.81041 0.95153 0.78997 0.0
C947 C 0.85941 0.93159 0.8741 0.0
N948 N 0.80907 0.97207 0.92465 0.0
N949 N 0.85543 0.90803 0.74782 0.0
H950 H 0.89475 0.92759 0.97605 0.0
H951 H 0.89808 0.91316 0.88088 0.0
H952 H 0.84846 0.90321 0.68325 0.0
H953 H 0.86844 0.89794 0.7796 0.0
H954 H 0.78817 0.9783 0.90428 0.0
H955 H 0.81838 0.97755 0.98698 0.0
H956 H 0.77977 0.97443 0.77095 0.0
H957 H 0.77603 0.95587 0.68687 0.0
C958 C 0.94742 0.79321 0.87643 0.0
C959 C 0.92593 0.80507 0.91991 0.0
C960 C 0.9277 0.82701 0.7897 0.0
C961 C 0.95013 0.81554 0.7467 0.0
N962 N 0.9877 0.79105 0.75671 0.0
N963 N 0.90236 0.83603 0.92738 0.0
C964 C 0.96199 0.79966 0.79266 0.0
C965 C 0.9185 0.82296 0.87975 0.0
N966 N 0.95311 0.77547 0.91399 0.0
N967 N 0.91287 0.84063 0.74316 0.0
H968 H 0.89403 0.83319 0.99242 0.0
H969 H 0.89992 0.85054 0.90517 0.0
H970 H 0.91787 0.84393 0.67677 0.0
H971 H 0.89311 0.8474 0.76819 0.0
H972 H 0.96525 0.7649 0.88126 0.0
H973 H 0.94359 0.77054 0.97613 0.0
H974 H 0.99982 0.78076 0.79022 0.0
H975 H 0.99927 0.79576 0.69628 0.0
C976 C 0.63205 0.55393 0.11314 0.0
C977 C 0.59791 0.54207 0.09911 0.0
C978 C 0.59786 0.53032 0.25168 0.0
C979 C 0.62928 0.54459 0.26927 0.0
N980 N 0.67059 0.57444 0.21965 0.0
N981 N 0.54493 0.52419 0.16647 0.0
C982 C 0.64472 0.55781 0.2011 0.0
C983 C 0.57969 0.53197 0.17217 0.0
N984 N 0.65359 0.5604 0.04414 0.0
N985 N 0.586 0.51455 0.30843 0.0
H986 H 0.53021 0.52621 0.11088 0.0
H987 H 0.53031 0.51802 0.22081 0.0
H988 H 0.60008 0.51151 0.36362 0.0
H989 H 0.56442 0.50299 0.29415 0.0
H990 H 0.67955 0.56737 0.05329 0.0
H991 H 0.64713 0.55681 0.97842 0.0
H992 H 0.68022 0.58543 0.17225 0.0
H993 H 0.67956 0.57859 0.28369 0.0
C994 C 0.68935 0.71061 0.06087 0.0
C995 C 0.66621 0.69727 0.00367 0.0
C996 C 0.62422 0.68908 0.12466 0.0
C997 C 0.64701 0.70288 0.1812 0.0
N998 N 0.70367 0.7235 0.21027 0.0
N999 N 0.61393 0.67138 0.98196 0.0
C1000 C 0.68043 0.71255 0.15147 0.0
C1001 C 0.63449 0.68558 0.03616 0.0
N1002 N 0.71939 0.7219 0.02754 0.0
N1003 N 0.59222 0.67992 0.15501 0.0
H1004 H 0.619 0.66932 0.91509 0.0
H1005 H 0.59262 0.66072 0.00373 0.0
H1006 H 0.58475 0.68113 0.22087 0.0
H1007 H 0.57243 0.67176 0.11509 0.0
H1008 H 0.73547 0.73387 0.06201 0.0
H1009 H 0.72767 0.71989 0.96293 0.0
H1010 H 0.72959 0.72925 0.19614 0.0
H1011 H 0.69753 0.72544 0.27624 0.0
C1012 C 0.35956 0.43068 0.87753 0.0
C1013 C 0.34756 0.44681 0.92309 0.0
C1014 C 0.31 0.45077 0.79678 0.0
C1015 C 0.32329 0.43537 0.74942 0.0
N1016 N 0.35568 0.40787 0.74876 0.0
N1017 N 0.30839 0.47047 0.93351 0.0
C1018 C 0.34619 0.42428 0.79148 0.0
C1019 C 0.32173 0.45628 0.88494 0.0
N1020 N 0.38537 0.42239 0.9145 0.0
N1021 N 0.28665 0.46039 0.75594 0.0
H1022 H 0.31773 0.47569 0.99605 0.0
H1023 H 0.28723 0.4766 0.91435 0.0
H1024 H 0.27538 0.45537 0.69478 0.0
H1025 H 0.27858 0.47339 0.78097 0.0
H1026 H 0.39854 0.41244 0.88126 0.0
H1027 H 0.3954 0.42643 0.9778 0.0
H1028 H 0.36876 0.39763 0.77923 0.0
H1029 H 0.34865 0.40341 0.68381 0.0
C1030 C 0.41317 0.32125 0.87357 0.0
C1031 C 0.42477 0.30473 0.91489 0.0
C1032 C 0.46258 0.302 0.78813 0.0
C1033 C 0.44673 0.3161 0.74104 0.0
N1034 N 0.40253 0.33688 0.73519 0.0
N1035 N 0.45881 0.27819 0.91031 0.0
C1036 C 0.42122 0.32543 0.78303 0.0
C1037 C 0.44923 0.29485 0.87212 0.0
N1038 N 0.3941 0.33284 0.92052 0.0
N1039 N 0.49073 0.29571 0.75287 0.0
H1040 H 0.44989 0.2727 0.97217 0.0
H1041 H 0.47356 0.26892 0.87812 0.0
H1042 H 0.50136 0.30097 0.6921 0.0
H1043 H 0.50549 0.28694 0.78725 0.0
H1044 H 0.38827 0.34651 0.89699 0.0
H1045 H 0.38673 0.32982 0.98614 0.0
H1046 H 0.38104 0.34195 0.76032 0.0
H1047 H 0.40604 0.33975 0.66784 0.0
C1048 C 0.57719 0.03189 0.67291 0.0
C1049 C 0.59563 0.04129 0.59859 0.0
C1050 C 0.64359 0.05631 0.69861 0.0
C1051 C 0.62787 0.04358 0.76794 0.0
N1052 N 0.58261 0.01491 0.81102 0.0
N1053 N 0.65188 0.05807 0.54136 0.0
C1054 C 0.5954 0.03013 0.75251 0.0
C1055 C 0.63034 0.05243 0.6112 0.0
N1056 N 0.5422 0.02485 0.66826 0.0
N1057 N 0.6705 0.07245 0.71561 0.0
H1058 H 0.64507 0.05423 0.47604 0.0
H1059 H 0.67812 0.06452 0.54958 0.0
H1060 H 0.67994 0.07658 0.77933 0.0
H1061 H 0.68057 0.08314 0.66744 0.0
H1062 H 0.52746 0.01927 0.72327 0.0
H1063 H 0.52756 0.02694 0.61263 0.0
H1064 H 0.56026 0.00381 0.79823 0.0
H1065 H 0.59641 0.01172 0.86642 0.0
C1066 C 0.65796 0.20034 0.65629 0.0
C1067 C 0.62981 0.20899 0.68775 0.0
C1068 C 0.61384 0.21527 0.53619 0.0
C1069 C 0.63983 0.20499 0.50466 0.0
N1070 N 0.68223 0.18414 0.53309 0.0
N1071 N 0.57571 0.21936 0.65707 0.0
C1072 C 0.66062 0.19642 0.56418 0.0
C1073 C 0.60606 0.21476 0.62738 0.0
N1074 N 0.68311 0.19681 0.71297 0.0
N1075 N 0.59769 0.22638 0.47981 0.0
H1076 H 0.56855 0.2184 0.72367 0.0
H1077 H 0.55609 0.22187 0.61467 0.0
H1078 H 0.60403 0.22809 0.41302 0.0
H1079 H 0.5809 0.23577 0.50123 0.0
H1080 H 0.70617 0.19297 0.69171 0.0
H1081 H 0.68222 0.19912 0.78094 0.0
H1082 H 0.695 0.17555 0.57433 0.0
H1083 H 0.68516 0.18119 0.4657 0.0
C1084 C 0.36405 0.9339 0.36675 0.0
C1085 C 0.34823 0.94845 0.4126 0.0
C1086 C 0.30892 0.94931 0.28666 0.0
C1087 C 0.3257 0.93544 0.23932 0.0
N1088 N 0.36433 0.91123 0.23891 0.0
N1089 N 0.30268 0.96785 0.42396 0.0
C1090 C 0.35147 0.92653 0.28122 0.0
C1091 C 0.31965 0.95544 0.37489 0.0
N1092 N 0.39248 0.92812 0.40294 0.0
N1093 N 0.28323 0.95694 0.2457 0.0
H1094 H 0.31102 0.97356 0.48662 0.0
H1095 H 0.27951 0.97183 0.40513 0.0
H1096 H 0.27284 0.95128 0.18441 0.0
H1097 H 0.2725 0.96899 0.27069 0.0
H1098 H 0.40806 0.91964 0.3691 0.0
H1099 H 0.40213 0.93294 0.46586 0.0
H1100 H 0.38003 0.90244 0.26946 0.0
H1101 H 0.35744 0.90606 0.17465 0.0
C1102 C 0.4183 0.79084 0.2602 0.0
C1103 C 0.4515 0.80387 0.2507 0.0
C1104 C 0.45482 0.8083 0.41198 0.0
C1105 C 0.4195 0.79815 0.41997 0.0
N1106 N 0.36525 0.78508 0.34391 0.0
N1107 N 0.49593 0.83017 0.31898 0.0
C1108 C 0.40043 0.79118 0.34154 0.0
C1109 C 0.46809 0.81427 0.3269 0.0
N1110 N 0.40458 0.77704 0.19486 0.0
N1111 N 0.4767 0.81103 0.4833 0.0
H1112 H 0.5051 0.83608 0.25793 0.0
H1113 H 0.50695 0.83906 0.37338 0.0
H1114 H 0.46951 0.80525 0.54559 0.0
H1115 H 0.5032 0.81687 0.47753 0.0
H1116 H 0.3815 0.76634 0.2027 0.0
H1117 H 0.41822 0.77423 0.1385 0.0
H1118 H 0.35025 0.78134 0.28669 0.0
H1119 H 0.35092 0.7862 0.40116 0.0
C1120 C 0.1117 0.6144 0.05364 0.0
C1121 C 0.09496 0.60341 0.12718 0.0
C1122 C 0.08761 0.63683 0.19159 0.0
C1123 C 0.1122 0.64719 0.13038 0.0
N1124 N 0.15162 0.64514 0.00984 0.0
N1125 N 0.05801 0.60454 0.2543 0.0
C1126 C 0.12532 0.63581 0.06313 0.0
C1127 C 0.08031 0.61475 0.19318 0.0
N1128 N 0.11211 0.60507 0.97237 0.0
N1129 N 0.06984 0.64808 0.24445 0.0
H1130 H 0.04489 0.58933 0.24462 0.0
H1131 H 0.05153 0.61136 0.31287 0.0
H1132 H 0.07339 0.66415 0.24176 0.0
H1133 H 0.04949 0.64162 0.28547 0.0
H1134 H 0.1226 0.61307 0.9165 0.0
H1135 H 0.09663 0.59072 0.95689 0.0
H1136 H 0.1638 0.63685 0.96475 0.0
H1137 H 0.16367 0.66063 0.01744 0.0
C1138 C 0.90094 0.39139 0.9194 0.0
C1139 C 0.87133 0.39439 0.87175 0.0
C1140 C 0.86205 0.35853 0.81797 0.0
C1141 C 0.89466 0.35661 0.85474 0.0
N1142 N 0.94896 0.37374 0.92092 0.0
N1143 N 0.82613 0.38171 0.76521 0.0
C1144 C 0.91523 0.37379 0.8999 0.0
C1145 C 0.85285 0.3783 0.81696 0.0
N1146 N 0.91521 0.4051 0.98436 0.0
N1147 N 0.8386 0.34144 0.7902 0.0
H1148 H 0.81718 0.39554 0.76722 0.0
H1149 H 0.81447 0.37127 0.7163 0.0
H1150 H 0.84248 0.32638 0.79596 0.0
H1151 H 0.81341 0.34199 0.77096 0.0
H1152 H 0.93501 0.40255 0.02609 0.0
H1153 H 0.90467 0.41774 0.00338 0.0
H1154 H 0.96579 0.38668 0.94704 0.0
H1155 H 0.96124 0.36175 0.90237 0.0
C1156 C 0.13972 0.11588 0.60336 0.0
C1157 C 0.10823 0.10411 0.6362 0.0
C1158 C 0.08629 0.13598 0.66135 0.0
C1159 C 0.11659 0.14743 0.62195 0.0
N1160 N 0.16949 0.14821 0.54116 0.0
N1161 N 0.04865 0.10249 0.67852 0.0
C1162 C 0.14237 0.13731 0.58795 0.0
C1163 C 0.08067 0.11402 0.66054 0.0
N1164 N 0.1678 0.10687 0.59186 0.0
N1165 N 0.0631 0.1461 0.70064 0.0
H1166 H 0.04299 0.08638 0.67564 0.0
H1167 H 0.02679 0.10888 0.68788 0.0
H1168 H 0.06555 0.16213 0.69882 0.0
H1169 H 0.04275 0.13876 0.73989 0.0
H1170 H 0.1924 0.11514 0.57669 0.0
H1171 H 0.16753 0.09144 0.60632 0.0
H1172 H 0.18698 0.14125 0.50631 0.0
H1173 H 0.17284 0.16408 0.53079 0.0
C1174 C 0.8889 0.88829 0.45252 0.0
C1175 C 0.88142 0.89693 0.37066 0.0
C1176 C 0.90477 0.86977 0.2938 0.0
C1177 C 0.90506 0.85896 0.37447 0.0
N1178 N 0.88609 0.85622 0.52785 0.0
N1179 N 0.87544 0.89218 0.21122 0.0
C1180 C 0.89399 0.86768 0.45336 0.0
C1181 C 0.88751 0.88668 0.29034 0.0
N1182 N 0.89274 0.89978 0.52925 0.0
N1183 N 0.92172 0.86439 0.22114 0.0
H1184 H 0.85996 0.90315 0.20621 0.0
H1185 H 0.87711 0.88395 0.1524 0.0
H1186 H 0.93699 0.85323 0.22342 0.0
H1187 H 0.92417 0.87283 0.1628 0.0
H1188 H 0.90052 0.89413 0.5886 0.0
H1189 H 0.893 0.9156 0.53123 0.0
H1190 H 0.87537 0.86195 0.58376 0.0
H1191 H 0.88576 0.84044 0.53026 0.0
C1192 C 0.6455 0.63911 0.67081 0.0
C1193 C 0.6186 0.64895 0.6416 0.0
C1194 C 0.5805 0.61504 0.61853 0.0
C1195 C 0.60635 0.60549 0.65572 0.0
N1196 N 0.66103 0.60838 0.73136 0.0
N1197 N 0.55865 0.64659 0.60105 0.0
C1198 C 0.63806 0.61754 0.68656 0.0
C1199 C 0.58556 0.637 0.61868 0.0
N1200 N 0.67865 0.65019 0.67884 0.0
N1201 N 0.55134 0.6031 0.58197 0.0
H1202 H 0.5612 0.66262 0.60161 0.0
H1203 H 0.53315 0.6387 0.59317 0.0
H1204 H 0.54608 0.58699 0.5843 0.0
H1205 H 0.53351 0.60906 0.54448 0.0
H1206 H 0.69988 0.64346 0.6914 0.0
H1207 H 0.68563 0.66584 0.6637 0.0
H1208 H 0.68285 0.61671 0.76396 0.0
H1209 H 0.65668 0.59252 0.74268 0.0
C1210 C 0.35562 0.37804 0.32987 0.0
C1211 C 0.3758 0.39495 0.37691 0.0
C1212 C 0.4197 0.37437 0.40699 0.0
C1213 C 0.39782 0.35673 0.36848 0.0
N1214 N 0.34041 0.34088 0.31485 0.0
N1215 N 0.42334 0.40792 0.4771 0.0
C1216 C 0.36455 0.35828 0.33524 0.0
C1217 C 0.40665 0.3927 0.42098 0.0
N1218 N 0.32771 0.38074 0.28085 0.0
N1219 N 0.45345 0.374 0.42648 0.0
H1220 H 0.41454 0.42154 0.48968 0.0
H1221 H 0.44394 0.40614 0.51768 0.0
H1222 H 0.46458 0.36123 0.41301 0.0
H1223 H 0.47137 0.38707 0.44681 0.0
H1224 H 0.31456 0.36951 0.23701 0.0
H1225 H 0.31927 0.39474 0.27919 0.0
H1226 H 0.31482 0.34121 0.29867 0.0
H1227 H 0.34445 0.32593 0.32396 0.0
C1228 C 0.64656 0.13814 0.1692 0.0
C1229 C 0.61966 0.14815 0.14144 0.0
C1230 C 0.58095 0.11439 0.11998 0.0
C1231 C 0.60685 0.10469 0.15578 0.0
N1232 N 0.66185 0.10731 0.22945 0.0
N1233 N 0.55938 0.14608 0.10482 0.0
C1234 C 0.63886 0.11659 0.18538 0.0
C1235 C 0.5863 0.13637 0.12036 0.0
N1236 N 0.67991 0.149 0.17531 0.0
N1237 N 0.55148 0.1026 0.08434 0.0
H1238 H 0.56204 0.16212 0.10613 0.0
H1239 H 0.53377 0.13828 0.09827 0.0
H1240 H 0.54606 0.08649 0.08643 0.0
H1241 H 0.53355 0.10869 0.04771 0.0
H1242 H 0.70102 0.14209 0.18685 0.0
H1243 H 0.6871 0.16459 0.15939 0.0
H1244 H 0.68398 0.11556 0.26107 0.0
H1245 H 0.65721 0.09146 0.24132 0.0
C1246 C 0.41868 0.87434 0.81711 0.0
C1247 C 0.40033 0.85846 0.87073 0.0
C1248 C 0.35829 0.87994 0.90742 0.0
C1249 C 0.37875 0.89678 0.86244 0.0
N1250 N 0.43364 0.91113 0.79317 0.0
N1251 N 0.35781 0.84815 0.98496 0.0
C1252 C 0.41034 0.89432 0.82173 0.0
C1253 C 0.37177 0.86189 0.92169 0.0
N1254 N 0.44441 0.87049 0.7628 0.0
N1255 N 0.32532 0.8807 0.93296 0.0
H1256 H 0.36754 0.83501 -0.00067 0.0
H1257 H 0.33906 0.85097 0.0295 0.0
H1258 H 0.31352 0.89308 0.91865 0.0
H1259 H 0.30834 0.86804 0.9589 0.0
H1260 H 0.45585 0.88077 0.7146 0.0
H1261 H 0.45265 0.85643 0.76189 0.0
H1262 H 0.45835 0.91029 0.77115 0.0
H1263 H 0.43018 0.92629 0.80062 0.0
loop_
_geom_bond_atom_site_label_1
_geom_bond_atom_site_label_2
_geom_bond_distance
_geom_bond_site_symmetry_2
_ccdc_geom_bond_type
Co0 O3 1.970 . S
Co0 N17 1.989 . S
Co0 O25 1.967 . S
Co0 O32 1.920 1_554 S
Co1 O4 1.966 . S
Co1 N10 2.022 . S
Co1 N18 1.993 . S
Co1 O26 1.941 . S
C2 O3 1.258 . S
C2 O4 1.263 . S
O3 Co0 1.970 . S
O3 C2 1.258 . S
O4 Co1 1.966 . S
O4 C2 1.263 . S
C5 O6 1.235 . S
C5 O32 1.289 . S
O6 C5 1.235 . S
C7 C9 1.400 . S
C7 N10 1.351 . S
C7 C12 1.501 . S
C8 C9 1.387 . S
C8 N11 1.341 . S
C9 C7 1.400 . S
C9 C8 1.387 . S
N10 Co1 2.022 . S
N10 C7 1.351 . S
N10 N11 1.365 . S
N11 C8 1.341 . S
N11 N10 1.365 . S
N11 H31 0.862 . S
C12 C7 1.501 . S
C12 H13 0.961 . S
C12 H14 0.961 . S
C12 H15 0.960 . S
H13 C12 0.961 . S
H14 C12 0.961 . S
H15 C12 0.960 . S
C16 N17 1.342 . S
C16 C20 1.401 . S
C16 C21 1.499 . S
N17 Co0 1.989 . S
N17 C16 1.342 . S
N17 N18 1.388 . S
N18 Co1 1.993 . S
N18 N17 1.388 . S
N18 C19 1.346 . S
C19 N18 1.346 . S
C19 C20 1.396 . S
C19 C29 1.510 . S
C20 C16 1.401 . S
C20 C19 1.396 . S
C21 C16 1.499 . S
C21 H22 0.959 1_554 S
C21 H23 0.960 . S
C21 H24 0.961 . S
H22 C21 0.959 1_556 S
H23 C21 0.960 . S
H24 C21 0.961 . S
O25 Co0 1.967 . S
O25 C33 1.258 . S
O26 Co1 1.941 . S
O26 C33 1.266 . S
H27 C29 0.959 . S
H28 C29 0.961 . S
C29 C19 1.510 . S
C29 H27 0.959 . S
C29 H28 0.961 . S
C29 H30 0.960 . S
H30 C29 0.960 . S
H31 N11 0.862 . S
O32 Co0 1.920 1_556 S
O32 C5 1.289 . S
C33 O25 1.258 . S
C33 O26 1.266 . S
Co34 O37 1.970 . S
Co34 N51 1.989 . S
Co34 O59 1.967 . S
Co34 O66 1.920 . S
Co35 O38 1.966 . S
Co35 N44 2.022 1_554 S
Co35 N52 1.993 . S
Co35 O60 1.941 . S
C36 O37 1.258 . S
C36 O38 1.263 . S
O37 Co34 1.970 . S
O37 C36 1.258 . S
O38 Co35 1.966 . S
O38 C36 1.263 . S
C39 O40 1.235 . S
C39 O66 1.289 . S
O40 C39 1.235 . S
C41 C43 1.400 . S
C41 N44 1.351 . S
C41 C46 1.501 . S
C42 C43 1.387 . S
C42 N45 1.341 . S
C43 C41 1.400 . S
C43 C42 1.387 . S
N44 Co35 2.022 1_556 S
N44 C41 1.351 . S
N44 N45 1.365 . S
N45 C42 1.341 . S
N45 N44 1.365 . S
N45 H65 0.862 . S
C46 C41 1.501 . S
C46 H47 0.961 . S
C46 H48 0.961 . S
C46 H49 0.960 . S
H47 C46 0.961 . S
H48 C46 0.961 . S
H49 C46 0.960 . S
C50 N51 1.342 . S
C50 C54 1.401 . S
C50 C55 1.499 . S
N51 Co34 1.989 . S
N51 C50 1.342 . S
N51 N52 1.388 . S
N52 Co35 1.993 . S
N52 N51 1.388 . S
N52 C53 1.346 . S
C53 N52 1.346 . S
C53 C54 1.396 . S
C53 C63 1.510 1_554 S
C54 C50 1.401 . S
C54 C53 1.396 . S
C55 C50 1.499 . S
C55 H56 0.959 . S
C55 H57 0.960 . S
C55 H58 0.961 . S
H56 C55 0.959 . S
H57 C55 0.960 . S
H58 C55 0.961 . S
O59 Co34 1.967 . S
O59 C67 1.258 . S
O60 Co35 1.941 . S
O60 C67 1.266 . S
H61 C63 0.959 . S
H62 C63 0.961 . S
C63 C53 1.510 1_556 S
C63 H61 0.959 . S
C63 H62 0.961 . S
C63 H64 0.960 . S
H64 C63 0.960 . S
H65 N45 0.862 . S
O66 Co34 1.920 . S
O66 C39 1.289 . S
C67 O59 1.258 . S
C67 O60 1.266 . S
Co68 O71 1.970 . S
Co68 N85 1.989 . S
Co68 O93 1.967 . S
Co68 O100 1.920 1_556 S
Co69 O72 1.966 . S
Co69 N78 2.022 . S
Co69 N86 1.993 . S
Co69 O94 1.941 . S
C70 O71 1.258 . S
C70 O72 1.263 . S
O71 Co68 1.970 . S
O71 C70 1.258 . S
O72 Co69 1.966 . S
O72 C70 1.263 . S
C73 O74 1.235 . S
C73 O100 1.289 . S
O74 C73 1.235 . S
C75 C77 1.400 . S
C75 N78 1.351 . S
C75 C80 1.501 . S
C76 C77 1.387 . S
C76 N79 1.341 . S
C77 C75 1.400 . S
C77 C76 1.387 . S
N78 Co69 2.022 . S
N78 C75 1.351 . S
N78 N79 1.365 . S
N79 C76 1.341 . S
N79 N78 1.365 . S
N79 H99 0.862 . S
C80 C75 1.501 . S
C80 H81 0.961 . S
C80 H82 0.961 . S
C80 H83 0.960 . S
H81 C80 0.961 . S
H82 C80 0.961 . S
H83 C80 0.960 . S
C84 N85 1.342 . S
C84 C88 1.401 . S
C84 C89 1.499 1_556 S
N85 Co68 1.989 . S
N85 C84 1.342 . S
N85 N86 1.388 . S
N86 Co69 1.993 . S
N86 N85 1.388 . S
N86 C87 1.346 . S
C87 N86 1.346 . S
C87 C88 1.396 . S
C87 C97 1.510 . S
C88 C84 1.401 . S
C88 C87 1.396 . S
C89 C84 1.499 1_554 S
C89 H90 0.959 . S
C89 H91 0.960 . S
C89 H92 0.961 . S
H90 C89 0.959 . S
H91 C89 0.960 . S
H92 C89 0.961 . S
O93 Co68 1.967 . S
O93 C101 1.258 . S
O94 Co69 1.941 . S
O94 C101 1.266 . S
H95 C97 0.959 . S
H96 C97 0.961 . S
C97 C87 1.510 . S
C97 H95 0.959 . S
C97 H96 0.961 . S
C97 H98 0.960 . S
H98 C97 0.960 . S
H99 N79 0.862 . S
O100 Co68 1.920 1_554 S
O100 C73 1.289 . S
C101 O93 1.258 . S
C101 O94 1.266 . S
Co102 O105 1.970 . S
Co102 N119 1.989 . S
Co102 O127 1.967 . S
Co102 O134 1.920 1_556 S
Co103 O106 1.966 . S
Co103 N112 2.022 . S
Co103 N120 1.993 . S
Co103 O128 1.941 . S
C104 O105 1.258 . S
C104 O106 1.263 . S
O105 Co102 1.970 . S
O105 C104 1.258 . S
O106 Co103 1.966 . S
O106 C104 1.263 . S
C107 O108 1.235 . S
C107 O134 1.289 . S
O108 C107 1.235 . S
C109 C111 1.400 . S
C109 N112 1.351 . S
C109 C114 1.501 . S
C110 C111 1.387 . S
C110 N113 1.341 . S
C111 C109 1.400 . S
C111 C110 1.387 . S
N112 Co103 2.022 . S
N112 C109 1.351 . S
N112 N113 1.365 . S
N113 C110 1.341 . S
N113 N112 1.365 . S
N113 H133 0.862 . S
C114 C109 1.501 . S
C114 H115 0.961 . S
C114 H116 0.961 . S
C114 H117 0.960 . S
H115 C114 0.961 . S
H116 C114 0.961 . S
H117 C114 0.960 . S
C118 N119 1.342 . S
C118 C122 1.402 1_655 S
C118 C123 1.499 1_556 S
N119 Co102 1.989 . S
N119 C118 1.342 . S
N119 N120 1.388 . S
N120 Co103 1.993 . S
N120 N119 1.388 . S
N120 C121 1.346 . S
C121 N120 1.346 . S
C121 C122 1.397 1_655 S
C121 C131 1.510 . S
C122 C118 1.402 1_455 S
C122 C121 1.397 1_455 S
C123 C118 1.499 1_554 S
C123 H124 0.959 . S
C123 H125 0.960 1_655 S
C123 H126 0.961 . S
H124 C123 0.959 . S
H125 C123 0.960 1_455 S
H126 C123 0.961 . S
O127 Co102 1.967 . S
O127 C135 1.258 . S
O128 Co103 1.941 . S
O128 C135 1.266 . S
H129 C131 0.959 . S
H130 C131 0.961 1_455 S
C131 C121 1.510 . S
C131 H129 0.959 . S
C131 H130 0.961 1_655 S
C131 H132 0.960 . S
H132 C131 0.960 . S
H133 N113 0.862 . S
O134 Co102 1.920 1_554 S
O134 C107 1.289 . S
C135 O127 1.258 . S
C135 O128 1.266 . S
Co136 O139 1.970 . S
Co136 N153 1.989 . S
Co136 O161 1.967 . S
Co136 O168 1.920 . S
Co137 O140 1.966 . S
Co137 N146 2.022 . S
Co137 N154 1.993 . S
Co137 O162 1.941 . S
C138 O139 1.258 . S
C138 O140 1.263 . S
O139 Co136 1.970 . S
O139 C138 1.258 . S
O140 Co137 1.966 . S
O140 C138 1.263 . S
C141 O142 1.235 . S
C141 O168 1.289 . S
O142 C141 1.235 . S
C143 C145 1.400 1_556 S
C143 N146 1.351 . S
C143 C148 1.501 . S
C144 C145 1.387 . S
C144 N147 1.341 1_554 S
C145 C143 1.400 1_554 S
C145 C144 1.387 . S
N146 Co137 2.022 . S
N146 C143 1.351 . S
N146 N147 1.365 . S
N147 C144 1.341 1_556 S
N147 N146 1.365 . S
N147 H167 0.862 . S
C148 C143 1.501 . S
C148 H149 0.961 . S
C148 H150 0.961 . S
C148 H151 0.960 . S
H149 C148 0.961 . S
H150 C148 0.961 . S
H151 C148 0.960 . S
C152 N153 1.342 . S
C152 C156 1.401 . S
C152 C157 1.499 . S
N153 Co136 1.989 . S
N153 C152 1.342 . S
N153 N154 1.388 . S
N154 Co137 1.993 . S
N154 N153 1.388 . S
N154 C155 1.346 . S
C155 N154 1.346 . S
C155 C156 1.396 . S
C155 C165 1.510 . S
C156 C152 1.401 . S
C156 C155 1.396 . S
C157 C152 1.499 . S
C157 H158 0.959 . S
C157 H159 0.960 . S
C157 H160 0.961 1_545 S
H158 C157 0.959 . S
H159 C157 0.960 . S
H160 C157 0.961 1_565 S
O161 Co136 1.967 . S
O161 C169 1.258 . S
O162 Co137 1.941 . S
O162 C169 1.266 . S
H163 C165 0.959 . S
H164 C165 0.961 . S
C165 C155 1.510 . S
C165 H163 0.959 . S
C165 H164 0.961 . S
C165 H166 0.960 . S
H166 C165 0.960 . S
H167 N147 0.862 . S
O168 Co136 1.920 . S
O168 C141 1.289 . S
C169 O161 1.258 . S
C169 O162 1.266 . S
Co170 O173 1.970 . S
Co170 N187 1.989 . S
Co170 O195 1.967 . S
Co170 O202 1.920 . S
Co171 O174 1.966 . S
Co171 N180 2.022 . S
Co171 N188 1.993 . S
Co171 O196 1.941 . S
C172 O173 1.258 . S
C172 O174 1.263 . S
O173 Co170 1.970 . S
O173 C172 1.258 . S
O174 Co171 1.966 . S
O174 C172 1.263 . S
C175 O176 1.235 . S
C175 O202 1.289 . S
O176 C175 1.235 . S
C177 C179 1.400 . S
C177 N180 1.351 . S
C177 C182 1.501 . S
C178 C179 1.387 . S
C178 N181 1.341 . S
C179 C177 1.400 . S
C179 C178 1.387 . S
N180 Co171 2.022 . S
N180 C177 1.351 . S
N180 N181 1.365 . S
N181 C178 1.341 . S
N181 N180 1.365 . S
N181 H201 0.862 . S
C182 C177 1.501 . S
C182 H183 0.961 . S
C182 H184 0.961 . S
C182 H185 0.960 . S
H183 C182 0.961 . S
H184 C182 0.961 . S
H185 C182 0.960 . S
C186 N187 1.342 . S
C186 C190 1.401 . S
C186 C191 1.499 . S
N187 Co170 1.989 . S
N187 C186 1.342 . S
N187 N188 1.388 . S
N188 Co171 1.993 . S
N188 N187 1.388 . S
N188 C189 1.346 . S
C189 N188 1.346 . S
C189 C190 1.396 . S
C189 C199 1.510 . S
C190 C186 1.401 . S
C190 C189 1.396 . S
C191 C186 1.499 . S
C191 H192 0.959 . S
C191 H193 0.960 . S
C191 H194 0.961 . S
H192 C191 0.959 . S
H193 C191 0.960 . S
H194 C191 0.961 . S
O195 Co170 1.967 . S
O195 C203 1.258 . S
O196 Co171 1.941 . S
O196 C203 1.266 . S
H197 C199 0.959 . S
H198 C199 0.961 . S
C199 C189 1.510 . S
C199 H197 0.959 . S
C199 H198 0.961 . S
C199 H200 0.960 . S
H200 C199 0.960 . S
H201 N181 0.862 . S
O202 Co170 1.920 . S
O202 C175 1.289 . S
C203 O195 1.258 . S
C203 O196 1.266 . S
Co204 O207 1.970 . S
Co204 N221 1.989 . S
Co204 O229 1.967 . S
Co204 O236 1.920 . S
Co205 O208 1.966 . S
Co205 N214 2.022 . S
Co205 N222 1.993 . S
Co205 O230 1.941 . S
C206 O207 1.258 . S
C206 O208 1.263 . S
O207 Co204 1.970 . S
O207 C206 1.258 . S
O208 Co205 1.966 . S
O208 C206 1.263 . S
C209 O210 1.235 . S
C209 O236 1.289 . S
O210 C209 1.235 . S
C211 C213 1.400 . S
C211 N214 1.351 . S
C211 C216 1.501 . S
C212 C213 1.387 . S
C212 N215 1.341 . S
C213 C211 1.400 . S
C213 C212 1.387 . S
N214 Co205 2.022 . S
N214 C211 1.351 . S
N214 N215 1.365 . S
N215 C212 1.341 . S
N215 N214 1.365 . S
N215 H235 0.862 . S
C216 C211 1.501 . S
C216 H217 0.961 . S
C216 H218 0.961 . S
C216 H219 0.960 . S
H217 C216 0.961 . S
H218 C216 0.961 . S
H219 C216 0.960 . S
C220 N221 1.342 . S
C220 C224 1.401 . S
C220 C225 1.499 . S
N221 Co204 1.989 . S
N221 C220 1.342 . S
N221 N222 1.388 . S
N222 Co205 1.993 . S
N222 N221 1.388 . S
N222 C223 1.346 . S
C223 N222 1.346 . S
C223 C224 1.396 . S
C223 C233 1.510 . S
C224 C220 1.401 . S
C224 C223 1.396 . S
C225 C220 1.499 . S
C225 H226 0.959 . S
C225 H227 0.960 . S
C225 H228 0.961 . S
H226 C225 0.959 . S
H227 C225 0.960 . S
H228 C225 0.961 . S
O229 Co204 1.967 . S
O229 C237 1.258 . S
O230 Co205 1.941 . S
O230 C237 1.266 . S
H231 C233 0.959 . S
H232 C233 0.961 . S
C233 C223 1.510 . S
C233 H231 0.959 . S
C233 H232 0.961 . S
C233 H234 0.960 . S
H234 C233 0.960 . S
H235 N215 0.862 . S
O236 Co204 1.920 . S
O236 C209 1.289 . S
C237 O229 1.258 . S
C237 O230 1.266 . S
Co238 O241 1.970 . S
Co238 N255 1.989 . S
Co238 O263 1.967 . S
Co238 O270 1.920 . S
Co239 O242 1.966 . S
Co239 N248 2.022 . S
Co239 N256 1.993 . S
Co239 O264 1.941 . S
C240 O241 1.258 . S
C240 O242 1.263 . S
O241 Co238 1.970 . S
O241 C240 1.258 . S
O242 Co239 1.966 . S
O242 C240 1.263 . S
C243 O244 1.235 . S
C243 O270 1.289 . S
O244 C243 1.235 . S
C245 C247 1.400 1_554 S
C245 N248 1.351 . S
C245 C250 1.501 . S
C246 C247 1.387 1_554 S
C246 N249 1.341 . S
C247 C245 1.400 1_556 S
C247 C246 1.387 1_556 S
N248 Co239 2.022 . S
N248 C245 1.351 . S
N248 N249 1.365 . S
N249 C246 1.341 . S
N249 N248 1.365 . S
N249 H269 0.862 . S
C250 C245 1.501 . S
C250 H251 0.961 . S
C250 H252 0.961 . S
C250 H253 0.960 . S
H251 C250 0.961 . S
H252 C250 0.961 . S
H253 C250 0.960 . S
C254 N255 1.342 . S
C254 C258 1.402 1_655 S
C254 C259 1.499 . S
N255 Co238 1.989 . S
N255 C254 1.342 . S
N255 N256 1.388 . S
N256 Co239 1.993 . S
N256 N255 1.388 . S
N256 C257 1.346 . S
C257 N256 1.346 . S
C257 C258 1.397 1_655 S
C257 C267 1.510 . S
C258 C254 1.402 1_455 S
C258 C257 1.397 1_455 S
C259 C254 1.499 . S
C259 H260 0.959 . S
C259 H261 0.960 1_655 S
C259 H262 0.961 . S
H260 C259 0.959 . S
H261 C259 0.960 1_455 S
H262 C259 0.961 . S
O263 Co238 1.967 . S
O263 C271 1.258 . S
O264 Co239 1.941 . S
O264 C271 1.266 . S
H265 C267 0.959 . S
H266 C267 0.961 1_455 S
C267 C257 1.510 . S
C267 H265 0.959 . S
C267 H266 0.961 1_655 S
C267 H268 0.960 . S
H268 C267 0.960 . S
H269 N249 0.862 . S
O270 Co238 1.920 . S
O270 C243 1.289 . S
C271 O263 1.258 . S
C271 O264 1.266 . S
Co272 O275 1.970 . S
Co272 N289 1.989 . S
Co272 O297 1.967 . S
Co272 O304 1.920 . S
Co273 O276 1.966 . S
Co273 N282 2.022 . S
Co273 N290 1.993 . S
Co273 O298 1.941 . S
C274 O275 1.258 . S
C274 O276 1.263 . S
O275 Co272 1.970 . S
O275 C274 1.258 . S
O276 Co273 1.966 . S
O276 C274 1.263 . S
C277 O278 1.235 . S
C277 O304 1.289 . S
O278 C277 1.235 . S
C279 C281 1.400 1_556 S
C279 N282 1.351 . S
C279 C284 1.501 . S
C280 C281 1.387 . S
C280 N283 1.341 1_554 S
C281 C279 1.400 1_554 S
C281 C280 1.387 . S
N282 Co273 2.022 . S
N282 C279 1.351 . S
N282 N283 1.365 . S
N283 C280 1.341 1_556 S
N283 N282 1.365 . S
N283 H303 0.862 . S
C284 C279 1.501 . S
C284 H285 0.961 . S
C284 H286 0.961 . S
C284 H287 0.960 . S
H285 C284 0.961 . S
H286 C284 0.961 . S
H287 C284 0.960 . S
C288 N289 1.342 . S
C288 C292 1.401 . S
C288 C293 1.499 . S
N289 Co272 1.989 . S
N289 C288 1.342 . S
N289 N290 1.388 . S
N290 Co273 1.993 . S
N290 N289 1.388 . S
N290 C291 1.346 . S
C291 N290 1.346 . S
C291 C292 1.396 . S
C291 C301 1.510 . S
C292 C288 1.401 . S
C292 C291 1.396 . S
C293 C288 1.499 . S
C293 H294 0.959 . S
C293 H295 0.960 . S
C293 H296 0.961 . S
H294 C293 0.959 . S
H295 C293 0.960 . S
H296 C293 0.961 . S
O297 Co272 1.967 . S
O297 C305 1.258 . S
O298 Co273 1.941 . S
O298 C305 1.266 . S
H299 C301 0.959 . S
H300 C301 0.961 . S
C301 C291 1.510 . S
C301 H299 0.959 . S
C301 H300 0.961 . S
C301 H302 0.960 . S
H302 C301 0.960 . S
H303 N283 0.862 . S
O304 Co272 1.920 . S
O304 C277 1.289 . S
C305 O297 1.258 . S
C305 O298 1.266 . S
Co306 O309 1.970 . S
Co306 N323 1.989 . S
Co306 O331 1.967 . S
Co306 O338 1.920 . S
Co307 O310 1.966 . S
Co307 N316 2.022 . S
Co307 N324 1.993 . S
Co307 O332 1.941 . S
C308 O309 1.258 . S
C308 O310 1.263 . S
O309 Co306 1.970 . S
O309 C308 1.258 . S
O310 Co307 1.966 . S
O310 C308 1.263 . S
C311 O312 1.235 . S
C311 O338 1.289 . S
O312 C311 1.235 . S
C313 C315 1.400 . S
C313 N316 1.351 . S
C313 C318 1.501 . S
C314 C315 1.387 . S
C314 N317 1.341 . S
C315 C313 1.400 . S
C315 C314 1.387 . S
N316 Co307 2.022 . S
N316 C313 1.351 . S
N316 N317 1.365 . S
N317 C314 1.341 . S
N317 N316 1.365 . S
N317 H337 0.862 . S
C318 C313 1.501 . S
C318 H319 0.961 . S
C318 H320 0.961 . S
C318 H321 0.960 . S
H319 C318 0.961 . S
H320 C318 0.961 . S
H321 C318 0.960 . S
C322 N323 1.342 . S
C322 C326 1.401 . S
C322 C327 1.499 . S
N323 Co306 1.989 . S
N323 C322 1.342 . S
N323 N324 1.388 . S
N324 Co307 1.993 . S
N324 N323 1.388 . S
N324 C325 1.346 . S
C325 N324 1.346 . S
C325 C326 1.396 . S
C325 C335 1.510 . S
C326 C322 1.401 . S
C326 C325 1.396 . S
C327 C322 1.499 . S
C327 H328 0.959 . S
C327 H329 0.960 . S
C327 H330 0.961 . S
H328 C327 0.959 . S
H329 C327 0.960 . S
H330 C327 0.961 . S
O331 Co306 1.967 . S
O331 C339 1.258 . S
O332 Co307 1.941 . S
O332 C339 1.266 . S
H333 C335 0.959 . S
H334 C335 0.961 . S
C335 C325 1.510 . S
C335 H333 0.959 . S
C335 H334 0.961 . S
C335 H336 0.960 . S
H336 C335 0.960 . S
H337 N317 0.862 . S
O338 Co306 1.920 . S
O338 C311 1.289 . S
C339 O331 1.258 . S
C339 O332 1.266 . S
Co340 O343 1.970 . S
Co340 N357 1.989 . S
Co340 O365 1.967 . S
Co340 O372 1.920 . S
Co341 O344 1.966 . S
Co341 N350 2.022 . S
Co341 N358 1.993 . S
Co341 O366 1.941 . S
C342 O343 1.258 . S
C342 O344 1.263 . S
O343 Co340 1.970 . S
O343 C342 1.258 . S
O344 Co341 1.966 . S
O344 C342 1.263 . S
C345 O346 1.235 . S
C345 O372 1.289 . S
O346 C345 1.235 . S
C347 C349 1.400 . S
C347 N350 1.351 . S
C347 C352 1.501 . S
C348 C349 1.387 . S
C348 N351 1.341 . S
C349 C347 1.400 . S
C349 C348 1.387 . S
N350 Co341 2.022 . S
N350 C347 1.351 . S
N350 N351 1.365 . S
N351 C348 1.341 . S
N351 N350 1.365 . S
N351 H371 0.862 . S
C352 C347 1.501 . S
C352 H353 0.961 . S
C352 H354 0.961 . S
C352 H355 0.960 . S
H353 C352 0.961 . S
H354 C352 0.961 . S
H355 C352 0.960 . S
C356 N357 1.342 . S
C356 C360 1.401 . S
C356 C361 1.499 . S
N357 Co340 1.989 . S
N357 C356 1.342 . S
N357 N358 1.388 . S
N358 Co341 1.993 . S
N358 N357 1.388 . S
N358 C359 1.346 . S
C359 N358 1.346 . S
C359 C360 1.396 . S
C359 C369 1.510 . S
C360 C356 1.401 . S
C360 C359 1.396 . S
C361 C356 1.499 . S
C361 H362 0.959 . S
C361 H363 0.960 . S
C361 H364 0.961 . S
H362 C361 0.959 . S
H363 C361 0.960 . S
H364 C361 0.961 . S
O365 Co340 1.967 . S
O365 C373 1.258 . S
O366 Co341 1.941 . S
O366 C373 1.266 . S
H367 C369 0.959 . S
H368 C369 0.961 . S
C369 C359 1.510 . S
C369 H367 0.959 . S
C369 H368 0.961 . S
C369 H370 0.960 . S
H370 C369 0.960 . S
H371 N351 0.862 . S
O372 Co340 1.920 . S
O372 C345 1.289 . S
C373 O365 1.258 . S
C373 O366 1.266 . S
Co374 O377 1.970 . S
Co374 N391 1.989 . S
Co374 O399 1.967 . S
Co374 O406 1.920 . S
Co375 O378 1.966 . S
Co375 N384 2.022 . S
Co375 N392 1.993 . S
Co375 O400 1.941 . S
C376 O377 1.258 . S
C376 O378 1.263 . S
O377 Co374 1.970 . S
O377 C376 1.258 . S
O378 Co375 1.966 . S
O378 C376 1.263 . S
C379 O380 1.235 . S
C379 O406 1.289 . S
O380 C379 1.235 . S
C381 C383 1.400 1_554 S
C381 N384 1.351 . S
C381 C386 1.501 . S
C382 C383 1.387 1_554 S
C382 N385 1.341 . S
C383 C381 1.400 1_556 S
C383 C382 1.387 1_556 S
N384 Co375 2.022 . S
N384 C381 1.351 . S
N384 N385 1.365 . S
N385 C382 1.341 . S
N385 N384 1.365 . S
N385 H405 0.862 . S
C386 C381 1.501 . S
C386 H387 0.961 . S
C386 H388 0.961 . S
C386 H389 0.960 . S
H387 C386 0.961 . S
H388 C386 0.961 . S
H389 C386 0.960 . S
C390 N391 1.342 . S
C390 C394 1.401 . S
C390 C395 1.499 . S
N391 Co374 1.989 . S
N391 C390 1.342 . S
N391 N392 1.388 . S
N392 Co375 1.993 . S
N392 N391 1.388 . S
N392 C393 1.346 . S
C393 N392 1.346 . S
C393 C394 1.396 . S
C393 C403 1.510 . S
C394 C390 1.401 . S
C394 C393 1.396 . S
C395 C390 1.499 . S
C395 H396 0.959 . S
C395 H397 0.960 . S
C395 H398 0.961 . S
H396 C395 0.959 . S
H397 C395 0.960 . S
H398 C395 0.961 . S
O399 Co374 1.967 . S
O399 C407 1.258 . S
O400 Co375 1.941 . S
O400 C407 1.266 . S
H401 C403 0.959 . S
H402 C403 0.961 . S
C403 C393 1.510 . S
C403 H401 0.959 . S
C403 H402 0.961 . S
C403 H404 0.960 . S
H404 C403 0.960 . S
H405 N385 0.862 . S
O406 Co374 1.920 . S
O406 C379 1.289 . S
C407 O399 1.258 . S
C407 O400 1.266 . S
Co408 O411 1.970 . S
Co408 N425 1.989 . S
Co408 O433 1.967 . S
Co408 O440 1.920 1_554 S
Co409 O412 1.966 . S
Co409 N418 2.022 . S
Co409 N426 1.993 . S
Co409 O434 1.941 . S
C410 O411 1.258 . S
C410 O412 1.263 . S
O411 Co408 1.970 . S
O411 C410 1.258 . S
O412 Co409 1.966 . S
O412 C410 1.263 . S
C413 O414 1.235 . S
C413 O440 1.289 . S
O414 C413 1.235 . S
C415 C417 1.400 . S
C415 N418 1.351 . S
C415 C420 1.501 . S
C416 C417 1.387 . S
C416 N419 1.341 . S
C417 C415 1.400 . S
C417 C416 1.387 . S
N418 Co409 2.022 . S
N418 C415 1.351 . S
N418 N419 1.365 . S
N419 C416 1.341 . S
N419 N418 1.365 . S
N419 H439 0.862 . S
C420 C415 1.501 . S
C420 H421 0.961 . S
C420 H422 0.961 . S
C420 H423 0.960 . S
H421 C420 0.961 . S
H422 C420 0.961 . S
H423 C420 0.960 . S
C424 N425 1.342 . S
C424 C428 1.401 . S
C424 C429 1.499 . S
N425 Co408 1.989 . S
N425 C424 1.342 . S
N425 N426 1.388 . S
N426 Co409 1.993 . S
N426 N425 1.388 . S
N426 C427 1.346 . S
C427 N426 1.346 . S
C427 C428 1.396 . S
C427 C437 1.510 . S
C428 C424 1.401 . S
C428 C427 1.396 . S
C429 C424 1.499 . S
C429 H430 0.959 1_554 S
C429 H431 0.960 . S
C429 H432 0.961 1_545 S
H430 C429 0.959 1_556 S
H431 C429 0.960 . S
H432 C429 0.961 1_565 S
O433 Co408 1.967 . S
O433 C441 1.258 . S
O434 Co409 1.941 . S
O434 C441 1.266 . S
H435 C437 0.959 . S
H436 C437 0.961 . S
C437 C427 1.510 . S
C437 H435 0.959 . S
C437 H436 0.961 . S
C437 H438 0.960 . S
H438 C437 0.960 . S
H439 N419 0.862 . S
O440 Co408 1.920 1_556 S
O440 C413 1.289 . S
C441 O433 1.258 . S
C441 O434 1.266 . S
Co442 O445 1.970 . S
Co442 N459 1.989 . S
Co442 O467 1.967 . S
Co442 O474 1.920 . S
Co443 O446 1.966 . S
Co443 N452 2.022 1_554 S
Co443 N460 1.993 . S
Co443 O468 1.941 . S
C444 O445 1.258 . S
C444 O446 1.263 . S
O445 Co442 1.970 . S
O445 C444 1.258 . S
O446 Co443 1.966 . S
O446 C444 1.263 . S
C447 O448 1.235 . S
C447 O474 1.289 . S
O448 C447 1.235 . S
C449 C451 1.400 . S
C449 N452 1.351 . S
C449 C454 1.501 . S
C450 C451 1.387 . S
C450 N453 1.341 . S
C451 C449 1.400 . S
C451 C450 1.387 . S
N452 Co443 2.022 1_556 S
N452 C449 1.351 . S
N452 N453 1.365 . S
N453 C450 1.341 . S
N453 N452 1.365 . S
N453 H473 0.862 . S
C454 C449 1.501 . S
C454 H455 0.961 . S
C454 H456 0.961 . S
C454 H457 0.960 . S
H455 C454 0.961 . S
H456 C454 0.961 . S
H457 C454 0.960 . S
C458 N459 1.342 . S
C458 C462 1.401 . S
C458 C463 1.499 . S
N459 Co442 1.989 . S
N459 C458 1.342 . S
N459 N460 1.388 . S
N460 Co443 1.993 . S
N460 N459 1.388 . S
N460 C461 1.346 . S
C461 N460 1.346 . S
C461 C462 1.396 . S
C461 C471 1.510 1_554 S
C462 C458 1.401 . S
C462 C461 1.396 . S
C463 C458 1.499 . S
C463 H464 0.959 . S
C463 H465 0.960 . S
C463 H466 0.961 . S
H464 C463 0.959 . S
H465 C463 0.960 . S
H466 C463 0.961 . S
O467 Co442 1.967 . S
O467 C475 1.258 . S
O468 Co443 1.941 . S
O468 C475 1.266 . S
H469 C471 0.959 . S
H470 C471 0.961 . S
C471 C461 1.510 1_556 S
C471 H469 0.959 . S
C471 H470 0.961 . S
C471 H472 0.960 . S
H472 C471 0.960 . S
H473 N453 0.862 . S
O474 Co442 1.920 . S
O474 C447 1.289 . S
C475 O467 1.258 . S
C475 O468 1.266 . S
Co476 O479 1.970 . S
Co476 N493 1.989 . S
Co476 O501 1.967 . S
Co476 O508 1.920 1_556 S
Co477 O480 1.966 . S
Co477 N486 2.022 . S
Co477 N494 1.993 . S
Co477 O502 1.941 . S
C478 O479 1.258 . S
C478 O480 1.263 . S
O479 Co476 1.970 . S
O479 C478 1.258 . S
O480 Co477 1.966 . S
O480 C478 1.263 . S
C481 O482 1.235 . S
C481 O508 1.289 . S
O482 C481 1.235 . S
C483 C485 1.400 . S
C483 N486 1.351 . S
C483 C488 1.501 . S
C484 C485 1.387 . S
C484 N487 1.341 . S
C485 C483 1.400 . S
C485 C484 1.387 . S
N486 Co477 2.022 . S
N486 C483 1.351 . S
N486 N487 1.365 . S
N487 C484 1.341 . S
N487 N486 1.365 . S
N487 H507 0.862 . S
C488 C483 1.501 . S
C488 H489 0.961 . S
C488 H490 0.961 . S
C488 H491 0.960 . S
H489 C488 0.961 . S
H490 C488 0.961 . S
H491 C488 0.960 . S
C492 N493 1.342 . S
C492 C496 1.401 . S
C492 C497 1.499 1_556 S
N493 Co476 1.989 . S
N493 C492 1.342 . S
N493 N494 1.388 . S
N494 Co477 1.993 . S
N494 N493 1.388 . S
N494 C495 1.346 . S
C495 N494 1.346 . S
C495 C496 1.396 . S
C495 C505 1.510 . S
C496 C492 1.401 . S
C496 C495 1.396 . S
C497 C492 1.499 1_554 S
C497 H498 0.959 . S
C497 H499 0.960 . S
C497 H500 0.961 . S
H498 C497 0.959 . S
H499 C497 0.960 . S
H500 C497 0.961 . S
O501 Co476 1.967 . S
O501 C509 1.258 . S
O502 Co477 1.941 . S
O502 C509 1.266 . S
H503 C505 0.959 . S
H504 C505 0.961 . S
C505 C495 1.510 . S
C505 H503 0.959 . S
C505 H504 0.961 . S
C505 H506 0.960 . S
H506 C505 0.960 . S
H507 N487 0.862 . S
O508 Co476 1.920 1_554 S
O508 C481 1.289 . S
C509 O501 1.258 . S
C509 O502 1.266 . S
Co510 O513 1.970 . S
Co510 N527 1.989 . S
Co510 O535 1.967 . S
Co510 O542 1.920 1_556 S
Co511 O514 1.966 . S
Co511 N520 2.022 . S
Co511 N528 1.993 . S
Co511 O536 1.941 . S
C512 O513 1.258 . S
C512 O514 1.263 . S
O513 Co510 1.970 . S
O513 C512 1.258 . S
O514 Co511 1.966 . S
O514 C512 1.263 . S
C515 O516 1.235 . S
C515 O542 1.289 . S
O516 C515 1.235 . S
C517 C519 1.400 . S
C517 N520 1.351 . S
C517 C522 1.501 . S
C518 C519 1.387 . S
C518 N521 1.341 . S
C519 C517 1.400 . S
C519 C518 1.387 . S
N520 Co511 2.022 . S
N520 C517 1.351 . S
N520 N521 1.365 . S
N521 C518 1.341 . S
N521 N520 1.365 . S
N521 H541 0.862 . S
C522 C517 1.501 . S
C522 H523 0.961 . S
C522 H524 0.961 . S
C522 H525 0.960 . S
H523 C522 0.961 . S
H524 C522 0.961 . S
H525 C522 0.960 . S
C526 N527 1.342 . S
C526 C530 1.401 . S
C526 C531 1.499 1_556 S
N527 Co510 1.989 . S
N527 C526 1.342 . S
N527 N528 1.388 . S
N528 Co511 1.993 . S
N528 N527 1.388 . S
N528 C529 1.346 . S
C529 N528 1.346 . S
C529 C530 1.396 . S
C529 C539 1.510 . S
C530 C526 1.401 . S
C530 C529 1.396 . S
C531 C526 1.499 1_554 S
C531 H532 0.959 . S
C531 H533 0.960 . S
C531 H534 0.961 . S
H532 C531 0.959 . S
H533 C531 0.960 . S
H534 C531 0.961 . S
O535 Co510 1.967 . S
O535 C543 1.258 . S
O536 Co511 1.941 . S
O536 C543 1.266 . S
H537 C539 0.959 . S
H538 C539 0.961 . S
C539 C529 1.510 . S
C539 H537 0.959 . S
C539 H538 0.961 . S
C539 H540 0.960 . S
H540 C539 0.960 . S
H541 N521 0.862 . S
O542 Co510 1.920 1_554 S
O542 C515 1.289 . S
C543 O535 1.258 . S
C543 O536 1.266 . S
C544 C545 1.363 . S
C544 C550 1.379 . S
C544 N552 1.356 . S
C545 C544 1.363 . S
C545 C551 1.363 . S
C546 C547 1.363 . S
C546 C551 1.379 . S
C546 N553 1.356 . S
C547 C546 1.363 . S
C547 C550 1.363 . S
N548 C550 1.356 . S
N548 H560 0.984 . S
N548 H561 0.985 . S
N549 C551 1.356 . S
N549 H554 0.984 . S
N549 H555 0.985 . S
C550 C544 1.379 . S
C550 C547 1.363 . S
C550 N548 1.356 . S
C551 C545 1.363 . S
C551 C546 1.379 . S
C551 N549 1.356 . S
N552 C544 1.356 . S
N552 H558 0.984 . S
N552 H559 0.984 . S
N553 C546 1.356 . S
N553 H556 0.984 . S
N553 H557 0.985 . S
H554 N549 0.984 . S
H555 N549 0.985 . S
H556 N553 0.984 . S
H557 N553 0.985 . S
H558 N552 0.984 . S
H559 N552 0.984 . S
H560 N548 0.984 . S
H561 N548 0.985 . S
C562 C563 1.363 . S
C562 C568 1.379 . S
C562 N570 1.356 . S
C563 C562 1.363 . S
C563 C569 1.363 . S
C564 C565 1.363 . S
C564 C569 1.379 . S
C564 N571 1.356 . S
C565 C564 1.363 . S
C565 C568 1.363 . S
N566 C568 1.356 . S
N566 H578 0.984 . S
N566 H579 0.985 . S
N567 C569 1.356 . S
N567 H572 0.984 . S
N567 H573 0.985 . S
C568 C562 1.379 . S
C568 C565 1.363 . S
C568 N566 1.356 . S
C569 C563 1.363 . S
C569 C564 1.379 . S
C569 N567 1.356 . S
N570 C562 1.356 . S
N570 H576 0.984 . S
N570 H577 0.984 . S
N571 C564 1.356 . S
N571 H574 0.984 1_455 S
N571 H575 0.985 1_455 S
H572 N567 0.984 . S
H573 N567 0.985 . S
H574 N571 0.984 1_655 S
H575 N571 0.985 1_655 S
H576 N570 0.984 . S
H577 N570 0.984 . S
H578 N566 0.984 . S
H579 N566 0.985 . S
C580 C581 1.363 . S
C580 C586 1.379 . S
C580 N588 1.356 . S
C581 C580 1.363 . S
C581 C587 1.363 1_556 S
C582 C583 1.363 . S
C582 C587 1.379 . S
C582 N589 1.356 . S
C583 C582 1.363 . S
C583 C586 1.363 1_554 S
N584 C586 1.356 . S
N584 H596 0.984 . S
N584 H597 0.985 1_556 S
N585 C587 1.356 . S
N585 H590 0.984 1_554 S
N585 H591 0.985 . S
C586 C580 1.379 . S
C586 C583 1.363 1_556 S
C586 N584 1.356 . S
C587 C581 1.363 1_554 S
C587 C582 1.379 . S
C587 N585 1.356 . S
N588 C580 1.356 . S
N588 H594 0.984 . S
N588 H595 0.984 . S
N589 C582 1.356 . S
N589 H592 0.984 . S
N589 H593 0.985 . S
H590 N585 0.984 1_556 S
H591 N585 0.985 . S
H592 N589 0.984 . S
H593 N589 0.985 . S
H594 N588 0.984 . S
H595 N588 0.984 . S
H596 N584 0.984 . S
H597 N584 0.985 1_554 S
C598 C599 1.363 1_554 S
C598 C604 1.379 . S
C598 N606 1.356 . S
C599 C598 1.363 1_556 S
C599 C605 1.363 . S
C600 C601 1.363 1_556 S
C600 C605 1.379 . S
C600 N607 1.356 1_655 S
C601 C600 1.363 1_554 S
C601 C604 1.363 . S
N602 C604 1.356 . S
N602 H614 0.984 . S
N602 H615 0.985 . S
N603 C605 1.356 . S
N603 H608 0.984 . S
N603 H609 0.985 . S
C604 C598 1.379 . S
C604 C601 1.363 . S
C604 N602 1.356 . S
C605 C599 1.363 . S
C605 C600 1.379 . S
C605 N603 1.356 . S
N606 C598 1.356 . S
N606 H612 0.984 . S
N606 H613 0.984 . S
N607 C600 1.356 1_455 S
N607 H610 0.984 1_556 S
N607 H611 0.985 . S
H608 N603 0.984 . S
H609 N603 0.985 . S
H610 N607 0.984 1_554 S
H611 N607 0.985 . S
H612 N606 0.984 . S
H613 N606 0.984 . S
H614 N602 0.984 . S
H615 N602 0.985 . S
C616 C617 1.363 . S
C616 C622 1.379 . S
C616 N624 1.356 . S
C617 C616 1.363 . S
C617 C623 1.363 . S
C618 C619 1.363 . S
C618 C623 1.379 . S
C618 N625 1.356 . S
C619 C618 1.363 . S
C619 C622 1.363 . S
N620 C622 1.356 . S
N620 H632 0.984 . S
N620 H633 0.985 . S
N621 C623 1.356 . S
N621 H626 0.984 . S
N621 H627 0.985 . S
C622 C616 1.379 . S
C622 C619 1.363 . S
C622 N620 1.356 . S
C623 C617 1.363 . S
C623 C618 1.379 . S
C623 N621 1.356 . S
N624 C616 1.356 . S
N624 H630 0.984 . S
N624 H631 0.984 . S
N625 C618 1.356 . S
N625 H628 0.984 . S
N625 H629 0.985 . S
H626 N621 0.984 . S
H627 N621 0.985 . S
H628 N625 0.984 . S
H629 N625 0.985 . S
H630 N624 0.984 . S
H631 N624 0.984 . S
H632 N620 0.984 . S
H633 N620 0.985 . S
C634 C635 1.363 . S
C634 C640 1.379 . S
C634 N642 1.356 . S
C635 C634 1.363 . S
C635 C641 1.363 . S
C636 C637 1.363 . S
C636 C641 1.379 . S
C636 N643 1.356 . S
C637 C636 1.363 . S
C637 C640 1.363 . S
N638 C640 1.356 . S
N638 H650 0.984 . S
N638 H651 0.985 . S
N639 C641 1.356 . S
N639 H644 0.984 . S
N639 H645 0.985 . S
C640 C634 1.379 . S
C640 C637 1.363 . S
C640 N638 1.356 . S
C641 C635 1.363 . S
C641 C636 1.379 . S
C641 N639 1.356 . S
N642 C634 1.356 . S
N642 H648 0.984 . S
N642 H649 0.984 . S
N643 C636 1.356 . S
N643 H646 0.984 . S
N643 H647 0.985 . S
H644 N639 0.984 . S
H645 N639 0.985 . S
H646 N643 0.984 . S
H647 N643 0.985 . S
H648 N642 0.984 . S
H649 N642 0.984 . S
H650 N638 0.984 . S
H651 N638 0.985 . S
C652 C653 1.363 . S
C652 C658 1.379 1_554 S
C652 N660 1.356 . S
C653 C652 1.363 . S
C653 C659 1.363 . S
C654 C655 1.363 . S
C654 C659 1.379 1_556 S
C654 N661 1.356 . S
C655 C654 1.363 . S
C655 C658 1.363 . S
N656 C658 1.356 . S
N656 H668 0.984 . S
N656 H669 0.985 . S
N657 C659 1.356 . S
N657 H662 0.984 . S
N657 H663 0.985 . S
C658 C652 1.379 1_556 S
C658 C655 1.363 . S
C658 N656 1.356 . S
C659 C653 1.363 . S
C659 C654 1.379 1_554 S
C659 N657 1.356 . S
N660 C652 1.356 . S
N660 H666 0.984 . S
N660 H667 0.984 . S
N661 C654 1.356 . S
N661 H664 0.984 . S
N661 H665 0.985 . S
H662 N657 0.984 . S
H663 N657 0.985 . S
H664 N661 0.984 . S
H665 N661 0.985 . S
H666 N660 0.984 . S
H667 N660 0.984 . S
H668 N656 0.984 . S
H669 N656 0.985 . S
C670 C671 1.363 . S
C670 C676 1.379 . S
C670 N678 1.356 . S
C671 C670 1.363 . S
C671 C677 1.363 . S
C672 C673 1.363 . S
C672 C677 1.379 . S
C672 N679 1.356 . S
C673 C672 1.363 . S
C673 C676 1.363 . S
N674 C676 1.356 1_545 S
N674 H686 0.984 . S
N674 H687 0.985 . S
N675 C677 1.356 . S
N675 H680 0.984 . S
N675 H681 0.985 . S
C676 C670 1.379 . S
C676 C673 1.363 . S
C676 N674 1.356 1_565 S
C677 C671 1.363 . S
C677 C672 1.379 . S
C677 N675 1.356 . S
N678 C670 1.356 . S
N678 H684 0.984 1_556 S
N678 H685 0.984 . S
N679 C672 1.356 . S
N679 H682 0.973 1_565 S
N679 H683 0.985 . S
H680 N675 0.984 . S
H681 N675 0.985 . S
H682 N679 0.973 1_545 S
H683 N679 0.985 . S
H684 N678 0.984 1_554 S
H685 N678 0.984 . S
H686 N674 0.984 . S
H687 N674 0.985 . S
C688 C689 1.363 . S
C688 C694 1.379 . S
C688 N696 1.356 . S
C689 C688 1.363 . S
C689 C695 1.363 . S
C690 C691 1.363 . S
C690 C695 1.379 . S
C690 N697 1.356 . S
C691 C690 1.363 . S
C691 C694 1.363 . S
N692 C694 1.356 . S
N692 H704 0.984 . S
N692 H705 0.985 . S
N693 C695 1.356 . S
N693 H698 0.984 . S
N693 H699 0.985 . S
C694 C688 1.379 . S
C694 C691 1.363 . S
C694 N692 1.356 . S
C695 C689 1.363 . S
C695 C690 1.379 . S
C695 N693 1.356 . S
N696 C688 1.356 . S
N696 H702 0.984 . S
N696 H703 0.984 . S
N697 C690 1.356 . S
N697 H700 0.984 . S
N697 H701 0.985 . S
H698 N693 0.984 . S
H699 N693 0.985 . S
H700 N697 0.984 . S
H701 N697 0.985 . S
H702 N696 0.984 . S
H703 N696 0.984 . S
H704 N692 0.984 . S
H705 N692 0.985 . S
C706 C707 1.363 . S
C706 C712 1.379 1_565 S
C706 N714 1.356 . S
C707 C706 1.363 . S
C707 C713 1.363 . S
C708 C709 1.363 1_565 S
C708 C713 1.379 . S
C708 N715 1.356 1_565 S
C709 C708 1.363 1_545 S
C709 C712 1.363 . S
N710 C712 1.356 1_455 S
N710 H722 0.984 . S
N710 H723 0.985 . S
N711 C713 1.356 . S
N711 H716 0.984 . S
N711 H717 0.985 . S
C712 C706 1.379 1_545 S
C712 C709 1.363 . S
C712 N710 1.356 1_655 S
C713 C707 1.363 . S
C713 C708 1.379 . S
C713 N711 1.356 . S
N714 C706 1.356 . S
N714 H720 0.984 1_565 S
N714 H721 0.984 . S
N715 C708 1.356 1_545 S
N715 H718 0.984 . S
N715 H719 0.985 1_545 S
H716 N711 0.984 . S
H717 N711 0.985 . S
H718 N715 0.984 . S
H719 N715 0.985 1_565 S
H720 N714 0.984 1_545 S
H721 N714 0.984 . S
H722 N710 0.984 . S
H723 N710 0.985 . S
C724 C725 1.363 1_545 S
C724 C730 1.387 . S
C724 N732 1.356 . S
C725 C724 1.363 1_565 S
C725 C731 1.363 . S
C726 C727 1.363 . S
C726 C731 1.379 . S
C726 N733 1.356 . S
C727 C726 1.363 . S
C727 C730 1.350 1_565 S
N728 C730 1.357 . S
N728 H740 0.984 . S
N728 H741 0.985 1_545 S
N729 C731 1.356 . S
N729 H734 0.984 . S
N729 H735 0.985 . S
C730 C724 1.387 . S
C730 C727 1.350 1_545 S
C730 N728 1.357 . S
C731 C725 1.363 . S
C731 C726 1.379 . S
C731 N729 1.356 . S
N732 C724 1.356 . S
N732 H738 0.984 . S
N732 H739 0.984 . S
N733 C726 1.356 . S
N733 H736 0.984 . S
N733 H737 0.985 . S
H734 N729 0.984 . S
H735 N729 0.985 . S
H736 N733 0.984 . S
H737 N733 0.985 . S
H738 N732 0.984 . S
H739 N732 0.984 . S
H740 N728 0.984 . S
H741 N728 0.985 1_565 S
C742 C743 1.363 . S
C742 C748 1.379 . S
C742 N750 1.356 . S
C743 C742 1.363 . S
C743 C749 1.363 . S
C744 C745 1.363 . S
C744 C749 1.379 . S
C744 N751 1.356 . S
C745 C744 1.363 . S
C745 C748 1.363 . S
N746 C748 1.356 . S
N746 H758 0.984 . S
N746 H759 0.985 . S
N747 C749 1.356 . S
N747 H752 0.984 . S
N747 H753 0.985 . S
C748 C742 1.379 . S
C748 C745 1.363 . S
C748 N746 1.356 . S
C749 C743 1.363 . S
C749 C744 1.379 . S
C749 N747 1.356 . S
N750 C742 1.356 . S
N750 H756 0.984 . S
N750 H757 0.984 . S
N751 C744 1.356 . S
N751 H754 0.984 . S
N751 H755 0.985 . S
H752 N747 0.984 . S
H753 N747 0.985 . S
H754 N751 0.984 . S
H755 N751 0.985 . S
H756 N750 0.984 . S
H757 N750 0.984 . S
H758 N746 0.984 . S
H759 N746 0.985 . S
C760 C761 1.363 . S
C760 C766 1.379 . S
C760 N768 1.356 . S
C761 C760 1.363 . S
C761 C767 1.363 . S
C762 C763 1.363 . S
C762 C767 1.379 . S
C762 N769 1.356 . S
C763 C762 1.363 . S
C763 C766 1.363 . S
N764 C766 1.356 . S
N764 H776 0.984 . S
N764 H777 0.985 . S
N765 C767 1.356 . S
N765 H770 0.984 . S
N765 H771 0.985 . S
C766 C760 1.379 . S
C766 C763 1.363 . S
C766 N764 1.356 . S
C767 C761 1.363 . S
C767 C762 1.379 . S
C767 N765 1.356 . S
N768 C760 1.356 . S
N768 H774 0.984 . S
N768 H775 0.984 . S
N769 C762 1.356 . S
N769 H772 0.984 . S
N769 H773 0.985 . S
H770 N765 0.984 . S
H771 N765 0.985 . S
H772 N769 0.984 . S
H773 N769 0.985 . S
H774 N768 0.984 . S
H775 N768 0.984 . S
H776 N764 0.984 . S
H777 N764 0.985 . S
C778 C779 1.363 . S
C778 C784 1.379 . S
C778 N786 1.356 . S
C779 C778 1.363 . S
C779 C785 1.363 . S
C780 C781 1.363 . S
C780 C785 1.379 . S
C780 N787 1.356 . S
C781 C780 1.363 . S
C781 C784 1.363 . S
N782 C784 1.356 . S
N782 H794 0.984 . S
N782 H795 0.985 . S
N783 C785 1.356 . S
N783 H788 0.984 . S
N783 H789 0.985 . S
C784 C778 1.379 . S
C784 C781 1.363 . S
C784 N782 1.356 . S
C785 C779 1.363 . S
C785 C780 1.379 . S
C785 N783 1.356 . S
N786 C778 1.356 . S
N786 H792 0.984 . S
N786 H793 0.984 . S
N787 C780 1.356 . S
N787 H790 0.984 . S
N787 H791 0.985 . S
H788 N783 0.984 . S
H789 N783 0.985 . S
H790 N787 0.984 . S
H791 N787 0.985 . S
H792 N786 0.984 . S
H793 N786 0.984 . S
H794 N782 0.984 . S
H795 N782 0.985 . S
C796 C797 1.363 . S
C796 C802 1.379 . S
C796 N804 1.356 . S
C797 C796 1.363 . S
C797 C803 1.363 . S
C798 C799 1.363 . S
C798 C803 1.379 . S
C798 N805 1.356 . S
C799 C798 1.363 . S
C799 C802 1.363 . S
N800 C802 1.356 . S
N800 H812 0.984 . S
N800 H813 0.985 . S
N801 C803 1.356 . S
N801 H806 0.984 . S
N801 H807 0.985 . S
C802 C796 1.379 . S
C802 C799 1.363 . S
C802 N800 1.356 . S
C803 C797 1.363 . S
C803 C798 1.379 . S
C803 N801 1.356 . S
N804 C796 1.356 . S
N804 H810 0.984 . S
N804 H811 0.984 . S
N805 C798 1.356 . S
N805 H808 0.984 . S
N805 H809 0.985 . S
H806 N801 0.984 . S
H807 N801 0.985 . S
H808 N805 0.984 . S
H809 N805 0.985 . S
H810 N804 0.984 . S
H811 N804 0.984 . S
H812 N800 0.984 . S
H813 N800 0.985 . S
C814 C815 1.363 1_545 S
C814 C820 1.379 1_556 S
C814 N822 1.356 . S
C815 C814 1.363 1_565 S
C815 C821 1.363 1_556 S
C816 C817 1.363 1_565 S
C816 C821 1.379 . S
C816 N823 1.356 . S
C817 C816 1.363 1_545 S
C817 C820 1.363 . S
N818 C820 1.356 . S
N818 H830 0.984 . S
N818 H831 0.985 . S
N819 C821 1.356 1_556 S
N819 H824 0.984 . S
N819 H825 0.985 1_556 S
C820 C814 1.379 1_554 S
C820 C817 1.363 . S
C820 N818 1.356 . S
C821 C815 1.363 1_554 S
C821 C816 1.379 . S
C821 N819 1.356 1_554 S
N822 C814 1.356 . S
N822 H828 0.984 . S
N822 H829 0.984 1_545 S
N823 C816 1.356 . S
N823 H826 0.973 1_565 S
N823 H827 0.985 . S
H824 N819 0.984 . S
H825 N819 0.985 1_554 S
H826 N823 0.973 1_545 S
H827 N823 0.985 . S
H828 N822 0.984 . S
H829 N822 0.984 1_565 S
H830 N818 0.984 . S
H831 N818 0.985 . S
C832 C833 1.363 . S
C832 C838 1.379 . S
C832 N840 1.356 . S
C833 C832 1.363 . S
C833 C839 1.363 . S
C834 C835 1.363 . S
C834 C839 1.379 . S
C834 N841 1.356 . S
C835 C834 1.363 . S
C835 C838 1.363 . S
N836 C838 1.356 . S
N836 H848 0.984 . S
N836 H849 0.985 . S
N837 C839 1.356 . S
N837 H842 0.984 . S
N837 H843 0.985 . S
C838 C832 1.379 . S
C838 C835 1.363 . S
C838 N836 1.356 . S
C839 C833 1.363 . S
C839 C834 1.379 . S
C839 N837 1.356 . S
N840 C832 1.356 . S
N840 H846 0.984 . S
N840 H847 0.984 . S
N841 C834 1.356 . S
N841 H844 0.984 . S
N841 H845 0.985 . S
H842 N837 0.984 . S
H843 N837 0.985 . S
H844 N841 0.984 . S
H845 N841 0.985 . S
H846 N840 0.984 . S
H847 N840 0.984 . S
H848 N836 0.984 . S
H849 N836 0.985 . S
C850 C851 1.363 . S
C850 C856 1.379 . S
C850 N858 1.356 . S
C851 C850 1.363 . S
C851 C857 1.363 . S
C852 C853 1.363 . S
C852 C857 1.379 . S
C852 N859 1.356 . S
C853 C852 1.363 . S
C853 C856 1.363 . S
N854 C856 1.356 . S
N854 H866 0.984 . S
N854 H867 0.985 . S
N855 C857 1.356 . S
N855 H860 0.984 . S
N855 H861 0.985 . S
C856 C850 1.379 . S
C856 C853 1.363 . S
C856 N854 1.356 . S
C857 C851 1.363 . S
C857 C852 1.379 . S
C857 N855 1.356 . S
N858 C850 1.356 . S
N858 H864 0.984 . S
N858 H865 0.984 . S
N859 C852 1.356 . S
N859 H862 0.984 . S
N859 H863 0.985 . S
H860 N855 0.984 . S
H861 N855 0.985 . S
H862 N859 0.984 . S
H863 N859 0.985 . S
H864 N858 0.984 . S
H865 N858 0.984 . S
H866 N854 0.984 . S
H867 N854 0.985 . S
C868 C869 1.363 . S
C868 C874 1.379 . S
C868 N876 1.356 . S
C869 C868 1.363 . S
C869 C875 1.363 . S
C870 C871 1.363 . S
C870 C875 1.379 . S
C870 N877 1.356 . S
C871 C870 1.363 . S
C871 C874 1.363 . S
N872 C874 1.356 . S
N872 H884 0.984 . S
N872 H885 0.985 . S
N873 C875 1.356 . S
N873 H878 0.984 . S
N873 H879 0.985 . S
C874 C868 1.379 . S
C874 C871 1.363 . S
C874 N872 1.356 . S
C875 C869 1.363 . S
C875 C870 1.379 . S
C875 N873 1.356 . S
N876 C868 1.356 . S
N876 H882 0.984 . S
N876 H883 0.984 . S
N877 C870 1.356 . S
N877 H880 0.984 . S
N877 H881 0.985 . S
H878 N873 0.984 . S
H879 N873 0.985 . S
H880 N877 0.984 . S
H881 N877 0.985 . S
H882 N876 0.984 . S
H883 N876 0.984 . S
H884 N872 0.984 . S
H885 N872 0.985 . S
C886 C887 1.363 . S
C886 C892 1.379 . S
C886 N894 1.356 . S
C887 C886 1.363 . S
C887 C893 1.363 . S
C888 C889 1.363 . S
C888 C893 1.379 . S
C888 N895 1.356 . S
C889 C888 1.363 . S
C889 C892 1.363 . S
N890 C892 1.356 . S
N890 H902 0.984 . S
N890 H903 0.985 . S
N891 C893 1.356 . S
N891 H896 0.984 . S
N891 H897 0.985 . S
C892 C886 1.379 . S
C892 C889 1.363 . S
C892 N890 1.356 . S
C893 C887 1.363 . S
C893 C888 1.379 . S
C893 N891 1.356 . S
N894 C886 1.356 . S
N894 H900 0.984 1_655 S
N894 H901 0.984 . S
N895 C888 1.356 . S
N895 H898 0.984 . S
N895 H899 0.985 . S
H896 N891 0.984 . S
H897 N891 0.985 . S
H898 N895 0.984 . S
H899 N895 0.985 . S
H900 N894 0.984 1_455 S
H901 N894 0.984 . S
H902 N890 0.984 . S
H903 N890 0.985 . S
C904 C905 1.363 . S
C904 C910 1.379 . S
C904 N912 1.356 . S
C905 C904 1.363 . S
C905 C911 1.363 . S
C906 C907 1.363 . S
C906 C911 1.379 . S
C906 N913 1.356 . S
C907 C906 1.363 . S
C907 C910 1.363 . S
N908 C910 1.356 . S
N908 H920 0.984 . S
N908 H921 0.985 . S
N909 C911 1.356 . S
N909 H914 0.984 . S
N909 H915 0.985 . S
C910 C904 1.379 . S
C910 C907 1.363 . S
C910 N908 1.356 . S
C911 C905 1.363 . S
C911 C906 1.379 . S
C911 N909 1.356 . S
N912 C904 1.356 . S
N912 H918 0.984 . S
N912 H919 0.984 . S
N913 C906 1.356 . S
N913 H916 0.984 . S
N913 H917 0.985 . S
H914 N909 0.984 . S
H915 N909 0.985 . S
H916 N913 0.984 . S
H917 N913 0.985 . S
H918 N912 0.984 . S
H919 N912 0.984 . S
H920 N908 0.984 . S
H921 N908 0.985 . S
C922 C923 1.363 . S
C922 C928 1.379 . S
C922 N930 1.356 . S
C923 C922 1.363 . S
C923 C929 1.363 . S
C924 C925 1.363 1_554 S
C924 C929 1.379 . S
C924 N931 1.356 1_554 S
C925 C924 1.363 1_556 S
C925 C928 1.363 1_556 S
N926 C928 1.356 1_556 S
N926 H938 0.984 . S
N926 H939 0.985 . S
N927 C929 1.356 . S
N927 H932 0.984 . S
N927 H933 0.985 . S
C928 C922 1.379 . S
C928 C925 1.363 1_554 S
C928 N926 1.356 1_554 S
C929 C923 1.363 . S
C929 C924 1.379 . S
C929 N927 1.356 . S
N930 C922 1.356 . S
N930 H936 0.984 . S
N930 H937 0.984 . S
N931 C924 1.356 1_556 S
N931 H934 0.984 . S
N931 H935 0.985 . S
H932 N927 0.984 . S
H933 N927 0.985 . S
H934 N931 0.984 . S
H935 N931 0.985 . S
H936 N930 0.984 . S
H937 N930 0.984 . S
H938 N926 0.984 . S
H939 N926 0.985 . S
C940 C941 1.363 . S
C940 C946 1.379 . S
C940 N948 1.356 . S
C941 C940 1.363 . S
C941 C947 1.363 . S
C942 C943 1.363 . S
C942 C947 1.379 . S
C942 N949 1.356 . S
C943 C942 1.363 . S
C943 C946 1.363 . S
N944 C946 1.356 . S
N944 H956 0.984 . S
N944 H957 0.985 . S
N945 C947 1.356 . S
N945 H950 0.984 . S
N945 H951 0.985 . S
C946 C940 1.379 . S
C946 C943 1.363 . S
C946 N944 1.356 . S
C947 C941 1.363 . S
C947 C942 1.379 . S
C947 N945 1.356 . S
N948 C940 1.356 . S
N948 H954 0.984 . S
N948 H955 0.984 1_556 S
N949 C942 1.356 . S
N949 H952 0.984 . S
N949 H953 0.985 . S
H950 N945 0.984 . S
H951 N945 0.985 . S
H952 N949 0.984 . S
H953 N949 0.985 . S
H954 N948 0.984 . S
H955 N948 0.984 1_554 S
H956 N944 0.984 . S
H957 N944 0.985 . S
C958 C959 1.363 . S
C958 C964 1.379 . S
C958 N966 1.356 . S
C959 C958 1.363 . S
C959 C965 1.363 . S
C960 C961 1.363 . S
C960 C965 1.379 . S
C960 N967 1.356 . S
C961 C960 1.363 . S
C961 C964 1.363 . S
N962 C964 1.356 . S
N962 H974 0.984 . S
N962 H975 0.985 . S
N963 C965 1.356 . S
N963 H968 0.984 . S
N963 H969 0.985 . S
C964 C958 1.379 . S
C964 C961 1.363 . S
C964 N962 1.356 . S
C965 C959 1.363 . S
C965 C960 1.379 . S
C965 N963 1.356 . S
N966 C958 1.356 . S
N966 H972 0.984 . S
N966 H973 0.984 1_556 S
N967 C960 1.356 . S
N967 H970 0.984 . S
N967 H971 0.985 . S
H968 N963 0.984 . S
H969 N963 0.985 . S
H970 N967 0.984 . S
H971 N967 0.985 . S
H972 N966 0.984 . S
H973 N966 0.984 1_554 S
H974 N962 0.984 . S
H975 N962 0.985 . S
C976 C977 1.363 . S
C976 C982 1.379 . S
C976 N984 1.356 . S
C977 C976 1.363 . S
C977 C983 1.363 . S
C978 C979 1.363 . S
C978 C983 1.379 . S
C978 N985 1.356 . S
C979 C978 1.363 . S
C979 C982 1.363 . S
N980 C982 1.356 . S
N980 H992 0.984 . S
N980 H993 0.985 . S
N981 C983 1.356 . S
N981 H986 0.984 . S
N981 H987 0.985 . S
C982 C976 1.379 . S
C982 C979 1.363 . S
C982 N980 1.356 . S
C983 C977 1.363 . S
C983 C978 1.379 . S
C983 N981 1.356 . S
N984 C976 1.356 . S
N984 H990 0.984 . S
N984 H991 0.984 . S
N985 C978 1.356 . S
N985 H988 0.984 . S
N985 H989 0.985 . S
H986 N981 0.984 . S
H987 N981 0.985 . S
H988 N985 0.984 . S
H989 N985 0.985 . S
H990 N984 0.984 . S
H991 N984 0.984 . S
H992 N980 0.984 . S
H993 N980 0.985 . S
C994 C995 1.363 1_554 S
C994 C1000 1.379 . S
C994 N1002 1.356 . S
C995 C994 1.363 1_556 S
C995 C1001 1.365 . S
C996 C997 1.363 . S
C996 C1001 1.370 1_554 S
C996 N1003 1.356 . S
C997 C996 1.363 . S
C997 C1000 1.363 . S
N998 C1000 1.356 . S
N998 H1010 0.984 . S
N998 H1011 0.985 . S
N999 C1001 1.364 . S
N999 H1004 0.984 . S
N999 H1005 0.985 . S
C1000 C994 1.379 . S
C1000 C997 1.363 . S
C1000 N998 1.356 . S
C1001 C995 1.365 . S
C1001 C996 1.370 1_556 S
C1001 N999 1.364 . S
N1002 C994 1.356 . S
N1002 H1008 0.984 . S
N1002 H1009 0.984 1_554 S
N1003 C996 1.356 . S
N1003 H1006 0.984 . S
N1003 H1007 0.985 . S
H1004 N999 0.984 . S
H1005 N999 0.985 . S
H1006 N1003 0.984 . S
H1007 N1003 0.985 . S
H1008 N1002 0.984 . S
H1009 N1002 0.984 1_556 S
H1010 N998 0.984 . S
H1011 N998 0.985 . S
C1012 C1013 1.363 . S
C1012 C1018 1.379 . S
C1012 N1020 1.356 . S
C1013 C1012 1.363 . S
C1013 C1019 1.363 . S
C1014 C1015 1.363 . S
C1014 C1019 1.379 . S
C1014 N1021 1.356 . S
C1015 C1014 1.363 . S
C1015 C1018 1.363 . S
N1016 C1018 1.356 . S
N1016 H1028 0.984 . S
N1016 H1029 0.985 . S
N1017 C1019 1.356 . S
N1017 H1022 0.984 1_556 S
N1017 H1023 0.985 . S
C1018 C1012 1.379 . S
C1018 C1015 1.363 . S
C1018 N1016 1.356 . S
C1019 C1013 1.363 . S
C1019 C1014 1.379 . S
C1019 N1017 1.356 . S
N1020 C1012 1.356 . S
N1020 H1026 0.984 . S
N1020 H1027 0.984 . S
N1021 C1014 1.356 . S
N1021 H1024 0.984 . S
N1021 H1025 0.985 . S
H1022 N1017 0.984 1_554 S
H1023 N1017 0.985 . S
H1024 N1021 0.984 . S
H1025 N1021 0.985 . S
H1026 N1020 0.984 . S
H1027 N1020 0.984 . S
H1028 N1016 0.984 . S
H1029 N1016 0.985 . S
C1030 C1031 1.363 . S
C1030 C1036 1.379 . S
C1030 N1038 1.356 . S
C1031 C1030 1.363 . S
C1031 C1037 1.363 . S
C1032 C1033 1.363 . S
C1032 C1037 1.379 . S
C1032 N1039 1.356 . S
C1033 C1032 1.363 . S
C1033 C1036 1.363 . S
N1034 C1036 1.356 . S
N1034 H1046 0.984 . S
N1034 H1047 0.985 . S
N1035 C1037 1.356 . S
N1035 H1040 0.984 1_556 S
N1035 H1041 0.985 . S
C1036 C1030 1.379 . S
C1036 C1033 1.363 . S
C1036 N1034 1.356 . S
C1037 C1031 1.363 . S
C1037 C1032 1.379 . S
C1037 N1035 1.356 . S
N1038 C1030 1.356 . S
N1038 H1044 0.984 . S
N1038 H1045 0.984 . S
N1039 C1032 1.356 . S
N1039 H1042 0.984 . S
N1039 H1043 0.985 . S
H1040 N1035 0.984 1_554 S
H1041 N1035 0.985 . S
H1042 N1039 0.984 . S
H1043 N1039 0.985 . S
H1044 N1038 0.984 . S
H1045 N1038 0.984 . S
H1046 N1034 0.984 . S
H1047 N1034 0.985 . S
C1048 C1049 1.363 . S
C1048 C1054 1.379 . S
C1048 N1056 1.356 . S
C1049 C1048 1.363 . S
C1049 C1055 1.363 . S
C1050 C1051 1.363 . S
C1050 C1055 1.379 . S
C1050 N1057 1.356 . S
C1051 C1050 1.363 . S
C1051 C1054 1.363 . S
N1052 C1054 1.356 . S
N1052 H1064 0.984 . S
N1052 H1065 0.985 . S
N1053 C1055 1.356 . S
N1053 H1058 0.984 . S
N1053 H1059 0.985 . S
C1054 C1048 1.379 . S
C1054 C1051 1.363 . S
C1054 N1052 1.356 . S
C1055 C1049 1.363 . S
C1055 C1050 1.379 . S
C1055 N1053 1.356 . S
N1056 C1048 1.356 . S
N1056 H1062 0.984 . S
N1056 H1063 0.984 . S
N1057 C1050 1.356 . S
N1057 H1060 0.984 . S
N1057 H1061 0.985 . S
H1058 N1053 0.984 . S
H1059 N1053 0.985 . S
H1060 N1057 0.984 . S
H1061 N1057 0.985 . S
H1062 N1056 0.984 . S
H1063 N1056 0.984 . S
H1064 N1052 0.984 . S
H1065 N1052 0.985 . S
C1066 C1067 1.363 . S
C1066 C1072 1.379 . S
C1066 N1074 1.356 . S
C1067 C1066 1.363 . S
C1067 C1073 1.363 . S
C1068 C1069 1.363 . S
C1068 C1073 1.379 . S
C1068 N1075 1.356 . S
C1069 C1068 1.363 . S
C1069 C1072 1.363 . S
N1070 C1072 1.356 . S
N1070 H1082 0.984 . S
N1070 H1083 0.985 . S
N1071 C1073 1.356 . S
N1071 H1076 0.984 . S
N1071 H1077 0.985 . S
C1072 C1066 1.379 . S
C1072 C1069 1.363 . S
C1072 N1070 1.356 . S
C1073 C1067 1.363 . S
C1073 C1068 1.379 . S
C1073 N1071 1.356 . S
N1074 C1066 1.356 . S
N1074 H1080 0.984 . S
N1074 H1081 0.984 . S
N1075 C1068 1.356 . S
N1075 H1078 0.984 . S
N1075 H1079 0.985 . S
H1076 N1071 0.984 . S
H1077 N1071 0.985 . S
H1078 N1075 0.984 . S
H1079 N1075 0.985 . S
H1080 N1074 0.984 . S
H1081 N1074 0.984 . S
H1082 N1070 0.984 . S
H1083 N1070 0.985 . S
C1084 C1085 1.363 . S
C1084 C1090 1.379 . S
C1084 N1092 1.356 . S
C1085 C1084 1.363 . S
C1085 C1091 1.363 . S
C1086 C1087 1.363 . S
C1086 C1091 1.379 . S
C1086 N1093 1.356 . S
C1087 C1086 1.363 . S
C1087 C1090 1.363 . S
N1088 C1090 1.356 . S
N1088 H1100 0.984 . S
N1088 H1101 0.985 . S
N1089 C1091 1.356 . S
N1089 H1094 0.984 . S
N1089 H1095 0.985 . S
C1090 C1084 1.379 . S
C1090 C1087 1.363 . S
C1090 N1088 1.356 . S
C1091 C1085 1.363 . S
C1091 C1086 1.379 . S
C1091 N1089 1.356 . S
N1092 C1084 1.356 . S
N1092 H1098 0.984 . S
N1092 H1099 0.984 . S
N1093 C1086 1.356 . S
N1093 H1096 0.984 . S
N1093 H1097 0.985 . S
H1094 N1089 0.984 . S
H1095 N1089 0.985 . S
H1096 N1093 0.984 . S
H1097 N1093 0.985 . S
H1098 N1092 0.984 . S
H1099 N1092 0.984 . S
H1100 N1088 0.984 . S
H1101 N1088 0.985 . S
C1102 C1103 1.363 . S
C1102 C1108 1.379 . S
C1102 N1110 1.356 . S
C1103 C1102 1.363 . S
C1103 C1109 1.363 . S
C1104 C1105 1.363 . S
C1104 C1109 1.379 . S
C1104 N1111 1.356 . S
C1105 C1104 1.363 . S
C1105 C1108 1.363 . S
N1106 C1108 1.356 . S
N1106 H1118 0.984 . S
N1106 H1119 0.985 . S
N1107 C1109 1.356 . S
N1107 H1112 0.984 . S
N1107 H1113 0.985 . S
C1108 C1102 1.379 . S
C1108 C1105 1.363 . S
C1108 N1106 1.356 . S
C1109 C1103 1.363 . S
C1109 C1104 1.379 . S
C1109 N1107 1.356 . S
N1110 C1102 1.356 . S
N1110 H1116 0.984 . S
N1110 H1117 0.984 . S
N1111 C1104 1.356 . S
N1111 H1114 0.984 . S
N1111 H1115 0.985 . S
H1112 N1107 0.984 . S
H1113 N1107 0.985 . S
H1114 N1111 0.984 . S
H1115 N1111 0.985 . S
H1116 N1110 0.984 . S
H1117 N1110 0.984 . S
H1118 N1106 0.984 . S
H1119 N1106 0.985 . S
C1120 C1121 1.363 . S
C1120 C1126 1.379 . S
C1120 N1128 1.356 . S
C1121 C1120 1.363 . S
C1121 C1127 1.363 . S
C1122 C1123 1.363 . S
C1122 C1127 1.379 . S
C1122 N1129 1.356 . S
C1123 C1122 1.363 . S
C1123 C1126 1.363 . S
N1124 C1126 1.356 1_556 S
N1124 H1136 0.984 . S
N1124 H1137 0.985 1_556 S
N1125 C1127 1.356 . S
N1125 H1130 0.984 . S
N1125 H1131 0.985 . S
C1126 C1120 1.379 . S
C1126 C1123 1.363 . S
C1126 N1124 1.356 1_554 S
C1127 C1121 1.363 . S
C1127 C1122 1.379 . S
C1127 N1125 1.356 . S
N1128 C1120 1.356 . S
N1128 H1134 0.984 1_554 S
N1128 H1135 0.984 . S
N1129 C1122 1.356 . S
N1129 H1132 0.984 . S
N1129 H1133 0.985 . S
H1130 N1125 0.984 . S
H1131 N1125 0.985 . S
H1132 N1129 0.984 . S
H1133 N1129 0.985 . S
H1134 N1128 0.984 1_556 S
H1135 N1128 0.984 . S
H1136 N1124 0.984 . S
H1137 N1124 0.985 1_554 S
C1138 C1139 1.363 . S
C1138 C1144 1.379 . S
C1138 N1146 1.356 . S
C1139 C1138 1.363 . S
C1139 C1145 1.363 . S
C1140 C1141 1.363 . S
C1140 C1145 1.379 . S
C1140 N1147 1.356 . S
C1141 C1140 1.363 . S
C1141 C1144 1.363 . S
N1142 C1144 1.355 . S
N1142 H1154 0.986 1_556 S
N1142 H1155 0.984 . S
N1143 C1145 1.356 . S
N1143 H1148 0.984 . S
N1143 H1149 0.985 . S
C1144 C1138 1.379 . S
C1144 C1141 1.363 . S
C1144 N1142 1.355 . S
C1145 C1139 1.363 . S
C1145 C1140 1.379 . S
C1145 N1143 1.356 . S
N1146 C1138 1.356 . S
N1146 H1152 0.984 1_556 S
N1146 H1153 0.984 . S
N1147 C1140 1.356 . S
N1147 H1150 0.984 . S
N1147 H1151 0.985 . S
H1148 N1143 0.984 . S
H1149 N1143 0.985 . S
H1150 N1147 0.984 . S
H1151 N1147 0.985 . S
H1152 N1146 0.984 1_554 S
H1153 N1146 0.984 . S
H1154 N1142 0.986 1_554 S
H1155 N1142 0.984 . S
C1156 C1157 1.363 . S
C1156 C1162 1.379 . S
C1156 N1164 1.356 . S
C1157 C1156 1.363 . S
C1157 C1163 1.363 . S
C1158 C1159 1.363 . S
C1158 C1163 1.379 . S
C1158 N1165 1.356 . S
C1159 C1158 1.363 . S
C1159 C1162 1.363 . S
N1160 C1162 1.356 . S
N1160 H1172 0.984 . S
N1160 H1173 0.985 . S
N1161 C1163 1.356 . S
N1161 H1166 0.984 . S
N1161 H1167 0.985 . S
C1162 C1156 1.379 . S
C1162 C1159 1.363 . S
C1162 N1160 1.356 . S
C1163 C1157 1.363 . S
C1163 C1158 1.379 . S
C1163 N1161 1.356 . S
N1164 C1156 1.356 . S
N1164 H1170 0.984 . S
N1164 H1171 0.984 . S
N1165 C1158 1.356 . S
N1165 H1168 0.984 . S
N1165 H1169 0.985 . S
H1166 N1161 0.984 . S
H1167 N1161 0.985 . S
H1168 N1165 0.984 . S
H1169 N1165 0.985 . S
H1170 N1164 0.984 . S
H1171 N1164 0.984 . S
H1172 N1160 0.984 . S
H1173 N1160 0.985 . S
C1174 C1175 1.363 . S
C1174 C1180 1.379 . S
C1174 N1182 1.356 . S
C1175 C1174 1.363 . S
C1175 C1181 1.363 . S
C1176 C1177 1.363 . S
C1176 C1181 1.379 . S
C1176 N1183 1.356 . S
C1177 C1176 1.363 . S
C1177 C1180 1.363 . S
N1178 C1180 1.356 . S
N1178 H1190 0.984 . S
N1178 H1191 0.985 . S
N1179 C1181 1.356 . S
N1179 H1184 0.984 . S
N1179 H1185 0.985 . S
C1180 C1174 1.379 . S
C1180 C1177 1.363 . S
C1180 N1178 1.356 . S
C1181 C1175 1.363 . S
C1181 C1176 1.379 . S
C1181 N1179 1.356 . S
N1182 C1174 1.356 . S
N1182 H1188 0.984 . S
N1182 H1189 0.984 . S
N1183 C1176 1.356 . S
N1183 H1186 0.984 . S
N1183 H1187 0.985 . S
H1184 N1179 0.984 . S
H1185 N1179 0.985 . S
H1186 N1183 0.984 . S
H1187 N1183 0.985 . S
H1188 N1182 0.984 . S
H1189 N1182 0.984 . S
H1190 N1178 0.984 . S
H1191 N1178 0.985 . S
C1192 C1193 1.363 . S
C1192 C1198 1.379 . S
C1192 N1200 1.356 . S
C1193 C1192 1.363 . S
C1193 C1199 1.363 . S
C1194 C1195 1.363 . S
C1194 C1199 1.379 . S
C1194 N1201 1.356 . S
C1195 C1194 1.363 . S
C1195 C1198 1.363 . S
N1196 C1198 1.356 . S
N1196 H1208 0.984 . S
N1196 H1209 0.985 . S
N1197 C1199 1.356 . S
N1197 H1202 0.984 . S
N1197 H1203 0.985 . S
C1198 C1192 1.379 . S
C1198 C1195 1.363 . S
C1198 N1196 1.356 . S
C1199 C1193 1.363 . S
C1199 C1194 1.379 . S
C1199 N1197 1.356 . S
N1200 C1192 1.356 . S
N1200 H1206 0.984 . S
N1200 H1207 0.984 . S
N1201 C1194 1.356 . S
N1201 H1204 0.984 . S
N1201 H1205 0.985 . S
H1202 N1197 0.984 . S
H1203 N1197 0.985 . S
H1204 N1201 0.984 . S
H1205 N1201 0.985 . S
H1206 N1200 0.984 . S
H1207 N1200 0.984 . S
H1208 N1196 0.984 . S
H1209 N1196 0.985 . S
C1210 C1211 1.363 . S
C1210 C1216 1.379 . S
C1210 N1218 1.356 . S
C1211 C1210 1.363 . S
C1211 C1217 1.363 . S
C1212 C1213 1.363 . S
C1212 C1217 1.379 . S
C1212 N1219 1.356 . S
C1213 C1212 1.363 . S
C1213 C1216 1.363 . S
N1214 C1216 1.356 . S
N1214 H1226 0.984 . S
N1214 H1227 0.985 . S
N1215 C1217 1.356 . S
N1215 H1220 0.984 . S
N1215 H1221 0.985 . S
C1216 C1210 1.379 . S
C1216 C1213 1.363 . S
C1216 N1214 1.356 . S
C1217 C1211 1.363 . S
C1217 C1212 1.379 . S
C1217 N1215 1.356 . S
N1218 C1210 1.356 . S
N1218 H1224 0.984 . S
N1218 H1225 0.984 . S
N1219 C1212 1.356 . S
N1219 H1222 0.984 . S
N1219 H1223 0.985 . S
H1220 N1215 0.984 . S
H1221 N1215 0.985 . S
H1222 N1219 0.984 . S
H1223 N1219 0.985 . S
H1224 N1218 0.984 . S
H1225 N1218 0.984 . S
H1226 N1214 0.984 . S
H1227 N1214 0.985 . S
C1228 C1229 1.363 . S
C1228 C1234 1.379 . S
C1228 N1236 1.356 . S
C1229 C1228 1.363 . S
C1229 C1235 1.363 . S
C1230 C1231 1.363 . S
C1230 C1235 1.379 . S
C1230 N1237 1.356 . S
C1231 C1230 1.363 . S
C1231 C1234 1.363 . S
N1232 C1234 1.356 . S
N1232 H1244 0.984 . S
N1232 H1245 0.985 . S
N1233 C1235 1.356 . S
N1233 H1238 0.984 . S
N1233 H1239 0.985 1_554 S
C1234 C1228 1.379 . S
C1234 C1231 1.363 . S
C1234 N1232 1.356 . S
C1235 C1229 1.363 . S
C1235 C1230 1.379 . S
C1235 N1233 1.356 . S
N1236 C1228 1.356 . S
N1236 H1242 0.984 . S
N1236 H1243 0.984 . S
N1237 C1230 1.356 . S
N1237 H1240 0.984 . S
N1237 H1241 0.985 . S
H1238 N1233 0.984 . S
H1239 N1233 0.985 1_556 S
H1240 N1237 0.984 . S
H1241 N1237 0.985 . S
H1242 N1236 0.984 . S
H1243 N1236 0.984 . S
H1244 N1232 0.984 . S
H1245 N1232 0.985 . S
C1246 C1247 1.363 . S
C1246 C1252 1.379 . S
C1246 N1254 1.356 . S
C1247 C1246 1.363 . S
C1247 C1253 1.363 . S
C1248 C1249 1.363 . S
C1248 C1253 1.379 . S
C1248 N1255 1.356 . S
C1249 C1248 1.363 . S
C1249 C1252 1.363 . S
N1250 C1252 1.356 . S
N1250 H1262 0.984 . S
N1250 H1263 0.985 . S
N1251 C1253 1.356 . S
N1251 H1256 0.984 . S
N1251 H1257 0.985 1_556 S
C1252 C1246 1.379 . S
C1252 C1249 1.363 . S
C1252 N1250 1.356 . S
C1253 C1247 1.363 . S
C1253 C1248 1.379 . S
C1253 N1251 1.356 . S
N1254 C1246 1.356 . S
N1254 H1260 0.984 . S
N1254 H1261 0.984 . S
N1255 C1248 1.356 . S
N1255 H1258 0.984 . S
N1255 H1259 0.985 1_556 S
H1256 N1251 0.984 . S
H1257 N1251 0.985 1_554 S
H1258 N1255 0.984 . S
H1259 N1255 0.985 1_554 S
H1260 N1254 0.984 . S
H1261 N1254 0.984 . S
H1262 N1250 0.984 . S
H1263 N1250 0.985 . S
C545 C360 1.612 . S
C547 C20 1.600 . S
C563 C67 1.652 . S
C565 C258 1.644 . S
C581 C543 1.595 . S
C583 C54 1.572 . S
C599 C101 1.626 . S
C601 C33 1.612 1_655 S
C617 C88 1.611 . S
C619 C292 1.600 . S
C635 C203 1.652 . S
C637 C122 1.644 . S
C653 C462 1.572 . S
C655 C135 1.595 . S
C671 C496 1.612 . S
C673 C156 1.600 1_565 S
C689 C190 1.572 . S
C691 C407 1.595 . S
C707 C237 1.626 . S
C709 C169 1.612 1_655 S
C725 C428 1.600 1_565 S
C727 C224 1.611 . S
C743 C326 1.572 . S
C745 C271 1.595 . S
C761 C530 1.645 . S
C763 C339 1.651 . S
C779 C305 1.612 . S
C781 C373 1.626 . S
C797 C394 1.645 . S
C799 C475 1.652 . S
C815 C509 1.625 . S
C817 C441 1.611 . S
C833 C9 1.361 . S
C835 C5 1.392 . S
C851 C43 1.365 . S
C853 C39 1.408 . S
C869 C77 1.372 . S
C871 C73 1.381 . S
C887 C107 1.366 . S
C889 C111 1.342 . S
C905 C141 1.392 . S
C907 C145 1.361 . S
C923 C179 1.365 . S
C925 C175 1.408 . S
C941 C213 1.372 1_556 S
C943 C209 1.381 . S
C959 C247 1.342 . S
C961 C243 1.366 . S
C977 C281 1.361 . S
C979 C277 1.392 . S
C995 C311 1.408 . S
C997 C315 1.365 . S
C1013 C349 1.372 1_556 S
C1015 C345 1.381 . S
C1031 C383 1.342 . S
C1033 C379 1.366 . S
C1049 C417 1.361 . S
C1051 C413 1.392 . S
C1067 C451 1.365 . S
C1069 C447 1.408 . S
C1085 C485 1.372 . S
C1087 C481 1.381 . S
C1103 C515 1.366 . S
C1105 C519 1.342 . S
C1121 C2 1.595 . S
C1123 C36 1.601 . S
C1139 C70 1.523 . S
C1141 C104 1.522 . S
C1157 C138 1.595 . S
C1159 C172 1.601 . S
C1175 C206 1.523 . S
C1177 C240 1.523 . S
C1193 C308 1.602 . S
C1195 C274 1.596 . S
C1211 C342 1.523 . S
C1213 C376 1.522 . S
C1229 C444 1.601 . S
C1231 C410 1.595 . S
C1247 C512 1.522 . S
C1249 C478 1.523 . S
