# Generated by pormake.
# Topology umd, (4)-cn, num edge types: 1
# Building blocks:
#     Node 0, Type 0, BuildingBlock: GALJAG_clean_sbu_0, # of connection points: 4
#     Node 1, Type 0, BuildingBlock: GALJAG_clean_sbu_0, # of connection points: 4
#     Node 2, Type 0, BuildingBlock: GALJAG_clean_sbu_0, # of connection points: 4
#     Node 3, Type 0, BuildingBlock: GALJAG_clean_sbu_0, # of connection points: 4
#     Node 4, Type 0, BuildingBlock: GALJAG_clean_sbu_0, # of connection points: 4
#     Node 5, Type 0, BuildingBlock: GALJAG_clean_sbu_0, # of connection points: 4
#     Node 6, Type 0, BuildingBlock: GALJAG_clean_sbu_0, # of connection points: 4
#     Node 7, Type 0, BuildingBlock: GALJAG_clean_sbu_0, # of connection points: 4
#     Node 8, Type 0, BuildingBlock: GALJAG_clean_sbu_0, # of connection points: 4
#     Node 9, Type 0, BuildingBlock: GALJAG_clean_sbu_0, # of connection points: 4
#     Node 10, Type 0, BuildingBlock: GALJAG_clean_sbu_0, # of connection points: 4
#     Node 11, Type 0, BuildingBlock: GALJAG_clean_sbu_0, # of connection points: 4
#     Node 12, Type 0, BuildingBlock: GALJAG_clean_sbu_0, # of connection points: 4
#     Node 13, Type 0, BuildingBlock: GALJAG_clean_sbu_0, # of connection points: 4
#     Node 14, Type 0, BuildingBlock: GALJAG_clean_sbu_0, # of connection points: 4
#     Node 15, Type 0, BuildingBlock: GALJAG_clean_sbu_0, # of connection points: 4
#     Edge 16, Type (0, 0), BuildingBlock: EZIPEK_clean_linker_0, # of connection points: 2
#     Edge 17, Type (0, 0), BuildingBlock: EZIPEK_clean_linker_0, # of connection points: 2
#     Edge 18, Type (0, 0), BuildingBlock: EZIPEK_clean_linker_0, # of connection points: 2
#     Edge 19, Type (0, 0), BuildingBlock: EZIPEK_clean_linker_0, # of connection points: 2
#     Edge 20, Type (0, 0), BuildingBlock: EZIPEK_clean_linker_0, # of connection points: 2
#     Edge 21, Type (0, 0), BuildingBlock: EZIPEK_clean_linker_0, # of connection points: 2
#     Edge 22, Type (0, 0), BuildingBlock: EZIPEK_clean_linker_0, # of connection points: 2
#     Edge 23, Type (0, 0), BuildingBlock: EZIPEK_clean_linker_0, # of connection points: 2
#     Edge 24, Type (0, 0), BuildingBlock: EZIPEK_clean_linker_0, # of connection points: 2
#     Edge 25, Type (0, 0), BuildingBlock: EZIPEK_clean_linker_0, # of connection points: 2
#     Edge 26, Type (0, 0), BuildingBlock: EZIPEK_clean_linker_0, # of connection points: 2
#     Edge 27, Type (0, 0), BuildingBlock: EZIPEK_clean_linker_0, # of connection points: 2
#     Edge 28, Type (0, 0), BuildingBlock: EZIPEK_clean_linker_0, # of connection points: 2
#     Edge 29, Type (0, 0), BuildingBlock: EZIPEK_clean_linker_0, # of connection points: 2
#     Edge 30, Type (0, 0), BuildingBlock: EZIPEK_clean_linker_0, # of connection points: 2
#     Edge 31, Type (0, 0), BuildingBlock: EZIPEK_clean_linker_0, # of connection points: 2
#     Edge 32, Type (0, 0), BuildingBlock: EZIPEK_clean_linker_0, # of connection points: 2
#     Edge 33, Type (0, 0), BuildingBlock: EZIPEK_clean_linker_0, # of connection points: 2
#     Edge 34, Type (0, 0), BuildingBlock: EZIPEK_clean_linker_0, # of connection points: 2
#     Edge 35, Type (0, 0), BuildingBlock: EZIPEK_clean_linker_0, # of connection points: 2
#     Edge 36, Type (0, 0), BuildingBlock: EZIPEK_clean_linker_0, # of connection points: 2
#     Edge 37, Type (0, 0), BuildingBlock: EZIPEK_clean_linker_0, # of connection points: 2
#     Edge 38, Type (0, 0), BuildingBlock: EZIPEK_clean_linker_0, # of connection points: 2
#     Edge 39, Type (0, 0), BuildingBlock: EZIPEK_clean_linker_0, # of connection points: 2
#     Edge 40, Type (0, 0), BuildingBlock: EZIPEK_clean_linker_0, # of connection points: 2
#     Edge 41, Type (0, 0), BuildingBlock: EZIPEK_clean_linker_0, # of connection points: 2
#     Edge 42, Type (0, 0), BuildingBlock: EZIPEK_clean_linker_0, # of connection points: 2
#     Edge 43, Type (0, 0), BuildingBlock: EZIPEK_clean_linker_0, # of connection points: 2
#     Edge 44, Type (0, 0), BuildingBlock: EZIPEK_clean_linker_0, # of connection points: 2
#     Edge 45, Type (0, 0), BuildingBlock: EZIPEK_clean_linker_0, # of connection points: 2
#     Edge 46, Type (0, 0), BuildingBlock: EZIPEK_clean_linker_0, # of connection points: 2
#     Edge 47, Type (0, 0), BuildingBlock: EZIPEK_clean_linker_0, # of connection points: 2
# Relax obj value: 0.079
# Max RMSD: 0.208
# Mean RMSD: 0.208
data_MOF--net-umd--node1-GALJAG_clean_sbu_0--edge1-EZIPEK_clean_linker_0
_symmetry_space_group_name_H-M    P1
_symmetry_Int_Tables_number       1
_symmetry_cell_setting            triclinic
loop_
_symmetry_equiv_pos_as_xyz
'x, y, z'
_cell_length_a     29.284622
_cell_length_b     29.311627
_cell_length_c     41.923434
_cell_angle_alpha  89.975105
_cell_angle_beta   89.903272
_cell_angle_gamma 90.073599
loop_
_atom_site_label
_atom_site_type_symbol
_atom_site_fract_x
_atom_site_fract_y
_atom_site_fract_z
_atom_type_partial_charge
In0 In 0.18439 0.43208 0.12061 0.0
O1 O 0.18228 0.35431 0.11686 0.0
O2 O 0.24675 0.38747 0.12341 0.0
C3 C 0.09743 0.46046 0.11911 0.0
C4 C 0.21202 0.46065 0.06332 0.0
C5 C 0.20076 0.45651 0.18088 0.0
O6 O 0.10758 0.41849 0.11922 0.0
O7 O 0.13089 0.4876 0.119 0.0
O8 O 0.21929 0.47728 0.15775 0.0
O9 O 0.17516 0.42355 0.17347 0.0
C10 C 0.22512 0.35063 0.1197 0.0
O11 O 0.22753 0.47858 0.08854 0.0
O12 O 0.18329 0.42907 0.06721 0.0
In13 In 0.54237 0.18684 0.61588 0.0
O14 O 0.49561 0.21991 0.57847 0.0
O15 O 0.5522 0.17982 0.56279 0.0
C16 C 0.50695 0.20585 0.67322 0.0
C17 C 0.61883 0.23701 0.61943 0.0
C18 C 0.52584 0.09683 0.61668 0.0
O19 O 0.48792 0.21937 0.64783 0.0
O20 O 0.54344 0.18367 0.66956 0.0
O21 O 0.56607 0.11264 0.61653 0.0
O22 O 0.49441 0.12618 0.61649 0.0
C23 C 0.51827 0.20392 0.55531 0.0
O24 O 0.62003 0.19387 0.61943 0.0
O25 O 0.5795 0.25431 0.61744 0.0
In26 In 0.82948 0.56695 0.12824 0.0
O27 O 0.78282 0.52049 0.09876 0.0
O28 O 0.82967 0.56567 0.07518 0.0
C29 C 0.81296 0.55043 0.18984 0.0
C30 C 0.78734 0.647 0.12187 0.0
C31 C 0.91568 0.53648 0.12548 0.0
O32 O 0.80097 0.5227 0.16825 0.0
O33 O 0.83216 0.58637 0.18011 0.0
O34 O 0.90678 0.57865 0.12767 0.0
O35 O 0.88142 0.51041 0.12478 0.0
C36 C 0.79886 0.53577 0.07277 0.0
O37 O 0.83039 0.64401 0.1194 0.0
O38 O 0.76647 0.61033 0.12802 0.0
In39 In 0.44851 0.81841 0.61523 0.0
O40 O 0.37135 0.80816 0.61871 0.0
O41 O 0.41554 0.74974 0.61897 0.0
C42 C 0.47445 0.90624 0.61448 0.0
C43 C 0.46858 0.80031 0.55456 0.0
C44 C 0.47617 0.80387 0.67442 0.0
O45 O 0.43275 0.8947 0.61225 0.0
O46 O 0.50223 0.8736 0.61711 0.0
O47 O 0.49754 0.78672 0.65092 0.0
O48 O 0.44104 0.82701 0.66776 0.0
C49 C 0.3752 0.76505 0.6201 0.0
O50 O 0.49511 0.78803 0.57687 0.0
O51 O 0.43257 0.8205 0.56317 0.0
In52 In 0.1834 0.55501 0.36782 0.0
O53 O 0.19229 0.63287 0.36805 0.0
O54 O 0.25107 0.59079 0.36166 0.0
C55 C 0.09512 0.53158 0.36736 0.0
C56 C 0.19955 0.53737 0.42931 0.0
C57 C 0.19963 0.51932 0.31065 0.0
O58 O 0.10765 0.57284 0.36412 0.0
O59 O 0.12693 0.50291 0.37087 0.0
O60 O 0.21372 0.49978 0.33579 0.0
O61 O 0.17827 0.55631 0.31469 0.0
C62 C 0.23522 0.63059 0.36437 0.0
O63 O 0.22295 0.51849 0.40753 0.0
O64 O 0.16839 0.56362 0.41974 0.0
In65 In 0.43157 0.17809 0.86567 0.0
O66 O 0.47495 0.22543 0.89699 0.0
O67 O 0.43366 0.17381 0.91898 0.0
C68 C 0.45122 0.19751 0.80449 0.0
C69 C 0.3491 0.21567 0.87155 0.0
C70 C 0.46159 0.09169 0.86643 0.0
O71 O 0.47906 0.20602 0.82677 0.0
O72 O 0.4135 0.18117 0.81342 0.0
O73 O 0.41943 0.10099 0.86511 0.0
O74 O 0.48799 0.12565 0.86733 0.0
C75 C 0.4614 0.20634 0.92244 0.0
O76 O 0.35407 0.17274 0.87117 0.0
O77 O 0.38521 0.23894 0.86885 0.0
In78 In 0.8188 0.45126 0.37417 0.0
O79 O 0.80644 0.37404 0.37449 0.0
O80 O 0.75009 0.41829 0.36567 0.0
C81 C 0.90819 0.4696 0.3712 0.0
C82 C 0.80418 0.46599 0.43618 0.0
C83 C 0.80119 0.49327 0.31955 0.0
O84 O 0.89294 0.42994 0.36541 0.0
O85 O 0.87874 0.49909 0.37873 0.0
O86 O 0.78936 0.51077 0.34596 0.0
O87 O 0.82079 0.45498 0.32097 0.0
C88 C 0.76395 0.37795 0.36953 0.0
O89 O 0.78342 0.48912 0.41517 0.0
O90 O 0.83198 0.4368 0.42568 0.0
In91 In 0.55374 0.81911 0.86654 0.0
O92 O 0.50329 0.77739 0.89656 0.0
O93 O 0.55255 0.81972 0.91997 0.0
C94 C 0.53034 0.80418 0.80602 0.0
C95 C 0.63228 0.77273 0.86947 0.0
C96 C 0.53102 0.90757 0.86881 0.0
O97 O 0.5077 0.78719 0.82883 0.0
O98 O 0.56449 0.8279 0.81383 0.0
O99 O 0.5723 0.89485 0.86841 0.0
O100 O 0.50177 0.87595 0.86862 0.0
C101 C 0.52001 0.79174 0.92249 0.0
O102 O 0.63168 0.81573 0.87203 0.0
O103 O 0.59394 0.75405 0.86537 0.0
In104 In 0.81904 0.55714 0.88086 0.0
O105 O 0.80967 0.63469 0.88365 0.0
O106 O 0.75312 0.59337 0.86971 0.0
C107 C 0.90811 0.53691 0.88119 0.0
C108 C 0.7964 0.53613 0.94095 0.0
C109 C 0.80341 0.52027 0.82408 0.0
O110 O 0.89443 0.57761 0.87766 0.0
O111 O 0.87725 0.50724 0.88459 0.0
O112 O 0.78878 0.50162 0.8494 0.0
O113 O 0.8254 0.55703 0.82755 0.0
C114 C 0.76792 0.63274 0.87594 0.0
O115 O 0.77828 0.51571 0.91756 0.0
O116 O 0.8256 0.56607 0.93385 0.0
In117 In 0.45104 0.81771 0.3585 0.0
O118 O 0.49471 0.78277 0.39681 0.0
O119 O 0.44096 0.82831 0.41066 0.0
C120 C 0.47518 0.79826 0.29898 0.0
C121 C 0.37365 0.76948 0.35923 0.0
C122 C 0.48314 0.90375 0.35652 0.0
O123 O 0.49782 0.783 0.32249 0.0
O124 O 0.44011 0.82145 0.30586 0.0
O125 O 0.44101 0.8951 0.3606 0.0
O126 O 0.50814 0.86911 0.35283 0.0
C127 C 0.47256 0.80178 0.41922 0.0
O128 O 0.373 0.81273 0.35737 0.0
O129 O 0.41283 0.75148 0.36034 0.0
In130 In 0.17718 0.43418 0.87618 0.0
O131 O 0.22312 0.47983 0.90686 0.0
O132 O 0.17811 0.43223 0.92961 0.0
C133 C 0.1936 0.45628 0.81535 0.0
C134 C 0.21486 0.35116 0.87702 0.0
C135 C 0.09123 0.46551 0.87963 0.0
O136 O 0.21248 0.47754 0.83805 0.0
O137 O 0.16747 0.42405 0.82345 0.0
O138 O 0.10013 0.4233 0.88069 0.0
O139 O 0.12539 0.49153 0.87718 0.0
C140 C 0.20815 0.46276 0.93256 0.0
O141 O 0.17208 0.35634 0.87917 0.0
O142 O 0.23797 0.38731 0.87447 0.0
In143 In 0.55281 0.18395 0.36268 0.0
O144 O 0.6301 0.19313 0.3674 0.0
O145 O 0.58754 0.25237 0.36414 0.0
C146 C 0.53873 0.09344 0.35955 0.0
C147 C 0.52238 0.2023 0.42148 0.0
C148 C 0.52511 0.20007 0.30277 0.0
O149 O 0.57763 0.11089 0.35432 0.0
O150 O 0.50791 0.1215 0.36692 0.0
O151 O 0.49773 0.20305 0.3261 0.0
O152 O 0.56594 0.1919 0.31017 0.0
C153 C 0.62742 0.23628 0.36652 0.0
O154 O 0.50429 0.22068 0.3972 0.0
O155 O 0.55477 0.17508 0.41586 0.0
In156 In 0.82048 0.44057 0.63288 0.0
O157 O 0.80632 0.36445 0.6271 0.0
O158 O 0.75018 0.41028 0.63474 0.0
C159 C 0.90748 0.46676 0.63386 0.0
C160 C 0.80532 0.46152 0.57221 0.0
C161 C 0.80682 0.46237 0.69347 0.0
O162 O 0.89644 0.42485 0.63604 0.0
O163 O 0.87474 0.49467 0.63139 0.0
O164 O 0.7968 0.48994 0.67111 0.0
O165 O 0.82205 0.42394 0.68482 0.0
C166 C 0.76335 0.36987 0.6296 0.0
O167 O 0.78229 0.48028 0.59436 0.0
O168 O 0.83624 0.43441 0.58118 0.0
In169 In 0.56164 0.81293 0.10824 0.0
O170 O 0.63957 0.81633 0.10465 0.0
O171 O 0.608 0.75157 0.11253 0.0
C172 C 0.53597 0.90083 0.1056 0.0
C173 C 0.52941 0.78494 0.05202 0.0
C174 C 0.53419 0.79653 0.16805 0.0
O175 O 0.57753 0.88936 0.10695 0.0
O176 O 0.50781 0.86829 0.10512 0.0
O177 O 0.51608 0.77636 0.14461 0.0
O178 O 0.5659 0.82396 0.1612 0.0
C179 C 0.64442 0.77396 0.10891 0.0
O180 O 0.51224 0.77084 0.07788 0.0
O181 O 0.56266 0.812 0.05465 0.0
In182 In 0.18319 0.55073 0.62726 0.0
O183 O 0.21861 0.51138 0.58687 0.0
O184 O 0.17018 0.56361 0.57563 0.0
C185 C 0.19767 0.51546 0.68469 0.0
C186 C 0.23902 0.6232 0.62944 0.0
C187 C 0.09431 0.53054 0.62873 0.0
O188 O 0.21188 0.49531 0.65976 0.0
O189 O 0.17728 0.55294 0.68032 0.0
O190 O 0.10839 0.57119 0.63248 0.0
O191 O 0.12494 0.50095 0.62393 0.0
C192 C 0.19811 0.53425 0.56553 0.0
O193 O 0.19644 0.62757 0.62495 0.0
O194 O 0.25238 0.58294 0.63452 0.0
In195 In 0.44157 0.17318 0.11203 0.0
O196 O 0.48797 0.21404 0.07837 0.0
O197 O 0.4325 0.17575 0.05881 0.0
C198 C 0.47001 0.19289 0.17105 0.0
C199 C 0.36027 0.21421 0.1148 0.0
C200 C 0.46797 0.08556 0.10847 0.0
O201 O 0.48866 0.21051 0.14675 0.0
O202 O 0.43773 0.16553 0.16554 0.0
O203 O 0.42632 0.09661 0.11041 0.0
O204 O 0.49586 0.11836 0.10838 0.0
C205 C 0.46594 0.20192 0.05387 0.0
O206 O 0.36346 0.17139 0.11181 0.0
O207 O 0.3975 0.23568 0.11653 0.0
C208 C 0.03422 0.50587 0.09485 0.0
C209 C 0.04987 0.4774 0.11993 0.0
C210 C 0.97721 0.48714 0.14837 0.0
C211 C 0.9627 0.51803 0.12427 0.0
N212 N 0.97768 0.55975 0.0757 0.0
N213 N 0.03901 0.44372 0.17194 0.0
C214 C 0.99143 0.52847 0.09792 0.0
C215 C 0.02194 0.46838 0.14693 0.0
N216 N 0.05939 0.50937 0.0674 0.0
N217 N 0.94814 0.4758 0.17273 0.0
H218 H 0.07095 0.42812 0.17158 0.0
H219 H 0.02304 0.44095 0.19404 0.0
H220 H 0.91693 0.49196 0.17658 0.0
H221 H 0.95381 0.44899 0.1885 0.0
H222 H 0.04814 0.5257 0.04683 0.0
H223 H 0.09036 0.49246 0.06406 0.0
H224 H 0.99905 0.57314 0.05818 0.0
H225 H 0.94533 0.57451 0.07564 0.0
C226 C 0.47331 0.98344 0.64064 0.0
C227 C 0.4898 0.95451 0.61596 0.0
C228 C 0.53007 0.0193 0.59167 0.0
C229 C 0.51571 0.04742 0.6172 0.0
N230 N 0.48379 0.05401 0.66993 0.0
N231 N 0.54461 0.94272 0.57328 0.0
C232 C 0.49001 0.02891 0.6428 0.0
C233 C 0.52162 0.97165 0.59316 0.0
N234 N 0.44238 0.96741 0.66241 0.0
N235 N 0.54994 0.03826 0.56525 0.0
H236 H 0.54058 0.9075 0.57359 0.0
H237 H 0.57137 0.95331 0.55863 0.0
H238 H 0.55642 0.07311 0.56303 0.0
H239 H 0.55608 0.02005 0.54434 0.0
H240 H 0.42493 0.98846 0.67829 0.0
H241 H 0.43232 0.93336 0.66375 0.0
H242 H 0.46916 0.04109 0.69072 0.0
H243 H 0.49774 0.0865 0.67284 0.0
C244 C 0.01928 0.51978 0.3407 0.0
C245 C 0.04664 0.51716 0.36857 0.0
C246 C 0.98396 0.47955 0.39764 0.0
C247 C 0.95713 0.48162 0.36957 0.0
N248 N 0.95065 0.49501 0.31317 0.0
N249 N 0.05509 0.49915 0.42438 0.0
C250 C 0.97517 0.49939 0.34075 0.0
C251 C 0.0291 0.49789 0.39726 0.0
N252 N 0.03509 0.54263 0.31445 0.0
N253 N 0.96621 0.4593 0.42437 0.0
H254 H 0.08749 0.51387 0.42519 0.0
H255 H 0.0444 0.48793 0.44667 0.0
H256 H 0.93336 0.44551 0.42516 0.0
H257 H 0.98399 0.45396 0.44546 0.0
H258 H 0.01515 0.55012 0.29462 0.0
H259 H 0.06751 0.55721 0.31322 0.0
H260 H 0.9633 0.503 0.29064 0.0
H261 H 0.91853 0.47962 0.31242 0.0
C262 C 0.49162 0.97254 0.89559 0.0
C263 C 0.51704 0.956 0.86921 0.0
C264 C 0.50817 0.02936 0.84173 0.0
C265 C 0.47947 0.04452 0.86697 0.0
N266 N 0.4413 0.03059 0.91714 0.0
N267 N 0.54735 0.96625 0.81617 0.0
C268 C 0.47027 0.01601 0.89363 0.0
C269 C 0.52519 0.98391 0.84212 0.0
N270 N 0.48984 0.9474 0.92308 0.0
N271 N 0.51908 0.05844 0.81732 0.0
H272 H 0.56184 0.9338 0.81591 0.0
H273 H 0.5492 0.98241 0.7941 0.0
H274 H 0.5044 0.09058 0.81459 0.0
H275 H 0.54433 0.05185 0.80046 0.0
H276 H 0.47571 0.95901 0.94436 0.0
H277 H 0.5063 0.91605 0.92556 0.0
H278 H 0.42875 0.00955 0.93513 0.0
H279 H 0.42757 0.06336 0.91787 0.0
C280 C 0.97368 0.50263 0.85212 0.0
C281 C 0.95668 0.52364 0.88011 0.0
C282 C 0.02915 0.50898 0.90742 0.0
C283 C 0.0442 0.48373 0.88046 0.0
N284 N 0.02865 0.45075 0.82882 0.0
N285 N 0.96548 0.5441 0.93537 0.0
C286 C 0.0158 0.47878 0.85329 0.0
C287 C 0.98377 0.52639 0.90802 0.0
N288 N 0.95016 0.50688 0.82414 0.0
N289 N 0.05819 0.51615 0.93245 0.0
H290 H 0.93292 0.55847 0.93628 0.0
H291 H 0.98133 0.54234 0.95754 0.0
H292 H 0.09046 0.50128 0.93386 0.0
H293 H 0.05136 0.5386 0.95108 0.0
H294 H 0.96281 0.49623 0.80215 0.0
H295 H 0.91972 0.52518 0.82243 0.0
H296 H 0.00719 0.44206 0.80999 0.0
H297 H 0.05951 0.43309 0.8285 0.0
C298 C 0.49205 0.03012 0.33592 0.0
C299 C 0.52863 0.04401 0.35601 0.0
C300 C 0.53978 0.96472 0.37342 0.0
C301 C 0.50159 0.95117 0.35452 0.0
N302 N 0.44959 0.96816 0.3116 0.0
N303 N 0.5913 0.02476 0.39076 0.0
C304 C 0.47989 0.98317 0.33412 0.0
C305 C 0.5539 0.0113 0.37361 0.0
N306 N 0.4689 0.06196 0.31838 0.0
N307 N 0.5614 0.93362 0.39244 0.0
H308 H 0.59998 0.05874 0.39469 0.0
H309 H 0.61533 0.0024 0.40017 0.0
H310 H 0.55651 0.89863 0.39083 0.0
H311 H 0.58369 0.94218 0.41077 0.0
H312 H 0.43774 0.05576 0.30731 0.0
H313 H 0.48004 0.09551 0.31556 0.0
H314 H 0.43626 0.98857 0.29358 0.0
H315 H 0.44062 0.93399 0.30882 0.0
C316 C 0.97193 0.51201 0.65744 0.0
C317 C 0.95545 0.48277 0.63298 0.0
C318 C 0.02714 0.4925 0.60343 0.0
C319 C 0.04539 0.51754 0.62944 0.0
N320 N 0.03747 0.54669 0.68304 0.0
N321 N 0.96809 0.44194 0.58373 0.0
C322 C 0.01833 0.52648 0.65687 0.0
C323 C 0.9834 0.47181 0.60638 0.0
N324 N 0.94322 0.52619 0.68121 0.0
N325 N 0.0507 0.49061 0.57523 0.0
H326 H 0.93517 0.42839 0.58364 0.0
H327 H 0.98892 0.42821 0.56603 0.0
H328 H 0.08203 0.50685 0.57173 0.0
H329 H 0.03735 0.477 0.55429 0.0
H330 H 0.95147 0.55187 0.69736 0.0
H331 H 0.90978 0.5145 0.68368 0.0
H332 H 0.02129 0.54873 0.70512 0.0
H333 H 0.07107 0.55835 0.68367 0.0
C334 C 0.4775 0.01069 0.08032 0.0
C335 C 0.48369 0.03761 0.1081 0.0
C336 C 0.52522 0.97508 0.13412 0.0
C337 C 0.52064 0.94887 0.10583 0.0
N338 N 0.49809 0.94229 0.05081 0.0
N339 N 0.51294 0.04719 0.16135 0.0
C340 C 0.49806 0.96674 0.07863 0.0
C341 C 0.50758 0.02029 0.13495 0.0
N342 N 0.45183 0.02722 0.05565 0.0
N343 N 0.54471 0.95594 0.16059 0.0
H344 H 0.4961 0.07824 0.16416 0.0
H345 H 0.53466 0.03967 0.18022 0.0
H346 H 0.55936 0.92356 0.16064 0.0
H347 H 0.54471 0.9708 0.1831 0.0
H348 H 0.44178 0.00788 0.03608 0.0
H349 H 0.43805 0.06001 0.05547 0.0
H350 H 0.48603 0.9546 0.02914 0.0
H351 H 0.51348 0.91035 0.04868 0.0
C352 C 0.24431 0.49119 0.26309 0.0
C353 C 0.20193 0.49831 0.27876 0.0
C354 C 0.16099 0.48475 0.22916 0.0
C355 C 0.20263 0.47323 0.214 0.0
N356 N 0.2835 0.45868 0.21732 0.0
N357 N 0.12015 0.48867 0.27903 0.0
C358 C 0.24435 0.47451 0.23115 0.0
C359 C 0.16032 0.491 0.26248 0.0
N360 N 0.2842 0.50187 0.27819 0.0
N361 N 0.12245 0.49203 0.21156 0.0
H362 H 0.11878 0.49068 0.30385 0.0
H363 H 0.08925 0.47945 0.26852 0.0
H364 H 0.12231 0.49082 0.18671 0.0
H365 H 0.0922 0.50451 0.22133 0.0
H366 H 0.31583 0.50205 0.2668 0.0
H367 H 0.2853 0.51356 0.30168 0.0
H368 H 0.31398 0.45441 0.22973 0.0
H369 H 0.28462 0.44655 0.19393 0.0
C370 C 0.45642 0.17481 0.71532 0.0
C371 C 0.48587 0.21001 0.70502 0.0
C372 C 0.48545 0.24243 0.75883 0.0
C373 C 0.46271 0.20268 0.77017 0.0
N374 N 0.43637 0.12572 0.75919 0.0
N375 N 0.53178 0.27603 0.71685 0.0
C376 C 0.45038 0.16752 0.74841 0.0
C377 C 0.50137 0.24358 0.72674 0.0
N378 N 0.43461 0.14792 0.69352 0.0
N379 N 0.49022 0.27965 0.77816 0.0
H380 H 0.54232 0.27898 0.69314 0.0
H381 H 0.54836 0.29817 0.73245 0.0
H382 H 0.47714 0.28094 0.80128 0.0
H383 H 0.50292 0.31084 0.77016 0.0
H384 H 0.40952 0.12432 0.69984 0.0
H385 H 0.43836 0.15245 0.66898 0.0
H386 H 0.43137 0.0979 0.7441 0.0
H387 H 0.43522 0.11683 0.78323 0.0
C388 C 0.84382 0.54856 0.24561 0.0
C389 C 0.80693 0.54087 0.22423 0.0
C390 C 0.76181 0.50786 0.26777 0.0
C391 C 0.79804 0.51748 0.28899 0.0
N392 N 0.86679 0.55924 0.3005 0.0
N393 N 0.72659 0.52496 0.21692 0.0
C394 C 0.83664 0.54229 0.27868 0.0
C395 C 0.76451 0.52403 0.23586 0.0
N396 N 0.88666 0.5582 0.23441 0.0
N397 N 0.72547 0.48241 0.2779 0.0
H398 H 0.72678 0.53848 0.19391 0.0
H399 H 0.69403 0.51675 0.22516 0.0
H400 H 0.72164 0.47204 0.30158 0.0
H401 H 0.7006 0.46969 0.26254 0.0
H402 H 0.91534 0.55942 0.24907 0.0
H403 H 0.89489 0.55983 0.21026 0.0
H404 H 0.89349 0.58114 0.29442 0.0
H405 H 0.8623 0.55498 0.32502 0.0
C406 C 0.50466 0.84377 0.75711 0.0
C407 C 0.51496 0.80222 0.77268 0.0
C408 C 0.49866 0.76002 0.7236 0.0
C409 C 0.49325 0.8022 0.70742 0.0
N410 N 0.50279 0.8841 0.70703 0.0
N411 N 0.52807 0.72109 0.77037 0.0
C412 C 0.49972 0.84407 0.72367 0.0
C413 C 0.51371 0.76027 0.75587 0.0
N414 N 0.49764 0.88265 0.77443 0.0
N415 N 0.48772 0.72006 0.70867 0.0
H416 H 0.53883 0.7201 0.79407 0.0
H417 H 0.53251 0.69038 0.75828 0.0
H418 H 0.47661 0.71863 0.68507 0.0
H419 H 0.48634 0.68874 0.72036 0.0
H420 H 0.48583 0.91295 0.76439 0.0
H421 H 0.49856 0.88323 0.79929 0.0
H422 H 0.51166 0.91505 0.71758 0.0
H423 H 0.50164 0.88553 0.68221 0.0
C424 C 0.76367 0.51273 0.77161 0.0
C425 C 0.79909 0.49917 0.79247 0.0
C426 C 0.84024 0.46375 0.7485 0.0
C427 C 0.80348 0.47456 0.72766 0.0
N428 N 0.72517 0.49903 0.72143 0.0
N429 N 0.86392 0.45116 0.80302 0.0
C430 C 0.76362 0.49615 0.73975 0.0
C431 C 0.8349 0.47096 0.78164 0.0
N432 N 0.73059 0.54198 0.78206 0.0
N433 N 0.88146 0.44969 0.73669 0.0
H434 H 0.86081 0.45583 0.8276 0.0
H435 H 0.88809 0.42677 0.79658 0.0
H436 H 0.8885 0.44646 0.71245 0.0
H437 H 0.91047 0.44618 0.75084 0.0
H438 H 0.70695 0.55728 0.76692 0.0
H439 H 0.72853 0.55301 0.80569 0.0
H440 H 0.69397 0.5107 0.73013 0.0
H441 H 0.72305 0.48538 0.69852 0.0
C442 C 0.50051 0.75337 0.25065 0.0
C443 C 0.49166 0.79583 0.26572 0.0
C444 C 0.50106 0.83534 0.21496 0.0
C445 C 0.51573 0.7942 0.20071 0.0
N446 N 0.53483 0.71449 0.20543 0.0
N447 N 0.49637 0.87816 0.26376 0.0
C448 C 0.51686 0.75313 0.2186 0.0
C449 C 0.49553 0.83712 0.24831 0.0
N450 N 0.49192 0.71351 0.26646 0.0
N451 N 0.491 0.87245 0.19653 0.0
H452 H 0.49604 0.88085 0.28853 0.0
H453 H 0.50315 0.90894 0.25221 0.0
H454 H 0.49242 0.87167 0.17167 0.0
H455 H 0.47628 0.90205 0.20569 0.0
H456 H 0.49336 0.68161 0.25558 0.0
H457 H 0.47978 0.71254 0.28986 0.0
H458 H 0.54103 0.68485 0.21842 0.0
H459 H 0.5466 0.71315 0.18195 0.0
C460 C 0.15544 0.48119 0.76548 0.0
C461 C 0.19656 0.47125 0.78179 0.0
C462 C 0.24036 0.48881 0.73339 0.0
C463 C 0.1987 0.4947 0.71671 0.0
N464 N 0.11723 0.48335 0.71461 0.0
N465 N 0.27786 0.45816 0.78036 0.0
C466 C 0.15642 0.48673 0.73208 0.0
C467 C 0.23911 0.47294 0.76553 0.0
N468 N 0.11578 0.48789 0.78206 0.0
N469 N 0.28077 0.49985 0.719 0.0
H470 H 0.27806 0.4463 0.80383 0.0
H471 H 0.30902 0.45427 0.76867 0.0
H472 H 0.28281 0.51071 0.69534 0.0
H473 H 0.31179 0.50106 0.73108 0.0
H474 H 0.08574 0.49925 0.77141 0.0
H475 H 0.11431 0.48745 0.80691 0.0
H476 H 0.086 0.47355 0.72443 0.0
H477 H 0.11711 0.48522 0.68977 0.0
C478 C 0.48101 0.23425 0.25671 0.0
C479 C 0.51046 0.19997 0.26893 0.0
C480 C 0.5212 0.16965 0.21507 0.0
C481 C 0.48725 0.19961 0.20368 0.0
N482 N 0.4305 0.2573 0.21373 0.0
N483 N 0.54801 0.12725 0.26048 0.0
C484 C 0.46575 0.23103 0.22454 0.0
C485 C 0.52787 0.16556 0.24832 0.0
N486 N 0.46919 0.27074 0.27521 0.0
N487 N 0.54715 0.14502 0.19417 0.0
H488 H 0.55038 0.12055 0.28483 0.0
H489 H 0.55718 0.09942 0.24641 0.0
H490 H 0.54341 0.1475 0.16948 0.0
H491 H 0.57526 0.12576 0.20126 0.0
H492 H 0.45139 0.29883 0.2665 0.0
H493 H 0.48078 0.275 0.29852 0.0
H494 H 0.4101 0.27704 0.22869 0.0
H495 H 0.41987 0.25707 0.18998 0.0
C496 C 0.2553 0.44583 0.97986 0.0
C497 C 0.22462 0.47571 0.96441 0.0
C498 C 0.20355 0.5099 0.01552 0.0
C499 C 0.22661 0.47374 0.031 0.0
N500 N 0.27832 0.4101 0.0296 0.0
N501 N 0.17366 0.5398 0.96558 0.0
C502 C 0.25465 0.44317 0.01366 0.0
C503 C 0.20086 0.50975 0.98166 0.0
N504 N 0.28397 0.41947 0.96192 0.0
N505 N 0.18311 0.5431 0.03339 0.0
H506 H 0.17287 0.54117 0.9407 0.0
H507 H 0.15136 0.56254 0.97652 0.0
H508 H 0.18464 0.54327 0.05826 0.0
H509 H 0.16763 0.57195 0.02387 0.0
H510 H 0.30925 0.39861 0.97141 0.0
H511 H 0.28459 0.42136 0.93705 0.0
H512 H 0.2953 0.38328 0.01851 0.0
H513 H 0.27987 0.40897 0.05447 0.0
C514 C 0.51873 0.24982 0.47119 0.0
C515 C 0.50637 0.20954 0.45456 0.0
C516 C 0.48868 0.17074 0.50476 0.0
C517 C 0.50504 0.20942 0.52154 0.0
N518 N 0.52567 0.28886 0.52227 0.0
N519 N 0.46746 0.13741 0.45379 0.0
C520 C 0.51628 0.25028 0.50518 0.0
C521 C 0.48714 0.17189 0.47091 0.0
N522 N 0.53512 0.28642 0.45451 0.0
N523 N 0.47651 0.13234 0.52129 0.0
H524 H 0.46551 0.13815 0.42893 0.0
H525 H 0.4497 0.11029 0.46396 0.0
H526 H 0.47465 0.13146 0.54615 0.0
H527 H 0.46969 0.101 0.51067 0.0
H528 H 0.54951 0.31521 0.46494 0.0
H529 H 0.53539 0.28746 0.42964 0.0
H530 H 0.53137 0.32075 0.51214 0.0
H531 H 0.52477 0.28961 0.54714 0.0
C532 C 0.79797 0.48697 0.02412 0.0
C533 C 0.78036 0.52461 0.04121 0.0
C534 C 0.76352 0.56497 0.99207 0.0
C535 C 0.78317 0.52844 0.9745 0.0
N536 N 0.8087 0.45019 0.97272 0.0
N537 N 0.73142 0.58998 0.04244 0.0
C538 C 0.79624 0.48751 0.99017 0.0
C539 C 0.75743 0.56007 0.02531 0.0
N540 N 0.81894 0.4525 0.04036 0.0
N541 N 0.75376 0.60553 0.97754 0.0
H542 H 0.72716 0.58667 0.06708 0.0
H543 H 0.71077 0.61472 0.03197 0.0
H544 H 0.75926 0.61131 0.95337 0.0
H545 H 0.74395 0.63472 0.98993 0.0
H546 H 0.83744 0.42653 0.02943 0.0
H547 H 0.81892 0.45101 0.06525 0.0
H548 H 0.81515 0.41835 0.98275 0.0
H549 H 0.8093 0.45013 0.94786 0.0
C550 C 0.48693 0.83978 0.50365 0.0
C551 C 0.48089 0.79818 0.52046 0.0
C552 C 0.47873 0.75597 0.46997 0.0
C553 C 0.48426 0.79783 0.45338 0.0
N554 N 0.50604 0.87702 0.45402 0.0
N555 N 0.48007 0.71601 0.52085 0.0
C556 C 0.49271 0.83881 0.47022 0.0
C557 C 0.48036 0.75591 0.50399 0.0
N558 N 0.48468 0.88059 0.5194 0.0
N559 N 0.46872 0.71708 0.45341 0.0
H560 H 0.47954 0.71506 0.54571 0.0
H561 H 0.48376 0.68402 0.51038 0.0
H562 H 0.46781 0.71589 0.42857 0.0
H563 H 0.45879 0.68663 0.46417 0.0
H564 H 0.48281 0.91206 0.50794 0.0
H565 H 0.48134 0.88317 0.54403 0.0
H566 H 0.51787 0.90658 0.46506 0.0
H567 H 0.50909 0.87761 0.42933 0.0
C568 C 0.20571 0.49113 0.4798 0.0
C569 C 0.2097 0.53369 0.46379 0.0
C570 C 0.21992 0.57263 0.51496 0.0
C571 C 0.20861 0.53155 0.53106 0.0
N572 N 0.18833 0.45186 0.52941 0.0
N573 N 0.21925 0.61571 0.46597 0.0
C574 C 0.20184 0.49051 0.51373 0.0
C575 C 0.21702 0.57453 0.48133 0.0
N576 N 0.20431 0.45153 0.46263 0.0
N577 N 0.23376 0.61002 0.53192 0.0
H578 H 0.2201 0.61917 0.44129 0.0
H579 H 0.21751 0.64702 0.47764 0.0
H580 H 0.23408 0.6111 0.55671 0.0
H581 H 0.24849 0.6388 0.52155 0.0
H582 H 0.2063 0.41928 0.47293 0.0
H583 H 0.20456 0.4507 0.4378 0.0
H584 H 0.17737 0.42234 0.51794 0.0
H585 H 0.18507 0.45007 0.55414 0.0
C586 C 0.51101 0.1972 0.96981 0.0
C587 C 0.47504 0.22088 0.95465 0.0
C588 C 0.447 0.24811 0.00618 0.0
C589 C 0.47709 0.21713 0.02128 0.0
N590 N 0.54072 0.1654 0.01916 0.0
N591 N 0.41255 0.27378 0.95654 0.0
C592 C 0.51092 0.19353 0.00363 0.0
C593 C 0.44476 0.24877 0.97232 0.0
N594 N 0.54425 0.17745 0.95157 0.0
N595 N 0.42017 0.2759 0.02448 0.0
H596 H 0.41189 0.27609 0.93169 0.0
H597 H 0.38624 0.29155 0.96763 0.0
H598 H 0.42185 0.27584 0.04936 0.0
H599 H 0.39871 0.30096 0.0154 0.0
H600 H 0.57322 0.1618 0.9608 0.0
H601 H 0.54441 0.18003 0.92673 0.0
H602 H 0.56313 0.14326 0.00773 0.0
H603 H 0.54214 0.16333 0.04399 0.0
C604 C 0.80125 0.50932 0.48814 0.0
C605 C 0.79415 0.46844 0.47069 0.0
C606 C 0.78659 0.42498 0.52019 0.0
C607 C 0.79442 0.46563 0.53788 0.0
N608 N 0.79965 0.54779 0.53943 0.0
N609 N 0.76821 0.39029 0.4696 0.0
C610 C 0.79801 0.50837 0.52208 0.0
C611 C 0.78288 0.4273 0.48663 0.0
N612 N 0.8144 0.54815 0.47252 0.0
N613 N 0.78465 0.38356 0.53526 0.0
H614 H 0.767 0.38972 0.44481 0.0
H615 H 0.75359 0.36147 0.47998 0.0
H616 H 0.78411 0.37967 0.55992 0.0
H617 H 0.78615 0.35246 0.52332 0.0
H618 H 0.82553 0.57757 0.48403 0.0
H619 H 0.81715 0.5502 0.44777 0.0
H620 H 0.79741 0.58014 0.52931 0.0
H621 H 0.79983 0.54837 0.56427 0.0
C622 C 0.53111 0.73905 0.00213 0.0
C623 C 0.5106 0.774 0.02047 0.0
C624 C 0.4786 0.80884 0.97261 0.0
C625 C 0.50394 0.77738 0.95417 0.0
N626 N 0.54053 0.70449 0.94979 0.0
N627 N 0.45447 0.83329 0.02546 0.0
C628 C 0.52517 0.73933 0.96853 0.0
C629 C 0.48027 0.80566 0.00638 0.0
N630 N 0.55852 0.70769 0.01673 0.0
N631 N 0.45532 0.84301 0.95761 0.0
H632 H 0.4555 0.8311 0.0503 0.0
H633 H 0.42986 0.85579 0.017 0.0
H634 H 0.45218 0.84424 0.93281 0.0
H635 H 0.44003 0.8703 0.96933 0.0
H636 H 0.57883 0.68441 0.00448 0.0
H637 H 0.5619 0.70607 0.04149 0.0
H638 H 0.55388 0.67418 0.95871 0.0
H639 H 0.53635 0.70473 0.92506 0.0
C640 C 0.26146 0.28797 0.0887 0.0
C641 C 0.24933 0.30666 0.1187 0.0
C642 C 0.29896 0.25203 0.14597 0.0
C643 C 0.31643 0.23863 0.11591 0.0
N644 N 0.31486 0.24137 0.05854 0.0
N645 N 0.25363 0.30655 0.17603 0.0
C646 C 0.29717 0.25521 0.08716 0.0
C647 C 0.2667 0.28815 0.14747 0.0
N648 N 0.23934 0.30228 0.0618 0.0
N649 N 0.31367 0.23027 0.17292 0.0
H650 H 0.22829 0.33143 0.17786 0.0
H651 H 0.26866 0.29853 0.19778 0.0
H652 H 0.33739 0.20372 0.17224 0.0
H653 H 0.30015 0.23581 0.19554 0.0
H654 H 0.24389 0.28776 0.03939 0.0
H655 H 0.2136 0.32685 0.0623 0.0
H656 H 0.30647 0.25595 0.0367 0.0
H657 H 0.33971 0.21602 0.05673 0.0
C658 C 0.69675 0.33571 0.60046 0.0
C659 C 0.72986 0.33241 0.62519 0.0
C660 C 0.69156 0.26377 0.64571 0.0
C661 C 0.6602 0.26604 0.61996 0.0
N662 N 0.64115 0.29587 0.56812 0.0
N663 N 0.76316 0.28953 0.66852 0.0
C664 C 0.66536 0.29949 0.5959 0.0
C665 C 0.729 0.29487 0.64666 0.0
N666 N 0.69419 0.37383 0.58173 0.0
N667 N 0.6839 0.2341 0.67033 0.0
H668 H 0.78935 0.31318 0.67168 0.0
H669 H 0.76721 0.26013 0.68218 0.0
H670 H 0.65668 0.21118 0.67078 0.0
H671 H 0.70235 0.23455 0.69153 0.0
H672 H 0.66721 0.38005 0.56617 0.0
H673 H 0.71684 0.40111 0.58321 0.0
H674 H 0.64694 0.31661 0.54833 0.0
H675 H 0.61878 0.26893 0.56352 0.0
C676 C 0.74349 0.71139 0.14547 0.0
C677 C 0.7618 0.68993 0.11802 0.0
C678 C 0.70946 0.73227 0.08358 0.0
C679 C 0.68938 0.7517 0.11119 0.0
N680 N 0.6931 0.76951 0.16715 0.0
N681 N 0.77158 0.68759 0.06109 0.0
C682 C 0.70861 0.74462 0.14177 0.0
C683 C 0.74804 0.70327 0.08703 0.0
N684 N 0.75822 0.69837 0.17503 0.0
N685 N 0.69014 0.73978 0.05438 0.0
H686 H 0.7997 0.66598 0.06317 0.0
H687 H 0.76572 0.69859 0.03785 0.0
H688 H 0.66288 0.76219 0.05105 0.0
H689 H 0.69957 0.72249 0.03372 0.0
H690 H 0.74274 0.70835 0.19626 0.0
H691 H 0.7855 0.67595 0.17827 0.0
H692 H 0.70793 0.76882 0.18968 0.0
H693 H 0.66733 0.79388 0.165 0.0
C694 C 0.30692 0.65942 0.60284 0.0
C695 C 0.27178 0.66162 0.62631 0.0
C696 C 0.30301 0.73454 0.64545 0.0
C697 C 0.33582 0.7334 0.62052 0.0
N698 N 0.3599 0.70211 0.57011 0.0
N699 N 0.23258 0.7041 0.66745 0.0
C700 C 0.33494 0.69806 0.59759 0.0
C701 C 0.26828 0.7004 0.64657 0.0
N702 N 0.31464 0.62034 0.58587 0.0
N703 N 0.30667 0.76635 0.66915 0.0
H704 H 0.2086 0.67829 0.67101 0.0
H705 H 0.22524 0.73388 0.67998 0.0
H706 H 0.3317 0.79166 0.6693 0.0
H707 H 0.28713 0.76569 0.68991 0.0
H708 H 0.34339 0.61572 0.57154 0.0
H709 H 0.29476 0.59103 0.58764 0.0
H710 H 0.3569 0.67958 0.55101 0.0
H711 H 0.37967 0.73082 0.56487 0.0
C712 C 0.32989 0.71175 0.38985 0.0
C713 C 0.3322 0.741 0.36305 0.0
C714 C 0.26333 0.70494 0.34112 0.0
C715 C 0.26592 0.67092 0.36525 0.0
N716 N 0.30545 0.63919 0.41094 0.0
N717 N 0.30307 0.76475 0.31198 0.0
C718 C 0.30014 0.67363 0.38924 0.0
C719 C 0.29895 0.73805 0.33857 0.0
N720 N 0.35564 0.72109 0.41626 0.0
N721 N 0.22765 0.70494 0.32015 0.0
H722 H 0.32842 0.78949 0.30941 0.0
H723 H 0.28332 0.76051 0.29157 0.0
H724 H 0.20253 0.67973 0.31989 0.0
H725 H 0.2212 0.73156 0.30434 0.0
H726 H 0.35218 0.70365 0.43779 0.0
H727 H 0.37694 0.74958 0.41778 0.0
H728 H 0.3333 0.63699 0.42629 0.0
H729 H 0.28424 0.61075 0.41215 0.0
C730 C 0.29223 0.25649 0.90487 0.0
C731 C 0.30445 0.23828 0.8748 0.0
C732 C 0.24362 0.28202 0.84908 0.0
C733 C 0.23752 0.30634 0.87794 0.0
N734 N 0.25209 0.31585 0.93402 0.0
N735 N 0.29105 0.2298 0.81852 0.0
C736 C 0.26009 0.2927 0.90626 0.0
C737 C 0.27919 0.24914 0.84702 0.0
N738 N 0.31178 0.23913 0.93185 0.0
N739 N 0.21592 0.29118 0.82367 0.0
H740 H 0.31569 0.20424 0.81672 0.0
H741 H 0.27779 0.2398 0.79661 0.0
H742 H 0.18994 0.31547 0.8247 0.0
H743 H 0.21611 0.27261 0.80253 0.0
H744 H 0.30236 0.24843 0.95488 0.0
H745 H 0.33529 0.2124 0.93114 0.0
H746 H 0.271 0.31145 0.95478 0.0
H747 H 0.22693 0.3409 0.93596 0.0
C748 C 0.66687 0.29923 0.39472 0.0
C749 C 0.66732 0.26691 0.36975 0.0
C750 C 0.73658 0.30243 0.34783 0.0
C751 C 0.73181 0.33872 0.37013 0.0
N752 N 0.68733 0.37483 0.41204 0.0
N753 N 0.70004 0.23887 0.32077 0.0
C754 C 0.69554 0.33807 0.3928 0.0
C755 C 0.7019 0.26829 0.34603 0.0
N756 N 0.63982 0.29199 0.42086 0.0
N757 N 0.77346 0.30115 0.32783 0.0
H758 H 0.67544 0.21329 0.31877 0.0
H759 H 0.72088 0.24161 0.30072 0.0
H760 H 0.7976 0.32722 0.32645 0.0
H761 H 0.7816 0.27298 0.31382 0.0
H762 H 0.64136 0.31197 0.44138 0.0
H763 H 0.61962 0.26285 0.42344 0.0
H764 H 0.65809 0.37785 0.42607 0.0
H765 H 0.70739 0.40412 0.41235 0.0
C766 C 0.74425 0.71001 0.85533 0.0
C767 C 0.73707 0.67273 0.87652 0.0
C768 C 0.67117 0.71194 0.89946 0.0
C769 C 0.67329 0.74458 0.87479 0.0
N770 N 0.71049 0.77507 0.82818 0.0
N771 N 0.68832 0.63516 0.91549 0.0
C772 C 0.70993 0.74432 0.85268 0.0
C773 C 0.69915 0.67284 0.89777 0.0
N774 N 0.78297 0.71197 0.83714 0.0
N775 N 0.64266 0.71878 0.92485 0.0
H776 H 0.70698 0.60502 0.91514 0.0
H777 H 0.65811 0.63236 0.92852 0.0
H778 H 0.62258 0.74802 0.92708 0.0
H779 H 0.64296 0.6983 0.94519 0.0
H780 H 0.79233 0.7405 0.82384 0.0
H781 H 0.80734 0.6861 0.83679 0.0
H782 H 0.73317 0.77341 0.80908 0.0
H783 H 0.68637 0.80104 0.82603 0.0
loop_
_geom_bond_atom_site_label_1
_geom_bond_atom_site_label_2
_geom_bond_distance
_geom_bond_site_symmetry_2
_ccdc_geom_bond_type
In0 O1 2.294 . S
In0 O2 2.326 . S
In0 O6 2.266 . S
In0 O7 2.326 . S
In0 O8 2.266 . S
In0 O9 2.326 . S
In0 O11 2.294 . S
In0 O12 2.326 . S
O1 In0 2.294 . S
O1 C10 1.240 . S
O2 In0 2.326 . S
O2 C10 1.252 . S
C3 O6 1.252 . S
C3 O7 1.260 . S
C4 O11 1.240 . S
C4 O12 1.252 . S
C5 O8 1.252 . S
C5 O9 1.260 . S
O6 In0 2.266 . S
O6 C3 1.252 . S
O7 In0 2.326 . S
O7 C3 1.260 . S
O8 In0 2.266 . S
O8 C5 1.252 . S
O9 In0 2.326 . S
O9 C5 1.260 . S
C10 O1 1.240 . S
C10 O2 1.252 . S
O11 In0 2.294 . S
O11 C4 1.240 . S
O12 In0 2.326 . S
O12 C4 1.252 . S
In13 O14 2.294 . S
In13 O15 2.326 . S
In13 O19 2.266 . S
In13 O20 2.326 . S
In13 O21 2.266 . S
In13 O22 2.326 . S
In13 O24 2.294 . S
In13 O25 2.326 . S
O14 In13 2.294 . S
O14 C23 1.240 . S
O15 In13 2.326 . S
O15 C23 1.252 . S
C16 O19 1.252 . S
C16 O20 1.260 . S
C17 O24 1.240 . S
C17 O25 1.252 . S
C18 O21 1.252 . S
C18 O22 1.260 . S
O19 In13 2.266 . S
O19 C16 1.252 . S
O20 In13 2.326 . S
O20 C16 1.260 . S
O21 In13 2.266 . S
O21 C18 1.252 . S
O22 In13 2.326 . S
O22 C18 1.260 . S
C23 O14 1.240 . S
C23 O15 1.252 . S
O24 In13 2.294 . S
O24 C17 1.240 . S
O25 In13 2.326 . S
O25 C17 1.252 . S
In26 O27 2.294 . S
In26 O28 2.326 . S
In26 O32 2.266 . S
In26 O33 2.326 . S
In26 O34 2.266 . S
In26 O35 2.326 . S
In26 O37 2.294 . S
In26 O38 2.326 . S
O27 In26 2.294 . S
O27 C36 1.240 . S
O28 In26 2.326 . S
O28 C36 1.252 . S
C29 O32 1.252 . S
C29 O33 1.260 . S
C30 O37 1.240 . S
C30 O38 1.252 . S
C31 O34 1.252 . S
C31 O35 1.260 . S
O32 In26 2.266 . S
O32 C29 1.252 . S
O33 In26 2.326 . S
O33 C29 1.260 . S
O34 In26 2.266 . S
O34 C31 1.252 . S
O35 In26 2.326 . S
O35 C31 1.260 . S
C36 O27 1.240 . S
C36 O28 1.252 . S
O37 In26 2.294 . S
O37 C30 1.240 . S
O38 In26 2.326 . S
O38 C30 1.252 . S
In39 O40 2.294 . S
In39 O41 2.326 . S
In39 O45 2.266 . S
In39 O46 2.326 . S
In39 O47 2.266 . S
In39 O48 2.326 . S
In39 O50 2.294 . S
In39 O51 2.326 . S
O40 In39 2.294 . S
O40 C49 1.240 . S
O41 In39 2.326 . S
O41 C49 1.252 . S
C42 O45 1.252 . S
C42 O46 1.260 . S
C43 O50 1.240 . S
C43 O51 1.252 . S
C44 O47 1.252 . S
C44 O48 1.260 . S
O45 In39 2.266 . S
O45 C42 1.252 . S
O46 In39 2.326 . S
O46 C42 1.260 . S
O47 In39 2.266 . S
O47 C44 1.252 . S
O48 In39 2.326 . S
O48 C44 1.260 . S
C49 O40 1.240 . S
C49 O41 1.252 . S
O50 In39 2.294 . S
O50 C43 1.240 . S
O51 In39 2.326 . S
O51 C43 1.252 . S
In52 O53 2.294 . S
In52 O54 2.326 . S
In52 O58 2.266 . S
In52 O59 2.326 . S
In52 O60 2.266 . S
In52 O61 2.326 . S
In52 O63 2.294 . S
In52 O64 2.326 . S
O53 In52 2.294 . S
O53 C62 1.240 . S
O54 In52 2.326 . S
O54 C62 1.252 . S
C55 O58 1.252 . S
C55 O59 1.260 . S
C56 O63 1.240 . S
C56 O64 1.252 . S
C57 O60 1.252 . S
C57 O61 1.260 . S
O58 In52 2.266 . S
O58 C55 1.252 . S
O59 In52 2.326 . S
O59 C55 1.260 . S
O60 In52 2.266 . S
O60 C57 1.252 . S
O61 In52 2.326 . S
O61 C57 1.260 . S
C62 O53 1.240 . S
C62 O54 1.252 . S
O63 In52 2.294 . S
O63 C56 1.240 . S
O64 In52 2.326 . S
O64 C56 1.252 . S
In65 O66 2.294 . S
In65 O67 2.326 . S
In65 O71 2.266 . S
In65 O72 2.326 . S
In65 O73 2.266 . S
In65 O74 2.326 . S
In65 O76 2.294 . S
In65 O77 2.326 . S
O66 In65 2.294 . S
O66 C75 1.240 . S
O67 In65 2.326 . S
O67 C75 1.252 . S
C68 O71 1.252 . S
C68 O72 1.260 . S
C69 O76 1.240 . S
C69 O77 1.252 . S
C70 O73 1.252 . S
C70 O74 1.260 . S
O71 In65 2.266 . S
O71 C68 1.252 . S
O72 In65 2.326 . S
O72 C68 1.260 . S
O73 In65 2.266 . S
O73 C70 1.252 . S
O74 In65 2.326 . S
O74 C70 1.260 . S
C75 O66 1.240 . S
C75 O67 1.252 . S
O76 In65 2.294 . S
O76 C69 1.240 . S
O77 In65 2.326 . S
O77 C69 1.252 . S
In78 O79 2.294 . S
In78 O80 2.326 . S
In78 O84 2.266 . S
In78 O85 2.326 . S
In78 O86 2.266 . S
In78 O87 2.326 . S
In78 O89 2.294 . S
In78 O90 2.326 . S
O79 In78 2.294 . S
O79 C88 1.240 . S
O80 In78 2.326 . S
O80 C88 1.252 . S
C81 O84 1.252 . S
C81 O85 1.260 . S
C82 O89 1.240 . S
C82 O90 1.252 . S
C83 O86 1.252 . S
C83 O87 1.260 . S
O84 In78 2.266 . S
O84 C81 1.252 . S
O85 In78 2.326 . S
O85 C81 1.260 . S
O86 In78 2.266 . S
O86 C83 1.252 . S
O87 In78 2.326 . S
O87 C83 1.260 . S
C88 O79 1.240 . S
C88 O80 1.252 . S
O89 In78 2.294 . S
O89 C82 1.240 . S
O90 In78 2.326 . S
O90 C82 1.252 . S
In91 O92 2.294 . S
In91 O93 2.326 . S
In91 O97 2.266 . S
In91 O98 2.326 . S
In91 O99 2.266 . S
In91 O100 2.326 . S
In91 O102 2.294 . S
In91 O103 2.326 . S
O92 In91 2.294 . S
O92 C101 1.240 . S
O93 In91 2.326 . S
O93 C101 1.252 . S
C94 O97 1.252 . S
C94 O98 1.260 . S
C95 O102 1.240 . S
C95 O103 1.252 . S
C96 O99 1.252 . S
C96 O100 1.260 . S
O97 In91 2.266 . S
O97 C94 1.252 . S
O98 In91 2.326 . S
O98 C94 1.260 . S
O99 In91 2.266 . S
O99 C96 1.252 . S
O100 In91 2.326 . S
O100 C96 1.260 . S
C101 O92 1.240 . S
C101 O93 1.252 . S
O102 In91 2.294 . S
O102 C95 1.240 . S
O103 In91 2.326 . S
O103 C95 1.252 . S
In104 O105 2.294 . S
In104 O106 2.326 . S
In104 O110 2.266 . S
In104 O111 2.326 . S
In104 O112 2.266 . S
In104 O113 2.326 . S
In104 O115 2.294 . S
In104 O116 2.326 . S
O105 In104 2.294 . S
O105 C114 1.240 . S
O106 In104 2.326 . S
O106 C114 1.252 . S
C107 O110 1.252 . S
C107 O111 1.260 . S
C108 O115 1.240 . S
C108 O116 1.252 . S
C109 O112 1.252 . S
C109 O113 1.260 . S
O110 In104 2.266 . S
O110 C107 1.252 . S
O111 In104 2.326 . S
O111 C107 1.260 . S
O112 In104 2.266 . S
O112 C109 1.252 . S
O113 In104 2.326 . S
O113 C109 1.260 . S
C114 O105 1.240 . S
C114 O106 1.252 . S
O115 In104 2.294 . S
O115 C108 1.240 . S
O116 In104 2.326 . S
O116 C108 1.252 . S
In117 O118 2.294 . S
In117 O119 2.326 . S
In117 O123 2.266 . S
In117 O124 2.326 . S
In117 O125 2.266 . S
In117 O126 2.326 . S
In117 O128 2.294 . S
In117 O129 2.326 . S
O118 In117 2.294 . S
O118 C127 1.240 . S
O119 In117 2.326 . S
O119 C127 1.252 . S
C120 O123 1.252 . S
C120 O124 1.260 . S
C121 O128 1.240 . S
C121 O129 1.252 . S
C122 O125 1.252 . S
C122 O126 1.260 . S
O123 In117 2.266 . S
O123 C120 1.252 . S
O124 In117 2.326 . S
O124 C120 1.260 . S
O125 In117 2.266 . S
O125 C122 1.252 . S
O126 In117 2.326 . S
O126 C122 1.260 . S
C127 O118 1.240 . S
C127 O119 1.252 . S
O128 In117 2.294 . S
O128 C121 1.240 . S
O129 In117 2.326 . S
O129 C121 1.252 . S
In130 O131 2.294 . S
In130 O132 2.326 . S
In130 O136 2.266 . S
In130 O137 2.326 . S
In130 O138 2.266 . S
In130 O139 2.326 . S
In130 O141 2.294 . S
In130 O142 2.326 . S
O131 In130 2.294 . S
O131 C140 1.240 . S
O132 In130 2.326 . S
O132 C140 1.252 . S
C133 O136 1.252 . S
C133 O137 1.260 . S
C134 O141 1.240 . S
C134 O142 1.252 . S
C135 O138 1.252 . S
C135 O139 1.260 . S
O136 In130 2.266 . S
O136 C133 1.252 . S
O137 In130 2.326 . S
O137 C133 1.260 . S
O138 In130 2.266 . S
O138 C135 1.252 . S
O139 In130 2.326 . S
O139 C135 1.260 . S
C140 O131 1.240 . S
C140 O132 1.252 . S
O141 In130 2.294 . S
O141 C134 1.240 . S
O142 In130 2.326 . S
O142 C134 1.252 . S
In143 O144 2.294 . S
In143 O145 2.326 . S
In143 O149 2.266 . S
In143 O150 2.326 . S
In143 O151 2.266 . S
In143 O152 2.326 . S
In143 O154 2.294 . S
In143 O155 2.326 . S
O144 In143 2.294 . S
O144 C153 1.240 . S
O145 In143 2.326 . S
O145 C153 1.252 . S
C146 O149 1.252 . S
C146 O150 1.260 . S
C147 O154 1.240 . S
C147 O155 1.252 . S
C148 O151 1.252 . S
C148 O152 1.260 . S
O149 In143 2.266 . S
O149 C146 1.252 . S
O150 In143 2.326 . S
O150 C146 1.260 . S
O151 In143 2.266 . S
O151 C148 1.252 . S
O152 In143 2.326 . S
O152 C148 1.260 . S
C153 O144 1.240 . S
C153 O145 1.252 . S
O154 In143 2.294 . S
O154 C147 1.240 . S
O155 In143 2.326 . S
O155 C147 1.252 . S
In156 O157 2.294 . S
In156 O158 2.326 . S
In156 O162 2.266 . S
In156 O163 2.326 . S
In156 O164 2.266 . S
In156 O165 2.326 . S
In156 O167 2.294 . S
In156 O168 2.326 . S
O157 In156 2.294 . S
O157 C166 1.240 . S
O158 In156 2.326 . S
O158 C166 1.252 . S
C159 O162 1.252 . S
C159 O163 1.260 . S
C160 O167 1.240 . S
C160 O168 1.252 . S
C161 O164 1.252 . S
C161 O165 1.260 . S
O162 In156 2.266 . S
O162 C159 1.252 . S
O163 In156 2.326 . S
O163 C159 1.260 . S
O164 In156 2.266 . S
O164 C161 1.252 . S
O165 In156 2.326 . S
O165 C161 1.260 . S
C166 O157 1.240 . S
C166 O158 1.252 . S
O167 In156 2.294 . S
O167 C160 1.240 . S
O168 In156 2.326 . S
O168 C160 1.252 . S
In169 O170 2.294 . S
In169 O171 2.326 . S
In169 O175 2.266 . S
In169 O176 2.326 . S
In169 O177 2.266 . S
In169 O178 2.326 . S
In169 O180 2.294 . S
In169 O181 2.326 . S
O170 In169 2.294 . S
O170 C179 1.240 . S
O171 In169 2.326 . S
O171 C179 1.252 . S
C172 O175 1.252 . S
C172 O176 1.260 . S
C173 O180 1.240 . S
C173 O181 1.252 . S
C174 O177 1.252 . S
C174 O178 1.260 . S
O175 In169 2.266 . S
O175 C172 1.252 . S
O176 In169 2.326 . S
O176 C172 1.260 . S
O177 In169 2.266 . S
O177 C174 1.252 . S
O178 In169 2.326 . S
O178 C174 1.260 . S
C179 O170 1.240 . S
C179 O171 1.252 . S
O180 In169 2.294 . S
O180 C173 1.240 . S
O181 In169 2.326 . S
O181 C173 1.252 . S
In182 O183 2.294 . S
In182 O184 2.326 . S
In182 O188 2.266 . S
In182 O189 2.326 . S
In182 O190 2.266 . S
In182 O191 2.326 . S
In182 O193 2.294 . S
In182 O194 2.326 . S
O183 In182 2.294 . S
O183 C192 1.240 . S
O184 In182 2.326 . S
O184 C192 1.252 . S
C185 O188 1.252 . S
C185 O189 1.260 . S
C186 O193 1.240 . S
C186 O194 1.252 . S
C187 O190 1.252 . S
C187 O191 1.260 . S
O188 In182 2.266 . S
O188 C185 1.252 . S
O189 In182 2.326 . S
O189 C185 1.260 . S
O190 In182 2.266 . S
O190 C187 1.252 . S
O191 In182 2.326 . S
O191 C187 1.260 . S
C192 O183 1.240 . S
C192 O184 1.252 . S
O193 In182 2.294 . S
O193 C186 1.240 . S
O194 In182 2.326 . S
O194 C186 1.252 . S
In195 O196 2.294 . S
In195 O197 2.326 . S
In195 O201 2.266 . S
In195 O202 2.326 . S
In195 O203 2.266 . S
In195 O204 2.326 . S
In195 O206 2.294 . S
In195 O207 2.326 . S
O196 In195 2.294 . S
O196 C205 1.240 . S
O197 In195 2.326 . S
O197 C205 1.252 . S
C198 O201 1.252 . S
C198 O202 1.260 . S
C199 O206 1.240 . S
C199 O207 1.252 . S
C200 O203 1.252 . S
C200 O204 1.260 . S
O201 In195 2.266 . S
O201 C198 1.252 . S
O202 In195 2.326 . S
O202 C198 1.260 . S
O203 In195 2.266 . S
O203 C200 1.252 . S
O204 In195 2.326 . S
O204 C200 1.260 . S
C205 O196 1.240 . S
C205 O197 1.252 . S
O206 In195 2.294 . S
O206 C199 1.240 . S
O207 In195 2.326 . S
O207 C199 1.252 . S
C208 C209 1.363 . S
C208 C214 1.379 1_455 S
C208 N216 1.356 . S
C209 C208 1.363 . S
C209 C215 1.363 . S
C210 C211 1.363 . S
C210 C215 1.379 1_655 S
C210 N217 1.356 . S
C211 C210 1.363 . S
C211 C214 1.363 . S
N212 C214 1.356 . S
N212 H224 0.984 . S
N212 H225 0.985 . S
N213 C215 1.356 . S
N213 H218 0.984 . S
N213 H219 0.985 . S
C214 C208 1.379 1_655 S
C214 C211 1.363 . S
C214 N212 1.356 . S
C215 C209 1.363 . S
C215 C210 1.379 1_455 S
C215 N213 1.356 . S
N216 C208 1.356 . S
N216 H222 0.984 . S
N216 H223 0.984 . S
N217 C210 1.356 . S
N217 H220 0.984 . S
N217 H221 0.985 . S
H218 N213 0.984 . S
H219 N213 0.985 . S
H220 N217 0.984 . S
H221 N217 0.985 . S
H222 N216 0.984 . S
H223 N216 0.984 . S
H224 N212 0.984 . S
H225 N212 0.985 . S
C226 C227 1.363 . S
C226 C232 1.379 1_565 S
C226 N234 1.356 . S
C227 C226 1.363 . S
C227 C233 1.363 . S
C228 C229 1.363 . S
C228 C233 1.379 1_545 S
C228 N235 1.356 . S
C229 C228 1.363 . S
C229 C232 1.363 . S
N230 C232 1.356 . S
N230 H242 0.984 . S
N230 H243 0.985 . S
N231 C233 1.356 . S
N231 H236 0.984 . S
N231 H237 0.985 . S
C232 C226 1.379 1_545 S
C232 C229 1.363 . S
C232 N230 1.356 . S
C233 C227 1.363 . S
C233 C228 1.379 1_565 S
C233 N231 1.356 . S
N234 C226 1.356 . S
N234 H240 0.984 . S
N234 H241 0.984 . S
N235 C228 1.356 . S
N235 H238 0.984 . S
N235 H239 0.985 . S
H236 N231 0.984 . S
H237 N231 0.985 . S
H238 N235 0.984 . S
H239 N235 0.985 . S
H240 N234 0.984 . S
H241 N234 0.984 . S
H242 N230 0.984 . S
H243 N230 0.985 . S
C244 C245 1.363 . S
C244 C250 1.379 1_455 S
C244 N252 1.356 . S
C245 C244 1.363 . S
C245 C251 1.363 . S
C246 C247 1.363 . S
C246 C251 1.379 1_655 S
C246 N253 1.356 . S
C247 C246 1.363 . S
C247 C250 1.363 . S
N248 C250 1.356 . S
N248 H260 0.984 . S
N248 H261 0.985 . S
N249 C251 1.356 . S
N249 H254 0.984 . S
N249 H255 0.985 . S
C250 C244 1.379 1_655 S
C250 C247 1.363 . S
C250 N248 1.356 . S
C251 C245 1.363 . S
C251 C246 1.379 1_455 S
C251 N249 1.356 . S
N252 C244 1.356 . S
N252 H258 0.984 . S
N252 H259 0.984 . S
N253 C246 1.356 . S
N253 H256 0.984 . S
N253 H257 0.985 . S
H254 N249 0.984 . S
H255 N249 0.985 . S
H256 N253 0.984 . S
H257 N253 0.985 . S
H258 N252 0.984 . S
H259 N252 0.984 . S
H260 N248 0.984 . S
H261 N248 0.985 . S
C262 C263 1.363 . S
C262 C268 1.379 1_565 S
C262 N270 1.356 . S
C263 C262 1.363 . S
C263 C269 1.363 . S
C264 C265 1.363 . S
C264 C269 1.379 1_545 S
C264 N271 1.356 . S
C265 C264 1.363 . S
C265 C268 1.363 . S
N266 C268 1.356 . S
N266 H278 0.984 . S
N266 H279 0.985 . S
N267 C269 1.356 . S
N267 H272 0.984 . S
N267 H273 0.985 . S
C268 C262 1.379 1_545 S
C268 C265 1.363 . S
C268 N266 1.356 . S
C269 C263 1.363 . S
C269 C264 1.379 1_565 S
C269 N267 1.356 . S
N270 C262 1.356 . S
N270 H276 0.984 . S
N270 H277 0.984 . S
N271 C264 1.356 . S
N271 H274 0.984 . S
N271 H275 0.985 . S
H272 N267 0.984 . S
H273 N267 0.985 . S
H274 N271 0.984 . S
H275 N271 0.985 . S
H276 N270 0.984 . S
H277 N270 0.984 . S
H278 N266 0.984 . S
H279 N266 0.985 . S
C280 C281 1.363 . S
C280 C286 1.379 1_655 S
C280 N288 1.356 . S
C281 C280 1.363 . S
C281 C287 1.363 . S
C282 C283 1.363 . S
C282 C287 1.379 1_455 S
C282 N289 1.356 . S
C283 C282 1.363 . S
C283 C286 1.363 . S
N284 C286 1.356 . S
N284 H296 0.984 . S
N284 H297 0.985 . S
N285 C287 1.356 . S
N285 H290 0.984 . S
N285 H291 0.985 . S
C286 C280 1.379 1_455 S
C286 C283 1.363 . S
C286 N284 1.356 . S
C287 C281 1.363 . S
C287 C282 1.379 1_655 S
C287 N285 1.356 . S
N288 C280 1.356 . S
N288 H294 0.984 . S
N288 H295 0.984 . S
N289 C282 1.356 . S
N289 H292 0.984 . S
N289 H293 0.985 . S
H290 N285 0.984 . S
H291 N285 0.985 . S
H292 N289 0.984 . S
H293 N289 0.985 . S
H294 N288 0.984 . S
H295 N288 0.984 . S
H296 N284 0.984 . S
H297 N284 0.985 . S
C298 C299 1.363 . S
C298 C304 1.379 1_545 S
C298 N306 1.356 . S
C299 C298 1.363 . S
C299 C305 1.363 . S
C300 C301 1.363 . S
C300 C305 1.379 1_565 S
C300 N307 1.356 . S
C301 C300 1.363 . S
C301 C304 1.363 . S
N302 C304 1.356 . S
N302 H314 0.984 . S
N302 H315 0.985 . S
N303 C305 1.356 . S
N303 H308 0.984 . S
N303 H309 0.985 . S
C304 C298 1.379 1_565 S
C304 C301 1.363 . S
C304 N302 1.356 . S
C305 C299 1.363 . S
C305 C300 1.379 1_545 S
C305 N303 1.356 . S
N306 C298 1.356 . S
N306 H312 0.984 . S
N306 H313 0.984 . S
N307 C300 1.356 . S
N307 H310 0.984 . S
N307 H311 0.985 . S
H308 N303 0.984 . S
H309 N303 0.985 . S
H310 N307 0.984 . S
H311 N307 0.985 . S
H312 N306 0.984 . S
H313 N306 0.984 . S
H314 N302 0.984 . S
H315 N302 0.985 . S
C316 C317 1.363 . S
C316 C322 1.379 1_655 S
C316 N324 1.356 . S
C317 C316 1.363 . S
C317 C323 1.363 . S
C318 C319 1.363 . S
C318 C323 1.379 1_455 S
C318 N325 1.356 . S
C319 C318 1.363 . S
C319 C322 1.363 . S
N320 C322 1.356 . S
N320 H332 0.984 . S
N320 H333 0.985 . S
N321 C323 1.356 . S
N321 H326 0.984 . S
N321 H327 0.985 . S
C322 C316 1.379 1_455 S
C322 C319 1.363 . S
C322 N320 1.356 . S
C323 C317 1.363 . S
C323 C318 1.379 1_655 S
C323 N321 1.356 . S
N324 C316 1.356 . S
N324 H330 0.984 . S
N324 H331 0.984 . S
N325 C318 1.356 . S
N325 H328 0.984 . S
N325 H329 0.985 . S
H326 N321 0.984 . S
H327 N321 0.985 . S
H328 N325 0.984 . S
H329 N325 0.985 . S
H330 N324 0.984 . S
H331 N324 0.984 . S
H332 N320 0.984 . S
H333 N320 0.985 . S
C334 C335 1.363 . S
C334 C340 1.379 1_545 S
C334 N342 1.356 . S
C335 C334 1.363 . S
C335 C341 1.363 . S
C336 C337 1.363 . S
C336 C341 1.379 1_565 S
C336 N343 1.356 . S
C337 C336 1.363 . S
C337 C340 1.363 . S
N338 C340 1.356 . S
N338 H350 0.984 . S
N338 H351 0.985 . S
N339 C341 1.356 . S
N339 H344 0.984 . S
N339 H345 0.985 . S
C340 C334 1.379 1_565 S
C340 C337 1.363 . S
C340 N338 1.356 . S
C341 C335 1.363 . S
C341 C336 1.379 1_545 S
C341 N339 1.356 . S
N342 C334 1.356 . S
N342 H348 0.984 . S
N342 H349 0.984 . S
N343 C336 1.356 . S
N343 H346 0.984 . S
N343 H347 0.985 . S
H344 N339 0.984 . S
H345 N339 0.985 . S
H346 N343 0.984 . S
H347 N343 0.985 . S
H348 N342 0.984 . S
H349 N342 0.984 . S
H350 N338 0.984 . S
H351 N338 0.985 . S
C352 C353 1.363 . S
C352 C358 1.379 . S
C352 N360 1.356 . S
C353 C352 1.363 . S
C353 C359 1.363 . S
C354 C355 1.363 . S
C354 C359 1.379 . S
C354 N361 1.356 . S
C355 C354 1.363 . S
C355 C358 1.363 . S
N356 C358 1.356 . S
N356 H368 0.984 . S
N356 H369 0.985 . S
N357 C359 1.356 . S
N357 H362 0.984 . S
N357 H363 0.985 . S
C358 C352 1.379 . S
C358 C355 1.363 . S
C358 N356 1.356 . S
C359 C353 1.363 . S
C359 C354 1.379 . S
C359 N357 1.356 . S
N360 C352 1.356 . S
N360 H366 0.984 . S
N360 H367 0.984 . S
N361 C354 1.356 . S
N361 H364 0.984 . S
N361 H365 0.985 . S
H362 N357 0.984 . S
H363 N357 0.985 . S
H364 N361 0.984 . S
H365 N361 0.985 . S
H366 N360 0.984 . S
H367 N360 0.984 . S
H368 N356 0.984 . S
H369 N356 0.985 . S
C370 C371 1.363 . S
C370 C376 1.379 . S
C370 N378 1.356 . S
C371 C370 1.363 . S
C371 C377 1.363 . S
C372 C373 1.363 . S
C372 C377 1.379 . S
C372 N379 1.356 . S
C373 C372 1.363 . S
C373 C376 1.363 . S
N374 C376 1.356 . S
N374 H386 0.984 . S
N374 H387 0.985 . S
N375 C377 1.356 . S
N375 H380 0.984 . S
N375 H381 0.985 . S
C376 C370 1.379 . S
C376 C373 1.363 . S
C376 N374 1.356 . S
C377 C371 1.363 . S
C377 C372 1.379 . S
C377 N375 1.356 . S
N378 C370 1.356 . S
N378 H384 0.984 . S
N378 H385 0.984 . S
N379 C372 1.356 . S
N379 H382 0.984 . S
N379 H383 0.985 . S
H380 N375 0.984 . S
H381 N375 0.985 . S
H382 N379 0.984 . S
H383 N379 0.985 . S
H384 N378 0.984 . S
H385 N378 0.984 . S
H386 N374 0.984 . S
H387 N374 0.985 . S
C388 C389 1.363 . S
C388 C394 1.379 . S
C388 N396 1.356 . S
C389 C388 1.363 . S
C389 C395 1.363 . S
C390 C391 1.363 . S
C390 C395 1.379 . S
C390 N397 1.356 . S
C391 C390 1.363 . S
C391 C394 1.363 . S
N392 C394 1.356 . S
N392 H404 0.984 . S
N392 H405 0.985 . S
N393 C395 1.356 . S
N393 H398 0.984 . S
N393 H399 0.985 . S
C394 C388 1.379 . S
C394 C391 1.363 . S
C394 N392 1.356 . S
C395 C389 1.363 . S
C395 C390 1.379 . S
C395 N393 1.356 . S
N396 C388 1.356 . S
N396 H402 0.984 . S
N396 H403 0.984 . S
N397 C390 1.356 . S
N397 H400 0.984 . S
N397 H401 0.985 . S
H398 N393 0.984 . S
H399 N393 0.985 . S
H400 N397 0.984 . S
H401 N397 0.985 . S
H402 N396 0.984 . S
H403 N396 0.984 . S
H404 N392 0.984 . S
H405 N392 0.985 . S
C406 C407 1.363 . S
C406 C412 1.379 . S
C406 N414 1.356 . S
C407 C406 1.363 . S
C407 C413 1.363 . S
C408 C409 1.363 . S
C408 C413 1.379 . S
C408 N415 1.356 . S
C409 C408 1.363 . S
C409 C412 1.363 . S
N410 C412 1.356 . S
N410 H422 0.984 . S
N410 H423 0.985 . S
N411 C413 1.356 . S
N411 H416 0.984 . S
N411 H417 0.985 . S
C412 C406 1.379 . S
C412 C409 1.363 . S
C412 N410 1.356 . S
C413 C407 1.363 . S
C413 C408 1.379 . S
C413 N411 1.356 . S
N414 C406 1.356 . S
N414 H420 0.984 . S
N414 H421 0.984 . S
N415 C408 1.356 . S
N415 H418 0.984 . S
N415 H419 0.985 . S
H416 N411 0.984 . S
H417 N411 0.985 . S
H418 N415 0.984 . S
H419 N415 0.985 . S
H420 N414 0.984 . S
H421 N414 0.984 . S
H422 N410 0.984 . S
H423 N410 0.985 . S
C424 C425 1.363 . S
C424 C430 1.379 . S
C424 N432 1.356 . S
C425 C424 1.363 . S
C425 C431 1.363 . S
C426 C427 1.363 . S
C426 C431 1.379 . S
C426 N433 1.356 . S
C427 C426 1.363 . S
C427 C430 1.363 . S
N428 C430 1.356 . S
N428 H440 0.984 . S
N428 H441 0.985 . S
N429 C431 1.356 . S
N429 H434 0.984 . S
N429 H435 0.985 . S
C430 C424 1.379 . S
C430 C427 1.363 . S
C430 N428 1.356 . S
C431 C425 1.363 . S
C431 C426 1.379 . S
C431 N429 1.356 . S
N432 C424 1.356 . S
N432 H438 0.984 . S
N432 H439 0.984 . S
N433 C426 1.356 . S
N433 H436 0.984 . S
N433 H437 0.985 . S
H434 N429 0.984 . S
H435 N429 0.985 . S
H436 N433 0.984 . S
H437 N433 0.985 . S
H438 N432 0.984 . S
H439 N432 0.984 . S
H440 N428 0.984 . S
H441 N428 0.985 . S
C442 C443 1.363 . S
C442 C448 1.379 . S
C442 N450 1.356 . S
C443 C442 1.363 . S
C443 C449 1.363 . S
C444 C445 1.363 . S
C444 C449 1.379 . S
C444 N451 1.356 . S
C445 C444 1.363 . S
C445 C448 1.363 . S
N446 C448 1.356 . S
N446 H458 0.984 . S
N446 H459 0.985 . S
N447 C449 1.356 . S
N447 H452 0.984 . S
N447 H453 0.985 . S
C448 C442 1.379 . S
C448 C445 1.363 . S
C448 N446 1.356 . S
C449 C443 1.363 . S
C449 C444 1.379 . S
C449 N447 1.356 . S
N450 C442 1.356 . S
N450 H456 0.984 . S
N450 H457 0.984 . S
N451 C444 1.356 . S
N451 H454 0.984 . S
N451 H455 0.985 . S
H452 N447 0.984 . S
H453 N447 0.985 . S
H454 N451 0.984 . S
H455 N451 0.985 . S
H456 N450 0.984 . S
H457 N450 0.984 . S
H458 N446 0.984 . S
H459 N446 0.985 . S
C460 C461 1.363 . S
C460 C466 1.379 . S
C460 N468 1.356 . S
C461 C460 1.363 . S
C461 C467 1.363 . S
C462 C463 1.363 . S
C462 C467 1.379 . S
C462 N469 1.356 . S
C463 C462 1.363 . S
C463 C466 1.363 . S
N464 C466 1.356 . S
N464 H476 0.984 . S
N464 H477 0.985 . S
N465 C467 1.356 . S
N465 H470 0.984 . S
N465 H471 0.985 . S
C466 C460 1.379 . S
C466 C463 1.363 . S
C466 N464 1.356 . S
C467 C461 1.363 . S
C467 C462 1.379 . S
C467 N465 1.356 . S
N468 C460 1.356 . S
N468 H474 0.984 . S
N468 H475 0.984 . S
N469 C462 1.356 . S
N469 H472 0.984 . S
N469 H473 0.985 . S
H470 N465 0.984 . S
H471 N465 0.985 . S
H472 N469 0.984 . S
H473 N469 0.985 . S
H474 N468 0.984 . S
H475 N468 0.984 . S
H476 N464 0.984 . S
H477 N464 0.985 . S
C478 C479 1.363 . S
C478 C484 1.379 . S
C478 N486 1.356 . S
C479 C478 1.363 . S
C479 C485 1.363 . S
C480 C481 1.363 . S
C480 C485 1.379 . S
C480 N487 1.356 . S
C481 C480 1.363 . S
C481 C484 1.363 . S
N482 C484 1.356 . S
N482 H494 0.984 . S
N482 H495 0.985 . S
N483 C485 1.356 . S
N483 H488 0.984 . S
N483 H489 0.985 . S
C484 C478 1.379 . S
C484 C481 1.363 . S
C484 N482 1.356 . S
C485 C479 1.363 . S
C485 C480 1.379 . S
C485 N483 1.356 . S
N486 C478 1.356 . S
N486 H492 0.984 . S
N486 H493 0.984 . S
N487 C480 1.356 . S
N487 H490 0.984 . S
N487 H491 0.985 . S
H488 N483 0.984 . S
H489 N483 0.985 . S
H490 N487 0.984 . S
H491 N487 0.985 . S
H492 N486 0.984 . S
H493 N486 0.984 . S
H494 N482 0.984 . S
H495 N482 0.985 . S
C496 C497 1.363 . S
C496 C502 1.379 1_556 S
C496 N504 1.356 . S
C497 C496 1.363 . S
C497 C503 1.363 . S
C498 C499 1.363 . S
C498 C503 1.379 1_554 S
C498 N505 1.356 . S
C499 C498 1.363 . S
C499 C502 1.363 . S
N500 C502 1.356 . S
N500 H512 0.984 . S
N500 H513 0.985 . S
N501 C503 1.356 . S
N501 H506 0.984 . S
N501 H507 0.985 . S
C502 C496 1.379 1_554 S
C502 C499 1.363 . S
C502 N500 1.356 . S
C503 C497 1.363 . S
C503 C498 1.379 1_556 S
C503 N501 1.356 . S
N504 C496 1.356 . S
N504 H510 0.984 . S
N504 H511 0.984 . S
N505 C498 1.356 . S
N505 H508 0.984 . S
N505 H509 0.985 . S
H506 N501 0.984 . S
H507 N501 0.985 . S
H508 N505 0.984 . S
H509 N505 0.985 . S
H510 N504 0.984 . S
H511 N504 0.984 . S
H512 N500 0.984 . S
H513 N500 0.985 . S
C514 C515 1.363 . S
C514 C520 1.379 . S
C514 N522 1.356 . S
C515 C514 1.363 . S
C515 C521 1.363 . S
C516 C517 1.363 . S
C516 C521 1.379 . S
C516 N523 1.356 . S
C517 C516 1.363 . S
C517 C520 1.363 . S
N518 C520 1.356 . S
N518 H530 0.984 . S
N518 H531 0.985 . S
N519 C521 1.356 . S
N519 H524 0.984 . S
N519 H525 0.985 . S
C520 C514 1.379 . S
C520 C517 1.363 . S
C520 N518 1.356 . S
C521 C515 1.363 . S
C521 C516 1.379 . S
C521 N519 1.356 . S
N522 C514 1.356 . S
N522 H528 0.984 . S
N522 H529 0.984 . S
N523 C516 1.356 . S
N523 H526 0.984 . S
N523 H527 0.985 . S
H524 N519 0.984 . S
H525 N519 0.985 . S
H526 N523 0.984 . S
H527 N523 0.985 . S
H528 N522 0.984 . S
H529 N522 0.984 . S
H530 N518 0.984 . S
H531 N518 0.985 . S
C532 C533 1.363 . S
C532 C538 1.379 1_554 S
C532 N540 1.356 . S
C533 C532 1.363 . S
C533 C539 1.363 . S
C534 C535 1.363 . S
C534 C539 1.379 1_556 S
C534 N541 1.356 . S
C535 C534 1.363 . S
C535 C538 1.363 . S
N536 C538 1.356 . S
N536 H548 0.984 . S
N536 H549 0.985 . S
N537 C539 1.356 . S
N537 H542 0.984 . S
N537 H543 0.985 . S
C538 C532 1.379 1_556 S
C538 C535 1.363 . S
C538 N536 1.356 . S
C539 C533 1.363 . S
C539 C534 1.379 1_554 S
C539 N537 1.356 . S
N540 C532 1.356 . S
N540 H546 0.984 . S
N540 H547 0.984 . S
N541 C534 1.356 . S
N541 H544 0.984 . S
N541 H545 0.985 . S
H542 N537 0.984 . S
H543 N537 0.985 . S
H544 N541 0.984 . S
H545 N541 0.985 . S
H546 N540 0.984 . S
H547 N540 0.984 . S
H548 N536 0.984 . S
H549 N536 0.985 . S
C550 C551 1.363 . S
C550 C556 1.379 . S
C550 N558 1.356 . S
C551 C550 1.363 . S
C551 C557 1.363 . S
C552 C553 1.363 . S
C552 C557 1.379 . S
C552 N559 1.356 . S
C553 C552 1.363 . S
C553 C556 1.363 . S
N554 C556 1.356 . S
N554 H566 0.984 . S
N554 H567 0.985 . S
N555 C557 1.356 . S
N555 H560 0.984 . S
N555 H561 0.985 . S
C556 C550 1.379 . S
C556 C553 1.363 . S
C556 N554 1.356 . S
C557 C551 1.363 . S
C557 C552 1.379 . S
C557 N555 1.356 . S
N558 C550 1.356 . S
N558 H564 0.984 . S
N558 H565 0.984 . S
N559 C552 1.356 . S
N559 H562 0.984 . S
N559 H563 0.985 . S
H560 N555 0.984 . S
H561 N555 0.985 . S
H562 N559 0.984 . S
H563 N559 0.985 . S
H564 N558 0.984 . S
H565 N558 0.984 . S
H566 N554 0.984 . S
H567 N554 0.985 . S
C568 C569 1.363 . S
C568 C574 1.379 . S
C568 N576 1.356 . S
C569 C568 1.363 . S
C569 C575 1.363 . S
C570 C571 1.363 . S
C570 C575 1.379 . S
C570 N577 1.356 . S
C571 C570 1.363 . S
C571 C574 1.363 . S
N572 C574 1.356 . S
N572 H584 0.984 . S
N572 H585 0.985 . S
N573 C575 1.356 . S
N573 H578 0.984 . S
N573 H579 0.985 . S
C574 C568 1.379 . S
C574 C571 1.363 . S
C574 N572 1.356 . S
C575 C569 1.363 . S
C575 C570 1.379 . S
C575 N573 1.356 . S
N576 C568 1.356 . S
N576 H582 0.984 . S
N576 H583 0.984 . S
N577 C570 1.356 . S
N577 H580 0.984 . S
N577 H581 0.985 . S
H578 N573 0.984 . S
H579 N573 0.985 . S
H580 N577 0.984 . S
H581 N577 0.985 . S
H582 N576 0.984 . S
H583 N576 0.984 . S
H584 N572 0.984 . S
H585 N572 0.985 . S
C586 C587 1.363 . S
C586 C592 1.379 1_556 S
C586 N594 1.356 . S
C587 C586 1.363 . S
C587 C593 1.363 . S
C588 C589 1.363 . S
C588 C593 1.379 1_554 S
C588 N595 1.356 . S
C589 C588 1.363 . S
C589 C592 1.363 . S
N590 C592 1.356 . S
N590 H602 0.984 . S
N590 H603 0.985 . S
N591 C593 1.356 . S
N591 H596 0.984 . S
N591 H597 0.985 . S
C592 C586 1.379 1_554 S
C592 C589 1.363 . S
C592 N590 1.356 . S
C593 C587 1.363 . S
C593 C588 1.379 1_556 S
C593 N591 1.356 . S
N594 C586 1.356 . S
N594 H600 0.984 . S
N594 H601 0.984 . S
N595 C588 1.356 . S
N595 H598 0.984 . S
N595 H599 0.985 . S
H596 N591 0.984 . S
H597 N591 0.985 . S
H598 N595 0.984 . S
H599 N595 0.985 . S
H600 N594 0.984 . S
H601 N594 0.984 . S
H602 N590 0.984 . S
H603 N590 0.985 . S
C604 C605 1.363 . S
C604 C610 1.379 . S
C604 N612 1.356 . S
C605 C604 1.363 . S
C605 C611 1.363 . S
C606 C607 1.363 . S
C606 C611 1.379 . S
C606 N613 1.356 . S
C607 C606 1.363 . S
C607 C610 1.363 . S
N608 C610 1.356 . S
N608 H620 0.984 . S
N608 H621 0.985 . S
N609 C611 1.356 . S
N609 H614 0.984 . S
N609 H615 0.985 . S
C610 C604 1.379 . S
C610 C607 1.363 . S
C610 N608 1.356 . S
C611 C605 1.363 . S
C611 C606 1.379 . S
C611 N609 1.356 . S
N612 C604 1.356 . S
N612 H618 0.984 . S
N612 H619 0.984 . S
N613 C606 1.356 . S
N613 H616 0.984 . S
N613 H617 0.985 . S
H614 N609 0.984 . S
H615 N609 0.985 . S
H616 N613 0.984 . S
H617 N613 0.985 . S
H618 N612 0.984 . S
H619 N612 0.984 . S
H620 N608 0.984 . S
H621 N608 0.985 . S
C622 C623 1.363 . S
C622 C628 1.379 1_554 S
C622 N630 1.356 . S
C623 C622 1.363 . S
C623 C629 1.363 . S
C624 C625 1.363 . S
C624 C629 1.379 1_556 S
C624 N631 1.356 . S
C625 C624 1.363 . S
C625 C628 1.363 . S
N626 C628 1.356 . S
N626 H638 0.984 . S
N626 H639 0.985 . S
N627 C629 1.356 . S
N627 H632 0.984 . S
N627 H633 0.985 . S
C628 C622 1.379 1_556 S
C628 C625 1.363 . S
C628 N626 1.356 . S
C629 C623 1.363 . S
C629 C624 1.379 1_554 S
C629 N627 1.356 . S
N630 C622 1.356 . S
N630 H636 0.984 . S
N630 H637 0.984 . S
N631 C624 1.356 . S
N631 H634 0.984 . S
N631 H635 0.985 . S
H632 N627 0.984 . S
H633 N627 0.985 . S
H634 N631 0.984 . S
H635 N631 0.985 . S
H636 N630 0.984 . S
H637 N630 0.984 . S
H638 N626 0.984 . S
H639 N626 0.985 . S
C640 C641 1.363 . S
C640 C646 1.379 . S
C640 N648 1.356 . S
C641 C640 1.363 . S
C641 C647 1.363 . S
C642 C643 1.363 . S
C642 C647 1.379 . S
C642 N649 1.356 . S
C643 C642 1.363 . S
C643 C646 1.363 . S
N644 C646 1.356 . S
N644 H656 0.984 . S
N644 H657 0.985 . S
N645 C647 1.356 . S
N645 H650 0.984 . S
N645 H651 0.985 . S
C646 C640 1.379 . S
C646 C643 1.363 . S
C646 N644 1.356 . S
C647 C641 1.363 . S
C647 C642 1.379 . S
C647 N645 1.356 . S
N648 C640 1.356 . S
N648 H654 0.984 . S
N648 H655 0.984 . S
N649 C642 1.356 . S
N649 H652 0.984 . S
N649 H653 0.985 . S
H650 N645 0.984 . S
H651 N645 0.985 . S
H652 N649 0.984 . S
H653 N649 0.985 . S
H654 N648 0.984 . S
H655 N648 0.984 . S
H656 N644 0.984 . S
H657 N644 0.985 . S
C658 C659 1.363 . S
C658 C664 1.379 . S
C658 N666 1.356 . S
C659 C658 1.363 . S
C659 C665 1.363 . S
C660 C661 1.363 . S
C660 C665 1.379 . S
C660 N667 1.356 . S
C661 C660 1.363 . S
C661 C664 1.363 . S
N662 C664 1.356 . S
N662 H674 0.984 . S
N662 H675 0.985 . S
N663 C665 1.356 . S
N663 H668 0.984 . S
N663 H669 0.985 . S
C664 C658 1.379 . S
C664 C661 1.363 . S
C664 N662 1.356 . S
C665 C659 1.363 . S
C665 C660 1.379 . S
C665 N663 1.356 . S
N666 C658 1.356 . S
N666 H672 0.984 . S
N666 H673 0.984 . S
N667 C660 1.356 . S
N667 H670 0.984 . S
N667 H671 0.985 . S
H668 N663 0.984 . S
H669 N663 0.985 . S
H670 N667 0.984 . S
H671 N667 0.985 . S
H672 N666 0.984 . S
H673 N666 0.984 . S
H674 N662 0.984 . S
H675 N662 0.985 . S
C676 C677 1.363 . S
C676 C682 1.379 . S
C676 N684 1.356 . S
C677 C676 1.363 . S
C677 C683 1.363 . S
C678 C679 1.363 . S
C678 C683 1.379 . S
C678 N685 1.356 . S
C679 C678 1.363 . S
C679 C682 1.363 . S
N680 C682 1.356 . S
N680 H692 0.984 . S
N680 H693 0.985 . S
N681 C683 1.356 . S
N681 H686 0.984 . S
N681 H687 0.985 . S
C682 C676 1.379 . S
C682 C679 1.363 . S
C682 N680 1.356 . S
C683 C677 1.363 . S
C683 C678 1.379 . S
C683 N681 1.356 . S
N684 C676 1.356 . S
N684 H690 0.984 . S
N684 H691 0.984 . S
N685 C678 1.356 . S
N685 H688 0.984 . S
N685 H689 0.985 . S
H686 N681 0.984 . S
H687 N681 0.985 . S
H688 N685 0.984 . S
H689 N685 0.985 . S
H690 N684 0.984 . S
H691 N684 0.984 . S
H692 N680 0.984 . S
H693 N680 0.985 . S
C694 C695 1.363 . S
C694 C700 1.379 . S
C694 N702 1.356 . S
C695 C694 1.363 . S
C695 C701 1.363 . S
C696 C697 1.363 . S
C696 C701 1.379 . S
C696 N703 1.356 . S
C697 C696 1.363 . S
C697 C700 1.363 . S
N698 C700 1.356 . S
N698 H710 0.984 . S
N698 H711 0.985 . S
N699 C701 1.356 . S
N699 H704 0.984 . S
N699 H705 0.985 . S
C700 C694 1.379 . S
C700 C697 1.363 . S
C700 N698 1.356 . S
C701 C695 1.363 . S
C701 C696 1.379 . S
C701 N699 1.356 . S
N702 C694 1.356 . S
N702 H708 0.984 . S
N702 H709 0.984 . S
N703 C696 1.356 . S
N703 H706 0.984 . S
N703 H707 0.985 . S
H704 N699 0.984 . S
H705 N699 0.985 . S
H706 N703 0.984 . S
H707 N703 0.985 . S
H708 N702 0.984 . S
H709 N702 0.984 . S
H710 N698 0.984 . S
H711 N698 0.985 . S
C712 C713 1.363 . S
C712 C718 1.379 . S
C712 N720 1.356 . S
C713 C712 1.363 . S
C713 C719 1.363 . S
C714 C715 1.363 . S
C714 C719 1.379 . S
C714 N721 1.356 . S
C715 C714 1.363 . S
C715 C718 1.363 . S
N716 C718 1.356 . S
N716 H728 0.984 . S
N716 H729 0.985 . S
N717 C719 1.356 . S
N717 H722 0.984 . S
N717 H723 0.985 . S
C718 C712 1.379 . S
C718 C715 1.363 . S
C718 N716 1.356 . S
C719 C713 1.363 . S
C719 C714 1.379 . S
C719 N717 1.356 . S
N720 C712 1.356 . S
N720 H726 0.984 . S
N720 H727 0.984 . S
N721 C714 1.356 . S
N721 H724 0.984 . S
N721 H725 0.985 . S
H722 N717 0.984 . S
H723 N717 0.985 . S
H724 N721 0.984 . S
H725 N721 0.985 . S
H726 N720 0.984 . S
H727 N720 0.984 . S
H728 N716 0.984 . S
H729 N716 0.985 . S
C730 C731 1.363 . S
C730 C736 1.379 . S
C730 N738 1.356 . S
C731 C730 1.363 . S
C731 C737 1.363 . S
C732 C733 1.363 . S
C732 C737 1.379 . S
C732 N739 1.356 . S
C733 C732 1.363 . S
C733 C736 1.363 . S
N734 C736 1.356 . S
N734 H746 0.984 . S
N734 H747 0.985 . S
N735 C737 1.356 . S
N735 H740 0.984 . S
N735 H741 0.985 . S
C736 C730 1.379 . S
C736 C733 1.363 . S
C736 N734 1.356 . S
C737 C731 1.363 . S
C737 C732 1.379 . S
C737 N735 1.356 . S
N738 C730 1.356 . S
N738 H744 0.984 . S
N738 H745 0.984 . S
N739 C732 1.356 . S
N739 H742 0.984 . S
N739 H743 0.985 . S
H740 N735 0.984 . S
H741 N735 0.985 . S
H742 N739 0.984 . S
H743 N739 0.985 . S
H744 N738 0.984 . S
H745 N738 0.984 . S
H746 N734 0.984 . S
H747 N734 0.985 . S
C748 C749 1.363 . S
C748 C754 1.379 . S
C748 N756 1.356 . S
C749 C748 1.363 . S
C749 C755 1.363 . S
C750 C751 1.363 . S
C750 C755 1.379 . S
C750 N757 1.356 . S
C751 C750 1.363 . S
C751 C754 1.363 . S
N752 C754 1.356 . S
N752 H764 0.984 . S
N752 H765 0.985 . S
N753 C755 1.356 . S
N753 H758 0.984 . S
N753 H759 0.985 . S
C754 C748 1.379 . S
C754 C751 1.363 . S
C754 N752 1.356 . S
C755 C749 1.363 . S
C755 C750 1.379 . S
C755 N753 1.356 . S
N756 C748 1.356 . S
N756 H762 0.984 . S
N756 H763 0.984 . S
N757 C750 1.356 . S
N757 H760 0.984 . S
N757 H761 0.985 . S
H758 N753 0.984 . S
H759 N753 0.985 . S
H760 N757 0.984 . S
H761 N757 0.985 . S
H762 N756 0.984 . S
H763 N756 0.984 . S
H764 N752 0.984 . S
H765 N752 0.985 . S
C766 C767 1.363 . S
C766 C772 1.379 . S
C766 N774 1.356 . S
C767 C766 1.363 . S
C767 C773 1.363 . S
C768 C769 1.363 . S
C768 C773 1.379 . S
C768 N775 1.356 . S
C769 C768 1.363 . S
C769 C772 1.363 . S
N770 C772 1.356 . S
N770 H782 0.984 . S
N770 H783 0.985 . S
N771 C773 1.356 . S
N771 H776 0.984 . S
N771 H777 0.985 . S
C772 C766 1.379 . S
C772 C769 1.363 . S
C772 N770 1.356 . S
C773 C767 1.363 . S
C773 C768 1.379 . S
C773 N771 1.356 . S
N774 C766 1.356 . S
N774 H780 0.984 . S
N774 H781 0.984 . S
N775 C768 1.356 . S
N775 H778 0.984 . S
N775 H779 0.985 . S
H776 N771 0.984 . S
H777 N771 0.985 . S
H778 N775 0.984 . S
H779 N775 0.985 . S
H780 N774 0.984 . S
H781 N774 0.984 . S
H782 N770 0.984 . S
H783 N770 0.985 . S
C209 C3 1.464 . S
C211 C31 1.464 . S
C227 C42 1.464 . S
C229 C18 1.464 . S
C245 C55 1.464 . S
C247 C81 1.464 . S
C263 C96 1.464 . S
C265 C70 1.464 . S
C281 C107 1.464 . S
C283 C135 1.464 . S
C299 C146 1.464 . S
C301 C122 1.464 . S
C317 C159 1.464 . S
C319 C187 1.464 . S
C335 C200 1.464 . S
C337 C172 1.464 . S
C353 C57 1.397 . S
C355 C5 1.397 . S
C371 C16 1.397 . S
C373 C68 1.397 . S
C389 C29 1.397 . S
C391 C83 1.397 . S
C407 C94 1.397 . S
C409 C44 1.397 . S
C425 C109 1.397 . S
C427 C161 1.397 . S
C443 C120 1.397 . S
C445 C174 1.397 . S
C461 C133 1.397 . S
C463 C185 1.397 . S
C479 C148 1.397 . S
C481 C198 1.397 . S
C497 C140 1.421 . S
C499 C4 1.421 . S
C515 C147 1.421 . S
C517 C23 1.421 . S
C533 C36 1.421 . S
C535 C108 1.421 . S
C551 C43 1.421 . S
C553 C127 1.421 . S
C569 C56 1.421 . S
C571 C192 1.421 . S
C587 C75 1.421 . S
C589 C205 1.421 . S
C605 C82 1.421 . S
C607 C160 1.421 . S
C623 C173 1.421 . S
C625 C101 1.421 . S
C641 C10 1.382 . S
C643 C199 1.382 . S
C659 C166 1.382 . S
C661 C17 1.382 . S
C677 C30 1.382 . S
C679 C179 1.382 . S
C695 C186 1.382 . S
C697 C49 1.382 . S
C713 C121 1.382 . S
C715 C62 1.382 . S
C731 C69 1.382 . S
C733 C134 1.382 . S
C749 C153 1.382 . S
C751 C88 1.382 . S
C767 C114 1.382 . S
C769 C95 1.382 . S
