# Generated by pormake.
# Topology qtz-e, (6)-cn, num edge types: 1
# Building blocks:
#     Node 0, Type 0, BuildingBlock: GEDQOX_clean_sbu_0, # of connection points: 6
#     Node 1, Type 0, BuildingBlock: GEDQOX_clean_sbu_0, # of connection points: 6
#     Node 2, Type 0, BuildingBlock: GEDQOX_clean_sbu_0, # of connection points: 6
#     Node 3, Type 0, BuildingBlock: GEDQOX_clean_sbu_0, # of connection points: 6
#     Node 4, Type 0, BuildingBlock: GEDQOX_clean_sbu_0, # of connection points: 6
#     Node 5, Type 0, BuildingBlock: GEDQOX_clean_sbu_0, # of connection points: 6
#     Edge 6, Type (0, 0), BuildingBlock: UVAHIK_clean_linker_0, # of connection points: 2
#     Edge 7, Type (0, 0), BuildingBlock: UVAHIK_clean_linker_0, # of connection points: 2
#     Edge 8, Type (0, 0), BuildingBlock: UVAHIK_clean_linker_0, # of connection points: 2
#     Edge 9, Type (0, 0), BuildingBlock: UVAHIK_clean_linker_0, # of connection points: 2
#     Edge 10, Type (0, 0), BuildingBlock: UVAHIK_clean_linker_0, # of connection points: 2
#     Edge 11, Type (0, 0), BuildingBlock: UVAHIK_clean_linker_0, # of connection points: 2
#     Edge 12, Type (0, 0), BuildingBlock: UVAHIK_clean_linker_0, # of connection points: 2
#     Edge 13, Type (0, 0), BuildingBlock: UVAHIK_clean_linker_0, # of connection points: 2
#     Edge 14, Type (0, 0), BuildingBlock: UVAHIK_clean_linker_0, # of connection points: 2
#     Edge 15, Type (0, 0), BuildingBlock: UVAHIK_clean_linker_0, # of connection points: 2
#     Edge 16, Type (0, 0), BuildingBlock: UVAHIK_clean_linker_0, # of connection points: 2
#     Edge 17, Type (0, 0), BuildingBlock: UVAHIK_clean_linker_0, # of connection points: 2
#     Edge 18, Type (0, 0), BuildingBlock: UVAHIK_clean_linker_0, # of connection points: 2
#     Edge 19, Type (0, 0), BuildingBlock: UVAHIK_clean_linker_0, # of connection points: 2
#     Edge 20, Type (0, 0), BuildingBlock: UVAHIK_clean_linker_0, # of connection points: 2
#     Edge 21, Type (0, 0), BuildingBlock: UVAHIK_clean_linker_0, # of connection points: 2
#     Edge 22, Type (0, 0), BuildingBlock: UVAHIK_clean_linker_0, # of connection points: 2
#     Edge 23, Type (0, 0), BuildingBlock: UVAHIK_clean_linker_0, # of connection points: 2
# Relax obj value: 0.094
# Max RMSD: 0.169
# Mean RMSD: 0.169
data_MOF--net-qtz-e--node1-GEDQOX_clean_sbu_0--edge1-UVAHIK_clean_linker_0
_symmetry_space_group_name_H-M    P1
_symmetry_Int_Tables_number       1
_symmetry_cell_setting            triclinic
loop_
_symmetry_equiv_pos_as_xyz
'x, y, z'
_cell_length_a     33.270611
_cell_length_b     33.205871
_cell_length_c     62.91051
_cell_angle_alpha  90.283286
_cell_angle_beta   89.893408
_cell_angle_gamma 120.01634
loop_
_atom_site_label
_atom_site_type_symbol
_atom_site_fract_x
_atom_site_fract_y
_atom_site_fract_z
_atom_type_partial_charge
Nd0 Nd 0.17247 0.36695 0.0569 0.0
Nd1 Nd 0.25929 0.46084 0.0478 0.0
C2 C 0.09285 0.30037 0.07239 0.0
C3 C 0.07292 0.29174 0.094 0.0
C4 C 0.02538 0.26137 0.09723 0.0
C5 C 0.00642 0.25453 0.11773 0.0
C6 C 0.03467 0.2784 0.13531 0.0
C7 C 0.08237 0.30863 0.13195 0.0
C8 C 0.10131 0.31497 0.11155 0.0
C9 C 0.25657 0.37278 0.06416 0.0
C10 C 0.21616 0.44983 0.09388 0.0
C11 C 0.34114 0.52729 0.0344 0.0
C12 C 0.36126 0.54731 1.01339 0.0
C13 C 0.36869 0.52116 0.99781 0.0
C14 C 0.38458 0.53955 0.97755 0.0
C15 C 0.39336 0.58443 0.97242 0.0
C16 C 0.38714 0.61095 0.9882 0.0
C17 C 0.37144 0.59266 1.00847 0.0
C18 C 0.178 0.45927 0.03988 0.0
C19 C 0.21427 0.378 1.01019 0.0
O20 O 0.097 0.33722 0.06286 0.0
O21 O 0.12958 0.29605 0.07001 0.0
O22 O 0.22223 0.33718 0.0549 0.0
O23 O 0.24494 0.40207 0.06921 0.0
O24 O 0.17873 0.41467 0.08525 0.0
O25 O 0.25614 0.47007 0.08365 0.0
O26 O 0.33177 0.4847 0.03808 0.0
O27 O 0.30879 0.53536 0.04146 0.0
O28 O 0.21475 0.49515 0.04746 0.0
O29 O 0.18555 0.42655 0.03548 0.0
O30 O 0.25061 0.41593 0.01794 0.0
O31 O 0.17558 0.35442 0.02129 0.0
H32 H 0.00286 0.24321 0.0839 0.0
H33 H 0.9695 0.23127 0.11976 0.0
H34 H 0.10519 0.32711 0.14515 0.0
H35 H 0.1382 0.33824 0.10946 0.0
H36 H 0.36141 0.48615 1.00109 0.0
H37 H 0.38874 0.5181 0.96573 0.0
H38 H 0.39436 0.64593 0.98488 0.0
H39 H 0.36648 0.61375 0.02022 0.0
Nd40 Nd 0.78546 0.16838 0.38839 0.0
Nd41 Nd 0.77097 0.24817 0.37669 0.0
C42 C 0.779 0.09143 0.40397 0.0
C43 C 0.76866 0.07151 0.42552 0.0
C44 C 0.76433 0.09673 0.44246 0.0
C45 C 0.75269 0.07746 0.46279 0.0
C46 C 0.74557 0.03265 0.46667 0.0
C47 C 0.7507 0.00776 0.44969 0.0
C48 C 0.76195 0.02699 0.42926 0.0
C49 C 0.85123 0.25494 0.40285 0.0
C50 C 0.72425 0.19663 0.42017 0.0
C51 C 0.7808 0.32827 0.36389 0.0
C52 C 0.78339 0.34905 0.3429 0.0
C53 C 0.80889 0.34441 0.32619 0.0
C54 C 0.80802 0.36103 0.30592 0.0
C55 C 0.78125 0.38216 0.30191 0.0
C56 C 0.75622 0.38725 0.31873 0.0
C57 C 0.75738 0.37093 0.33905 0.0
C58 C 0.70183 0.16451 0.362 0.0
C59 C 0.82998 0.21708 0.3443 0.0
O60 O 0.74472 0.09242 0.39431 0.0
O61 O 0.81843 0.13025 0.40181 0.0
O62 O 0.86224 0.22627 0.39414 0.0
O63 O 0.80822 0.23756 0.40325 0.0
O64 O 0.72963 0.16266 0.41228 0.0
O65 O 0.74396 0.23772 0.41089 0.0
O66 O 0.81587 0.32303 0.3694 0.0
O67 O 0.7406 0.2923 0.36866 0.0
O68 O 0.69554 0.19784 0.36873 0.0
O69 O 0.74431 0.17655 0.36185 0.0
O70 O 0.82382 0.25109 0.35163 0.0
O71 O 0.81204 0.17679 0.35425 0.0
H72 H 0.76979 0.13136 0.43995 0.0
H73 H 0.74965 0.09784 0.47553 0.0
H74 H 0.74508 0.97305 0.4521 0.0
H75 H 0.76505 0.00696 0.41636 0.0
H76 H 0.82875 0.32712 0.32865 0.0
H77 H 0.82724 0.3561 0.29324 0.0
H78 H 0.73564 0.40379 0.31617 0.0
H79 H 0.73727 0.37463 0.35169 0.0
Nd80 Nd 0.61844 0.80885 0.72379 0.0
Nd81 Nd 0.52421 0.79939 0.71453 0.0
C82 C 0.68766 0.79963 0.73887 0.0
C83 C 0.69837 0.7894 0.7602 0.0
C84 C 0.73168 0.77578 0.76286 0.0
C85 C 0.74068 0.76463 0.7831 0.0
C86 C 0.7162 0.76658 0.80099 0.0
C87 C 0.68304 0.78061 0.7982 0.0
C88 C 0.67435 0.79203 0.77803 0.0
C89 C 0.61073 0.88657 0.73077 0.0
C90 C 0.53607 0.76856 0.76065 0.0
C91 C 0.45723 0.81342 0.70067 0.0
C92 C 0.44001 0.81276 0.6791 0.0
C93 C 0.41177 0.83204 0.67501 0.0
C94 C 0.39583 0.83143 0.65434 0.0
C95 C 0.40786 0.81137 0.6375 0.0
C96 C 0.43682 0.79278 0.64172 0.0
C97 C 0.45283 0.7936 0.66229 0.0
C98 C 0.52692 0.71983 0.70711 0.0
C99 C 0.60643 0.83728 0.67703 0.0
O100 O 0.65112 0.76573 0.72962 0.0
O101 O 0.68977 0.8398 0.73677 0.0
O102 O 0.64586 0.88809 0.72099 0.0
O103 O 0.58235 0.8456 0.73605 0.0
O104 O 0.57171 0.76711 0.75213 0.0
O105 O 0.51518 0.78755 0.75037 0.0
O106 O 0.49937 0.84711 0.70454 0.0
O107 O 0.44979 0.77332 0.70781 0.0
O108 O 0.4908 0.72056 0.71437 0.0
O109 O 0.55929 0.76011 0.70252 0.0
O110 O 0.56875 0.83597 0.6848 0.0
O111 O 0.62986 0.82213 0.68812 0.0
H112 H 0.75043 0.77339 0.74927 0.0
H113 H 0.7661 0.75354 0.78467 0.0
H114 H 0.664 0.7831 0.81165 0.0
H115 H 0.64871 0.8028 0.77636 0.0
H116 H 0.40192 0.84737 0.68778 0.0
H117 H 0.37345 0.84588 0.6516 0.0
H118 H 0.44746 0.77792 0.62905 0.0
H119 H 0.47525 0.7792 0.66511 0.0
Nd120 Nd 0.8117 0.61639 0.05379 0.0
Nd121 Nd 0.7197 0.52954 0.04383 0.0
C122 C 0.89419 0.67806 0.0692 0.0
C123 C 0.91511 0.68733 0.09061 0.0
C124 C 0.96176 0.72128 0.09362 0.0
C125 C 0.98164 0.72997 0.11395 0.0
C126 C 0.95524 0.70457 0.13164 0.0
C127 C 0.90838 0.67061 0.12848 0.0
C128 C 0.8885 0.66227 0.10821 0.0
C129 C 0.73255 0.62047 0.06225 0.0
C130 C 0.76102 0.53345 0.08958 0.0
C131 C 0.63558 0.46872 0.0301 0.0
C132 C 0.61631 0.44375 1.00971 0.0
C133 C 0.59346 0.45852 0.99568 0.0
C134 C 0.57734 0.43656 0.97595 0.0
C135 C 0.58359 0.39923 0.96982 0.0
C136 C 0.60547 0.38382 0.98409 0.0
C137 C 0.62156 0.40573 1.00377 0.0
C138 C 0.79474 0.52035 0.0342 0.0
C139 C 0.77075 0.61381 1.00793 0.0
O140 O 0.8856 0.63884 0.06031 0.0
O141 O 0.86015 0.68657 0.06673 0.0
O142 O 0.76853 0.65382 0.05289 0.0
O143 O 0.73997 0.58802 0.06656 0.0
O144 O 0.80058 0.56488 0.08092 0.0
O145 O 0.72125 0.5195 0.07967 0.0
O146 O 0.65181 0.51368 0.03013 0.0
O147 O 0.66166 0.45707 0.04098 0.0
O148 O 0.75572 0.4869 0.04119 0.0
O149 O 0.79266 0.55672 0.03095 0.0
O150 O 0.73185 0.57917 0.01575 0.0
O151 O 0.81041 0.6311 0.01841 0.0
H152 H 0.98286 0.74101 0.08023 0.0
H153 H 0.01791 0.75604 0.11578 0.0
H154 H 0.88685 0.65084 0.14175 0.0
H155 H 0.85225 0.63634 0.10629 0.0
H156 H 0.58869 0.48757 0.99982 0.0
H157 H 0.56093 0.44957 0.96531 0.0
H158 H 0.61006 0.35462 0.98008 0.0
H159 H 0.63856 0.39303 1.01423 0.0
Nd160 Nd 0.19804 0.82281 0.38639 0.0
Nd161 Nd 0.19346 0.7309 0.3797 0.0
C162 C 0.22125 0.90798 0.39872 0.0
C163 C 0.23012 0.93093 0.41977 0.0
C164 C 0.2665 0.97686 0.42231 0.0
C165 C 0.27661 -0.00182 0.44239 0.0
C166 C 0.25028 0.97405 0.46029 0.0
C167 C 0.21369 0.92809 0.45766 0.0
C168 C 0.20392 0.90664 0.43764 0.0
C169 C 0.11786 0.74603 0.3998 0.0
C170 C 0.23622 0.78027 0.42391 0.0
C171 C 0.16922 0.64523 0.36798 0.0
C172 C 0.17026 0.627 0.34677 0.0
C173 C 0.19095 0.65809 0.32986 0.0
C174 C 0.19399 0.64182 0.30976 0.0
C175 C 0.1762 0.59405 0.30613 0.0
C176 C 0.1545 0.56281 0.32301 0.0
C177 C 0.1517 0.57923 0.34323 0.0
C178 C 0.27542 0.80485 0.36655 0.0
C179 C 0.15558 0.774 0.34209 0.0
O180 O 0.25168 0.89652 0.39236 0.0
O181 O 0.17845 0.87566 0.39468 0.0
O182 O 0.11755 0.77906 0.38901 0.0
O183 O 0.15841 0.75428 0.40266 0.0
O184 O 0.24065 0.81776 0.41441 0.0
O185 O 0.21173 0.73882 0.41502 0.0
O186 O 0.13921 0.65944 0.37043 0.0
O187 O 0.20996 0.67443 0.37593 0.0
O188 O 0.27198 0.76855 0.37582 0.0
O189 O 0.23609 0.80077 0.36356 0.0
O190 O 0.15173 0.73668 0.35152 0.0
O191 O 0.17901 0.81542 0.35112 0.0
H192 H 0.28738 -0.00389 0.40879 0.0
H193 H 0.30487 0.03369 0.44389 0.0
H194 H 0.19322 0.90836 0.47118 0.0
H195 H 0.17617 0.87087 0.4362 0.0
H196 H 0.20518 0.69512 0.33227 0.0
H197 H 0.21017 0.66668 0.29703 0.0
H198 H 0.14063 0.52584 0.32071 0.0
H199 H 0.13552 0.55477 0.35611 0.0
Nd200 Nd 0.35805 0.1842 0.7209 0.0
Nd201 Nd 0.44553 0.1778 0.71293 0.0
C202 C 0.29714 0.20675 0.73552 0.0
C203 C 0.28933 0.22275 0.75629 0.0
C204 C 0.32677 0.25223 0.76945 0.0
C205 C 0.31898 0.26437 0.78975 0.0
C206 C 0.27349 0.24768 0.79733 0.0
C207 C 0.23607 0.21885 0.78387 0.0
C208 C 0.24395 0.20642 0.76362 0.0
C209 C 0.34753 0.09712 0.7233 0.0
C210 C 0.43238 0.20275 0.76022 0.0
C211 C 0.50485 0.15317 0.69846 0.0
C212 C 0.52268 0.15517 0.67683 0.0
C213 C 0.54739 0.13248 0.67168 0.0
C214 C 0.56325 0.13404 0.65086 0.0
C215 C 0.55473 0.15848 0.63489 0.0
C216 C 0.52978 0.181 0.64024 0.0
C217 C 0.51412 0.17949 0.66098 0.0
C218 C 0.45956 0.26581 0.70988 0.0
C219 C 0.37145 0.16049 0.67308 0.0
O220 O 0.33475 0.23572 0.72513 0.0
O221 O 0.28922 0.16403 0.73491 0.0
O222 O 0.31798 0.10533 0.71357 0.0
O223 O 0.38029 0.13388 0.731 0.0
O224 O 0.40168 0.21219 0.7517 0.0
O225 O 0.45041 0.18175 0.74915 0.0
O226 O 0.46062 0.12366 0.70108 0.0
O227 O 0.51774 0.19348 0.7074 0.0
O228 O 0.48996 0.25616 0.71746 0.0
O229 O 0.42418 0.22981 0.70292 0.0
O230 O 0.40594 0.15595 0.68086 0.0
O231 O 0.34895 0.17586 0.68486 0.0
H232 H 0.36216 0.26528 0.76421 0.0
H233 H 0.34873 0.28598 0.79968 0.0
H234 H 0.20059 0.20591 0.78894 0.0
H235 H 0.21453 0.18362 0.75373 0.0
H236 H 0.55449 0.11369 0.68374 0.0
H237 H 0.58277 0.11672 0.64735 0.0
H238 H 0.52183 0.19944 0.62834 0.0
H239 H 0.49512 0.19728 0.66465 0.0
C240 C 0.14356 0.53816 0.27531 0.0
C241 C 0.18099 0.57735 0.28481 0.0
C242 C 0.14785 0.52378 0.25489 0.0
C243 C 0.21973 0.5672 0.20601 0.0
H244 H 0.16048 0.4362 0.19148 0.0
C245 C 0.25204 0.50109 0.12594 0.0
C246 C 0.21289 0.46515 0.1157 0.0
C247 C 0.24869 0.51464 0.14668 0.0
C248 C 0.17694 0.47294 0.19525 0.0
H249 H 0.25281 0.63109 0.28064 0.0
H250 H 0.26059 0.6057 0.24527 0.0
H251 H 0.1537 0.45947 0.22754 0.0
H252 H 0.13928 0.41585 0.11922 0.0
H253 H 0.13368 0.43912 0.1553 0.0
H254 H 0.24322 0.58057 0.17373 0.0
C255 C 0.22746 0.58673 0.25328 0.0
C256 C 0.17296 0.48631 0.21592 0.0
C257 C 0.22306 0.60125 0.27361 0.0
C258 C 0.17032 0.44328 0.12665 0.0
C259 C 0.16707 0.45654 0.14741 0.0
C260 C 0.22392 0.55382 0.18539 0.0
C261 C 0.18981 0.54807 0.24355 0.0
C262 C 0.19423 0.53364 0.22157 0.0
C263 C 0.2062 0.49235 0.15768 0.0
C264 C 0.20247 0.50655 0.17974 0.0
H265 H 0.11056 0.5193 0.28346 0.0
H266 H 0.11792 0.49423 0.24781 0.0
H267 H 0.23586 0.60396 0.20962 0.0
H268 H 0.28537 0.51865 0.11799 0.0
H269 H 0.27957 0.54211 0.15423 0.0
C270 C 0.5899 0.2027 0.6012 0.0
C271 C 0.57199 0.16108 0.61276 0.0
C272 C 0.60509 0.20519 0.58028 0.0
C273 C 0.5948 0.13228 0.53353 0.0
H274 H 0.70487 0.24431 0.5148 0.0
C275 C 0.68292 0.1475 0.45188 0.0
C276 C 0.70104 0.19009 0.44107 0.0
C277 C 0.66524 0.1427 0.47249 0.0
C278 C 0.67373 0.213 0.51968 0.0
H279 H 0.55613 0.08933 0.61123 0.0
H280 H 0.58369 0.09398 0.57481 0.0
H281 H 0.67923 0.23821 0.5515 0.0
H282 H 0.71315 0.26052 0.44325 0.0
H283 H 0.68167 0.25192 0.47902 0.0
H284 H 0.58962 0.10704 0.50165 0.0
C285 C 0.58536 0.12457 0.58189 0.0
C286 C 0.65902 0.20947 0.54076 0.0
C287 C 0.57009 0.12206 0.60287 0.0
C288 C 0.69964 0.22728 0.45111 0.0
C289 C 0.68194 0.22247 0.47171 0.0
C290 C 0.60961 0.13578 0.51242 0.0
C291 C 0.60302 0.16619 0.57032 0.0
C292 C 0.61922 0.16919 0.54796 0.0
C293 C 0.66518 0.18036 0.48279 0.0
C294 C 0.64913 0.17631 0.50521 0.0
H295 H 0.59246 0.23363 0.60836 0.0
H296 H 0.61795 0.23767 0.57181 0.0
H297 H 0.56367 0.101 0.53844 0.0
H298 H 0.68337 0.11806 0.44465 0.0
H299 H 0.65298 0.1099 0.48061 0.0
C300 C 0.38838 0.62727 0.94064 0.0
C301 C 0.40788 0.60317 0.95056 0.0
C302 C 0.40165 0.64473 0.92007 0.0
C303 C 0.45772 0.63233 0.87133 0.0
H304 H 0.47218 0.75253 0.85742 0.0
C305 C 0.5412 0.72706 0.79281 0.0
C306 C 0.52038 0.74924 0.78226 0.0
C307 C 0.52692 0.709 0.81321 0.0
C308 C 0.46781 0.71869 0.86098 0.0
H309 H 0.45706 0.57894 0.94666 0.0
H310 H 0.48069 0.60984 0.91085 0.0
H311 H 0.44897 0.72178 0.89323 0.0
H312 H 0.46805 0.7697 0.78497 0.0
H313 H 0.44292 0.7379 0.82059 0.0
H314 H 0.47703 0.62954 0.8391 0.0
C315 C 0.45444 0.61454 0.91882 0.0
C316 C 0.45445 0.70099 0.88152 0.0
C317 C 0.44098 0.59689 0.93938 0.0
C318 C 0.48486 0.75289 0.79263 0.0
C319 C 0.47064 0.7349 0.8131 0.0
C320 C 0.47126 0.65012 0.85082 0.0
C321 C 0.43495 0.6387 0.90889 0.0
C322 C 0.44923 0.65757 0.88698 0.0
C323 C 0.49147 0.71268 0.82362 0.0
C324 C 0.4765 0.69353 0.84539 0.0
H325 H 0.36218 0.632 0.94866 0.0
H326 H 0.38524 0.66235 0.91282 0.0
H327 H 0.45328 0.59844 0.87483 0.0
H328 H 0.56867 0.72357 0.78534 0.0
H329 H 0.54414 0.69269 0.82095 0.0
C330 C 0.81865 0.42165 0.26761 0.0
C331 C 0.77852 0.39768 0.28011 0.0
C332 C 0.8159 0.43548 0.24696 0.0
C333 C 0.7393 0.45584 0.21109 0.0
H334 H 0.81752 0.44903 0.16711 0.0
C335 C 0.72023 0.48708 0.12204 0.0
C336 C 0.76171 0.51566 0.11104 0.0
C337 C 0.72132 0.47151 0.14255 0.0
C338 C 0.79569 0.45144 0.17926 0.0
H339 H 0.70394 0.36881 0.28064 0.0
H340 H 0.69896 0.3923 0.24454 0.0
H341 H 0.82119 0.4242 0.20309 0.0
H342 H 0.83689 0.54995 0.11296 0.0
H343 H 0.83865 0.52285 0.14863 0.0
H344 H 0.71355 0.48271 0.1871 0.0
C345 C 0.73276 0.40139 0.25081 0.0
C346 C 0.79788 0.43735 0.19992 0.0
C347 C 0.73558 0.38786 0.27151 0.0
C348 C 0.80424 0.52796 0.12094 0.0
C349 C 0.80529 0.51221 0.14136 0.0
C350 C 0.7369 0.46964 0.19039 0.0
C351 C 0.77289 0.42535 0.23825 0.0
C352 C 0.76993 0.43963 0.21615 0.0
C353 C 0.76388 0.48392 0.15243 0.0
C354 C 0.76528 0.46787 0.17427 0.0
H355 H 0.85232 0.43021 0.27389 0.0
H356 H 0.84765 0.45461 0.23792 0.0
H357 H 0.71775 0.45875 0.22323 0.0
H358 H 0.6869 0.47699 0.11489 0.0
H359 H 0.68881 0.44942 0.15062 0.0
C360 C 0.37402 0.76862 0.60329 0.0
C361 C 0.39008 0.80925 0.6156 0.0
C362 C 0.35824 0.76662 0.58254 0.0
C363 C 0.31549 0.8238 0.54572 0.0
H364 H 0.34519 0.75873 0.50268 0.0
C365 C 0.27547 0.82738 0.45649 0.0
C366 C 0.25617 0.7848 0.44542 0.0
C367 C 0.29284 0.83138 0.47709 0.0
C368 C 0.33626 0.77668 0.51455 0.0
H369 H 0.40219 0.87973 0.61573 0.0
H370 H 0.375 0.87648 0.57937 0.0
H371 H 0.37351 0.76423 0.53887 0.0
H372 H 0.24041 0.71315 0.44731 0.0
H373 H 0.27083 0.72018 0.48324 0.0
H374 H 0.27845 0.83642 0.52127 0.0
C375 C 0.37395 0.84584 0.58589 0.0
C376 C 0.35242 0.77979 0.53533 0.0
C377 C 0.38957 0.84776 0.60673 0.0
C378 C 0.2551 0.74646 0.45536 0.0
C379 C 0.27276 0.75055 0.47591 0.0
C380 C 0.2995 0.82086 0.52489 0.0
C381 C 0.35826 0.80529 0.57349 0.0
C382 C 0.342 0.80311 0.55123 0.0
C383 C 0.2916 0.79299 0.48707 0.0
C384 C 0.30947 0.79703 0.5091 0.0
H385 H 0.3732 0.73807 0.60979 0.0
H386 H 0.3455 0.73449 0.57366 0.0
H387 H 0.30622 0.84146 0.55759 0.0
H388 H 0.27677 0.85764 0.44936 0.0
H389 H 0.30757 0.86467 0.48515 0.0
C390 C 0.59548 0.36346 0.93675 0.0
C391 C 0.56796 0.37673 0.94854 0.0
C392 C 0.58089 0.34219 0.91682 0.0
C393 C 0.47601 0.27792 0.88316 0.0
H394 H 0.56507 0.31304 0.83721 0.0
C395 C 0.42055 0.22941 0.79574 0.0
C396 C 0.44692 0.21713 0.78255 0.0
C397 C 0.43513 0.24576 0.81638 0.0
C398 C 0.53987 0.30232 0.84994 0.0
H399 H 0.50325 0.37766 0.94854 0.0
H400 H 0.47823 0.34142 0.91361 0.0
H401 H 0.59093 0.34847 0.87223 0.0
H402 H 0.5089 0.21128 0.78099 0.0
H403 H 0.53438 0.23965 0.81725 0.0
H404 H 0.42487 0.23217 0.8608 0.0
C405 C 0.5109 0.34696 0.91991 0.0
C406 C 0.55469 0.32269 0.87004 0.0
C407 C 0.52551 0.36828 0.93984 0.0
C408 C 0.48781 0.22052 0.79073 0.0
C409 C 0.50257 0.23711 0.81143 0.0
C410 C 0.46121 0.25761 0.86307 0.0
C411 C 0.53839 0.3336 0.90814 0.0
C412 C 0.52288 0.31102 0.88687 0.0
C413 C 0.47655 0.25027 0.82445 0.0
C414 C 0.49286 0.26984 0.84615 0.0
H415 H 0.62864 0.36995 0.94282 0.0
H416 H 0.60277 0.33202 0.90832 0.0
H417 H 0.45071 0.26742 0.89583 0.0
H418 H 0.38858 0.22664 0.79009 0.0
H419 H 0.41442 0.25595 0.82584 0.0
C420 C 0.33823 0.42185 0.07422 0.0
C421 C 0.30555 0.38795 0.06051 0.0
C422 C 0.38445 0.44781 0.06816 0.0
C423 C 0.46405 0.5199 0.04145 0.0
H424 H 0.54864 0.47175 0.03919 0.0
C425 C 0.67091 0.62162 0.04007 0.0
C426 C 0.68476 0.61023 0.05915 0.0
C427 C 0.62387 0.59835 0.03432 0.0
C428 C 0.52523 0.48553 0.0391 0.0
H429 H 0.29546 0.35201 0.03041 0.0
H430 H 0.3778 0.39705 0.02003 0.0
H431 H 0.46483 0.41755 0.03943 0.0
H432 H 0.66113 0.56924 0.08789 0.0
H433 H 0.57937 0.52949 0.07805 0.0
H434 H 0.52462 0.58779 0.04274 0.0
C435 C 0.36704 0.40365 0.0353 0.0
C436 C 0.4775 0.45462 0.03924 0.0
C437 C 0.32034 0.37758 0.04136 0.0
C438 C 0.65109 0.57867 0.07317 0.0
C439 C 0.60456 0.55557 0.06745 0.0
C440 C 0.5118 0.55084 0.04108 0.0
C441 C 0.39876 0.44019 0.04832 0.0
C442 C 0.44684 0.47164 0.04161 0.0
C443 C 0.59093 0.56378 0.04765 0.0
C444 C 0.54254 0.53363 0.04104 0.0
H445 H 0.32744 0.43047 0.08901 0.0
H446 H 0.40876 0.4752 0.07863 0.0
H447 H 0.44065 0.53353 0.04319 0.0
H448 H 0.6965 0.64531 0.02887 0.0
H449 H 0.61365 0.60518 0.01903 0.0
C450 C 0.0808 0.67451 0.42081 0.0
C451 C 0.07839 0.69953 0.40347 0.0
C452 C 0.05109 0.62679 0.4221 0.0
C453 C -0.01043 0.52671 0.38721 0.0
H454 H 0.94317 0.46135 0.44051 0.0
C455 C 0.92399 0.33002 0.39513 0.0
C456 C 0.88205 0.30496 0.4062 0.0
C457 C 0.94792 0.37874 0.39567 0.0
C458 C 0.95564 0.47901 0.42546 0.0
H459 H 0.04207 0.69546 0.37433 0.0
H460 H -0.01095 0.61105 0.37663 0.0
H461 H 0.97697 0.54535 0.43957 0.0
H462 H 0.83313 0.31026 0.42719 0.0
H463 H 0.87433 0.39446 0.42807 0.0
H464 H 0.96742 0.46006 0.37305 0.0
C465 C 0.01416 0.62856 0.38919 0.0
C466 C 0.97514 0.52714 0.42494 0.0
C467 C 0.04386 0.67676 0.38802 0.0
C468 C 0.86556 0.32891 0.41857 0.0
C469 C 0.88926 0.37719 0.41912 0.0
C470 C 0.96978 0.47839 0.3877 0.0
C471 C 0.01854 0.60302 0.40595 0.0
C472 C -0.00726 0.55157 0.40588 0.0
C473 C 0.93021 0.40273 0.40737 0.0
C474 C 0.95286 0.4541 0.40687 0.0
H475 H 0.10761 0.69151 0.43278 0.0
H476 H 0.05577 0.60817 0.43506 0.0
H477 H 0.00354 0.5447 0.37234 0.0
H478 H 0.93703 0.31216 0.38532 0.0
H479 H 0.97976 0.39761 0.38666 0.0
C480 C 0.35623 0.04383 0.69828 0.0
C481 C 0.35307 0.05681 0.71922 0.0
C482 C 0.37702 0.01685 0.69427 0.0
C483 C 0.41553 0.94171 0.71808 0.0
H484 H 0.537 0.02308 0.69367 0.0
C485 C 0.56626 0.92239 0.7435 0.0
C486 C 0.59463 0.91988 0.72772 0.0
C487 C 0.53654 0.93913 0.7387 0.0
C488 C 0.50299 -0.00045 0.70014 0.0
H489 H 0.36465 0.04904 0.75237 0.0
H490 H 0.39818 -0.00036 0.74554 0.0
H491 H 0.47499 0.04212 0.68997 0.0
H492 H 0.61775 0.93663 0.69508 0.0
H493 H 0.56517 0.96613 0.68655 0.0
H494 H 0.44327 0.89968 0.72879 0.0
C495 C 0.38554 0.01073 0.73221 0.0
C496 C 0.46753 0.01026 0.6979 0.0
C497 C 0.36629 0.0388 0.73615 0.0
C498 C 0.59647 0.93884 0.70758 0.0
C499 C 0.56611 0.95526 0.70265 0.0
C500 C 0.45061 0.93073 0.72011 0.0
C501 C 0.39313 0.00145 0.71125 0.0
C502 C 0.42433 0.98256 0.70775 0.0
C503 C 0.53404 0.95294 0.7179 0.0
C504 C 0.49539 0.96087 0.71218 0.0
H505 H 0.34685 0.05811 0.685 0.0
H506 H 0.38288 0.01027 0.678 0.0
H507 H 0.38237 0.9198 0.7257 0.0
H508 H 0.56437 0.90791 0.75912 0.0
H509 H 0.51339 0.93855 0.75099 0.0
C510 C 0.56709 0.67581 0.69714 0.0
C511 C 0.52602 0.6765 0.70139 0.0
C512 C 0.56555 0.63347 0.69345 0.0
C513 C 0.48941 0.51198 0.67791 0.0
H514 H 0.55522 0.48225 0.72009 0.0
C515 C 0.43626 0.32325 0.69857 0.0
C516 C 0.47071 0.31359 0.70524 0.0
C517 C 0.44739 0.36909 0.69473 0.0
C518 C 0.53741 0.49007 0.70782 0.0
H519 H 0.45111 0.63441 0.70399 0.0
H520 H 0.4484 0.56094 0.69703 0.0
H521 H 0.56911 0.56126 0.71773 0.0
H522 H 0.54399 0.34355 0.71229 0.0
H523 H 0.56379 0.42299 0.70475 0.0
H524 H 0.45742 0.44088 0.66801 0.0
C525 C 0.4817 0.5928 0.69674 0.0
C526 C 0.54544 0.5354 0.70652 0.0
C527 C 0.48333 0.63477 0.70088 0.0
C528 C 0.5166 0.35015 0.70742 0.0
C529 C 0.5279 0.39574 0.70319 0.0
C530 C 0.4819 0.46675 0.67896 0.0
C531 C 0.52279 0.59169 0.6934 0.0
C532 C 0.52059 0.54636 0.69195 0.0
C533 C 0.49336 0.40594 0.69712 0.0
C534 C 0.50487 0.45495 0.69433 0.0
H535 H 0.60034 0.70767 0.69729 0.0
H536 H 0.59764 0.63323 0.69093 0.0
H537 H 0.47 0.51987 0.6665 0.0
H538 H 0.40066 0.29554 0.69669 0.0
H539 H 0.4197 0.37565 0.6904 0.0
C540 C 0.138 0.50403 0.03342 0.0
C541 C 0.13735 0.46149 0.03257 0.0
C542 C 0.09964 0.50682 0.02677 0.0
C543 C 0.9757 0.43787 0.02478 0.0
H544 H 0.98507 0.54282 0.99362 0.0
C545 C 0.82134 0.4667 0.02192 0.0
C546 C 0.83153 0.51234 0.0262 0.0
C547 C 0.8565 0.45768 0.01626 0.0
C548 C 0.98192 0.51336 1.00236 0.0
H549 H 0.09689 0.38867 0.02381 0.0
H550 H 0.02871 0.39331 1.01261 0.0
H551 H 0.05198 0.53122 0.99543 0.0
H552 H 0.88545 0.58469 0.02679 0.0
H553 H 0.94788 0.56889 0.01809 0.0
H554 H 0.90711 0.42145 0.03301 0.0
C555 C 0.05923 0.42448 0.01824 0.0
C556 C 0.02005 0.5066 1.00328 0.0
C557 C 0.09798 0.4218 0.02468 0.0
C558 C 0.87703 0.54919 0.02373 0.0
C559 C 0.91257 0.54008 0.01852 0.0
C560 C 0.93783 0.44485 0.02406 0.0
C561 C 0.05974 0.46702 0.01936 0.0
C562 C 0.01755 0.4695 1.01498 0.0
C563 C 0.90278 0.49401 1.01531 0.0
C564 C 0.94087 0.48335 1.01331 0.0
H565 H 0.16803 0.5352 0.03939 0.0
H566 H 0.10058 0.53982 0.02816 0.0
H567 H 0.97313 0.4094 0.03416 0.0
H568 H 0.78622 0.43773 0.0233 0.0
H569 H 0.84758 0.42199 1.01331 0.0
C570 C 0.35902 0.83748 0.35884 0.0
C571 C 0.31812 0.83913 0.35585 0.0
C572 C 0.40009 0.86994 0.34911 0.0
C573 C 0.45647 0.98935 0.33156 0.0
H574 H 0.55523 0.96383 0.31754 0.0
C575 C 0.63993 0.13678 0.33493 0.0
C576 C 0.66696 0.12708 0.34875 0.0
C577 C 0.60057 0.1007 0.32542 0.0
C578 C 0.52792 0.9715 0.32119 0.0
H579 H 0.28724 0.87464 0.33978 0.0
H580 H 0.35958 0.93199 0.32268 0.0
H581 H 0.47525 0.89966 0.32 0.0
H582 H 0.6774 0.07318 0.36208 0.0
H583 H 0.60693 0.00939 0.34639 0.0
H584 H 0.50878 0.06047 0.33413 0.0
C585 C 0.35981 0.90561 0.33265 0.0
C586 C 0.4822 0.93485 0.3226 0.0
C587 C 0.31855 0.87302 0.34247 0.0
C588 C 0.65668 0.08113 0.35153 0.0
C589 C 0.61656 0.04478 0.34236 0.0
C590 C 0.50198 0.02587 0.33012 0.0
C591 C 0.40116 0.90478 0.33615 0.0
C592 C 0.44646 0.94329 0.32889 0.0
C593 C 0.58688 0.05428 0.3301 0.0
C594 C 0.53849 0.01713 0.32593 0.0
H595 H 0.35958 0.8116 0.36906 0.0
H596 H 0.43146 0.86892 0.35255 0.0
H597 H 0.4299 -0.00292 0.33661 0.0
H598 H 0.64802 0.17234 0.33227 0.0
H599 H 0.57908 0.10912 0.31561 0.0
C600 C 0.29499 0.30409 0.82801 0.0
C601 C 0.26527 0.25984 0.81922 0.0
C602 C 0.28812 0.3151 0.8487 0.0
C603 C 0.20004 0.28192 0.89095 0.0
H604 H 0.30719 0.34821 0.92768 0.0
C605 C 0.1836 0.31959 0.9801 0.0
C606 C 0.21781 0.36268 0.98835 0.0
C607 C 0.18819 0.30534 0.95963 0.0
C608 C 0.27688 0.33023 0.9176 0.0
H609 H 0.20488 0.19248 0.82568 0.0
H610 H 0.19251 0.21212 0.86161 0.0
H611 H 0.3173 0.32727 0.89175 0.0
H612 H 0.28324 0.42494 0.98125 0.0
H613 H 0.29061 0.40077 0.94574 0.0
H614 H 0.15967 0.28554 0.9167 0.0
C615 C 0.22101 0.23834 0.85235 0.0
C616 C 0.28272 0.31813 0.89697 0.0
C617 C 0.22808 0.22715 0.83169 0.0
C618 C 0.25634 0.39132 0.97557 0.0
C619 C 0.26077 0.37726 0.95515 0.0
C620 C 0.1942 0.29433 0.91159 0.0
C621 C 0.25115 0.28235 0.86117 0.0
C622 C 0.24446 0.29411 0.88332 0.0
C623 C 0.22699 0.33393 0.9469 0.0
C624 C 0.23262 0.319 0.92515 0.0
H625 H 0.32343 0.33055 0.81883 0.0
H626 H 0.31154 0.3496 0.85487 0.0
H627 H 0.16987 0.26375 0.88079 0.0
H628 H 0.15356 0.29659 0.98953 0.0
H629 H 0.16168 0.27154 0.95394 0.0
C630 C 0.88164 0.26833 0.31517 0.0
C631 C 0.85467 0.22363 0.32379 0.0
C632 C 0.90281 0.27449 0.29528 0.0
C633 C 0.93515 0.21372 0.25423 0.0
H634 H 0.94136 0.31014 0.21752 0.0
C635 C 0.98279 0.22757 0.16468 0.0
C636 C 0.01458 0.27214 0.15706 0.0
C637 C 0.96439 0.22174 0.18522 0.0
C638 C 0.94024 0.28331 0.22765 0.0
H639 H 0.82919 0.15029 0.31826 0.0
H640 H 0.86501 0.16076 0.28339 0.0
H641 H 0.90743 0.29962 0.25282 0.0
H642 H 0.05145 0.34561 0.16499 0.0
H643 H 0.01905 0.33545 0.20076 0.0
H644 H 0.967 0.19683 0.22867 0.0
C645 C 0.87077 0.19134 0.29215 0.0
C646 C 0.92094 0.27734 0.24798 0.0
C647 C 0.84999 0.18525 0.31217 0.0
C648 C 0.0273 0.31077 0.17042 0.0
C649 C 0.00847 0.305 0.19086 0.0
C650 C 0.95398 0.21938 0.23379 0.0
C651 C 0.89723 0.23604 0.28332 0.0
C652 C 0.91817 0.24251 0.26163 0.0
C653 C 0.97688 0.26041 0.19852 0.0
C654 C 0.95683 0.2543 0.22027 0.0
H655 H 0.88646 0.29874 0.3238 0.0
H656 H 0.92371 0.30954 0.28934 0.0
H657 H 0.93448 0.18707 0.26431 0.0
H658 H 0.97259 0.19708 0.15484 0.0
H659 H 0.93989 0.18697 0.19059 0.0
C660 C 0.60053 0.87766 0.64464 0.0
C661 C 0.62227 0.85666 0.65542 0.0
C662 C 0.61553 0.89676 0.62445 0.0
C663 C 0.67832 0.89232 0.57703 0.0
H664 H 0.68961 0.01185 0.56471 0.0
C665 C 0.75285 0.98768 0.49713 0.0
C666 C 0.73243 0.01201 0.48831 0.0
C667 C 0.74091 0.969 0.51762 0.0
C668 C 0.6861 0.97816 0.56774 0.0
H669 H 0.67672 0.83902 0.65322 0.0
H670 H 0.7028 0.8723 0.61783 0.0
H671 H 0.66607 0.97867 0.60007 0.0
H672 H 0.6825 0.0347 0.49394 0.0
H673 H 0.66113 0.00162 0.5294 0.0
H674 H 0.69756 0.89137 0.54461 0.0
C675 C 0.67401 0.87379 0.62507 0.0
C676 C 0.6727 0.9592 0.58807 0.0
C677 C 0.6592 0.85492 0.64539 0.0
C678 C 0.69946 0.01682 0.50038 0.0
C679 C 0.6873 -0.00209 0.52078 0.0
C680 C 0.69144 0.91115 0.55662 0.0
C681 C 0.6525 0.89519 0.61442 0.0
C682 C 0.66836 0.91592 0.59294 0.0
C683 C 0.70801 0.97393 0.52975 0.0
C684 C 0.69522 0.95423 0.55165 0.0
H685 H 0.57194 0.87964 0.65181 0.0
H686 H 0.59778 0.9124 0.61659 0.0
H687 H 0.67484 0.85868 0.5802 0.0
H688 H 0.77878 0.98384 0.48835 0.0
H689 H 0.75811 0.95139 0.52406 0.0
C690 C 0.68722 0.72658 0.83611 0.0
C691 C 0.72463 0.75353 0.82247 0.0
C692 C 0.69487 0.71448 0.85634 0.0
C693 C 0.78227 0.7039 0.88877 0.0
H694 H 0.70416 0.70009 0.93543 0.0
C695 C 0.8093 0.66495 0.97617 0.0
C696 C 0.76872 0.63321 0.98701 0.0
C697 C 0.80651 0.68254 0.95633 0.0
C698 C 0.72611 0.70072 0.92254 0.0
H699 H 0.79957 0.78922 0.81953 0.0
H700 H 0.81303 0.76846 0.85493 0.0
H701 H 0.69457 0.72535 0.90048 0.0
H702 H 0.69337 0.59549 0.98551 0.0
H703 H 0.68871 0.626 0.95118 0.0
H704 H 0.81376 0.67922 0.911 0.0
C705 C 0.77764 0.75601 0.84985 0.0
C706 C 0.72053 0.71509 0.90246 0.0
C707 C 0.76994 0.76796 0.82955 0.0
C708 C 0.72542 0.61978 0.97764 0.0
C709 C 0.72267 0.63757 0.95798 0.0
C710 C 0.78801 0.68972 0.90893 0.0
C711 C 0.74019 0.72918 0.86355 0.0
C712 C 0.74805 0.71623 0.88521 0.0
C713 C 0.76311 0.66912 0.94706 0.0
C714 C 0.75951 0.68732 0.92598 0.0
H715 H 0.65182 0.71419 0.83103 0.0
H716 H 0.66508 0.69295 0.86622 0.0
H717 H 0.80378 0.70386 0.87584 0.0
H718 H 0.84318 0.67602 0.98293 0.0
H719 H 0.83831 0.70703 0.94837 0.0
C720 C 0.14205 0.80761 0.3088 0.0
C721 C 0.13454 0.7687 0.32069 0.0
C722 C 0.12325 0.80208 0.28833 0.0
C723 C 0.07502 0.71641 0.24378 0.0
H724 H 0.02666 0.79438 0.22413 0.0
C725 C 0.9669 0.67574 0.16673 0.0
C726 C 0.97642 0.71316 0.15325 0.0
C727 C 0.98682 0.68362 0.18699 0.0
C728 C 0.04044 0.77262 0.22931 0.0
H729 H 0.10052 0.6933 0.32043 0.0
H730 H 0.06719 0.68371 0.28519 0.0
H731 H 0.05985 0.80616 0.25976 0.0
H732 H 0.01396 0.78834 0.15074 0.0
H733 H 0.04892 0.80209 0.1861 0.0
H734 H 0.05511 0.68252 0.21344 0.0
C735 C 0.08842 0.71864 0.29137 0.0
C736 C 0.05958 0.77941 0.24974 0.0
C737 C 0.10731 0.72416 0.31173 0.0
C738 C 0.00622 0.75871 0.16062 0.0
C739 C 0.02589 0.76661 0.18098 0.0
C740 C 0.05569 0.70947 0.22343 0.0
C741 C 0.09638 0.75748 0.27928 0.0
C742 C 0.07691 0.75121 0.25732 0.0
C743 C 0.01659 0.72915 0.19439 0.0
C744 C 0.03794 0.73731 0.21595 0.0
H745 H 0.16299 0.84243 0.31516 0.0
H746 H 0.13058 0.83286 0.27945 0.0
H747 H 0.08891 0.69465 0.24881 0.0
H748 H 0.94442 0.6402 0.16152 0.0
H749 H 0.97852 0.65397 0.19697 0.0
C750 C 0.38872 0.14282 0.63659 0.0
C751 C 0.35789 0.1469 0.65057 0.0
C752 C 0.37577 0.12773 0.61565 0.0
C753 C 0.27501 0.05635 0.5823 0.0
H754 H 0.35932 0.11938 0.53561 0.0
C755 C 0.22594 0.99273 0.49517 0.0
C756 C 0.26138 -0.00361 0.4817 0.0
C757 C 0.2364 0.01338 0.51539 0.0
C758 C 0.33553 0.10087 0.54844 0.0
H759 H 0.28907 0.13825 0.6534 0.0
H760 H 0.266 0.11087 0.61673 0.0
H761 H 0.37984 0.15151 0.57144 0.0
H762 H 0.3355 0.02391 0.47907 0.0
H763 H 0.35374 0.05874 0.51442 0.0
H764 H 0.23145 0.00471 0.5596 0.0
C765 C 0.30043 0.11982 0.62208 0.0
C766 C 0.34724 0.11956 0.56898 0.0
C767 C 0.31373 0.13576 0.64301 0.0
C768 C 0.30748 0.02105 0.48894 0.0
C769 C 0.31791 0.04121 0.50924 0.0
C770 C 0.26353 0.03727 0.56179 0.0
C771 C 0.33134 0.11558 0.60819 0.0
C772 C 0.3173 0.09734 0.58617 0.0
C773 C 0.28255 0.03779 0.52278 0.0
C774 C 0.29382 0.05904 0.54456 0.0
H775 H 0.42294 0.151 0.64183 0.0
H776 H 0.40021 0.12442 0.60542 0.0
H777 H 0.25148 0.03815 0.59527 0.0
H778 H 0.1901 0.97437 0.48995 0.0
H779 H 0.20823 0.01057 0.5251 0.0
loop_
_geom_bond_atom_site_label_1
_geom_bond_atom_site_label_2
_geom_bond_distance
_geom_bond_site_symmetry_2
_ccdc_geom_bond_type
Nd0 C2 2.836 . S
Nd0 O20 2.500 . S
Nd0 O21 2.492 . S
Nd0 O22 2.487 . S
Nd0 O23 2.682 . S
Nd0 O24 2.410 . S
Nd0 O29 2.414 . S
Nd0 O31 2.424 . S
Nd1 C11 2.836 1_554 S
Nd1 O23 2.414 . S
Nd1 O25 2.424 . S
Nd1 O26 2.500 1_554 S
Nd1 O27 2.492 1_554 S
Nd1 O28 2.487 . S
Nd1 O29 2.682 . S
Nd1 O30 2.410 1_554 S
C2 Nd0 2.836 . S
C2 C3 1.498 . S
C2 O20 1.258 . S
C2 O21 1.239 . S
C3 C2 1.498 . S
C3 C4 1.366 . S
C3 C8 1.407 . S
C4 C3 1.366 . S
C4 C5 1.392 . S
C4 H32 0.930 . S
C5 C4 1.392 . S
C5 C6 1.398 . S
C5 H33 0.929 . S
C6 C5 1.398 . S
C6 C7 1.352 . S
C7 C6 1.352 . S
C7 C8 1.384 . S
C7 H34 0.930 . S
C8 C3 1.407 . S
C8 C7 1.384 . S
C8 H35 0.929 . S
C9 O22 1.241 . S
C9 O23 1.273 . S
C10 O24 1.251 . S
C10 O25 1.268 . S
C11 Nd1 2.836 1_556 S
C11 C12 1.498 . S
C11 O26 1.258 . S
C11 O27 1.239 . S
C12 C11 1.498 . S
C12 C13 1.366 . S
C12 C17 1.407 . S
C13 C12 1.366 . S
C13 C14 1.392 . S
C13 H36 0.930 . S
C14 C13 1.392 . S
C14 C15 1.398 . S
C14 H37 0.929 . S
C15 C14 1.398 . S
C15 C16 1.352 . S
C16 C15 1.352 . S
C16 C17 1.384 . S
C16 H38 0.930 . S
C17 C12 1.407 . S
C17 C16 1.384 . S
C17 H39 0.929 . S
C18 O28 1.241 . S
C18 O29 1.273 . S
C19 O30 1.251 . S
C19 O31 1.268 1_556 S
O20 Nd0 2.500 . S
O20 C2 1.258 . S
O21 Nd0 2.492 . S
O21 C2 1.239 . S
O22 Nd0 2.487 . S
O22 C9 1.241 . S
O23 Nd0 2.682 . S
O23 Nd1 2.414 . S
O23 C9 1.273 . S
O24 Nd0 2.410 . S
O24 C10 1.251 . S
O25 Nd1 2.424 . S
O25 C10 1.268 . S
O26 Nd1 2.500 1_556 S
O26 C11 1.258 . S
O27 Nd1 2.492 1_556 S
O27 C11 1.239 . S
O28 Nd1 2.487 . S
O28 C18 1.241 . S
O29 Nd0 2.414 . S
O29 Nd1 2.682 . S
O29 C18 1.273 . S
O30 Nd1 2.410 1_556 S
O30 C19 1.251 . S
O31 Nd0 2.424 . S
O31 C19 1.268 1_554 S
H32 C4 0.930 . S
H33 C5 0.929 . S
H34 C7 0.930 . S
H35 C8 0.929 . S
H36 C13 0.930 . S
H37 C14 0.929 . S
H38 C16 0.930 . S
H39 C17 0.929 . S
Nd40 C42 2.836 . S
Nd40 O60 2.500 . S
Nd40 O61 2.492 . S
Nd40 O62 2.487 . S
Nd40 O63 2.682 . S
Nd40 O64 2.410 . S
Nd40 O69 2.414 . S
Nd40 O71 2.424 . S
Nd41 C51 2.836 . S
Nd41 O63 2.414 . S
Nd41 O65 2.424 . S
Nd41 O66 2.500 . S
Nd41 O67 2.492 . S
Nd41 O68 2.487 . S
Nd41 O69 2.682 . S
Nd41 O70 2.410 . S
C42 Nd40 2.836 . S
C42 C43 1.498 . S
C42 O60 1.258 . S
C42 O61 1.239 . S
C43 C42 1.498 . S
C43 C44 1.366 . S
C43 C48 1.407 . S
C44 C43 1.366 . S
C44 C45 1.392 . S
C44 H72 0.930 . S
C45 C44 1.392 . S
C45 C46 1.398 . S
C45 H73 0.929 . S
C46 C45 1.398 . S
C46 C47 1.352 . S
C47 C46 1.352 . S
C47 C48 1.384 . S
C47 H74 0.930 . S
C48 C43 1.407 . S
C48 C47 1.384 . S
C48 H75 0.929 . S
C49 O62 1.241 . S
C49 O63 1.273 . S
C50 O64 1.251 . S
C50 O65 1.268 . S
C51 Nd41 2.836 . S
C51 C52 1.498 . S
C51 O66 1.258 . S
C51 O67 1.239 . S
C52 C51 1.498 . S
C52 C53 1.366 . S
C52 C57 1.407 . S
C53 C52 1.366 . S
C53 C54 1.392 . S
C53 H76 0.930 . S
C54 C53 1.392 . S
C54 C55 1.398 . S
C54 H77 0.929 . S
C55 C54 1.398 . S
C55 C56 1.352 . S
C56 C55 1.352 . S
C56 C57 1.384 . S
C56 H78 0.930 . S
C57 C52 1.407 . S
C57 C56 1.384 . S
C57 H79 0.929 . S
C58 O68 1.241 . S
C58 O69 1.273 . S
C59 O70 1.251 . S
C59 O71 1.268 . S
O60 Nd40 2.500 . S
O60 C42 1.258 . S
O61 Nd40 2.492 . S
O61 C42 1.239 . S
O62 Nd40 2.487 . S
O62 C49 1.241 . S
O63 Nd40 2.682 . S
O63 Nd41 2.414 . S
O63 C49 1.273 . S
O64 Nd40 2.410 . S
O64 C50 1.251 . S
O65 Nd41 2.424 . S
O65 C50 1.268 . S
O66 Nd41 2.500 . S
O66 C51 1.258 . S
O67 Nd41 2.492 . S
O67 C51 1.239 . S
O68 Nd41 2.487 . S
O68 C58 1.241 . S
O69 Nd40 2.414 . S
O69 Nd41 2.682 . S
O69 C58 1.273 . S
O70 Nd41 2.410 . S
O70 C59 1.251 . S
O71 Nd40 2.424 . S
O71 C59 1.268 . S
H72 C44 0.930 . S
H73 C45 0.929 . S
H74 C47 0.930 . S
H75 C48 0.929 . S
H76 C53 0.930 . S
H77 C54 0.929 . S
H78 C56 0.930 . S
H79 C57 0.929 . S
Nd80 C82 2.836 . S
Nd80 O100 2.500 . S
Nd80 O101 2.492 . S
Nd80 O102 2.487 . S
Nd80 O103 2.682 . S
Nd80 O104 2.410 . S
Nd80 O109 2.414 . S
Nd80 O111 2.424 . S
Nd81 C91 2.836 . S
Nd81 O103 2.414 . S
Nd81 O105 2.424 . S
Nd81 O106 2.500 . S
Nd81 O107 2.492 . S
Nd81 O108 2.487 . S
Nd81 O109 2.682 . S
Nd81 O110 2.410 . S
C82 Nd80 2.836 . S
C82 C83 1.498 . S
C82 O100 1.258 . S
C82 O101 1.239 . S
C83 C82 1.498 . S
C83 C84 1.366 . S
C83 C88 1.407 . S
C84 C83 1.366 . S
C84 C85 1.392 . S
C84 H112 0.930 . S
C85 C84 1.392 . S
C85 C86 1.398 . S
C85 H113 0.929 . S
C86 C85 1.398 . S
C86 C87 1.352 . S
C87 C86 1.352 . S
C87 C88 1.384 . S
C87 H114 0.930 . S
C88 C83 1.407 . S
C88 C87 1.384 . S
C88 H115 0.929 . S
C89 O102 1.241 . S
C89 O103 1.273 . S
C90 O104 1.251 . S
C90 O105 1.268 . S
C91 Nd81 2.836 . S
C91 C92 1.498 . S
C91 O106 1.258 . S
C91 O107 1.239 . S
C92 C91 1.498 . S
C92 C93 1.366 . S
C92 C97 1.407 . S
C93 C92 1.366 . S
C93 C94 1.392 . S
C93 H116 0.930 . S
C94 C93 1.392 . S
C94 C95 1.398 . S
C94 H117 0.929 . S
C95 C94 1.398 . S
C95 C96 1.352 . S
C96 C95 1.352 . S
C96 C97 1.384 . S
C96 H118 0.930 . S
C97 C92 1.407 . S
C97 C96 1.384 . S
C97 H119 0.929 . S
C98 O108 1.241 . S
C98 O109 1.273 . S
C99 O110 1.251 . S
C99 O111 1.268 . S
O100 Nd80 2.500 . S
O100 C82 1.258 . S
O101 Nd80 2.492 . S
O101 C82 1.239 . S
O102 Nd80 2.487 . S
O102 C89 1.241 . S
O103 Nd80 2.682 . S
O103 Nd81 2.414 . S
O103 C89 1.273 . S
O104 Nd80 2.410 . S
O104 C90 1.251 . S
O105 Nd81 2.424 . S
O105 C90 1.268 . S
O106 Nd81 2.500 . S
O106 C91 1.258 . S
O107 Nd81 2.492 . S
O107 C91 1.239 . S
O108 Nd81 2.487 . S
O108 C98 1.241 . S
O109 Nd80 2.414 . S
O109 Nd81 2.682 . S
O109 C98 1.273 . S
O110 Nd81 2.410 . S
O110 C99 1.251 . S
O111 Nd80 2.424 . S
O111 C99 1.268 . S
H112 C84 0.930 . S
H113 C85 0.929 . S
H114 C87 0.930 . S
H115 C88 0.929 . S
H116 C93 0.930 . S
H117 C94 0.929 . S
H118 C96 0.930 . S
H119 C97 0.929 . S
Nd120 C122 2.836 . S
Nd120 O140 2.500 . S
Nd120 O141 2.492 . S
Nd120 O142 2.487 . S
Nd120 O143 2.682 . S
Nd120 O144 2.410 . S
Nd120 O149 2.414 . S
Nd120 O151 2.424 . S
Nd121 C131 2.836 1_554 S
Nd121 O143 2.414 . S
Nd121 O145 2.424 . S
Nd121 O146 2.500 1_554 S
Nd121 O147 2.492 1_554 S
Nd121 O148 2.487 . S
Nd121 O149 2.682 . S
Nd121 O150 2.410 1_554 S
C122 Nd120 2.836 . S
C122 C123 1.498 . S
C122 O140 1.258 . S
C122 O141 1.239 . S
C123 C122 1.498 . S
C123 C124 1.366 . S
C123 C128 1.407 . S
C124 C123 1.366 . S
C124 C125 1.392 . S
C124 H152 0.930 . S
C125 C124 1.392 . S
C125 C126 1.398 . S
C125 H153 0.929 . S
C126 C125 1.398 . S
C126 C127 1.352 . S
C127 C126 1.352 . S
C127 C128 1.384 . S
C127 H154 0.930 . S
C128 C123 1.407 . S
C128 C127 1.384 . S
C128 H155 0.929 . S
C129 O142 1.241 . S
C129 O143 1.273 . S
C130 O144 1.251 . S
C130 O145 1.268 . S
C131 Nd121 2.836 1_556 S
C131 C132 1.498 . S
C131 O146 1.258 . S
C131 O147 1.239 . S
C132 C131 1.498 . S
C132 C133 1.366 . S
C132 C137 1.407 . S
C133 C132 1.366 . S
C133 C134 1.392 . S
C133 H156 0.930 . S
C134 C133 1.392 . S
C134 C135 1.398 . S
C134 H157 0.929 . S
C135 C134 1.398 . S
C135 C136 1.352 . S
C136 C135 1.352 . S
C136 C137 1.384 . S
C136 H158 0.930 . S
C137 C132 1.407 . S
C137 C136 1.384 . S
C137 H159 0.929 . S
C138 O148 1.241 . S
C138 O149 1.273 . S
C139 O150 1.251 . S
C139 O151 1.268 1_556 S
O140 Nd120 2.500 . S
O140 C122 1.258 . S
O141 Nd120 2.492 . S
O141 C122 1.239 . S
O142 Nd120 2.487 . S
O142 C129 1.241 . S
O143 Nd120 2.682 . S
O143 Nd121 2.414 . S
O143 C129 1.273 . S
O144 Nd120 2.410 . S
O144 C130 1.251 . S
O145 Nd121 2.424 . S
O145 C130 1.268 . S
O146 Nd121 2.500 1_556 S
O146 C131 1.258 . S
O147 Nd121 2.492 1_556 S
O147 C131 1.239 . S
O148 Nd121 2.487 . S
O148 C138 1.241 . S
O149 Nd120 2.414 . S
O149 Nd121 2.682 . S
O149 C138 1.273 . S
O150 Nd121 2.410 1_556 S
O150 C139 1.251 . S
O151 Nd120 2.424 . S
O151 C139 1.268 1_554 S
H152 C124 0.930 . S
H153 C125 0.929 . S
H154 C127 0.930 . S
H155 C128 0.929 . S
H156 C133 0.930 . S
H157 C134 0.929 . S
H158 C136 0.930 . S
H159 C137 0.929 . S
Nd160 C162 2.836 . S
Nd160 O180 2.500 . S
Nd160 O181 2.492 . S
Nd160 O182 2.487 . S
Nd160 O183 2.682 . S
Nd160 O184 2.410 . S
Nd160 O189 2.414 . S
Nd160 O191 2.424 . S
Nd161 C171 2.836 . S
Nd161 O183 2.414 . S
Nd161 O185 2.424 . S
Nd161 O186 2.500 . S
Nd161 O187 2.492 . S
Nd161 O188 2.487 . S
Nd161 O189 2.682 . S
Nd161 O190 2.410 . S
C162 Nd160 2.836 . S
C162 C163 1.498 . S
C162 O180 1.258 . S
C162 O181 1.239 . S
C163 C162 1.498 . S
C163 C164 1.366 . S
C163 C168 1.407 . S
C164 C163 1.366 . S
C164 C165 1.392 . S
C164 H192 0.930 . S
C165 C164 1.392 . S
C165 C166 1.398 . S
C165 H193 0.929 . S
C166 C165 1.398 . S
C166 C167 1.352 . S
C167 C166 1.352 . S
C167 C168 1.384 . S
C167 H194 0.930 . S
C168 C163 1.407 . S
C168 C167 1.384 . S
C168 H195 0.929 . S
C169 O182 1.241 . S
C169 O183 1.273 . S
C170 O184 1.251 . S
C170 O185 1.268 . S
C171 Nd161 2.836 . S
C171 C172 1.498 . S
C171 O186 1.258 . S
C171 O187 1.239 . S
C172 C171 1.498 . S
C172 C173 1.366 . S
C172 C177 1.407 . S
C173 C172 1.366 . S
C173 C174 1.392 . S
C173 H196 0.930 . S
C174 C173 1.392 . S
C174 C175 1.398 . S
C174 H197 0.929 . S
C175 C174 1.398 . S
C175 C176 1.352 . S
C176 C175 1.352 . S
C176 C177 1.384 . S
C176 H198 0.930 . S
C177 C172 1.407 . S
C177 C176 1.384 . S
C177 H199 0.929 . S
C178 O188 1.241 . S
C178 O189 1.273 . S
C179 O190 1.251 . S
C179 O191 1.268 . S
O180 Nd160 2.500 . S
O180 C162 1.258 . S
O181 Nd160 2.492 . S
O181 C162 1.239 . S
O182 Nd160 2.487 . S
O182 C169 1.241 . S
O183 Nd160 2.682 . S
O183 Nd161 2.414 . S
O183 C169 1.273 . S
O184 Nd160 2.410 . S
O184 C170 1.251 . S
O185 Nd161 2.424 . S
O185 C170 1.268 . S
O186 Nd161 2.500 . S
O186 C171 1.258 . S
O187 Nd161 2.492 . S
O187 C171 1.239 . S
O188 Nd161 2.487 . S
O188 C178 1.241 . S
O189 Nd160 2.414 . S
O189 Nd161 2.682 . S
O189 C178 1.273 . S
O190 Nd161 2.410 . S
O190 C179 1.251 . S
O191 Nd160 2.424 . S
O191 C179 1.268 . S
H192 C164 0.930 . S
H193 C165 0.929 . S
H194 C167 0.930 . S
H195 C168 0.929 . S
H196 C173 0.930 . S
H197 C174 0.929 . S
H198 C176 0.930 . S
H199 C177 0.929 . S
Nd200 C202 2.836 . S
Nd200 O220 2.500 . S
Nd200 O221 2.492 . S
Nd200 O222 2.487 . S
Nd200 O223 2.682 . S
Nd200 O224 2.410 . S
Nd200 O229 2.414 . S
Nd200 O231 2.424 . S
Nd201 C211 2.836 . S
Nd201 O223 2.414 . S
Nd201 O225 2.424 . S
Nd201 O226 2.500 . S
Nd201 O227 2.492 . S
Nd201 O228 2.487 . S
Nd201 O229 2.682 . S
Nd201 O230 2.410 . S
C202 Nd200 2.836 . S
C202 C203 1.498 . S
C202 O220 1.258 . S
C202 O221 1.239 . S
C203 C202 1.498 . S
C203 C204 1.366 . S
C203 C208 1.407 . S
C204 C203 1.366 . S
C204 C205 1.392 . S
C204 H232 0.930 . S
C205 C204 1.392 . S
C205 C206 1.398 . S
C205 H233 0.929 . S
C206 C205 1.398 . S
C206 C207 1.352 . S
C207 C206 1.352 . S
C207 C208 1.384 . S
C207 H234 0.930 . S
C208 C203 1.407 . S
C208 C207 1.384 . S
C208 H235 0.929 . S
C209 O222 1.241 . S
C209 O223 1.273 . S
C210 O224 1.251 . S
C210 O225 1.268 . S
C211 Nd201 2.836 . S
C211 C212 1.498 . S
C211 O226 1.258 . S
C211 O227 1.239 . S
C212 C211 1.498 . S
C212 C213 1.366 . S
C212 C217 1.407 . S
C213 C212 1.366 . S
C213 C214 1.392 . S
C213 H236 0.930 . S
C214 C213 1.392 . S
C214 C215 1.398 . S
C214 H237 0.929 . S
C215 C214 1.398 . S
C215 C216 1.352 . S
C216 C215 1.352 . S
C216 C217 1.384 . S
C216 H238 0.930 . S
C217 C212 1.407 . S
C217 C216 1.384 . S
C217 H239 0.929 . S
C218 O228 1.241 . S
C218 O229 1.273 . S
C219 O230 1.251 . S
C219 O231 1.268 . S
O220 Nd200 2.500 . S
O220 C202 1.258 . S
O221 Nd200 2.492 . S
O221 C202 1.239 . S
O222 Nd200 2.487 . S
O222 C209 1.241 . S
O223 Nd200 2.682 . S
O223 Nd201 2.414 . S
O223 C209 1.273 . S
O224 Nd200 2.410 . S
O224 C210 1.251 . S
O225 Nd201 2.424 . S
O225 C210 1.268 . S
O226 Nd201 2.500 . S
O226 C211 1.258 . S
O227 Nd201 2.492 . S
O227 C211 1.239 . S
O228 Nd201 2.487 . S
O228 C218 1.241 . S
O229 Nd200 2.414 . S
O229 Nd201 2.682 . S
O229 C218 1.273 . S
O230 Nd201 2.410 . S
O230 C219 1.251 . S
O231 Nd200 2.424 . S
O231 C219 1.268 . S
H232 C204 0.930 . S
H233 C205 0.929 . S
H234 C207 0.930 . S
H235 C208 0.929 . S
H236 C213 0.930 . S
H237 C214 0.929 . S
H238 C216 0.930 . S
H239 C217 0.929 . S
C240 C241 1.349 . S
C240 C242 1.327 . S
C240 H265 0.950 . S
C241 C240 1.349 . S
C241 C257 1.349 . S
C242 C240 1.327 . S
C242 C261 1.429 . S
C242 H266 0.950 . S
C243 C260 1.574 . S
C243 C262 1.368 . S
C243 H267 0.949 . S
H244 C248 0.949 . S
C245 C246 1.349 . S
C245 C247 1.327 . S
C245 H268 0.950 . S
C246 C245 1.349 . S
C246 C258 1.349 . S
C247 C245 1.327 . S
C247 C263 1.429 . S
C247 H269 0.950 . S
C248 H244 0.949 . S
C248 C256 1.574 . S
C248 C264 1.368 . S
H249 C257 0.950 . S
H250 C255 0.950 . S
H251 C256 0.949 . S
H252 C258 0.950 . S
H253 C259 0.950 . S
H254 C260 0.949 . S
C255 H250 0.950 . S
C255 C257 1.327 . S
C255 C261 1.429 . S
C256 C248 1.574 . S
C256 H251 0.949 . S
C256 C262 1.368 . S
C257 C241 1.349 . S
C257 H249 0.950 . S
C257 C255 1.327 . S
C258 C246 1.349 . S
C258 H252 0.950 . S
C258 C259 1.327 . S
C259 H253 0.950 . S
C259 C258 1.327 . S
C259 C263 1.429 . S
C260 C243 1.574 . S
C260 H254 0.949 . S
C260 C264 1.368 . S
C261 C242 1.429 . S
C261 C255 1.429 . S
C261 C262 1.523 . S
C262 C243 1.368 . S
C262 C256 1.368 . S
C262 C261 1.523 . S
C263 C247 1.429 . S
C263 C259 1.429 . S
C263 C264 1.523 . S
C264 C248 1.368 . S
C264 C260 1.368 . S
C264 C263 1.523 . S
H265 C240 0.950 . S
H266 C242 0.950 . S
H267 C243 0.949 . S
H268 C245 0.950 . S
H269 C247 0.950 . S
C270 C271 1.349 . S
C270 C272 1.327 . S
C270 H295 0.950 . S
C271 C270 1.349 . S
C271 C287 1.349 . S
C272 C270 1.327 . S
C272 C291 1.429 . S
C272 H296 0.950 . S
C273 C290 1.574 . S
C273 C292 1.368 . S
C273 H297 0.949 . S
H274 C278 0.949 . S
C275 C276 1.349 . S
C275 C277 1.327 . S
C275 H298 0.950 . S
C276 C275 1.349 . S
C276 C288 1.349 . S
C277 C275 1.327 . S
C277 C293 1.429 . S
C277 H299 0.950 . S
C278 H274 0.949 . S
C278 C286 1.574 . S
C278 C294 1.368 . S
H279 C287 0.950 . S
H280 C285 0.950 . S
H281 C286 0.949 . S
H282 C288 0.950 . S
H283 C289 0.950 . S
H284 C290 0.949 . S
C285 H280 0.950 . S
C285 C287 1.327 . S
C285 C291 1.429 . S
C286 C278 1.574 . S
C286 H281 0.949 . S
C286 C292 1.368 . S
C287 C271 1.349 . S
C287 H279 0.950 . S
C287 C285 1.327 . S
C288 C276 1.349 . S
C288 H282 0.950 . S
C288 C289 1.327 . S
C289 H283 0.950 . S
C289 C288 1.327 . S
C289 C293 1.429 . S
C290 C273 1.574 . S
C290 H284 0.949 . S
C290 C294 1.368 . S
C291 C272 1.429 . S
C291 C285 1.429 . S
C291 C292 1.523 . S
C292 C273 1.368 . S
C292 C286 1.368 . S
C292 C291 1.523 . S
C293 C277 1.429 . S
C293 C289 1.429 . S
C293 C294 1.523 . S
C294 C278 1.368 . S
C294 C290 1.368 . S
C294 C293 1.523 . S
H295 C270 0.950 . S
H296 C272 0.950 . S
H297 C273 0.949 . S
H298 C275 0.950 . S
H299 C277 0.950 . S
C300 C301 1.349 . S
C300 C302 1.327 . S
C300 H325 0.950 . S
C301 C300 1.349 . S
C301 C317 1.349 . S
C302 C300 1.327 . S
C302 C321 1.429 . S
C302 H326 0.950 . S
C303 C320 1.574 . S
C303 C322 1.368 . S
C303 H327 0.949 . S
H304 C308 0.949 . S
C305 C306 1.349 . S
C305 C307 1.327 . S
C305 H328 0.950 . S
C306 C305 1.349 . S
C306 C318 1.349 . S
C307 C305 1.327 . S
C307 C323 1.429 . S
C307 H329 0.950 . S
C308 H304 0.949 . S
C308 C316 1.574 . S
C308 C324 1.368 . S
H309 C317 0.950 . S
H310 C315 0.950 . S
H311 C316 0.949 . S
H312 C318 0.950 . S
H313 C319 0.950 . S
H314 C320 0.949 . S
C315 H310 0.950 . S
C315 C317 1.327 . S
C315 C321 1.429 . S
C316 C308 1.574 . S
C316 H311 0.949 . S
C316 C322 1.368 . S
C317 C301 1.349 . S
C317 H309 0.950 . S
C317 C315 1.327 . S
C318 C306 1.349 . S
C318 H312 0.950 . S
C318 C319 1.327 . S
C319 H313 0.950 . S
C319 C318 1.327 . S
C319 C323 1.429 . S
C320 C303 1.574 . S
C320 H314 0.949 . S
C320 C324 1.368 . S
C321 C302 1.429 . S
C321 C315 1.429 . S
C321 C322 1.523 . S
C322 C303 1.368 . S
C322 C316 1.368 . S
C322 C321 1.523 . S
C323 C307 1.429 . S
C323 C319 1.429 . S
C323 C324 1.523 . S
C324 C308 1.368 . S
C324 C320 1.368 . S
C324 C323 1.523 . S
H325 C300 0.950 . S
H326 C302 0.950 . S
H327 C303 0.949 . S
H328 C305 0.950 . S
H329 C307 0.950 . S
C330 C331 1.349 . S
C330 C332 1.327 . S
C330 H355 0.950 . S
C331 C330 1.349 . S
C331 C347 1.349 . S
C332 C330 1.327 . S
C332 C351 1.429 . S
C332 H356 0.950 . S
C333 C350 1.574 . S
C333 C352 1.368 . S
C333 H357 0.949 . S
H334 C338 0.949 . S
C335 C336 1.349 . S
C335 C337 1.327 . S
C335 H358 0.950 . S
C336 C335 1.349 . S
C336 C348 1.349 . S
C337 C335 1.327 . S
C337 C353 1.429 . S
C337 H359 0.950 . S
C338 H334 0.949 . S
C338 C346 1.574 . S
C338 C354 1.368 . S
H339 C347 0.950 . S
H340 C345 0.950 . S
H341 C346 0.949 . S
H342 C348 0.950 . S
H343 C349 0.950 . S
H344 C350 0.949 . S
C345 H340 0.950 . S
C345 C347 1.327 . S
C345 C351 1.429 . S
C346 C338 1.574 . S
C346 H341 0.949 . S
C346 C352 1.368 . S
C347 C331 1.349 . S
C347 H339 0.950 . S
C347 C345 1.327 . S
C348 C336 1.349 . S
C348 H342 0.950 . S
C348 C349 1.327 . S
C349 H343 0.950 . S
C349 C348 1.327 . S
C349 C353 1.429 . S
C350 C333 1.574 . S
C350 H344 0.949 . S
C350 C354 1.368 . S
C351 C332 1.429 . S
C351 C345 1.429 . S
C351 C352 1.523 . S
C352 C333 1.368 . S
C352 C346 1.368 . S
C352 C351 1.523 . S
C353 C337 1.429 . S
C353 C349 1.429 . S
C353 C354 1.523 . S
C354 C338 1.368 . S
C354 C350 1.368 . S
C354 C353 1.523 . S
H355 C330 0.950 . S
H356 C332 0.950 . S
H357 C333 0.949 . S
H358 C335 0.950 . S
H359 C337 0.950 . S
C360 C361 1.349 . S
C360 C362 1.327 . S
C360 H385 0.950 . S
C361 C360 1.349 . S
C361 C377 1.349 . S
C362 C360 1.327 . S
C362 C381 1.429 . S
C362 H386 0.950 . S
C363 C380 1.574 . S
C363 C382 1.368 . S
C363 H387 0.949 . S
H364 C368 0.949 . S
C365 C366 1.349 . S
C365 C367 1.327 . S
C365 H388 0.950 . S
C366 C365 1.349 . S
C366 C378 1.349 . S
C367 C365 1.327 . S
C367 C383 1.429 . S
C367 H389 0.950 . S
C368 H364 0.949 . S
C368 C376 1.574 . S
C368 C384 1.368 . S
H369 C377 0.950 . S
H370 C375 0.950 . S
H371 C376 0.949 . S
H372 C378 0.950 . S
H373 C379 0.950 . S
H374 C380 0.949 . S
C375 H370 0.950 . S
C375 C377 1.327 . S
C375 C381 1.429 . S
C376 C368 1.574 . S
C376 H371 0.949 . S
C376 C382 1.368 . S
C377 C361 1.349 . S
C377 H369 0.950 . S
C377 C375 1.327 . S
C378 C366 1.349 . S
C378 H372 0.950 . S
C378 C379 1.327 . S
C379 H373 0.950 . S
C379 C378 1.327 . S
C379 C383 1.429 . S
C380 C363 1.574 . S
C380 H374 0.949 . S
C380 C384 1.368 . S
C381 C362 1.429 . S
C381 C375 1.429 . S
C381 C382 1.523 . S
C382 C363 1.368 . S
C382 C376 1.368 . S
C382 C381 1.523 . S
C383 C367 1.429 . S
C383 C379 1.429 . S
C383 C384 1.523 . S
C384 C368 1.368 . S
C384 C380 1.368 . S
C384 C383 1.523 . S
H385 C360 0.950 . S
H386 C362 0.950 . S
H387 C363 0.949 . S
H388 C365 0.950 . S
H389 C367 0.950 . S
C390 C391 1.349 . S
C390 C392 1.327 . S
C390 H415 0.950 . S
C391 C390 1.349 . S
C391 C407 1.349 . S
C392 C390 1.327 . S
C392 C411 1.429 . S
C392 H416 0.950 . S
C393 C410 1.574 . S
C393 C412 1.368 . S
C393 H417 0.949 . S
H394 C398 0.949 . S
C395 C396 1.349 . S
C395 C397 1.327 . S
C395 H418 0.950 . S
C396 C395 1.349 . S
C396 C408 1.349 . S
C397 C395 1.327 . S
C397 C413 1.429 . S
C397 H419 0.950 . S
C398 H394 0.949 . S
C398 C406 1.574 . S
C398 C414 1.368 . S
H399 C407 0.950 . S
H400 C405 0.950 . S
H401 C406 0.949 . S
H402 C408 0.950 . S
H403 C409 0.950 . S
H404 C410 0.949 . S
C405 H400 0.950 . S
C405 C407 1.327 . S
C405 C411 1.429 . S
C406 C398 1.574 . S
C406 H401 0.949 . S
C406 C412 1.368 . S
C407 C391 1.349 . S
C407 H399 0.950 . S
C407 C405 1.327 . S
C408 C396 1.349 . S
C408 H402 0.950 . S
C408 C409 1.327 . S
C409 H403 0.950 . S
C409 C408 1.327 . S
C409 C413 1.429 . S
C410 C393 1.574 . S
C410 H404 0.949 . S
C410 C414 1.368 . S
C411 C392 1.429 . S
C411 C405 1.429 . S
C411 C412 1.523 . S
C412 C393 1.368 . S
C412 C406 1.368 . S
C412 C411 1.523 . S
C413 C397 1.429 . S
C413 C409 1.429 . S
C413 C414 1.523 . S
C414 C398 1.368 . S
C414 C410 1.368 . S
C414 C413 1.523 . S
H415 C390 0.950 . S
H416 C392 0.950 . S
H417 C393 0.949 . S
H418 C395 0.950 . S
H419 C397 0.950 . S
C420 C421 1.349 . S
C420 C422 1.327 . S
C420 H445 0.950 . S
C421 C420 1.349 . S
C421 C437 1.349 . S
C422 C420 1.327 . S
C422 C441 1.429 . S
C422 H446 0.950 . S
C423 C440 1.574 . S
C423 C442 1.368 . S
C423 H447 0.949 . S
H424 C428 0.949 . S
C425 C426 1.349 . S
C425 C427 1.327 . S
C425 H448 0.950 . S
C426 C425 1.349 . S
C426 C438 1.349 . S
C427 C425 1.327 . S
C427 C443 1.429 . S
C427 H449 0.950 . S
C428 H424 0.949 . S
C428 C436 1.574 . S
C428 C444 1.368 . S
H429 C437 0.950 . S
H430 C435 0.950 . S
H431 C436 0.949 . S
H432 C438 0.950 . S
H433 C439 0.950 . S
H434 C440 0.949 . S
C435 H430 0.950 . S
C435 C437 1.327 . S
C435 C441 1.429 . S
C436 C428 1.574 . S
C436 H431 0.949 . S
C436 C442 1.368 . S
C437 C421 1.349 . S
C437 H429 0.950 . S
C437 C435 1.327 . S
C438 C426 1.349 . S
C438 H432 0.950 . S
C438 C439 1.327 . S
C439 H433 0.950 . S
C439 C438 1.327 . S
C439 C443 1.429 . S
C440 C423 1.574 . S
C440 H434 0.949 . S
C440 C444 1.368 . S
C441 C422 1.429 . S
C441 C435 1.429 . S
C441 C442 1.523 . S
C442 C423 1.368 . S
C442 C436 1.368 . S
C442 C441 1.523 . S
C443 C427 1.429 . S
C443 C439 1.429 . S
C443 C444 1.523 . S
C444 C428 1.368 . S
C444 C440 1.368 . S
C444 C443 1.523 . S
H445 C420 0.950 . S
H446 C422 0.950 . S
H447 C423 0.949 . S
H448 C425 0.950 . S
H449 C427 0.950 . S
C450 C451 1.349 . S
C450 C452 1.327 . S
C450 H475 0.950 . S
C451 C450 1.349 . S
C451 C467 1.349 . S
C452 C450 1.327 . S
C452 C471 1.429 . S
C452 H476 0.950 . S
C453 C470 1.574 . S
C453 C472 1.368 . S
C453 H477 0.949 . S
H454 C458 0.949 . S
C455 C456 1.349 . S
C455 C457 1.327 . S
C455 H478 0.950 . S
C456 C455 1.349 . S
C456 C468 1.349 . S
C457 C455 1.327 . S
C457 C473 1.429 . S
C457 H479 0.950 . S
C458 H454 0.949 . S
C458 C466 1.574 . S
C458 C474 1.368 . S
H459 C467 0.950 . S
H460 C465 0.950 . S
H461 C466 0.949 . S
H462 C468 0.950 . S
H463 C469 0.950 . S
H464 C470 0.949 . S
C465 H460 0.950 . S
C465 C467 1.327 . S
C465 C471 1.429 . S
C466 C458 1.574 . S
C466 H461 0.949 . S
C466 C472 1.368 1_655 S
C467 C451 1.349 . S
C467 H459 0.950 . S
C467 C465 1.327 . S
C468 C456 1.349 . S
C468 H462 0.950 . S
C468 C469 1.327 . S
C469 H463 0.950 . S
C469 C468 1.327 . S
C469 C473 1.429 . S
C470 C453 1.574 . S
C470 H464 0.949 . S
C470 C474 1.368 1_455 S
C471 C452 1.429 . S
C471 C465 1.429 . S
C471 C472 1.523 . S
C472 C453 1.368 . S
C472 C466 1.368 1_455 S
C472 C471 1.523 . S
C473 C457 1.429 . S
C473 C469 1.429 . S
C473 C474 1.523 . S
C474 C458 1.368 . S
C474 C470 1.368 1_655 S
C474 C473 1.523 . S
H475 C450 0.950 . S
H476 C452 0.950 . S
H477 C453 0.949 . S
H478 C455 0.950 . S
H479 C457 0.950 . S
C480 C481 1.349 . S
C480 C482 1.327 . S
C480 H505 0.950 . S
C481 C480 1.349 . S
C481 C497 1.349 . S
C482 C480 1.327 . S
C482 C501 1.429 . S
C482 H506 0.950 . S
C483 C500 1.574 . S
C483 C502 1.368 1_565 S
C483 H507 0.949 . S
H484 C488 0.949 . S
C485 C486 1.349 . S
C485 C487 1.327 . S
C485 H508 0.950 . S
C486 C485 1.349 . S
C486 C498 1.349 . S
C487 C485 1.327 . S
C487 C503 1.429 . S
C487 H509 0.950 . S
C488 H484 0.949 . S
C488 C496 1.574 . S
C488 C504 1.368 1_545 S
H489 C497 0.950 . S
H490 C495 0.950 . S
H491 C496 0.949 . S
H492 C498 0.950 . S
H493 C499 0.950 . S
H494 C500 0.949 . S
C495 H490 0.950 . S
C495 C497 1.327 . S
C495 C501 1.429 . S
C496 C488 1.574 . S
C496 H491 0.949 . S
C496 C502 1.368 . S
C497 C481 1.349 . S
C497 H489 0.950 . S
C497 C495 1.327 . S
C498 C486 1.349 . S
C498 H492 0.950 . S
C498 C499 1.327 . S
C499 H493 0.950 . S
C499 C498 1.327 . S
C499 C503 1.429 . S
C500 C483 1.574 . S
C500 H494 0.949 . S
C500 C504 1.368 . S
C501 C482 1.429 . S
C501 C495 1.429 . S
C501 C502 1.523 . S
C502 C483 1.368 1_545 S
C502 C496 1.368 . S
C502 C501 1.523 . S
C503 C487 1.429 . S
C503 C499 1.429 . S
C503 C504 1.523 . S
C504 C488 1.368 1_565 S
C504 C500 1.368 . S
C504 C503 1.523 . S
H505 C480 0.950 . S
H506 C482 0.950 . S
H507 C483 0.949 . S
H508 C485 0.950 . S
H509 C487 0.950 . S
C510 C511 1.349 . S
C510 C512 1.327 . S
C510 H535 0.950 . S
C511 C510 1.349 . S
C511 C527 1.349 . S
C512 C510 1.327 . S
C512 C531 1.429 . S
C512 H536 0.950 . S
C513 C530 1.574 . S
C513 C532 1.368 . S
C513 H537 0.949 . S
H514 C518 0.949 . S
C515 C516 1.349 . S
C515 C517 1.327 . S
C515 H538 0.950 . S
C516 C515 1.349 . S
C516 C528 1.349 . S
C517 C515 1.327 . S
C517 C533 1.429 . S
C517 H539 0.950 . S
C518 H514 0.949 . S
C518 C526 1.574 . S
C518 C534 1.368 . S
H519 C527 0.950 . S
H520 C525 0.950 . S
H521 C526 0.949 . S
H522 C528 0.950 . S
H523 C529 0.950 . S
H524 C530 0.949 . S
C525 H520 0.950 . S
C525 C527 1.327 . S
C525 C531 1.429 . S
C526 C518 1.574 . S
C526 H521 0.949 . S
C526 C532 1.368 . S
C527 C511 1.349 . S
C527 H519 0.950 . S
C527 C525 1.327 . S
C528 C516 1.349 . S
C528 H522 0.950 . S
C528 C529 1.327 . S
C529 H523 0.950 . S
C529 C528 1.327 . S
C529 C533 1.429 . S
C530 C513 1.574 . S
C530 H524 0.949 . S
C530 C534 1.368 . S
C531 C512 1.429 . S
C531 C525 1.429 . S
C531 C532 1.523 . S
C532 C513 1.368 . S
C532 C526 1.368 . S
C532 C531 1.523 . S
C533 C517 1.429 . S
C533 C529 1.429 . S
C533 C534 1.523 . S
C534 C518 1.368 . S
C534 C530 1.368 . S
C534 C533 1.523 . S
H535 C510 0.950 . S
H536 C512 0.950 . S
H537 C513 0.949 . S
H538 C515 0.950 . S
H539 C517 0.950 . S
C540 C541 1.349 . S
C540 C542 1.327 . S
C540 H565 0.950 . S
C541 C540 1.349 . S
C541 C557 1.349 . S
C542 C540 1.327 . S
C542 C561 1.429 . S
C542 H566 0.950 . S
C543 C560 1.574 . S
C543 C562 1.368 1_655 S
C543 H567 0.911 1_554 S
H544 C548 0.949 . S
C545 C546 1.349 . S
C545 C547 1.327 . S
C545 H568 0.948 1_554 S
C546 C545 1.349 . S
C546 C558 1.349 . S
C547 C545 1.327 . S
C547 C563 1.429 . S
C547 H569 0.917 1_554 S
C548 H544 0.949 . S
C548 C556 1.574 . S
C548 C564 1.368 1_455 S
H549 C557 0.948 1_556 S
H550 C555 0.917 1_556 S
H551 C556 0.949 . S
H552 C558 0.950 . S
H553 C559 0.950 . S
H554 C560 0.911 1_556 S
C555 H550 0.917 1_554 S
C555 C557 1.327 . S
C555 C561 1.429 . S
C556 C548 1.574 . S
C556 H551 0.949 . S
C556 C562 1.368 . S
C557 C541 1.349 . S
C557 H549 0.948 1_554 S
C557 C555 1.327 . S
C558 C546 1.349 . S
C558 H552 0.950 . S
C558 C559 1.327 . S
C559 H553 0.950 . S
C559 C558 1.327 . S
C559 C563 1.429 . S
C560 C543 1.574 . S
C560 H554 0.911 1_554 S
C560 C564 1.368 . S
C561 C542 1.429 . S
C561 C555 1.429 . S
C561 C562 1.523 . S
C562 C543 1.368 1_455 S
C562 C556 1.368 . S
C562 C561 1.523 . S
C563 C547 1.429 . S
C563 C559 1.429 . S
C563 C564 1.523 . S
C564 C548 1.368 1_655 S
C564 C560 1.368 . S
C564 C563 1.523 . S
H565 C540 0.950 . S
H566 C542 0.950 . S
H567 C543 0.911 1_556 S
H568 C545 0.948 1_556 S
H569 C547 0.917 1_556 S
C570 C571 1.349 . S
C570 C572 1.327 . S
C570 H595 0.950 . S
C571 C570 1.349 . S
C571 C587 1.349 . S
C572 C570 1.327 . S
C572 C591 1.429 . S
C572 H596 0.950 . S
C573 C590 1.574 . S
C573 C592 1.368 1_545 S
C573 H597 0.949 . S
H574 C578 0.949 . S
C575 C576 1.349 . S
C575 C577 1.327 . S
C575 H598 0.950 . S
C576 C575 1.349 . S
C576 C588 1.349 . S
C577 C575 1.327 . S
C577 C593 1.429 . S
C577 H599 0.950 . S
C578 H574 0.949 . S
C578 C586 1.574 . S
C578 C594 1.368 1_565 S
H579 C587 0.950 . S
H580 C585 0.950 . S
H581 C586 0.949 . S
H582 C588 0.950 . S
H583 C589 0.950 . S
H584 C590 0.949 . S
C585 H580 0.950 . S
C585 C587 1.327 . S
C585 C591 1.429 . S
C586 C578 1.574 . S
C586 H581 0.949 . S
C586 C592 1.368 . S
C587 C571 1.349 . S
C587 H579 0.950 . S
C587 C585 1.327 . S
C588 C576 1.349 . S
C588 H582 0.950 . S
C588 C589 1.327 . S
C589 H583 0.950 . S
C589 C588 1.327 . S
C589 C593 1.429 . S
C590 C573 1.574 . S
C590 H584 0.949 . S
C590 C594 1.368 . S
C591 C572 1.429 . S
C591 C585 1.429 . S
C591 C592 1.523 . S
C592 C573 1.368 1_565 S
C592 C586 1.368 . S
C592 C591 1.523 . S
C593 C577 1.429 . S
C593 C589 1.429 . S
C593 C594 1.523 . S
C594 C578 1.368 1_545 S
C594 C590 1.368 . S
C594 C593 1.523 . S
H595 C570 0.950 . S
H596 C572 0.950 . S
H597 C573 0.949 . S
H598 C575 0.950 . S
H599 C577 0.950 . S
C600 C601 1.349 . S
C600 C602 1.327 . S
C600 H625 0.950 . S
C601 C600 1.349 . S
C601 C617 1.349 . S
C602 C600 1.327 . S
C602 C621 1.429 . S
C602 H626 0.950 . S
C603 C620 1.574 . S
C603 C622 1.368 . S
C603 H627 0.949 . S
H604 C608 0.949 . S
C605 C606 1.349 . S
C605 C607 1.327 . S
C605 H628 0.950 . S
C606 C605 1.349 . S
C606 C618 1.349 . S
C607 C605 1.327 . S
C607 C623 1.429 . S
C607 H629 0.950 . S
C608 H604 0.949 . S
C608 C616 1.574 . S
C608 C624 1.368 . S
H609 C617 0.950 . S
H610 C615 0.950 . S
H611 C616 0.949 . S
H612 C618 0.950 . S
H613 C619 0.950 . S
H614 C620 0.949 . S
C615 H610 0.950 . S
C615 C617 1.327 . S
C615 C621 1.429 . S
C616 C608 1.574 . S
C616 H611 0.949 . S
C616 C622 1.368 . S
C617 C601 1.349 . S
C617 H609 0.950 . S
C617 C615 1.327 . S
C618 C606 1.349 . S
C618 H612 0.950 . S
C618 C619 1.327 . S
C619 H613 0.950 . S
C619 C618 1.327 . S
C619 C623 1.429 . S
C620 C603 1.574 . S
C620 H614 0.949 . S
C620 C624 1.368 . S
C621 C602 1.429 . S
C621 C615 1.429 . S
C621 C622 1.523 . S
C622 C603 1.368 . S
C622 C616 1.368 . S
C622 C621 1.523 . S
C623 C607 1.429 . S
C623 C619 1.429 . S
C623 C624 1.523 . S
C624 C608 1.368 . S
C624 C620 1.368 . S
C624 C623 1.523 . S
H625 C600 0.950 . S
H626 C602 0.950 . S
H627 C603 0.949 . S
H628 C605 0.950 . S
H629 C607 0.950 . S
C630 C631 1.349 . S
C630 C632 1.327 . S
C630 H655 0.950 . S
C631 C630 1.349 . S
C631 C647 1.349 . S
C632 C630 1.327 . S
C632 C651 1.429 . S
C632 H656 0.950 . S
C633 C650 1.574 . S
C633 C652 1.368 . S
C633 H657 0.949 . S
H634 C638 0.949 . S
C635 C636 1.349 . S
C635 C637 1.327 1_455 S
C635 H658 0.950 1_455 S
C636 C635 1.349 . S
C636 C648 1.349 . S
C637 C635 1.327 1_655 S
C637 C653 1.429 1_655 S
C637 H659 0.950 . S
C638 H634 0.949 . S
C638 C646 1.574 1_455 S
C638 C654 1.368 1_455 S
H639 C647 0.950 . S
H640 C645 0.950 . S
H641 C646 0.949 . S
H642 C648 0.950 . S
H643 C649 0.950 . S
H644 C650 0.949 . S
C645 H640 0.950 . S
C645 C647 1.327 . S
C645 C651 1.429 . S
C646 C638 1.574 1_655 S
C646 H641 0.949 . S
C646 C652 1.368 . S
C647 C631 1.349 . S
C647 H639 0.950 . S
C647 C645 1.327 . S
C648 C636 1.349 . S
C648 H642 0.950 . S
C648 C649 1.327 . S
C649 H643 0.950 . S
C649 C648 1.327 . S
C649 C653 1.429 . S
C650 C633 1.574 . S
C650 H644 0.949 . S
C650 C654 1.368 . S
C651 C632 1.429 . S
C651 C645 1.429 . S
C651 C652 1.523 . S
C652 C633 1.368 . S
C652 C646 1.368 . S
C652 C651 1.523 . S
C653 C637 1.429 1_455 S
C653 C649 1.429 . S
C653 C654 1.523 1_455 S
C654 C638 1.368 1_655 S
C654 C650 1.368 . S
C654 C653 1.523 1_655 S
H655 C630 0.950 . S
H656 C632 0.950 . S
H657 C633 0.949 . S
H658 C635 0.950 1_655 S
H659 C637 0.950 . S
C660 C661 1.349 . S
C660 C662 1.327 . S
C660 H685 0.950 . S
C661 C660 1.349 . S
C661 C677 1.349 . S
C662 C660 1.327 . S
C662 C681 1.429 . S
C662 H686 0.950 . S
C663 C680 1.574 . S
C663 C682 1.368 . S
C663 H687 0.949 . S
H664 C668 0.949 . S
C665 C666 1.349 . S
C665 C667 1.327 . S
C665 H688 0.950 . S
C666 C665 1.349 . S
C666 C678 1.349 . S
C667 C665 1.327 . S
C667 C683 1.429 . S
C667 H689 0.950 . S
C668 H664 0.949 . S
C668 C676 1.574 . S
C668 C684 1.368 . S
H669 C677 0.950 . S
H670 C675 0.950 . S
H671 C676 0.949 . S
H672 C678 0.950 . S
H673 C679 0.950 . S
H674 C680 0.949 1_545 S
C675 H670 0.950 . S
C675 C677 1.327 . S
C675 C681 1.429 . S
C676 C668 1.574 . S
C676 H671 0.949 . S
C676 C682 1.368 . S
C677 C661 1.349 . S
C677 H669 0.950 . S
C677 C675 1.327 . S
C678 C666 1.349 . S
C678 H672 0.950 . S
C678 C679 1.327 1_545 S
C679 H673 0.950 . S
C679 C678 1.327 1_565 S
C679 C683 1.429 1_565 S
C680 C663 1.574 . S
C680 H674 0.949 1_565 S
C680 C684 1.368 . S
C681 C662 1.429 . S
C681 C675 1.429 . S
C681 C682 1.523 . S
C682 C663 1.368 . S
C682 C676 1.368 . S
C682 C681 1.523 . S
C683 C667 1.429 . S
C683 C679 1.429 1_545 S
C683 C684 1.523 1_545 S
C684 C668 1.368 . S
C684 C680 1.368 . S
C684 C683 1.523 1_565 S
H685 C660 0.950 . S
H686 C662 0.950 . S
H687 C663 0.949 . S
H688 C665 0.950 . S
H689 C667 0.950 . S
C690 C691 1.349 . S
C690 C692 1.327 . S
C690 H715 0.950 . S
C691 C690 1.349 . S
C691 C707 1.349 . S
C692 C690 1.327 . S
C692 C711 1.429 . S
C692 H716 0.950 . S
C693 C710 1.574 . S
C693 C712 1.368 . S
C693 H717 0.949 . S
H694 C698 0.949 . S
C695 C696 1.349 . S
C695 C697 1.327 . S
C695 H718 0.950 . S
C696 C695 1.349 . S
C696 C708 1.349 . S
C697 C695 1.327 . S
C697 C713 1.429 . S
C697 H719 0.950 . S
C698 H694 0.949 . S
C698 C706 1.574 . S
C698 C714 1.368 . S
H699 C707 0.950 . S
H700 C705 0.950 . S
H701 C706 0.949 . S
H702 C708 0.950 . S
H703 C709 0.950 . S
H704 C710 0.949 . S
C705 H700 0.950 . S
C705 C707 1.327 . S
C705 C711 1.429 . S
C706 C698 1.574 . S
C706 H701 0.949 . S
C706 C712 1.368 . S
C707 C691 1.349 . S
C707 H699 0.950 . S
C707 C705 1.327 . S
C708 C696 1.349 . S
C708 H702 0.950 . S
C708 C709 1.327 . S
C709 H703 0.950 . S
C709 C708 1.327 . S
C709 C713 1.429 . S
C710 C693 1.574 . S
C710 H704 0.949 . S
C710 C714 1.368 . S
C711 C692 1.429 . S
C711 C705 1.429 . S
C711 C712 1.523 . S
C712 C693 1.368 . S
C712 C706 1.368 . S
C712 C711 1.523 . S
C713 C697 1.429 . S
C713 C709 1.429 . S
C713 C714 1.523 . S
C714 C698 1.368 . S
C714 C710 1.368 . S
C714 C713 1.523 . S
H715 C690 0.950 . S
H716 C692 0.950 . S
H717 C693 0.949 . S
H718 C695 0.950 . S
H719 C697 0.950 . S
C720 C721 1.349 . S
C720 C722 1.327 . S
C720 H745 0.950 . S
C721 C720 1.349 . S
C721 C737 1.349 . S
C722 C720 1.327 . S
C722 C741 1.429 . S
C722 H746 0.950 . S
C723 C740 1.574 1_455 S
C723 C742 1.368 . S
C723 H747 0.949 . S
H724 C728 0.949 . S
C725 C726 1.349 . S
C725 C727 1.327 . S
C725 H748 0.950 . S
C726 C725 1.349 . S
C726 C738 1.349 . S
C727 C725 1.327 . S
C727 C743 1.429 . S
C727 H749 0.950 . S
C728 H724 0.949 . S
C728 C736 1.574 . S
C728 C744 1.368 . S
H729 C737 0.950 . S
H730 C735 0.950 . S
H731 C736 0.949 . S
H732 C738 0.950 1_455 S
H733 C739 0.950 . S
H734 C740 0.949 . S
C735 H730 0.950 . S
C735 C737 1.327 . S
C735 C741 1.429 . S
C736 C728 1.574 . S
C736 H731 0.949 . S
C736 C742 1.368 . S
C737 C721 1.349 . S
C737 H729 0.950 . S
C737 C735 1.327 . S
C738 C726 1.349 . S
C738 H732 0.950 1_655 S
C738 C739 1.327 1_655 S
C739 H733 0.950 . S
C739 C738 1.327 1_455 S
C739 C743 1.429 1_455 S
C740 C723 1.574 1_655 S
C740 H734 0.949 . S
C740 C744 1.368 1_655 S
C741 C722 1.429 . S
C741 C735 1.429 . S
C741 C742 1.523 . S
C742 C723 1.368 . S
C742 C736 1.368 . S
C742 C741 1.523 . S
C743 C727 1.429 . S
C743 C739 1.429 1_655 S
C743 C744 1.523 1_655 S
C744 C728 1.368 . S
C744 C740 1.368 1_455 S
C744 C743 1.523 1_455 S
H745 C720 0.950 . S
H746 C722 0.950 . S
H747 C723 0.949 . S
H748 C725 0.950 . S
H749 C727 0.950 . S
C750 C751 1.349 . S
C750 C752 1.327 . S
C750 H775 0.950 . S
C751 C750 1.349 . S
C751 C767 1.349 . S
C752 C750 1.327 . S
C752 C771 1.429 . S
C752 H776 0.950 . S
C753 C770 1.574 . S
C753 C772 1.368 . S
C753 H777 0.949 . S
H754 C758 0.949 . S
C755 C756 1.349 . S
C755 C757 1.327 . S
C755 H778 0.950 . S
C756 C755 1.349 . S
C756 C768 1.349 . S
C757 C755 1.327 . S
C757 C773 1.429 . S
C757 H779 0.950 . S
C758 H754 0.949 . S
C758 C766 1.574 . S
C758 C774 1.368 . S
H759 C767 0.950 . S
H760 C765 0.950 . S
H761 C766 0.949 . S
H762 C768 0.950 . S
H763 C769 0.950 1_545 S
H764 C770 0.949 1_565 S
C765 H760 0.950 . S
C765 C767 1.327 . S
C765 C771 1.429 . S
C766 C758 1.574 . S
C766 H761 0.949 . S
C766 C772 1.368 . S
C767 C751 1.349 . S
C767 H759 0.950 . S
C767 C765 1.327 . S
C768 C756 1.349 . S
C768 H762 0.950 . S
C768 C769 1.327 . S
C769 H763 0.950 1_565 S
C769 C768 1.327 . S
C769 C773 1.429 . S
C770 C753 1.574 . S
C770 H764 0.949 1_545 S
C770 C774 1.368 . S
C771 C752 1.429 . S
C771 C765 1.429 . S
C771 C772 1.523 . S
C772 C753 1.368 . S
C772 C766 1.368 . S
C772 C771 1.523 . S
C773 C757 1.429 . S
C773 C769 1.429 . S
C773 C774 1.523 1_565 S
C774 C758 1.368 . S
C774 C770 1.368 . S
C774 C773 1.523 1_545 S
H775 C750 0.950 . S
H776 C752 0.950 . S
H777 C753 0.949 . S
H778 C755 0.950 . S
H779 C757 0.950 . S
C241 C175 1.171 . S
C246 C10 1.165 . S
C271 C215 1.171 . S
C276 C50 1.165 . S
C301 C15 1.171 . S
C306 C90 1.165 . S
C331 C55 1.171 . S
C336 C130 1.165 . S
C361 C95 1.171 . S
C366 C170 1.165 . S
C391 C135 1.171 . S
C396 C210 1.165 . S
C421 C9 0.651 . S
C426 C129 0.651 . S
C451 C169 0.650 . S
C456 C49 0.650 . S
C481 C209 0.650 . S
C486 C89 0.650 . S
C511 C98 0.702 . S
C516 C218 0.702 . S
C541 C18 0.702 . S
C546 C138 0.702 . S
C571 C178 0.702 . S
C576 C58 0.702 . S
C601 C206 1.277 . S
C606 C19 1.293 . S
C631 C59 1.293 . S
C636 C6 1.277 . S
C661 C99 1.293 . S
C666 C46 1.277 . S
C691 C86 1.277 . S
C696 C139 1.293 . S
C721 C179 1.293 . S
C726 C126 1.277 . S
C751 C219 1.293 . S
C756 C166 1.277 . S
