# Generated by pormake.
# Topology wmi, (6)-cn, num edge types: 1
# Building blocks:
#     Node 0, Type 0, BuildingBlock: CUWYAW_clean_sbu_0, # of connection points: 6
#     Node 1, Type 0, BuildingBlock: CUWYAW_clean_sbu_0, # of connection points: 6
#     Node 2, Type 0, BuildingBlock: CUWYAW_clean_sbu_0, # of connection points: 6
#     Node 3, Type 0, BuildingBlock: CUWYAW_clean_sbu_0, # of connection points: 6
#     Node 4, Type 0, BuildingBlock: CUWYAW_clean_sbu_0, # of connection points: 6
#     Node 5, Type 0, BuildingBlock: CUWYAW_clean_sbu_0, # of connection points: 6
#     Node 6, Type 0, BuildingBlock: CUWYAW_clean_sbu_0, # of connection points: 6
#     Node 7, Type 0, BuildingBlock: CUWYAW_clean_sbu_0, # of connection points: 6
#     Node 8, Type 0, BuildingBlock: CUWYAW_clean_sbu_0, # of connection points: 6
#     Node 9, Type 0, BuildingBlock: CUWYAW_clean_sbu_0, # of connection points: 6
#     Node 10, Type 0, BuildingBlock: CUWYAW_clean_sbu_0, # of connection points: 6
#     Node 11, Type 0, BuildingBlock: CUWYAW_clean_sbu_0, # of connection points: 6
#     Node 12, Type 0, BuildingBlock: CUWYAW_clean_sbu_0, # of connection points: 6
#     Node 13, Type 0, BuildingBlock: CUWYAW_clean_sbu_0, # of connection points: 6
#     Node 14, Type 0, BuildingBlock: CUWYAW_clean_sbu_0, # of connection points: 6
#     Node 15, Type 0, BuildingBlock: CUWYAW_clean_sbu_0, # of connection points: 6
#     Node 16, Type 0, BuildingBlock: CUWYAW_clean_sbu_0, # of connection points: 6
#     Node 17, Type 0, BuildingBlock: CUWYAW_clean_sbu_0, # of connection points: 6
#     Edge 18, Type (0, 0), BuildingBlock: OJICUG_clean_linker_0, # of connection points: 2
#     Edge 19, Type (0, 0), BuildingBlock: OJICUG_clean_linker_0, # of connection points: 2
#     Edge 20, Type (0, 0), BuildingBlock: OJICUG_clean_linker_0, # of connection points: 2
#     Edge 21, Type (0, 0), BuildingBlock: OJICUG_clean_linker_0, # of connection points: 2
#     Edge 22, Type (0, 0), BuildingBlock: OJICUG_clean_linker_0, # of connection points: 2
#     Edge 23, Type (0, 0), BuildingBlock: OJICUG_clean_linker_0, # of connection points: 2
#     Edge 24, Type (0, 0), BuildingBlock: OJICUG_clean_linker_0, # of connection points: 2
#     Edge 25, Type (0, 0), BuildingBlock: OJICUG_clean_linker_0, # of connection points: 2
#     Edge 26, Type (0, 0), BuildingBlock: OJICUG_clean_linker_0, # of connection points: 2
#     Edge 27, Type (0, 0), BuildingBlock: OJICUG_clean_linker_0, # of connection points: 2
#     Edge 28, Type (0, 0), BuildingBlock: OJICUG_clean_linker_0, # of connection points: 2
#     Edge 29, Type (0, 0), BuildingBlock: OJICUG_clean_linker_0, # of connection points: 2
#     Edge 30, Type (0, 0), BuildingBlock: OJICUG_clean_linker_0, # of connection points: 2
#     Edge 31, Type (0, 0), BuildingBlock: OJICUG_clean_linker_0, # of connection points: 2
#     Edge 32, Type (0, 0), BuildingBlock: OJICUG_clean_linker_0, # of connection points: 2
#     Edge 33, Type (0, 0), BuildingBlock: OJICUG_clean_linker_0, # of connection points: 2
#     Edge 34, Type (0, 0), BuildingBlock: OJICUG_clean_linker_0, # of connection points: 2
#     Edge 35, Type (0, 0), BuildingBlock: OJICUG_clean_linker_0, # of connection points: 2
#     Edge 36, Type (0, 0), BuildingBlock: OJICUG_clean_linker_0, # of connection points: 2
#     Edge 37, Type (0, 0), BuildingBlock: OJICUG_clean_linker_0, # of connection points: 2
#     Edge 38, Type (0, 0), BuildingBlock: OJICUG_clean_linker_0, # of connection points: 2
#     Edge 39, Type (0, 0), BuildingBlock: OJICUG_clean_linker_0, # of connection points: 2
#     Edge 40, Type (0, 0), BuildingBlock: OJICUG_clean_linker_0, # of connection points: 2
#     Edge 41, Type (0, 0), BuildingBlock: OJICUG_clean_linker_0, # of connection points: 2
#     Edge 42, Type (0, 0), BuildingBlock: OJICUG_clean_linker_0, # of connection points: 2
#     Edge 43, Type (0, 0), BuildingBlock: OJICUG_clean_linker_0, # of connection points: 2
#     Edge 44, Type (0, 0), BuildingBlock: OJICUG_clean_linker_0, # of connection points: 2
#     Edge 45, Type (0, 0), BuildingBlock: OJICUG_clean_linker_0, # of connection points: 2
#     Edge 46, Type (0, 0), BuildingBlock: OJICUG_clean_linker_0, # of connection points: 2
#     Edge 47, Type (0, 0), BuildingBlock: OJICUG_clean_linker_0, # of connection points: 2
#     Edge 48, Type (0, 0), BuildingBlock: OJICUG_clean_linker_0, # of connection points: 2
#     Edge 49, Type (0, 0), BuildingBlock: OJICUG_clean_linker_0, # of connection points: 2
#     Edge 50, Type (0, 0), BuildingBlock: OJICUG_clean_linker_0, # of connection points: 2
#     Edge 51, Type (0, 0), BuildingBlock: OJICUG_clean_linker_0, # of connection points: 2
#     Edge 52, Type (0, 0), BuildingBlock: OJICUG_clean_linker_0, # of connection points: 2
#     Edge 53, Type (0, 0), BuildingBlock: OJICUG_clean_linker_0, # of connection points: 2
#     Edge 54, Type (0, 0), BuildingBlock: OJICUG_clean_linker_0, # of connection points: 2
#     Edge 55, Type (0, 0), BuildingBlock: OJICUG_clean_linker_0, # of connection points: 2
#     Edge 56, Type (0, 0), BuildingBlock: OJICUG_clean_linker_0, # of connection points: 2
#     Edge 57, Type (0, 0), BuildingBlock: OJICUG_clean_linker_0, # of connection points: 2
#     Edge 58, Type (0, 0), BuildingBlock: OJICUG_clean_linker_0, # of connection points: 2
#     Edge 59, Type (0, 0), BuildingBlock: OJICUG_clean_linker_0, # of connection points: 2
#     Edge 60, Type (0, 0), BuildingBlock: OJICUG_clean_linker_0, # of connection points: 2
#     Edge 61, Type (0, 0), BuildingBlock: OJICUG_clean_linker_0, # of connection points: 2
#     Edge 62, Type (0, 0), BuildingBlock: OJICUG_clean_linker_0, # of connection points: 2
#     Edge 63, Type (0, 0), BuildingBlock: OJICUG_clean_linker_0, # of connection points: 2
#     Edge 64, Type (0, 0), BuildingBlock: OJICUG_clean_linker_0, # of connection points: 2
#     Edge 65, Type (0, 0), BuildingBlock: OJICUG_clean_linker_0, # of connection points: 2
#     Edge 66, Type (0, 0), BuildingBlock: OJICUG_clean_linker_0, # of connection points: 2
#     Edge 67, Type (0, 0), BuildingBlock: OJICUG_clean_linker_0, # of connection points: 2
#     Edge 68, Type (0, 0), BuildingBlock: OJICUG_clean_linker_0, # of connection points: 2
#     Edge 69, Type (0, 0), BuildingBlock: OJICUG_clean_linker_0, # of connection points: 2
#     Edge 70, Type (0, 0), BuildingBlock: OJICUG_clean_linker_0, # of connection points: 2
#     Edge 71, Type (0, 0), BuildingBlock: OJICUG_clean_linker_0, # of connection points: 2
# Relax obj value: 0.100
# Max RMSD: 0.228
# Mean RMSD: 0.228
data_MOF--net-wmi--node1-CUWYAW_clean_sbu_0--edge1-OJICUG_clean_linker_0
_symmetry_space_group_name_H-M    P1
_symmetry_Int_Tables_number       1
_symmetry_cell_setting            triclinic
loop_
_symmetry_equiv_pos_as_xyz
'x, y, z'
_cell_length_a     32.231637
_cell_length_b     32.124368
_cell_length_c     55.243384
_cell_angle_alpha  90.170173
_cell_angle_beta   89.766497
_cell_angle_gamma 120.07874
loop_
_atom_site_label
_atom_site_type_symbol
_atom_site_fract_x
_atom_site_fract_y
_atom_site_fract_z
_atom_type_partial_charge
C0 C 0.3659 0.94759 0.10049 0.0
Eu1 Eu 0.45624 1.00497 0.10919 0.0
C2 C 0.33674 0.8943 0.10066 0.0
C3 C 0.31424 0.86832 0.07957 0.0
C4 C 0.28446 0.81813 0.08046 0.0
C5 C 0.27667 0.79339 0.1025 0.0
C6 C 0.3014 0.81917 0.12317 0.0
C7 C 0.33085 0.86883 0.12227 0.0
C8 C 0.52659 0.02801 0.07513 0.0
C9 C 0.51749 0.95592 0.12207 0.0
C10 C 0.64088 0.12256 0.14165 0.0
Eu11 Eu 0.55149 0.06449 0.12979 0.0
C12 C 0.68526 0.16798 0.13574 0.0
C13 C 0.71692 0.19368 0.1546 0.0
C14 C 0.76263 0.23238 0.1496 0.0
C15 C 0.77768 0.2458 0.12561 0.0
C16 C 0.74541 0.22166 0.10667 0.0
C17 C 0.6994 0.18296 0.11169 0.0
C18 C 0.47662 1.0173 0.16248 0.0
C19 C 0.49924 0.12074 0.11157 0.0
O20 O 0.38251 0.96776 0.12152 0.0
O21 O 0.39753 0.96781 0.08312 0.0
O22 O 0.49144 0.98524 0.07963 0.0
O23 O 0.52575 0.05622 0.09109 0.0
O24 O 0.47397 0.94972 0.12457 0.0
O25 O 0.55427 0.99919 0.11917 0.0
O26 O 0.62696 0.08729 0.12611 0.0
O27 O 0.60505 0.12455 0.1517 0.0
O28 O 0.51718 1.0183 0.16456 0.0
O29 O 0.47854 0.04036 0.1441 0.0
O30 O 0.5399 0.1246 0.11862 0.0
O31 O 0.46066 0.07842 0.10695 0.0
H32 H 0.31872 0.88689 0.06259 0.0
H33 H 0.26593 0.79904 0.06421 0.0
H34 H 0.297 0.80102 0.1403 0.0
H35 H 0.3481 0.88719 0.13877 0.0
H36 H 0.70685 0.18274 0.17324 0.0
H37 H 0.78672 0.25118 0.16446 0.0
H38 H 0.75602 0.23241 0.08806 0.0
H39 H 0.67552 0.16391 0.0968 0.0
C40 C 0.15977 0.48077 0.09976 0.0
Eu41 Eu 0.079 0.47815 0.10217 0.0
C42 C 0.20691 0.48476 0.10226 0.0
C43 C 0.23298 0.48515 0.08179 0.0
C44 C 0.28207 0.50108 0.08378 0.0
C45 C 0.30505 0.51598 0.10633 0.0
C46 C 0.27844 0.51409 0.12679 0.0
C47 C 0.23014 0.49904 0.12476 0.0
C48 C 1.03396 0.49793 0.06819 0.0
C49 C 0.12918 0.5942 0.11298 0.0
C50 C 0.96822 0.54399 0.14048 0.0
Eu51 Eu 1.02741 0.51517 0.1267 0.0
C52 C 0.92308 0.5436 0.13543 0.0
C53 C 0.90231 0.55606 0.15428 0.0
C54 C 0.86387 0.56342 0.14992 0.0
C55 C 0.8446 0.55798 0.12651 0.0
C56 C 0.86437 0.54354 0.10767 0.0
C57 C 0.90349 0.53665 0.11206 0.0
C58 C 0.06936 0.4778 0.15713 0.0
C59 C 0.96832 0.40779 0.1097 0.0
O60 O 0.15021 0.50689 0.11444 0.0
O61 O 0.12367 0.44948 0.08636 0.0
O62 O 0.04062 0.46106 0.06774 0.0
O63 O 0.05232 0.52434 0.08711 0.0
O64 O 0.12624 0.56009 0.09857 0.0
O65 O 0.09515 0.58456 0.12852 0.0
O66 O 1.00366 0.56755 0.12534 0.0
O67 O 0.96618 0.50491 0.14878 0.0
O68 O 0.06743 0.51631 0.162 0.0
O69 O 0.04703 0.46054 0.13794 0.0
O70 O 0.96956 0.44916 0.1091 0.0
O71 O 1.00938 0.40737 0.11029 0.0
H72 H 0.21614 0.47583 0.06415 0.0
H73 H 0.3021 0.5022 0.06777 0.0
H74 H 0.29545 0.52599 0.14431 0.0
H75 H 0.21182 0.50123 0.14072 0.0
H76 H 0.91716 0.56208 0.17236 0.0
H77 H 0.85057 0.57524 0.16489 0.0
H78 H 0.85001 0.53801 0.08951 0.0
H79 H 0.91909 0.52709 0.09717 0.0
C80 C 0.64242 0.72862 0.10227 0.0
Eu81 Eu 0.62034 0.63918 0.10624 0.0
C82 C 0.61477 0.7541 0.10441 0.0
C83 C 0.60246 0.7706 0.08367 0.0
C84 C 0.57928 0.79742 0.08577 0.0
C85 C 0.56819 0.80872 0.10869 0.0
C86 C 0.57859 0.79036 0.12938 0.0
C87 C 0.60163 0.76347 0.12725 0.0
C88 C 0.59386 0.5728 0.07082 0.0
C89 C 0.50377 0.57639 0.11859 0.0
C90 C 0.54386 0.45115 0.13729 0.0
Eu91 Eu 0.57675 0.54191 0.12705 0.0
C92 C 0.54764 0.40768 0.13244 0.0
C93 C 0.54339 0.37768 0.1518 0.0
C94 C 0.53692 0.33175 0.14761 0.0
C95 C 0.53339 0.31399 0.12384 0.0
C96 C 0.54074 0.34558 0.10447 0.0
C97 C 0.54801 0.39185 0.10872 0.0
C98 C 0.60895 0.61763 0.1594 0.0
C99 C 0.68715 0.59308 0.11103 0.0
O100 O 0.6479 0.71003 0.12217 0.0
O101 O 0.63393 0.70051 0.08349 0.0
O102 O 0.63384 0.61385 0.07117 0.0
O103 O 0.56966 0.56783 0.09002 0.0
O104 O 0.54126 0.61817 0.11224 0.0
O105 O 0.5081 0.53952 0.12448 0.0
O106 O 0.52803 0.46645 0.11968 0.0
O107 O 0.5767 0.48625 0.15034 0.0
O108 O 0.56775 0.57843 0.16163 0.0
O109 O 0.62953 0.61379 0.14107 0.0
O110 O 0.64643 0.55211 0.11257 0.0
O111 O 0.68823 0.63484 0.11062 0.0
H112 H 0.61168 0.76368 0.06581 0.0
H113 H 0.57101 0.81026 0.06941 0.0
H114 H 0.57108 0.79866 0.14732 0.0
H115 H 0.6104 0.75132 0.14362 0.0
H116 H 0.54306 0.389 0.17026 0.0
H117 H 0.53361 0.30993 0.16317 0.0
H118 H 0.5385 0.33405 0.08588 0.0
H119 H 0.55144 0.41424 0.09335 0.0
C120 C 0.95417 0.35305 0.93817 0.0
Eu121 Eu 1.02039 0.44282 0.93348 0.0
C122 C 0.90105 0.32683 0.93772 0.0
C123 C 0.87492 0.29812 0.95745 0.0
C124 C 0.82492 0.26944 0.95626 0.0
C125 C 0.80008 0.26875 0.93522 0.0
C126 C 0.82612 0.29961 0.91601 0.0
C127 C 0.87595 0.32837 0.91726 0.0
C128 C 0.05902 0.50796 0.96966 0.0
C129 C 0.96711 0.50692 0.92359 0.0
C130 C 0.13228 0.62759 0.90061 0.0
Eu131 Eu 0.07379 0.53845 0.91341 0.0
C132 C 0.17834 0.67177 0.90562 0.0
C133 C 0.20179 0.70336 0.88641 0.0
C134 C 0.24053 0.74935 0.8907 0.0
C135 C 0.25714 0.76495 0.91439 0.0
C136 C 0.23501 0.73224 0.93361 0.0
C137 C 0.19583 0.68609 0.92928 0.0
C138 C 1.0309 0.46306 0.88065 0.0
C139 C 0.13333 0.48977 0.93013 0.0
O140 O 0.97581 0.37213 0.91773 0.0
O141 O 0.97531 0.38105 0.95674 0.0
O142 O 0.05909 0.4675 0.9686 0.0
O143 O 0.04055 0.51347 0.95046 0.0
O144 O 0.96184 0.46377 0.92763 0.0
O145 O 1.00927 0.54375 0.91891 0.0
O146 O 0.09857 0.61464 0.91687 0.0
O147 O 0.13263 0.59096 0.89042 0.0
O148 O 1.02667 0.5011 0.87944 0.0
O149 O 0.05576 0.46713 0.89866 0.0
O150 O 0.1322 0.53009 0.93091 0.0
O151 O 0.09302 0.44807 0.92777 0.0
H152 H 0.89333 0.29673 0.97352 0.0
H153 H 0.80605 0.24614 0.97139 0.0
H154 H 0.80804 0.30088 0.89978 0.0
H155 H 0.89479 0.35089 0.9019 0.0
H156 H 0.18867 0.69324 0.86808 0.0
H157 H 0.25605 0.77336 0.87542 0.0
H158 H 0.24747 0.74248 0.95201 0.0
H159 H 0.17832 0.66227 0.94445 0.0
C160 C 0.73949 0.63168 0.92989 0.0
Eu161 Eu 0.651 0.61184 0.93408 0.0
C162 C 0.76539 0.60451 0.93227 0.0
C163 C 0.78261 0.59832 0.95456 0.0
C164 C 0.80974 0.57509 0.95546 0.0
C165 C 0.81949 0.55749 0.93414 0.0
C166 C 0.80058 0.56185 0.91217 0.0
C167 C 0.77405 0.58513 0.91122 0.0
C168 C 0.59443 0.57716 0.97279 0.0
C169 C 0.58442 0.49389 0.92745 0.0
C170 C 0.46334 0.53713 0.8992 0.0
Eu171 Eu 0.55137 0.56583 0.91293 0.0
C172 C 0.41894 0.53839 0.90473 0.0
C173 C 0.3869 0.53058 0.88585 0.0
C174 C 0.34136 0.52415 0.89065 0.0
C175 C 0.32655 0.52516 0.91456 0.0
C176 C 0.35977 0.53551 0.9334 0.0
C177 C 0.40546 0.54191 0.92855 0.0
C178 C 0.62772 0.59888 0.88101 0.0
C179 C 0.60021 0.67496 0.93127 0.0
O180 O 0.70844 0.61648 0.91237 0.0
O181 O 0.724 0.64378 0.94924 0.0
O182 O 0.64064 0.60457 0.97355 0.0
O183 O 0.57734 0.57209 0.95134 0.0
O184 O 0.62723 0.53178 0.93119 0.0
O185 O 0.54725 0.49752 0.92158 0.0
O186 O 0.47516 0.51344 0.9142 0.0
O187 O 0.50059 0.57597 0.89078 0.0
O188 O 0.58961 0.55678 0.87913 0.0
O189 O 0.62303 0.61895 0.89941 0.0
O190 O 0.56052 0.63277 0.9305 0.0
O191 O 0.64309 0.67836 0.93106 0.0
H192 H 0.7764 0.61262 0.97108 0.0
H193 H 0.82493 0.57287 0.97253 0.0
H194 H 0.80842 0.54928 0.89548 0.0
H195 H 0.76153 0.58921 0.8937 0.0
H196 H 0.3965 0.52779 0.86734 0.0
H197 H 0.31745 0.51762 0.87559 0.0
H198 H 0.34982 0.53666 0.95203 0.0
H199 H 0.42955 0.54792 0.94347 0.0
C200 C 0.47481 0.14533 0.93083 0.0
Eu201 Eu 0.48447 0.07036 0.93433 0.0
C202 C 0.49989 0.1978 0.93407 0.0
C203 C 0.49752 0.21981 0.95562 0.0
C204 C 0.51687 0.26982 0.95642 0.0
C205 C 0.53833 0.29775 0.93564 0.0
C206 C 0.54301 0.27585 0.91471 0.0
C207 C 0.52364 0.22656 0.91384 0.0
C208 C 0.49996 0.03293 0.97287 0.0
C209 C 0.60028 0.12263 0.92536 0.0
C210 C 0.55573 0.96016 0.90441 0.0
Eu211 Eu 0.52281 1.01761 0.91557 0.0
C212 C 0.55561 0.9148 0.9089 0.0
C213 C 0.56876 0.89465 0.88987 0.0
C214 C 0.57618 0.85595 0.89408 0.0
C215 C 0.5703 0.83661 0.91739 0.0
C216 C 0.55509 0.85527 0.93627 0.0
C217 C 0.5481 0.89439 0.93211 0.0
C218 C 0.48211 0.04998 0.8813 0.0
C219 C 0.41407 0.95797 0.93111 0.0
O220 O 0.49511 0.13144 0.91469 0.0
O221 O 0.45681 0.1157 0.94933 0.0
O222 O 0.46126 0.03507 0.96885 0.0
O223 O 0.52932 0.04735 0.9546 0.0
O224 O 0.56544 0.12176 0.93824 0.0
O225 O 0.59164 0.08602 0.91183 0.0
O226 O 0.574 0.9933 0.92116 0.0
O227 O 0.51905 0.95866 0.89357 0.0
O228 O 0.52438 0.05485 0.87885 0.0
O229 O 0.46585 0.02997 0.901 0.0
O230 O 0.45473 0.95783 0.93139 0.0
O231 O 0.41453 0.9993 0.92885 0.0
H232 H 0.47935 0.19841 0.97141 0.0
H233 H 0.51286 0.28624 0.97274 0.0
H234 H 0.55987 0.29673 0.89856 0.0
H235 H 0.52579 0.21086 0.89681 0.0
H236 H 0.57481 0.9099 0.87186 0.0
H237 H 0.58701 0.84143 0.8792 0.0
H238 H 0.5497 0.84024 0.95431 0.0
H239 H 0.53806 0.90939 0.94709 0.0
C240 C 1.02921 0.27973 0.43368 0.0
Eu241 Eu 0.12 0.33867 0.44034 0.0
C242 C 1.00114 0.22612 0.43431 0.0
C243 C 0.98474 0.19822 0.41306 0.0
C244 C 0.95705 0.14768 0.4144 0.0
C245 C 0.94543 0.12448 0.43703 0.0
C246 C 0.96362 0.15228 0.45803 0.0
C247 C 0.99067 0.20217 0.45671 0.0
C248 C 0.19027 0.36103 0.40668 0.0
C249 C 0.18203 0.28839 0.45209 0.0
C250 C 0.30573 0.45532 0.47381 0.0
Eu251 Eu 0.21695 0.39659 0.46128 0.0
C252 C 0.34966 0.502 0.46923 0.0
C253 C 0.38284 0.52263 0.48803 0.0
C254 C 0.4285 0.56186 0.48372 0.0
C255 C 0.44222 0.58224 0.46043 0.0
C256 C 0.40764 0.56305 0.44181 0.0
C257 C 0.36193 0.52307 0.44612 0.0
C258 C 0.14198 0.34658 0.4935 0.0
C259 C 0.16551 0.45469 0.44347 0.0
O260 O 0.04749 0.30067 0.45438 0.0
O261 O 0.05895 0.30053 0.41559 0.0
O262 O 0.15272 0.3191 0.40965 0.0
O263 O 0.19048 0.38944 0.4228 0.0
O264 O 0.13841 0.28245 0.45333 0.0
O265 O 0.21989 0.33135 0.45077 0.0
O266 O 0.29299 0.42218 0.45711 0.0
O267 O 0.26916 0.45495 0.48444 0.0
O268 O 0.18284 0.34819 0.49534 0.0
O269 O 0.14393 0.37127 0.47576 0.0
O270 O 0.20563 0.45698 0.45032 0.0
O271 O 0.126 0.41303 0.43877 0.0
H272 H 0.99242 0.21547 0.3955 0.0
H273 H 0.94311 0.127 0.39791 0.0
H274 H 0.95549 0.13538 0.47571 0.0
H275 H 1.0024 0.22193 0.47346 0.0
H276 H 0.37425 0.50684 0.50596 0.0
H277 H 0.45361 0.57452 0.49859 0.0
H278 H 0.41596 0.57827 0.42379 0.0
H279 H 0.33679 0.50782 0.43128 0.0
C280 C 0.81654 0.78425 0.43749 0.0
Eu281 Eu 0.74915 0.80608 0.44021 0.0
C282 C 0.86969 0.81251 0.43844 0.0
C283 C 0.89745 0.82236 0.41725 0.0
C284 C 0.94761 0.84536 0.41859 0.0
C285 C 0.97058 0.8585 0.44115 0.0
C286 C 0.9431 0.85074 0.46215 0.0
C287 C 0.89329 0.82815 0.46085 0.0
C288 C 0.71157 0.83085 0.4036 0.0
C289 C 0.80235 0.92404 0.45064 0.0
C290 C 0.63637 0.88002 0.47113 0.0
Eu291 Eu 0.69489 0.84838 0.45996 0.0
C292 C 0.58932 0.87658 0.46681 0.0
C293 C 0.56569 0.88403 0.48627 0.0
C294 C 0.52616 0.8902 0.48232 0.0
C295 C 0.5094 0.88942 0.45871 0.0
C296 C 0.53163 0.87928 0.43933 0.0
C297 C 0.57111 0.87296 0.44333 0.0
C298 C 0.73393 0.81268 0.49304 0.0
C299 C 0.63588 0.73878 0.44346 0.0
O300 O 0.7942 0.78282 0.45752 0.0
O301 O 0.79529 0.78861 0.4183 0.0
O302 O 0.71163 0.79041 0.4051 0.0
O303 O 0.72904 0.85598 0.4228 0.0
O304 O 0.80697 0.88653 0.44461 0.0
O305 O 0.76093 0.91842 0.45722 0.0
O306 O 0.6677 0.89698 0.45353 0.0
O307 O 0.63827 0.84624 0.48339 0.0
O308 O 0.73807 0.85493 0.49506 0.0
O309 O 0.71108 0.79381 0.47421 0.0
O310 O 0.63605 0.77978 0.4439 0.0
O311 O 0.6765 0.73792 0.44475 0.0
H312 H 0.88033 0.8109 0.39975 0.0
H313 H 0.96819 0.85054 0.40219 0.0
H314 H 0.96017 0.8605 0.47974 0.0
H315 H 0.87333 0.82159 0.47758 0.0
H316 H 0.57904 0.88707 0.50454 0.0
H317 H 0.50934 0.89652 0.49781 0.0
H318 H 0.52004 0.87843 0.42088 0.0
H319 H 0.58862 0.86732 0.42792 0.0
C320 C 0.30834 0.06172 0.43729 0.0
Eu321 Eu 0.28534 0.97197 0.44124 0.0
C322 C 0.28086 0.0874 0.4385 0.0
C323 C 0.27801 0.11206 0.41819 0.0
C324 C 0.25569 0.13985 0.41992 0.0
C325 C 0.23619 0.14372 0.44207 0.0
C326 C 0.23685 0.11701 0.46198 0.0
C327 C 0.25875 0.0891 0.46021 0.0
C328 C 0.25994 0.90852 0.4044 0.0
C329 C 0.16819 0.90807 0.4517 0.0
C330 C 0.211 0.7848 0.47198 0.0
Eu331 Eu 0.24249 0.87495 0.46039 0.0
C332 C 0.21317 0.74045 0.46727 0.0
C333 C 0.19857 0.7058 0.48564 0.0
C334 C 0.19118 0.65974 0.48075 0.0
C335 C 0.19822 0.64714 0.45728 0.0
C336 C 0.21558 0.68291 0.43919 0.0
C337 C 0.22277 0.72902 0.44409 0.0
C338 C 0.27455 0.9493 0.49393 0.0
C339 C 0.35173 0.9254 0.44441 0.0
O340 O 0.31166 0.04239 0.45743 0.0
O341 O 0.30139 0.03414 0.41849 0.0
O342 O 0.30016 0.94915 0.40575 0.0
O343 O 0.23521 0.90178 0.42358 0.0
O344 O 0.20618 0.95108 0.44769 0.0
O345 O 0.17289 0.87066 0.45579 0.0
O346 O 0.19282 0.79879 0.45494 0.0
O347 O 0.24629 0.82089 0.48334 0.0
O348 O 0.2324 0.91104 0.49497 0.0
O349 O 0.29549 0.94593 0.47567 0.0
O350 O 0.3105 0.88488 0.44337 0.0
O351 O 0.35276 0.96694 0.44692 0.0
H352 H 0.29424 0.11096 0.40117 0.0
H353 H 0.25568 0.16003 0.40425 0.0
H354 H 0.22128 0.11854 0.47915 0.0
H355 H 0.2593 0.06987 0.47611 0.0
H356 H 0.19089 0.71373 0.50363 0.0
H357 H 0.17913 0.63372 0.4953 0.0
H358 H 0.22159 0.67467 0.42094 0.0
H359 H 0.23394 0.75503 0.42955 0.0
C360 C 0.61962 0.68132 0.2626 0.0
Eu361 Eu 0.6844 0.77182 0.26544 0.0
C362 C 0.56657 0.65426 0.26413 0.0
C363 C 0.54201 0.64279 0.28638 0.0
C364 C 0.49175 0.61648 0.28696 0.0
C365 C 0.46514 0.60126 0.26532 0.0
C366 C 0.48994 0.61403 0.24317 0.0
C367 C 0.53985 0.63996 0.24261 0.0
C368 C 0.70862 0.82807 0.30503 0.0
C369 C 0.63613 0.83985 0.26035 0.0
C370 C 0.801 0.96163 0.23263 0.0
Eu371 Eu 0.74186 0.8732 0.2461 0.0
C372 C 0.84617 1.00623 0.23821 0.0
C373 C 0.87121 0.03741 0.2191 0.0
C374 C 0.90997 0.08324 0.22364 0.0
C375 C 0.92476 0.09901 0.2475 0.0
C376 C 0.90101 0.06674 0.26667 0.0
C377 C 0.86193 1.0207 0.26207 0.0
C378 C 0.69819 0.79876 0.2132 0.0
C379 C 0.79874 0.82108 0.26398 0.0
O380 O 0.63679 0.70994 0.244 0.0
O381 O 0.64466 0.70045 0.28232 0.0
O382 O 0.68566 0.78153 0.30533 0.0
O383 O 0.72073 0.84451 0.28361 0.0
O384 O 0.62893 0.79556 0.25899 0.0
O385 O 0.67914 0.87746 0.25886 0.0
O386 O 0.76497 0.94939 0.24741 0.0
O387 O 0.80333 0.92468 0.22435 0.0
O388 O 0.69416 0.83695 0.21223 0.0
O389 O 0.72217 0.80183 0.23147 0.0
O390 O 0.79913 0.8623 0.263 0.0
O391 O 0.75826 0.77906 0.26263 0.0
H392 H 0.5615 0.6537 0.3033 0.0
H393 H 0.47377 0.60775 0.30436 0.0
H394 H 0.47095 0.6024 0.22614 0.0
H395 H 0.55759 0.64815 0.22518 0.0
H396 H 0.85951 0.02702 0.20058 0.0
H397 H 0.92706 0.10701 0.20841 0.0
H398 H 0.9122 0.0773 0.28522 0.0
H399 H 0.84325 0.99704 0.27714 0.0
C400 C 0.40764 0.96396 0.26289 0.0
Eu401 Eu 0.31918 0.94343 0.26763 0.0
C402 C 0.43433 0.93775 0.26526 0.0
C403 C 0.45417 0.935 0.28734 0.0
C404 C 0.48166 0.91239 0.28848 0.0
C405 C 0.48963 0.89203 0.26761 0.0
C406 C 0.46815 0.89314 0.2458 0.0
C407 C 0.44111 0.91593 0.2446 0.0
C408 C 0.26136 0.90997 0.30615 0.0
C409 C 0.25055 0.82628 0.26013 0.0
C410 C 0.12935 0.87064 0.23426 0.0
Eu411 Eu 0.21827 0.90036 0.24655 0.0
C412 C 0.08532 0.87266 0.23965 0.0
C413 C 0.05452 0.86735 0.22055 0.0
C414 C 1.00876 0.86054 0.22514 0.0
C415 C 0.99239 0.85841 0.24905 0.0
C416 C 1.02446 0.86639 0.26816 0.0
C417 C 0.0704 0.87341 0.26352 0.0
C418 C 0.2945 0.93261 0.21469 0.0
C419 C 0.27227 1.01056 0.26458 0.0
O420 O 0.37604 0.9478 0.2456 0.0
O421 O 0.39236 0.97598 0.28236 0.0
O422 O 0.30781 0.93427 0.30715 0.0
O423 O 0.2456 0.90642 0.28454 0.0
O424 O 0.29397 0.86324 0.2639 0.0
O425 O 0.2141 0.83161 0.25469 0.0
O426 O 0.14222 0.84921 0.25015 0.0
O427 O 0.16597 0.90782 0.2242 0.0
O428 O 0.25527 0.89153 0.21208 0.0
O429 O 0.29055 0.95193 0.23353 0.0
O430 O 0.2308 0.97051 0.26182 0.0
O431 O 0.3138 1.01121 0.26537 0.0
H432 H 0.44933 0.9511 0.30357 0.0
H433 H 0.49757 0.91172 0.3056 0.0
H434 H 0.47415 0.87845 0.22934 0.0
H435 H 0.42647 0.91744 0.22722 0.0
H436 H 0.06519 0.86662 0.202 0.0
H437 H 0.98589 0.85602 0.20988 0.0
H438 H 1.01343 0.86504 0.28681 0.0
H439 H 0.09343 0.87742 0.27864 0.0
C440 C 0.12957 0.47531 0.26836 0.0
Eu441 Eu 0.14801 0.40544 0.26898 0.0
C442 C 0.15711 0.52829 0.26959 0.0
C443 C 0.16495 0.55347 0.29148 0.0
C444 C 0.18731 0.6038 0.29138 0.0
C445 C 0.2018 0.62903 0.26939 0.0
C446 C 0.19652 0.60405 0.2478 0.0
C447 C 0.17418 0.55433 0.24784 0.0
C448 C 0.17321 0.37071 0.30634 0.0
C449 C 0.26525 0.45925 0.25869 0.0
C450 C 0.22378 0.29313 0.24122 0.0
Eu451 Eu 0.1909 0.35124 0.25022 0.0
C452 C 0.21976 0.24549 0.24364 0.0
C453 C 0.23671 0.22927 0.22457 0.0
C454 C 0.24402 0.19033 0.22775 0.0
C455 C 0.23393 0.16603 0.2501 0.0
C456 C 0.21367 0.18039 0.26873 0.0
C457 C 0.20704 0.22001 0.26561 0.0
C458 C 0.15239 0.38569 0.21605 0.0
C459 C 0.08086 0.2919 0.2652 0.0
O460 O 0.14034 0.45816 0.24957 0.0
O461 O 0.12284 0.44945 0.2879 0.0
O462 O 0.13346 0.37189 0.30499 0.0
O463 O 0.1983 0.38696 0.28697 0.0
O464 O 0.22771 0.46288 0.26519 0.0
O465 O 0.26095 0.41825 0.25218 0.0
O466 O 0.23371 0.31951 0.26069 0.0
O467 O 0.19574 0.29891 0.22627 0.0
O468 O 0.19407 0.3889 0.21358 0.0
O469 O 0.13506 0.36534 0.23569 0.0
O470 O 0.12183 0.29228 0.26557 0.0
O471 O 0.08002 0.3327 0.26366 0.0
H472 H 0.1524 0.53432 0.30846 0.0
H473 H 0.19086 0.6227 0.3082 0.0
H474 H 0.20759 0.62297 0.23066 0.0
H475 H 0.16885 0.53629 0.23056 0.0
H476 H 0.2471 0.2486 0.20755 0.0
H477 H 0.26004 0.18118 0.21294 0.0
H478 H 0.20394 0.16183 0.28594 0.0
H479 H 0.19377 0.23181 0.28064 0.0
C480 C 0.69362 0.61529 0.76945 0.0
Eu481 Eu 0.78488 0.67304 0.77485 0.0
C482 C 0.66542 0.56165 0.76946 0.0
C483 C 0.6495 0.53469 0.7479 0.0
C484 C 0.62152 0.48414 0.74869 0.0
C485 C 0.60905 0.45995 0.77107 0.0
C486 C 0.6272 0.48679 0.79236 0.0
C487 C 0.65454 0.53671 0.79157 0.0
C488 C 0.8505 0.68901 0.73954 0.0
C489 C 0.84553 0.62018 0.78571 0.0
C490 C 0.97216 0.78631 0.80503 0.0
Eu491 Eu 0.8823 0.72836 0.79363 0.0
C492 C 1.01593 0.83336 0.80048 0.0
C493 C 0.04873 0.85478 0.81941 0.0
C494 C 0.09431 0.89434 0.81515 0.0
C495 C 0.10839 0.91409 0.79177 0.0
C496 C 0.07416 0.89427 0.77303 0.0
C497 C 1.0285 0.85414 0.7773 0.0
C498 C 0.80888 0.68365 0.82745 0.0
C499 C 0.83437 0.78991 0.77673 0.0
O500 O 0.71342 0.63507 0.79013 0.0
O501 O 0.72205 0.637 0.75101 0.0
O502 O 0.81315 0.6481 0.74456 0.0
O503 O 0.85397 0.71979 0.7552 0.0
O504 O 0.80245 0.6156 0.78763 0.0
O505 O 0.88375 0.66254 0.78355 0.0
O506 O 0.9581 0.75399 0.78784 0.0
O507 O 0.93637 0.78528 0.81683 0.0
O508 O 0.84766 0.68084 0.82804 0.0
O509 O 0.8113 0.70807 0.80952 0.0
O510 O 0.87366 0.79 0.78294 0.0
O511 O 0.79362 0.74891 0.77256 0.0
H512 H 0.65774 0.55265 0.73052 0.0
H513 H 0.60795 0.46424 0.73197 0.0
H514 H 0.61887 0.46915 0.80985 0.0
H515 H 0.6662 0.55572 0.80853 0.0
H516 H 0.03994 0.83936 0.83741 0.0
H517 H 0.11918 0.90781 0.83013 0.0
H518 H 0.08283 0.90912 0.75494 0.0
H519 H 1.00369 0.8385 0.76236 0.0
C520 C 0.48774 0.12957 0.77251 0.0
Eu521 Eu 0.41454 0.14214 0.76962 0.0
C522 C 0.54025 0.15209 0.77099 0.0
C523 C 0.56521 0.15984 0.74911 0.0
C524 C 0.6152 0.18022 0.7493 0.0
C525 C 0.64065 0.19319 0.77135 0.0
C526 C 0.61537 0.1856 0.79308 0.0
C527 C 0.56589 0.16508 0.7929 0.0
C528 C 0.37538 0.16761 0.73457 0.0
C529 C 0.46544 0.2585 0.78163 0.0
C530 C 0.3005 0.21145 0.80412 0.0
Eu531 Eu 0.3588 0.18023 0.79218 0.0
C532 C 0.25411 0.20894 0.79971 0.0
C533 C 0.23073 0.21654 0.81922 0.0
C534 C 0.19142 0.22293 0.81531 0.0
C535 C 0.17478 0.22221 0.79171 0.0
C536 C 0.19676 0.21196 0.77227 0.0
C537 C 0.23604 0.20541 0.77623 0.0
C538 C 0.39473 0.13878 0.82353 0.0
C539 C 0.3014 0.07189 0.77404 0.0
O540 O 0.47415 0.14934 0.78907 0.0
O541 O 0.45987 0.11544 0.75325 0.0
O542 O 0.38037 0.12966 0.73394 0.0
O543 O 0.39178 0.19134 0.75437 0.0
O544 O 0.46711 0.22378 0.76955 0.0
O545 O 0.42724 0.24958 0.79403 0.0
O546 O 0.33296 0.23033 0.78708 0.0
O547 O 0.3009 0.17576 0.81521 0.0
O548 O 0.3944 0.17819 0.82849 0.0
O549 O 0.37544 0.12421 0.80343 0.0
O550 O 0.30066 0.11242 0.77515 0.0
O551 O 0.34284 0.07227 0.77486 0.0
H552 H 0.54627 0.14993 0.73203 0.0
H553 H 0.63395 0.18563 0.73226 0.0
H554 H 0.6336 0.19396 0.81036 0.0
H555 H 0.54749 0.15876 0.81014 0.0
H556 H 0.24408 0.21943 0.83748 0.0
H557 H 0.1747 0.2294 0.83079 0.0
H558 H 0.18511 0.21117 0.75384 0.0
H559 H 0.25348 0.1996 0.76084 0.0
C560 C 0.97723 0.39821 0.77244 0.0
Eu561 Eu 0.95441 0.30838 0.77542 0.0
C562 C 0.94893 0.4231 0.77369 0.0
C563 C 0.94215 0.44415 0.7529 0.0
C564 C 0.91831 0.47054 0.75446 0.0
C565 C 0.90124 0.47659 0.77689 0.0
C566 C 0.9059 0.45351 0.79736 0.0
C567 C 0.92932 0.42704 0.79578 0.0
C568 C 0.93385 0.25059 0.73658 0.0
C569 C 0.8375 0.24393 0.78197 0.0
C570 C 0.87774 0.12008 0.80372 0.0
Eu571 Eu 0.91009 0.21035 0.79181 0.0
C572 C 0.87806 0.07485 0.79888 0.0
C573 C 0.86262 0.04007 0.81726 0.0
C574 C 0.85452 0.99375 0.81241 0.0
C575 C 0.86221 0.98146 0.78909 0.0
C576 C 0.88008 1.01694 0.77095 0.0
C577 C 0.88752 0.06319 0.77572 0.0
C578 C 0.94023 0.28166 0.82705 0.0
C579 C 1.0193 0.26056 0.77743 0.0
O580 O 0.98037 0.37822 0.7924 0.0
O581 O 0.97112 0.37149 0.75342 0.0
O582 O 0.97365 0.29087 0.73979 0.0
O583 O 0.90662 0.2404 0.7551 0.0
O584 O 0.87574 0.28751 0.78273 0.0
O585 O 0.84171 0.20569 0.78263 0.0
O586 O 0.85859 0.13423 0.7873 0.0
O587 O 0.91478 0.15603 0.81409 0.0
O588 O 0.89704 0.24493 0.82627 0.0
O589 O 0.96245 0.27916 0.8092 0.0
O590 O 0.97794 0.22072 0.77468 0.0
O591 O 1.02067 0.30184 0.78168 0.0
H592 H 0.95639 0.44129 0.73558 0.0
H593 H 0.91527 0.48807 0.73839 0.0
H594 H 0.89248 0.45706 0.81481 0.0
H595 H 0.93302 0.41072 0.81209 0.0
H596 H 0.85517 0.04827 0.83525 0.0
H597 H 0.84194 0.96738 0.82683 0.0
H598 H 0.88704 1.00844 0.75293 0.0
H599 H 0.89934 0.08931 0.7612 0.0
C600 C 0.28755 1.02059 0.60524 0.0
Eu601 Eu 0.35286 0.11042 0.6006 0.0
C602 C 0.23464 0.99414 0.60424 0.0
C603 C 0.20797 0.96512 0.62375 0.0
C604 C 0.15815 0.93628 0.62206 0.0
C605 C 0.13425 0.93584 0.60073 0.0
C606 C 0.16071 0.96696 0.58175 0.0
C607 C 0.21036 0.99595 0.5835 0.0
C608 C 0.39508 0.17653 0.63589 0.0
C609 C 0.29859 0.17339 0.58999 0.0
C610 C 0.46541 0.29723 0.56875 0.0
Eu611 Eu 0.40615 0.20721 0.58004 0.0
C612 C 0.51224 0.34156 0.57277 0.0
C613 C 0.53116 0.3751 0.55397 0.0
C614 C 0.56958 0.4215 0.55799 0.0
C615 C 0.5914 0.43591 0.58097 0.0
C616 C 0.57413 0.40066 0.59948 0.0
C617 C 0.53464 0.35431 0.59553 0.0
C618 C 0.36337 0.1313 0.54751 0.0
C619 C 0.4648 0.15609 0.59557 0.0
O620 O 0.30975 0.03958 0.58489 0.0
O621 O 0.30766 0.04884 0.62386 0.0
O622 O 0.39332 0.13516 0.63521 0.0
O623 O 0.37466 0.18169 0.61736 0.0
O624 O 0.29436 0.13125 0.59553 0.0
O625 O 0.33989 0.21039 0.58403 0.0
O626 O 0.43387 0.28344 0.58622 0.0
O627 O 0.46362 0.26112 0.55679 0.0
O628 O 0.36024 0.16996 0.54567 0.0
O629 O 0.38782 0.13552 0.56573 0.0
O630 O 0.46454 0.1969 0.59598 0.0
O631 O 0.42433 0.11451 0.59409 0.0
H632 H 0.22584 0.96364 0.64002 0.0
H633 H 0.13869 0.91274 0.63702 0.0
H634 H 0.14311 0.96822 0.56532 0.0
H635 H 0.22969 1.01883 0.56834 0.0
H636 H 0.51437 0.36626 0.5363 0.0
H637 H 0.58011 0.44638 0.54305 0.0
H638 H 0.59026 0.40871 0.61725 0.0
H639 H 0.52078 0.32902 0.61042 0.0
C640 C 0.07416 0.30335 0.60704 0.0
Eu641 Eu 0.98328 0.27103 0.60141 0.0
C642 C 0.10127 0.27715 0.6055 0.0
C643 C 0.12214 0.26972 0.62614 0.0
C644 C 0.14899 0.24633 0.62423 0.0
C645 C 0.1556 0.23022 0.6016 0.0
C646 C 0.13272 0.23557 0.58126 0.0
C647 C 0.10597 0.25865 0.58315 0.0
C648 C 0.91459 0.22315 0.63544 0.0
C649 C 0.9182 0.15745 0.59082 0.0
C650 C 0.80203 0.21868 0.57425 0.0
Eu651 Eu 0.88769 0.23163 0.58047 0.0
C652 C 0.7507 0.20366 0.57723 0.0
C653 C 0.72093 0.19343 0.55697 0.0
C654 C 0.67394 0.18484 0.55969 0.0
C655 C 0.65596 0.18656 0.58275 0.0
C656 C 0.68604 0.19691 0.60292 0.0
C657 C 0.73267 0.20539 0.60021 0.0
C658 C 0.96265 0.25872 0.54816 0.0
C659 C 0.94307 0.34359 0.59108 0.0
O660 O 0.05542 0.30686 0.58675 0.0
O661 O 0.04511 0.29396 0.62549 0.0
O662 O 0.95201 0.21879 0.63215 0.0
O663 O 0.91377 0.25076 0.61921 0.0
O664 O 0.96195 0.19494 0.58791 0.0
O665 O 0.88115 0.16355 0.59296 0.0
O666 O 0.83041 0.24191 0.59222 0.0
O667 O 0.81941 0.19949 0.55919 0.0
O668 O 0.92189 0.21864 0.54577 0.0
O669 O 0.95993 0.28022 0.5663 0.0
O670 O 0.91437 0.30923 0.57634 0.0
O671 O 0.97303 0.33749 0.60529 0.0
H672 H 0.11847 0.28282 0.64365 0.0
H673 H 0.16621 0.24268 0.64024 0.0
H674 H 0.13639 0.22276 0.56366 0.0
H675 H 0.08967 0.26257 0.56686 0.0
H676 H 0.73436 0.19314 0.539 0.0
H677 H 0.6521 0.17784 0.54369 0.0
H678 H 0.67348 0.19806 0.62098 0.0
H679 H 0.7548 0.21396 0.61621 0.0
C680 C 0.79178 0.8037 0.60825 0.0
Eu681 Eu 0.82483 0.74584 0.60066 0.0
C682 C 0.81525 0.85679 0.60632 0.0
C683 C 0.83099 0.88572 0.62716 0.0
C684 C 0.85401 0.93583 0.62527 0.0
C685 C 0.86183 0.95812 0.60249 0.0
C686 C 0.84691 0.92925 0.58165 0.0
C687 C 0.82361 0.87924 0.58359 0.0
C688 C 0.86251 0.71748 0.63666 0.0
C689 C 0.93564 0.79244 0.58998 0.0
C690 C 0.89459 0.62975 0.5721 0.0
Eu691 Eu 0.85493 0.68147 0.58258 0.0
C692 C 0.89434 0.5843 0.57708 0.0
C693 C 0.89982 0.55983 0.55748 0.0
C694 C 0.90679 0.52085 0.5612 0.0
C695 C 0.90792 0.50456 0.58475 0.0
C696 C 0.90062 0.52803 0.6045 0.0
C697 C 0.89397 0.56765 0.60071 0.0
C698 C 0.8239 0.72271 0.54797 0.0
C699 C 0.74919 0.62985 0.59749 0.0
O700 O 0.7852 0.77997 0.58802 0.0
O701 O 0.8065 0.78694 0.6257 0.0
O702 O 0.87232 0.76106 0.63266 0.0
O703 O 0.83356 0.6899 0.62052 0.0
O704 O 0.9006 0.80215 0.59144 0.0
O705 O 0.92701 0.74799 0.58833 0.0
O706 O 0.90991 0.66239 0.58912 0.0
O707 O 0.85907 0.62766 0.55975 0.0
O708 O 0.81043 0.67731 0.54876 0.0
O709 O 0.85224 0.743 0.56508 0.0
O710 O 0.78702 0.62509 0.59888 0.0
O711 O 0.75439 0.67326 0.59458 0.0
H712 H 0.82533 0.86961 0.64495 0.0
H713 H 0.86539 0.95715 0.64169 0.0
H714 H 0.85158 0.94515 0.56387 0.0
H715 H 0.81151 0.85819 0.56725 0.0
H716 H 0.90057 0.57208 0.53913 0.0
H717 H 0.91294 0.50453 0.54545 0.0
H718 H 0.90031 0.51602 0.62283 0.0
H719 H 0.88963 0.58583 0.61623 0.0
C720 C 0.50442 0.87392 0.13234 0.0
C721 C 0.52546 0.91522 0.11783 0.0
H722 H 0.50142 0.80729 0.1409 0.0
C723 C 0.55787 0.91974 0.09957 0.0
H724 H 0.47963 0.86999 0.14665 0.0
C725 C 0.57017 0.88435 0.09618 0.0
C726 C 0.55062 0.84349 0.11109 0.0
H727 H 0.57446 0.95127 0.08804 0.0
H728 H 0.59657 0.8901 0.08244 0.0
C729 C 0.51722 0.8384 0.12913 0.0
C730 C 0.2358 0.70741 0.08786 0.0
C731 C 0.2398 0.74188 0.10486 0.0
H732 H 0.19784 0.63308 0.07724 0.0
C733 C 0.20773 0.72713 0.12449 0.0
H734 H 0.26021 0.71783 0.07261 0.0
C735 C 0.17245 0.67914 0.12716 0.0
C736 C 0.16823 0.64453 0.11025 0.0
H737 H 0.20937 0.75294 0.13768 0.0
H738 H 0.14825 0.66934 0.14248 0.0
C739 C 0.20039 0.65899 0.09061 0.0
C740 C 0.39126 0.56984 0.09449 0.0
C741 C 0.35654 0.53314 0.10919 0.0
H742 H 0.46644 0.614 0.08645 0.0
C743 C 0.37116 0.51423 0.12796 0.0
H744 H 0.38059 0.58525 0.08007 0.0
C745 C 0.41947 0.53106 0.13184 0.0
C746 C 0.45442 0.56714 0.11701 0.0
H747 H 0.34506 0.4858 0.13947 0.0
H748 H 0.42946 0.51471 0.14612 0.0
C749 C 0.44013 0.58695 0.09845 0.0
C750 C 0.93586 0.56332 0.91982 0.0
C751 C 0.92725 0.51718 0.92621 0.0
H752 H 0.90878 0.6118 0.91799 0.0
C753 C 0.88258 0.4842 0.93639 0.0
H754 H 0.96973 0.59 0.912 0.0
C755 C 0.84733 0.49731 0.93993 0.0
C756 C 0.85661 0.54348 0.93336 0.0
H757 H 0.87507 0.44866 0.94173 0.0
H758 H 0.81277 0.47137 0.94739 0.0
C759 C 0.90111 0.5762 0.92339 0.0
C760 C 0.58045 0.38233 0.95166 0.0
C761 C 0.55108 0.3485 0.93426 0.0
H762 H 0.6156 0.45654 0.96274 0.0
C763 C 0.53439 0.36335 0.91454 0.0
H764 H 0.59349 0.3714 0.96703 0.0
C765 C 0.547 0.41117 0.91209 0.0
C766 C 0.57669 0.44518 0.92924 0.0
H767 H 0.51111 0.33778 0.90106 0.0
H768 H 0.53312 0.42154 0.89683 0.0
C769 C 0.5936 0.43077 0.94904 0.0
C770 C 0.66729 0.18771 0.94951 0.0
C771 C 0.65023 0.16251 0.92763 0.0
H772 H 0.72814 0.24111 0.96918 0.0
C773 C 0.68221 0.17346 0.90819 0.0
H774 H 0.64349 0.17938 0.96491 0.0
C775 C 0.73038 0.20874 0.91055 0.0
C776 C 0.74796 0.23353 0.93254 0.0
H777 H 0.67005 0.1544 0.89114 0.0
H778 H 0.75417 0.21549 0.8953 0.0
C779 C 0.71581 0.22268 0.95201 0.0
C780 C 0.23358 0.20908 0.46543 0.0
C781 C 0.21882 0.17836 0.44518 0.0
H782 H 0.23303 0.26801 0.48341 0.0
C783 C 0.18907 0.18236 0.42789 0.0
H784 H 0.25733 0.20761 0.47879 0.0
C785 C 0.17434 0.21637 0.43089 0.0
C786 C 0.18979 0.24722 0.45101 0.0
H787 H 0.17749 0.15944 0.41202 0.0
H788 H 0.15265 0.21998 0.41704 0.0
C789 C 0.21964 0.24352 0.46815 0.0
C790 C 0.87051 0.05932 0.45509 0.0
C791 C 0.90976 0.07255 0.43965 0.0
H792 H 0.80733 1.00285 0.47111 0.0
C793 C 0.91491 0.03623 0.42813 0.0
H794 H 0.86532 0.08649 0.464 0.0
C795 C 0.88133 0.98736 0.43235 0.0
C796 C 0.84204 0.97443 0.44793 0.0
H797 H 0.94501 0.04562 0.41615 0.0
H798 H 0.88542 0.95991 0.42304 0.0
C799 C 0.8373 1.01117 0.4592 0.0
C800 C 0.10685 0.92897 0.43669 0.0
C801 C 0.11853 0.89903 0.45002 0.0
H802 H 0.05 0.93906 0.42289 0.0
C803 C 0.08124 0.85632 0.46007 0.0
H804 H 0.13478 0.96161 0.4284 0.0
C805 C 1.0336 0.84369 0.45693 0.0
C806 C 1.02175 0.8732 0.44357 0.0
H807 H 0.08874 0.83208 0.47025 0.0
H808 H 1.00577 0.81037 0.46477 0.0
C809 C 0.05857 0.91588 0.43331 0.0
C810 C 0.56913 0.90279 0.27891 0.0
C811 C 0.52446 0.87466 0.26779 0.0
H812 H 0.63907 0.91351 0.28521 0.0
C813 C 0.51548 0.83271 0.25522 0.0
H814 H 0.57751 0.93571 0.28832 0.0
C815 C 0.55097 0.81971 0.25352 0.0
C816 C 0.59609 0.84902 0.26399 0.0
H817 H 0.48135 0.81043 0.2464 0.0
H818 H 0.54382 0.78801 0.24326 0.0
C819 C 0.60455 0.89027 0.27692 0.0
C820 C 0.20072 0.74002 0.25017 0.0
C821 C 0.24081 0.77659 0.26219 0.0
H822 H 0.15701 0.66485 0.24348 0.0
C823 C 0.26829 0.76442 0.27715 0.0
H824 H 0.17875 0.74819 0.23853 0.0
C825 C 0.25533 0.71606 0.28015 0.0
C826 C 0.21536 0.67992 0.26789 0.0
H827 H 0.29896 0.79202 0.28685 0.0
H828 H 0.27666 0.70693 0.2917 0.0
C829 C 0.18819 0.6923 0.25298 0.0
C830 C 0.39074 0.53124 0.28248 0.0
C831 C 0.41215 0.56892 0.26558 0.0
H832 H 0.32693 0.46695 0.29336 0.0
C833 C 0.3831 0.57246 0.2476 0.0
H834 H 0.41195 0.52682 0.29631 0.0
C835 C 0.33435 0.538 0.24596 0.0
C836 C 0.31392 0.49965 0.26231 0.0
H837 H 0.39828 0.60121 0.2344 0.0
H838 H 0.31314 0.54022 0.2314 0.0
C839 C 0.34216 0.49679 0.28075 0.0
C840 C 0.83284 0.54347 0.76729 0.0
C841 C 0.85295 0.57868 0.78547 0.0
H842 H 0.83313 0.48355 0.7499 0.0
C843 C 0.88804 0.5796 0.80072 0.0
H844 H 0.80708 0.54342 0.75474 0.0
C845 C 0.90269 0.54577 0.79807 0.0
C846 C 0.88329 0.51076 0.77977 0.0
H847 H 0.90515 0.60746 0.81433 0.0
H848 H 0.93049 0.548 0.80989 0.0
C849 C 0.84825 0.50988 0.76431 0.0
C850 C 0.57642 0.37258 0.75948 0.0
C851 C 0.57303 0.40793 0.77301 0.0
H852 H 0.54545 0.29702 0.75189 0.0
C853 C 0.53476 0.39354 0.78933 0.0
H854 H 0.60567 0.38275 0.74681 0.0
C855 C 0.50087 0.34515 0.79233 0.0
C856 C 0.50406 0.30944 0.77907 0.0
H857 H 0.53074 0.41997 0.79973 0.0
H858 H 0.4718 0.33592 0.80501 0.0
C859 C 0.54226 0.32361 0.76257 0.0
C860 C 0.71202 0.18814 0.75824 0.0
C861 C 0.6928 0.21099 0.77217 0.0
H862 H 0.77324 0.18121 0.75058 0.0
C863 C 0.72286 0.24773 0.78841 0.0
H864 H 0.68969 0.15917 0.74595 0.0
C865 C 0.77103 0.26058 0.791 0.0
C866 C 0.78937 0.23634 0.77761 0.0
H867 H 0.70887 0.26588 0.79944 0.0
H868 H 0.79321 0.28777 0.80411 0.0
C869 C 0.75971 0.2005 0.76105 0.0
C870 C 0.1904 0.17804 0.61403 0.0
C871 C 0.18981 0.21228 0.59837 0.0
H872 H 0.22474 0.13737 0.62323 0.0
C873 C 0.22324 0.23071 0.57934 0.0
H874 H 0.16514 0.16336 0.62891 0.0
C875 C 0.25678 0.21595 0.57613 0.0
C876 C 0.25772 0.18198 0.59171 0.0
H877 H 0.2244 0.25778 0.56725 0.0
H878 H 0.28286 0.23206 0.56166 0.0
C879 C 0.22392 0.16266 0.61059 0.0
C880 C 0.86438 0.03317 0.61649 0.0
C881 C 0.88123 1.01079 0.60059 0.0
H882 H 0.86353 0.09727 0.62574 0.0
C883 C 0.91376 0.0384 0.58212 0.0
H884 H 0.83873 1.01292 0.6306 0.0
C885 C 0.92831 0.08728 0.57943 0.0
C886 C 0.90985 0.1087 0.59493 0.0
H887 H 0.92734 1.02205 0.56959 0.0
H888 H 0.95213 0.10762 0.5647 0.0
C889 C 0.87834 0.08143 0.6136 0.0
C890 C 0.04978 0.89149 0.61656 0.0
C891 C 0.08254 0.90083 0.59761 0.0
H892 H 0.97678 0.8498 0.62863 0.0
C893 C 0.06594 0.87497 0.57579 0.0
H894 H 0.06155 0.91069 0.63358 0.0
C895 C 1.01775 0.84004 0.57312 0.0
C896 C 0.98532 0.83126 0.592 0.0
H897 H 0.09047 0.88074 0.56103 0.0
H898 H 1.00585 0.81973 0.55641 0.0
C899 C 1.0014 0.85713 0.61369 0.0
C900 C 0.55943 0.03211 0.03288 0.0
C901 C 0.53099 0.04088 0.04929 0.0
H902 H 0.57341 1.02408 0.99525 0.0
C903 C 0.49615 0.05024 0.04022 0.0
H904 H 0.58593 1.02374 0.03959 0.0
C905 C 0.48759 0.04813 1.01559 0.0
C906 C 0.51438 0.03777 0.99881 0.0
H907 H 0.4727 0.05555 0.05239 0.0
H908 H 0.45852 0.05357 1.00994 0.0
C909 C 0.55185 0.0316 1.00763 0.0
C910 C 1.00238 0.48842 1.00366 0.0
C911 C 0.04756 0.52006 0.99362 0.0
H912 H 0.96212 0.45779 0.03612 0.0
C913 C 0.08377 0.55387 1.00871 0.0
H914 H 0.9742 0.46134 0.99243 0.0
C915 C 0.07629 0.55271 0.03385 0.0
C916 C 1.03294 0.51692 0.04412 0.0
H917 H 0.11909 0.57804 1.00141 0.0
H918 H 0.1064 0.57554 0.04538 0.0
C919 C 0.99524 0.48667 0.02868 0.0
C920 C 0.55424 0.58515 1.00924 0.0
C921 C 0.568 0.55707 0.99562 0.0
H922 H 0.55038 0.6109 0.0446 0.0
C923 C 0.57705 0.52412 1.00792 0.0
H924 H 0.5487 0.61201 1.00035 0.0
C925 C 0.5791 0.52419 0.0333 0.0
C926 C 0.57122 0.5566 0.04679 0.0
H927 H 0.58899 0.50295 0.99791 0.0
H928 H 0.59198 0.50278 0.04215 0.0
C929 C 0.55565 0.58478 0.03463 0.0
C930 C 0.21307 0.34555 0.36584 0.0
C931 C 0.20503 0.37578 0.38132 0.0
H932 H 0.21053 0.3209 0.32926 0.0
C933 C 0.19701 0.41099 0.37107 0.0
H934 H 0.21881 0.31775 0.37338 0.0
C935 C 0.1917 0.41227 0.34604 0.0
C936 C 0.19475 0.37875 0.33072 0.0
H937 H 0.18957 0.43401 0.38248 0.0
H938 H 0.18105 0.43688 0.33885 0.0
C939 C 0.20821 0.34718 0.34063 0.0
C940 C 0.68768 0.85893 0.36663 0.0
C941 C 0.7219 0.85265 0.37916 0.0
H942 H 0.65831 0.85912 0.3318 0.0
C943 C 0.76012 0.85403 0.36604 0.0
H944 H 0.6577 0.85757 0.37628 0.0
C945 C 0.76058 0.85506 0.34073 0.0
C946 C 0.72298 0.85499 0.32802 0.0
H947 H 0.78669 0.8486 0.37524 0.0
H948 H 0.78683 0.84945 0.33117 0.0
C949 C 0.68831 0.8602 0.34116 0.0
C950 C 0.23496 0.8566 0.34169 0.0
C951 C 0.23376 0.89388 0.32892 0.0
H952 H 0.24377 0.83149 0.37632 0.0
C953 C 0.22806 0.92807 0.34213 0.0
H954 H 0.24064 0.8305 0.33197 0.0
C955 C 0.23008 0.92874 0.36749 0.0
C956 C 0.23785 0.89522 0.38008 0.0
H957 H 0.22875 0.95813 0.33289 0.0
H958 H 0.23117 0.95878 0.37706 0.0
C959 C 0.23726 0.85738 0.3671 0.0
C960 C 0.81956 0.69981 0.70078 0.0
C961 C 0.85743 0.70023 0.71347 0.0
H962 H 0.79065 0.7022 0.66634 0.0
C963 C 0.89587 0.70226 0.70038 0.0
H964 H 0.78905 0.69729 0.71045 0.0
C965 C 0.89676 0.70513 0.67492 0.0
C966 C 0.85832 0.70402 0.66236 0.0
H967 H 0.92485 0.70139 0.70977 0.0
H968 H 0.92759 0.70885 0.66509 0.0
C969 C 0.81984 0.70136 0.67556 0.0
C970 C 0.43341 0.21242 0.67512 0.0
C971 C 0.39311 0.19497 0.66011 0.0
H972 H 0.45921 0.22034 0.71146 0.0
C973 C 0.34817 0.18091 0.67064 0.0
H974 H 0.46816 0.22221 0.66749 0.0
C975 C 0.34276 0.17851 0.69592 0.0
C976 C 0.38244 0.19144 0.71092 0.0
H977 H 0.31635 0.16615 0.65944 0.0
H978 H 0.30698 0.16172 0.70359 0.0
C979 C 0.42823 0.21147 0.70032 0.0
C980 C 0.91685 0.27082 0.67115 0.0
C981 C 0.90218 0.22551 0.66098 0.0
H982 H 0.93854 0.31394 0.70318 0.0
C983 C 0.88962 0.18622 0.67653 0.0
H984 H 0.92791 0.30196 0.65966 0.0
C985 C 0.89545 0.19301 0.70174 0.0
C986 C 0.91507 0.23939 0.71153 0.0
H987 H 0.87887 0.15105 0.66904 0.0
H988 H 0.88846 0.16291 0.71324 0.0
C989 C 0.92358 0.27773 0.69611 0.0
C990 C 0.37367 1.00244 0.20195 0.0
C991 C 0.34058 0.95268 0.20059 0.0
H992 H 0.44242 0.06129 0.19145 0.0
C993 C 0.35489 0.92348 0.18821 0.0
H994 H 0.36446 0.02603 0.21169 0.0
C995 C 0.40098 0.94381 0.17747 0.0
C996 C 0.43325 0.99376 0.17839 0.0
H997 H 0.33085 0.88499 0.18716 0.0
H998 H 0.41084 0.92074 0.16772 0.0
C999 C 0.41885 1.02265 0.19076 0.0
C1000 C 0.07423 0.43858 0.19604 0.0
C1001 C 0.09006 0.45384 0.17233 0.0
H1002 H 0.075 0.39763 0.22646 0.0
C1003 C 0.12231 0.44094 0.16225 0.0
H1004 H 0.04705 0.44473 0.20407 0.0
C1005 C 0.1441 0.4207 0.17632 0.0
C1006 C 0.1295 0.40685 0.20027 0.0
H1007 H 0.13055 0.44589 0.14339 0.0
H1008 H 0.17091 0.41416 0.16813 0.0
C1009 C 0.09117 0.41237 0.20906 0.0
C1010 C 0.70019 0.73081 0.19221 0.0
C1011 C 0.67457 0.75447 0.19773 0.0
H1012 H 0.69968 0.66996 0.17576 0.0
C1013 C 0.6257 0.73159 0.19133 0.0
H1014 H 0.73759 0.7469 0.19724 0.0
C1015 C 0.60314 0.68584 0.17995 0.0
C1016 C 0.62935 0.66275 0.1742 0.0
H1017 H 0.60461 0.74827 0.19582 0.0
H1018 H 0.56563 0.66916 0.17511 0.0
C1019 C 0.67826 0.68631 0.18021 0.0
C1020 C 0.95713 0.39478 0.86005 0.0
C1021 C 1.00627 0.41779 0.86595 0.0
H1022 H 0.8965 0.33231 0.84414 0.0
C1023 C 1.03161 0.39399 0.86023 0.0
H1024 H 0.93631 0.41169 0.86464 0.0
C1025 C 1.00926 0.34941 0.84833 0.0
C1026 C 0.96019 0.3259 0.84255 0.0
H1027 H 0.06923 0.4102 0.86482 0.0
H1028 H 1.03065 0.33319 0.84353 0.0
C1029 C 0.9341 0.34889 0.84878 0.0
C1030 C 0.70552 0.66903 0.86675 0.0
C1031 C 0.67375 0.61896 0.8668 0.0
H1032 H 0.77274 0.7281 0.85464 0.0
C1033 C 0.68909 0.58957 0.85546 0.0
H1034 H 0.69557 0.69283 0.87569 0.0
C1035 C 0.73467 0.61 0.8441 0.0
C1036 C 0.76559 0.66027 0.84354 0.0
H1037 H 0.66608 0.55085 0.85556 0.0
H1038 H 0.74484 0.58663 0.83489 0.0
C1039 C 0.75023 0.68929 0.85502 0.0
C1040 C 0.43231 0.08576 0.82745 0.0
C1041 C 0.41469 0.11374 0.83843 0.0
H1042 H 0.47438 0.05092 0.83152 0.0
C1043 C 0.41317 0.11394 0.86374 0.0
H1044 H 0.42617 0.07655 0.80853 0.0
C1045 C 0.43038 0.08853 0.87711 0.0
C1046 C 0.45821 0.07078 0.86615 0.0
H1047 H 0.3958 0.13078 0.87309 0.0
H1048 H 0.42141 0.08263 0.89608 0.0
C1049 C 0.45791 0.06871 0.84083 0.0
C1050 C 0.03906 0.32905 0.53363 0.0
C1051 C 1.00793 0.27881 0.53349 0.0
H1052 H 0.1054 0.38919 0.52154 0.0
C1053 C 1.02343 0.25022 0.52154 0.0
H1054 H 1.02886 0.35234 0.54293 0.0
C1055 C 0.06875 0.27173 0.50982 0.0
C1056 C 0.09902 0.32216 0.50962 0.0
H1057 H 1.00084 0.21145 0.52138 0.0
H1058 H 0.07926 0.24911 0.50013 0.0
C1059 C 0.08341 0.35032 0.52167 0.0
C1060 C 0.73921 0.74047 0.50634 0.0
C1061 C 0.75703 0.79054 0.50777 0.0
H1062 H 0.74597 0.67996 0.51751 0.0
C1063 C 0.79829 0.81819 0.52172 0.0
H1064 H 0.70792 0.71799 0.49544 0.0
C1065 C 0.82051 0.79624 0.53419 0.0
C1066 C 0.80194 0.746 0.53321 0.0
H1067 H 0.8138 0.85685 0.52272 0.0
H1068 H 0.8522 0.8187 0.54484 0.0
C1069 C 0.76122 0.71855 0.51886 0.0
C1070 C 0.34375 1.01827 0.51488 0.0
C1071 C 0.29471 0.99424 0.509 0.0
H1072 H 0.40302 0.07927 0.53176 0.0
C1073 C 0.26817 1.01681 0.51512 0.0
H1074 H 0.36546 1.00235 0.5102 0.0
C1075 C 0.2906 0.06272 0.52639 0.0
C1076 C 0.33961 0.08614 0.53258 0.0
H1077 H 0.23054 0.99979 0.51048 0.0
H1078 H 0.26934 0.07919 0.53088 0.0
C1079 C 0.36548 0.06278 0.52694 0.0
C1080 C 0.49248 0.22604 0.13628 0.0
C1081 C 0.52027 0.2625 0.11935 0.0
H1082 H 0.46302 0.1521 0.14666 0.0
C1083 C 0.53505 0.24895 0.0981 0.0
H1084 H 0.47933 0.23402 0.15267 0.0
C1085 C 0.52395 0.20125 0.09438 0.0
C1086 C 0.49764 0.16576 0.11167 0.0
H1087 H 0.55709 0.27537 0.08469 0.0
H1088 H 0.53811 0.19258 0.07854 0.0
C1089 C 0.4817 0.17847 0.13256 0.0
C1090 C 0.86387 0.27834 0.11323 0.0
C1091 C 0.82649 0.28621 0.12066 0.0
H1092 H 0.93897 0.31063 0.10414 0.0
C1093 C 0.83622 0.33319 0.12458 0.0
H1094 H 0.85697 0.24203 0.11045 0.0
C1095 C 0.88223 0.37183 0.12082 0.0
C1096 C 0.92014 0.36466 0.11324 0.0
H1097 H 0.80814 0.34003 0.13061 0.0
H1098 H 0.88798 0.40758 0.12422 0.0
C1099 C 0.91062 0.31737 0.10972 0.0
C1100 C 0.76491 0.60051 0.09688 0.0
C1101 C 0.73078 0.59026 0.11512 0.0
H1102 H 0.82777 0.59824 0.08602 0.0
C1103 C 0.73402 0.56951 0.1368 0.0
H1104 H 0.76228 0.61542 0.07978 0.0
C1105 C 0.77034 0.5586 0.14024 0.0
C1106 C 0.80489 0.56848 0.12211 0.0
H1107 H 0.70744 0.56046 0.15095 0.0
H1108 H 0.7705 0.54135 0.15701 0.0
C1109 C 0.80173 0.58972 0.10035 0.0
C1110 C 0.26658 0.53894 0.93774 0.0
C1111 C 0.27625 0.51383 0.91974 0.0
H1112 H 0.21362 0.55048 0.95527 0.0
C1113 C 0.23728 0.47768 0.90661 0.0
H1114 H 0.29547 0.56725 0.94807 0.0
C1115 C 0.19023 0.46752 0.91108 0.0
C1116 C 0.18103 0.49363 0.92859 0.0
H1117 H 0.2431 0.45721 0.89276 0.0
H1118 H 0.16135 0.44079 0.90007 0.0
C1119 C 0.21965 0.52927 0.94192 0.0
C1120 C 0.53993 0.74948 0.9235 0.0
C1121 C 0.57891 0.79621 0.92183 0.0
H1122 H 0.51605 0.67516 0.92797 0.0
C1123 C 0.6257 0.80384 0.92402 0.0
H1124 H 0.50364 0.74278 0.92154 0.0
C1125 C 0.6333 0.76492 0.92789 0.0
C1126 C 0.59411 0.71784 0.92955 0.0
H1127 H 0.65628 0.83987 0.92264 0.0
H1128 H 0.66964 0.77158 0.92916 0.0
C1129 C 0.54736 0.71082 0.92729 0.0
C1130 C 0.37061 0.88578 0.90562 0.0
C1131 C 0.37077 0.91144 0.92625 0.0
H1132 H 0.33608 0.81964 0.88609 0.0
C1133 C 0.33331 0.88932 0.94306 0.0
H1134 H 0.39965 0.90205 0.89257 0.0
C1135 C 0.29643 0.84163 0.93938 0.0
C1136 C 0.29649 0.81546 0.91879 0.0
H1137 H 0.33336 0.90826 0.95932 0.0
H1138 H 0.26785 0.82537 0.95263 0.0
C1139 C 0.33408 0.83848 0.90193 0.0
C1140 C 0.14559 0.55676 0.46172 0.0
C1141 C 0.18646 0.59671 0.45165 0.0
H1142 H 0.10566 0.47985 0.46627 0.0
C1143 C 0.21631 0.58801 0.43639 0.0
H1144 H 0.12152 0.56198 0.47341 0.0
C1145 C 0.20677 0.54105 0.43214 0.0
C1146 C 0.1668 0.50137 0.4427 0.0
H1147 H 0.24833 0.61763 0.42854 0.0
H1148 H 0.23201 0.5358 0.4214 0.0
C1149 C 0.13578 0.50958 0.45722 0.0
C1150 C 0.56284 0.6637 0.42902 0.0
C1151 C 0.58919 0.69525 0.44778 0.0
H1152 H 0.49614 0.60297 0.41818 0.0
C1153 C 0.56734 0.69007 0.47042 0.0
H1154 H 0.57866 0.66802 0.41121 0.0
C1155 C 0.51982 0.65422 0.47431 0.0
C1156 C 0.49276 0.6219 0.45571 0.0
H1157 H 0.58671 0.71494 0.48498 0.0
H1158 H 0.50419 0.65285 0.49187 0.0
C1159 C 0.51518 0.62714 0.43297 0.0
C1160 C 0.4364 0.87731 0.43572 0.0
C1161 C 0.47022 0.90077 0.45424 0.0
H1162 H 0.37311 0.86753 0.4179 0.0
C1163 C 0.4665 0.93561 0.46825 0.0
H1164 H 0.43744 0.84991 0.42472 0.0
C1165 C 0.42976 0.94612 0.46405 0.0
C1166 C 0.39565 0.92177 0.44588 0.0
H1167 H 0.49196 0.95487 0.48253 0.0
H1168 H 0.42681 0.97171 0.47571 0.0
C1169 C 0.39949 0.88745 0.43174 0.0
C1170 C 0.85645 0.80214 0.24354 0.0
C1171 C 0.84591 0.82402 0.26275 0.0
H1172 H 0.91056 0.79588 0.22402 0.0
C1173 C 0.88333 0.85637 0.27776 0.0
H1174 H 0.82847 0.77833 0.23118 0.0
C1175 C 0.93056 0.86701 0.27359 0.0
C1176 C 0.9417 0.84615 0.25399 0.0
H1177 H 0.87619 0.87455 0.29236 0.0
H1178 H 0.95853 0.89294 0.28527 0.0
C1179 C 0.90378 0.81316 0.23915 0.0
C1180 C 0.27238 0.08369 0.28044 0.0
C1181 C 0.27074 0.055 0.26095 0.0
H1182 H 0.26279 0.14175 0.29238 0.0
C1183 C 0.25759 0.06298 0.23802 0.0
H1184 H 0.28109 0.07708 0.29842 0.0
C1185 C 0.24532 0.09845 0.2346 0.0
C1186 C 0.24642 0.12746 0.25403 0.0
H1187 H 0.25483 0.04022 0.22285 0.0
H1188 H 0.23356 0.10191 0.21678 0.0
C1189 C 0.26071 0.11989 0.27699 0.0
C1190 C 0.96138 0.17663 0.27152 0.0
C1191 C 0.96398 0.14931 0.25212 0.0
H1192 H 0.99604 0.24425 0.2907 0.0
C1193 C 1.00389 0.17096 0.23657 0.0
H1194 H 0.93083 0.16126 0.28366 0.0
C1195 C 0.04045 0.21813 0.24051 0.0
C1196 C 0.03817 0.24502 0.26003 0.0
H1197 H 1.00752 0.15114 0.2216 0.0
H1198 H 0.07124 0.23342 0.22847 0.0
C1199 C 0.99814 0.22428 0.27538 0.0
C1200 C 0.79928 0.84516 0.78041 0.0
C1201 C 0.83856 0.83832 0.77636 0.0
H1202 H 0.77614 0.89635 0.78796 0.0
C1203 C 0.88493 0.87933 0.77551 0.0
H1204 H 0.7633 0.81455 0.78157 0.0
C1205 C 0.89216 0.92547 0.77923 0.0
C1206 C 0.85332 0.93223 0.78396 0.0
H1207 H 0.91633 0.87583 0.77264 0.0
H1208 H 0.92839 0.95587 0.77907 0.0
C1209 C 0.8067 0.89182 0.78434 0.0
C1210 C 0.22981 0.99411 0.76069 0.0
C1211 C 0.25518 0.0278 0.77887 0.0
H1212 H 0.16383 0.9317 0.75039 0.0
C1213 C 0.23244 1.0241 0.80114 0.0
H1214 H 0.24621 0.99706 0.74316 0.0
C1215 C 0.18508 0.98781 0.80518 0.0
C1216 C 0.15894 0.95376 0.78705 0.0
H1217 H 0.25097 0.05045 0.81528 0.0
H1218 H 0.16872 0.98741 0.82239 0.0
C1219 C 0.18223 0.95734 0.76476 0.0
C1220 C 0.13342 0.26966 0.80104 0.0
C1221 C 0.13606 0.23396 0.78729 0.0
H1222 H 0.09496 0.307 0.80829 0.0
C1223 C 0.10175 0.21008 0.76908 0.0
H1224 H 0.15942 0.2892 0.81508 0.0
C1225 C 0.06534 0.22082 0.76507 0.0
C1226 C 0.06253 0.25599 0.77898 0.0
H1227 H 0.1021 0.18204 0.75832 0.0
H1228 H 0.03858 0.20073 0.75141 0.0
C1229 C 0.09713 0.28068 0.79686 0.0
C1230 C 0.55018 0.19486 0.6074 0.0
C1231 C 0.5118 0.15911 0.59415 0.0
H1232 H 0.62553 0.23249 0.61378 0.0
C1233 C 0.52068 0.13236 0.57688 0.0
H1234 H 0.54425 0.21657 0.62049 0.0
C1235 C 0.56755 0.14168 0.57281 0.0
C1236 C 0.60619 0.17752 0.58616 0.0
H1237 H 0.49175 0.10564 0.56589 0.0
H1238 H 0.57345 0.12061 0.55934 0.0
C1239 C 0.59675 0.20395 0.60349 0.0
C1240 C 0.90932 0.38974 0.57171 0.0
C1241 C 0.93806 0.38738 0.59029 0.0
H1242 H 0.87487 0.42505 0.55652 0.0
C1243 C 0.95579 0.42361 0.60807 0.0
H1244 H 0.8942 0.36271 0.5576 0.0
C1245 C 0.94533 0.46143 0.60687 0.0
C1246 C 0.91676 0.46333 0.58799 0.0
H1247 H 0.97711 0.42251 0.62288 0.0
H1248 H 0.96022 0.48948 0.62047 0.0
C1249 C 0.89823 0.42619 0.57086 0.0
C1250 C 0.65709 0.518 0.56613 0.0
C1251 C 0.63033 0.48752 0.58551 0.0
H1252 H 0.71327 0.58749 0.55482 0.0
C1253 C 0.64089 0.50755 0.60908 0.0
H1254 H 0.65254 0.50491 0.54775 0.0
C1255 C 0.67744 0.55534 0.61304 0.0
C1256 C 0.7032 0.58505 0.59354 0.0
H1257 H 0.62145 0.48657 0.6247 0.0
H1258 H 0.68654 0.56864 0.63142 0.0
C1259 C 0.69234 0.56599 0.57009 0.0
loop_
_geom_bond_atom_site_label_1
_geom_bond_atom_site_label_2
_geom_bond_distance
_geom_bond_site_symmetry_2
_ccdc_geom_bond_type
C0 Eu1 2.835 . S
C0 C2 1.500 . S
C0 O20 1.257 . S
C0 O21 1.260 . S
Eu1 C0 2.835 . S
Eu1 O20 2.473 . S
Eu1 O21 2.480 . S
Eu1 O22 2.430 . S
Eu1 O23 2.670 1_565 S
Eu1 O24 2.394 . S
Eu1 O29 2.355 . S
Eu1 O31 2.374 1_565 S
C2 C0 1.500 . S
C2 C3 1.377 . S
C2 C7 1.377 . S
C3 C2 1.377 . S
C3 C4 1.395 . S
C3 H32 0.931 . S
C4 C3 1.395 . S
C4 C5 1.383 . S
C4 H33 0.931 . S
C5 C4 1.383 . S
C5 C6 1.394 . S
C6 C5 1.394 . S
C6 C7 1.378 . S
C6 H34 0.931 . S
C7 C2 1.377 . S
C7 C6 1.378 . S
C7 H35 0.931 . S
C8 O22 1.259 1_545 S
C8 O23 1.270 . S
C9 O24 1.251 . S
C9 O25 1.251 . S
C10 Eu11 2.835 . S
C10 C12 1.500 . S
C10 O26 1.257 . S
C10 O27 1.260 . S
Eu11 C10 2.835 . S
Eu11 O23 2.355 . S
Eu11 O25 2.374 1_545 S
Eu11 O26 2.473 . S
Eu11 O27 2.480 . S
Eu11 O28 2.430 . S
Eu11 O29 2.670 1_545 S
Eu11 O30 2.394 . S
C12 C10 1.500 . S
C12 C13 1.377 . S
C12 C17 1.377 . S
C13 C12 1.377 . S
C13 C14 1.395 . S
C13 H36 0.931 . S
C14 C13 1.395 . S
C14 C15 1.383 . S
C14 H37 0.931 . S
C15 C14 1.383 . S
C15 C16 1.394 . S
C16 C15 1.394 . S
C16 C17 1.378 . S
C16 H38 0.931 . S
C17 C12 1.377 . S
C17 C16 1.378 . S
C17 H39 0.931 . S
C18 O28 1.259 . S
C18 O29 1.270 1_545 S
C19 O30 1.251 . S
C19 O31 1.251 . S
O20 C0 1.257 . S
O20 Eu1 2.473 . S
O21 C0 1.260 . S
O21 Eu1 2.480 . S
O22 Eu1 2.430 . S
O22 C8 1.259 1_565 S
O23 Eu1 2.670 1_545 S
O23 C8 1.270 . S
O23 Eu11 2.355 . S
O24 Eu1 2.394 . S
O24 C9 1.251 . S
O25 C9 1.251 . S
O25 Eu11 2.374 1_565 S
O26 C10 1.257 . S
O26 Eu11 2.473 . S
O27 C10 1.260 . S
O27 Eu11 2.480 . S
O28 Eu11 2.430 . S
O28 C18 1.259 . S
O29 Eu1 2.355 . S
O29 Eu11 2.670 1_565 S
O29 C18 1.270 1_565 S
O30 Eu11 2.394 . S
O30 C19 1.251 . S
O31 Eu1 2.374 1_545 S
O31 C19 1.251 . S
H32 C3 0.931 . S
H33 C4 0.931 . S
H34 C6 0.931 . S
H35 C7 0.931 . S
H36 C13 0.931 . S
H37 C14 0.931 . S
H38 C16 0.931 . S
H39 C17 0.931 . S
C40 Eu41 2.835 . S
C40 C42 1.500 . S
C40 O60 1.257 . S
C40 O61 1.260 . S
Eu41 C40 2.835 . S
Eu41 O60 2.473 . S
Eu41 O61 2.480 . S
Eu41 O62 2.430 . S
Eu41 O63 2.670 . S
Eu41 O64 2.394 . S
Eu41 O69 2.355 . S
Eu41 O71 2.374 1_455 S
C42 C40 1.500 . S
C42 C43 1.377 . S
C42 C47 1.377 . S
C43 C42 1.377 . S
C43 C44 1.395 . S
C43 H72 0.931 . S
C44 C43 1.395 . S
C44 C45 1.383 . S
C44 H73 0.931 . S
C45 C44 1.383 . S
C45 C46 1.394 . S
C46 C45 1.394 . S
C46 C47 1.378 . S
C46 H74 0.931 . S
C47 C42 1.377 . S
C47 C46 1.378 . S
C47 H75 0.931 . S
C48 O62 1.259 . S
C48 O63 1.270 . S
C49 O64 1.251 . S
C49 O65 1.251 . S
C50 Eu51 2.835 . S
C50 C52 1.500 . S
C50 O66 1.257 . S
C50 O67 1.260 . S
Eu51 C50 2.835 . S
Eu51 O63 2.355 1_655 S
Eu51 O65 2.374 1_655 S
Eu51 O66 2.473 . S
Eu51 O67 2.480 . S
Eu51 O68 2.430 1_655 S
Eu51 O69 2.670 1_655 S
Eu51 O70 2.394 . S
C52 C50 1.500 . S
C52 C53 1.377 . S
C52 C57 1.377 . S
C53 C52 1.377 . S
C53 C54 1.395 . S
C53 H76 0.931 . S
C54 C53 1.395 . S
C54 C55 1.383 . S
C54 H77 0.931 . S
C55 C54 1.383 . S
C55 C56 1.394 . S
C56 C55 1.394 . S
C56 C57 1.378 . S
C56 H78 0.931 . S
C57 C52 1.377 . S
C57 C56 1.378 . S
C57 H79 0.931 . S
C58 O68 1.259 . S
C58 O69 1.270 . S
C59 O70 1.251 . S
C59 O71 1.251 . S
O60 C40 1.257 . S
O60 Eu41 2.473 . S
O61 C40 1.260 . S
O61 Eu41 2.480 . S
O62 Eu41 2.430 . S
O62 C48 1.259 . S
O63 Eu41 2.670 . S
O63 C48 1.270 . S
O63 Eu51 2.355 1_455 S
O64 Eu41 2.394 . S
O64 C49 1.251 . S
O65 C49 1.251 . S
O65 Eu51 2.374 1_455 S
O66 C50 1.257 . S
O66 Eu51 2.473 . S
O67 C50 1.260 . S
O67 Eu51 2.480 . S
O68 Eu51 2.430 1_455 S
O68 C58 1.259 . S
O69 Eu41 2.355 . S
O69 Eu51 2.670 1_455 S
O69 C58 1.270 . S
O70 Eu51 2.394 . S
O70 C59 1.251 . S
O71 Eu41 2.374 1_655 S
O71 C59 1.251 . S
H72 C43 0.931 . S
H73 C44 0.931 . S
H74 C46 0.931 . S
H75 C47 0.931 . S
H76 C53 0.931 . S
H77 C54 0.931 . S
H78 C56 0.931 . S
H79 C57 0.931 . S
C80 Eu81 2.835 . S
C80 C82 1.500 . S
C80 O100 1.257 . S
C80 O101 1.260 . S
Eu81 C80 2.835 . S
Eu81 O100 2.473 . S
Eu81 O101 2.480 . S
Eu81 O102 2.430 . S
Eu81 O103 2.670 . S
Eu81 O104 2.394 . S
Eu81 O109 2.355 . S
Eu81 O111 2.374 . S
C82 C80 1.500 . S
C82 C83 1.377 . S
C82 C87 1.377 . S
C83 C82 1.377 . S
C83 C84 1.395 . S
C83 H112 0.931 . S
C84 C83 1.395 . S
C84 C85 1.383 . S
C84 H113 0.931 . S
C85 C84 1.383 . S
C85 C86 1.394 . S
C86 C85 1.394 . S
C86 C87 1.378 . S
C86 H114 0.931 . S
C87 C82 1.377 . S
C87 C86 1.378 . S
C87 H115 0.931 . S
C88 O102 1.259 . S
C88 O103 1.270 . S
C89 O104 1.251 . S
C89 O105 1.251 . S
C90 Eu91 2.835 . S
C90 C92 1.500 . S
C90 O106 1.257 . S
C90 O107 1.260 . S
Eu91 C90 2.835 . S
Eu91 O103 2.355 . S
Eu91 O105 2.374 . S
Eu91 O106 2.473 . S
Eu91 O107 2.480 . S
Eu91 O108 2.430 . S
Eu91 O109 2.670 . S
Eu91 O110 2.394 . S
C92 C90 1.500 . S
C92 C93 1.377 . S
C92 C97 1.377 . S
C93 C92 1.377 . S
C93 C94 1.395 . S
C93 H116 0.931 . S
C94 C93 1.395 . S
C94 C95 1.383 . S
C94 H117 0.931 . S
C95 C94 1.383 . S
C95 C96 1.394 . S
C96 C95 1.394 . S
C96 C97 1.378 . S
C96 H118 0.931 . S
C97 C92 1.377 . S
C97 C96 1.378 . S
C97 H119 0.931 . S
C98 O108 1.259 . S
C98 O109 1.270 . S
C99 O110 1.251 . S
C99 O111 1.251 . S
O100 C80 1.257 . S
O100 Eu81 2.473 . S
O101 C80 1.260 . S
O101 Eu81 2.480 . S
O102 Eu81 2.430 . S
O102 C88 1.259 . S
O103 Eu81 2.670 . S
O103 C88 1.270 . S
O103 Eu91 2.355 . S
O104 Eu81 2.394 . S
O104 C89 1.251 . S
O105 C89 1.251 . S
O105 Eu91 2.374 . S
O106 C90 1.257 . S
O106 Eu91 2.473 . S
O107 C90 1.260 . S
O107 Eu91 2.480 . S
O108 Eu91 2.430 . S
O108 C98 1.259 . S
O109 Eu81 2.355 . S
O109 Eu91 2.670 . S
O109 C98 1.270 . S
O110 Eu91 2.394 . S
O110 C99 1.251 . S
O111 Eu81 2.374 . S
O111 C99 1.251 . S
H112 C83 0.931 . S
H113 C84 0.931 . S
H114 C86 0.931 . S
H115 C87 0.931 . S
H116 C93 0.931 . S
H117 C94 0.931 . S
H118 C96 0.931 . S
H119 C97 0.931 . S
C120 Eu121 2.835 . S
C120 C122 1.500 . S
C120 O140 1.257 . S
C120 O141 1.260 . S
Eu121 C120 2.835 . S
Eu121 O140 2.473 . S
Eu121 O141 2.480 . S
Eu121 O142 2.430 . S
Eu121 O143 2.670 1_655 S
Eu121 O144 2.394 . S
Eu121 O149 2.355 . S
Eu121 O151 2.374 1_655 S
C122 C120 1.500 . S
C122 C123 1.377 . S
C122 C127 1.377 . S
C123 C122 1.377 . S
C123 C124 1.395 . S
C123 H152 0.931 . S
C124 C123 1.395 . S
C124 C125 1.383 . S
C124 H153 0.931 . S
C125 C124 1.383 . S
C125 C126 1.394 . S
C126 C125 1.394 . S
C126 C127 1.378 . S
C126 H154 0.931 . S
C127 C122 1.377 . S
C127 C126 1.378 . S
C127 H155 0.931 . S
C128 O142 1.259 1_455 S
C128 O143 1.270 . S
C129 O144 1.251 . S
C129 O145 1.251 . S
C130 Eu131 2.835 . S
C130 C132 1.500 . S
C130 O146 1.257 . S
C130 O147 1.260 . S
Eu131 C130 2.835 . S
Eu131 O143 2.355 . S
Eu131 O145 2.374 1_455 S
Eu131 O146 2.473 . S
Eu131 O147 2.480 . S
Eu131 O148 2.430 . S
Eu131 O149 2.670 1_455 S
Eu131 O150 2.394 . S
C132 C130 1.500 . S
C132 C133 1.377 . S
C132 C137 1.377 . S
C133 C132 1.377 . S
C133 C134 1.395 . S
C133 H156 0.931 . S
C134 C133 1.395 . S
C134 C135 1.383 . S
C134 H157 0.931 . S
C135 C134 1.383 . S
C135 C136 1.394 . S
C136 C135 1.394 . S
C136 C137 1.378 . S
C136 H158 0.931 . S
C137 C132 1.377 . S
C137 C136 1.378 . S
C137 H159 0.931 . S
C138 O148 1.259 . S
C138 O149 1.270 1_455 S
C139 O150 1.251 . S
C139 O151 1.251 . S
O140 C120 1.257 . S
O140 Eu121 2.473 . S
O141 C120 1.260 . S
O141 Eu121 2.480 . S
O142 Eu121 2.430 . S
O142 C128 1.259 1_655 S
O143 Eu121 2.670 1_455 S
O143 C128 1.270 . S
O143 Eu131 2.355 . S
O144 Eu121 2.394 . S
O144 C129 1.251 . S
O145 C129 1.251 . S
O145 Eu131 2.374 1_655 S
O146 C130 1.257 . S
O146 Eu131 2.473 . S
O147 C130 1.260 . S
O147 Eu131 2.480 . S
O148 Eu131 2.430 . S
O148 C138 1.259 . S
O149 Eu121 2.355 . S
O149 Eu131 2.670 1_655 S
O149 C138 1.270 1_655 S
O150 Eu131 2.394 . S
O150 C139 1.251 . S
O151 Eu121 2.374 1_455 S
O151 C139 1.251 . S
H152 C123 0.931 . S
H153 C124 0.931 . S
H154 C126 0.931 . S
H155 C127 0.931 . S
H156 C133 0.931 . S
H157 C134 0.931 . S
H158 C136 0.931 . S
H159 C137 0.931 . S
C160 Eu161 2.835 . S
C160 C162 1.500 . S
C160 O180 1.257 . S
C160 O181 1.260 . S
Eu161 C160 2.835 . S
Eu161 O180 2.473 . S
Eu161 O181 2.480 . S
Eu161 O182 2.430 . S
Eu161 O183 2.670 . S
Eu161 O184 2.394 . S
Eu161 O189 2.355 . S
Eu161 O191 2.374 . S
C162 C160 1.500 . S
C162 C163 1.377 . S
C162 C167 1.377 . S
C163 C162 1.377 . S
C163 C164 1.395 . S
C163 H192 0.931 . S
C164 C163 1.395 . S
C164 C165 1.383 . S
C164 H193 0.931 . S
C165 C164 1.383 . S
C165 C166 1.394 . S
C166 C165 1.394 . S
C166 C167 1.378 . S
C166 H194 0.931 . S
C167 C162 1.377 . S
C167 C166 1.378 . S
C167 H195 0.931 . S
C168 O182 1.259 . S
C168 O183 1.270 . S
C169 O184 1.251 . S
C169 O185 1.251 . S
C170 Eu171 2.835 . S
C170 C172 1.500 . S
C170 O186 1.257 . S
C170 O187 1.260 . S
Eu171 C170 2.835 . S
Eu171 O183 2.355 . S
Eu171 O185 2.374 . S
Eu171 O186 2.473 . S
Eu171 O187 2.480 . S
Eu171 O188 2.430 . S
Eu171 O189 2.670 . S
Eu171 O190 2.394 . S
C172 C170 1.500 . S
C172 C173 1.377 . S
C172 C177 1.377 . S
C173 C172 1.377 . S
C173 C174 1.395 . S
C173 H196 0.931 . S
C174 C173 1.395 . S
C174 C175 1.383 . S
C174 H197 0.931 . S
C175 C174 1.383 . S
C175 C176 1.394 . S
C176 C175 1.394 . S
C176 C177 1.378 . S
C176 H198 0.931 . S
C177 C172 1.377 . S
C177 C176 1.378 . S
C177 H199 0.931 . S
C178 O188 1.259 . S
C178 O189 1.270 . S
C179 O190 1.251 . S
C179 O191 1.251 . S
O180 C160 1.257 . S
O180 Eu161 2.473 . S
O181 C160 1.260 . S
O181 Eu161 2.480 . S
O182 Eu161 2.430 . S
O182 C168 1.259 . S
O183 Eu161 2.670 . S
O183 C168 1.270 . S
O183 Eu171 2.355 . S
O184 Eu161 2.394 . S
O184 C169 1.251 . S
O185 C169 1.251 . S
O185 Eu171 2.374 . S
O186 C170 1.257 . S
O186 Eu171 2.473 . S
O187 C170 1.260 . S
O187 Eu171 2.480 . S
O188 Eu171 2.430 . S
O188 C178 1.259 . S
O189 Eu161 2.355 . S
O189 Eu171 2.670 . S
O189 C178 1.270 . S
O190 Eu171 2.394 . S
O190 C179 1.251 . S
O191 Eu161 2.374 . S
O191 C179 1.251 . S
H192 C163 0.931 . S
H193 C164 0.931 . S
H194 C166 0.931 . S
H195 C167 0.931 . S
H196 C173 0.931 . S
H197 C174 0.931 . S
H198 C176 0.931 . S
H199 C177 0.931 . S
C200 Eu201 2.835 . S
C200 C202 1.500 . S
C200 O220 1.257 . S
C200 O221 1.260 . S
Eu201 C200 2.835 . S
Eu201 O220 2.473 . S
Eu201 O221 2.480 . S
Eu201 O222 2.430 . S
Eu201 O223 2.670 . S
Eu201 O224 2.394 . S
Eu201 O229 2.355 . S
Eu201 O231 2.374 1_545 S
C202 C200 1.500 . S
C202 C203 1.377 . S
C202 C207 1.377 . S
C203 C202 1.377 . S
C203 C204 1.395 . S
C203 H232 0.931 . S
C204 C203 1.395 . S
C204 C205 1.383 . S
C204 H233 0.931 . S
C205 C204 1.383 . S
C205 C206 1.394 . S
C206 C205 1.394 . S
C206 C207 1.378 . S
C206 H234 0.931 . S
C207 C202 1.377 . S
C207 C206 1.378 . S
C207 H235 0.931 . S
C208 O222 1.259 . S
C208 O223 1.270 . S
C209 O224 1.251 . S
C209 O225 1.251 . S
C210 Eu211 2.835 . S
C210 C212 1.500 . S
C210 O226 1.257 . S
C210 O227 1.260 . S
Eu211 C210 2.835 . S
Eu211 O223 2.355 1_565 S
Eu211 O225 2.374 1_565 S
Eu211 O226 2.473 . S
Eu211 O227 2.480 . S
Eu211 O228 2.430 1_565 S
Eu211 O229 2.670 1_565 S
Eu211 O230 2.394 . S
C212 C210 1.500 . S
C212 C213 1.377 . S
C212 C217 1.377 . S
C213 C212 1.377 . S
C213 C214 1.395 . S
C213 H236 0.931 . S
C214 C213 1.395 . S
C214 C215 1.383 . S
C214 H237 0.931 . S
C215 C214 1.383 . S
C215 C216 1.394 . S
C216 C215 1.394 . S
C216 C217 1.378 . S
C216 H238 0.931 . S
C217 C212 1.377 . S
C217 C216 1.378 . S
C217 H239 0.931 . S
C218 O228 1.259 . S
C218 O229 1.270 . S
C219 O230 1.251 . S
C219 O231 1.251 . S
O220 C200 1.257 . S
O220 Eu201 2.473 . S
O221 C200 1.260 . S
O221 Eu201 2.480 . S
O222 Eu201 2.430 . S
O222 C208 1.259 . S
O223 Eu201 2.670 . S
O223 C208 1.270 . S
O223 Eu211 2.355 1_545 S
O224 Eu201 2.394 . S
O224 C209 1.251 . S
O225 C209 1.251 . S
O225 Eu211 2.374 1_545 S
O226 C210 1.257 . S
O226 Eu211 2.473 . S
O227 C210 1.260 . S
O227 Eu211 2.480 . S
O228 Eu211 2.430 1_545 S
O228 C218 1.259 . S
O229 Eu201 2.355 . S
O229 Eu211 2.670 1_545 S
O229 C218 1.270 . S
O230 Eu211 2.394 . S
O230 C219 1.251 . S
O231 Eu201 2.374 1_565 S
O231 C219 1.251 . S
H232 C203 0.931 . S
H233 C204 0.931 . S
H234 C206 0.931 . S
H235 C207 0.931 . S
H236 C213 0.931 . S
H237 C214 0.931 . S
H238 C216 0.931 . S
H239 C217 0.931 . S
C240 Eu241 2.835 . S
C240 C242 1.500 1_455 S
C240 O260 1.257 . S
C240 O261 1.260 . S
Eu241 C240 2.835 . S
Eu241 O260 2.473 . S
Eu241 O261 2.480 . S
Eu241 O262 2.430 . S
Eu241 O263 2.670 . S
Eu241 O264 2.394 . S
Eu241 O269 2.355 . S
Eu241 O271 2.374 . S
C242 C240 1.500 1_655 S
C242 C243 1.377 . S
C242 C247 1.377 . S
C243 C242 1.377 . S
C243 C244 1.395 . S
C243 H272 0.931 . S
C244 C243 1.395 . S
C244 C245 1.383 . S
C244 H273 0.931 . S
C245 C244 1.383 . S
C245 C246 1.394 . S
C246 C245 1.394 . S
C246 C247 1.378 . S
C246 H274 0.931 . S
C247 C242 1.377 . S
C247 C246 1.378 . S
C247 H275 0.931 . S
C248 O262 1.259 . S
C248 O263 1.270 . S
C249 O264 1.251 . S
C249 O265 1.251 . S
C250 Eu251 2.835 . S
C250 C252 1.500 . S
C250 O266 1.257 . S
C250 O267 1.260 . S
Eu251 C250 2.835 . S
Eu251 O263 2.355 . S
Eu251 O265 2.374 . S
Eu251 O266 2.473 . S
Eu251 O267 2.480 . S
Eu251 O268 2.430 . S
Eu251 O269 2.670 . S
Eu251 O270 2.394 . S
C252 C250 1.500 . S
C252 C253 1.377 . S
C252 C257 1.377 . S
C253 C252 1.377 . S
C253 C254 1.395 . S
C253 H276 0.931 . S
C254 C253 1.395 . S
C254 C255 1.383 . S
C254 H277 0.931 . S
C255 C254 1.383 . S
C255 C256 1.394 . S
C256 C255 1.394 . S
C256 C257 1.378 . S
C256 H278 0.931 . S
C257 C252 1.377 . S
C257 C256 1.378 . S
C257 H279 0.931 . S
C258 O268 1.259 . S
C258 O269 1.270 . S
C259 O270 1.251 . S
C259 O271 1.251 . S
O260 C240 1.257 . S
O260 Eu241 2.473 . S
O261 C240 1.260 . S
O261 Eu241 2.480 . S
O262 Eu241 2.430 . S
O262 C248 1.259 . S
O263 Eu241 2.670 . S
O263 C248 1.270 . S
O263 Eu251 2.355 . S
O264 Eu241 2.394 . S
O264 C249 1.251 . S
O265 C249 1.251 . S
O265 Eu251 2.374 . S
O266 C250 1.257 . S
O266 Eu251 2.473 . S
O267 C250 1.260 . S
O267 Eu251 2.480 . S
O268 Eu251 2.430 . S
O268 C258 1.259 . S
O269 Eu241 2.355 . S
O269 Eu251 2.670 . S
O269 C258 1.270 . S
O270 Eu251 2.394 . S
O270 C259 1.251 . S
O271 Eu241 2.374 . S
O271 C259 1.251 . S
H272 C243 0.931 . S
H273 C244 0.931 . S
H274 C246 0.931 . S
H275 C247 0.931 . S
H276 C253 0.931 . S
H277 C254 0.931 . S
H278 C256 0.931 . S
H279 C257 0.931 . S
C280 Eu281 2.835 . S
C280 C282 1.500 . S
C280 O300 1.257 . S
C280 O301 1.260 . S
Eu281 C280 2.835 . S
Eu281 O300 2.473 . S
Eu281 O301 2.480 . S
Eu281 O302 2.430 . S
Eu281 O303 2.670 . S
Eu281 O304 2.394 . S
Eu281 O309 2.355 . S
Eu281 O311 2.374 . S
C282 C280 1.500 . S
C282 C283 1.377 . S
C282 C287 1.377 . S
C283 C282 1.377 . S
C283 C284 1.395 . S
C283 H312 0.931 . S
C284 C283 1.395 . S
C284 C285 1.383 . S
C284 H313 0.931 . S
C285 C284 1.383 . S
C285 C286 1.394 . S
C286 C285 1.394 . S
C286 C287 1.378 . S
C286 H314 0.931 . S
C287 C282 1.377 . S
C287 C286 1.378 . S
C287 H315 0.931 . S
C288 O302 1.259 . S
C288 O303 1.270 . S
C289 O304 1.251 . S
C289 O305 1.251 . S
C290 Eu291 2.835 . S
C290 C292 1.500 . S
C290 O306 1.257 . S
C290 O307 1.260 . S
Eu291 C290 2.835 . S
Eu291 O303 2.355 . S
Eu291 O305 2.374 . S
Eu291 O306 2.473 . S
Eu291 O307 2.480 . S
Eu291 O308 2.430 . S
Eu291 O309 2.670 . S
Eu291 O310 2.394 . S
C292 C290 1.500 . S
C292 C293 1.377 . S
C292 C297 1.377 . S
C293 C292 1.377 . S
C293 C294 1.395 . S
C293 H316 0.931 . S
C294 C293 1.395 . S
C294 C295 1.383 . S
C294 H317 0.931 . S
C295 C294 1.383 . S
C295 C296 1.394 . S
C296 C295 1.394 . S
C296 C297 1.378 . S
C296 H318 0.931 . S
C297 C292 1.377 . S
C297 C296 1.378 . S
C297 H319 0.931 . S
C298 O308 1.259 . S
C298 O309 1.270 . S
C299 O310 1.251 . S
C299 O311 1.251 . S
O300 C280 1.257 . S
O300 Eu281 2.473 . S
O301 C280 1.260 . S
O301 Eu281 2.480 . S
O302 Eu281 2.430 . S
O302 C288 1.259 . S
O303 Eu281 2.670 . S
O303 C288 1.270 . S
O303 Eu291 2.355 . S
O304 Eu281 2.394 . S
O304 C289 1.251 . S
O305 C289 1.251 . S
O305 Eu291 2.374 . S
O306 C290 1.257 . S
O306 Eu291 2.473 . S
O307 C290 1.260 . S
O307 Eu291 2.480 . S
O308 Eu291 2.430 . S
O308 C298 1.259 . S
O309 Eu281 2.355 . S
O309 Eu291 2.670 . S
O309 C298 1.270 . S
O310 Eu291 2.394 . S
O310 C299 1.251 . S
O311 Eu281 2.374 . S
O311 C299 1.251 . S
H312 C283 0.931 . S
H313 C284 0.931 . S
H314 C286 0.931 . S
H315 C287 0.931 . S
H316 C293 0.931 . S
H317 C294 0.931 . S
H318 C296 0.931 . S
H319 C297 0.931 . S
C320 Eu321 2.835 1_545 S
C320 C322 1.500 . S
C320 O340 1.257 1_545 S
C320 O341 1.263 . S
Eu321 C320 2.835 1_565 S
Eu321 O340 2.473 . S
Eu321 O341 2.474 1_565 S
Eu321 O342 2.430 . S
Eu321 O343 2.670 . S
Eu321 O344 2.394 . S
Eu321 O349 2.355 . S
Eu321 O351 2.374 . S
C322 C320 1.500 . S
C322 C323 1.377 . S
C322 C327 1.377 . S
C323 C322 1.377 . S
C323 C324 1.395 . S
C323 H352 0.931 . S
C324 C323 1.395 . S
C324 C325 1.383 . S
C324 H353 0.931 . S
C325 C324 1.383 . S
C325 C326 1.394 . S
C326 C325 1.394 . S
C326 C327 1.378 . S
C326 H354 0.931 . S
C327 C322 1.377 . S
C327 C326 1.378 . S
C327 H355 0.931 . S
C328 O342 1.259 . S
C328 O343 1.270 . S
C329 O344 1.251 . S
C329 O345 1.251 . S
C330 Eu331 2.835 . S
C330 C332 1.500 . S
C330 O346 1.257 . S
C330 O347 1.260 . S
Eu331 C330 2.835 . S
Eu331 O343 2.355 . S
Eu331 O345 2.374 . S
Eu331 O346 2.473 . S
Eu331 O347 2.480 . S
Eu331 O348 2.430 . S
Eu331 O349 2.670 . S
Eu331 O350 2.394 . S
C332 C330 1.500 . S
C332 C333 1.377 . S
C332 C337 1.377 . S
C333 C332 1.377 . S
C333 C334 1.395 . S
C333 H356 0.931 . S
C334 C333 1.395 . S
C334 C335 1.383 . S
C334 H357 0.931 . S
C335 C334 1.383 . S
C335 C336 1.394 . S
C336 C335 1.394 . S
C336 C337 1.378 . S
C336 H358 0.931 . S
C337 C332 1.377 . S
C337 C336 1.378 . S
C337 H359 0.931 . S
C338 O348 1.259 . S
C338 O349 1.270 . S
C339 O350 1.251 . S
C339 O351 1.251 . S
O340 C320 1.257 1_565 S
O340 Eu321 2.473 . S
O341 C320 1.263 . S
O341 Eu321 2.474 1_545 S
O342 Eu321 2.430 . S
O342 C328 1.259 . S
O343 Eu321 2.670 . S
O343 C328 1.270 . S
O343 Eu331 2.355 . S
O344 Eu321 2.394 . S
O344 C329 1.251 . S
O345 C329 1.251 . S
O345 Eu331 2.374 . S
O346 C330 1.257 . S
O346 Eu331 2.473 . S
O347 C330 1.260 . S
O347 Eu331 2.480 . S
O348 Eu331 2.430 . S
O348 C338 1.259 . S
O349 Eu321 2.355 . S
O349 Eu331 2.670 . S
O349 C338 1.270 . S
O350 Eu331 2.394 . S
O350 C339 1.251 . S
O351 Eu321 2.374 . S
O351 C339 1.251 . S
H352 C323 0.931 . S
H353 C324 0.931 . S
H354 C326 0.931 . S
H355 C327 0.931 . S
H356 C333 0.931 . S
H357 C334 0.931 . S
H358 C336 0.931 . S
H359 C337 0.931 . S
C360 Eu361 2.835 . S
C360 C362 1.500 . S
C360 O380 1.257 . S
C360 O381 1.260 . S
Eu361 C360 2.835 . S
Eu361 O380 2.473 . S
Eu361 O381 2.480 . S
Eu361 O382 2.430 . S
Eu361 O383 2.670 . S
Eu361 O384 2.394 . S
Eu361 O389 2.355 . S
Eu361 O391 2.374 . S
C362 C360 1.500 . S
C362 C363 1.377 . S
C362 C367 1.377 . S
C363 C362 1.377 . S
C363 C364 1.395 . S
C363 H392 0.931 . S
C364 C363 1.395 . S
C364 C365 1.383 . S
C364 H393 0.931 . S
C365 C364 1.383 . S
C365 C366 1.394 . S
C366 C365 1.394 . S
C366 C367 1.378 . S
C366 H394 0.931 . S
C367 C362 1.377 . S
C367 C366 1.378 . S
C367 H395 0.931 . S
C368 O382 1.259 . S
C368 O383 1.270 . S
C369 O384 1.251 . S
C369 O385 1.251 . S
C370 Eu371 2.835 . S
C370 C372 1.500 . S
C370 O386 1.257 . S
C370 O387 1.260 . S
Eu371 C370 2.835 . S
Eu371 O383 2.355 . S
Eu371 O385 2.374 . S
Eu371 O386 2.473 . S
Eu371 O387 2.480 . S
Eu371 O388 2.430 . S
Eu371 O389 2.670 . S
Eu371 O390 2.394 . S
C372 C370 1.500 . S
C372 C373 1.377 1_565 S
C372 C377 1.377 1_565 S
C373 C372 1.377 1_545 S
C373 C374 1.395 . S
C373 H396 0.928 1_545 S
C374 C373 1.395 . S
C374 C375 1.383 . S
C374 H397 0.931 . S
C375 C374 1.383 . S
C375 C376 1.394 . S
C376 C375 1.394 . S
C376 C377 1.378 . S
C376 H398 0.931 . S
C377 C372 1.377 1_545 S
C377 C376 1.378 . S
C377 H399 0.931 1_545 S
C378 O388 1.259 . S
C378 O389 1.270 . S
C379 O390 1.251 . S
C379 O391 1.251 . S
O380 C360 1.257 . S
O380 Eu361 2.473 . S
O381 C360 1.260 . S
O381 Eu361 2.480 . S
O382 Eu361 2.430 . S
O382 C368 1.259 . S
O383 Eu361 2.670 . S
O383 C368 1.270 . S
O383 Eu371 2.355 . S
O384 Eu361 2.394 . S
O384 C369 1.251 . S
O385 C369 1.251 . S
O385 Eu371 2.374 . S
O386 C370 1.257 . S
O386 Eu371 2.473 . S
O387 C370 1.260 . S
O387 Eu371 2.480 . S
O388 Eu371 2.430 . S
O388 C378 1.259 . S
O389 Eu361 2.355 . S
O389 Eu371 2.670 . S
O389 C378 1.270 . S
O390 Eu371 2.394 . S
O390 C379 1.251 . S
O391 Eu361 2.374 . S
O391 C379 1.251 . S
H392 C363 0.931 . S
H393 C364 0.931 . S
H394 C366 0.931 . S
H395 C367 0.931 . S
H396 C373 0.928 1_565 S
H397 C374 0.931 . S
H398 C376 0.931 . S
H399 C377 0.931 1_565 S
C400 Eu401 2.835 . S
C400 C402 1.500 . S
C400 O420 1.257 . S
C400 O421 1.260 . S
Eu401 C400 2.835 . S
Eu401 O420 2.473 . S
Eu401 O421 2.480 . S
Eu401 O422 2.430 . S
Eu401 O423 2.670 . S
Eu401 O424 2.394 . S
Eu401 O429 2.355 . S
Eu401 O431 2.374 . S
C402 C400 1.500 . S
C402 C403 1.377 . S
C402 C407 1.377 . S
C403 C402 1.377 . S
C403 C404 1.395 . S
C403 H432 0.931 . S
C404 C403 1.395 . S
C404 C405 1.383 . S
C404 H433 0.931 . S
C405 C404 1.383 . S
C405 C406 1.394 . S
C406 C405 1.394 . S
C406 C407 1.378 . S
C406 H434 0.931 . S
C407 C402 1.377 . S
C407 C406 1.378 . S
C407 H435 0.931 . S
C408 O422 1.259 . S
C408 O423 1.270 . S
C409 O424 1.251 . S
C409 O425 1.251 . S
C410 Eu411 2.835 . S
C410 C412 1.500 . S
C410 O426 1.257 . S
C410 O427 1.260 . S
Eu411 C410 2.835 . S
Eu411 O423 2.355 . S
Eu411 O425 2.374 . S
Eu411 O426 2.473 . S
Eu411 O427 2.480 . S
Eu411 O428 2.430 . S
Eu411 O429 2.670 . S
Eu411 O430 2.394 . S
C412 C410 1.500 . S
C412 C413 1.377 . S
C412 C417 1.377 . S
C413 C412 1.377 . S
C413 C414 1.395 1_455 S
C413 H436 0.931 . S
C414 C413 1.395 1_655 S
C414 C415 1.383 . S
C414 H437 0.931 . S
C415 C414 1.383 . S
C415 C416 1.394 . S
C416 C415 1.394 . S
C416 C417 1.378 1_655 S
C416 H438 0.931 . S
C417 C412 1.377 . S
C417 C416 1.378 1_455 S
C417 H439 0.931 . S
C418 O428 1.259 . S
C418 O429 1.270 . S
C419 O430 1.251 . S
C419 O431 1.251 . S
O420 C400 1.257 . S
O420 Eu401 2.473 . S
O421 C400 1.260 . S
O421 Eu401 2.480 . S
O422 Eu401 2.430 . S
O422 C408 1.259 . S
O423 Eu401 2.670 . S
O423 C408 1.270 . S
O423 Eu411 2.355 . S
O424 Eu401 2.394 . S
O424 C409 1.251 . S
O425 C409 1.251 . S
O425 Eu411 2.374 . S
O426 C410 1.257 . S
O426 Eu411 2.473 . S
O427 C410 1.260 . S
O427 Eu411 2.480 . S
O428 Eu411 2.430 . S
O428 C418 1.259 . S
O429 Eu401 2.355 . S
O429 Eu411 2.670 . S
O429 C418 1.270 . S
O430 Eu411 2.394 . S
O430 C419 1.251 . S
O431 Eu401 2.374 . S
O431 C419 1.251 . S
H432 C403 0.931 . S
H433 C404 0.931 . S
H434 C406 0.931 . S
H435 C407 0.931 . S
H436 C413 0.931 . S
H437 C414 0.931 . S
H438 C416 0.931 . S
H439 C417 0.931 . S
C440 Eu441 2.835 . S
C440 C442 1.500 . S
C440 O460 1.257 . S
C440 O461 1.260 . S
Eu441 C440 2.835 . S
Eu441 O460 2.473 . S
Eu441 O461 2.480 . S
Eu441 O462 2.430 . S
Eu441 O463 2.670 . S
Eu441 O464 2.394 . S
Eu441 O469 2.355 . S
Eu441 O471 2.374 . S
C442 C440 1.500 . S
C442 C443 1.377 . S
C442 C447 1.377 . S
C443 C442 1.377 . S
C443 C444 1.395 . S
C443 H472 0.931 . S
C444 C443 1.395 . S
C444 C445 1.383 . S
C444 H473 0.931 . S
C445 C444 1.383 . S
C445 C446 1.394 . S
C446 C445 1.394 . S
C446 C447 1.378 . S
C446 H474 0.931 . S
C447 C442 1.377 . S
C447 C446 1.378 . S
C447 H475 0.931 . S
C448 O462 1.259 . S
C448 O463 1.270 . S
C449 O464 1.251 . S
C449 O465 1.251 . S
C450 Eu451 2.835 . S
C450 C452 1.500 . S
C450 O466 1.257 . S
C450 O467 1.260 . S
Eu451 C450 2.835 . S
Eu451 O463 2.355 . S
Eu451 O465 2.374 . S
Eu451 O466 2.473 . S
Eu451 O467 2.480 . S
Eu451 O468 2.430 . S
Eu451 O469 2.670 . S
Eu451 O470 2.394 . S
C452 C450 1.500 . S
C452 C453 1.377 . S
C452 C457 1.377 . S
C453 C452 1.377 . S
C453 C454 1.395 . S
C453 H476 0.931 . S
C454 C453 1.395 . S
C454 C455 1.383 . S
C454 H477 0.931 . S
C455 C454 1.383 . S
C455 C456 1.394 . S
C456 C455 1.394 . S
C456 C457 1.378 . S
C456 H478 0.931 . S
C457 C452 1.377 . S
C457 C456 1.378 . S
C457 H479 0.931 . S
C458 O468 1.259 . S
C458 O469 1.270 . S
C459 O470 1.251 . S
C459 O471 1.251 . S
O460 C440 1.257 . S
O460 Eu441 2.473 . S
O461 C440 1.260 . S
O461 Eu441 2.480 . S
O462 Eu441 2.430 . S
O462 C448 1.259 . S
O463 Eu441 2.670 . S
O463 C448 1.270 . S
O463 Eu451 2.355 . S
O464 Eu441 2.394 . S
O464 C449 1.251 . S
O465 C449 1.251 . S
O465 Eu451 2.374 . S
O466 C450 1.257 . S
O466 Eu451 2.473 . S
O467 C450 1.260 . S
O467 Eu451 2.480 . S
O468 Eu451 2.430 . S
O468 C458 1.259 . S
O469 Eu441 2.355 . S
O469 Eu451 2.670 . S
O469 C458 1.270 . S
O470 Eu451 2.394 . S
O470 C459 1.251 . S
O471 Eu441 2.374 . S
O471 C459 1.251 . S
H472 C443 0.931 . S
H473 C444 0.931 . S
H474 C446 0.931 . S
H475 C447 0.931 . S
H476 C453 0.931 . S
H477 C454 0.931 . S
H478 C456 0.931 . S
H479 C457 0.931 . S
C480 Eu481 2.835 . S
C480 C482 1.500 . S
C480 O500 1.257 . S
C480 O501 1.260 . S
Eu481 C480 2.835 . S
Eu481 O500 2.473 . S
Eu481 O501 2.480 . S
Eu481 O502 2.430 . S
Eu481 O503 2.670 . S
Eu481 O504 2.394 . S
Eu481 O509 2.355 . S
Eu481 O511 2.374 . S
C482 C480 1.500 . S
C482 C483 1.377 . S
C482 C487 1.377 . S
C483 C482 1.377 . S
C483 C484 1.395 . S
C483 H512 0.931 . S
C484 C483 1.395 . S
C484 C485 1.383 . S
C484 H513 0.931 . S
C485 C484 1.383 . S
C485 C486 1.394 . S
C486 C485 1.394 . S
C486 C487 1.378 . S
C486 H514 0.931 . S
C487 C482 1.377 . S
C487 C486 1.378 . S
C487 H515 0.931 . S
C488 O502 1.259 . S
C488 O503 1.270 . S
C489 O504 1.251 . S
C489 O505 1.251 . S
C490 Eu491 2.835 . S
C490 C492 1.500 . S
C490 O506 1.257 . S
C490 O507 1.260 . S
Eu491 C490 2.835 . S
Eu491 O503 2.355 . S
Eu491 O505 2.374 . S
Eu491 O506 2.473 . S
Eu491 O507 2.480 . S
Eu491 O508 2.430 . S
Eu491 O509 2.670 . S
Eu491 O510 2.394 . S
C492 C490 1.500 . S
C492 C493 1.377 1_655 S
C492 C497 1.377 1_655 S
C493 C492 1.377 1_455 S
C493 C494 1.395 . S
C493 H516 0.928 1_455 S
C494 C493 1.395 . S
C494 C495 1.383 . S
C494 H517 0.931 . S
C495 C494 1.383 . S
C495 C496 1.394 . S
C496 C495 1.394 . S
C496 C497 1.378 . S
C496 H518 0.931 . S
C497 C492 1.377 1_455 S
C497 C496 1.378 . S
C497 H519 0.931 1_455 S
C498 O508 1.259 . S
C498 O509 1.270 . S
C499 O510 1.251 . S
C499 O511 1.251 . S
O500 C480 1.257 . S
O500 Eu481 2.473 . S
O501 C480 1.260 . S
O501 Eu481 2.480 . S
O502 Eu481 2.430 . S
O502 C488 1.259 . S
O503 Eu481 2.670 . S
O503 C488 1.270 . S
O503 Eu491 2.355 . S
O504 Eu481 2.394 . S
O504 C489 1.251 . S
O505 C489 1.251 . S
O505 Eu491 2.374 . S
O506 C490 1.257 . S
O506 Eu491 2.473 . S
O507 C490 1.260 . S
O507 Eu491 2.480 . S
O508 Eu491 2.430 . S
O508 C498 1.259 . S
O509 Eu481 2.355 . S
O509 Eu491 2.670 . S
O509 C498 1.270 . S
O510 Eu491 2.394 . S
O510 C499 1.251 . S
O511 Eu481 2.374 . S
O511 C499 1.251 . S
H512 C483 0.931 . S
H513 C484 0.931 . S
H514 C486 0.931 . S
H515 C487 0.931 . S
H516 C493 0.928 1_655 S
H517 C494 0.931 . S
H518 C496 0.931 . S
H519 C497 0.931 1_655 S
C520 Eu521 2.835 . S
C520 C522 1.500 . S
C520 O540 1.257 . S
C520 O541 1.260 . S
Eu521 C520 2.835 . S
Eu521 O540 2.473 . S
Eu521 O541 2.480 . S
Eu521 O542 2.430 . S
Eu521 O543 2.670 . S
Eu521 O544 2.394 . S
Eu521 O549 2.355 . S
Eu521 O551 2.374 . S
C522 C520 1.500 . S
C522 C523 1.377 . S
C522 C527 1.377 . S
C523 C522 1.377 . S
C523 C524 1.395 . S
C523 H552 0.931 . S
C524 C523 1.395 . S
C524 C525 1.383 . S
C524 H553 0.931 . S
C525 C524 1.383 . S
C525 C526 1.394 . S
C526 C525 1.394 . S
C526 C527 1.378 . S
C526 H554 0.931 . S
C527 C522 1.377 . S
C527 C526 1.378 . S
C527 H555 0.931 . S
C528 O542 1.259 . S
C528 O543 1.270 . S
C529 O544 1.251 . S
C529 O545 1.251 . S
C530 Eu531 2.835 . S
C530 C532 1.500 . S
C530 O546 1.257 . S
C530 O547 1.260 . S
Eu531 C530 2.835 . S
Eu531 O543 2.355 . S
Eu531 O545 2.374 . S
Eu531 O546 2.473 . S
Eu531 O547 2.480 . S
Eu531 O548 2.430 . S
Eu531 O549 2.670 . S
Eu531 O550 2.394 . S
C532 C530 1.500 . S
C532 C533 1.377 . S
C532 C537 1.377 . S
C533 C532 1.377 . S
C533 C534 1.395 . S
C533 H556 0.931 . S
C534 C533 1.395 . S
C534 C535 1.383 . S
C534 H557 0.931 . S
C535 C534 1.383 . S
C535 C536 1.394 . S
C536 C535 1.394 . S
C536 C537 1.378 . S
C536 H558 0.931 . S
C537 C532 1.377 . S
C537 C536 1.378 . S
C537 H559 0.931 . S
C538 O548 1.259 . S
C538 O549 1.270 . S
C539 O550 1.251 . S
C539 O551 1.251 . S
O540 C520 1.257 . S
O540 Eu521 2.473 . S
O541 C520 1.260 . S
O541 Eu521 2.480 . S
O542 Eu521 2.430 . S
O542 C528 1.259 . S
O543 Eu521 2.670 . S
O543 C528 1.270 . S
O543 Eu531 2.355 . S
O544 Eu521 2.394 . S
O544 C529 1.251 . S
O545 C529 1.251 . S
O545 Eu531 2.374 . S
O546 C530 1.257 . S
O546 Eu531 2.473 . S
O547 C530 1.260 . S
O547 Eu531 2.480 . S
O548 Eu531 2.430 . S
O548 C538 1.259 . S
O549 Eu521 2.355 . S
O549 Eu531 2.670 . S
O549 C538 1.270 . S
O550 Eu531 2.394 . S
O550 C539 1.251 . S
O551 Eu521 2.374 . S
O551 C539 1.251 . S
H552 C523 0.931 . S
H553 C524 0.931 . S
H554 C526 0.931 . S
H555 C527 0.931 . S
H556 C533 0.931 . S
H557 C534 0.931 . S
H558 C536 0.931 . S
H559 C537 0.931 . S
C560 Eu561 2.835 . S
C560 C562 1.500 . S
C560 O580 1.257 . S
C560 O581 1.260 . S
Eu561 C560 2.835 . S
Eu561 O580 2.473 . S
Eu561 O581 2.480 . S
Eu561 O582 2.430 . S
Eu561 O583 2.670 . S
Eu561 O584 2.394 . S
Eu561 O589 2.355 . S
Eu561 O591 2.374 . S
C562 C560 1.500 . S
C562 C563 1.377 . S
C562 C567 1.377 . S
C563 C562 1.377 . S
C563 C564 1.395 . S
C563 H592 0.931 . S
C564 C563 1.395 . S
C564 C565 1.383 . S
C564 H593 0.931 . S
C565 C564 1.383 . S
C565 C566 1.394 . S
C566 C565 1.394 . S
C566 C567 1.378 . S
C566 H594 0.931 . S
C567 C562 1.377 . S
C567 C566 1.378 . S
C567 H595 0.931 . S
C568 O582 1.259 . S
C568 O583 1.270 . S
C569 O584 1.251 . S
C569 O585 1.251 . S
C570 Eu571 2.835 . S
C570 C572 1.500 . S
C570 O586 1.257 . S
C570 O587 1.260 . S
Eu571 C570 2.835 . S
Eu571 O583 2.355 . S
Eu571 O585 2.374 . S
Eu571 O586 2.473 . S
Eu571 O587 2.480 . S
Eu571 O588 2.430 . S
Eu571 O589 2.670 . S
Eu571 O590 2.394 . S
C572 C570 1.500 . S
C572 C573 1.377 . S
C572 C577 1.377 . S
C573 C572 1.377 . S
C573 C574 1.395 1_545 S
C573 H596 0.931 . S
C574 C573 1.395 1_565 S
C574 C575 1.383 . S
C574 H597 0.931 . S
C575 C574 1.383 . S
C575 C576 1.394 . S
C576 C575 1.394 . S
C576 C577 1.378 1_565 S
C576 H598 0.931 . S
C577 C572 1.377 . S
C577 C576 1.378 1_545 S
C577 H599 0.931 . S
C578 O588 1.259 . S
C578 O589 1.270 . S
C579 O590 1.251 . S
C579 O591 1.251 . S
O580 C560 1.257 . S
O580 Eu561 2.473 . S
O581 C560 1.260 . S
O581 Eu561 2.480 . S
O582 Eu561 2.430 . S
O582 C568 1.259 . S
O583 Eu561 2.670 . S
O583 C568 1.270 . S
O583 Eu571 2.355 . S
O584 Eu561 2.394 . S
O584 C569 1.251 . S
O585 C569 1.251 . S
O585 Eu571 2.374 . S
O586 C570 1.257 . S
O586 Eu571 2.473 . S
O587 C570 1.260 . S
O587 Eu571 2.480 . S
O588 Eu571 2.430 . S
O588 C578 1.259 . S
O589 Eu561 2.355 . S
O589 Eu571 2.670 . S
O589 C578 1.270 . S
O590 Eu571 2.394 . S
O590 C579 1.251 . S
O591 Eu561 2.374 . S
O591 C579 1.251 . S
H592 C563 0.931 . S
H593 C564 0.931 . S
H594 C566 0.931 . S
H595 C567 0.931 . S
H596 C573 0.931 . S
H597 C574 0.931 . S
H598 C576 0.931 . S
H599 C577 0.931 . S
C600 Eu601 2.835 . S
C600 C602 1.500 1_545 S
C600 O620 1.257 . S
C600 O621 1.260 . S
Eu601 C600 2.835 . S
Eu601 O620 2.473 . S
Eu601 O621 2.480 . S
Eu601 O622 2.430 . S
Eu601 O623 2.670 . S
Eu601 O624 2.394 . S
Eu601 O629 2.355 . S
Eu601 O631 2.374 . S
C602 C600 1.500 1_565 S
C602 C603 1.377 . S
C602 C607 1.377 . S
C603 C602 1.377 . S
C603 C604 1.395 . S
C603 H632 0.931 . S
C604 C603 1.395 . S
C604 C605 1.383 . S
C604 H633 0.931 . S
C605 C604 1.383 . S
C605 C606 1.394 . S
C606 C605 1.394 . S
C606 C607 1.378 . S
C606 H634 0.931 . S
C607 C602 1.377 . S
C607 C606 1.378 . S
C607 H635 0.931 . S
C608 O622 1.259 . S
C608 O623 1.270 . S
C609 O624 1.251 . S
C609 O625 1.251 . S
C610 Eu611 2.835 . S
C610 C612 1.500 . S
C610 O626 1.257 . S
C610 O627 1.260 . S
Eu611 C610 2.835 . S
Eu611 O623 2.355 . S
Eu611 O625 2.374 . S
Eu611 O626 2.473 . S
Eu611 O627 2.480 . S
Eu611 O628 2.430 . S
Eu611 O629 2.670 . S
Eu611 O630 2.394 . S
C612 C610 1.500 . S
C612 C613 1.377 . S
C612 C617 1.377 . S
C613 C612 1.377 . S
C613 C614 1.395 . S
C613 H636 0.931 . S
C614 C613 1.395 . S
C614 C615 1.383 . S
C614 H637 0.931 . S
C615 C614 1.383 . S
C615 C616 1.394 . S
C616 C615 1.394 . S
C616 C617 1.378 . S
C616 H638 0.931 . S
C617 C612 1.377 . S
C617 C616 1.378 . S
C617 H639 0.931 . S
C618 O628 1.259 . S
C618 O629 1.270 . S
C619 O630 1.251 . S
C619 O631 1.251 . S
O620 C600 1.257 . S
O620 Eu601 2.473 . S
O621 C600 1.260 . S
O621 Eu601 2.480 . S
O622 Eu601 2.430 . S
O622 C608 1.259 . S
O623 Eu601 2.670 . S
O623 C608 1.270 . S
O623 Eu611 2.355 . S
O624 Eu601 2.394 . S
O624 C609 1.251 . S
O625 C609 1.251 . S
O625 Eu611 2.374 . S
O626 C610 1.257 . S
O626 Eu611 2.473 . S
O627 C610 1.260 . S
O627 Eu611 2.480 . S
O628 Eu611 2.430 . S
O628 C618 1.259 . S
O629 Eu601 2.355 . S
O629 Eu611 2.670 . S
O629 C618 1.270 . S
O630 Eu611 2.394 . S
O630 C619 1.251 . S
O631 Eu601 2.374 . S
O631 C619 1.251 . S
H632 C603 0.931 . S
H633 C604 0.931 . S
H634 C606 0.931 . S
H635 C607 0.931 . S
H636 C613 0.931 . S
H637 C614 0.931 . S
H638 C616 0.931 . S
H639 C617 0.931 . S
C640 Eu641 2.835 1_455 S
C640 C642 1.500 . S
C640 O660 1.257 1_455 S
C640 O661 1.263 . S
Eu641 C640 2.835 1_655 S
Eu641 O660 2.473 . S
Eu641 O661 2.473 1_655 S
Eu641 O662 2.430 . S
Eu641 O663 2.670 . S
Eu641 O664 2.394 . S
Eu641 O669 2.355 . S
Eu641 O671 2.374 . S
C642 C640 1.500 . S
C642 C643 1.377 . S
C642 C647 1.377 . S
C643 C642 1.377 . S
C643 C644 1.395 . S
C643 H672 0.931 . S
C644 C643 1.395 . S
C644 C645 1.383 . S
C644 H673 0.931 . S
C645 C644 1.383 . S
C645 C646 1.394 . S
C646 C645 1.394 . S
C646 C647 1.378 . S
C646 H674 0.931 . S
C647 C642 1.377 . S
C647 C646 1.378 . S
C647 H675 0.931 . S
C648 O662 1.259 . S
C648 O663 1.270 . S
C649 O664 1.251 . S
C649 O665 1.251 . S
C650 Eu651 2.835 . S
C650 C652 1.500 . S
C650 O666 1.257 . S
C650 O667 1.260 . S
Eu651 C650 2.835 . S
Eu651 O663 2.355 . S
Eu651 O665 2.374 . S
Eu651 O666 2.473 . S
Eu651 O667 2.480 . S
Eu651 O668 2.430 . S
Eu651 O669 2.670 . S
Eu651 O670 2.394 . S
C652 C650 1.500 . S
C652 C653 1.377 . S
C652 C657 1.377 . S
C653 C652 1.377 . S
C653 C654 1.395 . S
C653 H676 0.931 . S
C654 C653 1.395 . S
C654 C655 1.383 . S
C654 H677 0.931 . S
C655 C654 1.383 . S
C655 C656 1.394 . S
C656 C655 1.394 . S
C656 C657 1.378 . S
C656 H678 0.931 . S
C657 C652 1.377 . S
C657 C656 1.378 . S
C657 H679 0.931 . S
C658 O668 1.259 . S
C658 O669 1.270 . S
C659 O670 1.251 . S
C659 O671 1.251 . S
O660 C640 1.257 1_655 S
O660 Eu641 2.473 . S
O661 C640 1.263 . S
O661 Eu641 2.473 1_455 S
O662 Eu641 2.430 . S
O662 C648 1.259 . S
O663 Eu641 2.670 . S
O663 C648 1.270 . S
O663 Eu651 2.355 . S
O664 Eu641 2.394 . S
O664 C649 1.251 . S
O665 C649 1.251 . S
O665 Eu651 2.374 . S
O666 C650 1.257 . S
O666 Eu651 2.473 . S
O667 C650 1.260 . S
O667 Eu651 2.480 . S
O668 Eu651 2.430 . S
O668 C658 1.259 . S
O669 Eu641 2.355 . S
O669 Eu651 2.670 . S
O669 C658 1.270 . S
O670 Eu651 2.394 . S
O670 C659 1.251 . S
O671 Eu641 2.374 . S
O671 C659 1.251 . S
H672 C643 0.931 . S
H673 C644 0.931 . S
H674 C646 0.931 . S
H675 C647 0.931 . S
H676 C653 0.931 . S
H677 C654 0.931 . S
H678 C656 0.931 . S
H679 C657 0.931 . S
C680 Eu681 2.835 . S
C680 C682 1.500 . S
C680 O700 1.257 . S
C680 O701 1.260 . S
Eu681 C680 2.835 . S
Eu681 O700 2.473 . S
Eu681 O701 2.480 . S
Eu681 O702 2.430 . S
Eu681 O703 2.670 . S
Eu681 O704 2.394 . S
Eu681 O709 2.355 . S
Eu681 O711 2.374 . S
C682 C680 1.500 . S
C682 C683 1.377 . S
C682 C687 1.377 . S
C683 C682 1.377 . S
C683 C684 1.395 . S
C683 H712 0.931 . S
C684 C683 1.395 . S
C684 C685 1.383 . S
C684 H713 0.931 . S
C685 C684 1.383 . S
C685 C686 1.394 . S
C686 C685 1.394 . S
C686 C687 1.378 . S
C686 H714 0.931 . S
C687 C682 1.377 . S
C687 C686 1.378 . S
C687 H715 0.931 . S
C688 O702 1.259 . S
C688 O703 1.270 . S
C689 O704 1.251 . S
C689 O705 1.251 . S
C690 Eu691 2.835 . S
C690 C692 1.500 . S
C690 O706 1.257 . S
C690 O707 1.260 . S
Eu691 C690 2.835 . S
Eu691 O703 2.355 . S
Eu691 O705 2.374 . S
Eu691 O706 2.473 . S
Eu691 O707 2.480 . S
Eu691 O708 2.430 . S
Eu691 O709 2.670 . S
Eu691 O710 2.394 . S
C692 C690 1.500 . S
C692 C693 1.377 . S
C692 C697 1.377 . S
C693 C692 1.377 . S
C693 C694 1.395 . S
C693 H716 0.931 . S
C694 C693 1.395 . S
C694 C695 1.383 . S
C694 H717 0.931 . S
C695 C694 1.383 . S
C695 C696 1.394 . S
C696 C695 1.394 . S
C696 C697 1.378 . S
C696 H718 0.931 . S
C697 C692 1.377 . S
C697 C696 1.378 . S
C697 H719 0.931 . S
C698 O708 1.259 . S
C698 O709 1.270 . S
C699 O710 1.251 . S
C699 O711 1.251 . S
O700 C680 1.257 . S
O700 Eu681 2.473 . S
O701 C680 1.260 . S
O701 Eu681 2.480 . S
O702 Eu681 2.430 . S
O702 C688 1.259 . S
O703 Eu681 2.670 . S
O703 C688 1.270 . S
O703 Eu691 2.355 . S
O704 Eu681 2.394 . S
O704 C689 1.251 . S
O705 C689 1.251 . S
O705 Eu691 2.374 . S
O706 C690 1.257 . S
O706 Eu691 2.473 . S
O707 C690 1.260 . S
O707 Eu691 2.480 . S
O708 Eu691 2.430 . S
O708 C698 1.259 . S
O709 Eu681 2.355 . S
O709 Eu691 2.670 . S
O709 C698 1.270 . S
O710 Eu691 2.394 . S
O710 C699 1.251 . S
O711 Eu681 2.374 . S
O711 C699 1.251 . S
H712 C683 0.931 . S
H713 C684 0.931 . S
H714 C686 0.931 . S
H715 C687 0.931 . S
H716 C693 0.931 . S
H717 C694 0.931 . S
H718 C696 0.931 . S
H719 C697 0.931 . S
C720 C721 1.387 . S
C720 H724 0.950 . S
C720 C729 1.390 . S
C721 C720 1.387 . S
C721 C723 1.387 . S
H722 C729 0.950 . S
C723 C721 1.387 . S
C723 C725 1.390 . S
C723 H727 0.950 . S
H724 C720 0.950 . S
C725 C723 1.390 . S
C725 C726 1.387 . S
C725 H728 0.950 . S
C726 C725 1.387 . S
C726 C729 1.387 . S
H727 C723 0.950 . S
H728 C725 0.950 . S
C729 C720 1.390 . S
C729 H722 0.950 . S
C729 C726 1.387 . S
C730 C731 1.387 . S
C730 H734 0.950 . S
C730 C739 1.390 . S
C731 C730 1.387 . S
C731 C733 1.387 . S
H732 C739 0.950 . S
C733 C731 1.387 . S
C733 C735 1.390 . S
C733 H737 0.950 . S
H734 C730 0.950 . S
C735 C733 1.390 . S
C735 C736 1.387 . S
C735 H738 0.950 . S
C736 C735 1.387 . S
C736 C739 1.387 . S
H737 C733 0.950 . S
H738 C735 0.950 . S
C739 C730 1.390 . S
C739 H732 0.950 . S
C739 C736 1.387 . S
C740 C741 1.387 . S
C740 H744 0.950 . S
C740 C749 1.390 . S
C741 C740 1.387 . S
C741 C743 1.387 . S
H742 C749 0.950 . S
C743 C741 1.387 . S
C743 C745 1.390 . S
C743 H747 0.950 . S
H744 C740 0.950 . S
C745 C743 1.390 . S
C745 C746 1.387 . S
C745 H748 0.950 . S
C746 C745 1.387 . S
C746 C749 1.387 . S
H747 C743 0.950 . S
H748 C745 0.950 . S
C749 C740 1.390 . S
C749 H742 0.950 . S
C749 C746 1.387 . S
C750 C751 1.387 . S
C750 H754 0.950 . S
C750 C759 1.390 . S
C751 C750 1.387 . S
C751 C753 1.387 . S
H752 C759 0.950 . S
C753 C751 1.387 . S
C753 C755 1.390 . S
C753 H757 0.950 . S
H754 C750 0.950 . S
C755 C753 1.390 . S
C755 C756 1.387 . S
C755 H758 0.950 . S
C756 C755 1.387 . S
C756 C759 1.387 . S
H757 C753 0.950 . S
H758 C755 0.950 . S
C759 C750 1.390 . S
C759 H752 0.950 . S
C759 C756 1.387 . S
C760 C761 1.387 . S
C760 H764 0.950 . S
C760 C769 1.390 . S
C761 C760 1.387 . S
C761 C763 1.387 . S
H762 C769 0.950 . S
C763 C761 1.387 . S
C763 C765 1.390 . S
C763 H767 0.950 . S
H764 C760 0.950 . S
C765 C763 1.390 . S
C765 C766 1.387 . S
C765 H768 0.950 . S
C766 C765 1.387 . S
C766 C769 1.387 . S
H767 C763 0.950 . S
H768 C765 0.950 . S
C769 C760 1.390 . S
C769 H762 0.950 . S
C769 C766 1.387 . S
C770 C771 1.387 . S
C770 H774 0.950 . S
C770 C779 1.390 . S
C771 C770 1.387 . S
C771 C773 1.387 . S
H772 C779 0.950 . S
C773 C771 1.387 . S
C773 C775 1.390 . S
C773 H777 0.950 . S
H774 C770 0.950 . S
C775 C773 1.390 . S
C775 C776 1.387 . S
C775 H778 0.950 . S
C776 C775 1.387 . S
C776 C779 1.387 . S
H777 C773 0.950 . S
H778 C775 0.950 . S
C779 C770 1.390 . S
C779 H772 0.950 . S
C779 C776 1.387 . S
C780 C781 1.387 . S
C780 H784 0.950 . S
C780 C789 1.390 . S
C781 C780 1.387 . S
C781 C783 1.387 . S
H782 C789 0.950 . S
C783 C781 1.387 . S
C783 C785 1.390 . S
C783 H787 0.950 . S
H784 C780 0.950 . S
C785 C783 1.390 . S
C785 C786 1.387 . S
C785 H788 0.950 . S
C786 C785 1.387 . S
C786 C789 1.387 . S
H787 C783 0.950 . S
H788 C785 0.950 . S
C789 C780 1.390 . S
C789 H782 0.950 . S
C789 C786 1.387 . S
C790 C791 1.387 . S
C790 H794 0.950 . S
C790 C799 1.390 1_545 S
C791 C790 1.387 . S
C791 C793 1.387 . S
H792 C799 0.950 . S
C793 C791 1.387 . S
C793 C795 1.390 1_545 S
C793 H797 0.950 . S
H794 C790 0.950 . S
C795 C793 1.390 1_565 S
C795 C796 1.387 . S
C795 H798 0.950 . S
C796 C795 1.387 . S
C796 C799 1.387 . S
H797 C793 0.950 . S
H798 C795 0.950 . S
C799 C790 1.390 1_565 S
C799 H792 0.950 . S
C799 C796 1.387 . S
C800 C801 1.387 . S
C800 H804 0.950 . S
C800 C809 1.390 . S
C801 C800 1.387 . S
C801 C803 1.387 . S
H802 C809 0.950 . S
C803 C801 1.387 . S
C803 C805 1.390 . S
C803 H807 0.950 . S
H804 C800 0.950 . S
C805 C803 1.390 . S
C805 C806 1.387 1_455 S
C805 H808 0.950 1_455 S
C806 C805 1.387 1_655 S
C806 C809 1.387 1_655 S
H807 C803 0.950 . S
H808 C805 0.950 1_655 S
C809 C800 1.390 . S
C809 H802 0.950 . S
C809 C806 1.387 1_455 S
C810 C811 1.387 . S
C810 H814 0.950 . S
C810 C819 1.390 . S
C811 C810 1.387 . S
C811 C813 1.387 . S
H812 C819 0.950 . S
C813 C811 1.387 . S
C813 C815 1.390 . S
C813 H817 0.950 . S
H814 C810 0.950 . S
C815 C813 1.390 . S
C815 C816 1.387 . S
C815 H818 0.950 . S
C816 C815 1.387 . S
C816 C819 1.387 . S
H817 C813 0.950 . S
H818 C815 0.950 . S
C819 C810 1.390 . S
C819 H812 0.950 . S
C819 C816 1.387 . S
C820 C821 1.387 . S
C820 H824 0.950 . S
C820 C829 1.390 . S
C821 C820 1.387 . S
C821 C823 1.387 . S
H822 C829 0.950 . S
C823 C821 1.387 . S
C823 C825 1.390 . S
C823 H827 0.950 . S
H824 C820 0.950 . S
C825 C823 1.390 . S
C825 C826 1.387 . S
C825 H828 0.950 . S
C826 C825 1.387 . S
C826 C829 1.387 . S
H827 C823 0.950 . S
H828 C825 0.950 . S
C829 C820 1.390 . S
C829 H822 0.950 . S
C829 C826 1.387 . S
C830 C831 1.387 . S
C830 H834 0.950 . S
C830 C839 1.390 . S
C831 C830 1.387 . S
C831 C833 1.387 . S
H832 C839 0.950 . S
C833 C831 1.387 . S
C833 C835 1.390 . S
C833 H837 0.950 . S
H834 C830 0.950 . S
C835 C833 1.390 . S
C835 C836 1.387 . S
C835 H838 0.950 . S
C836 C835 1.387 . S
C836 C839 1.387 . S
H837 C833 0.950 . S
H838 C835 0.950 . S
C839 C830 1.390 . S
C839 H832 0.950 . S
C839 C836 1.387 . S
C840 C841 1.387 . S
C840 H844 0.950 . S
C840 C849 1.390 . S
C841 C840 1.387 . S
C841 C843 1.387 . S
H842 C849 0.950 . S
C843 C841 1.387 . S
C843 C845 1.390 . S
C843 H847 0.950 . S
H844 C840 0.950 . S
C845 C843 1.390 . S
C845 C846 1.387 . S
C845 H848 0.950 . S
C846 C845 1.387 . S
C846 C849 1.387 . S
H847 C843 0.950 . S
H848 C845 0.950 . S
C849 C840 1.390 . S
C849 H842 0.950 . S
C849 C846 1.387 . S
C850 C851 1.387 . S
C850 H854 0.950 . S
C850 C859 1.390 . S
C851 C850 1.387 . S
C851 C853 1.387 . S
H852 C859 0.950 . S
C853 C851 1.387 . S
C853 C855 1.390 . S
C853 H857 0.950 . S
H854 C850 0.950 . S
C855 C853 1.390 . S
C855 C856 1.387 . S
C855 H858 0.950 . S
C856 C855 1.387 . S
C856 C859 1.387 . S
H857 C853 0.950 . S
H858 C855 0.950 . S
C859 C850 1.390 . S
C859 H852 0.950 . S
C859 C856 1.387 . S
C860 C861 1.387 . S
C860 H864 0.950 . S
C860 C869 1.390 . S
C861 C860 1.387 . S
C861 C863 1.387 . S
H862 C869 0.950 . S
C863 C861 1.387 . S
C863 C865 1.390 . S
C863 H867 0.950 . S
H864 C860 0.950 . S
C865 C863 1.390 . S
C865 C866 1.387 . S
C865 H868 0.950 . S
C866 C865 1.387 . S
C866 C869 1.387 . S
H867 C863 0.950 . S
H868 C865 0.950 . S
C869 C860 1.390 . S
C869 H862 0.950 . S
C869 C866 1.387 . S
C870 C871 1.387 . S
C870 H874 0.950 . S
C870 C879 1.390 . S
C871 C870 1.387 . S
C871 C873 1.387 . S
H872 C879 0.950 . S
C873 C871 1.387 . S
C873 C875 1.390 . S
C873 H877 0.950 . S
H874 C870 0.950 . S
C875 C873 1.390 . S
C875 C876 1.387 . S
C875 H878 0.950 . S
C876 C875 1.387 . S
C876 C879 1.387 . S
H877 C873 0.950 . S
H878 C875 0.950 . S
C879 C870 1.390 . S
C879 H872 0.950 . S
C879 C876 1.387 . S
C880 C881 1.387 1_545 S
C880 H884 0.950 . S
C880 C889 1.390 . S
C881 C880 1.387 1_565 S
C881 C883 1.387 1_565 S
H882 C889 0.950 . S
C883 C881 1.387 1_545 S
C883 C885 1.390 . S
C883 H887 0.950 1_545 S
H884 C880 0.950 . S
C885 C883 1.390 . S
C885 C886 1.387 . S
C885 H888 0.950 . S
C886 C885 1.387 . S
C886 C889 1.387 . S
H887 C883 0.950 1_565 S
H888 C885 0.950 . S
C889 C880 1.390 . S
C889 H882 0.950 . S
C889 C886 1.387 . S
C890 C891 1.387 . S
C890 H894 0.950 . S
C890 C899 1.390 1_455 S
C891 C890 1.387 . S
C891 C893 1.387 . S
H892 C899 0.950 . S
C893 C891 1.387 . S
C893 C895 1.390 1_455 S
C893 H897 0.950 . S
H894 C890 0.950 . S
C895 C893 1.390 1_655 S
C895 C896 1.387 . S
C895 H898 0.950 . S
C896 C895 1.387 . S
C896 C899 1.387 . S
H897 C893 0.950 . S
H898 C895 0.950 . S
C899 C890 1.390 1_655 S
C899 H892 0.950 . S
C899 C896 1.387 . S
C900 C901 1.387 . S
C900 H904 0.950 . S
C900 C909 1.390 1_554 S
C901 C900 1.387 . S
C901 C903 1.387 . S
H902 C909 0.950 . S
C903 C901 1.387 . S
C903 C905 1.390 1_554 S
C903 H907 0.950 . S
H904 C900 0.950 . S
C905 C903 1.390 1_556 S
C905 C906 1.387 . S
C905 H908 0.950 . S
C906 C905 1.387 . S
C906 C909 1.387 . S
H907 C903 0.950 . S
H908 C905 0.950 . S
C909 C900 1.390 1_556 S
C909 H902 0.950 . S
C909 C906 1.387 . S
C910 C911 1.387 1_655 S
C910 H914 0.950 . S
C910 C919 1.390 1_556 S
C911 C910 1.387 1_455 S
C911 C913 1.387 . S
H912 C919 0.950 . S
C913 C911 1.387 . S
C913 C915 1.390 1_556 S
C913 H917 0.950 . S
H914 C910 0.950 . S
C915 C913 1.390 1_554 S
C915 C916 1.387 . S
C915 H918 0.950 . S
C916 C915 1.387 . S
C916 C919 1.387 1_455 S
H917 C913 0.950 . S
H918 C915 0.950 . S
C919 C910 1.390 1_554 S
C919 H912 0.950 . S
C919 C916 1.387 1_655 S
C920 C921 1.387 . S
C920 H924 0.950 . S
C920 C929 1.390 1_556 S
C921 C920 1.387 . S
C921 C923 1.387 . S
H922 C929 0.950 . S
C923 C921 1.387 . S
C923 C925 1.390 1_556 S
C923 H927 0.950 . S
H924 C920 0.950 . S
C925 C923 1.390 1_554 S
C925 C926 1.387 . S
C925 H928 0.950 . S
C926 C925 1.387 . S
C926 C929 1.387 . S
H927 C923 0.950 . S
H928 C925 0.950 . S
C929 C920 1.390 1_554 S
C929 H922 0.950 . S
C929 C926 1.387 . S
C930 C931 1.387 . S
C930 H934 0.950 . S
C930 C939 1.390 . S
C931 C930 1.387 . S
C931 C933 1.387 . S
H932 C939 0.950 . S
C933 C931 1.387 . S
C933 C935 1.390 . S
C933 H937 0.950 . S
H934 C930 0.950 . S
C935 C933 1.390 . S
C935 C936 1.387 . S
C935 H938 0.950 . S
C936 C935 1.387 . S
C936 C939 1.387 . S
H937 C933 0.950 . S
H938 C935 0.950 . S
C939 C930 1.390 . S
C939 H932 0.950 . S
C939 C936 1.387 . S
C940 C941 1.387 . S
C940 H944 0.950 . S
C940 C949 1.390 . S
C941 C940 1.387 . S
C941 C943 1.387 . S
H942 C949 0.950 . S
C943 C941 1.387 . S
C943 C945 1.390 . S
C943 H947 0.950 . S
H944 C940 0.950 . S
C945 C943 1.390 . S
C945 C946 1.387 . S
C945 H948 0.950 . S
C946 C945 1.387 . S
C946 C949 1.387 . S
H947 C943 0.950 . S
H948 C945 0.950 . S
C949 C940 1.390 . S
C949 H942 0.950 . S
C949 C946 1.387 . S
C950 C951 1.387 . S
C950 H954 0.950 . S
C950 C959 1.390 . S
C951 C950 1.387 . S
C951 C953 1.387 . S
H952 C959 0.950 . S
C953 C951 1.387 . S
C953 C955 1.390 . S
C953 H957 0.950 . S
H954 C950 0.950 . S
C955 C953 1.390 . S
C955 C956 1.387 . S
C955 H958 0.950 . S
C956 C955 1.387 . S
C956 C959 1.387 . S
H957 C953 0.950 . S
H958 C955 0.950 . S
C959 C950 1.390 . S
C959 H952 0.950 . S
C959 C956 1.387 . S
C960 C961 1.387 . S
C960 H964 0.950 . S
C960 C969 1.390 . S
C961 C960 1.387 . S
C961 C963 1.387 . S
H962 C969 0.950 . S
C963 C961 1.387 . S
C963 C965 1.390 . S
C963 H967 0.950 . S
H964 C960 0.950 . S
C965 C963 1.390 . S
C965 C966 1.387 . S
C965 H968 0.950 . S
C966 C965 1.387 . S
C966 C969 1.387 . S
H967 C963 0.950 . S
H968 C965 0.950 . S
C969 C960 1.390 . S
C969 H962 0.950 . S
C969 C966 1.387 . S
C970 C971 1.387 . S
C970 H974 0.950 . S
C970 C979 1.390 . S
C971 C970 1.387 . S
C971 C973 1.387 . S
H972 C979 0.950 . S
C973 C971 1.387 . S
C973 C975 1.390 . S
C973 H977 0.950 . S
H974 C970 0.950 . S
C975 C973 1.390 . S
C975 C976 1.387 . S
C975 H978 0.950 . S
C976 C975 1.387 . S
C976 C979 1.387 . S
H977 C973 0.950 . S
H978 C975 0.950 . S
C979 C970 1.390 . S
C979 H972 0.950 . S
C979 C976 1.387 . S
C980 C981 1.387 . S
C980 H984 0.950 . S
C980 C989 1.390 . S
C981 C980 1.387 . S
C981 C983 1.387 . S
H982 C989 0.950 . S
C983 C981 1.387 . S
C983 C985 1.390 . S
C983 H987 0.950 . S
H984 C980 0.950 . S
C985 C983 1.390 . S
C985 C986 1.387 . S
C985 H988 0.950 . S
C986 C985 1.387 . S
C986 C989 1.387 . S
H987 C983 0.950 . S
H988 C985 0.950 . S
C989 C980 1.390 . S
C989 H982 0.950 . S
C989 C986 1.387 . S
C990 C991 1.387 . S
C990 H994 0.950 . S
C990 C999 1.390 . S
C991 C990 1.387 . S
C991 C993 1.387 . S
H992 C999 0.950 1_545 S
C993 C991 1.387 . S
C993 C995 1.390 . S
C993 H997 0.950 . S
H994 C990 0.950 . S
C995 C993 1.390 . S
C995 C996 1.387 . S
C995 H998 0.950 . S
C996 C995 1.387 . S
C996 C999 1.387 . S
H997 C993 0.950 . S
H998 C995 0.950 . S
C999 C990 1.390 . S
C999 H992 0.950 1_565 S
C999 C996 1.387 . S
C1000 C1001 1.387 . S
C1000 H1004 0.950 . S
C1000 C1009 1.390 . S
C1001 C1000 1.387 . S
C1001 C1003 1.387 . S
H1002 C1009 0.950 . S
C1003 C1001 1.387 . S
C1003 C1005 1.390 . S
C1003 H1007 0.950 . S
H1004 C1000 0.950 . S
C1005 C1003 1.390 . S
C1005 C1006 1.387 . S
C1005 H1008 0.950 . S
C1006 C1005 1.387 . S
C1006 C1009 1.387 . S
H1007 C1003 0.950 . S
H1008 C1005 0.950 . S
C1009 C1000 1.390 . S
C1009 H1002 0.950 . S
C1009 C1006 1.387 . S
C1010 C1011 1.387 . S
C1010 H1014 0.950 . S
C1010 C1019 1.390 . S
C1011 C1010 1.387 . S
C1011 C1013 1.387 . S
H1012 C1019 0.950 . S
C1013 C1011 1.387 . S
C1013 C1015 1.390 . S
C1013 H1017 0.950 . S
H1014 C1010 0.950 . S
C1015 C1013 1.390 . S
C1015 C1016 1.387 . S
C1015 H1018 0.950 . S
C1016 C1015 1.387 . S
C1016 C1019 1.387 . S
H1017 C1013 0.950 . S
H1018 C1015 0.950 . S
C1019 C1010 1.390 . S
C1019 H1012 0.950 . S
C1019 C1016 1.387 . S
C1020 C1021 1.387 . S
C1020 H1024 0.950 . S
C1020 C1029 1.390 . S
C1021 C1020 1.387 . S
C1021 C1023 1.387 . S
H1022 C1029 0.950 . S
C1023 C1021 1.387 . S
C1023 C1025 1.390 . S
C1023 H1027 0.950 1_655 S
H1024 C1020 0.950 . S
C1025 C1023 1.390 . S
C1025 C1026 1.387 . S
C1025 H1028 0.950 . S
C1026 C1025 1.387 . S
C1026 C1029 1.387 . S
H1027 C1023 0.950 1_455 S
H1028 C1025 0.950 . S
C1029 C1020 1.390 . S
C1029 H1022 0.950 . S
C1029 C1026 1.387 . S
C1030 C1031 1.387 . S
C1030 H1034 0.950 . S
C1030 C1039 1.390 . S
C1031 C1030 1.387 . S
C1031 C1033 1.387 . S
H1032 C1039 0.950 . S
C1033 C1031 1.387 . S
C1033 C1035 1.390 . S
C1033 H1037 0.950 . S
H1034 C1030 0.950 . S
C1035 C1033 1.390 . S
C1035 C1036 1.387 . S
C1035 H1038 0.950 . S
C1036 C1035 1.387 . S
C1036 C1039 1.387 . S
H1037 C1033 0.950 . S
H1038 C1035 0.950 . S
C1039 C1030 1.390 . S
C1039 H1032 0.950 . S
C1039 C1036 1.387 . S
C1040 C1041 1.387 . S
C1040 H1044 0.950 . S
C1040 C1049 1.390 . S
C1041 C1040 1.387 . S
C1041 C1043 1.387 . S
H1042 C1049 0.950 . S
C1043 C1041 1.387 . S
C1043 C1045 1.390 . S
C1043 H1047 0.950 . S
H1044 C1040 0.950 . S
C1045 C1043 1.390 . S
C1045 C1046 1.387 . S
C1045 H1048 0.950 . S
C1046 C1045 1.387 . S
C1046 C1049 1.387 . S
H1047 C1043 0.950 . S
H1048 C1045 0.950 . S
C1049 C1040 1.390 . S
C1049 H1042 0.950 . S
C1049 C1046 1.387 . S
C1050 C1051 1.387 1_455 S
C1050 H1054 0.950 1_455 S
C1050 C1059 1.390 . S
C1051 C1050 1.387 1_655 S
C1051 C1053 1.387 . S
H1052 C1059 0.950 . S
C1053 C1051 1.387 . S
C1053 C1055 1.390 1_655 S
C1053 H1057 0.950 . S
H1054 C1050 0.950 1_655 S
C1055 C1053 1.390 1_455 S
C1055 C1056 1.387 . S
C1055 H1058 0.950 . S
C1056 C1055 1.387 . S
C1056 C1059 1.387 . S
H1057 C1053 0.950 . S
H1058 C1055 0.950 . S
C1059 C1050 1.390 . S
C1059 H1052 0.950 . S
C1059 C1056 1.387 . S
C1060 C1061 1.387 . S
C1060 H1064 0.950 . S
C1060 C1069 1.390 . S
C1061 C1060 1.387 . S
C1061 C1063 1.387 . S
H1062 C1069 0.950 . S
C1063 C1061 1.387 . S
C1063 C1065 1.390 . S
C1063 H1067 0.950 . S
H1064 C1060 0.950 . S
C1065 C1063 1.390 . S
C1065 C1066 1.387 . S
C1065 H1068 0.950 . S
C1066 C1065 1.387 . S
C1066 C1069 1.387 . S
H1067 C1063 0.950 . S
H1068 C1065 0.950 . S
C1069 C1060 1.390 . S
C1069 H1062 0.950 . S
C1069 C1066 1.387 . S
C1070 C1071 1.387 . S
C1070 H1074 0.950 . S
C1070 C1079 1.390 1_565 S
C1071 C1070 1.387 . S
C1071 C1073 1.387 . S
H1072 C1079 0.950 . S
C1073 C1071 1.387 . S
C1073 C1075 1.390 1_565 S
C1073 H1077 0.950 . S
H1074 C1070 0.950 . S
C1075 C1073 1.390 1_545 S
C1075 C1076 1.387 . S
C1075 H1078 0.950 . S
C1076 C1075 1.387 . S
C1076 C1079 1.387 . S
H1077 C1073 0.950 . S
H1078 C1075 0.950 . S
C1079 C1070 1.390 1_545 S
C1079 H1072 0.950 . S
C1079 C1076 1.387 . S
C1080 C1081 1.387 . S
C1080 H1084 0.950 . S
C1080 C1089 1.390 . S
C1081 C1080 1.387 . S
C1081 C1083 1.387 . S
H1082 C1089 0.950 . S
C1083 C1081 1.387 . S
C1083 C1085 1.390 . S
C1083 H1087 0.950 . S
H1084 C1080 0.950 . S
C1085 C1083 1.390 . S
C1085 C1086 1.387 . S
C1085 H1088 0.950 . S
C1086 C1085 1.387 . S
C1086 C1089 1.387 . S
H1087 C1083 0.950 . S
H1088 C1085 0.950 . S
C1089 C1080 1.390 . S
C1089 H1082 0.950 . S
C1089 C1086 1.387 . S
C1090 C1091 1.387 . S
C1090 H1094 0.950 . S
C1090 C1099 1.390 . S
C1091 C1090 1.387 . S
C1091 C1093 1.387 . S
H1092 C1099 0.950 . S
C1093 C1091 1.387 . S
C1093 C1095 1.390 . S
C1093 H1097 0.950 . S
H1094 C1090 0.950 . S
C1095 C1093 1.390 . S
C1095 C1096 1.387 . S
C1095 H1098 0.950 . S
C1096 C1095 1.387 . S
C1096 C1099 1.387 . S
H1097 C1093 0.950 . S
H1098 C1095 0.950 . S
C1099 C1090 1.390 . S
C1099 H1092 0.950 . S
C1099 C1096 1.387 . S
C1100 C1101 1.387 . S
C1100 H1104 0.950 . S
C1100 C1109 1.390 . S
C1101 C1100 1.387 . S
C1101 C1103 1.387 . S
H1102 C1109 0.950 . S
C1103 C1101 1.387 . S
C1103 C1105 1.390 . S
C1103 H1107 0.950 . S
H1104 C1100 0.950 . S
C1105 C1103 1.390 . S
C1105 C1106 1.387 . S
C1105 H1108 0.950 . S
C1106 C1105 1.387 . S
C1106 C1109 1.387 . S
H1107 C1103 0.950 . S
H1108 C1105 0.950 . S
C1109 C1100 1.390 . S
C1109 H1102 0.950 . S
C1109 C1106 1.387 . S
C1110 C1111 1.387 . S
C1110 H1114 0.950 . S
C1110 C1119 1.390 . S
C1111 C1110 1.387 . S
C1111 C1113 1.387 . S
H1112 C1119 0.950 . S
C1113 C1111 1.387 . S
C1113 C1115 1.390 . S
C1113 H1117 0.950 . S
H1114 C1110 0.950 . S
C1115 C1113 1.390 . S
C1115 C1116 1.387 . S
C1115 H1118 0.950 . S
C1116 C1115 1.387 . S
C1116 C1119 1.387 . S
H1117 C1113 0.950 . S
H1118 C1115 0.950 . S
C1119 C1110 1.390 . S
C1119 H1112 0.950 . S
C1119 C1116 1.387 . S
C1120 C1121 1.387 . S
C1120 H1124 0.950 . S
C1120 C1129 1.390 . S
C1121 C1120 1.387 . S
C1121 C1123 1.387 . S
H1122 C1129 0.950 . S
C1123 C1121 1.387 . S
C1123 C1125 1.390 . S
C1123 H1127 0.950 . S
H1124 C1120 0.950 . S
C1125 C1123 1.390 . S
C1125 C1126 1.387 . S
C1125 H1128 0.950 . S
C1126 C1125 1.387 . S
C1126 C1129 1.387 . S
H1127 C1123 0.950 . S
H1128 C1125 0.950 . S
C1129 C1120 1.390 . S
C1129 H1122 0.950 . S
C1129 C1126 1.387 . S
C1130 C1131 1.387 . S
C1130 H1134 0.950 . S
C1130 C1139 1.390 . S
C1131 C1130 1.387 . S
C1131 C1133 1.387 . S
H1132 C1139 0.950 . S
C1133 C1131 1.387 . S
C1133 C1135 1.390 . S
C1133 H1137 0.950 . S
H1134 C1130 0.950 . S
C1135 C1133 1.390 . S
C1135 C1136 1.387 . S
C1135 H1138 0.950 . S
C1136 C1135 1.387 . S
C1136 C1139 1.387 . S
H1137 C1133 0.950 . S
H1138 C1135 0.950 . S
C1139 C1130 1.390 . S
C1139 H1132 0.950 . S
C1139 C1136 1.387 . S
C1140 C1141 1.387 . S
C1140 H1144 0.950 . S
C1140 C1149 1.390 . S
C1141 C1140 1.387 . S
C1141 C1143 1.387 . S
H1142 C1149 0.950 . S
C1143 C1141 1.387 . S
C1143 C1145 1.390 . S
C1143 H1147 0.950 . S
H1144 C1140 0.950 . S
C1145 C1143 1.390 . S
C1145 C1146 1.387 . S
C1145 H1148 0.950 . S
C1146 C1145 1.387 . S
C1146 C1149 1.387 . S
H1147 C1143 0.950 . S
H1148 C1145 0.950 . S
C1149 C1140 1.390 . S
C1149 H1142 0.950 . S
C1149 C1146 1.387 . S
C1150 C1151 1.387 . S
C1150 H1154 0.950 . S
C1150 C1159 1.390 . S
C1151 C1150 1.387 . S
C1151 C1153 1.387 . S
H1152 C1159 0.950 . S
C1153 C1151 1.387 . S
C1153 C1155 1.390 . S
C1153 H1157 0.950 . S
H1154 C1150 0.950 . S
C1155 C1153 1.390 . S
C1155 C1156 1.387 . S
C1155 H1158 0.950 . S
C1156 C1155 1.387 . S
C1156 C1159 1.387 . S
H1157 C1153 0.950 . S
H1158 C1155 0.950 . S
C1159 C1150 1.390 . S
C1159 H1152 0.950 . S
C1159 C1156 1.387 . S
C1160 C1161 1.387 . S
C1160 H1164 0.950 . S
C1160 C1169 1.390 . S
C1161 C1160 1.387 . S
C1161 C1163 1.387 . S
H1162 C1169 0.950 . S
C1163 C1161 1.387 . S
C1163 C1165 1.390 . S
C1163 H1167 0.950 . S
H1164 C1160 0.950 . S
C1165 C1163 1.390 . S
C1165 C1166 1.387 . S
C1165 H1168 0.950 . S
C1166 C1165 1.387 . S
C1166 C1169 1.387 . S
H1167 C1163 0.950 . S
H1168 C1165 0.950 . S
C1169 C1160 1.390 . S
C1169 H1162 0.950 . S
C1169 C1166 1.387 . S
C1170 C1171 1.387 . S
C1170 H1174 0.950 . S
C1170 C1179 1.390 . S
C1171 C1170 1.387 . S
C1171 C1173 1.387 . S
H1172 C1179 0.950 . S
C1173 C1171 1.387 . S
C1173 C1175 1.390 . S
C1173 H1177 0.950 . S
H1174 C1170 0.950 . S
C1175 C1173 1.390 . S
C1175 C1176 1.387 . S
C1175 H1178 0.950 . S
C1176 C1175 1.387 . S
C1176 C1179 1.387 . S
H1177 C1173 0.950 . S
H1178 C1175 0.950 . S
C1179 C1170 1.390 . S
C1179 H1172 0.950 . S
C1179 C1176 1.387 . S
C1180 C1181 1.387 1_545 S
C1180 H1184 0.950 . S
C1180 C1189 1.390 . S
C1181 C1180 1.387 1_565 S
C1181 C1183 1.383 1_565 S
H1182 C1189 0.950 . S
C1183 C1181 1.383 1_545 S
C1183 C1185 1.407 . S
C1183 H1187 0.938 1_545 S
H1184 C1180 0.950 . S
C1185 C1183 1.407 . S
C1185 C1186 1.387 . S
C1185 H1188 0.950 . S
C1186 C1185 1.387 . S
C1186 C1189 1.387 . S
H1187 C1183 0.938 1_565 S
H1188 C1185 0.950 . S
C1189 C1180 1.390 . S
C1189 H1182 0.950 . S
C1189 C1186 1.387 . S
C1190 C1191 1.387 . S
C1190 H1194 0.950 . S
C1190 C1199 1.390 . S
C1191 C1190 1.387 . S
C1191 C1193 1.387 1_655 S
H1192 C1199 0.950 . S
C1193 C1191 1.387 1_455 S
C1193 C1195 1.390 . S
C1193 H1197 0.950 . S
H1194 C1190 0.950 . S
C1195 C1193 1.390 . S
C1195 C1196 1.387 . S
C1195 H1198 0.950 . S
C1196 C1195 1.387 . S
C1196 C1199 1.387 1_455 S
H1197 C1193 0.950 . S
H1198 C1195 0.950 . S
C1199 C1190 1.390 . S
C1199 H1192 0.950 . S
C1199 C1196 1.387 1_655 S
C1200 C1201 1.387 . S
C1200 H1204 0.950 . S
C1200 C1209 1.390 . S
C1201 C1200 1.387 . S
C1201 C1203 1.387 . S
H1202 C1209 0.950 . S
C1203 C1201 1.387 . S
C1203 C1205 1.390 . S
C1203 H1207 0.950 . S
H1204 C1200 0.950 . S
C1205 C1203 1.390 . S
C1205 C1206 1.387 . S
C1205 H1208 0.950 . S
C1206 C1205 1.387 . S
C1206 C1209 1.387 . S
H1207 C1203 0.950 . S
H1208 C1205 0.950 . S
C1209 C1200 1.390 . S
C1209 H1202 0.950 . S
C1209 C1206 1.387 . S
C1210 C1211 1.387 . S
C1210 H1214 0.950 . S
C1210 C1219 1.390 1_545 S
C1211 C1210 1.387 . S
C1211 C1213 1.387 . S
H1212 C1219 0.950 . S
C1213 C1211 1.387 . S
C1213 C1215 1.390 . S
C1213 H1217 0.950 . S
H1214 C1210 0.950 . S
C1215 C1213 1.390 . S
C1215 C1216 1.387 1_545 S
C1215 H1218 0.950 . S
C1216 C1215 1.387 1_565 S
C1216 C1219 1.387 . S
H1217 C1213 0.950 . S
H1218 C1215 0.950 . S
C1219 C1210 1.390 1_565 S
C1219 H1212 0.950 . S
C1219 C1216 1.387 . S
C1220 C1221 1.387 . S
C1220 H1224 0.950 . S
C1220 C1229 1.390 . S
C1221 C1220 1.387 . S
C1221 C1223 1.387 . S
H1222 C1229 0.950 . S
C1223 C1221 1.387 . S
C1223 C1225 1.390 1_455 S
C1223 H1227 0.950 . S
H1224 C1220 0.950 . S
C1225 C1223 1.390 1_655 S
C1225 C1226 1.387 . S
C1225 H1228 0.950 . S
C1226 C1225 1.387 . S
C1226 C1229 1.387 1_655 S
H1227 C1223 0.950 . S
H1228 C1225 0.950 . S
C1229 C1220 1.390 . S
C1229 H1222 0.950 . S
C1229 C1226 1.387 1_455 S
C1230 C1231 1.387 . S
C1230 H1234 0.950 . S
C1230 C1239 1.390 . S
C1231 C1230 1.387 . S
C1231 C1233 1.387 . S
H1232 C1239 0.950 . S
C1233 C1231 1.387 . S
C1233 C1235 1.390 . S
C1233 H1237 0.950 . S
H1234 C1230 0.950 . S
C1235 C1233 1.390 . S
C1235 C1236 1.387 . S
C1235 H1238 0.950 . S
C1236 C1235 1.387 . S
C1236 C1239 1.387 . S
H1237 C1233 0.950 . S
H1238 C1235 0.950 . S
C1239 C1230 1.390 . S
C1239 H1232 0.950 . S
C1239 C1236 1.387 . S
C1240 C1241 1.387 . S
C1240 H1244 0.950 . S
C1240 C1249 1.390 . S
C1241 C1240 1.387 . S
C1241 C1243 1.387 . S
H1242 C1249 0.950 . S
C1243 C1241 1.387 . S
C1243 C1245 1.390 . S
C1243 H1247 0.950 . S
H1244 C1240 0.950 . S
C1245 C1243 1.390 . S
C1245 C1246 1.387 . S
C1245 H1248 0.950 . S
C1246 C1245 1.387 . S
C1246 C1249 1.387 . S
H1247 C1243 0.950 . S
H1248 C1245 0.950 . S
C1249 C1240 1.390 . S
C1249 H1242 0.950 . S
C1249 C1246 1.387 . S
C1250 C1251 1.387 . S
C1250 H1254 0.950 . S
C1250 C1259 1.390 . S
C1251 C1250 1.387 . S
C1251 C1253 1.387 . S
H1252 C1259 0.950 . S
C1253 C1251 1.387 . S
C1253 C1255 1.390 . S
C1253 H1257 0.950 . S
H1254 C1250 0.950 . S
C1255 C1253 1.390 . S
C1255 C1256 1.387 . S
C1255 H1258 0.950 . S
C1256 C1255 1.387 . S
C1256 C1259 1.387 . S
H1257 C1253 0.950 . S
H1258 C1255 0.950 . S
C1259 C1250 1.390 . S
C1259 H1252 0.950 . S
C1259 C1256 1.387 . S
C721 C9 1.273 . S
C726 C85 1.320 . S
C731 C5 1.322 . S
C736 C49 1.277 . S
C741 C45 1.322 . S
C746 C89 1.277 . S
C751 C129 1.273 . S
C756 C165 1.320 . S
C761 C205 1.322 . S
C766 C169 1.276 . S
C771 C209 1.276 . S
C776 C125 1.322 . S
C781 C325 1.320 . S
C786 C249 1.273 . S
C791 C245 1.320 . S
C796 C289 1.273 . S
C801 C329 1.277 . S
C806 C285 1.322 . S
C811 C405 1.321 . S
C816 C369 1.275 . S
C821 C409 1.272 . S
C826 C445 1.319 . S
C831 C365 1.321 . S
C836 C449 1.276 . S
C841 C489 1.277 . S
C846 C565 1.322 . S
C851 C485 1.322 . S
C856 C529 1.277 . S
C861 C525 1.321 . S
C866 C569 1.275 . S
C871 C645 1.322 . S
C876 C609 1.277 . S
C881 C685 1.321 . S
C886 C649 1.276 . S
C891 C605 1.322 . S
C896 C689 1.276 . S
C901 C8 1.684 . S
C906 C208 1.684 . S
C911 C128 1.684 . S
C916 C48 1.682 . S
C921 C168 1.682 . S
C926 C88 1.685 . S
C931 C248 1.685 . S
C936 C448 1.684 . S
C941 C288 1.684 . S
C946 C368 1.685 . S
C951 C408 1.685 . S
C956 C328 1.683 . S
C961 C488 1.683 . S
C966 C688 1.683 . S
C971 C608 1.682 . S
C976 C528 1.685 . S
C981 C648 1.682 . S
C986 C568 1.683 . S
C991 C418 2.496 . S
C996 C18 2.496 1_565 S
C1001 C58 2.495 . S
C1006 C458 2.496 . S
C1011 C378 2.496 . S
C1016 C98 2.496 . S
C1021 C138 2.495 1_655 S
C1026 C578 2.495 . S
C1031 C178 2.496 . S
C1036 C498 2.496 . S
C1041 C538 2.496 . S
C1046 C218 2.495 . S
C1051 C658 2.496 . S
C1056 C258 2.496 . S
C1061 C298 2.496 . S
C1066 C698 2.496 . S
C1071 C338 2.496 . S
C1076 C618 2.496 . S
C1081 C95 1.765 . S
C1086 C19 1.775 . S
C1091 C15 1.764 . S
C1096 C59 1.775 . S
C1101 C99 1.774 . S
C1106 C55 1.763 . S
C1111 C175 1.762 . S
C1116 C139 1.773 . S
C1121 C215 1.763 . S
C1126 C179 1.773 . S
C1131 C219 1.774 . S
C1136 C135 1.764 . S
C1141 C335 1.765 . S
C1146 C259 1.776 . S
C1151 C299 1.774 . S
C1156 C255 1.763 . S
C1161 C295 1.762 . S
C1166 C339 1.773 . S
C1171 C379 1.775 . S
C1176 C415 1.765 . S
C1181 C419 1.774 . S
C1186 C455 1.763 . S
C1191 C375 1.763 . S
C1196 C459 1.775 . S
C1201 C499 1.775 . S
C1206 C575 1.764 . S
C1211 C539 1.774 . S
C1216 C495 1.763 . S
C1221 C535 1.765 . S
C1226 C579 1.775 . S
C1231 C619 1.773 . S
C1236 C655 1.763 . S
C1241 C659 1.774 . S
C1246 C695 1.764 . S
C1251 C615 1.765 . S
C1256 C699 1.775 . S
