# Generated by pormake.
# Topology ofo, (3)-cn, num edge types: 1
# Building blocks:
#     Node 0, Type 0, BuildingBlock: OLANEW_clean_sbu_2, # of connection points: 3
#     Node 1, Type 0, BuildingBlock: OLANEW_clean_sbu_2, # of connection points: 3
#     Node 2, Type 0, BuildingBlock: OLANEW_clean_sbu_2, # of connection points: 3
#     Node 3, Type 0, BuildingBlock: OLANEW_clean_sbu_2, # of connection points: 3
#     Node 4, Type 0, BuildingBlock: OLANEW_clean_sbu_2, # of connection points: 3
#     Node 5, Type 0, BuildingBlock: OLANEW_clean_sbu_2, # of connection points: 3
#     Node 6, Type 0, BuildingBlock: OLANEW_clean_sbu_2, # of connection points: 3
#     Node 7, Type 0, BuildingBlock: OLANEW_clean_sbu_2, # of connection points: 3
#     Node 8, Type 0, BuildingBlock: OLANEW_clean_sbu_2, # of connection points: 3
#     Node 9, Type 0, BuildingBlock: OLANEW_clean_sbu_2, # of connection points: 3
#     Node 10, Type 0, BuildingBlock: OLANEW_clean_sbu_2, # of connection points: 3
#     Node 11, Type 0, BuildingBlock: OLANEW_clean_sbu_2, # of connection points: 3
#     Edge 12, Type (0, 0), BuildingBlock: FUNLAD_clean_linker_0, # of connection points: 2
#     Edge 13, Type (0, 0), BuildingBlock: FUNLAD_clean_linker_0, # of connection points: 2
#     Edge 14, Type (0, 0), BuildingBlock: FUNLAD_clean_linker_0, # of connection points: 2
#     Edge 15, Type (0, 0), BuildingBlock: FUNLAD_clean_linker_0, # of connection points: 2
#     Edge 16, Type (0, 0), BuildingBlock: FUNLAD_clean_linker_0, # of connection points: 2
#     Edge 17, Type (0, 0), BuildingBlock: FUNLAD_clean_linker_0, # of connection points: 2
#     Edge 18, Type (0, 0), BuildingBlock: FUNLAD_clean_linker_0, # of connection points: 2
#     Edge 19, Type (0, 0), BuildingBlock: FUNLAD_clean_linker_0, # of connection points: 2
#     Edge 20, Type (0, 0), BuildingBlock: FUNLAD_clean_linker_0, # of connection points: 2
#     Edge 21, Type (0, 0), BuildingBlock: FUNLAD_clean_linker_0, # of connection points: 2
#     Edge 22, Type (0, 0), BuildingBlock: FUNLAD_clean_linker_0, # of connection points: 2
#     Edge 23, Type (0, 0), BuildingBlock: FUNLAD_clean_linker_0, # of connection points: 2
#     Edge 24, Type (0, 0), BuildingBlock: FUNLAD_clean_linker_0, # of connection points: 2
#     Edge 25, Type (0, 0), BuildingBlock: FUNLAD_clean_linker_0, # of connection points: 2
#     Edge 26, Type (0, 0), BuildingBlock: FUNLAD_clean_linker_0, # of connection points: 2
#     Edge 27, Type (0, 0), BuildingBlock: FUNLAD_clean_linker_0, # of connection points: 2
#     Edge 28, Type (0, 0), BuildingBlock: FUNLAD_clean_linker_0, # of connection points: 2
#     Edge 29, Type (0, 0), BuildingBlock: FUNLAD_clean_linker_0, # of connection points: 2
# Relax obj value: 0.000
# Max RMSD: 0.050
# Mean RMSD: 0.050
data_MOF--net-ofo--node1-OLANEW_clean_sbu_2--edge1-FUNLAD_clean_linker_0
_symmetry_space_group_name_H-M    P1
_symmetry_Int_Tables_number       1
_symmetry_cell_setting            triclinic
loop_
_symmetry_equiv_pos_as_xyz
'x, y, z'
_cell_length_a     26.983872
_cell_length_b     26.992225
_cell_length_c     93.539861
_cell_angle_alpha  89.623176
_cell_angle_beta   90.232156
_cell_angle_gamma 119.49049
loop_
_atom_site_label
_atom_site_type_symbol
_atom_site_fract_x
_atom_site_fract_y
_atom_site_fract_z
_atom_type_partial_charge
O0 O 0.38546 0.15402 0.05086 0.0
Cd1 Cd 0.36836 0.23341 0.05575 0.0
O2 O 0.41682 0.15442 0.07265 0.0
Cd3 Cd 0.41021 0.22693 0.08067 0.0
O4 O 0.43003 0.29604 0.09569 0.0
C5 C 0.39406 0.29312 0.10487 0.0
O6 O 0.34238 0.24905 0.10472 0.0
C7 C 0.40489 0.13336 0.06015 0.0
C8 C 0.29091 0.2389 0.03674 0.0
O9 O 0.34429 0.26397 0.03392 0.0
O10 O 0.27411 0.21089 0.04851 0.0
O11 O 0.19345 0.43472 0.6888 0.0
Cd12 Cd 0.09749 0.41587 0.68258 0.0
O13 O 0.16972 0.43822 0.71091 0.0
Cd14 Cd 0.17869 0.45543 0.7339 0.0
O15 O 0.16707 0.47448 0.75594 0.0
C16 C 0.13853 0.49979 0.75799 0.0
O17 O 0.11782 0.51357 0.74687 0.0
C18 C 0.20712 0.44282 0.70194 0.0
C19 C 0.03295 0.32025 0.66572 0.0
O20 O 0.06609 0.36886 0.66003 0.0
O21 O 0.03142 0.31658 0.6794 0.0
O22 O 0.77853 0.20879 0.37804 0.0
Cd23 Cd 0.70395 0.11108 0.383 0.0
O24 O 0.78264 0.23453 0.40049 0.0
Cd25 Cd 0.71556 0.15362 0.40903 0.0
O26 O 0.65268 0.10419 0.42546 0.0
C27 C 0.60707 0.10703 0.42585 0.0
O28 O 0.59807 0.13607 0.41584 0.0
C29 C 0.80006 0.24674 0.38765 0.0
C30 C 0.70313 0.03451 0.36294 0.0
O31 O 0.67505 0.06077 0.3608 0.0
O32 O 0.73164 0.04445 0.37458 0.0
O33 O 0.55542 0.76166 0.02314 0.0
Cd34 Cd 0.56948 0.68105 0.01741 0.0
O35 O 0.54252 0.72952 0.04506 0.0
Cd36 Cd 0.51921 0.71726 0.06775 0.0
O37 O 0.49663 0.68104 0.08931 0.0
C38 C 0.48629 0.63005 0.09103 0.0
O39 O 0.48966 0.60231 0.07991 0.0
C40 C 0.54374 0.76576 0.03608 0.0
C41 C 0.67263 0.70756 0.00442 0.0
O42 O 0.62881 0.69749 -0.00308 0.0
O43 O 0.66804 0.70657 0.01807 0.0
O44 O 0.75076 0.59698 0.71906 0.0
Cd45 Cd 0.848 0.61891 0.72497 0.0
O46 O 0.72649 0.5958 0.74155 0.0
Cd47 Cd 0.80699 0.60916 0.75068 0.0
O48 O 0.86448 0.60167 0.76604 0.0
C49 C 0.88195 0.56627 0.76404 0.0
O50 O 0.86764 0.5365 0.75218 0.0
C51 C 0.71386 0.59122 0.72832 0.0
C52 C 0.92926 0.69642 0.70592 0.0
O53 O 0.90387 0.64278 0.70351 0.0
O54 O 0.91596 0.71346 0.71729 0.0
O55 O 0.2 0.77342 0.3716 0.0
Cd56 Cd 0.28477 0.86737 0.3738 0.0
O57 O 0.16224 0.78552 0.39115 0.0
Cd58 Cd 0.2389 0.86127 0.39848 0.0
O59 O 0.29617 0.89411 0.41688 0.0
C60 C 0.27183 0.88846 0.42886 0.0
O61 O 0.21641 0.86786 0.42906 0.0
C62 C 0.15857 0.75574 0.3803 0.0
C63 C 0.27596 0.95204 0.35847 0.0
O64 O 0.29667 0.92326 0.35269 0.0
O65 O 0.25903 0.9405 0.37147 0.0
O66 O 0.76473 0.56623 0.26571 0.0
Cd67 Cd 0.68727 0.58764 0.26233 0.0
O68 O 0.7625 0.5422 0.24319 0.0
Cd69 Cd 0.69277 0.55561 0.23595 0.0
O70 O 0.63009 0.54468 0.21957 0.0
C71 C 0.58072 0.50113 0.21991 0.0
O72 O 0.56695 0.46591 0.23083 0.0
C73 C 0.78382 0.54892 0.25565 0.0
C74 C 0.6919 0.66631 0.28227 0.0
O75 O 0.66556 0.61283 0.28505 0.0
O76 O 0.71603 0.68261 0.27005 0.0
O77 O 0.25684 0.78671 0.92958 0.0
Cd78 Cd 0.16182 0.7061 0.92519 0.0
O79 O 0.25851 0.82464 0.90858 0.0
Cd80 Cd 0.18014 0.75301 0.90038 0.0
O81 O 0.13611 0.6934 0.88301 0.0
C82 C 0.14009 0.64856 0.88193 0.0
O83 O 0.16673 0.63676 0.89203 0.0
C84 C 0.28192 0.82697 0.92057 0.0
C85 C 0.07611 0.71865 0.93844 0.0
O86 O 0.10008 0.69388 0.94486 0.0
O87 O 0.09289 0.73777 0.92577 0.0
O88 O 0.39613 0.17471 0.59834 0.0
Cd89 Cd 0.38231 0.07804 0.59886 0.0
O90 O 0.3696 0.16761 0.57581 0.0
Cd91 Cd 0.3704 0.08904 0.57087 0.0
O92 O 0.40221 0.05681 0.55388 0.0
C93 C 0.37398 0.04023 0.54231 0.0
O94 O 0.32422 0.03787 0.54154 0.0
C95 C 0.38478 0.1956 0.58741 0.0
C96 C 0.29326 0.00587 0.61699 0.0
O97 O 0.34418 0.03572 0.62172 0.0
O98 O 0.28438 0.01025 0.60369 0.0
O99 O 0.19977 0.43563 0.26948 0.0
Cd100 Cd 0.28759 0.43007 0.26864 0.0
O101 O 0.18475 0.41851 0.24643 0.0
Cd102 Cd 0.26627 0.42491 0.24084 0.0
O103 O 0.32777 0.45409 0.22328 0.0
C104 C 0.30961 0.42857 0.21144 0.0
O105 O 0.25812 0.38426 0.21095 0.0
C106 C 0.16869 0.42697 0.25849 0.0
C107 C 0.27902 0.33624 0.28369 0.0
O108 O 0.29614 0.38423 0.28986 0.0
O109 O 0.26564 0.33252 0.27042 0.0
O110 O 0.81162 0.23325 0.9292 0.0
Cd111 Cd 0.90858 0.31413 0.92912 0.0
O112 O 0.81002 0.22485 0.90578 0.0
Cd113 Cd 0.89027 0.30212 0.90101 0.0
O114 O 0.93178 0.37248 0.8857 0.0
C115 C 0.94701 0.36267 0.87369 0.0
O116 O 0.94208 0.31239 0.8715 0.0
C117 C 0.78612 0.20722 0.91787 0.0
C118 C -0.019 0.29681 0.94739 0.0
O119 O 0.95181 0.31923 0.95194 0.0
O120 O 0.97584 0.28244 0.9342 0.0
O121 O 0.5437 0.74276 0.58686 0.0
Cd122 Cd 0.56843 0.84023 0.58041 0.0
O123 O 0.55728 0.72355 0.56487 0.0
Cd124 Cd 0.57162 0.80306 0.55499 0.0
O125 O 0.55835 0.84708 0.53695 0.0
C126 C 0.51833 0.85905 0.53725 0.0
O127 O 0.48799 0.84846 0.54897 0.0
C128 C 0.54494 0.7083 0.57786 0.0
C129 C 0.65284 0.92046 0.59818 0.0
O130 O 0.59996 0.89879 0.6013 0.0
O131 O 0.66583 0.9041 0.58664 0.0
C132 C 0.37466 0.32863 0.12775 0.0
C133 C 0.41259 0.3346 0.11675 0.0
C134 C 0.3941 0.36295 0.13991 0.0
C135 C 0.45212 0.40376 0.14136 0.0
C136 C 0.48904 0.41222 0.12992 0.0
C137 C 0.46961 0.37802 0.11777 0.0
C138 C 0.47667 0.43659 0.15473 0.0
C139 C 0.45198 0.41968 0.16769 0.0
C140 C 0.48141 0.44594 0.18137 0.0
C141 C 0.46169 0.4137 0.19401 0.0
C142 C 0.49227 0.43306 0.20676 0.0
C143 C 0.54322 0.48537 0.20718 0.0
H144 H 0.5449 0.52812 0.17282 0.0
C145 C 0.56045 0.51983 0.19484 0.0
C146 C 0.52979 0.50049 0.18208 0.0
H147 H 0.59884 0.56095 0.19488 0.0
H148 H 0.33021 0.29628 0.12719 0.0
H149 H 0.36357 0.35667 0.14816 0.0
H150 H 0.53371 0.44395 0.1306 0.0
H151 H 0.49988 0.38434 0.10941 0.0
H152 H 0.51941 0.47257 0.15396 0.0
H153 H 0.41089 0.38137 0.16857 0.0
H154 H 0.42385 0.37211 0.19389 0.0
H155 H 0.47722 0.40579 0.21611 0.0
C156 C 0.14716 0.49585 0.78465 0.0
C157 C 0.12976 0.51481 0.77261 0.0
C158 C 0.14041 0.51164 0.79841 0.0
C159 C 0.11621 0.5469 0.8004 0.0
C160 C 0.09871 0.5656 0.78836 0.0
C161 C 0.10485 0.54933 0.77463 0.0
C162 C 0.1121 0.56819 0.81471 0.0
C163 C 0.1082 0.54036 0.82705 0.0
C164 C 0.10899 0.56423 0.8414 0.0
C165 C 0.12649 0.54438 0.85322 0.0
C166 C 0.1339 0.56986 0.86661 0.0
C167 C 0.12343 0.61553 0.86848 0.0
H168 H 0.07777 0.62159 0.83493 0.0
C169 C 0.10165 0.63246 0.85692 0.0
C170 C 0.09434 0.60703 0.84354 0.0
H171 H 0.09199 0.66672 0.85807 0.0
H172 H 0.16662 0.46932 0.78346 0.0
H173 H 0.15594 0.49763 0.80737 0.0
H174 H 0.08036 0.59314 0.78958 0.0
H175 H 0.09096 0.56469 0.7656 0.0
H176 H 0.11279 0.60869 0.81492 0.0
H177 H 0.10705 0.4996 0.82673 0.0
H178 H 0.13681 0.51059 0.85198 0.0
H179 H 0.14993 0.55516 0.87533 0.0
C180 C 0.58098 0.0592 0.44993 0.0
C181 C 0.5683 0.08442 0.43831 0.0
C182 C 0.54791 0.04406 0.46236 0.0
C183 C 0.50167 0.0543 0.46347 0.0
C184 C 0.48714 0.07631 0.45153 0.0
C185 C 0.52012 0.0914 0.43912 0.0
C186 C 0.46786 0.04346 0.4768 0.0
C187 C 0.48704 0.04014 0.48992 0.0
C188 C 0.45513 0.03409 0.50339 0.0
C189 C 0.48498 0.04757 0.51641 0.0
C190 C 0.45802 0.0469 0.5292 0.0
C191 C 0.40041 0.03261 0.52925 0.0
H192 H 0.3709 0.00257 0.494 0.0
C193 C 0.36957 0.01566 0.51639 0.0
C194 C 0.39645 0.01606 0.50361 0.0
H195 H 0.32485 0.00338 0.5161 0.0
H196 H 0.6173 0.05238 0.44957 0.0
H197 H 0.55911 0.02478 0.47105 0.0
H198 H 0.4511 0.0836 0.45194 0.0
H199 H 0.50868 0.11006 0.43032 0.0
H200 H 0.42727 0.04228 0.47573 0.0
H201 H 0.52945 0.04556 0.49106 0.0
H202 H 0.52986 0.06041 0.51665 0.0
H203 H 0.48295 0.05966 0.53894 0.0
C204 C 0.31849 0.42695 0.18488 0.0
C205 C 0.34185 0.45294 0.19803 0.0
C206 C 0.34458 0.45324 0.17202 0.0
C207 C 0.39531 0.50605 0.17199 0.0
C208 C 0.41962 0.53109 0.18517 0.0
C209 C 0.39341 0.50475 0.19806 0.0
C210 C 0.42211 0.53776 0.15854 0.0
C211 C 0.41054 0.51356 0.1455 0.0
C212 C 0.43367 0.54571 0.13193 0.0
C213 C 0.43456 0.51594 0.11978 0.0
C214 C 0.45257 0.54356 0.10659 0.0
C215 C 0.46939 0.60161 0.10518 0.0
H216 H 0.4494 0.62819 0.13956 0.0
C217 C 0.46871 0.63161 0.11733 0.0
C218 C 0.45103 0.60402 0.13057 0.0
H219 H 0.48117 0.67631 0.1166 0.0
H220 H 0.27876 0.38709 0.18445 0.0
H221 H 0.32337 0.43266 0.16221 0.0
H222 H 0.45867 0.57164 0.18552 0.0
H223 H 0.41268 0.52587 0.20801 0.0
H224 H 0.45291 0.58269 0.15952 0.0
H225 H 0.38374 0.46787 0.14456 0.0
H226 H 0.42072 0.4709 0.12044 0.0
H227 H 0.45239 0.51906 0.09744 0.0
C228 C 0.92365 0.58267 0.78873 0.0
C229 C 0.91171 0.55363 0.77565 0.0
C230 C 0.94509 0.56589 0.8003 0.0
C231 C 0.95453 0.51921 0.79907 0.0
C232 C 0.94622 0.49281 0.7857 0.0
C233 C 0.92492 0.50966 0.77413 0.0
C234 C 0.9705 0.49498 0.81146 0.0
C235 C 0.96017 0.50195 0.8252 0.0
C236 C 0.96628 0.47017 0.83757 0.0
C237 C 0.96104 0.48668 0.85146 0.0
C238 C 0.95826 0.45368 0.86334 0.0
C239 C 0.96032 0.40307 0.86159 0.0
H240 H 0.97577 0.40634 0.82556 0.0
C241 C 0.9692 0.38838 0.84783 0.0
C242 C 0.97196 0.42133 0.83595 0.0
H243 H 0.97133 0.34983 0.84611 0.0
H244 H 0.915 0.61747 0.79019 0.0
H245 H 0.95337 0.58926 0.81018 0.0
H246 H 0.95415 0.45747 0.78433 0.0
H247 H 0.91697 0.48682 0.76415 0.0
H248 H -0.01241 0.4672 0.80894 0.0
H249 H 0.94299 0.52977 0.82761 0.0
H250 H 0.9571 0.52429 0.8531 0.0
H251 H 0.95196 0.46658 0.8738 0.0
C252 C 0.45581 0.8887 0.52418 0.0
C253 C 0.50135 0.87739 0.52403 0.0
C254 C 0.43536 0.89945 0.51146 0.0
C255 C 0.45989 0.89883 0.49822 0.0
C256 C 0.50739 0.89061 0.4982 0.0
C257 C 0.52784 0.87987 0.51093 0.0
C258 C 0.4372 0.90565 0.48421 0.0
C259 C 0.38483 0.89963 0.48249 0.0
C260 C 0.35957 0.90259 0.4685 0.0
C261 C 0.30248 0.88999 0.46838 0.0
C262 C 0.27479 0.88759 0.45556 0.0
C263 C 0.30354 0.89791 0.44246 0.0
H264 H 0.43353 0.92692 0.45484 0.0
C265 C 0.36146 0.91333 0.44254 0.0
C266 C 0.38927 0.91568 0.4554 0.0
H267 H 0.38502 0.92212 0.43262 0.0
H268 H 0.43503 0.88806 0.53412 0.0
H269 H 0.40026 0.90786 0.51218 0.0
H270 H 0.52783 0.89077 0.48824 0.0
H271 H 0.56334 0.87181 0.51042 0.0
H272 H 0.46427 0.91345 0.47499 0.0
H273 H 0.35726 0.88945 0.49171 0.0
H274 H 0.27853 0.88045 0.47825 0.0
H275 H 0.23028 0.87606 0.45593 0.0
C276 C 0.4357 0.06248 0.06684 0.0
C277 C 0.41522 0.08583 0.05644 0.0
C278 C 0.44739 0.01901 0.06333 0.0
C279 C 0.43932 -0.00194 0.04928 0.0
C280 C 0.41758 0.02049 0.03898 0.0
C281 C 0.40583 0.06398 0.04249 0.0
C282 C 0.45192 0.95232 0.04497 0.0
C283 C 0.48794 0.93981 0.05215 0.0
C284 C 0.5013 0.89473 0.04773 0.0
C285 C 0.52327 0.87233 0.05797 0.0
C286 C 0.53712 0.83047 0.05427 0.0
C287 C 0.52951 0.81019 0.0402 0.0
H288 H 0.48008 0.89261 0.02518 0.0
C289 C 0.50878 0.83348 0.02986 0.0
C290 C 0.49482 0.87522 0.03356 0.0
H291 H 0.50307 0.81923 0.01887 0.0
H292 H 0.44283 0.0778 0.07774 0.0
H293 H 0.46201 0.00173 0.07176 0.0
H294 H 0.41034 0.00483 0.02811 0.0
H295 H 0.38988 0.08078 0.03423 0.0
H296 H 0.43117 0.92898 0.03535 0.0
H297 H 0.5087 0.96309 0.06178 0.0
H298 H 0.52977 0.88726 0.06891 0.0
H299 H 0.55499 0.8151 0.06237 0.0
C300 C 0.31133 0.48999 0.69679 0.0
C301 C 0.26613 0.46004 0.70638 0.0
C302 C 0.36741 0.50706 0.70082 0.0
C303 C 0.37957 0.49358 0.71451 0.0
C304 C 0.33414 0.46346 0.72405 0.0
C305 C 0.27807 0.44678 0.72004 0.0
C306 C 0.43863 0.51097 0.71941 0.0
C307 C 0.48401 0.52941 0.71062 0.0
C308 C 0.5429 0.54628 0.71554 0.0
C309 C 0.58286 0.54981 0.7054 0.0
C310 C 0.6385 0.56509 0.70948 0.0
C311 C 0.65564 0.57738 0.72383 0.0
H312 H 0.53212 0.55994 0.73797 0.0
C313 C 0.61608 0.57501 0.73394 0.0
C314 C 0.56053 0.56 0.72985 0.0
H315 H 0.62799 0.58482 0.74506 0.0
H316 H 0.30347 0.50118 0.68621 0.0
H317 H 0.40069 0.5315 0.69319 0.0
H318 H 0.34195 0.4524 0.73466 0.0
H319 H 0.24411 0.42252 0.72754 0.0
H320 H 0.44399 0.50617 0.73074 0.0
H321 H 0.47802 0.53014 0.69917 0.0
H322 H 0.57087 0.54012 0.69428 0.0
H323 H 0.66784 0.56661 0.7014 0.0
C324 C 0.1091 0.65812 0.36942 0.0
C325 C 0.10813 0.69842 0.3787 0.0
C326 C 0.06453 0.60167 0.36946 0.0
C327 C 0.01774 0.58452 0.37874 0.0
C328 C 0.0157 0.62574 0.38742 0.0
C329 C 0.06027 0.68184 0.38744 0.0
C330 C 0.97209 0.52416 0.38061 0.0
C331 C 0.96841 0.47921 0.37346 0.0
C332 C 0.9254 0.4196 0.37719 0.0
C333 C 0.90474 0.37757 0.36657 0.0
C334 C 0.86425 0.32123 0.3699 0.0
C335 C 0.84424 0.30573 0.38399 0.0
H336 H 0.92294 0.43428 0.39993 0.0
C337 C 0.8662 0.34759 0.39466 0.0
C338 C 0.90635 0.4037 0.39133 0.0
H339 H 0.85232 0.33716 0.40567 0.0
H340 H 0.14541 0.66955 0.36255 0.0
H341 H 0.06825 0.57183 0.36253 0.0
H342 H -0.01975 0.61415 0.39463 0.0
H343 H 0.05788 0.71183 0.39466 0.0
H344 H 0.94028 0.51626 0.38872 0.0
H345 H -0.00329 0.48539 0.36461 0.0
H346 H 0.91937 0.3885 0.35563 0.0
H347 H 0.84849 0.28999 0.36143 0.0
C348 C 0.84973 0.5149 0.24719 0.0
C349 C 0.83017 0.53548 0.25834 0.0
C350 C 0.89264 0.50117 0.24958 0.0
C351 C 0.91694 0.50728 0.26324 0.0
C352 C 0.8983 0.52894 0.27433 0.0
C353 C 0.8551 0.54258 0.27195 0.0
C354 C 0.96357 0.49401 0.26597 0.0
C355 C 0.96909 0.45459 0.25843 0.0
C356 C 0.01863 0.44478 0.25945 0.0
C357 C 0.02974 0.41925 0.24779 0.0
C358 C 0.07758 0.41221 0.24769 0.0
C359 C 0.11533 0.42986 0.25935 0.0
H360 H 0.04732 0.47894 0.28077 0.0
C361 C 0.10304 0.45312 0.27133 0.0
C362 C 0.0552 0.46065 0.27139 0.0
H363 H 0.13112 0.46686 0.28053 0.0
H364 H 0.83201 0.50945 0.23652 0.0
H365 H 0.90733 0.4869 0.24059 0.0
H366 H 0.91687 0.53487 0.28491 0.0
H367 H 0.84127 0.55862 0.28076 0.0
H368 H -0.00576 0.51818 0.27423 0.0
H369 H 0.93716 0.43001 0.25044 0.0
H370 H 0.0021 0.40608 0.23851 0.0
H371 H 0.08542 0.39368 0.23832 0.0
C372 C 0.69552 0.14394 0.93124 0.0
C373 C 0.72732 0.15833 0.91851 0.0
C374 C 0.63836 0.10086 0.93138 0.0
C375 C 0.612 0.07096 0.91878 0.0
C376 C 0.64442 0.08457 0.9062 0.0
C377 C 0.70123 0.12757 0.90605 0.0
C378 C 0.55048 0.02762 0.91789 0.0
C379 C 0.51573 0.00323 0.92919 0.0
C380 C 0.45443 0.96051 0.92738 0.0
C381 C 0.42703 0.9174 0.93767 0.0
C382 C 0.37036 0.87476 0.93574 0.0
C383 C 0.33987 0.87478 0.9235 0.0
H384 H 0.44176 -0.00406 0.90766 0.0
C385 C 0.36652 0.9196 0.91358 0.0
C386 C 0.42296 0.96206 0.91552 0.0
H387 H 0.3441 0.92152 0.90415 0.0
H388 H 0.71425 0.16704 0.94101 0.0
H389 H 0.61498 0.09261 0.94127 0.0
H390 H 0.62546 0.06242 0.89633 0.0
H391 H 0.72438 0.13732 0.89605 0.0
H392 H 0.53331 0.01416 0.90721 0.0
H393 H 0.53265 0.012 0.93998 0.0
H394 H 0.45 0.91571 0.94702 0.0
H395 H 0.35101 0.84107 0.94364 0.0
C396 C 0.53053 0.61185 0.572 0.0
C397 C 0.52921 0.64938 0.58214 0.0
C398 C 0.51191 0.55513 0.57555 0.0
C399 C 0.49106 0.53427 0.58933 0.0
C400 C 0.49199 0.5722 0.59967 0.0
C401 C 0.51056 0.62919 0.5961 0.0
C402 C 0.469 0.47336 0.5931 0.0
C403 C 0.44243 0.4317 0.58338 0.0
C404 C 0.42281 0.37024 0.58585 0.0
C405 C 0.38987 0.33171 0.57515 0.0
C406 C 0.3755 0.27458 0.57599 0.0
C407 C 0.39366 0.25431 0.58761 0.0
H408 H 0.46507 0.37763 0.60626 0.0
C409 C 0.42443 0.29209 0.5987 0.0
C410 C 0.43916 0.34958 0.59782 0.0
H411 H 0.43925 0.27784 0.60778 0.0
H412 H 0.54537 0.62604 0.56121 0.0
H413 H 0.51411 0.52779 0.56746 0.0
H414 H 0.477 0.5574 0.61042 0.0
H415 H 0.50935 0.65706 0.60419 0.0
H416 H 0.47327 0.46315 0.6041 0.0
H417 H 0.43453 0.44321 0.5728 0.0
H418 H 0.3765 0.34617 0.56582 0.0
H419 H 0.35146 0.24665 0.56729 0.0
C420 C 0.0232 0.30176 0.97163 0.0
C421 C 0.01985 0.28825 0.95705 0.0
C422 C 0.06041 0.29442 0.98072 0.0
C423 C 0.09505 0.27319 0.97542 0.0
C424 C 0.09196 0.26015 0.96082 0.0
C425 C 0.05457 0.26725 0.95174 0.0
C426 C 0.13653 0.26648 0.98462 0.0
C427 C 0.13047 0.25823 -0.00112 0.0
C428 C 0.1723 0.25233 0.00813 0.0
C429 C 0.15396 0.22379 0.0213 0.0
C430 C 0.19225 0.21878 0.0305 0.0
C431 C 0.25002 0.24285 0.02682 0.0
H432 H 0.24647 0.30033 -0.00539 0.0
C433 C 0.26854 0.27171 0.01368 0.0
C434 C 0.23019 0.2765 0.00444 0.0
H435 H 0.31285 0.29111 0.01056 0.0
H436 H -0.00265 0.31843 0.97604 0.0
H437 H 0.06272 0.30668 -0.0082 0.0
H438 H 0.11849 0.24424 0.95641 0.0
H439 H 0.05325 0.25666 0.94055 0.0
H440 H 0.17195 0.26598 0.97929 0.0
H441 H 0.09222 0.25323 0.004 0.0
H442 H 0.10977 0.2052 0.02448 0.0
H443 H 0.1766 0.19649 0.04057 0.0
C444 C 0.75538 -0.01229 0.60393 0.0
C445 C 0.69751 0.96343 0.60755 0.0
C446 C 0.79746 0.02898 0.61267 0.0
C447 C 0.78249 0.04711 0.6252 0.0
C448 C 0.72472 0.02193 0.62894 0.0
C449 C 0.68268 0.98077 0.6202 0.0
C450 C 0.82556 0.09141 0.63475 0.0
C451 C 0.87768 0.13146 0.63034 0.0
C452 C 0.91883 0.17812 0.6397 0.0
C453 C 0.95948 0.22941 0.63335 0.0
C454 C -0.00272 0.2752 0.64178 0.0
C455 C -0.00436 0.2705 0.65676 0.0
H456 H 0.88922 0.13325 0.65997 0.0
C457 C 0.95641 0.21847 0.66311 0.0
C458 C 0.91849 0.1727 0.65468 0.0
H459 H 0.95442 0.21324 0.67462 0.0
H460 H 0.76828 0.97487 0.59433 0.0
H461 H 0.84152 0.04586 0.60962 0.0
H462 H 0.71193 0.03465 0.63858 0.0
H463 H 0.63853 0.96272 0.62335 0.0
H464 H 0.81207 0.09322 0.64557 0.0
H465 H 0.88936 0.13303 0.61919 0.0
H466 H 0.96118 0.23457 0.62184 0.0
H467 H 0.0272 0.31457 0.63654 0.0
C468 C 0.72842 0.96076 0.35537 0.0
C469 C 0.70259 -0.00612 0.35229 0.0
C470 C 0.72763 0.92218 0.34533 0.0
C471 C 0.70095 0.91594 0.33198 0.0
C472 C 0.676 0.94971 0.32884 0.0
C473 C 0.6764 -0.01205 0.33891 0.0
C474 C 0.69991 0.87604 0.32095 0.0
C475 C 0.70093 0.8278 0.32415 0.0
C476 C 0.69865 0.78728 0.31314 0.0
C477 C 0.67586 0.72966 0.31683 0.0
C478 C 0.67332 0.69032 0.3068 0.0
C479 C 0.69436 0.70796 0.29288 0.0
H480 H 0.73962 0.84942 0.29611 0.0
C481 C 0.71803 0.76582 0.28923 0.0
C482 C 0.72016 0.80509 0.29924 0.0
H483 H 0.73498 0.78086 0.27863 0.0
H484 H 0.74931 0.9646 0.36554 0.0
H485 H 0.74883 0.89817 0.34799 0.0
H486 H 0.65565 0.94615 0.3186 0.0
H487 H 0.6564 0.01306 0.33617 0.0
H488 H 0.69488 0.8853 0.30989 0.0
H489 H 0.70019 0.81567 0.33528 0.0
H490 H 0.65949 0.71488 0.3275 0.0
H491 H 0.65512 0.64612 0.30999 0.0
C492 C 0.72859 0.71175 0.98267 0.0
C493 C 0.72606 0.71723 -0.00246 0.0
C494 C 0.77751 0.71645 0.97628 0.0
C495 C 0.8254 0.72738 0.98463 0.0
C496 C 0.82306 0.73388 -0.00054 0.0
C497 C 0.77408 0.72896 0.00585 0.0
C498 C 0.87695 0.72863 0.97852 0.0
C499 C 0.88994 0.73496 0.96447 0.0
C500 C 0.9395 0.73229 0.95837 0.0
C501 C 0.95947 0.75582 0.94476 0.0
C502 C 0.00421 0.75201 0.93835 0.0
C503 C 0.02983 0.72421 0.94539 0.0
H504 H 0.95007 0.68394 0.97569 0.0
C505 C 0.00996 0.70066 0.95901 0.0
C506 C 0.96517 0.70437 0.96541 0.0
H507 H 0.02842 0.67851 0.96467 0.0
H508 H 0.69217 0.70225 0.97597 0.0
H509 H 0.77651 0.70956 0.96489 0.0
H510 H 0.85904 0.74199 0.00619 0.0
H511 H 0.77355 0.73337 0.01734 0.0
H512 H 0.90566 0.72493 -0.01395 0.0
H513 H 0.86423 0.74373 0.95704 0.0
H514 H 0.94024 0.77708 0.93901 0.0
H515 H 0.01837 0.7705 0.92782 0.0
C516 C 0.25583 0.96506 0.6413 0.0
C517 C 0.24626 0.9671 0.62658 0.0
C518 C 0.21173 0.92788 0.65032 0.0
C519 C 0.1569 0.89193 0.64481 0.0
C520 C 0.14753 0.89374 0.63009 0.0
C521 C 0.19155 0.93113 0.62108 0.0
C522 C 0.10933 0.85035 0.65396 0.0
C523 C 0.10596 0.85731 0.66811 0.0
C524 C 0.05896 0.81532 0.67733 0.0
C525 C 0.04677 0.83399 0.69013 0.0
C526 C 0.00419 0.79559 0.69932 0.0
C527 C 0.97324 0.73739 0.69598 0.0
H528 H 0.03712 0.74054 0.66443 0.0
C529 C -0.01445 0.71856 0.6832 0.0
C530 C 0.02795 0.75701 0.67397 0.0
H531 H 0.96278 0.67394 0.68035 0.0
H532 H 0.29758 -0.00809 0.64587 0.0
H533 H 0.22125 0.92661 0.66152 0.0
H534 H 0.10591 0.8662 0.62553 0.0
H535 H 0.18276 0.93142 0.60978 0.0
H536 H 0.07484 0.81398 0.64865 0.0
H537 H 0.1376 0.89636 0.67315 0.0
H538 H 0.07027 0.87852 0.69306 0.0
H539 H -0.00401 0.81151 0.70911 0.0
C540 C 0.29286 0.0113 0.33635 0.0
C541 C 0.2726 -0.00213 0.35046 0.0
C542 C 0.29117 0.05559 0.32891 0.0
C543 C 0.26873 0.08726 0.33539 0.0
C544 C 0.24858 0.07377 0.3495 0.0
C545 C 0.25028 0.0295 0.35693 0.0
C546 C 0.26806 0.13621 0.32811 0.0
C547 C 0.27028 0.14341 0.31379 0.0
C548 C 0.27112 0.19314 0.30653 0.0
C549 C 0.25529 0.1884 0.29207 0.0
C550 C 0.25725 0.23457 0.28469 0.0
C551 C 0.27555 0.28685 0.2916 0.0
H552 H 0.30393 0.25184 0.32443 0.0
C553 C 0.29157 0.29177 0.30606 0.0
C554 C 0.2896 0.24559 0.31344 0.0
H555 H 0.30634 0.33159 0.31167 0.0
H556 H 0.31078 -0.01191 0.33108 0.0
H557 H 0.30882 0.06553 0.31824 0.0
H558 H 0.23151 0.09765 0.35482 0.0
H559 H 0.23447 0.02041 0.3678 0.0
H560 H 0.26359 0.16626 0.33488 0.0
H561 H 0.26948 0.11069 0.30696 0.0
H562 H 0.24136 0.14877 0.28642 0.0
H563 H 0.24478 0.22934 0.27354 0.0
loop_
_geom_bond_atom_site_label_1
_geom_bond_atom_site_label_2
_geom_bond_distance
_geom_bond_site_symmetry_2
_ccdc_geom_bond_type
O0 Cd1 2.300 . S
O0 C7 1.275 . S
Cd1 O0 2.300 . S
Cd1 O9 2.381 . S
Cd1 O10 2.378 . S
O2 Cd3 2.385 . S
O2 C7 1.255 . S
Cd3 O2 2.385 . S
Cd3 O4 2.317 . S
O4 Cd3 2.317 . S
O4 C5 1.232 . S
C5 O4 1.232 . S
C5 O6 1.218 . S
O6 C5 1.218 . S
C7 O0 1.275 . S
C7 O2 1.255 . S
C8 O9 1.258 . S
C8 O10 1.256 . S
O9 Cd1 2.381 . S
O9 C8 1.258 . S
O10 Cd1 2.378 . S
O10 C8 1.256 . S
O11 Cd12 2.300 . S
O11 C18 1.275 . S
Cd12 O11 2.300 . S
Cd12 O20 2.381 . S
Cd12 O21 2.378 . S
O13 Cd14 2.385 . S
O13 C18 1.255 . S
Cd14 O13 2.385 . S
Cd14 O15 2.317 . S
O15 Cd14 2.317 . S
O15 C16 1.232 . S
C16 O15 1.232 . S
C16 O17 1.218 . S
O17 C16 1.218 . S
C18 O11 1.275 . S
C18 O13 1.255 . S
C19 O20 1.258 . S
C19 O21 1.256 . S
O20 Cd12 2.381 . S
O20 C19 1.258 . S
O21 Cd12 2.378 . S
O21 C19 1.256 . S
O22 Cd23 2.300 . S
O22 C29 1.275 . S
Cd23 O22 2.300 . S
Cd23 O31 2.381 . S
Cd23 O32 2.378 . S
O24 Cd25 2.385 . S
O24 C29 1.255 . S
Cd25 O24 2.385 . S
Cd25 O26 2.317 . S
O26 Cd25 2.317 . S
O26 C27 1.232 . S
C27 O26 1.232 . S
C27 O28 1.218 . S
O28 C27 1.218 . S
C29 O22 1.275 . S
C29 O24 1.255 . S
C30 O31 1.258 . S
C30 O32 1.256 . S
O31 Cd23 2.381 . S
O31 C30 1.258 . S
O32 Cd23 2.378 . S
O32 C30 1.256 . S
O33 Cd34 2.300 . S
O33 C40 1.275 . S
Cd34 O33 2.300 . S
Cd34 O42 2.381 . S
Cd34 O43 2.378 . S
O35 Cd36 2.385 . S
O35 C40 1.255 . S
Cd36 O35 2.385 . S
Cd36 O37 2.317 . S
O37 Cd36 2.317 . S
O37 C38 1.232 . S
C38 O37 1.232 . S
C38 O39 1.218 . S
O39 C38 1.218 . S
C40 O33 1.275 . S
C40 O35 1.255 . S
C41 O42 1.258 . S
C41 O43 1.256 . S
O42 Cd34 2.381 . S
O42 C41 1.258 . S
O43 Cd34 2.378 . S
O43 C41 1.256 . S
O44 Cd45 2.300 . S
O44 C51 1.275 . S
Cd45 O44 2.300 . S
Cd45 O53 2.381 . S
Cd45 O54 2.378 . S
O46 Cd47 2.385 . S
O46 C51 1.255 . S
Cd47 O46 2.385 . S
Cd47 O48 2.317 . S
O48 Cd47 2.317 . S
O48 C49 1.232 . S
C49 O48 1.232 . S
C49 O50 1.218 . S
O50 C49 1.218 . S
C51 O44 1.275 . S
C51 O46 1.255 . S
C52 O53 1.258 . S
C52 O54 1.256 . S
O53 Cd45 2.381 . S
O53 C52 1.258 . S
O54 Cd45 2.378 . S
O54 C52 1.256 . S
O55 Cd56 2.300 . S
O55 C62 1.275 . S
Cd56 O55 2.300 . S
Cd56 O64 2.381 . S
Cd56 O65 2.378 . S
O57 Cd58 2.385 . S
O57 C62 1.255 . S
Cd58 O57 2.385 . S
Cd58 O59 2.317 . S
O59 Cd58 2.317 . S
O59 C60 1.232 . S
C60 O59 1.232 . S
C60 O61 1.218 . S
O61 C60 1.218 . S
C62 O55 1.275 . S
C62 O57 1.255 . S
C63 O64 1.258 . S
C63 O65 1.256 . S
O64 Cd56 2.381 . S
O64 C63 1.258 . S
O65 Cd56 2.378 . S
O65 C63 1.256 . S
O66 Cd67 2.300 . S
O66 C73 1.275 . S
Cd67 O66 2.300 . S
Cd67 O75 2.381 . S
Cd67 O76 2.378 . S
O68 Cd69 2.385 . S
O68 C73 1.255 . S
Cd69 O68 2.385 . S
Cd69 O70 2.317 . S
O70 Cd69 2.317 . S
O70 C71 1.232 . S
C71 O70 1.232 . S
C71 O72 1.218 . S
O72 C71 1.218 . S
C73 O66 1.275 . S
C73 O68 1.255 . S
C74 O75 1.258 . S
C74 O76 1.256 . S
O75 Cd67 2.381 . S
O75 C74 1.258 . S
O76 Cd67 2.378 . S
O76 C74 1.256 . S
O77 Cd78 2.300 . S
O77 C84 1.275 . S
Cd78 O77 2.300 . S
Cd78 O86 2.381 . S
Cd78 O87 2.378 . S
O79 Cd80 2.385 . S
O79 C84 1.255 . S
Cd80 O79 2.385 . S
Cd80 O81 2.317 . S
O81 Cd80 2.317 . S
O81 C82 1.232 . S
C82 O81 1.232 . S
C82 O83 1.218 . S
O83 C82 1.218 . S
C84 O77 1.275 . S
C84 O79 1.255 . S
C85 O86 1.258 . S
C85 O87 1.256 . S
O86 Cd78 2.381 . S
O86 C85 1.258 . S
O87 Cd78 2.378 . S
O87 C85 1.256 . S
O88 Cd89 2.300 . S
O88 C95 1.275 . S
Cd89 O88 2.300 . S
Cd89 O97 2.381 . S
Cd89 O98 2.378 . S
O90 Cd91 2.385 . S
O90 C95 1.255 . S
Cd91 O90 2.385 . S
Cd91 O92 2.317 . S
O92 Cd91 2.317 . S
O92 C93 1.232 . S
C93 O92 1.232 . S
C93 O94 1.218 . S
O94 C93 1.218 . S
C95 O88 1.275 . S
C95 O90 1.255 . S
C96 O97 1.258 . S
C96 O98 1.256 . S
O97 Cd89 2.381 . S
O97 C96 1.258 . S
O98 Cd89 2.378 . S
O98 C96 1.256 . S
O99 Cd100 2.300 . S
O99 C106 1.275 . S
Cd100 O99 2.300 . S
Cd100 O108 2.381 . S
Cd100 O109 2.378 . S
O101 Cd102 2.385 . S
O101 C106 1.255 . S
Cd102 O101 2.385 . S
Cd102 O103 2.317 . S
O103 Cd102 2.317 . S
O103 C104 1.232 . S
C104 O103 1.232 . S
C104 O105 1.218 . S
O105 C104 1.218 . S
C106 O99 1.275 . S
C106 O101 1.255 . S
C107 O108 1.258 . S
C107 O109 1.256 . S
O108 Cd100 2.381 . S
O108 C107 1.258 . S
O109 Cd100 2.378 . S
O109 C107 1.256 . S
O110 Cd111 2.300 . S
O110 C117 1.275 . S
Cd111 O110 2.300 . S
Cd111 O119 2.381 . S
Cd111 O120 2.378 . S
O112 Cd113 2.385 . S
O112 C117 1.255 . S
Cd113 O112 2.385 . S
Cd113 O114 2.317 . S
O114 Cd113 2.317 . S
O114 C115 1.232 . S
C115 O114 1.232 . S
C115 O116 1.218 . S
O116 C115 1.218 . S
C117 O110 1.275 . S
C117 O112 1.255 . S
C118 O119 1.258 . S
C118 O120 1.256 . S
O119 Cd111 2.381 . S
O119 C118 1.258 . S
O120 Cd111 2.378 . S
O120 C118 1.256 . S
O121 Cd122 2.300 . S
O121 C128 1.275 . S
Cd122 O121 2.300 . S
Cd122 O130 2.381 . S
Cd122 O131 2.378 . S
O123 Cd124 2.385 . S
O123 C128 1.255 . S
Cd124 O123 2.385 . S
Cd124 O125 2.317 . S
O125 Cd124 2.317 . S
O125 C126 1.232 . S
C126 O125 1.232 . S
C126 O127 1.218 . S
O127 C126 1.218 . S
C128 O121 1.275 . S
C128 O123 1.255 . S
C129 O130 1.258 . S
C129 O131 1.256 . S
O130 Cd122 2.381 . S
O130 C129 1.258 . S
O131 Cd122 2.378 . S
O131 C129 1.256 . S
C132 C133 1.386 . S
C132 C134 1.383 . S
C132 H148 0.951 . S
C133 C132 1.386 . S
C133 C137 1.383 . S
C134 C132 1.383 . S
C134 C135 1.402 . S
C134 H149 0.951 . S
C135 C134 1.402 . S
C135 C136 1.375 . S
C135 C138 1.481 . S
C136 C135 1.375 . S
C136 C137 1.367 . S
C136 H150 0.951 . S
C137 C133 1.383 . S
C137 C136 1.367 . S
C137 H151 0.950 . S
C138 C135 1.481 . S
C138 C139 1.297 . S
C138 H152 0.950 . S
C139 C138 1.297 . S
C139 C140 1.479 . S
C139 H153 0.950 . S
C140 C139 1.479 . S
C140 C141 1.375 . S
C140 C146 1.404 . S
C141 C140 1.375 . S
C141 C142 1.369 . S
C141 H154 0.950 . S
C142 C141 1.369 . S
C142 C143 1.392 . S
C142 H155 0.951 . S
C143 C142 1.392 . S
C143 C145 1.384 . S
H144 C146 0.949 . S
C145 C143 1.384 . S
C145 C146 1.385 . S
C145 H147 0.950 . S
C146 C140 1.404 . S
C146 H144 0.949 . S
C146 C145 1.385 . S
H147 C145 0.950 . S
H148 C132 0.951 . S
H149 C134 0.951 . S
H150 C136 0.951 . S
H151 C137 0.950 . S
H152 C138 0.950 . S
H153 C139 0.950 . S
H154 C141 0.950 . S
H155 C142 0.951 . S
C156 C157 1.386 . S
C156 C158 1.383 . S
C156 H172 0.951 . S
C157 C156 1.386 . S
C157 C161 1.383 . S
C158 C156 1.383 . S
C158 C159 1.402 . S
C158 H173 0.951 . S
C159 C158 1.402 . S
C159 C160 1.375 . S
C159 C162 1.481 . S
C160 C159 1.375 . S
C160 C161 1.367 . S
C160 H174 0.951 . S
C161 C157 1.383 . S
C161 C160 1.367 . S
C161 H175 0.950 . S
C162 C159 1.481 . S
C162 C163 1.297 . S
C162 H176 0.950 . S
C163 C162 1.297 . S
C163 C164 1.479 . S
C163 H177 0.950 . S
C164 C163 1.479 . S
C164 C165 1.375 . S
C164 C170 1.404 . S
C165 C164 1.375 . S
C165 C166 1.369 . S
C165 H178 0.950 . S
C166 C165 1.369 . S
C166 C167 1.392 . S
C166 H179 0.951 . S
C167 C166 1.392 . S
C167 C169 1.384 . S
H168 C170 0.949 . S
C169 C167 1.384 . S
C169 C170 1.385 . S
C169 H171 0.950 . S
C170 C164 1.404 . S
C170 H168 0.949 . S
C170 C169 1.385 . S
H171 C169 0.950 . S
H172 C156 0.951 . S
H173 C158 0.951 . S
H174 C160 0.951 . S
H175 C161 0.950 . S
H176 C162 0.950 . S
H177 C163 0.950 . S
H178 C165 0.950 . S
H179 C166 0.951 . S
C180 C181 1.386 . S
C180 C182 1.383 . S
C180 H196 0.951 . S
C181 C180 1.386 . S
C181 C185 1.383 . S
C182 C180 1.383 . S
C182 C183 1.402 . S
C182 H197 0.951 . S
C183 C182 1.402 . S
C183 C184 1.375 . S
C183 C186 1.481 . S
C184 C183 1.375 . S
C184 C185 1.367 . S
C184 H198 0.951 . S
C185 C181 1.383 . S
C185 C184 1.367 . S
C185 H199 0.950 . S
C186 C183 1.481 . S
C186 C187 1.297 . S
C186 H200 0.950 . S
C187 C186 1.297 . S
C187 C188 1.479 . S
C187 H201 0.950 . S
C188 C187 1.479 . S
C188 C189 1.375 . S
C188 C194 1.404 . S
C189 C188 1.375 . S
C189 C190 1.369 . S
C189 H202 0.950 . S
C190 C189 1.369 . S
C190 C191 1.392 . S
C190 H203 0.951 . S
C191 C190 1.392 . S
C191 C193 1.384 . S
H192 C194 0.949 . S
C193 C191 1.384 . S
C193 C194 1.385 . S
C193 H195 0.950 . S
C194 C188 1.404 . S
C194 H192 0.949 . S
C194 C193 1.385 . S
H195 C193 0.950 . S
H196 C180 0.951 . S
H197 C182 0.951 . S
H198 C184 0.951 . S
H199 C185 0.950 . S
H200 C186 0.950 . S
H201 C187 0.950 . S
H202 C189 0.950 . S
H203 C190 0.951 . S
C204 C205 1.386 . S
C204 C206 1.383 . S
C204 H220 0.951 . S
C205 C204 1.386 . S
C205 C209 1.383 . S
C206 C204 1.383 . S
C206 C207 1.402 . S
C206 H221 0.951 . S
C207 C206 1.402 . S
C207 C208 1.375 . S
C207 C210 1.481 . S
C208 C207 1.375 . S
C208 C209 1.367 . S
C208 H222 0.951 . S
C209 C205 1.383 . S
C209 C208 1.367 . S
C209 H223 0.950 . S
C210 C207 1.481 . S
C210 C211 1.297 . S
C210 H224 0.950 . S
C211 C210 1.297 . S
C211 C212 1.479 . S
C211 H225 0.950 . S
C212 C211 1.479 . S
C212 C213 1.375 . S
C212 C218 1.404 . S
C213 C212 1.375 . S
C213 C214 1.369 . S
C213 H226 0.950 . S
C214 C213 1.369 . S
C214 C215 1.392 . S
C214 H227 0.951 . S
C215 C214 1.392 . S
C215 C217 1.384 . S
H216 C218 0.949 . S
C217 C215 1.384 . S
C217 C218 1.385 . S
C217 H219 0.950 . S
C218 C212 1.404 . S
C218 H216 0.949 . S
C218 C217 1.385 . S
H219 C217 0.950 . S
H220 C204 0.951 . S
H221 C206 0.951 . S
H222 C208 0.951 . S
H223 C209 0.950 . S
H224 C210 0.950 . S
H225 C211 0.950 . S
H226 C213 0.950 . S
H227 C214 0.951 . S
C228 C229 1.386 . S
C228 C230 1.383 . S
C228 H244 0.951 . S
C229 C228 1.386 . S
C229 C233 1.383 . S
C230 C228 1.383 . S
C230 C231 1.402 . S
C230 H245 0.951 . S
C231 C230 1.402 . S
C231 C232 1.375 . S
C231 C234 1.481 . S
C232 C231 1.375 . S
C232 C233 1.367 . S
C232 H246 0.951 . S
C233 C229 1.383 . S
C233 C232 1.367 . S
C233 H247 0.950 . S
C234 C231 1.481 . S
C234 C235 1.297 . S
C234 H248 0.950 . S
C235 C234 1.297 . S
C235 C236 1.479 . S
C235 H249 0.950 . S
C236 C235 1.479 . S
C236 C237 1.375 . S
C236 C242 1.404 . S
C237 C236 1.375 . S
C237 C238 1.369 . S
C237 H250 0.950 . S
C238 C237 1.369 . S
C238 C239 1.392 . S
C238 H251 0.951 . S
C239 C238 1.392 . S
C239 C241 1.384 . S
H240 C242 0.949 . S
C241 C239 1.384 . S
C241 C242 1.385 . S
C241 H243 0.950 . S
C242 C236 1.404 . S
C242 H240 0.949 . S
C242 C241 1.385 . S
H243 C241 0.950 . S
H244 C228 0.951 . S
H245 C230 0.951 . S
H246 C232 0.951 . S
H247 C233 0.950 . S
H248 C234 0.950 . S
H249 C235 0.950 . S
H250 C237 0.950 . S
H251 C238 0.951 . S
C252 C253 1.386 . S
C252 C254 1.383 . S
C252 H268 0.951 . S
C253 C252 1.386 . S
C253 C257 1.383 . S
C254 C252 1.383 . S
C254 C255 1.402 . S
C254 H269 0.951 . S
C255 C254 1.402 . S
C255 C256 1.375 . S
C255 C258 1.481 . S
C256 C255 1.375 . S
C256 C257 1.367 . S
C256 H270 0.951 . S
C257 C253 1.383 . S
C257 C256 1.367 . S
C257 H271 0.950 . S
C258 C255 1.481 . S
C258 C259 1.297 . S
C258 H272 0.950 . S
C259 C258 1.297 . S
C259 C260 1.479 . S
C259 H273 0.950 . S
C260 C259 1.479 . S
C260 C261 1.375 . S
C260 C266 1.404 . S
C261 C260 1.375 . S
C261 C262 1.369 . S
C261 H274 0.950 . S
C262 C261 1.369 . S
C262 C263 1.392 . S
C262 H275 0.951 . S
C263 C262 1.392 . S
C263 C265 1.384 . S
H264 C266 0.949 . S
C265 C263 1.384 . S
C265 C266 1.385 . S
C265 H267 0.950 . S
C266 C260 1.404 . S
C266 H264 0.949 . S
C266 C265 1.385 . S
H267 C265 0.950 . S
H268 C252 0.951 . S
H269 C254 0.951 . S
H270 C256 0.951 . S
H271 C257 0.950 . S
H272 C258 0.950 . S
H273 C259 0.950 . S
H274 C261 0.950 . S
H275 C262 0.951 . S
C276 C277 1.386 . S
C276 C278 1.383 . S
C276 H292 0.951 . S
C277 C276 1.386 . S
C277 C281 1.383 . S
C278 C276 1.383 . S
C278 C279 1.402 . S
C278 H293 0.951 . S
C279 C278 1.402 . S
C279 C280 1.375 . S
C279 C282 1.481 1_545 S
C280 C279 1.375 . S
C280 C281 1.367 . S
C280 H294 0.951 . S
C281 C277 1.383 . S
C281 C280 1.367 . S
C281 H295 0.950 . S
C282 C279 1.481 1_565 S
C282 C283 1.297 . S
C282 H296 0.950 . S
C283 C282 1.297 . S
C283 C284 1.479 . S
C283 H297 0.950 1_565 S
C284 C283 1.479 . S
C284 C285 1.375 . S
C284 C290 1.404 . S
C285 C284 1.375 . S
C285 C286 1.369 . S
C285 H298 0.950 . S
C286 C285 1.369 . S
C286 C287 1.392 . S
C286 H299 0.951 . S
C287 C286 1.392 . S
C287 C289 1.384 . S
H288 C290 0.949 . S
C289 C287 1.384 . S
C289 C290 1.385 . S
C289 H291 0.950 . S
C290 C284 1.404 . S
C290 H288 0.949 . S
C290 C289 1.385 . S
H291 C289 0.950 . S
H292 C276 0.951 . S
H293 C278 0.951 . S
H294 C280 0.951 . S
H295 C281 0.950 . S
H296 C282 0.950 . S
H297 C283 0.950 1_545 S
H298 C285 0.950 . S
H299 C286 0.951 . S
C300 C301 1.386 . S
C300 C302 1.383 . S
C300 H316 0.951 . S
C301 C300 1.386 . S
C301 C305 1.383 . S
C302 C300 1.383 . S
C302 C303 1.402 . S
C302 H317 0.951 . S
C303 C302 1.402 . S
C303 C304 1.375 . S
C303 C306 1.481 . S
C304 C303 1.375 . S
C304 C305 1.367 . S
C304 H318 0.951 . S
C305 C301 1.383 . S
C305 C304 1.367 . S
C305 H319 0.950 . S
C306 C303 1.481 . S
C306 C307 1.297 . S
C306 H320 0.950 . S
C307 C306 1.297 . S
C307 C308 1.479 . S
C307 H321 0.950 . S
C308 C307 1.479 . S
C308 C309 1.375 . S
C308 C314 1.404 . S
C309 C308 1.375 . S
C309 C310 1.369 . S
C309 H322 0.950 . S
C310 C309 1.369 . S
C310 C311 1.392 . S
C310 H323 0.951 . S
C311 C310 1.392 . S
C311 C313 1.384 . S
H312 C314 0.949 . S
C313 C311 1.384 . S
C313 C314 1.385 . S
C313 H315 0.950 . S
C314 C308 1.404 . S
C314 H312 0.949 . S
C314 C313 1.385 . S
H315 C313 0.950 . S
H316 C300 0.951 . S
H317 C302 0.951 . S
H318 C304 0.951 . S
H319 C305 0.950 . S
H320 C306 0.950 . S
H321 C307 0.950 . S
H322 C309 0.950 . S
H323 C310 0.951 . S
C324 C325 1.386 . S
C324 C326 1.383 . S
C324 H340 0.951 . S
C325 C324 1.386 . S
C325 C329 1.383 . S
C326 C324 1.383 . S
C326 C327 1.402 . S
C326 H341 0.951 . S
C327 C326 1.402 . S
C327 C328 1.375 . S
C327 C330 1.481 . S
C328 C327 1.375 . S
C328 C329 1.367 . S
C328 H342 0.951 . S
C329 C325 1.383 . S
C329 C328 1.367 . S
C329 H343 0.950 . S
C330 C327 1.481 . S
C330 C331 1.297 1_455 S
C330 H344 0.950 . S
C331 C330 1.297 1_655 S
C331 C332 1.479 . S
C331 H345 0.950 . S
C332 C331 1.479 . S
C332 C333 1.375 . S
C332 C338 1.404 . S
C333 C332 1.375 . S
C333 C334 1.369 . S
C333 H346 0.950 . S
C334 C333 1.369 . S
C334 C335 1.392 . S
C334 H347 0.951 . S
C335 C334 1.392 . S
C335 C337 1.384 . S
H336 C338 0.949 . S
C337 C335 1.384 . S
C337 C338 1.385 . S
C337 H339 0.950 . S
C338 C332 1.404 . S
C338 H336 0.949 . S
C338 C337 1.385 . S
H339 C337 0.950 . S
H340 C324 0.951 . S
H341 C326 0.951 . S
H342 C328 0.951 . S
H343 C329 0.950 . S
H344 C330 0.950 . S
H345 C331 0.950 . S
H346 C333 0.950 . S
H347 C334 0.951 . S
C348 C349 1.386 . S
C348 C350 1.383 . S
C348 H364 0.951 . S
C349 C348 1.386 . S
C349 C353 1.383 . S
C350 C348 1.383 . S
C350 C351 1.402 . S
C350 H365 0.951 . S
C351 C350 1.402 . S
C351 C352 1.375 . S
C351 C354 1.481 . S
C352 C351 1.375 . S
C352 C353 1.367 . S
C352 H366 0.951 . S
C353 C349 1.383 . S
C353 C352 1.367 . S
C353 H367 0.950 . S
C354 C351 1.481 . S
C354 C355 1.297 1_655 S
C354 H368 0.950 . S
C355 C354 1.297 1_455 S
C355 C356 1.479 . S
C355 H369 0.950 . S
C356 C355 1.479 . S
C356 C357 1.375 . S
C356 C362 1.404 . S
C357 C356 1.375 . S
C357 C358 1.369 . S
C357 H370 0.950 . S
C358 C357 1.369 . S
C358 C359 1.392 . S
C358 H371 0.951 . S
C359 C358 1.392 . S
C359 C361 1.384 . S
H360 C362 0.949 . S
C361 C359 1.384 . S
C361 C362 1.385 . S
C361 H363 0.950 . S
C362 C356 1.404 . S
C362 H360 0.949 . S
C362 C361 1.385 . S
H363 C361 0.950 . S
H364 C348 0.951 . S
H365 C350 0.951 . S
H366 C352 0.951 . S
H367 C353 0.950 . S
H368 C354 0.950 . S
H369 C355 0.950 . S
H370 C357 0.950 . S
H371 C358 0.951 . S
C372 C373 1.386 . S
C372 C374 1.383 . S
C372 H388 0.951 . S
C373 C372 1.386 . S
C373 C377 1.383 . S
C374 C372 1.383 . S
C374 C375 1.402 . S
C374 H389 0.951 . S
C375 C374 1.402 . S
C375 C376 1.375 . S
C375 C378 1.481 . S
C376 C375 1.375 . S
C376 C377 1.367 . S
C376 H390 0.951 . S
C377 C373 1.383 . S
C377 C376 1.367 . S
C377 H391 0.950 . S
C378 C375 1.481 . S
C378 C379 1.297 1_545 S
C378 H392 0.950 . S
C379 C378 1.297 1_565 S
C379 C380 1.479 . S
C379 H393 0.951 1_565 S
C380 C379 1.479 . S
C380 C381 1.375 . S
C380 C386 1.404 . S
C381 C380 1.375 . S
C381 C382 1.369 . S
C381 H394 0.950 . S
C382 C381 1.369 . S
C382 C383 1.392 . S
C382 H395 0.951 . S
C383 C382 1.392 . S
C383 C385 1.384 . S
H384 C386 0.949 . S
C385 C383 1.384 . S
C385 C386 1.385 . S
C385 H387 0.950 . S
C386 C380 1.404 . S
C386 H384 0.949 . S
C386 C385 1.385 . S
H387 C385 0.950 . S
H388 C372 0.951 . S
H389 C374 0.951 . S
H390 C376 0.951 . S
H391 C377 0.950 . S
H392 C378 0.950 . S
H393 C379 0.951 1_545 S
H394 C381 0.950 . S
H395 C382 0.951 . S
C396 C397 1.386 . S
C396 C398 1.383 . S
C396 H412 0.951 . S
C397 C396 1.386 . S
C397 C401 1.383 . S
C398 C396 1.383 . S
C398 C399 1.402 . S
C398 H413 0.951 . S
C399 C398 1.402 . S
C399 C400 1.375 . S
C399 C402 1.481 . S
C400 C399 1.375 . S
C400 C401 1.367 . S
C400 H414 0.951 . S
C401 C397 1.383 . S
C401 C400 1.367 . S
C401 H415 0.950 . S
C402 C399 1.481 . S
C402 C403 1.297 . S
C402 H416 0.950 . S
C403 C402 1.297 . S
C403 C404 1.479 . S
C403 H417 0.950 . S
C404 C403 1.479 . S
C404 C405 1.375 . S
C404 C410 1.404 . S
C405 C404 1.375 . S
C405 C406 1.369 . S
C405 H418 0.950 . S
C406 C405 1.369 . S
C406 C407 1.392 . S
C406 H419 0.951 . S
C407 C406 1.392 . S
C407 C409 1.384 . S
H408 C410 0.949 . S
C409 C407 1.384 . S
C409 C410 1.385 . S
C409 H411 0.950 . S
C410 C404 1.404 . S
C410 H408 0.949 . S
C410 C409 1.385 . S
H411 C409 0.950 . S
H412 C396 0.951 . S
H413 C398 0.951 . S
H414 C400 0.951 . S
H415 C401 0.950 . S
H416 C402 0.950 . S
H417 C403 0.950 . S
H418 C405 0.950 . S
H419 C406 0.951 . S
C420 C421 1.386 1_655 S
C420 C422 1.383 1_655 S
C420 H436 0.951 . S
C421 C420 1.386 1_455 S
C421 C425 1.383 . S
C422 C420 1.383 1_455 S
C422 C423 1.402 . S
C422 H437 0.951 . S
C423 C422 1.402 . S
C423 C424 1.375 . S
C423 C426 1.481 . S
C424 C423 1.375 . S
C424 C425 1.367 . S
C424 H438 0.951 . S
C425 C421 1.383 . S
C425 C424 1.367 . S
C425 H439 0.950 . S
C426 C423 1.481 . S
C426 C427 1.283 1_556 S
C426 H440 0.950 . S
C427 C426 1.283 1_554 S
C427 C428 1.493 . S
C427 H441 0.950 . S
C428 C427 1.493 . S
C428 C429 1.375 . S
C428 C434 1.404 . S
C429 C428 1.375 . S
C429 C430 1.369 . S
C429 H442 0.950 . S
C430 C429 1.369 . S
C430 C431 1.392 . S
C430 H443 0.951 . S
C431 C430 1.392 . S
C431 C433 1.384 . S
H432 C434 0.949 . S
C433 C431 1.384 . S
C433 C434 1.385 . S
C433 H435 0.950 . S
C434 C428 1.404 . S
C434 H432 0.949 . S
C434 C433 1.385 . S
H435 C433 0.950 . S
H436 C420 0.951 . S
H437 C422 0.951 . S
H438 C424 0.951 . S
H439 C425 0.950 . S
H440 C426 0.950 . S
H441 C427 0.950 . S
H442 C429 0.950 . S
H443 C430 0.951 . S
C444 C445 1.386 1_545 S
C444 C446 1.383 . S
C444 H460 0.951 . S
C445 C444 1.386 1_565 S
C445 C449 1.383 . S
C446 C444 1.383 . S
C446 C447 1.402 . S
C446 H461 0.951 . S
C447 C446 1.402 . S
C447 C448 1.375 . S
C447 C450 1.481 . S
C448 C447 1.375 . S
C448 C449 1.367 1_545 S
C448 H462 0.951 1_545 S
C449 C445 1.383 . S
C449 C448 1.367 1_565 S
C449 H463 0.950 . S
C450 C447 1.481 . S
C450 C451 1.297 . S
C450 H464 0.950 . S
C451 C450 1.297 . S
C451 C452 1.479 . S
C451 H465 0.950 . S
C452 C451 1.479 . S
C452 C453 1.375 . S
C452 C458 1.404 . S
C453 C452 1.375 . S
C453 C454 1.369 . S
C453 H466 0.950 . S
C454 C453 1.369 . S
C454 C455 1.392 . S
C454 H467 0.951 1_655 S
C455 C454 1.392 . S
C455 C457 1.384 . S
H456 C458 0.949 . S
C457 C455 1.384 . S
C457 C458 1.385 . S
C457 H459 0.950 . S
C458 C452 1.404 . S
C458 H456 0.949 . S
C458 C457 1.385 . S
H459 C457 0.950 . S
H460 C444 0.951 . S
H461 C446 0.951 . S
H462 C448 0.951 1_565 S
H463 C449 0.950 . S
H464 C450 0.950 . S
H465 C451 0.950 . S
H466 C453 0.950 . S
H467 C454 0.951 1_455 S
C468 C469 1.386 1_565 S
C468 C470 1.383 . S
C468 H484 0.951 . S
C469 C468 1.386 1_545 S
C469 C473 1.383 . S
C470 C468 1.383 . S
C470 C471 1.402 . S
C470 H485 0.951 . S
C471 C470 1.402 . S
C471 C472 1.375 . S
C471 C474 1.481 . S
C472 C471 1.375 . S
C472 C473 1.367 1_565 S
C472 H486 0.951 1_565 S
C473 C469 1.383 . S
C473 C472 1.367 1_545 S
C473 H487 0.950 . S
C474 C471 1.481 . S
C474 C475 1.297 . S
C474 H488 0.950 . S
C475 C474 1.297 . S
C475 C476 1.479 . S
C475 H489 0.950 . S
C476 C475 1.479 . S
C476 C477 1.375 . S
C476 C482 1.404 . S
C477 C476 1.375 . S
C477 C478 1.369 . S
C477 H490 0.950 . S
C478 C477 1.369 . S
C478 C479 1.392 . S
C478 H491 0.951 . S
C479 C478 1.392 . S
C479 C481 1.384 . S
H480 C482 0.949 . S
C481 C479 1.384 . S
C481 C482 1.385 . S
C481 H483 0.950 . S
C482 C476 1.404 . S
C482 H480 0.949 . S
C482 C481 1.385 . S
H483 C481 0.950 . S
H484 C468 0.951 . S
H485 C470 0.951 . S
H486 C472 0.951 1_545 S
H487 C473 0.950 . S
H488 C474 0.950 . S
H489 C475 0.950 . S
H490 C477 0.950 . S
H491 C478 0.951 . S
C492 C493 1.386 . S
C492 C494 1.383 . S
C492 H508 0.951 . S
C493 C492 1.386 . S
C493 C497 1.383 . S
C494 C492 1.383 . S
C494 C495 1.402 . S
C494 H509 0.967 . S
C495 C494 1.402 . S
C495 C496 1.375 . S
C495 C498 1.481 . S
C496 C495 1.375 . S
C496 C497 1.367 . S
C496 H510 0.951 . S
C497 C493 1.383 . S
C497 C496 1.367 . S
C497 H511 0.950 . S
C498 C495 1.481 . S
C498 C499 1.297 1_554 S
C498 H512 0.950 . S
C499 C498 1.297 1_556 S
C499 C500 1.479 . S
C499 H513 0.950 . S
C500 C499 1.479 . S
C500 C501 1.375 . S
C500 C506 1.404 . S
C501 C500 1.375 . S
C501 C502 1.369 . S
C501 H514 0.950 . S
C502 C501 1.369 . S
C502 C503 1.392 1_655 S
C502 H515 0.951 . S
C503 C502 1.392 1_455 S
C503 C505 1.384 . S
H504 C506 0.949 . S
C505 C503 1.384 . S
C505 C506 1.385 1_455 S
C505 H507 0.950 . S
C506 C500 1.404 . S
C506 H504 0.949 . S
C506 C505 1.385 1_655 S
H507 C505 0.950 . S
H508 C492 0.951 . S
H509 C494 0.967 . S
H510 C496 0.951 . S
H511 C497 0.950 . S
H512 C498 0.950 . S
H513 C499 0.950 . S
H514 C501 0.950 . S
H515 C502 0.951 . S
C516 C517 1.386 1_565 S
C516 C518 1.383 . S
C516 H532 0.951 1_565 S
C517 C516 1.386 1_545 S
C517 C521 1.383 1_545 S
C518 C516 1.383 . S
C518 C519 1.402 . S
C518 H533 0.951 . S
C519 C518 1.402 . S
C519 C520 1.375 . S
C519 C522 1.481 . S
C520 C519 1.375 . S
C520 C521 1.367 . S
C520 H534 0.951 . S
C521 C517 1.383 1_565 S
C521 C520 1.367 . S
C521 H535 0.950 . S
C522 C519 1.481 . S
C522 C523 1.297 . S
C522 H536 0.950 . S
C523 C522 1.297 . S
C523 C524 1.479 . S
C523 H537 0.950 . S
C524 C523 1.479 . S
C524 C525 1.375 . S
C524 C530 1.404 . S
C525 C524 1.375 . S
C525 C526 1.369 . S
C525 H538 0.950 . S
C526 C525 1.369 . S
C526 C527 1.392 1_455 S
C526 H539 0.951 . S
C527 C526 1.392 1_655 S
C527 C529 1.384 . S
H528 C530 0.949 . S
C529 C527 1.384 . S
C529 C530 1.385 1_655 S
C529 H531 0.950 . S
C530 C524 1.404 . S
C530 H528 0.949 . S
C530 C529 1.385 1_455 S
H531 C529 0.950 . S
H532 C516 0.951 1_545 S
H533 C518 0.951 . S
H534 C520 0.951 . S
H535 C521 0.950 . S
H536 C522 0.950 . S
H537 C523 0.950 . S
H538 C525 0.950 . S
H539 C526 0.951 . S
C540 C541 1.386 1_565 S
C540 C542 1.383 1_565 S
C540 H556 0.951 . S
C541 C540 1.386 1_545 S
C541 C545 1.383 . S
C542 C540 1.383 1_545 S
C542 C543 1.402 . S
C542 H557 0.951 . S
C543 C542 1.402 . S
C543 C544 1.375 . S
C543 C546 1.481 . S
C544 C543 1.375 . S
C544 C545 1.367 . S
C544 H558 0.951 . S
C545 C541 1.383 . S
C545 C544 1.367 . S
C545 H559 0.950 . S
C546 C543 1.481 . S
C546 C547 1.297 . S
C546 H560 0.950 . S
C547 C546 1.297 . S
C547 C548 1.479 . S
C547 H561 0.950 . S
C548 C547 1.479 . S
C548 C549 1.375 . S
C548 C554 1.404 . S
C549 C548 1.375 . S
C549 C550 1.369 . S
C549 H562 0.950 . S
C550 C549 1.369 . S
C550 C551 1.392 . S
C550 H563 0.951 . S
C551 C550 1.392 . S
C551 C553 1.384 . S
H552 C554 0.949 . S
C553 C551 1.384 . S
C553 C554 1.385 . S
C553 H555 0.950 . S
C554 C548 1.404 . S
C554 H552 0.949 . S
C554 C553 1.385 . S
H555 C553 0.950 . S
H556 C540 0.951 . S
H557 C542 0.951 . S
H558 C544 0.951 . S
H559 C545 0.950 . S
H560 C546 0.950 . S
H561 C547 0.950 . S
H562 C549 0.950 . S
H563 C550 0.951 . S
C133 C5 1.331 . S
C143 C71 1.196 . S
C157 C16 1.299 . S
C167 C82 1.287 . S
C181 C27 1.269 . S
C191 C93 1.332 . S
C205 C104 1.327 . S
C215 C38 1.217 . S
C229 C49 1.263 . S
C239 C115 1.339 . S
C253 C126 1.320 . S
C263 C60 1.166 . S
C277 C7 1.427 . S
C287 C40 1.473 . S
C301 C18 1.469 . S
C311 C51 1.400 . S
C325 C62 1.484 . S
C335 C29 1.416 . S
C349 C73 1.449 . S
C359 C106 1.485 . S
C373 C117 1.483 . S
C383 C84 1.403 . S
C397 C128 1.425 . S
C407 C95 1.487 . S
C421 C118 1.490 1_455 S
C431 C8 1.487 . S
C445 C129 1.504 . S
C455 C19 1.496 1_655 S
C469 C30 1.509 . S
C479 C74 1.507 . S
C493 C41 1.479 . S
C503 C85 1.461 . S
C517 C96 1.480 . S
C527 C52 1.460 . S
C541 C63 1.488 1_545 S
C551 C107 1.484 . S
