# Generated by pormake.
# Topology vbj, (5)-cn, num edge types: 1
# Building blocks:
#     Node 0, Type 0, BuildingBlock: XOMCOT_clean_sbu_1, # of connection points: 5
#     Node 1, Type 0, BuildingBlock: XOMCOT_clean_sbu_1, # of connection points: 5
#     Node 2, Type 0, BuildingBlock: XOMCOT_clean_sbu_1, # of connection points: 5
#     Node 3, Type 0, BuildingBlock: XOMCOT_clean_sbu_1, # of connection points: 5
#     Node 4, Type 0, BuildingBlock: XOMCOT_clean_sbu_1, # of connection points: 5
#     Node 5, Type 0, BuildingBlock: XOMCOT_clean_sbu_1, # of connection points: 5
#     Node 6, Type 0, BuildingBlock: XOMCOT_clean_sbu_1, # of connection points: 5
#     Node 7, Type 0, BuildingBlock: XOMCOT_clean_sbu_1, # of connection points: 5
#     Node 8, Type 0, BuildingBlock: XOMCOT_clean_sbu_1, # of connection points: 5
#     Node 9, Type 0, BuildingBlock: XOMCOT_clean_sbu_1, # of connection points: 5
#     Node 10, Type 0, BuildingBlock: XOMCOT_clean_sbu_1, # of connection points: 5
#     Node 11, Type 0, BuildingBlock: XOMCOT_clean_sbu_1, # of connection points: 5
#     Node 12, Type 0, BuildingBlock: XOMCOT_clean_sbu_1, # of connection points: 5
#     Node 13, Type 0, BuildingBlock: XOMCOT_clean_sbu_1, # of connection points: 5
#     Node 14, Type 0, BuildingBlock: XOMCOT_clean_sbu_1, # of connection points: 5
#     Node 15, Type 0, BuildingBlock: XOMCOT_clean_sbu_1, # of connection points: 5
#     Edge 16, Type (0, 0), BuildingBlock: TEMPAE_clean_linker_10, # of connection points: 2
#     Edge 17, Type (0, 0), BuildingBlock: TEMPAE_clean_linker_10, # of connection points: 2
#     Edge 18, Type (0, 0), BuildingBlock: TEMPAE_clean_linker_10, # of connection points: 2
#     Edge 19, Type (0, 0), BuildingBlock: TEMPAE_clean_linker_10, # of connection points: 2
#     Edge 20, Type (0, 0), BuildingBlock: TEMPAE_clean_linker_10, # of connection points: 2
#     Edge 21, Type (0, 0), BuildingBlock: TEMPAE_clean_linker_10, # of connection points: 2
#     Edge 22, Type (0, 0), BuildingBlock: TEMPAE_clean_linker_10, # of connection points: 2
#     Edge 23, Type (0, 0), BuildingBlock: TEMPAE_clean_linker_10, # of connection points: 2
#     Edge 24, Type (0, 0), BuildingBlock: TEMPAE_clean_linker_10, # of connection points: 2
#     Edge 25, Type (0, 0), BuildingBlock: TEMPAE_clean_linker_10, # of connection points: 2
#     Edge 26, Type (0, 0), BuildingBlock: TEMPAE_clean_linker_10, # of connection points: 2
#     Edge 27, Type (0, 0), BuildingBlock: TEMPAE_clean_linker_10, # of connection points: 2
#     Edge 28, Type (0, 0), BuildingBlock: TEMPAE_clean_linker_10, # of connection points: 2
#     Edge 29, Type (0, 0), BuildingBlock: TEMPAE_clean_linker_10, # of connection points: 2
#     Edge 30, Type (0, 0), BuildingBlock: TEMPAE_clean_linker_10, # of connection points: 2
#     Edge 31, Type (0, 0), BuildingBlock: TEMPAE_clean_linker_10, # of connection points: 2
#     Edge 32, Type (0, 0), BuildingBlock: TEMPAE_clean_linker_10, # of connection points: 2
#     Edge 33, Type (0, 0), BuildingBlock: TEMPAE_clean_linker_10, # of connection points: 2
#     Edge 34, Type (0, 0), BuildingBlock: TEMPAE_clean_linker_10, # of connection points: 2
#     Edge 35, Type (0, 0), BuildingBlock: TEMPAE_clean_linker_10, # of connection points: 2
#     Edge 36, Type (0, 0), BuildingBlock: TEMPAE_clean_linker_10, # of connection points: 2
#     Edge 37, Type (0, 0), BuildingBlock: TEMPAE_clean_linker_10, # of connection points: 2
#     Edge 38, Type (0, 0), BuildingBlock: TEMPAE_clean_linker_10, # of connection points: 2
#     Edge 39, Type (0, 0), BuildingBlock: TEMPAE_clean_linker_10, # of connection points: 2
#     Edge 40, Type (0, 0), BuildingBlock: TEMPAE_clean_linker_10, # of connection points: 2
#     Edge 41, Type (0, 0), BuildingBlock: TEMPAE_clean_linker_10, # of connection points: 2
#     Edge 42, Type (0, 0), BuildingBlock: TEMPAE_clean_linker_10, # of connection points: 2
#     Edge 43, Type (0, 0), BuildingBlock: TEMPAE_clean_linker_10, # of connection points: 2
#     Edge 44, Type (0, 0), BuildingBlock: TEMPAE_clean_linker_10, # of connection points: 2
#     Edge 45, Type (0, 0), BuildingBlock: TEMPAE_clean_linker_10, # of connection points: 2
#     Edge 46, Type (0, 0), BuildingBlock: TEMPAE_clean_linker_10, # of connection points: 2
#     Edge 47, Type (0, 0), BuildingBlock: TEMPAE_clean_linker_10, # of connection points: 2
#     Edge 48, Type (0, 0), BuildingBlock: TEMPAE_clean_linker_10, # of connection points: 2
#     Edge 49, Type (0, 0), BuildingBlock: TEMPAE_clean_linker_10, # of connection points: 2
#     Edge 50, Type (0, 0), BuildingBlock: TEMPAE_clean_linker_10, # of connection points: 2
#     Edge 51, Type (0, 0), BuildingBlock: TEMPAE_clean_linker_10, # of connection points: 2
#     Edge 52, Type (0, 0), BuildingBlock: TEMPAE_clean_linker_10, # of connection points: 2
#     Edge 53, Type (0, 0), BuildingBlock: TEMPAE_clean_linker_10, # of connection points: 2
#     Edge 54, Type (0, 0), BuildingBlock: TEMPAE_clean_linker_10, # of connection points: 2
#     Edge 55, Type (0, 0), BuildingBlock: TEMPAE_clean_linker_10, # of connection points: 2
# Relax obj value: 0.100
# Max RMSD: 0.144
# Mean RMSD: 0.144
data_MOF--net-vbj--node1-XOMCOT_clean_sbu_1--edge1-TEMPAE_clean_linker_10
_symmetry_space_group_name_H-M    P1
_symmetry_Int_Tables_number       1
_symmetry_cell_setting            triclinic
loop_
_symmetry_equiv_pos_as_xyz
'x, y, z'
_cell_length_a     26.818423
_cell_length_b     65.61351
_cell_length_c     48.3795
_cell_angle_alpha  90.12351
_cell_angle_beta   90.065537
_cell_angle_gamma 89.99557
loop_
_atom_site_label
_atom_site_type_symbol
_atom_site_fract_x
_atom_site_fract_y
_atom_site_fract_z
_atom_type_partial_charge
C0 C 0.10051 0.17529 0.07208 0.0
C1 C 0.09241 0.19592 0.07142 0.0
N2 N 0.07321 0.20174 0.09591 0.0
N3 N 0.08692 0.16793 0.09693 0.0
C4 C 0.07015 0.18444 0.11106 0.0
H5 H 0.11408 0.16611 0.0551 0.0
Co6 Co 0.08991 0.13999 0.10509 0.0
C7 C 0.02533 0.13717 0.15512 0.0
O8 O 0.99596 0.12432 0.14219 0.0
N9 N 0.09412 0.11104 0.11291 0.0
C10 C 0.07741 0.07765 0.11615 0.0
C11 C 0.05772 0.0967 0.11153 0.0
C12 C 0.13573 0.09988 0.11842 0.0
N13 N 0.12663 0.07969 0.12021 0.0
O14 O 0.1564 0.14394 0.11817 0.0
H15 H 0.01927 0.09952 0.10612 0.0
H16 H 0.17263 0.10616 0.12076 0.0
O17 O 0.06267 0.1449 0.14244 0.0
C18 C 0.18219 0.14103 0.09637 0.0
O19 O 0.15973 0.13445 0.07393 0.0
N20 N 0.02812 0.13693 0.08787 0.0
C21 C 0.95708 0.14037 0.04611 0.0
C22 C 0.95009 0.15028 0.07159 0.0
C23 C 0.98668 0.14864 0.09218 0.0
C24 C 0.03433 0.12674 0.06355 0.0
C25 C -0.00095 0.12799 0.0426 0.0
H26 H 0.98357 0.15798 0.11052 0.0
H27 H 0.06866 0.11859 0.05964 0.0
H28 H 0.0552 0.18376 0.1318 0.0
H29 H 0.09827 0.20574 0.05377 0.0
H30 H 0.05756 0.0633 0.11504 0.0
H31 H 0.91843 0.16025 0.07485 0.0
H32 H 0.00567 0.12001 0.02333 0.0
C33 C 0.41875 0.87028 0.06629 0.0
C34 C 0.43169 0.85006 0.06527 0.0
N35 N 0.4416 0.8438 0.09115 0.0
N36 N 0.42093 0.87691 0.09267 0.0
C37 C 0.43456 0.86029 0.10751 0.0
H38 H 0.4109 0.87988 0.04867 0.0
Co39 Co 0.41449 0.90464 0.10157 0.0
C40 C 0.47562 0.90752 0.153 0.0
O41 O 0.50492 0.92084 0.14104 0.0
N42 N 0.40703 0.93333 0.11014 0.0
C43 C 0.4209 0.96677 0.11565 0.0
C44 C 0.44235 0.94813 0.1104 0.0
C45 C 0.36416 0.94379 0.11515 0.0
N46 N 0.37161 0.96401 0.11841 0.0
O47 O 0.34747 0.89956 0.1129 0.0
H48 H 0.48138 0.94595 0.10584 0.0
H49 H 0.32768 0.93695 0.11625 0.0
O50 O 0.43949 0.89961 0.13938 0.0
C51 C 0.32341 0.90167 0.0903 0.0
O52 O 0.3475 0.90776 0.06819 0.0
N53 N 0.47733 0.90887 0.08599 0.0
C54 C 0.54943 0.90532 0.04492 0.0
C55 C 0.55581 0.8955 0.07044 0.0
C56 C 0.51873 0.89722 0.0907 0.0
C57 C 0.47216 0.91929 0.06181 0.0
C58 C 0.50795 0.91792 0.04117 0.0
H59 H 0.52107 0.8877 0.10886 0.0
H60 H 0.43789 0.92738 0.05753 0.0
H61 H 0.44225 0.86051 0.12947 0.0
H62 H 0.43528 0.8408 0.04683 0.0
H63 H 0.43972 0.98137 0.11599 0.0
H64 H 0.58709 0.88536 0.07385 0.0
H65 H 0.50181 0.92578 0.02178 0.0
C66 C 0.56378 0.87113 0.44784 0.0
C67 C 0.54965 0.8511 0.45002 0.0
N68 N 0.54452 0.84339 0.42437 0.0
N69 N 0.56716 0.87624 0.42092 0.0
C70 C 0.55593 0.85886 0.407 0.0
H71 H 0.56935 0.8816 0.46486 0.0
Co72 Co 0.58037 0.90314 0.40936 0.0
C73 C 0.51136 0.90143 0.35945 0.0
O74 O 0.47608 0.91149 0.37237 0.0
N75 N 0.59535 0.93037 0.398 0.0
C76 C 0.59214 0.96142 0.37937 0.0
C77 C 0.56783 0.94314 0.38226 0.0
C78 C 0.6361 0.94165 0.40479 0.0
N79 N 0.63518 0.96051 0.39355 0.0
O80 O 0.64515 0.89461 0.39775 0.0
H81 H 0.53167 0.93994 0.37381 0.0
H82 H 0.666 0.93624 0.41781 0.0
O83 O 0.55234 0.89728 0.37198 0.0
C84 C 0.6696 0.89498 0.42039 0.0
O85 O 0.64732 0.90152 0.4429 0.0
N86 N 0.51937 0.91154 0.42522 0.0
C87 C 0.4501 0.91617 0.46777 0.0
C88 C 0.44245 0.90168 0.44687 0.0
C89 C 0.47787 0.89941 0.42597 0.0
C90 C 0.52548 0.92655 0.44455 0.0
C91 C 0.49111 0.92924 0.46581 0.0
H92 H 0.47417 0.88664 0.41197 0.0
H93 H 0.55966 0.93521 0.44543 0.0
H94 H 0.554 0.85777 0.3847 0.0
H95 H 0.54296 0.84288 0.46903 0.0
H96 H 0.57845 0.97459 0.36825 0.0
H97 H 0.41168 0.89101 0.44793 0.0
H98 H 0.4983 0.94062 0.48158 0.0
C99 C 0.91905 0.17129 0.44809 0.0
C100 C 0.927 0.1919 0.44957 0.0
N101 N 0.93479 0.19901 0.42381 0.0
N102 N 0.92169 0.16518 0.42153 0.0
C103 C 0.93125 0.18245 0.40711 0.0
H104 H 0.91363 0.16121 0.46548 0.0
Co105 Co 0.916 0.1376 0.41117 0.0
C106 C 0.9858 0.14079 0.3618 0.0
O107 O 0.0227 0.13215 0.37521 0.0
N108 N 0.90844 0.1095 0.40108 0.0
C109 C 0.91795 0.07843 0.38309 0.0
C110 C 0.93759 0.0977 0.38488 0.0
C111 C 0.87143 0.09667 0.40914 0.0
N112 N 0.87614 0.07765 0.39843 0.0
O113 O 0.84984 0.14293 0.39834 0.0
H114 H 0.97134 0.10234 0.37485 0.0
H115 H 0.84193 0.10108 0.42305 0.0
O116 O 0.9438 0.14367 0.37389 0.0
C117 C 0.82429 0.14194 0.42052 0.0
O118 O 0.84681 0.13695 0.44367 0.0
N119 N 0.97812 0.13244 0.42807 0.0
C120 C 0.04852 0.1316 0.47055 0.0
C121 C 0.05294 0.14564 0.44892 0.0
C122 C 0.01675 0.14608 0.42814 0.0
C123 C 0.97497 0.11808 0.44838 0.0
C124 C 0.00986 0.11733 0.46971 0.0
H125 H 0.01774 0.15842 0.41339 0.0
H126 H 0.94267 0.10832 0.44977 0.0
H127 H 0.93653 0.1828 0.38495 0.0
H128 H 0.92924 0.20078 0.46841 0.0
H129 H 0.93327 0.0661 0.37091 0.0
H130 H 0.08189 0.15715 0.44919 0.0
H131 H 0.00514 0.10636 0.48621 0.0
C132 C 0.9075 0.86573 0.9386 0.0
C133 C 0.91542 0.84509 0.93862 0.0
N134 N 0.92881 0.83925 0.91295 0.0
N135 N 0.9155 0.87314 0.91303 0.0
C136 C 0.92872 0.85661 0.89777 0.0
H137 H 0.89793 0.87491 0.9564 0.0
Co138 Co 0.91064 0.90117 0.9054 0.0
C139 C 0.97445 0.90439 0.85508 0.0
O140 O 0.00514 0.9165 0.86837 0.0
N141 N 0.90458 0.9301 0.89801 0.0
C142 C 0.91961 0.96355 0.89361 0.0
C143 C 0.94049 0.94466 0.89801 0.0
C144 C 0.86206 0.94093 0.89359 0.0
N145 N 0.87015 0.96116 0.89107 0.0
O146 O 0.84384 0.89679 0.89298 0.0
H147 H 0.9795 0.94213 0.9023 0.0
H148 H 0.82536 0.93438 0.89231 0.0
O149 O 0.93666 0.89693 0.86765 0.0
C150 C 0.81916 0.89863 0.91539 0.0
O151 O 0.84266 0.90441 0.93791 0.0
N152 N 0.97301 0.90467 0.92208 0.0
C153 C 0.04593 0.90193 0.96303 0.0
C154 C 0.0517 0.89154 0.93781 0.0
C155 C 0.01419 0.89281 0.91769 0.0
C156 C 0.96787 0.91527 0.94618 0.0
C157 C 0.00409 0.91436 0.9667 0.0
H158 H 0.01642 0.8831 0.89965 0.0
H159 H 0.93367 0.92344 0.95034 0.0
H160 H 0.93871 0.85731 0.87613 0.0
H161 H 0.9134 0.83526 0.95651 0.0
H162 H 0.93897 0.97803 0.89371 0.0
H163 H 0.08315 0.88148 0.93445 0.0
H164 H -0.00172 0.92263 0.98583 0.0
C165 C 0.61309 0.17389 0.94108 0.0
C166 C 0.60295 0.19432 0.94281 0.0
N167 N 0.57259 0.1995 0.92173 0.0
N168 N 0.59003 0.16593 0.9188 0.0
C169 C 0.56581 0.18197 0.90723 0.0
H170 H 0.635 0.16528 0.95573 0.0
Co171 Co 0.59173 0.13783 0.91103 0.0
C172 C 0.52766 0.13394 0.8611 0.0
O173 O 0.49977 0.1207 0.8742 0.0
N174 N 0.59474 0.10867 0.90361 0.0
C175 C 0.5777 0.07521 0.90215 0.0
C176 C 0.55882 0.09436 0.90727 0.0
C177 C 0.63522 0.09739 0.89615 0.0
N178 N 0.62596 0.07717 0.89545 0.0
O179 O 0.65799 0.14126 0.89749 0.0
H180 H 0.52123 0.09732 0.9142 0.0
H181 H 0.67155 0.10359 0.89164 0.0
O182 O 0.56414 0.14245 0.87373 0.0
C183 C 0.68501 0.13708 0.91843 0.0
O184 O 0.66364 0.12974 0.94071 0.0
N185 N 0.53011 0.13535 0.92865 0.0
C186 C 0.45844 0.13914 0.97004 0.0
C187 C 0.45052 0.14781 0.94385 0.0
C188 C 0.48735 0.146 0.92344 0.0
C189 C 0.53742 0.12639 0.95372 0.0
C190 C 0.50192 0.12785 0.97451 0.0
H191 H 0.4829 0.1543 0.90435 0.0
H192 H 0.57247 0.11894 0.95812 0.0
H193 H 0.54194 0.18063 0.88928 0.0
H194 H 0.61661 0.20447 0.95875 0.0
H195 H 0.55822 0.06088 0.90464 0.0
H196 H 0.41767 0.15693 0.93975 0.0
H197 H 0.50933 0.12078 0.99431 0.0
C198 C 0.41062 0.17106 0.57216 0.0
C199 C 0.42315 0.19132 0.57155 0.0
N200 N 0.43824 0.19689 0.59697 0.0
N201 N 0.418 0.16366 0.59783 0.0
C202 C 0.43464 0.1799 0.61269 0.0
H203 H 0.39948 0.16197 0.55454 0.0
Co204 Co 0.41393 0.13551 0.60485 0.0
C205 C 0.47702 0.13067 0.65508 0.0
O206 O 0.5041 0.11696 0.64227 0.0
N207 N 0.40895 0.10635 0.61127 0.0
C208 C 0.42359 0.07279 0.60993 0.0
C209 C 0.44407 0.09185 0.60697 0.0
C210 C 0.36753 0.09527 0.61751 0.0
N211 N 0.37499 0.07487 0.61616 0.0
O212 O 0.34763 0.13923 0.61834 0.0
H213 H 0.48223 0.09464 0.60096 0.0
H214 H 0.33181 0.10191 0.62207 0.0
O215 O 0.44133 0.13947 0.64222 0.0
C216 C 0.32113 0.13717 0.5966 0.0
O217 O 0.34324 0.13241 0.57326 0.0
N218 N 0.4757 0.13264 0.58745 0.0
C219 C 0.54795 0.13666 0.54645 0.0
C220 C 0.55561 0.14512 0.57284 0.0
C221 C 0.5184 0.14325 0.59306 0.0
C222 C 0.46866 0.12391 0.56216 0.0
C223 C 0.50444 0.12549 0.54154 0.0
H224 H 0.52224 0.15159 0.61222 0.0
H225 H 0.43347 0.11666 0.55739 0.0
H226 H 0.44686 0.17903 0.63398 0.0
H227 H 0.42289 0.20111 0.55355 0.0
H228 H 0.44306 0.05852 0.60697 0.0
H229 H 0.58844 0.15419 0.5772 0.0
H230 H 0.49716 0.1187 0.52151 0.0
C231 C 0.12569 0.86222 0.57935 0.0
C232 C 0.11518 0.84177 0.57927 0.0
N233 N 0.07719 0.83835 0.59683 0.0
N234 N 0.09487 0.8719 0.59703 0.0
C235 C 0.06578 0.85687 0.60757 0.0
H236 H 0.15288 0.86959 0.56632 0.0
Co237 Co 0.09202 0.90048 0.59997 0.0
C238 C 0.03118 0.90912 0.64979 0.0
O239 O 0.00977 0.92441 0.63695 0.0
N240 N 0.09049 0.93006 0.60216 0.0
C241 C 0.07576 0.96276 0.59206 0.0
C242 C 0.05871 0.94308 0.58947 0.0
C243 C 0.12586 0.94268 0.61303 0.0
N244 N 0.11863 0.96254 0.60652 0.0
O245 O 0.15781 0.90045 0.61513 0.0
H246 H 0.0255 0.93878 0.57827 0.0
H247 H 0.15808 0.93739 0.62432 0.0
O248 O 0.06321 0.89816 0.63704 0.0
C249 C 0.18558 0.90451 0.59453 0.0
O250 O 0.16473 0.9083 0.5705 0.0
N251 N 0.03093 0.89966 0.58148 0.0
C252 C 0.956 0.89351 0.54226 0.0
C253 C 0.94669 0.89022 0.57054 0.0
C254 C 0.98507 0.89313 0.58993 0.0
C255 C 0.04028 0.90287 0.55417 0.0
C256 C 0.0034 0.90019 0.53434 0.0
H257 H 0.9784 0.88922 0.61125 0.0
H258 H 0.07722 0.90733 0.54768 0.0
H259 H 0.03511 0.85958 0.62162 0.0
H260 H 0.13333 0.83034 0.56663 0.0
H261 H 0.05839 0.97614 0.58323 0.0
H262 H 0.91078 0.88469 0.57746 0.0
H263 H 0.01221 0.90319 0.51289 0.0
C264 C 0.58735 0.67585 0.06297 0.0
C265 C 0.57481 0.69611 0.06276 0.0
N266 N 0.56013 0.70142 0.08835 0.0
N267 N 0.58043 0.66824 0.08856 0.0
C268 C 0.56412 0.68431 0.10376 0.0
H269 H 0.59796 0.66691 0.04513 0.0
Co270 Co 0.58399 0.64013 0.09532 0.0
C271 C 0.5212 0.63597 0.14599 0.0
O272 O 0.49214 0.62299 0.13309 0.0
N273 N 0.58824 0.61105 0.10153 0.0
C274 C 0.57106 0.57766 0.10272 0.0
C275 C 0.55177 0.59685 0.09891 0.0
C276 C 0.62951 0.59969 0.10701 0.0
N277 N 0.62015 0.57944 0.10758 0.0
O278 O 0.65092 0.64362 0.10826 0.0
H279 H 0.5134 0.59992 0.09357 0.0
H280 H 0.66609 0.60595 0.11051 0.0
O281 O 0.55779 0.64408 0.13309 0.0
C282 C 0.67665 0.64209 0.08618 0.0
O283 O 0.6539 0.6373 0.06301 0.0
N284 N 0.52166 0.63757 0.07839 0.0
C285 C 0.44867 0.6418 0.03777 0.0
C286 C 0.44203 0.65057 0.06404 0.0
C287 C 0.47964 0.6486 0.08404 0.0
C288 C 0.52767 0.62853 0.05321 0.0
C289 C 0.49151 0.63023 0.03278 0.0
H290 H 0.47666 0.65717 0.10306 0.0
H291 H 0.56239 0.62096 0.04835 0.0
H292 H 0.55211 0.68324 0.12506 0.0
H293 H 0.57456 0.70605 0.04492 0.0
H294 H 0.55086 0.56344 0.10087 0.0
H295 H 0.40973 0.65994 0.06842 0.0
H296 H 0.49796 0.62321 0.01282 0.0
C297 C 0.91059 0.3705 0.0748 0.0
C298 C 0.92271 0.35032 0.07135 0.0
N299 N 0.93333 0.3423 0.09632 0.0
N300 N 0.91361 0.37538 0.10179 0.0
C301 C 0.92751 0.35787 0.11448 0.0
H302 H 0.90075 0.38109 0.05858 0.0
Co303 Co 0.89984 0.40154 0.11525 0.0
C304 C 0.96418 0.40498 0.16469 0.0
O305 O 0.98149 0.42183 0.15361 0.0
N306 N 0.88294 0.42821 0.12897 0.0
C307 C 0.85206 0.45131 0.15835 0.0
C308 C 0.8727 0.4323 0.15582 0.0
C309 C 0.86532 0.44494 0.11553 0.0
N310 N 0.84703 0.4593 0.13297 0.0
O311 O 0.83552 0.39231 0.12648 0.0
H312 H 0.87557 0.42152 0.17258 0.0
H313 H 0.86215 0.4461 0.09336 0.0
O314 O 0.93093 0.39469 0.15158 0.0
C315 C 0.80969 0.39707 0.10525 0.0
O316 O 0.83168 0.40645 0.08464 0.0
N317 N 0.96053 0.41035 0.09963 0.0
C318 C 0.03324 0.41197 0.05833 0.0
C319 C 0.04195 0.40111 0.08282 0.0
C320 C 0.00473 0.4002 0.10308 0.0
C321 C 0.95302 0.42182 0.07653 0.0
C322 C 0.98899 0.42307 0.05588 0.0
H323 H 0.0095 0.38959 0.1199 0.0
H324 H 0.91675 0.4279 0.07209 0.0
H325 H 0.933 0.35654 0.13655 0.0
H326 H 0.92469 0.34233 0.0518 0.0
H327 H 0.83779 0.45797 0.17724 0.0
H328 H 0.07524 0.39193 0.08521 0.0
H329 H 0.9806 0.43147 0.03718 0.0
C330 C 0.11025 0.36303 0.44899 0.0
C331 C 0.10277 0.34237 0.44802 0.0
N332 N 0.08029 0.33765 0.42391 0.0
N333 N 0.09296 0.37154 0.42556 0.0
C334 C 0.07475 0.35568 0.41062 0.0
H335 H 0.12539 0.3714 0.46632 0.0
Co336 Co 0.09132 0.39982 0.42037 0.0
C337 C 0.02996 0.40449 0.36934 0.0
O338 O 0.00085 0.41723 0.38265 0.0
N339 N 0.09051 0.42916 0.41568 0.0
C340 C 0.06905 0.46214 0.41693 0.0
C341 C 0.05285 0.44246 0.42067 0.0
C342 C 0.12926 0.44154 0.40882 0.0
N343 N 0.11734 0.46155 0.40974 0.0
O344 O 0.15926 0.39871 0.40814 0.0
H345 H 0.01564 0.4384 0.42716 0.0
H346 H 0.16595 0.4362 0.40326 0.0
O347 O 0.06652 0.39616 0.38209 0.0
C348 C 0.18397 0.40168 0.43038 0.0
O349 O 0.15969 0.40635 0.45307 0.0
N350 N 0.0283 0.39997 0.43682 0.0
C351 C 0.9542 0.39301 0.47608 0.0
C352 C 0.94895 0.38554 0.44896 0.0
C353 C 0.98713 0.38887 0.42964 0.0
C354 C 0.03307 0.40763 0.46289 0.0
C355 C 0.99637 0.40457 0.48266 0.0
H356 H 0.98505 0.38141 0.40974 0.0
H357 H 0.06701 0.41539 0.4688 0.0
H358 H 0.05647 0.35737 0.39081 0.0
H359 H 0.11089 0.3318 0.46457 0.0
H360 H 0.04744 0.47586 0.42028 0.0
H361 H 0.91717 0.37625 0.44328 0.0
H362 H 0.00174 0.41068 0.50328 0.0
C363 C 0.42723 0.6687 0.44216 0.0
C364 C 0.44446 0.68825 0.44573 0.0
N365 N 0.44788 0.69714 0.42073 0.0
N366 N 0.42036 0.66508 0.41499 0.0
C367 C 0.43257 0.68283 0.4024 0.0
H368 H 0.42079 0.65765 0.45833 0.0
Co369 Co 0.39956 0.63988 0.40071 0.0
C370 C 0.46086 0.63523 0.3505 0.0
O371 O 0.47483 0.61755 0.36064 0.0
N372 N 0.37562 0.61439 0.38612 0.0
C373 C 0.33998 0.59293 0.35607 0.0
C374 C 0.36379 0.61127 0.35922 0.0
C375 C 0.35545 0.59792 0.39901 0.0
N376 N 0.33454 0.58448 0.38114 0.0
O377 O 0.33755 0.6519 0.39073 0.0
H378 H 0.36842 0.62228 0.34286 0.0
H379 H 0.35279 0.5963 0.42112 0.0
O380 O 0.43044 0.64636 0.36438 0.0
C381 C 0.31242 0.64841 0.41261 0.0
O382 O 0.33343 0.6382 0.43284 0.0
N383 N 0.4587 0.62824 0.41496 0.0
C384 C 0.53197 0.62315 0.45556 0.0
C385 C 0.54175 0.63471 0.43176 0.0
C386 C 0.50448 0.63717 0.41175 0.0
C387 C 0.45015 0.61597 0.43715 0.0
C388 C 0.48647 0.61282 0.45725 0.0
H389 H 0.51053 0.64826 0.39562 0.0
H390 H 0.41316 0.6108 0.44167 0.0
H391 H 0.4313 0.68509 0.38026 0.0
H392 H 0.45344 0.69546 0.46526 0.0
H393 H 0.32456 0.587 0.33699 0.0
H394 H 0.576 0.64332 0.42981 0.0
H395 H 0.47725 0.60373 0.47519 0.0
C396 C 0.37357 0.36056 0.94473 0.0
C397 C 0.38174 0.33995 0.94282 0.0
N398 N 0.4111 0.33637 0.9208 0.0
N399 N 0.39711 0.37013 0.92383 0.0
C400 C 0.41998 0.35492 0.90961 0.0
H401 H 0.35278 0.3681 0.96089 0.0
Co402 Co 0.39743 0.39863 0.91938 0.0
C403 C 0.45792 0.40449 0.86847 0.0
O404 O 0.48578 0.41769 0.8818 0.0
N405 N 0.39667 0.4281 0.91512 0.0
C406 C 0.41601 0.46135 0.91631 0.0
C407 C 0.43321 0.44184 0.92062 0.0
C408 C 0.35752 0.44008 0.9075 0.0
N409 N 0.36819 0.46019 0.90833 0.0
O410 O 0.32955 0.39714 0.90709 0.0
H411 H 0.47037 0.43816 0.92766 0.0
H412 H 0.3214 0.4344 0.90138 0.0
O413 O 0.42231 0.39553 0.88118 0.0
C414 C 0.30492 0.40036 0.92925 0.0
O415 O 0.32926 0.40521 0.9519 0.0
N416 N 0.46053 0.39918 0.93594 0.0
C417 C 0.53525 0.39286 0.97522 0.0
C418 C 0.54139 0.38601 0.94787 0.0
C419 C 0.50298 0.38902 0.92851 0.0
C420 C 0.45494 0.40632 0.96222 0.0
C421 C 0.49187 0.40357 0.98201 0.0
H422 H 0.50617 0.38211 0.90832 0.0
H423 H 0.42032 0.41348 0.96825 0.0
H424 H 0.44331 0.35736 0.89169 0.0
H425 H 0.36886 0.32854 0.95728 0.0
H426 H 0.43648 0.47535 0.91976 0.0
H427 H 0.5742 0.37743 0.94195 0.0
H428 H 0.4858 0.4093 1.00275 0.0
C429 C 0.07844 0.67121 0.9352 0.0
C430 C 0.0702 0.69181 0.93601 0.0
N431 N 0.06042 0.69831 0.91018 0.0
N432 N 0.07424 0.66448 0.90897 0.0
C433 C 0.06291 0.68138 0.89407 0.0
H434 H 0.08572 0.66158 0.95286 0.0
Co435 Co 0.08196 0.63661 0.90046 0.0
C436 C 0.0151 0.63475 0.85014 0.0
O437 O 0.98182 0.62413 0.86373 0.0
N438 N 0.09119 0.608 0.89248 0.0
C439 C 0.07876 0.57474 0.88463 0.0
C440 C 0.05638 0.59353 0.88728 0.0
C441 C 0.13447 0.59721 0.8933 0.0
N442 N 0.12799 0.57707 0.88859 0.0
O443 O 0.14826 0.64234 0.88795 0.0
H444 H 0.01668 0.59592 0.88731 0.0
H445 H 0.17033 0.60373 0.89772 0.0
O446 O 0.05481 0.64081 0.8625 0.0
C447 C 0.17322 0.64193 0.91044 0.0
O448 O 0.15077 0.63614 0.93323 0.0
N449 N 0.02004 0.63165 0.91726 0.0
C450 C 0.94918 0.63295 0.95936 0.0
C451 C 0.94265 0.64451 0.93527 0.0
C452 C 0.97916 0.64397 0.91462 0.0
C453 C 0.02549 0.61967 0.9401 0.0
C454 C 0.99039 0.61999 0.96128 0.0
H455 H 0.97664 0.65469 0.89774 0.0
H456 H 0.05955 0.61116 0.94317 0.0
H457 H 0.05619 0.68127 0.87201 0.0
H458 H 0.06963 0.70117 0.95446 0.0
H459 H 0.0599 0.56032 0.88158 0.0
H460 H 0.91169 0.65502 0.93337 0.0
H461 H 0.99679 0.61096 0.97967 0.0
C462 C 0.86098 0.67971 0.57574 0.0
C463 C 0.8691 0.70026 0.57844 0.0
N464 N 0.90523 0.70326 0.5974 0.0
N465 N 0.89144 0.66952 0.59303 0.0
C466 C 0.91822 0.6843 0.60593 0.0
H467 H 0.83585 0.67266 0.56113 0.0
Co468 Co 0.89631 0.64099 0.59349 0.0
C469 C 0.9529 0.63059 0.64441 0.0
O470 O 0.9747 0.61561 0.63103 0.0
N471 N 0.89992 0.61153 0.59319 0.0
C472 C 0.91437 0.57947 0.57991 0.0
C473 C 0.92984 0.59938 0.57787 0.0
C474 C 0.86721 0.59822 0.60488 0.0
N475 N 0.87436 0.57863 0.59669 0.0
O476 O 0.82863 0.63949 0.60607 0.0
H477 H 0.96023 0.60445 0.56502 0.0
H478 H 0.83749 0.60295 0.6185 0.0
O479 O 0.92173 0.64202 0.63171 0.0
C480 C 0.80391 0.63543 0.58418 0.0
O481 O 0.82806 0.63259 0.56091 0.0
N482 N 0.95903 0.64344 0.57713 0.0
C483 C 0.03576 0.65298 0.54043 0.0
C484 C 0.04356 0.65403 0.5692 0.0
C485 C 0.00419 0.64947 0.58736 0.0
C486 C 0.95126 0.64243 0.54934 0.0
C487 C 0.98902 0.6468 0.53074 0.0
H488 H 0.00955 0.65174 0.60926 0.0
H489 H 0.91487 0.63839 0.54151 0.0
H490 H 0.94754 0.68118 0.62071 0.0
H491 H 0.85148 0.71202 0.56618 0.0
H492 H 0.93019 0.56681 0.56858 0.0
H493 H 0.07901 0.65906 0.57751 0.0
H494 H 0.98138 0.64544 0.50882 0.0
C495 C 0.56522 0.36983 0.57471 0.0
C496 C 0.54896 0.35009 0.57188 0.0
N497 N 0.5455 0.34173 0.5972 0.0
N498 N 0.57149 0.37415 0.60175 0.0
C499 C 0.55985 0.35658 0.61501 0.0
H500 H 0.57105 0.38059 0.55811 0.0
Co501 Co 0.58994 0.40016 0.61484 0.0
C502 C 0.52534 0.40437 0.66428 0.0
O503 O 0.50849 0.42136 0.65336 0.0
N504 N 0.61153 0.42651 0.62809 0.0
C505 C 0.6432 0.44957 0.65726 0.0
C506 C 0.61803 0.43151 0.65501 0.0
C507 C 0.63602 0.4417 0.61448 0.0
N508 N 0.65536 0.45601 0.63179 0.0
O509 O 0.65291 0.3895 0.62588 0.0
H510 H 0.60942 0.42195 0.67244 0.0
H511 H 0.64359 0.44139 0.59255 0.0
O512 O 0.55871 0.39409 0.65129 0.0
C513 C 0.67749 0.39208 0.60358 0.0
O514 O 0.655 0.40029 0.58218 0.0
N515 N 0.53017 0.41057 0.59962 0.0
C516 C 0.45756 0.41397 0.55841 0.0
C517 C 0.44814 0.40265 0.5824 0.0
C518 C 0.48525 0.40088 0.60261 0.0
C519 C 0.53812 0.42282 0.57731 0.0
C520 C 0.50231 0.42481 0.55657 0.0
H521 H 0.47984 0.38987 0.6189 0.0
H522 H 0.57447 0.42911 0.57357 0.0
H523 H 0.56046 0.35486 0.63726 0.0
H524 H 0.5403 0.34242 0.55262 0.0
H525 H 0.65378 0.45681 0.6765 0.0
H526 H 0.41438 0.39371 0.58432 0.0
H527 H 0.51106 0.43361 0.53828 0.0
C528 C 0.44137 0.14764 0.01963 0.0
C529 C 0.42323 0.14256 0.99323 0.0
C530 C 0.40905 0.14968 0.04226 0.0
C531 C 0.35741 0.14648 0.03841 0.0
C532 C 0.33873 0.14192 0.01163 0.0
C533 C 0.37188 0.14011 0.98934 0.0
C534 C 0.43025 0.15477 0.07036 0.0
C535 C 0.28378 0.13839 1.00665 0.0
C536 C 0.26663 0.12747 0.09169 0.0
C537 C 0.23587 0.14455 0.09461 0.0
C538 C 0.3101 0.12841 0.0757 0.0
C539 C 0.32256 0.14689 0.06229 0.0
C540 C 0.29513 0.16481 0.06829 0.0
C541 C 0.2518 0.16339 0.08443 0.0
C542 C 0.33857 0.10896 0.07027 0.0
C543 C 0.30764 0.1849 0.05486 0.0
H544 H 0.48105 0.14993 0.02262 0.0
H545 H 0.3578 0.13613 0.96902 0.0
H546 H 0.41015 0.16794 0.0795 0.0
H547 H 0.42495 0.14166 0.08449 0.0
H548 H 0.47066 0.15843 0.06945 0.0
H549 H 0.27518 0.13557 0.98451 0.0
H550 H 0.271 0.12506 0.01882 0.0
H551 H 0.262 0.1518 0.0137 0.0
H552 H 0.25378 0.11283 0.09917 0.0
H553 H 0.22734 0.17651 0.08623 0.0
H554 H 0.37927 0.11184 0.0693 0.0
H555 H 0.32681 0.10257 0.05003 0.0
H556 H 0.33123 0.09735 0.08645 0.0
H557 H 0.34855 0.1873 0.05408 0.0
H558 H 0.29019 0.19789 0.06599 0.0
H559 H 0.29355 0.18486 0.03329 0.0
C560 C 0.13275 0.90054 0.98196 0.0
C561 C 0.08133 0.89898 0.98625 0.0
C562 C 0.16622 0.89912 1.0042 0.0
C563 C 0.14776 0.89578 0.0313 0.0
C564 C 0.09597 0.89343 0.03558 0.0
C565 C 0.06333 0.89515 0.013 0.0
C566 C 0.22129 0.9018 0.99878 0.0
C567 C 0.07499 0.88958 0.06403 0.0
C568 C 0.25294 0.87954 0.07825 0.0
C569 C 0.26965 0.89855 0.08758 0.0
C570 C 0.20954 0.87797 0.0621 0.0
C571 C 0.18302 0.8959 0.05506 0.0
C572 C 0.1965 0.91471 0.06739 0.0
C573 C 0.23988 0.91578 0.08349 0.0
C574 C 0.19576 0.85754 0.04993 0.0
C575 C 0.16917 0.93421 0.06076 0.0
H576 H 0.14667 0.90354 0.96134 0.0
H577 H 0.02354 0.89356 0.01629 0.0
H578 H 0.23529 0.91536 0.01015 0.0
H579 H 0.24223 0.88837 1.00646 0.0
H580 H 0.22962 0.90379 0.97646 0.0
H581 H 0.03432 0.88637 0.0635 0.0
H582 H 0.09433 0.87651 0.07384 0.0
H583 H 0.08148 0.9031 0.07736 0.0
H584 H 0.27664 0.86629 0.08093 0.0
H585 H 0.25336 0.93055 0.09023 0.0
H586 H 0.20945 0.85668 0.02833 0.0
H587 H 0.15471 0.85549 0.04945 0.0
H588 H 0.21269 0.8448 0.06177 0.0
H589 H 0.18117 0.93972 0.04013 0.0
H590 H 0.17728 0.94633 0.07619 0.0
H591 H 0.1283 0.93172 0.05996 0.0
C592 C 0.75819 0.9041 0.4219 0.0
C593 C 0.72179 0.88887 0.42307 0.0
C594 C 0.80196 0.90256 0.4377 0.0
C595 C 0.80896 0.8854 0.45503 0.0
C596 C 0.77506 0.86889 0.45353 0.0
C597 C 0.73166 0.87088 0.43755 0.0
C598 C 0.8375 0.92039 0.43837 0.0
C599 C 0.78123 0.85023 0.47139 0.0
C600 C 0.93006 0.88072 0.49547 0.0
C601 C 0.91726 0.88994 0.52075 0.0
C602 C 0.89518 0.87885 0.47395 0.0
C603 C 0.84623 0.88628 0.47783 0.0
C604 C 0.83261 0.89501 0.50361 0.0
C605 C 0.86829 0.89672 0.52475 0.0
C606 C 0.91099 0.86935 0.4469 0.0
C607 C 0.78057 0.90299 0.50866 0.0
H608 H 0.74996 0.9182 0.41115 0.0
H609 H 0.70283 0.85932 0.43891 0.0
H610 H 0.83147 0.92925 0.45764 0.0
H611 H 0.87676 0.91508 0.43838 0.0
H612 H 0.83175 0.93074 0.42049 0.0
H613 H 0.75776 0.83737 0.46397 0.0
H614 H 0.8207 0.84521 0.47195 0.0
H615 H 0.76996 0.85395 0.49288 0.0
H616 H 0.96765 0.87509 0.4924 0.0
H617 H 0.85826 0.90397 0.54411 0.0
H618 H 0.90863 0.88085 0.43016 0.0
H619 H 0.88543 0.85671 0.44127 0.0
H620 H 0.94971 0.86336 0.44769 0.0
H621 H 0.77226 0.91552 0.49399 0.0
H622 H 0.77563 0.90882 0.53006 0.0
H623 H 0.75281 0.89075 0.50492 0.0
C624 C 0.73912 0.12878 0.42272 0.0
C625 C 0.77068 0.14573 0.42205 0.0
C626 C 0.69562 0.12899 0.43882 0.0
C627 C 0.68386 0.14662 0.45449 0.0
C628 C 0.712 0.16465 0.45068 0.0
C629 C 0.75538 0.16395 0.43451 0.0
C630 C 0.6664 0.10947 0.4418 0.0
C631 C 0.70016 0.18393 0.46641 0.0
C632 C 0.5652 0.14654 0.49744 0.0
C633 C 0.58321 0.14034 0.52338 0.0
C634 C 0.59747 0.14903 0.47487 0.0
C635 C 0.6489 0.14505 0.47827 0.0
C636 C 0.66739 0.13913 0.50457 0.0
C637 C 0.63433 0.137 0.52686 0.0
C638 C 0.57648 0.15559 0.44732 0.0
C639 C 0.72205 0.13464 0.50904 0.0
H640 H 0.75145 0.11459 0.41344 0.0
H641 H 0.78039 0.17695 0.43439 0.0
H642 H 0.68006 0.10112 0.46025 0.0
H643 H 0.62607 0.11249 0.4447 0.0
H644 H 0.67127 0.09947 0.42344 0.0
H645 H 0.7185 0.19743 0.45703 0.0
H646 H 0.65935 0.18663 0.46719 0.0
H647 H 0.71368 0.18243 0.488 0.0
H648 H 0.52568 0.14943 0.4948 0.0
H649 H 0.64824 0.13213 0.54684 0.0
H650 H 0.58217 0.14333 0.43182 0.0
H651 H 0.59651 0.16927 0.43974 0.0
H652 H 0.53602 0.15911 0.44847 0.0
H653 H 0.73393 0.12201 0.49524 0.0
H654 H 0.73042 0.13031 0.53074 0.0
H655 H 0.74475 0.1482 0.50367 0.0
C656 C 0.74891 0.87707 0.92865 0.0
C657 C 0.76534 0.89555 0.91755 0.0
C658 C 0.70611 0.87634 0.9453 0.0
C659 C 0.6799 0.8946 0.95099 0.0
C660 C 0.69265 0.91268 0.93673 0.0
C661 C 0.73538 0.91291 0.92009 0.0
C662 C 0.69302 0.85661 0.95952 0.0
C663 C 0.66557 0.9325 0.94191 0.0
C664 C 0.5633 0.89613 0.99539 0.0
C665 C 0.58319 0.90129 0.02134 0.0
C666 C 0.5943 0.89323 0.97237 0.0
C667 C 0.64633 0.89581 0.97537 0.0
C668 C 0.6667 0.90053 1.00172 0.0
C669 C 0.63483 0.90306 0.02446 0.0
C670 C 0.57135 0.88785 0.9448 0.0
C671 C 0.7221 0.90348 1.00576 0.0
H672 H 0.77268 0.86373 0.9271 0.0
H673 H 0.74844 0.9273 0.9119 0.0
H674 H 0.70819 0.85683 0.98087 0.0
H675 H 0.65202 0.85466 0.96098 0.0
H676 H 0.70909 0.84326 0.94853 0.0
H677 H 0.67318 0.94383 0.92542 0.0
H678 H 0.62474 0.93006 0.94329 0.0
H679 H 0.67824 0.93901 0.96192 0.0
H680 H 0.5233 0.8944 0.99309 0.0
H681 H 0.65014 0.90705 0.0445 0.0
H682 H 0.59023 0.87435 0.93578 0.0
H683 H 0.57658 0.90066 0.93016 0.0
H684 H 0.53082 0.88459 0.94649 0.0
H685 H 0.74252 0.88963 0.99905 0.0
H686 H 0.73195 0.90675 0.02764 0.0
H687 H 0.7353 0.91632 0.99279 0.0
C688 C 0.7696 0.12421 0.92449 0.0
C689 C 0.73854 0.14096 0.91983 0.0
C690 C 0.81284 0.12619 0.94052 0.0
C691 C 0.82471 0.14542 0.95215 0.0
C692 C 0.79722 0.16287 0.94415 0.0
C693 C 0.75414 0.16041 0.92797 0.0
C694 C 0.84148 0.10719 0.94806 0.0
C695 C 0.80926 0.18371 0.95558 0.0
C696 C 0.87117 0.14187 0.02604 0.0
C697 C 0.92273 0.14362 0.02251 0.0
C698 C 0.8388 0.1431 1.0033 0.0
C699 C 0.85856 0.14636 0.97647 0.0
C700 C 0.91042 0.1491 0.97299 0.0
C701 C 0.94193 0.14762 0.99606 0.0
C702 C 0.78357 0.14011 0.00789 0.0
C703 C 0.93275 0.1529 0.94484 0.0
H704 H 0.757 0.10914 0.91844 0.0
H705 H 0.72953 0.17331 0.92471 0.0
H706 H 0.88214 0.11019 0.94879 0.0
H707 H 0.82977 0.10204 0.96891 0.0
H708 H 0.83432 0.09461 0.93317 0.0
H709 H 0.79246 0.19598 0.94279 0.0
H710 H 0.79406 0.18502 0.97683 0.0
H711 H 0.85014 0.18614 0.95678 0.0
H712 H 0.85633 0.13876 0.04644 0.0
H713 H 0.98183 0.14937 0.99337 0.0
H714 H 0.77083 0.1262 0.99686 0.0
H715 H 0.76245 0.1532 0.99932 0.0
H716 H 0.77408 0.13855 0.03013 0.0
H717 H 0.92947 0.13892 0.93204 0.0
H718 H 0.97276 0.15719 0.94612 0.0
H719 H 0.91215 0.16518 0.93399 0.0
C720 C 0.06068 0.13419 0.52166 0.0
C721 C 0.08133 0.133 0.49506 0.0
C722 C 0.09128 0.13601 0.54511 0.0
C723 C 0.14363 0.13631 0.54179 0.0
C724 C 0.16456 0.1351 0.51489 0.0
C725 C 0.13308 0.13366 0.49184 0.0
C726 C 0.0677 0.13769 0.57334 0.0
C727 C 0.22034 0.13511 0.51044 0.0
C728 C 0.24375 0.1562 0.58898 0.0
C729 C 0.26663 0.13787 0.59643 0.0
C730 C 0.19894 0.15614 0.57394 0.0
C731 C 0.17745 0.13726 0.5661 0.0
C732 C 0.19671 0.11892 0.57714 0.0
C733 C 0.24129 0.11947 0.5922 0.0
C734 C 0.17877 0.17609 0.56326 0.0
C735 C 0.17491 0.09842 0.5696 0.0
H736 H 0.02049 0.13402 0.52407 0.0
H737 H 0.1489 0.13273 0.47126 0.0
H738 H 0.07995 0.12483 0.58654 0.0
H739 H 0.08012 0.15194 0.58365 0.0
H740 H 0.02631 0.13766 0.57231 0.0
H741 H 0.23046 0.13386 0.48824 0.0
H742 H 0.23678 0.14936 0.51882 0.0
H743 H 0.23757 0.12218 0.52169 0.0
H744 H 0.2638 0.17041 0.59189 0.0
H745 H 0.2593 0.10523 0.59748 0.0
H746 H 0.13742 0.17598 0.56275 0.0
H747 H 0.19219 0.1785 0.54182 0.0
H748 H 0.19156 0.18913 0.57612 0.0
H749 H 0.13361 0.09895 0.56918 0.0
H750 H 0.18691 0.08637 0.5843 0.0
H751 H 0.18785 0.09405 0.54862 0.0
C752 C 0.2676 0.88892 0.58911 0.0
C753 C 0.23972 0.90617 0.59613 0.0
C754 C 0.31197 0.8909 0.57401 0.0
C755 C 0.32789 0.91057 0.56583 0.0
C756 C 0.304 0.92801 0.57684 0.0
C757 C 0.26005 0.92556 0.59209 0.0
C758 C 0.33716 0.87191 0.56332 0.0
C759 C 0.32015 0.94924 0.56901 0.0
C760 C 0.44103 0.91641 0.51927 0.0
C761 C 0.41875 0.91606 0.49297 0.0
C762 C 0.41215 0.91482 0.54335 0.0
C763 C 0.35987 0.91278 0.54098 0.0
C764 C 0.33716 0.91275 0.51447 0.0
C765 C 0.36693 0.91433 0.4908 0.0
C766 C 0.43771 0.91469 0.57116 0.0
C767 C 0.28132 0.91083 0.51101 0.0
H768 H 0.25143 0.87392 0.59202 0.0
H769 H 0.23808 0.93888 0.59737 0.0
H770 H 0.32448 0.86891 0.54184 0.0
H771 H 0.37824 0.87381 0.56289 0.0
H772 H 0.32779 0.8584 0.57611 0.0
H773 H 0.30166 0.96093 0.58205 0.0
H774 H 0.36116 0.95089 0.57098 0.0
H775 H 0.31015 0.95218 0.54711 0.0
H776 H 0.48127 0.91733 0.52101 0.0
H777 H 0.34969 0.91417 0.47052 0.0
H778 H 0.43612 0.89911 0.57997 0.0
H779 H 0.41843 0.92501 0.58586 0.0
H780 H 0.47745 0.91934 0.56968 0.0
H781 H 0.26833 0.8962 0.51991 0.0
H782 H 0.26964 0.91143 0.48899 0.0
H783 H 0.2622 0.9233 0.52235 0.0
C784 C 0.76 0.62684 0.08446 0.0
C785 C 0.73085 0.64452 0.08506 0.0
C786 C 0.80393 0.62606 0.0688 0.0
C787 C 0.81876 0.64345 0.05359 0.0
C788 C 0.79344 0.66215 0.05764 0.0
C789 C 0.74934 0.66242 0.07323 0.0
C790 C 0.82995 0.6058 0.06558 0.0
C791 C 0.80896 0.68125 0.04261 0.0
C792 C 0.93595 0.64037 0.00952 0.0
C793 C 0.91585 0.63572 0.98345 0.0
C794 C 0.90495 0.64324 0.03259 0.0
C795 C 0.8528 0.64102 0.02953 0.0
C796 C 0.83243 0.63624 1.00321 0.0
C797 C 0.86422 0.63388 0.98042 0.0
C798 C 0.9279 0.64864 0.06015 0.0
C799 C 0.77699 0.63342 0.99913 0.0
H800 H 0.74558 0.61293 0.09338 0.0
H801 H 0.72637 0.67603 0.07339 0.0
H802 H 0.81388 0.59765 0.04753 0.0
H803 H 0.87049 0.60766 0.06196 0.0
H804 H 0.82449 0.59615 0.08417 0.0
H805 H 0.79306 0.69511 0.05246 0.0
H806 H 0.85016 0.68268 0.04201 0.0
H807 H 0.79536 0.68052 0.02096 0.0
H808 H 0.97597 0.64206 0.01176 0.0
H809 H 0.84882 0.63023 0.96027 0.0
H810 H 0.9188 0.63675 0.07561 0.0
H811 H 0.91201 0.66319 0.06785 0.0
H812 H 0.96909 0.65019 0.05894 0.0
H813 H 0.76306 0.62126 0.01304 0.0
H814 H 0.76735 0.62928 0.9775 0.0
H815 H 0.75704 0.64768 1.00458 0.0
C816 C 0.72295 0.40675 0.09749 0.0
C817 C 0.75773 0.39107 0.10092 0.0
C818 C 0.68167 0.40427 0.08 0.0
C819 C 0.67532 0.38564 0.06557 0.0
C820 C 0.70717 0.36898 0.07154 0.0
C821 C 0.74828 0.37193 0.08919 0.0
C822 C 0.64843 0.4224 0.07452 0.0
C823 C 0.70132 0.34877 0.05699 0.0
C824 C 0.55644 0.38146 0.02318 0.0
C825 C 0.57241 0.38847 0.99723 0.0
C826 C 0.58989 0.37948 0.04535 0.0
C827 C 0.64049 0.38478 0.04156 0.0
C828 C 0.6573 0.39093 0.01503 0.0
C829 C 0.62305 0.3926 0.99313 0.0
C830 C 0.57064 0.37255 0.07309 0.0
C831 C 0.71107 0.39667 0.01008 0.0
H832 H 0.73106 0.42169 0.10606 0.0
H833 H 0.77598 0.35998 0.09124 0.0
H834 H 0.65684 0.42864 0.05373 0.0
H835 H 0.60862 0.41783 0.07464 0.0
H836 H 0.65401 0.43472 0.09002 0.0
H837 H 0.72186 0.33643 0.06783 0.0
H838 H 0.66145 0.34443 0.05534 0.0
H839 H 0.71633 0.35 0.0357 0.0
H840 H 0.51737 0.37789 0.02629 0.0
H841 H 0.63548 0.39804 0.97315 0.0
H842 H 0.57125 0.38553 0.08782 0.0
H843 H 0.59501 0.36047 0.08173 0.0
H844 H 0.53188 0.36665 0.0718 0.0
H845 H 0.7206 0.41038 0.0225 0.0
H846 H 0.71871 0.4 0.98798 0.0
H847 H 0.73609 0.38418 0.01687 0.0
C848 C 0.25765 0.38294 0.44578 0.0
C849 C 0.23831 0.40012 0.43246 0.0
C850 C 0.30128 0.3843 0.46173 0.0
C851 C 0.3255 0.40338 0.46453 0.0
C852 C 0.30976 0.42 0.44804 0.0
C853 C 0.26611 0.41814 0.43217 0.0
C854 C 0.31754 0.36599 0.47829 0.0
C855 C 0.33481 0.44053 0.44977 0.0
C856 C 0.37248 0.41488 0.53704 0.0
C857 C 0.42399 0.41236 0.53409 0.0
C858 C 0.34032 0.4124 0.51436 0.0
C859 C 0.3601 0.40688 0.48819 0.0
C860 C 0.41216 0.40438 0.48508 0.0
C861 C 0.44353 0.40725 0.50804 0.0
C862 C 0.28502 0.41554 0.51848 0.0
C863 C 0.43457 0.39831 0.45766 0.0
H864 H 0.23564 0.36907 0.44637 0.0
H865 H 0.25089 0.43149 0.4221 0.0
H866 H 0.35878 0.36472 0.47872 0.0
H867 H 0.30454 0.36773 0.49994 0.0
H868 H 0.30172 0.35163 0.4698 0.0
H869 H 0.32929 0.44928 0.43038 0.0
H870 H 0.31805 0.44935 0.46702 0.0
H871 H 0.37537 0.43914 0.45379 0.0
H872 H 0.35738 0.41885 0.55712 0.0
H873 H 0.48335 0.40495 0.50581 0.0
H874 H 0.26476 0.40115 0.51403 0.0
H875 H 0.27103 0.42723 0.50384 0.0
H876 H 0.27586 0.42046 0.53986 0.0
H877 H 0.42014 0.38315 0.45135 0.0
H878 H 0.47593 0.3976 0.45846 0.0
H879 H 0.42337 0.4093 0.44141 0.0
C880 C 0.22295 0.64255 0.41781 0.0
C881 C 0.26246 0.65644 0.41776 0.0
C882 C 0.18186 0.6454 0.43532 0.0
C883 C 0.18083 0.66247 0.4533 0.0
C884 C 0.21798 0.67771 0.45093 0.0
C885 C 0.25855 0.67447 0.43312 0.0
C886 C 0.14267 0.62892 0.43682 0.0
C887 C 0.21812 0.69624 0.46946 0.0
C888 C 0.06329 0.66909 0.49606 0.0
C889 C 0.07534 0.65811 0.52009 0.0
C890 C 0.09782 0.67139 0.47452 0.0
C891 C 0.1457 0.66262 0.47712 0.0
C892 C 0.15912 0.6526 0.50201 0.0
C893 C 0.12374 0.65045 0.52321 0.0
C894 C 0.08219 0.68232 0.44848 0.0
C895 C 0.21013 0.64324 0.50574 0.0
H896 H 0.22672 0.62836 0.40644 0.0
H897 H 0.28988 0.68493 0.43361 0.0
H898 H 0.14821 0.6199 0.45596 0.0
H899 H 0.10478 0.63567 0.43774 0.0
H900 H 0.1446 0.61839 0.41884 0.0
H901 H 0.24302 0.70837 0.46138 0.0
H902 H 0.17999 0.70254 0.47184 0.0
H903 H 0.23158 0.69182 0.49031 0.0
H904 H 0.02619 0.67543 0.49376 0.0
H905 H 0.13323 0.64192 0.54164 0.0
H906 H 0.0785 0.67113 0.43137 0.0
H907 H 0.11093 0.69355 0.44224 0.0
H908 H 0.04598 0.69034 0.45098 0.0
H909 H 0.21505 0.63052 0.49082 0.0
H910 H 0.21583 0.63724 0.52696 0.0
H911 H 0.23953 0.65468 0.50139 0.0
C912 C 0.2236 0.41718 0.93243 0.0
C913 C 0.25061 0.39896 0.93131 0.0
C914 C 0.18043 0.41875 0.94866 0.0
C915 C 0.16443 0.40166 0.96414 0.0
C916 C 0.18781 0.38254 0.95997 0.0
C917 C 0.23088 0.38145 0.94357 0.0
C918 C 0.15624 0.43937 0.95192 0.0
C919 C 0.17136 0.36381 0.97552 0.0
C920 C 0.11854 0.41173 0.0372 0.0
C921 C 0.06688 0.40978 0.03415 0.0
C922 C 0.15048 0.40933 0.01445 0.0
C923 C 0.13028 0.40456 0.98808 0.0
C924 C 0.07814 0.40247 0.98491 0.0
C925 C 0.04705 0.40517 0.00797 0.0
C926 C 0.20595 0.41191 0.01864 0.0
C927 C 0.05529 0.39724 0.95726 0.0
H928 H 0.23923 0.4308 0.92326 0.0
H929 H 0.25235 0.36743 0.94309 0.0
H930 H 0.11546 0.43805 0.95524 0.0
H931 H 0.17252 0.44716 0.97021 0.0
H932 H 0.16295 0.44906 0.9335 0.0
H933 H 0.18644 0.34964 0.96607 0.0
H934 H 0.18502 0.36476 0.99715 0.0
H935 H 0.13011 0.36275 0.97621 0.0
H936 H 0.1339 0.41533 0.05737 0.0
H937 H 0.00711 0.40328 1.00562 0.0
H938 H 0.22024 0.42406 1.00484 0.0
H939 H 0.22558 0.39759 0.0131 0.0
H940 H 0.21556 0.41593 0.04032 0.0
H941 H 0.06598 0.40882 0.94168 0.0
H942 H 0.01396 0.39639 0.95819 0.0
H943 H 0.06985 0.38236 0.94992 0.0
C944 C 0.25966 0.63027 0.91437 0.0
C945 C 0.22642 0.64665 0.91254 0.0
C946 C 0.30233 0.63155 0.93107 0.0
C947 C 0.31198 0.64977 0.94588 0.0
C948 C 0.28225 0.66722 0.94091 0.0
C949 C 0.23944 0.66539 0.92436 0.0
C950 C 0.33308 0.61256 0.93561 0.0
C951 C 0.29191 0.6871 0.95571 0.0
C952 C 0.36201 0.64204 0.01859 0.0
C953 C 0.41301 0.64548 0.01489 0.0
C954 C 0.32867 0.64378 0.99632 0.0
C955 C 0.34681 0.64939 0.96985 0.0
C956 C 0.39803 0.6537 0.9663 0.0
C957 C 0.43059 0.65157 0.98884 0.0
C958 C 0.27424 0.63897 1.00094 0.0
C959 C 0.41858 0.6601 0.93861 0.0
H960 H 0.24944 0.61569 0.9055 0.0
H961 H 0.21319 0.67796 0.92336 0.0
H962 H 0.37345 0.61619 0.93583 0.0
H963 H 0.32356 0.60592 0.95602 0.0
H964 H 0.32592 0.60085 0.91947 0.0
H965 H 0.27279 0.70004 0.94538 0.0
H966 H 0.27775 0.68604 0.9772 0.0
H967 H 0.33244 0.69039 0.95682 0.0
H968 H 0.34847 0.63729 0.03867 0.0
H969 H 0.47004 0.65454 0.98608 0.0
H970 H 0.263 0.62587 0.98778 0.0
H971 H 0.25087 0.65218 0.99486 0.0
H972 H 0.26607 0.63517 0.02284 0.0
H973 H 0.41512 0.64733 0.92367 0.0
H974 H 0.45844 0.66463 0.93989 0.0
H975 H 0.39677 0.67306 0.93023 0.0
C976 C 0.54583 0.62609 0.50674 0.0
C977 C 0.56575 0.62401 0.47998 0.0
C978 C 0.57688 0.62787 0.53 0.0
C979 C 0.62913 0.62785 0.52643 0.0
C980 C 0.64953 0.6257 0.49952 0.0
C981 C 0.6176 0.62376 0.47666 0.0
C982 C 0.55379 0.63008 0.55829 0.0
C983 C 0.70522 0.62565 0.49482 0.0
C984 C 0.72436 0.65182 0.57375 0.0
C985 C 0.74954 0.63443 0.58292 0.0
C986 C 0.6813 0.65005 0.55741 0.0
C987 C 0.66317 0.6304 0.55049 0.0
C988 C 0.68454 0.613 0.56308 0.0
C989 C 0.72794 0.61525 0.57898 0.0
C990 C 0.65956 0.66903 0.5446 0.0
C991 C 0.66571 0.5918 0.55691 0.0
H992 H 0.50578 0.62683 0.50952 0.0
H993 H 0.63325 0.62206 0.45614 0.0
H994 H 0.56915 0.61842 0.57252 0.0
H995 H 0.56326 0.64522 0.56709 0.0
H996 H 0.51255 0.62854 0.55774 0.0
H997 H 0.71504 0.62391 0.47264 0.0
H998 H 0.72167 0.6401 0.50257 0.0
H999 H 0.72268 0.613 0.50655 0.0
H1000 H 0.74175 0.66663 0.57633 0.0
H1001 H 0.74819 0.6018 0.58542 0.0
H1002 H 0.61826 0.66833 0.5441 0.0
H1003 H 0.67279 0.67032 0.52295 0.0
H1004 H 0.67111 0.68299 0.55596 0.0
H1005 H 0.62437 0.59143 0.55648 0.0
H1006 H 0.67926 0.58059 0.57239 0.0
H1007 H 0.67922 0.58698 0.53623 0.0
C1008 C 0.86662 0.39177 0.49392 0.0
C1009 C 0.91752 0.38827 0.49809 0.0
C1010 C 0.83251 0.38959 0.51573 0.0
C1011 C 0.84974 0.3835 0.54223 0.0
C1012 C 0.90077 0.37894 0.54613 0.0
C1013 C 0.93409 0.38148 0.52405 0.0
C1014 C 0.77832 0.39464 0.51071 0.0
C1015 C 0.92044 0.37206 0.57382 0.0
C1016 C 0.76369 0.40311 0.59794 0.0
C1017 C 0.73013 0.38688 0.60015 0.0
C1018 C 0.80589 0.4016 0.58097 0.0
C1019 C 0.81452 0.38335 0.56601 0.0
C1020 C 0.78405 0.36611 0.57098 0.0
C1021 C 0.74183 0.36814 0.58794 0.0
C1022 C 0.83748 0.42035 0.57647 0.0
C1023 C 0.79255 0.34624 0.55596 0.0
H1024 H 0.85382 0.39706 0.47392 0.0
H1025 H 0.97343 0.37845 0.52719 0.0
H1026 H 0.7544 0.3816 0.51676 0.0
H1027 H 0.76731 0.40786 0.52368 0.0
H1028 H 0.77066 0.39839 0.48873 0.0
H1029 H 0.95985 0.36692 0.57263 0.0
H1030 H 0.91813 0.38482 0.58885 0.0
H1031 H 0.89736 0.35942 0.58205 0.0
H1032 H 0.75384 0.41776 0.60687 0.0
H1033 H 0.71512 0.35575 0.58912 0.0
H1034 H 0.82875 0.42693 0.55591 0.0
H1035 H 0.87769 0.41642 0.57664 0.0
H1036 H 0.83049 0.4322 0.59244 0.0
H1037 H 0.77832 0.34755 0.53449 0.0
H1038 H 0.77283 0.33341 0.56616 0.0
H1039 H 0.83289 0.3426 0.55478 0.0
C1040 C 0.20652 0.06407 0.10633 0.0
C1041 C 0.16262 0.06339 0.122 0.0
C1042 C 0.24015 0.04761 0.10619 0.0
C1043 C 0.23039 0.03025 0.12276 0.0
C1044 C 0.18666 0.02976 0.13918 0.0
C1045 C 0.15296 0.04619 0.13826 0.0
C1046 C 0.28556 0.04862 0.08782 0.0
C1047 C 0.17545 1.01186 0.15772 0.0
C1048 C 0.29217 0.97969 0.10385 0.0
C1049 C 0.33454 0.97984 0.12083 0.0
C1050 C 0.25804 0.99599 0.1042 0.0
C1051 C 0.26565 1.01256 0.12262 0.0
C1052 C 0.30764 1.01242 0.14044 0.0
C1053 C 0.34196 0.99623 0.139 0.0
C1054 C 0.21458 0.99571 0.08434 0.0
C1055 C 0.31652 0.02943 0.16091 0.0
H1056 H 0.21361 0.07721 0.0934 0.0
H1057 H 0.11908 0.04572 0.15043 0.0
H1058 H 0.31987 0.04839 0.10063 0.0
H1059 H 0.28682 0.03509 0.07403 0.0
H1060 H 0.28602 0.06258 0.07486 0.0
H1061 H 0.14137 1.01431 0.17032 0.0
H1062 H 0.17028 0.9979 0.14509 0.0
H1063 H 0.20737 1.00905 0.17182 0.0
H1064 H 0.28687 0.96718 0.0895 0.0
H1065 H 0.37466 0.99627 0.15218 0.0
H1066 H 0.21421 1.0099 0.07189 0.0
H1067 H 0.17905 0.99516 0.09602 0.0
H1068 H 0.2159 0.98245 0.07006 0.0
H1069 H 0.32315 0.04393 0.14975 0.0
H1070 H 0.34904 0.02639 0.17453 0.0
H1071 H 0.28299 0.03164 0.17399 0.0
C1072 C 0.67882 0.9904 0.3743 0.0
C1073 C 0.67171 0.97662 0.39609 0.0
C1074 C 0.71276 1.00661 0.37652 0.0
C1075 C 0.74023 1.00933 0.40127 0.0
C1076 C 0.7334 0.99545 0.42338 0.0
C1077 C 0.69949 0.97917 0.42045 0.0
C1078 C 0.71931 0.02082 0.35228 0.0
C1079 C 0.76127 0.99802 0.45027 0.0
C1080 C 0.85919 0.04054 0.3945 0.0
C1081 C 0.84307 0.06027 0.40163 0.0
C1082 C 0.82659 0.02377 0.3951 0.0
C1083 C 0.77657 0.02656 0.40357 0.0
C1084 C 0.76059 0.04615 0.41221 0.0
C1085 C 0.79377 0.06276 0.41089 0.0
C1086 C 0.84529 1.00319 0.38566 0.0
C1087 C 0.70781 0.04984 0.42179 0.0
H1088 H 0.65805 0.98835 0.35528 0.0
H1089 H 0.6938 0.96873 0.43747 0.0
H1090 H 0.70957 0.03661 0.3585 0.0
H1091 H 0.75889 0.02092 0.34563 0.0
H1092 H 0.69573 1.01644 0.33433 0.0
H1093 H 0.75189 0.98595 0.46546 0.0
H1094 H 0.80205 0.99771 0.44649 0.0
H1095 H 0.75232 1.01309 0.45948 0.0
H1096 H 0.8973 0.03809 0.38804 0.0
H1097 H 0.78037 0.07777 0.41642 0.0
H1098 H 0.82499 0.99846 0.3667 0.0
H1099 H 0.83784 0.99151 0.40168 0.0
H1100 H 0.88588 1.00328 0.38111 0.0
H1101 H 0.68291 0.0509 0.40352 0.0
H1102 H 0.70459 0.06424 0.43376 0.0
H1103 H 0.69429 0.0371 0.43483 0.0
C1104 C 0.70641 0.06136 0.9077 0.0
C1105 C 0.66171 0.06087 0.89268 0.0
C1106 C 0.73994 0.04488 0.90697 0.0
C1107 C 0.72932 0.0277 0.89009 0.0
C1108 C 0.68475 0.02742 0.87428 0.0
C1109 C 0.65109 0.04385 0.87616 0.0
C1110 C 0.78616 0.04565 0.92479 0.0
C1111 C 0.67261 1.00978 0.85537 0.0
C1112 C 0.8403 0.9938 0.87187 0.0
C1113 C 0.83338 0.97718 0.8896 0.0
C1114 C 0.80593 1.01001 0.87117 0.0
C1115 C 0.76449 1.00996 0.88935 0.0
C1116 C 0.75745 0.99316 0.90735 0.0
C1117 C 0.79151 0.97684 0.90691 0.0
C1118 C 0.81408 0.02723 0.85103 0.0
C1119 C 0.71472 0.99267 0.92762 0.0
H1120 H 0.71416 0.07438 0.92083 0.0
H1121 H 0.61652 0.04353 0.86455 0.0
H1122 H 0.78778 0.03201 0.9383 0.0
H1123 H 0.81991 0.04541 0.91158 0.0
H1124 H 0.78741 0.05951 0.938 0.0
H1125 H 0.63806 1.01244 0.84322 0.0
H1126 H 0.70394 1.00709 0.84085 0.0
H1127 H 0.66778 0.99567 0.86766 0.0
H1128 H 0.87256 0.99398 0.85841 0.0
H1129 H 0.78651 0.96412 0.92089 0.0
H1130 H 0.82135 0.04159 0.86247 0.0
H1131 H 0.78 0.02963 0.83841 0.0
H1132 H 0.84597 0.02428 0.83695 0.0
H1133 H 0.7155 1.00653 0.94082 0.0
H1134 H 0.71596 0.97904 0.94118 0.0
H1135 H 0.67871 0.99269 0.91634 0.0
C1136 C 0.18791 0.97942 0.6321 0.0
C1137 C 0.15315 0.97939 0.61034 0.0
C1138 C 0.22317 0.99525 0.63505 0.0
C1139 C 0.22419 1.01145 0.61568 0.0
C1140 C 0.18885 1.01163 0.5939 0.0
C1141 C 0.15391 0.99571 0.59154 0.0
C1142 C 0.25986 0.99448 0.65869 0.0
C1143 C 0.18905 0.0283 0.57243 0.0
C1144 C 0.29231 0.06154 0.63116 0.0
C1145 C 0.33779 0.05877 0.61724 0.0
C1146 C 0.25541 0.04619 0.63131 0.0
C1147 C 0.26385 0.02759 0.61708 0.0
C1148 C 0.30971 0.02469 0.60313 0.0
C1149 C 0.34592 0.04018 0.60346 0.0
C1150 C 0.20716 0.04997 0.64649 0.0
C1151 C 0.32078 1.00517 0.58775 0.0
H1152 H 0.18756 0.96706 0.64688 0.0
H1153 H 0.12815 0.99577 0.57431 0.0
H1154 H 0.29815 0.99246 0.65049 0.0
H1155 H 0.25926 1.00907 0.67033 0.0
H1156 H 0.25181 0.9818 0.6732 0.0
H1157 H 0.15776 0.0268 0.55749 0.0
H1158 H 0.18655 0.04346 0.58254 0.0
H1159 H 0.22468 0.02789 0.56079 0.0
H1160 H 0.28551 0.07569 0.64208 0.0
H1161 H 0.38029 0.03782 0.59221 0.0
H1162 H 0.20027 0.03754 0.66153 0.0
H1163 H 0.17563 0.04993 0.63162 0.0
H1164 H 0.20721 0.06476 0.65771 0.0
H1165 H 0.32583 0.99269 0.6029 0.0
H1166 H 0.35518 1.00626 0.57506 0.0
H1167 H 0.28924 1.00096 0.57402 0.0
C1168 C 0.82035 0.49419 0.14513 0.0
C1169 C 0.81999 0.47777 0.12647 0.0
C1170 C 0.79017 0.51142 0.14097 0.0
C1171 C 0.75862 0.51236 0.11754 0.0
C1172 C 0.75953 0.49622 0.098 0.0
C1173 C 0.79016 0.47911 0.10269 0.0
C1174 C 0.79101 0.52837 0.16211 0.0
C1175 C 0.72715 0.4968 0.07248 0.0
C1176 C 0.64133 0.54483 0.1238 0.0
C1177 C 0.65539 0.5629 0.11049 0.0
C1178 C 0.67444 0.5283 0.12606 0.0
C1179 C 0.72278 0.5297 0.1144 0.0
C1180 C 0.73699 0.54782 0.10058 0.0
C1181 C 0.70334 0.56427 0.09907 0.0
C1182 C 0.65776 0.50937 0.14114 0.0
C1183 C 0.78783 0.55008 0.0876 0.0
H1184 H 0.84386 0.49339 0.16332 0.0
H1185 H 0.78925 0.46647 0.08827 0.0
H1186 H 0.79996 0.54305 0.15192 0.0
H1187 H 0.75358 0.52999 0.17163 0.0
H1188 H 0.81872 0.52562 0.17878 0.0
H1189 H 0.73419 0.48366 0.0585 0.0
H1190 H 0.68726 0.49666 0.07855 0.0
H1191 H 0.73387 0.51113 0.06092 0.0
H1192 H 0.60444 0.54373 0.13276 0.0
H1193 H 0.71414 0.57803 0.08832 0.0
H1194 H 0.68267 0.50653 0.15905 0.0
H1195 H 0.66049 0.49593 0.12727 0.0
H1196 H 0.6188 0.51059 0.14874 0.0
H1197 H 0.81494 0.55481 0.10372 0.0
H1198 H 0.78769 0.56185 0.07114 0.0
H1199 H 0.80109 0.53552 0.07852 0.0
C1200 C 0.30501 0.55021 0.36768 0.0
C1201 C 0.30682 0.56609 0.38716 0.0
C1202 C 0.2756 0.5328 0.37205 0.0
C1203 C 0.24702 0.53113 0.39651 0.0
C1204 C 0.24976 0.54681 0.41667 0.0
C1205 C 0.2796 0.5641 0.41177 0.0
C1206 C 0.27465 0.51627 0.3503 0.0
C1207 C 0.22075 0.54538 0.4433 0.0
C1208 C 0.13237 0.49683 0.39403 0.0
C1209 C 0.1501 0.47882 0.40613 0.0
C1210 C 0.16342 0.51395 0.39096 0.0
C1211 C 0.21334 0.51321 0.40057 0.0
C1212 C 0.23117 0.49516 0.41326 0.0
C1213 C 0.19951 0.47815 0.4156 0.0
C1214 C 0.14289 0.5328 0.37719 0.0
C1215 C 0.28381 0.49352 0.4241 0.0
H1216 H 0.32663 0.55145 0.34886 0.0
H1217 H 0.28042 0.5763 0.42686 0.0
H1218 H 0.2867 0.50159 0.35949 0.0
H1219 H 0.23603 0.51415 0.34255 0.0
H1220 H 0.29928 0.51979 0.33249 0.0
H1221 H 0.22792 0.55854 0.45724 0.0
H1222 H 0.18022 0.5447 0.43875 0.0
H1223 H 0.23075 0.53113 0.45431 0.0
H1224 H 0.09427 0.49739 0.38662 0.0
H1225 H 0.2131 0.46445 0.42549 0.0
H1226 H 0.16486 0.53627 0.35835 0.0
H1227 H 0.1464 0.54609 0.39128 0.0
H1228 H 0.10309 0.53106 0.37124 0.0
H1229 H 0.30855 0.48826 0.40715 0.0
H1230 H 0.28621 0.48229 0.44117 0.0
H1231 H 0.29816 0.50834 0.43176 0.0
C1232 C 0.28796 0.47723 0.9178 0.0
C1233 C 0.33427 0.47702 0.90443 0.0
C1234 C 0.25556 0.49402 0.91545 0.0
C1235 C 0.26898 0.51076 0.89849 0.0
C1236 C 0.31556 0.51045 0.88463 0.0
C1237 C 0.34797 0.49375 0.88816 0.0
C1238 C 0.20701 0.49378 0.9312 0.0
C1239 C 0.33098 0.52769 0.86588 0.0
C1240 C 0.16154 0.54392 0.87279 0.0
C1241 C 0.16493 0.56103 0.89013 0.0
C1242 C 0.19588 0.52776 0.87479 0.0
C1243 C 0.23405 0.52844 0.89506 0.0
C1244 C 0.23782 0.54576 0.91255 0.0
C1245 C 0.20361 0.56192 0.90966 0.0
C1246 C 0.19106 0.50987 0.85531 0.0
C1247 C 0.27691 0.54692 0.93497 0.0
H1248 H 0.27779 0.46447 0.93079 0.0
H1249 H 0.38382 0.49356 0.87785 0.0
H1250 H 0.20703 0.48205 0.94772 0.0
H1251 H 0.19946 0.50884 0.9408 0.0
H1252 H 0.17596 0.49039 0.91675 0.0
H1253 H 0.36784 0.52494 0.85611 0.0
H1254 H 0.30271 0.52976 0.84935 0.0
H1255 H 0.3328 0.54215 0.87774 0.0
H1256 H 0.13203 0.54326 0.8575 0.0
H1257 H 0.20606 0.57496 0.92336 0.0
H1258 H 0.18178 0.49593 0.86716 0.0
H1259 H 0.2271 0.50705 0.8447 0.0
H1260 H 0.16171 0.51231 0.83943 0.0
H1261 H 0.27108 0.53435 0.94994 0.0
H1262 H 0.27584 0.56165 0.94633 0.0
H1263 H 0.31464 0.54493 0.92601 0.0
C1264 C 0.85961 0.54115 0.59539 0.0
C1265 C 0.84279 0.56094 0.60174 0.0
C1266 C 0.82873 0.52396 0.59869 0.0
C1267 C 0.77957 0.52638 0.60883 0.0
C1268 C 0.76227 0.54621 0.61544 0.0
C1269 C 0.79399 0.56314 0.61198 0.0
C1270 C 0.84899 0.50313 0.59154 0.0
C1271 C 0.71022 0.54954 0.62641 0.0
C1272 C 0.68524 0.48293 0.59948 0.0
C1273 C 0.68727 0.47327 0.62535 0.0
C1274 C 0.715 0.50017 0.59371 0.0
C1275 C 0.74759 0.50804 0.61428 0.0
C1276 C 0.75015 0.49823 0.64025 0.0
C1277 C 0.72045 0.48101 0.64535 0.0
C1278 C 0.71139 0.51007 0.56566 0.0
C1279 C 0.78429 0.50596 0.66282 0.0
H1280 H 0.89726 0.53891 0.58801 0.0
H1281 H 0.78007 0.5781 0.61719 0.0
H1282 H 0.85033 0.49352 0.61037 0.0
H1283 H 0.82394 0.49541 0.57655 0.0
H1284 H 0.88704 0.50386 0.58255 0.0
H1285 H 0.70145 0.56596 0.62931 0.0
H1286 H 0.68242 0.54285 0.61202 0.0
H1287 H 0.70597 0.54168 0.64655 0.0
H1288 H 0.65977 0.47722 0.5839 0.0
H1289 H 0.72372 0.47353 0.66516 0.0
H1290 H 0.74861 0.51028 0.55568 0.0
H1291 H 0.69922 0.52615 0.56795 0.0
H1292 H 0.68477 0.50205 0.5518 0.0
H1293 H 0.82354 0.50564 0.65563 0.0
H1294 H 0.78148 0.4968 0.68204 0.0
H1295 H 0.7751 0.52204 0.66783 0.0
C1296 C 0.9356 0.30582 0.08357 0.0
C1297 C 0.94945 0.32161 0.10164 0.0
C1298 C 0.95479 0.28604 0.08651 0.0
C1299 C 0.98862 0.28174 0.10822 0.0
C1300 C 0.00087 0.29731 0.12743 0.0
C1301 C 0.98121 0.31707 0.1239 0.0
C1302 C 0.94045 0.26995 0.06558 0.0
C1303 C 0.03641 0.29334 0.15101 0.0
C1304 C 0.0136 0.22503 0.11926 0.0
C1305 C 0.05583 0.22202 0.10263 0.0
C1306 C 0.99263 0.2446 0.12258 0.0
C1307 C 0.01439 0.26151 0.10894 0.0
C1308 C 0.05864 0.25867 0.09346 0.0
C1309 C 0.07876 0.23904 0.09057 0.0
C1310 C 0.94574 0.24697 0.13948 0.0
C1311 C 0.0834 0.27622 0.07868 0.0
H1312 H 0.91017 0.30901 0.06673 0.0
H1313 H 0.99229 0.32912 0.13794 0.0
H1314 H 0.97377 0.26544 0.05343 0.0
H1315 H 0.92656 0.25611 0.0762 0.0
H1316 H 0.91126 0.27535 0.05102 0.0
H1317 H 0.03711 0.30612 0.1661 0.0
H1318 H 0.02602 0.27913 0.16199 0.0
H1319 H 0.07463 0.29117 0.14276 0.0
H1320 H 0.99555 0.21198 0.12858 0.0
H1321 H 0.11198 0.2369 0.07819 0.0
H1322 H 0.91371 0.24988 0.12551 0.0
H1323 H 0.94891 0.26023 0.15364 0.0
H1324 H 0.93751 0.23312 0.15186 0.0
H1325 H 0.05854 0.28182 0.06199 0.0
H1326 H 0.11967 0.2718 0.06935 0.0
H1327 H 0.08978 0.28908 0.09317 0.0
C1328 C 0.43758 0.81151 0.11717 0.0
C1329 C 0.46203 0.82425 0.09837 0.0
C1330 C 0.45268 0.79108 0.12059 0.0
C1331 C 0.49364 0.78345 0.10516 0.0
C1332 C 0.5204 0.79682 0.08763 0.0
C1333 C 0.50389 0.81694 0.08423 0.0
C1334 C 0.42281 0.77735 0.13927 0.0
C1335 C 0.56481 0.78956 0.07116 0.0
C1336 C 0.55687 0.73215 0.11792 0.0
C1337 C 0.5382 0.72069 0.09576 0.0
C1338 C 0.54096 0.7524 0.12229 0.0
C1339 C 0.50501 0.76114 0.10431 0.0
C1340 C 0.48374 0.749 0.08309 0.0
C1341 C 0.50097 0.72905 0.07894 0.0
C1342 C 0.56489 0.76481 0.14498 0.0
C1343 C 0.44467 0.75744 0.06373 0.0
H1344 H 0.40499 0.81721 0.12792 0.0
H1345 H 0.52283 0.82693 0.06984 0.0
H1346 H 0.4005 0.76665 0.12648 0.0
H1347 H 0.44782 0.76806 0.15247 0.0
H1348 H 0.39697 0.78611 0.15273 0.0
H1349 H 0.58494 0.80236 0.06112 0.0
H1350 H 0.59128 0.78122 0.08467 0.0
H1351 H 0.5522 0.77883 0.05483 0.0
H1352 H 0.58585 0.72565 0.13081 0.0
H1353 H 0.48629 0.72004 0.06198 0.0
H1354 H 0.53627 0.77333 0.15685 0.0
H1355 H 0.59044 0.7762 0.1357 0.0
H1356 H 0.58664 0.75515 0.15948 0.0
H1357 H 0.41445 0.76497 0.07561 0.0
H1358 H 0.42797 0.74542 0.05043 0.0
H1359 H 0.46175 0.76914 0.05019 0.0
C1360 C 0.55056 0.8114 0.3973 0.0
C1361 C 0.52725 0.82313 0.4178 0.0
C1362 C 0.538 0.7907 0.39352 0.0
C1363 C 0.50076 0.78169 0.41036 0.0
C1364 C 0.47517 0.79391 0.42991 0.0
C1365 C 0.48899 0.81437 0.43351 0.0
C1366 C 0.56644 0.77822 0.37259 0.0
C1367 C 0.43465 0.78515 0.448 0.0
C1368 C 0.44123 0.7299 0.39563 0.0
C1369 C 0.46484 0.71764 0.41542 0.0
C1370 C 0.45393 0.75065 0.39277 0.0
C1371 C 0.49161 0.7592 0.40983 0.0
C1372 C 0.51741 0.7465 0.42869 0.0
C1373 C 0.50346 0.72598 0.43138 0.0
C1374 C 0.42521 0.76364 0.37258 0.0
C1375 C 0.55836 0.75479 0.44698 0.0
H1376 H 0.58024 0.81816 0.38522 0.0
H1377 H 0.47041 0.82352 0.44906 0.0
H1378 H 0.59112 0.76731 0.38352 0.0
H1379 H 0.54044 0.76915 0.35963 0.0
H1380 H 0.58976 0.78788 0.35891 0.0
H1381 H 0.41516 0.79709 0.46021 0.0
H1382 H 0.40675 0.77693 0.43522 0.0
H1383 H 0.45109 0.77396 0.46256 0.0
H1384 H 0.41124 0.72351 0.38335 0.0
H1385 H 0.52235 0.71644 0.44635 0.0
H1386 H 0.45104 0.77294 0.35991 0.0
H1387 H 0.4009 0.77436 0.38414 0.0
H1388 H 0.40147 0.75434 0.35859 0.0
H1389 H 0.58605 0.76328 0.43446 0.0
H1390 H 0.57801 0.74256 0.4585 0.0
H1391 H 0.5423 0.76566 0.46216 0.0
C1392 C 0.0833 0.30015 0.42746 0.0
C1393 C 0.06141 0.31774 0.41628 0.0
C1394 C 0.06147 0.28089 0.42401 0.0
C1395 C 0.01688 0.27896 0.40853 0.0
C1396 C 0.99651 0.29638 0.39543 0.0
C1397 C 0.01883 0.31561 0.39959 0.0
C1398 C 0.08462 0.26279 0.4384 0.0
C1399 C 0.9497 0.29494 0.37822 0.0
C1400 C 0.98071 0.22369 0.3944 0.0
C1401 C 0.94921 0.21963 0.4169 0.0
C1402 C 0.00058 0.24333 0.39019 0.0
C1403 C 0.98911 0.2592 0.40907 0.0
C1404 C 0.95493 0.25546 0.43075 0.0
C1405 C 0.93519 0.23583 0.43422 0.0
C1406 C 0.03592 0.24678 0.36642 0.0
C1407 C 0.94147 0.27186 0.4514 0.0
H1408 H 0.11693 0.30152 0.43973 0.0
H1409 H 0.00154 0.32903 0.39081 0.0
H1410 H 0.05905 0.25723 0.45476 0.0
H1411 H 0.09028 0.2501 0.42356 0.0
H1412 H 0.12105 0.26657 0.44809 0.0
H1413 H 0.94376 0.30882 0.36553 0.0
H1414 H 0.95117 0.28147 0.36433 0.0
H1415 H 0.91703 0.293 0.39201 0.0
H1416 H 0.99178 0.21133 0.38086 0.0
H1417 H 0.90981 0.23302 0.45118 0.0
H1418 H 0.07466 0.24775 0.37438 0.0
H1419 H 0.02749 0.2614 0.35591 0.0
H1420 H 0.03414 0.23423 0.351 0.0
H1421 H 0.97497 0.27603 0.46366 0.0
H1422 H 0.91174 0.2669 0.46588 0.0
H1423 H 0.92869 0.28579 0.44057 0.0
C1424 C 0.92378 0.80198 0.91891 0.0
C1425 C 0.94377 0.81886 0.90502 0.0
C1426 C 0.9427 0.78226 0.91482 0.0
C1427 C 0.98256 0.77913 0.89611 0.0
C1428 C 0.00072 0.79587 0.88056 0.0
C1429 C 0.98119 0.81556 0.88523 0.0
C1430 C 0.9219 0.76496 0.93183 0.0
C1431 C 0.04262 0.7932 0.86009 0.0
C1432 C 0.06586 0.73535 0.91821 0.0
C1433 C 0.04665 0.71894 0.90288 0.0
C1434 C 0.04731 0.75519 0.91497 0.0
C1435 C 0.00862 0.75894 0.89569 0.0
C1436 C 0.99147 0.74273 0.87869 0.0
C1437 C 0.01064 0.72288 0.88251 0.0
C1438 C 0.06706 0.77191 0.9335 0.0
C1439 C 0.95089 0.74608 0.85758 0.0
H1440 H 0.89405 0.80429 0.93372 0.0
H1441 H -0.00308 0.82847 0.8744 0.0
H1442 H 0.91184 0.75192 0.91832 0.0
H1443 H 0.95073 0.75955 0.94656 0.0
H1444 H 0.88838 0.76957 0.94379 0.0
H1445 H 0.04667 0.80668 0.84641 0.0
H1446 H 0.0782 0.79098 0.87141 0.0
H1447 H 0.03641 0.77947 0.84712 0.0
H1448 H 0.0945 0.73251 0.93353 0.0
H1449 H 0.99558 0.71031 0.87059 0.0
H1450 H 0.03737 0.77682 0.94803 0.0
H1451 H 0.07781 0.7854 0.92109 0.0
H1452 H 0.09989 0.76692 0.94576 0.0
H1453 H 0.91462 0.74796 0.86829 0.0
H1454 H 0.94771 0.73306 0.84296 0.0
H1455 H 0.95792 0.76021 0.84565 0.0
C1456 C 0.54438 0.23287 0.93989 0.0
C1457 C 0.5493 0.21923 0.9176 0.0
C1458 C 0.52228 0.25209 0.93664 0.0
C1459 C 0.5037 0.25799 0.91047 0.0
C1460 C 0.50826 0.24439 0.88779 0.0
C1461 C 0.53105 0.22519 0.8916 0.0
C1462 C 0.51817 0.266 0.96149 0.0
C1463 C 0.4887 0.25006 0.85958 0.0
C1464 C 0.40451 0.29898 0.91718 0.0
C1465 C 0.43227 0.31687 0.91335 0.0
C1466 C 0.42644 0.27965 0.91426 0.0
C1467 C 0.47774 0.27809 0.90765 0.0
C1468 C 0.50527 0.29609 0.90211 0.0
C1469 C 0.48213 0.31527 0.9049 0.0
C1470 C 0.39537 0.26095 0.91999 0.0
C1471 C 0.56004 0.29517 0.89514 0.0
H1472 H 0.55701 0.22844 0.96024 0.0
H1473 H 0.53483 0.21493 0.87417 0.0
H1474 H 0.53554 0.28096 0.95693 0.0
H1475 H 0.47833 0.26882 0.96632 0.0
H1476 H 0.5364 0.25951 0.98013 0.0
H1477 H 0.49614 0.23805 0.8439 0.0
H1478 H 0.44788 0.25269 0.86066 0.0
H1479 H 0.50604 0.26451 0.8526 0.0
H1480 H 0.36576 0.30015 0.92331 0.0
H1481 H 0.50383 0.32904 0.90207 0.0
H1482 H 0.40715 0.25411 0.93991 0.0
H1483 H 0.40112 0.2493 0.90366 0.0
H1484 H 0.35495 0.26454 0.92125 0.0
H1485 H 0.58145 0.29074 0.91382 0.0
H1486 H 0.57437 0.31007 0.88772 0.0
H1487 H 0.56715 0.28345 0.87907 0.0
C1488 C 0.43836 0.22863 0.62458 0.0
C1489 C 0.4595 0.21641 0.60393 0.0
C1490 C 0.45311 0.24915 0.62789 0.0
C1491 C 0.49041 0.25744 0.61039 0.0
C1492 C 0.51407 0.2446 0.59079 0.0
C1493 C 0.49793 0.22437 0.58762 0.0
C1494 C 0.42651 0.26227 0.64884 0.0
C1495 C 0.55457 0.25254 0.57202 0.0
C1496 C 0.48913 0.3129 0.58776 0.0
C1497 C 0.52833 0.32134 0.6032 0.0
C1498 C 0.47479 0.29246 0.59107 0.0
C1499 C 0.50081 0.27989 0.61 0.0
C1500 C 0.5393 0.28852 0.62644 0.0
C1501 C 0.55233 0.30921 0.62301 0.0
C1502 C 0.43296 0.28414 0.57343 0.0
C1503 C 0.56836 0.27566 0.64663 0.0
H1504 H 0.40832 0.22248 0.63699 0.0
H1505 H 0.51429 0.21483 0.57172 0.0
H1506 H 0.45364 0.27134 0.66105 0.0
H1507 H 0.40181 0.27319 0.63792 0.0
H1508 H 0.40342 0.25307 0.66321 0.0
H1509 H 0.57315 0.24011 0.56029 0.0
H1510 H 0.5383 0.26345 0.55702 0.0
H1511 H 0.58318 0.26086 0.58418 0.0
H1512 H 0.47001 0.32232 0.57274 0.0
H1513 H 0.58279 0.31567 0.63487 0.0
H1514 H 0.40525 0.27613 0.5865 0.0
H1515 H 0.44806 0.27285 0.55852 0.0
H1516 H 0.41353 0.29629 0.56163 0.0
H1517 H 0.54269 0.26684 0.66 0.0
H1518 H 0.59325 0.28502 0.65995 0.0
H1519 H 0.59152 0.26452 0.63509 0.0
C1520 C 0.97844 0.7239 0.61203 0.0
C1521 C 0.92817 0.72267 0.60405 0.0
C1522 C 0.00255 0.7429 0.61476 0.0
C1523 C 0.97593 0.76112 0.60919 0.0
C1524 C 0.92452 0.75999 0.60271 0.0
C1525 C 0.90133 0.74087 0.60041 0.0
C1526 C 0.05724 0.74339 0.62207 0.0
C1527 C 0.89457 0.77894 0.59652 0.0
C1528 C 0.03043 0.81371 0.62587 0.0
C1529 C 0.05123 0.8192 0.60035 0.0
C1530 C 0.00658 0.7947 0.62935 0.0
C1531 C 0.00281 0.78103 0.60667 0.0
C1532 C 0.02332 0.78667 0.58084 0.0
C1533 C 0.04728 0.80556 0.57806 0.0
C1534 C 0.98566 0.7892 0.65729 0.0
C1535 C 0.01949 0.77283 0.55592 0.0
H1536 H -0.00032 0.71002 0.61487 0.0
H1537 H 0.86221 0.74017 0.59495 0.0
H1538 H 0.07921 0.74768 0.60356 0.0
H1539 H 0.06453 0.75504 0.63823 0.0
H1540 H 0.07078 0.72838 0.62957 0.0
H1541 H 0.85409 0.77568 0.59447 0.0
H1542 H 0.8999 0.79049 0.61302 0.0
H1543 H 0.90784 0.78577 0.57689 0.0
H1544 H 0.03365 0.82412 0.64319 0.0
H1545 H 0.06234 0.80983 0.55814 0.0
H1546 H 0.00264 0.77476 0.66462 0.0
H1547 H 0.9449 0.78659 0.65566 0.0
H1548 H 0.99251 0.80127 0.67298 0.0
H1549 H 0.03706 0.7579 0.56048 0.0
H1550 H 0.03774 0.7794 0.53737 0.0
H1551 H 0.97971 0.7699 0.55098 0.0
C1552 C 0.04039 0.15737 0.19882 0.0
C1553 C 0.01621 0.14139 0.18491 0.0
C1554 C 0.03346 0.16042 0.22743 0.0
C1555 C 0.00251 0.14691 0.24253 0.0
C1556 C 0.97701 0.13114 0.22838 0.0
C1557 C 0.98382 0.12871 0.19982 0.0
C1558 C 0.06046 0.17769 0.24163 0.0
C1559 C 0.94439 0.11613 0.24362 0.0
C1560 C 0.03141 0.13495 0.31754 0.0
C1561 C 0.99157 0.14424 0.33158 0.0
C1562 C 0.03617 0.13633 0.28876 0.0
C1563 C 0.00081 0.14764 0.2734 0.0
C1564 C 0.96174 0.15787 0.2875 0.0
C1565 C 0.95722 0.15586 0.31643 0.0
C1566 C 0.07786 0.12482 0.27466 0.0
C1567 C 0.92395 0.17045 0.27195 0.0
H1568 H 0.06508 0.16737 0.18743 0.0
H1569 H 0.96491 0.11629 0.18935 0.0
H1570 H 0.03447 0.1863 0.25514 0.0
H1571 H 0.09039 0.17147 0.25502 0.0
H1572 H 0.07757 0.18839 0.22662 0.0
H1573 H 0.92499 0.10543 0.2294 0.0
H1574 H 0.96751 0.10711 0.25818 0.0
H1575 H 0.91597 0.12431 0.25604 0.0
H1576 H 0.05819 0.12589 0.32894 0.0
H1577 H 0.9266 0.16323 0.32711 0.0
H1578 H 0.09986 0.13524 0.2614 0.0
H1579 H 0.06194 0.11284 0.26104 0.0
H1580 H 0.10353 0.11745 0.28965 0.0
H1581 H 0.94301 0.18099 0.25749 0.0
H1582 H 0.89988 0.17949 0.28607 0.0
H1583 H 0.89981 0.1603 0.25938 0.0
C1584 C 0.46 0.88629 0.19559 0.0
C1585 C 0.4837 0.90279 0.18271 0.0
C1586 C 0.46622 0.88266 0.22411 0.0
C1587 C 0.49593 0.8961 0.24017 0.0
C1588 C 0.52092 0.91243 0.22706 0.0
C1589 C 0.51484 0.91545 0.19857 0.0
C1590 C 0.43983 0.86482 0.23719 0.0
C1591 C 0.55221 0.92739 0.24334 0.0
C1592 C 0.46501 0.90668 0.31526 0.0
C1593 C 0.50538 0.89774 0.32926 0.0
C1594 C 0.46052 0.90548 0.28644 0.0
C1595 C 0.49678 0.89473 0.27099 0.0
C1596 C 0.53619 0.88468 0.28503 0.0
C1597 C 0.54035 0.88647 0.31401 0.0
C1598 C 0.41833 0.91673 0.27243 0.0
C1599 C 0.57494 0.87267 0.26935 0.0
H1600 H 0.43628 0.87631 0.18346 0.0
H1601 H 0.53336 0.92826 0.1889 0.0
H1602 H 0.46586 0.8562 0.25065 0.0
H1603 H 0.40903 0.87044 0.25046 0.0
H1604 H 0.42395 0.85427 0.22149 0.0
H1605 H 0.57129 0.93863 0.22985 0.0
H1606 H 0.52818 0.93582 0.25813 0.0
H1607 H 0.58082 0.91921 0.2556 0.0
H1608 H 0.43757 0.91539 0.32671 0.0
H1609 H 0.57139 0.87935 0.32462 0.0
H1610 H 0.39755 0.90634 0.25847 0.0
H1611 H 0.4337 0.92922 0.25956 0.0
H1612 H 0.39166 0.92342 0.28748 0.0
H1613 H 0.55683 0.86241 0.2541 0.0
H1614 H 0.59874 0.86342 0.28333 0.0
H1615 H 0.59927 0.88327 0.25767 0.0
C1616 C 0.02578 0.90861 0.81242 0.0
C1617 C 0.9828 0.90074 0.82508 0.0
C1618 C 0.03267 0.90744 0.78374 0.0
C1619 C 0.99581 0.89807 0.76706 0.0
C1620 C 0.95342 0.8892 0.77975 0.0
C1621 C 0.94735 0.89066 0.80863 0.0
C1622 C 0.07846 0.91711 0.77118 0.0
C1623 C 0.91356 0.87888 0.76271 0.0
C1624 C 0.98995 0.9192 0.69411 0.0
C1625 C 0.01872 0.90509 0.67922 0.0
C1626 C 0.98056 0.91662 0.72242 0.0
C1627 C -3e-05 0.89937 0.73631 0.0
C1628 C 0.02723 0.88458 0.72118 0.0
C1629 C 0.03655 0.88767 0.69284 0.0
C1630 C 0.95166 0.93286 0.73773 0.0
C1631 C 0.04799 0.86585 0.73511 0.0
H1632 H 0.05374 0.91625 0.82487 0.0
H1633 H 0.91414 0.88444 0.81819 0.0
H1634 H 0.09797 0.90605 0.75761 0.0
H1635 H 0.06723 0.93023 0.75813 0.0
H1636 H 0.10513 0.92263 0.78711 0.0
H1637 H 0.88614 0.87065 0.77578 0.0
H1638 H 0.89332 0.89045 0.75034 0.0
H1639 H 0.93056 0.86792 0.74799 0.0
H1640 H 0.97586 0.93269 0.68384 0.0
H1641 H 0.05841 0.87658 0.68147 0.0
H1642 H 0.97638 0.94046 0.75301 0.0
H1643 H 0.92038 0.92591 0.74935 0.0
H1644 H 0.93634 0.94465 0.72363 0.0
H1645 H 0.07855 0.87033 0.74936 0.0
H1646 H 0.0629 0.85466 0.71998 0.0
H1647 H 0.01878 0.85833 0.74771 0.0
C1648 C 0.48018 0.12675 0.81767 0.0
C1649 C 0.51815 0.13765 0.8312 0.0
C1650 C 0.47315 0.12821 0.78901 0.0
C1651 C 0.50453 0.14106 0.77326 0.0
C1652 C 0.54139 0.15289 0.78689 0.0
C1653 C 0.54795 0.15098 0.8157 0.0
C1654 C 0.43356 0.11521 0.77542 0.0
C1655 C 0.57512 0.16699 0.77091 0.0
C1656 C 0.52219 0.12326 0.69919 0.0
C1657 C 0.48688 0.13497 0.68481 0.0
C1658 C 0.52965 0.12571 0.72772 0.0
C1659 C 0.50147 0.14041 0.74242 0.0
C1660 C 0.46732 0.15294 0.72788 0.0
C1661 C 0.46021 0.15 0.69927 0.0
C1662 C 0.56616 0.11189 0.74234 0.0
C1663 C 0.43705 0.16896 0.7427 0.0
H1664 H 0.45665 0.11648 0.82935 0.0
H1665 H 0.57716 0.15958 0.82594 0.0
H1666 H 0.4089 0.12475 0.76235 0.0
H1667 H 0.45149 0.10379 0.7617 0.0
H1668 H 0.4102 0.107 0.79073 0.0
H1669 H 0.59753 0.17695 0.78475 0.0
H1670 H 0.60102 0.15787 0.75799 0.0
H1671 H 0.55292 0.17671 0.75675 0.0
H1672 H 0.5432 0.11164 0.68831 0.0
H1673 H 0.43312 0.15925 0.68834 0.0
H1674 H 0.5458 0.10188 0.75694 0.0
H1675 H 0.59303 0.12103 0.75464 0.0
H1676 H 0.5874 0.10212 0.72772 0.0
H1677 H 0.40942 0.16148 0.75638 0.0
H1678 H 0.41675 0.17904 0.7281 0.0
H1679 H 0.4615 0.17847 0.75601 0.0
C1680 C 0.51062 0.62817 0.30797 0.0
C1681 C 0.47526 0.64034 0.32163 0.0
C1682 C 0.52022 0.63047 0.27966 0.0
C1683 C 0.49409 0.64544 0.26439 0.0
C1684 C 0.46062 0.65867 0.27834 0.0
C1685 C 0.45149 0.65594 0.30682 0.0
C1686 C 0.5562 0.616 0.26577 0.0
C1687 C 0.43251 0.67501 0.26293 0.0
C1688 C 0.54271 0.65356 0.191 0.0
C1689 C 0.51201 0.64029 0.17581 0.0
C1690 C 0.53584 0.65629 0.21969 0.0
C1691 C 0.49766 0.64538 0.23352 0.0
C1692 C 0.46548 0.6326 0.21805 0.0
C1693 C 0.47293 0.63028 0.18951 0.0
C1694 C 0.57056 0.67025 0.23535 0.0
C1695 C 0.42443 0.62058 0.23184 0.0
H1696 H 0.52975 0.61622 0.31922 0.0
H1697 H 0.4243 0.66549 0.31717 0.0
H1698 H 0.53544 0.60582 0.25147 0.0
H1699 H 0.58374 0.62457 0.25327 0.0
H1700 H 0.57667 0.60639 0.28089 0.0
H1701 H 0.41398 0.68592 0.27719 0.0
H1702 H 0.45798 0.68357 0.24911 0.0
H1703 H 0.40354 0.66783 0.24973 0.0
H1704 H 0.57277 0.66149 0.18063 0.0
H1705 H 0.44868 0.62009 0.17807 0.0
H1706 H 0.59558 0.66106 0.24868 0.0
H1707 H 0.54906 0.68057 0.24908 0.0
H1708 H 0.5939 0.6796 0.22128 0.0
H1709 H 0.44099 0.60924 0.24616 0.0
H1710 H 0.4006 0.61236 0.21668 0.0
H1711 H 0.40044 0.63083 0.24431 0.0
C1712 C 0.98179 0.41109 0.32593 0.0
C1713 C 0.02021 0.40048 0.33945 0.0
C1714 C 0.97335 0.40883 0.29744 0.0
C1715 C 0.00378 0.39548 0.2818 0.0
C1716 C 0.04139 0.38407 0.29543 0.0
C1717 C 0.04933 0.38676 0.32407 0.0
C1718 C 0.93303 0.42144 0.2839 0.0
C1719 C 0.07426 0.36949 0.2796 0.0
C1720 C 0.95383 0.38504 0.20906 0.0
C1721 C 0.97868 0.40005 0.19369 0.0
C1722 C 0.96369 0.38245 0.23752 0.0
C1723 C -0.00105 0.39524 0.25093 0.0
C1724 C 0.02592 0.40961 0.23512 0.0
C1725 C 0.01564 0.41176 0.20683 0.0
C1726 C 0.93463 0.36672 0.25349 0.0
C1727 C 0.06371 0.42364 0.24839 0.0
H1728 H 0.95877 0.42166 0.33749 0.0
H1729 H 0.07885 0.37836 0.33429 0.0
H1730 H 0.95015 0.43234 0.26919 0.0
H1731 H 0.9075 0.41149 0.27188 0.0
H1732 H 0.91069 0.4302 0.29916 0.0
H1733 H 0.09756 0.36 0.29354 0.0
H1734 H 0.05128 0.35931 0.2664 0.0
H1735 H 0.09928 0.3782 0.26572 0.0
H1736 H 0.92542 0.37582 0.19913 0.0
H1737 H 0.03559 0.42326 0.19519 0.0
H1738 H 0.90703 0.37447 0.26696 0.0
H1739 H 0.95983 0.35782 0.26709 0.0
H1740 H 0.91437 0.35604 0.23961 0.0
H1741 H 0.04446 0.43424 0.26276 0.0
H1742 H 0.08444 0.43281 0.23292 0.0
H1743 H 0.09095 0.41476 0.26072 0.0
C1744 C 0.44113 0.38591 0.82354 0.0
C1745 C 0.46798 0.40058 0.83863 0.0
C1746 C 0.44941 0.38312 0.79497 0.0
C1747 C 0.48499 0.3954 0.78113 0.0
C1748 C 0.51309 0.40978 0.79647 0.0
C1749 C 0.50439 0.41212 0.8249 0.0
C1750 C 0.41909 0.36746 0.77947 0.0
C1751 C 0.55117 0.42332 0.78265 0.0
C1752 C 0.53746 0.38519 0.70904 0.0
C1753 C 0.5107 0.39935 0.69316 0.0
C1754 C 0.52756 0.38275 0.73749 0.0
C1755 C 0.49014 0.39478 0.75032 0.0
C1756 C 0.46117 0.40817 0.73397 0.0
C1757 C 0.47171 0.41024 0.70571 0.0
C1758 C 0.5589 0.36811 0.75408 0.0
C1759 C 0.42091 0.42131 0.74662 0.0
H1760 H 0.4132 0.3768 0.83395 0.0
H1761 H 0.52558 0.42345 0.83624 0.0
H1762 H 0.39301 0.37525 0.76515 0.0
H1763 H 0.44381 0.35766 0.76673 0.0
H1764 H 0.39708 0.35763 0.79358 0.0
H1765 H 0.57181 0.43296 0.7977 0.0
H1766 H 0.57847 0.41396 0.771 0.0
H1767 H 0.5323 0.43345 0.76757 0.0
H1768 H 0.5675 0.37662 0.69955 0.0
H1769 H 0.45028 0.42103 0.69362 0.0
H1770 H 0.53506 0.35879 0.76787 0.0
H1771 H 0.58505 0.37682 0.7674 0.0
H1772 H 0.58101 0.35777 0.74063 0.0
H1773 H 0.3952 0.41189 0.75921 0.0
H1774 H 0.39877 0.42953 0.73075 0.0
H1775 H 0.43814 0.43272 0.76064 0.0
C1776 C 0.96239 0.63133 0.80771 0.0
C1777 C 0.00684 0.63822 0.82 0.0
C1778 C 0.95477 0.63238 0.77906 0.0
C1779 C 0.9923 0.6407 0.76193 0.0
C1780 C 0.03639 0.64858 0.77422 0.0
C1781 C 0.04325 0.64719 0.80311 0.0
C1782 C 0.90726 0.62371 0.767 0.0
C1783 C 0.07704 0.65783 0.75675 0.0
C1784 C 0.99248 0.61935 0.68875 0.0
C1785 C 0.96534 0.6341 0.67407 0.0
C1786 C 0.00305 0.62172 0.71702 0.0
C1787 C 0.98663 0.63941 0.73116 0.0
C1788 C 0.96075 0.65474 0.71629 0.0
C1789 C 0.95009 0.65184 0.68798 0.0
C1790 C 0.03019 0.60486 0.73201 0.0
C1791 C 0.94317 0.67394 0.73044 0.0
H1792 H 0.93366 0.62452 0.82043 0.0
H1793 H 0.0776 0.65265 0.81234 0.0
H1794 H 0.88868 0.63517 0.75369 0.0
H1795 H 0.91618 0.61035 0.7538 0.0
H1796 H 0.88055 0.61881 0.78322 0.0
H1797 H 0.1062 0.66536 0.76951 0.0
H1798 H 0.09495 0.64575 0.74411 0.0
H1799 H 0.0611 0.66918 0.74225 0.0
H1800 H 0.00455 0.60559 0.67829 0.0
H1801 H 0.92956 0.66343 0.6768 0.0
H1802 H 0.00516 0.59798 0.74768 0.0
H1803 H 0.06303 0.61107 0.74316 0.0
H1804 H 0.04301 0.59263 0.71778 0.0
H1805 H 0.91311 0.67019 0.74531 0.0
H1806 H 0.92861 0.68533 0.7155 0.0
H1807 H 0.9741 0.68094 0.74239 0.0
loop_
_geom_bond_atom_site_label_1
_geom_bond_atom_site_label_2
_geom_bond_distance
_geom_bond_site_symmetry_2
_ccdc_geom_bond_type
C0 C1 1.351 . S
C0 N3 1.368 . S
C0 H5 0.931 . S
C1 C0 1.351 . S
C1 N2 1.373 . S
C1 H29 0.930 . S
N2 C1 1.373 . S
N2 C4 1.340 . S
N3 C0 1.368 . S
N3 C4 1.321 . S
N3 Co6 2.135 . S
C4 N2 1.340 . S
C4 N3 1.321 . S
C4 H28 0.930 . S
H5 C0 0.931 . S
Co6 N3 2.135 . S
Co6 N9 2.121 . S
Co6 O14 2.055 . S
Co6 O17 2.039 . S
Co6 N20 2.140 . S
C7 O8 1.227 . S
C7 O17 1.265 . S
O8 C7 1.227 . S
N9 Co6 2.121 . S
N9 C11 1.375 . S
N9 C12 1.313 . S
C10 C11 1.338 . S
C10 N13 1.377 . S
C10 H30 0.930 . S
C11 N9 1.375 . S
C11 C10 1.338 . S
C11 H15 0.931 . S
C12 N9 1.313 . S
C12 N13 1.344 . S
C12 H16 0.930 . S
N13 C10 1.377 . S
N13 C12 1.344 . S
O14 Co6 2.055 . S
O14 C18 1.253 . S
H15 C11 0.931 . S
H16 C12 0.930 . S
O17 Co6 2.039 . S
O17 C7 1.265 . S
C18 O14 1.253 . S
C18 O19 1.227 . S
O19 C18 1.227 . S
N20 Co6 2.140 . S
N20 C23 1.346 1_455 S
N20 C24 1.345 . S
C21 C22 1.387 . S
C21 C25 1.391 . S
C22 C21 1.387 . S
C22 C23 1.369 . S
C22 H31 0.929 . S
C23 N20 1.346 1_655 S
C23 C22 1.369 . S
C23 H26 0.928 . S
C24 N20 1.345 . S
C24 C25 1.371 1_455 S
C24 H27 0.931 . S
C25 C21 1.391 . S
C25 C24 1.371 1_655 S
C25 H32 0.930 . S
H26 C23 0.928 . S
H27 C24 0.931 . S
H28 C4 0.930 . S
H29 C1 0.930 . S
H30 C10 0.930 . S
H31 C22 0.929 . S
H32 C25 0.930 . S
C33 C34 1.351 . S
C33 N36 1.368 . S
C33 H38 0.931 . S
C34 C33 1.351 . S
C34 N35 1.373 . S
C34 H62 0.930 . S
N35 C34 1.373 . S
N35 C37 1.340 . S
N36 C33 1.368 . S
N36 C37 1.321 . S
N36 Co39 2.135 . S
C37 N35 1.340 . S
C37 N36 1.321 . S
C37 H61 0.930 . S
H38 C33 0.931 . S
Co39 N36 2.135 . S
Co39 N42 2.121 . S
Co39 O47 2.055 . S
Co39 O50 2.039 . S
Co39 N53 2.140 . S
C40 O41 1.227 . S
C40 O50 1.265 . S
O41 C40 1.227 . S
N42 Co39 2.121 . S
N42 C44 1.375 . S
N42 C45 1.313 . S
C43 C44 1.338 . S
C43 N46 1.377 . S
C43 H63 0.930 . S
C44 N42 1.375 . S
C44 C43 1.338 . S
C44 H48 0.931 . S
C45 N42 1.313 . S
C45 N46 1.344 . S
C45 H49 0.930 . S
N46 C43 1.377 . S
N46 C45 1.344 . S
O47 Co39 2.055 . S
O47 C51 1.253 . S
H48 C44 0.931 . S
H49 C45 0.930 . S
O50 Co39 2.039 . S
O50 C40 1.265 . S
C51 O47 1.253 . S
C51 O52 1.227 . S
O52 C51 1.227 . S
N53 Co39 2.140 . S
N53 C56 1.346 . S
N53 C57 1.345 . S
C54 C55 1.387 . S
C54 C58 1.391 . S
C55 C54 1.387 . S
C55 C56 1.369 . S
C55 H64 0.929 . S
C56 N53 1.346 . S
C56 C55 1.369 . S
C56 H59 0.928 . S
C57 N53 1.345 . S
C57 C58 1.371 . S
C57 H60 0.931 . S
C58 C54 1.391 . S
C58 C57 1.371 . S
C58 H65 0.930 . S
H59 C56 0.928 . S
H60 C57 0.931 . S
H61 C37 0.930 . S
H62 C34 0.930 . S
H63 C43 0.930 . S
H64 C55 0.929 . S
H65 C58 0.930 . S
C66 C67 1.351 . S
C66 N69 1.368 . S
C66 H71 0.931 . S
C67 C66 1.351 . S
C67 N68 1.373 . S
C67 H95 0.930 . S
N68 C67 1.373 . S
N68 C70 1.340 . S
N69 C66 1.368 . S
N69 C70 1.321 . S
N69 Co72 2.135 . S
C70 N68 1.340 . S
C70 N69 1.321 . S
C70 H94 0.930 . S
H71 C66 0.931 . S
Co72 N69 2.135 . S
Co72 N75 2.121 . S
Co72 O80 2.055 . S
Co72 O83 2.039 . S
Co72 N86 2.140 . S
C73 O74 1.227 . S
C73 O83 1.265 . S
O74 C73 1.227 . S
N75 Co72 2.121 . S
N75 C77 1.375 . S
N75 C78 1.313 . S
C76 C77 1.338 . S
C76 N79 1.377 . S
C76 H96 0.930 . S
C77 N75 1.375 . S
C77 C76 1.338 . S
C77 H81 0.931 . S
C78 N75 1.313 . S
C78 N79 1.344 . S
C78 H82 0.930 . S
N79 C76 1.377 . S
N79 C78 1.344 . S
O80 Co72 2.055 . S
O80 C84 1.253 . S
H81 C77 0.931 . S
H82 C78 0.930 . S
O83 Co72 2.039 . S
O83 C73 1.265 . S
C84 O80 1.253 . S
C84 O85 1.227 . S
O85 C84 1.227 . S
N86 Co72 2.140 . S
N86 C89 1.346 . S
N86 C90 1.345 . S
C87 C88 1.387 . S
C87 C91 1.391 . S
C88 C87 1.387 . S
C88 C89 1.369 . S
C88 H97 0.929 . S
C89 N86 1.346 . S
C89 C88 1.369 . S
C89 H92 0.928 . S
C90 N86 1.345 . S
C90 C91 1.371 . S
C90 H93 0.931 . S
C91 C87 1.391 . S
C91 C90 1.371 . S
C91 H98 0.930 . S
H92 C89 0.928 . S
H93 C90 0.931 . S
H94 C70 0.930 . S
H95 C67 0.930 . S
H96 C76 0.930 . S
H97 C88 0.929 . S
H98 C91 0.930 . S
C99 C100 1.351 . S
C99 N102 1.368 . S
C99 H104 0.931 . S
C100 C99 1.351 . S
C100 N101 1.373 . S
C100 H128 0.930 . S
N101 C100 1.373 . S
N101 C103 1.340 . S
N102 C99 1.368 . S
N102 C103 1.321 . S
N102 Co105 2.135 . S
C103 N101 1.340 . S
C103 N102 1.321 . S
C103 H127 0.930 . S
H104 C99 0.931 . S
Co105 N102 2.135 . S
Co105 N108 2.121 . S
Co105 O113 2.055 . S
Co105 O116 2.039 . S
Co105 N119 2.140 . S
C106 O107 1.227 . S
C106 O116 1.265 . S
O107 C106 1.227 . S
N108 Co105 2.121 . S
N108 C110 1.375 . S
N108 C111 1.313 . S
C109 C110 1.338 . S
C109 N112 1.377 . S
C109 H129 0.930 . S
C110 N108 1.375 . S
C110 C109 1.338 . S
C110 H114 0.931 . S
C111 N108 1.313 . S
C111 N112 1.344 . S
C111 H115 0.930 . S
N112 C109 1.377 . S
N112 C111 1.344 . S
O113 Co105 2.055 . S
O113 C117 1.253 . S
H114 C110 0.931 . S
H115 C111 0.930 . S
O116 Co105 2.039 . S
O116 C106 1.265 . S
C117 O113 1.253 . S
C117 O118 1.227 . S
O118 C117 1.227 . S
N119 Co105 2.140 . S
N119 C122 1.346 1_655 S
N119 C123 1.345 . S
C120 C121 1.387 . S
C120 C124 1.391 . S
C121 C120 1.387 . S
C121 C122 1.369 . S
C121 H130 0.929 . S
C122 N119 1.346 1_455 S
C122 C121 1.369 . S
C122 H125 0.928 . S
C123 N119 1.345 . S
C123 C124 1.371 1_655 S
C123 H126 0.931 . S
C124 C120 1.391 . S
C124 C123 1.371 1_455 S
C124 H131 0.930 . S
H125 C122 0.928 . S
H126 C123 0.931 . S
H127 C103 0.930 . S
H128 C100 0.930 . S
H129 C109 0.930 . S
H130 C121 0.929 . S
H131 C124 0.930 . S
C132 C133 1.351 . S
C132 N135 1.368 . S
C132 H137 0.931 . S
C133 C132 1.351 . S
C133 N134 1.373 . S
C133 H161 0.930 . S
N134 C133 1.373 . S
N134 C136 1.340 . S
N135 C132 1.368 . S
N135 C136 1.321 . S
N135 Co138 2.135 . S
C136 N134 1.340 . S
C136 N135 1.321 . S
C136 H160 0.930 . S
H137 C132 0.931 . S
Co138 N135 2.135 . S
Co138 N141 2.121 . S
Co138 O146 2.055 . S
Co138 O149 2.039 . S
Co138 N152 2.140 . S
C139 O140 1.227 . S
C139 O149 1.265 . S
O140 C139 1.227 . S
N141 Co138 2.121 . S
N141 C143 1.375 . S
N141 C144 1.313 . S
C142 C143 1.338 . S
C142 N145 1.377 . S
C142 H162 0.930 . S
C143 N141 1.375 . S
C143 C142 1.338 . S
C143 H147 0.931 . S
C144 N141 1.313 . S
C144 N145 1.344 . S
C144 H148 0.930 . S
N145 C142 1.377 . S
N145 C144 1.344 . S
O146 Co138 2.055 . S
O146 C150 1.253 . S
H147 C143 0.931 . S
H148 C144 0.930 . S
O149 Co138 2.039 . S
O149 C139 1.265 . S
C150 O146 1.253 . S
C150 O151 1.227 . S
O151 C150 1.227 . S
N152 Co138 2.140 . S
N152 C155 1.346 1_655 S
N152 C156 1.345 . S
C153 C154 1.387 . S
C153 C157 1.391 . S
C154 C153 1.387 . S
C154 C155 1.369 . S
C154 H163 0.929 . S
C155 N152 1.346 1_455 S
C155 C154 1.369 . S
C155 H158 0.928 . S
C156 N152 1.345 . S
C156 C157 1.371 1_655 S
C156 H159 0.931 . S
C157 C153 1.391 . S
C157 C156 1.371 1_455 S
C157 H164 0.930 . S
H158 C155 0.928 . S
H159 C156 0.931 . S
H160 C136 0.930 . S
H161 C133 0.930 . S
H162 C142 0.930 . S
H163 C154 0.929 . S
H164 C157 0.930 . S
C165 C166 1.351 . S
C165 N168 1.368 . S
C165 H170 0.931 . S
C166 C165 1.351 . S
C166 N167 1.373 . S
C166 H194 0.930 . S
N167 C166 1.373 . S
N167 C169 1.340 . S
N168 C165 1.368 . S
N168 C169 1.321 . S
N168 Co171 2.135 . S
C169 N167 1.340 . S
C169 N168 1.321 . S
C169 H193 0.930 . S
H170 C165 0.931 . S
Co171 N168 2.135 . S
Co171 N174 2.121 . S
Co171 O179 2.055 . S
Co171 O182 2.039 . S
Co171 N185 2.140 . S
C172 O173 1.227 . S
C172 O182 1.265 . S
O173 C172 1.227 . S
N174 Co171 2.121 . S
N174 C176 1.375 . S
N174 C177 1.313 . S
C175 C176 1.338 . S
C175 N178 1.377 . S
C175 H195 0.930 . S
C176 N174 1.375 . S
C176 C175 1.338 . S
C176 H180 0.931 . S
C177 N174 1.313 . S
C177 N178 1.344 . S
C177 H181 0.930 . S
N178 C175 1.377 . S
N178 C177 1.344 . S
O179 Co171 2.055 . S
O179 C183 1.253 . S
H180 C176 0.931 . S
H181 C177 0.930 . S
O182 Co171 2.039 . S
O182 C172 1.265 . S
C183 O179 1.253 . S
C183 O184 1.227 . S
O184 C183 1.227 . S
N185 Co171 2.140 . S
N185 C188 1.346 . S
N185 C189 1.345 . S
C186 C187 1.387 . S
C186 C190 1.391 . S
C187 C186 1.387 . S
C187 C188 1.369 . S
C187 H196 0.929 . S
C188 N185 1.346 . S
C188 C187 1.369 . S
C188 H191 0.928 . S
C189 N185 1.345 . S
C189 C190 1.371 . S
C189 H192 0.931 . S
C190 C186 1.391 . S
C190 C189 1.371 . S
C190 H197 0.930 . S
H191 C188 0.928 . S
H192 C189 0.931 . S
H193 C169 0.930 . S
H194 C166 0.930 . S
H195 C175 0.930 . S
H196 C187 0.929 . S
H197 C190 0.930 . S
C198 C199 1.351 . S
C198 N201 1.368 . S
C198 H203 0.931 . S
C199 C198 1.351 . S
C199 N200 1.373 . S
C199 H227 0.930 . S
N200 C199 1.373 . S
N200 C202 1.340 . S
N201 C198 1.368 . S
N201 C202 1.321 . S
N201 Co204 2.135 . S
C202 N200 1.340 . S
C202 N201 1.321 . S
C202 H226 0.930 . S
H203 C198 0.931 . S
Co204 N201 2.135 . S
Co204 N207 2.121 . S
Co204 O212 2.055 . S
Co204 O215 2.039 . S
Co204 N218 2.140 . S
C205 O206 1.227 . S
C205 O215 1.265 . S
O206 C205 1.227 . S
N207 Co204 2.121 . S
N207 C209 1.375 . S
N207 C210 1.313 . S
C208 C209 1.338 . S
C208 N211 1.377 . S
C208 H228 0.930 . S
C209 N207 1.375 . S
C209 C208 1.338 . S
C209 H213 0.931 . S
C210 N207 1.313 . S
C210 N211 1.344 . S
C210 H214 0.930 . S
N211 C208 1.377 . S
N211 C210 1.344 . S
O212 Co204 2.055 . S
O212 C216 1.253 . S
H213 C209 0.931 . S
H214 C210 0.930 . S
O215 Co204 2.039 . S
O215 C205 1.265 . S
C216 O212 1.253 . S
C216 O217 1.227 . S
O217 C216 1.227 . S
N218 Co204 2.140 . S
N218 C221 1.346 . S
N218 C222 1.345 . S
C219 C220 1.387 . S
C219 C223 1.391 . S
C220 C219 1.387 . S
C220 C221 1.369 . S
C220 H229 0.929 . S
C221 N218 1.346 . S
C221 C220 1.369 . S
C221 H224 0.928 . S
C222 N218 1.345 . S
C222 C223 1.371 . S
C222 H225 0.931 . S
C223 C219 1.391 . S
C223 C222 1.371 . S
C223 H230 0.930 . S
H224 C221 0.928 . S
H225 C222 0.931 . S
H226 C202 0.930 . S
H227 C199 0.930 . S
H228 C208 0.930 . S
H229 C220 0.929 . S
H230 C223 0.930 . S
C231 C232 1.351 . S
C231 N234 1.368 . S
C231 H236 0.931 . S
C232 C231 1.351 . S
C232 N233 1.373 . S
C232 H260 0.930 . S
N233 C232 1.373 . S
N233 C235 1.340 . S
N234 C231 1.368 . S
N234 C235 1.321 . S
N234 Co237 2.135 . S
C235 N233 1.340 . S
C235 N234 1.321 . S
C235 H259 0.930 . S
H236 C231 0.931 . S
Co237 N234 2.135 . S
Co237 N240 2.121 . S
Co237 O245 2.055 . S
Co237 O248 2.039 . S
Co237 N251 2.140 . S
C238 O239 1.227 . S
C238 O248 1.265 . S
O239 C238 1.227 . S
N240 Co237 2.121 . S
N240 C242 1.375 . S
N240 C243 1.313 . S
C241 C242 1.338 . S
C241 N244 1.377 . S
C241 H261 0.930 . S
C242 N240 1.375 . S
C242 C241 1.338 . S
C242 H246 0.931 . S
C243 N240 1.313 . S
C243 N244 1.344 . S
C243 H247 0.930 . S
N244 C241 1.377 . S
N244 C243 1.344 . S
O245 Co237 2.055 . S
O245 C249 1.253 . S
H246 C242 0.931 . S
H247 C243 0.930 . S
O248 Co237 2.039 . S
O248 C238 1.265 . S
C249 O245 1.253 . S
C249 O250 1.227 . S
O250 C249 1.227 . S
N251 Co237 2.140 . S
N251 C254 1.346 1_455 S
N251 C255 1.345 . S
C252 C253 1.387 . S
C252 C256 1.391 . S
C253 C252 1.387 . S
C253 C254 1.369 . S
C253 H262 0.929 . S
C254 N251 1.346 1_655 S
C254 C253 1.369 . S
C254 H257 0.928 . S
C255 N251 1.345 . S
C255 C256 1.371 1_455 S
C255 H258 0.931 . S
C256 C252 1.391 . S
C256 C255 1.371 1_655 S
C256 H263 0.930 . S
H257 C254 0.928 . S
H258 C255 0.931 . S
H259 C235 0.930 . S
H260 C232 0.930 . S
H261 C241 0.930 . S
H262 C253 0.929 . S
H263 C256 0.930 . S
C264 C265 1.351 . S
C264 N267 1.368 . S
C264 H269 0.931 . S
C265 C264 1.351 . S
C265 N266 1.373 . S
C265 H293 0.930 . S
N266 C265 1.373 . S
N266 C268 1.340 . S
N267 C264 1.368 . S
N267 C268 1.321 . S
N267 Co270 2.135 . S
C268 N266 1.340 . S
C268 N267 1.321 . S
C268 H292 0.930 . S
H269 C264 0.931 . S
Co270 N267 2.135 . S
Co270 N273 2.121 . S
Co270 O278 2.055 . S
Co270 O281 2.039 . S
Co270 N284 2.140 . S
C271 O272 1.227 . S
C271 O281 1.265 . S
O272 C271 1.227 . S
N273 Co270 2.121 . S
N273 C275 1.375 . S
N273 C276 1.313 . S
C274 C275 1.338 . S
C274 N277 1.377 . S
C274 H294 0.930 . S
C275 N273 1.375 . S
C275 C274 1.338 . S
C275 H279 0.931 . S
C276 N273 1.313 . S
C276 N277 1.344 . S
C276 H280 0.930 . S
N277 C274 1.377 . S
N277 C276 1.344 . S
O278 Co270 2.055 . S
O278 C282 1.253 . S
H279 C275 0.931 . S
H280 C276 0.930 . S
O281 Co270 2.039 . S
O281 C271 1.265 . S
C282 O278 1.253 . S
C282 O283 1.227 . S
O283 C282 1.227 . S
N284 Co270 2.140 . S
N284 C287 1.346 . S
N284 C288 1.345 . S
C285 C286 1.387 . S
C285 C289 1.391 . S
C286 C285 1.387 . S
C286 C287 1.369 . S
C286 H295 0.929 . S
C287 N284 1.346 . S
C287 C286 1.369 . S
C287 H290 0.928 . S
C288 N284 1.345 . S
C288 C289 1.371 . S
C288 H291 0.931 . S
C289 C285 1.391 . S
C289 C288 1.371 . S
C289 H296 0.930 . S
H290 C287 0.928 . S
H291 C288 0.931 . S
H292 C268 0.930 . S
H293 C265 0.930 . S
H294 C274 0.930 . S
H295 C286 0.929 . S
H296 C289 0.930 . S
C297 C298 1.351 . S
C297 N300 1.368 . S
C297 H302 0.931 . S
C298 C297 1.351 . S
C298 N299 1.373 . S
C298 H326 0.930 . S
N299 C298 1.373 . S
N299 C301 1.340 . S
N300 C297 1.368 . S
N300 C301 1.321 . S
N300 Co303 2.135 . S
C301 N299 1.340 . S
C301 N300 1.321 . S
C301 H325 0.930 . S
H302 C297 0.931 . S
Co303 N300 2.135 . S
Co303 N306 2.121 . S
Co303 O311 2.055 . S
Co303 O314 2.039 . S
Co303 N317 2.140 . S
C304 O305 1.227 . S
C304 O314 1.265 . S
O305 C304 1.227 . S
N306 Co303 2.121 . S
N306 C308 1.375 . S
N306 C309 1.313 . S
C307 C308 1.338 . S
C307 N310 1.377 . S
C307 H327 0.930 . S
C308 N306 1.375 . S
C308 C307 1.338 . S
C308 H312 0.931 . S
C309 N306 1.313 . S
C309 N310 1.344 . S
C309 H313 0.930 . S
N310 C307 1.377 . S
N310 C309 1.344 . S
O311 Co303 2.055 . S
O311 C315 1.253 . S
H312 C308 0.931 . S
H313 C309 0.930 . S
O314 Co303 2.039 . S
O314 C304 1.265 . S
C315 O311 1.253 . S
C315 O316 1.227 . S
O316 C315 1.227 . S
N317 Co303 2.140 . S
N317 C320 1.346 1_655 S
N317 C321 1.345 . S
C318 C319 1.387 . S
C318 C322 1.391 . S
C319 C318 1.387 . S
C319 C320 1.369 . S
C319 H328 0.929 . S
C320 N317 1.346 1_455 S
C320 C319 1.369 . S
C320 H323 0.928 . S
C321 N317 1.345 . S
C321 C322 1.371 1_655 S
C321 H324 0.931 . S
C322 C318 1.391 . S
C322 C321 1.371 1_455 S
C322 H329 0.930 . S
H323 C320 0.928 . S
H324 C321 0.931 . S
H325 C301 0.930 . S
H326 C298 0.930 . S
H327 C307 0.930 . S
H328 C319 0.929 . S
H329 C322 0.930 . S
C330 C331 1.351 . S
C330 N333 1.368 . S
C330 H335 0.931 . S
C331 C330 1.351 . S
C331 N332 1.373 . S
C331 H359 0.930 . S
N332 C331 1.373 . S
N332 C334 1.340 . S
N333 C330 1.368 . S
N333 C334 1.321 . S
N333 Co336 2.135 . S
C334 N332 1.340 . S
C334 N333 1.321 . S
C334 H358 0.930 . S
H335 C330 0.931 . S
Co336 N333 2.135 . S
Co336 N339 2.121 . S
Co336 O344 2.055 . S
Co336 O347 2.039 . S
Co336 N350 2.140 . S
C337 O338 1.227 . S
C337 O347 1.265 . S
O338 C337 1.227 . S
N339 Co336 2.121 . S
N339 C341 1.375 . S
N339 C342 1.313 . S
C340 C341 1.338 . S
C340 N343 1.377 . S
C340 H360 0.930 . S
C341 N339 1.375 . S
C341 C340 1.338 . S
C341 H345 0.931 . S
C342 N339 1.313 . S
C342 N343 1.344 . S
C342 H346 0.930 . S
N343 C340 1.377 . S
N343 C342 1.344 . S
O344 Co336 2.055 . S
O344 C348 1.253 . S
H345 C341 0.931 . S
H346 C342 0.930 . S
O347 Co336 2.039 . S
O347 C337 1.265 . S
C348 O344 1.253 . S
C348 O349 1.227 . S
O349 C348 1.227 . S
N350 Co336 2.140 . S
N350 C353 1.346 1_455 S
N350 C354 1.345 . S
C351 C352 1.387 . S
C351 C355 1.391 . S
C352 C351 1.387 . S
C352 C353 1.369 . S
C352 H361 0.929 . S
C353 N350 1.346 1_655 S
C353 C352 1.369 . S
C353 H356 0.928 . S
C354 N350 1.345 . S
C354 C355 1.371 1_455 S
C354 H357 0.931 . S
C355 C351 1.391 . S
C355 C354 1.371 1_655 S
C355 H362 0.930 . S
H356 C353 0.928 . S
H357 C354 0.931 . S
H358 C334 0.930 . S
H359 C331 0.930 . S
H360 C340 0.930 . S
H361 C352 0.929 . S
H362 C355 0.930 . S
C363 C364 1.351 . S
C363 N366 1.368 . S
C363 H368 0.931 . S
C364 C363 1.351 . S
C364 N365 1.373 . S
C364 H392 0.930 . S
N365 C364 1.373 . S
N365 C367 1.340 . S
N366 C363 1.368 . S
N366 C367 1.321 . S
N366 Co369 2.135 . S
C367 N365 1.340 . S
C367 N366 1.321 . S
C367 H391 0.930 . S
H368 C363 0.931 . S
Co369 N366 2.135 . S
Co369 N372 2.121 . S
Co369 O377 2.055 . S
Co369 O380 2.039 . S
Co369 N383 2.140 . S
C370 O371 1.227 . S
C370 O380 1.265 . S
O371 C370 1.227 . S
N372 Co369 2.121 . S
N372 C374 1.375 . S
N372 C375 1.313 . S
C373 C374 1.338 . S
C373 N376 1.377 . S
C373 H393 0.930 . S
C374 N372 1.375 . S
C374 C373 1.338 . S
C374 H378 0.931 . S
C375 N372 1.313 . S
C375 N376 1.344 . S
C375 H379 0.930 . S
N376 C373 1.377 . S
N376 C375 1.344 . S
O377 Co369 2.055 . S
O377 C381 1.253 . S
H378 C374 0.931 . S
H379 C375 0.930 . S
O380 Co369 2.039 . S
O380 C370 1.265 . S
C381 O377 1.253 . S
C381 O382 1.227 . S
O382 C381 1.227 . S
N383 Co369 2.140 . S
N383 C386 1.346 . S
N383 C387 1.345 . S
C384 C385 1.387 . S
C384 C388 1.391 . S
C385 C384 1.387 . S
C385 C386 1.369 . S
C385 H394 0.929 . S
C386 N383 1.346 . S
C386 C385 1.369 . S
C386 H389 0.928 . S
C387 N383 1.345 . S
C387 C388 1.371 . S
C387 H390 0.931 . S
C388 C384 1.391 . S
C388 C387 1.371 . S
C388 H395 0.930 . S
H389 C386 0.928 . S
H390 C387 0.931 . S
H391 C367 0.930 . S
H392 C364 0.930 . S
H393 C373 0.930 . S
H394 C385 0.929 . S
H395 C388 0.930 . S
C396 C397 1.351 . S
C396 N399 1.368 . S
C396 H401 0.931 . S
C397 C396 1.351 . S
C397 N398 1.373 . S
C397 H425 0.930 . S
N398 C397 1.373 . S
N398 C400 1.340 . S
N399 C396 1.368 . S
N399 C400 1.321 . S
N399 Co402 2.135 . S
C400 N398 1.340 . S
C400 N399 1.321 . S
C400 H424 0.930 . S
H401 C396 0.931 . S
Co402 N399 2.135 . S
Co402 N405 2.121 . S
Co402 O410 2.055 . S
Co402 O413 2.039 . S
Co402 N416 2.140 . S
C403 O404 1.227 . S
C403 O413 1.265 . S
O404 C403 1.227 . S
N405 Co402 2.121 . S
N405 C407 1.375 . S
N405 C408 1.313 . S
C406 C407 1.338 . S
C406 N409 1.377 . S
C406 H426 0.930 . S
C407 N405 1.375 . S
C407 C406 1.338 . S
C407 H411 0.931 . S
C408 N405 1.313 . S
C408 N409 1.344 . S
C408 H412 0.930 . S
N409 C406 1.377 . S
N409 C408 1.344 . S
O410 Co402 2.055 . S
O410 C414 1.253 . S
H411 C407 0.931 . S
H412 C408 0.930 . S
O413 Co402 2.039 . S
O413 C403 1.265 . S
C414 O410 1.253 . S
C414 O415 1.227 . S
O415 C414 1.227 . S
N416 Co402 2.140 . S
N416 C419 1.346 . S
N416 C420 1.345 . S
C417 C418 1.387 . S
C417 C421 1.391 . S
C418 C417 1.387 . S
C418 C419 1.369 . S
C418 H427 0.929 . S
C419 N416 1.346 . S
C419 C418 1.369 . S
C419 H422 0.928 . S
C420 N416 1.345 . S
C420 C421 1.371 . S
C420 H423 0.931 . S
C421 C417 1.391 . S
C421 C420 1.371 . S
C421 H428 0.930 . S
H422 C419 0.928 . S
H423 C420 0.931 . S
H424 C400 0.930 . S
H425 C397 0.930 . S
H426 C406 0.930 . S
H427 C418 0.929 . S
H428 C421 0.930 . S
C429 C430 1.351 . S
C429 N432 1.368 . S
C429 H434 0.931 . S
C430 C429 1.351 . S
C430 N431 1.373 . S
C430 H458 0.930 . S
N431 C430 1.373 . S
N431 C433 1.340 . S
N432 C429 1.368 . S
N432 C433 1.321 . S
N432 Co435 2.135 . S
C433 N431 1.340 . S
C433 N432 1.321 . S
C433 H457 0.930 . S
H434 C429 0.931 . S
Co435 N432 2.135 . S
Co435 N438 2.121 . S
Co435 O443 2.055 . S
Co435 O446 2.039 . S
Co435 N449 2.140 . S
C436 O437 1.227 . S
C436 O446 1.265 . S
O437 C436 1.227 . S
N438 Co435 2.121 . S
N438 C440 1.375 . S
N438 C441 1.313 . S
C439 C440 1.338 . S
C439 N442 1.377 . S
C439 H459 0.930 . S
C440 N438 1.375 . S
C440 C439 1.338 . S
C440 H444 0.931 . S
C441 N438 1.313 . S
C441 N442 1.344 . S
C441 H445 0.930 . S
N442 C439 1.377 . S
N442 C441 1.344 . S
O443 Co435 2.055 . S
O443 C447 1.253 . S
H444 C440 0.931 . S
H445 C441 0.930 . S
O446 Co435 2.039 . S
O446 C436 1.265 . S
C447 O443 1.253 . S
C447 O448 1.227 . S
O448 C447 1.227 . S
N449 Co435 2.140 . S
N449 C452 1.346 1_455 S
N449 C453 1.345 . S
C450 C451 1.387 . S
C450 C454 1.391 . S
C451 C450 1.387 . S
C451 C452 1.369 . S
C451 H460 0.929 . S
C452 N449 1.346 1_655 S
C452 C451 1.369 . S
C452 H455 0.928 . S
C453 N449 1.345 . S
C453 C454 1.371 1_455 S
C453 H456 0.931 . S
C454 C450 1.391 . S
C454 C453 1.371 1_655 S
C454 H461 0.930 . S
H455 C452 0.928 . S
H456 C453 0.931 . S
H457 C433 0.930 . S
H458 C430 0.930 . S
H459 C439 0.930 . S
H460 C451 0.929 . S
H461 C454 0.930 . S
C462 C463 1.351 . S
C462 N465 1.368 . S
C462 H467 0.931 . S
C463 C462 1.351 . S
C463 N464 1.373 . S
C463 H491 0.930 . S
N464 C463 1.373 . S
N464 C466 1.340 . S
N465 C462 1.368 . S
N465 C466 1.321 . S
N465 Co468 2.135 . S
C466 N464 1.340 . S
C466 N465 1.321 . S
C466 H490 0.930 . S
H467 C462 0.931 . S
Co468 N465 2.135 . S
Co468 N471 2.121 . S
Co468 O476 2.055 . S
Co468 O479 2.039 . S
Co468 N482 2.140 . S
C469 O470 1.227 . S
C469 O479 1.265 . S
O470 C469 1.227 . S
N471 Co468 2.121 . S
N471 C473 1.375 . S
N471 C474 1.313 . S
C472 C473 1.338 . S
C472 N475 1.377 . S
C472 H492 0.930 . S
C473 N471 1.375 . S
C473 C472 1.338 . S
C473 H477 0.931 . S
C474 N471 1.313 . S
C474 N475 1.344 . S
C474 H478 0.930 . S
N475 C472 1.377 . S
N475 C474 1.344 . S
O476 Co468 2.055 . S
O476 C480 1.253 . S
H477 C473 0.931 . S
H478 C474 0.930 . S
O479 Co468 2.039 . S
O479 C469 1.265 . S
C480 O476 1.253 . S
C480 O481 1.227 . S
O481 C480 1.227 . S
N482 Co468 2.140 . S
N482 C485 1.346 1_655 S
N482 C486 1.345 . S
C483 C484 1.387 . S
C483 C487 1.391 . S
C484 C483 1.387 . S
C484 C485 1.369 . S
C484 H493 0.929 . S
C485 N482 1.346 1_455 S
C485 C484 1.369 . S
C485 H488 0.928 . S
C486 N482 1.345 . S
C486 C487 1.371 1_655 S
C486 H489 0.931 . S
C487 C483 1.391 . S
C487 C486 1.371 1_455 S
C487 H494 0.930 . S
H488 C485 0.928 . S
H489 C486 0.931 . S
H490 C466 0.930 . S
H491 C463 0.930 . S
H492 C472 0.930 . S
H493 C484 0.929 . S
H494 C487 0.930 . S
C495 C496 1.351 . S
C495 N498 1.368 . S
C495 H500 0.931 . S
C496 C495 1.351 . S
C496 N497 1.373 . S
C496 H524 0.930 . S
N497 C496 1.373 . S
N497 C499 1.340 . S
N498 C495 1.368 . S
N498 C499 1.321 . S
N498 Co501 2.135 . S
C499 N497 1.340 . S
C499 N498 1.321 . S
C499 H523 0.930 . S
H500 C495 0.931 . S
Co501 N498 2.135 . S
Co501 N504 2.121 . S
Co501 O509 2.055 . S
Co501 O512 2.039 . S
Co501 N515 2.140 . S
C502 O503 1.227 . S
C502 O512 1.265 . S
O503 C502 1.227 . S
N504 Co501 2.121 . S
N504 C506 1.375 . S
N504 C507 1.313 . S
C505 C506 1.338 . S
C505 N508 1.377 . S
C505 H525 0.930 . S
C506 N504 1.375 . S
C506 C505 1.338 . S
C506 H510 0.931 . S
C507 N504 1.313 . S
C507 N508 1.344 . S
C507 H511 0.930 . S
N508 C505 1.377 . S
N508 C507 1.344 . S
O509 Co501 2.055 . S
O509 C513 1.253 . S
H510 C506 0.931 . S
H511 C507 0.930 . S
O512 Co501 2.039 . S
O512 C502 1.265 . S
C513 O509 1.253 . S
C513 O514 1.227 . S
O514 C513 1.227 . S
N515 Co501 2.140 . S
N515 C518 1.346 . S
N515 C519 1.345 . S
C516 C517 1.387 . S
C516 C520 1.391 . S
C517 C516 1.387 . S
C517 C518 1.369 . S
C517 H526 0.929 . S
C518 N515 1.346 . S
C518 C517 1.369 . S
C518 H521 0.928 . S
C519 N515 1.345 . S
C519 C520 1.371 . S
C519 H522 0.931 . S
C520 C516 1.391 . S
C520 C519 1.371 . S
C520 H527 0.930 . S
H521 C518 0.928 . S
H522 C519 0.931 . S
H523 C499 0.930 . S
H524 C496 0.930 . S
H525 C505 0.930 . S
H526 C517 0.929 . S
H527 C520 0.930 . S
C528 C529 1.391 . S
C528 C530 1.394 1_556 S
C528 H544 0.945 . S
C529 C528 1.391 . S
C529 C533 1.376 . S
C530 C528 1.394 1_554 S
C530 C531 1.383 . S
C530 C534 1.531 . S
C531 C530 1.383 . S
C531 C532 1.369 1_554 S
C531 C539 1.529 . S
C532 C531 1.369 1_556 S
C532 C533 1.392 . S
C532 C535 1.511 . S
C533 C529 1.376 . S
C533 C532 1.392 . S
C533 H545 0.929 . S
C534 C530 1.531 . S
C534 H546 0.960 . S
C534 H547 0.962 . S
C534 H548 0.960 . S
C535 C532 1.511 . S
C535 H549 0.961 . S
C535 H550 0.961 . S
C535 H551 0.961 . S
C536 C537 1.370 . S
C536 C538 1.363 . S
C536 H552 0.931 . S
C537 C536 1.370 . S
C537 C541 1.408 . S
C538 C536 1.363 . S
C538 C539 1.370 . S
C538 C542 1.524 . S
C539 C531 1.529 . S
C539 C538 1.370 . S
C539 C540 1.403 . S
C540 C539 1.403 . S
C540 C541 1.404 . S
C540 C543 1.539 . S
C541 C537 1.408 . S
C541 C540 1.404 . S
C541 H553 0.930 . S
C542 C538 1.524 . S
C542 H554 0.956 . S
C542 H555 0.961 1_554 S
C542 H556 0.961 . S
C543 C540 1.539 . S
C543 H557 0.958 . S
C543 H558 0.961 . S
C543 H559 0.960 . S
H544 C528 0.945 . S
H545 C533 0.929 . S
H546 C534 0.960 . S
H547 C534 0.962 . S
H548 C534 0.960 . S
H549 C535 0.961 . S
H550 C535 0.961 . S
H551 C535 0.961 . S
H552 C536 0.931 . S
H553 C541 0.930 . S
H554 C542 0.956 . S
H555 C542 0.961 1_556 S
H556 C542 0.961 . S
H557 C543 0.958 . S
H558 C543 0.961 . S
H559 C543 0.960 . S
C560 C561 1.391 . S
C560 C562 1.394 1_556 S
C560 H576 0.931 . S
C561 C560 1.391 . S
C561 C565 1.376 . S
C562 C560 1.394 1_554 S
C562 C563 1.369 . S
C562 C566 1.531 . S
C563 C562 1.369 . S
C563 C564 1.410 1_554 S
C563 C571 1.503 . S
C564 C563 1.410 1_556 S
C564 C565 1.392 . S
C564 C567 1.511 . S
C565 C561 1.376 . S
C565 C564 1.392 . S
C565 H577 0.929 . S
C566 C562 1.531 . S
C566 H578 0.960 . S
C566 H579 0.962 . S
C566 H580 0.960 . S
C567 C564 1.511 . S
C567 H581 0.961 . S
C567 H582 0.961 . S
C567 H583 0.961 . S
C568 C569 1.370 . S
C568 C570 1.363 . S
C568 H584 0.931 . S
C569 C568 1.370 . S
C569 C573 1.408 . S
C570 C568 1.363 . S
C570 C571 1.370 . S
C570 C574 1.524 1_554 S
C571 C563 1.503 . S
C571 C570 1.370 . S
C571 C572 1.403 . S
C572 C571 1.403 . S
C572 C573 1.404 . S
C572 C575 1.539 . S
C573 C569 1.408 . S
C573 C572 1.404 . S
C573 H585 0.930 . S
C574 C570 1.524 1_556 S
C574 H586 0.956 . S
C574 H587 0.961 . S
C574 H588 0.961 . S
C575 C572 1.539 . S
C575 H589 0.958 . S
C575 H590 0.961 . S
C575 H591 0.960 . S
H576 C560 0.931 . S
H577 C565 0.929 . S
H578 C566 0.960 . S
H579 C566 0.962 . S
H580 C566 0.960 . S
H581 C567 0.961 . S
H582 C567 0.961 . S
H583 C567 0.961 . S
H584 C568 0.931 . S
H585 C573 0.930 . S
H586 C574 0.956 . S
H587 C574 0.961 . S
H588 C574 0.961 . S
H589 C575 0.958 . S
H590 C575 0.961 . S
H591 C575 0.960 . S
C592 C593 1.391 . S
C592 C594 1.394 . S
C592 H608 0.931 . S
C593 C592 1.391 . S
C593 C597 1.376 . S
C594 C592 1.394 . S
C594 C595 1.369 . S
C594 C598 1.531 . S
C595 C594 1.369 . S
C595 C596 1.410 . S
C595 C603 1.503 . S
C596 C595 1.410 . S
C596 C597 1.392 . S
C596 C599 1.511 . S
C597 C593 1.376 . S
C597 C596 1.392 . S
C597 H609 0.929 . S
C598 C594 1.531 . S
C598 H610 0.960 . S
C598 H611 0.962 . S
C598 H612 0.960 . S
C599 C596 1.511 . S
C599 H613 0.961 . S
C599 H614 0.961 . S
C599 H615 0.961 . S
C600 C601 1.370 . S
C600 C602 1.363 . S
C600 H616 0.931 . S
C601 C600 1.370 . S
C601 C605 1.408 . S
C602 C600 1.363 . S
C602 C603 1.370 . S
C602 C606 1.524 . S
C603 C595 1.503 . S
C603 C602 1.370 . S
C603 C604 1.403 . S
C604 C603 1.403 . S
C604 C605 1.404 . S
C604 C607 1.539 . S
C605 C601 1.408 . S
C605 C604 1.404 . S
C605 H617 0.930 . S
C606 C602 1.524 . S
C606 H618 0.956 . S
C606 H619 0.961 . S
C606 H620 0.961 . S
C607 C604 1.539 . S
C607 H621 0.958 . S
C607 H622 0.961 . S
C607 H623 0.960 . S
H608 C592 0.931 . S
H609 C597 0.929 . S
H610 C598 0.960 . S
H611 C598 0.962 . S
H612 C598 0.960 . S
H613 C599 0.961 . S
H614 C599 0.961 . S
H615 C599 0.961 . S
H616 C600 0.931 . S
H617 C605 0.930 . S
H618 C606 0.956 . S
H619 C606 0.961 . S
H620 C606 0.961 . S
H621 C607 0.958 . S
H622 C607 0.961 . S
H623 C607 0.960 . S
C624 C625 1.391 . S
C624 C626 1.394 . S
C624 H640 0.931 . S
C625 C624 1.391 . S
C625 C629 1.376 . S
C626 C624 1.394 . S
C626 C627 1.369 . S
C626 C630 1.531 . S
C627 C626 1.369 . S
C627 C628 1.410 . S
C627 C635 1.503 . S
C628 C627 1.410 . S
C628 C629 1.392 . S
C628 C631 1.511 . S
C629 C625 1.376 . S
C629 C628 1.392 . S
C629 H641 0.929 . S
C630 C626 1.531 . S
C630 H642 0.960 . S
C630 H643 0.962 . S
C630 H644 0.960 . S
C631 C628 1.511 . S
C631 H645 0.961 . S
C631 H646 0.961 . S
C631 H647 0.961 . S
C632 C633 1.370 . S
C632 C634 1.363 . S
C632 H648 0.931 . S
C633 C632 1.370 . S
C633 C637 1.408 . S
C634 C632 1.363 . S
C634 C635 1.370 . S
C634 C638 1.524 . S
C635 C627 1.503 . S
C635 C634 1.370 . S
C635 C636 1.403 . S
C636 C635 1.403 . S
C636 C637 1.404 . S
C636 C639 1.539 . S
C637 C633 1.408 . S
C637 C636 1.404 . S
C637 H649 0.930 . S
C638 C634 1.524 . S
C638 H650 0.956 . S
C638 H651 0.961 . S
C638 H652 0.961 . S
C639 C636 1.539 . S
C639 H653 0.958 . S
C639 H654 0.961 . S
C639 H655 0.960 . S
H640 C624 0.931 . S
H641 C629 0.929 . S
H642 C630 0.960 . S
H643 C630 0.962 . S
H644 C630 0.960 . S
H645 C631 0.961 . S
H646 C631 0.961 . S
H647 C631 0.961 . S
H648 C632 0.931 . S
H649 C637 0.930 . S
H650 C638 0.956 . S
H651 C638 0.961 . S
H652 C638 0.961 . S
H653 C639 0.958 . S
H654 C639 0.961 . S
H655 C639 0.960 . S
C656 C657 1.391 . S
C656 C658 1.394 . S
C656 H672 0.931 . S
C657 C656 1.391 . S
C657 C661 1.376 . S
C658 C656 1.394 . S
C658 C659 1.369 . S
C658 C662 1.531 1_556 S
C659 C658 1.369 . S
C659 C660 1.410 . S
C659 C667 1.503 1_556 S
C660 C659 1.410 . S
C660 C661 1.392 . S
C660 C663 1.511 . S
C661 C657 1.376 . S
C661 C660 1.392 . S
C661 H673 0.929 . S
C662 C658 1.531 1_554 S
C662 H674 0.960 . S
C662 H675 0.962 . S
C662 H676 0.960 . S
C663 C660 1.511 . S
C663 H677 0.961 . S
C663 H678 0.961 . S
C663 H679 0.961 . S
C664 C665 1.370 . S
C664 C666 1.363 1_554 S
C664 H680 0.931 . S
C665 C664 1.370 . S
C665 C669 1.408 . S
C666 C664 1.363 1_556 S
C666 C667 1.370 1_556 S
C666 C670 1.524 . S
C667 C659 1.503 1_554 S
C667 C666 1.370 1_554 S
C667 C668 1.403 . S
C668 C667 1.403 . S
C668 C669 1.404 . S
C668 C671 1.539 . S
C669 C665 1.408 . S
C669 C668 1.404 . S
C669 H681 0.930 . S
C670 C666 1.524 . S
C670 H682 0.956 . S
C670 H683 0.961 . S
C670 H684 0.961 . S
C671 C668 1.539 . S
C671 H685 0.958 . S
C671 H686 0.961 . S
C671 H687 0.960 . S
H672 C656 0.931 . S
H673 C661 0.929 . S
H674 C662 0.960 . S
H675 C662 0.962 . S
H676 C662 0.960 . S
H677 C663 0.961 . S
H678 C663 0.961 . S
H679 C663 0.961 . S
H680 C664 0.931 . S
H681 C669 0.930 . S
H682 C670 0.956 . S
H683 C670 0.961 . S
H684 C670 0.961 . S
H685 C671 0.958 . S
H686 C671 0.961 . S
H687 C671 0.960 . S
C688 C689 1.391 . S
C688 C690 1.394 . S
C688 H704 0.931 . S
C689 C688 1.391 . S
C689 C693 1.376 . S
C690 C688 1.394 . S
C690 C691 1.369 . S
C690 C694 1.531 . S
C691 C690 1.369 . S
C691 C692 1.410 . S
C691 C699 1.503 . S
C692 C691 1.410 . S
C692 C693 1.392 . S
C692 C695 1.511 . S
C693 C689 1.376 . S
C693 C692 1.392 . S
C693 H705 0.929 . S
C694 C690 1.531 . S
C694 H706 0.960 . S
C694 H707 0.962 1_556 S
C694 H708 0.960 . S
C695 C692 1.511 . S
C695 H709 0.961 . S
C695 H710 0.961 . S
C695 H711 0.961 . S
C696 C697 1.370 . S
C696 C698 1.363 . S
C696 H712 0.931 . S
C697 C696 1.370 . S
C697 C701 1.408 . S
C698 C696 1.363 . S
C698 C699 1.370 1_554 S
C698 C702 1.524 . S
C699 C691 1.503 . S
C699 C698 1.370 1_556 S
C699 C700 1.403 . S
C700 C699 1.403 . S
C700 C701 1.404 1_556 S
C700 C703 1.539 . S
C701 C697 1.408 . S
C701 C700 1.404 1_554 S
C701 H713 0.930 . S
C702 C698 1.524 . S
C702 H714 0.956 . S
C702 H715 0.961 . S
C702 H716 0.961 . S
C703 C700 1.539 . S
C703 H717 0.958 . S
C703 H718 0.961 . S
C703 H719 0.960 . S
H704 C688 0.931 . S
H705 C693 0.929 . S
H706 C694 0.960 . S
H707 C694 0.962 1_554 S
H708 C694 0.960 . S
H709 C695 0.961 . S
H710 C695 0.961 . S
H711 C695 0.961 . S
H712 C696 0.931 . S
H713 C701 0.930 . S
H714 C702 0.956 . S
H715 C702 0.961 . S
H716 C702 0.961 . S
H717 C703 0.958 . S
H718 C703 0.961 . S
H719 C703 0.960 . S
C720 C721 1.391 . S
C720 C722 1.394 . S
C720 H736 0.931 . S
C721 C720 1.391 . S
C721 C725 1.376 . S
C722 C720 1.394 . S
C722 C723 1.369 . S
C722 C726 1.531 . S
C723 C722 1.369 . S
C723 C724 1.410 . S
C723 C731 1.503 . S
C724 C723 1.410 . S
C724 C725 1.392 . S
C724 C727 1.511 . S
C725 C721 1.376 . S
C725 C724 1.392 . S
C725 H737 0.929 . S
C726 C722 1.531 . S
C726 H738 0.960 . S
C726 H739 0.962 . S
C726 H740 0.960 . S
C727 C724 1.511 . S
C727 H741 0.961 . S
C727 H742 0.961 . S
C727 H743 0.961 . S
C728 C729 1.370 . S
C728 C730 1.363 . S
C728 H744 0.931 . S
C729 C728 1.370 . S
C729 C733 1.408 . S
C730 C728 1.363 . S
C730 C731 1.370 . S
C730 C734 1.524 . S
C731 C723 1.503 . S
C731 C730 1.370 . S
C731 C732 1.403 . S
C732 C731 1.403 . S
C732 C733 1.404 . S
C732 C735 1.539 . S
C733 C729 1.408 . S
C733 C732 1.404 . S
C733 H745 0.930 . S
C734 C730 1.524 . S
C734 H746 0.956 . S
C734 H747 0.961 . S
C734 H748 0.961 . S
C735 C732 1.539 . S
C735 H749 0.958 . S
C735 H750 0.961 . S
C735 H751 0.960 . S
H736 C720 0.931 . S
H737 C725 0.929 . S
H738 C726 0.960 . S
H739 C726 0.962 . S
H740 C726 0.960 . S
H741 C727 0.961 . S
H742 C727 0.961 . S
H743 C727 0.961 . S
H744 C728 0.931 . S
H745 C733 0.930 . S
H746 C734 0.956 . S
H747 C734 0.961 . S
H748 C734 0.961 . S
H749 C735 0.958 . S
H750 C735 0.961 . S
H751 C735 0.960 . S
C752 C753 1.391 . S
C752 C754 1.394 . S
C752 H768 0.931 . S
C753 C752 1.391 . S
C753 C757 1.376 . S
C754 C752 1.394 . S
C754 C755 1.369 . S
C754 C758 1.531 . S
C755 C754 1.369 . S
C755 C756 1.410 . S
C755 C763 1.503 . S
C756 C755 1.410 . S
C756 C757 1.392 . S
C756 C759 1.511 . S
C757 C753 1.376 . S
C757 C756 1.392 . S
C757 H769 0.929 . S
C758 C754 1.531 . S
C758 H770 0.960 . S
C758 H771 0.962 . S
C758 H772 0.960 . S
C759 C756 1.511 . S
C759 H773 0.961 . S
C759 H774 0.961 . S
C759 H775 0.961 . S
C760 C761 1.370 . S
C760 C762 1.363 . S
C760 H776 0.931 . S
C761 C760 1.370 . S
C761 C765 1.408 . S
C762 C760 1.363 . S
C762 C763 1.370 . S
C762 C766 1.524 . S
C763 C755 1.503 . S
C763 C762 1.370 . S
C763 C764 1.403 . S
C764 C763 1.403 . S
C764 C765 1.404 . S
C764 C767 1.539 . S
C765 C761 1.408 . S
C765 C764 1.404 . S
C765 H777 0.930 . S
C766 C762 1.524 . S
C766 H778 0.956 . S
C766 H779 0.961 . S
C766 H780 0.961 . S
C767 C764 1.539 . S
C767 H781 0.958 . S
C767 H782 0.961 . S
C767 H783 0.960 . S
H768 C752 0.931 . S
H769 C757 0.929 . S
H770 C758 0.960 . S
H771 C758 0.962 . S
H772 C758 0.960 . S
H773 C759 0.961 . S
H774 C759 0.961 . S
H775 C759 0.961 . S
H776 C760 0.931 . S
H777 C765 0.930 . S
H778 C766 0.956 . S
H779 C766 0.961 . S
H780 C766 0.961 . S
H781 C767 0.958 . S
H782 C767 0.961 . S
H783 C767 0.960 . S
C784 C785 1.391 . S
C784 C786 1.394 . S
C784 H800 0.931 . S
C785 C784 1.391 . S
C785 C789 1.376 . S
C786 C784 1.394 . S
C786 C787 1.369 . S
C786 C790 1.531 1_554 S
C787 C786 1.369 . S
C787 C788 1.410 . S
C787 C795 1.503 1_554 S
C788 C787 1.410 . S
C788 C789 1.392 . S
C788 C791 1.511 . S
C789 C785 1.376 . S
C789 C788 1.392 . S
C789 H801 0.929 . S
C790 C786 1.531 1_556 S
C790 H802 0.960 . S
C790 H803 0.962 . S
C790 H804 0.960 . S
C791 C788 1.511 . S
C791 H805 0.961 . S
C791 H806 0.961 . S
C791 H807 0.961 . S
C792 C793 1.370 . S
C792 C794 1.363 1_556 S
C792 H808 0.931 . S
C793 C792 1.370 . S
C793 C797 1.408 . S
C794 C792 1.363 1_554 S
C794 C795 1.370 1_554 S
C794 C798 1.524 . S
C795 C787 1.503 1_556 S
C795 C794 1.370 1_556 S
C795 C796 1.403 . S
C796 C795 1.403 . S
C796 C797 1.404 . S
C796 C799 1.539 . S
C797 C793 1.408 . S
C797 C796 1.404 . S
C797 H809 0.930 . S
C798 C794 1.524 . S
C798 H810 0.956 . S
C798 H811 0.961 . S
C798 H812 0.961 . S
C799 C796 1.539 . S
C799 H813 0.958 . S
C799 H814 0.961 . S
C799 H815 0.960 . S
H800 C784 0.931 . S
H801 C789 0.929 . S
H802 C790 0.960 . S
H803 C790 0.962 . S
H804 C790 0.960 . S
H805 C791 0.961 . S
H806 C791 0.961 . S
H807 C791 0.961 . S
H808 C792 0.931 . S
H809 C797 0.930 . S
H810 C798 0.956 . S
H811 C798 0.961 . S
H812 C798 0.961 . S
H813 C799 0.958 . S
H814 C799 0.961 . S
H815 C799 0.960 . S
C816 C817 1.391 . S
C816 C818 1.394 . S
C816 H832 0.931 . S
C817 C816 1.391 . S
C817 C821 1.376 . S
C818 C816 1.394 . S
C818 C819 1.369 . S
C818 C822 1.531 . S
C819 C818 1.369 . S
C819 C820 1.410 . S
C819 C827 1.503 1_554 S
C820 C819 1.410 . S
C820 C821 1.392 . S
C820 C823 1.511 1_554 S
C821 C817 1.376 . S
C821 C820 1.392 . S
C821 H833 0.929 . S
C822 C818 1.531 . S
C822 H834 0.960 . S
C822 H835 0.962 . S
C822 H836 0.960 . S
C823 C820 1.511 1_556 S
C823 H837 0.961 . S
C823 H838 0.961 . S
C823 H839 0.961 . S
C824 C825 1.370 . S
C824 C826 1.363 . S
C824 H840 0.931 . S
C825 C824 1.370 . S
C825 C829 1.408 . S
C826 C824 1.363 . S
C826 C827 1.370 . S
C826 C830 1.524 1_556 S
C827 C819 1.503 1_556 S
C827 C826 1.370 . S
C827 C828 1.403 . S
C828 C827 1.403 . S
C828 C829 1.404 . S
C828 C831 1.539 . S
C829 C825 1.408 . S
C829 C828 1.404 . S
C829 H841 0.930 . S
C830 C826 1.524 1_554 S
C830 H842 0.956 . S
C830 H843 0.961 . S
C830 H844 0.961 . S
C831 C828 1.539 . S
C831 H845 0.958 . S
C831 H846 0.961 . S
C831 H847 0.960 . S
H832 C816 0.931 . S
H833 C821 0.929 . S
H834 C822 0.960 . S
H835 C822 0.962 . S
H836 C822 0.960 . S
H837 C823 0.961 . S
H838 C823 0.961 . S
H839 C823 0.961 . S
H840 C824 0.931 . S
H841 C829 0.930 . S
H842 C830 0.956 . S
H843 C830 0.961 . S
H844 C830 0.961 . S
H845 C831 0.958 . S
H846 C831 0.961 . S
H847 C831 0.960 . S
C848 C849 1.391 . S
C848 C850 1.394 . S
C848 H864 0.931 . S
C849 C848 1.391 . S
C849 C853 1.376 . S
C850 C848 1.394 . S
C850 C851 1.369 . S
C850 C854 1.531 . S
C851 C850 1.369 . S
C851 C852 1.410 . S
C851 C859 1.503 . S
C852 C851 1.410 . S
C852 C853 1.392 . S
C852 C855 1.511 . S
C853 C849 1.376 . S
C853 C852 1.392 . S
C853 H865 0.929 . S
C854 C850 1.531 . S
C854 H866 0.960 . S
C854 H867 0.962 . S
C854 H868 0.960 . S
C855 C852 1.511 . S
C855 H869 0.961 . S
C855 H870 0.961 . S
C855 H871 0.961 . S
C856 C857 1.370 . S
C856 C858 1.363 . S
C856 H872 0.931 . S
C857 C856 1.370 . S
C857 C861 1.408 . S
C858 C856 1.363 . S
C858 C859 1.370 . S
C858 C862 1.524 . S
C859 C851 1.503 . S
C859 C858 1.370 . S
C859 C860 1.403 . S
C860 C859 1.403 . S
C860 C861 1.404 . S
C860 C863 1.539 . S
C861 C857 1.408 . S
C861 C860 1.404 . S
C861 H873 0.930 . S
C862 C858 1.524 . S
C862 H874 0.956 . S
C862 H875 0.961 . S
C862 H876 0.961 . S
C863 C860 1.539 . S
C863 H877 0.958 . S
C863 H878 0.961 . S
C863 H879 0.960 . S
H864 C848 0.931 . S
H865 C853 0.929 . S
H866 C854 0.960 . S
H867 C854 0.962 . S
H868 C854 0.960 . S
H869 C855 0.961 . S
H870 C855 0.961 . S
H871 C855 0.961 . S
H872 C856 0.931 . S
H873 C861 0.930 . S
H874 C862 0.956 . S
H875 C862 0.961 . S
H876 C862 0.961 . S
H877 C863 0.958 . S
H878 C863 0.961 . S
H879 C863 0.960 . S
C880 C881 1.391 . S
C880 C882 1.394 . S
C880 H896 0.931 . S
C881 C880 1.391 . S
C881 C885 1.376 . S
C882 C880 1.394 . S
C882 C883 1.369 . S
C882 C886 1.531 . S
C883 C882 1.369 . S
C883 C884 1.410 . S
C883 C891 1.503 . S
C884 C883 1.410 . S
C884 C885 1.392 . S
C884 C887 1.511 . S
C885 C881 1.376 . S
C885 C884 1.392 . S
C885 H897 0.929 . S
C886 C882 1.531 . S
C886 H898 0.960 . S
C886 H899 0.962 . S
C886 H900 0.960 . S
C887 C884 1.511 . S
C887 H901 0.961 . S
C887 H902 0.961 . S
C887 H903 0.961 . S
C888 C889 1.370 . S
C888 C890 1.363 . S
C888 H904 0.931 . S
C889 C888 1.370 . S
C889 C893 1.408 . S
C890 C888 1.363 . S
C890 C891 1.370 . S
C890 C894 1.524 . S
C891 C883 1.503 . S
C891 C890 1.370 . S
C891 C892 1.403 . S
C892 C891 1.403 . S
C892 C893 1.404 . S
C892 C895 1.539 . S
C893 C889 1.408 . S
C893 C892 1.404 . S
C893 H905 0.930 . S
C894 C890 1.524 . S
C894 H906 0.956 . S
C894 H907 0.961 . S
C894 H908 0.961 . S
C895 C892 1.539 . S
C895 H909 0.958 . S
C895 H910 0.961 . S
C895 H911 0.960 . S
H896 C880 0.931 . S
H897 C885 0.929 . S
H898 C886 0.960 . S
H899 C886 0.962 . S
H900 C886 0.960 . S
H901 C887 0.961 . S
H902 C887 0.961 . S
H903 C887 0.961 . S
H904 C888 0.931 . S
H905 C893 0.930 . S
H906 C894 0.956 . S
H907 C894 0.961 . S
H908 C894 0.961 . S
H909 C895 0.958 . S
H910 C895 0.961 . S
H911 C895 0.960 . S
C912 C913 1.391 . S
C912 C914 1.394 . S
C912 H928 0.931 . S
C913 C912 1.391 . S
C913 C917 1.376 . S
C914 C912 1.394 . S
C914 C915 1.369 . S
C914 C918 1.531 . S
C915 C914 1.369 . S
C915 C916 1.410 . S
C915 C923 1.503 . S
C916 C915 1.410 . S
C916 C917 1.392 . S
C916 C919 1.511 . S
C917 C913 1.376 . S
C917 C916 1.392 . S
C917 H929 0.929 . S
C918 C914 1.531 . S
C918 H930 0.958 1_556 S
C918 H931 0.962 1_556 S
C918 H932 0.960 . S
C919 C916 1.511 . S
C919 H933 0.961 . S
C919 H934 0.961 . S
C919 H935 0.961 . S
C920 C921 1.370 . S
C920 C922 1.363 . S
C920 H936 0.931 . S
C921 C920 1.370 . S
C921 C925 1.408 . S
C922 C920 1.363 . S
C922 C923 1.370 1_554 S
C922 C926 1.524 . S
C923 C915 1.503 . S
C923 C922 1.370 1_556 S
C923 C924 1.403 . S
C924 C923 1.403 . S
C924 C925 1.404 1_556 S
C924 C927 1.539 . S
C925 C921 1.408 . S
C925 C924 1.404 1_554 S
C925 H937 0.930 . S
C926 C922 1.524 . S
C926 H938 0.956 . S
C926 H939 0.961 . S
C926 H940 0.961 . S
C927 C924 1.539 . S
C927 H941 0.958 . S
C927 H942 0.961 . S
C927 H943 0.960 . S
H928 C912 0.931 . S
H929 C917 0.929 . S
H930 C918 0.958 1_554 S
H931 C918 0.962 1_554 S
H932 C918 0.960 . S
H933 C919 0.961 . S
H934 C919 0.961 . S
H935 C919 0.961 . S
H936 C920 0.931 . S
H937 C925 0.930 . S
H938 C926 0.956 . S
H939 C926 0.961 . S
H940 C926 0.961 . S
H941 C927 0.958 . S
H942 C927 0.961 . S
H943 C927 0.960 . S
C944 C945 1.391 . S
C944 C946 1.394 . S
C944 H960 0.931 . S
C945 C944 1.391 . S
C945 C949 1.376 . S
C946 C944 1.394 . S
C946 C947 1.369 . S
C946 C950 1.531 . S
C947 C946 1.369 . S
C947 C948 1.410 . S
C947 C955 1.494 1_556 S
C948 C947 1.410 . S
C948 C949 1.392 . S
C948 C951 1.511 1_556 S
C949 C945 1.376 . S
C949 C948 1.392 . S
C949 H961 0.929 . S
C950 C946 1.531 . S
C950 H962 0.960 . S
C950 H963 0.962 . S
C950 H964 0.960 . S
C951 C948 1.511 1_554 S
C951 H965 0.961 . S
C951 H966 0.961 . S
C951 H967 0.961 . S
C952 C953 1.370 . S
C952 C954 1.363 . S
C952 H968 0.931 . S
C953 C952 1.370 . S
C953 C957 1.408 . S
C954 C952 1.363 . S
C954 C955 1.373 . S
C954 C958 1.524 1_554 S
C955 C947 1.494 1_554 S
C955 C954 1.373 . S
C955 C956 1.409 . S
C956 C955 1.409 . S
C956 C957 1.404 . S
C956 C959 1.539 . S
C957 C953 1.408 . S
C957 C956 1.404 . S
C957 H969 0.930 . S
C958 C954 1.524 1_556 S
C958 H970 0.956 . S
C958 H971 0.961 . S
C958 H972 0.974 . S
C959 C956 1.539 . S
C959 H973 0.958 1_554 S
C959 H974 0.961 . S
C959 H975 0.960 . S
H960 C944 0.931 . S
H961 C949 0.929 . S
H962 C950 0.960 . S
H963 C950 0.962 . S
H964 C950 0.960 . S
H965 C951 0.961 . S
H966 C951 0.961 . S
H967 C951 0.961 . S
H968 C952 0.931 . S
H969 C957 0.930 . S
H970 C958 0.956 . S
H971 C958 0.961 . S
H972 C958 0.974 . S
H973 C959 0.958 1_556 S
H974 C959 0.961 . S
H975 C959 0.960 . S
C976 C977 1.391 . S
C976 C978 1.394 . S
C976 H992 0.931 . S
C977 C976 1.391 . S
C977 C981 1.376 . S
C978 C976 1.394 . S
C978 C979 1.369 . S
C978 C982 1.531 . S
C979 C978 1.369 . S
C979 C980 1.410 . S
C979 C987 1.503 . S
C980 C979 1.410 . S
C980 C981 1.392 . S
C980 C983 1.511 . S
C981 C977 1.376 . S
C981 C980 1.392 . S
C981 H993 0.929 . S
C982 C978 1.531 . S
C982 H994 0.960 . S
C982 H995 0.962 . S
C982 H996 0.960 . S
C983 C980 1.511 . S
C983 H997 0.961 . S
C983 H998 0.961 . S
C983 H999 0.961 . S
C984 C985 1.370 . S
C984 C986 1.363 . S
C984 H1000 0.931 . S
C985 C984 1.370 . S
C985 C989 1.408 . S
C986 C984 1.363 . S
C986 C987 1.370 . S
C986 C990 1.524 . S
C987 C979 1.503 . S
C987 C986 1.370 . S
C987 C988 1.403 . S
C988 C987 1.403 . S
C988 C989 1.404 . S
C988 C991 1.539 . S
C989 C985 1.408 . S
C989 C988 1.404 . S
C989 H1001 0.930 . S
C990 C986 1.524 . S
C990 H1002 0.956 . S
C990 H1003 0.961 . S
C990 H1004 0.961 . S
C991 C988 1.539 . S
C991 H1005 0.958 . S
C991 H1006 0.961 . S
C991 H1007 0.960 . S
H992 C976 0.931 . S
H993 C981 0.929 . S
H994 C982 0.960 . S
H995 C982 0.962 . S
H996 C982 0.960 . S
H997 C983 0.961 . S
H998 C983 0.961 . S
H999 C983 0.961 . S
H1000 C984 0.931 . S
H1001 C989 0.930 . S
H1002 C990 0.956 . S
H1003 C990 0.961 . S
H1004 C990 0.961 . S
H1005 C991 0.958 . S
H1006 C991 0.961 . S
H1007 C991 0.960 . S
C1008 C1009 1.391 . S
C1008 C1010 1.394 . S
C1008 H1024 0.931 . S
C1009 C1008 1.391 . S
C1009 C1013 1.376 . S
C1010 C1008 1.394 . S
C1010 C1011 1.369 . S
C1010 C1014 1.531 . S
C1011 C1010 1.369 . S
C1011 C1012 1.410 . S
C1011 C1019 1.503 . S
C1012 C1011 1.410 . S
C1012 C1013 1.392 . S
C1012 C1015 1.511 . S
C1013 C1009 1.376 . S
C1013 C1012 1.392 . S
C1013 H1025 0.929 . S
C1014 C1010 1.531 . S
C1014 H1026 0.960 . S
C1014 H1027 0.962 . S
C1014 H1028 0.960 . S
C1015 C1012 1.511 . S
C1015 H1029 0.961 . S
C1015 H1030 0.961 . S
C1015 H1031 0.961 . S
C1016 C1017 1.370 . S
C1016 C1018 1.363 . S
C1016 H1032 0.931 . S
C1017 C1016 1.370 . S
C1017 C1021 1.408 . S
C1018 C1016 1.363 . S
C1018 C1019 1.370 . S
C1018 C1022 1.524 . S
C1019 C1011 1.503 . S
C1019 C1018 1.370 . S
C1019 C1020 1.403 . S
C1020 C1019 1.403 . S
C1020 C1021 1.404 . S
C1020 C1023 1.539 . S
C1021 C1017 1.408 . S
C1021 C1020 1.404 . S
C1021 H1033 0.930 . S
C1022 C1018 1.524 . S
C1022 H1034 0.956 . S
C1022 H1035 0.961 . S
C1022 H1036 0.961 . S
C1023 C1020 1.539 . S
C1023 H1037 0.958 . S
C1023 H1038 0.961 . S
C1023 H1039 0.960 . S
H1024 C1008 0.931 . S
H1025 C1013 0.929 . S
H1026 C1014 0.960 . S
H1027 C1014 0.962 . S
H1028 C1014 0.960 . S
H1029 C1015 0.961 . S
H1030 C1015 0.961 . S
H1031 C1015 0.961 . S
H1032 C1016 0.931 . S
H1033 C1021 0.930 . S
H1034 C1022 0.956 . S
H1035 C1022 0.961 . S
H1036 C1022 0.961 . S
H1037 C1023 0.958 . S
H1038 C1023 0.961 . S
H1039 C1023 0.960 . S
C1040 C1041 1.391 . S
C1040 C1042 1.394 . S
C1040 H1056 0.931 . S
C1041 C1040 1.391 . S
C1041 C1045 1.376 . S
C1042 C1040 1.394 . S
C1042 C1043 1.369 . S
C1042 C1046 1.531 . S
C1043 C1042 1.369 . S
C1043 C1044 1.410 . S
C1043 C1051 1.503 1_545 S
C1044 C1043 1.410 . S
C1044 C1045 1.392 . S
C1044 C1047 1.511 1_545 S
C1045 C1041 1.376 . S
C1045 C1044 1.392 . S
C1045 H1057 0.929 . S
C1046 C1042 1.531 . S
C1046 H1058 0.960 . S
C1046 H1059 0.962 . S
C1046 H1060 0.960 . S
C1047 C1044 1.511 1_565 S
C1047 H1061 0.961 . S
C1047 H1062 0.961 . S
C1047 H1063 0.961 . S
C1048 C1049 1.370 . S
C1048 C1050 1.363 . S
C1048 H1064 0.931 . S
C1049 C1048 1.370 . S
C1049 C1053 1.408 . S
C1050 C1048 1.363 . S
C1050 C1051 1.370 . S
C1050 C1054 1.524 . S
C1051 C1043 1.503 1_565 S
C1051 C1050 1.370 . S
C1051 C1052 1.403 . S
C1052 C1051 1.403 . S
C1052 C1053 1.404 . S
C1052 C1055 1.539 . S
C1053 C1049 1.408 . S
C1053 C1052 1.404 . S
C1053 H1065 0.930 . S
C1054 C1050 1.524 . S
C1054 H1066 0.956 1_565 S
C1054 H1067 0.961 . S
C1054 H1068 0.961 . S
C1055 C1052 1.539 . S
C1055 H1069 0.958 . S
C1055 H1070 0.961 . S
C1055 H1071 0.960 . S
H1056 C1040 0.931 . S
H1057 C1045 0.929 . S
H1058 C1046 0.960 . S
H1059 C1046 0.962 . S
H1060 C1046 0.960 . S
H1061 C1047 0.961 . S
H1062 C1047 0.961 . S
H1063 C1047 0.961 . S
H1064 C1048 0.931 . S
H1065 C1053 0.930 . S
H1066 C1054 0.956 1_545 S
H1067 C1054 0.961 . S
H1068 C1054 0.961 . S
H1069 C1055 0.958 . S
H1070 C1055 0.961 . S
H1071 C1055 0.960 . S
C1072 C1073 1.391 . S
C1072 C1074 1.394 . S
C1072 H1088 0.931 . S
C1073 C1072 1.391 . S
C1073 C1077 1.376 . S
C1074 C1072 1.394 . S
C1074 C1075 1.369 . S
C1074 C1078 1.531 . S
C1075 C1074 1.369 . S
C1075 C1076 1.410 . S
C1075 C1083 1.503 1_565 S
C1076 C1075 1.410 . S
C1076 C1077 1.392 . S
C1076 C1079 1.511 . S
C1077 C1073 1.376 . S
C1077 C1076 1.392 . S
C1077 H1089 0.929 . S
C1078 C1074 1.531 . S
C1078 H1090 0.960 1_565 S
C1078 H1091 0.962 . S
C1078 H1092 0.960 . S
C1079 C1076 1.511 . S
C1079 H1093 0.961 . S
C1079 H1094 0.961 1_565 S
C1079 H1095 0.961 1_565 S
C1080 C1081 1.370 . S
C1080 C1082 1.363 . S
C1080 H1096 0.931 . S
C1081 C1080 1.370 . S
C1081 C1085 1.408 . S
C1082 C1080 1.363 . S
C1082 C1083 1.370 . S
C1082 C1086 1.524 1_545 S
C1083 C1075 1.503 1_545 S
C1083 C1082 1.370 . S
C1083 C1084 1.403 . S
C1084 C1083 1.403 . S
C1084 C1085 1.404 . S
C1084 C1087 1.539 . S
C1085 C1081 1.408 . S
C1085 C1084 1.404 . S
C1085 H1097 0.930 . S
C1086 C1082 1.524 1_565 S
C1086 H1098 0.956 . S
C1086 H1099 0.961 . S
C1086 H1100 0.961 . S
C1087 C1084 1.539 . S
C1087 H1101 0.958 . S
C1087 H1102 0.961 . S
C1087 H1103 0.960 . S
H1088 C1072 0.931 . S
H1089 C1077 0.929 . S
H1090 C1078 0.960 1_545 S
H1091 C1078 0.962 . S
H1092 C1078 0.960 . S
H1093 C1079 0.961 . S
H1094 C1079 0.961 1_545 S
H1095 C1079 0.961 1_545 S
H1096 C1080 0.931 . S
H1097 C1085 0.930 . S
H1098 C1086 0.956 . S
H1099 C1086 0.961 . S
H1100 C1086 0.961 . S
H1101 C1087 0.958 . S
H1102 C1087 0.961 . S
H1103 C1087 0.960 . S
C1104 C1105 1.391 . S
C1104 C1106 1.394 . S
C1104 H1120 0.931 . S
C1105 C1104 1.391 . S
C1105 C1109 1.376 . S
C1106 C1104 1.394 . S
C1106 C1107 1.369 . S
C1106 C1110 1.531 . S
C1107 C1106 1.369 . S
C1107 C1108 1.410 . S
C1107 C1115 1.503 1_545 S
C1108 C1107 1.410 . S
C1108 C1109 1.392 . S
C1108 C1111 1.511 1_545 S
C1109 C1105 1.376 . S
C1109 C1108 1.392 . S
C1109 H1121 0.929 . S
C1110 C1106 1.531 . S
C1110 H1122 0.960 . S
C1110 H1123 0.962 . S
C1110 H1124 0.960 . S
C1111 C1108 1.511 1_565 S
C1111 H1125 0.961 . S
C1111 H1126 0.961 . S
C1111 H1127 0.961 . S
C1112 C1113 1.370 . S
C1112 C1114 1.363 . S
C1112 H1128 0.931 . S
C1113 C1112 1.370 . S
C1113 C1117 1.408 . S
C1114 C1112 1.363 . S
C1114 C1115 1.370 . S
C1114 C1118 1.524 . S
C1115 C1107 1.503 1_565 S
C1115 C1114 1.370 . S
C1115 C1116 1.403 . S
C1116 C1115 1.403 . S
C1116 C1117 1.404 . S
C1116 C1119 1.539 . S
C1117 C1113 1.408 . S
C1117 C1116 1.404 . S
C1117 H1129 0.930 . S
C1118 C1114 1.524 . S
C1118 H1130 0.956 1_565 S
C1118 H1131 0.961 . S
C1118 H1132 0.961 . S
C1119 C1116 1.539 . S
C1119 H1133 0.958 . S
C1119 H1134 0.961 . S
C1119 H1135 0.960 . S
H1120 C1104 0.931 . S
H1121 C1109 0.929 . S
H1122 C1110 0.960 . S
H1123 C1110 0.962 . S
H1124 C1110 0.960 . S
H1125 C1111 0.961 . S
H1126 C1111 0.961 . S
H1127 C1111 0.961 . S
H1128 C1112 0.931 . S
H1129 C1117 0.930 . S
H1130 C1118 0.956 1_545 S
H1131 C1118 0.961 . S
H1132 C1118 0.961 . S
H1133 C1119 0.958 . S
H1134 C1119 0.961 . S
H1135 C1119 0.960 . S
C1136 C1137 1.391 . S
C1136 C1138 1.394 . S
C1136 H1152 0.931 . S
C1137 C1136 1.391 . S
C1137 C1141 1.376 . S
C1138 C1136 1.394 . S
C1138 C1139 1.369 . S
C1138 C1142 1.531 . S
C1139 C1138 1.369 . S
C1139 C1140 1.410 . S
C1139 C1147 1.503 1_565 S
C1140 C1139 1.410 . S
C1140 C1141 1.392 . S
C1140 C1143 1.511 1_565 S
C1141 C1137 1.376 . S
C1141 C1140 1.392 . S
C1141 H1153 0.929 . S
C1142 C1138 1.531 . S
C1142 H1154 0.960 . S
C1142 H1155 0.962 . S
C1142 H1156 0.960 . S
C1143 C1140 1.511 1_545 S
C1143 H1157 0.961 . S
C1143 H1158 0.961 . S
C1143 H1159 0.961 . S
C1144 C1145 1.370 . S
C1144 C1146 1.363 . S
C1144 H1160 0.931 . S
C1145 C1144 1.370 . S
C1145 C1149 1.408 . S
C1146 C1144 1.363 . S
C1146 C1147 1.370 . S
C1146 C1150 1.524 . S
C1147 C1139 1.503 1_545 S
C1147 C1146 1.370 . S
C1147 C1148 1.403 . S
C1148 C1147 1.403 . S
C1148 C1149 1.404 . S
C1148 C1151 1.539 1_545 S
C1149 C1145 1.408 . S
C1149 C1148 1.404 . S
C1149 H1161 0.930 . S
C1150 C1146 1.524 . S
C1150 H1162 0.956 . S
C1150 H1163 0.961 . S
C1150 H1164 0.961 . S
C1151 C1148 1.539 1_565 S
C1151 H1165 0.958 . S
C1151 H1166 0.961 1_565 S
C1151 H1167 0.960 . S
H1152 C1136 0.931 . S
H1153 C1141 0.929 . S
H1154 C1142 0.960 . S
H1155 C1142 0.962 . S
H1156 C1142 0.960 . S
H1157 C1143 0.961 . S
H1158 C1143 0.961 . S
H1159 C1143 0.961 . S
H1160 C1144 0.931 . S
H1161 C1149 0.930 . S
H1162 C1150 0.956 . S
H1163 C1150 0.961 . S
H1164 C1150 0.961 . S
H1165 C1151 0.958 . S
H1166 C1151 0.961 1_545 S
H1167 C1151 0.960 . S
C1168 C1169 1.391 . S
C1168 C1170 1.394 . S
C1168 H1184 0.931 . S
C1169 C1168 1.391 . S
C1169 C1173 1.376 . S
C1170 C1168 1.394 . S
C1170 C1171 1.369 . S
C1170 C1174 1.531 . S
C1171 C1170 1.369 . S
C1171 C1172 1.410 . S
C1171 C1179 1.503 . S
C1172 C1171 1.410 . S
C1172 C1173 1.392 . S
C1172 C1175 1.511 . S
C1173 C1169 1.376 . S
C1173 C1172 1.392 . S
C1173 H1185 0.929 . S
C1174 C1170 1.531 . S
C1174 H1186 0.960 . S
C1174 H1187 0.962 . S
C1174 H1188 0.960 . S
C1175 C1172 1.511 . S
C1175 H1189 0.961 . S
C1175 H1190 0.961 . S
C1175 H1191 0.961 . S
C1176 C1177 1.370 . S
C1176 C1178 1.363 . S
C1176 H1192 0.931 . S
C1177 C1176 1.370 . S
C1177 C1181 1.408 . S
C1178 C1176 1.363 . S
C1178 C1179 1.370 . S
C1178 C1182 1.524 . S
C1179 C1171 1.503 . S
C1179 C1178 1.370 . S
C1179 C1180 1.403 . S
C1180 C1179 1.403 . S
C1180 C1181 1.404 . S
C1180 C1183 1.539 . S
C1181 C1177 1.408 . S
C1181 C1180 1.404 . S
C1181 H1193 0.930 . S
C1182 C1178 1.524 . S
C1182 H1194 0.956 . S
C1182 H1195 0.961 . S
C1182 H1196 0.961 . S
C1183 C1180 1.539 . S
C1183 H1197 0.958 . S
C1183 H1198 0.961 . S
C1183 H1199 0.960 . S
H1184 C1168 0.931 . S
H1185 C1173 0.929 . S
H1186 C1174 0.960 . S
H1187 C1174 0.962 . S
H1188 C1174 0.960 . S
H1189 C1175 0.961 . S
H1190 C1175 0.961 . S
H1191 C1175 0.961 . S
H1192 C1176 0.931 . S
H1193 C1181 0.930 . S
H1194 C1182 0.956 . S
H1195 C1182 0.961 . S
H1196 C1182 0.961 . S
H1197 C1183 0.958 . S
H1198 C1183 0.961 . S
H1199 C1183 0.960 . S
C1200 C1201 1.391 . S
C1200 C1202 1.394 . S
C1200 H1216 0.931 . S
C1201 C1200 1.391 . S
C1201 C1205 1.376 . S
C1202 C1200 1.394 . S
C1202 C1203 1.369 . S
C1202 C1206 1.531 . S
C1203 C1202 1.369 . S
C1203 C1204 1.410 . S
C1203 C1211 1.503 . S
C1204 C1203 1.410 . S
C1204 C1205 1.392 . S
C1204 C1207 1.511 . S
C1205 C1201 1.376 . S
C1205 C1204 1.392 . S
C1205 H1217 0.929 . S
C1206 C1202 1.531 . S
C1206 H1218 0.960 . S
C1206 H1219 0.962 . S
C1206 H1220 0.960 . S
C1207 C1204 1.511 . S
C1207 H1221 0.961 . S
C1207 H1222 0.961 . S
C1207 H1223 0.961 . S
C1208 C1209 1.370 . S
C1208 C1210 1.363 . S
C1208 H1224 0.931 . S
C1209 C1208 1.370 . S
C1209 C1213 1.408 . S
C1210 C1208 1.363 . S
C1210 C1211 1.370 . S
C1210 C1214 1.524 . S
C1211 C1203 1.503 . S
C1211 C1210 1.370 . S
C1211 C1212 1.403 . S
C1212 C1211 1.403 . S
C1212 C1213 1.404 . S
C1212 C1215 1.539 . S
C1213 C1209 1.408 . S
C1213 C1212 1.404 . S
C1213 H1225 0.930 . S
C1214 C1210 1.524 . S
C1214 H1226 0.956 . S
C1214 H1227 0.961 . S
C1214 H1228 0.961 . S
C1215 C1212 1.539 . S
C1215 H1229 0.958 . S
C1215 H1230 0.961 . S
C1215 H1231 0.960 . S
H1216 C1200 0.931 . S
H1217 C1205 0.929 . S
H1218 C1206 0.960 . S
H1219 C1206 0.962 . S
H1220 C1206 0.960 . S
H1221 C1207 0.961 . S
H1222 C1207 0.961 . S
H1223 C1207 0.961 . S
H1224 C1208 0.931 . S
H1225 C1213 0.930 . S
H1226 C1214 0.956 . S
H1227 C1214 0.961 . S
H1228 C1214 0.961 . S
H1229 C1215 0.958 . S
H1230 C1215 0.961 . S
H1231 C1215 0.960 . S
C1232 C1233 1.391 . S
C1232 C1234 1.394 . S
C1232 H1248 0.931 . S
C1233 C1232 1.391 . S
C1233 C1237 1.376 . S
C1234 C1232 1.394 . S
C1234 C1235 1.369 . S
C1234 C1238 1.531 . S
C1235 C1234 1.369 . S
C1235 C1236 1.410 . S
C1235 C1243 1.503 . S
C1236 C1235 1.410 . S
C1236 C1237 1.392 . S
C1236 C1239 1.511 . S
C1237 C1233 1.376 . S
C1237 C1236 1.392 . S
C1237 H1249 0.929 . S
C1238 C1234 1.531 . S
C1238 H1250 0.960 . S
C1238 H1251 0.962 . S
C1238 H1252 0.960 . S
C1239 C1236 1.511 . S
C1239 H1253 0.961 . S
C1239 H1254 0.961 . S
C1239 H1255 0.961 . S
C1240 C1241 1.370 . S
C1240 C1242 1.363 . S
C1240 H1256 0.931 . S
C1241 C1240 1.370 . S
C1241 C1245 1.408 . S
C1242 C1240 1.363 . S
C1242 C1243 1.370 . S
C1242 C1246 1.524 . S
C1243 C1235 1.503 . S
C1243 C1242 1.370 . S
C1243 C1244 1.403 . S
C1244 C1243 1.403 . S
C1244 C1245 1.404 . S
C1244 C1247 1.539 . S
C1245 C1241 1.408 . S
C1245 C1244 1.404 . S
C1245 H1257 0.930 . S
C1246 C1242 1.524 . S
C1246 H1258 0.956 . S
C1246 H1259 0.961 . S
C1246 H1260 0.961 . S
C1247 C1244 1.539 . S
C1247 H1261 0.958 . S
C1247 H1262 0.961 . S
C1247 H1263 0.960 . S
H1248 C1232 0.931 . S
H1249 C1237 0.929 . S
H1250 C1238 0.960 . S
H1251 C1238 0.962 . S
H1252 C1238 0.960 . S
H1253 C1239 0.961 . S
H1254 C1239 0.961 . S
H1255 C1239 0.961 . S
H1256 C1240 0.931 . S
H1257 C1245 0.930 . S
H1258 C1246 0.956 . S
H1259 C1246 0.961 . S
H1260 C1246 0.961 . S
H1261 C1247 0.958 . S
H1262 C1247 0.961 . S
H1263 C1247 0.960 . S
C1264 C1265 1.391 . S
C1264 C1266 1.394 . S
C1264 H1280 0.931 . S
C1265 C1264 1.391 . S
C1265 C1269 1.376 . S
C1266 C1264 1.394 . S
C1266 C1267 1.369 . S
C1266 C1270 1.531 . S
C1267 C1266 1.369 . S
C1267 C1268 1.410 . S
C1267 C1275 1.503 . S
C1268 C1267 1.410 . S
C1268 C1269 1.392 . S
C1268 C1271 1.511 . S
C1269 C1265 1.376 . S
C1269 C1268 1.392 . S
C1269 H1281 0.929 . S
C1270 C1266 1.531 . S
C1270 H1282 0.960 . S
C1270 H1283 0.962 . S
C1270 H1284 0.960 . S
C1271 C1268 1.511 . S
C1271 H1285 0.961 . S
C1271 H1286 0.961 . S
C1271 H1287 0.961 . S
C1272 C1273 1.370 . S
C1272 C1274 1.363 . S
C1272 H1288 0.931 . S
C1273 C1272 1.370 . S
C1273 C1277 1.408 . S
C1274 C1272 1.363 . S
C1274 C1275 1.370 . S
C1274 C1278 1.524 . S
C1275 C1267 1.503 . S
C1275 C1274 1.370 . S
C1275 C1276 1.403 . S
C1276 C1275 1.403 . S
C1276 C1277 1.404 . S
C1276 C1279 1.539 . S
C1277 C1273 1.408 . S
C1277 C1276 1.404 . S
C1277 H1289 0.930 . S
C1278 C1274 1.524 . S
C1278 H1290 0.956 . S
C1278 H1291 0.961 . S
C1278 H1292 0.961 . S
C1279 C1276 1.539 . S
C1279 H1293 0.958 . S
C1279 H1294 0.961 . S
C1279 H1295 0.960 . S
H1280 C1264 0.931 . S
H1281 C1269 0.929 . S
H1282 C1270 0.960 . S
H1283 C1270 0.962 . S
H1284 C1270 0.960 . S
H1285 C1271 0.961 . S
H1286 C1271 0.961 . S
H1287 C1271 0.961 . S
H1288 C1272 0.931 . S
H1289 C1277 0.930 . S
H1290 C1278 0.956 . S
H1291 C1278 0.961 . S
H1292 C1278 0.961 . S
H1293 C1279 0.958 . S
H1294 C1279 0.961 . S
H1295 C1279 0.960 . S
C1296 C1297 1.391 . S
C1296 C1298 1.394 . S
C1296 H1312 0.931 . S
C1297 C1296 1.391 . S
C1297 C1301 1.377 . S
C1298 C1296 1.394 . S
C1298 C1299 1.369 1_655 S
C1298 C1302 1.531 . S
C1299 C1298 1.369 1_455 S
C1299 C1300 1.410 . S
C1299 C1307 1.503 . S
C1300 C1299 1.410 . S
C1300 C1301 1.391 1_455 S
C1300 C1303 1.511 . S
C1301 C1297 1.377 . S
C1301 C1300 1.391 1_655 S
C1301 H1313 0.928 1_655 S
C1302 C1298 1.531 . S
C1302 H1314 0.960 . S
C1302 H1315 0.962 . S
C1302 H1316 0.960 . S
C1303 C1300 1.511 . S
C1303 H1317 0.961 . S
C1303 H1318 0.961 . S
C1303 H1319 0.961 . S
C1304 C1305 1.370 1_655 S
C1304 C1306 1.363 . S
C1304 H1320 0.931 . S
C1305 C1304 1.370 1_455 S
C1305 C1309 1.408 . S
C1306 C1304 1.363 . S
C1306 C1307 1.370 1_655 S
C1306 C1310 1.524 . S
C1307 C1299 1.503 . S
C1307 C1306 1.370 1_455 S
C1307 C1308 1.403 . S
C1308 C1307 1.403 . S
C1308 C1309 1.404 . S
C1308 C1311 1.539 . S
C1309 C1305 1.408 . S
C1309 C1308 1.404 . S
C1309 H1321 0.930 . S
C1310 C1306 1.524 . S
C1310 H1322 0.956 . S
C1310 H1323 0.961 . S
C1310 H1324 0.961 . S
C1311 C1308 1.539 . S
C1311 H1325 0.958 . S
C1311 H1326 0.961 . S
C1311 H1327 0.960 . S
H1312 C1296 0.931 . S
H1313 C1301 0.928 1_455 S
H1314 C1302 0.960 . S
H1315 C1302 0.962 . S
H1316 C1302 0.960 . S
H1317 C1303 0.961 . S
H1318 C1303 0.961 . S
H1319 C1303 0.961 . S
H1320 C1304 0.931 . S
H1321 C1309 0.930 . S
H1322 C1310 0.956 . S
H1323 C1310 0.961 . S
H1324 C1310 0.961 . S
H1325 C1311 0.958 . S
H1326 C1311 0.961 . S
H1327 C1311 0.960 . S
C1328 C1329 1.391 . S
C1328 C1330 1.394 . S
C1328 H1344 0.931 . S
C1329 C1328 1.391 . S
C1329 C1333 1.376 . S
C1330 C1328 1.394 . S
C1330 C1331 1.369 . S
C1330 C1334 1.531 . S
C1331 C1330 1.369 . S
C1331 C1332 1.410 . S
C1331 C1339 1.503 . S
C1332 C1331 1.410 . S
C1332 C1333 1.392 . S
C1332 C1335 1.511 . S
C1333 C1329 1.376 . S
C1333 C1332 1.392 . S
C1333 H1345 0.929 . S
C1334 C1330 1.531 . S
C1334 H1346 0.960 . S
C1334 H1347 0.962 . S
C1334 H1348 0.960 . S
C1335 C1332 1.511 . S
C1335 H1349 0.961 . S
C1335 H1350 0.961 . S
C1335 H1351 0.961 . S
C1336 C1337 1.370 . S
C1336 C1338 1.363 . S
C1336 H1352 0.931 . S
C1337 C1336 1.370 . S
C1337 C1341 1.408 . S
C1338 C1336 1.363 . S
C1338 C1339 1.370 . S
C1338 C1342 1.524 . S
C1339 C1331 1.503 . S
C1339 C1338 1.370 . S
C1339 C1340 1.403 . S
C1340 C1339 1.403 . S
C1340 C1341 1.404 . S
C1340 C1343 1.539 . S
C1341 C1337 1.408 . S
C1341 C1340 1.404 . S
C1341 H1353 0.930 . S
C1342 C1338 1.524 . S
C1342 H1354 0.956 . S
C1342 H1355 0.961 . S
C1342 H1356 0.961 . S
C1343 C1340 1.539 . S
C1343 H1357 0.958 . S
C1343 H1358 0.961 . S
C1343 H1359 0.960 . S
H1344 C1328 0.931 . S
H1345 C1333 0.929 . S
H1346 C1334 0.960 . S
H1347 C1334 0.962 . S
H1348 C1334 0.960 . S
H1349 C1335 0.961 . S
H1350 C1335 0.961 . S
H1351 C1335 0.961 . S
H1352 C1336 0.931 . S
H1353 C1341 0.930 . S
H1354 C1342 0.956 . S
H1355 C1342 0.961 . S
H1356 C1342 0.961 . S
H1357 C1343 0.958 . S
H1358 C1343 0.961 . S
H1359 C1343 0.960 . S
C1360 C1361 1.391 . S
C1360 C1362 1.394 . S
C1360 H1376 0.931 . S
C1361 C1360 1.391 . S
C1361 C1365 1.376 . S
C1362 C1360 1.394 . S
C1362 C1363 1.369 . S
C1362 C1366 1.531 . S
C1363 C1362 1.369 . S
C1363 C1364 1.410 . S
C1363 C1371 1.503 . S
C1364 C1363 1.410 . S
C1364 C1365 1.392 . S
C1364 C1367 1.511 . S
C1365 C1361 1.376 . S
C1365 C1364 1.392 . S
C1365 H1377 0.929 . S
C1366 C1362 1.531 . S
C1366 H1378 0.960 . S
C1366 H1379 0.962 . S
C1366 H1380 0.960 . S
C1367 C1364 1.511 . S
C1367 H1381 0.961 . S
C1367 H1382 0.961 . S
C1367 H1383 0.961 . S
C1368 C1369 1.370 . S
C1368 C1370 1.363 . S
C1368 H1384 0.931 . S
C1369 C1368 1.370 . S
C1369 C1373 1.408 . S
C1370 C1368 1.363 . S
C1370 C1371 1.370 . S
C1370 C1374 1.524 . S
C1371 C1363 1.503 . S
C1371 C1370 1.370 . S
C1371 C1372 1.403 . S
C1372 C1371 1.403 . S
C1372 C1373 1.404 . S
C1372 C1375 1.539 . S
C1373 C1369 1.408 . S
C1373 C1372 1.404 . S
C1373 H1385 0.930 . S
C1374 C1370 1.524 . S
C1374 H1386 0.956 . S
C1374 H1387 0.961 . S
C1374 H1388 0.961 . S
C1375 C1372 1.539 . S
C1375 H1389 0.958 . S
C1375 H1390 0.961 . S
C1375 H1391 0.960 . S
H1376 C1360 0.931 . S
H1377 C1365 0.929 . S
H1378 C1366 0.960 . S
H1379 C1366 0.962 . S
H1380 C1366 0.960 . S
H1381 C1367 0.961 . S
H1382 C1367 0.961 . S
H1383 C1367 0.961 . S
H1384 C1368 0.931 . S
H1385 C1373 0.930 . S
H1386 C1374 0.956 . S
H1387 C1374 0.961 . S
H1388 C1374 0.961 . S
H1389 C1375 0.958 . S
H1390 C1375 0.961 . S
H1391 C1375 0.960 . S
C1392 C1393 1.391 . S
C1392 C1394 1.394 . S
C1392 H1408 0.931 . S
C1393 C1392 1.391 . S
C1393 C1397 1.376 1_455 S
C1394 C1392 1.394 . S
C1394 C1395 1.369 . S
C1394 C1398 1.531 . S
C1395 C1394 1.369 . S
C1395 C1396 1.410 1_455 S
C1395 C1403 1.503 1_455 S
C1396 C1395 1.410 1_655 S
C1396 C1397 1.392 . S
C1396 C1399 1.511 . S
C1397 C1393 1.376 1_655 S
C1397 C1396 1.392 . S
C1397 H1409 0.929 . S
C1398 C1394 1.531 . S
C1398 H1410 0.960 . S
C1398 H1411 0.962 . S
C1398 H1412 0.960 . S
C1399 C1396 1.511 . S
C1399 H1413 0.961 . S
C1399 H1414 0.961 . S
C1399 H1415 0.961 . S
C1400 C1401 1.370 . S
C1400 C1402 1.363 1_655 S
C1400 H1416 0.931 1_655 S
C1401 C1400 1.370 . S
C1401 C1405 1.408 . S
C1402 C1400 1.363 1_455 S
C1402 C1403 1.370 1_455 S
C1402 C1406 1.524 . S
C1403 C1395 1.503 1_655 S
C1403 C1402 1.370 1_655 S
C1403 C1404 1.403 . S
C1404 C1403 1.403 . S
C1404 C1405 1.404 . S
C1404 C1407 1.539 . S
C1405 C1401 1.408 . S
C1405 C1404 1.404 . S
C1405 H1417 0.930 . S
C1406 C1402 1.524 . S
C1406 H1418 0.956 . S
C1406 H1419 0.961 . S
C1406 H1420 0.961 . S
C1407 C1404 1.539 . S
C1407 H1421 0.958 . S
C1407 H1422 0.961 . S
C1407 H1423 0.960 . S
H1408 C1392 0.931 . S
H1409 C1397 0.929 . S
H1410 C1398 0.960 . S
H1411 C1398 0.962 . S
H1412 C1398 0.960 . S
H1413 C1399 0.961 . S
H1414 C1399 0.961 . S
H1415 C1399 0.961 . S
H1416 C1400 0.931 1_455 S
H1417 C1405 0.930 . S
H1418 C1406 0.956 . S
H1419 C1406 0.961 . S
H1420 C1406 0.961 . S
H1421 C1407 0.958 . S
H1422 C1407 0.961 . S
H1423 C1407 0.960 . S
C1424 C1425 1.391 . S
C1424 C1426 1.394 . S
C1424 H1440 0.931 . S
C1425 C1424 1.391 . S
C1425 C1429 1.376 1_655 S
C1426 C1424 1.394 . S
C1426 C1427 1.369 . S
C1426 C1430 1.531 . S
C1427 C1426 1.369 . S
C1427 C1428 1.410 1_655 S
C1427 C1435 1.503 1_655 S
C1428 C1427 1.410 1_455 S
C1428 C1429 1.392 . S
C1428 C1431 1.511 . S
C1429 C1425 1.376 1_455 S
C1429 C1428 1.392 . S
C1429 H1441 0.929 . S
C1430 C1426 1.531 . S
C1430 H1442 0.960 . S
C1430 H1443 0.962 . S
C1430 H1444 0.960 . S
C1431 C1428 1.511 . S
C1431 H1445 0.961 . S
C1431 H1446 0.961 . S
C1431 H1447 0.961 . S
C1432 C1433 1.370 . S
C1432 C1434 1.363 . S
C1432 H1448 0.931 . S
C1433 C1432 1.370 . S
C1433 C1437 1.408 . S
C1434 C1432 1.363 . S
C1434 C1435 1.370 . S
C1434 C1438 1.524 . S
C1435 C1427 1.503 1_455 S
C1435 C1434 1.370 . S
C1435 C1436 1.403 . S
C1436 C1435 1.403 . S
C1436 C1437 1.404 . S
C1436 C1439 1.539 1_455 S
C1437 C1433 1.408 . S
C1437 C1436 1.404 . S
C1437 H1449 0.930 . S
C1438 C1434 1.524 . S
C1438 H1450 0.956 1_455 S
C1438 H1451 0.961 . S
C1438 H1452 0.961 . S
C1439 C1436 1.539 1_655 S
C1439 H1453 0.958 . S
C1439 H1454 0.961 1_655 S
C1439 H1455 0.959 1_655 S
H1440 C1424 0.931 . S
H1441 C1429 0.929 . S
H1442 C1430 0.960 . S
H1443 C1430 0.962 . S
H1444 C1430 0.960 . S
H1445 C1431 0.961 . S
H1446 C1431 0.961 . S
H1447 C1431 0.961 . S
H1448 C1432 0.931 . S
H1449 C1437 0.930 . S
H1450 C1438 0.956 1_655 S
H1451 C1438 0.961 . S
H1452 C1438 0.961 . S
H1453 C1439 0.958 . S
H1454 C1439 0.961 1_455 S
H1455 C1439 0.959 1_455 S
C1456 C1457 1.391 . S
C1456 C1458 1.394 . S
C1456 H1472 0.931 . S
C1457 C1456 1.391 . S
C1457 C1461 1.376 . S
C1458 C1456 1.394 . S
C1458 C1459 1.369 . S
C1458 C1462 1.531 . S
C1459 C1458 1.369 . S
C1459 C1460 1.410 . S
C1459 C1467 1.503 . S
C1460 C1459 1.410 . S
C1460 C1461 1.392 . S
C1460 C1463 1.511 . S
C1461 C1457 1.376 . S
C1461 C1460 1.392 . S
C1461 H1473 0.929 . S
C1462 C1458 1.531 . S
C1462 H1474 0.960 . S
C1462 H1475 0.962 . S
C1462 H1476 0.960 . S
C1463 C1460 1.511 . S
C1463 H1477 0.961 . S
C1463 H1478 0.961 . S
C1463 H1479 0.961 . S
C1464 C1465 1.370 . S
C1464 C1466 1.363 . S
C1464 H1480 0.931 . S
C1465 C1464 1.370 . S
C1465 C1469 1.408 . S
C1466 C1464 1.363 . S
C1466 C1467 1.370 . S
C1466 C1470 1.524 . S
C1467 C1459 1.503 . S
C1467 C1466 1.370 . S
C1467 C1468 1.403 . S
C1468 C1467 1.403 . S
C1468 C1469 1.404 . S
C1468 C1471 1.539 . S
C1469 C1465 1.408 . S
C1469 C1468 1.404 . S
C1469 H1481 0.930 . S
C1470 C1466 1.524 . S
C1470 H1482 0.956 . S
C1470 H1483 0.961 . S
C1470 H1484 0.961 . S
C1471 C1468 1.539 . S
C1471 H1485 0.958 . S
C1471 H1486 0.961 . S
C1471 H1487 0.960 . S
H1472 C1456 0.931 . S
H1473 C1461 0.929 . S
H1474 C1462 0.960 . S
H1475 C1462 0.962 . S
H1476 C1462 0.960 . S
H1477 C1463 0.961 . S
H1478 C1463 0.961 . S
H1479 C1463 0.961 . S
H1480 C1464 0.931 . S
H1481 C1469 0.930 . S
H1482 C1470 0.956 . S
H1483 C1470 0.961 . S
H1484 C1470 0.961 . S
H1485 C1471 0.958 . S
H1486 C1471 0.961 . S
H1487 C1471 0.960 . S
C1488 C1489 1.391 . S
C1488 C1490 1.394 . S
C1488 H1504 0.931 . S
C1489 C1488 1.391 . S
C1489 C1493 1.376 . S
C1490 C1488 1.394 . S
C1490 C1491 1.369 . S
C1490 C1494 1.531 . S
C1491 C1490 1.369 . S
C1491 C1492 1.410 . S
C1491 C1499 1.503 . S
C1492 C1491 1.410 . S
C1492 C1493 1.392 . S
C1492 C1495 1.511 . S
C1493 C1489 1.376 . S
C1493 C1492 1.392 . S
C1493 H1505 0.929 . S
C1494 C1490 1.531 . S
C1494 H1506 0.960 . S
C1494 H1507 0.962 . S
C1494 H1508 0.960 . S
C1495 C1492 1.511 . S
C1495 H1509 0.961 . S
C1495 H1510 0.961 . S
C1495 H1511 0.961 . S
C1496 C1497 1.370 . S
C1496 C1498 1.363 . S
C1496 H1512 0.931 . S
C1497 C1496 1.370 . S
C1497 C1501 1.408 . S
C1498 C1496 1.363 . S
C1498 C1499 1.370 . S
C1498 C1502 1.524 . S
C1499 C1491 1.503 . S
C1499 C1498 1.370 . S
C1499 C1500 1.403 . S
C1500 C1499 1.403 . S
C1500 C1501 1.404 . S
C1500 C1503 1.539 . S
C1501 C1497 1.408 . S
C1501 C1500 1.404 . S
C1501 H1513 0.930 . S
C1502 C1498 1.524 . S
C1502 H1514 0.956 . S
C1502 H1515 0.961 . S
C1502 H1516 0.961 . S
C1503 C1500 1.539 . S
C1503 H1517 0.958 . S
C1503 H1518 0.961 . S
C1503 H1519 0.960 . S
H1504 C1488 0.931 . S
H1505 C1493 0.929 . S
H1506 C1494 0.960 . S
H1507 C1494 0.962 . S
H1508 C1494 0.960 . S
H1509 C1495 0.961 . S
H1510 C1495 0.961 . S
H1511 C1495 0.961 . S
H1512 C1496 0.931 . S
H1513 C1501 0.930 . S
H1514 C1502 0.956 . S
H1515 C1502 0.961 . S
H1516 C1502 0.961 . S
H1517 C1503 0.958 . S
H1518 C1503 0.961 . S
H1519 C1503 0.960 . S
C1520 C1521 1.391 1_455 S
C1520 C1522 1.394 . S
C1520 H1536 0.931 . S
C1521 C1520 1.391 1_655 S
C1521 C1525 1.376 . S
C1522 C1520 1.394 . S
C1522 C1523 1.369 1_455 S
C1522 C1526 1.531 . S
C1523 C1522 1.369 1_655 S
C1523 C1524 1.410 . S
C1523 C1531 1.503 1_655 S
C1524 C1523 1.410 . S
C1524 C1525 1.392 . S
C1524 C1527 1.511 . S
C1525 C1521 1.376 . S
C1525 C1524 1.392 . S
C1525 H1537 0.929 . S
C1526 C1522 1.531 . S
C1526 H1538 0.960 . S
C1526 H1539 0.962 . S
C1526 H1540 0.960 . S
C1527 C1524 1.511 . S
C1527 H1541 0.961 . S
C1527 H1542 0.961 . S
C1527 H1543 0.961 . S
C1528 C1529 1.370 . S
C1528 C1530 1.363 . S
C1528 H1544 0.931 . S
C1529 C1528 1.370 . S
C1529 C1533 1.408 . S
C1530 C1528 1.363 . S
C1530 C1531 1.370 . S
C1530 C1534 1.524 . S
C1531 C1523 1.503 1_455 S
C1531 C1530 1.370 . S
C1531 C1532 1.403 . S
C1532 C1531 1.403 . S
C1532 C1533 1.404 . S
C1532 C1535 1.539 1_455 S
C1533 C1529 1.408 . S
C1533 C1532 1.404 . S
C1533 H1545 0.930 . S
C1534 C1530 1.524 . S
C1534 H1546 0.956 . S
C1534 H1547 0.961 1_455 S
C1534 H1548 0.961 . S
C1535 C1532 1.539 1_655 S
C1535 H1549 0.958 1_655 S
C1535 H1550 0.961 . S
C1535 H1551 0.960 . S
H1536 C1520 0.931 . S
H1537 C1525 0.929 . S
H1538 C1526 0.960 . S
H1539 C1526 0.962 . S
H1540 C1526 0.960 . S
H1541 C1527 0.961 . S
H1542 C1527 0.961 . S
H1543 C1527 0.961 . S
H1544 C1528 0.931 . S
H1545 C1533 0.930 . S
H1546 C1534 0.956 . S
H1547 C1534 0.961 1_655 S
H1548 C1534 0.961 . S
H1549 C1535 0.958 1_455 S
H1550 C1535 0.961 . S
H1551 C1535 0.960 . S
C1552 C1553 1.391 . S
C1552 C1554 1.394 . S
C1552 H1568 0.931 . S
C1553 C1552 1.391 . S
C1553 C1557 1.376 1_455 S
C1554 C1552 1.394 . S
C1554 C1555 1.369 . S
C1554 C1558 1.531 . S
C1555 C1554 1.369 . S
C1555 C1556 1.410 1_455 S
C1555 C1563 1.503 1_455 S
C1556 C1555 1.410 1_655 S
C1556 C1557 1.392 . S
C1556 C1559 1.511 . S
C1557 C1553 1.376 1_655 S
C1557 C1556 1.392 . S
C1557 H1569 0.929 . S
C1558 C1554 1.531 . S
C1558 H1570 0.960 . S
C1558 H1571 0.962 . S
C1558 H1572 0.960 . S
C1559 C1556 1.511 . S
C1559 H1573 0.961 . S
C1559 H1574 0.961 . S
C1559 H1575 0.961 . S
C1560 C1561 1.370 . S
C1560 C1562 1.363 . S
C1560 H1576 0.931 . S
C1561 C1560 1.370 . S
C1561 C1565 1.408 . S
C1562 C1560 1.363 . S
C1562 C1563 1.370 . S
C1562 C1566 1.524 . S
C1563 C1555 1.503 1_655 S
C1563 C1562 1.370 . S
C1563 C1564 1.403 1_655 S
C1564 C1563 1.403 1_455 S
C1564 C1565 1.404 1_455 S
C1564 C1567 1.539 . S
C1565 C1561 1.408 . S
C1565 C1564 1.404 1_655 S
C1565 H1577 0.930 . S
C1566 C1562 1.524 . S
C1566 H1578 0.956 . S
C1566 H1579 0.961 . S
C1566 H1580 0.961 . S
C1567 C1564 1.539 . S
C1567 H1581 0.958 . S
C1567 H1582 0.961 . S
C1567 H1583 0.960 . S
H1568 C1552 0.931 . S
H1569 C1557 0.929 . S
H1570 C1558 0.960 . S
H1571 C1558 0.962 . S
H1572 C1558 0.960 . S
H1573 C1559 0.961 . S
H1574 C1559 0.961 . S
H1575 C1559 0.961 . S
H1576 C1560 0.931 . S
H1577 C1565 0.930 . S
H1578 C1566 0.956 . S
H1579 C1566 0.961 . S
H1580 C1566 0.961 . S
H1581 C1567 0.958 . S
H1582 C1567 0.961 . S
H1583 C1567 0.960 . S
C1584 C1585 1.391 . S
C1584 C1586 1.394 . S
C1584 H1600 0.931 . S
C1585 C1584 1.391 . S
C1585 C1589 1.376 . S
C1586 C1584 1.394 . S
C1586 C1587 1.369 . S
C1586 C1590 1.531 . S
C1587 C1586 1.369 . S
C1587 C1588 1.410 . S
C1587 C1595 1.503 . S
C1588 C1587 1.410 . S
C1588 C1589 1.392 . S
C1588 C1591 1.511 . S
C1589 C1585 1.376 . S
C1589 C1588 1.392 . S
C1589 H1601 0.929 . S
C1590 C1586 1.531 . S
C1590 H1602 0.960 . S
C1590 H1603 0.962 . S
C1590 H1604 0.960 . S
C1591 C1588 1.511 . S
C1591 H1605 0.961 . S
C1591 H1606 0.961 . S
C1591 H1607 0.961 . S
C1592 C1593 1.370 . S
C1592 C1594 1.363 . S
C1592 H1608 0.931 . S
C1593 C1592 1.370 . S
C1593 C1597 1.408 . S
C1594 C1592 1.363 . S
C1594 C1595 1.370 . S
C1594 C1598 1.524 . S
C1595 C1587 1.503 . S
C1595 C1594 1.370 . S
C1595 C1596 1.403 . S
C1596 C1595 1.403 . S
C1596 C1597 1.404 . S
C1596 C1599 1.539 . S
C1597 C1593 1.408 . S
C1597 C1596 1.404 . S
C1597 H1609 0.930 . S
C1598 C1594 1.524 . S
C1598 H1610 0.956 . S
C1598 H1611 0.961 . S
C1598 H1612 0.961 . S
C1599 C1596 1.539 . S
C1599 H1613 0.958 . S
C1599 H1614 0.961 . S
C1599 H1615 0.960 . S
H1600 C1584 0.931 . S
H1601 C1589 0.929 . S
H1602 C1590 0.960 . S
H1603 C1590 0.962 . S
H1604 C1590 0.960 . S
H1605 C1591 0.961 . S
H1606 C1591 0.961 . S
H1607 C1591 0.961 . S
H1608 C1592 0.931 . S
H1609 C1597 0.930 . S
H1610 C1598 0.956 . S
H1611 C1598 0.961 . S
H1612 C1598 0.961 . S
H1613 C1599 0.958 . S
H1614 C1599 0.961 . S
H1615 C1599 0.960 . S
C1616 C1617 1.391 . S
C1616 C1618 1.394 1_655 S
C1616 H1632 0.931 1_655 S
C1617 C1616 1.391 . S
C1617 C1621 1.376 . S
C1618 C1616 1.394 1_455 S
C1618 C1619 1.369 1_455 S
C1618 C1622 1.531 . S
C1619 C1618 1.369 1_655 S
C1619 C1620 1.410 . S
C1619 C1627 1.503 1_655 S
C1620 C1619 1.410 . S
C1620 C1621 1.392 . S
C1620 C1623 1.511 . S
C1621 C1617 1.376 . S
C1621 C1620 1.392 . S
C1621 H1633 0.929 . S
C1622 C1618 1.531 . S
C1622 H1634 0.960 . S
C1622 H1635 0.962 . S
C1622 H1636 0.960 . S
C1623 C1620 1.511 . S
C1623 H1637 0.961 . S
C1623 H1638 0.961 . S
C1623 H1639 0.961 . S
C1624 C1625 1.370 . S
C1624 C1626 1.363 . S
C1624 H1640 0.931 . S
C1625 C1624 1.370 . S
C1625 C1629 1.408 . S
C1626 C1624 1.363 . S
C1626 C1627 1.370 . S
C1626 C1630 1.524 . S
C1627 C1619 1.503 1_455 S
C1627 C1626 1.370 . S
C1627 C1628 1.403 1_455 S
C1628 C1627 1.403 1_655 S
C1628 C1629 1.404 1_655 S
C1628 C1631 1.539 . S
C1629 C1625 1.408 . S
C1629 C1628 1.404 1_455 S
C1629 H1641 0.930 1_455 S
C1630 C1626 1.524 . S
C1630 H1642 0.956 . S
C1630 H1643 0.961 . S
C1630 H1644 0.961 . S
C1631 C1628 1.539 . S
C1631 H1645 0.958 . S
C1631 H1646 0.961 . S
C1631 H1647 0.960 . S
H1632 C1616 0.931 1_455 S
H1633 C1621 0.929 . S
H1634 C1622 0.960 . S
H1635 C1622 0.962 . S
H1636 C1622 0.960 . S
H1637 C1623 0.961 . S
H1638 C1623 0.961 . S
H1639 C1623 0.961 . S
H1640 C1624 0.931 . S
H1641 C1629 0.930 1_655 S
H1642 C1630 0.956 . S
H1643 C1630 0.961 . S
H1644 C1630 0.961 . S
H1645 C1631 0.958 . S
H1646 C1631 0.961 . S
H1647 C1631 0.960 . S
C1648 C1649 1.391 . S
C1648 C1650 1.394 . S
C1648 H1664 0.931 . S
C1649 C1648 1.391 . S
C1649 C1653 1.376 . S
C1650 C1648 1.394 . S
C1650 C1651 1.369 . S
C1650 C1654 1.531 . S
C1651 C1650 1.369 . S
C1651 C1652 1.410 . S
C1651 C1659 1.503 . S
C1652 C1651 1.410 . S
C1652 C1653 1.392 . S
C1652 C1655 1.511 . S
C1653 C1649 1.376 . S
C1653 C1652 1.392 . S
C1653 H1665 0.929 . S
C1654 C1650 1.531 . S
C1654 H1666 0.960 . S
C1654 H1667 0.962 . S
C1654 H1668 0.960 . S
C1655 C1652 1.511 . S
C1655 H1669 0.961 . S
C1655 H1670 0.961 . S
C1655 H1671 0.961 . S
C1656 C1657 1.370 . S
C1656 C1658 1.363 . S
C1656 H1672 0.931 . S
C1657 C1656 1.370 . S
C1657 C1661 1.408 . S
C1658 C1656 1.363 . S
C1658 C1659 1.370 . S
C1658 C1662 1.524 . S
C1659 C1651 1.503 . S
C1659 C1658 1.370 . S
C1659 C1660 1.403 . S
C1660 C1659 1.403 . S
C1660 C1661 1.404 . S
C1660 C1663 1.539 . S
C1661 C1657 1.408 . S
C1661 C1660 1.404 . S
C1661 H1673 0.930 . S
C1662 C1658 1.524 . S
C1662 H1674 0.956 . S
C1662 H1675 0.961 . S
C1662 H1676 0.961 . S
C1663 C1660 1.539 . S
C1663 H1677 0.958 . S
C1663 H1678 0.961 . S
C1663 H1679 0.960 . S
H1664 C1648 0.931 . S
H1665 C1653 0.929 . S
H1666 C1654 0.960 . S
H1667 C1654 0.962 . S
H1668 C1654 0.960 . S
H1669 C1655 0.961 . S
H1670 C1655 0.961 . S
H1671 C1655 0.961 . S
H1672 C1656 0.931 . S
H1673 C1661 0.930 . S
H1674 C1662 0.956 . S
H1675 C1662 0.961 . S
H1676 C1662 0.961 . S
H1677 C1663 0.958 . S
H1678 C1663 0.961 . S
H1679 C1663 0.960 . S
C1680 C1681 1.391 . S
C1680 C1682 1.394 . S
C1680 H1696 0.931 . S
C1681 C1680 1.391 . S
C1681 C1685 1.376 . S
C1682 C1680 1.394 . S
C1682 C1683 1.369 . S
C1682 C1686 1.531 . S
C1683 C1682 1.369 . S
C1683 C1684 1.410 . S
C1683 C1691 1.503 . S
C1684 C1683 1.410 . S
C1684 C1685 1.392 . S
C1684 C1687 1.511 . S
C1685 C1681 1.376 . S
C1685 C1684 1.392 . S
C1685 H1697 0.929 . S
C1686 C1682 1.531 . S
C1686 H1698 0.960 . S
C1686 H1699 0.962 . S
C1686 H1700 0.960 . S
C1687 C1684 1.511 . S
C1687 H1701 0.961 . S
C1687 H1702 0.961 . S
C1687 H1703 0.961 . S
C1688 C1689 1.370 . S
C1688 C1690 1.363 . S
C1688 H1704 0.931 . S
C1689 C1688 1.370 . S
C1689 C1693 1.408 . S
C1690 C1688 1.363 . S
C1690 C1691 1.370 . S
C1690 C1694 1.524 . S
C1691 C1683 1.503 . S
C1691 C1690 1.370 . S
C1691 C1692 1.403 . S
C1692 C1691 1.403 . S
C1692 C1693 1.404 . S
C1692 C1695 1.539 . S
C1693 C1689 1.408 . S
C1693 C1692 1.404 . S
C1693 H1705 0.930 . S
C1694 C1690 1.524 . S
C1694 H1706 0.956 . S
C1694 H1707 0.961 . S
C1694 H1708 0.961 . S
C1695 C1692 1.539 . S
C1695 H1709 0.958 . S
C1695 H1710 0.961 . S
C1695 H1711 0.960 . S
H1696 C1680 0.931 . S
H1697 C1685 0.929 . S
H1698 C1686 0.960 . S
H1699 C1686 0.962 . S
H1700 C1686 0.960 . S
H1701 C1687 0.961 . S
H1702 C1687 0.961 . S
H1703 C1687 0.961 . S
H1704 C1688 0.931 . S
H1705 C1693 0.930 . S
H1706 C1694 0.956 . S
H1707 C1694 0.961 . S
H1708 C1694 0.961 . S
H1709 C1695 0.958 . S
H1710 C1695 0.961 . S
H1711 C1695 0.960 . S
C1712 C1713 1.391 . S
C1712 C1714 1.394 1_455 S
C1712 H1728 0.931 1_455 S
C1713 C1712 1.391 . S
C1713 C1717 1.376 . S
C1714 C1712 1.394 1_655 S
C1714 C1715 1.369 1_655 S
C1714 C1718 1.531 . S
C1715 C1714 1.369 1_455 S
C1715 C1716 1.410 . S
C1715 C1723 1.503 1_455 S
C1716 C1715 1.410 . S
C1716 C1717 1.392 . S
C1716 C1719 1.511 . S
C1717 C1713 1.376 . S
C1717 C1716 1.392 . S
C1717 H1729 0.929 . S
C1718 C1714 1.531 . S
C1718 H1730 0.960 . S
C1718 H1731 0.962 . S
C1718 H1732 0.960 . S
C1719 C1716 1.511 . S
C1719 H1733 0.961 . S
C1719 H1734 0.961 . S
C1719 H1735 0.961 . S
C1720 C1721 1.370 . S
C1720 C1722 1.363 . S
C1720 H1736 0.931 . S
C1721 C1720 1.370 . S
C1721 C1725 1.392 1_655 S
C1722 C1720 1.363 . S
C1722 C1723 1.370 . S
C1722 C1726 1.524 . S
C1723 C1715 1.503 1_655 S
C1723 C1722 1.370 . S
C1723 C1724 1.403 1_655 S
C1724 C1723 1.403 1_455 S
C1724 C1725 1.411 . S
C1724 C1727 1.539 . S
C1725 C1721 1.392 1_455 S
C1725 C1724 1.411 . S
C1725 H1737 0.939 . S
C1726 C1722 1.524 . S
C1726 H1738 0.956 . S
C1726 H1739 0.961 . S
C1726 H1740 0.961 . S
C1727 C1724 1.539 . S
C1727 H1741 0.958 . S
C1727 H1742 0.961 . S
C1727 H1743 0.960 . S
H1728 C1712 0.931 1_655 S
H1729 C1717 0.929 . S
H1730 C1718 0.960 . S
H1731 C1718 0.962 . S
H1732 C1718 0.960 . S
H1733 C1719 0.961 . S
H1734 C1719 0.961 . S
H1735 C1719 0.961 . S
H1736 C1720 0.931 . S
H1737 C1725 0.939 . S
H1738 C1726 0.956 . S
H1739 C1726 0.961 . S
H1740 C1726 0.961 . S
H1741 C1727 0.958 . S
H1742 C1727 0.961 . S
H1743 C1727 0.960 . S
C1744 C1745 1.391 . S
C1744 C1746 1.394 . S
C1744 H1760 0.931 . S
C1745 C1744 1.391 . S
C1745 C1749 1.376 . S
C1746 C1744 1.394 . S
C1746 C1747 1.369 . S
C1746 C1750 1.531 . S
C1747 C1746 1.369 . S
C1747 C1748 1.410 . S
C1747 C1755 1.503 . S
C1748 C1747 1.410 . S
C1748 C1749 1.392 . S
C1748 C1751 1.511 . S
C1749 C1745 1.376 . S
C1749 C1748 1.392 . S
C1749 H1761 0.929 . S
C1750 C1746 1.531 . S
C1750 H1762 0.960 . S
C1750 H1763 0.962 . S
C1750 H1764 0.960 . S
C1751 C1748 1.511 . S
C1751 H1765 0.961 . S
C1751 H1766 0.961 . S
C1751 H1767 0.961 . S
C1752 C1753 1.370 . S
C1752 C1754 1.363 . S
C1752 H1768 0.931 . S
C1753 C1752 1.370 . S
C1753 C1757 1.408 . S
C1754 C1752 1.363 . S
C1754 C1755 1.370 . S
C1754 C1758 1.524 . S
C1755 C1747 1.503 . S
C1755 C1754 1.370 . S
C1755 C1756 1.403 . S
C1756 C1755 1.403 . S
C1756 C1757 1.404 . S
C1756 C1759 1.539 . S
C1757 C1753 1.408 . S
C1757 C1756 1.404 . S
C1757 H1769 0.930 . S
C1758 C1754 1.524 . S
C1758 H1770 0.956 . S
C1758 H1771 0.961 . S
C1758 H1772 0.961 . S
C1759 C1756 1.539 . S
C1759 H1773 0.958 . S
C1759 H1774 0.961 . S
C1759 H1775 0.960 . S
H1760 C1744 0.931 . S
H1761 C1749 0.929 . S
H1762 C1750 0.960 . S
H1763 C1750 0.962 . S
H1764 C1750 0.960 . S
H1765 C1751 0.961 . S
H1766 C1751 0.961 . S
H1767 C1751 0.961 . S
H1768 C1752 0.931 . S
H1769 C1757 0.930 . S
H1770 C1758 0.956 . S
H1771 C1758 0.961 . S
H1772 C1758 0.961 . S
H1773 C1759 0.958 . S
H1774 C1759 0.961 . S
H1775 C1759 0.960 . S
C1776 C1777 1.391 1_655 S
C1776 C1778 1.394 . S
C1776 H1792 0.931 . S
C1777 C1776 1.391 1_455 S
C1777 C1781 1.376 . S
C1778 C1776 1.394 . S
C1778 C1779 1.369 1_655 S
C1778 C1782 1.531 . S
C1779 C1778 1.369 1_455 S
C1779 C1780 1.410 . S
C1779 C1787 1.503 1_455 S
C1780 C1779 1.410 . S
C1780 C1781 1.392 . S
C1780 C1783 1.511 . S
C1781 C1777 1.376 . S
C1781 C1780 1.392 . S
C1781 H1793 0.929 . S
C1782 C1778 1.531 . S
C1782 H1794 0.960 . S
C1782 H1795 0.962 . S
C1782 H1796 0.960 . S
C1783 C1780 1.511 . S
C1783 H1797 0.961 . S
C1783 H1798 0.961 . S
C1783 H1799 0.961 . S
C1784 C1785 1.370 . S
C1784 C1786 1.363 . S
C1784 H1800 0.931 . S
C1785 C1784 1.370 . S
C1785 C1789 1.408 . S
C1786 C1784 1.363 . S
C1786 C1787 1.370 . S
C1786 C1790 1.524 . S
C1787 C1779 1.503 1_655 S
C1787 C1786 1.370 . S
C1787 C1788 1.403 . S
C1788 C1787 1.403 . S
C1788 C1789 1.404 . S
C1788 C1791 1.539 1_655 S
C1789 C1785 1.408 . S
C1789 C1788 1.404 . S
C1789 H1801 0.930 . S
C1790 C1786 1.524 . S
C1790 H1802 0.956 . S
C1790 H1803 0.961 1_655 S
C1790 H1804 0.961 . S
C1791 C1788 1.539 1_455 S
C1791 H1805 0.958 1_455 S
C1791 H1806 0.961 . S
C1791 H1807 0.960 . S
H1792 C1776 0.931 . S
H1793 C1781 0.929 . S
H1794 C1782 0.960 . S
H1795 C1782 0.962 . S
H1796 C1782 0.960 . S
H1797 C1783 0.961 . S
H1798 C1783 0.961 . S
H1799 C1783 0.961 . S
H1800 C1784 0.931 . S
H1801 C1789 0.930 . S
H1802 C1790 0.956 . S
H1803 C1790 0.961 1_455 S
H1804 C1790 0.961 . S
H1805 C1791 0.958 1_655 S
H1806 C1791 0.961 . S
H1807 C1791 0.960 . S
C529 C186 1.023 . S
C537 C18 1.062 . S
C561 C153 1.030 . S
C569 C51 1.064 . S
C593 C84 1.027 . S
C601 C252 1.065 . S
C625 C117 1.029 . S
C633 C219 1.065 . S
C657 C150 1.019 . S
C665 C54 1.064 . S
C689 C183 1.059 . S
C697 C21 1.052 . S
C721 C120 1.029 . S
C729 C216 1.062 . S
C753 C249 1.027 . S
C761 C87 1.061 . S
C785 C282 1.052 . S
C793 C450 1.047 . S
C817 C315 1.018 . S
C825 C417 1.065 . S
C849 C348 1.078 . S
C857 C516 1.046 . S
C881 C381 1.026 . S
C889 C483 1.065 . S
C913 C414 1.050 . S
C921 C318 1.055 . S
C945 C447 1.072 . S
C953 C285 1.043 . S
C977 C384 1.078 . S
C985 C480 1.039 . S
C1009 C351 1.030 . S
C1017 C513 1.059 . S
C1041 N13 1.656 . S
C1049 N46 1.669 . S
C1073 N79 1.681 . S
C1081 N112 1.675 . S
C1105 N178 1.693 . S
C1113 N145 1.684 . S
C1137 N244 1.686 . S
C1145 N211 1.686 . S
C1169 N310 1.694 . S
C1177 N277 1.684 . S
C1201 N376 1.692 . S
C1209 N343 1.686 . S
C1233 N409 1.693 . S
C1241 N442 1.680 . S
C1265 N475 1.660 . S
C1273 N508 1.670 . S
C1297 N299 1.537 . S
C1305 N2 1.523 . S
C1329 N35 1.507 . S
C1337 N266 1.523 . S
C1361 N68 1.503 . S
C1369 N365 1.525 . S
C1393 N332 1.521 . S
C1401 N101 1.521 . S
C1425 N134 1.545 . S
C1433 N431 1.541 . S
C1457 N167 1.503 . S
C1465 N398 1.538 . S
C1489 N200 1.556 . S
C1497 N497 1.532 . S
C1521 N464 1.505 . S
C1529 N233 1.526 . S
C1553 C7 1.456 . S
C1561 C106 1.452 . S
C1585 C40 1.441 . S
C1593 C73 1.459 . S
C1617 C139 1.460 . S
C1625 C238 1.449 . S
C1649 C172 1.434 . S
C1657 C205 1.462 . S
C1681 C370 1.466 . S
C1689 C271 1.453 . S
C1713 C337 1.469 . S
C1721 C304 1.451 . S
C1745 C403 1.463 . S
C1753 C502 1.449 . S
C1777 C436 1.450 . S
C1785 C469 1.452 . S
