# Generated by pormake.
# Topology snz, (6)-cn, num edge types: 1
# Building blocks:
#     Node 0, Type 0, BuildingBlock: MIFKUJ_clean_sbu_0, # of connection points: 6
#     Node 1, Type 0, BuildingBlock: MIFKUJ_clean_sbu_0, # of connection points: 6
#     Node 2, Type 0, BuildingBlock: MIFKUJ_clean_sbu_0, # of connection points: 6
#     Node 3, Type 0, BuildingBlock: MIFKUJ_clean_sbu_0, # of connection points: 6
#     Node 4, Type 0, BuildingBlock: MIFKUJ_clean_sbu_0, # of connection points: 6
#     Node 5, Type 0, BuildingBlock: MIFKUJ_clean_sbu_0, # of connection points: 6
#     Node 6, Type 0, BuildingBlock: MIFKUJ_clean_sbu_0, # of connection points: 6
#     Node 7, Type 0, BuildingBlock: MIFKUJ_clean_sbu_0, # of connection points: 6
#     Node 8, Type 0, BuildingBlock: MIFKUJ_clean_sbu_0, # of connection points: 6
#     Edge 9, Type (0, 0), BuildingBlock: ZUJKAS_clean_linker_0, # of connection points: 2
#     Edge 10, Type (0, 0), BuildingBlock: ZUJKAS_clean_linker_0, # of connection points: 2
#     Edge 11, Type (0, 0), BuildingBlock: ZUJKAS_clean_linker_0, # of connection points: 2
#     Edge 12, Type (0, 0), BuildingBlock: ZUJKAS_clean_linker_0, # of connection points: 2
#     Edge 13, Type (0, 0), BuildingBlock: ZUJKAS_clean_linker_0, # of connection points: 2
#     Edge 14, Type (0, 0), BuildingBlock: ZUJKAS_clean_linker_0, # of connection points: 2
#     Edge 15, Type (0, 0), BuildingBlock: ZUJKAS_clean_linker_0, # of connection points: 2
#     Edge 16, Type (0, 0), BuildingBlock: ZUJKAS_clean_linker_0, # of connection points: 2
#     Edge 17, Type (0, 0), BuildingBlock: ZUJKAS_clean_linker_0, # of connection points: 2
#     Edge 18, Type (0, 0), BuildingBlock: ZUJKAS_clean_linker_0, # of connection points: 2
#     Edge 19, Type (0, 0), BuildingBlock: ZUJKAS_clean_linker_0, # of connection points: 2
#     Edge 20, Type (0, 0), BuildingBlock: ZUJKAS_clean_linker_0, # of connection points: 2
#     Edge 21, Type (0, 0), BuildingBlock: ZUJKAS_clean_linker_0, # of connection points: 2
#     Edge 22, Type (0, 0), BuildingBlock: ZUJKAS_clean_linker_0, # of connection points: 2
#     Edge 23, Type (0, 0), BuildingBlock: ZUJKAS_clean_linker_0, # of connection points: 2
#     Edge 24, Type (0, 0), BuildingBlock: ZUJKAS_clean_linker_0, # of connection points: 2
#     Edge 25, Type (0, 0), BuildingBlock: ZUJKAS_clean_linker_0, # of connection points: 2
#     Edge 26, Type (0, 0), BuildingBlock: ZUJKAS_clean_linker_0, # of connection points: 2
#     Edge 27, Type (0, 0), BuildingBlock: ZUJKAS_clean_linker_0, # of connection points: 2
#     Edge 28, Type (0, 0), BuildingBlock: ZUJKAS_clean_linker_0, # of connection points: 2
#     Edge 29, Type (0, 0), BuildingBlock: ZUJKAS_clean_linker_0, # of connection points: 2
#     Edge 30, Type (0, 0), BuildingBlock: ZUJKAS_clean_linker_0, # of connection points: 2
#     Edge 31, Type (0, 0), BuildingBlock: ZUJKAS_clean_linker_0, # of connection points: 2
#     Edge 32, Type (0, 0), BuildingBlock: ZUJKAS_clean_linker_0, # of connection points: 2
#     Edge 33, Type (0, 0), BuildingBlock: ZUJKAS_clean_linker_0, # of connection points: 2
#     Edge 34, Type (0, 0), BuildingBlock: ZUJKAS_clean_linker_0, # of connection points: 2
#     Edge 35, Type (0, 0), BuildingBlock: ZUJKAS_clean_linker_0, # of connection points: 2
# Relax obj value: 0.100
# Max RMSD: 0.176
# Mean RMSD: 0.125
data_MOF--net-snz--node1-MIFKUJ_clean_sbu_0--edge1-ZUJKAS_clean_linker_0
_symmetry_space_group_name_H-M    P1
_symmetry_Int_Tables_number       1
_symmetry_cell_setting            triclinic
loop_
_symmetry_equiv_pos_as_xyz
'x, y, z'
_cell_length_a     71.885687
_cell_length_b     69.499384
_cell_length_c     19.130429
_cell_angle_alpha  93.54696
_cell_angle_beta   93.634424
_cell_angle_gamma 120.09112
loop_
_atom_site_label
_atom_site_type_symbol
_atom_site_fract_x
_atom_site_fract_y
_atom_site_fract_z
_atom_type_partial_charge
Zn0 Zn 0.02288 0.49043 0.01881 0.0
Zn1 Zn 0.05681 0.4752 0.03007 0.0
C2 C 0.0498 0.53349 0.08667 0.0
O3 O 0.03196 0.52649 0.11721 0.0
C4 C 0.03505 0.43272 0.95391 0.0
O5 O 0.05103 0.44405 0.91624 0.0
O6 O 0.9999 0.49849 0.99473 0.0
O7 O 0.02306 0.4738 0.9298 0.0
O8 O 0.05842 0.4902 0.94099 0.0
C9 C 0.00432 0.51079 0.94454 0.0
O10 O 0.02217 0.51629 0.91549 0.0
O11 O 0.05063 0.52029 0.03957 0.0
C12 C 0.08537 0.46498 0.10423 0.0
O13 O 0.07037 0.45965 0.14721 0.0
O14 O 0.08378 0.4732 0.04807 0.0
O15 O 0.05332 0.4881 0.12277 0.0
O16 O 0.01827 0.47539 0.108 0.0
O17 O 0.03324 0.44278 0.00859 0.0
C18 C 0.04064 0.48215 0.90183 0.0
C19 C 0.03544 0.48143 0.1485 0.0
Zn20 Zn 0.54614 0.48669 0.02566 0.0
Zn21 Zn 0.59698 0.50755 0.03116 0.0
C22 C 0.53171 0.44472 0.95319 0.0
O23 O 0.52074 0.45215 0.91793 0.0
C24 C 0.61484 0.55017 0.10029 0.0
O25 O 0.62458 0.54125 0.13436 0.0
O26 O 0.51514 0.47822 0.03814 0.0
O27 O 0.56283 0.50227 0.12028 0.0
O28 O 0.58783 0.49276 0.121 0.0
C29 C 0.50696 0.46508 0.08526 0.0
O30 O 0.51897 0.45877 0.12023 0.0
O31 O 0.54494 0.45709 0.00607 0.0
C32 C 0.63315 0.52668 0.96009 0.0
O33 O 0.62033 0.53332 0.93302 0.0
O34 O 0.62699 0.51427 0.01005 0.0
O35 O 0.57908 0.49118 0.93905 0.0
O36 O 0.55583 0.50284 0.93842 0.0
O37 O 0.60027 0.53819 0.04985 0.0
C38 C 0.57541 0.49731 0.15395 0.0
C39 C 0.56784 0.49772 0.9055 0.0
Zn40 Zn 0.62297 0.03398 0.07686 0.0
Zn41 Zn 0.56595 0.0119 0.05564 0.0
C42 C 0.62533 0.99876 0.13576 0.0
O43 O 0.63246 0.01385 0.19076 0.0
C44 C 0.55459 0.03475 0.96146 0.0
O45 O 0.54877 0.01592 0.92293 0.0
O46 O 0.6549 0.05371 0.06611 0.0
O47 O 0.60804 0.03665 0.98806 0.0
O48 O 0.5787 0.00338 0.97487 0.0
C49 C 0.66035 0.04741 0.01102 0.0
O50 O 0.64546 0.02966 0.97023 0.0
O51 O 0.61897 0.00294 0.07806 0.0
C52 C 0.52632 0.99246 0.11151 0.0
O53 O 0.53795 0.0118 0.15026 0.0
O54 O 0.53492 0.98749 0.0626 0.0
O55 O 0.58052 0.01954 0.15663 0.0
O56 O 0.61611 0.04211 0.17129 0.0
O57 O 0.56291 0.03772 0.02479 0.0
C58 C 0.59389 0.01948 0.94815 0.0
C59 C 0.59812 0.0315 0.1967 0.0
Zn60 Zn 0.74294 0.84793 0.30285 0.0
Zn61 Zn 0.77335 0.82733 0.30878 0.0
C62 C 0.76925 0.88939 0.3821 0.0
O63 O 0.75284 0.87951 0.4194 0.0
C64 C 0.74514 0.78486 0.238 0.0
O65 O 0.76269 0.7916 0.20596 0.0
O66 O 0.71854 0.8544 0.28654 0.0
O67 O 0.74396 0.83332 0.20957 0.0
O68 O 0.77843 0.84358 0.22193 0.0
C69 C 0.71737 0.86208 0.22874 0.0
O70 O 0.73118 0.86444 0.18349 0.0
O71 O 0.76945 0.87877 0.32581 0.0
C72 C 0.81131 0.8271 0.37345 0.0
O73 O 0.81515 0.84553 0.41043 0.0
O74 O 0.79543 0.81764 0.32544 0.0
O75 O 0.77384 0.84294 0.40131 0.0
O76 O 0.73917 0.8317 0.39011 0.0
O77 O 0.74499 0.79806 0.28683 0.0
C78 C 0.76141 0.83873 0.18254 0.0
C79 C 0.75642 0.83698 0.42901 0.0
Zn80 Zn 0.20417 0.81146 0.30981 0.0
Zn81 Zn 0.26748 0.86693 0.32314 0.0
C82 C 0.18186 0.76827 0.24091 0.0
O83 O 0.17257 0.77814 0.20991 0.0
C84 C 0.28684 0.90976 0.39383 0.0
O85 O 0.29743 0.90115 0.42459 0.0
O86 O 0.17598 0.80855 0.33744 0.0
O87 O 0.22553 0.82606 0.39791 0.0
O88 O 0.25967 0.85347 0.4159 0.0
C89 C 0.16882 0.79589 0.38637 0.0
O90 O 0.17961 0.78651 0.40965 0.0
O91 O 0.19743 0.77963 0.28906 0.0
C92 C 0.30469 0.88423 0.25156 0.0
O93 O 0.29352 0.89213 0.22041 0.0
O94 O 0.2968 0.87194 0.30082 0.0
O95 O 0.2467 0.85185 0.23362 0.0
O96 O 0.21244 0.82446 0.21639 0.0
O97 O 0.27194 0.89784 0.34427 0.0
C98 C 0.2427 0.83856 0.43925 0.0
C99 C 0.22954 0.839 0.19252 0.0
Zn100 Zn 0.24518 0.32491 0.27646 0.0
Zn101 Zn 0.18721 0.30187 0.25228 0.0
C102 C 0.25852 0.30471 0.3749 0.0
O103 O 0.2632 0.32354 0.41115 0.0
C104 C 0.19078 0.3414 0.19674 0.0
O105 O 0.19193 0.33157 0.13771 0.0
O106 O 0.27553 0.35058 0.26833 0.0
O107 O 0.23088 0.31561 0.17506 0.0
O108 O 0.19513 0.29455 0.15843 0.0
C109 C 0.28586 0.34474 0.2288 0.0
O110 O 0.27612 0.32395 0.19951 0.0
O111 O 0.25009 0.30063 0.31129 0.0
C112 C 0.14842 0.28483 0.31431 0.0
O113 O 0.16211 0.30193 0.35972 0.0
O114 O 0.15528 0.28063 0.25893 0.0
O115 O 0.2019 0.29937 0.34225 0.0
O116 O 0.23124 0.3327 0.35536 0.0
O117 O 0.1898 0.33244 0.25352 0.0
C118 C 0.2134 0.30395 0.1342 0.0
C119 C 0.21625 0.31642 0.38221 0.0
Zn120 Zn 0.43034 0.17197 0.68655 0.0
Zn121 Zn 0.39462 0.183 0.68656 0.0
C122 C 0.44524 0.14225 0.70021 0.0
O123 O 0.42469 0.1303 0.70963 0.0
C124 C 0.37874 0.21179 0.67181 0.0
O125 O 0.39926 0.22413 0.66248 0.0
O126 O 0.42095 0.16629 0.78189 0.0
O127 O 0.44424 0.20551 0.68553 0.0
O128 O 0.42042 0.20496 0.75378 0.0
C129 C 0.43586 0.17443 0.83271 0.0
O130 O 0.45614 0.18576 0.81958 0.0
O131 O 0.45251 0.16212 0.68432 0.0
C132 C 0.38749 0.17921 0.54119 0.0
O133 O 0.36759 0.16779 0.55779 0.0
O134 O 0.4031 0.18828 0.58989 0.0
O135 O 0.38116 0.14952 0.68803 0.0
O136 O 0.40477 0.15054 0.61803 0.0
O137 O 0.37199 0.19218 0.68936 0.0
C138 C 0.43898 0.2154 0.73176 0.0
C139 C 0.38634 0.13986 0.64072 0.0
Zn140 Zn 0.89953 0.16721 0.60143 0.0
Zn141 Zn 0.91119 0.15379 0.73487 0.0
C142 C 0.93175 0.17124 0.50954 0.0
O143 O 0.91462 0.15663 0.46701 0.0
C144 C 0.86761 0.12812 0.76238 0.0
O145 O 0.87394 0.1134 0.76523 0.0
O146 O 0.88187 0.17017 0.52283 0.0
O147 O 0.88454 0.13365 0.60254 0.0
O148 O 0.91111 0.13224 0.65984 0.0
C149 C 0.86162 0.15636 0.51325 0.0
O150 O 0.8523 0.14345 0.56256 0.0
O151 O 0.92921 0.17786 0.56979 0.0
C152 C 0.9195 0.15853 0.88062 0.0
O153 O 0.92367 0.17876 0.8704 0.0
O154 O 0.91736 0.14534 0.8278 0.0
O155 O 0.93095 0.18691 0.73259 0.0
O156 O 0.90344 0.18877 0.68452 0.0
O157 O 0.88057 0.14727 0.74392 0.0
C158 C 0.89442 0.1232 0.61534 0.0
C159 C 0.92148 0.19796 0.7228 0.0
Zn160 Zn 0.87616 0.64327 0.65482 0.0
Zn161 Zn 0.92361 0.68054 0.67692 0.0
C162 C 0.83132 0.62623 0.65457 0.0
O163 O 0.83885 0.64787 0.66436 0.0
C164 C 0.96793 0.69676 0.67555 0.0
O165 O 0.95948 0.67502 0.66278 0.0
O166 O 0.88017 0.65401 0.75574 0.0
O167 O 0.89473 0.62902 0.64885 0.0
O168 O 0.91882 0.65477 0.73098 0.0
C169 C 0.87307 0.63841 0.79545 0.0
O170 O 0.86393 0.61755 0.76726 0.0
O171 O 0.84433 0.61944 0.64127 0.0
C172 C 0.92725 0.68605 0.53699 0.0
O173 O 0.93615 0.70677 0.56625 0.0
O174 O 0.91993 0.67019 0.57571 0.0
O175 O 0.90474 0.69459 0.68263 0.0
O176 O 0.881 0.66884 0.59981 0.0
O177 O 0.95558 0.70419 0.6915 0.0
C178 C 0.9095 0.63496 0.69979 0.0
C179 C 0.8901 0.68862 0.63115 0.0
H180 H 0.07457 0.49601 0.82147 0.0
H181 H 0.0731 0.49614 0.69305 0.0
H182 H 0.00406 0.46838 0.67895 0.0
H183 H 0.00535 0.4684 0.80664 0.0
H184 H 0.04898 0.45917 0.58866 0.0
H185 H 0.02467 0.52308 0.56837 0.0
H186 H 0.03554 0.51919 0.6505 0.0
H187 H 0.00776 0.50035 0.61672 0.0
C188 C 0.0591 0.49003 0.79103 0.0
C189 C 0.0401 0.48226 0.82435 0.0
C190 C 0.05829 0.4901 0.71774 0.0
C191 C 0.03852 0.48259 0.67671 0.0
C192 C 0.01954 0.47466 0.70976 0.0
H193 H 1.00064 0.46817 0.22508 0.0
H194 H 1.0008 0.4677 0.35332 0.0
C195 C 0.02031 0.47455 0.7828 0.0
C196 C 0.03758 0.48242 0.59907 0.0
H197 H 0.02397 0.50354 0.46109 0.0
C198 C 0.04362 0.46894 0.56073 0.0
C199 C 0.0304 0.49506 0.56286 0.0
C200 C 0.02439 0.5104 0.60163 0.0
C201 C 0.04245 0.46756 0.48693 0.0
C202 C 0.03544 0.48034 0.45071 0.0
C203 C 0.02927 0.49372 0.48901 0.0
C204 C 0.03523 0.48069 0.37329 0.0
C205 C 0.04839 0.45214 0.4483 0.0
C206 C 0.05456 0.48852 0.34237 0.0
C207 C 0.05453 0.48879 0.26953 0.0
C208 C 0.03515 0.48138 0.2259 0.0
C209 C 0.01581 0.4739 0.25711 0.0
C210 C 0.01587 0.47364 0.3303 0.0
H211 H 0.04746 0.43909 0.48103 0.0
H212 H 0.03763 0.44381 0.39842 0.0
H213 H 0.06527 0.46204 0.43514 0.0
H214 H 0.06974 0.49452 0.3747 0.0
H215 H 0.06977 0.49483 0.24753 0.0
H216 H 0.59437 0.49076 0.82567 0.0
H217 H 0.59595 0.49147 0.69911 0.0
H218 H 0.54454 0.50644 0.68231 0.0
H219 H 0.54301 0.50608 0.81017 0.0
H220 H 0.56399 0.46492 0.5915 0.0
H221 H 0.59082 0.5546 0.57802 0.0
H222 H 0.59193 0.54344 0.65992 0.0
H223 H 0.5667 0.53939 0.62036 0.0
C224 C 0.58337 0.49426 0.79537 0.0
C225 C 0.56853 0.49838 0.82826 0.0
C226 C 0.58433 0.49466 0.72283 0.0
C227 C 0.57055 0.49923 0.68126 0.0
C228 C 0.55562 0.50328 0.7136 0.0
H229 H 0.54931 0.50442 0.23582 0.0
H230 H 0.54886 0.50456 0.36296 0.0
C231 C 0.55467 0.50295 0.78658 0.0
C232 C 0.57163 0.4992 0.60394 0.0
H233 H 0.5818 0.53201 0.46926 0.0
C234 C 0.56795 0.4796 0.56475 0.0
C235 C 0.57691 0.51841 0.56923 0.0
C236 C 0.58202 0.54023 0.60897 0.0
C237 C 0.56897 0.47855 0.49159 0.0
C238 C 0.57414 0.49772 0.45683 0.0
C239 C 0.57789 0.51734 0.49605 0.0
C240 C 0.5748 0.49753 0.37933 0.0
C241 C 0.56395 0.45675 0.45187 0.0
C242 C 0.5897 0.49368 0.34603 0.0
C243 C 0.59002 0.49355 0.27274 0.0
C244 C 0.57552 0.49741 0.23165 0.0
C245 C 0.56077 0.50142 0.26557 0.0
C246 C 0.56046 0.50152 0.33845 0.0
H247 H 0.55556 0.44242 0.48329 0.0
H248 H 0.55369 0.45332 0.40154 0.0
H249 H 0.57928 0.45785 0.43924 0.0
H250 H 0.60117 0.49093 0.37675 0.0
H251 H 0.60165 0.49052 0.24841 0.0
H252 H 0.62565 0.0497 0.87634 0.0
H253 H 0.62561 0.0514 0.74919 0.0
H254 H 0.56254 0.99192 0.71554 0.0
H255 H 0.56248 0.98985 0.84324 0.0
H256 H 0.619 0.01512 0.63944 0.0
H257 H 0.558 0.04186 0.60978 0.0
H258 H 0.5734 0.04578 0.69317 0.0
H259 H 0.55165 0.01847 0.65917 0.0
C260 C 0.61173 0.0369 0.84212 0.0
C261 C 0.59397 0.0197 0.87033 0.0
C262 C 0.61177 0.03792 0.76933 0.0
C263 C 0.59399 0.02195 0.72296 0.0
C264 C 0.57634 0.00457 0.75053 0.0
H265 H 0.56319 0.00764 0.26892 0.0
H266 H 0.5626 0.0057 0.39571 0.0
C267 C 0.57637 0.00337 0.82352 0.0
C268 C 0.59412 0.02354 0.64578 0.0
H269 H 0.57137 0.03589 0.50618 0.0
C270 C 0.6086 0.01965 0.61017 0.0
C271 C 0.58052 0.02943 0.60784 0.0
C272 C 0.56506 0.03429 0.64413 0.0
C273 C 0.60963 0.02116 0.53734 0.0
C274 C 0.59625 0.0274 0.49929 0.0
C275 C 0.58171 0.03122 0.53513 0.0
C276 C 0.59672 0.02952 0.42209 0.0
C277 C 0.62463 0.01544 0.50165 0.0
C278 C 0.616 0.04399 0.39424 0.0
C279 C 0.61645 0.04507 0.32132 0.0
C280 C 0.59754 0.03191 0.27458 0.0
C281 C 0.5781 0.01805 0.30298 0.0
C282 C 0.57771 0.01689 0.37573 0.0
H283 H 0.62885 0.00496 0.53299 0.0
H284 H 0.61728 0.00638 0.44838 0.0
H285 H 0.63987 0.0311 0.49598 0.0
H286 H 0.63078 0.05439 0.42889 0.0
H287 H 0.63168 0.05602 0.30158 0.0
H288 H 0.7229 0.82704 0.50898 0.0
H289 H 0.72406 0.82782 0.63761 0.0
H290 H 0.79163 0.84796 0.65251 0.0
H291 H 0.79074 0.84746 0.52484 0.0
H292 H 0.73567 0.80328 0.72543 0.0
H293 H 0.7906 0.8948 0.79111 0.0
H294 H 0.77684 0.88242 0.70393 0.0
H295 H 0.80071 0.88169 0.73325 0.0
C296 C 0.73802 0.83171 0.53968 0.0
C297 C 0.75674 0.83728 0.50659 0.0
C298 C 0.73865 0.83215 0.61309 0.0
C299 C 0.75802 0.8383 0.65455 0.0
C300 C 0.77664 0.84363 0.62162 0.0
H301 H 0.79527 0.84879 0.10395 0.0
H302 H 0.79453 0.84807 0.97538 0.0
C303 C 0.77604 0.84321 0.54848 0.0
C304 C 0.75872 0.83855 0.73218 0.0
H305 H 0.78315 0.87249 0.88626 0.0
C306 C 0.74595 0.81842 0.76066 0.0
C307 C 0.77227 0.85832 0.77788 0.0
C308 C 0.78575 0.88059 0.75017 0.0
C309 C 0.74659 0.81744 0.83379 0.0
C310 C 0.76009 0.83722 0.87951 0.0
C311 C 0.7729 0.85735 0.85103 0.0
C312 C 0.76057 0.8375 0.95712 0.0
C313 C 0.73311 0.79517 0.86145 0.0
C314 C 0.74182 0.8321 0.98929 0.0
C315 C 0.74217 0.83247 0.06237 0.0
C316 C 0.76136 0.83843 0.105 0.0
C317 C 0.78022 0.84408 0.07267 0.0
C318 C 0.77984 0.84369 0.9993 0.0
H319 H 0.72844 0.78098 0.82064 0.0
H320 H 0.74195 0.79341 0.90806 0.0
H321 H 0.71805 0.79397 0.87775 0.0
H322 H 0.7269 0.82774 0.95784 0.0
H323 H 0.72735 0.82812 0.08536 0.0
H324 H 0.2093 0.80951 0.50992 0.0
H325 H 0.20723 0.80992 0.63678 0.0
H326 H 0.27293 0.86504 0.67302 0.0
H327 H 0.27502 0.865 0.54581 0.0
H328 H 0.23088 0.80466 0.74533 0.0
H329 H 0.24091 0.88927 0.78245 0.0
H330 H 0.23539 0.87408 0.69653 0.0
H331 H 0.26233 0.88842 0.74161 0.0
C332 C 0.22338 0.82167 0.54455 0.0
C333 C 0.24226 0.83729 0.51695 0.0
C334 C 0.22216 0.82189 0.61742 0.0
C335 C 0.23976 0.83781 0.66476 0.0
C336 C 0.25893 0.85293 0.63769 0.0
H337 H 0.26302 0.86752 0.12113 0.0
H338 H 0.26489 0.86689 0.99413 0.0
C339 C 0.26016 0.85273 0.56472 0.0
C340 C 0.23794 0.83854 0.74219 0.0
H341 H 0.24098 0.87224 0.88604 0.0
C342 C 0.23301 0.81941 0.77602 0.0
C343 C 0.24066 0.85776 0.78247 0.0
C344 C 0.24491 0.87849 0.74896 0.0
C345 C 0.23119 0.81912 0.8489 0.0
C346 C 0.23395 0.83836 0.8892 0.0
C347 C 0.23885 0.85748 0.85536 0.0
C348 C 0.23227 0.83914 0.96672 0.0
C349 C 0.22687 0.79838 0.88238 0.0
C350 C 0.21312 0.82414 0.99415 0.0
C351 C 0.21199 0.82446 0.06719 0.0
C352 C 0.22997 0.83991 0.11467 0.0
C353 C 0.24887 0.85536 0.08671 0.0
C354 C 0.24998 0.85502 0.01378 0.0
H355 H 0.23073 0.78751 0.84873 0.0
H356 H 0.23647 0.80277 0.93466 0.0
H357 H 0.20948 0.78855 0.89008 0.0
H358 H 0.19904 0.81205 0.95905 0.0
H359 H 0.19713 0.81233 0.0864 0.0
H360 H 0.18561 0.28506 0.45469 0.0
H361 H 0.18594 0.28342 0.58167 0.0
H362 H 0.24784 0.34453 0.61425 0.0
H363 H 0.24722 0.34678 0.48694 0.0
H364 H 0.21237 0.27914 0.67357 0.0
H365 H 0.21601 0.35917 0.7521 0.0
H366 H 0.2106 0.34737 0.66141 0.0
H367 H 0.23791 0.36272 0.7038 0.0
C368 C 0.19926 0.29831 0.48871 0.0
C369 C 0.21641 0.31607 0.46018 0.0
C370 C 0.19944 0.2973 0.56158 0.0
C371 C 0.21677 0.31397 0.60814 0.0
C372 C 0.23399 0.33171 0.5799 0.0
H373 H 0.24867 0.32765 0.06305 0.0
H374 H 0.24964 0.32932 0.93591 0.0
C375 C 0.23371 0.33289 0.50684 0.0
C376 C 0.2169 0.31231 0.68576 0.0
H377 H 0.22091 0.34032 0.84482 0.0
C378 C 0.21414 0.29251 0.71083 0.0
C379 C 0.21915 0.32969 0.73487 0.0
C380 C 0.22087 0.35084 0.71173 0.0
C381 C 0.21377 0.28974 0.78312 0.0
C382 C 0.21622 0.30717 0.83196 0.0
C383 C 0.21912 0.327 0.80726 0.0
C384 C 0.21569 0.30511 0.90895 0.0
C385 C 0.21101 0.26828 0.80713 0.0
C386 C 0.19626 0.29081 0.93618 0.0
C387 C 0.19558 0.28989 0.00912 0.0
C388 C 0.21436 0.30316 0.0564 0.0
C389 C 0.23389 0.31707 0.02853 0.0
C390 C 0.23449 0.31814 0.95574 0.0
H391 H 0.21282 0.25792 0.76451 0.0
H392 H 0.22302 0.27192 0.85289 0.0
H393 H 0.19464 0.25837 0.82433 0.0
H394 H 0.18151 0.28074 0.90106 0.0
H395 H 0.18024 0.27907 0.02846 0.0
H396 H 0.42669 0.19981 0.49019 0.0
H397 H 0.43379 0.19837 0.36735 0.0
H398 H 0.36525 0.15805 0.30269 0.0
H399 H 0.3579 0.15953 0.42527 0.0
H400 H 0.41997 0.15752 0.27941 0.0
H401 H 0.38764 0.20888 0.17208 0.0
H402 H 0.39457 0.20996 0.26523 0.0
H403 H 0.36986 0.18686 0.2213 0.0
C404 C 0.41311 0.19085 0.44977 0.0
C405 C 0.39174 0.17976 0.46714 0.0
C406 C 0.41721 0.19003 0.37986 0.0
C407 C 0.40001 0.17825 0.32656 0.0
C408 C 0.37866 0.16748 0.34342 0.0
H409 H 0.39565 0.15288 0.87633 0.0
H410 H 0.3865 0.15186 0.99737 0.0
C411 C 0.37453 0.16829 0.41334 0.0
C412 C 0.40452 0.17629 0.25361 0.0
H413 H 0.39859 0.19063 0.09023 0.0
C414 C 0.41536 0.16476 0.2379 0.0
C415 C 0.39828 0.18568 0.20017 0.0
C416 C 0.38708 0.1987 0.21532 0.0
C417 C 0.42013 0.16231 0.16936 0.0
C418 C 0.41414 0.17195 0.11608 0.0
C419 C 0.40308 0.18326 0.13164 0.0
C420 C 0.41977 0.17113 0.04403 0.0
C421 C 0.43131 0.14928 0.15428 0.0
C422 C 0.44149 0.18226 0.03098 0.0
C423 C 0.4468 0.18289 0.96209 0.0
C424 C 0.43039 0.17251 0.9055 0.0
C425 C 0.40863 0.16104 0.91897 0.0
C426 C 0.40336 0.16043 0.98786 0.0
H427 H 0.42981 0.1383 0.19601 0.0
H428 H 0.42456 0.13881 0.10275 0.0
H429 H 0.44878 0.16114 0.15198 0.0
H430 H 0.45431 0.19094 0.07395 0.0
H431 H 0.46369 0.19189 0.9532 0.0
H432 H 0.82995 0.11482 0.45514 0.0
H433 H 0.82434 0.10119 0.33028 0.0
H434 H 0.86519 0.16874 0.28166 0.0
H435 H 0.87095 0.18246 0.40599 0.0
H436 H 0.83051 0.13718 0.16835 0.0
H437 H 0.88374 0.10759 0.28541 0.0
H438 H 0.8576 0.09821 0.3154 0.0
H439 H 0.87867 0.12686 0.33637 0.0
C440 C 0.83683 0.1269 0.41743 0.0
C441 C 0.85131 0.14966 0.44014 0.0
C442 C 0.83365 0.11903 0.34614 0.0
C443 C 0.84475 0.13393 0.29738 0.0
C444 C 0.85657 0.15699 0.31876 0.0
H445 H 0.92353 0.18175 0.00535 0.0
H446 H 0.90048 0.16773 0.1 0.0
C447 C 0.8599 0.16482 0.38982 0.0
C448 C 0.84869 0.12598 0.22981 0.0
H449 H 0.88586 0.11442 0.16736 0.0
C450 C 0.84192 0.1313 0.16731 0.0
C451 C 0.86362 0.11831 0.22892 0.0
C452 C 0.87145 0.11241 0.2949 0.0
C453 C 0.85132 0.13124 0.10538 0.0
C454 C 0.86799 0.12608 0.10699 0.0
C455 C 0.87308 0.11842 0.16703 0.0
C456 C 0.88325 0.1333 0.05344 0.0
C457 C 0.84484 0.1386 0.04024 0.0
C458 C 0.88183 0.11824 0.99839 0.0
C459 C 0.8952 0.12618 0.94446 0.0
C460 C 0.90993 0.14926 0.9451 0.0
C461 C 0.91229 0.16393 0.00325 0.0
C462 C 0.89904 0.15599 0.05699 0.0
H463 H 0.82908 0.13781 0.04283 0.0
H464 H 0.85734 0.15614 0.03483 0.0
H465 H 0.84377 0.12802 0.99243 0.0
H466 H 0.86982 0.10063 0.99559 0.0
H467 H 0.89298 0.11445 0.90025 0.0
H468 H 0.90676 0.64517 0.45996 0.0
H469 H 0.89876 0.63748 0.33193 0.0
H470 H 0.93252 0.70832 0.31289 0.0
H471 H 0.94048 0.71625 0.44083 0.0
H472 H 0.88937 0.68334 0.245 0.0
H473 H 0.93915 0.64563 0.17721 0.0
H474 H 0.92254 0.63399 0.24701 0.0
H475 H 0.94426 0.66258 0.25949 0.0
C476 C 0.91274 0.6591 0.42846 0.0
C477 C 0.92414 0.6813 0.46015 0.0
C478 C 0.90825 0.65468 0.35553 0.0
C479 C 0.91526 0.67238 0.31365 0.0
C480 C 0.92711 0.69452 0.34489 0.0
H481 H 0.89447 0.67969 0.87006 0.0
H482 H 0.90369 0.68815 0.99763 0.0
C483 C 0.93161 0.69898 0.41777 0.0
C484 C 0.90875 0.6678 0.23762 0.0
H485 H 0.91357 0.64293 0.08649 0.0
C486 C 0.89473 0.67464 0.21005 0.0
C487 C 0.9158 0.65636 0.19306 0.0
C488 C 0.93141 0.64935 0.2204 0.0
C489 C 0.88719 0.66997 0.13841 0.0
C490 C 0.89418 0.65846 0.09389 0.0
C491 C 0.90826 0.65169 0.12141 0.0
C492 C 0.88726 0.65345 0.01812 0.0
C493 C 0.87154 0.67695 0.1111 0.0
C494 C 0.87505 0.63117 0.98831 0.0
C495 C 0.86984 0.62627 0.91571 0.0
C496 C 0.87693 0.64364 0.87217 0.0
C497 C 0.88875 0.66598 0.90248 0.0
C498 C 0.89396 0.67085 0.97514 0.0
H499 H 0.86406 0.68101 0.15438 0.0
H500 H 0.88031 0.69208 0.08338 0.0
H501 H 0.85851 0.66354 0.07292 0.0
H502 H 0.86985 0.6176 0.0212 0.0
H503 H 0.86067 0.60889 0.89372 0.0
H504 H 0.17567 0.3583 0.29729 0.0
H505 H 0.16371 0.38536 0.283 0.0
H506 H 0.18578 0.39481 0.07671 0.0
H507 H 0.19736 0.36752 0.08986 0.0
H508 H 0.18327 0.43033 0.25164 0.0
H509 H 0.12096 0.37141 0.03696 0.0
H510 H 0.13611 0.36329 0.09435 0.0
H511 H 0.1482 0.37923 0.02273 0.0
C512 C 0.17833 0.36644 0.24941 0.0
C513 C 0.18716 0.36052 0.19425 0.0
C514 C 0.17147 0.38188 0.24131 0.0
C515 C 0.17342 0.39168 0.17814 0.0
C516 C 0.18368 0.38704 0.12521 0.0
H517 H 0.11361 0.46485 0.01445 0.0
H518 H 0.13826 0.45046 0.03318 0.0
C519 C 0.19036 0.3715 0.13297 0.0
C520 C 0.16327 0.40538 0.16548 0.0
H521 H 0.12338 0.40625 0.06136 0.0
C522 C 0.17023 0.42514 0.20991 0.0
C523 C 0.1462 0.39851 0.11109 0.0
C524 C 0.13725 0.37686 0.06388 0.0
C525 C 0.16058 0.43825 0.20123 0.0
C526 C 0.1434 0.43123 0.14728 0.0
C527 C 0.1367 0.41169 0.10224 0.0
C528 C 0.13094 0.44285 0.13948 0.0
C529 C 0.16886 0.4595 0.24968 0.0
C530 C 0.11884 0.44352 0.19325 0.0
C531 C 0.1047 0.4516 0.18263 0.0
C532 C 0.10234 0.45912 0.11788 0.0
C533 C 0.11511 0.45925 0.06498 0.0
C534 C 0.12918 0.45102 0.07557 0.0
H535 H 0.18564 0.46583 0.27386 0.0
H536 H 0.16851 0.47276 0.22109 0.0
H537 H 0.15837 0.45611 0.29284 0.0
H538 H 0.1196 0.43688 0.24243 0.0
H539 H 0.09512 0.45129 0.22449 0.0
H540 H 0.59719 0.57431 0.04836 0.0
H541 H 0.61165 0.61473 0.07215 0.0
H542 H 0.6643 0.62059 0.21129 0.0
H543 H 0.64963 0.5805 0.19012 0.0
H544 H 0.64958 0.64588 0.26556 0.0
H545 H 0.66288 0.66088 0.98589 0.0
H546 H 0.63536 0.64247 0.00144 0.0
H547 H 0.65515 0.6342 0.01698 0.0
C548 C 0.61174 0.58424 0.08443 0.0
C549 C 0.62235 0.57421 0.11689 0.0
C550 C 0.62007 0.60735 0.09763 0.0
C551 C 0.63931 0.6208 0.14251 0.0
C552 C 0.64946 0.61062 0.17643 0.0
H553 H 0.74446 0.75103 0.15657 0.0
H554 H 0.71542 0.71225 0.13334 0.0
C555 C 0.64105 0.58763 0.16403 0.0
C556 C 0.64969 0.64556 0.15303 0.0
H557 H 0.67555 0.69237 0.06797 0.0
C558 C 0.65505 0.6561 0.22232 0.0
C559 C 0.65688 0.65885 0.0965 0.0
C560 C 0.65247 0.64861 0.02104 0.0
C561 C 0.66842 0.67939 0.23706 0.0
C562 C 0.67607 0.69263 0.18063 0.0
C563 C 0.66964 0.6822 0.11111 0.0
C564 C 0.69292 0.71674 0.1925 0.0
C565 C 0.67537 0.68935 0.31307 0.0
C566 C 0.68991 0.7324 0.2327 0.0
C567 C 0.70675 0.7547 0.24716 0.0
C568 C 0.72672 0.76174 0.22048 0.0
C569 C 0.72932 0.7462 0.17804 0.0
C570 C 0.71267 0.72398 0.16449 0.0
H571 H 0.6718 0.67638 0.34956 0.0
H572 H 0.69297 0.70174 0.32135 0.0
H573 H 0.66653 0.69805 0.32741 0.0
H574 H 0.67464 0.72737 0.25344 0.0
H575 H 0.70419 0.76635 0.27942 0.0
H576 H 0.49429 0.95531 0.02751 0.0
H577 H 0.45584 0.93322 0.04585 0.0
H578 H 0.46862 0.97374 0.24251 0.0
H579 H 0.50666 0.99592 0.22435 0.0
H580 H 0.43389 0.9084 0.1579 0.0
H581 H 0.42231 0.98072 0.12959 0.0
H582 H 0.44588 0.98035 0.1041 0.0
H583 H 0.44402 0.98664 0.19515 0.0
C584 C 0.48889 0.95937 0.07484 0.0
C585 C 0.50348 0.97757 0.12395 0.0
C586 C 0.46695 0.94674 0.08528 0.0
C587 C 0.45931 0.95214 0.1449 0.0
C588 C 0.47406 0.9696 0.19539 0.0
H589 H 0.33707 0.88085 0.32389 0.0
H590 H 0.37414 0.89525 0.29397 0.0
C591 C 0.49584 0.98224 0.1849 0.0
C592 C 0.43588 0.94026 0.15375 0.0
H593 H 0.39407 0.94941 0.1752 0.0
C594 C 0.42508 0.91727 0.16114 0.0
C595 C 0.42434 0.9518 0.15699 0.0
C596 C 0.43465 0.97619 0.14535 0.0
C597 C 0.40319 0.90568 0.1737 0.0
C598 C 0.39196 0.91749 0.18015 0.0
C599 C 0.40268 0.94035 0.17095 0.0
C600 C 0.36903 0.9067 0.1957 0.0
C601 C 0.39225 0.88087 0.17908 0.0
C602 C 0.35384 0.90846 0.15093 0.0
C603 C 0.33284 0.9006 0.16845 0.0
C604 C 0.32647 0.89069 0.23114 0.0
C605 C 0.34145 0.88826 0.27502 0.0
C606 C 0.36261 0.89637 0.2577 0.0
H607 H 0.40083 0.87333 0.15301 0.0
H608 H 0.39235 0.87798 0.23547 0.0
H609 H 0.37519 0.87212 0.15497 0.0
H610 H 0.35838 0.91637 0.10287 0.0
H611 H 0.32168 0.90261 0.13322 0.0
H612 H 0.55419 0.04287 0.8248 0.0
H613 H 0.5423 0.0665 0.77151 0.0
H614 H 0.53131 0.08603 0.97642 0.0
H615 H 0.54433 0.0633 0.03024 0.0
H616 H 0.50423 0.06016 0.76407 0.0
H617 H 0.55741 0.14486 0.90147 0.0
H618 H 0.56342 0.12273 0.9085 0.0
H619 H 0.54515 0.12515 0.96394 0.0
C620 C 0.5497 0.05265 0.85861 0.0
C621 C 0.55014 0.05129 0.9316 0.0
C622 C 0.5429 0.06614 0.82812 0.0
C623 C 0.53605 0.07828 0.86979 0.0
C624 C 0.53708 0.07741 0.94317 0.0
H625 H 0.43454 0.10266 0.75039 0.0
H626 H 0.45827 0.08861 0.78462 0.0
C627 C 0.54438 0.06428 0.97395 0.0
C628 C 0.52553 0.08963 0.83562 0.0
H629 H 0.52277 0.13739 0.84656 0.0
C630 C 0.5086 0.0772 0.78148 0.0
C631 C 0.53135 0.112 0.85701 0.0
C632 C 0.5505 0.127 0.91036 0.0
C633 C 0.49674 0.08608 0.75059 0.0
C634 C 0.50136 0.10774 0.77615 0.0
C635 C 0.51897 0.12064 0.82772 0.0
C636 C 0.48714 0.11653 0.75363 0.0
C637 C 0.4793 0.07204 0.691 0.0
C638 C 0.49554 0.13732 0.72658 0.0
C639 C 0.48195 0.14564 0.70767 0.0
C640 C 0.45975 0.1333 0.71568 0.0
C641 C 0.45148 0.11251 0.74266 0.0
C642 C 0.46504 0.10435 0.76197 0.0
H643 H 0.48298 0.06027 0.66156 0.0
H644 H 0.46372 0.06189 0.71291 0.0
H645 H 0.47728 0.08258 0.65344 0.0
H646 H 0.51259 0.1471 0.72023 0.0
H647 H 0.48884 0.16178 0.68751 0.0
H648 H 0.95541 0.22002 0.82621 0.0
H649 H 0.97227 0.25887 0.87773 0.0
H650 H 0.92776 0.268 0.74147 0.0
H651 H 0.91024 0.22892 0.69192 0.0
H652 H 0.99331 0.29515 0.8176 0.0
H653 H 0.92418 0.29645 0.92375 0.0
H654 H 0.92311 0.27073 0.89405 0.0
H655 H 0.91817 0.28652 0.8318 0.0
C656 C 0.94902 0.23021 0.80786 0.0
C657 C 0.93141 0.22135 0.7552 0.0
C658 C 0.95868 0.25243 0.83739 0.0
C659 C 0.95106 0.26631 0.8145 0.0
C660 C 0.93352 0.2575 0.7617 0.0
H661 H 0.02844 0.40923 0.82698 0.0
H662 H 0.00726 0.36878 0.79701 0.0
C663 C 0.92364 0.23517 0.73288 0.0
C664 C 0.9625 0.29039 0.84197 0.0
H665 H 0.95481 0.3323 0.90913 0.0
C666 C 0.98488 0.30318 0.83833 0.0
C667 C 0.95166 0.30088 0.87026 0.0
C668 C 0.928 0.28786 0.88095 0.0
C669 C 0.99657 0.32621 0.85991 0.0
C670 C 0.98546 0.33697 0.88355 0.0
C671 C 0.96324 0.32411 0.88975 0.0
C672 C 0.99666 0.36161 0.90056 0.0
C673 C 0.02076 0.33872 0.85764 0.0
C674 C 0.99674 0.37115 0.96761 0.0
C675 C 0.00856 0.3944 0.98457 0.0
C676 C 0.02055 0.40842 0.93475 0.0
C677 C 0.01965 0.39885 0.86684 0.0
C678 C 0.00765 0.37571 0.84974 0.0
H679 H 0.02742 0.32738 0.86065 0.0
H680 H 0.0245 0.34617 0.80707 0.0
H681 H 0.02912 0.35238 0.90153 0.0
H682 H 0.98818 0.36058 0.00742 0.0
H683 H 0.00894 0.40133 0.0373 0.0
H684 H 0.79827 0.63432 0.66726 0.0
H685 H 0.76423 0.61099 0.71594 0.0
H686 H 0.78084 0.55987 0.73614 0.0
H687 H 0.81502 0.58308 0.68684 0.0
H688 H 0.72993 0.55738 0.66757 0.0
H689 H 0.77052 0.58537 0.94277 0.0
H690 H 0.78111 0.6034 0.87386 0.0
H691 H 0.78308 0.57872 0.87386 0.0
C692 C 0.79456 0.61796 0.68085 0.0
C693 C 0.80937 0.61057 0.67316 0.0
C694 C 0.77512 0.60468 0.70877 0.0
C695 C 0.77018 0.58384 0.73004 0.0
C696 C 0.78446 0.57595 0.72007 0.0
H697 H 0.6625 0.5128 0.98933 0.0
H698 H 0.69573 0.52323 0.93321 0.0
C699 C 0.80389 0.58918 0.69152 0.0
C700 C 0.75049 0.57105 0.76559 0.0
H701 H 0.73244 0.56505 0.92824 0.0
C702 C 0.73045 0.55872 0.72455 0.0
C703 C 0.75131 0.5727 0.83986 0.0
C704 C 0.7726 0.58573 0.88572 0.0
C705 C 0.71106 0.54866 0.75594 0.0
C706 C 0.71175 0.55156 0.83025 0.0
C707 C 0.7319 0.56291 0.87138 0.0
C708 C 0.69185 0.54503 0.86524 0.0
C709 C 0.68998 0.53534 0.70904 0.0
C710 C 0.67902 0.55427 0.84715 0.0
C711 C 0.66021 0.5484 0.87877 0.0
C712 C 0.65381 0.53327 0.93008 0.0
C713 C 0.66696 0.52443 0.94986 0.0
C714 C 0.6859 0.53034 0.91777 0.0
H715 H 0.69226 0.52827 0.65878 0.0
H716 H 0.67765 0.52143 0.73548 0.0
H717 H 0.6837 0.5465 0.69585 0.0
H718 H 0.6836 0.56616 0.80842 0.0
H719 H 0.65066 0.55576 0.86265 0.0
H720 H 0.88806 0.58935 0.6668 0.0
H721 H 0.8979 0.56298 0.71183 0.0
H722 H 0.95439 0.61785 0.83326 0.0
H723 H 0.94442 0.64407 0.79028 0.0
H724 H 0.9325 0.55926 0.69755 0.0
H725 H 0.92972 0.57611 0.98115 0.0
H726 H 0.91863 0.58593 0.91439 0.0
H727 H 0.94709 0.60155 0.94499 0.0
C728 C 0.90252 0.59575 0.70338 0.0
C729 C 0.91539 0.6188 0.72526 0.0
C730 C 0.90809 0.58067 0.72921 0.0
C731 C 0.9266 0.58835 0.77733 0.0
C732 C 0.93964 0.6114 0.79812 0.0
H733 H 0.01195 0.53961 0.84572 0.0
H734 H 0.98988 0.55497 0.8053 0.0
C735 C 0.93401 0.62642 0.7729 0.0
C736 C 0.93316 0.57263 0.80295 0.0
H737 H 0.95147 0.55974 0.95181 0.0
C738 C 0.93629 0.55908 0.75321 0.0
C739 C 0.93762 0.57191 0.87563 0.0
C740 C 0.93284 0.58448 0.93203 0.0
C741 C 0.94506 0.546 0.77397 0.0
C742 C 0.95142 0.54694 0.84628 0.0
C743 C 0.94697 0.5593 0.89629 0.0
C744 C 0.9643 0.53679 0.87043 0.0
C745 C 0.94766 0.53151 0.71797 0.0
C746 C 0.95769 0.52196 0.92253 0.0
C747 C 0.97054 0.5133 0.94677 0.0
C748 C 0.99024 0.51942 0.91942 0.0
C749 C 0.99679 0.53435 0.86758 0.0
C750 C 0.98407 0.54303 0.84382 0.0
H751 H 0.93537 0.52632 0.67174 0.0
H752 H 0.96384 0.5412 0.69931 0.0
H753 H 0.94622 0.51627 0.73853 0.0
H754 H 0.9426 0.51711 0.94441 0.0
H755 H 0.96508 0.5019 0.9869 0.0
H756 H 0.55234 0.42406 0.0102 0.0
H757 H 0.5452 0.38618 0.97489 0.0
H758 H 0.4955 0.37661 0.81443 0.0
H759 H 0.50278 0.41425 0.84793 0.0
H760 H 0.5089 0.34695 0.9783 0.0
H761 H 0.52801 0.35465 0.70347 0.0
H762 H 0.5361 0.37877 0.76591 0.0
H763 H 0.50938 0.36407 0.7185 0.0
C764 C 0.54007 0.41394 0.96687 0.0
C765 C 0.52818 0.4222 0.93172 0.0
C766 C 0.53603 0.39233 0.94672 0.0
C767 C 0.52015 0.37872 0.89092 0.0
C768 C 0.5083 0.387 0.85608 0.0
H769 H 0.43017 0.24211 0.8163 0.0
H770 H 0.4539 0.28135 0.85921 0.0
C771 C 0.51236 0.40852 0.87586 0.0
C772 C 0.51452 0.35524 0.87202 0.0
H773 H 0.5019 0.31713 0.72961 0.0
C774 C 0.50782 0.3405 0.92417 0.0
C775 C 0.51363 0.34683 0.8018 0.0
C776 C 0.52242 0.362 0.7445 0.0
C777 C 0.49861 0.31737 0.90693 0.0
C778 C 0.4955 0.30874 0.83544 0.0
C779 C 0.50386 0.32365 0.78425 0.0
C780 C 0.48173 0.28447 0.81186 0.0
C781 C 0.49186 0.3024 0.96542 0.0
C782 C 0.4892 0.27321 0.76882 0.0
C783 C 0.47545 0.25067 0.74302 0.0
C784 C 0.45399 0.23906 0.75974 0.0
C785 C 0.44665 0.25042 0.80294 0.0
C786 C 0.4603 0.27287 0.82817 0.0
H787 H 0.50234 0.3113 0.01546 0.0
H788 H 0.47503 0.2975 0.97464 0.0
H789 H 0.49255 0.28701 0.95215 0.0
H790 H 0.50561 0.2819 0.75487 0.0
H791 H 0.48158 0.2424 0.70979 0.0
H792 H 0.83679 0.08864 0.80269 0.0
H793 H 0.80347 0.08057 0.85192 0.0
H794 H 0.8182 0.14819 0.83362 0.0
H795 H 0.8516 0.15638 0.78296 0.0
H796 H 0.798 0.10043 0.97304 0.0
H797 H 0.75657 0.11064 0.7347 0.0
H798 H 0.78044 0.10836 0.73177 0.0
H799 H 0.78273 0.13414 0.76668 0.0
C800 C 0.8329 0.10179 0.80839 0.0
C801 C 0.84678 0.12311 0.78814 0.0
C802 C 0.81388 0.09716 0.83699 0.0
C803 C 0.80823 0.1137 0.84595 0.0
C804 C 0.82205 0.13506 0.82608 0.0
H805 H 0.69611 0.08482 0.08173 0.0
H806 H 0.73304 0.10413 0.04716 0.0
C807 C 0.84113 0.13971 0.79714 0.0
C808 C 0.78778 0.10822 0.87595 0.0
H809 H 0.73742 0.10047 0.83396 0.0
C810 C 0.78483 0.10072 0.94311 0.0
C811 C 0.77058 0.10845 0.83649 0.0
C812 C 0.77256 0.11566 0.76319 0.0
C813 C 0.76493 0.09278 0.97099 0.0
C814 C 0.74759 0.09256 0.93088 0.0
C815 C 0.75078 0.10077 0.86475 0.0
C816 C 0.72537 0.08158 0.95263 0.0
C817 C 0.76231 0.08366 0.04154 0.0
C818 C 0.70876 0.0628 0.91044 0.0
C819 C 0.68777 0.05188 0.92974 0.0
C820 C 0.68281 0.05949 0.99176 0.0
C821 C 0.69942 0.07847 0.03386 0.0
C822 C 0.72053 0.08946 0.01434 0.0
H823 H 0.77606 0.0815 0.06001 0.0
H824 H 0.76144 0.09543 0.08127 0.0
H825 H 0.74708 0.06728 0.03886 0.0
H826 H 0.71209 0.05642 0.86264 0.0
H827 H 0.67544 0.03737 0.89584 0.0
H828 H 0.63229 0.98227 0.25373 0.0
H829 H 0.64197 0.95334 0.26078 0.0
H830 H 0.63394 0.94154 0.03409 0.0
H831 H 0.62418 0.97056 0.02636 0.0
H832 H 0.62021 0.90534 0.19668 0.0
H833 H 0.69938 0.96335 0.10289 0.0
H834 H 0.68234 0.97299 0.13753 0.0
H835 H 0.67534 0.95833 0.05075 0.0
C836 C 0.63222 0.97328 0.2053 0.0
C837 C 0.62768 0.97886 0.13944 0.0
C838 C 0.63769 0.9567 0.2095 0.0
C839 C 0.63888 0.94551 0.148 0.0
C840 C 0.63323 0.95014 0.08214 0.0
H841 H 0.70541 0.87084 0.10237 0.0
H842 H 0.68349 0.888 0.0794 0.0
C843 C 0.62759 0.96665 0.07785 0.0
C844 C 0.64795 0.9306 0.15324 0.0
H845 H 0.69372 0.92865 0.13146 0.0
C846 C 0.6362 0.91027 0.18194 0.0
C847 C 0.66884 0.9372 0.1342 0.0
C848 C 0.68237 0.9592 0.10501 0.0
C849 C 0.64482 0.89627 0.1919 0.0
C850 C 0.66595 0.90312 0.17435 0.0
C851 C 0.67751 0.92335 0.14477 0.0
C852 C 0.67679 0.89004 0.18746 0.0
C853 C 0.6311 0.8742 0.22032 0.0
C854 C 0.68008 0.88512 0.25575 0.0
C855 C 0.69246 0.87505 0.26894 0.0
C856 C 0.70209 0.87012 0.21427 0.0
C857 C 0.69829 0.87453 0.14572 0.0
C858 C 0.68575 0.88433 0.13246 0.0
H859 H 0.61359 0.86834 0.20977 0.0
H860 H 0.6341 0.86111 0.19691 0.0
H861 H 0.63515 0.87628 0.27826 0.0
H862 H 0.67381 0.88986 0.29944 0.0
H863 H 0.69525 0.87203 0.32242 0.0
H864 H 0.14526 0.73901 0.15584 0.0
H865 H 0.12953 0.6988 0.13044 0.0
H866 H 0.18332 0.70234 0.25642 0.0
H867 H 0.19895 0.74279 0.28418 0.0
H868 H 0.14357 0.67356 0.06663 0.0
H869 H 0.13252 0.6559 0.34549 0.0
H870 H 0.14009 0.68297 0.3178 0.0
H871 H 0.15984 0.67444 0.32829 0.0
C872 C 0.15384 0.73132 0.17816 0.0
C873 C 0.17327 0.74408 0.22262 0.0
C874 C 0.14483 0.70829 0.16336 0.0
C875 C 0.15507 0.69748 0.19229 0.0
C876 C 0.17489 0.71025 0.23477 0.0
H877 H 0.09064 0.55288 0.04429 0.0
H878 H 0.11979 0.59199 0.07158 0.0
C879 C 0.18385 0.73337 0.25029 0.0
C880 C 0.14433 0.67276 0.17903 0.0
H881 H 0.11919 0.62504 0.2601 0.0
C882 C 0.13845 0.66289 0.10889 0.0
C883 C 0.13759 0.65893 0.23436 0.0
C884 C 0.14264 0.66851 0.31072 0.0
C885 C 0.1251 0.63967 0.09238 0.0
C886 C 0.11795 0.62588 0.1477 0.0
C887 C 0.12477 0.63566 0.21785 0.0
C888 C 0.10127 0.60179 0.13438 0.0
C889 C 0.1177 0.63031 0.01597 0.0
C890 C 0.08152 0.59414 0.16266 0.0
C891 C 0.06506 0.57187 0.14812 0.0
C892 C 0.06792 0.55672 0.10457 0.0
C893 C 0.08789 0.56422 0.07748 0.0
C894 C 0.10451 0.58657 0.09272 0.0
H895 H 0.12109 0.64363 0.98097 0.0
H896 H 0.12636 0.62165 0.99914 0.0
H897 H 0.10008 0.61798 0.00839 0.0
H898 H 0.07864 0.60556 0.19493 0.0
H899 H 0.0499 0.56667 0.16996 0.0
H900 H 0.48444 0.43326 0.17115 0.0
H901 H 0.44693 0.4178 0.19428 0.0
H902 H 0.44037 0.46187 0.05874 0.0
H903 H 0.478 0.4771 0.03355 0.0
H904 H 0.42603 0.43668 0.25339 0.0
H905 H 0.38988 0.40176 0.97727 0.0
H906 H 0.41805 0.41226 0.00524 0.0
H907 H 0.40864 0.43135 0.98942 0.0
C908 C 0.47508 0.43971 0.14602 0.0
C909 C 0.48422 0.45633 0.10002 0.0
C910 C 0.45359 0.43087 0.15955 0.0
C911 C 0.44068 0.43844 0.12765 0.0
C912 C 0.44985 0.45541 0.08283 0.0
H913 H 0.31066 0.39016 0.26919 0.0
H914 H 0.34793 0.41561 0.24454 0.0
C915 C 0.4714 0.46418 0.06874 0.0
C916 C 0.41761 0.42813 0.1413 0.0
H917 H 0.36582 0.39639 0.0618 0.0
C918 C 0.41284 0.42803 0.21147 0.0
C919 C 0.4004 0.4167 0.0866 0.0
C920 C 0.4044 0.41529 0.01044 0.0
C921 C 0.39144 0.41625 0.22861 0.0
C922 C 0.37426 0.40467 0.17394 0.0
C923 C 0.37899 0.40539 0.10365 0.0
C924 C 0.35151 0.38982 0.18844 0.0
C925 C 0.38754 0.41539 0.30525 0.0
C926 C 0.34095 0.36701 0.16385 0.0
C927 C 0.31971 0.35258 0.17713 0.0
C928 C 0.30844 0.36056 0.21552 0.0
C929 C 0.31894 0.38346 0.23992 0.0
C930 C 0.34028 0.398 0.22614 0.0
H931 H 0.40265 0.42109 0.34055 0.0
H932 H 0.38111 0.4265 0.31933 0.0
H933 H 0.37547 0.39815 0.31531 0.0
H934 H 0.34924 0.36027 0.13476 0.0
H935 H 0.31219 0.33506 0.15747 0.0
H936 H 0.90507 0.73212 0.6851 0.0
H937 H 0.8939 0.75783 0.64268 0.0
H938 H 0.85054 0.70711 0.47651 0.0
H939 H 0.86126 0.68135 0.51868 0.0
H940 H 0.89564 0.77379 0.50895 0.0
H941 H 0.81114 0.72453 0.57302 0.0
H942 H 0.83228 0.71981 0.60781 0.0
H943 H 0.81924 0.70842 0.51971 0.0
C944 C 0.89311 0.72644 0.63965 0.0
C945 C 0.88391 0.70459 0.60577 0.0
C946 C 0.8868 0.74116 0.61541 0.0
C947 C 0.87112 0.73424 0.5572 0.0
C948 C 0.86231 0.71264 0.52245 0.0
H949 H 0.80482 0.78686 0.31614 0.0
H950 H 0.82131 0.76594 0.35988 0.0
C951 C 0.86855 0.69795 0.54658 0.0
C952 C 0.86383 0.74943 0.53225 0.0
H953 H 0.81867 0.75332 0.49889 0.0
C954 C 0.87887 0.76946 0.5073 0.0
C955 C 0.84193 0.74375 0.53034 0.0
C956 C 0.82524 0.72307 0.55977 0.0
C957 C 0.87241 0.78358 0.47822 0.0
C958 C 0.85041 0.77758 0.47478 0.0
C959 C 0.83549 0.75777 0.50096 0.0
C960 C 0.84233 0.79146 0.44415 0.0
C961 C 0.889 0.80445 0.44954 0.0
C962 C 0.8489 0.8129 0.47648 0.0
C963 C 0.83948 0.82493 0.45163 0.0
C964 C 0.82326 0.81569 0.39414 0.0
C965 C 0.81727 0.79451 0.36045 0.0
C966 C 0.82665 0.78249 0.38544 0.0
H967 H 0.90406 0.80415 0.44202 0.0
H968 H 0.88241 0.80659 0.39841 0.0
H969 H 0.89327 0.81923 0.48715 0.0
H970 H 0.86073 0.81999 0.52253 0.0
H971 H 0.84442 0.84116 0.47897 0.0
H972 H 0.34381 0.11262 0.66284 0.0
H973 H 0.3199 0.07319 0.6168 0.0
H974 H 0.3715 0.07446 0.50983 0.0
H975 H 0.39515 0.11367 0.55377 0.0
H976 H 0.33282 0.05275 0.42685 0.0
H977 H 0.32412 0.02182 0.69129 0.0
H978 H 0.31574 0.04184 0.67802 0.0
H979 H 0.34378 0.05015 0.67818 0.0
C980 C 0.35 0.10447 0.62936 0.0
C981 C 0.37142 0.11625 0.61234 0.0
C982 C 0.33635 0.08194 0.60331 0.0
C983 C 0.34401 0.07082 0.56061 0.0
C984 C 0.36523 0.08271 0.5426 0.0
H985 H 0.32055 0.94006 0.48754 0.0
H986 H 0.3306 0.97844 0.5253 0.0
C987 C 0.37876 0.10515 0.56802 0.0
C988 C 0.33049 0.04664 0.53578 0.0
H989 H 0.30828 0.99487 0.59306 0.0
C990 C 0.32716 0.04003 0.46304 0.0
C991 C 0.32324 0.03015 0.58328 0.0
C992 C 0.32699 0.03623 0.66207 0.0
C993 C 0.31776 0.01745 0.43661 0.0
C994 C 0.31107 0.00101 0.48427 0.0
C995 C 0.31339 0.00753 0.55673 0.0
C996 C 0.30413 0.97739 0.46123 0.0
C997 C 0.31629 0.01154 0.3584 0.0
C998 C 0.28579 0.96395 0.41277 0.0
C999 C 0.28008 0.94191 0.39036 0.0
C1000 C 0.29251 0.93295 0.41676 0.0
C1001 C 0.31062 0.9464 0.4661 0.0
C1002 C 0.31637 0.96836 0.48797 0.0
H1003 H 0.32593 0.02654 0.33085 0.0
H1004 H 0.32203 0.9996 0.34795 0.0
H1005 H 0.29917 0.00343 0.33542 0.0
H1006 H 0.27589 0.97046 0.39241 0.0
H1007 H 0.26593 0.9319 0.3527 0.0
H1008 H 0.94288 0.1612 0.38374 0.0
H1009 H 0.9791 0.17724 0.3453 0.0
H1010 H 0.00644 0.21864 0.54379 0.0
H1011 H 0.97041 0.20252 0.58305 0.0
H1012 H 0.00827 0.22139 0.3295 0.0
H1013 H 0.04376 0.19024 0.52617 0.0
H1014 H 0.015 0.17933 0.51026 0.0
H1015 H 0.03201 0.20517 0.56558 0.0
C1016 C 0.95661 0.17359 0.41949 0.0
C1017 C 0.95373 0.18049 0.48667 0.0
C1018 C 0.97731 0.18276 0.39734 0.0
C1019 C 0.99554 0.19888 0.44204 0.0
C1020 C 0.99269 0.20586 0.50898 0.0
H1021 H 0.13059 0.28866 0.43196 0.0
H1022 H 0.09317 0.26634 0.45694 0.0
C1023 C 0.97203 0.1967 0.5312 0.0
C1024 C 0.01746 0.20908 0.41797 0.0
H1025 H 0.06865 0.21939 0.46281 0.0
C1026 C 0.02143 0.22072 0.35806 0.0
C1027 C 0.03459 0.20812 0.45511 0.0
C1028 C 0.03112 0.19485 0.51743 0.0
C1029 C 0.04227 0.23225 0.33619 0.0
C1030 C 0.05952 0.23187 0.37475 0.0
C1031 C 0.05542 0.21972 0.43344 0.0
C1032 C 0.0822 0.24514 0.35801 0.0
C1033 C 0.04587 0.2455 0.27379 0.0
C1034 C 0.08855 0.24053 0.29411 0.0
C1035 C 0.11008 0.25332 0.2795 0.0
C1036 C 0.12558 0.27092 0.32865 0.0
C1037 C 0.1191 0.27531 0.39271 0.0
C1038 C 0.0977 0.26253 0.40725 0.0
H1039 H 0.03182 0.24747 0.258 0.0
H1040 H 0.06052 0.26236 0.28574 0.0
H1041 H 0.04843 0.23672 0.22829 0.0
H1042 H 0.07691 0.22696 0.25578 0.0
H1043 H 0.11454 0.24945 0.22981 0.0
H1044 H 0.33513 0.19155 0.68504 0.0
H1045 H 0.31016 0.20379 0.64288 0.0
H1046 H 0.36307 0.26112 0.56772 0.0
H1047 H 0.38801 0.24958 0.61172 0.0
H1048 H 0.33857 0.27292 0.6317 0.0
H1049 H 0.28615 0.19782 0.44171 0.0
H1050 H 0.28761 0.19204 0.53142 0.0
H1051 H 0.31141 0.20296 0.48576 0.0
C1052 C 0.34141 0.20685 0.66004 0.0
C1053 C 0.36356 0.21956 0.65167 0.0
C1054 C 0.32709 0.2137 0.63528 0.0
C1055 C 0.33464 0.23315 0.60076 0.0
C1056 C 0.35681 0.24603 0.59391 0.0
H1057 H 0.27218 0.27843 0.31067 0.0
H1058 H 0.2883 0.25895 0.36917 0.0
C1059 C 0.37109 0.23938 0.61926 0.0
C1060 C 0.31984 0.24054 0.57191 0.0
H1061 H 0.27644 0.22564 0.45117 0.0
C1062 C 0.32491 0.26252 0.59248 0.0
C1063 C 0.30218 0.22707 0.52001 0.0
C1064 C 0.29657 0.20373 0.49281 0.0
C1065 C 0.31328 0.27163 0.56155 0.0
C1066 C 0.29538 0.25808 0.51048 0.0
C1067 C 0.29 0.23593 0.49078 0.0
C1068 C 0.28293 0.2671 0.47434 0.0
C1069 C 0.32103 0.29606 0.58163 0.0
C1070 C 0.27369 0.27728 0.51351 0.0
C1071 C 0.26497 0.28879 0.48042 0.0
C1072 C 0.26467 0.2897 0.40724 0.0
C1073 C 0.27223 0.27796 0.36718 0.0
C1074 C 0.28144 0.26685 0.40059 0.0
H1075 H 0.33815 0.30538 0.60544 0.0
H1076 H 0.31961 0.30423 0.53516 0.0
H1077 H 0.31105 0.29751 0.62124 0.0
H1078 H 0.27396 0.27704 0.5701 0.0
H1079 H 0.2589 0.29743 0.51233 0.0
H1080 H 0.79837 0.91968 0.30201 0.0
H1081 H 0.82312 0.95981 0.33618 0.0
H1082 H 0.80309 0.95216 0.54548 0.0
H1083 H 0.77807 0.9124 0.51133 0.0
H1084 H 0.80019 0.98504 0.48907 0.0
H1085 H 0.88083 0.99537 0.45751 0.0
H1086 H 0.86159 0.98215 0.38054 0.0
H1087 H 0.85696 0.96833 0.4594 0.0
C1088 C 0.79955 0.92653 0.35561 0.0
C1089 C 0.78619 0.91294 0.40386 0.0
C1090 C 0.81377 0.94944 0.37518 0.0
C1091 C 0.81508 0.95898 0.44359 0.0
C1092 C 0.80234 0.94519 0.4924 0.0
H1093 H 0.90297 0.09122 0.65809 0.0
H1094 H 0.88459 0.05166 0.61131 0.0
C1095 C 0.78803 0.92245 0.47276 0.0
C1096 C 0.8282 0.98354 0.46327 0.0
H1097 H 0.87953 0.0287 0.48021 0.0
C1098 C 0.81755 0.99456 0.48717 0.0
C1099 C 0.85086 0.99593 0.46123 0.0
C1100 C 0.86331 0.98485 0.43892 0.0
C1101 C 0.82887 0.01755 0.50946 0.0
C1102 C 0.85146 0.03006 0.50597 0.0
C1103 C 0.86218 0.0191 0.48212 0.0
C1104 C 0.86418 0.05441 0.52918 0.0
C1105 C 0.81658 0.02806 0.53843 0.0
C1106 C 0.85928 0.0692 0.4971 0.0
C1107 C 0.86954 0.09168 0.52418 0.0
C1108 C 0.88517 0.0999 0.58318 0.0
C1109 C 0.89095 0.08536 0.61275 0.0
C1110 C 0.88049 0.06277 0.58602 0.0
H1111 H 0.80083 0.01533 0.5547 0.0
H1112 H 0.82613 0.04054 0.58453 0.0
H1113 H 0.8132 0.03674 0.49705 0.0
H1114 H 0.84713 0.06322 0.45211 0.0
H1115 H 0.86498 0.10255 0.49948 0.0
H1116 H 0.99806 0.68566 0.64544 0.0
H1117 H 0.0323 0.70868 0.59823 0.0
H1118 H 0.02235 0.76493 0.615 0.0
H1119 H 0.98781 0.7419 0.6626 0.0
H1120 H 0.03515 0.73026 0.47027 0.0
H1121 H 0.08635 0.78979 0.70421 0.0
H1122 H 0.06255 0.76324 0.71263 0.0
H1123 H 0.05976 0.7857 0.6828 0.0
C1124 C 0.00324 0.70302 0.64026 0.0
C1125 C 0.99015 0.71192 0.65778 0.0
C1126 C 0.02282 0.71614 0.61299 0.0
C1127 C 0.02985 0.73848 0.60298 0.0
C1128 C 0.01729 0.74776 0.62285 0.0
H1129 H 0.13738 0.80511 0.33806 0.0
H1130 H 0.10324 0.79476 0.38794 0.0
C1131 C 0.99759 0.73459 0.65019 0.0
C1132 C 0.04975 0.75137 0.56817 0.0
H1133 H 0.10292 0.79232 0.6003 0.0
C1134 C 0.04991 0.74407 0.49823 0.0
C1135 C 0.06893 0.76933 0.60495 0.0
C1136 C 0.06962 0.77753 0.68044 0.0
C1137 C 0.06895 0.75366 0.4649 0.0
C1138 C 0.08833 0.77117 0.50238 0.0
C1139 C 0.08799 0.77903 0.57151 0.0
C1140 C 0.10952 0.77935 0.47426 0.0
C1141 C 0.06849 0.74417 0.39125 0.0
C1142 C 0.12451 0.7746 0.50711 0.0
C1143 C 0.14383 0.7804 0.47887 0.0
C1144 C 0.14873 0.79123 0.41718 0.0
C1145 C 0.13404 0.7967 0.38544 0.0
C1146 C 0.11452 0.79075 0.41373 0.0
H1147 H 0.05287 0.72862 0.37335 0.0
H1148 H 0.07095 0.7567 0.35413 0.0
H1149 H 0.08177 0.74046 0.38848 0.0
H1150 H 0.121 0.76584 0.5538 0.0
H1151 H 0.15484 0.7761 0.50518 0.0
loop_
_geom_bond_atom_site_label_1
_geom_bond_atom_site_label_2
_geom_bond_distance
_geom_bond_site_symmetry_2
_ccdc_geom_bond_type
Zn0 O6 1.969 1_455 S
Zn0 O7 1.965 1_554 S
Zn0 O11 2.024 . S
Zn0 O16 1.969 . S
Zn1 O8 1.969 1_554 S
Zn1 O14 1.969 . S
Zn1 O15 1.965 . S
Zn1 O17 2.024 . S
C2 O3 1.229 . S
C2 O11 1.058 . S
O3 C2 1.229 . S
C4 O5 1.229 . S
C4 O17 1.058 1_556 S
O5 C4 1.229 . S
O6 Zn0 1.969 1_655 S
O6 C9 1.267 1_554 S
O7 Zn0 1.965 1_556 S
O7 C18 1.260 . S
O8 Zn1 1.969 1_556 S
O8 C18 1.258 . S
C9 O6 1.267 1_556 S
C9 O10 1.228 1_655 S
O10 C9 1.228 1_455 S
O11 Zn0 2.024 . S
O11 C2 1.058 . S
C12 O13 1.228 . S
C12 O14 1.267 . S
O13 C12 1.228 . S
O14 Zn1 1.969 . S
O14 C12 1.267 . S
O15 Zn1 1.965 . S
O15 C19 1.260 . S
O16 Zn0 1.969 . S
O16 C19 1.258 . S
O17 Zn1 2.024 . S
O17 C4 1.058 1_554 S
C18 O7 1.260 . S
C18 O8 1.258 . S
C19 O15 1.260 . S
C19 O16 1.258 . S
Zn20 O26 1.969 . S
Zn20 O27 1.965 . S
Zn20 O31 2.024 . S
Zn20 O36 1.969 1_554 S
Zn21 O28 1.969 . S
Zn21 O34 1.969 . S
Zn21 O35 1.965 . S
Zn21 O37 2.024 . S
C22 O23 1.229 1_554 S
C22 O31 1.058 . S
O23 C22 1.229 1_556 S
C24 O25 1.229 . S
C24 O37 1.058 . S
O25 C24 1.229 . S
O26 Zn20 1.969 . S
O26 C29 1.267 . S
O27 Zn20 1.965 . S
O27 C38 1.260 . S
O28 Zn21 1.969 . S
O28 C38 1.258 . S
C29 O26 1.267 . S
C29 O30 1.228 . S
O30 C29 1.228 . S
O31 Zn20 2.024 . S
O31 C22 1.058 . S
C32 O33 1.228 1_554 S
C32 O34 1.267 . S
O33 C32 1.228 1_556 S
O34 Zn21 1.969 . S
O34 C32 1.267 . S
O35 Zn21 1.965 . S
O35 C39 1.260 1_554 S
O36 Zn20 1.969 1_556 S
O36 C39 1.258 . S
O37 Zn21 2.024 . S
O37 C24 1.058 . S
C38 O27 1.260 . S
C38 O28 1.258 . S
C39 O35 1.260 1_556 S
C39 O36 1.258 . S
Zn40 O46 1.969 . S
Zn40 O47 1.965 . S
Zn40 O51 2.024 . S
Zn40 O56 1.969 . S
Zn41 O48 1.969 . S
Zn41 O54 1.969 . S
Zn41 O55 1.965 . S
Zn41 O57 2.024 . S
C42 O43 1.229 . S
C42 O51 1.058 . S
O43 C42 1.229 . S
C44 O45 1.229 . S
C44 O57 1.058 . S
O45 C44 1.229 . S
O46 Zn40 1.969 . S
O46 C49 1.267 . S
O47 Zn40 1.965 . S
O47 C58 1.261 . S
O48 Zn41 1.969 . S
O48 C58 1.258 . S
C49 O46 1.267 . S
C49 O50 1.228 . S
O50 C49 1.228 . S
O51 Zn40 2.024 . S
O51 C42 1.058 . S
C52 O53 1.228 . S
C52 O54 1.267 . S
O53 C52 1.228 . S
O54 Zn41 1.969 . S
O54 C52 1.267 . S
O55 Zn41 1.965 . S
O55 C59 1.260 . S
O56 Zn40 1.969 . S
O56 C59 1.258 . S
O57 Zn41 2.024 . S
O57 C44 1.058 . S
C58 O47 1.261 . S
C58 O48 1.258 . S
C59 O55 1.260 . S
C59 O56 1.258 . S
Zn60 O66 1.969 . S
Zn60 O67 1.965 . S
Zn60 O71 2.024 . S
Zn60 O76 1.969 . S
Zn61 O68 1.969 . S
Zn61 O74 1.969 . S
Zn61 O75 1.965 . S
Zn61 O77 2.024 . S
C62 O63 1.229 . S
C62 O71 1.058 . S
O63 C62 1.229 . S
C64 O65 1.229 . S
C64 O77 1.058 . S
O65 C64 1.229 . S
O66 Zn60 1.969 . S
O66 C69 1.267 . S
O67 Zn60 1.965 . S
O67 C78 1.260 . S
O68 Zn61 1.969 . S
O68 C78 1.258 . S
C69 O66 1.267 . S
C69 O70 1.228 . S
O70 C69 1.228 . S
O71 Zn60 2.024 . S
O71 C62 1.058 . S
C72 O73 1.228 . S
C72 O74 1.267 . S
O73 C72 1.228 . S
O74 Zn61 1.969 . S
O74 C72 1.267 . S
O75 Zn61 1.965 . S
O75 C79 1.260 . S
O76 Zn60 1.969 . S
O76 C79 1.258 . S
O77 Zn61 2.024 . S
O77 C64 1.058 . S
C78 O67 1.260 . S
C78 O68 1.258 . S
C79 O75 1.260 . S
C79 O76 1.258 . S
Zn80 O86 1.969 . S
Zn80 O87 1.965 . S
Zn80 O91 2.024 . S
Zn80 O96 1.969 . S
Zn81 O88 1.969 . S
Zn81 O94 1.969 . S
Zn81 O95 1.965 . S
Zn81 O97 2.024 . S
C82 O83 1.229 . S
C82 O91 1.058 . S
O83 C82 1.229 . S
C84 O85 1.229 . S
C84 O97 1.058 . S
O85 C84 1.229 . S
O86 Zn80 1.969 . S
O86 C89 1.267 . S
O87 Zn80 1.965 . S
O87 C98 1.260 . S
O88 Zn81 1.969 . S
O88 C98 1.258 . S
C89 O86 1.267 . S
C89 O90 1.228 . S
O90 C89 1.228 . S
O91 Zn80 2.024 . S
O91 C82 1.058 . S
C92 O93 1.228 . S
C92 O94 1.267 . S
O93 C92 1.228 . S
O94 Zn81 1.969 . S
O94 C92 1.267 . S
O95 Zn81 1.965 . S
O95 C99 1.260 . S
O96 Zn80 1.969 . S
O96 C99 1.258 . S
O97 Zn81 2.024 . S
O97 C84 1.058 . S
C98 O87 1.260 . S
C98 O88 1.258 . S
C99 O95 1.260 . S
C99 O96 1.258 . S
Zn100 O106 1.969 . S
Zn100 O107 1.965 . S
Zn100 O111 2.024 . S
Zn100 O116 1.969 . S
Zn101 O108 1.969 . S
Zn101 O114 1.969 . S
Zn101 O115 1.965 . S
Zn101 O117 2.024 . S
C102 O103 1.229 . S
C102 O111 1.058 . S
O103 C102 1.229 . S
C104 O105 1.229 . S
C104 O117 1.058 . S
O105 C104 1.229 . S
O106 Zn100 1.969 . S
O106 C109 1.267 . S
O107 Zn100 1.965 . S
O107 C118 1.260 . S
O108 Zn101 1.969 . S
O108 C118 1.258 . S
C109 O106 1.267 . S
C109 O110 1.228 . S
O110 C109 1.228 . S
O111 Zn100 2.024 . S
O111 C102 1.058 . S
C112 O113 1.228 . S
C112 O114 1.267 . S
O113 C112 1.228 . S
O114 Zn101 1.969 . S
O114 C112 1.267 . S
O115 Zn101 1.965 . S
O115 C119 1.260 . S
O116 Zn100 1.969 . S
O116 C119 1.258 . S
O117 Zn101 2.024 . S
O117 C104 1.058 . S
C118 O107 1.260 . S
C118 O108 1.258 . S
C119 O115 1.260 . S
C119 O116 1.258 . S
Zn120 O126 1.969 . S
Zn120 O127 1.965 . S
Zn120 O131 2.024 . S
Zn120 O136 1.969 . S
Zn121 O128 1.969 . S
Zn121 O134 1.969 . S
Zn121 O135 1.965 . S
Zn121 O137 2.024 . S
C122 O123 1.229 . S
C122 O131 1.058 . S
O123 C122 1.229 . S
C124 O125 1.229 . S
C124 O137 1.058 . S
O125 C124 1.229 . S
O126 Zn120 1.969 . S
O126 C129 1.267 . S
O127 Zn120 1.965 . S
O127 C138 1.260 . S
O128 Zn121 1.969 . S
O128 C138 1.258 . S
C129 O126 1.267 . S
C129 O130 1.228 . S
O130 C129 1.228 . S
O131 Zn120 2.024 . S
O131 C122 1.058 . S
C132 O133 1.228 . S
C132 O134 1.267 . S
O133 C132 1.228 . S
O134 Zn121 1.969 . S
O134 C132 1.267 . S
O135 Zn121 1.965 . S
O135 C139 1.260 . S
O136 Zn120 1.969 . S
O136 C139 1.258 . S
O137 Zn121 2.024 . S
O137 C124 1.058 . S
C138 O127 1.260 . S
C138 O128 1.258 . S
C139 O135 1.260 . S
C139 O136 1.258 . S
Zn140 O146 1.969 . S
Zn140 O147 1.965 . S
Zn140 O151 2.024 . S
Zn140 O156 1.969 . S
Zn141 O148 1.969 . S
Zn141 O154 1.969 . S
Zn141 O155 1.965 . S
Zn141 O157 2.024 . S
C142 O143 1.229 . S
C142 O151 1.058 . S
O143 C142 1.229 . S
C144 O145 1.229 . S
C144 O157 1.058 . S
O145 C144 1.229 . S
O146 Zn140 1.969 . S
O146 C149 1.267 . S
O147 Zn140 1.965 . S
O147 C158 1.260 . S
O148 Zn141 1.969 . S
O148 C158 1.258 . S
C149 O146 1.267 . S
C149 O150 1.228 . S
O150 C149 1.228 . S
O151 Zn140 2.024 . S
O151 C142 1.058 . S
C152 O153 1.228 . S
C152 O154 1.267 . S
O153 C152 1.228 . S
O154 Zn141 1.969 . S
O154 C152 1.267 . S
O155 Zn141 1.965 . S
O155 C159 1.260 . S
O156 Zn140 1.969 . S
O156 C159 1.258 . S
O157 Zn141 2.024 . S
O157 C144 1.058 . S
C158 O147 1.260 . S
C158 O148 1.258 . S
C159 O155 1.260 . S
C159 O156 1.258 . S
Zn160 O166 1.969 . S
Zn160 O167 1.965 . S
Zn160 O171 2.024 . S
Zn160 O176 1.969 . S
Zn161 O168 1.969 . S
Zn161 O174 1.969 . S
Zn161 O175 1.965 . S
Zn161 O177 2.024 . S
C162 O163 1.229 . S
C162 O171 1.058 . S
O163 C162 1.229 . S
C164 O165 1.229 . S
C164 O177 1.058 . S
O165 C164 1.229 . S
O166 Zn160 1.969 . S
O166 C169 1.267 . S
O167 Zn160 1.965 . S
O167 C178 1.260 . S
O168 Zn161 1.969 . S
O168 C178 1.258 . S
C169 O166 1.267 . S
C169 O170 1.228 . S
O170 C169 1.228 . S
O171 Zn160 2.024 . S
O171 C162 1.058 . S
C172 O173 1.228 . S
C172 O174 1.267 . S
O173 C172 1.228 . S
O174 Zn161 1.969 . S
O174 C172 1.267 . S
O175 Zn161 1.965 . S
O175 C179 1.260 . S
O176 Zn160 1.969 . S
O176 C179 1.258 . S
O177 Zn161 2.024 . S
O177 C164 1.058 . S
C178 O167 1.260 . S
C178 O168 1.258 . S
C179 O175 1.260 . S
C179 O176 1.258 . S
H180 C188 0.929 . S
H181 C190 0.930 . S
H182 C192 0.930 . S
H183 C195 0.929 . S
H184 C198 0.930 . S
H185 C200 0.960 . S
H186 C200 0.960 1_455 S
H187 C200 0.960 . S
C188 H180 0.929 . S
C188 C189 1.377 . S
C188 C190 1.384 . S
C189 C188 1.377 . S
C189 C195 1.390 . S
C190 H181 0.930 . S
C190 C188 1.384 . S
C190 C191 1.372 . S
C191 C190 1.372 . S
C191 C192 1.400 . S
C191 C196 1.490 . S
C192 H182 0.930 . S
C192 C191 1.400 . S
C192 C195 1.386 . S
H193 C209 0.930 . S
H194 C210 0.931 . S
C195 H183 0.929 . S
C195 C189 1.390 . S
C195 C192 1.386 . S
C196 C191 1.490 . S
C196 C198 1.395 . S
C196 C199 1.403 . S
H197 C203 0.930 . S
C198 H184 0.930 . S
C198 C196 1.395 . S
C198 C201 1.403 . S
C199 C196 1.403 . S
C199 C200 1.524 1_455 S
C199 C203 1.400 . S
C200 H185 0.960 . S
C200 H186 0.960 1_655 S
C200 H187 0.960 . S
C200 C199 1.524 1_655 S
C201 C198 1.403 . S
C201 C202 1.392 . S
C201 C205 1.495 . S
C202 C201 1.392 . S
C202 C203 1.385 . S
C202 C204 1.478 . S
C203 H197 0.930 . S
C203 C199 1.400 . S
C203 C202 1.385 . S
C204 C202 1.478 . S
C204 C206 1.381 . S
C204 C210 1.383 . S
C205 C201 1.495 . S
C205 H211 0.959 . S
C205 H212 0.961 . S
C205 H213 0.960 . S
C206 C204 1.381 . S
C206 C207 1.394 . S
C206 H214 0.930 . S
C207 C206 1.394 . S
C207 C208 1.383 . S
C207 H215 0.929 . S
C208 C207 1.383 . S
C208 C209 1.377 . S
C209 H193 0.930 . S
C209 C208 1.377 . S
C209 C210 1.379 . S
C210 H194 0.931 . S
C210 C204 1.383 . S
C210 C209 1.379 . S
H211 C205 0.959 . S
H212 C205 0.961 . S
H213 C205 0.960 . S
H214 C206 0.930 . S
H215 C207 0.929 . S
H216 C224 0.929 . S
H217 C226 0.930 . S
H218 C228 0.930 . S
H219 C231 0.929 . S
H220 C234 0.930 . S
H221 C236 0.960 . S
H222 C236 0.960 . S
H223 C236 0.960 . S
C224 H216 0.929 . S
C224 C225 1.377 . S
C224 C226 1.384 . S
C225 C224 1.377 . S
C225 C231 1.390 . S
C226 H217 0.930 . S
C226 C224 1.384 . S
C226 C227 1.372 . S
C227 C226 1.372 . S
C227 C228 1.400 . S
C227 C232 1.490 . S
C228 H218 0.930 . S
C228 C227 1.400 . S
C228 C231 1.386 . S
H229 C245 0.930 . S
H230 C246 0.931 . S
C231 H219 0.929 . S
C231 C225 1.390 . S
C231 C228 1.386 . S
C232 C227 1.490 . S
C232 C234 1.395 . S
C232 C235 1.403 . S
H233 C239 0.930 . S
C234 H220 0.930 . S
C234 C232 1.395 . S
C234 C237 1.403 . S
C235 C232 1.403 . S
C235 C236 1.524 . S
C235 C239 1.400 . S
C236 H221 0.960 . S
C236 H222 0.960 . S
C236 H223 0.960 . S
C236 C235 1.524 . S
C237 C234 1.403 . S
C237 C238 1.392 . S
C237 C241 1.495 . S
C238 C237 1.392 . S
C238 C239 1.385 . S
C238 C240 1.478 . S
C239 H233 0.930 . S
C239 C235 1.400 . S
C239 C238 1.385 . S
C240 C238 1.478 . S
C240 C242 1.381 . S
C240 C246 1.383 . S
C241 C237 1.495 . S
C241 H247 0.959 . S
C241 H248 0.961 . S
C241 H249 0.960 . S
C242 C240 1.381 . S
C242 C243 1.394 . S
C242 H250 0.930 . S
C243 C242 1.394 . S
C243 C244 1.383 . S
C243 H251 0.929 . S
C244 C243 1.383 . S
C244 C245 1.377 . S
C245 H229 0.930 . S
C245 C244 1.377 . S
C245 C246 1.379 . S
C246 H230 0.931 . S
C246 C240 1.383 . S
C246 C245 1.379 . S
H247 C241 0.959 . S
H248 C241 0.961 . S
H249 C241 0.960 . S
H250 C242 0.930 . S
H251 C243 0.929 . S
H252 C260 0.929 . S
H253 C262 0.930 . S
H254 C264 0.930 . S
H255 C267 0.929 . S
H256 C270 0.930 . S
H257 C272 0.960 . S
H258 C272 0.960 . S
H259 C272 0.960 . S
C260 H252 0.929 . S
C260 C261 1.377 . S
C260 C262 1.384 . S
C261 C260 1.377 . S
C261 C267 1.390 . S
C262 H253 0.930 . S
C262 C260 1.384 . S
C262 C263 1.372 . S
C263 C262 1.372 . S
C263 C264 1.400 . S
C263 C268 1.490 . S
C264 H254 0.930 . S
C264 C263 1.400 . S
C264 C267 1.386 . S
H265 C281 0.930 . S
H266 C282 0.931 . S
C267 H255 0.929 . S
C267 C261 1.390 . S
C267 C264 1.386 . S
C268 C263 1.490 . S
C268 C270 1.395 . S
C268 C271 1.403 . S
H269 C275 0.930 . S
C270 H256 0.930 . S
C270 C268 1.395 . S
C270 C273 1.403 . S
C271 C268 1.403 . S
C271 C272 1.524 . S
C271 C275 1.400 . S
C272 H257 0.960 . S
C272 H258 0.960 . S
C272 H259 0.960 . S
C272 C271 1.524 . S
C273 C270 1.403 . S
C273 C274 1.392 . S
C273 C277 1.495 . S
C274 C273 1.392 . S
C274 C275 1.385 . S
C274 C276 1.478 . S
C275 H269 0.930 . S
C275 C271 1.400 . S
C275 C274 1.385 . S
C276 C274 1.478 . S
C276 C278 1.381 . S
C276 C282 1.383 . S
C277 C273 1.495 . S
C277 H283 0.959 . S
C277 H284 0.961 . S
C277 H285 0.960 . S
C278 C276 1.381 . S
C278 C279 1.394 . S
C278 H286 0.930 . S
C279 C278 1.394 . S
C279 C280 1.383 . S
C279 H287 0.929 . S
C280 C279 1.383 . S
C280 C281 1.377 . S
C281 H265 0.930 . S
C281 C280 1.377 . S
C281 C282 1.379 . S
C282 H266 0.931 . S
C282 C276 1.383 . S
C282 C281 1.379 . S
H283 C277 0.959 . S
H284 C277 0.961 . S
H285 C277 0.960 . S
H286 C278 0.930 . S
H287 C279 0.929 . S
H288 C296 0.929 . S
H289 C298 0.930 . S
H290 C300 0.930 . S
H291 C303 0.929 . S
H292 C306 0.930 . S
H293 C308 0.960 . S
H294 C308 0.960 . S
H295 C308 0.960 . S
C296 H288 0.929 . S
C296 C297 1.377 . S
C296 C298 1.384 . S
C297 C296 1.377 . S
C297 C303 1.390 . S
C298 H289 0.930 . S
C298 C296 1.384 . S
C298 C299 1.372 . S
C299 C298 1.372 . S
C299 C300 1.400 . S
C299 C304 1.490 . S
C300 H290 0.930 . S
C300 C299 1.400 . S
C300 C303 1.386 . S
H301 C317 0.930 . S
H302 C318 0.931 . S
C303 H291 0.929 . S
C303 C297 1.390 . S
C303 C300 1.386 . S
C304 C299 1.490 . S
C304 C306 1.395 . S
C304 C307 1.403 . S
H305 C311 0.930 . S
C306 H292 0.930 . S
C306 C304 1.395 . S
C306 C309 1.403 . S
C307 C304 1.403 . S
C307 C308 1.524 . S
C307 C311 1.400 . S
C308 H293 0.960 . S
C308 H294 0.960 . S
C308 H295 0.960 . S
C308 C307 1.524 . S
C309 C306 1.403 . S
C309 C310 1.392 . S
C309 C313 1.495 . S
C310 C309 1.392 . S
C310 C311 1.385 . S
C310 C312 1.478 . S
C311 H305 0.930 . S
C311 C307 1.400 . S
C311 C310 1.385 . S
C312 C310 1.478 . S
C312 C314 1.381 1_556 S
C312 C318 1.383 . S
C313 C309 1.495 . S
C313 H319 0.959 . S
C313 H320 0.961 . S
C313 H321 0.960 . S
C314 C312 1.381 1_554 S
C314 C315 1.394 . S
C314 H322 0.930 1_554 S
C315 C314 1.394 . S
C315 C316 1.383 . S
C315 H323 0.929 . S
C316 C315 1.383 . S
C316 C317 1.377 . S
C317 H301 0.930 . S
C317 C316 1.377 . S
C317 C318 1.379 1_554 S
C318 H302 0.931 . S
C318 C312 1.383 . S
C318 C317 1.379 1_556 S
H319 C313 0.959 . S
H320 C313 0.961 . S
H321 C313 0.960 . S
H322 C314 0.930 1_556 S
H323 C315 0.929 . S
H324 C332 0.929 . S
H325 C334 0.930 . S
H326 C336 0.930 . S
H327 C339 0.929 . S
H328 C342 0.930 . S
H329 C344 0.960 . S
H330 C344 0.960 . S
H331 C344 0.960 . S
C332 H324 0.929 . S
C332 C333 1.377 . S
C332 C334 1.384 . S
C333 C332 1.377 . S
C333 C339 1.390 . S
C334 H325 0.930 . S
C334 C332 1.384 . S
C334 C335 1.372 . S
C335 C334 1.372 . S
C335 C336 1.400 . S
C335 C340 1.490 . S
C336 H326 0.930 . S
C336 C335 1.400 . S
C336 C339 1.386 . S
H337 C353 0.930 . S
H338 C354 0.931 . S
C339 H327 0.929 . S
C339 C333 1.390 . S
C339 C336 1.386 . S
C340 C335 1.490 . S
C340 C342 1.395 . S
C340 C343 1.403 . S
H341 C347 0.930 . S
C342 H328 0.930 . S
C342 C340 1.395 . S
C342 C345 1.403 . S
C343 C340 1.403 . S
C343 C344 1.524 . S
C343 C347 1.400 . S
C344 H329 0.960 . S
C344 H330 0.960 . S
C344 H331 0.960 . S
C344 C343 1.524 . S
C345 C342 1.403 . S
C345 C346 1.392 . S
C345 C349 1.495 . S
C346 C345 1.392 . S
C346 C347 1.385 . S
C346 C348 1.478 . S
C347 H341 0.930 . S
C347 C343 1.400 . S
C347 C346 1.385 . S
C348 C346 1.478 . S
C348 C350 1.381 . S
C348 C354 1.383 . S
C349 C345 1.495 . S
C349 H355 0.959 . S
C349 H356 0.961 . S
C349 H357 0.960 . S
C350 C348 1.381 . S
C350 C351 1.394 1_556 S
C350 H358 0.930 . S
C351 C350 1.394 1_554 S
C351 C352 1.383 . S
C351 H359 0.929 . S
C352 C351 1.383 . S
C352 C353 1.377 . S
C353 H337 0.930 . S
C353 C352 1.377 . S
C353 C354 1.379 1_554 S
C354 H338 0.931 . S
C354 C348 1.383 . S
C354 C353 1.379 1_556 S
H355 C349 0.959 . S
H356 C349 0.961 . S
H357 C349 0.960 . S
H358 C350 0.930 . S
H359 C351 0.929 . S
H360 C368 0.929 . S
H361 C370 0.930 . S
H362 C372 0.930 . S
H363 C375 0.929 . S
H364 C378 0.930 . S
H365 C380 0.960 . S
H366 C380 0.960 . S
H367 C380 0.960 . S
C368 H360 0.929 . S
C368 C369 1.377 . S
C368 C370 1.384 . S
C369 C368 1.377 . S
C369 C375 1.390 . S
C370 H361 0.930 . S
C370 C368 1.384 . S
C370 C371 1.372 . S
C371 C370 1.372 . S
C371 C372 1.400 . S
C371 C376 1.490 . S
C372 H362 0.930 . S
C372 C371 1.400 . S
C372 C375 1.386 . S
H373 C389 0.930 1_554 S
H374 C390 0.931 . S
C375 H363 0.929 . S
C375 C369 1.390 . S
C375 C372 1.386 . S
C376 C371 1.490 . S
C376 C378 1.395 . S
C376 C379 1.403 . S
H377 C383 0.930 . S
C378 H364 0.930 . S
C378 C376 1.395 . S
C378 C381 1.403 . S
C379 C376 1.403 . S
C379 C380 1.524 . S
C379 C383 1.400 . S
C380 H365 0.960 . S
C380 H366 0.960 . S
C380 H367 0.960 . S
C380 C379 1.524 . S
C381 C378 1.403 . S
C381 C382 1.392 . S
C381 C385 1.495 . S
C382 C381 1.392 . S
C382 C383 1.385 . S
C382 C384 1.478 . S
C383 H377 0.930 . S
C383 C379 1.400 . S
C383 C382 1.385 . S
C384 C382 1.478 . S
C384 C386 1.381 . S
C384 C390 1.383 . S
C385 C381 1.495 . S
C385 H391 0.959 . S
C385 H392 0.961 . S
C385 H393 0.960 . S
C386 C384 1.381 . S
C386 C387 1.394 . S
C386 H394 0.930 . S
C387 C386 1.394 . S
C387 C388 1.383 1_556 S
C387 H395 0.929 . S
C388 C387 1.383 1_554 S
C388 C389 1.377 1_554 S
C389 H373 0.930 1_556 S
C389 C388 1.377 1_556 S
C389 C390 1.379 . S
C390 H374 0.931 . S
C390 C384 1.383 . S
C390 C389 1.379 . S
H391 C385 0.959 . S
H392 C385 0.961 . S
H393 C385 0.960 . S
H394 C386 0.930 . S
H395 C387 0.929 . S
H396 C404 0.929 . S
H397 C406 0.930 . S
H398 C408 0.930 . S
H399 C411 0.929 . S
H400 C414 0.930 . S
H401 C416 0.960 . S
H402 C416 0.960 . S
H403 C416 0.960 . S
C404 H396 0.929 . S
C404 C405 1.377 . S
C404 C406 1.384 . S
C405 C404 1.377 . S
C405 C411 1.390 . S
C406 H397 0.930 . S
C406 C404 1.384 . S
C406 C407 1.372 . S
C407 C406 1.372 . S
C407 C408 1.400 . S
C407 C412 1.490 . S
C408 H398 0.930 . S
C408 C407 1.400 . S
C408 C411 1.386 . S
H409 C425 0.930 . S
H410 C426 0.929 1_554 S
C411 H399 0.929 . S
C411 C405 1.390 . S
C411 C408 1.386 . S
C412 C407 1.490 . S
C412 C414 1.395 . S
C412 C415 1.403 . S
H413 C419 0.930 . S
C414 H400 0.930 . S
C414 C412 1.395 . S
C414 C417 1.403 . S
C415 C412 1.403 . S
C415 C416 1.524 . S
C415 C419 1.400 . S
C416 H401 0.960 . S
C416 H402 0.960 . S
C416 H403 0.960 . S
C416 C415 1.524 . S
C417 C414 1.403 . S
C417 C418 1.392 . S
C417 C421 1.495 . S
C418 C417 1.392 . S
C418 C419 1.385 . S
C418 C420 1.478 . S
C419 H413 0.930 . S
C419 C415 1.400 . S
C419 C418 1.385 . S
C420 C418 1.478 . S
C420 C422 1.381 1_554 S
C420 C426 1.383 1_554 S
C421 C417 1.495 . S
C421 H427 0.959 . S
C421 H428 0.961 . S
C421 H429 0.960 . S
C422 C420 1.381 1_556 S
C422 C423 1.394 . S
C422 H430 0.930 1_556 S
C423 C422 1.394 . S
C423 C424 1.383 . S
C423 H431 0.929 . S
C424 C423 1.383 . S
C424 C425 1.377 . S
C425 H409 0.930 . S
C425 C424 1.377 . S
C425 C426 1.379 . S
C426 H410 0.929 1_556 S
C426 C420 1.383 1_556 S
C426 C425 1.379 . S
H427 C421 0.959 . S
H428 C421 0.961 . S
H429 C421 0.960 . S
H430 C422 0.930 1_554 S
H431 C423 0.929 . S
H432 C440 0.929 . S
H433 C442 0.930 . S
H434 C444 0.930 . S
H435 C447 0.929 . S
H436 C450 0.930 . S
H437 C452 0.960 . S
H438 C452 0.960 . S
H439 C452 0.960 . S
C440 H432 0.929 . S
C440 C441 1.377 . S
C440 C442 1.384 . S
C441 C440 1.377 . S
C441 C447 1.390 . S
C442 H433 0.930 . S
C442 C440 1.384 . S
C442 C443 1.372 . S
C443 C442 1.372 . S
C443 C444 1.400 . S
C443 C448 1.490 . S
C444 H434 0.930 . S
C444 C443 1.400 . S
C444 C447 1.386 . S
H445 C461 0.930 . S
H446 C462 0.931 1_554 S
C447 H435 0.929 . S
C447 C441 1.390 . S
C447 C444 1.386 . S
C448 C443 1.490 . S
C448 C450 1.395 . S
C448 C451 1.403 . S
H449 C455 0.930 . S
C450 H436 0.930 . S
C450 C448 1.395 . S
C450 C453 1.403 . S
C451 C448 1.403 . S
C451 C452 1.524 . S
C451 C455 1.400 . S
C452 H437 0.960 . S
C452 H438 0.960 . S
C452 H439 0.960 . S
C452 C451 1.524 . S
C453 C450 1.403 . S
C453 C454 1.392 . S
C453 C457 1.495 . S
C454 C453 1.392 . S
C454 C455 1.385 . S
C454 C456 1.478 . S
C455 H449 0.930 . S
C455 C451 1.400 . S
C455 C454 1.385 . S
C456 C454 1.478 . S
C456 C458 1.381 1_554 S
C456 C462 1.383 1_554 S
C457 C453 1.495 . S
C457 H463 0.959 . S
C457 H464 0.961 . S
C457 H465 0.960 . S
C458 C456 1.381 1_556 S
C458 C459 1.394 . S
C458 H466 0.930 . S
C459 C458 1.394 . S
C459 C460 1.383 . S
C459 H467 0.929 . S
C460 C459 1.383 . S
C460 C461 1.377 . S
C461 H445 0.930 . S
C461 C460 1.377 . S
C461 C462 1.379 . S
C462 H446 0.931 1_556 S
C462 C456 1.383 1_556 S
C462 C461 1.379 . S
H463 C457 0.959 . S
H464 C457 0.961 . S
H465 C457 0.960 . S
H466 C458 0.930 . S
H467 C459 0.929 . S
H468 C476 0.929 . S
H469 C478 0.930 . S
H470 C480 0.930 . S
H471 C483 0.929 . S
H472 C486 0.930 . S
H473 C488 0.960 . S
H474 C488 0.960 . S
H475 C488 0.960 . S
C476 H468 0.929 . S
C476 C477 1.377 . S
C476 C478 1.384 . S
C477 C476 1.377 . S
C477 C483 1.390 . S
C478 H469 0.930 . S
C478 C476 1.384 . S
C478 C479 1.372 . S
C479 C478 1.372 . S
C479 C480 1.400 . S
C479 C484 1.490 . S
C480 H470 0.930 . S
C480 C479 1.400 . S
C480 C483 1.386 . S
H481 C497 0.930 . S
H482 C498 0.931 1_554 S
C483 H471 0.929 . S
C483 C477 1.390 . S
C483 C480 1.386 . S
C484 C479 1.490 . S
C484 C486 1.395 . S
C484 C487 1.403 . S
H485 C491 0.930 . S
C486 H472 0.930 . S
C486 C484 1.395 . S
C486 C489 1.403 . S
C487 C484 1.403 . S
C487 C488 1.524 . S
C487 C491 1.400 . S
C488 H473 0.960 . S
C488 H474 0.960 . S
C488 H475 0.960 . S
C488 C487 1.524 . S
C489 C486 1.403 . S
C489 C490 1.392 . S
C489 C493 1.495 . S
C490 C489 1.392 . S
C490 C491 1.385 . S
C490 C492 1.478 . S
C491 H485 0.930 . S
C491 C487 1.400 . S
C491 C490 1.385 . S
C492 C490 1.478 . S
C492 C494 1.381 1_554 S
C492 C498 1.383 1_554 S
C493 C489 1.495 . S
C493 H499 0.959 . S
C493 H500 0.961 . S
C493 H501 0.960 . S
C494 C492 1.381 1_556 S
C494 C495 1.394 . S
C494 H502 0.930 . S
C495 C494 1.394 . S
C495 C496 1.383 . S
C495 H503 0.929 . S
C496 C495 1.383 . S
C496 C497 1.377 . S
C497 H481 0.930 . S
C497 C496 1.377 . S
C497 C498 1.379 . S
C498 H482 0.931 1_556 S
C498 C492 1.383 1_556 S
C498 C497 1.379 . S
H499 C493 0.959 . S
H500 C493 0.961 . S
H501 C493 0.960 . S
H502 C494 0.930 . S
H503 C495 0.929 . S
H504 C512 0.929 . S
H505 C514 0.930 . S
H506 C516 0.930 . S
H507 C519 0.929 . S
H508 C522 0.930 . S
H509 C524 0.961 . S
H510 C524 0.960 . S
H511 C524 0.960 . S
C512 H504 0.929 . S
C512 C513 1.377 . S
C512 C514 1.384 . S
C513 C512 1.377 . S
C513 C519 1.390 . S
C514 H505 0.930 . S
C514 C512 1.384 . S
C514 C515 1.372 . S
C515 C514 1.372 . S
C515 C516 1.400 . S
C515 C520 1.490 . S
C516 H506 0.930 . S
C516 C515 1.400 . S
C516 C519 1.386 . S
H517 C533 0.930 . S
H518 C534 0.931 . S
C519 H507 0.929 . S
C519 C513 1.390 . S
C519 C516 1.386 . S
C520 C515 1.490 . S
C520 C522 1.395 . S
C520 C523 1.403 . S
H521 C527 0.930 . S
C522 H508 0.930 . S
C522 C520 1.395 . S
C522 C525 1.403 . S
C523 C520 1.403 . S
C523 C524 1.524 . S
C523 C527 1.400 . S
C524 H509 0.961 . S
C524 H510 0.960 . S
C524 H511 0.960 . S
C524 C523 1.524 . S
C525 C522 1.403 . S
C525 C526 1.392 . S
C525 C529 1.495 . S
C526 C525 1.392 . S
C526 C527 1.385 . S
C526 C528 1.478 . S
C527 H521 0.930 . S
C527 C523 1.400 . S
C527 C526 1.385 . S
C528 C526 1.478 . S
C528 C530 1.381 . S
C528 C534 1.383 . S
C529 C525 1.495 . S
C529 H535 0.959 . S
C529 H536 0.961 . S
C529 H537 0.960 . S
C530 C528 1.381 . S
C530 C531 1.394 . S
C530 H538 0.930 . S
C531 C530 1.394 . S
C531 C532 1.383 . S
C531 H539 0.929 . S
C532 C531 1.383 . S
C532 C533 1.377 . S
C533 H517 0.930 . S
C533 C532 1.377 . S
C533 C534 1.379 . S
C534 H518 0.931 . S
C534 C528 1.383 . S
C534 C533 1.379 . S
H535 C529 0.959 . S
H536 C529 0.961 . S
H537 C529 0.960 . S
H538 C530 0.930 . S
H539 C531 0.929 . S
H540 C548 0.929 . S
H541 C550 0.930 . S
H542 C552 0.930 . S
H543 C555 0.929 . S
H544 C558 0.930 . S
H545 C560 0.960 . S
H546 C560 0.960 . S
H547 C560 0.960 . S
C548 H540 0.929 . S
C548 C549 1.377 . S
C548 C550 1.384 . S
C549 C548 1.377 . S
C549 C555 1.390 . S
C550 H541 0.930 . S
C550 C548 1.384 . S
C550 C551 1.372 . S
C551 C550 1.372 . S
C551 C552 1.400 . S
C551 C556 1.490 . S
C552 H542 0.930 . S
C552 C551 1.400 . S
C552 C555 1.386 . S
H553 C569 0.930 . S
H554 C570 0.931 . S
C555 H543 0.929 . S
C555 C549 1.390 . S
C555 C552 1.386 . S
C556 C551 1.490 . S
C556 C558 1.395 . S
C556 C559 1.403 . S
H557 C563 0.930 . S
C558 H544 0.930 . S
C558 C556 1.395 . S
C558 C561 1.403 . S
C559 C556 1.403 . S
C559 C560 1.524 . S
C559 C563 1.400 . S
C560 H545 0.960 . S
C560 H546 0.960 . S
C560 H547 0.960 . S
C560 C559 1.524 . S
C561 C558 1.403 . S
C561 C562 1.392 . S
C561 C565 1.495 . S
C562 C561 1.392 . S
C562 C563 1.385 . S
C562 C564 1.478 . S
C563 H557 0.930 . S
C563 C559 1.400 . S
C563 C562 1.385 . S
C564 C562 1.478 . S
C564 C566 1.381 . S
C564 C570 1.383 . S
C565 C561 1.495 . S
C565 H571 0.959 . S
C565 H572 0.961 . S
C565 H573 0.960 . S
C566 C564 1.381 . S
C566 C567 1.394 . S
C566 H574 0.930 . S
C567 C566 1.394 . S
C567 C568 1.383 . S
C567 H575 0.929 . S
C568 C567 1.383 . S
C568 C569 1.377 . S
C569 H553 0.930 . S
C569 C568 1.377 . S
C569 C570 1.379 . S
C570 H554 0.931 . S
C570 C564 1.383 . S
C570 C569 1.379 . S
H571 C565 0.959 . S
H572 C565 0.961 . S
H573 C565 0.960 . S
H574 C566 0.930 . S
H575 C567 0.929 . S
H576 C584 0.929 . S
H577 C586 0.930 . S
H578 C588 0.930 . S
H579 C591 0.935 . S
H580 C594 0.930 . S
H581 C596 0.960 . S
H582 C596 0.960 . S
H583 C596 0.960 . S
C584 H576 0.929 . S
C584 C585 1.377 . S
C584 C586 1.384 . S
C585 C584 1.377 . S
C585 C591 1.390 . S
C586 H577 0.930 . S
C586 C584 1.384 . S
C586 C587 1.372 . S
C587 C586 1.372 . S
C587 C588 1.400 . S
C587 C592 1.490 . S
C588 H578 0.930 . S
C588 C587 1.400 . S
C588 C591 1.386 . S
H589 C605 0.930 . S
H590 C606 0.931 . S
C591 H579 0.935 . S
C591 C585 1.390 . S
C591 C588 1.386 . S
C592 C587 1.490 . S
C592 C594 1.395 . S
C592 C595 1.403 . S
H593 C599 0.930 . S
C594 H580 0.930 . S
C594 C592 1.395 . S
C594 C597 1.403 . S
C595 C592 1.403 . S
C595 C596 1.524 . S
C595 C599 1.400 . S
C596 H581 0.960 . S
C596 H582 0.960 . S
C596 H583 0.960 . S
C596 C595 1.524 . S
C597 C594 1.403 . S
C597 C598 1.392 . S
C597 C601 1.495 . S
C598 C597 1.392 . S
C598 C599 1.385 . S
C598 C600 1.478 . S
C599 H593 0.930 . S
C599 C595 1.400 . S
C599 C598 1.385 . S
C600 C598 1.478 . S
C600 C602 1.381 . S
C600 C606 1.383 . S
C601 C597 1.495 . S
C601 H607 0.959 . S
C601 H608 0.961 . S
C601 H609 0.960 . S
C602 C600 1.381 . S
C602 C603 1.394 . S
C602 H610 0.930 . S
C603 C602 1.394 . S
C603 C604 1.383 . S
C603 H611 0.929 . S
C604 C603 1.383 . S
C604 C605 1.377 . S
C605 H589 0.930 . S
C605 C604 1.377 . S
C605 C606 1.379 . S
C606 H590 0.931 . S
C606 C600 1.383 . S
C606 C605 1.379 . S
H607 C601 0.959 . S
H608 C601 0.961 . S
H609 C601 0.960 . S
H610 C602 0.930 . S
H611 C603 0.929 . S
H612 C620 0.931 . S
H613 C622 0.930 . S
H614 C624 0.930 . S
H615 C627 0.929 . S
H616 C630 0.930 . S
H617 C632 0.960 . S
H618 C632 0.960 . S
H619 C632 0.960 . S
C620 H612 0.931 . S
C620 C621 1.374 1_556 S
C620 C622 1.385 . S
C621 C620 1.374 1_554 S
C621 C627 1.390 . S
C622 H613 0.930 . S
C622 C620 1.385 . S
C622 C623 1.372 . S
C623 C622 1.372 . S
C623 C624 1.400 1_556 S
C623 C628 1.490 . S
C624 H614 0.930 . S
C624 C623 1.400 1_554 S
C624 C627 1.386 . S
H625 C641 0.930 . S
H626 C642 0.931 . S
C627 H615 0.929 . S
C627 C621 1.390 . S
C627 C624 1.386 . S
C628 C623 1.490 . S
C628 C630 1.395 . S
C628 C631 1.403 . S
H629 C635 0.930 . S
C630 H616 0.930 . S
C630 C628 1.395 . S
C630 C633 1.403 . S
C631 C628 1.403 . S
C631 C632 1.524 1_556 S
C631 C635 1.400 . S
C632 H617 0.960 . S
C632 H618 0.960 . S
C632 H619 0.960 . S
C632 C631 1.524 1_554 S
C633 C630 1.403 . S
C633 C634 1.392 . S
C633 C637 1.495 . S
C634 C633 1.392 . S
C634 C635 1.385 . S
C634 C636 1.478 . S
C635 H629 0.930 . S
C635 C631 1.400 . S
C635 C634 1.385 . S
C636 C634 1.478 . S
C636 C638 1.381 . S
C636 C642 1.383 . S
C637 C633 1.495 . S
C637 H643 0.959 . S
C637 H644 0.961 . S
C637 H645 0.960 . S
C638 C636 1.381 . S
C638 C639 1.394 . S
C638 H646 0.930 . S
C639 C638 1.394 . S
C639 C640 1.383 . S
C639 H647 0.929 . S
C640 C639 1.383 . S
C640 C641 1.377 . S
C641 H625 0.930 . S
C641 C640 1.377 . S
C641 C642 1.379 . S
C642 H626 0.931 . S
C642 C636 1.383 . S
C642 C641 1.379 . S
H643 C637 0.959 . S
H644 C637 0.961 . S
H645 C637 0.960 . S
H646 C638 0.930 . S
H647 C639 0.929 . S
H648 C656 0.929 . S
H649 C658 0.930 . S
H650 C660 0.930 . S
H651 C663 0.929 . S
H652 C666 0.930 . S
H653 C668 0.960 . S
H654 C668 0.960 . S
H655 C668 0.960 . S
C656 H648 0.929 . S
C656 C657 1.377 . S
C656 C658 1.384 . S
C657 C656 1.377 . S
C657 C663 1.390 . S
C658 H649 0.930 . S
C658 C656 1.384 . S
C658 C659 1.372 . S
C659 C658 1.372 . S
C659 C660 1.400 . S
C659 C664 1.490 . S
C660 H650 0.930 . S
C660 C659 1.400 . S
C660 C663 1.386 . S
H661 C677 0.930 . S
H662 C678 0.931 . S
C663 H651 0.929 . S
C663 C657 1.390 . S
C663 C660 1.386 . S
C664 C659 1.490 . S
C664 C666 1.395 . S
C664 C667 1.403 . S
H665 C671 0.930 . S
C666 H652 0.930 . S
C666 C664 1.395 . S
C666 C669 1.403 . S
C667 C664 1.403 . S
C667 C668 1.524 . S
C667 C671 1.400 . S
C668 H653 0.960 . S
C668 H654 0.960 . S
C668 H655 0.960 . S
C668 C667 1.524 . S
C669 C666 1.403 . S
C669 C670 1.392 . S
C669 C673 1.505 . S
C670 C669 1.392 . S
C670 C671 1.385 . S
C670 C672 1.478 . S
C671 H665 0.930 . S
C671 C667 1.400 . S
C671 C670 1.385 . S
C672 C670 1.478 . S
C672 C674 1.381 . S
C672 C678 1.383 . S
C673 C669 1.505 . S
C673 H679 0.950 1_655 S
C673 H680 0.959 1_655 S
C673 H681 0.972 1_655 S
C674 C672 1.381 . S
C674 C675 1.394 1_556 S
C674 H682 0.930 1_556 S
C675 C674 1.394 1_554 S
C675 C676 1.383 1_554 S
C675 H683 0.929 . S
C676 C675 1.383 1_556 S
C676 C677 1.377 . S
C677 H661 0.930 . S
C677 C676 1.377 . S
C677 C678 1.379 . S
C678 H662 0.931 . S
C678 C672 1.383 . S
C678 C677 1.379 . S
H679 C673 0.950 1_455 S
H680 C673 0.959 1_455 S
H681 C673 0.972 1_455 S
H682 C674 0.930 1_554 S
H683 C675 0.929 . S
H684 C692 0.929 . S
H685 C694 0.930 . S
H686 C696 0.930 . S
H687 C699 0.929 . S
H688 C702 0.930 . S
H689 C704 0.960 1_554 S
H690 C704 0.960 . S
H691 C704 0.960 . S
C692 H684 0.929 . S
C692 C693 1.377 . S
C692 C694 1.384 . S
C693 C692 1.377 . S
C693 C699 1.390 . S
C694 H685 0.930 . S
C694 C692 1.384 . S
C694 C695 1.372 . S
C695 C694 1.372 . S
C695 C696 1.400 . S
C695 C700 1.490 . S
C696 H686 0.930 . S
C696 C695 1.400 . S
C696 C699 1.386 . S
H697 C713 0.930 . S
H698 C714 0.931 . S
C699 H687 0.929 . S
C699 C693 1.390 . S
C699 C696 1.386 . S
C700 C695 1.490 . S
C700 C702 1.395 . S
C700 C703 1.403 . S
H701 C707 0.930 . S
C702 H688 0.930 . S
C702 C700 1.395 . S
C702 C705 1.403 . S
C703 C700 1.403 . S
C703 C704 1.524 . S
C703 C707 1.400 . S
C704 H689 0.960 1_556 S
C704 H690 0.960 . S
C704 H691 0.960 . S
C704 C703 1.524 . S
C705 C702 1.403 . S
C705 C706 1.392 . S
C705 C709 1.495 . S
C706 C705 1.392 . S
C706 C707 1.385 . S
C706 C708 1.478 . S
C707 H701 0.930 . S
C707 C703 1.400 . S
C707 C706 1.385 . S
C708 C706 1.478 . S
C708 C710 1.381 . S
C708 C714 1.383 . S
C709 C705 1.495 . S
C709 H715 0.959 . S
C709 H716 0.961 . S
C709 H717 0.960 . S
C710 C708 1.381 . S
C710 C711 1.394 1_556 S
C710 H718 0.930 . S
C711 C710 1.394 1_554 S
C711 C712 1.383 . S
C711 H719 0.929 . S
C712 C711 1.383 . S
C712 C713 1.377 1_554 S
C713 H697 0.930 . S
C713 C712 1.377 1_556 S
C713 C714 1.379 . S
C714 H698 0.931 . S
C714 C708 1.383 . S
C714 C713 1.379 . S
H715 C709 0.959 . S
H716 C709 0.961 . S
H717 C709 0.960 . S
H718 C710 0.930 . S
H719 C711 0.929 . S
H720 C728 0.929 . S
H721 C730 0.930 . S
H722 C732 0.930 . S
H723 C735 0.929 . S
H724 C738 0.930 . S
H725 C740 0.960 . S
H726 C740 0.960 . S
H727 C740 0.960 . S
C728 H720 0.929 . S
C728 C729 1.377 . S
C728 C730 1.384 . S
C729 C728 1.377 . S
C729 C735 1.390 . S
C730 H721 0.930 . S
C730 C728 1.384 . S
C730 C731 1.372 . S
C731 C730 1.372 . S
C731 C732 1.400 . S
C731 C736 1.490 . S
C732 H722 0.930 . S
C732 C731 1.400 . S
C732 C735 1.386 . S
H733 C749 0.930 1_455 S
H734 C750 0.931 . S
C735 H723 0.929 . S
C735 C729 1.390 . S
C735 C732 1.386 . S
C736 C731 1.490 . S
C736 C738 1.395 . S
C736 C739 1.403 . S
H737 C743 0.930 . S
C738 H724 0.930 . S
C738 C736 1.395 . S
C738 C741 1.403 . S
C739 C736 1.403 . S
C739 C740 1.524 . S
C739 C743 1.400 . S
C740 H725 0.960 . S
C740 H726 0.960 . S
C740 H727 0.960 . S
C740 C739 1.524 . S
C741 C738 1.403 . S
C741 C742 1.392 . S
C741 C745 1.495 . S
C742 C741 1.392 . S
C742 C743 1.385 . S
C742 C744 1.478 . S
C743 H737 0.930 . S
C743 C739 1.400 . S
C743 C742 1.385 . S
C744 C742 1.478 . S
C744 C746 1.381 . S
C744 C750 1.383 . S
C745 C741 1.495 . S
C745 H751 0.959 . S
C745 H752 0.961 . S
C745 H753 0.960 . S
C746 C744 1.381 . S
C746 C747 1.394 . S
C746 H754 0.930 . S
C747 C746 1.394 . S
C747 C748 1.383 . S
C747 H755 0.929 . S
C748 C747 1.383 . S
C748 C749 1.377 . S
C749 H733 0.930 1_655 S
C749 C748 1.377 . S
C749 C750 1.379 . S
C750 H734 0.931 . S
C750 C744 1.383 . S
C750 C749 1.379 . S
H751 C745 0.959 . S
H752 C745 0.961 . S
H753 C745 0.960 . S
H754 C746 0.930 . S
H755 C747 0.929 . S
H756 C764 0.929 . S
H757 C766 0.930 . S
H758 C768 0.930 . S
H759 C771 0.929 . S
H760 C774 0.930 . S
H761 C776 0.960 . S
H762 C776 0.960 . S
H763 C776 0.960 . S
C764 H756 0.929 . S
C764 C765 1.377 . S
C764 C766 1.384 . S
C765 C764 1.377 . S
C765 C771 1.390 1_554 S
C766 H757 0.930 . S
C766 C764 1.384 . S
C766 C767 1.372 1_554 S
C767 C766 1.372 1_556 S
C767 C768 1.400 . S
C767 C772 1.490 . S
C768 H758 0.930 . S
C768 C767 1.400 . S
C768 C771 1.386 . S
H769 C785 0.930 . S
H770 C786 0.931 . S
C771 H759 0.929 . S
C771 C765 1.390 1_556 S
C771 C768 1.386 . S
C772 C767 1.490 . S
C772 C774 1.395 . S
C772 C775 1.403 . S
H773 C779 0.930 . S
C774 H760 0.930 . S
C774 C772 1.395 . S
C774 C777 1.403 . S
C775 C772 1.403 . S
C775 C776 1.524 . S
C775 C779 1.400 . S
C776 H761 0.960 . S
C776 H762 0.960 . S
C776 H763 0.960 . S
C776 C775 1.524 . S
C777 C774 1.403 . S
C777 C778 1.392 . S
C777 C781 1.495 . S
C778 C777 1.392 . S
C778 C779 1.385 . S
C778 C780 1.478 . S
C779 H773 0.930 . S
C779 C775 1.400 . S
C779 C778 1.385 . S
C780 C778 1.478 . S
C780 C782 1.381 . S
C780 C786 1.383 . S
C781 C777 1.495 . S
C781 H787 0.959 . S
C781 H788 0.961 . S
C781 H789 0.960 . S
C782 C780 1.381 . S
C782 C783 1.394 . S
C782 H790 0.930 . S
C783 C782 1.394 . S
C783 C784 1.383 . S
C783 H791 0.929 . S
C784 C783 1.383 . S
C784 C785 1.377 . S
C785 H769 0.930 . S
C785 C784 1.377 . S
C785 C786 1.379 . S
C786 H770 0.931 . S
C786 C780 1.383 . S
C786 C785 1.379 . S
H787 C781 0.959 . S
H788 C781 0.961 . S
H789 C781 0.960 . S
H790 C782 0.930 . S
H791 C783 0.929 . S
H792 C800 0.929 . S
H793 C802 0.930 . S
H794 C804 0.930 . S
H795 C807 0.929 . S
H796 C810 0.930 . S
H797 C812 0.960 . S
H798 C812 0.960 . S
H799 C812 0.960 . S
C800 H792 0.929 . S
C800 C801 1.377 . S
C800 C802 1.384 . S
C801 C800 1.377 . S
C801 C807 1.390 . S
C802 H793 0.930 . S
C802 C800 1.384 . S
C802 C803 1.372 . S
C803 C802 1.372 . S
C803 C804 1.400 . S
C803 C808 1.490 . S
C804 H794 0.930 . S
C804 C803 1.400 . S
C804 C807 1.386 . S
H805 C821 0.930 . S
H806 C822 0.931 . S
C807 H795 0.929 . S
C807 C801 1.390 . S
C807 C804 1.386 . S
C808 C803 1.490 . S
C808 C810 1.395 . S
C808 C811 1.403 . S
H809 C815 0.930 . S
C810 H796 0.930 . S
C810 C808 1.395 . S
C810 C813 1.403 . S
C811 C808 1.403 . S
C811 C812 1.524 . S
C811 C815 1.400 . S
C812 H797 0.960 . S
C812 H798 0.960 . S
C812 H799 0.960 . S
C812 C811 1.524 . S
C813 C810 1.403 . S
C813 C814 1.392 . S
C813 C817 1.495 . S
C814 C813 1.392 . S
C814 C815 1.385 . S
C814 C816 1.478 . S
C815 H809 0.930 . S
C815 C811 1.400 . S
C815 C814 1.385 . S
C816 C814 1.478 . S
C816 C818 1.381 . S
C816 C822 1.383 1_556 S
C817 C813 1.495 . S
C817 H823 0.959 . S
C817 H824 0.961 . S
C817 H825 0.960 . S
C818 C816 1.381 . S
C818 C819 1.394 . S
C818 H826 0.930 . S
C819 C818 1.394 . S
C819 C820 1.383 1_556 S
C819 H827 0.929 . S
C820 C819 1.383 1_554 S
C820 C821 1.377 . S
C821 H805 0.930 . S
C821 C820 1.377 . S
C821 C822 1.379 . S
C822 H806 0.931 . S
C822 C816 1.383 1_554 S
C822 C821 1.379 . S
H823 C817 0.959 . S
H824 C817 0.961 . S
H825 C817 0.960 . S
H826 C818 0.930 . S
H827 C819 0.929 . S
H828 C836 0.929 . S
H829 C838 0.930 . S
H830 C840 0.930 . S
H831 C843 0.929 . S
H832 C846 0.930 . S
H833 C848 0.960 . S
H834 C848 0.960 . S
H835 C848 0.960 . S
C836 H828 0.929 . S
C836 C837 1.377 . S
C836 C838 1.384 . S
C837 C836 1.377 . S
C837 C843 1.390 . S
C838 H829 0.930 . S
C838 C836 1.384 . S
C838 C839 1.372 . S
C839 C838 1.372 . S
C839 C840 1.400 . S
C839 C844 1.490 . S
C840 H830 0.930 . S
C840 C839 1.400 . S
C840 C843 1.386 . S
H841 C857 0.930 . S
H842 C858 0.931 . S
C843 H831 0.929 . S
C843 C837 1.390 . S
C843 C840 1.386 . S
C844 C839 1.490 . S
C844 C846 1.395 . S
C844 C847 1.403 . S
H845 C851 0.930 . S
C846 H832 0.930 . S
C846 C844 1.395 . S
C846 C849 1.403 . S
C847 C844 1.403 . S
C847 C848 1.524 . S
C847 C851 1.400 . S
C848 H833 0.960 . S
C848 H834 0.960 . S
C848 H835 0.960 . S
C848 C847 1.524 . S
C849 C846 1.403 . S
C849 C850 1.392 . S
C849 C853 1.495 . S
C850 C849 1.392 . S
C850 C851 1.385 . S
C850 C852 1.478 . S
C851 H845 0.930 . S
C851 C847 1.400 . S
C851 C850 1.385 . S
C852 C850 1.478 . S
C852 C854 1.381 . S
C852 C858 1.383 . S
C853 C849 1.495 . S
C853 H859 0.959 . S
C853 H860 0.961 . S
C853 H861 0.960 . S
C854 C852 1.381 . S
C854 C855 1.394 . S
C854 H862 0.930 . S
C855 C854 1.394 . S
C855 C856 1.383 . S
C855 H863 0.929 . S
C856 C855 1.383 . S
C856 C857 1.377 . S
C857 H841 0.930 . S
C857 C856 1.377 . S
C857 C858 1.379 . S
C858 H842 0.931 . S
C858 C852 1.383 . S
C858 C857 1.379 . S
H859 C853 0.959 . S
H860 C853 0.961 . S
H861 C853 0.960 . S
H862 C854 0.930 . S
H863 C855 0.929 . S
H864 C872 0.929 . S
H865 C874 0.930 . S
H866 C876 0.930 . S
H867 C879 0.929 . S
H868 C882 0.930 . S
H869 C884 0.960 . S
H870 C884 0.960 . S
H871 C884 0.960 . S
C872 H864 0.929 . S
C872 C873 1.377 . S
C872 C874 1.384 . S
C873 C872 1.377 . S
C873 C879 1.390 . S
C874 H865 0.930 . S
C874 C872 1.384 . S
C874 C875 1.372 . S
C875 C874 1.372 . S
C875 C876 1.400 . S
C875 C880 1.490 . S
C876 H866 0.930 . S
C876 C875 1.400 . S
C876 C879 1.386 . S
H877 C893 0.930 . S
H878 C894 0.931 . S
C879 H867 0.929 . S
C879 C873 1.390 . S
C879 C876 1.386 . S
C880 C875 1.490 . S
C880 C882 1.395 . S
C880 C883 1.403 . S
H881 C887 0.930 . S
C882 H868 0.930 . S
C882 C880 1.395 . S
C882 C885 1.403 . S
C883 C880 1.403 . S
C883 C884 1.524 . S
C883 C887 1.400 . S
C884 H869 0.960 . S
C884 H870 0.960 . S
C884 H871 0.960 . S
C884 C883 1.524 . S
C885 C882 1.403 . S
C885 C886 1.392 . S
C885 C889 1.495 1_554 S
C886 C885 1.392 . S
C886 C887 1.385 . S
C886 C888 1.478 . S
C887 H881 0.930 . S
C887 C883 1.400 . S
C887 C886 1.385 . S
C888 C886 1.478 . S
C888 C890 1.381 . S
C888 C894 1.383 . S
C889 C885 1.495 1_556 S
C889 H895 0.959 . S
C889 H896 0.961 . S
C889 H897 0.960 . S
C890 C888 1.381 . S
C890 C891 1.394 . S
C890 H898 0.930 . S
C891 C890 1.394 . S
C891 C892 1.383 . S
C891 H899 0.929 . S
C892 C891 1.383 . S
C892 C893 1.377 . S
C893 H877 0.930 . S
C893 C892 1.377 . S
C893 C894 1.379 . S
C894 H878 0.931 . S
C894 C888 1.383 . S
C894 C893 1.379 . S
H895 C889 0.959 . S
H896 C889 0.961 . S
H897 C889 0.960 . S
H898 C890 0.930 . S
H899 C891 0.929 . S
H900 C908 0.929 . S
H901 C910 0.930 . S
H902 C912 0.930 . S
H903 C915 0.929 . S
H904 C918 0.930 . S
H905 C920 0.960 . S
H906 C920 0.960 . S
H907 C920 0.960 . S
C908 H900 0.929 . S
C908 C909 1.377 . S
C908 C910 1.384 . S
C909 C908 1.377 . S
C909 C915 1.390 . S
C910 H901 0.930 . S
C910 C908 1.384 . S
C910 C911 1.372 . S
C911 C910 1.372 . S
C911 C912 1.400 . S
C911 C916 1.490 . S
C912 H902 0.930 . S
C912 C911 1.400 . S
C912 C915 1.386 . S
H913 C929 0.930 . S
H914 C930 0.931 . S
C915 H903 0.929 . S
C915 C909 1.390 . S
C915 C912 1.386 . S
C916 C911 1.490 . S
C916 C918 1.395 . S
C916 C919 1.403 . S
H917 C923 0.930 . S
C918 H904 0.930 . S
C918 C916 1.395 . S
C918 C921 1.403 . S
C919 C916 1.403 . S
C919 C920 1.524 . S
C919 C923 1.400 . S
C920 H905 0.960 . S
C920 H906 0.960 . S
C920 H907 0.960 . S
C920 C919 1.524 . S
C921 C918 1.403 . S
C921 C922 1.392 . S
C921 C925 1.495 . S
C922 C921 1.392 . S
C922 C923 1.385 . S
C922 C924 1.478 . S
C923 H917 0.930 . S
C923 C919 1.400 . S
C923 C922 1.385 . S
C924 C922 1.478 . S
C924 C926 1.381 . S
C924 C930 1.383 . S
C925 C921 1.495 . S
C925 H931 0.959 . S
C925 H932 0.961 . S
C925 H933 0.960 . S
C926 C924 1.381 . S
C926 C927 1.394 . S
C926 H934 0.930 . S
C927 C926 1.394 . S
C927 C928 1.383 . S
C927 H935 0.929 . S
C928 C927 1.383 . S
C928 C929 1.377 . S
C929 H913 0.930 . S
C929 C928 1.377 . S
C929 C930 1.379 . S
C930 H914 0.931 . S
C930 C924 1.383 . S
C930 C929 1.379 . S
H931 C925 0.959 . S
H932 C925 0.961 . S
H933 C925 0.960 . S
H934 C926 0.930 . S
H935 C927 0.929 . S
H936 C944 0.929 . S
H937 C946 0.930 . S
H938 C948 0.930 . S
H939 C951 0.929 . S
H940 C954 0.930 . S
H941 C956 0.960 . S
H942 C956 0.960 . S
H943 C956 0.960 . S
C944 H936 0.929 . S
C944 C945 1.377 . S
C944 C946 1.384 . S
C945 C944 1.377 . S
C945 C951 1.390 . S
C946 H937 0.930 . S
C946 C944 1.384 . S
C946 C947 1.372 . S
C947 C946 1.372 . S
C947 C948 1.400 . S
C947 C952 1.490 . S
C948 H938 0.930 . S
C948 C947 1.400 . S
C948 C951 1.386 . S
H949 C965 0.930 . S
H950 C966 0.931 . S
C951 H939 0.929 . S
C951 C945 1.390 . S
C951 C948 1.386 . S
C952 C947 1.490 . S
C952 C954 1.395 . S
C952 C955 1.403 . S
H953 C959 0.930 . S
C954 H940 0.930 . S
C954 C952 1.395 . S
C954 C957 1.403 . S
C955 C952 1.403 . S
C955 C956 1.524 . S
C955 C959 1.400 . S
C956 H941 0.960 . S
C956 H942 0.960 . S
C956 H943 0.960 . S
C956 C955 1.524 . S
C957 C954 1.403 . S
C957 C958 1.392 . S
C957 C961 1.495 . S
C958 C957 1.392 . S
C958 C959 1.385 . S
C958 C960 1.478 . S
C959 H953 0.930 . S
C959 C955 1.400 . S
C959 C958 1.385 . S
C960 C958 1.478 . S
C960 C962 1.381 . S
C960 C966 1.383 . S
C961 C957 1.495 . S
C961 H967 0.959 . S
C961 H968 0.961 . S
C961 H969 0.960 . S
C962 C960 1.381 . S
C962 C963 1.394 . S
C962 H970 0.930 . S
C963 C962 1.394 . S
C963 C964 1.383 . S
C963 H971 0.929 . S
C964 C963 1.383 . S
C964 C965 1.377 . S
C965 H949 0.930 . S
C965 C964 1.377 . S
C965 C966 1.379 . S
C966 H950 0.931 . S
C966 C960 1.383 . S
C966 C965 1.379 . S
H967 C961 0.959 . S
H968 C961 0.961 . S
H969 C961 0.960 . S
H970 C962 0.930 . S
H971 C963 0.929 . S
H972 C980 0.929 . S
H973 C982 0.930 . S
H974 C984 0.930 . S
H975 C987 0.929 . S
H976 C990 0.930 . S
H977 C992 0.960 . S
H978 C992 0.960 . S
H979 C992 0.960 . S
C980 H972 0.929 . S
C980 C981 1.377 . S
C980 C982 1.384 . S
C981 C980 1.377 . S
C981 C987 1.390 . S
C982 H973 0.930 . S
C982 C980 1.384 . S
C982 C983 1.372 . S
C983 C982 1.372 . S
C983 C984 1.400 . S
C983 C988 1.490 . S
C984 H974 0.930 . S
C984 C983 1.400 . S
C984 C987 1.386 . S
H985 C1001 0.930 . S
H986 C1002 0.931 . S
C987 H975 0.929 . S
C987 C981 1.390 . S
C987 C984 1.386 . S
C988 C983 1.490 . S
C988 C990 1.395 . S
C988 C991 1.403 . S
H989 C995 0.930 1_565 S
C990 H976 0.930 . S
C990 C988 1.395 . S
C990 C993 1.403 . S
C991 C988 1.403 . S
C991 C992 1.524 . S
C991 C995 1.400 . S
C992 H977 0.960 . S
C992 H978 0.960 . S
C992 H979 0.960 . S
C992 C991 1.524 . S
C993 C990 1.403 . S
C993 C994 1.392 . S
C993 C997 1.495 . S
C994 C993 1.392 . S
C994 C995 1.385 . S
C994 C996 1.478 1_545 S
C995 H989 0.930 1_545 S
C995 C991 1.400 . S
C995 C994 1.385 . S
C996 C994 1.478 1_565 S
C996 C998 1.381 . S
C996 C1002 1.383 . S
C997 C993 1.495 . S
C997 H1003 0.959 . S
C997 H1004 0.961 . S
C997 H1005 0.960 . S
C998 C996 1.381 . S
C998 C999 1.394 . S
C998 H1006 0.930 . S
C999 C998 1.394 . S
C999 C1000 1.383 . S
C999 H1007 0.929 . S
C1000 C999 1.383 . S
C1000 C1001 1.377 . S
C1001 H985 0.930 . S
C1001 C1000 1.377 . S
C1001 C1002 1.379 . S
C1002 H986 0.931 . S
C1002 C996 1.383 . S
C1002 C1001 1.379 . S
H1003 C997 0.959 . S
H1004 C997 0.961 . S
H1005 C997 0.960 . S
H1006 C998 0.930 . S
H1007 C999 0.929 . S
H1008 C1016 0.929 . S
H1009 C1018 0.930 . S
H1010 C1020 0.930 . S
H1011 C1023 0.929 . S
H1012 C1026 0.930 . S
H1013 C1028 0.960 . S
H1014 C1028 0.960 . S
H1015 C1028 0.960 . S
C1016 H1008 0.929 . S
C1016 C1017 1.377 . S
C1016 C1018 1.384 . S
C1017 C1016 1.377 . S
C1017 C1023 1.390 . S
C1018 H1009 0.930 . S
C1018 C1016 1.384 . S
C1018 C1019 1.372 1_655 S
C1019 C1018 1.372 1_455 S
C1019 C1020 1.400 . S
C1019 C1024 1.490 . S
C1020 H1010 0.930 . S
C1020 C1019 1.400 . S
C1020 C1023 1.386 1_455 S
H1021 C1037 0.930 . S
H1022 C1038 0.931 . S
C1023 H1011 0.929 . S
C1023 C1017 1.390 . S
C1023 C1020 1.386 1_655 S
C1024 C1019 1.490 . S
C1024 C1026 1.395 . S
C1024 C1027 1.403 . S
H1025 C1031 0.930 . S
C1026 H1012 0.930 . S
C1026 C1024 1.395 . S
C1026 C1029 1.403 . S
C1027 C1024 1.403 . S
C1027 C1028 1.524 . S
C1027 C1031 1.400 . S
C1028 H1013 0.960 . S
C1028 H1014 0.960 . S
C1028 H1015 0.960 . S
C1028 C1027 1.524 . S
C1029 C1026 1.403 . S
C1029 C1030 1.392 . S
C1029 C1033 1.495 . S
C1030 C1029 1.392 . S
C1030 C1031 1.385 . S
C1030 C1032 1.478 . S
C1031 H1025 0.930 . S
C1031 C1027 1.400 . S
C1031 C1030 1.385 . S
C1032 C1030 1.478 . S
C1032 C1034 1.381 . S
C1032 C1038 1.383 . S
C1033 C1029 1.495 . S
C1033 H1039 0.959 . S
C1033 H1040 0.961 . S
C1033 H1041 0.960 . S
C1034 C1032 1.381 . S
C1034 C1035 1.394 . S
C1034 H1042 0.930 . S
C1035 C1034 1.394 . S
C1035 C1036 1.383 . S
C1035 H1043 0.929 . S
C1036 C1035 1.383 . S
C1036 C1037 1.377 . S
C1037 H1021 0.930 . S
C1037 C1036 1.377 . S
C1037 C1038 1.379 . S
C1038 H1022 0.931 . S
C1038 C1032 1.383 . S
C1038 C1037 1.379 . S
H1039 C1033 0.959 . S
H1040 C1033 0.961 . S
H1041 C1033 0.960 . S
H1042 C1034 0.930 . S
H1043 C1035 0.929 . S
H1044 C1052 0.929 . S
H1045 C1054 0.930 . S
H1046 C1056 0.930 . S
H1047 C1059 0.929 . S
H1048 C1062 0.930 . S
H1049 C1064 0.960 . S
H1050 C1064 0.960 . S
H1051 C1064 0.960 . S
C1052 H1044 0.929 . S
C1052 C1053 1.377 . S
C1052 C1054 1.384 . S
C1053 C1052 1.377 . S
C1053 C1059 1.390 . S
C1054 H1045 0.930 . S
C1054 C1052 1.384 . S
C1054 C1055 1.372 . S
C1055 C1054 1.372 . S
C1055 C1056 1.400 . S
C1055 C1060 1.490 . S
C1056 H1046 0.930 . S
C1056 C1055 1.400 . S
C1056 C1059 1.386 . S
H1057 C1073 0.930 . S
H1058 C1074 0.931 . S
C1059 H1047 0.929 . S
C1059 C1053 1.390 . S
C1059 C1056 1.386 . S
C1060 C1055 1.490 . S
C1060 C1062 1.395 . S
C1060 C1063 1.403 . S
H1061 C1067 0.930 . S
C1062 H1048 0.930 . S
C1062 C1060 1.395 . S
C1062 C1065 1.403 . S
C1063 C1060 1.403 . S
C1063 C1064 1.524 . S
C1063 C1067 1.400 . S
C1064 H1049 0.960 . S
C1064 H1050 0.960 . S
C1064 H1051 0.960 . S
C1064 C1063 1.524 . S
C1065 C1062 1.403 . S
C1065 C1066 1.392 . S
C1065 C1069 1.495 . S
C1066 C1065 1.392 . S
C1066 C1067 1.385 . S
C1066 C1068 1.478 . S
C1067 H1061 0.930 . S
C1067 C1063 1.400 . S
C1067 C1066 1.385 . S
C1068 C1066 1.478 . S
C1068 C1070 1.381 . S
C1068 C1074 1.383 . S
C1069 C1065 1.495 . S
C1069 H1075 0.959 . S
C1069 H1076 0.961 . S
C1069 H1077 0.960 . S
C1070 C1068 1.381 . S
C1070 C1071 1.394 . S
C1070 H1078 0.930 . S
C1071 C1070 1.394 . S
C1071 C1072 1.383 . S
C1071 H1079 0.929 . S
C1072 C1071 1.383 . S
C1072 C1073 1.377 . S
C1073 H1057 0.930 . S
C1073 C1072 1.377 . S
C1073 C1074 1.379 . S
C1074 H1058 0.931 . S
C1074 C1068 1.383 . S
C1074 C1073 1.379 . S
H1075 C1069 0.959 . S
H1076 C1069 0.961 . S
H1077 C1069 0.960 . S
H1078 C1070 0.930 . S
H1079 C1071 0.929 . S
H1080 C1088 0.929 . S
H1081 C1090 0.930 . S
H1082 C1092 0.930 . S
H1083 C1095 0.929 . S
H1084 C1098 0.930 . S
H1085 C1100 0.960 1_545 S
H1086 C1100 0.960 . S
H1087 C1100 0.960 . S
C1088 H1080 0.929 . S
C1088 C1089 1.377 . S
C1088 C1090 1.384 . S
C1089 C1088 1.377 . S
C1089 C1095 1.390 . S
C1090 H1081 0.930 . S
C1090 C1088 1.384 . S
C1090 C1091 1.372 . S
C1091 C1090 1.372 . S
C1091 C1092 1.400 . S
C1091 C1096 1.490 1_565 S
C1092 H1082 0.930 . S
C1092 C1091 1.400 . S
C1092 C1095 1.386 . S
H1093 C1109 0.930 . S
H1094 C1110 0.931 . S
C1095 H1083 0.929 . S
C1095 C1089 1.390 . S
C1095 C1092 1.386 . S
C1096 C1091 1.490 1_545 S
C1096 C1098 1.395 . S
C1096 C1099 1.403 . S
H1097 C1103 0.930 . S
C1098 H1084 0.930 . S
C1098 C1096 1.395 . S
C1098 C1101 1.403 . S
C1099 C1096 1.403 . S
C1099 C1100 1.524 1_545 S
C1099 C1103 1.400 . S
C1100 H1085 0.960 1_565 S
C1100 H1086 0.960 . S
C1100 H1087 0.960 . S
C1100 C1099 1.524 1_565 S
C1101 C1098 1.403 . S
C1101 C1102 1.392 . S
C1101 C1105 1.495 . S
C1102 C1101 1.392 . S
C1102 C1103 1.385 . S
C1102 C1104 1.478 . S
C1103 H1097 0.930 . S
C1103 C1099 1.400 . S
C1103 C1102 1.385 . S
C1104 C1102 1.478 . S
C1104 C1106 1.381 . S
C1104 C1110 1.383 . S
C1105 C1101 1.495 . S
C1105 H1111 0.959 . S
C1105 H1112 0.961 . S
C1105 H1113 0.960 . S
C1106 C1104 1.381 . S
C1106 C1107 1.394 . S
C1106 H1114 0.930 . S
C1107 C1106 1.394 . S
C1107 C1108 1.383 . S
C1107 H1115 0.929 . S
C1108 C1107 1.383 . S
C1108 C1109 1.377 . S
C1109 H1093 0.930 . S
C1109 C1108 1.377 . S
C1109 C1110 1.379 . S
C1110 H1094 0.931 . S
C1110 C1104 1.383 . S
C1110 C1109 1.379 . S
H1111 C1105 0.959 . S
H1112 C1105 0.961 . S
H1113 C1105 0.960 . S
H1114 C1106 0.930 . S
H1115 C1107 0.929 . S
H1116 C1124 0.929 . S
H1117 C1126 0.930 . S
H1118 C1128 0.930 . S
H1119 C1131 0.929 . S
H1120 C1134 0.930 . S
H1121 C1136 0.960 . S
H1122 C1136 0.960 . S
H1123 C1136 0.960 . S
C1124 H1116 0.929 . S
C1124 C1125 1.377 . S
C1124 C1126 1.384 1_655 S
C1125 C1124 1.377 . S
C1125 C1131 1.390 . S
C1126 H1117 0.930 . S
C1126 C1124 1.384 1_455 S
C1126 C1127 1.372 . S
C1127 C1126 1.372 . S
C1127 C1128 1.400 1_455 S
C1127 C1132 1.490 . S
C1128 H1118 0.930 . S
C1128 C1127 1.400 1_655 S
C1128 C1131 1.386 . S
H1129 C1145 0.930 . S
H1130 C1146 0.931 . S
C1131 H1119 0.929 . S
C1131 C1125 1.390 . S
C1131 C1128 1.386 . S
C1132 C1127 1.490 . S
C1132 C1134 1.395 . S
C1132 C1135 1.403 . S
H1133 C1139 0.930 . S
C1134 H1120 0.930 . S
C1134 C1132 1.395 . S
C1134 C1137 1.403 . S
C1135 C1132 1.403 . S
C1135 C1136 1.524 . S
C1135 C1139 1.400 . S
C1136 H1121 0.960 . S
C1136 H1122 0.960 . S
C1136 H1123 0.960 . S
C1136 C1135 1.524 . S
C1137 C1134 1.403 . S
C1137 C1138 1.392 . S
C1137 C1141 1.495 . S
C1138 C1137 1.392 . S
C1138 C1139 1.385 . S
C1138 C1140 1.478 . S
C1139 H1133 0.930 . S
C1139 C1135 1.400 . S
C1139 C1138 1.385 . S
C1140 C1138 1.478 . S
C1140 C1142 1.381 . S
C1140 C1146 1.383 . S
C1141 C1137 1.495 . S
C1141 H1147 0.959 . S
C1141 H1148 0.961 . S
C1141 H1149 0.960 . S
C1142 C1140 1.381 . S
C1142 C1143 1.394 . S
C1142 H1150 0.930 . S
C1143 C1142 1.394 . S
C1143 C1144 1.383 . S
C1143 H1151 0.929 . S
C1144 C1143 1.383 . S
C1144 C1145 1.377 . S
C1145 H1129 0.930 . S
C1145 C1144 1.377 . S
C1145 C1146 1.379 . S
C1146 H1130 0.931 . S
C1146 C1140 1.383 . S
C1146 C1145 1.379 . S
H1147 C1141 0.959 . S
H1148 C1141 0.961 . S
H1149 C1141 0.960 . S
H1150 C1142 0.930 . S
H1151 C1143 0.929 . S
C189 C18 1.877 . S
C208 C19 1.867 . S
C225 C39 1.885 . S
C244 C38 1.895 . S
C261 C58 1.889 1_556 S
C280 C59 1.872 . S
C297 C79 1.871 . S
C316 C78 1.869 . S
C333 C98 1.886 . S
C352 C99 1.867 . S
C369 C119 1.895 . S
C388 C118 1.909 . S
C405 C132 0.664 . S
C424 C129 0.630 . S
C441 C149 0.723 . S
C460 C152 0.697 . S
C477 C172 0.728 . S
C496 C169 0.764 . S
C513 C104 1.601 . S
C532 C12 1.670 . S
C549 C24 1.528 . S
C568 C64 1.562 . S
C585 C52 1.730 1_565 S
C604 C92 1.758 . S
C621 C44 1.183 . S
C640 C122 1.215 . S
C657 C159 1.274 . S
C676 C4 1.125 1_655 S
C693 C162 1.318 . S
C712 C32 1.314 . S
C729 C178 1.406 . S
C748 C9 1.340 . S
C765 C22 1.168 . S
C784 C138 1.227 . S
C801 C144 1.328 . S
C820 C49 1.309 . S
C837 C42 1.602 1_565 S
C856 C69 1.680 . S
C873 C82 1.521 . S
C892 C2 1.538 . S
C909 C29 1.742 . S
C928 C109 1.710 . S
C945 C179 1.402 . S
C964 C72 1.375 . S
C981 C139 1.251 . S
C1000 C84 1.159 . S
C1017 C142 1.316 . S
C1036 C112 1.312 . S
C1053 C124 1.212 . S
C1072 C102 1.133 . S
C1089 C62 1.184 . S
C1108 C158 1.258 . S
C1125 C164 1.335 . S
C1144 C89 1.314 . S
