# Generated by pormake.
# Topology uot, (4)-cn, num edge types: 1
# Building blocks:
#     Node 0, Type 0, BuildingBlock: KUFVIS_clean_sbu_0, # of connection points: 4
#     Node 1, Type 0, BuildingBlock: KUFVIS_clean_sbu_0, # of connection points: 4
#     Node 2, Type 0, BuildingBlock: KUFVIS_clean_sbu_0, # of connection points: 4
#     Node 3, Type 0, BuildingBlock: KUFVIS_clean_sbu_0, # of connection points: 4
#     Node 4, Type 0, BuildingBlock: KUFVIS_clean_sbu_0, # of connection points: 4
#     Node 5, Type 0, BuildingBlock: KUFVIS_clean_sbu_0, # of connection points: 4
#     Node 6, Type 0, BuildingBlock: KUFVIS_clean_sbu_0, # of connection points: 4
#     Node 7, Type 0, BuildingBlock: KUFVIS_clean_sbu_0, # of connection points: 4
#     Node 8, Type 0, BuildingBlock: KUFVIS_clean_sbu_0, # of connection points: 4
#     Node 9, Type 0, BuildingBlock: KUFVIS_clean_sbu_0, # of connection points: 4
#     Node 10, Type 0, BuildingBlock: KUFVIS_clean_sbu_0, # of connection points: 4
#     Node 11, Type 0, BuildingBlock: KUFVIS_clean_sbu_0, # of connection points: 4
#     Node 12, Type 0, BuildingBlock: KUFVIS_clean_sbu_0, # of connection points: 4
#     Node 13, Type 0, BuildingBlock: KUFVIS_clean_sbu_0, # of connection points: 4
#     Node 14, Type 0, BuildingBlock: KUFVIS_clean_sbu_0, # of connection points: 4
#     Node 15, Type 0, BuildingBlock: KUFVIS_clean_sbu_0, # of connection points: 4
#     Edge 16, Type (0, 0), BuildingBlock: TEMPAE_clean_linker_10, # of connection points: 2
#     Edge 17, Type (0, 0), BuildingBlock: TEMPAE_clean_linker_10, # of connection points: 2
#     Edge 18, Type (0, 0), BuildingBlock: TEMPAE_clean_linker_10, # of connection points: 2
#     Edge 19, Type (0, 0), BuildingBlock: TEMPAE_clean_linker_10, # of connection points: 2
#     Edge 20, Type (0, 0), BuildingBlock: TEMPAE_clean_linker_10, # of connection points: 2
#     Edge 21, Type (0, 0), BuildingBlock: TEMPAE_clean_linker_10, # of connection points: 2
#     Edge 22, Type (0, 0), BuildingBlock: TEMPAE_clean_linker_10, # of connection points: 2
#     Edge 23, Type (0, 0), BuildingBlock: TEMPAE_clean_linker_10, # of connection points: 2
#     Edge 24, Type (0, 0), BuildingBlock: TEMPAE_clean_linker_10, # of connection points: 2
#     Edge 25, Type (0, 0), BuildingBlock: TEMPAE_clean_linker_10, # of connection points: 2
#     Edge 26, Type (0, 0), BuildingBlock: TEMPAE_clean_linker_10, # of connection points: 2
#     Edge 27, Type (0, 0), BuildingBlock: TEMPAE_clean_linker_10, # of connection points: 2
#     Edge 28, Type (0, 0), BuildingBlock: TEMPAE_clean_linker_10, # of connection points: 2
#     Edge 29, Type (0, 0), BuildingBlock: TEMPAE_clean_linker_10, # of connection points: 2
#     Edge 30, Type (0, 0), BuildingBlock: TEMPAE_clean_linker_10, # of connection points: 2
#     Edge 31, Type (0, 0), BuildingBlock: TEMPAE_clean_linker_10, # of connection points: 2
#     Edge 32, Type (0, 0), BuildingBlock: TEMPAE_clean_linker_10, # of connection points: 2
#     Edge 33, Type (0, 0), BuildingBlock: TEMPAE_clean_linker_10, # of connection points: 2
#     Edge 34, Type (0, 0), BuildingBlock: TEMPAE_clean_linker_10, # of connection points: 2
#     Edge 35, Type (0, 0), BuildingBlock: TEMPAE_clean_linker_10, # of connection points: 2
#     Edge 36, Type (0, 0), BuildingBlock: TEMPAE_clean_linker_10, # of connection points: 2
#     Edge 37, Type (0, 0), BuildingBlock: TEMPAE_clean_linker_10, # of connection points: 2
#     Edge 38, Type (0, 0), BuildingBlock: TEMPAE_clean_linker_10, # of connection points: 2
#     Edge 39, Type (0, 0), BuildingBlock: TEMPAE_clean_linker_10, # of connection points: 2
#     Edge 40, Type (0, 0), BuildingBlock: TEMPAE_clean_linker_10, # of connection points: 2
#     Edge 41, Type (0, 0), BuildingBlock: TEMPAE_clean_linker_10, # of connection points: 2
#     Edge 42, Type (0, 0), BuildingBlock: TEMPAE_clean_linker_10, # of connection points: 2
#     Edge 43, Type (0, 0), BuildingBlock: TEMPAE_clean_linker_10, # of connection points: 2
#     Edge 44, Type (0, 0), BuildingBlock: TEMPAE_clean_linker_10, # of connection points: 2
#     Edge 45, Type (0, 0), BuildingBlock: TEMPAE_clean_linker_10, # of connection points: 2
#     Edge 46, Type (0, 0), BuildingBlock: TEMPAE_clean_linker_10, # of connection points: 2
#     Edge 47, Type (0, 0), BuildingBlock: TEMPAE_clean_linker_10, # of connection points: 2
# Relax obj value: 0.078
# Max RMSD: 0.115
# Mean RMSD: 0.115
data_MOF--net-uot--node1-KUFVIS_clean_sbu_0--edge1-TEMPAE_clean_linker_10
_symmetry_space_group_name_H-M    P1
_symmetry_Int_Tables_number       1
_symmetry_cell_setting            triclinic
loop_
_symmetry_equiv_pos_as_xyz
'x, y, z'
_cell_length_a     44.646575
_cell_length_b     44.646715
_cell_length_c     41.080817
_cell_angle_alpha  90.029296
_cell_angle_beta   90.004181
_cell_angle_gamma 90.001286
loop_
_atom_site_label
_atom_site_type_symbol
_atom_site_fract_x
_atom_site_fract_y
_atom_site_fract_z
_atom_type_partial_charge
Mn0 Mn 0.18497 0.45272 0.32427 0.0
Mn1 Mn 0.15671 0.39896 0.373 0.0
C2 C 0.15508 0.41588 0.30223 0.0
C3 C 0.18026 0.50094 0.30391 0.0
C4 C 0.22074 0.39905 0.34789 0.0
O5 O 0.19233 0.46902 0.36943 0.0
O6 O 0.16888 0.43416 0.39954 0.0
C7 C 0.10214 0.4306 0.39518 0.0
N8 N 0.11525 0.40627 0.38116 0.0
C9 C 0.06792 0.38081 0.37705 0.0
C10 C 0.0539 0.40551 0.39164 0.0
C11 C 0.07107 0.43058 0.40058 0.0
C12 C 0.0989 0.38222 0.37205 0.0
H13 H 0.1153 0.44984 0.40222 0.0
C14 C 0.18299 0.45896 0.39654 0.0
O15 O 0.20621 0.48771 0.30456 0.0
O16 O 0.15749 0.48614 0.31496 0.0
N17 N 0.14357 0.36344 0.35119 0.0
C18 C 0.16017 0.34241 0.33531 0.0
C19 C 0.14631 0.31608 0.32426 0.0
C20 C 0.11563 0.31153 0.32993 0.0
C21 C 0.0989 0.33367 0.34592 0.0
C22 C 0.11396 0.35938 0.3565 0.0
H23 H 0.18376 0.34572 0.33102 0.0
O24 O 0.17228 0.43199 0.28378 0.0
O25 O 0.15478 0.42274 0.33305 0.0
O26 O 0.21906 0.42261 0.33036 0.0
O27 O 0.19911 0.3892 0.36525 0.0
C28 C 0.06787 0.33132 0.35164 0.0
C29 C 0.05235 0.35496 0.36698 0.0
H30 H 0.02996 0.40555 0.39591 0.0
H31 H 0.06041 0.44978 0.41173 0.0
H32 H 0.15929 0.29922 0.31163 0.0
H33 H 0.10514 0.29099 0.32178 0.0
H34 H 0.05563 0.31159 0.344 0.0
H35 H 0.0284 0.35313 0.3707 0.0
Mn36 Mn 0.45338 0.80156 0.67882 0.0
Mn37 Mn 0.39797 0.82117 0.62766 0.0
C38 C 0.4137 0.82968 0.69805 0.0
C39 C 0.50061 0.81099 0.69989 0.0
C40 C 0.40598 0.75868 0.65544 0.0
O41 O 0.47061 0.79328 0.63379 0.0
O42 O 0.43521 0.81474 0.60238 0.0
C43 C 0.41986 0.87999 0.6045 0.0
N44 N 0.39816 0.86316 0.6189 0.0
C45 C 0.36523 0.90564 0.62284 0.0
C46 C 0.38712 0.92341 0.6078 0.0
C47 C 0.41463 0.91055 0.59877 0.0
C48 C 0.37177 0.87537 0.62805 0.0
H49 H 0.44099 0.87015 0.59748 0.0
C50 C 0.46086 0.80242 0.60633 0.0
O51 O 0.48932 0.78418 0.70027 0.0
O52 O 0.48461 0.83209 0.6869 0.0
N53 N 0.36072 0.82835 0.64932 0.0
C54 C 0.3429 0.80866 0.66569 0.0
C55 C 0.31509 0.8183 0.6777 0.0
C56 C 0.30571 0.84793 0.67238 0.0
C57 C 0.32438 0.86774 0.65537 0.0
C58 C 0.35192 0.85691 0.64413 0.0
H59 H 0.3498 0.78577 0.66954 0.0
O60 O 0.43086 0.8152 0.71811 0.0
O61 O 0.42098 0.82805 0.66747 0.0
O62 O 0.42673 0.76477 0.67558 0.0
O63 O 0.39517 0.7776 0.63531 0.0
C64 C 0.31684 0.89785 0.64925 0.0
C65 C 0.33733 0.91686 0.63324 0.0
H66 H 0.38317 0.94699 0.60335 0.0
H67 H 0.43171 0.92415 0.58734 0.0
H68 H 0.30082 0.80288 0.69083 0.0
H69 H 0.28419 0.85526 0.68159 0.0
H70 H 0.29539 0.90667 0.65694 0.0
H71 H 0.33149 0.94012 0.62928 0.0
Mn72 Mn 0.80422 0.55009 0.319 0.0
Mn73 Mn 0.82221 0.6062 0.37006 0.0
C74 C 0.8324 0.58987 0.30015 0.0
C75 C 0.81465 0.50281 0.29836 0.0
C76 C 0.76038 0.59731 0.34085 0.0
O77 O 0.79522 0.53318 0.364 0.0
O78 O 0.8154 0.56922 0.39563 0.0
C79 C 0.88059 0.58503 0.39524 0.0
N80 N 0.86398 0.60641 0.38 0.0
C81 C 0.90636 0.63953 0.37665 0.0
C82 C 0.9239 0.61796 0.39254 0.0
C83 C 0.91099 0.59053 0.40171 0.0
C84 C 0.87624 0.63274 0.37075 0.0
H85 H 0.8707 0.56396 0.40239 0.0
C86 C 0.80345 0.54339 0.39164 0.0
O87 O 0.78771 0.51377 0.29739 0.0
O88 O 0.83527 0.51912 0.31183 0.0
N89 N 0.82964 0.64325 0.34811 0.0
C90 C 0.81022 0.66071 0.33092 0.0
C91 C 0.81999 0.68839 0.31869 0.0
C92 C 0.84945 0.69799 0.3246 0.0
C93 C 0.86898 0.67969 0.34246 0.0
C94 C 0.85804 0.65227 0.35389 0.0
H95 H 0.78746 0.65362 0.32659 0.0
O96 O 0.81846 0.57247 0.27987 0.0
O97 O 0.83016 0.58283 0.33074 0.0
O98 O 0.76702 0.57638 0.32112 0.0
O99 O 0.77883 0.60857 0.36119 0.0
C100 C 0.89891 0.68748 0.34922 0.0
C101 C 0.91766 0.66733 0.36607 0.0
H102 H 0.94736 0.62211 0.39755 0.0
H103 H 0.92442 0.5737 0.41381 0.0
H104 H 0.80479 0.70237 0.3049 0.0
H105 H 0.85689 0.7194 0.31518 0.0
H106 H 0.90779 0.70885 0.34137 0.0
H107 H 0.94081 0.67334 0.37053 0.0
Mn108 Mn 0.55183 0.17885 0.66712 0.0
Mn109 Mn 0.60606 0.15221 0.61781 0.0
C110 C 0.58908 0.14909 0.68843 0.0
C111 C 0.50375 0.17317 0.68788 0.0
C112 C 0.60526 0.21567 0.6445 0.0
O113 O 0.53545 0.18685 0.62212 0.0
O114 O 0.57091 0.16484 0.59147 0.0
C115 C 0.57474 0.09798 0.59411 0.0
N116 N 0.59896 0.11089 0.60858 0.0
C117 C 0.62436 0.06349 0.61213 0.0
C118 C 0.59978 0.04969 0.59707 0.0
C119 C 0.5748 0.067 0.58817 0.0
C120 C 0.62293 0.0944 0.61762 0.0
H121 H 0.55555 0.11124 0.58715 0.0
C122 C 0.54591 0.17854 0.59476 0.0
O123 O 0.51665 0.19929 0.68747 0.0
O124 O 0.51871 0.1508 0.67608 0.0
N125 N 0.6416 0.13878 0.63935 0.0
C126 C 0.66264 0.1552 0.65545 0.0
C127 C 0.68889 0.14117 0.66646 0.0
C128 C 0.69338 0.11053 0.66049 0.0
C129 C 0.67131 0.09403 0.64412 0.0
C130 C 0.64567 0.10924 0.63359 0.0
H131 H 0.65938 0.17877 0.65996 0.0
O132 O 0.57277 0.16572 0.70729 0.0
O133 O 0.58219 0.14923 0.65762 0.0
O134 O 0.58156 0.21342 0.66174 0.0
O135 O 0.6155 0.19447 0.62677 0.0
C136 C 0.67365 0.06306 0.63796 0.0
C137 C 0.65011 0.04776 0.62219 0.0
H138 H 0.59976 0.02581 0.59239 0.0
H139 H 0.55568 0.0565 0.57666 0.0
H140 H 0.70572 0.15399 0.67932 0.0
H141 H 0.71384 0.0999 0.66864 0.0
H142 H 0.69331 0.0507 0.64558 0.0
H143 H 0.65195 0.02386 0.61811 0.0
Mn144 Mn 0.18978 0.57596 0.67267 0.0
Mn145 Mn 0.168 0.63852 0.63332 0.0
C146 C 0.15969 0.61039 0.69871 0.0
C147 C 0.18222 0.5257 0.68442 0.0
C148 C 0.23015 0.62977 0.66166 0.0
O149 O 0.19871 0.56641 0.62562 0.0
O150 O 0.18014 0.60751 0.60105 0.0
C151 C 0.11364 0.61521 0.60071 0.0
N152 N 0.12693 0.63559 0.62071 0.0
C153 C 0.08081 0.66286 0.62687 0.0
C154 C 0.06666 0.64231 0.6061 0.0
C155 C 0.08312 0.61828 0.59313 0.0
C156 C 0.11122 0.65856 0.63366 0.0
H157 H 0.12623 0.59676 0.59063 0.0
C158 C 0.19215 0.58144 0.60026 0.0
O159 O 0.20857 0.53781 0.68707 0.0
O160 O 0.16048 0.54276 0.6747 0.0
N161 N 0.15514 0.67021 0.66141 0.0
C162 C 0.1714 0.68636 0.68331 0.0
C163 C 0.1579 0.71051 0.69958 0.0
C164 C 0.12795 0.71794 0.69295 0.0
C165 C 0.11159 0.70082 0.67053 0.0
C166 C 0.1262 0.67698 0.65513 0.0
H167 H 0.19442 0.68075 0.68846 0.0
O168 O 0.17537 0.59133 0.7154 0.0
O169 O 0.16171 0.60837 0.66721 0.0
O170 O 0.22577 0.60401 0.67405 0.0
O171 O 0.21029 0.64422 0.64572 0.0
C172 C 0.08129 0.70631 0.66302 0.0
C173 C 0.06584 0.68721 0.64141 0.0
H174 H 0.04313 0.64461 0.6002 0.0
H175 H 0.07233 0.60223 0.57725 0.0
H176 H 0.17059 0.72343 0.7171 0.0
H177 H 0.11767 0.73668 0.70544 0.0
H178 H 0.06958 0.72501 0.67393 0.0
H179 H 0.04238 0.69129 0.63638 0.0
Mn180 Mn 0.57491 0.81143 0.32888 0.0
Mn181 Mn 0.63767 0.83198 0.36886 0.0
C182 C 0.60953 0.84202 0.30381 0.0
C183 C 0.52477 0.81937 0.31628 0.0
C184 C 0.6293 0.77101 0.33772 0.0
O185 O 0.56509 0.80126 0.37564 0.0
O186 O 0.60706 0.81755 0.40038 0.0
C187 C 0.61315 0.88411 0.40458 0.0
N188 N 0.6339 0.87227 0.38398 0.0
C189 C 0.66037 0.9191 0.381 0.0
C190 C 0.63943 0.93176 0.40242 0.0
C191 C 0.61562 0.91423 0.4141 0.0
C192 C 0.65664 0.88904 0.37223 0.0
H193 H 0.59487 0.87068 0.4137 0.0
C194 C 0.5808 0.80599 0.40102 0.0
O195 O 0.53687 0.79304 0.31342 0.0
O196 O 0.54165 0.8408 0.32715 0.0
N197 N 0.66924 0.84687 0.34185 0.0
C198 C 0.68602 0.83199 0.31937 0.0
C199 C 0.71016 0.84668 0.30438 0.0
C200 C 0.71701 0.87636 0.31297 0.0
C201 C 0.6993 0.89129 0.33603 0.0
C202 C 0.67549 0.87553 0.35007 0.0
H203 H 0.68091 0.80915 0.31281 0.0
O204 O 0.59048 0.82674 0.28667 0.0
O205 O 0.60742 0.83941 0.33528 0.0
O206 O 0.60303 0.77543 0.3266 0.0
O207 O 0.64407 0.79057 0.35379 0.0
C208 C 0.7042 0.92123 0.34551 0.0
C209 C 0.68461 0.93521 0.36777 0.0
H210 H 0.64129 0.95497 0.40984 0.0
H211 H 0.59927 0.92388 0.43049 0.0
H212 H 0.72357 0.83511 0.2864 0.0
H213 H 0.73579 0.88753 0.30154 0.0
H214 H 0.7228 0.93384 0.3356 0.0
H215 H 0.68826 0.95842 0.37433 0.0
Mn216 Mn 0.80458 0.41939 0.66701 0.0
Mn217 Mn 0.82246 0.35838 0.62307 0.0
C218 C 0.83454 0.38274 0.68967 0.0
C219 C 0.81397 0.46873 0.68151 0.0
C220 C 0.76119 0.36954 0.65261 0.0
O221 O 0.79428 0.4311 0.62045 0.0
O222 O 0.8138 0.39195 0.59289 0.0
C223 C 0.87934 0.37762 0.59257 0.0
N224 N 0.86389 0.35797 0.61155 0.0
C225 C 0.90738 0.32673 0.6181 0.0
C226 C 0.92373 0.34652 0.59844 0.0
C227 C 0.90968 0.37215 0.58577 0.0
C228 C 0.87724 0.33338 0.62409 0.0
H229 H 0.86858 0.39729 0.58273 0.0
C230 C 0.8016 0.41793 0.594 0.0
O231 O 0.78741 0.45716 0.68429 0.0
O232 O 0.8349 0.45177 0.66961 0.0
N233 N 0.83166 0.32455 0.64983 0.0
C234 C 0.81344 0.30913 0.67049 0.0
C235 C 0.82454 0.28373 0.68661 0.0
C236 C 0.85409 0.27424 0.68102 0.0
C237 C 0.87238 0.29043 0.65957 0.0
C238 C 0.86018 0.3157 0.64441 0.0
H239 H 0.79065 0.31619 0.67469 0.0
O240 O 0.82036 0.40158 0.70818 0.0
O241 O 0.83106 0.38634 0.65852 0.0
O242 O 0.76786 0.39257 0.66921 0.0
O243 O 0.77938 0.35603 0.6337 0.0
C244 C 0.90231 0.28265 0.65286 0.0
C245 C 0.91989 0.3009 0.63235 0.0
H246 H 0.94714 0.34241 0.59318 0.0
H247 H 0.9222 0.38762 0.57073 0.0
H248 H 0.8103 0.27141 0.70321 0.0
H249 H 0.86257 0.25462 0.69349 0.0
H250 H 0.91212 0.2628 0.66358 0.0
H251 H 0.94307 0.29503 0.62795 0.0
Mn252 Mn 0.42003 0.19623 0.32117 0.0
Mn253 Mn 0.35904 0.17802 0.36467 0.0
C254 C 0.38312 0.16721 0.29761 0.0
C255 C 0.4694 0.18665 0.30733 0.0
C256 C 0.37135 0.24001 0.33749 0.0
O257 O 0.43174 0.20521 0.36801 0.0
O258 O 0.39302 0.18433 0.39504 0.0
C259 C 0.37642 0.11943 0.39253 0.0
N260 N 0.35735 0.13619 0.37418 0.0
C261 C 0.32493 0.09393 0.36534 0.0
C262 C 0.3441 0.07624 0.38434 0.0
C263 C 0.37004 0.08902 0.39785 0.0
C264 C 0.33245 0.12408 0.36088 0.0
H265 H 0.39634 0.1292 0.40302 0.0
C266 C 0.41905 0.19645 0.39419 0.0
O267 O 0.45812 0.21335 0.30477 0.0
O268 O 0.452 0.1656 0.31817 0.0
N269 N 0.32499 0.17094 0.33745 0.0
C270 C 0.31022 0.19039 0.31757 0.0
C271 C 0.28465 0.18067 0.3007 0.0
C272 C 0.27435 0.15117 0.30472 0.0
C273 C 0.28989 0.13159 0.32537 0.0
C274 C 0.31536 0.14246 0.34133 0.0
H275 H 0.31791 0.21313 0.31454 0.0
O276 O 0.40218 0.18154 0.2795 0.0
O277 O 0.38672 0.17003 0.32883 0.0
O278 O 0.39367 0.23324 0.31984 0.0
O279 O 0.35797 0.2216 0.35624 0.0
C280 C 0.28127 0.10162 0.3305 0.0
C281 C 0.29888 0.08273 0.35028 0.0
H282 H 0.3393 0.05276 0.38842 0.0
H283 H 0.38505 0.07547 0.41237 0.0
H284 H 0.27285 0.1959 0.28473 0.0
H285 H 0.25462 0.14374 0.29167 0.0
H286 H 0.26129 0.09279 0.31905 0.0
H287 H 0.29236 0.05955 0.35345 0.0
Mn288 Mn 0.69884 0.94057 0.83556 0.0
Mn289 Mn 0.68219 0.8844 0.88687 0.0
C290 C 0.67205 0.90002 0.81684 0.0
C291 C 0.68683 0.98721 0.81478 0.0
C292 C 0.74375 0.89446 0.85749 0.0
O293 O 0.70731 0.95797 0.88027 0.0
O294 O 0.68811 0.92175 0.91232 0.0
C295 C 0.62326 0.90454 0.91156 0.0
N296 N 0.64034 0.88344 0.89645 0.0
C297 C 0.59812 0.85031 0.89108 0.0
C298 C 0.58013 0.87158 0.90686 0.0
C299 C 0.59274 0.89886 0.91703 0.0
C300 C 0.6284 0.85719 0.88638 0.0
H301 H 0.63285 0.92558 0.91929 0.0
C302 C 0.69933 0.94788 0.90799 0.0
O303 O 0.71416 0.97723 0.81375 0.0
O304 O 0.66681 0.97034 0.82843 0.0
N305 N 0.67558 0.84715 0.86489 0.0
C306 C 0.69544 0.83 0.8479 0.0
C307 C 0.68601 0.80257 0.8347 0.0
C308 C 0.65637 0.79292 0.83934 0.0
C309 C 0.63641 0.81084 0.85709 0.0
C310 C 0.64707 0.83797 0.86968 0.0
H311 H 0.71827 0.8372 0.84433 0.0
O312 O 0.68549 0.91772 0.7965 0.0
O313 O 0.67389 0.90729 0.8474 0.0
O314 O 0.73662 0.91532 0.83789 0.0
O315 O 0.72564 0.8829 0.87802 0.0
C316 C 0.60625 0.80303 0.86245 0.0
C317 C 0.58707 0.82281 0.87928 0.0
H318 H 0.55654 0.86734 0.91097 0.0
H319 H 0.57895 0.91547 0.92901 0.0
H320 H 0.70156 0.78888 0.82101 0.0
H321 H 0.64914 0.7718 0.829 0.0
H322 H 0.5975 0.78197 0.85348 0.0
H323 H 0.56377 0.8168 0.88268 0.0
Mn324 Mn 0.94453 0.3052 0.15921 0.0
Mn325 Mn 0.88574 0.32016 0.11082 0.0
C326 C 0.90464 0.33201 0.17964 0.0
C327 C 0.99197 0.31784 0.1773 0.0
C328 C 0.89805 0.25931 0.14093 0.0
O329 O 0.95978 0.29594 0.11372 0.0
O330 O 0.92184 0.31414 0.08335 0.0
C331 C 0.90386 0.37882 0.08368 0.0
N332 N 0.88374 0.36178 0.10034 0.0
C333 C 0.85021 0.40361 0.10637 0.0
C334 C 0.87045 0.42155 0.08902 0.0
C335 C 0.89744 0.40912 0.07775 0.0
C336 C 0.85781 0.37356 0.11151 0.0
H337 H 0.92466 0.36935 0.07507 0.0
C338 C 0.94821 0.30315 0.08642 0.0
O339 O 0.98221 0.29048 0.17926 0.0
O340 O 0.97444 0.33755 0.16409 0.0
N341 N 0.84952 0.32675 0.13473 0.0
C342 C 0.83347 0.30702 0.15308 0.0
C343 C 0.80648 0.31631 0.16741 0.0
C344 C 0.79612 0.34566 0.16248 0.0
C345 C 0.81292 0.3655 0.14333 0.0
C346 C 0.83966 0.35499 0.12969 0.0
H347 H 0.8412 0.28438 0.15685 0.0
O348 O 0.92346 0.31914 0.19921 0.0
O349 O 0.91042 0.32963 0.14873 0.0
O350 O 0.91964 0.26713 0.15922 0.0
O351 O 0.88525 0.27686 0.1207 0.0
C352 C 0.80434 0.39538 0.13753 0.0
C353 C 0.82305 0.41448 0.11924 0.0
H354 H 0.86563 0.44496 0.08451 0.0
H355 H 0.91326 0.42288 0.06454 0.0
H356 H 0.79367 0.30086 0.18218 0.0
H357 H 0.77533 0.35277 0.17365 0.0
H358 H 0.78351 0.40397 0.14724 0.0
H359 H 0.81648 0.43758 0.1155 0.0
Mn360 Mn 0.30375 0.0497 0.82609 0.0
Mn361 Mn 0.31966 0.10846 0.87431 0.0
C362 C 0.33064 0.08953 0.8054 0.0
C363 C 0.31608 0.00189 0.8083 0.0
C364 C 0.25834 0.09654 0.84508 0.0
O365 O 0.29498 0.03452 0.87183 0.0
O366 O 0.31401 0.07236 0.90176 0.0
C367 C 0.37869 0.09012 0.90032 0.0
N368 N 0.36145 0.11033 0.88404 0.0
C369 C 0.40327 0.14375 0.87735 0.0
C370 C 0.42142 0.12343 0.89432 0.0
C371 C 0.4091 0.09644 0.90572 0.0
C372 C 0.37312 0.13625 0.87274 0.0
H373 H 0.36931 0.06932 0.90903 0.0
C374 C 0.30292 0.046 0.89896 0.0
O375 O 0.28879 0.01182 0.80632 0.0
O376 O 0.33594 0.01957 0.82102 0.0
N377 N 0.32598 0.14469 0.85035 0.0
C378 C 0.30601 0.16084 0.8324 0.0
C379 C 0.31517 0.18782 0.81796 0.0
C380 C 0.34463 0.19808 0.82238 0.0
C381 C 0.3647 0.1812 0.84116 0.0
C382 C 0.35432 0.15447 0.85493 0.0
H383 H 0.2833 0.1532 0.82903 0.0
O384 O 0.31755 0.07076 0.78591 0.0
O385 O 0.32841 0.08373 0.83627 0.0
O386 O 0.26577 0.07495 0.82652 0.0
O387 O 0.27621 0.10907 0.86519 0.0
C388 C 0.39468 0.18969 0.84647 0.0
C389 C 0.41402 0.1709 0.86437 0.0
H390 H 0.44492 0.12816 0.89841 0.0
H391 H 0.42302 0.08055 0.91863 0.0
H392 H 0.29953 0.2007 0.8035 0.0
H393 H 0.35164 0.21885 0.81111 0.0
H394 H 0.40318 0.21052 0.83665 0.0
H395 H 0.43719 0.1774 0.8677 0.0
Mn396 Mn 0.05286 0.69902 0.17079 0.0
Mn397 Mn 0.10968 0.68293 0.11998 0.0
C398 C 0.09398 0.67321 0.19 0.0
C399 C 0.00596 0.68631 0.19093 0.0
C400 C 0.09819 0.74464 0.14841 0.0
O401 O 0.03556 0.70654 0.12572 0.0
O402 O 0.0723 0.68734 0.09438 0.0
C403 C 0.09118 0.62305 0.09645 0.0
N404 N 0.1118 0.64096 0.11122 0.0
C405 C 0.14613 0.5998 0.11725 0.0
C406 C 0.12538 0.58096 0.10182 0.0
C407 C 0.09773 0.59262 0.09151 0.0
C408 C 0.13837 0.62994 0.12146 0.0
H409 H 0.06987 0.63191 0.08859 0.0
C410 C 0.04589 0.69799 0.09828 0.0
O411 O 0.01555 0.71378 0.192 0.0
O412 O 0.02352 0.66647 0.178 0.0
N413 N 0.14704 0.67769 0.14217 0.0
C414 C 0.16365 0.69829 0.15876 0.0
C415 C 0.19136 0.68985 0.17205 0.0
C416 C 0.20186 0.66044 0.16788 0.0
C417 C 0.1845 0.63972 0.1505 0.0
C418 C 0.15705 0.6494 0.13783 0.0
H419 H 0.15583 0.72097 0.16193 0.0
O420 O 0.07586 0.68635 0.21017 0.0
O421 O 0.08678 0.67471 0.15944 0.0
O422 O 0.07751 0.73731 0.16819 0.0
O423 O 0.11 0.72655 0.128 0.0
C424 C 0.19321 0.60974 0.14556 0.0
C425 C 0.17397 0.58974 0.12913 0.0
H426 H 0.1303 0.55745 0.0981 0.0
H427 H 0.08151 0.57818 0.0798 0.0
H428 H 0.20461 0.70599 0.18544 0.0
H429 H 0.2232 0.65398 0.17829 0.0
H430 H 0.21455 0.60176 0.15457 0.0
H431 H 0.18067 0.56659 0.12609 0.0
Mn432 Mn 0.68551 0.0764 0.17775 0.0
Mn433 Mn 0.66411 0.13674 0.13418 0.0
C434 C 0.65463 0.11176 0.20098 0.0
C435 C 0.67838 0.02675 0.19238 0.0
C436 C 0.72544 0.13025 0.16502 0.0
O437 O 0.69576 0.06461 0.13167 0.0
O438 O 0.67813 0.10455 0.10425 0.0
C439 C 0.61149 0.1105 0.10084 0.0
N440 N 0.62363 0.13225 0.11998 0.0
C441 C 0.57696 0.15909 0.12183 0.0
C442 C 0.564 0.13712 0.10189 0.0
C443 C 0.5813 0.11262 0.09153 0.0
C444 C 0.60708 0.15567 0.13049 0.0
H445 H 0.62476 0.0917 0.09275 0.0
C446 C 0.69035 0.0786 0.10534 0.0
O447 O 0.70451 0.03936 0.19483 0.0
O448 O 0.65659 0.04296 0.18115 0.0
N449 N 0.64958 0.16959 0.15958 0.0
C450 C 0.66471 0.18734 0.18096 0.0
C451 C 0.65024 0.21224 0.19472 0.0
C452 C 0.62053 0.21881 0.18604 0.0
C453 C 0.60534 0.20009 0.16415 0.0
C454 C 0.62088 0.17555 0.15134 0.0
H455 H 0.68759 0.18245 0.18755 0.0
O456 O 0.6701 0.09367 0.2191 0.0
O457 O 0.65719 0.10822 0.16965 0.0
O458 O 0.72115 0.10487 0.17831 0.0
O459 O 0.70577 0.14392 0.14804 0.0
C460 C 0.57535 0.20467 0.15469 0.0
C461 C 0.56109 0.18406 0.13376 0.0
H462 H 0.54073 0.13871 0.09463 0.0
H463 H 0.57142 0.09548 0.0763 0.0
H464 H 0.66202 0.22644 0.21181 0.0
H465 H 0.60953 0.23817 0.1965 0.0
H466 H 0.56291 0.2238 0.16361 0.0
H467 H 0.53784 0.18749 0.12723 0.0
Mn468 Mn 0.07242 0.30857 0.81136 0.0
Mn469 Mn 0.13189 0.33135 0.85566 0.0
C470 C 0.10802 0.33945 0.78823 0.0
C471 C 0.02289 0.31493 0.79533 0.0
C472 C 0.1265 0.26932 0.82613 0.0
O473 O 0.05975 0.29927 0.85755 0.0
O474 O 0.09924 0.31776 0.8851 0.0
C475 C 0.1047 0.38443 0.88722 0.0
N476 N 0.12689 0.37206 0.86888 0.0
C477 C 0.15368 0.41876 0.86695 0.0
C478 C 0.13125 0.43197 0.88607 0.0
C479 C 0.10655 0.41477 0.89605 0.0
C480 C 0.15049 0.38851 0.8587 0.0
H481 H 0.08576 0.37124 0.89506 0.0
C482 C 0.07331 0.30553 0.88398 0.0
O483 O 0.03583 0.28891 0.79377 0.0
O484 O 0.03868 0.33708 0.80645 0.0
N485 N 0.16512 0.34562 0.83071 0.0
C486 C 0.18336 0.33022 0.81005 0.0
C487 C 0.20853 0.34453 0.79673 0.0
C488 C 0.21488 0.37438 0.80512 0.0
C489 C 0.19565 0.38985 0.82622 0.0
C490 C 0.17084 0.37446 0.8386 0.0
H491 H 0.17865 0.30725 0.8037 0.0
O492 O 0.09045 0.32342 0.77005 0.0
O493 O 0.10389 0.33735 0.81949 0.0
O494 O 0.10126 0.27311 0.81229 0.0
O495 O 0.13967 0.28949 0.84292 0.0
C496 C 0.19999 0.41997 0.83534 0.0
C497 C 0.1789 0.43449 0.85546 0.0
H498 H 0.13264 0.45534 0.89298 0.0
H499 H 0.08906 0.42483 0.91065 0.0
H500 H 0.22313 0.33254 0.78023 0.0
H501 H 0.23447 0.38525 0.79502 0.0
H502 H 0.21934 0.43228 0.8268 0.0
H503 H 0.18216 0.45784 0.86172 0.0
Mn504 Mn 0.31236 0.92852 0.17721 0.0
Mn505 Mn 0.33585 0.86783 0.13539 0.0
C506 C 0.34299 0.89375 0.2022 0.0
C507 C 0.31799 0.97853 0.19157 0.0
C508 C 0.27342 0.87395 0.16364 0.0
O509 O 0.30353 0.93967 0.13046 0.0
O510 O 0.32255 0.89951 0.10452 0.0
C511 C 0.38929 0.89426 0.10385 0.0
N512 N 0.37673 0.87259 0.12276 0.0
C513 C 0.42355 0.8462 0.12669 0.0
C514 C 0.43696 0.86809 0.10704 0.0
C515 C 0.41979 0.89233 0.09575 0.0
C516 C 0.39314 0.84944 0.13417 0.0
H517 H 0.37612 0.91283 0.095 0.0
C518 C 0.31009 0.92536 0.10459 0.0
O519 O 0.2921 0.96537 0.1931 0.0
O520 O 0.3405 0.96267 0.18143 0.0
N521 N 0.34982 0.83538 0.16171 0.0
C522 C 0.3341 0.81758 0.1825 0.0
C523 C 0.34829 0.79286 0.19693 0.0
C524 C 0.37833 0.78649 0.18949 0.0
C525 C 0.39411 0.80526 0.16817 0.0
C526 C 0.37883 0.82962 0.15465 0.0
H527 H 0.31094 0.82225 0.18805 0.0
O528 O 0.32669 0.91189 0.2194 0.0
O529 O 0.34139 0.89689 0.17073 0.0
O530 O 0.27711 0.89952 0.17677 0.0
O531 O 0.29378 0.86029 0.14761 0.0
C532 C 0.42443 0.80085 0.15991 0.0
C533 C 0.43921 0.82144 0.13941 0.0
H534 H 0.46046 0.86664 0.10068 0.0
H535 H 0.43001 0.9094 0.08071 0.0
H536 H 0.33603 0.7786 0.21355 0.0
H537 H 0.3891 0.76723 0.20043 0.0
H538 H 0.43671 0.78185 0.1694 0.0
H539 H 0.46269 0.81814 0.13379 0.0
Mn540 Mn 0.92365 0.6784 0.82512 0.0
Mn541 Mn 0.86263 0.65538 0.86655 0.0
C542 C 0.88904 0.64799 0.79992 0.0
C543 C 0.97366 0.67263 0.81144 0.0
C544 C 0.86929 0.7176 0.83804 0.0
O545 O 0.93431 0.68758 0.87179 0.0
O546 O 0.89408 0.66878 0.89777 0.0
C547 C 0.88864 0.60197 0.89853 0.0
N548 N 0.86719 0.61451 0.87932 0.0
C549 C 0.84096 0.56764 0.87484 0.0
C550 C 0.86264 0.55424 0.89479 0.0
C551 C 0.88668 0.57146 0.90652 0.0
C552 C 0.84421 0.59808 0.86753 0.0
H553 H 0.90708 0.61517 0.90769 0.0
C554 C 0.91985 0.68141 0.89762 0.0
O555 O 0.96058 0.69856 0.80967 0.0
O556 O 0.9577 0.65016 0.82148 0.0
N557 N 0.83037 0.64142 0.83992 0.0
C558 C 0.81273 0.65718 0.81898 0.0
C559 C 0.78821 0.64297 0.80416 0.0
C560 C 0.78186 0.61288 0.81136 0.0
C561 C 0.80043 0.59708 0.83287 0.0
C562 C 0.82459 0.61239 0.84681 0.0
H563 H 0.81739 0.68037 0.8136 0.0
O564 O 0.90747 0.66406 0.78286 0.0
O565 O 0.8919 0.64958 0.83144 0.0
O566 O 0.89484 0.71365 0.82504 0.0
O567 O 0.85538 0.69745 0.85412 0.0
C568 C 0.79604 0.56671 0.84091 0.0
C569 C 0.81642 0.55193 0.86166 0.0
H570 H 0.86117 0.53072 0.90105 0.0
H571 H 0.90359 0.56125 0.92179 0.0
H572 H 0.77409 0.65524 0.78741 0.0
H573 H 0.76276 0.60209 0.80011 0.0
H574 H 0.77724 0.55438 0.83102 0.0
H575 H 0.81314 0.52843 0.86712 0.0
C576 C 0.247 0.35074 0.35703 0.0
C577 C 0.24819 0.38059 0.34648 0.0
C578 C 0.27154 0.33169 0.35349 0.0
C579 C 0.29846 0.34298 0.34012 0.0
C580 C 0.30041 0.37338 0.33064 0.0
C581 C 0.27501 0.39181 0.33347 0.0
C582 C 0.26832 0.29922 0.36347 0.0
C583 C 0.32911 0.38628 0.31724 0.0
C584 C 0.35907 0.28873 0.36262 0.0
C585 C 0.35903 0.2702 0.33521 0.0
C586 C 0.34216 0.31513 0.36302 0.0
C587 C 0.32398 0.32218 0.33584 0.0
C588 C 0.32584 0.30464 0.30715 0.0
C589 C 0.34373 0.27885 0.3071 0.0
C590 C 0.3415 0.3338 0.39365 0.0
C591 C 0.30639 0.31102 0.27791 0.0
H592 H 0.22651 0.34183 0.3673 0.0
H593 H 0.27615 0.41493 0.32554 0.0
H594 H 0.27356 0.28435 0.34257 0.0
H595 H 0.2844 0.29391 0.3832 0.0
H596 H 0.24539 0.29385 0.3722 0.0
H597 H 0.32783 0.41096 0.31414 0.0
H598 H 0.34812 0.38094 0.33366 0.0
H599 H 0.33413 0.37602 0.29327 0.0
H600 H 0.37122 0.28185 0.38423 0.0
H601 H 0.34381 0.26419 0.28603 0.0
H602 H 0.32108 0.32832 0.40784 0.0
H603 H 0.34071 0.35804 0.38774 0.0
H604 H 0.36133 0.32941 0.40928 0.0
H605 H 0.28304 0.30411 0.28334 0.0
H606 H 0.31408 0.29861 0.256 0.0
H607 H 0.30607 0.3353 0.2723 0.0
C608 C 0.37829 0.71653 0.63031 0.0
C609 C 0.39039 0.72987 0.65818 0.0
C610 C 0.35655 0.69411 0.63295 0.0
C611 C 0.34622 0.68565 0.66419 0.0
C612 C 0.36064 0.69682 0.69237 0.0
C613 C 0.38291 0.71873 0.68899 0.0
C614 C 0.34235 0.682 0.60229 0.0
C615 C 0.35021 0.68842 0.72609 0.0
C616 C 0.26249 0.67494 0.66457 0.0
C617 C 0.25987 0.64371 0.66532 0.0
C618 C 0.29054 0.68876 0.66587 0.0
C619 C 0.31668 0.67083 0.66705 0.0
C620 C 0.31425 0.63928 0.66865 0.0
C621 C 0.28573 0.62604 0.66808 0.0
C622 C 0.29215 0.72259 0.66487 0.0
C623 C 0.34166 0.61951 0.66939 0.0
H624 H 0.38444 0.72498 0.60648 0.0
H625 H 0.39228 0.72915 0.71056 0.0
H626 H 0.33827 0.65757 0.60441 0.0
H627 H 0.32038 0.69307 0.59843 0.0
H628 H 0.35653 0.6862 0.58054 0.0
H629 H 0.36734 0.69381 0.74482 0.0
H630 H 0.32952 0.70113 0.7319 0.0
H631 H 0.34474 0.66423 0.72757 0.0
H632 H 0.24257 0.68869 0.66265 0.0
H633 H 0.28374 0.60184 0.66846 0.0
H634 H 0.3026 0.72991 0.6417 0.0
H635 H 0.30634 0.73108 0.68505 0.0
H636 H 0.2697 0.73318 0.66679 0.0
H637 H 0.35248 0.61972 0.64508 0.0
H638 H 0.33603 0.59597 0.67565 0.0
H639 H 0.35831 0.62802 0.68717 0.0
C640 C 0.62605 0.71561 0.32897 0.0
C641 C 0.64347 0.74158 0.33246 0.0
C642 C 0.6396 0.68726 0.32728 0.0
C643 C 0.67119 0.68512 0.32863 0.0
C644 C 0.68884 0.71143 0.3303 0.0
C645 C 0.67474 0.73928 0.33258 0.0
C646 C 0.6201 0.65969 0.32585 0.0
C647 C 0.72269 0.71016 0.33108 0.0
C648 C 0.71738 0.62398 0.36544 0.0
C649 C 0.73129 0.61233 0.33768 0.0
C650 C 0.69462 0.64534 0.36267 0.0
C651 C 0.68632 0.65572 0.33139 0.0
C652 C 0.69803 0.64163 0.30326 0.0
C653 C 0.72037 0.61977 0.30677 0.0
C654 C 0.68199 0.65918 0.39327 0.0
C655 C 0.68969 0.65201 0.26952 0.0
H656 H 0.60183 0.71732 0.32898 0.0
H657 H 0.68831 0.75928 0.33496 0.0
H658 H 0.6292 0.64309 0.30835 0.0
H659 H 0.61968 0.6489 0.35017 0.0
H660 H 0.5967 0.66518 0.31882 0.0
H661 H 0.73303 0.73275 0.32947 0.0
H662 H 0.73023 0.69951 0.35406 0.0
H663 H 0.73124 0.69633 0.31065 0.0
H664 H 0.72566 0.61784 0.38935 0.0
H665 H 0.73121 0.61072 0.28529 0.0
H666 H 0.6575 0.66271 0.39095 0.0
H667 H 0.69254 0.68139 0.39728 0.0
H668 H 0.68636 0.64505 0.41501 0.0
H669 H 0.66545 0.65723 0.2679 0.0
H670 H 0.69535 0.63495 0.2508 0.0
H671 H 0.70221 0.67283 0.26381 0.0
C672 C 0.61182 0.26969 0.66044 0.0
C673 C 0.62332 0.24337 0.6465 0.0
C674 C 0.62979 0.2954 0.66351 0.0
C675 C 0.66 0.29433 0.65314 0.0
C676 C 0.67159 0.26789 0.63895 0.0
C677 C 0.65301 0.24299 0.63537 0.0
C678 C 0.61661 0.32354 0.67797 0.0
C679 C 0.70386 0.26562 0.62794 0.0
C680 C 0.71179 0.3567 0.62955 0.0
C681 C 0.73133 0.35669 0.65611 0.0
C682 C 0.68584 0.3391 0.62995 0.0
C683 C 0.68023 0.32036 0.65706 0.0
C684 C 0.69873 0.32228 0.68502 0.0
C685 C 0.7241 0.34074 0.68427 0.0
C686 C 0.6662 0.3383 0.60006 0.0
C687 C 0.69382 0.30233 0.71419 0.0
H688 H 0.58883 0.27022 0.66889 0.0
H689 H 0.66217 0.22287 0.62447 0.0
H690 H 0.62791 0.32879 0.70132 0.0
H691 H 0.62045 0.34281 0.66143 0.0
H692 H 0.59218 0.3214 0.68254 0.0
H693 H 0.70954 0.24299 0.61852 0.0
H694 H 0.7083 0.28219 0.60843 0.0
H695 H 0.71912 0.27083 0.6485 0.0
H696 H 0.7176 0.36931 0.60788 0.0
H697 H 0.73953 0.34084 0.70467 0.0
H698 H 0.6422 0.3368 0.60688 0.0
H699 H 0.67174 0.31818 0.58538 0.0
H700 H 0.66956 0.35841 0.58456 0.0
H701 H 0.66974 0.30111 0.7206 0.0
H702 H 0.70658 0.31023 0.73577 0.0
H703 H 0.70138 0.27928 0.70822 0.0
C704 C 0.78256 0.8729 0.82138 0.0
C705 C 0.7725 0.87913 0.85297 0.0
C706 C 0.80377 0.85032 0.81595 0.0
C707 C 0.81534 0.8343 0.84286 0.0
C708 C 0.80817 0.84338 0.87494 0.0
C709 C 0.78644 0.86552 0.87962 0.0
C710 C 0.81088 0.8413 0.7814 0.0
C711 C 0.82083 0.82745 0.90428 0.0
C712 C 0.8244 0.7505 0.83753 0.0
C713 C 0.85555 0.74748 0.83575 0.0
C714 C 0.81106 0.77881 0.83815 0.0
C715 C 0.82943 0.80469 0.83779 0.0
C716 C 0.86085 0.80185 0.83498 0.0
C717 C 0.87358 0.77315 0.83371 0.0
C718 C 0.77731 0.78097 0.84037 0.0
C719 C 0.8811 0.82893 0.83501 0.0
H720 H 0.77169 0.88343 0.80073 0.0
H721 H 0.77884 0.87068 0.90407 0.0
H722 H 0.83484 0.83527 0.77872 0.0
H723 H 0.79742 0.82127 0.77489 0.0
H724 H 0.80542 0.85944 0.76387 0.0
H725 H 0.81759 0.84063 0.92696 0.0
H726 H 0.80937 0.80556 0.90726 0.0
H727 H 0.84508 0.82296 0.90105 0.0
H728 H 0.81042 0.73069 0.83885 0.0
H729 H 0.89773 0.77084 0.83255 0.0
H730 H 0.76855 0.79619 0.82126 0.0
H731 H 0.77083 0.79052 0.8643 0.0
H732 H 0.76626 0.75882 0.83765 0.0
H733 H 0.87231 0.84658 0.81861 0.0
H734 H 0.9043 0.82322 0.82745 0.0
H735 H 0.88193 0.83852 0.85992 0.0
C736 C 0.78105 0.12655 0.16988 0.0
C737 C 0.75515 0.14424 0.16804 0.0
C738 C 0.80957 0.13969 0.1684 0.0
C739 C 0.81196 0.17117 0.16558 0.0
C740 C 0.78583 0.18918 0.16587 0.0
C741 C 0.75774 0.17544 0.16667 0.0
C742 C 0.83689 0.1198 0.16782 0.0
C743 C 0.78745 0.22297 0.16373 0.0
C744 C 0.87922 0.22017 0.17846 0.0
C745 C 0.88376 0.23018 0.14653 0.0
C746 C 0.85776 0.1981 0.18513 0.0
C747 C 0.84112 0.1857 0.1591 0.0
C748 C 0.84868 0.19287 0.12657 0.0
C749 C 0.86971 0.21543 0.12066 0.0
C750 C 0.85044 0.19092 0.22012 0.0
C751 C 0.8321 0.17934 0.0981 0.0
H752 H 0.77905 0.10236 0.17077 0.0
H753 H 0.73775 0.18916 0.16555 0.0
H754 H 0.84508 0.1178 0.14241 0.0
H755 H 0.85532 0.12949 0.18256 0.0
H756 H 0.83183 0.09695 0.17699 0.0
H757 H 0.76524 0.23369 0.16737 0.0
H758 H 0.80317 0.23192 0.18225 0.0
H759 H 0.79604 0.22964 0.13945 0.0
H760 H 0.89016 0.23161 0.1985 0.0
H761 H 0.87363 0.22296 0.09592 0.0
H762 H 0.84508 0.16683 0.22318 0.0
H763 H 0.83044 0.20397 0.22763 0.0
H764 H 0.86923 0.19685 0.23665 0.0
H765 H 0.82862 0.15498 0.10179 0.0
H766 H 0.84428 0.1828 0.07482 0.0
H767 H 0.80972 0.18999 0.09599 0.0
C768 C 0.17243 0.2379 0.82585 0.0
C769 C 0.1412 0.23985 0.82352 0.0
C770 C 0.18684 0.21011 0.82609 0.0
C771 C 0.16951 0.18356 0.82486 0.0
C772 C 0.13802 0.18531 0.8215 0.0
C773 C 0.1242 0.21356 0.82056 0.0
C774 C 0.22061 0.20923 0.8289 0.0
C775 C 0.11884 0.15749 0.8206 0.0
C776 C 0.21954 0.11745 0.8084 0.0
C777 C 0.22925 0.11117 0.84009 0.0
C778 C 0.19749 0.13924 0.80286 0.0
C779 C 0.18474 0.15442 0.82975 0.0
C780 C 0.19181 0.14528 0.86183 0.0
C781 C 0.2144 0.124 0.86663 0.0
C782 C 0.19061 0.14839 0.76831 0.0
C783 C 0.17801 0.16029 0.89115 0.0
H784 H 0.18567 0.25815 0.82791 0.0
H785 H 0.10001 0.21502 0.81896 0.0
H786 H 0.22709 0.19969 0.85282 0.0
H787 H 0.23025 0.19458 0.80975 0.0
H788 H 0.23084 0.23183 0.82668 0.0
H789 H 0.09557 0.16244 0.81268 0.0
H790 H 0.12857 0.14045 0.80403 0.0
H791 H 0.11796 0.14748 0.84529 0.0
H792 H 0.23117 0.10758 0.78785 0.0
H793 H 0.2218 0.11885 0.89115 0.0
H794 H 0.20332 0.16905 0.76239 0.0
H795 H 0.16646 0.15344 0.76521 0.0
H796 H 0.19713 0.13071 0.75062 0.0
H797 H 0.18845 0.18261 0.89468 0.0
H798 H 0.18144 0.14698 0.91369 0.0
H799 H 0.15364 0.16376 0.8875 0.0
C800 C 0.21771 0.87703 0.16883 0.0
C801 C 0.24376 0.85961 0.16612 0.0
C802 C 0.18927 0.86363 0.16813 0.0
C803 C 0.18704 0.83215 0.16524 0.0
C804 C 0.21333 0.81441 0.16407 0.0
C805 C 0.24135 0.8284 0.16411 0.0
C806 C 0.16173 0.88323 0.16894 0.0
C807 C 0.21191 0.78063 0.16173 0.0
C808 C 0.12017 0.78381 0.18386 0.0
C809 C 0.11313 0.77371 0.15249 0.0
C810 C 0.14256 0.80539 0.18856 0.0
C811 C 0.1576 0.81732 0.16115 0.0
C812 C 0.14773 0.80997 0.12939 0.0
C813 C 0.12582 0.78787 0.12542 0.0
C814 C 0.15247 0.8126 0.2228 0.0
C815 C 0.16259 0.82291 0.09953 0.0
H816 H 0.21951 0.90121 0.17018 0.0
H817 H 0.26142 0.81485 0.16225 0.0
H818 H 0.15114 0.88336 0.14451 0.0
H819 H 0.14497 0.87429 0.18634 0.0
H820 H 0.16713 0.90669 0.1758 0.0
H821 H 0.23438 0.77008 0.16365 0.0
H822 H 0.19745 0.77145 0.1813 0.0
H823 H 0.20184 0.774 0.13811 0.0
H824 H 0.11043 0.77272 0.20483 0.0
H825 H 0.1201 0.78018 0.10115 0.0
H826 H 0.15805 0.83669 0.22537 0.0
H827 H 0.17298 0.79957 0.22852 0.0
H828 H 0.13499 0.8067 0.24096 0.0
H829 H 0.16673 0.84724 0.10263 0.0
H830 H 0.14884 0.81943 0.07731 0.0
H831 H 0.18459 0.81186 0.0958 0.0
C832 C 0.14975 0.54687 0.29765 0.0
C833 C 0.17588 0.53103 0.29001 0.0
C834 C 0.14232 0.57324 0.28124 0.0
C835 C 0.16142 0.58394 0.25631 0.0
C836 C 0.18899 0.56928 0.25015 0.0
C837 C 0.19595 0.54288 0.26719 0.0
C838 C 0.11294 0.58845 0.28907 0.0
C839 C 0.2102 0.57987 0.22407 0.0
C840 C 0.11388 0.62175 0.19294 0.0
C841 C 0.11598 0.65172 0.20245 0.0
C842 C 0.1311 0.5997 0.20824 0.0
C843 C 0.15009 0.60781 0.2344 0.0
C844 C 0.15354 0.63836 0.24286 0.0
C845 C 0.13605 0.66003 0.22699 0.0
C846 C 0.1273 0.56745 0.19797 0.0
C847 C 0.17416 0.64786 0.27003 0.0
H848 H 0.13444 0.53803 0.31575 0.0
H849 H 0.21627 0.53072 0.26133 0.0
H850 H 0.1164 0.61281 0.29285 0.0
H851 H 0.09727 0.58574 0.2683 0.0
H852 H 0.10218 0.57901 0.31118 0.0
H853 H 0.23376 0.5747 0.23069 0.0
H854 H 0.20506 0.56773 0.20118 0.0
H855 H 0.20817 0.60427 0.21949 0.0
H856 H 0.09771 0.61535 0.17452 0.0
H857 H 0.13736 0.6833 0.23441 0.0
H858 H 0.11576 0.55479 0.21754 0.0
H859 H 0.14952 0.55691 0.1941 0.0
H860 H 0.114 0.56528 0.17524 0.0
H861 H 0.16423 0.64136 0.29375 0.0
H862 H 0.17796 0.67245 0.27011 0.0
H863 H 0.19609 0.63632 0.26786 0.0
C864 C 0.54375 0.84519 0.70873 0.0
C865 C 0.52966 0.81783 0.71522 0.0
C866 C 0.5695 0.85379 0.72576 0.0
C867 C 0.58119 0.83471 0.75019 0.0
C868 C 0.56795 0.80635 0.75568 0.0
C869 C 0.54231 0.79819 0.738 0.0
C870 C 0.58333 0.88398 0.71864 0.0
C871 C 0.57933 0.78532 0.78157 0.0
C872 C 0.65785 0.85911 0.77898 0.0
C873 C 0.65011 0.87849 0.80439 0.0
C874 C 0.63577 0.8426 0.7626 0.0
C875 C 0.60538 0.84612 0.77163 0.0
C876 C 0.59779 0.86437 0.79857 0.0
C877 C 0.62024 0.88083 0.81424 0.0
C878 C 0.64468 0.82288 0.7344 0.0
C879 C 0.56572 0.868 0.80953 0.0
H880 H 0.53423 0.86027 0.69082 0.0
H881 H 0.53144 0.77699 0.74313 0.0
H882 H 0.58028 0.89899 0.73992 0.0
H883 H 0.60777 0.88161 0.71444 0.0
H884 H 0.57316 0.89489 0.69699 0.0
H885 H 0.57517 0.76161 0.77469 0.0
H886 H 0.60359 0.78827 0.78638 0.0
H887 H 0.5669 0.78977 0.80445 0.0
H888 H 0.68102 0.85772 0.77122 0.0
H889 H 0.61424 0.8966 0.83322 0.0
H890 H 0.63675 0.83306 0.71131 0.0
H891 H 0.63392 0.80057 0.73661 0.0
H892 H 0.66934 0.81983 0.73289 0.0
H893 H 0.55275 0.87997 0.79052 0.0
H894 H 0.56395 0.88079 0.83265 0.0
H895 H 0.55522 0.8457 0.81299 0.0
C896 C 0.86532 0.34606 0.21951 0.0
C897 C 0.88327 0.35377 0.19289 0.0
C898 C 0.84903 0.36804 0.23634 0.0
C899 C 0.85131 0.39834 0.22651 0.0
C900 C 0.86815 0.40586 0.19848 0.0
C901 C 0.88441 0.38351 0.18236 0.0
C902 C 0.8308 0.35916 0.26569 0.0
C903 C 0.87039 0.43778 0.18666 0.0
C904 C 0.80233 0.46024 0.26111 0.0
C905 C 0.82219 0.4739 0.28298 0.0
C906 C 0.81085 0.43471 0.24344 0.0
C907 C 0.83989 0.42263 0.24788 0.0
C908 C 0.85935 0.43539 0.27132 0.0
C909 C 0.85031 0.46096 0.28846 0.0
C910 C 0.78931 0.42217 0.21868 0.0
C911 C 0.89029 0.42284 0.27731 0.0
H912 H 0.86485 0.32301 0.22779 0.0
H913 H 0.8991 0.38952 0.16239 0.0
H914 H 0.84154 0.3681 0.28804 0.0
H915 H 0.80802 0.36901 0.26417 0.0
H916 H 0.82875 0.33446 0.26808 0.0
H917 H 0.8822 0.43946 0.16293 0.0
H918 H 0.84766 0.44755 0.18402 0.0
H919 H 0.88269 0.45148 0.20482 0.0
H920 H 0.78053 0.47018 0.25675 0.0
H921 H 0.86563 0.47125 0.30562 0.0
H922 H 0.79312 0.39802 0.21395 0.0
H923 H 0.79228 0.43459 0.19553 0.0
H924 H 0.76575 0.42536 0.22666 0.0
H925 H 0.889 0.39843 0.2822 0.0
H926 H 0.90168 0.43387 0.29817 0.0
H927 H 0.90431 0.42595 0.25526 0.0
C928 C 0.46171 0.18873 0.72461 0.0
C929 C 0.47402 0.16817 0.70258 0.0
C930 C 0.43554 0.18174 0.74208 0.0
C931 C 0.42156 0.1536 0.73725 0.0
C932 C 0.43286 0.13373 0.71337 0.0
C933 C 0.45898 0.14122 0.69644 0.0
C934 C 0.4244 0.20375 0.76712 0.0
C935 C 0.41839 0.10369 0.70696 0.0
C936 C 0.38237 0.10899 0.80238 0.0
C937 C 0.35255 0.11077 0.79219 0.0
C938 C 0.4048 0.1253 0.7865 0.0
C939 C 0.39726 0.14299 0.7591 0.0
C940 C 0.36689 0.14608 0.7498 0.0
C941 C 0.34483 0.12957 0.76628 0.0
C942 C 0.43683 0.12199 0.79768 0.0
C943 C 0.35797 0.1653 0.72123 0.0
H944 H 0.47324 0.20964 0.7294 0.0
H945 H 0.46818 0.12543 0.67904 0.0
H946 H 0.40001 0.20145 0.77164 0.0
H947 H 0.43648 0.19969 0.79029 0.0
H948 H 0.42917 0.22714 0.7595 0.0
H949 H 0.42842 0.09203 0.68569 0.0
H950 H 0.421 0.08913 0.72867 0.0
H951 H 0.39404 0.10648 0.70251 0.0
H952 H 0.38835 0.09375 0.82187 0.0
H953 H 0.3217 0.13061 0.75831 0.0
H954 H 0.44731 0.14437 0.80056 0.0
H955 H 0.44986 0.10956 0.77906 0.0
H956 H 0.43855 0.10978 0.82116 0.0
H957 H 0.3691 0.18749 0.72272 0.0
H958 H 0.33334 0.16869 0.72 0.0
H959 H 0.36544 0.15447 0.69831 0.0
C960 C 0.19809 0.47818 0.71143 0.0
C961 C 0.17653 0.49438 0.69403 0.0
C962 C 0.19125 0.45006 0.72472 0.0
C963 C 0.16217 0.43803 0.72051 0.0
C964 C 0.14116 0.45326 0.7007 0.0
C965 C 0.14854 0.48136 0.68786 0.0
C966 C 0.21456 0.43461 0.74521 0.0
C967 C 0.11023 0.44073 0.69465 0.0
C968 C 0.14134 0.35855 0.74432 0.0
C969 C 0.12565 0.3636 0.77332 0.0
C970 C 0.15469 0.38241 0.72742 0.0
C971 C 0.15211 0.41184 0.73993 0.0
C972 C 0.13704 0.41679 0.76978 0.0
C973 C 0.12339 0.39268 0.78568 0.0
C974 C 0.17028 0.37635 0.69551 0.0
C975 C 0.13428 0.44777 0.78426 0.0
H976 H 0.21988 0.48803 0.71605 0.0
H977 H 0.13195 0.49357 0.6739 0.0
H978 H 0.21191 0.44216 0.77071 0.0
H979 H 0.21216 0.40992 0.7445 0.0
H980 H 0.23755 0.44063 0.73721 0.0
H981 H 0.09815 0.45319 0.67527 0.0
H982 H 0.11158 0.41679 0.68755 0.0
H983 H 0.09685 0.44206 0.71737 0.0
H984 H 0.14249 0.33604 0.73448 0.0
H985 H 0.11005 0.39672 0.80728 0.0
H986 H 0.1929 0.38662 0.69546 0.0
H987 H 0.1574 0.38677 0.67537 0.0
H988 H 0.17251 0.352 0.6905 0.0
H989 H 0.15678 0.45815 0.78648 0.0
H990 H 0.12355 0.44748 0.80865 0.0
H991 H 0.12071 0.46221 0.76798 0.0
C992 C 0.36062 0.86155 0.24776 0.0
C993 C 0.36661 0.87628 0.21839 0.0
C994 C 0.38385 0.84854 0.26597 0.0
C995 C 0.41367 0.85045 0.25442 0.0
C996 C 0.4196 0.86456 0.22423 0.0
C997 C 0.39606 0.87791 0.20697 0.0
C998 C 0.37671 0.83406 0.29823 0.0
C999 C 0.451 0.86661 0.21076 0.0
C1000 C 0.48133 0.85394 0.30965 0.0
C1001 C 0.49394 0.82551 0.30504 0.0
C1002 C 0.45403 0.86165 0.29503 0.0
C1003 C 0.43916 0.8405 0.27506 0.0
C1004 C 0.45072 0.81108 0.27228 0.0
C1005 C 0.47804 0.80393 0.28727 0.0
C1006 C 0.442 0.893 0.29952 0.0
C1007 C 0.43558 0.78766 0.25164 0.0
H1008 H 0.33784 0.86092 0.25688 0.0
H1009 H 0.40083 0.89052 0.18505 0.0
H1010 H 0.38682 0.8114 0.29957 0.0
H1011 H 0.38656 0.84757 0.31823 0.0
H1012 H 0.3522 0.83211 0.3024 0.0
H1013 H 0.45152 0.87665 0.18603 0.0
H1014 H 0.46511 0.88047 0.2271 0.0
H1015 H 0.46119 0.84396 0.20963 0.0
H1016 H 0.49331 0.87061 0.32377 0.0
H1017 H 0.48757 0.78183 0.28377 0.0
H1018 H 0.41782 0.89234 0.30574 0.0
H1019 H 0.44428 0.90564 0.2764 0.0
H1020 H 0.45409 0.90543 0.31892 0.0
H1021 H 0.41086 0.78974 0.25257 0.0
H1022 H 0.44195 0.76466 0.25928 0.0
H1023 H 0.44282 0.79074 0.2261 0.0
C1024 C 0.84944 0.51118 0.69006 0.0
C1025 C 0.82072 0.49903 0.69387 0.0
C1026 C 0.8574 0.53804 0.70548 0.0
C1027 C 0.83619 0.55288 0.72541 0.0
C1028 C 0.80659 0.54174 0.72754 0.0
C1029 C 0.7992 0.5149 0.71175 0.0
C1030 C 0.88897 0.5497 0.70175 0.0
C1031 C 0.7832 0.55685 0.74825 0.0
C1032 C 0.87285 0.59511 0.79461 0.0
C1033 C 0.87147 0.62464 0.78347 0.0
C1034 C 0.85968 0.57179 0.77685 0.0
C1035 C 0.84608 0.57807 0.74646 0.0
C1036 C 0.84442 0.60798 0.7352 0.0
C1037 C 0.85719 0.63098 0.75393 0.0
C1038 C 0.86139 0.54026 0.78999 0.0
C1039 C 0.83054 0.61548 0.70272 0.0
H1040 H 0.86607 0.49921 0.6759 0.0
H1041 H 0.77688 0.50571 0.71464 0.0
H1042 H 0.88871 0.57394 0.69581 0.0
H1043 H 0.90121 0.54704 0.72508 0.0
H1044 H 0.90155 0.53764 0.68244 0.0
H1045 H 0.76016 0.5502 0.74101 0.0
H1046 H 0.78666 0.55004 0.77388 0.0
H1047 H 0.78505 0.58158 0.74693 0.0
H1048 H 0.88516 0.59009 0.81668 0.0
H1049 H 0.85681 0.65384 0.74503 0.0
H1050 H 0.87542 0.52622 0.77373 0.0
H1051 H 0.83868 0.53016 0.79061 0.0
H1052 H 0.87107 0.53946 0.81488 0.0
H1053 H 0.84437 0.60577 0.68291 0.0
H1054 H 0.82875 0.64003 0.69879 0.0
H1055 H 0.80788 0.60546 0.70075 0.0
C1056 C 0.63537 0.14417 0.24548 0.0
C1057 C 0.6305 0.12935 0.21591 0.0
C1058 C 0.61144 0.15711 0.26259 0.0
C1059 C 0.58213 0.15506 0.24967 0.0
C1060 C 0.57736 0.14092 0.21925 0.0
C1061 C 0.60154 0.12758 0.20314 0.0
C1062 C 0.61728 0.17163 0.29516 0.0
C1063 C 0.54651 0.1388 0.20434 0.0
C1064 C 0.51247 0.15154 0.30166 0.0
C1065 C 0.50021 0.18004 0.29661 0.0
C1066 C 0.54026 0.14379 0.28825 0.0
C1067 C 0.5559 0.16497 0.26905 0.0
C1068 C 0.54454 0.19438 0.26571 0.0
C1069 C 0.51676 0.20158 0.27953 0.0
C1070 C 0.55211 0.11244 0.29327 0.0
C1071 C 0.56044 0.21776 0.24571 0.0
H1072 H 0.65778 0.14486 0.25562 0.0
H1073 H 0.59764 0.11485 0.18108 0.0
H1074 H 0.60718 0.19432 0.29596 0.0
H1075 H 0.60656 0.15819 0.31466 0.0
H1076 H 0.64159 0.17352 0.30053 0.0
H1077 H 0.54696 0.12868 0.17964 0.0
H1078 H 0.53178 0.12497 0.22004 0.0
H1079 H 0.53635 0.16144 0.20269 0.0
H1080 H 0.49996 0.13494 0.31529 0.0
H1081 H 0.50747 0.22374 0.27575 0.0
H1082 H 0.576 0.11311 0.30066 0.0
H1083 H 0.55078 0.09981 0.27005 0.0
H1084 H 0.53924 0.1 0.31205 0.0
H1085 H 0.58511 0.2156 0.24757 0.0
H1086 H 0.55392 0.24078 0.25316 0.0
H1087 H 0.55401 0.21474 0.2199 0.0
C1088 C 0.69627 0.02821 0.77487 0.0
C1089 C 0.67804 0.0154 0.79885 0.0
C1090 C 0.68597 0.05235 0.75612 0.0
C1091 C 0.65693 0.06395 0.76178 0.0
C1092 C 0.63932 0.05235 0.7875 0.0
C1093 C 0.65002 0.02805 0.80558 0.0
C1094 C 0.70543 0.06408 0.72903 0.0
C1095 C 0.60854 0.06466 0.79496 0.0
C1096 C 0.62936 0.13781 0.72798 0.0
C1097 C 0.61025 0.128 0.70316 0.0
C1098 C 0.64623 0.11731 0.74618 0.0
C1099 C 0.64362 0.08635 0.73939 0.0
C1100 C 0.62516 0.07651 0.71345 0.0
C1101 C 0.60816 0.09747 0.69608 0.0
C1102 C 0.66526 0.12863 0.77395 0.0
C1103 C 0.62217 0.0437 0.70513 0.0
H1104 H 0.71797 0.01844 0.76961 0.0
H1105 H 0.63602 0.0184 0.82443 0.0
H1106 H 0.69667 0.05562 0.70553 0.0
H1107 H 0.7049 0.08889 0.72824 0.0
H1108 H 0.72906 0.05662 0.73153 0.0
H1109 H 0.5991 0.05522 0.81777 0.0
H1110 H 0.60939 0.0894 0.79724 0.0
H1111 H 0.59306 0.05928 0.77465 0.0
H1112 H 0.63037 0.16149 0.73378 0.0
H1113 H 0.59241 0.08991 0.67776 0.0
H1114 H 0.68781 0.11821 0.77332 0.0
H1115 H 0.65471 0.12227 0.7974 0.0
H1116 H 0.66786 0.15337 0.77339 0.0
H1117 H 0.64466 0.03354 0.70191 0.0
H1118 H 0.60895 0.04005 0.68257 0.0
H1119 H 0.61096 0.03173 0.72541 0.0
C1120 C 0.14362 0.37631 0.26184 0.0
C1121 C 0.13387 0.39511 0.28697 0.0
C1122 C 0.12306 0.35981 0.24327 0.0
C1123 C 0.09211 0.36236 0.25012 0.0
C1124 C 0.08231 0.38059 0.27627 0.0
C1125 C 0.10333 0.39732 0.29391 0.0
C1126 C 0.13432 0.34109 0.21522 0.0
C1127 C 0.04952 0.38347 0.28469 0.0
C1128 C 0.03273 0.35514 0.18507 0.0
C1129 C 0.02056 0.32698 0.19216 0.0
C1130 C 0.05733 0.36613 0.20252 0.0
C1131 C 0.06965 0.34871 0.22801 0.0
C1132 C 0.05858 0.31951 0.23389 0.0
C1133 C 0.03417 0.30891 0.21576 0.0
C1134 C 0.06915 0.39701 0.19474 0.0
C1135 C 0.07098 0.30021 0.26075 0.0
H1136 H 0.16731 0.37524 0.2561 0.0
H1137 H 0.09579 0.41291 0.31241 0.0
H1138 H 0.12448 0.3183 0.2161 0.0
H1139 H 0.1272 0.35145 0.19192 0.0
H1140 H 0.15912 0.3391 0.21519 0.0
H1141 H 0.04587 0.39678 0.3072 0.0
H1142 H 0.0374 0.3945 0.26441 0.0
H1143 H 0.03951 0.36093 0.28806 0.0
H1144 H 0.02245 0.36901 0.16652 0.0
H1145 H 0.0248 0.2871 0.2213 0.0
H1146 H 0.0939 0.39652 0.19232 0.0
H1147 H 0.06365 0.41257 0.21494 0.0
H1148 H 0.05943 0.40614 0.1719 0.0
H1149 H 0.09574 0.30172 0.26182 0.0
H1150 H 0.06451 0.27633 0.2578 0.0
H1151 H 0.06193 0.30828 0.28428 0.0
C1152 C 0.30655 0.9578 0.77227 0.0
C1153 C 0.32488 0.97253 0.79485 0.0
C1154 C 0.31656 0.93197 0.75611 0.0
C1155 C 0.34551 0.92059 0.76291 0.0
C1156 C 0.36322 0.93428 0.78735 0.0
C1157 C 0.35279 0.96024 0.80281 0.0
C1158 C 0.29662 0.91849 0.7304 0.0
C1159 C 0.39382 0.92233 0.79616 0.0
C1160 C 0.37298 0.84401 0.73627 0.0
C1161 C 0.39235 0.85175 0.71085 0.0
C1162 C 0.356 0.866 0.7523 0.0
C1163 C 0.35883 0.89633 0.74278 0.0
C1164 C 0.37739 0.90395 0.7161 0.0
C1165 C 0.39443 0.88162 0.7009 0.0
C1166 C 0.3361 0.85704 0.78031 0.0
C1167 C 0.38027 0.93592 0.70457 0.0
H1168 H 0.2849 0.96719 0.76604 0.0
H1169 H 0.36688 0.97133 0.82063 0.0
H1170 H 0.29846 0.93226 0.70804 0.0
H1171 H 0.30262 0.89503 0.72446 0.0
H1172 H 0.27283 0.91915 0.73829 0.0
H1173 H 0.40332 0.9336 0.81795 0.0
H1174 H 0.39264 0.8979 0.80096 0.0
H1175 H 0.40942 0.92572 0.77546 0.0
H1176 H 0.37179 0.82087 0.74418 0.0
H1177 H 0.41024 0.8877 0.68201 0.0
H1178 H 0.31317 0.86602 0.7766 0.0
H1179 H 0.34487 0.86686 0.80324 0.0
H1180 H 0.33472 0.83234 0.78321 0.0
H1181 H 0.35772 0.9455 0.69997 0.0
H1182 H 0.39379 0.93775 0.68196 0.0
H1183 H 0.39107 0.9497 0.72374 0.0
C1184 C 0.84762 0.63028 0.26198 0.0
C1185 C 0.85477 0.61111 0.28776 0.0
C1186 C 0.86999 0.64711 0.24641 0.0
C1187 C 0.9001 0.64429 0.25675 0.0
C1188 C 0.90709 0.62597 0.28381 0.0
C1189 C 0.8844 0.6091 0.29856 0.0
C1190 C 0.86169 0.66678 0.21796 0.0
C1191 C 0.9388 0.6231 0.29619 0.0
C1192 C 0.96467 0.64937 0.19747 0.0
C1193 C 0.97689 0.67742 0.20501 0.0
C1194 C 0.93867 0.63913 0.21294 0.0
C1195 C 0.92481 0.65719 0.23697 0.0
C1196 C 0.93624 0.68617 0.24353 0.0
C1197 C 0.96215 0.69598 0.22736 0.0
C1198 C 0.92673 0.60843 0.20447 0.0
C1199 C 0.92264 0.70637 0.26892 0.0
H1200 H 0.82467 0.63143 0.25343 0.0
H1201 H 0.89002 0.59344 0.31777 0.0
H1202 H 0.87083 0.68966 0.22155 0.0
H1203 H 0.87179 0.65764 0.19536 0.0
H1204 H 0.83705 0.66835 0.21455 0.0
H1205 H 0.94009 0.60983 0.31901 0.0
H1206 H 0.95293 0.61202 0.27751 0.0
H1207 H 0.94837 0.64566 0.30073 0.0
H1208 H 0.97577 0.6351 0.17984 0.0
H1209 H 0.97151 0.71772 0.23329 0.0
H1210 H 0.90241 0.60967 0.19905 0.0
H1211 H 0.92961 0.59319 0.22556 0.0
H1212 H 0.93837 0.59847 0.18316 0.0
H1213 H 0.8989 0.70092 0.27408 0.0
H1214 H 0.9241 0.73018 0.26124 0.0
H1215 H 0.93575 0.70403 0.2917 0.0
C1216 C 0.69549 0.98008 0.22025 0.0
C1217 C 0.67303 0.99588 0.20376 0.0
C1218 C 0.68939 0.95231 0.23475 0.0
C1219 C 0.66013 0.94027 0.23283 0.0
C1220 C 0.63797 0.95518 0.21426 0.0
C1221 C 0.64467 0.98287 0.20003 0.0
C1222 C 0.71379 0.93708 0.25391 0.0
C1223 C 0.60667 0.94271 0.21088 0.0
C1224 C 0.64049 0.86093 0.25793 0.0
C1225 C 0.62668 0.866 0.28802 0.0
C1226 C 0.653 0.88472 0.24022 0.0
C1227 C 0.6514 0.91413 0.25301 0.0
C1228 C 0.63837 0.91907 0.28397 0.0
C1229 C 0.62556 0.895 0.30076 0.0
C1230 C 0.66646 0.87864 0.20719 0.0
C1231 C 0.6367 0.95002 0.2987 0.0
H1232 H 0.71755 0.98992 0.223 0.0
H1233 H 0.62732 0.99479 0.18688 0.0
H1234 H 0.71116 0.94311 0.27989 0.0
H1235 H 0.71237 0.91237 0.25177 0.0
H1236 H 0.73639 0.94443 0.24592 0.0
H1237 H 0.5932 0.95519 0.19263 0.0
H1238 H 0.60748 0.91878 0.20365 0.0
H1239 H 0.59501 0.94397 0.2347 0.0
H1240 H 0.64073 0.83847 0.24787 0.0
H1241 H 0.6137 0.89904 0.32335 0.0
H1242 H 0.68879 0.88938 0.20511 0.0
H1243 H 0.65196 0.88853 0.18807 0.0
H1244 H 0.66886 0.85428 0.2023 0.0
H1245 H 0.6593 0.96038 0.29908 0.0
H1246 H 0.62772 0.94969 0.32392 0.0
H1247 H 0.62205 0.9645 0.28361 0.0
C1248 C 0.85528 0.34904 0.73239 0.0
C1249 C 0.85924 0.36508 0.70345 0.0
C1250 C 0.8799 0.33625 0.74852 0.0
C1251 C 0.90902 0.34003 0.73548 0.0
C1252 C 0.91282 0.35511 0.70547 0.0
C1253 C 0.88793 0.36797 0.69017 0.0
C1254 C 0.875 0.31988 0.78017 0.0
C1255 C 0.94339 0.35888 0.6903 0.0
C1256 C 0.97771 0.34716 0.78877 0.0
C1257 C 0.99202 0.31967 0.78347 0.0
C1258 C 0.94974 0.3533 0.7748 0.0
C1259 C 0.9359 0.33152 0.75473 0.0
C1260 C 0.94949 0.30309 0.75079 0.0
C1261 C 0.97743 0.2975 0.76524 0.0
C1262 C 0.9357 0.38367 0.78029 0.0
C1263 C 0.93594 0.27904 0.7297 0.0
H1264 H 0.83304 0.34725 0.74282 0.0
H1265 H 0.8911 0.38133 0.66842 0.0
H1266 H 0.88593 0.29757 0.77928 0.0
H1267 H 0.88551 0.33263 0.80037 0.0
H1268 H 0.85084 0.31682 0.78572 0.0
H1269 H 0.94226 0.36955 0.66591 0.0
H1270 H 0.95768 0.37294 0.70627 0.0
H1271 H 0.95445 0.33673 0.68786 0.0
H1272 H 0.98871 0.36426 0.80322 0.0
H1273 H 0.98832 0.27613 0.76112 0.0
H1274 H 0.912 0.38115 0.78795 0.0
H1275 H 0.93583 0.39654 0.75718 0.0
H1276 H 0.94778 0.3969 0.79907 0.0
H1277 H 0.91138 0.28158 0.72684 0.0
H1278 H 0.94067 0.25648 0.73986 0.0
H1279 H 0.94656 0.28017 0.70533 0.0
C1280 C 0.34978 0.14683 0.2543 0.0
C1281 C 0.36564 0.14263 0.28332 0.0
C1282 C 0.33734 0.12229 0.23766 0.0
C1283 C 0.34127 0.09305 0.25032 0.0
C1284 C 0.35618 0.089 0.28039 0.0
C1285 C 0.36869 0.1138 0.29617 0.0
C1286 C 0.32123 0.12742 0.20589 0.0
C1287 C 0.36014 0.05829 0.29514 0.0
C1288 C 0.29965 0.02425 0.22044 0.0
C1289 C 0.32215 0.00972 0.20266 0.0
C1290 C 0.30476 0.0524 0.23457 0.0
C1291 C 0.33304 0.0663 0.23073 0.0
C1292 C 0.35508 0.0526 0.21088 0.0
C1293 C 0.34944 0.02438 0.19725 0.0
C1294 C 0.28046 0.06582 0.25543 0.0
C1295 C 0.3853 0.06699 0.20548 0.0
H1296 H 0.3479 0.16918 0.24418 0.0
H1297 H 0.38198 0.11046 0.31795 0.0
H1298 H 0.33432 0.11736 0.18568 0.0
H1299 H 0.29905 0.11621 0.20629 0.0
H1300 H 0.31792 0.15162 0.20071 0.0
H1301 H 0.37096 0.05918 0.31947 0.0
H1302 H 0.33803 0.04714 0.2976 0.0
H1303 H 0.37414 0.04419 0.27891 0.0
H1304 H 0.27842 0.01309 0.22459 0.0
H1305 H 0.36678 0.01343 0.18312 0.0
H1306 H 0.28244 0.0905 0.25761 0.0
H1307 H 0.28198 0.05583 0.28009 0.0
H1308 H 0.25797 0.06032 0.24553 0.0
H1309 H 0.38256 0.09074 0.1981 0.0
H1310 H 0.39858 0.05519 0.18654 0.0
H1311 H 0.39822 0.06674 0.22855 0.0
C1312 C 0.14051 0.64079 0.74496 0.0
C1313 C 0.13548 0.62685 0.71493 0.0
C1314 C 0.11654 0.65245 0.76308 0.0
C1315 C 0.08703 0.64979 0.75081 0.0
C1316 C 0.08211 0.63674 0.71987 0.0
C1317 C 0.10636 0.62481 0.70265 0.0
C1318 C 0.12256 0.66643 0.79587 0.0
C1319 C 0.05106 0.63423 0.70556 0.0
C1320 C 0.01877 0.64049 0.80401 0.0
C1321 C 0.0048 0.66838 0.80042 0.0
C1322 C 0.04675 0.63488 0.78985 0.0
C1323 C 0.06087 0.65764 0.77139 0.0
C1324 C 0.04785 0.68649 0.76971 0.0
C1325 C 0.0199 0.69151 0.78425 0.0
C1326 C 0.06035 0.60405 0.79308 0.0
C1327 C 0.06194 0.71167 0.75071 0.0
H1328 H 0.16309 0.64182 0.75461 0.0
H1329 H 0.1024 0.61288 0.68007 0.0
H1330 H 0.11212 0.68895 0.79719 0.0
H1331 H 0.11225 0.65252 0.81525 0.0
H1332 H 0.1469 0.66861 0.80094 0.0
H1333 H 0.05133 0.62526 0.68034 0.0
H1334 H 0.03713 0.6192 0.72084 0.0
H1335 H 0.04012 0.65656 0.70536 0.0
H1336 H 0.00739 0.62266 0.81695 0.0
H1337 H 0.00934 0.71325 0.78162 0.0
H1338 H 0.0843 0.60572 0.80006 0.0
H1339 H 0.05928 0.59233 0.76928 0.0
H1340 H 0.0485 0.59016 0.81146 0.0
H1341 H 0.08642 0.7088 0.74766 0.0
H1342 H 0.05768 0.73353 0.76278 0.0
H1343 H 0.05134 0.71252 0.72635 0.0
C1344 C 0.21491 0.54162 0.56544 0.0
C1345 C 0.19634 0.56683 0.56832 0.0
C1346 C 0.21601 0.52514 0.53643 0.0
C1347 C 0.19776 0.53387 0.50994 0.0
C1348 C 0.18011 0.56011 0.51213 0.0
C1349 C 0.1798 0.57645 0.54125 0.0
C1350 C 0.23557 0.49759 0.53471 0.0
C1351 C 0.16015 0.56994 0.48443 0.0
C1352 C 0.20937 0.50024 0.42612 0.0
C1353 C 0.18776 0.47741 0.42593 0.0
C1354 C 0.21334 0.51851 0.45356 0.0
C1355 C 0.19495 0.51408 0.48115 0.0
C1356 C 0.17325 0.49097 0.48119 0.0
C1357 C 0.17008 0.47276 0.45366 0.0
C1358 C 0.23703 0.54265 0.45295 0.0
C1359 C 0.15298 0.48581 0.51011 0.0
H1360 H 0.22805 0.53428 0.58615 0.0
H1361 H 0.16541 0.59591 0.54326 0.0
H1362 H 0.22128 0.47727 0.53422 0.0
H1363 H 0.24902 0.49767 0.512 0.0
H1364 H 0.25102 0.49593 0.55584 0.0
H1365 H 0.14968 0.59211 0.48904 0.0
H1366 H 0.17308 0.57116 0.46142 0.0
H1367 H 0.14208 0.55319 0.48081 0.0
H1368 H 0.22326 0.50381 0.40482 0.0
H1369 H 0.15321 0.45529 0.45363 0.0
H1370 H 0.25252 0.53983 0.47385 0.0
H1371 H 0.22639 0.56498 0.45552 0.0
H1372 H 0.2503 0.54236 0.43008 0.0
H1373 H 0.16657 0.48099 0.5321 0.0
H1374 H 0.1372 0.4669 0.50616 0.0
H1375 H 0.13978 0.50634 0.51519 0.0
C1376 C 0.54236 0.78063 0.43564 0.0
C1377 C 0.56717 0.79976 0.43309 0.0
C1378 C 0.52712 0.77731 0.46525 0.0
C1379 C 0.5366 0.79397 0.4927 0.0
C1380 C 0.56253 0.81209 0.49072 0.0
C1381 C 0.57768 0.81455 0.46097 0.0
C1382 C 0.49991 0.75727 0.46666 0.0
C1383 C 0.57308 0.83053 0.51934 0.0
C1384 C 0.47571 0.81866 0.5507 0.0
C1385 C 0.48039 0.79973 0.57745 0.0
C1386 C 0.49402 0.81704 0.52316 0.0
C1387 C 0.51727 0.79554 0.522 0.0
C1388 C 0.52199 0.77609 0.54871 0.0
C1389 C 0.50364 0.77862 0.57635 0.0
C1390 C 0.48859 0.83856 0.49538 0.0
C1391 C 0.54626 0.75256 0.54797 0.0
H1392 H 0.53439 0.76878 0.41429 0.0
H1393 H 0.59687 0.82933 0.45923 0.0
H1394 H 0.50062 0.74292 0.48869 0.0
H1395 H 0.4794 0.77122 0.46826 0.0
H1396 H 0.49806 0.74269 0.44483 0.0
H1397 H 0.59531 0.84093 0.51488 0.0
H1398 H 0.55665 0.84864 0.52424 0.0
H1399 H 0.57448 0.81655 0.54159 0.0
H1400 H 0.45794 0.83519 0.55145 0.0
H1401 H 0.50722 0.76382 0.59689 0.0
H1402 H 0.48312 0.82594 0.47288 0.0
H1403 H 0.5092 0.8517 0.49043 0.0
H1404 H 0.47 0.85441 0.50051 0.0
H1405 H 0.54285 0.73747 0.52681 0.0
H1406 H 0.54669 0.73885 0.57052 0.0
H1407 H 0.56846 0.76332 0.54485 0.0
C1408 C 0.81767 0.52974 0.44832 0.0
C1409 C 0.8 0.52425 0.42073 0.0
C1410 C 0.81552 0.51157 0.47595 0.0
C1411 C 0.79479 0.48761 0.47626 0.0
C1412 C 0.7764 0.48226 0.44879 0.0
C1413 C 0.77944 0.50049 0.42114 0.0
C1414 C 0.83592 0.51766 0.50456 0.0
C1415 C 0.75369 0.45721 0.44859 0.0
C1416 C 0.81388 0.42562 0.53536 0.0
C1417 C 0.79737 0.43408 0.56294 0.0
C1418 C 0.81236 0.44224 0.50652 0.0
C1419 C 0.79346 0.46762 0.50502 0.0
C1420 C 0.77555 0.4754 0.53217 0.0
C1421 C 0.77793 0.45869 0.56097 0.0
C1422 C 0.83218 0.43352 0.47825 0.0
C1423 C 0.75472 0.50202 0.53119 0.0
H1424 H 0.83373 0.54794 0.44815 0.0
H1425 H 0.76556 0.49631 0.39997 0.0
H1426 H 0.82244 0.52189 0.52677 0.0
H1427 H 0.8501 0.49775 0.50941 0.0
H1428 H 0.85078 0.53725 0.50039 0.0
H1429 H 0.74003 0.457 0.42598 0.0
H1430 H 0.76525 0.43532 0.45085 0.0
H1431 H 0.73848 0.45938 0.46981 0.0
H1432 H 0.82897 0.40664 0.53665 0.0
H1433 H 0.76484 0.46514 0.58206 0.0
H1434 H 0.8491 0.45131 0.47404 0.0
H1435 H 0.81876 0.43142 0.45565 0.0
H1436 H 0.8441 0.41204 0.48257 0.0
H1437 H 0.76802 0.52299 0.53024 0.0
H1438 H 0.73983 0.50298 0.55283 0.0
H1439 H 0.74065 0.5013 0.50893 0.0
C1440 C 0.46207 0.21597 0.42705 0.0
C1441 C 0.43616 0.19829 0.42493 0.0
C1442 C 0.47988 0.21567 0.45517 0.0
C1443 C 0.4718 0.19689 0.48147 0.0
C1444 C 0.44524 0.1797 0.47987 0.0
C1445 C 0.4276 0.1808 0.45173 0.0
C1446 C 0.50781 0.23472 0.45634 0.0
C1447 C 0.43609 0.15913 0.50733 0.0
C1448 C 0.53261 0.16739 0.53704 0.0
C1449 C 0.52789 0.18436 0.5653 0.0
C1450 C 0.51477 0.17161 0.50939 0.0
C1451 C 0.492 0.19366 0.50987 0.0
C1452 C 0.48767 0.21148 0.53795 0.0
C1453 C 0.50552 0.20643 0.56549 0.0
C1454 C 0.51973 0.15188 0.47999 0.0
C1455 C 0.4639 0.23552 0.53907 0.0
H1456 H 0.46869 0.22975 0.40655 0.0
H1457 H 0.40766 0.16702 0.45033 0.0
H1458 H 0.50825 0.24819 0.47904 0.0
H1459 H 0.5279 0.2201 0.45656 0.0
H1460 H 0.50945 0.25011 0.43517 0.0
H1461 H 0.41411 0.14822 0.50281 0.0
H1462 H 0.45326 0.14141 0.51057 0.0
H1463 H 0.43474 0.17178 0.53053 0.0
H1464 H 0.54977 0.15022 0.53678 0.0
H1465 H 0.50197 0.21982 0.58717 0.0
H1466 H 0.52411 0.16583 0.45817 0.0
H1467 H 0.49924 0.13858 0.47501 0.0
H1468 H 0.53882 0.13621 0.48333 0.0
H1469 H 0.46656 0.25099 0.51814 0.0
H1470 H 0.46476 0.24875 0.56196 0.0
H1471 H 0.44139 0.22518 0.53698 0.0
C1472 C 0.71783 0.03978 0.07347 0.0
C1473 C 0.69682 0.06311 0.07441 0.0
C1474 C 0.72174 0.02259 0.04526 0.0
C1475 C 0.70376 0.02854 0.01766 0.0
C1476 C 0.68351 0.05292 0.01796 0.0
C1477 C 0.68051 0.07015 0.04628 0.0
C1478 C 0.74406 0.99717 0.04554 0.0
C1479 C 0.66366 0.05967 0.9891 0.0
C1480 C 0.72091 0.99279 0.93596 0.0
C1481 C 0.70173 0.96789 0.93648 0.0
C1482 C 0.72237 0.01248 0.96255 0.0
C1483 C 0.70377 0.00739 0.98987 0.0
C1484 C 0.68451 0.98223 0.99058 0.0
C1485 C 0.68395 0.96263 0.96402 0.0
C1486 C 0.7436 0.03877 0.96134 0.0
C1487 C 0.66403 0.97631 0.01915 0.0
H1488 H 0.73081 0.03454 0.09503 0.0
H1489 H 0.66426 0.08819 0.04687 0.0
H1490 H 0.73195 0.97548 0.04568 0.0
H1491 H 0.75809 0.99771 0.02325 0.0
H1492 H 0.75895 0.99799 0.06719 0.0
H1493 H 0.65092 0.08085 0.99227 0.0
H1494 H 0.67718 0.06129 0.96653 0.0
H1495 H 0.64745 0.04109 0.98567 0.0
H1496 H 0.73486 0.99684 0.91482 0.0
H1497 H 0.66896 0.94354 0.96454 0.0
H1498 H 0.75862 0.03843 0.98286 0.0
H1499 H 0.73078 0.06003 0.9623 0.0
H1500 H 0.75755 0.03876 0.93895 0.0
H1501 H 0.67739 0.97366 0.04173 0.0
H1502 H 0.6502 0.95586 0.01571 0.0
H1503 H 0.64883 0.99568 0.02285 0.0
C1504 C 0.06522 0.31685 0.94277 0.0
C1505 C 0.0574 0.30033 0.91499 0.0
C1506 C 0.04825 0.31486 0.97135 0.0
C1507 C 0.02327 0.29539 0.97237 0.0
C1508 C 0.01624 0.2774 0.94505 0.0
C1509 C 0.03322 0.28033 0.91651 0.0
C1510 C 0.05614 0.33477 -0.00016 0.0
C1511 C 0.99016 0.25588 0.94557 0.0
C1512 C 0.99087 0.27986 0.05605 0.0
C1513 C 0.96662 0.29983 0.05678 0.0
C1514 C 0.00901 0.2774 0.02829 0.0
C1515 C 0.0031 0.29584 0.00103 0.0
C1516 C 0.9785 0.31582 0.00154 0.0
C1517 C 0.96037 0.31734 0.02928 0.0
C1518 C 0.03469 0.25539 0.02825 0.0
C1519 C 0.97181 0.33623 0.97312 0.0
H1520 H 0.08386 0.33239 0.94179 0.0
H1521 H 0.02728 0.26725 0.89522 0.0
H1522 H 0.03775 0.35101 0.00413 0.0
H1523 H 0.05862 0.32125 0.02232 0.0
H1524 H 0.07721 0.34746 0.99575 0.0
H1525 H 0.98979 0.24112 0.92379 0.0
H1526 H 0.99104 0.24169 0.96771 0.0
H1527 H 0.96884 0.26863 0.94641 0.0
H1528 H 0.99561 0.26608 0.07714 0.0
H1529 H 0.94176 0.33291 0.02973 0.0
H1530 H 0.05626 0.26762 0.02663 0.0
H1531 H 0.03322 0.24058 0.00661 0.0
H1532 H 0.035 0.24126 0.0505 0.0
H1533 H 0.99123 0.35116 0.96856 0.0
H1534 H 0.95168 0.35033 0.97735 0.0
H1535 H 0.9682 0.32282 0.95073 0.0
C1536 C 0.28147 0.00263 0.92993 0.0
C1537 C 0.30058 0.02755 0.92872 0.0
C1538 C 0.27992 0.98466 0.95793 0.0
C1539 C 0.29836 0.99149 0.98496 0.0
C1540 C 0.31758 0.01666 0.98389 0.0
C1541 C 0.31823 0.03454 0.95593 0.0
C1542 C 0.25873 0.95832 0.95854 0.0
C1543 C 0.33796 0.02439 0.01205 0.0
C1544 C 0.28379 0.96359 0.07052 0.0
C1545 C 0.30455 0.94012 0.07297 0.0
C1546 C 0.28026 0.97945 0.04132 0.0
C1547 C 0.29838 0.97204 0.01422 0.0
C1548 C 0.31861 0.94771 0.01619 0.0
C1549 C 0.32123 0.93183 0.04547 0.0
C1550 C 0.25801 0.00488 0.03987 0.0
C1551 C 0.33865 0.93945 0.98796 0.0
H1552 H 0.26763 0.99725 0.90905 0.0
H1553 H 0.33319 0.05364 0.95516 0.0
H1554 H 0.27158 0.93719 0.96107 0.0
H1555 H 0.24365 0.95996 0.97994 0.0
H1556 H 0.24485 0.95692 0.93615 0.0
H1557 H 0.35171 0.04465 0.00721 0.0
H1558 H 0.32453 0.02834 0.03435 0.0
H1559 H 0.35324 0.00536 0.01714 0.0
H1560 H 0.27057 0.96985 0.09159 0.0
H1561 H 0.33733 0.91373 0.04718 0.0
H1562 H 0.24386 0.00293 0.01777 0.0
H1563 H 0.27014 0.02652 0.0383 0.0
H1564 H 0.24323 0.00549 0.06162 0.0
H1565 H 0.32522 0.93622 0.96553 0.0
H1566 H 0.35168 0.9187 0.99269 0.0
H1567 H 0.35461 0.958 0.9832 0.0
C1568 C 0.95651 0.71028 0.93096 0.0
C1569 C 0.93434 0.6881 0.92907 0.0
C1570 C 0.97256 0.715 0.95981 0.0
C1571 C 0.96666 0.69667 0.98714 0.0
C1572 C 0.94343 0.67512 0.98584 0.0
C1573 C 0.92731 0.67129 0.95684 0.0
C1574 C 0.99677 0.73861 0.96052 0.0
C1575 C 0.9368 0.65488 0.01439 0.0
C1576 C 0.03246 0.68089 0.04244 0.0
C1577 C 0.02589 0.69874 0.06962 0.0
C1578 C 0.0132 0.67995 0.01561 0.0
C1579 C 0.98697 0.69772 0.01566 0.0
C1580 C 0.98038 0.71621 0.04271 0.0
C1581 C -0.00018 0.7163 0.06958 0.0
C1582 C 0.0208 0.65962 0.98735 0.0
C1583 C 0.95286 0.73584 0.04322 0.0
H1584 H 0.96171 0.72365 0.90967 0.0
H1585 H 0.91017 0.65414 0.9555 0.0
H1586 H 0.99469 0.75263 0.98271 0.0
H1587 H 0.01906 0.72765 0.96133 0.0
H1588 H 0.99597 0.75341 0.9388 0.0
H1589 H 0.91633 0.6412 0.01048 0.0
H1590 H 0.956 0.63953 0.01836 0.0
H1591 H 0.93394 0.66822 0.03695 0.0
H1592 H 0.05242 0.66708 0.04233 0.0
H1593 H 0.99468 0.73023 0.09046 0.0
H1594 H 0.02348 0.67302 0.96481 0.0
H1595 H 0.00224 0.64355 0.9831 0.0
H1596 H 0.04174 0.64674 0.99151 0.0
H1597 H 0.95305 0.75116 0.02197 0.0
H1598 H 0.95132 0.74945 0.06581 0.0
H1599 H 0.93242 0.72184 0.0412 0.0
loop_
_geom_bond_atom_site_label_1
_geom_bond_atom_site_label_2
_geom_bond_distance
_geom_bond_site_symmetry_2
_ccdc_geom_bond_type
Mn0 O5 2.095 . S
Mn0 O15 2.162 . S
Mn0 O16 2.297 . S
Mn0 O24 2.385 . S
Mn0 O25 2.209 . S
Mn0 O26 2.094 . S
Mn1 O6 2.121 . S
Mn1 N8 2.257 . S
Mn1 N17 2.282 . S
Mn1 O25 2.215 . S
Mn1 O27 2.117 . S
C2 O24 1.234 . S
C2 O25 1.283 . S
C3 O15 1.281 . S
C3 O16 1.236 . S
C4 O26 1.240 . S
C4 O27 1.264 . S
O5 Mn0 2.095 . S
O5 C14 1.250 . S
O6 Mn1 2.121 . S
O6 C14 1.258 . S
C7 N8 1.326 . S
C7 C11 1.460 . S
C7 H13 0.929 . S
N8 Mn1 2.257 . S
N8 C7 1.326 . S
N8 C12 1.362 . S
C9 C10 1.258 . S
C9 C12 1.431 . S
C9 C29 1.449 . S
C10 C9 1.258 . S
C10 C11 1.477 . S
C10 H30 0.931 . S
C11 C7 1.460 . S
C11 C10 1.477 . S
C11 H31 0.930 . S
C12 N8 1.362 . S
C12 C9 1.431 . S
C12 C22 1.476 . S
H13 C7 0.929 . S
C14 O5 1.250 . S
C14 O6 1.258 . S
O15 Mn0 2.162 . S
O15 C3 1.281 . S
O16 Mn0 2.297 . S
O16 C3 1.236 . S
N17 Mn1 2.282 . S
N17 C18 1.328 . S
N17 C22 1.318 . S
C18 N17 1.328 . S
C18 C19 1.457 . S
C18 H23 0.929 . S
C19 C18 1.457 . S
C19 C20 1.291 . S
C19 H32 0.931 . S
C20 C19 1.291 . S
C20 C21 1.373 . S
C20 H33 0.929 . S
C21 C20 1.373 . S
C21 C22 1.396 . S
C21 C28 1.403 . S
C22 C12 1.476 . S
C22 N17 1.318 . S
C22 C21 1.396 . S
H23 C18 0.929 . S
O24 Mn0 2.385 . S
O24 C2 1.234 . S
O25 Mn0 2.209 . S
O25 Mn1 2.215 . S
O25 C2 1.283 . S
O26 Mn0 2.094 . S
O26 C4 1.240 . S
O27 Mn1 2.117 . S
O27 C4 1.264 . S
C28 C21 1.403 . S
C28 C29 1.399 . S
C28 H34 0.929 . S
C29 C9 1.449 . S
C29 C28 1.399 . S
C29 H35 0.930 . S
H30 C10 0.931 . S
H31 C11 0.930 . S
H32 C19 0.931 . S
H33 C20 0.929 . S
H34 C28 0.929 . S
H35 C29 0.930 . S
Mn36 O41 2.095 . S
Mn36 O51 2.162 . S
Mn36 O52 2.297 . S
Mn36 O60 2.385 . S
Mn36 O61 2.209 . S
Mn36 O62 2.094 . S
Mn37 O42 2.121 . S
Mn37 N44 2.257 . S
Mn37 N53 2.282 . S
Mn37 O61 2.215 . S
Mn37 O63 2.117 . S
C38 O60 1.234 . S
C38 O61 1.283 . S
C39 O51 1.281 . S
C39 O52 1.236 . S
C40 O62 1.240 . S
C40 O63 1.264 . S
O41 Mn36 2.095 . S
O41 C50 1.250 . S
O42 Mn37 2.121 . S
O42 C50 1.258 . S
C43 N44 1.326 . S
C43 C47 1.460 . S
C43 H49 0.929 . S
N44 Mn37 2.257 . S
N44 C43 1.326 . S
N44 C48 1.362 . S
C45 C46 1.258 . S
C45 C48 1.431 . S
C45 C65 1.449 . S
C46 C45 1.258 . S
C46 C47 1.477 . S
C46 H66 0.931 . S
C47 C43 1.460 . S
C47 C46 1.477 . S
C47 H67 0.930 . S
C48 N44 1.362 . S
C48 C45 1.431 . S
C48 C58 1.476 . S
H49 C43 0.929 . S
C50 O41 1.250 . S
C50 O42 1.258 . S
O51 Mn36 2.162 . S
O51 C39 1.281 . S
O52 Mn36 2.297 . S
O52 C39 1.236 . S
N53 Mn37 2.282 . S
N53 C54 1.328 . S
N53 C58 1.318 . S
C54 N53 1.328 . S
C54 C55 1.457 . S
C54 H59 0.929 . S
C55 C54 1.457 . S
C55 C56 1.291 . S
C55 H68 0.931 . S
C56 C55 1.291 . S
C56 C57 1.373 . S
C56 H69 0.929 . S
C57 C56 1.373 . S
C57 C58 1.396 . S
C57 C64 1.403 . S
C58 C48 1.476 . S
C58 N53 1.318 . S
C58 C57 1.396 . S
H59 C54 0.929 . S
O60 Mn36 2.385 . S
O60 C38 1.234 . S
O61 Mn36 2.209 . S
O61 Mn37 2.215 . S
O61 C38 1.283 . S
O62 Mn36 2.094 . S
O62 C40 1.240 . S
O63 Mn37 2.117 . S
O63 C40 1.264 . S
C64 C57 1.403 . S
C64 C65 1.399 . S
C64 H70 0.929 . S
C65 C45 1.449 . S
C65 C64 1.399 . S
C65 H71 0.930 . S
H66 C46 0.931 . S
H67 C47 0.930 . S
H68 C55 0.931 . S
H69 C56 0.929 . S
H70 C64 0.929 . S
H71 C65 0.930 . S
Mn72 O77 2.095 . S
Mn72 O87 2.162 . S
Mn72 O88 2.297 . S
Mn72 O96 2.385 . S
Mn72 O97 2.209 . S
Mn72 O98 2.094 . S
Mn73 O78 2.121 . S
Mn73 N80 2.257 . S
Mn73 N89 2.282 . S
Mn73 O97 2.215 . S
Mn73 O99 2.117 . S
C74 O96 1.234 . S
C74 O97 1.283 . S
C75 O87 1.281 . S
C75 O88 1.236 . S
C76 O98 1.240 . S
C76 O99 1.264 . S
O77 Mn72 2.095 . S
O77 C86 1.250 . S
O78 Mn73 2.121 . S
O78 C86 1.258 . S
C79 N80 1.326 . S
C79 C83 1.460 . S
C79 H85 0.929 . S
N80 Mn73 2.257 . S
N80 C79 1.326 . S
N80 C84 1.362 . S
C81 C82 1.258 . S
C81 C84 1.431 . S
C81 C101 1.449 . S
C82 C81 1.258 . S
C82 C83 1.477 . S
C82 H102 0.931 . S
C83 C79 1.460 . S
C83 C82 1.477 . S
C83 H103 0.930 . S
C84 N80 1.362 . S
C84 C81 1.431 . S
C84 C94 1.476 . S
H85 C79 0.929 . S
C86 O77 1.250 . S
C86 O78 1.258 . S
O87 Mn72 2.162 . S
O87 C75 1.281 . S
O88 Mn72 2.297 . S
O88 C75 1.236 . S
N89 Mn73 2.282 . S
N89 C90 1.328 . S
N89 C94 1.318 . S
C90 N89 1.328 . S
C90 C91 1.457 . S
C90 H95 0.929 . S
C91 C90 1.457 . S
C91 C92 1.291 . S
C91 H104 0.931 . S
C92 C91 1.291 . S
C92 C93 1.373 . S
C92 H105 0.929 . S
C93 C92 1.373 . S
C93 C94 1.396 . S
C93 C100 1.403 . S
C94 C84 1.476 . S
C94 N89 1.318 . S
C94 C93 1.396 . S
H95 C90 0.929 . S
O96 Mn72 2.385 . S
O96 C74 1.234 . S
O97 Mn72 2.209 . S
O97 Mn73 2.215 . S
O97 C74 1.283 . S
O98 Mn72 2.094 . S
O98 C76 1.240 . S
O99 Mn73 2.117 . S
O99 C76 1.264 . S
C100 C93 1.403 . S
C100 C101 1.399 . S
C100 H106 0.929 . S
C101 C81 1.449 . S
C101 C100 1.399 . S
C101 H107 0.930 . S
H102 C82 0.931 . S
H103 C83 0.930 . S
H104 C91 0.931 . S
H105 C92 0.929 . S
H106 C100 0.929 . S
H107 C101 0.930 . S
Mn108 O113 2.095 . S
Mn108 O123 2.162 . S
Mn108 O124 2.297 . S
Mn108 O132 2.385 . S
Mn108 O133 2.209 . S
Mn108 O134 2.094 . S
Mn109 O114 2.121 . S
Mn109 N116 2.257 . S
Mn109 N125 2.282 . S
Mn109 O133 2.215 . S
Mn109 O135 2.117 . S
C110 O132 1.234 . S
C110 O133 1.283 . S
C111 O123 1.281 . S
C111 O124 1.236 . S
C112 O134 1.240 . S
C112 O135 1.264 . S
O113 Mn108 2.095 . S
O113 C122 1.250 . S
O114 Mn109 2.121 . S
O114 C122 1.258 . S
C115 N116 1.326 . S
C115 C119 1.460 . S
C115 H121 0.929 . S
N116 Mn109 2.257 . S
N116 C115 1.326 . S
N116 C120 1.362 . S
C117 C118 1.258 . S
C117 C120 1.431 . S
C117 C137 1.449 . S
C118 C117 1.258 . S
C118 C119 1.477 . S
C118 H138 0.931 . S
C119 C115 1.460 . S
C119 C118 1.477 . S
C119 H139 0.930 . S
C120 N116 1.362 . S
C120 C117 1.431 . S
C120 C130 1.476 . S
H121 C115 0.929 . S
C122 O113 1.250 . S
C122 O114 1.258 . S
O123 Mn108 2.162 . S
O123 C111 1.281 . S
O124 Mn108 2.297 . S
O124 C111 1.236 . S
N125 Mn109 2.282 . S
N125 C126 1.328 . S
N125 C130 1.318 . S
C126 N125 1.328 . S
C126 C127 1.457 . S
C126 H131 0.929 . S
C127 C126 1.457 . S
C127 C128 1.291 . S
C127 H140 0.931 . S
C128 C127 1.291 . S
C128 C129 1.373 . S
C128 H141 0.929 . S
C129 C128 1.373 . S
C129 C130 1.396 . S
C129 C136 1.403 . S
C130 C120 1.476 . S
C130 N125 1.318 . S
C130 C129 1.396 . S
H131 C126 0.929 . S
O132 Mn108 2.385 . S
O132 C110 1.234 . S
O133 Mn108 2.209 . S
O133 Mn109 2.215 . S
O133 C110 1.283 . S
O134 Mn108 2.094 . S
O134 C112 1.240 . S
O135 Mn109 2.117 . S
O135 C112 1.264 . S
C136 C129 1.403 . S
C136 C137 1.399 . S
C136 H142 0.929 . S
C137 C117 1.449 . S
C137 C136 1.399 . S
C137 H143 0.930 . S
H138 C118 0.931 . S
H139 C119 0.930 . S
H140 C127 0.931 . S
H141 C128 0.929 . S
H142 C136 0.929 . S
H143 C137 0.930 . S
Mn144 O149 2.095 . S
Mn144 O159 2.162 . S
Mn144 O160 2.297 . S
Mn144 O168 2.385 . S
Mn144 O169 2.209 . S
Mn144 O170 2.094 . S
Mn145 O150 2.121 . S
Mn145 N152 2.257 . S
Mn145 N161 2.282 . S
Mn145 O169 2.215 . S
Mn145 O171 2.117 . S
C146 O168 1.234 . S
C146 O169 1.283 . S
C147 O159 1.281 . S
C147 O160 1.236 . S
C148 O170 1.240 . S
C148 O171 1.264 . S
O149 Mn144 2.095 . S
O149 C158 1.250 . S
O150 Mn145 2.121 . S
O150 C158 1.258 . S
C151 N152 1.326 . S
C151 C155 1.460 . S
C151 H157 0.929 . S
N152 Mn145 2.257 . S
N152 C151 1.326 . S
N152 C156 1.362 . S
C153 C154 1.258 . S
C153 C156 1.431 . S
C153 C173 1.449 . S
C154 C153 1.258 . S
C154 C155 1.477 . S
C154 H174 0.931 . S
C155 C151 1.460 . S
C155 C154 1.477 . S
C155 H175 0.930 . S
C156 N152 1.362 . S
C156 C153 1.431 . S
C156 C166 1.476 . S
H157 C151 0.929 . S
C158 O149 1.250 . S
C158 O150 1.258 . S
O159 Mn144 2.162 . S
O159 C147 1.281 . S
O160 Mn144 2.297 . S
O160 C147 1.236 . S
N161 Mn145 2.282 . S
N161 C162 1.328 . S
N161 C166 1.318 . S
C162 N161 1.328 . S
C162 C163 1.457 . S
C162 H167 0.929 . S
C163 C162 1.457 . S
C163 C164 1.291 . S
C163 H176 0.931 . S
C164 C163 1.291 . S
C164 C165 1.373 . S
C164 H177 0.929 . S
C165 C164 1.373 . S
C165 C166 1.396 . S
C165 C172 1.403 . S
C166 C156 1.476 . S
C166 N161 1.318 . S
C166 C165 1.396 . S
H167 C162 0.929 . S
O168 Mn144 2.385 . S
O168 C146 1.234 . S
O169 Mn144 2.209 . S
O169 Mn145 2.215 . S
O169 C146 1.283 . S
O170 Mn144 2.094 . S
O170 C148 1.240 . S
O171 Mn145 2.117 . S
O171 C148 1.264 . S
C172 C165 1.403 . S
C172 C173 1.399 . S
C172 H178 0.929 . S
C173 C153 1.449 . S
C173 C172 1.399 . S
C173 H179 0.930 . S
H174 C154 0.931 . S
H175 C155 0.930 . S
H176 C163 0.931 . S
H177 C164 0.929 . S
H178 C172 0.929 . S
H179 C173 0.930 . S
Mn180 O185 2.095 . S
Mn180 O195 2.162 . S
Mn180 O196 2.297 . S
Mn180 O204 2.385 . S
Mn180 O205 2.209 . S
Mn180 O206 2.094 . S
Mn181 O186 2.121 . S
Mn181 N188 2.257 . S
Mn181 N197 2.282 . S
Mn181 O205 2.215 . S
Mn181 O207 2.117 . S
C182 O204 1.234 . S
C182 O205 1.283 . S
C183 O195 1.281 . S
C183 O196 1.236 . S
C184 O206 1.240 . S
C184 O207 1.264 . S
O185 Mn180 2.095 . S
O185 C194 1.250 . S
O186 Mn181 2.121 . S
O186 C194 1.258 . S
C187 N188 1.326 . S
C187 C191 1.460 . S
C187 H193 0.929 . S
N188 Mn181 2.257 . S
N188 C187 1.326 . S
N188 C192 1.362 . S
C189 C190 1.258 . S
C189 C192 1.431 . S
C189 C209 1.449 . S
C190 C189 1.258 . S
C190 C191 1.477 . S
C190 H210 0.931 . S
C191 C187 1.460 . S
C191 C190 1.477 . S
C191 H211 0.930 . S
C192 N188 1.362 . S
C192 C189 1.431 . S
C192 C202 1.476 . S
H193 C187 0.929 . S
C194 O185 1.250 . S
C194 O186 1.258 . S
O195 Mn180 2.162 . S
O195 C183 1.281 . S
O196 Mn180 2.297 . S
O196 C183 1.236 . S
N197 Mn181 2.282 . S
N197 C198 1.328 . S
N197 C202 1.318 . S
C198 N197 1.328 . S
C198 C199 1.457 . S
C198 H203 0.929 . S
C199 C198 1.457 . S
C199 C200 1.291 . S
C199 H212 0.931 . S
C200 C199 1.291 . S
C200 C201 1.373 . S
C200 H213 0.929 . S
C201 C200 1.373 . S
C201 C202 1.396 . S
C201 C208 1.403 . S
C202 C192 1.476 . S
C202 N197 1.318 . S
C202 C201 1.396 . S
H203 C198 0.929 . S
O204 Mn180 2.385 . S
O204 C182 1.234 . S
O205 Mn180 2.209 . S
O205 Mn181 2.215 . S
O205 C182 1.283 . S
O206 Mn180 2.094 . S
O206 C184 1.240 . S
O207 Mn181 2.117 . S
O207 C184 1.264 . S
C208 C201 1.403 . S
C208 C209 1.399 . S
C208 H214 0.929 . S
C209 C189 1.449 . S
C209 C208 1.399 . S
C209 H215 0.930 . S
H210 C190 0.931 . S
H211 C191 0.930 . S
H212 C199 0.931 . S
H213 C200 0.929 . S
H214 C208 0.929 . S
H215 C209 0.930 . S
Mn216 O221 2.095 . S
Mn216 O231 2.162 . S
Mn216 O232 2.297 . S
Mn216 O240 2.385 . S
Mn216 O241 2.209 . S
Mn216 O242 2.094 . S
Mn217 O222 2.121 . S
Mn217 N224 2.257 . S
Mn217 N233 2.282 . S
Mn217 O241 2.215 . S
Mn217 O243 2.117 . S
C218 O240 1.234 . S
C218 O241 1.283 . S
C219 O231 1.281 . S
C219 O232 1.236 . S
C220 O242 1.240 . S
C220 O243 1.264 . S
O221 Mn216 2.095 . S
O221 C230 1.250 . S
O222 Mn217 2.121 . S
O222 C230 1.258 . S
C223 N224 1.326 . S
C223 C227 1.460 . S
C223 H229 0.929 . S
N224 Mn217 2.257 . S
N224 C223 1.326 . S
N224 C228 1.362 . S
C225 C226 1.258 . S
C225 C228 1.431 . S
C225 C245 1.449 . S
C226 C225 1.258 . S
C226 C227 1.477 . S
C226 H246 0.931 . S
C227 C223 1.460 . S
C227 C226 1.477 . S
C227 H247 0.930 . S
C228 N224 1.362 . S
C228 C225 1.431 . S
C228 C238 1.476 . S
H229 C223 0.929 . S
C230 O221 1.250 . S
C230 O222 1.258 . S
O231 Mn216 2.162 . S
O231 C219 1.281 . S
O232 Mn216 2.297 . S
O232 C219 1.236 . S
N233 Mn217 2.282 . S
N233 C234 1.328 . S
N233 C238 1.318 . S
C234 N233 1.328 . S
C234 C235 1.457 . S
C234 H239 0.929 . S
C235 C234 1.457 . S
C235 C236 1.291 . S
C235 H248 0.931 . S
C236 C235 1.291 . S
C236 C237 1.373 . S
C236 H249 0.929 . S
C237 C236 1.373 . S
C237 C238 1.396 . S
C237 C244 1.403 . S
C238 C228 1.476 . S
C238 N233 1.318 . S
C238 C237 1.396 . S
H239 C234 0.929 . S
O240 Mn216 2.385 . S
O240 C218 1.234 . S
O241 Mn216 2.209 . S
O241 Mn217 2.215 . S
O241 C218 1.283 . S
O242 Mn216 2.094 . S
O242 C220 1.240 . S
O243 Mn217 2.117 . S
O243 C220 1.264 . S
C244 C237 1.403 . S
C244 C245 1.399 . S
C244 H250 0.929 . S
C245 C225 1.449 . S
C245 C244 1.399 . S
C245 H251 0.930 . S
H246 C226 0.931 . S
H247 C227 0.930 . S
H248 C235 0.931 . S
H249 C236 0.929 . S
H250 C244 0.929 . S
H251 C245 0.930 . S
Mn252 O257 2.095 . S
Mn252 O267 2.162 . S
Mn252 O268 2.297 . S
Mn252 O276 2.385 . S
Mn252 O277 2.209 . S
Mn252 O278 2.094 . S
Mn253 O258 2.121 . S
Mn253 N260 2.257 . S
Mn253 N269 2.282 . S
Mn253 O277 2.215 . S
Mn253 O279 2.117 . S
C254 O276 1.234 . S
C254 O277 1.283 . S
C255 O267 1.281 . S
C255 O268 1.236 . S
C256 O278 1.240 . S
C256 O279 1.264 . S
O257 Mn252 2.095 . S
O257 C266 1.250 . S
O258 Mn253 2.121 . S
O258 C266 1.258 . S
C259 N260 1.326 . S
C259 C263 1.460 . S
C259 H265 0.929 . S
N260 Mn253 2.257 . S
N260 C259 1.326 . S
N260 C264 1.362 . S
C261 C262 1.258 . S
C261 C264 1.431 . S
C261 C281 1.449 . S
C262 C261 1.258 . S
C262 C263 1.477 . S
C262 H282 0.931 . S
C263 C259 1.460 . S
C263 C262 1.477 . S
C263 H283 0.930 . S
C264 N260 1.362 . S
C264 C261 1.431 . S
C264 C274 1.476 . S
H265 C259 0.929 . S
C266 O257 1.250 . S
C266 O258 1.258 . S
O267 Mn252 2.162 . S
O267 C255 1.281 . S
O268 Mn252 2.297 . S
O268 C255 1.236 . S
N269 Mn253 2.282 . S
N269 C270 1.328 . S
N269 C274 1.318 . S
C270 N269 1.328 . S
C270 C271 1.457 . S
C270 H275 0.929 . S
C271 C270 1.457 . S
C271 C272 1.291 . S
C271 H284 0.931 . S
C272 C271 1.291 . S
C272 C273 1.373 . S
C272 H285 0.929 . S
C273 C272 1.373 . S
C273 C274 1.396 . S
C273 C280 1.403 . S
C274 C264 1.476 . S
C274 N269 1.318 . S
C274 C273 1.396 . S
H275 C270 0.929 . S
O276 Mn252 2.385 . S
O276 C254 1.234 . S
O277 Mn252 2.209 . S
O277 Mn253 2.215 . S
O277 C254 1.283 . S
O278 Mn252 2.094 . S
O278 C256 1.240 . S
O279 Mn253 2.117 . S
O279 C256 1.264 . S
C280 C273 1.403 . S
C280 C281 1.399 . S
C280 H286 0.929 . S
C281 C261 1.449 . S
C281 C280 1.399 . S
C281 H287 0.930 . S
H282 C262 0.931 . S
H283 C263 0.930 . S
H284 C271 0.931 . S
H285 C272 0.929 . S
H286 C280 0.929 . S
H287 C281 0.930 . S
Mn288 O293 2.095 . S
Mn288 O303 2.145 1_565 S
Mn288 O304 2.297 . S
Mn288 O312 2.385 . S
Mn288 O313 2.209 . S
Mn288 O314 2.094 . S
Mn289 O294 2.121 . S
Mn289 N296 2.257 . S
Mn289 N305 2.282 . S
Mn289 O313 2.215 . S
Mn289 O315 2.117 . S
C290 O312 1.234 . S
C290 O313 1.283 . S
C291 O303 1.288 . S
C291 O304 1.236 1_545 S
C292 O314 1.240 . S
C292 O315 1.264 . S
O293 Mn288 2.095 . S
O293 C302 1.250 . S
O294 Mn289 2.121 . S
O294 C302 1.258 . S
C295 N296 1.326 . S
C295 C299 1.460 . S
C295 H301 0.929 . S
N296 Mn289 2.257 . S
N296 C295 1.326 . S
N296 C300 1.362 . S
C297 C298 1.258 . S
C297 C300 1.431 . S
C297 C317 1.449 . S
C298 C297 1.258 . S
C298 C299 1.477 . S
C298 H318 0.931 . S
C299 C295 1.460 . S
C299 C298 1.477 . S
C299 H319 0.930 . S
C300 N296 1.362 . S
C300 C297 1.431 . S
C300 C310 1.476 . S
H301 C295 0.929 . S
C302 O293 1.250 . S
C302 O294 1.258 . S
O303 Mn288 2.145 1_545 S
O303 C291 1.288 . S
O304 Mn288 2.297 . S
O304 C291 1.236 1_565 S
N305 Mn289 2.282 . S
N305 C306 1.328 . S
N305 C310 1.318 . S
C306 N305 1.328 . S
C306 C307 1.457 . S
C306 H311 0.929 . S
C307 C306 1.457 . S
C307 C308 1.291 . S
C307 H320 0.931 . S
C308 C307 1.291 . S
C308 C309 1.373 . S
C308 H321 0.929 . S
C309 C308 1.373 . S
C309 C310 1.396 . S
C309 C316 1.403 . S
C310 C300 1.476 . S
C310 N305 1.318 . S
C310 C309 1.396 . S
H311 C306 0.929 . S
O312 Mn288 2.385 . S
O312 C290 1.234 . S
O313 Mn288 2.209 . S
O313 Mn289 2.215 . S
O313 C290 1.283 . S
O314 Mn288 2.094 . S
O314 C292 1.240 . S
O315 Mn289 2.117 . S
O315 C292 1.264 . S
C316 C309 1.403 . S
C316 C317 1.399 . S
C316 H322 0.929 . S
C317 C297 1.449 . S
C317 C316 1.399 . S
C317 H323 0.930 . S
H318 C298 0.931 . S
H319 C299 0.930 . S
H320 C307 0.931 . S
H321 C308 0.929 . S
H322 C316 0.929 . S
H323 C317 0.930 . S
Mn324 O329 2.095 . S
Mn324 O339 2.145 1_655 S
Mn324 O340 2.297 . S
Mn324 O348 2.385 . S
Mn324 O349 2.209 . S
Mn324 O350 2.094 . S
Mn325 O330 2.121 . S
Mn325 N332 2.257 . S
Mn325 N341 2.282 . S
Mn325 O349 2.215 . S
Mn325 O351 2.117 . S
C326 O348 1.234 . S
C326 O349 1.283 . S
C327 O339 1.288 . S
C327 O340 1.236 1_455 S
C328 O350 1.240 . S
C328 O351 1.264 . S
O329 Mn324 2.095 . S
O329 C338 1.250 . S
O330 Mn325 2.121 . S
O330 C338 1.258 . S
C331 N332 1.326 . S
C331 C335 1.460 . S
C331 H337 0.929 . S
N332 Mn325 2.257 . S
N332 C331 1.326 . S
N332 C336 1.362 . S
C333 C334 1.258 . S
C333 C336 1.431 . S
C333 C353 1.449 . S
C334 C333 1.258 . S
C334 C335 1.477 . S
C334 H354 0.931 . S
C335 C331 1.460 . S
C335 C334 1.477 . S
C335 H355 0.930 . S
C336 N332 1.362 . S
C336 C333 1.431 . S
C336 C346 1.476 . S
H337 C331 0.929 . S
C338 O329 1.250 . S
C338 O330 1.258 . S
O339 Mn324 2.145 1_455 S
O339 C327 1.288 . S
O340 Mn324 2.297 . S
O340 C327 1.236 1_655 S
N341 Mn325 2.282 . S
N341 C342 1.328 . S
N341 C346 1.318 . S
C342 N341 1.328 . S
C342 C343 1.457 . S
C342 H347 0.929 . S
C343 C342 1.457 . S
C343 C344 1.291 . S
C343 H356 0.931 . S
C344 C343 1.291 . S
C344 C345 1.373 . S
C344 H357 0.929 . S
C345 C344 1.373 . S
C345 C346 1.396 . S
C345 C352 1.403 . S
C346 C336 1.476 . S
C346 N341 1.318 . S
C346 C345 1.396 . S
H347 C342 0.929 . S
O348 Mn324 2.385 . S
O348 C326 1.234 . S
O349 Mn324 2.209 . S
O349 Mn325 2.215 . S
O349 C326 1.283 . S
O350 Mn324 2.094 . S
O350 C328 1.240 . S
O351 Mn325 2.117 . S
O351 C328 1.264 . S
C352 C345 1.403 . S
C352 C353 1.399 . S
C352 H358 0.929 . S
C353 C333 1.449 . S
C353 C352 1.399 . S
C353 H359 0.930 . S
H354 C334 0.931 . S
H355 C335 0.930 . S
H356 C343 0.931 . S
H357 C344 0.929 . S
H358 C352 0.929 . S
H359 C353 0.930 . S
Mn360 O365 2.095 . S
Mn360 O375 2.145 1_545 S
Mn360 O376 2.297 . S
Mn360 O384 2.385 . S
Mn360 O385 2.209 . S
Mn360 O386 2.094 . S
Mn361 O366 2.121 . S
Mn361 N368 2.257 . S
Mn361 N377 2.282 . S
Mn361 O385 2.215 . S
Mn361 O387 2.117 . S
C362 O384 1.234 . S
C362 O385 1.283 . S
C363 O375 1.288 . S
C363 O376 1.236 1_565 S
C364 O386 1.240 . S
C364 O387 1.264 . S
O365 Mn360 2.095 . S
O365 C374 1.250 . S
O366 Mn361 2.121 . S
O366 C374 1.258 . S
C367 N368 1.326 . S
C367 C371 1.460 . S
C367 H373 0.929 . S
N368 Mn361 2.257 . S
N368 C367 1.326 . S
N368 C372 1.362 . S
C369 C370 1.258 . S
C369 C372 1.431 . S
C369 C389 1.449 . S
C370 C369 1.258 . S
C370 C371 1.477 . S
C370 H390 0.931 . S
C371 C367 1.460 . S
C371 C370 1.477 . S
C371 H391 0.930 . S
C372 N368 1.362 . S
C372 C369 1.431 . S
C372 C382 1.476 . S
H373 C367 0.929 . S
C374 O365 1.250 . S
C374 O366 1.258 . S
O375 Mn360 2.145 1_565 S
O375 C363 1.288 . S
O376 Mn360 2.297 . S
O376 C363 1.236 1_545 S
N377 Mn361 2.282 . S
N377 C378 1.328 . S
N377 C382 1.318 . S
C378 N377 1.328 . S
C378 C379 1.457 . S
C378 H383 0.929 . S
C379 C378 1.457 . S
C379 C380 1.291 . S
C379 H392 0.931 . S
C380 C379 1.291 . S
C380 C381 1.373 . S
C380 H393 0.929 . S
C381 C380 1.373 . S
C381 C382 1.396 . S
C381 C388 1.403 . S
C382 C372 1.476 . S
C382 N377 1.318 . S
C382 C381 1.396 . S
H383 C378 0.929 . S
O384 Mn360 2.385 . S
O384 C362 1.234 . S
O385 Mn360 2.209 . S
O385 Mn361 2.215 . S
O385 C362 1.283 . S
O386 Mn360 2.094 . S
O386 C364 1.240 . S
O387 Mn361 2.117 . S
O387 C364 1.264 . S
C388 C381 1.403 . S
C388 C389 1.399 . S
C388 H394 0.929 . S
C389 C369 1.449 . S
C389 C388 1.399 . S
C389 H395 0.930 . S
H390 C370 0.931 . S
H391 C371 0.930 . S
H392 C379 0.931 . S
H393 C380 0.929 . S
H394 C388 0.929 . S
H395 C389 0.930 . S
Mn396 O401 2.095 . S
Mn396 O411 2.145 1_455 S
Mn396 O412 2.297 . S
Mn396 O420 2.385 . S
Mn396 O421 2.209 . S
Mn396 O422 2.094 . S
Mn397 O402 2.121 . S
Mn397 N404 2.257 . S
Mn397 N413 2.282 . S
Mn397 O421 2.215 . S
Mn397 O423 2.117 . S
C398 O420 1.234 . S
C398 O421 1.283 . S
C399 O411 1.288 . S
C399 O412 1.236 1_655 S
C400 O422 1.240 . S
C400 O423 1.264 . S
O401 Mn396 2.095 . S
O401 C410 1.250 . S
O402 Mn397 2.121 . S
O402 C410 1.258 . S
C403 N404 1.326 . S
C403 C407 1.460 . S
C403 H409 0.929 . S
N404 Mn397 2.257 . S
N404 C403 1.326 . S
N404 C408 1.362 . S
C405 C406 1.258 . S
C405 C408 1.431 . S
C405 C425 1.449 . S
C406 C405 1.258 . S
C406 C407 1.477 . S
C406 H426 0.931 . S
C407 C403 1.460 . S
C407 C406 1.477 . S
C407 H427 0.930 . S
C408 N404 1.362 . S
C408 C405 1.431 . S
C408 C418 1.476 . S
H409 C403 0.929 . S
C410 O401 1.250 . S
C410 O402 1.258 . S
O411 Mn396 2.145 1_655 S
O411 C399 1.288 . S
O412 Mn396 2.297 . S
O412 C399 1.236 1_455 S
N413 Mn397 2.282 . S
N413 C414 1.328 . S
N413 C418 1.318 . S
C414 N413 1.328 . S
C414 C415 1.457 . S
C414 H419 0.929 . S
C415 C414 1.457 . S
C415 C416 1.291 . S
C415 H428 0.931 . S
C416 C415 1.291 . S
C416 C417 1.373 . S
C416 H429 0.929 . S
C417 C416 1.373 . S
C417 C418 1.396 . S
C417 C424 1.403 . S
C418 C408 1.476 . S
C418 N413 1.318 . S
C418 C417 1.396 . S
H419 C414 0.929 . S
O420 Mn396 2.385 . S
O420 C398 1.234 . S
O421 Mn396 2.209 . S
O421 Mn397 2.215 . S
O421 C398 1.283 . S
O422 Mn396 2.094 . S
O422 C400 1.240 . S
O423 Mn397 2.117 . S
O423 C400 1.264 . S
C424 C417 1.403 . S
C424 C425 1.399 . S
C424 H430 0.929 . S
C425 C405 1.449 . S
C425 C424 1.399 . S
C425 H431 0.930 . S
H426 C406 0.931 . S
H427 C407 0.930 . S
H428 C415 0.931 . S
H429 C416 0.929 . S
H430 C424 0.929 . S
H431 C425 0.930 . S
Mn432 O437 2.095 . S
Mn432 O447 2.145 1_545 S
Mn432 O448 2.297 . S
Mn432 O456 2.385 . S
Mn432 O457 2.209 . S
Mn432 O458 2.094 . S
Mn433 O438 2.121 . S
Mn433 N440 2.257 . S
Mn433 N449 2.282 . S
Mn433 O457 2.215 . S
Mn433 O459 2.117 . S
C434 O456 1.234 . S
C434 O457 1.283 . S
C435 O447 1.288 . S
C435 O448 1.236 1_565 S
C436 O458 1.240 . S
C436 O459 1.264 . S
O437 Mn432 2.095 . S
O437 C446 1.250 . S
O438 Mn433 2.121 . S
O438 C446 1.258 . S
C439 N440 1.326 . S
C439 C443 1.460 . S
C439 H445 0.929 . S
N440 Mn433 2.257 . S
N440 C439 1.326 . S
N440 C444 1.362 . S
C441 C442 1.258 . S
C441 C444 1.431 . S
C441 C461 1.449 . S
C442 C441 1.258 . S
C442 C443 1.477 . S
C442 H462 0.931 . S
C443 C439 1.460 . S
C443 C442 1.477 . S
C443 H463 0.930 . S
C444 N440 1.362 . S
C444 C441 1.431 . S
C444 C454 1.476 . S
H445 C439 0.929 . S
C446 O437 1.250 . S
C446 O438 1.258 . S
O447 Mn432 2.145 1_565 S
O447 C435 1.288 . S
O448 Mn432 2.297 . S
O448 C435 1.236 1_545 S
N449 Mn433 2.282 . S
N449 C450 1.328 . S
N449 C454 1.318 . S
C450 N449 1.328 . S
C450 C451 1.457 . S
C450 H455 0.929 . S
C451 C450 1.457 . S
C451 C452 1.291 . S
C451 H464 0.931 . S
C452 C451 1.291 . S
C452 C453 1.373 . S
C452 H465 0.929 . S
C453 C452 1.373 . S
C453 C454 1.396 . S
C453 C460 1.403 . S
C454 C444 1.476 . S
C454 N449 1.318 . S
C454 C453 1.396 . S
H455 C450 0.929 . S
O456 Mn432 2.385 . S
O456 C434 1.234 . S
O457 Mn432 2.209 . S
O457 Mn433 2.215 . S
O457 C434 1.283 . S
O458 Mn432 2.094 . S
O458 C436 1.240 . S
O459 Mn433 2.117 . S
O459 C436 1.264 . S
C460 C453 1.403 . S
C460 C461 1.399 . S
C460 H466 0.929 . S
C461 C441 1.449 . S
C461 C460 1.399 . S
C461 H467 0.930 . S
H462 C442 0.931 . S
H463 C443 0.930 . S
H464 C451 0.931 . S
H465 C452 0.929 . S
H466 C460 0.929 . S
H467 C461 0.930 . S
Mn468 O473 2.095 . S
Mn468 O483 2.145 1_455 S
Mn468 O484 2.297 . S
Mn468 O492 2.385 . S
Mn468 O493 2.209 . S
Mn468 O494 2.094 . S
Mn469 O474 2.121 . S
Mn469 N476 2.257 . S
Mn469 N485 2.282 . S
Mn469 O493 2.215 . S
Mn469 O495 2.117 . S
C470 O492 1.234 . S
C470 O493 1.283 . S
C471 O483 1.288 . S
C471 O484 1.236 1_655 S
C472 O494 1.240 . S
C472 O495 1.264 . S
O473 Mn468 2.095 . S
O473 C482 1.250 . S
O474 Mn469 2.121 . S
O474 C482 1.258 . S
C475 N476 1.326 . S
C475 C479 1.460 . S
C475 H481 0.929 . S
N476 Mn469 2.257 . S
N476 C475 1.326 . S
N476 C480 1.362 . S
C477 C478 1.258 . S
C477 C480 1.431 . S
C477 C497 1.449 . S
C478 C477 1.258 . S
C478 C479 1.477 . S
C478 H498 0.931 . S
C479 C475 1.460 . S
C479 C478 1.477 . S
C479 H499 0.930 . S
C480 N476 1.362 . S
C480 C477 1.431 . S
C480 C490 1.476 . S
H481 C475 0.929 . S
C482 O473 1.250 . S
C482 O474 1.258 . S
O483 Mn468 2.145 1_655 S
O483 C471 1.288 . S
O484 Mn468 2.297 . S
O484 C471 1.236 1_455 S
N485 Mn469 2.282 . S
N485 C486 1.328 . S
N485 C490 1.318 . S
C486 N485 1.328 . S
C486 C487 1.457 . S
C486 H491 0.929 . S
C487 C486 1.457 . S
C487 C488 1.291 . S
C487 H500 0.931 . S
C488 C487 1.291 . S
C488 C489 1.373 . S
C488 H501 0.929 . S
C489 C488 1.373 . S
C489 C490 1.396 . S
C489 C496 1.403 . S
C490 C480 1.476 . S
C490 N485 1.318 . S
C490 C489 1.396 . S
H491 C486 0.929 . S
O492 Mn468 2.385 . S
O492 C470 1.234 . S
O493 Mn468 2.209 . S
O493 Mn469 2.215 . S
O493 C470 1.283 . S
O494 Mn468 2.094 . S
O494 C472 1.240 . S
O495 Mn469 2.117 . S
O495 C472 1.264 . S
C496 C489 1.403 . S
C496 C497 1.399 . S
C496 H502 0.929 . S
C497 C477 1.449 . S
C497 C496 1.399 . S
C497 H503 0.930 . S
H498 C478 0.931 . S
H499 C479 0.930 . S
H500 C487 0.931 . S
H501 C488 0.929 . S
H502 C496 0.929 . S
H503 C497 0.930 . S
Mn504 O509 2.095 . S
Mn504 O519 2.145 1_565 S
Mn504 O520 2.297 . S
Mn504 O528 2.385 . S
Mn504 O529 2.209 . S
Mn504 O530 2.094 . S
Mn505 O510 2.121 . S
Mn505 N512 2.257 . S
Mn505 N521 2.282 . S
Mn505 O529 2.215 . S
Mn505 O531 2.117 . S
C506 O528 1.234 . S
C506 O529 1.283 . S
C507 O519 1.288 . S
C507 O520 1.236 1_545 S
C508 O530 1.240 . S
C508 O531 1.264 . S
O509 Mn504 2.095 . S
O509 C518 1.250 . S
O510 Mn505 2.121 . S
O510 C518 1.258 . S
C511 N512 1.326 . S
C511 C515 1.460 . S
C511 H517 0.929 . S
N512 Mn505 2.257 . S
N512 C511 1.326 . S
N512 C516 1.362 . S
C513 C514 1.258 . S
C513 C516 1.431 . S
C513 C533 1.449 . S
C514 C513 1.258 . S
C514 C515 1.477 . S
C514 H534 0.931 . S
C515 C511 1.460 . S
C515 C514 1.477 . S
C515 H535 0.930 . S
C516 N512 1.362 . S
C516 C513 1.431 . S
C516 C526 1.476 . S
H517 C511 0.929 . S
C518 O509 1.250 . S
C518 O510 1.258 . S
O519 Mn504 2.145 1_545 S
O519 C507 1.288 . S
O520 Mn504 2.297 . S
O520 C507 1.236 1_565 S
N521 Mn505 2.282 . S
N521 C522 1.328 . S
N521 C526 1.318 . S
C522 N521 1.328 . S
C522 C523 1.457 . S
C522 H527 0.929 . S
C523 C522 1.457 . S
C523 C524 1.291 . S
C523 H536 0.931 . S
C524 C523 1.291 . S
C524 C525 1.373 . S
C524 H537 0.929 . S
C525 C524 1.373 . S
C525 C526 1.396 . S
C525 C532 1.403 . S
C526 C516 1.476 . S
C526 N521 1.318 . S
C526 C525 1.396 . S
H527 C522 0.929 . S
O528 Mn504 2.385 . S
O528 C506 1.234 . S
O529 Mn504 2.209 . S
O529 Mn505 2.215 . S
O529 C506 1.283 . S
O530 Mn504 2.094 . S
O530 C508 1.240 . S
O531 Mn505 2.117 . S
O531 C508 1.264 . S
C532 C525 1.403 . S
C532 C533 1.399 . S
C532 H538 0.929 . S
C533 C513 1.449 . S
C533 C532 1.399 . S
C533 H539 0.930 . S
H534 C514 0.931 . S
H535 C515 0.930 . S
H536 C523 0.931 . S
H537 C524 0.929 . S
H538 C532 0.929 . S
H539 C533 0.930 . S
Mn540 O545 2.095 . S
Mn540 O555 2.145 1_655 S
Mn540 O556 2.297 . S
Mn540 O564 2.385 . S
Mn540 O565 2.209 . S
Mn540 O566 2.094 . S
Mn541 O546 2.121 . S
Mn541 N548 2.257 . S
Mn541 N557 2.282 . S
Mn541 O565 2.215 . S
Mn541 O567 2.117 . S
C542 O564 1.234 . S
C542 O565 1.283 . S
C543 O555 1.288 . S
C543 O556 1.236 1_455 S
C544 O566 1.240 . S
C544 O567 1.264 . S
O545 Mn540 2.095 . S
O545 C554 1.250 . S
O546 Mn541 2.121 . S
O546 C554 1.258 . S
C547 N548 1.326 . S
C547 C551 1.460 . S
C547 H553 0.929 . S
N548 Mn541 2.257 . S
N548 C547 1.326 . S
N548 C552 1.362 . S
C549 C550 1.258 . S
C549 C552 1.431 . S
C549 C569 1.449 . S
C550 C549 1.258 . S
C550 C551 1.477 . S
C550 H570 0.931 . S
C551 C547 1.460 . S
C551 C550 1.477 . S
C551 H571 0.930 . S
C552 N548 1.362 . S
C552 C549 1.431 . S
C552 C562 1.476 . S
H553 C547 0.929 . S
C554 O545 1.250 . S
C554 O546 1.258 . S
O555 Mn540 2.145 1_455 S
O555 C543 1.288 . S
O556 Mn540 2.297 . S
O556 C543 1.236 1_655 S
N557 Mn541 2.282 . S
N557 C558 1.328 . S
N557 C562 1.318 . S
C558 N557 1.328 . S
C558 C559 1.457 . S
C558 H563 0.929 . S
C559 C558 1.457 . S
C559 C560 1.291 . S
C559 H572 0.931 . S
C560 C559 1.291 . S
C560 C561 1.373 . S
C560 H573 0.929 . S
C561 C560 1.373 . S
C561 C562 1.396 . S
C561 C568 1.403 . S
C562 C552 1.476 . S
C562 N557 1.318 . S
C562 C561 1.396 . S
H563 C558 0.929 . S
O564 Mn540 2.385 . S
O564 C542 1.234 . S
O565 Mn540 2.209 . S
O565 Mn541 2.215 . S
O565 C542 1.283 . S
O566 Mn540 2.094 . S
O566 C544 1.240 . S
O567 Mn541 2.117 . S
O567 C544 1.264 . S
C568 C561 1.403 . S
C568 C569 1.399 . S
C568 H574 0.929 . S
C569 C549 1.449 . S
C569 C568 1.399 . S
C569 H575 0.930 . S
H570 C550 0.931 . S
H571 C551 0.930 . S
H572 C559 0.931 . S
H573 C560 0.929 . S
H574 C568 0.929 . S
H575 C569 0.930 . S
C576 C577 1.391 . S
C576 C578 1.394 . S
C576 H592 0.931 . S
C577 C576 1.391 . S
C577 C581 1.376 . S
C578 C576 1.394 . S
C578 C579 1.369 . S
C578 C582 1.531 . S
C579 C578 1.369 . S
C579 C580 1.410 . S
C579 C587 1.503 . S
C580 C579 1.410 . S
C580 C581 1.392 . S
C580 C583 1.511 . S
C581 C577 1.376 . S
C581 C580 1.392 . S
C581 H593 0.929 . S
C582 C578 1.531 . S
C582 H594 0.960 . S
C582 H595 0.962 . S
C582 H596 0.960 . S
C583 C580 1.511 . S
C583 H597 0.961 . S
C583 H598 0.961 . S
C583 H599 0.961 . S
C584 C585 1.370 . S
C584 C586 1.363 . S
C584 H600 0.931 . S
C585 C584 1.370 . S
C585 C589 1.408 . S
C586 C584 1.363 . S
C586 C587 1.370 . S
C586 C590 1.524 . S
C587 C579 1.503 . S
C587 C586 1.370 . S
C587 C588 1.403 . S
C588 C587 1.403 . S
C588 C589 1.404 . S
C588 C591 1.539 . S
C589 C585 1.408 . S
C589 C588 1.404 . S
C589 H601 0.930 . S
C590 C586 1.524 . S
C590 H602 0.956 . S
C590 H603 0.961 . S
C590 H604 0.961 . S
C591 C588 1.539 . S
C591 H605 0.958 . S
C591 H606 0.961 . S
C591 H607 0.960 . S
H592 C576 0.931 . S
H593 C581 0.929 . S
H594 C582 0.960 . S
H595 C582 0.962 . S
H596 C582 0.960 . S
H597 C583 0.961 . S
H598 C583 0.961 . S
H599 C583 0.961 . S
H600 C584 0.931 . S
H601 C589 0.930 . S
H602 C590 0.956 . S
H603 C590 0.961 . S
H604 C590 0.961 . S
H605 C591 0.958 . S
H606 C591 0.961 . S
H607 C591 0.960 . S
C608 C609 1.391 . S
C608 C610 1.394 . S
C608 H624 0.931 . S
C609 C608 1.391 . S
C609 C613 1.376 . S
C610 C608 1.394 . S
C610 C611 1.369 . S
C610 C614 1.531 . S
C611 C610 1.369 . S
C611 C612 1.410 . S
C611 C619 1.503 . S
C612 C611 1.410 . S
C612 C613 1.392 . S
C612 C615 1.511 . S
C613 C609 1.376 . S
C613 C612 1.392 . S
C613 H625 0.929 . S
C614 C610 1.531 . S
C614 H626 0.960 . S
C614 H627 0.962 . S
C614 H628 0.960 . S
C615 C612 1.511 . S
C615 H629 0.961 . S
C615 H630 0.961 . S
C615 H631 0.961 . S
C616 C617 1.370 . S
C616 C618 1.363 . S
C616 H632 0.931 . S
C617 C616 1.370 . S
C617 C621 1.408 . S
C618 C616 1.363 . S
C618 C619 1.370 . S
C618 C622 1.524 . S
C619 C611 1.503 . S
C619 C618 1.370 . S
C619 C620 1.403 . S
C620 C619 1.403 . S
C620 C621 1.404 . S
C620 C623 1.539 . S
C621 C617 1.408 . S
C621 C620 1.404 . S
C621 H633 0.930 . S
C622 C618 1.524 . S
C622 H634 0.956 . S
C622 H635 0.961 . S
C622 H636 0.961 . S
C623 C620 1.539 . S
C623 H637 0.958 . S
C623 H638 0.961 . S
C623 H639 0.960 . S
H624 C608 0.931 . S
H625 C613 0.929 . S
H626 C614 0.960 . S
H627 C614 0.962 . S
H628 C614 0.960 . S
H629 C615 0.961 . S
H630 C615 0.961 . S
H631 C615 0.961 . S
H632 C616 0.931 . S
H633 C621 0.930 . S
H634 C622 0.956 . S
H635 C622 0.961 . S
H636 C622 0.961 . S
H637 C623 0.958 . S
H638 C623 0.961 . S
H639 C623 0.960 . S
C640 C641 1.391 . S
C640 C642 1.394 . S
C640 H656 0.931 . S
C641 C640 1.391 . S
C641 C645 1.376 . S
C642 C640 1.394 . S
C642 C643 1.369 . S
C642 C646 1.531 . S
C643 C642 1.369 . S
C643 C644 1.410 . S
C643 C651 1.503 . S
C644 C643 1.410 . S
C644 C645 1.392 . S
C644 C647 1.511 . S
C645 C641 1.376 . S
C645 C644 1.392 . S
C645 H657 0.929 . S
C646 C642 1.531 . S
C646 H658 0.960 . S
C646 H659 0.962 . S
C646 H660 0.960 . S
C647 C644 1.511 . S
C647 H661 0.961 . S
C647 H662 0.961 . S
C647 H663 0.961 . S
C648 C649 1.370 . S
C648 C650 1.363 . S
C648 H664 0.931 . S
C649 C648 1.370 . S
C649 C653 1.408 . S
C650 C648 1.363 . S
C650 C651 1.370 . S
C650 C654 1.524 . S
C651 C643 1.503 . S
C651 C650 1.370 . S
C651 C652 1.403 . S
C652 C651 1.403 . S
C652 C653 1.404 . S
C652 C655 1.539 . S
C653 C649 1.408 . S
C653 C652 1.404 . S
C653 H665 0.930 . S
C654 C650 1.524 . S
C654 H666 0.956 . S
C654 H667 0.961 . S
C654 H668 0.961 . S
C655 C652 1.539 . S
C655 H669 0.958 . S
C655 H670 0.961 . S
C655 H671 0.960 . S
H656 C640 0.931 . S
H657 C645 0.929 . S
H658 C646 0.960 . S
H659 C646 0.962 . S
H660 C646 0.960 . S
H661 C647 0.961 . S
H662 C647 0.961 . S
H663 C647 0.961 . S
H664 C648 0.931 . S
H665 C653 0.930 . S
H666 C654 0.956 . S
H667 C654 0.961 . S
H668 C654 0.961 . S
H669 C655 0.958 . S
H670 C655 0.961 . S
H671 C655 0.960 . S
C672 C673 1.391 . S
C672 C674 1.394 . S
C672 H688 0.931 . S
C673 C672 1.391 . S
C673 C677 1.376 . S
C674 C672 1.394 . S
C674 C675 1.369 . S
C674 C678 1.531 . S
C675 C674 1.369 . S
C675 C676 1.410 . S
C675 C683 1.503 . S
C676 C675 1.410 . S
C676 C677 1.392 . S
C676 C679 1.511 . S
C677 C673 1.376 . S
C677 C676 1.392 . S
C677 H689 0.929 . S
C678 C674 1.531 . S
C678 H690 0.960 . S
C678 H691 0.962 . S
C678 H692 0.960 . S
C679 C676 1.511 . S
C679 H693 0.961 . S
C679 H694 0.961 . S
C679 H695 0.961 . S
C680 C681 1.370 . S
C680 C682 1.363 . S
C680 H696 0.931 . S
C681 C680 1.370 . S
C681 C685 1.408 . S
C682 C680 1.363 . S
C682 C683 1.370 . S
C682 C686 1.524 . S
C683 C675 1.503 . S
C683 C682 1.370 . S
C683 C684 1.403 . S
C684 C683 1.403 . S
C684 C685 1.404 . S
C684 C687 1.539 . S
C685 C681 1.408 . S
C685 C684 1.404 . S
C685 H697 0.930 . S
C686 C682 1.524 . S
C686 H698 0.956 . S
C686 H699 0.961 . S
C686 H700 0.961 . S
C687 C684 1.539 . S
C687 H701 0.958 . S
C687 H702 0.961 . S
C687 H703 0.960 . S
H688 C672 0.931 . S
H689 C677 0.929 . S
H690 C678 0.960 . S
H691 C678 0.962 . S
H692 C678 0.960 . S
H693 C679 0.961 . S
H694 C679 0.961 . S
H695 C679 0.961 . S
H696 C680 0.931 . S
H697 C685 0.930 . S
H698 C686 0.956 . S
H699 C686 0.961 . S
H700 C686 0.961 . S
H701 C687 0.958 . S
H702 C687 0.961 . S
H703 C687 0.960 . S
C704 C705 1.391 . S
C704 C706 1.394 . S
C704 H720 0.931 . S
C705 C704 1.391 . S
C705 C709 1.376 . S
C706 C704 1.394 . S
C706 C707 1.369 . S
C706 C710 1.531 . S
C707 C706 1.369 . S
C707 C708 1.410 . S
C707 C715 1.503 . S
C708 C707 1.410 . S
C708 C709 1.392 . S
C708 C711 1.511 . S
C709 C705 1.376 . S
C709 C708 1.392 . S
C709 H721 0.929 . S
C710 C706 1.531 . S
C710 H722 0.960 . S
C710 H723 0.962 . S
C710 H724 0.960 . S
C711 C708 1.511 . S
C711 H725 0.961 . S
C711 H726 0.961 . S
C711 H727 0.961 . S
C712 C713 1.370 . S
C712 C714 1.363 . S
C712 H728 0.931 . S
C713 C712 1.370 . S
C713 C717 1.408 . S
C714 C712 1.363 . S
C714 C715 1.370 . S
C714 C718 1.524 . S
C715 C707 1.503 . S
C715 C714 1.370 . S
C715 C716 1.403 . S
C716 C715 1.403 . S
C716 C717 1.404 . S
C716 C719 1.539 . S
C717 C713 1.408 . S
C717 C716 1.404 . S
C717 H729 0.930 . S
C718 C714 1.524 . S
C718 H730 0.956 . S
C718 H731 0.961 . S
C718 H732 0.961 . S
C719 C716 1.539 . S
C719 H733 0.958 . S
C719 H734 0.961 . S
C719 H735 0.960 . S
H720 C704 0.931 . S
H721 C709 0.929 . S
H722 C710 0.960 . S
H723 C710 0.962 . S
H724 C710 0.960 . S
H725 C711 0.961 . S
H726 C711 0.961 . S
H727 C711 0.961 . S
H728 C712 0.931 . S
H729 C717 0.930 . S
H730 C718 0.956 . S
H731 C718 0.961 . S
H732 C718 0.961 . S
H733 C719 0.958 . S
H734 C719 0.961 . S
H735 C719 0.960 . S
C736 C737 1.391 . S
C736 C738 1.394 . S
C736 H752 0.931 . S
C737 C736 1.391 . S
C737 C741 1.376 . S
C738 C736 1.394 . S
C738 C739 1.369 . S
C738 C742 1.531 . S
C739 C738 1.369 . S
C739 C740 1.410 . S
C739 C747 1.503 . S
C740 C739 1.410 . S
C740 C741 1.392 . S
C740 C743 1.511 . S
C741 C737 1.376 . S
C741 C740 1.392 . S
C741 H753 0.929 . S
C742 C738 1.531 . S
C742 H754 0.960 . S
C742 H755 0.962 . S
C742 H756 0.960 . S
C743 C740 1.511 . S
C743 H757 0.961 . S
C743 H758 0.961 . S
C743 H759 0.961 . S
C744 C745 1.370 . S
C744 C746 1.363 . S
C744 H760 0.931 . S
C745 C744 1.370 . S
C745 C749 1.408 . S
C746 C744 1.363 . S
C746 C747 1.370 . S
C746 C750 1.524 . S
C747 C739 1.503 . S
C747 C746 1.370 . S
C747 C748 1.403 . S
C748 C747 1.403 . S
C748 C749 1.404 . S
C748 C751 1.539 . S
C749 C745 1.408 . S
C749 C748 1.404 . S
C749 H761 0.930 . S
C750 C746 1.524 . S
C750 H762 0.956 . S
C750 H763 0.961 . S
C750 H764 0.961 . S
C751 C748 1.539 . S
C751 H765 0.958 . S
C751 H766 0.961 . S
C751 H767 0.960 . S
H752 C736 0.931 . S
H753 C741 0.929 . S
H754 C742 0.960 . S
H755 C742 0.962 . S
H756 C742 0.960 . S
H757 C743 0.961 . S
H758 C743 0.961 . S
H759 C743 0.961 . S
H760 C744 0.931 . S
H761 C749 0.930 . S
H762 C750 0.956 . S
H763 C750 0.961 . S
H764 C750 0.961 . S
H765 C751 0.958 . S
H766 C751 0.961 . S
H767 C751 0.960 . S
C768 C769 1.391 . S
C768 C770 1.394 . S
C768 H784 0.931 . S
C769 C768 1.391 . S
C769 C773 1.376 . S
C770 C768 1.394 . S
C770 C771 1.369 . S
C770 C774 1.531 . S
C771 C770 1.369 . S
C771 C772 1.410 . S
C771 C779 1.503 . S
C772 C771 1.410 . S
C772 C773 1.392 . S
C772 C775 1.511 . S
C773 C769 1.376 . S
C773 C772 1.392 . S
C773 H785 0.929 . S
C774 C770 1.531 . S
C774 H786 0.960 . S
C774 H787 0.962 . S
C774 H788 0.960 . S
C775 C772 1.511 . S
C775 H789 0.961 . S
C775 H790 0.961 . S
C775 H791 0.961 . S
C776 C777 1.370 . S
C776 C778 1.363 . S
C776 H792 0.931 . S
C777 C776 1.370 . S
C777 C781 1.408 . S
C778 C776 1.363 . S
C778 C779 1.370 . S
C778 C782 1.524 . S
C779 C771 1.503 . S
C779 C778 1.370 . S
C779 C780 1.403 . S
C780 C779 1.403 . S
C780 C781 1.404 . S
C780 C783 1.539 . S
C781 C777 1.408 . S
C781 C780 1.404 . S
C781 H793 0.930 . S
C782 C778 1.524 . S
C782 H794 0.956 . S
C782 H795 0.961 . S
C782 H796 0.961 . S
C783 C780 1.539 . S
C783 H797 0.958 . S
C783 H798 0.961 . S
C783 H799 0.960 . S
H784 C768 0.931 . S
H785 C773 0.929 . S
H786 C774 0.960 . S
H787 C774 0.962 . S
H788 C774 0.960 . S
H789 C775 0.961 . S
H790 C775 0.961 . S
H791 C775 0.961 . S
H792 C776 0.931 . S
H793 C781 0.930 . S
H794 C782 0.956 . S
H795 C782 0.961 . S
H796 C782 0.961 . S
H797 C783 0.958 . S
H798 C783 0.961 . S
H799 C783 0.960 . S
C800 C801 1.391 . S
C800 C802 1.394 . S
C800 H816 0.931 . S
C801 C800 1.391 . S
C801 C805 1.376 . S
C802 C800 1.394 . S
C802 C803 1.369 . S
C802 C806 1.531 . S
C803 C802 1.369 . S
C803 C804 1.410 . S
C803 C811 1.503 . S
C804 C803 1.410 . S
C804 C805 1.392 . S
C804 C807 1.511 . S
C805 C801 1.376 . S
C805 C804 1.392 . S
C805 H817 0.929 . S
C806 C802 1.531 . S
C806 H818 0.960 . S
C806 H819 0.962 . S
C806 H820 0.960 . S
C807 C804 1.511 . S
C807 H821 0.961 . S
C807 H822 0.961 . S
C807 H823 0.961 . S
C808 C809 1.370 . S
C808 C810 1.363 . S
C808 H824 0.931 . S
C809 C808 1.370 . S
C809 C813 1.408 . S
C810 C808 1.363 . S
C810 C811 1.370 . S
C810 C814 1.524 . S
C811 C803 1.503 . S
C811 C810 1.370 . S
C811 C812 1.403 . S
C812 C811 1.403 . S
C812 C813 1.404 . S
C812 C815 1.539 . S
C813 C809 1.408 . S
C813 C812 1.404 . S
C813 H825 0.930 . S
C814 C810 1.524 . S
C814 H826 0.956 . S
C814 H827 0.961 . S
C814 H828 0.961 . S
C815 C812 1.539 . S
C815 H829 0.958 . S
C815 H830 0.961 . S
C815 H831 0.960 . S
H816 C800 0.931 . S
H817 C805 0.929 . S
H818 C806 0.960 . S
H819 C806 0.962 . S
H820 C806 0.960 . S
H821 C807 0.961 . S
H822 C807 0.961 . S
H823 C807 0.961 . S
H824 C808 0.931 . S
H825 C813 0.930 . S
H826 C814 0.956 . S
H827 C814 0.961 . S
H828 C814 0.961 . S
H829 C815 0.958 . S
H830 C815 0.961 . S
H831 C815 0.960 . S
C832 C833 1.391 . S
C832 C834 1.394 . S
C832 H848 0.931 . S
C833 C832 1.391 . S
C833 C837 1.376 . S
C834 C832 1.394 . S
C834 C835 1.369 . S
C834 C838 1.531 . S
C835 C834 1.369 . S
C835 C836 1.410 . S
C835 C843 1.503 . S
C836 C835 1.410 . S
C836 C837 1.392 . S
C836 C839 1.511 . S
C837 C833 1.376 . S
C837 C836 1.392 . S
C837 H849 0.929 . S
C838 C834 1.531 . S
C838 H850 0.960 . S
C838 H851 0.962 . S
C838 H852 0.960 . S
C839 C836 1.511 . S
C839 H853 0.961 . S
C839 H854 0.961 . S
C839 H855 0.961 . S
C840 C841 1.370 . S
C840 C842 1.363 . S
C840 H856 0.931 . S
C841 C840 1.370 . S
C841 C845 1.408 . S
C842 C840 1.363 . S
C842 C843 1.370 . S
C842 C846 1.524 . S
C843 C835 1.503 . S
C843 C842 1.370 . S
C843 C844 1.403 . S
C844 C843 1.403 . S
C844 C845 1.404 . S
C844 C847 1.539 . S
C845 C841 1.408 . S
C845 C844 1.404 . S
C845 H857 0.930 . S
C846 C842 1.524 . S
C846 H858 0.956 . S
C846 H859 0.961 . S
C846 H860 0.961 . S
C847 C844 1.539 . S
C847 H861 0.958 . S
C847 H862 0.961 . S
C847 H863 0.960 . S
H848 C832 0.931 . S
H849 C837 0.929 . S
H850 C838 0.960 . S
H851 C838 0.962 . S
H852 C838 0.960 . S
H853 C839 0.961 . S
H854 C839 0.961 . S
H855 C839 0.961 . S
H856 C840 0.931 . S
H857 C845 0.930 . S
H858 C846 0.956 . S
H859 C846 0.961 . S
H860 C846 0.961 . S
H861 C847 0.958 . S
H862 C847 0.961 . S
H863 C847 0.960 . S
C864 C865 1.391 . S
C864 C866 1.394 . S
C864 H880 0.931 . S
C865 C864 1.391 . S
C865 C869 1.376 . S
C866 C864 1.394 . S
C866 C867 1.369 . S
C866 C870 1.531 . S
C867 C866 1.369 . S
C867 C868 1.410 . S
C867 C875 1.503 . S
C868 C867 1.410 . S
C868 C869 1.392 . S
C868 C871 1.511 . S
C869 C865 1.376 . S
C869 C868 1.392 . S
C869 H881 0.929 . S
C870 C866 1.531 . S
C870 H882 0.960 . S
C870 H883 0.962 . S
C870 H884 0.960 . S
C871 C868 1.511 . S
C871 H885 0.961 . S
C871 H886 0.961 . S
C871 H887 0.961 . S
C872 C873 1.370 . S
C872 C874 1.363 . S
C872 H888 0.931 . S
C873 C872 1.370 . S
C873 C877 1.408 . S
C874 C872 1.363 . S
C874 C875 1.370 . S
C874 C878 1.524 . S
C875 C867 1.503 . S
C875 C874 1.370 . S
C875 C876 1.403 . S
C876 C875 1.403 . S
C876 C877 1.404 . S
C876 C879 1.539 . S
C877 C873 1.408 . S
C877 C876 1.404 . S
C877 H889 0.930 . S
C878 C874 1.524 . S
C878 H890 0.956 . S
C878 H891 0.961 . S
C878 H892 0.961 . S
C879 C876 1.539 . S
C879 H893 0.958 . S
C879 H894 0.961 . S
C879 H895 0.960 . S
H880 C864 0.931 . S
H881 C869 0.929 . S
H882 C870 0.960 . S
H883 C870 0.962 . S
H884 C870 0.960 . S
H885 C871 0.961 . S
H886 C871 0.961 . S
H887 C871 0.961 . S
H888 C872 0.931 . S
H889 C877 0.930 . S
H890 C878 0.956 . S
H891 C878 0.961 . S
H892 C878 0.961 . S
H893 C879 0.958 . S
H894 C879 0.961 . S
H895 C879 0.960 . S
C896 C897 1.391 . S
C896 C898 1.394 . S
C896 H912 0.931 . S
C897 C896 1.391 . S
C897 C901 1.376 . S
C898 C896 1.394 . S
C898 C899 1.369 . S
C898 C902 1.531 . S
C899 C898 1.369 . S
C899 C900 1.410 . S
C899 C907 1.503 . S
C900 C899 1.410 . S
C900 C901 1.392 . S
C900 C903 1.511 . S
C901 C897 1.376 . S
C901 C900 1.392 . S
C901 H913 0.929 . S
C902 C898 1.531 . S
C902 H914 0.960 . S
C902 H915 0.962 . S
C902 H916 0.960 . S
C903 C900 1.511 . S
C903 H917 0.961 . S
C903 H918 0.961 . S
C903 H919 0.961 . S
C904 C905 1.370 . S
C904 C906 1.363 . S
C904 H920 0.931 . S
C905 C904 1.370 . S
C905 C909 1.408 . S
C906 C904 1.363 . S
C906 C907 1.370 . S
C906 C910 1.524 . S
C907 C899 1.503 . S
C907 C906 1.370 . S
C907 C908 1.403 . S
C908 C907 1.403 . S
C908 C909 1.404 . S
C908 C911 1.539 . S
C909 C905 1.408 . S
C909 C908 1.404 . S
C909 H921 0.930 . S
C910 C906 1.524 . S
C910 H922 0.956 . S
C910 H923 0.961 . S
C910 H924 0.961 . S
C911 C908 1.539 . S
C911 H925 0.958 . S
C911 H926 0.961 . S
C911 H927 0.960 . S
H912 C896 0.931 . S
H913 C901 0.929 . S
H914 C902 0.960 . S
H915 C902 0.962 . S
H916 C902 0.960 . S
H917 C903 0.961 . S
H918 C903 0.961 . S
H919 C903 0.961 . S
H920 C904 0.931 . S
H921 C909 0.930 . S
H922 C910 0.956 . S
H923 C910 0.961 . S
H924 C910 0.961 . S
H925 C911 0.958 . S
H926 C911 0.961 . S
H927 C911 0.960 . S
C928 C929 1.391 . S
C928 C930 1.394 . S
C928 H944 0.931 . S
C929 C928 1.391 . S
C929 C933 1.376 . S
C930 C928 1.394 . S
C930 C931 1.369 . S
C930 C934 1.531 . S
C931 C930 1.369 . S
C931 C932 1.410 . S
C931 C939 1.503 . S
C932 C931 1.410 . S
C932 C933 1.392 . S
C932 C935 1.511 . S
C933 C929 1.376 . S
C933 C932 1.392 . S
C933 H945 0.929 . S
C934 C930 1.531 . S
C934 H946 0.960 . S
C934 H947 0.962 . S
C934 H948 0.960 . S
C935 C932 1.511 . S
C935 H949 0.961 . S
C935 H950 0.961 . S
C935 H951 0.961 . S
C936 C937 1.370 . S
C936 C938 1.363 . S
C936 H952 0.931 . S
C937 C936 1.370 . S
C937 C941 1.408 . S
C938 C936 1.363 . S
C938 C939 1.370 . S
C938 C942 1.524 . S
C939 C931 1.503 . S
C939 C938 1.370 . S
C939 C940 1.403 . S
C940 C939 1.403 . S
C940 C941 1.404 . S
C940 C943 1.539 . S
C941 C937 1.408 . S
C941 C940 1.404 . S
C941 H953 0.930 . S
C942 C938 1.524 . S
C942 H954 0.956 . S
C942 H955 0.961 . S
C942 H956 0.961 . S
C943 C940 1.539 . S
C943 H957 0.958 . S
C943 H958 0.961 . S
C943 H959 0.960 . S
H944 C928 0.931 . S
H945 C933 0.929 . S
H946 C934 0.960 . S
H947 C934 0.962 . S
H948 C934 0.960 . S
H949 C935 0.961 . S
H950 C935 0.961 . S
H951 C935 0.961 . S
H952 C936 0.931 . S
H953 C941 0.930 . S
H954 C942 0.956 . S
H955 C942 0.961 . S
H956 C942 0.961 . S
H957 C943 0.958 . S
H958 C943 0.961 . S
H959 C943 0.960 . S
C960 C961 1.391 . S
C960 C962 1.394 . S
C960 H976 0.931 . S
C961 C960 1.391 . S
C961 C965 1.376 . S
C962 C960 1.394 . S
C962 C963 1.369 . S
C962 C966 1.531 . S
C963 C962 1.369 . S
C963 C964 1.410 . S
C963 C971 1.503 . S
C964 C963 1.410 . S
C964 C965 1.392 . S
C964 C967 1.511 . S
C965 C961 1.376 . S
C965 C964 1.392 . S
C965 H977 0.929 . S
C966 C962 1.531 . S
C966 H978 0.960 . S
C966 H979 0.962 . S
C966 H980 0.960 . S
C967 C964 1.511 . S
C967 H981 0.961 . S
C967 H982 0.961 . S
C967 H983 0.961 . S
C968 C969 1.370 . S
C968 C970 1.363 . S
C968 H984 0.931 . S
C969 C968 1.370 . S
C969 C973 1.408 . S
C970 C968 1.363 . S
C970 C971 1.370 . S
C970 C974 1.524 . S
C971 C963 1.503 . S
C971 C970 1.370 . S
C971 C972 1.403 . S
C972 C971 1.403 . S
C972 C973 1.404 . S
C972 C975 1.539 . S
C973 C969 1.408 . S
C973 C972 1.404 . S
C973 H985 0.930 . S
C974 C970 1.524 . S
C974 H986 0.956 . S
C974 H987 0.961 . S
C974 H988 0.961 . S
C975 C972 1.539 . S
C975 H989 0.958 . S
C975 H990 0.961 . S
C975 H991 0.960 . S
H976 C960 0.931 . S
H977 C965 0.929 . S
H978 C966 0.960 . S
H979 C966 0.962 . S
H980 C966 0.960 . S
H981 C967 0.961 . S
H982 C967 0.961 . S
H983 C967 0.961 . S
H984 C968 0.931 . S
H985 C973 0.930 . S
H986 C974 0.956 . S
H987 C974 0.961 . S
H988 C974 0.961 . S
H989 C975 0.958 . S
H990 C975 0.961 . S
H991 C975 0.960 . S
C992 C993 1.391 . S
C992 C994 1.394 . S
C992 H1008 0.931 . S
C993 C992 1.391 . S
C993 C997 1.376 . S
C994 C992 1.394 . S
C994 C995 1.369 . S
C994 C998 1.531 . S
C995 C994 1.369 . S
C995 C996 1.410 . S
C995 C1003 1.503 . S
C996 C995 1.410 . S
C996 C997 1.392 . S
C996 C999 1.511 . S
C997 C993 1.376 . S
C997 C996 1.392 . S
C997 H1009 0.929 . S
C998 C994 1.531 . S
C998 H1010 0.960 . S
C998 H1011 0.962 . S
C998 H1012 0.960 . S
C999 C996 1.511 . S
C999 H1013 0.961 . S
C999 H1014 0.961 . S
C999 H1015 0.961 . S
C1000 C1001 1.370 . S
C1000 C1002 1.363 . S
C1000 H1016 0.931 . S
C1001 C1000 1.370 . S
C1001 C1005 1.408 . S
C1002 C1000 1.363 . S
C1002 C1003 1.370 . S
C1002 C1006 1.524 . S
C1003 C995 1.503 . S
C1003 C1002 1.370 . S
C1003 C1004 1.403 . S
C1004 C1003 1.403 . S
C1004 C1005 1.404 . S
C1004 C1007 1.539 . S
C1005 C1001 1.408 . S
C1005 C1004 1.404 . S
C1005 H1017 0.930 . S
C1006 C1002 1.524 . S
C1006 H1018 0.956 . S
C1006 H1019 0.961 . S
C1006 H1020 0.961 . S
C1007 C1004 1.539 . S
C1007 H1021 0.958 . S
C1007 H1022 0.961 . S
C1007 H1023 0.960 . S
H1008 C992 0.931 . S
H1009 C997 0.929 . S
H1010 C998 0.960 . S
H1011 C998 0.962 . S
H1012 C998 0.960 . S
H1013 C999 0.961 . S
H1014 C999 0.961 . S
H1015 C999 0.961 . S
H1016 C1000 0.931 . S
H1017 C1005 0.930 . S
H1018 C1006 0.956 . S
H1019 C1006 0.961 . S
H1020 C1006 0.961 . S
H1021 C1007 0.958 . S
H1022 C1007 0.961 . S
H1023 C1007 0.960 . S
C1024 C1025 1.391 . S
C1024 C1026 1.394 . S
C1024 H1040 0.931 . S
C1025 C1024 1.391 . S
C1025 C1029 1.376 . S
C1026 C1024 1.394 . S
C1026 C1027 1.369 . S
C1026 C1030 1.531 . S
C1027 C1026 1.369 . S
C1027 C1028 1.410 . S
C1027 C1035 1.503 . S
C1028 C1027 1.410 . S
C1028 C1029 1.392 . S
C1028 C1031 1.511 . S
C1029 C1025 1.376 . S
C1029 C1028 1.392 . S
C1029 H1041 0.929 . S
C1030 C1026 1.531 . S
C1030 H1042 0.960 . S
C1030 H1043 0.962 . S
C1030 H1044 0.960 . S
C1031 C1028 1.511 . S
C1031 H1045 0.961 . S
C1031 H1046 0.961 . S
C1031 H1047 0.961 . S
C1032 C1033 1.370 . S
C1032 C1034 1.363 . S
C1032 H1048 0.931 . S
C1033 C1032 1.370 . S
C1033 C1037 1.408 . S
C1034 C1032 1.363 . S
C1034 C1035 1.370 . S
C1034 C1038 1.524 . S
C1035 C1027 1.503 . S
C1035 C1034 1.370 . S
C1035 C1036 1.403 . S
C1036 C1035 1.403 . S
C1036 C1037 1.404 . S
C1036 C1039 1.539 . S
C1037 C1033 1.408 . S
C1037 C1036 1.404 . S
C1037 H1049 0.930 . S
C1038 C1034 1.524 . S
C1038 H1050 0.956 . S
C1038 H1051 0.961 . S
C1038 H1052 0.961 . S
C1039 C1036 1.539 . S
C1039 H1053 0.958 . S
C1039 H1054 0.961 . S
C1039 H1055 0.960 . S
H1040 C1024 0.931 . S
H1041 C1029 0.929 . S
H1042 C1030 0.960 . S
H1043 C1030 0.962 . S
H1044 C1030 0.960 . S
H1045 C1031 0.961 . S
H1046 C1031 0.961 . S
H1047 C1031 0.961 . S
H1048 C1032 0.931 . S
H1049 C1037 0.930 . S
H1050 C1038 0.956 . S
H1051 C1038 0.961 . S
H1052 C1038 0.961 . S
H1053 C1039 0.958 . S
H1054 C1039 0.961 . S
H1055 C1039 0.960 . S
C1056 C1057 1.391 . S
C1056 C1058 1.394 . S
C1056 H1072 0.931 . S
C1057 C1056 1.391 . S
C1057 C1061 1.376 . S
C1058 C1056 1.394 . S
C1058 C1059 1.369 . S
C1058 C1062 1.531 . S
C1059 C1058 1.369 . S
C1059 C1060 1.410 . S
C1059 C1067 1.503 . S
C1060 C1059 1.410 . S
C1060 C1061 1.392 . S
C1060 C1063 1.511 . S
C1061 C1057 1.376 . S
C1061 C1060 1.392 . S
C1061 H1073 0.929 . S
C1062 C1058 1.531 . S
C1062 H1074 0.960 . S
C1062 H1075 0.962 . S
C1062 H1076 0.960 . S
C1063 C1060 1.511 . S
C1063 H1077 0.961 . S
C1063 H1078 0.961 . S
C1063 H1079 0.961 . S
C1064 C1065 1.370 . S
C1064 C1066 1.363 . S
C1064 H1080 0.931 . S
C1065 C1064 1.370 . S
C1065 C1069 1.408 . S
C1066 C1064 1.363 . S
C1066 C1067 1.370 . S
C1066 C1070 1.524 . S
C1067 C1059 1.503 . S
C1067 C1066 1.370 . S
C1067 C1068 1.403 . S
C1068 C1067 1.403 . S
C1068 C1069 1.404 . S
C1068 C1071 1.539 . S
C1069 C1065 1.408 . S
C1069 C1068 1.404 . S
C1069 H1081 0.930 . S
C1070 C1066 1.524 . S
C1070 H1082 0.956 . S
C1070 H1083 0.961 . S
C1070 H1084 0.961 . S
C1071 C1068 1.539 . S
C1071 H1085 0.958 . S
C1071 H1086 0.961 . S
C1071 H1087 0.960 . S
H1072 C1056 0.931 . S
H1073 C1061 0.929 . S
H1074 C1062 0.960 . S
H1075 C1062 0.962 . S
H1076 C1062 0.960 . S
H1077 C1063 0.961 . S
H1078 C1063 0.961 . S
H1079 C1063 0.961 . S
H1080 C1064 0.931 . S
H1081 C1069 0.930 . S
H1082 C1070 0.956 . S
H1083 C1070 0.961 . S
H1084 C1070 0.961 . S
H1085 C1071 0.958 . S
H1086 C1071 0.961 . S
H1087 C1071 0.960 . S
C1088 C1089 1.391 . S
C1088 C1090 1.394 . S
C1088 H1104 0.931 . S
C1089 C1088 1.391 . S
C1089 C1093 1.376 . S
C1090 C1088 1.394 . S
C1090 C1091 1.369 . S
C1090 C1094 1.531 . S
C1091 C1090 1.369 . S
C1091 C1092 1.410 . S
C1091 C1099 1.503 . S
C1092 C1091 1.410 . S
C1092 C1093 1.392 . S
C1092 C1095 1.511 . S
C1093 C1089 1.376 . S
C1093 C1092 1.392 . S
C1093 H1105 0.929 . S
C1094 C1090 1.531 . S
C1094 H1106 0.960 . S
C1094 H1107 0.962 . S
C1094 H1108 0.960 . S
C1095 C1092 1.511 . S
C1095 H1109 0.961 . S
C1095 H1110 0.961 . S
C1095 H1111 0.961 . S
C1096 C1097 1.370 . S
C1096 C1098 1.363 . S
C1096 H1112 0.931 . S
C1097 C1096 1.370 . S
C1097 C1101 1.408 . S
C1098 C1096 1.363 . S
C1098 C1099 1.370 . S
C1098 C1102 1.524 . S
C1099 C1091 1.503 . S
C1099 C1098 1.370 . S
C1099 C1100 1.403 . S
C1100 C1099 1.403 . S
C1100 C1101 1.404 . S
C1100 C1103 1.539 . S
C1101 C1097 1.408 . S
C1101 C1100 1.404 . S
C1101 H1113 0.930 . S
C1102 C1098 1.524 . S
C1102 H1114 0.956 . S
C1102 H1115 0.961 . S
C1102 H1116 0.961 . S
C1103 C1100 1.539 . S
C1103 H1117 0.958 . S
C1103 H1118 0.961 . S
C1103 H1119 0.960 . S
H1104 C1088 0.931 . S
H1105 C1093 0.929 . S
H1106 C1094 0.960 . S
H1107 C1094 0.962 . S
H1108 C1094 0.960 . S
H1109 C1095 0.961 . S
H1110 C1095 0.961 . S
H1111 C1095 0.961 . S
H1112 C1096 0.931 . S
H1113 C1101 0.930 . S
H1114 C1102 0.956 . S
H1115 C1102 0.961 . S
H1116 C1102 0.961 . S
H1117 C1103 0.958 . S
H1118 C1103 0.961 . S
H1119 C1103 0.960 . S
C1120 C1121 1.391 . S
C1120 C1122 1.394 . S
C1120 H1136 0.931 . S
C1121 C1120 1.391 . S
C1121 C1125 1.376 . S
C1122 C1120 1.394 . S
C1122 C1123 1.369 . S
C1122 C1126 1.531 . S
C1123 C1122 1.369 . S
C1123 C1124 1.410 . S
C1123 C1131 1.503 . S
C1124 C1123 1.410 . S
C1124 C1125 1.392 . S
C1124 C1127 1.511 . S
C1125 C1121 1.376 . S
C1125 C1124 1.392 . S
C1125 H1137 0.929 . S
C1126 C1122 1.531 . S
C1126 H1138 0.960 . S
C1126 H1139 0.962 . S
C1126 H1140 0.960 . S
C1127 C1124 1.511 . S
C1127 H1141 0.961 . S
C1127 H1142 0.961 . S
C1127 H1143 0.961 . S
C1128 C1129 1.370 . S
C1128 C1130 1.363 . S
C1128 H1144 0.931 . S
C1129 C1128 1.370 . S
C1129 C1133 1.408 . S
C1130 C1128 1.363 . S
C1130 C1131 1.370 . S
C1130 C1134 1.524 . S
C1131 C1123 1.503 . S
C1131 C1130 1.370 . S
C1131 C1132 1.403 . S
C1132 C1131 1.403 . S
C1132 C1133 1.404 . S
C1132 C1135 1.539 . S
C1133 C1129 1.408 . S
C1133 C1132 1.404 . S
C1133 H1145 0.930 . S
C1134 C1130 1.524 . S
C1134 H1146 0.956 . S
C1134 H1147 0.961 . S
C1134 H1148 0.961 . S
C1135 C1132 1.539 . S
C1135 H1149 0.958 . S
C1135 H1150 0.961 . S
C1135 H1151 0.960 . S
H1136 C1120 0.931 . S
H1137 C1125 0.929 . S
H1138 C1126 0.960 . S
H1139 C1126 0.962 . S
H1140 C1126 0.960 . S
H1141 C1127 0.961 . S
H1142 C1127 0.961 . S
H1143 C1127 0.961 . S
H1144 C1128 0.931 . S
H1145 C1133 0.930 . S
H1146 C1134 0.956 . S
H1147 C1134 0.961 . S
H1148 C1134 0.961 . S
H1149 C1135 0.958 . S
H1150 C1135 0.961 . S
H1151 C1135 0.960 . S
C1152 C1153 1.391 . S
C1152 C1154 1.394 . S
C1152 H1168 0.931 . S
C1153 C1152 1.391 . S
C1153 C1157 1.376 . S
C1154 C1152 1.394 . S
C1154 C1155 1.369 . S
C1154 C1158 1.531 . S
C1155 C1154 1.369 . S
C1155 C1156 1.410 . S
C1155 C1163 1.503 . S
C1156 C1155 1.410 . S
C1156 C1157 1.392 . S
C1156 C1159 1.511 . S
C1157 C1153 1.376 . S
C1157 C1156 1.392 . S
C1157 H1169 0.929 . S
C1158 C1154 1.531 . S
C1158 H1170 0.960 . S
C1158 H1171 0.962 . S
C1158 H1172 0.960 . S
C1159 C1156 1.511 . S
C1159 H1173 0.961 . S
C1159 H1174 0.961 . S
C1159 H1175 0.961 . S
C1160 C1161 1.370 . S
C1160 C1162 1.363 . S
C1160 H1176 0.931 . S
C1161 C1160 1.370 . S
C1161 C1165 1.408 . S
C1162 C1160 1.363 . S
C1162 C1163 1.370 . S
C1162 C1166 1.524 . S
C1163 C1155 1.503 . S
C1163 C1162 1.370 . S
C1163 C1164 1.403 . S
C1164 C1163 1.403 . S
C1164 C1165 1.404 . S
C1164 C1167 1.539 . S
C1165 C1161 1.408 . S
C1165 C1164 1.404 . S
C1165 H1177 0.930 . S
C1166 C1162 1.524 . S
C1166 H1178 0.956 . S
C1166 H1179 0.961 . S
C1166 H1180 0.961 . S
C1167 C1164 1.539 . S
C1167 H1181 0.958 . S
C1167 H1182 0.961 . S
C1167 H1183 0.960 . S
H1168 C1152 0.931 . S
H1169 C1157 0.929 . S
H1170 C1158 0.960 . S
H1171 C1158 0.962 . S
H1172 C1158 0.960 . S
H1173 C1159 0.961 . S
H1174 C1159 0.961 . S
H1175 C1159 0.961 . S
H1176 C1160 0.931 . S
H1177 C1165 0.930 . S
H1178 C1166 0.956 . S
H1179 C1166 0.961 . S
H1180 C1166 0.961 . S
H1181 C1167 0.958 . S
H1182 C1167 0.961 . S
H1183 C1167 0.960 . S
C1184 C1185 1.391 . S
C1184 C1186 1.394 . S
C1184 H1200 0.931 . S
C1185 C1184 1.391 . S
C1185 C1189 1.376 . S
C1186 C1184 1.394 . S
C1186 C1187 1.369 . S
C1186 C1190 1.531 . S
C1187 C1186 1.369 . S
C1187 C1188 1.410 . S
C1187 C1195 1.503 . S
C1188 C1187 1.410 . S
C1188 C1189 1.392 . S
C1188 C1191 1.511 . S
C1189 C1185 1.376 . S
C1189 C1188 1.392 . S
C1189 H1201 0.929 . S
C1190 C1186 1.531 . S
C1190 H1202 0.960 . S
C1190 H1203 0.962 . S
C1190 H1204 0.960 . S
C1191 C1188 1.511 . S
C1191 H1205 0.961 . S
C1191 H1206 0.961 . S
C1191 H1207 0.961 . S
C1192 C1193 1.370 . S
C1192 C1194 1.363 . S
C1192 H1208 0.931 . S
C1193 C1192 1.370 . S
C1193 C1197 1.408 . S
C1194 C1192 1.363 . S
C1194 C1195 1.370 . S
C1194 C1198 1.524 . S
C1195 C1187 1.503 . S
C1195 C1194 1.370 . S
C1195 C1196 1.403 . S
C1196 C1195 1.403 . S
C1196 C1197 1.404 . S
C1196 C1199 1.539 . S
C1197 C1193 1.408 . S
C1197 C1196 1.404 . S
C1197 H1209 0.930 . S
C1198 C1194 1.524 . S
C1198 H1210 0.956 . S
C1198 H1211 0.961 . S
C1198 H1212 0.961 . S
C1199 C1196 1.539 . S
C1199 H1213 0.958 . S
C1199 H1214 0.961 . S
C1199 H1215 0.960 . S
H1200 C1184 0.931 . S
H1201 C1189 0.929 . S
H1202 C1190 0.960 . S
H1203 C1190 0.962 . S
H1204 C1190 0.960 . S
H1205 C1191 0.961 . S
H1206 C1191 0.961 . S
H1207 C1191 0.961 . S
H1208 C1192 0.931 . S
H1209 C1197 0.930 . S
H1210 C1198 0.956 . S
H1211 C1198 0.961 . S
H1212 C1198 0.961 . S
H1213 C1199 0.958 . S
H1214 C1199 0.961 . S
H1215 C1199 0.960 . S
C1216 C1217 1.391 . S
C1216 C1218 1.394 . S
C1216 H1232 0.931 . S
C1217 C1216 1.391 . S
C1217 C1221 1.376 . S
C1218 C1216 1.394 . S
C1218 C1219 1.369 . S
C1218 C1222 1.531 . S
C1219 C1218 1.369 . S
C1219 C1220 1.410 . S
C1219 C1227 1.503 . S
C1220 C1219 1.410 . S
C1220 C1221 1.392 . S
C1220 C1223 1.511 . S
C1221 C1217 1.376 . S
C1221 C1220 1.392 . S
C1221 H1233 0.929 . S
C1222 C1218 1.531 . S
C1222 H1234 0.960 . S
C1222 H1235 0.962 . S
C1222 H1236 0.960 . S
C1223 C1220 1.511 . S
C1223 H1237 0.961 . S
C1223 H1238 0.961 . S
C1223 H1239 0.961 . S
C1224 C1225 1.370 . S
C1224 C1226 1.363 . S
C1224 H1240 0.931 . S
C1225 C1224 1.370 . S
C1225 C1229 1.408 . S
C1226 C1224 1.363 . S
C1226 C1227 1.370 . S
C1226 C1230 1.524 . S
C1227 C1219 1.503 . S
C1227 C1226 1.370 . S
C1227 C1228 1.403 . S
C1228 C1227 1.403 . S
C1228 C1229 1.404 . S
C1228 C1231 1.539 . S
C1229 C1225 1.408 . S
C1229 C1228 1.404 . S
C1229 H1241 0.930 . S
C1230 C1226 1.524 . S
C1230 H1242 0.956 . S
C1230 H1243 0.961 . S
C1230 H1244 0.961 . S
C1231 C1228 1.539 . S
C1231 H1245 0.958 . S
C1231 H1246 0.961 . S
C1231 H1247 0.960 . S
H1232 C1216 0.931 . S
H1233 C1221 0.929 . S
H1234 C1222 0.960 . S
H1235 C1222 0.962 . S
H1236 C1222 0.960 . S
H1237 C1223 0.961 . S
H1238 C1223 0.961 . S
H1239 C1223 0.961 . S
H1240 C1224 0.931 . S
H1241 C1229 0.930 . S
H1242 C1230 0.956 . S
H1243 C1230 0.961 . S
H1244 C1230 0.961 . S
H1245 C1231 0.958 . S
H1246 C1231 0.961 . S
H1247 C1231 0.960 . S
C1248 C1249 1.391 . S
C1248 C1250 1.394 . S
C1248 H1264 0.931 . S
C1249 C1248 1.391 . S
C1249 C1253 1.376 . S
C1250 C1248 1.394 . S
C1250 C1251 1.369 . S
C1250 C1254 1.531 . S
C1251 C1250 1.369 . S
C1251 C1252 1.410 . S
C1251 C1259 1.503 . S
C1252 C1251 1.410 . S
C1252 C1253 1.392 . S
C1252 C1255 1.511 . S
C1253 C1249 1.376 . S
C1253 C1252 1.392 . S
C1253 H1265 0.929 . S
C1254 C1250 1.531 . S
C1254 H1266 0.960 . S
C1254 H1267 0.962 . S
C1254 H1268 0.960 . S
C1255 C1252 1.511 . S
C1255 H1269 0.961 . S
C1255 H1270 0.961 . S
C1255 H1271 0.961 . S
C1256 C1257 1.370 . S
C1256 C1258 1.363 . S
C1256 H1272 0.931 . S
C1257 C1256 1.370 . S
C1257 C1261 1.408 . S
C1258 C1256 1.363 . S
C1258 C1259 1.370 . S
C1258 C1262 1.524 . S
C1259 C1251 1.503 . S
C1259 C1258 1.370 . S
C1259 C1260 1.403 . S
C1260 C1259 1.403 . S
C1260 C1261 1.404 . S
C1260 C1263 1.539 . S
C1261 C1257 1.408 . S
C1261 C1260 1.404 . S
C1261 H1273 0.930 . S
C1262 C1258 1.524 . S
C1262 H1274 0.956 . S
C1262 H1275 0.961 . S
C1262 H1276 0.961 . S
C1263 C1260 1.539 . S
C1263 H1277 0.958 . S
C1263 H1278 0.961 . S
C1263 H1279 0.960 . S
H1264 C1248 0.931 . S
H1265 C1253 0.929 . S
H1266 C1254 0.960 . S
H1267 C1254 0.962 . S
H1268 C1254 0.960 . S
H1269 C1255 0.961 . S
H1270 C1255 0.961 . S
H1271 C1255 0.961 . S
H1272 C1256 0.931 . S
H1273 C1261 0.930 . S
H1274 C1262 0.956 . S
H1275 C1262 0.961 . S
H1276 C1262 0.961 . S
H1277 C1263 0.958 . S
H1278 C1263 0.961 . S
H1279 C1263 0.960 . S
C1280 C1281 1.391 . S
C1280 C1282 1.394 . S
C1280 H1296 0.931 . S
C1281 C1280 1.391 . S
C1281 C1285 1.376 . S
C1282 C1280 1.394 . S
C1282 C1283 1.369 . S
C1282 C1286 1.531 . S
C1283 C1282 1.369 . S
C1283 C1284 1.410 . S
C1283 C1291 1.503 . S
C1284 C1283 1.410 . S
C1284 C1285 1.392 . S
C1284 C1287 1.511 . S
C1285 C1281 1.376 . S
C1285 C1284 1.392 . S
C1285 H1297 0.929 . S
C1286 C1282 1.531 . S
C1286 H1298 0.960 . S
C1286 H1299 0.962 . S
C1286 H1300 0.960 . S
C1287 C1284 1.511 . S
C1287 H1301 0.961 . S
C1287 H1302 0.961 . S
C1287 H1303 0.961 . S
C1288 C1289 1.370 . S
C1288 C1290 1.363 . S
C1288 H1304 0.931 . S
C1289 C1288 1.370 . S
C1289 C1293 1.408 . S
C1290 C1288 1.363 . S
C1290 C1291 1.370 . S
C1290 C1294 1.524 . S
C1291 C1283 1.503 . S
C1291 C1290 1.370 . S
C1291 C1292 1.403 . S
C1292 C1291 1.403 . S
C1292 C1293 1.404 . S
C1292 C1295 1.539 . S
C1293 C1289 1.408 . S
C1293 C1292 1.404 . S
C1293 H1305 0.930 . S
C1294 C1290 1.524 . S
C1294 H1306 0.956 . S
C1294 H1307 0.961 . S
C1294 H1308 0.961 . S
C1295 C1292 1.539 . S
C1295 H1309 0.958 . S
C1295 H1310 0.961 . S
C1295 H1311 0.960 . S
H1296 C1280 0.931 . S
H1297 C1285 0.929 . S
H1298 C1286 0.960 . S
H1299 C1286 0.962 . S
H1300 C1286 0.960 . S
H1301 C1287 0.961 . S
H1302 C1287 0.961 . S
H1303 C1287 0.961 . S
H1304 C1288 0.931 . S
H1305 C1293 0.930 . S
H1306 C1294 0.956 . S
H1307 C1294 0.961 . S
H1308 C1294 0.961 . S
H1309 C1295 0.958 . S
H1310 C1295 0.961 . S
H1311 C1295 0.960 . S
C1312 C1313 1.391 . S
C1312 C1314 1.394 . S
C1312 H1328 0.931 . S
C1313 C1312 1.391 . S
C1313 C1317 1.376 . S
C1314 C1312 1.394 . S
C1314 C1315 1.369 . S
C1314 C1318 1.531 . S
C1315 C1314 1.369 . S
C1315 C1316 1.410 . S
C1315 C1323 1.503 . S
C1316 C1315 1.410 . S
C1316 C1317 1.392 . S
C1316 C1319 1.511 . S
C1317 C1313 1.376 . S
C1317 C1316 1.392 . S
C1317 H1329 0.929 . S
C1318 C1314 1.531 . S
C1318 H1330 0.960 . S
C1318 H1331 0.962 . S
C1318 H1332 0.960 . S
C1319 C1316 1.511 . S
C1319 H1333 0.961 . S
C1319 H1334 0.961 . S
C1319 H1335 0.961 . S
C1320 C1321 1.370 . S
C1320 C1322 1.363 . S
C1320 H1336 0.931 . S
C1321 C1320 1.370 . S
C1321 C1325 1.408 . S
C1322 C1320 1.363 . S
C1322 C1323 1.370 . S
C1322 C1326 1.524 . S
C1323 C1315 1.503 . S
C1323 C1322 1.370 . S
C1323 C1324 1.403 . S
C1324 C1323 1.403 . S
C1324 C1325 1.404 . S
C1324 C1327 1.539 . S
C1325 C1321 1.408 . S
C1325 C1324 1.404 . S
C1325 H1337 0.930 . S
C1326 C1322 1.524 . S
C1326 H1338 0.956 . S
C1326 H1339 0.961 . S
C1326 H1340 0.961 . S
C1327 C1324 1.539 . S
C1327 H1341 0.958 . S
C1327 H1342 0.961 . S
C1327 H1343 0.960 . S
H1328 C1312 0.931 . S
H1329 C1317 0.929 . S
H1330 C1318 0.960 . S
H1331 C1318 0.962 . S
H1332 C1318 0.960 . S
H1333 C1319 0.961 . S
H1334 C1319 0.961 . S
H1335 C1319 0.961 . S
H1336 C1320 0.931 . S
H1337 C1325 0.930 . S
H1338 C1326 0.956 . S
H1339 C1326 0.961 . S
H1340 C1326 0.961 . S
H1341 C1327 0.958 . S
H1342 C1327 0.961 . S
H1343 C1327 0.960 . S
C1344 C1345 1.391 . S
C1344 C1346 1.394 . S
C1344 H1360 0.931 . S
C1345 C1344 1.391 . S
C1345 C1349 1.376 . S
C1346 C1344 1.394 . S
C1346 C1347 1.369 . S
C1346 C1350 1.531 . S
C1347 C1346 1.369 . S
C1347 C1348 1.410 . S
C1347 C1355 1.503 . S
C1348 C1347 1.410 . S
C1348 C1349 1.392 . S
C1348 C1351 1.511 . S
C1349 C1345 1.376 . S
C1349 C1348 1.392 . S
C1349 H1361 0.929 . S
C1350 C1346 1.531 . S
C1350 H1362 0.960 . S
C1350 H1363 0.962 . S
C1350 H1364 0.960 . S
C1351 C1348 1.511 . S
C1351 H1365 0.961 . S
C1351 H1366 0.961 . S
C1351 H1367 0.961 . S
C1352 C1353 1.370 . S
C1352 C1354 1.363 . S
C1352 H1368 0.931 . S
C1353 C1352 1.370 . S
C1353 C1357 1.408 . S
C1354 C1352 1.363 . S
C1354 C1355 1.370 . S
C1354 C1358 1.524 . S
C1355 C1347 1.503 . S
C1355 C1354 1.370 . S
C1355 C1356 1.403 . S
C1356 C1355 1.403 . S
C1356 C1357 1.404 . S
C1356 C1359 1.539 . S
C1357 C1353 1.408 . S
C1357 C1356 1.404 . S
C1357 H1369 0.930 . S
C1358 C1354 1.524 . S
C1358 H1370 0.956 . S
C1358 H1371 0.961 . S
C1358 H1372 0.961 . S
C1359 C1356 1.539 . S
C1359 H1373 0.958 . S
C1359 H1374 0.961 . S
C1359 H1375 0.960 . S
H1360 C1344 0.931 . S
H1361 C1349 0.929 . S
H1362 C1350 0.960 . S
H1363 C1350 0.962 . S
H1364 C1350 0.960 . S
H1365 C1351 0.961 . S
H1366 C1351 0.961 . S
H1367 C1351 0.961 . S
H1368 C1352 0.931 . S
H1369 C1357 0.930 . S
H1370 C1358 0.956 . S
H1371 C1358 0.961 . S
H1372 C1358 0.961 . S
H1373 C1359 0.958 . S
H1374 C1359 0.961 . S
H1375 C1359 0.960 . S
C1376 C1377 1.391 . S
C1376 C1378 1.394 . S
C1376 H1392 0.931 . S
C1377 C1376 1.391 . S
C1377 C1381 1.376 . S
C1378 C1376 1.394 . S
C1378 C1379 1.369 . S
C1378 C1382 1.531 . S
C1379 C1378 1.369 . S
C1379 C1380 1.410 . S
C1379 C1387 1.503 . S
C1380 C1379 1.410 . S
C1380 C1381 1.392 . S
C1380 C1383 1.511 . S
C1381 C1377 1.376 . S
C1381 C1380 1.392 . S
C1381 H1393 0.929 . S
C1382 C1378 1.531 . S
C1382 H1394 0.960 . S
C1382 H1395 0.962 . S
C1382 H1396 0.960 . S
C1383 C1380 1.511 . S
C1383 H1397 0.961 . S
C1383 H1398 0.961 . S
C1383 H1399 0.961 . S
C1384 C1385 1.370 . S
C1384 C1386 1.363 . S
C1384 H1400 0.931 . S
C1385 C1384 1.370 . S
C1385 C1389 1.408 . S
C1386 C1384 1.363 . S
C1386 C1387 1.370 . S
C1386 C1390 1.524 . S
C1387 C1379 1.503 . S
C1387 C1386 1.370 . S
C1387 C1388 1.403 . S
C1388 C1387 1.403 . S
C1388 C1389 1.404 . S
C1388 C1391 1.539 . S
C1389 C1385 1.408 . S
C1389 C1388 1.404 . S
C1389 H1401 0.930 . S
C1390 C1386 1.524 . S
C1390 H1402 0.956 . S
C1390 H1403 0.961 . S
C1390 H1404 0.961 . S
C1391 C1388 1.539 . S
C1391 H1405 0.958 . S
C1391 H1406 0.961 . S
C1391 H1407 0.960 . S
H1392 C1376 0.931 . S
H1393 C1381 0.929 . S
H1394 C1382 0.960 . S
H1395 C1382 0.962 . S
H1396 C1382 0.960 . S
H1397 C1383 0.961 . S
H1398 C1383 0.961 . S
H1399 C1383 0.961 . S
H1400 C1384 0.931 . S
H1401 C1389 0.930 . S
H1402 C1390 0.956 . S
H1403 C1390 0.961 . S
H1404 C1390 0.961 . S
H1405 C1391 0.958 . S
H1406 C1391 0.961 . S
H1407 C1391 0.960 . S
C1408 C1409 1.391 . S
C1408 C1410 1.394 . S
C1408 H1424 0.931 . S
C1409 C1408 1.391 . S
C1409 C1413 1.376 . S
C1410 C1408 1.394 . S
C1410 C1411 1.369 . S
C1410 C1414 1.531 . S
C1411 C1410 1.369 . S
C1411 C1412 1.410 . S
C1411 C1419 1.503 . S
C1412 C1411 1.410 . S
C1412 C1413 1.392 . S
C1412 C1415 1.511 . S
C1413 C1409 1.376 . S
C1413 C1412 1.392 . S
C1413 H1425 0.929 . S
C1414 C1410 1.531 . S
C1414 H1426 0.960 . S
C1414 H1427 0.962 . S
C1414 H1428 0.960 . S
C1415 C1412 1.511 . S
C1415 H1429 0.961 . S
C1415 H1430 0.961 . S
C1415 H1431 0.961 . S
C1416 C1417 1.370 . S
C1416 C1418 1.363 . S
C1416 H1432 0.931 . S
C1417 C1416 1.370 . S
C1417 C1421 1.408 . S
C1418 C1416 1.363 . S
C1418 C1419 1.370 . S
C1418 C1422 1.524 . S
C1419 C1411 1.503 . S
C1419 C1418 1.370 . S
C1419 C1420 1.403 . S
C1420 C1419 1.403 . S
C1420 C1421 1.404 . S
C1420 C1423 1.539 . S
C1421 C1417 1.408 . S
C1421 C1420 1.404 . S
C1421 H1433 0.930 . S
C1422 C1418 1.524 . S
C1422 H1434 0.956 . S
C1422 H1435 0.961 . S
C1422 H1436 0.961 . S
C1423 C1420 1.539 . S
C1423 H1437 0.958 . S
C1423 H1438 0.961 . S
C1423 H1439 0.960 . S
H1424 C1408 0.931 . S
H1425 C1413 0.929 . S
H1426 C1414 0.960 . S
H1427 C1414 0.962 . S
H1428 C1414 0.960 . S
H1429 C1415 0.961 . S
H1430 C1415 0.961 . S
H1431 C1415 0.961 . S
H1432 C1416 0.931 . S
H1433 C1421 0.930 . S
H1434 C1422 0.956 . S
H1435 C1422 0.961 . S
H1436 C1422 0.961 . S
H1437 C1423 0.958 . S
H1438 C1423 0.961 . S
H1439 C1423 0.960 . S
C1440 C1441 1.391 . S
C1440 C1442 1.394 . S
C1440 H1456 0.931 . S
C1441 C1440 1.391 . S
C1441 C1445 1.376 . S
C1442 C1440 1.394 . S
C1442 C1443 1.369 . S
C1442 C1446 1.531 . S
C1443 C1442 1.369 . S
C1443 C1444 1.410 . S
C1443 C1451 1.503 . S
C1444 C1443 1.410 . S
C1444 C1445 1.392 . S
C1444 C1447 1.511 . S
C1445 C1441 1.376 . S
C1445 C1444 1.392 . S
C1445 H1457 0.929 . S
C1446 C1442 1.531 . S
C1446 H1458 0.960 . S
C1446 H1459 0.962 . S
C1446 H1460 0.960 . S
C1447 C1444 1.511 . S
C1447 H1461 0.961 . S
C1447 H1462 0.961 . S
C1447 H1463 0.961 . S
C1448 C1449 1.370 . S
C1448 C1450 1.363 . S
C1448 H1464 0.931 . S
C1449 C1448 1.370 . S
C1449 C1453 1.408 . S
C1450 C1448 1.363 . S
C1450 C1451 1.370 . S
C1450 C1454 1.524 . S
C1451 C1443 1.503 . S
C1451 C1450 1.370 . S
C1451 C1452 1.403 . S
C1452 C1451 1.403 . S
C1452 C1453 1.404 . S
C1452 C1455 1.539 . S
C1453 C1449 1.408 . S
C1453 C1452 1.404 . S
C1453 H1465 0.930 . S
C1454 C1450 1.524 . S
C1454 H1466 0.956 . S
C1454 H1467 0.961 . S
C1454 H1468 0.961 . S
C1455 C1452 1.539 . S
C1455 H1469 0.958 . S
C1455 H1470 0.961 . S
C1455 H1471 0.960 . S
H1456 C1440 0.931 . S
H1457 C1445 0.929 . S
H1458 C1446 0.960 . S
H1459 C1446 0.962 . S
H1460 C1446 0.960 . S
H1461 C1447 0.961 . S
H1462 C1447 0.961 . S
H1463 C1447 0.961 . S
H1464 C1448 0.931 . S
H1465 C1453 0.930 . S
H1466 C1454 0.956 . S
H1467 C1454 0.961 . S
H1468 C1454 0.961 . S
H1469 C1455 0.958 . S
H1470 C1455 0.961 . S
H1471 C1455 0.960 . S
C1472 C1473 1.391 1_565 S
C1472 C1474 1.394 . S
C1472 H1488 0.931 . S
C1473 C1472 1.391 1_545 S
C1473 C1477 1.376 . S
C1474 C1472 1.394 . S
C1474 C1475 1.369 1_565 S
C1474 C1478 1.531 . S
C1475 C1474 1.369 1_545 S
C1475 C1476 1.410 . S
C1475 C1483 1.503 1_544 S
C1476 C1475 1.410 . S
C1476 C1477 1.392 . S
C1476 C1479 1.511 . S
C1477 C1473 1.376 . S
C1477 C1476 1.392 . S
C1477 H1489 0.929 . S
C1478 C1474 1.531 . S
C1478 H1490 0.960 . S
C1478 H1491 0.962 . S
C1478 H1492 0.960 . S
C1479 C1476 1.511 . S
C1479 H1493 0.961 . S
C1479 H1494 0.961 1_554 S
C1479 H1495 0.961 1_554 S
C1480 C1481 1.370 . S
C1480 C1482 1.363 . S
C1480 H1496 0.931 . S
C1481 C1480 1.370 . S
C1481 C1485 1.408 . S
C1482 C1480 1.363 . S
C1482 C1483 1.370 . S
C1482 C1486 1.524 1_565 S
C1483 C1475 1.503 1_566 S
C1483 C1482 1.370 . S
C1483 C1484 1.403 . S
C1484 C1483 1.403 . S
C1484 C1485 1.404 . S
C1484 C1487 1.539 . S
C1485 C1481 1.408 . S
C1485 C1484 1.404 . S
C1485 H1497 0.930 . S
C1486 C1482 1.524 1_545 S
C1486 H1498 0.943 1_546 S
C1486 H1499 0.961 . S
C1486 H1500 0.961 . S
C1487 C1484 1.539 . S
C1487 H1501 0.958 . S
C1487 H1502 0.961 . S
C1487 H1503 0.957 1_556 S
H1488 C1472 0.931 . S
H1489 C1477 0.929 . S
H1490 C1478 0.960 . S
H1491 C1478 0.962 . S
H1492 C1478 0.960 . S
H1493 C1479 0.961 . S
H1494 C1479 0.961 1_556 S
H1495 C1479 0.961 1_556 S
H1496 C1480 0.931 . S
H1497 C1485 0.930 . S
H1498 C1486 0.943 1_564 S
H1499 C1486 0.961 . S
H1500 C1486 0.961 . S
H1501 C1487 0.958 . S
H1502 C1487 0.961 . S
H1503 C1487 0.957 1_554 S
C1504 C1505 1.391 . S
C1504 C1506 1.394 . S
C1504 H1520 0.931 . S
C1505 C1504 1.391 . S
C1505 C1509 1.376 1_455 S
C1506 C1504 1.394 . S
C1506 C1507 1.369 . S
C1506 C1510 1.531 1_556 S
C1507 C1506 1.369 . S
C1507 C1508 1.410 1_455 S
C1507 C1515 1.503 1_456 S
C1508 C1507 1.410 1_655 S
C1508 C1509 1.392 . S
C1508 C1511 1.511 . S
C1509 C1505 1.376 1_655 S
C1509 C1508 1.392 . S
C1509 H1521 0.929 . S
C1510 C1506 1.531 1_554 S
C1510 H1522 0.960 . S
C1510 H1523 0.962 . S
C1510 H1524 0.960 1_554 S
C1511 C1508 1.511 . S
C1511 H1525 0.961 . S
C1511 H1526 0.961 . S
C1511 H1527 0.961 . S
C1512 C1513 1.370 . S
C1512 C1514 1.363 . S
C1512 H1528 0.931 . S
C1513 C1512 1.370 . S
C1513 C1517 1.408 . S
C1514 C1512 1.363 . S
C1514 C1515 1.370 . S
C1514 C1518 1.525 1_655 S
C1515 C1507 1.503 1_654 S
C1515 C1514 1.370 . S
C1515 C1516 1.403 . S
C1516 C1515 1.403 . S
C1516 C1517 1.404 . S
C1516 C1519 1.539 . S
C1517 C1513 1.408 . S
C1517 C1516 1.404 . S
C1517 H1529 0.930 . S
C1518 C1514 1.525 1_455 S
C1518 H1530 0.954 . S
C1518 H1531 0.962 1_454 S
C1518 H1532 0.961 1_455 S
C1519 C1516 1.539 . S
C1519 H1533 0.958 1_655 S
C1519 H1534 0.961 . S
C1519 H1535 0.960 1_554 S
H1520 C1504 0.931 . S
H1521 C1509 0.929 . S
H1522 C1510 0.960 . S
H1523 C1510 0.962 . S
H1524 C1510 0.960 1_556 S
H1525 C1511 0.961 . S
H1526 C1511 0.961 . S
H1527 C1511 0.961 . S
H1528 C1512 0.931 . S
H1529 C1517 0.930 . S
H1530 C1518 0.954 . S
H1531 C1518 0.962 1_656 S
H1532 C1518 0.961 1_655 S
H1533 C1519 0.958 1_455 S
H1534 C1519 0.961 . S
H1535 C1519 0.960 1_556 S
C1536 C1537 1.371 1_565 S
C1536 C1538 1.404 . S
C1536 H1552 0.941 . S
C1537 C1536 1.371 1_545 S
C1537 C1541 1.376 . S
C1538 C1536 1.404 . S
C1538 C1539 1.369 . S
C1538 C1542 1.531 . S
C1539 C1538 1.369 . S
C1539 C1540 1.410 1_565 S
C1539 C1547 1.503 1_556 S
C1540 C1539 1.410 1_545 S
C1540 C1541 1.392 . S
C1540 C1543 1.511 . S
C1541 C1537 1.376 . S
C1541 C1540 1.392 . S
C1541 H1553 0.929 . S
C1542 C1538 1.531 . S
C1542 H1554 0.960 . S
C1542 H1555 0.962 . S
C1542 H1556 0.960 . S
C1543 C1540 1.511 . S
C1543 H1557 0.961 . S
C1543 H1558 0.961 1_556 S
C1543 H1559 0.961 . S
C1544 C1545 1.370 1_545 S
C1544 C1546 1.363 . S
C1544 H1560 0.931 . S
C1545 C1544 1.370 1_565 S
C1545 C1549 1.408 . S
C1546 C1544 1.363 . S
C1546 C1547 1.370 1_545 S
C1546 C1550 1.524 . S
C1547 C1539 1.503 1_554 S
C1547 C1546 1.370 1_565 S
C1547 C1548 1.403 . S
C1548 C1547 1.403 . S
C1548 C1549 1.404 . S
C1548 C1551 1.539 . S
C1549 C1545 1.408 . S
C1549 C1548 1.404 . S
C1549 H1561 0.930 . S
C1550 C1546 1.524 . S
C1550 H1562 0.956 . S
C1550 H1563 0.961 . S
C1550 H1564 0.961 . S
C1551 C1548 1.539 . S
C1551 H1565 0.958 1_554 S
C1551 H1566 0.961 . S
C1551 H1567 0.960 1_554 S
H1552 C1536 0.941 . S
H1553 C1541 0.929 . S
H1554 C1542 0.960 . S
H1555 C1542 0.962 . S
H1556 C1542 0.960 . S
H1557 C1543 0.961 . S
H1558 C1543 0.961 1_554 S
H1559 C1543 0.961 . S
H1560 C1544 0.931 . S
H1561 C1549 0.930 . S
H1562 C1550 0.956 . S
H1563 C1550 0.961 . S
H1564 C1550 0.961 . S
H1565 C1551 0.958 1_556 S
H1566 C1551 0.961 . S
H1567 C1551 0.960 1_556 S
C1568 C1569 1.391 . S
C1568 C1570 1.397 . S
C1568 H1584 0.939 . S
C1569 C1568 1.391 . S
C1569 C1573 1.376 . S
C1570 C1568 1.397 . S
C1570 C1571 1.374 . S
C1570 C1574 1.522 1_655 S
C1571 C1570 1.374 . S
C1571 C1572 1.410 . S
C1571 C1579 1.499 1_656 S
C1572 C1571 1.410 . S
C1572 C1573 1.392 . S
C1572 C1575 1.511 . S
C1573 C1569 1.376 . S
C1573 C1572 1.392 . S
C1573 H1585 0.929 . S
C1574 C1570 1.522 1_455 S
C1574 H1586 0.985 . S
C1574 H1587 0.962 . S
C1574 H1588 0.960 . S
C1575 C1572 1.511 . S
C1575 H1589 0.961 . S
C1575 H1590 0.961 1_556 S
C1575 H1591 0.961 1_556 S
C1576 C1577 1.370 . S
C1576 C1578 1.363 . S
C1576 H1592 0.931 . S
C1577 C1576 1.370 . S
C1577 C1581 1.408 1_455 S
C1578 C1576 1.363 . S
C1578 C1579 1.383 . S
C1578 C1582 1.526 1_554 S
C1579 C1571 1.499 1_454 S
C1579 C1578 1.383 . S
C1579 C1580 1.395 1_455 S
C1580 C1579 1.395 1_655 S
C1580 C1581 1.404 . S
C1580 C1583 1.539 . S
C1581 C1577 1.408 1_655 S
C1581 C1580 1.404 . S
C1581 H1593 0.930 . S
C1582 C1578 1.526 1_556 S
C1582 H1594 0.954 . S
C1582 H1595 0.959 . S
C1582 H1596 0.962 1_556 S
C1583 C1580 1.539 . S
C1583 H1597 0.958 . S
C1583 H1598 0.961 . S
C1583 H1599 0.960 . S
H1584 C1568 0.939 . S
H1585 C1573 0.929 . S
H1586 C1574 0.985 . S
H1587 C1574 0.962 . S
H1588 C1574 0.960 . S
H1589 C1575 0.961 . S
H1590 C1575 0.961 1_554 S
H1591 C1575 0.961 1_554 S
H1592 C1576 0.931 . S
H1593 C1581 0.930 . S
H1594 C1582 0.954 . S
H1595 C1582 0.959 . S
H1596 C1582 0.962 1_554 S
H1597 C1583 0.958 . S
H1598 C1583 0.961 . S
H1599 C1583 0.960 . S
C577 C4 1.232 . S
C585 C256 1.225 . S
C609 C40 1.228 . S
C617 C148 1.224 . S
C641 C184 1.235 . S
C649 C76 1.224 . S
C673 C112 1.210 . S
C681 C220 1.213 . S
C705 C292 1.235 . S
C713 C544 1.224 . S
C737 C436 1.192 . S
C745 C328 1.206 . S
C769 C472 1.198 . S
C777 C364 1.211 . S
C801 C508 1.195 . S
C809 C400 1.207 . S
C833 C3 1.356 . S
C841 C398 1.356 . S
C865 C39 1.328 . S
C873 C290 1.360 . S
C897 C326 1.344 . S
C905 C75 1.342 . S
C929 C111 1.328 . S
C937 C362 1.355 . S
C961 C147 1.364 . S
C969 C470 1.364 . S
C993 C506 1.361 . S
C1001 C183 1.357 . S
C1025 C219 1.360 . S
C1033 C542 1.358 . S
C1057 C434 1.346 . S
C1065 C255 1.354 . S
C1089 C291 1.329 . S
C1097 C110 1.359 . S
C1121 C2 1.345 . S
C1129 C327 1.352 . S
C1153 C363 1.340 . S
C1161 C38 1.362 . S
C1185 C74 1.363 . S
C1193 C399 1.357 . S
C1217 C435 1.366 . S
C1225 C182 1.362 . S
C1249 C218 1.364 . S
C1257 C471 1.357 . S
C1281 C254 1.356 . S
C1289 C507 1.342 . S
C1313 C146 1.364 . S
C1321 C543 1.356 . S
C1345 C158 1.573 . S
C1353 C14 1.554 . S
C1377 C194 1.574 . S
C1385 C50 1.552 . S
C1409 C86 1.532 . S
C1417 C230 1.566 . S
C1441 C266 1.547 . S
C1449 C122 1.563 . S
C1473 C446 1.562 . S
C1481 C302 1.559 . S
C1505 C482 1.558 . S
C1513 C338 1.557 . S
C1537 C374 1.578 . S
C1545 C518 1.551 . S
C1569 C554 1.531 . S
C1577 C410 1.569 . S
