# Generated by pormake.
# Topology mok, (4)-cn, num edge types: 1
# Building blocks:
#     Node 0, Type 0, BuildingBlock: CEKHIL_clean_sbu_0, # of connection points: 4
#     Node 1, Type 0, BuildingBlock: CEKHIL_clean_sbu_0, # of connection points: 4
#     Node 2, Type 0, BuildingBlock: CEKHIL_clean_sbu_0, # of connection points: 4
#     Node 3, Type 0, BuildingBlock: CEKHIL_clean_sbu_0, # of connection points: 4
#     Node 4, Type 0, BuildingBlock: CEKHIL_clean_sbu_0, # of connection points: 4
#     Node 5, Type 0, BuildingBlock: CEKHIL_clean_sbu_0, # of connection points: 4
#     Node 6, Type 0, BuildingBlock: CEKHIL_clean_sbu_0, # of connection points: 4
#     Node 7, Type 0, BuildingBlock: CEKHIL_clean_sbu_0, # of connection points: 4
#     Edge 8, Type (0, 0), BuildingBlock: EZIPEK_clean_linker_0, # of connection points: 2
#     Edge 9, Type (0, 0), BuildingBlock: EZIPEK_clean_linker_0, # of connection points: 2
#     Edge 10, Type (0, 0), BuildingBlock: EZIPEK_clean_linker_0, # of connection points: 2
#     Edge 11, Type (0, 0), BuildingBlock: EZIPEK_clean_linker_0, # of connection points: 2
#     Edge 12, Type (0, 0), BuildingBlock: EZIPEK_clean_linker_0, # of connection points: 2
#     Edge 13, Type (0, 0), BuildingBlock: EZIPEK_clean_linker_0, # of connection points: 2
#     Edge 14, Type (0, 0), BuildingBlock: EZIPEK_clean_linker_0, # of connection points: 2
#     Edge 15, Type (0, 0), BuildingBlock: EZIPEK_clean_linker_0, # of connection points: 2
#     Edge 16, Type (0, 0), BuildingBlock: EZIPEK_clean_linker_0, # of connection points: 2
#     Edge 17, Type (0, 0), BuildingBlock: EZIPEK_clean_linker_0, # of connection points: 2
#     Edge 18, Type (0, 0), BuildingBlock: EZIPEK_clean_linker_0, # of connection points: 2
#     Edge 19, Type (0, 0), BuildingBlock: EZIPEK_clean_linker_0, # of connection points: 2
#     Edge 20, Type (0, 0), BuildingBlock: EZIPEK_clean_linker_0, # of connection points: 2
#     Edge 21, Type (0, 0), BuildingBlock: EZIPEK_clean_linker_0, # of connection points: 2
#     Edge 22, Type (0, 0), BuildingBlock: EZIPEK_clean_linker_0, # of connection points: 2
#     Edge 23, Type (0, 0), BuildingBlock: EZIPEK_clean_linker_0, # of connection points: 2
# Relax obj value: 0.017
# Max RMSD: 0.041
# Mean RMSD: 0.041
data_MOF--net-mok--node1-CEKHIL_clean_sbu_0--edge1-EZIPEK_clean_linker_0
_symmetry_space_group_name_H-M    P1
_symmetry_Int_Tables_number       1
_symmetry_cell_setting            triclinic
loop_
_symmetry_equiv_pos_as_xyz
'x, y, z'
_cell_length_a     39.260708
_cell_length_b     11.213164
_cell_length_c     19.682097
_cell_angle_alpha  90.058716
_cell_angle_beta   90.156718
_cell_angle_gamma 89.981411
loop_
_atom_site_label
_atom_site_type_symbol
_atom_site_fract_x
_atom_site_fract_y
_atom_site_fract_z
_atom_type_partial_charge
Co0 Co 0.61234 0.29418 0.06835 0.0
O1 O 0.56327 0.27365 0.07279 0.0
O2 O 0.59912 0.13139 0.04443 0.0
C3 C 0.61754 0.3889 0.17107 0.0
O4 O 0.6646 0.27897 0.05946 0.0
Co5 Co 0.64439 0.54263 0.06149 0.0
O6 O 0.68898 0.46023 0.05412 0.0
C7 C 0.61172 0.44647 0.93976 0.0
C8 C 0.5677 0.16317 0.05532 0.0
C9 C 0.69111 0.34709 0.05484 0.0
O10 O 0.60808 0.34574 0.97017 0.0
O11 O 0.62294 0.54013 0.96919 0.0
O12 O 0.61673 0.27342 0.16665 0.0
O13 O 0.61312 0.44451 0.11401 0.0
Co14 Co 0.41162 0.69005 0.04397 0.0
O15 O 0.46047 0.71375 0.05013 0.0
O16 O 0.42329 0.85443 0.02358 0.0
C17 C 0.40632 0.58794 0.14302 0.0
O18 O 0.35953 0.70375 0.03506 0.0
Co19 Co 0.3798 0.43982 0.03187 0.0
O20 O 0.33511 0.52223 0.03182 0.0
C21 C 0.41145 0.54755 0.9119 0.0
C22 C 0.45481 0.82441 0.0346 0.0
C23 C 0.33307 0.63555 0.03192 0.0
O24 O 0.41586 0.64551 0.94486 0.0
O25 O 0.40007 0.45201 0.9389 0.0
O26 O 0.40755 0.70357 0.14265 0.0
O27 O 0.41117 0.5367 0.08493 0.0
Co28 Co 0.61461 0.71533 0.53685 0.0
O29 O 0.5657 0.73755 0.53554 0.0
O30 O 0.60256 0.87347 0.57033 0.0
C31 C 0.61714 0.63811 0.43081 0.0
O32 O 0.66688 0.72749 0.54265 0.0
Co33 Co 0.64733 0.46475 0.52146 0.0
O34 O 0.6903 0.55516 0.50732 0.0
C35 C 0.61539 0.5344 0.65133 0.0
C36 C 0.57106 0.84475 0.55765 0.0
C37 C 0.69296 0.66392 0.52553 0.0
O38 O 0.61257 0.64347 0.63116 0.0
O39 O 0.6247 0.44876 0.61244 0.0
O40 O 0.61646 0.75283 0.43958 0.0
O41 O 0.61426 0.57477 0.48506 0.0
Co42 Co 0.40848 0.28042 0.51217 0.0
O43 O 0.45761 0.26744 0.51282 0.0
O44 O 0.42282 0.12727 0.54967 0.0
C45 C 0.405 0.34952 0.40406 0.0
O46 O 0.35635 0.25964 0.51741 0.0
Co47 Co 0.37356 0.52545 0.49409 0.0
O48 O 0.33016 0.43426 0.49529 0.0
C49 C 0.4069 0.46784 0.62328 0.0
C50 C 0.45394 0.16126 0.53767 0.0
C51 C 0.32916 0.32307 0.50858 0.0
O52 O 0.40925 0.35772 0.60507 0.0
O53 O 0.39813 0.55128 0.58251 0.0
O54 O 0.40746 0.23594 0.41574 0.0
O55 O 0.40715 0.41754 0.45679 0.0
Co56 Co 0.11648 0.80035 0.04354 0.0
O57 O 0.06725 0.78998 0.04809 0.0
O58 O 0.10114 0.64142 0.01839 0.0
C59 C 0.12246 0.89365 0.1454 0.0
O60 O 0.16828 0.77205 0.03562 0.0
Co61 Co 0.15448 0.03823 0.03831 0.0
O62 O 0.19715 0.94513 0.03911 0.0
C63 C 0.11974 0.95267 0.91537 0.0
C64 C 0.07038 0.67968 0.02933 0.0
C65 C 0.19636 0.83209 0.0361 0.0
O66 O 0.11273 0.85464 0.94616 0.0
O67 O 0.13478 0.0401 0.94444 0.0
O68 O 0.11975 0.77837 0.14157 0.0
O69 O 0.11982 0.95029 0.08832 0.0
Co70 Co 0.90948 0.23341 0.05122 0.0
O71 O 0.95826 0.25497 0.0501 0.0
O72 O 0.92131 0.39267 0.01847 0.0
C73 C 0.90833 0.15595 0.15674 0.0
O74 O 0.85683 0.24224 0.04931 0.0
Co75 Co 0.87954 0.97754 0.06465 0.0
O76 O 0.83492 0.05966 0.06988 0.0
C77 C 0.90826 0.05618 0.93432 0.0
C78 C 0.95294 0.36306 0.02973 0.0
C79 C 0.83128 0.17107 0.0593 0.0
O80 O 0.9105 0.16421 0.95631 0.0
O81 O 0.89981 0.96759 0.97155 0.0
O82 O 0.90899 0.27056 0.1481 0.0
O83 O 0.91098 0.09263 0.10223 0.0
Co84 Co 0.11128 0.21193 0.51235 0.0
O85 O 0.06256 0.24031 0.51162 0.0
O86 O 0.10094 0.37104 0.54604 0.0
C87 C 0.11337 0.1327 0.40695 0.0
O88 O 0.16393 0.21736 0.51619 0.0
Co89 Co 0.14045 0.95611 0.50292 0.0
O90 O 0.18553 0.03403 0.49748 0.0
C91 C 0.10714 0.03607 0.6296 0.0
C92 C 0.06905 0.34663 0.53407 0.0
C93 C 0.1894 0.14553 0.50716 0.0
O94 O 0.10832 0.14373 0.60719 0.0
O95 O 0.11705 0.94803 0.59324 0.0
O96 O 0.11286 0.24763 0.41531 0.0
O97 O 0.10978 0.07041 0.46161 0.0
Co98 Co 0.91053 0.81352 0.51893 0.0
O99 O 0.95978 0.80069 0.51847 0.0
O100 O 0.92521 0.65252 0.54258 0.0
C101 C 0.90659 0.90731 0.41609 0.0
O102 O 0.85853 0.78977 0.52217 0.0
Co103 Co 0.87589 0.05656 0.52404 0.0
O104 O 0.83221 0.96742 0.52813 0.0
C105 C 0.90931 0.96965 0.64578 0.0
C106 C 0.95637 0.68885 0.53349 0.0
C107 C 0.83128 0.85412 0.52572 0.0
O108 O 0.91204 0.8663 0.61759 0.0
O109 O 0.89885 0.06208 0.61433 0.0
O110 O 0.90828 0.79212 0.42074 0.0
O111 O 0.90922 0.96345 0.4735 0.0
C112 C 0.78232 0.27308 0.99843 0.0
C113 C 0.79548 0.21795 0.05797 0.0
C114 C 0.73857 0.23097 0.11113 0.0
C115 C 0.72617 0.29442 0.05366 0.0
N116 N 0.73685 0.3856 0.94469 0.0
N117 N 0.78702 0.15317 0.17365 0.0
C118 C 0.7483 0.31848 0.99805 0.0
C119 C 0.7737 0.19832 0.11475 0.0
N120 N 0.80167 0.27604 0.94074 0.0
N121 N 0.71682 0.20258 0.16287 0.0
H122 H 0.81209 0.12434 0.1782 0.0
H123 H 0.77412 0.15138 0.21974 0.0
H124 H 0.69192 0.23409 0.16602 0.0
H125 H 0.7227 0.14229 0.20131 0.0
H126 H 0.7923 0.30121 0.89336 0.0
H127 H 0.82653 0.2438 0.93853 0.0
H128 H 0.7527 0.42022 0.90727 0.0
H129 H 0.71159 0.41263 0.93946 0.0
C130 C 0.24339 0.72482 0.97387 0.0
C131 C 0.22976 0.76941 0.03554 0.0
C132 C 0.28519 0.74196 0.09162 0.0
C133 C 0.29829 0.68908 0.03146 0.0
N134 N 0.28883 0.61654 0.91742 0.0
N135 N 0.23496 0.79531 0.15644 0.0
C136 C 0.27698 0.67595 0.97326 0.0
C137 C 0.24993 0.7707 0.09538 0.0
N138 N 0.22471 0.73341 0.91536 0.0
N139 N 0.30642 0.76624 0.14505 0.0
H140 H 0.20893 0.8119 0.16108 0.0
H141 H 0.24737 0.78652 0.20299 0.0
H142 H 0.33231 0.7462 0.14492 0.0
H143 H 0.29905 0.81597 0.18723 0.0
H144 H 0.23449 0.71588 0.86728 0.0
H145 H 0.19978 0.76562 0.91443 0.0
H146 H 0.27348 0.59195 0.87654 0.0
H147 H 0.31378 0.58544 0.91346 0.0
C148 C 0.78706 0.71124 0.57309 0.0
C149 C 0.79684 0.79703 0.52387 0.0
C150 C 0.73736 0.81069 0.48472 0.0
C151 C 0.72806 0.7162 0.52891 0.0
N152 N 0.74529 0.56712 0.6108 0.0
N153 N 0.78287 0.90182 0.42058 0.0
C154 C 0.75337 0.66329 0.57148 0.0
C155 C 0.77238 0.83932 0.47629 0.0
N156 N 0.8093 0.67928 0.62344 0.0
N157 N 0.71298 0.87435 0.4509 0.0
H158 H 0.8085 0.91713 0.41012 0.0
H159 H 0.76667 0.92509 0.38071 0.0
H160 H 0.68701 0.85797 0.45553 0.0
H161 H 0.71837 0.95154 0.42352 0.0
H162 H 0.80225 0.6296 0.6658 0.0
H163 H 0.83435 0.70937 0.6258 0.0
H164 H 0.7634 0.51497 0.63565 0.0
H165 H 0.72058 0.53507 0.61567 0.0
C166 C 0.23764 0.25715 0.56534 0.0
C167 C 0.22527 0.19174 0.50847 0.0
C168 C 0.28343 0.18803 0.46105 0.0
C169 C 0.29468 0.26658 0.513 0.0
N170 N 0.28218 0.38126 0.61354 0.0
N171 N 0.23575 0.11056 0.39658 0.0
C172 C 0.27157 0.30307 0.56462 0.0
C173 C 0.24807 0.16095 0.45498 0.0
N174 N 0.21776 0.26939 0.62188 0.0
N175 N 0.30648 0.1379 0.41763 0.0
H176 H 0.21018 0.08964 0.38927 0.0
H177 H 0.25026 0.09973 0.35278 0.0
H178 H 0.33251 0.15521 0.41995 0.0
H179 H 0.30031 0.07003 0.3836 0.0
H180 H 0.22658 0.30477 0.66758 0.0
H181 H 0.1933 0.23394 0.62565 0.0
H182 H 0.26567 0.42427 0.64688 0.0
H183 H 0.30752 0.40714 0.61882 0.0
C184 C 0.59167 0.4325 0.28668 0.0
C185 C 0.61802 0.45265 0.23831 0.0
C186 C 0.64472 0.59519 0.31784 0.0
C187 C 0.61687 0.58153 0.36269 0.0
N188 N 0.56012 0.50888 0.3829 0.0
N189 N 0.66885 0.55948 0.207 0.0
C190 C 0.58933 0.50621 0.34516 0.0
C191 C 0.64408 0.53698 0.25349 0.0
N192 N 0.56902 0.34163 0.27797 0.0
N193 N 0.67273 0.65806 0.33831 0.0
H194 H 0.67194 0.50668 0.16439 0.0
H195 H 0.68551 0.63155 0.20978 0.0
H196 H 0.674 0.70127 0.38497 0.0
H197 H 0.69562 0.66017 0.31178 0.0
H198 H 0.55235 0.31307 0.3157 0.0
H199 H 0.56897 0.28718 0.23566 0.0
H200 H 0.53779 0.46541 0.36874 0.0
H201 H 0.55687 0.56467 0.42483 0.0
C202 C 0.437 0.49533 0.24181 0.0
C203 C 0.40584 0.51955 0.20775 0.0
C204 C 0.37404 0.42466 0.30062 0.0
C205 C 0.40518 0.39961 0.33423 0.0
N206 N 0.46642 0.38897 0.33174 0.0
N207 N 0.34506 0.49562 0.19973 0.0
C208 C 0.43671 0.42838 0.30325 0.0
C209 C 0.37445 0.48061 0.23576 0.0
N210 N 0.46683 0.54015 0.21671 0.0
N211 N 0.34399 0.39664 0.33146 0.0
H212 H 0.34444 0.54164 0.15419 0.0
H213 H 0.32175 0.45784 0.21252 0.0
H214 H 0.34302 0.34641 0.37567 0.0
H215 H 0.32019 0.42567 0.31503 0.0
H216 H 0.4898 0.53861 0.24325 0.0
H217 H 0.4683 0.58639 0.17088 0.0
H218 H 0.48973 0.39148 0.30676 0.0
H219 H 0.46738 0.34416 0.37807 0.0
C220 C 0.44111 0.48157 0.80518 0.0
C221 C 0.41479 0.5477 0.83707 0.0
C222 C 0.38378 0.56113 0.7296 0.0
C223 C 0.41061 0.49888 0.69639 0.0
N224 N 0.46789 0.42099 0.69939 0.0
N225 N 0.36585 0.67692 0.82673 0.0
C226 C 0.44028 0.46521 0.73329 0.0
C227 C 0.38791 0.59704 0.79812 0.0
N228 N 0.46659 0.43354 0.84388 0.0
N229 N 0.35314 0.5781 0.6977 0.0
H230 H 0.36712 0.70323 0.87744 0.0
H231 H 0.34819 0.72566 0.79854 0.0
H232 H 0.34794 0.54946 0.64847 0.0
H233 H 0.3315 0.60945 0.72251 0.0
H234 H 0.4845 0.37331 0.82537 0.0
H235 H 0.46891 0.45052 0.89585 0.0
H236 H 0.49126 0.40363 0.72239 0.0
H237 H 0.46838 0.41083 0.64672 0.0
C238 C 0.63642 0.40948 0.82578 0.0
C239 C 0.60868 0.45136 0.86486 0.0
C240 C 0.58219 0.53344 0.76165 0.0
C241 C 0.61238 0.50677 0.72497 0.0
N242 N 0.67116 0.44181 0.72693 0.0
N243 N 0.5554 0.55683 0.87223 0.0
C244 C 0.64018 0.44986 0.75818 0.0
C245 C 0.58154 0.51449 0.83339 0.0
N246 N 0.65955 0.33204 0.85331 0.0
N247 N 0.55396 0.57295 0.7277 0.0
H248 H 0.55346 0.53872 0.92409 0.0
H249 H 0.53654 0.6137 0.85391 0.0
H250 H 0.5535 0.58506 0.67516 0.0
H251 H 0.53029 0.5846 0.75044 0.0
H252 H 0.6781 0.28883 0.8246 0.0
H253 H 0.65838 0.30188 0.90328 0.0
H254 H 0.69323 0.41345 0.7516 0.0
H255 H 0.67582 0.47606 0.67877 0.0
C256 C 0.14595 0.03677 0.23281 0.0
C257 C 0.11986 0.95721 0.21175 0.0
C258 C 0.08921 0.99373 0.31865 0.0
C259 C 0.11494 0.0762 0.33862 0.0
N260 N 0.1645 0.19308 0.30916 0.0
N261 N 0.06326 0.87832 0.22799 0.0
C262 C 0.14214 0.10344 0.29382 0.0
C263 C 0.09063 0.94001 0.25308 0.0
N264 N 0.1754 0.04375 0.19642 0.0
N265 N 0.06284 0.96872 0.36165 0.0
H266 H 0.06263 0.84101 0.17955 0.0
H267 H 0.03986 0.87231 0.25242 0.0
H268 H 0.05772 0.01779 0.40543 0.0
H269 H 0.04641 0.89677 0.35517 0.0
H270 H 0.19724 0.0875 0.2133 0.0
H271 H 0.17901 0.99639 0.15178 0.0
H272 H 0.18168 0.22815 0.27426 0.0
H273 H 0.16503 0.2374 0.35564 0.0
C274 C 0.88372 0.06794 0.33722 0.0
C275 C 0.9066 0.971 0.34888 0.0
C276 C 0.93416 0.01417 0.23948 0.0
C277 C 0.90889 0.10041 0.22495 0.0
N278 N 0.85892 0.21025 0.25853 0.0
N279 N 0.95093 0.84159 0.30348 0.0
C280 C 0.88381 0.12904 0.27384 0.0
C281 C 0.93088 0.94067 0.29772 0.0
N282 N 0.86098 0.09951 0.38611 0.0
N283 N 0.96271 0.00768 0.19985 0.0
H284 H 0.95162 0.78667 0.3456 0.0
H285 H 0.96524 0.80769 0.26334 0.0
H286 H 0.96709 0.06454 0.15888 0.0
H287 H 0.98392 0.9563 0.21225 0.0
H288 H 0.84795 0.18033 0.38729 0.0
H289 H 0.85532 0.04354 0.42607 0.0
H290 H 0.83758 0.22576 0.28847 0.0
H291 H 0.85793 0.25733 0.21302 0.0
C292 C 0.94121 0.02059 0.75299 0.0
C293 C 0.9111 0.97952 0.72051 0.0
C294 C 0.87919 1.00078 0.82647 0.0
C295 C 0.90971 0.03412 0.86033 0.0
N296 N 0.9705 0.06331 0.85938 0.0
N297 N 0.85272 0.91359 0.72706 0.0
C298 C 0.94101 0.0408 0.82458 0.0
C299 C 0.88055 0.96391 0.75769 0.0
N300 N 0.96963 0.04269 0.71506 0.0
N301 N 0.84856 0.01035 0.85916 0.0
H302 H 0.85212 0.89048 0.6758 0.0
H303 H 0.83113 0.88618 0.75339 0.0
H304 H 0.84622 0.03823 0.90948 0.0
H305 H 0.82511 1.00125 0.8349 0.0
H306 H 0.9913 0.08488 0.7339 0.0
H307 H 0.97084 0.02404 0.66315 0.0
H308 H 0.99463 0.05779 0.83782 0.0
H309 H 0.97098 0.08036 0.91151 0.0
C310 C 0.11333 0.87503 0.79499 0.0
C311 C 0.10917 0.96793 0.84323 0.0
C312 C 0.09223 0.10432 0.75147 0.0
C313 C 0.09848 0.01188 0.70309 0.0
N314 N 0.09221 0.79865 0.68856 0.0
N315 N 0.08041 0.15269 0.86922 0.0
C316 C 0.10169 0.89341 0.72781 0.0
C317 C 0.09433 0.07752 0.8221 0.0
N318 N 0.12988 0.77168 0.81112 0.0
N319 N 0.08364 0.2167 0.73121 0.0
H320 H 0.07927 0.13188 0.92081 0.0
H321 H 0.06638 0.22838 0.8565 0.0
H322 H 0.07431 0.23614 0.6831 0.0
H323 H 0.08499 0.29045 0.76336 0.0
H324 H 0.13547 0.70683 0.77479 0.0
H325 H 0.1413 0.75613 0.85808 0.0
H326 H 0.09239 0.71121 0.70666 0.0
H327 H 0.07939 0.8097 0.64247 0.0
C328 C 0.48495 0.99087 0.095 0.0
C329 C 0.48263 0.9148 0.03755 0.0
C330 C 0.53459 0.00516 0.9899 0.0
C331 C 0.5382 0.07747 0.04907 0.0
N332 N 0.51529 0.14491 0.15628 0.0
N333 N 0.50697 0.83676 0.93462 0.0
C334 C 0.51279 0.07213 0.10091 0.0
C335 C 0.50799 0.91824 0.98632 0.0
N336 N 0.46171 0.97908 0.1464 0.0
N337 N 0.55498 0.02557 0.93488 0.0
H338 H 0.48708 0.77594 0.92845 0.0
H339 H 0.5268 0.82398 0.90038 0.0
H340 H 0.57349 0.09211 0.9337 0.0
H341 H 0.55141 0.98527 0.88774 0.0
H342 H 0.46356 0.02041 0.19355 0.0
H343 H 0.44078 0.92212 0.1438 0.0
H344 H 0.49564 0.16219 0.19019 0.0
H345 H 0.53737 0.19061 0.16813 0.0
C346 C 0.51946 0.94125 0.61178 0.0
C347 C 0.54296 0.9342 0.55718 0.0
C348 C 0.50606 0.06368 0.48863 0.0
C349 C 0.48395 0.07991 0.545 0.0
N350 N 0.47275 0.04969 0.66417 0.0
N351 N 0.56223 0.00873 0.44902 0.0
C352 C 0.49143 0.02262 0.60776 0.0
C353 C 0.53744 1.0023 0.4975 0.0
N354 N 0.52377 0.86939 0.66713 0.0
N355 N 0.49613 0.09999 0.42528 0.0
H356 H 0.58548 0.96442 0.45328 0.0
H357 H 0.56111 0.06723 0.40798 0.0
H358 H 0.47235 0.13746 0.41539 0.0
H359 H 0.50969 0.08028 0.38125 0.0
H360 H 0.50556 0.85971 0.70511 0.0
H361 H 0.54494 0.81404 0.67303 0.0
H362 H 0.47901 0.02025 0.71278 0.0
H363 H 0.45254 0.11008 0.6634 0.0
C364 C 0.03254 0.5308 0.08626 0.0
C365 C 0.04037 0.59863 0.02766 0.0
C366 C 0.99075 0.5122 0.9685 0.0
C367 C 0.98164 0.45067 0.02887 0.0
N368 N 0.98957 0.42443 0.14972 0.0
N369 N 0.02484 0.66811 0.91605 0.0
C370 C 1.00142 0.46618 0.08895 0.0
C371 C 0.01875 0.59385 0.96968 0.0
N372 N 0.05504 0.527 0.13941 0.0
N373 N 0.97366 0.48866 0.90941 0.0
H374 H 0.04576 0.72543 0.91433 0.0
H375 H 1.00806 0.67876 0.87545 0.0
H376 H 0.95317 0.42964 0.90677 0.0
H377 H 0.98128 0.5205 0.86217 0.0
H378 H 0.05276 0.46787 0.17992 0.0
H379 H 0.0776 0.57602 0.14057 0.0
H380 H 1.00091 0.44403 0.1963 0.0
H381 H 0.96631 0.38085 0.15476 0.0
C382 C 0.04262 0.53942 0.49445 0.0
C383 C 0.04156 0.43883 0.53817 0.0
C384 C 0.98806 0.51481 0.58704 0.0
C385 C 0.98654 0.60586 0.53686 0.0
N386 N 1.01034 0.68701 0.43306 0.0
N387 N 1.00955 0.31983 0.61799 0.0
C388 C 0.01346 0.61437 0.48842 0.0
C389 C 0.01311 0.42299 0.58186 0.0
N390 N 0.07105 0.5624 0.45664 0.0
N391 N 0.96676 0.51887 0.6418 0.0
H392 H 0.02722 0.25067 0.61631 0.0
H393 H 0.98753 0.29862 0.64483 0.0
H394 H 0.94964 0.58843 0.65002 0.0
H395 H 0.96896 0.46121 0.68307 0.0
H396 H 0.07494 0.64317 0.43166 0.0
H397 H 0.09181 0.50497 0.45345 0.0
H398 H 0.027 0.6847 0.39197 0.0
H399 H 0.98931 0.74037 0.42385 0.0
loop_
_geom_bond_atom_site_label_1
_geom_bond_atom_site_label_2
_geom_bond_distance
_geom_bond_site_symmetry_2
_ccdc_geom_bond_type
Co0 O1 2.216 . S
Co0 O2 2.091 . S
Co0 O4 2.004 . S
Co0 O10 2.021 1_554 S
Co0 O12 2.137 . S
Co0 O13 2.244 . S
O1 Co0 2.216 . S
O1 C8 1.247 . S
O2 Co0 2.091 . S
O2 C8 1.261 . S
C3 O12 1.247 . S
C3 O13 1.272 . S
O4 Co0 2.004 . S
O4 C9 1.259 . S
Co5 O6 2.061 . S
Co5 O11 2.052 1_554 S
Co5 O13 2.135 . S
O6 Co5 2.061 . S
O6 C9 1.235 . S
C7 O10 1.238 . S
C7 O11 1.241 . S
C8 O1 1.247 . S
C8 O2 1.261 . S
C9 O4 1.259 . S
C9 O6 1.235 . S
O10 Co0 2.021 1_556 S
O10 C7 1.238 . S
O11 Co5 2.052 1_556 S
O11 C7 1.241 . S
O12 Co0 2.137 . S
O12 C3 1.247 . S
O13 Co0 2.244 . S
O13 C3 1.272 . S
O13 Co5 2.135 . S
Co14 O15 2.216 . S
Co14 O16 2.091 . S
Co14 O18 2.004 . S
Co14 O24 2.021 1_554 S
Co14 O26 2.137 . S
Co14 O27 2.244 . S
O15 Co14 2.216 . S
O15 C22 1.247 . S
O16 Co14 2.091 . S
O16 C22 1.261 . S
C17 O26 1.247 . S
C17 O27 1.272 . S
O18 Co14 2.004 . S
O18 C23 1.259 . S
Co19 O20 2.061 . S
Co19 O25 2.052 1_554 S
Co19 O27 2.135 . S
O20 Co19 2.061 . S
O20 C23 1.235 . S
C21 O24 1.238 . S
C21 O25 1.241 . S
C22 O15 1.247 . S
C22 O16 1.261 . S
C23 O18 1.259 . S
C23 O20 1.235 . S
O24 Co14 2.021 1_556 S
O24 C21 1.238 . S
O25 Co19 2.052 1_556 S
O25 C21 1.241 . S
O26 Co14 2.137 . S
O26 C17 1.247 . S
O27 Co14 2.244 . S
O27 C17 1.272 . S
O27 Co19 2.135 . S
Co28 O29 2.216 . S
Co28 O30 2.091 . S
Co28 O32 2.004 . S
Co28 O38 2.021 . S
Co28 O40 2.137 . S
Co28 O41 2.244 . S
O29 Co28 2.216 . S
O29 C36 1.247 . S
O30 Co28 2.091 . S
O30 C36 1.261 . S
C31 O40 1.247 . S
C31 O41 1.272 . S
O32 Co28 2.004 . S
O32 C37 1.259 . S
Co33 O34 2.061 . S
Co33 O39 2.052 . S
Co33 O41 2.135 . S
O34 Co33 2.061 . S
O34 C37 1.235 . S
C35 O38 1.238 . S
C35 O39 1.241 . S
C36 O29 1.247 . S
C36 O30 1.261 . S
C37 O32 1.259 . S
C37 O34 1.235 . S
O38 Co28 2.021 . S
O38 C35 1.238 . S
O39 Co33 2.052 . S
O39 C35 1.241 . S
O40 Co28 2.137 . S
O40 C31 1.247 . S
O41 Co28 2.244 . S
O41 C31 1.272 . S
O41 Co33 2.135 . S
Co42 O43 2.216 . S
Co42 O44 2.091 . S
Co42 O46 2.004 . S
Co42 O52 2.021 . S
Co42 O54 2.137 . S
Co42 O55 2.244 . S
O43 Co42 2.216 . S
O43 C50 1.247 . S
O44 Co42 2.091 . S
O44 C50 1.261 . S
C45 O54 1.247 . S
C45 O55 1.272 . S
O46 Co42 2.004 . S
O46 C51 1.259 . S
Co47 O48 2.061 . S
Co47 O53 2.052 . S
Co47 O55 2.135 . S
O48 Co47 2.061 . S
O48 C51 1.235 . S
C49 O52 1.238 . S
C49 O53 1.241 . S
C50 O43 1.247 . S
C50 O44 1.261 . S
C51 O46 1.259 . S
C51 O48 1.235 . S
O52 Co42 2.021 . S
O52 C49 1.238 . S
O53 Co47 2.052 . S
O53 C49 1.241 . S
O54 Co42 2.137 . S
O54 C45 1.247 . S
O55 Co42 2.244 . S
O55 C45 1.272 . S
O55 Co47 2.135 . S
Co56 O57 2.216 . S
Co56 O58 2.091 . S
Co56 O60 2.004 . S
Co56 O66 2.021 1_554 S
Co56 O68 2.137 . S
Co56 O69 2.244 . S
O57 Co56 2.216 . S
O57 C64 1.247 . S
O58 Co56 2.091 . S
O58 C64 1.261 . S
C59 O68 1.247 . S
C59 O69 1.272 . S
O60 Co56 2.004 . S
O60 C65 1.259 . S
Co61 O62 2.061 1_545 S
Co61 O67 2.052 1_554 S
Co61 O69 2.135 1_545 S
O62 Co61 2.061 1_565 S
O62 C65 1.235 . S
C63 O66 1.238 . S
C63 O67 1.241 1_565 S
C64 O57 1.247 . S
C64 O58 1.261 . S
C65 O60 1.259 . S
C65 O62 1.235 . S
O66 Co56 2.021 1_556 S
O66 C63 1.238 . S
O67 Co61 2.052 1_556 S
O67 C63 1.241 1_545 S
O68 Co56 2.137 . S
O68 C59 1.247 . S
O69 Co56 2.244 . S
O69 C59 1.272 . S
O69 Co61 2.135 1_565 S
Co70 O71 2.216 . S
Co70 O72 2.091 . S
Co70 O74 2.004 . S
Co70 O80 2.021 1_554 S
Co70 O82 2.137 . S
Co70 O83 2.244 . S
O71 Co70 2.216 . S
O71 C78 1.247 . S
O72 Co70 2.091 . S
O72 C78 1.261 . S
C73 O82 1.247 . S
C73 O83 1.272 . S
O74 Co70 2.004 . S
O74 C79 1.259 . S
Co75 O76 2.061 1_565 S
Co75 O81 2.052 1_554 S
Co75 O83 2.135 1_565 S
O76 Co75 2.061 1_545 S
O76 C79 1.235 . S
C77 O80 1.238 . S
C77 O81 1.241 1_545 S
C78 O71 1.247 . S
C78 O72 1.261 . S
C79 O74 1.259 . S
C79 O76 1.235 . S
O80 Co70 2.021 1_556 S
O80 C77 1.238 . S
O81 Co75 2.052 1_556 S
O81 C77 1.241 1_565 S
O82 Co70 2.137 . S
O82 C73 1.247 . S
O83 Co70 2.244 . S
O83 C73 1.272 . S
O83 Co75 2.135 1_545 S
Co84 O85 2.216 . S
Co84 O86 2.091 . S
Co84 O88 2.004 . S
Co84 O94 2.021 . S
Co84 O96 2.137 . S
Co84 O97 2.244 . S
O85 Co84 2.216 . S
O85 C92 1.247 . S
O86 Co84 2.091 . S
O86 C92 1.261 . S
C87 O96 1.247 . S
C87 O97 1.272 . S
O88 Co84 2.004 . S
O88 C93 1.259 . S
Co89 O90 2.061 1_565 S
Co89 O95 2.052 . S
Co89 O97 2.135 1_565 S
O90 Co89 2.061 1_545 S
O90 C93 1.235 . S
C91 O94 1.238 . S
C91 O95 1.241 1_545 S
C92 O85 1.247 . S
C92 O86 1.261 . S
C93 O88 1.259 . S
C93 O90 1.235 . S
O94 Co84 2.021 . S
O94 C91 1.238 . S
O95 Co89 2.052 . S
O95 C91 1.241 1_565 S
O96 Co84 2.137 . S
O96 C87 1.247 . S
O97 Co84 2.244 . S
O97 C87 1.272 . S
O97 Co89 2.135 1_545 S
Co98 O99 2.216 . S
Co98 O100 2.091 . S
Co98 O102 2.004 . S
Co98 O108 2.021 . S
Co98 O110 2.137 . S
Co98 O111 2.244 . S
O99 Co98 2.216 . S
O99 C106 1.247 . S
O100 Co98 2.091 . S
O100 C106 1.261 . S
C101 O110 1.247 . S
C101 O111 1.272 . S
O102 Co98 2.004 . S
O102 C107 1.259 . S
Co103 O104 2.061 1_545 S
Co103 O109 2.052 . S
Co103 O111 2.135 1_545 S
O104 Co103 2.061 1_565 S
O104 C107 1.235 . S
C105 O108 1.238 . S
C105 O109 1.241 1_565 S
C106 O99 1.247 . S
C106 O100 1.261 . S
C107 O102 1.259 . S
C107 O104 1.235 . S
O108 Co98 2.021 . S
O108 C105 1.238 . S
O109 Co103 2.052 . S
O109 C105 1.241 1_545 S
O110 Co98 2.137 . S
O110 C101 1.247 . S
O111 Co98 2.244 . S
O111 C101 1.272 . S
O111 Co103 2.135 1_565 S
C112 C113 1.363 1_556 S
C112 C118 1.379 . S
C112 N120 1.356 . S
C113 C112 1.363 1_554 S
C113 C119 1.363 . S
C114 C115 1.363 . S
C114 C119 1.379 . S
C114 N121 1.356 . S
C115 C114 1.363 . S
C115 C118 1.363 1_554 S
N116 C118 1.356 . S
N116 H128 0.984 . S
N116 H129 0.985 . S
N117 C119 1.356 . S
N117 H122 0.984 . S
N117 H123 0.985 . S
C118 C112 1.379 . S
C118 C115 1.363 1_556 S
C118 N116 1.356 . S
C119 C113 1.363 . S
C119 C114 1.379 . S
C119 N117 1.356 . S
N120 C112 1.356 . S
N120 H126 0.984 . S
N120 H127 0.984 . S
N121 C114 1.356 . S
N121 H124 0.984 . S
N121 H125 0.985 . S
H122 N117 0.984 . S
H123 N117 0.985 . S
H124 N121 0.984 . S
H125 N121 0.985 . S
H126 N120 0.984 . S
H127 N120 0.984 . S
H128 N116 0.984 . S
H129 N116 0.985 . S
C130 C131 1.363 1_556 S
C130 C136 1.379 . S
C130 N138 1.356 . S
C131 C130 1.363 1_554 S
C131 C137 1.363 . S
C132 C133 1.363 . S
C132 C137 1.379 . S
C132 N139 1.356 . S
C133 C132 1.363 . S
C133 C136 1.363 1_554 S
N134 C136 1.356 . S
N134 H146 0.984 . S
N134 H147 0.985 . S
N135 C137 1.356 . S
N135 H140 0.984 . S
N135 H141 0.985 . S
C136 C130 1.379 . S
C136 C133 1.363 1_556 S
C136 N134 1.356 . S
C137 C131 1.363 . S
C137 C132 1.379 . S
C137 N135 1.356 . S
N138 C130 1.356 . S
N138 H144 0.984 . S
N138 H145 0.984 . S
N139 C132 1.356 . S
N139 H142 0.984 . S
N139 H143 0.985 . S
H140 N135 0.984 . S
H141 N135 0.985 . S
H142 N139 0.984 . S
H143 N139 0.985 . S
H144 N138 0.984 . S
H145 N138 0.984 . S
H146 N134 0.984 . S
H147 N134 0.985 . S
C148 C149 1.363 . S
C148 C154 1.379 . S
C148 N156 1.356 . S
C149 C148 1.363 . S
C149 C155 1.363 . S
C150 C151 1.363 . S
C150 C155 1.379 . S
C150 N157 1.356 . S
C151 C150 1.363 . S
C151 C154 1.363 . S
N152 C154 1.356 . S
N152 H164 0.984 . S
N152 H165 0.985 . S
N153 C155 1.356 . S
N153 H158 0.984 . S
N153 H159 0.985 . S
C154 C148 1.379 . S
C154 C151 1.363 . S
C154 N152 1.356 . S
C155 C149 1.363 . S
C155 C150 1.379 . S
C155 N153 1.356 . S
N156 C148 1.356 . S
N156 H162 0.984 . S
N156 H163 0.984 . S
N157 C150 1.356 . S
N157 H160 0.984 . S
N157 H161 0.985 . S
H158 N153 0.984 . S
H159 N153 0.985 . S
H160 N157 0.984 . S
H161 N157 0.985 . S
H162 N156 0.984 . S
H163 N156 0.984 . S
H164 N152 0.984 . S
H165 N152 0.985 . S
C166 C167 1.363 . S
C166 C172 1.379 . S
C166 N174 1.356 . S
C167 C166 1.363 . S
C167 C173 1.363 . S
C168 C169 1.363 . S
C168 C173 1.379 . S
C168 N175 1.356 . S
C169 C168 1.363 . S
C169 C172 1.363 . S
N170 C172 1.356 . S
N170 H182 0.984 . S
N170 H183 0.985 . S
N171 C173 1.356 . S
N171 H176 0.984 . S
N171 H177 0.985 . S
C172 C166 1.379 . S
C172 C169 1.363 . S
C172 N170 1.356 . S
C173 C167 1.363 . S
C173 C168 1.379 . S
C173 N171 1.356 . S
N174 C166 1.356 . S
N174 H180 0.984 . S
N174 H181 0.984 . S
N175 C168 1.356 . S
N175 H178 0.984 . S
N175 H179 0.985 . S
H176 N171 0.984 . S
H177 N171 0.985 . S
H178 N175 0.984 . S
H179 N175 0.985 . S
H180 N174 0.984 . S
H181 N174 0.984 . S
H182 N170 0.984 . S
H183 N170 0.985 . S
C184 C185 1.363 . S
C184 C190 1.379 . S
C184 N192 1.356 . S
C185 C184 1.363 . S
C185 C191 1.363 . S
C186 C187 1.363 . S
C186 C191 1.379 . S
C186 N193 1.356 . S
C187 C186 1.363 . S
C187 C190 1.363 . S
N188 C190 1.356 . S
N188 H200 0.984 . S
N188 H201 0.985 . S
N189 C191 1.356 . S
N189 H194 0.984 . S
N189 H195 0.985 . S
C190 C184 1.379 . S
C190 C187 1.363 . S
C190 N188 1.356 . S
C191 C185 1.363 . S
C191 C186 1.379 . S
C191 N189 1.356 . S
N192 C184 1.356 . S
N192 H198 0.984 . S
N192 H199 0.984 . S
N193 C186 1.356 . S
N193 H196 0.984 . S
N193 H197 0.985 . S
H194 N189 0.984 . S
H195 N189 0.985 . S
H196 N193 0.984 . S
H197 N193 0.985 . S
H198 N192 0.984 . S
H199 N192 0.984 . S
H200 N188 0.984 . S
H201 N188 0.985 . S
C202 C203 1.363 . S
C202 C208 1.379 . S
C202 N210 1.356 . S
C203 C202 1.363 . S
C203 C209 1.363 . S
C204 C205 1.363 . S
C204 C209 1.379 . S
C204 N211 1.356 . S
C205 C204 1.363 . S
C205 C208 1.363 . S
N206 C208 1.356 . S
N206 H218 0.984 . S
N206 H219 0.985 . S
N207 C209 1.356 . S
N207 H212 0.984 . S
N207 H213 0.985 . S
C208 C202 1.379 . S
C208 C205 1.363 . S
C208 N206 1.356 . S
C209 C203 1.363 . S
C209 C204 1.379 . S
C209 N207 1.356 . S
N210 C202 1.356 . S
N210 H216 0.984 . S
N210 H217 0.984 . S
N211 C204 1.356 . S
N211 H214 0.984 . S
N211 H215 0.985 . S
H212 N207 0.984 . S
H213 N207 0.985 . S
H214 N211 0.984 . S
H215 N211 0.985 . S
H216 N210 0.984 . S
H217 N210 0.984 . S
H218 N206 0.984 . S
H219 N206 0.985 . S
C220 C221 1.363 . S
C220 C226 1.379 . S
C220 N228 1.356 . S
C221 C220 1.363 . S
C221 C227 1.363 . S
C222 C223 1.363 . S
C222 C227 1.379 . S
C222 N229 1.356 . S
C223 C222 1.363 . S
C223 C226 1.363 . S
N224 C226 1.356 . S
N224 H236 0.984 . S
N224 H237 0.985 . S
N225 C227 1.356 . S
N225 H230 0.984 . S
N225 H231 0.985 . S
C226 C220 1.379 . S
C226 C223 1.363 . S
C226 N224 1.356 . S
C227 C221 1.363 . S
C227 C222 1.379 . S
C227 N225 1.356 . S
N228 C220 1.356 . S
N228 H234 0.984 . S
N228 H235 0.984 . S
N229 C222 1.356 . S
N229 H232 0.984 . S
N229 H233 0.985 . S
H230 N225 0.984 . S
H231 N225 0.985 . S
H232 N229 0.984 . S
H233 N229 0.985 . S
H234 N228 0.984 . S
H235 N228 0.984 . S
H236 N224 0.984 . S
H237 N224 0.985 . S
C238 C239 1.363 . S
C238 C244 1.379 . S
C238 N246 1.356 . S
C239 C238 1.363 . S
C239 C245 1.363 . S
C240 C241 1.363 . S
C240 C245 1.379 . S
C240 N247 1.356 . S
C241 C240 1.363 . S
C241 C244 1.363 . S
N242 C244 1.356 . S
N242 H254 0.984 . S
N242 H255 0.985 . S
N243 C245 1.356 . S
N243 H248 0.984 . S
N243 H249 0.985 . S
C244 C238 1.379 . S
C244 C241 1.363 . S
C244 N242 1.356 . S
C245 C239 1.363 . S
C245 C240 1.379 . S
C245 N243 1.356 . S
N246 C238 1.356 . S
N246 H252 0.984 . S
N246 H253 0.984 . S
N247 C240 1.356 . S
N247 H250 0.984 . S
N247 H251 0.985 . S
H248 N243 0.984 . S
H249 N243 0.985 . S
H250 N247 0.984 . S
H251 N247 0.985 . S
H252 N246 0.984 . S
H253 N246 0.984 . S
H254 N242 0.984 . S
H255 N242 0.985 . S
C256 C257 1.363 1_545 S
C256 C262 1.379 . S
C256 N264 1.356 . S
C257 C256 1.363 1_565 S
C257 C263 1.363 . S
C258 C259 1.363 1_565 S
C258 C263 1.379 . S
C258 N265 1.356 . S
C259 C258 1.363 1_545 S
C259 C262 1.363 . S
N260 C262 1.356 . S
N260 H272 0.984 . S
N260 H273 0.985 . S
N261 C263 1.356 . S
N261 H266 0.984 . S
N261 H267 0.985 . S
C262 C256 1.379 . S
C262 C259 1.363 . S
C262 N260 1.356 . S
C263 C257 1.363 . S
C263 C258 1.379 . S
C263 N261 1.356 . S
N264 C256 1.356 . S
N264 H270 0.984 . S
N264 H271 0.984 . S
N265 C258 1.356 . S
N265 H268 0.984 . S
N265 H269 0.985 . S
H266 N261 0.984 . S
H267 N261 0.985 . S
H268 N265 0.984 . S
H269 N265 0.985 . S
H270 N264 0.984 . S
H271 N264 0.984 . S
H272 N260 0.984 . S
H273 N260 0.985 . S
C274 C275 1.363 1_545 S
C274 C280 1.379 . S
C274 N282 1.356 . S
C275 C274 1.363 1_565 S
C275 C281 1.363 . S
C276 C277 1.363 1_565 S
C276 C281 1.379 . S
C276 N283 1.356 . S
C277 C276 1.363 1_545 S
C277 C280 1.363 . S
N278 C280 1.356 . S
N278 H290 0.984 . S
N278 H291 0.985 . S
N279 C281 1.356 . S
N279 H284 0.984 . S
N279 H285 0.985 . S
C280 C274 1.379 . S
C280 C277 1.363 . S
C280 N278 1.356 . S
C281 C275 1.363 . S
C281 C276 1.379 . S
C281 N279 1.356 . S
N282 C274 1.356 . S
N282 H288 0.984 . S
N282 H289 0.984 . S
N283 C276 1.356 . S
N283 H286 0.984 . S
N283 H287 0.985 . S
H284 N279 0.984 . S
H285 N279 0.985 . S
H286 N283 0.984 . S
H287 N283 0.985 . S
H288 N282 0.984 . S
H289 N282 0.984 . S
H290 N278 0.984 . S
H291 N278 0.985 . S
C292 C293 1.363 1_545 S
C292 C298 1.379 . S
C292 N300 1.356 . S
C293 C292 1.363 1_565 S
C293 C299 1.363 . S
C294 C295 1.363 1_565 S
C294 C299 1.379 . S
C294 N301 1.356 . S
C295 C294 1.363 1_545 S
C295 C298 1.363 . S
N296 C298 1.356 . S
N296 H308 0.984 . S
N296 H309 0.985 . S
N297 C299 1.356 . S
N297 H302 0.984 . S
N297 H303 0.985 . S
C298 C292 1.379 . S
C298 C295 1.363 . S
C298 N296 1.356 . S
C299 C293 1.363 . S
C299 C294 1.379 . S
C299 N297 1.356 . S
N300 C292 1.356 . S
N300 H306 0.984 . S
N300 H307 0.984 . S
N301 C294 1.356 . S
N301 H304 0.984 . S
N301 H305 0.985 . S
H302 N297 0.984 . S
H303 N297 0.985 . S
H304 N301 0.984 . S
H305 N301 0.985 . S
H306 N300 0.984 . S
H307 N300 0.984 . S
H308 N296 0.984 . S
H309 N296 0.985 . S
C310 C311 1.363 . S
C310 C316 1.379 . S
C310 N318 1.356 . S
C311 C310 1.363 . S
C311 C317 1.363 1_565 S
C312 C313 1.363 . S
C312 C317 1.379 . S
C312 N319 1.356 . S
C313 C312 1.363 . S
C313 C316 1.363 1_545 S
N314 C316 1.356 . S
N314 H326 0.984 . S
N314 H327 0.985 . S
N315 C317 1.356 . S
N315 H320 0.984 . S
N315 H321 0.985 . S
C316 C310 1.379 . S
C316 C313 1.363 1_565 S
C316 N314 1.356 . S
C317 C311 1.363 1_545 S
C317 C312 1.379 . S
C317 N315 1.356 . S
N318 C310 1.356 . S
N318 H324 0.984 . S
N318 H325 0.984 . S
N319 C312 1.356 . S
N319 H322 0.984 . S
N319 H323 0.985 . S
H320 N315 0.984 . S
H321 N315 0.985 . S
H322 N319 0.984 . S
H323 N319 0.985 . S
H324 N318 0.984 . S
H325 N318 0.984 . S
H326 N314 0.984 . S
H327 N314 0.985 . S
C328 C329 1.363 1_545 S
C328 C334 1.379 . S
C328 N336 1.356 1_545 S
C329 C328 1.363 1_565 S
C329 C335 1.363 1_554 S
C330 C331 1.363 1_566 S
C330 C335 1.379 . S
C330 N337 1.356 1_565 S
C331 C330 1.363 1_544 S
C331 C334 1.363 . S
N332 C334 1.356 . S
N332 H344 0.984 . S
N332 H345 0.985 . S
N333 C335 1.356 . S
N333 H338 0.984 . S
N333 H339 0.985 . S
C334 C328 1.379 . S
C334 C331 1.363 . S
C334 N332 1.356 . S
C335 C329 1.363 1_556 S
C335 C330 1.379 . S
C335 N333 1.356 . S
N336 C328 1.356 1_565 S
N336 H342 0.984 1_565 S
N336 H343 0.984 . S
N337 C330 1.356 1_545 S
N337 H340 0.984 . S
N337 H341 0.985 1_545 S
H338 N333 0.984 . S
H339 N333 0.985 . S
H340 N337 0.984 . S
H341 N337 0.985 1_565 S
H342 N336 0.984 1_545 S
H343 N336 0.984 . S
H344 N332 0.984 . S
H345 N332 0.985 . S
C346 C347 1.363 . S
C346 C352 1.379 . S
C346 N354 1.356 . S
C347 C346 1.363 . S
C347 C353 1.363 1_565 S
C348 C349 1.363 . S
C348 C353 1.379 . S
C348 N355 1.356 . S
C349 C348 1.363 . S
C349 C352 1.363 1_545 S
N350 C352 1.356 1_545 S
N350 H362 0.984 1_545 S
N350 H363 0.985 . S
N351 C353 1.356 1_565 S
N351 H356 0.984 . S
N351 H357 0.985 1_565 S
C352 C346 1.379 . S
C352 C349 1.363 1_565 S
C352 N350 1.356 1_565 S
C353 C347 1.363 1_545 S
C353 C348 1.379 . S
C353 N351 1.356 1_545 S
N354 C346 1.356 . S
N354 H360 0.984 . S
N354 H361 0.984 . S
N355 C348 1.356 . S
N355 H358 0.984 . S
N355 H359 0.985 . S
H356 N351 0.984 . S
H357 N351 0.985 1_545 S
H358 N355 0.984 . S
H359 N355 0.985 . S
H360 N354 0.984 . S
H361 N354 0.984 . S
H362 N350 0.984 1_565 S
H363 N350 0.985 . S
C364 C365 1.363 . S
C364 C370 1.379 1_455 S
C364 N372 1.356 . S
C365 C364 1.363 . S
C365 C371 1.363 1_554 S
C366 C367 1.363 1_556 S
C366 C371 1.379 1_655 S
C366 N373 1.356 . S
C367 C366 1.363 1_554 S
C367 C370 1.363 . S
N368 C370 1.356 . S
N368 H380 0.984 1_655 S
N368 H381 0.985 . S
N369 C371 1.356 . S
N369 H374 0.984 . S
N369 H375 0.985 1_455 S
C370 C364 1.379 1_655 S
C370 C367 1.363 . S
C370 N368 1.356 . S
C371 C365 1.363 1_556 S
C371 C366 1.379 1_455 S
C371 N369 1.356 . S
N372 C364 1.356 . S
N372 H378 0.984 . S
N372 H379 0.984 . S
N373 C366 1.356 . S
N373 H376 0.984 . S
N373 H377 0.985 . S
H374 N369 0.984 . S
H375 N369 0.985 1_655 S
H376 N373 0.984 . S
H377 N373 0.985 . S
H378 N372 0.984 . S
H379 N372 0.984 . S
H380 N368 0.984 1_455 S
H381 N368 0.985 . S
C382 C383 1.363 . S
C382 C388 1.379 1_455 S
C382 N390 1.356 . S
C383 C382 1.363 . S
C383 C389 1.363 . S
C384 C385 1.363 . S
C384 C389 1.379 1_655 S
C384 N391 1.356 . S
C385 C384 1.363 . S
C385 C388 1.363 . S
N386 C388 1.356 . S
N386 H398 0.984 1_655 S
N386 H399 0.985 . S
N387 C389 1.356 . S
N387 H392 0.984 . S
N387 H393 0.985 1_455 S
C388 C382 1.379 1_655 S
C388 C385 1.363 . S
C388 N386 1.356 . S
C389 C383 1.363 . S
C389 C384 1.379 1_455 S
C389 N387 1.356 . S
N390 C382 1.356 . S
N390 H396 0.984 . S
N390 H397 0.984 . S
N391 C384 1.356 . S
N391 H394 0.984 . S
N391 H395 0.985 . S
H392 N387 0.984 . S
H393 N387 0.985 1_655 S
H394 N391 0.984 . S
H395 N391 0.985 . S
H396 N390 0.984 . S
H397 N390 0.984 . S
H398 N386 0.984 1_455 S
H399 N386 0.985 . S
C113 C79 1.479 . S
C115 C9 1.479 . S
C131 C65 1.479 . S
C133 C23 1.479 . S
C149 C107 1.479 . S
C151 C37 1.479 . S
C167 C93 1.479 . S
C169 C51 1.479 . S
C185 C3 1.432 . S
C187 C31 1.432 . S
C203 C17 1.432 . S
C205 C45 1.432 . S
C221 C21 1.418 . S
C223 C49 1.418 . S
C239 C7 1.418 . S
C241 C35 1.418 . S
C257 C59 1.432 . S
C259 C87 1.432 . S
C275 C101 1.432 . S
C277 C73 1.432 . S
C293 C105 1.418 . S
C295 C77 1.418 . S
C311 C63 1.418 . S
C313 C91 1.418 . S
C329 C22 1.499 . S
C331 C8 1.499 . S
C347 C36 1.499 . S
C349 C50 1.499 . S
C365 C64 1.499 . S
C367 C78 1.499 . S
C383 C92 1.499 . S
C385 C106 1.499 . S
