# Generated by pormake.
# Topology vcu, (8)-cn, num edge types: 1
# Building blocks:
#     Node 0, Type 0, BuildingBlock: TAGTUT_clean_sbu_3, # of connection points: 8
#     Node 1, Type 0, BuildingBlock: TAGTUT_clean_sbu_3, # of connection points: 8
#     Node 2, Type 0, BuildingBlock: TAGTUT_clean_sbu_3, # of connection points: 8
#     Node 3, Type 0, BuildingBlock: TAGTUT_clean_sbu_3, # of connection points: 8
#     Node 4, Type 0, BuildingBlock: TAGTUT_clean_sbu_3, # of connection points: 8
#     Node 5, Type 0, BuildingBlock: TAGTUT_clean_sbu_3, # of connection points: 8
#     Node 6, Type 0, BuildingBlock: TAGTUT_clean_sbu_3, # of connection points: 8
#     Node 7, Type 0, BuildingBlock: TAGTUT_clean_sbu_3, # of connection points: 8
#     Edge 8, Type (0, 0), BuildingBlock: CIFDUS_clean_linker_0, # of connection points: 2
#     Edge 9, Type (0, 0), BuildingBlock: CIFDUS_clean_linker_0, # of connection points: 2
#     Edge 10, Type (0, 0), BuildingBlock: CIFDUS_clean_linker_0, # of connection points: 2
#     Edge 11, Type (0, 0), BuildingBlock: CIFDUS_clean_linker_0, # of connection points: 2
#     Edge 12, Type (0, 0), BuildingBlock: CIFDUS_clean_linker_0, # of connection points: 2
#     Edge 13, Type (0, 0), BuildingBlock: CIFDUS_clean_linker_0, # of connection points: 2
#     Edge 14, Type (0, 0), BuildingBlock: CIFDUS_clean_linker_0, # of connection points: 2
#     Edge 15, Type (0, 0), BuildingBlock: CIFDUS_clean_linker_0, # of connection points: 2
#     Edge 16, Type (0, 0), BuildingBlock: CIFDUS_clean_linker_0, # of connection points: 2
#     Edge 17, Type (0, 0), BuildingBlock: CIFDUS_clean_linker_0, # of connection points: 2
#     Edge 18, Type (0, 0), BuildingBlock: CIFDUS_clean_linker_0, # of connection points: 2
#     Edge 19, Type (0, 0), BuildingBlock: CIFDUS_clean_linker_0, # of connection points: 2
#     Edge 20, Type (0, 0), BuildingBlock: CIFDUS_clean_linker_0, # of connection points: 2
#     Edge 21, Type (0, 0), BuildingBlock: CIFDUS_clean_linker_0, # of connection points: 2
#     Edge 22, Type (0, 0), BuildingBlock: CIFDUS_clean_linker_0, # of connection points: 2
#     Edge 23, Type (0, 0), BuildingBlock: CIFDUS_clean_linker_0, # of connection points: 2
#     Edge 24, Type (0, 0), BuildingBlock: CIFDUS_clean_linker_0, # of connection points: 2
#     Edge 25, Type (0, 0), BuildingBlock: CIFDUS_clean_linker_0, # of connection points: 2
#     Edge 26, Type (0, 0), BuildingBlock: CIFDUS_clean_linker_0, # of connection points: 2
#     Edge 27, Type (0, 0), BuildingBlock: CIFDUS_clean_linker_0, # of connection points: 2
#     Edge 28, Type (0, 0), BuildingBlock: CIFDUS_clean_linker_0, # of connection points: 2
#     Edge 29, Type (0, 0), BuildingBlock: CIFDUS_clean_linker_0, # of connection points: 2
#     Edge 30, Type (0, 0), BuildingBlock: CIFDUS_clean_linker_0, # of connection points: 2
#     Edge 31, Type (0, 0), BuildingBlock: CIFDUS_clean_linker_0, # of connection points: 2
#     Edge 32, Type (0, 0), BuildingBlock: CIFDUS_clean_linker_0, # of connection points: 2
#     Edge 33, Type (0, 0), BuildingBlock: CIFDUS_clean_linker_0, # of connection points: 2
#     Edge 34, Type (0, 0), BuildingBlock: CIFDUS_clean_linker_0, # of connection points: 2
#     Edge 35, Type (0, 0), BuildingBlock: CIFDUS_clean_linker_0, # of connection points: 2
#     Edge 36, Type (0, 0), BuildingBlock: CIFDUS_clean_linker_0, # of connection points: 2
#     Edge 37, Type (0, 0), BuildingBlock: CIFDUS_clean_linker_0, # of connection points: 2
#     Edge 38, Type (0, 0), BuildingBlock: CIFDUS_clean_linker_0, # of connection points: 2
#     Edge 39, Type (0, 0), BuildingBlock: CIFDUS_clean_linker_0, # of connection points: 2
# Relax obj value: 0.231
# Max RMSD: 0.292
# Mean RMSD: 0.290
data_MOF--net-vcu--node1-TAGTUT_clean_sbu_3--edge1-CIFDUS_clean_linker_0
_symmetry_space_group_name_H-M    P1
_symmetry_Int_Tables_number       1
_symmetry_cell_setting            triclinic
loop_
_symmetry_equiv_pos_as_xyz
'x, y, z'
_cell_length_a     16.92862
_cell_length_b     29.299039
_cell_length_c     44.18234
_cell_angle_alpha  90.097293
_cell_angle_beta   89.457251
_cell_angle_gamma 89.555659
loop_
_atom_site_label
_atom_site_type_symbol
_atom_site_fract_x
_atom_site_fract_y
_atom_site_fract_z
_atom_type_partial_charge
C0 C 0.42442 0.39998 0.3278 0.0
C1 C 0.63462 0.35345 0.4053 0.0
C2 C 0.45116 0.28847 0.45314 0.0
Mg3 Mg 0.24088 0.41998 0.33494 0.0
Mg4 Mg 0.18746 0.47128 0.39712 0.0
O5 O 0.22652 0.41706 0.38024 0.0
Mg6 Mg 0.33609 0.40334 0.39286 0.0
O7 O 0.44817 0.38632 0.40151 0.0
Mg8 Mg 0.45786 0.32538 0.38027 0.0
Mg9 Mg 0.48451 0.38591 0.44095 0.0
C10 C 0.22972 0.41172 0.45438 0.0
O11 O 0.35892 0.47489 0.4146 0.0
O12 O 0.10386 0.42036 0.33504 0.0
O13 O 0.43875 0.45194 0.4527 0.0
O14 O 0.24407 0.49906 0.3321 0.0
O15 O 0.07522 0.46245 0.37665 0.0
O16 O 0.24767 0.52932 0.37825 0.0
O17 O 0.32241 0.33022 0.37601 0.0
O18 O 0.24537 0.34015 0.33603 0.0
C19 C 0.28485 0.31386 0.3536 0.0
C20 C 0.05427 0.43812 0.354 0.0
O21 O 0.28262 0.38847 0.43973 0.0
O22 O 0.59174 0.3328 0.38588 0.0
O23 O 0.19611 0.44757 0.44353 0.0
O24 O 0.45755 0.28385 0.42452 0.0
O25 O 0.60583 0.37515 0.42816 0.0
O26 O 0.44426 0.32778 0.46511 0.0
O27 O 0.37448 0.42067 0.34468 0.0
O28 O 0.46276 0.36503 0.33677 0.0
C29 C 0.25438 0.5332 0.34962 0.0
C30 C 0.39557 0.48203 0.43962 0.0
C31 C 0.13756 0.01195 0.92935 0.0
C32 C 0.34446 0.93103 0.87501 0.0
C33 C 0.47678 0.06335 0.87473 0.0
Mg34 Mg 0.06719 0.11402 0.92657 0.0
Mg35 Mg 0.07497 0.17076 0.86225 0.0
O36 O 0.13254 0.14328 0.89425 0.0
Mg37 Mg 0.20442 0.09074 0.88353 0.0
O38 O 0.27353 0.03654 0.87621 0.0
Mg39 Mg 0.32254 0.02624 0.9165 0.0
Mg40 Mg 0.33595 0.02379 0.84237 0.0
C41 C 0.24335 0.17618 0.84072 0.0
O42 O 0.14718 0.07599 0.83639 0.0
O43 O 0.02082 0.18759 0.93489 0.0
O44 O 0.2521 0.04745 0.81019 0.0
O45 O 0.96226 0.10361 0.89617 0.0
O46 O 0.02685 0.22537 0.89023 0.0
O47 O 0.97647 0.13011 0.84945 0.0
O48 O 0.27316 0.0995 0.92782 0.0
O49 O 0.17335 0.12234 0.95765 0.0
C50 C 0.24641 0.11218 0.95371 0.0
C51 C 0.00994 0.22354 0.91864 0.0
O52 O 0.27648 0.14765 0.85894 0.0
O53 O 0.35068 0.95199 0.90046 0.0
O54 O 0.17425 0.1683 0.83081 0.0
O55 O 0.43962 0.05387 0.89914 0.0
O56 O 0.34019 0.95232 0.84985 0.0
O57 O 0.44715 0.05607 0.84879 0.0
O58 O 0.12134 0.04497 0.91151 0.0
O59 O 0.20847 0.99899 0.93324 0.0
C60 C 0.93654 0.10917 0.86947 0.0
C61 C 0.1812 0.06308 0.81148 0.0
C62 C 0.78645 0.20971 0.64501 0.0
C63 C 0.56393 0.0854 0.63595 0.0
C64 C 0.77266 0.98948 0.63221 0.0
Mg65 Mg 0.96478 0.2036 0.62077 0.0
Mg66 Mg -0.00259 0.15646 0.55532 0.0
O67 O 0.96033 0.14719 0.59449 0.0
Mg68 Mg 0.84876 0.1269 0.60168 0.0
O69 O 0.73949 0.10999 0.61272 0.0
Mg70 Mg 0.74993 0.09962 0.65753 0.0
Mg71 Mg 0.70091 0.06058 0.59108 0.0
C72 C 0.91613 0.05895 0.54893 0.0
O73 O 0.79465 0.15034 0.55659 0.0
O74 O 0.09976 0.19872 0.61489 0.0
O75 O 0.71618 0.09016 0.54662 0.0
O76 O 0.9644 0.25397 0.58116 0.0
O77 O 0.11779 0.1655 0.56918 0.0
O78 O 0.95484 0.2192 0.53684 0.0
O79 O 0.88464 0.1019 0.64902 0.0
O80 O 0.97091 0.15609 0.6602 0.0
C81 C 0.93354 0.12 0.66709 0.0
C82 C 0.14455 0.18239 0.59383 0.0
O83 O 0.87882 0.06046 0.57454 0.0
O84 O 0.61223 0.09799 0.65664 0.0
O85 O 0.95632 0.09229 0.53818 0.0
O86 O 0.76126 0.01847 0.65371 0.0
O87 O 0.58656 0.06668 0.61108 0.0
O88 O 0.76175 1.00052 0.60471 0.0
O89 O 0.8295 0.19525 0.6233 0.0
O90 O 0.74702 0.18143 0.66143 0.0
C91 C 0.9583 0.25553 0.5525 0.0
C92 C 0.74602 0.12885 0.53952 0.0
C93 C 0.75168 0.35833 0.03599 0.0
C94 C 0.52839 0.23975 0.05968 0.0
C95 C 0.42094 0.34832 0.11274 0.0
Mg96 Mg 0.80248 0.44781 0.07421 0.0
Mg97 Mg 0.80925 0.44566 0.14968 0.0
O98 O 0.75282 0.43327 0.11435 0.0
Mg99 Mg 0.69317 0.37656 0.10469 0.0
O100 O 0.6285 0.32204 0.09149 0.0
Mg101 Mg 0.56564 0.35165 0.05861 0.0
Mg102 Mg 0.56803 0.28903 0.12046 0.0
C103 C 0.6464 0.40374 0.17432 0.0
O104 O 0.76776 0.32217 0.12998 0.0
O105 O 0.81873 0.52141 0.09204 0.0
O106 O 0.66051 0.29769 0.1542 0.0
O107 O 0.92222 0.42526 0.09228 0.0
O108 O 0.80977 0.51826 0.1428 0.0
O109 O 0.92806 0.41668 0.1423 0.0
O110 O 0.60862 0.41922 0.07796 0.0
O111 O 0.68333 0.47099 0.05579 0.0
C112 C 0.61594 0.45347 0.06086 0.0
C113 C 0.81317 0.54091 0.11806 0.0
O114 O 0.6264 0.38799 0.14844 0.0
O115 O 0.53298 0.2784 0.04612 0.0
O116 O 0.7141 0.42177 0.17971 0.0
O117 O 0.45036 0.35826 0.08688 0.0
O118 O 0.53961 0.23484 0.08828 0.0
O119 O 0.4595 0.32436 0.13157 0.0
O120 O 0.769 0.37255 0.06233 0.0
O121 O 0.68082 0.34683 0.02965 0.0
C122 C 0.96058 0.41464 0.11602 0.0
C123 C 0.73329 0.29261 0.14705 0.0
C124 C 0.73325 0.66562 0.55137 0.0
C125 C 0.49234 0.77986 0.5724 0.0
C126 C 0.40249 0.67247 0.62828 0.0
Mg127 Mg 0.79015 0.57764 0.59085 0.0
Mg128 Mg 0.78804 0.57714 0.66628 0.0
O129 O 0.73374 0.59008 0.62998 0.0
Mg130 Mg 0.67114 0.6466 0.61929 0.0
O131 O 0.60605 0.70001 0.60513 0.0
Mg132 Mg 0.54478 0.66985 0.57219 0.0
Mg133 Mg 0.54352 0.7344 0.63243 0.0
C134 C 0.61758 0.61584 0.68826 0.0
O135 O 0.73957 0.70297 0.64705 0.0
O136 O 0.81394 0.50402 0.60863 0.0
O137 O 0.63864 0.74872 0.6631 0.0
O138 O 0.90378 0.60129 0.61135 0.0
O139 O 0.79931 0.50346 0.65923 0.0
O140 O 0.90748 0.60775 0.6614 0.0
O141 O 0.59235 0.60248 0.58891 0.0
O142 O 0.67827 0.55358 0.56886 0.0
C143 C 0.61016 0.57222 0.56924 0.0
C144 C 0.81089 0.48257 0.63401 0.0
O145 O 0.60065 0.63271 0.66223 0.0
O146 O 0.50446 0.74141 0.55921 0.0
O147 O 0.68616 0.59904 0.69481 0.0
O148 O 0.43014 0.66243 0.60194 0.0
O149 O 0.50229 0.78583 0.60085 0.0
O150 O 0.44188 0.69666 0.64667 0.0
O151 O 0.75069 0.65254 0.57809 0.0
O152 O 0.66182 0.67583 0.54419 0.0
C153 C 0.94109 0.611 0.63535 0.0
C154 C 0.71232 0.73785 0.66211 0.0
C155 C 0.69826 0.86236 0.03482 0.0
C156 C 0.89425 0.74708 0.07432 0.0
C157 C 0.03961 0.85185 0.10012 0.0
Mg158 Mg 0.63865 0.94467 0.07776 0.0
Mg159 Mg 0.64823 0.94323 0.152 0.0
O160 O 0.70007 0.93278 0.11502 0.0
Mg161 Mg 0.76481 0.87834 0.10338 0.0
O162 O 0.83481 0.82483 0.0882 0.0
Mg163 Mg 0.88818 0.85573 0.04894 0.0
Mg164 Mg 0.89243 0.79674 0.12332 0.0
C165 C 0.81258 0.90344 0.17405 0.0
O166 O 0.69624 0.82531 0.13175 0.0
O167 O 0.61634 0.01779 0.09641 0.0
O168 O 0.80255 0.80744 0.15804 0.0
O169 O 0.52559 0.91711 0.09996 0.0
O170 O 0.64212 0.01562 0.14617 0.0
O171 O 0.53393 0.91139 0.1501 0.0
O172 O 0.83919 0.92163 0.07256 0.0
O173 O 0.74948 0.9719 0.05684 0.0
C174 C 0.82018 0.95687 0.05698 0.0
C175 C 0.62967 0.03784 0.12173 0.0
O176 O 0.83689 0.89264 0.14714 0.0
O177 O 0.86416 0.78772 0.07359 0.0
O178 O 0.74222 0.91779 0.17991 0.0
O179 O 0.00367 0.8597 0.07529 0.0
O180 O 0.90457 0.73091 0.10077 0.0
O181 O 0.00651 0.8314 0.12248 0.0
O182 O 0.68234 0.87186 0.06253 0.0
O183 O 0.76864 0.85302 0.02579 0.0
C184 C 0.49556 0.90645 0.12562 0.0
C185 C 0.73111 0.79945 0.15099 0.0
C186 C 0.25805 0.87069 0.43659 0.0
C187 C -0.00085 0.76612 0.42135 0.0
C188 C 0.92852 0.87425 0.36417 0.0
Mg189 Mg 0.32705 0.95028 0.39353 0.0
Mg190 Mg 0.31439 0.95111 0.31897 0.0
O191 O 0.26416 0.93935 0.35604 0.0
Mg192 Mg 0.19651 0.88629 0.36856 0.0
O193 O 0.12689 0.8366 0.38531 0.0
Mg194 Mg 0.07064 0.87213 0.41796 0.0
Mg195 Mg 0.05945 0.80431 0.3594 0.0
C196 C 0.15145 0.90818 0.29704 0.0
O197 O 0.25961 0.8265 0.34306 0.0
O198 O 0.35799 0.02182 0.37488 0.0
O199 O 0.15559 0.78273 0.32952 0.0
O200 O 0.43873 0.92052 0.37034 0.0
O201 O 0.32995 0.02413 0.3253 0.0
O202 O 0.42729 0.91648 0.32008 0.0
O203 O 0.12473 0.93605 0.39829 0.0
O204 O 0.21885 0.98016 0.41674 0.0
C205 C 0.14786 0.96595 0.41718 0.0
C206 C 0.35035 0.04382 0.34995 0.0
O207 O 0.1276 0.89687 0.32385 0.0
O208 O 0.01912 0.80376 0.43397 0.0
O209 O 0.21971 0.92528 0.29141 0.0
O210 O 0.95959 0.88342 0.38967 0.0
O211 O 0.00909 0.75847 0.39296 0.0
O212 O 0.96201 0.84692 0.34548 0.0
O213 O 0.27686 0.87973 0.40915 0.0
O214 O 0.18612 0.86351 0.44468 0.0
C215 C 0.46689 0.91039 0.34418 0.0
C216 C 0.23029 0.79084 0.33017 0.0
C217 C 0.30278 0.51664 0.93627 0.0
C218 C 0.12907 0.43308 0.87024 0.0
C219 C 0.97992 0.56011 0.86548 0.0
Mg220 Mg 0.36033 0.6169 0.94072 0.0
Mg221 Mg 0.37951 0.67877 0.87924 0.0
O222 O 0.30825 0.6485 0.90612 0.0
Mg223 Mg 0.24293 0.59598 0.89043 0.0
O224 O 0.18335 0.54135 0.87779 0.0
Mg225 Mg 0.12175 0.52614 0.91533 0.0
Mg226 Mg 0.14218 0.52906 0.83942 0.0
C227 C 0.22284 0.68 0.84629 0.0
O228 O 0.32319 0.58299 0.84997 0.0
O229 O 0.39485 0.68946 0.95448 0.0
O230 O 0.24413 0.55542 0.81336 0.0
O231 O 0.48144 0.60757 0.91714 0.0
O232 O 0.40063 0.73254 0.91208 0.0
O233 O 0.49033 0.64241 0.87285 0.0
O234 O 0.15321 0.60203 0.93021 0.0
O235 O 0.24023 0.62381 0.96502 0.0
C236 C 0.16941 0.61504 0.95712 0.0
C237 C 0.40442 0.72792 0.94099 0.0
O238 O 0.18104 0.6521 0.86213 0.0
O239 O 0.11177 0.45226 0.89572 0.0
O240 O 0.29641 0.67223 0.84196 0.0
O241 O 0.00845 0.5498 0.89133 0.0
O242 O 0.14226 0.45614 0.8461 0.0
O243 O 0.02197 0.55751 0.84124 0.0
O244 O 0.31594 0.55091 0.91975 0.0
O245 O 0.23348 0.50068 0.93917 0.0
C246 C 0.52048 0.61722 0.89319 0.0
C247 C 0.311 0.5707 0.82257 0.0
H248 H 0.98636 0.41048 0.40465 0.0
H249 H 0.94695 0.42001 0.30857 0.0
H250 H 0.81387 0.38772 0.31573 0.0
H251 H 0.70646 0.36298 0.35063 0.0
H252 H 0.75087 0.35608 0.44662 0.0
H253 H 0.88656 0.3804 0.43805 0.0
C254 C 0.94841 0.40603 0.38519 0.0
C255 C 0.97454 0.41911 0.35626 0.0
C256 C 0.87401 0.38734 0.38952 0.0
C257 C 0.92671 0.41112 0.33111 0.0
C258 C 0.85122 0.39254 0.33525 0.0
C259 C 0.7467 0.36572 0.3695 0.0
C260 C 0.71932 0.35799 0.39923 0.0
C261 C 0.82394 0.38118 0.36449 0.0
C262 C 0.77108 0.36207 0.42362 0.0
C263 C 0.84821 0.37622 0.41877 0.0
H264 H 0.58766 0.069 0.82971 0.0
H265 H 0.55019 0.09199 0.92554 0.0
H266 H 0.69002 0.10618 0.93195 0.0
H267 H 0.8223 0.10845 0.91135 0.0
H268 H 0.86394 0.08994 0.81577 0.0
H269 H 0.72216 0.0769 0.80814 0.0
C270 C 0.61 0.07774 0.85189 0.0
C271 C 0.55883 0.07881 0.87716 0.0
C272 C 0.69087 0.08572 0.85553 0.0
C273 C 0.58845 0.09039 0.90576 0.0
C274 C 0.66842 0.09836 0.90952 0.0
C275 C 0.80071 0.10101 0.88883 0.0
C276 C 0.85323 0.09887 0.86413 0.0
C277 C 0.72009 0.0951 0.88473 0.0
C278 C 0.82418 0.09084 0.83502 0.0
C279 C 0.74342 0.08374 0.83075 0.0
H280 H 0.21319 0.15861 0.64674 0.0
H281 H 0.2638 0.19099 0.55328 0.0
H282 H 0.39989 0.1649 0.5593 0.0
H283 H 0.49879 0.12648 0.58911 0.0
H284 H 0.45274 0.0914 0.68234 0.0
H285 H 0.3191 0.12502 0.67856 0.0
C286 C 0.25486 0.16104 0.62801 0.0
C287 C 0.22916 0.1766 0.59958 0.0
C288 C 0.33237 0.14455 0.63141 0.0
C289 C 0.28274 0.17904 0.57528 0.0
C290 C 0.36013 0.16389 0.57866 0.0
C291 C 0.45929 0.12571 0.60862 0.0
C292 C 0.48387 0.10511 0.63567 0.0
C293 C 0.38442 0.14521 0.60625 0.0
C294 C 0.43389 0.10623 0.66114 0.0
C295 C 0.35802 0.12557 0.65895 0.0
H296 H 0.07111 0.39002 0.15908 0.0
H297 H 0.04232 0.41158 0.06296 0.0
H298 H 0.18099 0.39609 0.05428 0.0
H299 H 0.31068 0.37607 0.07293 0.0
H300 H 0.344 0.34984 0.16801 0.0
H301 H 0.20432 0.3678 0.17799 0.0
C302 C 0.09518 0.3911 0.13627 0.0
C303 C 0.0455 0.4022 0.11185 0.0
C304 C 0.17624 0.3816 0.13111 0.0
C305 C 0.07823 0.40332 0.08239 0.0
C306 C 0.15806 0.39453 0.07725 0.0
C307 C 0.28783 0.37457 0.09594 0.0
C308 C 0.33797 0.36182 0.11966 0.0
C309 C 0.20758 0.38378 0.10136 0.0
C310 C 0.30672 0.35959 0.14927 0.0
C311 C 0.22676 0.36976 0.15498 0.0
H312 H 0.29268 0.63744 0.59101 0.0
H313 H 0.32543 0.68018 0.68343 0.0
H314 H 0.18626 0.66439 0.69479 0.0
H315 H 0.05213 0.64047 0.67747 0.0
H316 H 0.02499 0.60393 0.58318 0.0
H317 H 0.16338 0.61574 0.57392 0.0
C318 C 0.26994 0.64295 0.61378 0.0
C319 C 0.32005 0.65949 0.63633 0.0
C320 C 0.18964 0.63542 0.61986 0.0
C321 C 0.28855 0.667 0.66559 0.0
C322 C 0.20865 0.65824 0.67208 0.0
C323 C 0.07655 0.6353 0.65494 0.0
C324 C 0.02684 0.62134 0.63125 0.0
C325 C 0.15802 0.64287 0.64925 0.0
C326 C 0.06036 0.61486 0.60212 0.0
C327 C 0.14029 0.62141 0.5966 0.0
H328 H 0.39234 0.90927 0.07971 0.0
H329 H 0.41039 0.87161 0.17382 0.0
H330 H 0.26983 0.85168 0.17472 0.0
H331 H 0.14141 0.84541 0.14824 0.0
H332 H 0.12814 0.88757 0.05461 0.0
H333 H 0.26725 0.90537 0.05432 0.0
C334 C 0.36612 0.89642 0.10048 0.0
C335 C 0.4121 0.89169 0.12659 0.0
C336 C 0.28575 0.88604 0.10099 0.0
C337 C 0.37639 0.87542 0.15331 0.0
C338 C 0.29601 0.86413 0.15387 0.0
C339 C 0.16892 0.85876 0.1279 0.0
C340 C 0.12383 0.86499 0.10155 0.0
C341 C 0.24992 0.8695 0.12779 0.0
C342 C 0.16072 0.88235 0.07533 0.0
C343 C 0.24068 0.89249 0.075 0.0
H344 H 0.81929 0.84283 0.32371 0.0
H345 H 0.85512 0.94439 0.3932 0.0
H346 H 0.71536 0.96347 0.39307 0.0
H347 H 0.58194 0.94757 0.37659 0.0
H348 H 0.5419 0.84983 0.30552 0.0
H349 H 0.68445 0.83278 0.30292 0.0
C350 C 0.79672 0.86979 0.33832 0.0
C351 C 0.84762 0.89168 0.35872 0.0
C352 C 0.71545 0.8806 0.33831 0.0
C353 C 0.81734 0.92659 0.3775 0.0
C354 C 0.73723 0.93745 0.37759 0.0
C355 C 0.60433 0.92227 0.36065 0.0
C356 C 0.55173 0.899 0.34187 0.0
C357 C 0.6856 0.91375 0.3588 0.0
C358 C 0.58154 0.86755 0.32054 0.0
C359 C 0.66286 0.858 0.31901 0.0
H360 H 0.87039 0.54778 0.90945 0.0
H361 H 0.89676 0.60085 0.81892 0.0
H362 H 0.756 0.62208 0.81877 0.0
H363 H 0.62573 0.62734 0.84548 0.0
H364 H 0.60491 0.57246 0.93589 0.0
H365 H 0.74293 0.55003 0.93473 0.0
C366 C 0.8459 0.56416 0.8896 0.0
C367 C 0.8947 0.57313 0.86435 0.0
C368 C 0.76543 0.57579 0.8896 0.0
C369 C 0.86088 0.5937 0.83874 0.0
C370 C 0.78033 0.60585 0.83867 0.0
C371 C 0.65125 0.61004 0.86476 0.0
C372 C 0.60408 0.6013 0.89064 0.0
C373 C 0.73196 0.59725 0.86409 0.0
C374 C 0.63875 0.57915 0.91549 0.0
C375 C 0.7182 0.56654 0.91499 0.0
H376 H 0.6196 0.46562 0.21866 0.0
H377 H 0.5405 0.33633 0.18378 0.0
H378 H 0.44893 0.32851 0.22626 0.0
H379 H 0.40736 0.35292 0.2769 0.0
H380 H 0.4845 0.48197 0.31222 0.0
H381 H 0.55906 0.49658 0.26542 0.0
C382 C 0.58196 0.43592 0.22043 0.0
C383 C 0.58813 0.4009 0.19886 0.0
C384 C 0.52873 0.43199 0.24467 0.0
C385 C 0.53751 0.36326 0.20054 0.0
C386 C 0.48501 0.35884 0.22471 0.0
C387 C 0.43813 0.38497 0.27368 0.0
C388 C 0.44155 0.41632 0.29748 0.0
C389 C 0.48206 0.39229 0.24733 0.0
C390 C 0.48115 0.45775 0.29372 0.0
C391 C 0.52463 0.46566 0.26727 0.0
H392 H 0.02136 0.06761 0.7997 0.0
H393 H 0.25253 0.06984 0.75707 0.0
H394 H 0.19353 0.07916 0.70801 0.0
H395 H 0.07927 0.09376 0.67745 0.0
H396 H 0.84641 0.09571 0.71729 0.0
H397 H 0.90225 0.07531 0.76673 0.0
C398 C 0.05839 0.07008 0.77962 0.0
C399 C 0.1412 0.0683 0.78219 0.0
C400 C 0.02392 0.07551 0.75093 0.0
C401 C 0.18864 0.07096 0.75591 0.0
C402 C 0.15513 0.07626 0.72769 0.0
C403 C 0.04072 0.08872 0.69695 0.0
C404 C 0.95958 0.09616 0.6942 0.0
C405 C 0.0733 0.07928 0.72504 0.0
C406 C 0.90938 0.08968 0.71919 0.0
C407 C 0.9415 0.07891 0.74747 0.0
H408 H 0.62709 0.60052 0.74904 0.0
H409 H 0.46049 0.61674 0.67645 0.0
H410 H 0.35121 0.60282 0.71119 0.0
H411 H 0.3021 0.58589 0.76215 0.0
H412 H 0.46794 0.5682 0.8348 0.0
H413 H 0.57797 0.58236 0.80007 0.0
C414 C 0.56684 0.60146 0.74091 0.0
C415 C 0.55207 0.61074 0.7103 0.0
C416 C 0.50392 0.59291 0.76098 0.0
C417 C 0.47357 0.6113 0.70007 0.0
C418 C 0.41089 0.60279 0.71984 0.0
C419 C 0.36236 0.58482 0.77029 0.0
C420 C 0.37691 0.57629 0.80093 0.0
C421 C 0.42531 0.59349 0.75032 0.0
C422 C 0.45525 0.57535 0.8113 0.0
C423 C 0.51821 0.58342 0.7915 0.0
H424 H 0.97324 0.89693 0.17287 0.0
H425 H 0.77179 0.89906 0.23364 0.0
H426 H 0.85875 0.8978 0.27706 0.0
H427 H 0.99164 0.90147 0.29798 0.0
H428 H 0.1935 0.90112 0.23756 0.0
H429 H 0.10683 0.8964 0.194 0.0
C430 C 0.94847 0.8966 0.1956 0.0
C431 C 0.86633 0.89866 0.19995 0.0
C432 C -0.00119 0.89647 0.22064 0.0
C433 C 0.835 0.89819 0.22959 0.0
C434 C 0.88459 0.89733 0.25453 0.0
C435 C 0.01664 0.89955 0.27534 0.0
C436 C 0.09862 0.90183 0.27106 0.0
C437 C 0.96655 0.89729 0.25033 0.0
C438 C 0.13028 0.89994 0.24149 0.0
C439 C 0.08086 0.89707 0.21651 0.0
H440 H 0.62919 0.18449 0.55456 0.0
H441 H 0.75334 0.12807 0.47749 0.0
H442 H 0.66009 0.16648 0.44326 0.0
H443 H 0.54854 0.21926 0.43601 0.0
H444 H 0.42597 0.27613 0.51373 0.0
H445 H 0.51094 0.23189 0.54738 0.0
C446 C 0.63631 0.18137 0.53019 0.0
C447 C 0.69928 0.15545 0.51819 0.0
C448 C 0.58151 0.20219 0.51109 0.0
C449 C 0.70668 0.14947 0.48686 0.0
C450 C 0.65282 0.17077 0.4675 0.0
C451 C 0.53867 0.22103 0.46029 0.0
C452 C 0.48121 0.25121 0.47241 0.0
C453 C 0.59026 0.19738 0.47942 0.0
C454 C 0.4697 0.25316 0.5039 0.0
C455 C 0.51905 0.22848 0.52311 0.0
H456 H 0.74449 0.34545 0.97495 0.0
H457 H 0.90577 0.34338 0.0501 0.0
H458 H 0.00626 0.30652 0.01862 0.0
H459 H 0.03956 0.26321 0.97243 0.0
H460 H 0.88219 0.26787 0.89645 0.0
H461 H 0.7895 0.31598 0.92529 0.0
C462 C 0.80221 0.33777 0.9842 0.0
C463 C 0.81683 0.34606 0.01497 0.0
C464 C 0.86021 0.31667 0.96591 0.0
C465 C 0.89249 0.3369 0.02654 0.0
C466 C 0.95006 0.31557 0.00861 0.0
C467 C 0.98594 0.27594 0.96202 0.0
C468 C 0.96674 0.26179 0.9327 0.0
C469 C 0.93329 0.30354 0.97868 0.0
C470 C 0.89785 0.27859 0.91908 0.0
C471 C 0.8446 0.30569 0.93564 0.0
H472 H 0.10865 0.27776 0.55385 0.0
H473 H 0.88492 0.32032 0.5173 0.0
H474 H 0.95156 0.38031 0.48787 0.0
H475 H 0.0747 0.41237 0.46772 0.0
H476 H 0.29935 0.36113 0.49887 0.0
H477 H 0.23127 0.31266 0.53582 0.0
C478 C 0.07455 0.30089 0.53981 0.0
C479 C 0.99242 0.29543 0.53767 0.0
C480 C 0.11362 0.33317 0.52202 0.0
C481 C 0.94822 0.32446 0.51918 0.0
C482 C 0.98638 0.3584 0.50238 0.0
C483 C 0.10886 0.39166 0.48326 0.0
C484 C 0.19198 0.39058 0.48095 0.0
C485 C 0.06925 0.36207 0.50298 0.0
C486 C 0.23548 0.36266 0.50052 0.0
C487 C 0.19655 0.33483 0.52141 0.0
H488 H 0.40575 0.18409 0.07085 0.0
H489 H 0.59207 0.2113 0.00652 0.0
H490 H 0.52658 0.16447 0.96852 0.0
H491 H 0.4035 0.1302 0.95078 0.0
H492 H 0.21038 0.11093 0.01378 0.0
H493 H 0.29097 0.13949 0.05507 0.0
C494 C 0.43317 0.17818 0.04888 0.0
C495 C 0.50305 0.20092 0.04126 0.0
C496 C 0.39278 0.15353 0.02665 0.0
C497 C 0.53796 0.19393 0.01266 0.0
C498 C 0.50023 0.16754 0.99089 0.0
C499 C 0.37989 0.13113 0.9737 0.0
C500 C 0.30075 0.11943 0.97916 0.0
C501 C 0.42549 0.14937 -0.00288 0.0
C502 C 0.27082 0.12065 0.00895 0.0
C503 C 0.31683 0.13697 0.03258 0.0
H504 H 0.24343 0.88168 0.49728 0.0
H505 H 0.41315 0.85052 0.42652 0.0
H506 H 0.51033 0.82848 0.46433 0.0
H507 H 0.53636 0.80416 0.51634 0.0
H508 H 0.36685 0.83413 0.58712 0.0
H509 H 0.28089 0.87221 0.55056 0.0
C510 C 0.30222 0.87089 0.49021 0.0
C511 C 0.3206 0.86639 0.45926 0.0
C512 C 0.35759 0.85816 0.51203 0.0
C513 C 0.39742 0.85357 0.45027 0.0
C514 C 0.45292 0.8409 0.47185 0.0
C515 C 0.48184 0.82054 0.52383 0.0
C516 C 0.45687 0.81598 0.55402 0.0
C517 C 0.43224 0.84106 0.50264 0.0
C518 C 0.38689 0.83746 0.56387 0.0
C519 C 0.33738 0.85859 0.54292 0.0
H520 H 0.96995 0.66522 0.07252 0.0
H521 H 0.90223 0.77856 0.01594 0.0
H522 H 0.97251 0.74376 0.97293 0.0
H523 H 0.06389 0.68436 0.95275 0.0
H524 H 0.13871 0.57466 0.01082 0.0
H525 H 0.05394 0.60411 0.05176 0.0
C526 C 0.9702 0.68229 0.05075 0.0
C527 C 0.93193 0.72484 0.0476 0.0
C528 C 0.01164 0.66241 0.02632 0.0
C529 C 0.93199 0.74609 0.0191 0.0
C530 C 0.97207 0.72614 0.99448 0.0
C531 C 0.05954 0.66634 0.97413 0.0
C532 C 0.10589 0.62696 0.97877 0.0
C533 C 0.01336 0.68471 -0.00204 0.0
C534 C 0.10225 0.60455 0.00675 0.0
C535 C 0.05446 0.62164 0.03018 0.0
H536 H 0.02344 0.74302 0.47972 0.0
H537 H 0.86999 0.7184 0.40423 0.0
H538 H 0.77479 0.68089 0.43778 0.0
H539 H 0.7276 0.66518 0.48977 0.0
H540 H 0.88485 0.68678 0.56471 0.0
H541 H 0.9865 0.7148 0.53019 0.0
C542 C 0.97002 0.72837 0.47057 0.0
C543 C 0.9531 0.73377 0.43974 0.0
C544 C 0.9158 0.70691 0.48994 0.0
C545 C 0.88425 0.71441 0.42794 0.0
C546 C 0.82947 0.6934 0.44715 0.0
C547 C 0.78459 0.67539 0.49841 0.0
C548 C 0.79811 0.67486 0.52974 0.0
C549 C 0.84333 0.69105 0.47837 0.0
C550 C 0.87272 0.68722 0.54067 0.0
C551 C 0.93088 0.70342 0.52097 0.0
H552 H 0.50622 0.7947 0.9257 0.0
H553 H 0.35741 0.74704 -0.00142 0.0
H554 H 0.42614 0.79603 0.03433 0.0
H555 H 0.54779 0.83675 0.04634 0.0
H556 H 0.70612 0.87623 0.97413 0.0
H557 H 0.61418 0.84719 0.93664 0.0
C558 C 0.48731 0.79629 0.94921 0.0
C559 C 0.42852 0.76674 0.95977 0.0
C560 C 0.53003 0.82246 0.96988 0.0
C561 C 0.4039 0.76902 0.9902 0.0
C562 C 0.44333 0.79683 0.01064 0.0
C563 C 0.5608 0.84028 0.02236 0.0
C564 C 0.63409 0.85742 0.01291 0.0
C565 C 0.50968 0.82135 0.00105 0.0
C566 C 0.65046 0.86216 0.98184 0.0
C567 C 0.59809 0.84547 0.96042 0.0
H568 H 0.2829 0.10649 0.31205 0.0
H569 H 0.42898 0.09456 0.3913 0.0
H570 H 0.42229 0.17689 0.39879 0.0
H571 H 0.36737 0.25089 0.3853 0.0
H572 H 0.22064 0.26492 0.3066 0.0
H573 H 0.23418 0.18292 0.29664 0.0
C574 C 0.31453 0.12203 0.3306 0.0
C575 C 0.35631 0.09427 0.35112 0.0
C576 C 0.30911 0.16957 0.33519 0.0
C577 C 0.39618 0.11498 0.37524 0.0
C578 C 0.39212 0.16208 0.37963 0.0
C579 C 0.33893 0.23636 0.36576 0.0
C580 C 0.29304 0.26429 0.34681 0.0
C581 C 0.34738 0.18949 0.36016 0.0
C582 C 0.25611 0.24437 0.3217 0.0
C583 C 0.26406 0.19745 0.31595 0.0
H584 H 0.20864 0.22423 0.89075 0.0
H585 H 0.29687 0.23728 0.79949 0.0
H586 H 0.267 0.31925 0.80044 0.0
H587 H 0.20174 0.38466 0.82507 0.0
H588 H 0.10345 0.37 0.91511 0.0
H589 H 0.14894 0.29074 0.91645 0.0
C590 C 0.22429 0.24548 0.87156 0.0
C591 C 0.25709 0.22515 0.84537 0.0
C592 C 0.20166 0.29173 0.87158 0.0
C593 C 0.27418 0.25256 0.8202 0.0
C594 C 0.25531 0.29914 0.82053 0.0
C595 C 0.18935 0.36413 0.84493 0.0
C596 C 0.14803 0.3834 0.8698 0.0
C597 C 0.21615 0.31863 0.84565 0.0
C598 C 0.13408 0.35616 0.89547 0.0
C599 C 0.16077 0.31087 0.89638 0.0
H600 H 0.76862 0.42122 0.67871 0.0
H601 H 0.86209 0.42908 0.58746 0.0
H602 H 0.85967 0.3465 0.58335 0.0
H603 H 0.82693 0.27293 0.60411 0.0
H604 H 0.73725 0.26054 0.69534 0.0
H605 H 0.7398 0.34432 0.70069 0.0
C606 C 0.78929 0.40481 0.65807 0.0
C607 C 0.81549 0.43173 0.63339 0.0
C608 C 0.78726 0.35666 0.65567 0.0
C609 C 0.84136 0.40966 0.60677 0.0
C610 C 0.83986 0.36228 0.60433 0.0
C611 C 0.80935 0.28814 0.62552 0.0
C612 C 0.78342 0.26016 0.6495 0.0
C613 C 0.81232 0.33563 0.62846 0.0
C614 C 0.75775 0.28109 0.67653 0.0
C615 C 0.75966 0.32898 0.67959 0.0
H616 H 0.69053 0.0883 0.16756 0.0
H617 H 0.61718 0.09763 0.07431 0.0
H618 H 0.66783 0.17521 0.07154 0.0
H619 H 0.721 0.24266 0.09697 0.0
H620 H 0.78278 0.23545 0.19113 0.0
H621 H 0.75279 0.15386 0.19176 0.0
C622 C 0.68445 0.10738 0.14669 0.0
C623 C 0.64862 0.08717 0.12135 0.0
C624 C 0.71394 0.15192 0.14518 0.0
C625 C 0.643 0.11241 0.09437 0.0
C626 C 0.67282 0.15665 0.09264 0.0
C627 C 0.73154 0.22258 0.11717 0.0
C628 C 0.75565 0.24454 0.14382 0.0
C629 C 0.70779 0.17685 0.11796 0.0
C630 C 0.76649 0.21881 0.1702 0.0
C631 C 0.74718 0.17254 0.17073 0.0
H632 H 0.81808 0.77785 0.6254 0.0
H633 H 0.71426 0.78724 0.71448 0.0
H634 H 0.73545 0.86968 0.71501 0.0
H635 H 0.75205 0.94028 0.68479 0.0
H636 H 0.84459 0.92963 0.59368 0.0
H637 H 0.85886 0.84739 0.59917 0.0
C638 C 0.80436 0.79754 0.64564 0.0
C639 C 0.76446 0.77637 0.66982 0.0
C640 C 0.8112 0.84543 0.64478 0.0
C641 C 0.74572 0.80261 0.69567 0.0
C642 C 0.75608 0.85004 0.69565 0.0
C643 C 0.77717 0.92009 0.66645 0.0
C644 C 0.79523 0.94117 0.6386 0.0
C645 C 0.78363 0.87216 0.66948 0.0
C646 C 0.82827 0.91434 0.61514 0.0
C647 C 0.83684 0.86715 0.61827 0.0
H648 H 0.78114 0.59253 0.16803 0.0
H649 H 0.80147 0.6005 0.07058 0.0
H650 H 0.75553 0.67949 0.0721 0.0
H651 H 0.72006 0.74791 0.10125 0.0
H652 H 0.71328 0.7423 0.19863 0.0
H653 H 0.73928 0.65998 0.19697 0.0
C654 C 0.77628 0.61154 0.14708 0.0
C655 C 0.79571 0.59052 0.11926 0.0
C656 C 0.74989 0.65701 0.14808 0.0
C657 C 0.78801 0.61579 0.09238 0.0
C658 C 0.76074 0.66086 0.09317 0.0
C659 C 0.7209 0.72819 0.12202 0.0
C660 C 0.71316 0.75065 0.15003 0.0
C661 C 0.74198 0.68186 0.12088 0.0
C662 C 0.71712 0.72528 0.17686 0.0
C663 C 0.73379 0.67854 0.17589 0.0
H664 H 0.33896 0.6044 0.37226 0.0
H665 H 0.19786 0.56396 0.29612 0.0
H666 H 0.19743 0.64216 0.2773 0.0
H667 H 0.21387 0.72361 0.28846 0.0
H668 H 0.35549 0.76445 0.36423 0.0
H669 H 0.38293 0.68469 0.37611 0.0
C670 C 0.30942 0.61268 0.35127 0.0
C671 C 0.26665 0.57879 0.33606 0.0
C672 C 0.31011 0.65779 0.34032 0.0
C673 C 0.23033 0.58958 0.30847 0.0
C674 C 0.23007 0.63433 0.29765 0.0
C675 C 0.25405 0.71505 0.30662 0.0
C676 C 0.28078 0.74987 0.32587 0.0
C677 C 0.26683 0.66902 0.3141 0.0
C678 C 0.33364 0.7384 0.34909 0.0
C679 C 0.34792 0.69261 0.35637 0.0
H680 H 0.22473 0.73035 0.89665 0.0
H681 H 0.19384 0.73786 0.80016 0.0
H682 H 0.23379 0.8179 0.80056 0.0
H683 H 0.29575 0.88101 0.82707 0.0
H684 H 0.33575 0.87234 0.92338 0.0
H685 H 0.27632 0.79664 0.9242 0.0
C686 C 0.22305 0.75032 0.876 0.0
C687 C 0.205 0.72877 0.84846 0.0
C688 C 0.25209 0.79504 0.87614 0.0
C689 C 0.20543 0.75426 0.82165 0.0
C690 C 0.23045 0.79955 0.82181 0.0
C691 C 0.29274 0.8625 0.84828 0.0
C692 C 0.32179 0.88226 0.87505 0.0
C693 C 0.25778 0.81935 0.84866 0.0
C694 C 0.31554 0.85776 0.90231 0.0
C695 C 0.28061 0.81468 0.90287 0.0
H696 H 0.45101 0.56257 0.55937 0.0
H697 H 0.67456 0.584 0.51411 0.0
H698 H 0.61222 0.57718 0.46507 0.0
H699 H 0.5036 0.54689 0.43608 0.0
H700 H 0.28632 0.51156 0.48082 0.0
H701 H 0.33323 0.54477 0.52814 0.0
C702 C 0.48536 0.56625 0.53869 0.0
C703 C 0.56751 0.57218 0.54027 0.0
C704 C 0.44952 0.56032 0.51026 0.0
C705 C 0.61155 0.57787 0.51341 0.0
C706 C 0.57587 0.57443 0.48531 0.0
C707 C 0.46483 0.54911 0.45577 0.0
C708 C 0.39268 0.52609 0.45526 0.0
C709 C 0.49591 0.56332 0.48348 0.0
C710 C 0.34246 0.52907 0.48072 0.0
C711 C 0.37041 0.54674 0.50808 0.0
H712 H 0.9602 0.92093 0.03744 0.0
H713 H 0.80126 0.03465 0.02384 0.0
H714 H 0.88111 0.06009 0.98096 0.0
H715 H -0.0043 0.04927 0.94707 0.0
H716 H 0.1485 0.9322 0.95961 0.0
H717 H 0.06799 0.90716 0.00208 0.0
C718 C 0.94218 0.95081 0.02502 0.0
C719 C 0.87409 0.97507 0.0336 0.0
C720 C 0.9863 0.96421 -0.00025 0.0
C721 C 0.85332 0.01491 0.01759 0.0
C722 C 0.89852 0.0294 0.99292 0.0
C723 C 0.0108 0.0181 0.95883 0.0
C724 C 0.07873 0.99323 0.95054 0.0
C725 C 0.96473 0.00397 0.98357 0.0
C726 C 0.09696 0.95242 0.96584 0.0
C727 C 0.05142 0.93815 0.99029 0.0
H728 H 0.03417 0.99969 0.55017 0.0
H729 H 0.81636 0.03005 0.50506 0.0
H730 H 0.86865 0.99668 0.458 0.0
H731 H 0.98841 0.97729 0.42719 0.0
H732 H 0.21163 0.96198 0.47262 0.0
H733 H 0.14697 0.97152 0.52147 0.0
C734 C -0.0032 0.9965 0.53044 0.0
C735 C 0.92194 0.0171 0.53094 0.0
C736 C 0.03044 0.98231 0.5029 0.0
C737 C 0.87401 0.01373 0.50525 0.0
C738 C 0.90488 0.99592 0.47809 0.0
C739 C 0.02234 0.97587 0.44787 0.0
C740 C 0.10488 0.97046 0.44627 0.0
C741 C 0.98501 0.98333 0.47615 0.0
C742 C 0.14832 0.9677 0.4732 0.0
C743 C 0.11132 0.9726 0.50122 0.0
H744 H 0.62073 0.47924 0.00258 0.0
H745 H 0.4611 0.45265 0.07698 0.0
H746 H 0.34757 0.4658 0.04414 0.0
H747 H 0.29453 0.48657 0.99421 0.0
H748 H 0.45601 0.51167 0.92006 0.0
H749 H 0.56834 0.49577 0.95263 0.0
C750 C 0.56105 0.47703 0.01162 0.0
C751 C 0.54866 0.46579 0.04202 0.0
C752 C 0.49667 0.48358 0.99258 0.0
C753 C 0.47139 0.46169 0.05351 0.0
C754 C 0.40671 0.46896 0.03479 0.0
C755 C 0.35435 0.48786 0.98523 0.0
C756 C 0.36761 0.50038 0.95506 0.0
C757 C 0.4187 0.47984 0.00424 0.0
C758 C 0.44503 0.50242 0.94346 0.0
C759 C 0.50911 0.49374 0.96203 0.0
loop_
_geom_bond_atom_site_label_1
_geom_bond_atom_site_label_2
_geom_bond_distance
_geom_bond_site_symmetry_2
_ccdc_geom_bond_type
C0 O27 1.312 . S
C0 O28 1.208 . S
C1 O22 1.331 . S
C1 O25 1.244 . S
C2 O24 1.264 . S
C2 O26 1.273 . S
Mg3 O5 1.936 . S
Mg3 O12 2.081 . S
Mg3 O14 2.023 . S
Mg3 O18 2.031 . S
Mg3 O27 2.291 . S
Mg4 O5 1.963 . S
Mg4 O15 1.942 . S
Mg4 O16 1.955 . S
Mg4 O23 1.986 . S
O5 Mg3 1.936 . S
O5 Mg4 1.963 . S
O5 Mg6 1.915 . S
Mg6 O5 1.915 . S
Mg6 O7 1.915 . S
Mg6 O11 2.013 . S
Mg6 O17 2.114 . S
Mg6 O21 2.013 . S
Mg6 O27 2.114 . S
O7 Mg6 1.915 . S
O7 Mg8 1.936 . S
O7 Mg9 1.963 . S
Mg8 O7 1.936 . S
Mg8 O17 2.291 . S
Mg8 O22 2.081 . S
Mg8 O24 2.023 . S
Mg8 O28 2.031 . S
Mg9 O7 1.963 . S
Mg9 O13 1.986 . S
Mg9 O25 1.942 . S
Mg9 O26 1.955 . S
C10 O21 1.191 . S
C10 O23 1.307 . S
O11 Mg6 2.013 . S
O11 C30 1.191 . S
O12 Mg3 2.081 . S
O12 C20 1.331 . S
O13 Mg9 1.986 . S
O13 C30 1.307 . S
O14 Mg3 2.023 . S
O14 C29 1.264 . S
O15 Mg4 1.942 . S
O15 C20 1.244 . S
O16 Mg4 1.955 . S
O16 C29 1.273 . S
O17 Mg6 2.114 . S
O17 Mg8 2.291 . S
O17 C19 1.312 . S
O18 Mg3 2.031 . S
O18 C19 1.208 . S
C19 O17 1.312 . S
C19 O18 1.208 . S
C20 O12 1.331 . S
C20 O15 1.244 . S
O21 Mg6 2.013 . S
O21 C10 1.191 . S
O22 C1 1.331 . S
O22 Mg8 2.081 . S
O23 Mg4 1.986 . S
O23 C10 1.307 . S
O24 C2 1.264 . S
O24 Mg8 2.023 . S
O25 C1 1.244 . S
O25 Mg9 1.942 . S
O26 C2 1.273 . S
O26 Mg9 1.955 . S
O27 C0 1.312 . S
O27 Mg3 2.291 . S
O27 Mg6 2.114 . S
O28 C0 1.208 . S
O28 Mg8 2.031 . S
C29 O14 1.264 . S
C29 O16 1.273 . S
C30 O11 1.191 . S
C30 O13 1.307 . S
C31 O58 1.312 . S
C31 O59 1.208 . S
C32 O53 1.331 . S
C32 O56 1.244 . S
C33 O55 1.264 . S
C33 O57 1.273 . S
Mg34 O36 1.936 1_655 S
Mg34 O43 2.081 . S
Mg34 O45 2.023 . S
Mg34 O49 2.031 1_655 S
Mg34 O58 2.291 1_655 S
Mg35 O36 1.963 1_655 S
Mg35 O46 1.942 . S
Mg35 O47 1.955 . S
Mg35 O54 1.986 1_655 S
O36 Mg34 1.936 1_455 S
O36 Mg35 1.963 1_455 S
O36 Mg37 1.915 . S
Mg37 O36 1.915 . S
Mg37 O38 1.915 . S
Mg37 O42 2.013 . S
Mg37 O48 2.114 . S
Mg37 O52 2.013 . S
Mg37 O58 2.114 . S
O38 Mg37 1.915 . S
O38 Mg39 1.936 . S
O38 Mg40 1.963 . S
Mg39 O38 1.936 . S
Mg39 O48 2.291 . S
Mg39 O53 2.081 . S
Mg39 O55 2.023 . S
Mg39 O59 2.031 . S
Mg40 O38 1.963 . S
Mg40 O44 1.986 . S
Mg40 O56 1.942 . S
Mg40 O57 1.955 . S
C41 O52 1.191 . S
C41 O54 1.307 . S
O42 Mg37 2.013 . S
O42 C61 1.191 . S
O43 Mg34 2.081 . S
O43 C51 1.331 . S
O44 Mg40 1.986 . S
O44 C61 1.307 . S
O45 Mg34 2.023 . S
O45 C60 1.264 . S
O46 Mg35 1.942 . S
O46 C51 1.244 . S
O47 Mg35 1.955 . S
O47 C60 1.273 . S
O48 Mg37 2.114 . S
O48 Mg39 2.291 . S
O48 C50 1.312 . S
O49 Mg34 2.031 1_455 S
O49 C50 1.208 . S
C50 O48 1.312 . S
C50 O49 1.208 . S
C51 O43 1.331 . S
C51 O46 1.244 . S
O52 Mg37 2.013 . S
O52 C41 1.191 . S
O53 C32 1.331 . S
O53 Mg39 2.081 . S
O54 Mg35 1.986 1_455 S
O54 C41 1.307 . S
O55 C33 1.264 . S
O55 Mg39 2.023 . S
O56 C32 1.244 . S
O56 Mg40 1.942 . S
O57 C33 1.273 . S
O57 Mg40 1.955 . S
O58 C31 1.312 . S
O58 Mg34 2.291 1_455 S
O58 Mg37 2.114 . S
O59 C31 1.208 . S
O59 Mg39 2.031 . S
C60 O45 1.264 . S
C60 O47 1.273 . S
C61 O42 1.191 . S
C61 O44 1.307 . S
C62 O89 1.312 . S
C62 O90 1.208 . S
C63 O84 1.331 . S
C63 O87 1.244 . S
C64 O86 1.264 . S
C64 O88 1.273 . S
Mg65 O67 1.936 . S
Mg65 O74 2.081 . S
Mg65 O76 2.023 . S
Mg65 O80 2.031 . S
Mg65 O89 2.291 1_455 S
Mg66 O67 1.963 . S
Mg66 O77 1.942 . S
Mg66 O78 1.955 . S
Mg66 O85 1.986 . S
O67 Mg65 1.936 . S
O67 Mg66 1.963 . S
O67 Mg68 1.915 1_455 S
Mg68 O67 1.915 1_655 S
Mg68 O69 1.915 . S
Mg68 O73 2.013 . S
Mg68 O79 2.114 . S
Mg68 O83 2.013 . S
Mg68 O89 2.114 . S
O69 Mg68 1.915 . S
O69 Mg70 1.936 . S
O69 Mg71 1.963 . S
Mg70 O69 1.936 . S
Mg70 O79 2.291 . S
Mg70 O84 2.081 . S
Mg70 O86 2.023 . S
Mg70 O90 2.031 . S
Mg71 O69 1.963 . S
Mg71 O75 1.986 . S
Mg71 O87 1.942 . S
Mg71 O88 1.955 . S
C72 O83 1.191 . S
C72 O85 1.307 1_655 S
O73 Mg68 2.013 . S
O73 C92 1.191 . S
O74 Mg65 2.081 . S
O74 C82 1.331 . S
O75 Mg71 1.986 . S
O75 C92 1.307 . S
O76 Mg65 2.023 . S
O76 C91 1.264 . S
O77 Mg66 1.942 . S
O77 C82 1.244 . S
O78 Mg66 1.955 . S
O78 C91 1.273 . S
O79 Mg68 2.114 . S
O79 Mg70 2.291 . S
O79 C81 1.312 . S
O80 Mg65 2.031 . S
O80 C81 1.208 1_455 S
C81 O79 1.312 . S
C81 O80 1.208 1_655 S
C82 O74 1.331 . S
C82 O77 1.244 . S
O83 Mg68 2.013 . S
O83 C72 1.191 . S
O84 C63 1.331 . S
O84 Mg70 2.081 . S
O85 Mg66 1.986 . S
O85 C72 1.307 1_455 S
O86 C64 1.264 . S
O86 Mg70 2.023 . S
O87 C63 1.244 . S
O87 Mg71 1.942 . S
O88 C64 1.273 . S
O88 Mg71 1.955 . S
O89 C62 1.312 . S
O89 Mg65 2.291 1_655 S
O89 Mg68 2.114 . S
O90 C62 1.208 . S
O90 Mg70 2.031 . S
C91 O76 1.264 . S
C91 O78 1.273 . S
C92 O73 1.191 . S
C92 O75 1.307 . S
C93 O120 1.312 . S
C93 O121 1.208 . S
C94 O115 1.331 . S
C94 O118 1.244 . S
C95 O117 1.264 . S
C95 O119 1.273 . S
Mg96 O98 1.936 . S
Mg96 O105 2.081 . S
Mg96 O107 2.023 . S
Mg96 O111 2.031 . S
Mg96 O120 2.291 . S
Mg97 O98 1.963 . S
Mg97 O108 1.942 . S
Mg97 O109 1.955 . S
Mg97 O116 1.986 . S
O98 Mg96 1.936 . S
O98 Mg97 1.963 . S
O98 Mg99 1.915 . S
Mg99 O98 1.915 . S
Mg99 O100 1.915 . S
Mg99 O104 2.013 . S
Mg99 O110 2.114 . S
Mg99 O114 2.013 . S
Mg99 O120 2.114 . S
O100 Mg99 1.915 . S
O100 Mg101 1.936 . S
O100 Mg102 1.963 . S
Mg101 O100 1.936 . S
Mg101 O110 2.291 . S
Mg101 O115 2.081 . S
Mg101 O117 2.023 . S
Mg101 O121 2.031 . S
Mg102 O100 1.963 . S
Mg102 O106 1.986 . S
Mg102 O118 1.942 . S
Mg102 O119 1.955 . S
C103 O114 1.191 . S
C103 O116 1.307 . S
O104 Mg99 2.013 . S
O104 C123 1.191 . S
O105 Mg96 2.081 . S
O105 C113 1.331 . S
O106 Mg102 1.986 . S
O106 C123 1.307 . S
O107 Mg96 2.023 . S
O107 C122 1.264 . S
O108 Mg97 1.942 . S
O108 C113 1.244 . S
O109 Mg97 1.955 . S
O109 C122 1.273 . S
O110 Mg99 2.114 . S
O110 Mg101 2.291 . S
O110 C112 1.312 . S
O111 Mg96 2.031 . S
O111 C112 1.208 . S
C112 O110 1.312 . S
C112 O111 1.208 . S
C113 O105 1.331 . S
C113 O108 1.244 . S
O114 Mg99 2.013 . S
O114 C103 1.191 . S
O115 C94 1.331 . S
O115 Mg101 2.081 . S
O116 Mg97 1.986 . S
O116 C103 1.307 . S
O117 C95 1.264 . S
O117 Mg101 2.023 . S
O118 C94 1.244 . S
O118 Mg102 1.942 . S
O119 C95 1.273 . S
O119 Mg102 1.955 . S
O120 C93 1.312 . S
O120 Mg96 2.291 . S
O120 Mg99 2.114 . S
O121 C93 1.208 . S
O121 Mg101 2.031 . S
C122 O107 1.264 . S
C122 O109 1.273 . S
C123 O104 1.191 . S
C123 O106 1.307 . S
C124 O151 1.312 . S
C124 O152 1.208 . S
C125 O146 1.331 . S
C125 O149 1.244 . S
C126 O148 1.264 . S
C126 O150 1.273 . S
Mg127 O129 1.936 . S
Mg127 O136 2.081 . S
Mg127 O138 2.023 . S
Mg127 O142 2.031 . S
Mg127 O151 2.291 . S
Mg128 O129 1.963 . S
Mg128 O139 1.942 . S
Mg128 O140 1.955 . S
Mg128 O147 1.986 . S
O129 Mg127 1.936 . S
O129 Mg128 1.963 . S
O129 Mg130 1.915 . S
Mg130 O129 1.915 . S
Mg130 O131 1.915 . S
Mg130 O135 2.013 . S
Mg130 O141 2.114 . S
Mg130 O145 2.013 . S
Mg130 O151 2.114 . S
O131 Mg130 1.915 . S
O131 Mg132 1.936 . S
O131 Mg133 1.963 . S
Mg132 O131 1.936 . S
Mg132 O141 2.291 . S
Mg132 O146 2.081 . S
Mg132 O148 2.023 . S
Mg132 O152 2.031 . S
Mg133 O131 1.963 . S
Mg133 O137 1.986 . S
Mg133 O149 1.942 . S
Mg133 O150 1.955 . S
C134 O145 1.191 . S
C134 O147 1.307 . S
O135 Mg130 2.013 . S
O135 C154 1.191 . S
O136 Mg127 2.081 . S
O136 C144 1.331 . S
O137 Mg133 1.986 . S
O137 C154 1.307 . S
O138 Mg127 2.023 . S
O138 C153 1.264 . S
O139 Mg128 1.942 . S
O139 C144 1.244 . S
O140 Mg128 1.955 . S
O140 C153 1.273 . S
O141 Mg130 2.114 . S
O141 Mg132 2.291 . S
O141 C143 1.312 . S
O142 Mg127 2.031 . S
O142 C143 1.208 . S
C143 O141 1.312 . S
C143 O142 1.208 . S
C144 O136 1.331 . S
C144 O139 1.244 . S
O145 Mg130 2.013 . S
O145 C134 1.191 . S
O146 C125 1.331 . S
O146 Mg132 2.081 . S
O147 Mg128 1.986 . S
O147 C134 1.307 . S
O148 C126 1.264 . S
O148 Mg132 2.023 . S
O149 C125 1.244 . S
O149 Mg133 1.942 . S
O150 C126 1.273 . S
O150 Mg133 1.955 . S
O151 C124 1.312 . S
O151 Mg127 2.291 . S
O151 Mg130 2.114 . S
O152 C124 1.208 . S
O152 Mg132 2.031 . S
C153 O138 1.264 . S
C153 O140 1.273 . S
C154 O135 1.191 . S
C154 O137 1.307 . S
C155 O182 1.312 . S
C155 O183 1.208 . S
C156 O177 1.331 . S
C156 O180 1.244 . S
C157 O179 1.264 . S
C157 O181 1.273 . S
Mg158 O160 1.936 . S
Mg158 O167 2.081 . S
Mg158 O169 2.023 . S
Mg158 O173 2.031 . S
Mg158 O182 2.291 . S
Mg159 O160 1.963 . S
Mg159 O170 1.942 . S
Mg159 O171 1.955 . S
Mg159 O178 1.986 . S
O160 Mg158 1.936 . S
O160 Mg159 1.963 . S
O160 Mg161 1.915 . S
Mg161 O160 1.915 . S
Mg161 O162 1.915 . S
Mg161 O166 2.013 . S
Mg161 O172 2.114 . S
Mg161 O176 2.013 . S
Mg161 O182 2.114 . S
O162 Mg161 1.915 . S
O162 Mg163 1.936 1_655 S
O162 Mg164 1.963 1_655 S
Mg163 O162 1.936 1_455 S
Mg163 O172 2.291 1_455 S
Mg163 O177 2.081 . S
Mg163 O179 2.023 . S
Mg163 O183 2.031 1_455 S
Mg164 O162 1.963 1_455 S
Mg164 O168 1.986 1_455 S
Mg164 O180 1.942 . S
Mg164 O181 1.955 . S
C165 O176 1.191 . S
C165 O178 1.307 . S
O166 Mg161 2.013 . S
O166 C185 1.191 . S
O167 Mg158 2.081 . S
O167 C175 1.331 . S
O168 Mg164 1.986 1_655 S
O168 C185 1.307 . S
O169 Mg158 2.023 . S
O169 C184 1.264 . S
O170 Mg159 1.942 . S
O170 C175 1.244 . S
O171 Mg159 1.955 . S
O171 C184 1.273 . S
O172 Mg161 2.114 . S
O172 Mg163 2.291 1_655 S
O172 C174 1.312 . S
O173 Mg158 2.031 . S
O173 C174 1.208 . S
C174 O172 1.312 . S
C174 O173 1.208 . S
C175 O167 1.331 . S
C175 O170 1.244 . S
O176 Mg161 2.013 . S
O176 C165 1.191 . S
O177 C156 1.331 . S
O177 Mg163 2.081 . S
O178 Mg159 1.986 . S
O178 C165 1.307 . S
O179 C157 1.264 . S
O179 Mg163 2.023 . S
O180 C156 1.244 . S
O180 Mg164 1.942 . S
O181 C157 1.273 . S
O181 Mg164 1.955 . S
O182 C155 1.312 . S
O182 Mg158 2.291 . S
O182 Mg161 2.114 . S
O183 C155 1.208 . S
O183 Mg163 2.031 1_655 S
C184 O169 1.264 . S
C184 O171 1.273 . S
C185 O166 1.191 . S
C185 O168 1.307 . S
C186 O213 1.312 . S
C186 O214 1.208 . S
C187 O208 1.331 . S
C187 O211 1.244 . S
C188 O210 1.264 . S
C188 O212 1.273 . S
Mg189 O191 1.936 . S
Mg189 O198 2.081 . S
Mg189 O200 2.023 . S
Mg189 O204 2.031 . S
Mg189 O213 2.291 . S
Mg190 O191 1.963 . S
Mg190 O201 1.942 . S
Mg190 O202 1.955 . S
Mg190 O209 1.986 . S
O191 Mg189 1.936 . S
O191 Mg190 1.963 . S
O191 Mg192 1.915 . S
Mg192 O191 1.915 . S
Mg192 O193 1.915 . S
Mg192 O197 2.013 . S
Mg192 O203 2.114 . S
Mg192 O207 2.013 . S
Mg192 O213 2.114 . S
O193 Mg192 1.915 . S
O193 Mg194 1.936 1_455 S
O193 Mg195 1.963 1_455 S
Mg194 O193 1.936 1_655 S
Mg194 O203 2.291 1_655 S
Mg194 O208 2.081 . S
Mg194 O210 2.023 . S
Mg194 O214 2.031 1_655 S
Mg195 O193 1.963 1_655 S
Mg195 O199 1.986 1_655 S
Mg195 O211 1.942 . S
Mg195 O212 1.955 . S
C196 O207 1.191 . S
C196 O209 1.307 . S
O197 Mg192 2.013 . S
O197 C216 1.191 . S
O198 Mg189 2.081 . S
O198 C206 1.331 . S
O199 Mg195 1.986 1_455 S
O199 C216 1.307 . S
O200 Mg189 2.023 . S
O200 C215 1.264 . S
O201 Mg190 1.942 . S
O201 C206 1.244 . S
O202 Mg190 1.955 . S
O202 C215 1.273 . S
O203 Mg192 2.114 . S
O203 Mg194 2.291 1_455 S
O203 C205 1.312 . S
O204 Mg189 2.031 . S
O204 C205 1.208 . S
C205 O203 1.312 . S
C205 O204 1.208 . S
C206 O198 1.331 . S
C206 O201 1.244 . S
O207 Mg192 2.013 . S
O207 C196 1.191 . S
O208 C187 1.331 . S
O208 Mg194 2.081 . S
O209 Mg190 1.986 . S
O209 C196 1.307 . S
O210 C188 1.264 . S
O210 Mg194 2.023 . S
O211 C187 1.244 . S
O211 Mg195 1.942 . S
O212 C188 1.273 . S
O212 Mg195 1.955 . S
O213 C186 1.312 . S
O213 Mg189 2.291 . S
O213 Mg192 2.114 . S
O214 C186 1.208 . S
O214 Mg194 2.031 1_455 S
C215 O200 1.264 . S
C215 O202 1.273 . S
C216 O197 1.191 . S
C216 O199 1.307 . S
C217 O244 1.312 . S
C217 O245 1.208 . S
C218 O239 1.331 . S
C218 O242 1.244 . S
C219 O241 1.264 . S
C219 O243 1.273 . S
Mg220 O222 1.936 . S
Mg220 O229 2.081 . S
Mg220 O231 2.023 . S
Mg220 O235 2.031 . S
Mg220 O244 2.291 . S
Mg221 O222 1.963 . S
Mg221 O232 1.942 . S
Mg221 O233 1.955 . S
Mg221 O240 1.986 . S
O222 Mg220 1.936 . S
O222 Mg221 1.963 . S
O222 Mg223 1.915 . S
Mg223 O222 1.915 . S
Mg223 O224 1.915 . S
Mg223 O228 2.013 . S
Mg223 O234 2.114 . S
Mg223 O238 2.013 . S
Mg223 O244 2.114 . S
O224 Mg223 1.915 . S
O224 Mg225 1.936 . S
O224 Mg226 1.963 . S
Mg225 O224 1.936 . S
Mg225 O234 2.291 . S
Mg225 O239 2.081 . S
Mg225 O241 2.023 . S
Mg225 O245 2.031 . S
Mg226 O224 1.963 . S
Mg226 O230 1.986 . S
Mg226 O242 1.942 . S
Mg226 O243 1.955 . S
C227 O238 1.191 . S
C227 O240 1.307 . S
O228 Mg223 2.013 . S
O228 C247 1.191 . S
O229 Mg220 2.081 . S
O229 C237 1.331 . S
O230 Mg226 1.986 . S
O230 C247 1.307 . S
O231 Mg220 2.023 . S
O231 C246 1.264 . S
O232 Mg221 1.942 . S
O232 C237 1.244 . S
O233 Mg221 1.955 . S
O233 C246 1.273 . S
O234 Mg223 2.114 . S
O234 Mg225 2.291 . S
O234 C236 1.312 . S
O235 Mg220 2.031 . S
O235 C236 1.208 . S
C236 O234 1.312 . S
C236 O235 1.208 . S
C237 O229 1.331 . S
C237 O232 1.244 . S
O238 Mg223 2.013 . S
O238 C227 1.191 . S
O239 C218 1.331 . S
O239 Mg225 2.081 . S
O240 Mg221 1.986 . S
O240 C227 1.307 . S
O241 C219 1.264 . S
O241 Mg225 2.023 . S
O242 C218 1.244 . S
O242 Mg226 1.942 . S
O243 C219 1.273 . S
O243 Mg226 1.955 . S
O244 C217 1.312 . S
O244 Mg220 2.291 . S
O244 Mg223 2.114 . S
O245 C217 1.208 . S
O245 Mg225 2.031 . S
C246 O231 1.264 . S
C246 O233 1.273 . S
C247 O228 1.191 . S
C247 O230 1.307 . S
H248 C254 0.930 1_455 S
H249 C257 0.930 . S
H250 C258 0.930 . S
H251 C259 0.930 . S
H252 C262 0.930 . S
H253 C263 0.930 . S
C254 H248 0.930 1_655 S
C254 C255 1.355 1_655 S
C254 C256 1.415 . S
C255 C254 1.355 1_455 S
C255 C257 1.419 . S
C256 C254 1.415 . S
C256 C261 1.425 . S
C256 C263 1.409 . S
C257 H249 0.930 . S
C257 C255 1.419 . S
C257 C258 1.362 1_455 S
C258 H250 0.930 . S
C258 C257 1.362 1_655 S
C258 C261 1.409 . S
C259 H251 0.930 . S
C259 C260 1.355 . S
C259 C261 1.415 . S
C260 C259 1.355 . S
C260 C262 1.419 . S
C261 C256 1.425 . S
C261 C258 1.409 . S
C261 C259 1.415 . S
C262 H252 0.930 . S
C262 C260 1.419 . S
C262 C263 1.362 . S
C263 H253 0.930 . S
C263 C256 1.409 . S
C263 C262 1.362 . S
H264 C270 0.930 . S
H265 C273 0.930 . S
H266 C274 0.930 . S
H267 C275 0.930 . S
H268 C278 0.930 . S
H269 C279 0.930 . S
C270 H264 0.930 . S
C270 C271 1.355 . S
C270 C272 1.415 . S
C271 C270 1.355 . S
C271 C273 1.419 . S
C272 C270 1.415 . S
C272 C277 1.425 . S
C272 C279 1.409 . S
C273 H265 0.930 . S
C273 C271 1.419 . S
C273 C274 1.362 . S
C274 H266 0.930 . S
C274 C273 1.362 . S
C274 C277 1.409 . S
C275 H267 0.930 . S
C275 C276 1.355 . S
C275 C277 1.415 . S
C276 C275 1.355 . S
C276 C278 1.419 . S
C277 C272 1.425 . S
C277 C274 1.409 . S
C277 C275 1.415 . S
C278 H268 0.930 . S
C278 C276 1.419 . S
C278 C279 1.362 . S
C279 H269 0.930 . S
C279 C272 1.409 . S
C279 C278 1.362 . S
H280 C286 0.930 . S
H281 C289 0.930 . S
H282 C290 0.930 . S
H283 C291 0.930 . S
H284 C294 0.930 . S
H285 C295 0.930 . S
C286 H280 0.930 . S
C286 C287 1.355 . S
C286 C288 1.415 . S
C287 C286 1.355 . S
C287 C289 1.419 . S
C288 C286 1.415 . S
C288 C293 1.425 . S
C288 C295 1.409 . S
C289 H281 0.930 . S
C289 C287 1.419 . S
C289 C290 1.362 . S
C290 H282 0.930 . S
C290 C289 1.362 . S
C290 C293 1.409 . S
C291 H283 0.930 . S
C291 C292 1.355 . S
C291 C293 1.415 . S
C292 C291 1.355 . S
C292 C294 1.419 . S
C293 C288 1.425 . S
C293 C290 1.409 . S
C293 C291 1.415 . S
C294 H284 0.930 . S
C294 C292 1.419 . S
C294 C295 1.362 . S
C295 H285 0.930 . S
C295 C288 1.409 . S
C295 C294 1.362 . S
H296 C302 0.930 1_655 S
H297 C305 0.930 . S
H298 C306 0.930 . S
H299 C307 0.930 . S
H300 C310 0.930 . S
H301 C311 0.930 . S
C302 H296 0.930 1_455 S
C302 C303 1.355 1_455 S
C302 C304 1.415 . S
C303 C302 1.355 1_655 S
C303 C305 1.419 . S
C304 C302 1.415 . S
C304 C309 1.425 . S
C304 C311 1.409 . S
C305 H297 0.930 . S
C305 C303 1.419 . S
C305 C306 1.362 1_655 S
C306 H298 0.930 . S
C306 C305 1.362 1_455 S
C306 C309 1.409 . S
C307 H299 0.930 . S
C307 C308 1.355 . S
C307 C309 1.415 . S
C308 C307 1.355 . S
C308 C310 1.419 . S
C309 C304 1.425 . S
C309 C306 1.409 . S
C309 C307 1.415 . S
C310 H300 0.930 . S
C310 C308 1.419 . S
C310 C311 1.362 . S
C311 H301 0.930 . S
C311 C304 1.409 . S
C311 C310 1.362 . S
H312 C318 0.930 . S
H313 C321 0.930 . S
H314 C322 0.930 . S
H315 C323 0.930 1_655 S
H316 C326 0.930 . S
H317 C327 0.930 . S
C318 H312 0.930 . S
C318 C319 1.355 . S
C318 C320 1.415 . S
C319 C318 1.355 . S
C319 C321 1.419 . S
C320 C318 1.415 . S
C320 C325 1.425 . S
C320 C327 1.409 . S
C321 H313 0.930 . S
C321 C319 1.419 . S
C321 C322 1.362 . S
C322 H314 0.930 . S
C322 C321 1.362 . S
C322 C325 1.409 . S
C323 H315 0.930 1_455 S
C323 C324 1.355 1_455 S
C323 C325 1.415 . S
C324 C323 1.355 1_655 S
C324 C326 1.419 . S
C325 C320 1.425 . S
C325 C322 1.409 . S
C325 C323 1.415 . S
C326 H316 0.930 . S
C326 C324 1.419 . S
C326 C327 1.362 1_655 S
C327 H317 0.930 . S
C327 C320 1.409 . S
C327 C326 1.362 1_455 S
H328 C334 0.930 . S
H329 C337 0.930 . S
H330 C338 0.930 . S
H331 C339 0.930 . S
H332 C342 0.930 . S
H333 C343 0.930 . S
C334 H328 0.930 . S
C334 C335 1.355 . S
C334 C336 1.415 . S
C335 C334 1.355 . S
C335 C337 1.419 . S
C336 C334 1.415 . S
C336 C341 1.425 . S
C336 C343 1.409 . S
C337 H329 0.930 . S
C337 C335 1.419 . S
C337 C338 1.362 . S
C338 H330 0.930 . S
C338 C337 1.362 . S
C338 C341 1.409 . S
C339 H331 0.930 . S
C339 C340 1.355 . S
C339 C341 1.415 . S
C340 C339 1.355 . S
C340 C342 1.419 . S
C341 C336 1.425 . S
C341 C338 1.409 . S
C341 C339 1.415 . S
C342 H332 0.930 . S
C342 C340 1.419 . S
C342 C343 1.362 . S
C343 H333 0.930 . S
C343 C336 1.409 . S
C343 C342 1.362 . S
H344 C350 0.930 . S
H345 C353 0.930 . S
H346 C354 0.930 . S
H347 C355 0.930 . S
H348 C358 0.930 . S
H349 C359 0.930 . S
C350 H344 0.930 . S
C350 C351 1.355 . S
C350 C352 1.415 . S
C351 C350 1.355 . S
C351 C353 1.419 . S
C352 C350 1.415 . S
C352 C357 1.425 . S
C352 C359 1.409 . S
C353 H345 0.930 . S
C353 C351 1.419 . S
C353 C354 1.362 . S
C354 H346 0.930 . S
C354 C353 1.362 . S
C354 C357 1.409 . S
C355 H347 0.930 . S
C355 C356 1.355 . S
C355 C357 1.415 . S
C356 C355 1.355 . S
C356 C358 1.419 . S
C357 C352 1.425 . S
C357 C354 1.409 . S
C357 C355 1.415 . S
C358 H348 0.930 . S
C358 C356 1.419 . S
C358 C359 1.362 . S
C359 H349 0.930 . S
C359 C352 1.409 . S
C359 C358 1.362 . S
H360 C366 0.932 . S
H361 C369 0.930 . S
H362 C370 0.930 . S
H363 C371 0.930 . S
H364 C374 0.930 . S
H365 C375 0.930 . S
C366 H360 0.932 . S
C366 C367 1.358 . S
C366 C368 1.408 1_455 S
C367 C366 1.358 . S
C367 C369 1.419 . S
C368 C366 1.408 1_655 S
C368 C373 1.425 . S
C368 C375 1.409 . S
C369 H361 0.930 . S
C369 C367 1.419 . S
C369 C370 1.362 1_455 S
C370 H362 0.930 . S
C370 C369 1.362 1_655 S
C370 C373 1.409 . S
C371 H363 0.930 . S
C371 C372 1.355 . S
C371 C373 1.415 . S
C372 C371 1.355 . S
C372 C374 1.419 . S
C373 C368 1.425 . S
C373 C370 1.409 . S
C373 C371 1.415 . S
C374 H364 0.930 . S
C374 C372 1.419 . S
C374 C375 1.362 . S
C375 H365 0.930 . S
C375 C368 1.409 . S
C375 C374 1.362 . S
H376 C382 0.930 . S
H377 C385 0.930 . S
H378 C386 0.930 . S
H379 C387 0.930 . S
H380 C390 0.930 . S
H381 C391 0.930 . S
C382 H376 0.930 . S
C382 C383 1.355 . S
C382 C384 1.415 . S
C383 C382 1.355 . S
C383 C385 1.419 . S
C384 C382 1.415 . S
C384 C389 1.425 . S
C384 C391 1.409 . S
C385 H377 0.930 . S
C385 C383 1.419 . S
C385 C386 1.362 . S
C386 H378 0.930 . S
C386 C385 1.362 . S
C386 C389 1.409 . S
C387 H379 0.930 . S
C387 C388 1.355 . S
C387 C389 1.415 . S
C388 C387 1.355 . S
C388 C390 1.419 . S
C389 C384 1.425 . S
C389 C386 1.409 . S
C389 C387 1.415 . S
C390 H380 0.930 . S
C390 C388 1.419 . S
C390 C391 1.362 . S
C391 H381 0.930 . S
C391 C384 1.409 . S
C391 C390 1.362 . S
H392 C398 0.930 . S
H393 C401 0.930 . S
H394 C402 0.930 . S
H395 C403 0.930 . S
H396 C406 0.930 . S
H397 C407 0.930 . S
C398 H392 0.930 . S
C398 C399 1.355 1_655 S
C398 C400 1.415 . S
C399 C398 1.355 1_455 S
C399 C401 1.419 . S
C400 C398 1.415 . S
C400 C405 1.425 1_655 S
C400 C407 1.409 . S
C401 H393 0.930 . S
C401 C399 1.419 . S
C401 C402 1.362 . S
C402 H394 0.930 . S
C402 C401 1.362 . S
C402 C405 1.409 . S
C403 H395 0.930 . S
C403 C404 1.355 1_455 S
C403 C405 1.415 . S
C404 C403 1.355 1_655 S
C404 C406 1.419 . S
C405 C400 1.425 1_455 S
C405 C402 1.409 . S
C405 C403 1.415 . S
C406 H396 0.930 . S
C406 C404 1.419 . S
C406 C407 1.362 . S
C407 H397 0.930 . S
C407 C400 1.409 . S
C407 C406 1.362 . S
H408 C414 0.930 . S
H409 C417 0.930 . S
H410 C418 0.930 . S
H411 C419 0.930 . S
H412 C422 0.930 . S
H413 C423 0.930 . S
C414 H408 0.930 . S
C414 C415 1.355 . S
C414 C416 1.415 . S
C415 C414 1.355 . S
C415 C417 1.419 . S
C416 C414 1.415 . S
C416 C421 1.425 . S
C416 C423 1.409 . S
C417 H409 0.930 . S
C417 C415 1.419 . S
C417 C418 1.362 . S
C418 H410 0.930 . S
C418 C417 1.362 . S
C418 C421 1.409 . S
C419 H411 0.930 . S
C419 C420 1.355 . S
C419 C421 1.415 . S
C420 C419 1.355 . S
C420 C422 1.419 . S
C421 C416 1.425 . S
C421 C418 1.409 . S
C421 C419 1.415 . S
C422 H412 0.930 . S
C422 C420 1.419 . S
C422 C423 1.362 . S
C423 H413 0.930 . S
C423 C416 1.409 . S
C423 C422 1.362 . S
H424 C430 0.930 . S
H425 C433 0.930 . S
H426 C434 0.930 . S
H427 C435 0.930 . S
H428 C438 0.930 . S
H429 C439 0.930 . S
C430 H424 0.930 . S
C430 C431 1.355 1_455 S
C430 C432 1.415 . S
C431 C430 1.355 1_655 S
C431 C433 1.419 . S
C432 C430 1.415 . S
C432 C437 1.425 1_455 S
C432 C439 1.409 . S
C433 H425 0.930 . S
C433 C431 1.419 . S
C433 C434 1.362 . S
C434 H426 0.930 . S
C434 C433 1.362 . S
C434 C437 1.409 . S
C435 H427 0.930 . S
C435 C436 1.355 1_655 S
C435 C437 1.415 . S
C436 C435 1.355 1_455 S
C436 C438 1.419 . S
C437 C432 1.425 1_655 S
C437 C434 1.409 . S
C437 C435 1.415 . S
C438 H428 0.930 . S
C438 C436 1.419 . S
C438 C439 1.362 . S
C439 H429 0.930 . S
C439 C432 1.409 . S
C439 C438 1.362 . S
H440 C446 0.930 . S
H441 C449 0.930 . S
H442 C450 0.930 . S
H443 C451 0.930 . S
H444 C454 0.930 . S
H445 C455 0.930 . S
C446 H440 0.930 . S
C446 C447 1.355 . S
C446 C448 1.415 . S
C447 C446 1.355 . S
C447 C449 1.419 . S
C448 C446 1.415 . S
C448 C453 1.425 . S
C448 C455 1.409 . S
C449 H441 0.930 . S
C449 C447 1.419 . S
C449 C450 1.362 . S
C450 H442 0.930 . S
C450 C449 1.362 . S
C450 C453 1.409 . S
C451 H443 0.930 . S
C451 C452 1.355 . S
C451 C453 1.415 . S
C452 C451 1.355 . S
C452 C454 1.419 . S
C453 C448 1.425 . S
C453 C450 1.409 . S
C453 C451 1.415 . S
C454 H444 0.930 . S
C454 C452 1.419 . S
C454 C455 1.362 . S
C455 H445 0.930 . S
C455 C448 1.409 . S
C455 C454 1.362 . S
H456 C462 0.934 . S
H457 C465 0.930 . S
H458 C466 0.930 . S
H459 C467 0.930 . S
H460 C470 0.930 . S
H461 C471 0.930 . S
C462 H456 0.934 . S
C462 C463 1.355 . S
C462 C464 1.415 1_554 S
C463 C462 1.355 . S
C463 C465 1.419 . S
C464 C462 1.415 1_556 S
C464 C469 1.425 . S
C464 C471 1.409 . S
C465 H457 0.930 . S
C465 C463 1.419 . S
C465 C466 1.362 . S
C466 H458 0.930 . S
C466 C465 1.362 . S
C466 C469 1.409 1_554 S
C467 H459 0.930 . S
C467 C468 1.355 . S
C467 C469 1.415 . S
C468 C467 1.355 . S
C468 C470 1.419 . S
C469 C464 1.425 . S
C469 C466 1.409 1_556 S
C469 C467 1.415 . S
C470 H460 0.930 . S
C470 C468 1.419 . S
C470 C471 1.362 . S
C471 H461 0.930 . S
C471 C464 1.409 . S
C471 C470 1.362 . S
H472 C478 0.930 . S
H473 C481 0.930 . S
H474 C482 0.930 . S
H475 C483 0.930 . S
H476 C486 0.930 . S
H477 C487 0.930 . S
C478 H472 0.930 . S
C478 C479 1.355 . S
C478 C480 1.415 . S
C479 C478 1.355 . S
C479 C481 1.419 . S
C480 C478 1.415 . S
C480 C485 1.425 . S
C480 C487 1.409 . S
C481 H473 0.930 . S
C481 C479 1.419 . S
C481 C482 1.362 . S
C482 H474 0.930 . S
C482 C481 1.362 . S
C482 C485 1.409 . S
C483 H475 0.930 . S
C483 C484 1.355 . S
C483 C485 1.415 . S
C484 C483 1.355 . S
C484 C486 1.419 . S
C485 C480 1.425 . S
C485 C482 1.409 . S
C485 C483 1.415 . S
C486 H476 0.930 . S
C486 C484 1.419 . S
C486 C487 1.362 . S
C487 H477 0.930 . S
C487 C480 1.409 . S
C487 C486 1.362 . S
H488 C494 0.930 . S
H489 C497 0.930 . S
H490 C498 0.952 . S
H491 C499 0.930 . S
H492 C502 0.930 . S
H493 C503 0.930 . S
C494 H488 0.930 . S
C494 C495 1.355 . S
C494 C496 1.415 . S
C495 C494 1.355 . S
C495 C497 1.419 . S
C496 C494 1.415 . S
C496 C501 1.425 1_554 S
C496 C503 1.409 . S
C497 H489 0.930 . S
C497 C495 1.419 . S
C497 C498 1.339 1_554 S
C498 H490 0.952 . S
C498 C497 1.339 1_556 S
C498 C501 1.412 . S
C499 H491 0.930 . S
C499 C500 1.355 . S
C499 C501 1.415 . S
C500 C499 1.355 . S
C500 C502 1.419 . S
C501 C496 1.425 1_556 S
C501 C498 1.412 . S
C501 C499 1.415 . S
C502 H492 0.930 . S
C502 C500 1.419 . S
C502 C503 1.362 1_556 S
C503 H493 0.930 . S
C503 C496 1.409 . S
C503 C502 1.362 1_554 S
H504 C510 0.930 . S
H505 C513 0.930 . S
H506 C514 0.930 . S
H507 C515 0.930 . S
H508 C518 0.930 . S
H509 C519 0.930 . S
C510 H504 0.930 . S
C510 C511 1.355 . S
C510 C512 1.415 . S
C511 C510 1.355 . S
C511 C513 1.419 . S
C512 C510 1.415 . S
C512 C517 1.425 . S
C512 C519 1.409 . S
C513 H505 0.930 . S
C513 C511 1.419 . S
C513 C514 1.362 . S
C514 H506 0.930 . S
C514 C513 1.362 . S
C514 C517 1.409 . S
C515 H507 0.930 . S
C515 C516 1.355 . S
C515 C517 1.415 . S
C516 C515 1.355 . S
C516 C518 1.419 . S
C517 C512 1.425 . S
C517 C514 1.409 . S
C517 C515 1.415 . S
C518 H508 0.930 . S
C518 C516 1.419 . S
C518 C519 1.362 . S
C519 H509 0.930 . S
C519 C512 1.409 . S
C519 C518 1.362 . S
H520 C526 0.930 . S
H521 C529 0.930 . S
H522 C530 0.930 1_556 S
H523 C531 0.930 . S
H524 C534 0.930 . S
H525 C535 0.930 . S
C526 H520 0.930 . S
C526 C527 1.355 . S
C526 C528 1.415 . S
C527 C526 1.355 . S
C527 C529 1.419 . S
C528 C526 1.415 . S
C528 C533 1.408 1_554 S
C528 C535 1.409 . S
C529 H521 0.930 . S
C529 C527 1.419 . S
C529 C530 1.362 . S
C530 H522 0.930 1_554 S
C530 C529 1.362 . S
C530 C533 1.403 1_554 S
C531 H523 0.930 . S
C531 C532 1.355 . S
C531 C533 1.439 . S
C532 C531 1.355 . S
C532 C534 1.419 . S
C533 C528 1.408 1_556 S
C533 C530 1.403 1_556 S
C533 C531 1.439 . S
C534 H524 0.930 . S
C534 C532 1.419 . S
C534 C535 1.362 1_556 S
C535 H525 0.930 . S
C535 C528 1.409 . S
C535 C534 1.362 1_554 S
H536 C542 0.930 . S
H537 C545 0.930 . S
H538 C546 0.930 . S
H539 C547 0.930 . S
H540 C550 0.930 . S
H541 C551 0.930 . S
C542 H536 0.930 . S
C542 C543 1.355 . S
C542 C544 1.415 . S
C543 C542 1.355 . S
C543 C545 1.419 . S
C544 C542 1.415 . S
C544 C549 1.425 . S
C544 C551 1.409 . S
C545 H537 0.930 . S
C545 C543 1.419 . S
C545 C546 1.362 . S
C546 H538 0.930 . S
C546 C545 1.362 . S
C546 C549 1.409 . S
C547 H539 0.930 . S
C547 C548 1.355 . S
C547 C549 1.415 . S
C548 C547 1.355 . S
C548 C550 1.419 . S
C549 C544 1.425 . S
C549 C546 1.409 . S
C549 C547 1.415 . S
C550 H540 0.930 . S
C550 C548 1.419 . S
C550 C551 1.362 . S
C551 H541 0.930 . S
C551 C544 1.409 . S
C551 C550 1.362 . S
H552 C558 0.930 . S
H553 C561 0.930 . S
H554 C562 0.930 1_554 S
H555 C563 0.930 . S
H556 C566 0.930 . S
H557 C567 0.930 . S
C558 H552 0.930 . S
C558 C559 1.355 . S
C558 C560 1.415 . S
C559 C558 1.355 . S
C559 C561 1.419 . S
C560 C558 1.415 . S
C560 C565 1.425 1_556 S
C560 C567 1.409 . S
C561 H553 0.930 . S
C561 C559 1.419 . S
C561 C562 1.362 . S
C562 H554 0.930 1_556 S
C562 C561 1.362 . S
C562 C565 1.409 1_556 S
C563 H555 0.930 . S
C563 C564 1.355 . S
C563 C565 1.415 . S
C564 C563 1.355 . S
C564 C566 1.419 . S
C565 C560 1.425 1_554 S
C565 C562 1.409 1_554 S
C565 C563 1.415 . S
C566 H556 0.930 . S
C566 C564 1.419 . S
C566 C567 1.362 1_554 S
C567 H557 0.930 . S
C567 C560 1.409 . S
C567 C566 1.362 1_556 S
H568 C574 0.930 . S
H569 C577 0.930 . S
H570 C578 0.930 . S
H571 C579 0.930 . S
H572 C582 0.930 . S
H573 C583 0.930 . S
C574 H568 0.930 . S
C574 C575 1.355 . S
C574 C576 1.415 . S
C575 C574 1.355 . S
C575 C577 1.419 . S
C576 C574 1.415 . S
C576 C581 1.425 . S
C576 C583 1.409 . S
C577 H569 0.930 . S
C577 C575 1.419 . S
C577 C578 1.362 . S
C578 H570 0.930 . S
C578 C577 1.362 . S
C578 C581 1.409 . S
C579 H571 0.930 . S
C579 C580 1.355 . S
C579 C581 1.415 . S
C580 C579 1.355 . S
C580 C582 1.419 . S
C581 C576 1.425 . S
C581 C578 1.409 . S
C581 C579 1.415 . S
C582 H572 0.930 . S
C582 C580 1.419 . S
C582 C583 1.362 . S
C583 H573 0.930 . S
C583 C576 1.409 . S
C583 C582 1.362 . S
H584 C590 0.930 . S
H585 C593 0.930 . S
H586 C594 0.930 . S
H587 C595 0.930 . S
H588 C598 0.930 . S
H589 C599 0.930 . S
C590 H584 0.930 . S
C590 C591 1.355 . S
C590 C592 1.415 . S
C591 C590 1.355 . S
C591 C593 1.419 . S
C592 C590 1.415 . S
C592 C597 1.425 . S
C592 C599 1.409 . S
C593 H585 0.930 . S
C593 C591 1.419 . S
C593 C594 1.362 . S
C594 H586 0.930 . S
C594 C593 1.362 . S
C594 C597 1.409 . S
C595 H587 0.930 . S
C595 C596 1.355 . S
C595 C597 1.415 . S
C596 C595 1.355 . S
C596 C598 1.419 . S
C597 C592 1.425 . S
C597 C594 1.409 . S
C597 C595 1.415 . S
C598 H588 0.930 . S
C598 C596 1.419 . S
C598 C599 1.362 . S
C599 H589 0.930 . S
C599 C592 1.409 . S
C599 C598 1.362 . S
H600 C606 0.930 . S
H601 C609 0.930 . S
H602 C610 0.930 . S
H603 C611 0.930 . S
H604 C614 0.930 . S
H605 C615 0.930 . S
C606 H600 0.930 . S
C606 C607 1.355 . S
C606 C608 1.415 . S
C607 C606 1.355 . S
C607 C609 1.419 . S
C608 C606 1.415 . S
C608 C613 1.425 . S
C608 C615 1.409 . S
C609 H601 0.930 . S
C609 C607 1.419 . S
C609 C610 1.362 . S
C610 H602 0.930 . S
C610 C609 1.362 . S
C610 C613 1.409 . S
C611 H603 0.930 . S
C611 C612 1.355 . S
C611 C613 1.415 . S
C612 C611 1.355 . S
C612 C614 1.419 . S
C613 C608 1.425 . S
C613 C610 1.409 . S
C613 C611 1.415 . S
C614 H604 0.930 . S
C614 C612 1.419 . S
C614 C615 1.362 . S
C615 H605 0.930 . S
C615 C608 1.409 . S
C615 C614 1.362 . S
H616 C622 0.930 . S
H617 C625 0.930 . S
H618 C626 0.930 . S
H619 C627 0.930 . S
H620 C630 0.930 . S
H621 C631 0.930 . S
C622 H616 0.930 . S
C622 C623 1.355 . S
C622 C624 1.415 . S
C623 C622 1.355 . S
C623 C625 1.419 . S
C624 C622 1.415 . S
C624 C629 1.425 . S
C624 C631 1.409 . S
C625 H617 0.930 . S
C625 C623 1.419 . S
C625 C626 1.362 . S
C626 H618 0.930 . S
C626 C625 1.362 . S
C626 C629 1.409 . S
C627 H619 0.930 . S
C627 C628 1.355 . S
C627 C629 1.415 . S
C628 C627 1.355 . S
C628 C630 1.419 . S
C629 C624 1.425 . S
C629 C626 1.409 . S
C629 C627 1.415 . S
C630 H620 0.930 . S
C630 C628 1.419 . S
C630 C631 1.362 . S
C631 H621 0.930 . S
C631 C624 1.409 . S
C631 C630 1.362 . S
H632 C638 0.930 . S
H633 C641 0.930 . S
H634 C642 0.930 . S
H635 C643 0.930 . S
H636 C646 0.930 . S
H637 C647 0.930 . S
C638 H632 0.930 . S
C638 C639 1.355 . S
C638 C640 1.415 . S
C639 C638 1.355 . S
C639 C641 1.419 . S
C640 C638 1.415 . S
C640 C645 1.425 . S
C640 C647 1.409 . S
C641 H633 0.930 . S
C641 C639 1.419 . S
C641 C642 1.362 . S
C642 H634 0.930 . S
C642 C641 1.362 . S
C642 C645 1.409 . S
C643 H635 0.930 . S
C643 C644 1.355 . S
C643 C645 1.415 . S
C644 C643 1.355 . S
C644 C646 1.419 . S
C645 C640 1.425 . S
C645 C642 1.409 . S
C645 C643 1.415 . S
C646 H636 0.930 . S
C646 C644 1.419 . S
C646 C647 1.362 . S
C647 H637 0.930 . S
C647 C640 1.409 . S
C647 C646 1.362 . S
H648 C654 0.930 . S
H649 C657 0.930 . S
H650 C658 0.930 . S
H651 C659 0.930 . S
H652 C662 0.930 . S
H653 C663 0.930 . S
C654 H648 0.930 . S
C654 C655 1.355 . S
C654 C656 1.415 . S
C655 C654 1.355 . S
C655 C657 1.419 . S
C656 C654 1.415 . S
C656 C661 1.425 . S
C656 C663 1.409 . S
C657 H649 0.930 . S
C657 C655 1.419 . S
C657 C658 1.362 . S
C658 H650 0.930 . S
C658 C657 1.362 . S
C658 C661 1.409 . S
C659 H651 0.930 . S
C659 C660 1.355 . S
C659 C661 1.415 . S
C660 C659 1.355 . S
C660 C662 1.419 . S
C661 C656 1.425 . S
C661 C658 1.409 . S
C661 C659 1.415 . S
C662 H652 0.930 . S
C662 C660 1.419 . S
C662 C663 1.362 . S
C663 H653 0.930 . S
C663 C656 1.409 . S
C663 C662 1.362 . S
H664 C670 0.930 . S
H665 C673 0.930 . S
H666 C674 0.930 . S
H667 C675 0.930 . S
H668 C678 0.930 . S
H669 C679 0.930 . S
C670 H664 0.930 . S
C670 C671 1.355 . S
C670 C672 1.415 . S
C671 C670 1.355 . S
C671 C673 1.419 . S
C672 C670 1.415 . S
C672 C677 1.425 . S
C672 C679 1.409 . S
C673 H665 0.930 . S
C673 C671 1.419 . S
C673 C674 1.362 . S
C674 H666 0.930 . S
C674 C673 1.362 . S
C674 C677 1.409 . S
C675 H667 0.930 . S
C675 C676 1.355 . S
C675 C677 1.415 . S
C676 C675 1.355 . S
C676 C678 1.419 . S
C677 C672 1.425 . S
C677 C674 1.409 . S
C677 C675 1.415 . S
C678 H668 0.930 . S
C678 C676 1.419 . S
C678 C679 1.362 . S
C679 H669 0.930 . S
C679 C672 1.409 . S
C679 C678 1.362 . S
H680 C686 0.930 . S
H681 C689 0.930 . S
H682 C690 0.930 . S
H683 C691 0.930 . S
H684 C694 0.930 . S
H685 C695 0.930 . S
C686 H680 0.930 . S
C686 C687 1.355 . S
C686 C688 1.415 . S
C687 C686 1.355 . S
C687 C689 1.419 . S
C688 C686 1.415 . S
C688 C693 1.425 . S
C688 C695 1.409 . S
C689 H681 0.930 . S
C689 C687 1.419 . S
C689 C690 1.362 . S
C690 H682 0.930 . S
C690 C689 1.362 . S
C690 C693 1.409 . S
C691 H683 0.930 . S
C691 C692 1.355 . S
C691 C693 1.415 . S
C692 C691 1.355 . S
C692 C694 1.419 . S
C693 C688 1.425 . S
C693 C690 1.409 . S
C693 C691 1.415 . S
C694 H684 0.930 . S
C694 C692 1.419 . S
C694 C695 1.362 . S
C695 H685 0.930 . S
C695 C688 1.409 . S
C695 C694 1.362 . S
H696 C702 0.930 . S
H697 C705 0.930 . S
H698 C706 0.930 . S
H699 C707 0.930 . S
H700 C710 0.930 . S
H701 C711 0.930 . S
C702 H696 0.930 . S
C702 C703 1.355 . S
C702 C704 1.415 . S
C703 C702 1.355 . S
C703 C705 1.419 . S
C704 C702 1.415 . S
C704 C709 1.425 . S
C704 C711 1.409 . S
C705 H697 0.930 . S
C705 C703 1.419 . S
C705 C706 1.362 . S
C706 H698 0.930 . S
C706 C705 1.362 . S
C706 C709 1.409 . S
C707 H699 0.930 . S
C707 C708 1.355 . S
C707 C709 1.415 . S
C708 C707 1.355 . S
C708 C710 1.419 . S
C709 C704 1.425 . S
C709 C706 1.409 . S
C709 C707 1.415 . S
C710 H700 0.930 . S
C710 C708 1.419 . S
C710 C711 1.362 . S
C711 H701 0.930 . S
C711 C704 1.409 . S
C711 C710 1.362 . S
H712 C718 0.930 . S
H713 C721 0.930 . S
H714 C722 0.932 1_545 S
H715 C723 0.930 . S
H716 C726 0.930 . S
H717 C727 0.948 1_565 S
C718 H712 0.930 . S
C718 C719 1.355 1_455 S
C718 C720 1.415 . S
C719 C718 1.355 1_655 S
C719 C721 1.419 . S
C720 C718 1.415 . S
C720 C725 1.425 1_464 S
C720 C727 1.409 1_564 S
C721 H713 0.930 . S
C721 C719 1.419 . S
C721 C722 1.362 . S
C722 H714 0.932 1_565 S
C722 C721 1.362 . S
C722 C725 1.409 1_564 S
C723 H715 0.930 . S
C723 C724 1.355 1_655 S
C723 C725 1.415 . S
C724 C723 1.355 1_455 S
C724 C726 1.419 . S
C725 C720 1.425 1_646 S
C725 C722 1.409 1_546 S
C725 C723 1.415 . S
C726 H716 0.930 . S
C726 C724 1.419 . S
C726 C727 1.362 . S
C727 H717 0.948 1_545 S
C727 C720 1.409 1_546 S
C727 C726 1.362 . S
H728 C734 0.930 . S
H729 C737 0.930 . S
H730 C738 0.930 . S
H731 C739 0.930 . S
H732 C742 0.930 . S
H733 C743 0.930 . S
C734 H728 0.930 . S
C734 C735 1.355 1_455 S
C734 C736 1.415 1_545 S
C735 C734 1.355 1_655 S
C735 C737 1.419 . S
C736 C734 1.415 1_565 S
C736 C741 1.427 1_455 S
C736 C743 1.409 . S
C737 H729 0.930 . S
C737 C735 1.419 . S
C737 C738 1.362 . S
C738 H730 0.930 . S
C738 C737 1.362 . S
C738 C741 1.404 1_545 S
C739 H731 0.930 . S
C739 C740 1.355 1_655 S
C739 C741 1.419 . S
C740 C739 1.355 1_455 S
C740 C742 1.419 . S
C741 C736 1.427 1_655 S
C741 C738 1.404 1_565 S
C741 C739 1.419 . S
C742 H732 0.930 . S
C742 C740 1.419 . S
C742 C743 1.362 . S
C743 H733 0.930 . S
C743 C736 1.409 . S
C743 C742 1.362 . S
H744 C750 0.930 . S
H745 C753 0.930 . S
H746 C754 0.930 1_556 S
H747 C755 0.930 . S
H748 C758 0.930 . S
H749 C759 0.930 1_554 S
C750 H744 0.930 . S
C750 C751 1.355 . S
C750 C752 1.415 . S
C751 C750 1.355 . S
C751 C753 1.419 . S
C752 C750 1.415 . S
C752 C757 1.425 1_554 S
C752 C759 1.409 1_554 S
C753 H745 0.930 . S
C753 C751 1.419 . S
C753 C754 1.362 . S
C754 H746 0.930 1_554 S
C754 C753 1.362 . S
C754 C757 1.409 1_554 S
C755 H747 0.930 . S
C755 C756 1.355 . S
C755 C757 1.415 . S
C756 C755 1.355 . S
C756 C758 1.419 . S
C757 C752 1.425 1_556 S
C757 C754 1.409 1_556 S
C757 C755 1.415 . S
C758 H748 0.930 . S
C758 C756 1.419 . S
C758 C759 1.362 . S
C759 H749 0.930 1_556 S
C759 C752 1.409 1_556 S
C759 C758 1.362 . S
C255 C20 1.124 . S
C260 C1 1.110 . S
C271 C33 1.608 . S
C276 C60 1.622 . S
C287 C82 1.070 . S
C292 C63 1.078 . S
C303 C122 1.591 . S
C308 C95 1.604 . S
C319 C126 1.634 . S
C324 C153 1.622 . S
C335 C184 1.601 . S
C340 C157 1.602 . S
C351 C188 1.648 . S
C356 C215 1.644 . S
C367 C219 1.612 . S
C372 C246 1.612 . S
C383 C103 1.453 . S
C388 C0 1.452 . S
C399 C61 1.372 . S
C404 C81 1.433 . S
C415 C134 1.370 . S
C420 C247 1.336 . S
C431 C165 1.267 . S
C436 C196 1.302 . S
C447 C92 1.155 . S
C452 C2 1.061 . S
C463 C93 1.179 . S
C468 C51 1.125 . S
C479 C91 1.079 . S
C484 C10 1.151 . S
C495 C94 1.033 . S
C500 C50 1.160 . S
C511 C186 1.128 . S
C516 C125 0.949 . S
C527 C156 0.968 . S
C532 C236 1.144 . S
C543 C187 0.963 . S
C548 C124 1.132 . S
C559 C237 1.107 . S
C564 C155 1.150 . S
C575 C206 1.855 1_545 S
C580 C19 1.895 . S
C591 C41 1.726 . S
C596 C218 1.769 . S
C607 C144 1.855 . S
C612 C62 1.895 . S
C623 C175 1.778 1_545 S
C628 C123 1.707 . S
C639 C154 1.918 . S
C644 C64 1.981 1_565 S
C655 C113 1.790 . S
C660 C185 1.697 . S
C671 C29 1.969 . S
C676 C216 1.962 . S
C687 C227 1.721 . S
C692 C32 1.775 1_565 S
C703 C143 1.174 . S
C708 C30 1.217 . S
C719 C174 1.222 . S
C724 C31 1.222 . S
C735 C72 1.154 . S
C740 C205 1.137 . S
C751 C112 1.215 . S
C756 C217 1.216 . S
