# Generated by pormake.
# Topology yfk, (5)-cn, num edge types: 1
# Building blocks:
#     Node 0, Type 0, BuildingBlock: XOMCOT_clean_sbu_1, # of connection points: 5
#     Node 1, Type 0, BuildingBlock: XOMCOT_clean_sbu_1, # of connection points: 5
#     Node 2, Type 0, BuildingBlock: XOMCOT_clean_sbu_1, # of connection points: 5
#     Node 3, Type 0, BuildingBlock: XOMCOT_clean_sbu_1, # of connection points: 5
#     Node 4, Type 0, BuildingBlock: XOMCOT_clean_sbu_1, # of connection points: 5
#     Node 5, Type 0, BuildingBlock: XOMCOT_clean_sbu_1, # of connection points: 5
#     Node 6, Type 0, BuildingBlock: XOMCOT_clean_sbu_1, # of connection points: 5
#     Node 7, Type 0, BuildingBlock: XOMCOT_clean_sbu_1, # of connection points: 5
#     Node 8, Type 0, BuildingBlock: XOMCOT_clean_sbu_1, # of connection points: 5
#     Node 9, Type 0, BuildingBlock: XOMCOT_clean_sbu_1, # of connection points: 5
#     Node 10, Type 0, BuildingBlock: XOMCOT_clean_sbu_1, # of connection points: 5
#     Node 11, Type 0, BuildingBlock: XOMCOT_clean_sbu_1, # of connection points: 5
#     Node 12, Type 0, BuildingBlock: XOMCOT_clean_sbu_1, # of connection points: 5
#     Node 13, Type 0, BuildingBlock: XOMCOT_clean_sbu_1, # of connection points: 5
#     Node 14, Type 0, BuildingBlock: XOMCOT_clean_sbu_1, # of connection points: 5
#     Node 15, Type 0, BuildingBlock: XOMCOT_clean_sbu_1, # of connection points: 5
#     Edge 16, Type (0, 0), None
#     Edge 17, Type (0, 0), None
#     Edge 18, Type (0, 0), None
#     Edge 19, Type (0, 0), None
#     Edge 20, Type (0, 0), None
#     Edge 21, Type (0, 0), None
#     Edge 22, Type (0, 0), None
#     Edge 23, Type (0, 0), None
#     Edge 24, Type (0, 0), None
#     Edge 25, Type (0, 0), None
#     Edge 26, Type (0, 0), None
#     Edge 27, Type (0, 0), None
#     Edge 28, Type (0, 0), None
#     Edge 29, Type (0, 0), None
#     Edge 30, Type (0, 0), None
#     Edge 31, Type (0, 0), None
#     Edge 32, Type (0, 0), None
#     Edge 33, Type (0, 0), None
#     Edge 34, Type (0, 0), None
#     Edge 35, Type (0, 0), None
#     Edge 36, Type (0, 0), None
#     Edge 37, Type (0, 0), None
#     Edge 38, Type (0, 0), None
#     Edge 39, Type (0, 0), None
#     Edge 40, Type (0, 0), None
#     Edge 41, Type (0, 0), None
#     Edge 42, Type (0, 0), None
#     Edge 43, Type (0, 0), None
#     Edge 44, Type (0, 0), None
#     Edge 45, Type (0, 0), None
#     Edge 46, Type (0, 0), None
#     Edge 47, Type (0, 0), None
#     Edge 48, Type (0, 0), None
#     Edge 49, Type (0, 0), None
#     Edge 50, Type (0, 0), None
#     Edge 51, Type (0, 0), None
#     Edge 52, Type (0, 0), None
#     Edge 53, Type (0, 0), None
#     Edge 54, Type (0, 0), None
#     Edge 55, Type (0, 0), None
# Relax obj value: 0.619
# Max RMSD: 0.269
# Mean RMSD: 0.269
data_MOF--net-yfk--node1-XOMCOT_clean_sbu_1--edge1-none
_symmetry_space_group_name_H-M    P1
_symmetry_Int_Tables_number       1
_symmetry_cell_setting            triclinic
loop_
_symmetry_equiv_pos_as_xyz
'x, y, z'
_cell_length_a     23.048591
_cell_length_b     23.046461
_cell_length_c     18.128925
_cell_angle_alpha  90.008684
_cell_angle_beta   89.995488
_cell_angle_gamma 89.995452
loop_
_atom_site_label
_atom_site_type_symbol
_atom_site_fract_x
_atom_site_fract_y
_atom_site_fract_z
_atom_type_partial_charge
C0 C 0.25207 0.12647 0.35878 0.0
C1 C 0.2721 0.08503 0.40407 0.0
N2 N 0.25403 1.03358 0.37819 0.0
N3 N 0.22585 0.10254 0.29952 0.0
C4 C 0.22817 1.04515 0.31264 0.0
H5 H 0.24828 0.17089 0.37556 0.0
Co6 Co 0.19098 0.1485 0.2276 0.0
C7 C 0.0686 0.08191 0.21711 0.0
O8 O 1.03796 0.12899 0.22932 0.0
N9 N 0.15944 0.19722 0.15041 0.0
C10 C 0.10428 0.2312 0.05789 0.0
C11 C 0.1145 0.18513 0.10455 0.0
C12 C 0.17802 0.2501 0.12623 0.0
N13 N 0.1446 0.27155 0.07148 0.0
O14 O 0.25979 0.2045 0.25003 0.0
H15 H 0.09051 0.14515 0.10304 0.0
H16 H 0.2146 0.27317 0.14852 0.0
O17 O 0.12501 0.08589 0.21255 0.0
C18 C 0.27343 0.25209 0.28411 0.0
O19 O 0.24206 0.29883 0.27382 0.0
N20 N 0.14522 0.18324 0.30069 0.0
C21 C 0.11111 0.23162 0.43326 0.0
C22 C 0.11278 0.17143 0.42458 0.0
C23 C 0.12645 0.14837 0.35672 0.0
C24 C 0.13901 0.2417 0.30608 0.0
C25 C 0.12523 0.26704 0.37317 0.0
H26 H 0.12609 0.10183 0.35117 0.0
H27 H 0.14523 0.26934 0.25921 0.0
H28 H 0.20398 1.01356 0.28089 0.0
H29 H 0.28693 0.09341 0.45983 0.0
H30 H 0.06985 0.23506 0.01759 0.0
H31 H 0.09884 0.14233 0.46791 0.0
H32 H 0.11953 0.31364 0.37636 0.0
C33 C 0.12692 0.8536 0.50699 0.0
C34 C 0.08536 0.83376 0.46172 0.0
N35 N 1.03402 0.8522 0.48749 0.0
N36 N 0.10309 0.88026 0.56607 0.0
C37 C 1.04571 0.8782 0.55292 0.0
H38 H 0.17148 0.85659 0.49039 0.0
Co39 Co 0.149 0.91546 0.63789 0.0
C40 C 0.08239 1.03779 0.64898 0.0
O41 O 0.12953 0.06849 0.63753 0.0
N42 N 0.19769 0.94729 0.7149 0.0
C43 C 0.23094 1.00193 0.80843 0.0
C44 C 0.18488 0.99138 0.76182 0.0
C45 C 0.25104 0.92952 0.73827 0.0
N46 N 0.27206 0.96274 0.79346 0.0
O47 O 0.20496 0.84672 0.61556 0.0
H48 H 0.14431 1.01436 0.76423 0.0
H49 H 0.27464 0.89352 0.71533 0.0
O50 O 0.08634 0.98134 0.65289 0.0
C51 C 0.2526 0.83325 0.58153 0.0
O52 O 0.29877 0.86579 0.58967 0.0
N53 N 0.18349 0.96121 0.56455 0.0
C54 C 0.23171 0.9947 0.43167 0.0
C55 C 0.17151 0.99295 0.44038 0.0
C56 C 0.14853 0.97957 0.50839 0.0
C57 C 0.24188 0.96788 0.55914 0.0
C58 C 0.26717 0.98099 0.49184 0.0
H59 H 0.102 0.97991 0.51406 0.0
H60 H 0.26957 0.96238 0.60607 0.0
H61 H 1.01423 0.90266 0.58453 0.0
H62 H 0.09365 0.81859 0.40607 0.0
H63 H 0.23417 1.03566 0.84978 0.0
H64 H 0.14237 1.00667 0.39698 0.0
H65 H 0.31375 0.9868 0.48858 0.0
C66 C 0.85329 0.97913 0.35928 0.0
C67 C 0.83354 1.0206 0.40482 0.0
N68 N 0.85198 0.07199 0.37926 0.0
N69 N 0.87986 1.00308 0.30022 0.0
C70 C 0.87786 0.06044 0.31368 0.0
H71 H 0.85641 0.93456 0.37573 0.0
Co72 Co 0.91507 0.95717 0.22821 0.0
C73 C 1.03732 1.02381 0.21713 0.0
O74 O 0.06801 0.97666 0.22869 0.0
N75 N 0.9469 0.9085 0.15105 0.0
C76 C 1.00178 0.87525 0.05772 0.0
C77 C 0.99115 0.92128 0.10435 0.0
C78 C 0.92914 0.85519 0.12746 0.0
N79 N 0.96249 0.83417 0.07238 0.0
O80 O 0.84643 0.90114 0.25057 0.0
H81 H 1.0142 0.9618 0.10209 0.0
H82 H 0.89304 0.83162 0.15017 0.0
O83 O 0.98088 1.01987 0.21318 0.0
C84 C 0.83289 0.85336 0.2842 0.0
O85 O 0.86534 0.80718 0.27554 0.0
N86 N 0.96088 0.92264 0.30142 0.0
C87 C 0.99509 0.87446 0.43401 0.0
C88 C 0.99312 0.93465 0.42538 0.0
C89 C 0.97935 0.95762 0.35751 0.0
C90 C 0.96761 0.86424 0.30677 0.0
C91 C 0.98123 0.83897 0.37392 0.0
H92 H 0.97958 1.00415 0.35187 0.0
H93 H 0.96191 0.83655 0.25986 0.0
H94 H 0.90234 0.09198 0.28221 0.0
H95 H 0.8185 1.01218 0.46048 0.0
H96 H 1.03566 0.872 0.01657 0.0
H97 H 1.0069 0.96383 0.46871 0.0
H98 H 0.98716 0.79239 0.37711 0.0
C99 C 0.97946 0.25242 0.50655 0.0
C100 C 1.02085 0.27226 0.461 0.0
N101 N 0.07225 0.25403 0.48674 0.0
N102 N 1.00345 0.22617 0.56579 0.0
C103 C 0.06081 0.2283 0.55241 0.0
H104 H 0.93498 0.24879 0.48998 0.0
Co105 Co 0.95752 0.1914 0.63801 0.0
C106 C 1.02426 0.06905 0.64885 0.0
O107 O 0.97722 1.03835 0.63663 0.0
N108 N 0.90884 0.16009 0.71544 0.0
C109 C 0.87489 0.10521 0.80822 0.0
C110 C 0.92086 0.11515 0.76132 0.0
C111 C 0.85609 0.17891 0.73981 0.0
N112 N 0.83467 0.14571 0.79483 0.0
O113 O 0.9015 0.26003 0.61531 0.0
H114 H 0.9607 0.09093 0.76263 0.0
H115 H 0.83304 0.21546 0.71739 0.0
O116 O 1.02021 0.12547 0.65331 0.0
C117 C 0.85376 0.27366 0.58162 0.0
O118 O 0.80722 0.24194 0.59163 0.0
N119 N 0.92279 0.14539 0.56518 0.0
C120 C 0.87438 0.11075 0.43288 0.0
C121 C 0.93456 0.1126 0.44141 0.0
C122 C 0.95764 0.12656 0.50915 0.0
C123 C 0.86435 0.13892 0.55999 0.0
C124 C 0.83897 0.12482 0.49302 0.0
H125 H 1.00418 0.12631 0.51463 0.0
H126 H 0.83676 0.14519 0.60692 0.0
H127 H 0.09242 0.20405 0.58405 0.0
H128 H 1.01243 0.28702 0.40522 0.0
H129 H 0.87095 0.07074 0.84845 0.0
H130 H 0.96367 0.09869 0.39807 0.0
H131 H 0.79239 0.11899 0.48993 0.0
C132 C 0.24629 0.47242 0.75385 0.0
C133 C 0.26723 0.51452 0.70977 0.0
N134 N 0.25118 0.56586 0.73809 0.0
N135 N 0.22172 0.49601 0.81439 0.0
C136 C 0.22516 0.55354 0.80313 0.0
H137 H 0.24261 0.42769 0.73712 0.0
Co138 Co 0.18727 0.45101 0.88664 0.0
C139 C 0.06795 0.5237 0.90551 0.0
O140 O 1.03536 0.47781 0.89421 0.0
N141 N 0.1556 0.40288 -0.03605 0.0
C142 C 0.10542 0.37007 0.06161 0.0
C143 C 0.11369 0.41597 0.01383 0.0
C144 C 0.17378 0.34935 -0.01416 0.0
N145 N 0.14406 0.3289 0.04426 0.0
O146 O 0.24781 0.38908 0.8573 0.0
H147 H 0.09087 0.45659 0.01749 0.0
H148 H 0.20752 0.32503 -0.04028 0.0
O149 O 0.1245 0.51749 0.90712 0.0
C150 C 0.2844 0.3483 0.84106 0.0
O151 O 0.27593 0.29674 0.86985 0.0
N152 N 0.13912 0.41881 0.81558 0.0
C153 C 0.10437 0.37606 0.68055 0.0
C154 C 0.10279 0.43559 0.69468 0.0
C155 C 0.11717 0.45564 0.76372 0.0
C156 C 0.14066 0.36045 0.80295 0.0
C157 C 0.12434 0.33824 0.73504 0.0
H158 H 0.11583 0.50176 0.77285 0.0
H159 H 0.15701 0.3308 0.84379 0.0
H160 H 0.20223 0.58515 0.83635 0.0
H161 H 0.28183 0.50743 0.6536 0.0
H162 H 0.07355 0.36697 0.10528 0.0
H163 H 0.08571 0.46596 0.65475 0.0
H164 H 0.12302 0.29172 0.72665 0.0
C165 C 0.47116 0.85984 0.11164 0.0
C166 C 0.5129 0.839 0.1564 0.0
N167 N 0.56447 0.85456 0.12836 0.0
N168 N 0.49523 0.88398 0.05119 0.0
C169 C 0.55266 0.88038 0.06304 0.0
H170 H 0.42631 0.86386 0.12771 0.0
Co171 Co 0.45071 0.9187 -0.02108 0.0
C172 C 0.52294 1.03826 -0.04062 0.0
O173 O 0.47667 0.07086 -0.03228 0.0
N174 N 0.40299 0.95083 0.90176 0.0
C175 C 0.37207 0.99865 0.8012 0.0
C176 C 0.41786 0.98999 0.84915 0.0
C177 C 0.34833 0.93481 0.88184 0.0
N178 N 0.32911 0.96302 0.82163 0.0
O179 O 0.3888 0.85746 0.00581 0.0
H180 H 0.45972 1.01029 0.84368 0.0
H181 H 0.32238 0.90354 0.91044 0.0
O182 O 0.51704 0.9817 -0.04036 0.0
C183 C 0.34937 0.81935 0.02192 0.0
O184 O 0.29959 0.82262 -0.01301 0.0
N185 N 0.41809 0.9663 0.05047 0.0
C186 C 0.37615 1.00107 0.18595 0.0
C187 C 0.43551 1.00322 0.17099 0.0
C188 C 0.4551 0.98887 0.10173 0.0
C189 C 0.3599 0.9639 0.06414 0.0
C190 C 0.33809 0.98042 0.13218 0.0
H191 H 0.50114 0.99055 0.09216 0.0
H192 H 0.33002 0.94688 0.02415 0.0
H193 H 0.58454 0.90309 0.03003 0.0
H194 H 0.50546 0.82476 0.21263 0.0
H195 H 0.37038 1.02852 0.75518 0.0
H196 H 0.46602 1.02074 0.21043 0.0
H197 H 0.29164 0.98126 0.14124 0.0
C198 C 0.85967 0.63444 0.7545 0.0
C199 C 0.839 0.59253 0.70986 0.0
N200 N 0.85479 0.54107 0.73804 0.0
N201 N 0.88399 0.61055 0.81496 0.0
C202 C 0.88067 0.55309 0.80324 0.0
H203 H 0.86348 0.67928 0.73833 0.0
Co204 Co 0.91868 0.65527 0.887 0.0
C205 C 1.0384 0.58309 0.90624 0.0
O206 O 0.07103 0.62928 0.89747 0.0
N207 N 0.95082 0.70319 -0.036 0.0
C208 C 0.99875 0.73428 0.0644 0.0
C209 C 0.99017 0.68848 0.01644 0.0
C210 C 0.93462 0.7578 -0.01598 0.0
N211 N 0.96287 0.77711 0.04417 0.0
O212 O 0.85714 0.71696 0.86018 0.0
H213 H 1.01069 0.6467 0.02177 0.0
H214 H 0.90323 0.78365 -0.0445 0.0
O215 O 0.98185 0.58907 0.90626 0.0
C216 C 0.81889 0.75631 0.84421 0.0
O217 O 0.82178 0.80588 0.87966 0.0
N218 N 0.96602 0.68796 0.81521 0.0
C219 C 0.99972 0.72976 0.67917 0.0
C220 C 1.0022 0.67044 0.69434 0.0
C221 C 0.98853 0.65096 0.76389 0.0
C222 C 0.96312 0.74609 0.8013 0.0
C223 C 0.97897 0.7678 0.73294 0.0
H224 H 0.99057 0.60495 0.77365 0.0
H225 H 0.94618 0.77598 0.84137 0.0
H226 H 0.90359 0.52136 0.83626 0.0
H227 H 0.82468 0.59979 0.65362 0.0
H228 H 1.02874 0.73608 0.11029 0.0
H229 H 1.01961 0.6399 0.65485 0.0
H230 H 0.97946 0.81424 0.72372 0.0
C231 C 0.63217 0.24654 0.11204 0.0
C232 C 0.58969 0.26752 0.15549 0.0
N233 N 0.53861 0.2511 0.12675 0.0
N234 N 0.6091 0.22156 0.05142 0.0
C235 C 0.55148 0.22482 0.06205 0.0
H236 H 0.67679 0.24322 0.12933 0.0
Co237 Co 0.65461 0.18737 -0.02062 0.0
C238 C 0.58227 0.06789 -0.03952 0.0
O239 O 0.62808 1.0354 -0.02723 0.0
N240 N 0.70319 0.15608 0.90217 0.0
C241 C 0.73675 0.10536 0.80538 0.0
C242 C 0.69083 0.11334 0.85315 0.0
C243 C 0.75626 0.17512 0.8796 0.0
N244 N 0.77721 0.14499 0.82173 0.0
O245 O 0.71607 0.24789 0.01006 0.0
H246 H 0.65071 0.08965 0.85005 0.0
H247 H 0.7798 0.20988 0.90472 0.0
O248 O 0.58842 0.12443 -0.04172 0.0
C249 C 0.75772 0.28342 0.02623 0.0
O250 O 0.8098 0.27207 0.00073 0.0
N251 N 0.68666 0.13914 0.05042 0.0
C252 C 0.7296 0.10512 0.18567 0.0
C253 C 0.67005 0.10347 0.17167 0.0
C254 C 0.64992 0.11742 0.10251 0.0
C255 C 0.74503 0.14068 0.06286 0.0
C256 C 0.76732 0.12493 0.13094 0.0
H257 H 0.6038 0.11592 0.09336 0.0
H258 H 0.7746 0.15668 0.02168 0.0
H259 H 0.52019 0.20167 0.02863 0.0
H260 H 0.59633 0.28244 0.2116 0.0
H261 H 0.74041 0.07293 0.76245 0.0
H262 H 0.63973 0.08659 0.2118 0.0
H263 H 0.81385 0.1237 0.13923 0.0
C264 C 0.75221 0.62675 0.85825 0.0
C265 C 0.77219 0.58522 0.90341 0.0
N266 N 0.75396 0.53384 0.87751 0.0
N267 N 0.72576 0.60289 0.79908 0.0
C268 C 0.72798 0.5455 0.8121 0.0
H269 H 0.7488 0.67122 0.87503 0.0
Co270 Co 0.69064 0.6488 0.72742 0.0
C271 C 0.56842 0.58182 0.71703 0.0
O272 O 0.53759 0.62878 0.72925 0.0
N273 N 0.65876 0.69754 0.65049 0.0
C274 C 0.60346 0.73124 0.5579 0.0
C275 C 0.61404 0.68513 0.6044 0.0
C276 C 0.67682 0.75068 0.62669 0.0
N277 N 0.64325 0.77198 0.57202 0.0
O278 O 0.75948 0.70479 0.74973 0.0
H279 H 0.59054 0.64485 0.60254 0.0
H280 H 0.71322 0.77398 0.64909 0.0
O281 O 0.62481 0.58604 0.71247 0.0
C282 C 0.77294 0.75241 0.78385 0.0
O283 O 0.74087 0.79879 0.77466 0.0
N284 N 0.64493 0.68332 0.8008 0.0
C285 C 0.61082 0.73156 -0.06653 0.0
C286 C 0.61273 0.67137 0.92479 0.0
C287 C 0.62643 0.64837 0.8569 0.0
C288 C 0.63834 0.74174 0.8062 0.0
C289 C 0.6247 0.76702 0.87335 0.0
H290 H 0.6262 0.60183 0.8513 0.0
H291 H 0.64417 0.76943 0.75932 0.0
H292 H 0.70364 0.51398 0.78041 0.0
H293 H 0.78724 0.59352 -0.04089 0.0
H294 H 0.56925 0.73479 0.51724 0.0
H295 H 0.59896 0.64222 -0.03185 0.0
H296 H 0.61883 0.8136 0.87656 0.0
C297 C 0.62756 0.3534 0.00704 0.0
C298 C 0.58584 0.3336 -0.03802 0.0
N299 N 0.5346 0.35226 -0.01215 0.0
N300 N 0.60389 0.3803 0.06607 0.0
C301 C 0.54648 0.37839 0.05311 0.0
H302 H 0.67211 0.35608 -0.00971 0.0
Co303 Co 0.64978 0.41572 0.13762 0.0
C304 C 0.58275 0.53783 0.14913 0.0
O305 O 0.62982 0.56877 0.13821 0.0
N306 N 0.69843 0.44779 0.21437 0.0
C307 C 0.73089 0.50167 0.30907 0.0
C308 C 0.6849 0.49096 0.26235 0.0
C309 C 0.75221 0.43077 0.23698 0.0
N310 N 0.77274 0.46357 0.29283 0.0
O311 O 0.70593 0.34705 0.11538 0.0
H312 H 0.64385 0.51305 0.26545 0.0
H313 H 0.7764 0.39554 0.21305 0.0
O314 O 0.58692 0.4814 0.15264 0.0
C315 C 0.75317 0.33359 0.08038 0.0
O316 O 0.79917 0.36664 0.0862 0.0
N317 N 0.68393 0.4615 0.06407 0.0
C318 C 0.73179 0.49487 0.93096 0.0
C319 C 0.67161 0.49303 -0.06013 0.0
C320 C 0.6488 0.47967 0.00799 0.0
C321 C 0.74228 0.4684 0.05843 0.0
C322 C 0.76739 0.48126 -0.00901 0.0
H323 H 0.60229 0.47993 0.01384 0.0
H324 H 0.77014 0.46306 0.10521 0.0
H325 H 0.51513 0.403 0.08473 0.0
H326 H 0.59398 0.31823 0.90639 0.0
H327 H 0.73352 0.53468 0.35142 0.0
H328 H 0.64235 0.50665 0.89654 0.0
H329 H 0.81396 0.48709 -0.01248 0.0
C330 C 0.35313 0.47864 0.85921 0.0
C331 C 0.33345 0.52023 0.90462 0.0
N332 N 0.35211 0.57153 0.87902 0.0
N333 N 0.37992 0.50247 0.80021 0.0
C334 C 0.37808 0.55985 0.81356 0.0
H335 H 0.3559 0.43405 0.87572 0.0
Co336 Co 0.4153 0.45658 0.72839 0.0
C337 C 0.53737 0.52358 0.71694 0.0
O338 O 0.56827 0.4765 0.72802 0.0
N339 N 0.44733 0.40794 0.65141 0.0
C340 C 0.5016 0.37536 0.5571 0.0
C341 C 0.49081 0.42133 0.60383 0.0
C342 C 0.43021 0.35425 0.62846 0.0
N343 N 0.46324 0.33364 0.57283 0.0
O344 O 0.34671 0.40046 0.75068 0.0
H345 H 0.5131 0.46227 0.60099 0.0
H346 H 0.39475 0.33017 0.65196 0.0
O347 O 0.48093 0.51945 0.71334 0.0
C348 C 0.3333 0.35293 0.78499 0.0
O349 O 0.36636 0.307 0.77821 0.0
N350 N 0.46116 0.42233 0.8018 0.0
C351 C 0.49553 0.3744 -0.06553 0.0
C352 C 0.49335 0.43458 0.92575 0.0
C353 C 0.47946 0.45744 0.85784 0.0
C354 C 0.46824 0.36398 0.80723 0.0
C355 C 0.48175 0.33882 0.87446 0.0
H356 H 0.47957 0.50395 0.85211 0.0
H357 H 0.46276 0.33618 0.76041 0.0
H358 H 0.40269 0.59128 0.7821 0.0
H359 H 0.31823 0.51191 -0.03978 0.0
H360 H 0.53488 0.37263 0.51512 0.0
H361 H 0.50706 0.46385 -0.03097 0.0
H362 H 0.48777 0.29226 0.87774 0.0
C363 C 0.47915 0.75249 0.0069 0.0
C364 C 0.52057 0.77226 -0.03865 0.0
N365 N 0.57194 0.75386 -0.013 0.0
N366 N 0.50314 0.72604 0.06603 0.0
C367 C 0.56049 0.72805 0.0526 0.0
H368 H 0.43461 0.74922 -0.00959 0.0
Co369 Co 0.45729 0.691 0.13806 0.0
C370 C 0.52446 0.56884 0.14883 0.0
O371 O 0.47756 0.53793 0.13666 0.0
N372 N 0.40861 0.6593 0.21528 0.0
C373 C 0.37496 0.60414 0.30804 0.0
C374 C 0.421 0.61459 0.26139 0.0
C375 C 0.35552 0.67748 0.23923 0.0
N376 N 0.33427 0.64402 0.29408 0.0
O377 O 0.40124 0.75964 0.11555 0.0
H378 H 0.4612 0.59096 0.2631 0.0
H379 H 0.33219 0.71382 0.21673 0.0
O380 O 0.52016 0.62524 0.15323 0.0
C381 C 0.35347 0.77314 0.08187 0.0
O382 O 0.30726 0.74077 0.09081 0.0
N383 N 0.42274 0.64504 0.06496 0.0
C384 C 0.37443 0.61038 0.9326 0.0
C385 C 0.43462 0.61245 -0.05889 0.0
C386 C 0.45766 0.62646 0.00886 0.0
C387 C 0.36434 0.63825 0.05976 0.0
C388 C 0.339 0.6243 -0.00726 0.0
H389 H 0.5042 0.62633 0.01437 0.0
H390 H 0.33671 0.64416 0.1067 0.0
H391 H 0.59206 0.70365 0.08411 0.0
H392 H 0.51215 0.7872 0.90564 0.0
H393 H 0.37138 0.56989 0.34863 0.0
H394 H 0.46377 0.59868 0.89774 0.0
H395 H 0.29243 0.61834 -0.01035 0.0
C396 C 0.74634 0.97129 0.25419 0.0
C397 C 0.76705 1.01301 0.20932 0.0
N398 N 0.75116 0.06454 0.23721 0.0
N399 N 0.7221 0.99536 0.31461 0.0
C400 C 0.72547 1.0528 0.30261 0.0
H401 H 0.74238 0.92644 0.2381 0.0
Co402 Co 0.68731 0.9508 0.38681 0.0
C403 C 0.56801 1.02359 0.40541 0.0
O404 O 0.53531 0.97762 0.3952 0.0
N405 N 0.65509 0.90302 0.46394 0.0
C406 C 0.60615 0.87149 0.5633 0.0
C407 C 0.61478 0.9173 0.51541 0.0
C408 C 0.67179 0.84872 0.48459 0.0
N409 N 0.64292 0.82912 0.54411 0.0
O410 O 0.74835 0.88877 0.35966 0.0
H411 H 0.5935 0.95873 0.52006 0.0
H412 H 0.70385 0.82322 0.45682 0.0
O413 O 0.62453 1.01735 0.40634 0.0
C414 C 0.78625 0.84914 0.34354 0.0
O415 O 0.78219 0.79902 0.37753 0.0
N416 N 0.63967 0.91825 0.31523 0.0
C417 C 0.60519 0.87599 0.17977 0.0
C418 C 0.60322 0.93542 0.19442 0.0
C419 C 0.6174 0.95518 0.26367 0.0
C420 C 0.64193 0.86 0.30187 0.0
C421 C 0.62563 0.83803 0.2338 0.0
H422 H 0.61578 1.00124 0.27309 0.0
H423 H 0.65868 0.83021 0.3422 0.0
H424 H 0.70258 0.08465 0.3355 0.0
H425 H 0.78127 1.00552 0.15309 0.0
H426 H 0.57543 0.86933 0.60838 0.0
H427 H 0.58591 0.96588 0.15476 0.0
H428 H 0.62469 0.79155 0.22497 0.0
C429 C 0.97069 0.35985 0.61134 0.0
C430 C 1.01215 0.33907 0.65656 0.0
N431 N 0.06383 0.35464 0.62891 0.0
N432 N 0.9951 0.38388 0.55103 0.0
C433 C 1.05246 0.3803 0.56339 0.0
H434 H 0.92576 0.36401 0.62698 0.0
Co435 Co 0.95082 0.41882 0.47883 0.0
C436 C 1.02296 0.53849 0.45952 0.0
O437 O 0.97664 0.57116 0.4669 0.0
N438 N 0.90329 0.45123 0.40186 0.0
C439 C 0.87351 0.49763 0.29969 0.0
C440 C 0.91914 0.4888 0.34787 0.0
C441 C 0.84809 0.43641 0.38284 0.0
N442 N 0.82957 0.4638 0.32169 0.0
O443 O 0.88919 0.35713 0.50405 0.0
H444 H 0.96163 0.50769 0.34166 0.0
H445 H 0.8214 0.40626 0.41242 0.0
O446 O 1.01704 0.48196 0.4603 0.0
C447 C 0.8503 0.31838 0.51975 0.0
O448 O 0.80195 0.31902 0.4815 0.0
N449 N 0.91781 0.46591 0.55086 0.0
C450 C 0.87624 0.50029 0.68674 0.0
C451 C 0.93551 0.50284 0.67136 0.0
C452 C 0.95487 0.48875 0.60189 0.0
C453 C 0.85973 0.46279 0.56517 0.0
C454 C 0.83811 0.47919 0.63337 0.0
H455 H 1.00086 0.49076 0.59208 0.0
H456 H 0.82977 0.44538 0.52563 0.0
H457 H 0.08452 0.40304 0.53068 0.0
H458 H 1.0044 0.325 0.71279 0.0
H459 H 0.87263 0.52627 0.2524 0.0
H460 H 0.96607 0.52056 0.71058 0.0
H461 H 0.7917 0.47962 0.6428 0.0
C462 C 0.35952 0.13483 0.25495 0.0
C463 C 0.33893 0.09322 0.2098 0.0
N464 N 0.35475 1.04164 0.23754 0.0
N465 N 0.38377 0.11059 0.31523 0.0
C466 C 0.38051 0.0532 0.30293 0.0
H467 H 0.36347 0.17974 0.23921 0.0
Co468 Co 0.41871 0.15511 0.38719 0.0
C469 C 0.53855 0.08303 0.40612 0.0
O470 O 0.57123 0.12927 0.39815 0.0
N471 N 0.45118 0.20292 0.46393 0.0
C472 C 0.49787 0.23307 0.56572 0.0
C473 C 0.48914 0.18736 0.51761 0.0
C474 C 0.43608 0.25804 0.48306 0.0
N475 N 0.4636 0.27677 0.54404 0.0
O476 O 0.35672 0.21654 0.36204 0.0
H477 H 0.50839 0.14501 0.52367 0.0
H478 H 0.40568 0.28454 0.45362 0.0
O479 O 0.48203 0.08904 0.4057 0.0
C480 C 0.31781 0.25531 0.34645 0.0
O481 O 0.31801 0.30342 0.38521 0.0
N482 N 0.4655 0.18815 0.31485 0.0
C483 C 0.49787 0.22943 0.17797 0.0
C484 C 0.50111 0.17024 0.19375 0.0
C485 C 0.48819 0.15109 0.2637 0.0
C486 C 0.46166 0.24613 0.30019 0.0
C487 C 0.47677 0.26755 0.23141 0.0
H488 H 0.49076 0.10517 0.27381 0.0
H489 H 0.44452 0.27611 0.33992 0.0
H490 H 0.40351 1.02129 0.33558 0.0
H491 H 0.32475 0.10082 0.15358 0.0
H492 H 0.52677 0.23416 0.61276 0.0
H493 H 0.51865 0.13964 0.15443 0.0
H494 H 0.47663 0.31393 0.22169 0.0
C495 C 0.13376 0.74663 0.61159 0.0
C496 C 0.09176 0.76738 0.65601 0.0
N497 N 1.04042 0.75127 0.6278 0.0
N498 N 0.11006 0.7221 0.55111 0.0
C499 C 1.05255 0.72533 0.56267 0.0
H500 H 0.17853 0.74288 0.62808 0.0
Co501 Co 0.15499 0.6874 0.4791 0.0
C502 C 0.08235 0.56803 0.46065 0.0
O503 O 0.12823 0.53541 0.47185 0.0
N504 N 0.20309 0.65532 0.40205 0.0
C505 C 0.23532 0.60568 0.30358 0.0
C506 C 0.18947 0.61411 0.35145 0.0
C507 C 0.257 0.67279 0.38074 0.0
N508 N 0.27704 0.64349 0.32176 0.0
O509 O 0.21689 0.74836 0.50724 0.0
H510 H 0.14848 0.59198 0.34736 0.0
H511 H 0.28189 0.70572 0.40768 0.0
O512 O 0.08856 0.62455 0.45912 0.0
C513 C 0.25696 0.78578 0.52335 0.0
O514 O 0.30773 0.77993 0.49142 0.0
N515 N 0.18733 0.63971 0.55071 0.0
C516 C 0.2296 0.60655 0.68669 0.0
C517 C 0.17018 0.60429 0.67201 0.0
C518 C 0.15044 0.61774 0.60249 0.0
C519 C 0.24557 0.64213 0.564 0.0
C520 C 0.2675 0.62677 0.63243 0.0
H521 H 0.1044 0.61589 0.59298 0.0
H522 H 0.27532 0.65848 0.52331 0.0
H523 H 1.02093 0.70226 0.52966 0.0
H524 H 0.09891 0.78184 0.71221 0.0
H525 H 0.23798 0.57434 0.25924 0.0
H526 H 0.13974 0.58724 0.71186 0.0
H527 H 0.31398 0.62606 0.64129 0.0
loop_
_geom_bond_atom_site_label_1
_geom_bond_atom_site_label_2
_geom_bond_distance
_geom_bond_site_symmetry_2
_ccdc_geom_bond_type
C0 C1 1.351 1_545 S
C0 N3 1.370 . S
C0 H5 0.931 . S
C1 C0 1.351 1_565 S
C1 N2 1.373 . S
C1 H29 0.930 . S
N2 C1 1.373 . S
N2 C4 1.340 . S
N3 C0 1.370 . S
N3 C4 1.302 1_545 S
N3 Co6 2.152 . S
C4 N2 1.340 . S
C4 N3 1.302 1_565 S
C4 H28 0.930 . S
H5 C0 0.931 . S
Co6 N3 2.152 . S
Co6 N9 2.121 . S
Co6 O14 2.055 . S
Co6 O17 2.039 . S
Co6 N20 2.140 . S
C7 O8 1.227 . S
C7 O17 1.265 . S
O8 C7 1.227 . S
N9 Co6 2.121 . S
N9 C11 1.375 . S
N9 C12 1.313 . S
C10 C11 1.338 . S
C10 N13 1.377 . S
C10 H30 0.930 . S
C11 N9 1.375 . S
C11 C10 1.338 . S
C11 H15 0.931 . S
C12 N9 1.313 . S
C12 N13 1.344 . S
C12 H16 0.930 . S
N13 C10 1.377 . S
N13 C12 1.344 . S
O14 Co6 2.055 . S
O14 C18 1.253 . S
H15 C11 0.931 . S
H16 C12 0.930 . S
O17 Co6 2.039 . S
O17 C7 1.265 . S
C18 O14 1.253 . S
C18 O19 1.227 . S
O19 C18 1.227 . S
N20 Co6 2.140 . S
N20 C23 1.346 . S
N20 C24 1.345 . S
C21 C22 1.387 . S
C21 C25 1.391 . S
C22 C21 1.387 . S
C22 C23 1.369 . S
C22 H31 0.929 . S
C23 N20 1.346 . S
C23 C22 1.369 . S
C23 H26 0.928 . S
C24 N20 1.345 . S
C24 C25 1.371 . S
C24 H27 0.931 . S
C25 C21 1.391 . S
C25 C24 1.371 . S
C25 H32 0.930 . S
H26 C23 0.928 . S
H27 C24 0.931 . S
H28 C4 0.930 . S
H29 C1 0.930 . S
H30 C10 0.930 . S
H31 C22 0.929 . S
H32 C25 0.930 . S
C33 C34 1.351 1_455 S
C33 N36 1.370 . S
C33 H38 0.931 . S
C34 C33 1.351 1_655 S
C34 N35 1.373 . S
C34 H62 0.930 . S
N35 C34 1.373 . S
N35 C37 1.340 . S
N36 C33 1.370 . S
N36 C37 1.302 1_455 S
N36 Co39 2.152 . S
C37 N35 1.340 . S
C37 N36 1.302 1_655 S
C37 H61 0.930 . S
H38 C33 0.931 . S
Co39 N36 2.152 . S
Co39 N42 2.121 . S
Co39 O47 2.055 . S
Co39 O50 2.039 . S
Co39 N53 2.140 . S
C40 O41 1.227 . S
C40 O50 1.265 . S
O41 C40 1.227 . S
N42 Co39 2.121 . S
N42 C44 1.375 . S
N42 C45 1.313 . S
C43 C44 1.338 . S
C43 N46 1.377 . S
C43 H63 0.930 . S
C44 N42 1.375 . S
C44 C43 1.338 . S
C44 H48 0.931 . S
C45 N42 1.313 . S
C45 N46 1.344 . S
C45 H49 0.930 . S
N46 C43 1.377 . S
N46 C45 1.344 . S
O47 Co39 2.055 . S
O47 C51 1.253 . S
H48 C44 0.931 . S
H49 C45 0.930 . S
O50 Co39 2.039 . S
O50 C40 1.265 . S
C51 O47 1.253 . S
C51 O52 1.227 . S
O52 C51 1.227 . S
N53 Co39 2.140 . S
N53 C56 1.346 . S
N53 C57 1.345 . S
C54 C55 1.387 . S
C54 C58 1.391 . S
C55 C54 1.387 . S
C55 C56 1.369 . S
C55 H64 0.929 . S
C56 N53 1.346 . S
C56 C55 1.369 . S
C56 H59 0.928 . S
C57 N53 1.345 . S
C57 C58 1.371 . S
C57 H60 0.931 . S
C58 C54 1.391 . S
C58 C57 1.371 . S
C58 H65 0.930 . S
H59 C56 0.928 . S
H60 C57 0.931 . S
H61 C37 0.930 . S
H62 C34 0.930 . S
H63 C43 0.930 . S
H64 C55 0.929 . S
H65 C58 0.930 . S
C66 C67 1.351 1_565 S
C66 N69 1.370 . S
C66 H71 0.931 . S
C67 C66 1.351 1_545 S
C67 N68 1.373 . S
C67 H95 0.930 . S
N68 C67 1.373 . S
N68 C70 1.340 . S
N69 C66 1.370 . S
N69 C70 1.302 1_565 S
N69 Co72 2.152 . S
C70 N68 1.340 . S
C70 N69 1.302 1_545 S
C70 H94 0.930 . S
H71 C66 0.931 . S
Co72 N69 2.152 . S
Co72 N75 2.121 . S
Co72 O80 2.055 . S
Co72 O83 2.039 . S
Co72 N86 2.140 . S
C73 O74 1.227 . S
C73 O83 1.265 . S
O74 C73 1.227 . S
N75 Co72 2.121 . S
N75 C77 1.375 . S
N75 C78 1.313 . S
C76 C77 1.338 . S
C76 N79 1.377 . S
C76 H96 0.930 . S
C77 N75 1.375 . S
C77 C76 1.338 . S
C77 H81 0.931 . S
C78 N75 1.313 . S
C78 N79 1.344 . S
C78 H82 0.930 . S
N79 C76 1.377 . S
N79 C78 1.344 . S
O80 Co72 2.055 . S
O80 C84 1.253 . S
H81 C77 0.931 . S
H82 C78 0.930 . S
O83 Co72 2.039 . S
O83 C73 1.265 . S
C84 O80 1.253 . S
C84 O85 1.227 . S
O85 C84 1.227 . S
N86 Co72 2.140 . S
N86 C89 1.346 . S
N86 C90 1.345 . S
C87 C88 1.387 . S
C87 C91 1.391 . S
C88 C87 1.387 . S
C88 C89 1.369 . S
C88 H97 0.929 . S
C89 N86 1.346 . S
C89 C88 1.369 . S
C89 H92 0.928 . S
C90 N86 1.345 . S
C90 C91 1.371 . S
C90 H93 0.931 . S
C91 C87 1.391 . S
C91 C90 1.371 . S
C91 H98 0.930 . S
H92 C89 0.928 . S
H93 C90 0.931 . S
H94 C70 0.930 . S
H95 C67 0.930 . S
H96 C76 0.930 . S
H97 C88 0.929 . S
H98 C91 0.930 . S
C99 C100 1.351 1_655 S
C99 N102 1.370 . S
C99 H104 0.931 . S
C100 C99 1.351 1_455 S
C100 N101 1.373 . S
C100 H128 0.930 . S
N101 C100 1.373 . S
N101 C103 1.340 . S
N102 C99 1.370 . S
N102 C103 1.302 1_655 S
N102 Co105 2.152 . S
C103 N101 1.340 . S
C103 N102 1.302 1_455 S
C103 H127 0.930 . S
H104 C99 0.931 . S
Co105 N102 2.152 . S
Co105 N108 2.121 . S
Co105 O113 2.055 . S
Co105 O116 2.039 . S
Co105 N119 2.140 . S
C106 O107 1.227 . S
C106 O116 1.265 . S
O107 C106 1.227 . S
N108 Co105 2.121 . S
N108 C110 1.375 . S
N108 C111 1.313 . S
C109 C110 1.338 . S
C109 N112 1.377 . S
C109 H129 0.930 . S
C110 N108 1.375 . S
C110 C109 1.338 . S
C110 H114 0.931 . S
C111 N108 1.313 . S
C111 N112 1.344 . S
C111 H115 0.930 . S
N112 C109 1.377 . S
N112 C111 1.344 . S
O113 Co105 2.055 . S
O113 C117 1.253 . S
H114 C110 0.931 . S
H115 C111 0.930 . S
O116 Co105 2.039 . S
O116 C106 1.265 . S
C117 O113 1.253 . S
C117 O118 1.227 . S
O118 C117 1.227 . S
N119 Co105 2.140 . S
N119 C122 1.346 . S
N119 C123 1.345 . S
C120 C121 1.387 . S
C120 C124 1.391 . S
C121 C120 1.387 . S
C121 C122 1.369 . S
C121 H130 0.929 . S
C122 N119 1.346 . S
C122 C121 1.369 . S
C122 H125 0.928 . S
C123 N119 1.345 . S
C123 C124 1.371 . S
C123 H126 0.931 . S
C124 C120 1.391 . S
C124 C123 1.371 . S
C124 H131 0.930 . S
H125 C122 0.928 . S
H126 C123 0.931 . S
H127 C103 0.930 . S
H128 C100 0.930 . S
H129 C109 0.930 . S
H130 C121 0.929 . S
H131 C124 0.930 . S
C132 C133 1.351 . S
C132 N135 1.368 . S
C132 H137 0.931 . S
C133 C132 1.351 . S
C133 N134 1.373 . S
C133 H161 0.930 . S
N134 C133 1.373 . S
N134 C136 1.340 . S
N135 C132 1.368 . S
N135 C136 1.321 . S
N135 Co138 2.135 . S
C136 N134 1.340 . S
C136 N135 1.321 . S
C136 H160 0.930 . S
H137 C132 0.931 . S
Co138 N135 2.135 . S
Co138 N141 2.121 1_556 S
Co138 O146 2.055 1_556 S
Co138 O149 2.039 1_556 S
Co138 N152 2.140 . S
C139 O140 1.227 1_554 S
C139 O149 1.265 . S
O140 C139 1.227 1_556 S
N141 Co138 2.121 1_554 S
N141 C143 1.375 . S
N141 C144 1.313 . S
C142 C143 1.338 . S
C142 N145 1.377 . S
C142 H162 0.930 . S
C143 N141 1.375 . S
C143 C142 1.338 . S
C143 H147 0.931 . S
C144 N141 1.313 . S
C144 N145 1.344 . S
C144 H148 0.930 . S
N145 C142 1.377 . S
N145 C144 1.344 . S
O146 Co138 2.055 1_554 S
O146 C150 1.253 1_554 S
H147 C143 0.931 . S
H148 C144 0.930 . S
O149 Co138 2.039 1_554 S
O149 C139 1.265 . S
C150 O146 1.253 1_556 S
C150 O151 1.227 . S
O151 C150 1.227 . S
N152 Co138 2.140 . S
N152 C155 1.346 . S
N152 C156 1.345 . S
C153 C154 1.387 . S
C153 C157 1.391 . S
C154 C153 1.387 . S
C154 C155 1.369 . S
C154 H163 0.929 . S
C155 N152 1.346 . S
C155 C154 1.369 . S
C155 H158 0.928 . S
C156 N152 1.345 . S
C156 C157 1.371 . S
C156 H159 0.931 . S
C157 C153 1.391 . S
C157 C156 1.371 . S
C157 H164 0.930 . S
H158 C155 0.928 . S
H159 C156 0.931 . S
H160 C136 0.930 . S
H161 C133 0.930 . S
H162 C142 0.930 . S
H163 C154 0.929 . S
H164 C157 0.930 . S
C165 C166 1.351 . S
C165 N168 1.368 . S
C165 H170 0.931 . S
C166 C165 1.351 . S
C166 N167 1.373 . S
C166 H194 0.930 . S
N167 C166 1.373 . S
N167 C169 1.340 . S
N168 C165 1.368 . S
N168 C169 1.321 . S
N168 Co171 2.135 . S
C169 N167 1.340 . S
C169 N168 1.321 . S
C169 H193 0.930 . S
H170 C165 0.931 . S
Co171 N168 2.135 . S
Co171 N174 2.121 1_554 S
Co171 O179 2.055 1_554 S
Co171 O182 2.039 1_554 S
Co171 N185 2.140 . S
C172 O173 1.227 1_556 S
C172 O182 1.265 . S
O173 C172 1.227 1_554 S
N174 Co171 2.121 1_556 S
N174 C176 1.375 . S
N174 C177 1.313 . S
C175 C176 1.338 . S
C175 N178 1.377 . S
C175 H195 0.930 . S
C176 N174 1.375 . S
C176 C175 1.338 . S
C176 H180 0.931 . S
C177 N174 1.313 . S
C177 N178 1.344 . S
C177 H181 0.930 . S
N178 C175 1.377 . S
N178 C177 1.344 . S
O179 Co171 2.055 1_556 S
O179 C183 1.253 1_556 S
H180 C176 0.931 . S
H181 C177 0.930 . S
O182 Co171 2.039 1_556 S
O182 C172 1.265 . S
C183 O179 1.253 1_554 S
C183 O184 1.227 . S
O184 C183 1.227 . S
N185 Co171 2.140 . S
N185 C188 1.346 . S
N185 C189 1.345 . S
C186 C187 1.387 . S
C186 C190 1.391 . S
C187 C186 1.387 . S
C187 C188 1.369 . S
C187 H196 0.929 . S
C188 N185 1.346 . S
C188 C187 1.369 . S
C188 H191 0.928 . S
C189 N185 1.345 . S
C189 C190 1.371 . S
C189 H192 0.931 . S
C190 C186 1.391 . S
C190 C189 1.371 . S
C190 H197 0.930 . S
H191 C188 0.928 . S
H192 C189 0.931 . S
H193 C169 0.930 . S
H194 C166 0.930 . S
H195 C175 0.930 . S
H196 C187 0.929 . S
H197 C190 0.930 . S
C198 C199 1.351 . S
C198 N201 1.368 . S
C198 H203 0.931 . S
C199 C198 1.351 . S
C199 N200 1.373 . S
C199 H227 0.930 . S
N200 C199 1.373 . S
N200 C202 1.340 . S
N201 C198 1.368 . S
N201 C202 1.321 . S
N201 Co204 2.135 . S
C202 N200 1.340 . S
C202 N201 1.321 . S
C202 H226 0.930 . S
H203 C198 0.931 . S
Co204 N201 2.135 . S
Co204 N207 2.121 1_556 S
Co204 O212 2.055 1_556 S
Co204 O215 2.039 1_556 S
Co204 N218 2.140 . S
C205 O206 1.227 1_554 S
C205 O215 1.265 . S
O206 C205 1.227 1_556 S
N207 Co204 2.121 1_554 S
N207 C209 1.375 . S
N207 C210 1.313 . S
C208 C209 1.338 . S
C208 N211 1.377 . S
C208 H228 0.930 . S
C209 N207 1.375 . S
C209 C208 1.338 . S
C209 H213 0.931 . S
C210 N207 1.313 . S
C210 N211 1.344 . S
C210 H214 0.930 . S
N211 C208 1.377 . S
N211 C210 1.344 . S
O212 Co204 2.055 1_554 S
O212 C216 1.253 1_554 S
H213 C209 0.931 . S
H214 C210 0.930 . S
O215 Co204 2.039 1_554 S
O215 C205 1.265 . S
C216 O212 1.253 1_556 S
C216 O217 1.227 . S
O217 C216 1.227 . S
N218 Co204 2.140 . S
N218 C221 1.346 . S
N218 C222 1.345 . S
C219 C220 1.387 . S
C219 C223 1.391 . S
C220 C219 1.387 . S
C220 C221 1.369 . S
C220 H229 0.929 . S
C221 N218 1.346 . S
C221 C220 1.369 . S
C221 H224 0.928 . S
C222 N218 1.345 . S
C222 C223 1.371 . S
C222 H225 0.931 . S
C223 C219 1.391 . S
C223 C222 1.371 . S
C223 H230 0.930 . S
H224 C221 0.928 . S
H225 C222 0.931 . S
H226 C202 0.930 . S
H227 C199 0.930 . S
H228 C208 0.930 . S
H229 C220 0.929 . S
H230 C223 0.930 . S
C231 C232 1.351 . S
C231 N234 1.368 . S
C231 H236 0.931 . S
C232 C231 1.351 . S
C232 N233 1.373 . S
C232 H260 0.930 . S
N233 C232 1.373 . S
N233 C235 1.340 . S
N234 C231 1.368 . S
N234 C235 1.321 . S
N234 Co237 2.135 . S
C235 N233 1.340 . S
C235 N234 1.321 . S
C235 H259 0.930 . S
H236 C231 0.931 . S
Co237 N234 2.135 . S
Co237 N240 2.121 1_554 S
Co237 O245 2.055 1_554 S
Co237 O248 2.039 1_554 S
Co237 N251 2.140 . S
C238 O239 1.227 1_556 S
C238 O248 1.265 . S
O239 C238 1.227 1_554 S
N240 Co237 2.121 1_556 S
N240 C242 1.375 . S
N240 C243 1.313 . S
C241 C242 1.338 . S
C241 N244 1.377 . S
C241 H261 0.930 . S
C242 N240 1.375 . S
C242 C241 1.338 . S
C242 H246 0.931 . S
C243 N240 1.313 . S
C243 N244 1.344 . S
C243 H247 0.930 . S
N244 C241 1.377 . S
N244 C243 1.344 . S
O245 Co237 2.055 1_556 S
O245 C249 1.253 1_556 S
H246 C242 0.931 . S
H247 C243 0.930 . S
O248 Co237 2.039 1_556 S
O248 C238 1.265 . S
C249 O245 1.253 1_554 S
C249 O250 1.227 . S
O250 C249 1.227 . S
N251 Co237 2.140 . S
N251 C254 1.346 . S
N251 C255 1.345 . S
C252 C253 1.387 . S
C252 C256 1.391 . S
C253 C252 1.387 . S
C253 C254 1.369 . S
C253 H262 0.929 . S
C254 N251 1.346 . S
C254 C253 1.369 . S
C254 H257 0.928 . S
C255 N251 1.345 . S
C255 C256 1.371 . S
C255 H258 0.931 . S
C256 C252 1.391 . S
C256 C255 1.371 . S
C256 H263 0.930 . S
H257 C254 0.928 . S
H258 C255 0.931 . S
H259 C235 0.930 . S
H260 C232 0.930 . S
H261 C241 0.930 . S
H262 C253 0.929 . S
H263 C256 0.930 . S
C264 C265 1.351 . S
C264 N267 1.368 . S
C264 H269 0.931 . S
C265 C264 1.351 . S
C265 N266 1.373 . S
C265 H293 0.930 1_556 S
N266 C265 1.373 . S
N266 C268 1.340 . S
N267 C264 1.368 . S
N267 C268 1.321 . S
N267 Co270 2.135 . S
C268 N266 1.340 . S
C268 N267 1.321 . S
C268 H292 0.930 . S
H269 C264 0.931 . S
Co270 N267 2.135 . S
Co270 N273 2.121 . S
Co270 O278 2.055 . S
Co270 O281 2.039 . S
Co270 N284 2.140 . S
C271 O272 1.227 . S
C271 O281 1.265 . S
O272 C271 1.227 . S
N273 Co270 2.121 . S
N273 C275 1.375 . S
N273 C276 1.313 . S
C274 C275 1.338 . S
C274 N277 1.377 . S
C274 H294 0.930 . S
C275 N273 1.375 . S
C275 C274 1.338 . S
C275 H279 0.931 . S
C276 N273 1.313 . S
C276 N277 1.344 . S
C276 H280 0.930 . S
N277 C274 1.377 . S
N277 C276 1.344 . S
O278 Co270 2.055 . S
O278 C282 1.253 . S
H279 C275 0.931 . S
H280 C276 0.930 . S
O281 Co270 2.039 . S
O281 C271 1.265 . S
C282 O278 1.253 . S
C282 O283 1.227 . S
O283 C282 1.227 . S
N284 Co270 2.140 . S
N284 C287 1.346 . S
N284 C288 1.345 . S
C285 C286 1.387 . S
C285 C289 1.391 . S
C286 C285 1.387 . S
C286 C287 1.369 . S
C286 H295 0.929 1_556 S
C287 N284 1.346 . S
C287 C286 1.369 . S
C287 H290 0.928 . S
C288 N284 1.345 . S
C288 C289 1.371 . S
C288 H291 0.931 . S
C289 C285 1.391 . S
C289 C288 1.371 . S
C289 H296 0.930 . S
H290 C287 0.928 . S
H291 C288 0.931 . S
H292 C268 0.930 . S
H293 C265 0.930 1_554 S
H294 C274 0.930 . S
H295 C286 0.929 1_554 S
H296 C289 0.930 . S
C297 C298 1.351 . S
C297 N300 1.368 . S
C297 H302 0.931 . S
C298 C297 1.351 . S
C298 N299 1.373 . S
C298 H326 0.930 1_554 S
N299 C298 1.373 . S
N299 C301 1.340 . S
N300 C297 1.368 . S
N300 C301 1.321 . S
N300 Co303 2.135 . S
C301 N299 1.340 . S
C301 N300 1.321 . S
C301 H325 0.930 . S
H302 C297 0.931 . S
Co303 N300 2.135 . S
Co303 N306 2.121 . S
Co303 O311 2.055 . S
Co303 O314 2.039 . S
Co303 N317 2.140 . S
C304 O305 1.227 . S
C304 O314 1.265 . S
O305 C304 1.227 . S
N306 Co303 2.121 . S
N306 C308 1.375 . S
N306 C309 1.313 . S
C307 C308 1.338 . S
C307 N310 1.377 . S
C307 H327 0.930 . S
C308 N306 1.375 . S
C308 C307 1.338 . S
C308 H312 0.931 . S
C309 N306 1.313 . S
C309 N310 1.344 . S
C309 H313 0.930 . S
N310 C307 1.377 . S
N310 C309 1.344 . S
O311 Co303 2.055 . S
O311 C315 1.253 . S
H312 C308 0.931 . S
H313 C309 0.930 . S
O314 Co303 2.039 . S
O314 C304 1.265 . S
C315 O311 1.253 . S
C315 O316 1.227 . S
O316 C315 1.227 . S
N317 Co303 2.140 . S
N317 C320 1.346 . S
N317 C321 1.345 . S
C318 C319 1.387 . S
C318 C322 1.391 . S
C319 C318 1.387 . S
C319 C320 1.369 . S
C319 H328 0.929 1_554 S
C320 N317 1.346 . S
C320 C319 1.369 . S
C320 H323 0.928 . S
C321 N317 1.345 . S
C321 C322 1.371 . S
C321 H324 0.931 . S
C322 C318 1.391 . S
C322 C321 1.371 . S
C322 H329 0.930 . S
H323 C320 0.928 . S
H324 C321 0.931 . S
H325 C301 0.930 . S
H326 C298 0.930 1_556 S
H327 C307 0.930 . S
H328 C319 0.929 1_556 S
H329 C322 0.930 . S
C330 C331 1.351 . S
C330 N333 1.368 . S
C330 H335 0.931 . S
C331 C330 1.351 . S
C331 N332 1.373 . S
C331 H359 0.930 1_556 S
N332 C331 1.373 . S
N332 C334 1.340 . S
N333 C330 1.368 . S
N333 C334 1.321 . S
N333 Co336 2.135 . S
C334 N332 1.340 . S
C334 N333 1.321 . S
C334 H358 0.930 . S
H335 C330 0.931 . S
Co336 N333 2.135 . S
Co336 N339 2.121 . S
Co336 O344 2.055 . S
Co336 O347 2.039 . S
Co336 N350 2.140 . S
C337 O338 1.227 . S
C337 O347 1.265 . S
O338 C337 1.227 . S
N339 Co336 2.121 . S
N339 C341 1.375 . S
N339 C342 1.313 . S
C340 C341 1.338 . S
C340 N343 1.377 . S
C340 H360 0.930 . S
C341 N339 1.375 . S
C341 C340 1.338 . S
C341 H345 0.931 . S
C342 N339 1.313 . S
C342 N343 1.344 . S
C342 H346 0.930 . S
N343 C340 1.377 . S
N343 C342 1.344 . S
O344 Co336 2.055 . S
O344 C348 1.253 . S
H345 C341 0.931 . S
H346 C342 0.930 . S
O347 Co336 2.039 . S
O347 C337 1.265 . S
C348 O344 1.253 . S
C348 O349 1.227 . S
O349 C348 1.227 . S
N350 Co336 2.140 . S
N350 C353 1.346 . S
N350 C354 1.345 . S
C351 C352 1.387 . S
C351 C355 1.391 . S
C352 C351 1.387 . S
C352 C353 1.369 . S
C352 H361 0.929 1_556 S
C353 N350 1.346 . S
C353 C352 1.369 . S
C353 H356 0.928 . S
C354 N350 1.345 . S
C354 C355 1.371 . S
C354 H357 0.931 . S
C355 C351 1.391 . S
C355 C354 1.371 . S
C355 H362 0.930 . S
H356 C353 0.928 . S
H357 C354 0.931 . S
H358 C334 0.930 . S
H359 C331 0.930 1_554 S
H360 C340 0.930 . S
H361 C352 0.929 1_554 S
H362 C355 0.930 . S
C363 C364 1.351 . S
C363 N366 1.368 . S
C363 H368 0.931 . S
C364 C363 1.351 . S
C364 N365 1.373 . S
C364 H392 0.930 1_554 S
N365 C364 1.373 . S
N365 C367 1.340 . S
N366 C363 1.368 . S
N366 C367 1.321 . S
N366 Co369 2.135 . S
C367 N365 1.340 . S
C367 N366 1.321 . S
C367 H391 0.930 . S
H368 C363 0.931 . S
Co369 N366 2.135 . S
Co369 N372 2.121 . S
Co369 O377 2.055 . S
Co369 O380 2.039 . S
Co369 N383 2.140 . S
C370 O371 1.227 . S
C370 O380 1.265 . S
O371 C370 1.227 . S
N372 Co369 2.121 . S
N372 C374 1.375 . S
N372 C375 1.313 . S
C373 C374 1.338 . S
C373 N376 1.377 . S
C373 H393 0.930 . S
C374 N372 1.375 . S
C374 C373 1.338 . S
C374 H378 0.931 . S
C375 N372 1.313 . S
C375 N376 1.344 . S
C375 H379 0.930 . S
N376 C373 1.377 . S
N376 C375 1.344 . S
O377 Co369 2.055 . S
O377 C381 1.253 . S
H378 C374 0.931 . S
H379 C375 0.930 . S
O380 Co369 2.039 . S
O380 C370 1.265 . S
C381 O377 1.253 . S
C381 O382 1.227 . S
O382 C381 1.227 . S
N383 Co369 2.140 . S
N383 C386 1.346 . S
N383 C387 1.345 . S
C384 C385 1.387 . S
C384 C388 1.391 . S
C385 C384 1.387 . S
C385 C386 1.369 . S
C385 H394 0.929 1_554 S
C386 N383 1.346 . S
C386 C385 1.369 . S
C386 H389 0.928 . S
C387 N383 1.345 . S
C387 C388 1.371 . S
C387 H390 0.931 . S
C388 C384 1.391 . S
C388 C387 1.371 . S
C388 H395 0.930 . S
H389 C386 0.928 . S
H390 C387 0.931 . S
H391 C367 0.930 . S
H392 C364 0.930 1_556 S
H393 C373 0.930 . S
H394 C385 0.929 1_556 S
H395 C388 0.930 . S
C396 C397 1.351 1_565 S
C396 N399 1.370 . S
C396 H401 0.931 . S
C397 C396 1.351 1_545 S
C397 N398 1.373 . S
C397 H425 0.930 . S
N398 C397 1.373 . S
N398 C400 1.340 . S
N399 C396 1.370 . S
N399 C400 1.302 1_565 S
N399 Co402 2.152 . S
C400 N398 1.340 . S
C400 N399 1.302 1_545 S
C400 H424 0.930 . S
H401 C396 0.931 . S
Co402 N399 2.152 . S
Co402 N405 2.121 . S
Co402 O410 2.055 . S
Co402 O413 2.039 . S
Co402 N416 2.140 . S
C403 O404 1.227 . S
C403 O413 1.265 . S
O404 C403 1.227 . S
N405 Co402 2.121 . S
N405 C407 1.375 . S
N405 C408 1.313 . S
C406 C407 1.338 . S
C406 N409 1.377 . S
C406 H426 0.930 . S
C407 N405 1.375 . S
C407 C406 1.338 . S
C407 H411 0.931 . S
C408 N405 1.313 . S
C408 N409 1.344 . S
C408 H412 0.930 . S
N409 C406 1.377 . S
N409 C408 1.344 . S
O410 Co402 2.055 . S
O410 C414 1.253 . S
H411 C407 0.931 . S
H412 C408 0.930 . S
O413 Co402 2.039 . S
O413 C403 1.265 . S
C414 O410 1.253 . S
C414 O415 1.227 . S
O415 C414 1.227 . S
N416 Co402 2.140 . S
N416 C419 1.346 . S
N416 C420 1.345 . S
C417 C418 1.387 . S
C417 C421 1.391 . S
C418 C417 1.387 . S
C418 C419 1.369 . S
C418 H427 0.929 . S
C419 N416 1.346 . S
C419 C418 1.369 . S
C419 H422 0.928 . S
C420 N416 1.345 . S
C420 C421 1.371 . S
C420 H423 0.931 . S
C421 C417 1.391 . S
C421 C420 1.371 . S
C421 H428 0.930 . S
H422 C419 0.928 . S
H423 C420 0.931 . S
H424 C400 0.930 . S
H425 C397 0.930 . S
H426 C406 0.930 . S
H427 C418 0.929 . S
H428 C421 0.930 . S
C429 C430 1.351 1_655 S
C429 N432 1.370 . S
C429 H434 0.931 . S
C430 C429 1.351 1_455 S
C430 N431 1.373 . S
C430 H458 0.930 . S
N431 C430 1.373 . S
N431 C433 1.340 . S
N432 C429 1.370 . S
N432 C433 1.302 1_655 S
N432 Co435 2.152 . S
C433 N431 1.340 . S
C433 N432 1.302 1_455 S
C433 H457 0.930 . S
H434 C429 0.931 . S
Co435 N432 2.152 . S
Co435 N438 2.121 . S
Co435 O443 2.055 . S
Co435 O446 2.039 . S
Co435 N449 2.140 . S
C436 O437 1.227 . S
C436 O446 1.265 . S
O437 C436 1.227 . S
N438 Co435 2.121 . S
N438 C440 1.375 . S
N438 C441 1.313 . S
C439 C440 1.338 . S
C439 N442 1.377 . S
C439 H459 0.930 . S
C440 N438 1.375 . S
C440 C439 1.338 . S
C440 H444 0.931 . S
C441 N438 1.313 . S
C441 N442 1.344 . S
C441 H445 0.930 . S
N442 C439 1.377 . S
N442 C441 1.344 . S
O443 Co435 2.055 . S
O443 C447 1.253 . S
H444 C440 0.931 . S
H445 C441 0.930 . S
O446 Co435 2.039 . S
O446 C436 1.265 . S
C447 O443 1.253 . S
C447 O448 1.227 . S
O448 C447 1.227 . S
N449 Co435 2.140 . S
N449 C452 1.346 . S
N449 C453 1.345 . S
C450 C451 1.387 . S
C450 C454 1.391 . S
C451 C450 1.387 . S
C451 C452 1.369 . S
C451 H460 0.929 . S
C452 N449 1.346 . S
C452 C451 1.369 . S
C452 H455 0.928 . S
C453 N449 1.345 . S
C453 C454 1.371 . S
C453 H456 0.931 . S
C454 C450 1.391 . S
C454 C453 1.371 . S
C454 H461 0.930 . S
H455 C452 0.928 . S
H456 C453 0.931 . S
H457 C433 0.930 . S
H458 C430 0.930 . S
H459 C439 0.930 . S
H460 C451 0.929 . S
H461 C454 0.930 . S
C462 C463 1.351 1_545 S
C462 N465 1.370 . S
C462 H467 0.931 . S
C463 C462 1.351 1_565 S
C463 N464 1.373 . S
C463 H491 0.930 . S
N464 C463 1.373 . S
N464 C466 1.340 . S
N465 C462 1.370 . S
N465 C466 1.302 1_545 S
N465 Co468 2.152 . S
C466 N464 1.340 . S
C466 N465 1.302 1_565 S
C466 H490 0.930 . S
H467 C462 0.931 . S
Co468 N465 2.152 . S
Co468 N471 2.121 . S
Co468 O476 2.055 . S
Co468 O479 2.039 . S
Co468 N482 2.140 . S
C469 O470 1.227 . S
C469 O479 1.265 . S
O470 C469 1.227 . S
N471 Co468 2.121 . S
N471 C473 1.375 . S
N471 C474 1.313 . S
C472 C473 1.338 . S
C472 N475 1.377 . S
C472 H492 0.930 . S
C473 N471 1.375 . S
C473 C472 1.338 . S
C473 H477 0.931 . S
C474 N471 1.313 . S
C474 N475 1.344 . S
C474 H478 0.930 . S
N475 C472 1.377 . S
N475 C474 1.344 . S
O476 Co468 2.055 . S
O476 C480 1.253 . S
H477 C473 0.931 . S
H478 C474 0.930 . S
O479 Co468 2.039 . S
O479 C469 1.265 . S
C480 O476 1.253 . S
C480 O481 1.227 . S
O481 C480 1.227 . S
N482 Co468 2.140 . S
N482 C485 1.346 . S
N482 C486 1.345 . S
C483 C484 1.387 . S
C483 C487 1.391 . S
C484 C483 1.387 . S
C484 C485 1.369 . S
C484 H493 0.929 . S
C485 N482 1.346 . S
C485 C484 1.369 . S
C485 H488 0.928 . S
C486 N482 1.345 . S
C486 C487 1.371 . S
C486 H489 0.931 . S
C487 C483 1.391 . S
C487 C486 1.371 . S
C487 H494 0.930 . S
H488 C485 0.928 . S
H489 C486 0.931 . S
H490 C466 0.930 . S
H491 C463 0.930 . S
H492 C472 0.930 . S
H493 C484 0.929 . S
H494 C487 0.930 . S
C495 C496 1.351 1_455 S
C495 N498 1.370 . S
C495 H500 0.931 . S
C496 C495 1.351 1_655 S
C496 N497 1.373 . S
C496 H524 0.930 . S
N497 C496 1.373 . S
N497 C499 1.340 . S
N498 C495 1.370 . S
N498 C499 1.302 1_455 S
N498 Co501 2.152 . S
C499 N497 1.340 . S
C499 N498 1.302 1_655 S
C499 H523 0.930 . S
H500 C495 0.931 . S
Co501 N498 2.152 . S
Co501 N504 2.121 . S
Co501 O509 2.055 . S
Co501 O512 2.039 . S
Co501 N515 2.140 . S
C502 O503 1.227 . S
C502 O512 1.265 . S
O503 C502 1.227 . S
N504 Co501 2.121 . S
N504 C506 1.375 . S
N504 C507 1.313 . S
C505 C506 1.338 . S
C505 N508 1.377 . S
C505 H525 0.930 . S
C506 N504 1.375 . S
C506 C505 1.338 . S
C506 H510 0.931 . S
C507 N504 1.313 . S
C507 N508 1.344 . S
C507 H511 0.930 . S
N508 C505 1.377 . S
N508 C507 1.344 . S
O509 Co501 2.055 . S
O509 C513 1.253 . S
H510 C506 0.931 . S
H511 C507 0.930 . S
O512 Co501 2.039 . S
O512 C502 1.265 . S
C513 O509 1.253 . S
C513 O514 1.227 . S
O514 C513 1.227 . S
N515 Co501 2.140 . S
N515 C518 1.346 . S
N515 C519 1.345 . S
C516 C517 1.387 . S
C516 C520 1.391 . S
C517 C516 1.387 . S
C517 C518 1.369 . S
C517 H526 0.929 . S
C518 N515 1.346 . S
C518 C517 1.369 . S
C518 H521 0.928 . S
C519 N515 1.345 . S
C519 C520 1.371 . S
C519 H522 0.931 . S
C520 C516 1.391 . S
C520 C519 1.371 . S
C520 H527 0.930 . S
H521 C518 0.928 . S
H522 C519 0.931 . S
H523 C499 0.930 . S
H524 C496 0.930 . S
H525 C505 0.930 . S
H526 C517 0.929 . S
H527 C520 0.930 . S
N145 N13 2.963 . S
N46 N178 2.963 . S
N79 N211 2.963 . S
N112 N244 2.963 . S
N277 N409 2.963 . S
N442 N310 2.963 . S
N475 N343 2.963 . S
N376 N508 2.963 . S
C18 C480 3.032 . S
C51 C513 3.032 . S
C84 C414 3.032 . S
C447 C117 3.032 . S
C348 C150 3.032 . S
C183 C381 3.032 . S
C216 C282 3.032 . S
C249 C315 3.032 . S
C7 C73 2.771 1_445 S
C40 C106 2.771 1_465 S
C139 C205 2.771 1_455 S
C172 C238 2.771 1_565 S
C337 C271 2.771 . S
C370 C304 2.771 . S
C403 C469 2.771 1_565 S
C436 C502 2.771 1_655 S
C54 N2 1.331 . S
N35 C87 1.331 . S
C120 N68 1.331 . S
N101 C21 1.331 . S
C516 N134 1.331 . S
N167 C417 1.331 . S
N200 C450 1.331 . S
N233 C483 1.331 . S
N266 C318 1.331 1_556 S
C351 N299 1.331 1_556 S
N332 C384 1.331 1_556 S
N365 C285 1.331 1_554 S
C252 N398 1.331 . S
N431 C153 1.331 . S
N464 C186 1.331 . S
N497 C219 1.331 . S
