# Generated by pormake.
# Topology lcv-f, (3)-cn, num edge types: 1
# Building blocks:
#     Node 0, Type 0, BuildingBlock: OLANEW_clean_sbu_2, # of connection points: 3
#     Node 1, Type 0, BuildingBlock: OLANEW_clean_sbu_2, # of connection points: 3
#     Node 2, Type 0, BuildingBlock: OLANEW_clean_sbu_2, # of connection points: 3
#     Node 3, Type 0, BuildingBlock: OLANEW_clean_sbu_2, # of connection points: 3
#     Node 4, Type 0, BuildingBlock: OLANEW_clean_sbu_2, # of connection points: 3
#     Node 5, Type 0, BuildingBlock: OLANEW_clean_sbu_2, # of connection points: 3
#     Node 6, Type 0, BuildingBlock: OLANEW_clean_sbu_2, # of connection points: 3
#     Node 7, Type 0, BuildingBlock: OLANEW_clean_sbu_2, # of connection points: 3
#     Node 8, Type 0, BuildingBlock: OLANEW_clean_sbu_2, # of connection points: 3
#     Node 9, Type 0, BuildingBlock: OLANEW_clean_sbu_2, # of connection points: 3
#     Node 10, Type 0, BuildingBlock: OLANEW_clean_sbu_2, # of connection points: 3
#     Node 11, Type 0, BuildingBlock: OLANEW_clean_sbu_2, # of connection points: 3
#     Node 12, Type 0, BuildingBlock: OLANEW_clean_sbu_2, # of connection points: 3
#     Node 13, Type 0, BuildingBlock: OLANEW_clean_sbu_2, # of connection points: 3
#     Node 14, Type 0, BuildingBlock: OLANEW_clean_sbu_2, # of connection points: 3
#     Node 15, Type 0, BuildingBlock: OLANEW_clean_sbu_2, # of connection points: 3
#     Node 16, Type 0, BuildingBlock: OLANEW_clean_sbu_2, # of connection points: 3
#     Node 17, Type 0, BuildingBlock: OLANEW_clean_sbu_2, # of connection points: 3
#     Node 18, Type 0, BuildingBlock: OLANEW_clean_sbu_2, # of connection points: 3
#     Node 19, Type 0, BuildingBlock: OLANEW_clean_sbu_2, # of connection points: 3
#     Node 20, Type 0, BuildingBlock: OLANEW_clean_sbu_2, # of connection points: 3
#     Node 21, Type 0, BuildingBlock: OLANEW_clean_sbu_2, # of connection points: 3
#     Node 22, Type 0, BuildingBlock: OLANEW_clean_sbu_2, # of connection points: 3
#     Node 23, Type 0, BuildingBlock: OLANEW_clean_sbu_2, # of connection points: 3
#     Node 24, Type 0, BuildingBlock: OLANEW_clean_sbu_2, # of connection points: 3
#     Node 25, Type 0, BuildingBlock: OLANEW_clean_sbu_2, # of connection points: 3
#     Node 26, Type 0, BuildingBlock: OLANEW_clean_sbu_2, # of connection points: 3
#     Node 27, Type 0, BuildingBlock: OLANEW_clean_sbu_2, # of connection points: 3
#     Node 28, Type 0, BuildingBlock: OLANEW_clean_sbu_2, # of connection points: 3
#     Node 29, Type 0, BuildingBlock: OLANEW_clean_sbu_2, # of connection points: 3
#     Node 30, Type 0, BuildingBlock: OLANEW_clean_sbu_2, # of connection points: 3
#     Node 31, Type 0, BuildingBlock: OLANEW_clean_sbu_2, # of connection points: 3
#     Node 32, Type 0, BuildingBlock: OLANEW_clean_sbu_2, # of connection points: 3
#     Node 33, Type 0, BuildingBlock: OLANEW_clean_sbu_2, # of connection points: 3
#     Node 34, Type 0, BuildingBlock: OLANEW_clean_sbu_2, # of connection points: 3
#     Node 35, Type 0, BuildingBlock: OLANEW_clean_sbu_2, # of connection points: 3
#     Node 36, Type 0, BuildingBlock: OLANEW_clean_sbu_2, # of connection points: 3
#     Node 37, Type 0, BuildingBlock: OLANEW_clean_sbu_2, # of connection points: 3
#     Node 38, Type 0, BuildingBlock: OLANEW_clean_sbu_2, # of connection points: 3
#     Node 39, Type 0, BuildingBlock: OLANEW_clean_sbu_2, # of connection points: 3
#     Node 40, Type 0, BuildingBlock: OLANEW_clean_sbu_2, # of connection points: 3
#     Node 41, Type 0, BuildingBlock: OLANEW_clean_sbu_2, # of connection points: 3
#     Node 42, Type 0, BuildingBlock: OLANEW_clean_sbu_2, # of connection points: 3
#     Node 43, Type 0, BuildingBlock: OLANEW_clean_sbu_2, # of connection points: 3
#     Node 44, Type 0, BuildingBlock: OLANEW_clean_sbu_2, # of connection points: 3
#     Node 45, Type 0, BuildingBlock: OLANEW_clean_sbu_2, # of connection points: 3
#     Node 46, Type 0, BuildingBlock: OLANEW_clean_sbu_2, # of connection points: 3
#     Node 47, Type 0, BuildingBlock: OLANEW_clean_sbu_2, # of connection points: 3
#     Edge 48, Type (0, 0), BuildingBlock: UVAHIK_clean_linker_0, # of connection points: 2
#     Edge 49, Type (0, 0), BuildingBlock: UVAHIK_clean_linker_0, # of connection points: 2
#     Edge 50, Type (0, 0), BuildingBlock: UVAHIK_clean_linker_0, # of connection points: 2
#     Edge 51, Type (0, 0), BuildingBlock: UVAHIK_clean_linker_0, # of connection points: 2
#     Edge 52, Type (0, 0), BuildingBlock: UVAHIK_clean_linker_0, # of connection points: 2
#     Edge 53, Type (0, 0), BuildingBlock: UVAHIK_clean_linker_0, # of connection points: 2
#     Edge 54, Type (0, 0), BuildingBlock: UVAHIK_clean_linker_0, # of connection points: 2
#     Edge 55, Type (0, 0), BuildingBlock: UVAHIK_clean_linker_0, # of connection points: 2
#     Edge 56, Type (0, 0), BuildingBlock: UVAHIK_clean_linker_0, # of connection points: 2
#     Edge 57, Type (0, 0), BuildingBlock: UVAHIK_clean_linker_0, # of connection points: 2
#     Edge 58, Type (0, 0), BuildingBlock: UVAHIK_clean_linker_0, # of connection points: 2
#     Edge 59, Type (0, 0), BuildingBlock: UVAHIK_clean_linker_0, # of connection points: 2
#     Edge 60, Type (0, 0), BuildingBlock: UVAHIK_clean_linker_0, # of connection points: 2
#     Edge 61, Type (0, 0), BuildingBlock: UVAHIK_clean_linker_0, # of connection points: 2
#     Edge 62, Type (0, 0), BuildingBlock: UVAHIK_clean_linker_0, # of connection points: 2
#     Edge 63, Type (0, 0), BuildingBlock: UVAHIK_clean_linker_0, # of connection points: 2
#     Edge 64, Type (0, 0), BuildingBlock: UVAHIK_clean_linker_0, # of connection points: 2
#     Edge 65, Type (0, 0), BuildingBlock: UVAHIK_clean_linker_0, # of connection points: 2
#     Edge 66, Type (0, 0), BuildingBlock: UVAHIK_clean_linker_0, # of connection points: 2
#     Edge 67, Type (0, 0), BuildingBlock: UVAHIK_clean_linker_0, # of connection points: 2
#     Edge 68, Type (0, 0), BuildingBlock: UVAHIK_clean_linker_0, # of connection points: 2
#     Edge 69, Type (0, 0), BuildingBlock: UVAHIK_clean_linker_0, # of connection points: 2
#     Edge 70, Type (0, 0), BuildingBlock: UVAHIK_clean_linker_0, # of connection points: 2
#     Edge 71, Type (0, 0), BuildingBlock: UVAHIK_clean_linker_0, # of connection points: 2
#     Edge 72, Type (0, 0), BuildingBlock: UVAHIK_clean_linker_0, # of connection points: 2
#     Edge 73, Type (0, 0), BuildingBlock: UVAHIK_clean_linker_0, # of connection points: 2
#     Edge 74, Type (0, 0), BuildingBlock: UVAHIK_clean_linker_0, # of connection points: 2
#     Edge 75, Type (0, 0), BuildingBlock: UVAHIK_clean_linker_0, # of connection points: 2
#     Edge 76, Type (0, 0), BuildingBlock: UVAHIK_clean_linker_0, # of connection points: 2
#     Edge 77, Type (0, 0), BuildingBlock: UVAHIK_clean_linker_0, # of connection points: 2
#     Edge 78, Type (0, 0), BuildingBlock: UVAHIK_clean_linker_0, # of connection points: 2
#     Edge 79, Type (0, 0), BuildingBlock: UVAHIK_clean_linker_0, # of connection points: 2
#     Edge 80, Type (0, 0), BuildingBlock: UVAHIK_clean_linker_0, # of connection points: 2
#     Edge 81, Type (0, 0), BuildingBlock: UVAHIK_clean_linker_0, # of connection points: 2
#     Edge 82, Type (0, 0), BuildingBlock: UVAHIK_clean_linker_0, # of connection points: 2
#     Edge 83, Type (0, 0), BuildingBlock: UVAHIK_clean_linker_0, # of connection points: 2
#     Edge 84, Type (0, 0), BuildingBlock: UVAHIK_clean_linker_0, # of connection points: 2
#     Edge 85, Type (0, 0), BuildingBlock: UVAHIK_clean_linker_0, # of connection points: 2
#     Edge 86, Type (0, 0), BuildingBlock: UVAHIK_clean_linker_0, # of connection points: 2
#     Edge 87, Type (0, 0), BuildingBlock: UVAHIK_clean_linker_0, # of connection points: 2
#     Edge 88, Type (0, 0), BuildingBlock: UVAHIK_clean_linker_0, # of connection points: 2
#     Edge 89, Type (0, 0), BuildingBlock: UVAHIK_clean_linker_0, # of connection points: 2
#     Edge 90, Type (0, 0), BuildingBlock: UVAHIK_clean_linker_0, # of connection points: 2
#     Edge 91, Type (0, 0), BuildingBlock: UVAHIK_clean_linker_0, # of connection points: 2
#     Edge 92, Type (0, 0), BuildingBlock: UVAHIK_clean_linker_0, # of connection points: 2
#     Edge 93, Type (0, 0), BuildingBlock: UVAHIK_clean_linker_0, # of connection points: 2
#     Edge 94, Type (0, 0), BuildingBlock: UVAHIK_clean_linker_0, # of connection points: 2
#     Edge 95, Type (0, 0), BuildingBlock: UVAHIK_clean_linker_0, # of connection points: 2
#     Edge 96, Type (0, 0), BuildingBlock: UVAHIK_clean_linker_0, # of connection points: 2
#     Edge 97, Type (0, 0), BuildingBlock: UVAHIK_clean_linker_0, # of connection points: 2
#     Edge 98, Type (0, 0), BuildingBlock: UVAHIK_clean_linker_0, # of connection points: 2
#     Edge 99, Type (0, 0), BuildingBlock: UVAHIK_clean_linker_0, # of connection points: 2
#     Edge 100, Type (0, 0), BuildingBlock: UVAHIK_clean_linker_0, # of connection points: 2
#     Edge 101, Type (0, 0), BuildingBlock: UVAHIK_clean_linker_0, # of connection points: 2
#     Edge 102, Type (0, 0), BuildingBlock: UVAHIK_clean_linker_0, # of connection points: 2
#     Edge 103, Type (0, 0), BuildingBlock: UVAHIK_clean_linker_0, # of connection points: 2
#     Edge 104, Type (0, 0), BuildingBlock: UVAHIK_clean_linker_0, # of connection points: 2
#     Edge 105, Type (0, 0), BuildingBlock: UVAHIK_clean_linker_0, # of connection points: 2
#     Edge 106, Type (0, 0), BuildingBlock: UVAHIK_clean_linker_0, # of connection points: 2
#     Edge 107, Type (0, 0), BuildingBlock: UVAHIK_clean_linker_0, # of connection points: 2
#     Edge 108, Type (0, 0), BuildingBlock: UVAHIK_clean_linker_0, # of connection points: 2
#     Edge 109, Type (0, 0), BuildingBlock: UVAHIK_clean_linker_0, # of connection points: 2
#     Edge 110, Type (0, 0), BuildingBlock: UVAHIK_clean_linker_0, # of connection points: 2
#     Edge 111, Type (0, 0), BuildingBlock: UVAHIK_clean_linker_0, # of connection points: 2
#     Edge 112, Type (0, 0), BuildingBlock: UVAHIK_clean_linker_0, # of connection points: 2
#     Edge 113, Type (0, 0), BuildingBlock: UVAHIK_clean_linker_0, # of connection points: 2
#     Edge 114, Type (0, 0), BuildingBlock: UVAHIK_clean_linker_0, # of connection points: 2
#     Edge 115, Type (0, 0), BuildingBlock: UVAHIK_clean_linker_0, # of connection points: 2
#     Edge 116, Type (0, 0), BuildingBlock: UVAHIK_clean_linker_0, # of connection points: 2
#     Edge 117, Type (0, 0), BuildingBlock: UVAHIK_clean_linker_0, # of connection points: 2
#     Edge 118, Type (0, 0), BuildingBlock: UVAHIK_clean_linker_0, # of connection points: 2
#     Edge 119, Type (0, 0), BuildingBlock: UVAHIK_clean_linker_0, # of connection points: 2
# Relax obj value: 0.039
# Max RMSD: 0.002
# Mean RMSD: 0.002
data_MOF--net-lcv-f--node1-OLANEW_clean_sbu_2--edge1-UVAHIK_clean_linker_0
_symmetry_space_group_name_H-M    P1
_symmetry_Int_Tables_number       1
_symmetry_cell_setting            triclinic
loop_
_symmetry_equiv_pos_as_xyz
'x, y, z'
_cell_length_a     157.48645
_cell_length_b     157.50647
_cell_length_c     157.40771
_cell_angle_alpha  90.076009
_cell_angle_beta   90.146397
_cell_angle_gamma 90.042038
loop_
_atom_site_label
_atom_site_type_symbol
_atom_site_fract_x
_atom_site_fract_y
_atom_site_fract_z
_atom_type_partial_charge
O0 O 0.05943 0.04753 0.19407 0.0
Cd1 Cd 0.04526 0.04848 0.20032 0.0
O2 O 0.05794 0.03457 0.18901 0.0
Cd3 Cd 0.04608 0.03157 0.19555 0.0
O4 O 0.03945 0.0218 0.20287 0.0
C5 C 0.04009 0.01427 0.20002 0.0
O6 O 0.04413 0.01306 0.19282 0.0
C7 C 0.06231 0.04132 0.1898 0.0
C8 C 0.03825 0.06441 0.19685 0.0
O9 O 0.04298 0.06324 0.20338 0.0
O10 O 0.03673 0.05803 0.19202 0.0
O11 O 0.16553 0.80738 0.4353 0.0
Cd12 Cd 0.16452 0.79214 0.4381 0.0
O13 O 0.17872 0.80841 0.43988 0.0
Cd14 Cd 0.18098 0.79528 0.44374 0.0
O15 O 0.19021 0.78748 0.45058 0.0
C16 C 0.18996 0.78738 0.45865 0.0
O17 O 0.18371 0.79132 0.46251 0.0
C18 C 0.17211 0.81183 0.43674 0.0
C19 C 0.14771 0.78664 0.43655 0.0
O20 O 0.15072 0.78899 0.44375 0.0
O21 O 0.15267 0.78682 0.43011 0.0
O22 O 0.40364 0.9192 0.68859 0.0
Cd23 Cd 0.41798 0.91718 0.6942 0.0
O24 O 0.40466 0.93311 0.68768 0.0
Cd25 Cd 0.41712 0.93466 0.69362 0.0
O26 O 0.42447 0.94334 0.70163 0.0
C27 C 0.4237 0.94289 0.70965 0.0
O28 O 0.41911 0.93672 0.71289 0.0
C29 C 0.40042 0.92632 0.68658 0.0
C30 C 0.42336 0.90049 0.69147 0.0
O31 O 0.41905 0.90249 0.69808 0.0
O32 O 0.42521 0.9064 0.6862 0.0
O33 O 0.29592 0.15083 0.94434 0.0
Cd34 Cd 0.29696 0.16495 0.95073 0.0
O35 O 0.28366 0.15301 0.93798 0.0
Cd36 Cd 0.28071 0.16482 0.94465 0.0
O37 O 0.27109 0.17143 0.95218 0.0
C38 C 0.26353 0.17093 0.94939 0.0
O39 O 0.26219 0.16704 0.94211 0.0
C40 C 0.29005 0.1483 0.93939 0.0
C41 C 0.31319 0.17152 0.94788 0.0
O42 O 0.31164 0.16686 0.95436 0.0
O43 O 0.30703 0.1732 0.94282 0.0
O44 O 0.05776 0.91702 0.27261 0.0
Cd45 Cd 0.04369 0.91484 0.26635 0.0
O46 O 0.056 0.93074 0.2747 0.0
Cd47 Cd 0.04388 0.93224 0.26809 0.0
O48 O 0.03703 0.9411 0.25986 0.0
C49 C 0.03854 0.941 0.25193 0.0
O50 O 0.04356 0.93509 0.24887 0.0
C51 C 0.06052 0.92409 0.27541 0.0
C52 C 0.03777 0.89842 0.26956 0.0
O53 O 0.04245 0.9 0.2631 0.0
O54 O 0.03584 0.90461 0.27448 0.0
O55 O 0.29553 0.80861 0.52114 0.0
Cd56 Cd 0.29704 0.79462 0.51459 0.0
O57 O 0.28156 0.80834 0.52171 0.0
Cd58 Cd 0.27946 0.79634 0.51503 0.0
O59 O 0.27046 0.78908 0.50729 0.0
C60 C 0.26299 0.78834 0.51026 0.0
O61 O 0.26141 0.7914 0.51787 0.0
C62 C 0.28855 0.81209 0.52323 0.0
C63 C 0.31353 0.78862 0.5172 0.0
O64 O 0.31172 0.7933 0.5108 0.0
O65 O 0.30751 0.78666 0.5223 0.0
O66 O 0.40048 0.04648 0.76824 0.0
Cd67 Cd 0.41459 0.04753 0.76189 0.0
O68 O 0.40263 0.03416 0.77446 0.0
Cd69 Cd 0.41455 0.03138 0.76794 0.0
O70 O 0.42171 0.02217 0.76039 0.0
C71 C 0.42184 0.01461 0.76321 0.0
O72 O 0.41823 0.01303 0.77056 0.0
C73 C 0.39792 0.04057 0.77309 0.0
C74 C 0.42115 0.06374 0.76491 0.0
O75 O 0.41646 0.06223 0.75841 0.0
O76 O 0.42286 0.05755 0.76991 0.0
O77 O 0.16623 0.15387 0.02418 0.0
Cd78 Cd 0.1647 0.16788 0.01769 0.0
O79 O 0.18019 0.15415 0.02503 0.0
Cd80 Cd 0.18238 0.16611 0.01836 0.0
O81 O 0.19127 0.17297 0.0102 0.0
C82 C 0.19099 0.17174 0.00223 0.0
O83 O 0.18492 0.16694 -0.00092 0.0
C84 C 0.17318 0.15039 0.02639 0.0
C85 C 0.14808 0.17371 0.01983 0.0
O86 O 0.15009 0.16903 0.01348 0.0
O87 O 0.15395 0.17574 0.02511 0.0
O88 O 0.18806 0.05827 0.04516 0.0
Cd89 Cd 0.19284 0.04354 0.04611 0.0
O90 O 0.18753 0.05857 0.03117 0.0
Cd91 Cd 0.19337 0.04626 0.02854 0.0
O92 O 0.201 0.03921 0.01932 0.0
C93 C 0.20904 0.03995 0.01954 0.0
O94 O 0.21252 0.04435 0.02573 0.0
C95 C 0.18632 0.06217 0.0383 0.0
C96 C 0.19046 0.03759 0.06266 0.0
O97 O 0.19759 0.04076 0.06036 0.0
O98 O 0.18452 0.03711 0.05711 0.0
O99 O 0.15306 0.94039 0.294 0.0
Cd100 Cd 0.16743 0.94591 0.29606 0.0
O101 O 0.15264 0.94294 0.28024 0.0
Cd102 Cd 0.16512 0.94874 0.27842 0.0
O103 O 0.1722 0.95613 0.26904 0.0
C104 C 0.17181 0.9534 0.26145 0.0
O105 O 0.1678 0.94622 0.25998 0.0
C106 C 0.14912 0.94016 0.28694 0.0
C107 C 0.17259 0.94344 0.31288 0.0
O108 O 0.1684 0.95007 0.3107 0.0
O109 O 0.17444 0.93803 0.30709 0.0
O110 O 0.27167 0.90274 0.54579 0.0
Cd111 Cd 0.26501 0.91666 0.54748 0.0
O112 O 0.27271 0.90329 0.53185 0.0
Cd113 Cd 0.266 0.91524 0.52975 0.0
O114 O 0.25827 0.92224 0.52055 0.0
C115 C 0.26094 0.92214 0.51294 0.0
O116 O 0.26823 0.91841 0.51133 0.0
C117 C 0.274 0.89942 0.53882 0.0
C118 C 0.26709 0.92222 0.56422 0.0
O119 O 0.2608 0.91751 0.56209 0.0
O120 O 0.27233 0.92442 0.5584 0.0
O121 O 0.30938 0.0184 0.79616 0.0
Cd122 Cd 0.29533 0.01192 0.79749 0.0
O123 O 0.3055 0.02764 0.78644 0.0
Cd124 Cd 0.29355 0.0211 0.78376 0.0
O125 O 0.28677 0.01299 0.7747 0.0
C126 C 0.28986 0.00565 0.77339 0.0
O127 O 0.2964 0.0032 0.77795 0.0
C128 C 0.3111 0.02475 0.79149 0.0
C129 C 0.28858 0.01551 0.8135 0.0
O130 O 0.29336 0.00903 0.81232 0.0
O131 O 0.2869 0.02023 0.80709 0.0
O132 O 0.18725 0.90354 0.41855 0.0
Cd133 Cd 0.19383 0.9175 0.41677 0.0
O134 O 0.18308 0.90572 0.43171 0.0
Cd135 Cd 0.18986 0.91768 0.43361 0.0
O136 O 0.19823 0.92464 0.44228 0.0
C137 C 0.20622 0.92361 0.44174 0.0
O138 O 0.20925 0.91895 0.43553 0.0
C139 C 0.18336 0.90101 0.42514 0.0
C140 C 0.19141 0.92322 0.40015 0.0
O141 O 0.19773 0.91849 0.40209 0.0
O142 O 0.18628 0.92535 0.40609 0.0
O143 O 0.30724 0.93971 0.66957 0.0
Cd144 Cd 0.29274 0.94501 0.66791 0.0
O145 O 0.30712 0.94017 0.68356 0.0
Cd146 Cd 0.29456 0.94575 0.68546 0.0
O147 O 0.28738 0.95341 0.69455 0.0
C148 C 0.29006 0.96092 0.69585 0.0
O149 O 0.29639 0.96375 0.69121 0.0
C150 C 0.31094 0.93848 0.67665 0.0
C151 C 0.28703 0.94222 0.65132 0.0
O152 O 0.29125 0.94891 0.65326 0.0
O153 O 0.28543 0.93688 0.65724 0.0
O154 O 0.26627 0.06026 0.91565 0.0
Cd155 Cd 0.2594 0.04643 0.914 0.0
O156 O 0.27382 0.05667 0.92687 0.0
Cd157 Cd 0.26655 0.04514 0.92951 0.0
O158 O 0.25863 0.03885 0.93903 0.0
C159 C 0.26146 0.03903 0.9466 0.0
O160 O 0.26897 0.04241 0.94799 0.0
C161 C 0.27196 0.06202 0.92112 0.0
C162 C 0.26275 0.04005 0.89778 0.0
O163 O 0.25638 0.04492 0.89913 0.0
O164 O 0.26746 0.03808 0.90412 0.0
O165 O 0.15173 0.02062 0.16796 0.0
Cd166 Cd 0.16625 0.0153 0.16667 0.0
O167 O 0.15501 0.02958 0.17819 0.0
Cd168 Cd 0.16703 0.02328 0.1811 0.0
O169 O 0.17386 0.0151 0.19001 0.0
C170 C 0.17273 0.00712 0.18961 0.0
O171 O 0.16804 0.00402 0.18342 0.0
C172 C 0.14964 0.02669 0.17287 0.0
C173 C 0.17201 0.01785 0.15008 0.0
O174 O 0.1686 0.01079 0.15228 0.0
O175 O 0.17281 0.02364 0.15576 0.0
O176 O 0.04415 0.19215 0.06043 0.0
Cd177 Cd 0.04527 0.19826 0.0462 0.0
O178 O 0.03207 0.18548 0.0582 0.0
Cd179 Cd 0.02922 0.19196 0.04626 0.0
O180 O 0.02013 0.19998 0.03946 0.0
C181 C 0.0204 0.20797 0.04056 0.0
O182 O 0.02656 0.2112 0.0452 0.0
C183 C 0.03837 0.18714 0.06298 0.0
C184 C 0.06165 0.19548 0.03998 0.0
O185 O 0.05994 0.20201 0.04453 0.0
O186 O 0.05558 0.19033 0.03824 0.0
O187 O 0.54473 0.26968 0.90337 0.0
Cd188 Cd 0.54572 0.26454 0.91799 0.0
O189 O 0.53435 0.27855 0.9063 0.0
Cd190 Cd 0.53116 0.27237 0.9183 0.0
O191 O 0.52184 0.26441 0.92481 0.0
C192 C 0.52206 0.25642 0.92365 0.0
O193 O 0.52829 0.25318 0.91915 0.0
C194 C 0.53981 0.27567 0.9011 0.0
C195 C 0.56207 0.26744 0.92431 0.0
O196 O 0.56009 0.26031 0.9209 0.0
O197 O 0.55629 0.27314 0.92484 0.0
O198 O 0.94182 0.29352 0.15255 0.0
Cd199 Cd 0.94704 0.29472 0.16716 0.0
O200 O 0.93359 0.28262 0.15546 0.0
Cd201 Cd 0.9401 0.27957 0.16735 0.0
O202 O 0.94832 0.27037 0.17376 0.0
C203 C 0.95626 0.27059 0.17231 0.0
O204 O 0.9593 0.27674 0.16757 0.0
C205 C 0.93608 0.2883 0.15029 0.0
C206 C 0.9439 0.31107 0.17333 0.0
O207 O 0.95105 0.30918 0.16996 0.0
O208 O 0.93829 0.30521 0.17389 0.0
O209 O 0.91438 0.69481 0.40214 0.0
Cd210 Cd 0.91323 0.70114 0.41628 0.0
O211 O 0.92723 0.68959 0.40388 0.0
Cd212 Cd 0.93005 0.6963 0.41572 0.0
O213 O 0.93948 0.70409 0.42236 0.0
C214 C 0.94708 0.70139 0.42212 0.0
O215 O 0.94858 0.69404 0.41848 0.0
C216 C 0.92057 0.69043 0.39938 0.0
C217 C 0.89713 0.69774 0.4229 0.0
O218 O 0.89844 0.70423 0.41818 0.0
O219 O 0.90347 0.69293 0.42461 0.0
O220 O 0.0149 0.16592 0.15183 0.0
Cd221 Cd 0.00819 0.16453 0.16575 0.0
O222 O 0.02194 0.17762 0.15488 0.0
Cd223 Cd 0.01472 0.18057 0.16636 0.0
O224 O 0.00691 0.19033 0.17246 0.0
C225 C 0.00957 0.19791 0.17166 0.0
O226 O 0.01684 0.19919 0.16777 0.0
C227 C 0.02031 0.17155 0.14979 0.0
C228 C 0.01163 0.14839 0.17228 0.0
O229 O 0.0052 0.14969 0.16745 0.0
O230 O 0.01636 0.15475 0.17416 0.0
O231 O 0.41809 0.76941 0.55898 0.0
Cd232 Cd 0.41595 0.76302 0.54497 0.0
O233 O 0.43188 0.7711 0.55745 0.0
Cd234 Cd 0.43345 0.76445 0.54537 0.0
O235 O 0.44268 0.75664 0.53854 0.0
C236 C 0.45025 0.75945 0.53853 0.0
O237 O 0.45176 0.7669 0.542 0.0
C238 C 0.42518 0.77203 0.56184 0.0
C239 C 0.3995 0.76625 0.53911 0.0
O240 O 0.4011 0.75981 0.54381 0.0
O241 O 0.4057 0.77113 0.5371 0.0
O242 O 0.94173 0.66834 0.30998 0.0
Cd243 Cd 0.947 0.66685 0.29545 0.0
O244 O 0.93308 0.67882 0.30675 0.0
Cd245 Cd 0.9395 0.6817 0.2948 0.0
O246 O 0.9477 0.69074 0.28817 0.0
C247 C 0.95567 0.69042 0.28946 0.0
O248 O 0.95874 0.68427 0.29417 0.0
C249 C 0.9358 0.6734 0.31208 0.0
C250 C 0.9443 0.65018 0.28996 0.0
O251 O 0.95138 0.65239 0.29334 0.0
O252 O 0.93857 0.65587 0.28903 0.0
O253 O 0.51899 0.29555 0.81057 0.0
Cd254 Cd 0.51281 0.29661 0.79635 0.0
O255 O 0.52476 0.28295 0.80883 0.0
Cd256 Cd 0.51828 0.28003 0.79689 0.0
O257 O 0.5107 0.2705 0.79014 0.0
C258 C 0.51339 0.26291 0.79064 0.0
O259 O 0.52061 0.26149 0.79458 0.0
C260 C 0.52358 0.28953 0.81336 0.0
C261 C 0.51538 0.31307 0.79026 0.0
O262 O 0.50886 0.31123 0.79475 0.0
O263 O 0.5206 0.30708 0.78849 0.0
O264 O 0.55924 0.54609 0.69026 0.0
Cd265 Cd 0.5453 0.54763 0.69689 0.0
O266 O 0.55887 0.53212 0.68953 0.0
Cd267 Cd 0.54688 0.53 0.69615 0.0
O268 O 0.53972 0.52081 0.7037 0.0
C269 C 0.53951 0.51328 0.70079 0.0
O270 O 0.54301 0.51176 0.69337 0.0
C271 C 0.56266 0.53911 0.68809 0.0
C272 C 0.539 0.56398 0.69407 0.0
O273 O 0.54386 0.56239 0.70042 0.0
O274 O 0.53703 0.55782 0.68911 0.0
O275 O 0.6656 0.30898 0.94621 0.0
Cd276 Cd 0.66454 0.29432 0.95119 0.0
O277 O 0.67681 0.30638 0.9383 0.0
Cd278 Cd 0.68009 0.29451 0.94468 0.0
O279 O 0.69004 0.28838 0.95224 0.0
C280 C 0.69758 0.2894 0.94955 0.0
O281 O 0.69872 0.29349 0.94236 0.0
C282 C 0.67094 0.31139 0.94066 0.0
C283 C 0.64822 0.28816 0.94777 0.0
O284 O 0.65005 0.29146 0.95499 0.0
O285 O 0.65415 0.28765 0.94222 0.0
O286 O 0.90219 0.41531 0.19382 0.0
Cd287 Cd 0.91667 0.41369 0.19925 0.0
O288 O 0.90518 0.427 0.1868 0.0
Cd289 Cd 0.91704 0.42962 0.19357 0.0
O290 O 0.9236 0.43903 0.20148 0.0
C291 C 0.92353 0.44661 0.19872 0.0
O292 O 0.9201 0.4481 0.19125 0.0
C293 C 0.90002 0.42107 0.1886 0.0
C294 C 0.9225 0.39725 0.19593 0.0
O295 O 0.91905 0.3991 0.20306 0.0
O296 O 0.9233 0.40319 0.19043 0.0
O297 O 0.79525 0.65182 0.44327 0.0
Cd298 Cd 0.7962 0.66611 0.4493 0.0
O299 O 0.78357 0.65415 0.43595 0.0
Cd300 Cd 0.78064 0.66612 0.44232 0.0
O301 O 0.77153 0.67288 0.45033 0.0
C302 C 0.77178 0.67173 0.45832 0.0
O303 O 0.77791 0.66708 0.46154 0.0
C304 C 0.7897 0.6493 0.43796 0.0
C305 C 0.81242 0.67271 0.44641 0.0
O306 O 0.81086 0.66816 0.45297 0.0
O307 O 0.80628 0.67425 0.44127 0.0
O308 O 0.55897 0.41727 0.77339 0.0
Cd309 Cd 0.54483 0.41549 0.76716 0.0
O310 O 0.55747 0.43097 0.77572 0.0
Cd311 Cd 0.54521 0.43265 0.76942 0.0
O312 O 0.53786 0.44142 0.76153 0.0
C313 C 0.53853 0.44103 0.7535 0.0
O314 O 0.54305 0.43489 0.75013 0.0
C315 C 0.56189 0.42424 0.77626 0.0
C316 C 0.53873 0.39908 0.76997 0.0
O317 O 0.54341 0.40076 0.76355 0.0
O318 O 0.53687 0.40518 0.77504 0.0
O319 O 0.79488 0.30952 0.01959 0.0
Cd320 Cd 0.79592 0.2954 0.0132 0.0
O321 O 0.78236 0.30755 0.02546 0.0
Cd322 Cd 0.77949 0.29577 0.01869 0.0
O323 O 0.77043 0.2891 0.01048 0.0
C324 C 0.77058 0.29051 0.00254 0.0
O325 O 0.77659 0.2954 -0.00054 0.0
C326 C 0.78888 0.31216 0.0243 0.0
C327 C 0.81219 0.28887 0.01599 0.0
O328 O 0.81058 0.29355 0.00953 0.0
O329 O 0.80608 0.28716 0.02107 0.0
O330 O 0.90406 0.54386 0.27486 0.0
Cd331 Cd 0.91912 0.54543 0.27141 0.0
O332 O 0.90353 0.53023 0.27168 0.0
Cd333 Cd 0.91642 0.5282 0.26699 0.0
O334 O 0.9238 0.51907 0.25957 0.0
C335 C 0.92322 0.51929 0.25152 0.0
O336 O 0.91885 0.52545 0.24797 0.0
C337 C 0.89992 0.53694 0.27435 0.0
C338 C 0.92434 0.56227 0.27364 0.0
O339 O 0.92177 0.55959 0.26638 0.0
O340 O 0.9245 0.55697 0.27981 0.0
O341 O 0.66575 0.65195 0.51685 0.0
Cd342 Cd 0.66469 0.66608 0.51055 0.0
O343 O 0.67864 0.65349 0.52209 0.0
Cd344 Cd 0.68162 0.66532 0.51548 0.0
O345 O 0.69132 0.67183 0.50797 0.0
C346 C 0.69887 0.67129 0.5108 0.0
O347 O 0.70015 0.66744 0.51809 0.0
C348 C 0.67192 0.64909 0.52121 0.0
C349 C 0.64853 0.67265 0.51373 0.0
O350 O 0.64994 0.66795 0.50723 0.0
O351 O 0.6548 0.67438 0.51864 0.0
O352 O 0.69232 0.5594 0.5423 0.0
Cd353 Cd 0.69745 0.5448 0.5435 0.0
O354 O 0.68344 0.55636 0.53192 0.0
Cd355 Cd 0.68975 0.54441 0.52878 0.0
O356 O 0.6979 0.53791 0.5196 0.0
C357 C 0.70587 0.53913 0.51995 0.0
O358 O 0.70899 0.54369 0.52622 0.0
C359 C 0.68631 0.5616 0.53737 0.0
C360 C 0.69467 0.53902 0.56005 0.0
O361 O 0.70179 0.54232 0.55793 0.0
O362 O 0.68892 0.53832 0.55431 0.0
O363 O 0.65448 0.43831 0.79619 0.0
Cd364 Cd 0.66887 0.44376 0.79833 0.0
O365 O 0.65469 0.43988 0.78229 0.0
Cd366 Cd 0.66726 0.44555 0.78076 0.0
O367 O 0.67447 0.45324 0.77171 0.0
C368 C 0.67164 0.46065 0.77026 0.0
O369 O 0.66516 0.4634 0.77473 0.0
C370 C 0.65084 0.43762 0.789 0.0
C371 C 0.67407 0.44137 0.81515 0.0
O372 O 0.66985 0.44797 0.81295 0.0
O373 O 0.6759 0.43593 0.80938 0.0
O374 O 0.76595 0.40074 0.0469 0.0
Cd375 Cd 0.75934 0.41471 0.04833 0.0
O376 O 0.77366 0.40409 0.03576 0.0
Cd377 Cd 0.76661 0.41569 0.03291 0.0
O378 O 0.75872 0.42203 0.02337 0.0
C379 C 0.76137 0.42155 0.01576 0.0
O380 O 0.76871 0.41785 0.01433 0.0
C381 C 0.77165 0.39882 0.04153 0.0
C382 C 0.76278 0.42124 0.0645 0.0
O383 O 0.75634 0.41644 0.06317 0.0
O384 O 0.76753 0.42306 0.05816 0.0
O385 O 0.80798 0.52248 0.29432 0.0
Cd386 Cd 0.79391 0.51622 0.29631 0.0
O387 O 0.80634 0.52463 0.28059 0.0
Cd388 Cd 0.79426 0.51799 0.27893 0.0
O389 O 0.78734 0.50972 0.27013 0.0
C390 C 0.78859 0.50176 0.27043 0.0
O391 O 0.79344 0.49868 0.2765 0.0
C392 C 0.8108 0.52531 0.28731 0.0
C393 C 0.78778 0.51954 0.31264 0.0
O394 O 0.79249 0.51307 0.31116 0.0
O395 O 0.78592 0.52441 0.30639 0.0
O396 O 0.69072 0.40181 0.91989 0.0
Cd397 Cd 0.69691 0.416 0.91877 0.0
O398 O 0.6846 0.40374 0.9323 0.0
Cd399 Cd 0.69112 0.41567 0.93512 0.0
O400 O 0.69927 0.42248 0.94411 0.0
C401 C 0.70727 0.42146 0.94371 0.0
O402 O 0.71042 0.4169 0.93748 0.0
C403 C 0.68597 0.39911 0.92582 0.0
C404 C 0.69442 0.42203 0.90226 0.0
O405 O 0.70089 0.41747 0.90415 0.0
O406 O 0.6892 0.42388 0.90821 0.0
O407 O 0.81037 0.44323 0.16577 0.0
Cd408 Cd 0.79619 0.44945 0.16466 0.0
O409 O 0.80831 0.43717 0.17819 0.0
Cd410 Cd 0.7964 0.4437 0.18101 0.0
O411 O 0.78961 0.45123 0.19052 0.0
C412 C 0.78998 0.44846 0.1981 0.0
O413 O 0.79385 0.4412 0.19951 0.0
C414 C 0.81298 0.43847 0.17175 0.0
C415 C 0.78926 0.44593 0.14867 0.0
O416 O 0.79398 0.45246 0.14988 0.0
O417 O 0.78772 0.44112 0.15504 0.0
O418 O 0.76575 0.56062 0.41617 0.0
Cd419 Cd 0.75895 0.54678 0.41434 0.0
O420 O 0.77235 0.55747 0.4281 0.0
Cd421 Cd 0.76502 0.54597 0.43069 0.0
O422 O 0.75706 0.53969 0.4402 0.0
C423 C 0.75971 0.5402 0.44782 0.0
O424 O 0.76705 0.54391 0.44928 0.0
C425 C 0.77097 0.5626 0.42202 0.0
C426 C 0.76225 0.54086 0.39792 0.0
O427 O 0.75584 0.54562 0.39945 0.0
O428 O 0.76702 0.53875 0.40419 0.0
O429 O 0.654 0.52391 0.66562 0.0
Cd430 Cd 0.66867 0.51906 0.66419 0.0
O431 O 0.65451 0.52487 0.67957 0.0
Cd432 Cd 0.66692 0.51902 0.68163 0.0
O433 O 0.6741 0.51131 0.69072 0.0
C434 C 0.67127 0.50389 0.69216 0.0
O435 O 0.66478 0.50114 0.68767 0.0
C436 C 0.6505 0.52588 0.67262 0.0
C437 C 0.67425 0.52136 0.64751 0.0
O438 O 0.67106 0.51427 0.64989 0.0
O439 O 0.67489 0.52732 0.65303 0.0
O440 O 0.54656 0.69128 0.55949 0.0
Cd441 Cd 0.54717 0.69721 0.54515 0.0
O442 O 0.53447 0.68449 0.55767 0.0
Cd443 Cd 0.53136 0.69063 0.54562 0.0
O444 O 0.52221 0.69834 0.53856 0.0
C445 C 0.52258 0.70638 0.53914 0.0
O446 O 0.52888 0.70983 0.54341 0.0
C447 C 0.54088 0.68628 0.56228 0.0
C448 C 0.56341 0.69473 0.53846 0.0
O449 O 0.56169 0.70127 0.54299 0.0
O450 O 0.55741 0.68942 0.53698 0.0
O451 O 0.04189 0.76869 0.40238 0.0
Cd452 Cd 0.04282 0.76419 0.41721 0.0
O453 O 0.03078 0.7769 0.40439 0.0
Cd454 Cd 0.02762 0.77125 0.41665 0.0
O455 O 0.01854 0.76335 0.42356 0.0
C456 C 0.01898 0.75533 0.42275 0.0
O457 O 0.02528 0.75207 0.41836 0.0
C458 C 0.03666 0.77417 0.39959 0.0
C459 C 0.05947 0.76669 0.42285 0.0
O460 O 0.0571 0.75953 0.41977 0.0
O461 O 0.05391 0.7726 0.42343 0.0
O462 O 0.44056 0.79378 0.65386 0.0
Cd463 Cd 0.44619 0.7963 0.66813 0.0
O464 O 0.44253 0.77993 0.6542 0.0
Cd465 Cd 0.44844 0.77857 0.66669 0.0
O466 O 0.45592 0.76927 0.67381 0.0
C467 C 0.45306 0.76172 0.6737 0.0
O468 O 0.44572 0.76027 0.66997 0.0
C469 C 0.44001 0.78654 0.65031 0.0
C470 C 0.44349 0.81318 0.67292 0.0
O471 O 0.45009 0.81102 0.66868 0.0
O472 O 0.43822 0.80734 0.67498 0.0
O473 O 0.4154 0.19236 0.90312 0.0
Cd474 Cd 0.41407 0.19901 0.9171 0.0
O475 O 0.42938 0.19253 0.9028 0.0
Cd476 Cd 0.43188 0.19931 0.91467 0.0
O477 O 0.4414 0.20688 0.92145 0.0
C478 C 0.44895 0.20404 0.92118 0.0
O479 O 0.45032 0.19671 0.91743 0.0
C480 C 0.42232 0.19061 0.89937 0.0
C481 C 0.39795 0.19573 0.92375 0.0
O482 O 0.39926 0.20211 0.91889 0.0
O483 O 0.40429 0.19095 0.92557 0.0
O484 O 0.51959 0.66715 0.65196 0.0
Cd485 Cd 0.51327 0.66608 0.66609 0.0
O486 O 0.52828 0.67761 0.65523 0.0
Cd487 Cd 0.52177 0.68058 0.66711 0.0
O488 O 0.5139 0.68962 0.67411 0.0
C489 C 0.50587 0.68929 0.67333 0.0
O490 O 0.50249 0.68309 0.66886 0.0
C491 C 0.52564 0.67209 0.64993 0.0
C492 C 0.5159 0.64971 0.67237 0.0
O493 O 0.50941 0.65145 0.66777 0.0
O494 O 0.52108 0.65575 0.67414 0.0
O495 O 0.91458 0.26727 0.06002 0.0
Cd496 Cd 0.91336 0.26097 0.04587 0.0
O497 O 0.92755 0.27225 0.05846 0.0
Cd498 Cd 0.93041 0.26557 0.04663 0.0
O499 O 0.94007 0.25796 0.04015 0.0
C500 C 0.94763 0.26075 0.04066 0.0
O501 O 0.94895 0.26807 0.04447 0.0
C502 C 0.92084 0.27152 0.06287 0.0
C503 C 0.8972 0.26429 0.03927 0.0
O504 O 0.89857 0.25779 0.04396 0.0
O505 O 0.9035 0.26916 0.03758 0.0
O506 O 0.43797 0.16728 0.80885 0.0
Cd507 Cd 0.44467 0.1659 0.79492 0.0
O508 O 0.4361 0.18111 0.80805 0.0
Cd509 Cd 0.44291 0.18319 0.79616 0.0
O510 O 0.45124 0.1918 0.78915 0.0
C511 C 0.45922 0.19135 0.79032 0.0
O512 O 0.46225 0.18526 0.79515 0.0
C513 C 0.4352 0.17416 0.81204 0.0
C514 C 0.4424 0.14944 0.78868 0.0
O515 O 0.4487 0.15129 0.79351 0.0
O516 O 0.43722 0.1554 0.7867 0.0
O517 O 0.01578 0.79448 0.30963 0.0
Cd518 Cd 0.00933 0.79633 0.29561 0.0
O519 O 0.022 0.78228 0.30683 0.0
Cd520 Cd 0.01494 0.77973 0.29513 0.0
O521 O 0.00705 0.77012 0.28884 0.0
C522 C 0.00968 0.76252 0.28952 0.0
O523 O 0.01696 0.76114 0.29337 0.0
C524 C 0.02071 0.78849 0.31184 0.0
C525 C 0.01268 0.8128 0.28992 0.0
O526 O 0.00616 0.81118 0.2945 0.0
O527 O 0.01753 0.80659 0.28788 0.0
C528 C 0.03361 0.00799 0.21318 0.0
C529 C 0.03717 0.00689 0.20507 0.0
C530 C 0.03165 0.00094 0.21823 0.0
C531 C 0.02902 0.9774 0.21761 0.0
H532 H 0.0365 0.97869 0.24106 0.0
C533 C 0.03753 0.94803 0.2377 0.0
C534 C 0.0357 0.9481 0.24643 0.0
C535 C 0.03586 0.95515 0.23268 0.0
C536 C 0.03422 0.97825 0.23457 0.0
H537 H 0.04117 -0.00248 0.19579 0.0
H538 H 0.0379 -0.01469 0.20459 0.0
H539 H 0.03689 -0.00865 0.23223 0.0
H540 H 0.03029 0.95557 0.25666 0.0
H541 H 0.02736 0.968 0.24789 0.0
H542 H 0.02665 0.9642 0.2199 0.0
C543 C 0.0365 -0.00842 0.20704 0.0
C544 C 0.03444 -0.01447 0.2295 0.0
C545 C 0.03844 -0.00139 0.20201 0.0
C546 C 0.03181 0.95531 0.24996 0.0
C547 C 0.03017 0.96246 0.24495 0.0
C548 C 0.02883 0.97011 0.22268 0.0
C549 C 0.03322 -0.00735 0.21527 0.0
C550 C 0.03201 -0.01485 0.2209 0.0
C551 C 0.03235 0.96253 0.23629 0.0
C552 C 0.03159 0.97042 0.23117 0.0
H553 H 0.03251 0.01429 0.21571 0.0
H554 H 0.02902 0.00199 0.22449 0.0
H555 H 0.02695 0.97691 0.21106 0.0
H556 H 0.04051 0.94257 0.23477 0.0
H557 H 0.03768 0.95501 0.22606 0.0
C558 C 0.19711 0.78438 0.47255 0.0
C559 C 0.19725 0.78408 0.46363 0.0
C560 C 0.20439 0.78243 0.47726 0.0
C561 C 0.2275 0.7831 0.47517 0.0
H562 H 0.22712 0.77245 0.49736 0.0
C563 C 0.25733 0.78266 0.49643 0.0
C564 C 0.25595 0.78508 0.50492 0.0
C565 C 0.25049 0.78054 0.49115 0.0
C566 C 0.22733 0.77546 0.49118 0.0
H567 H 0.205 0.781 0.45267 0.0
H568 H 0.21769 0.77757 0.46091 0.0
H569 H 0.21438 0.77222 0.48849 0.0
H570 H 0.24631 0.78677 0.5146 0.0
H571 H 0.23443 0.78322 0.5054 0.0
H572 H 0.24031 0.78663 0.47797 0.0
C573 C 0.21198 0.77942 0.46425 0.0
C574 C 0.22003 0.77531 0.4861 0.0
C575 C 0.20469 0.78134 0.45954 0.0
C576 C 0.24761 0.78495 0.5081 0.0
C577 C 0.24078 0.78285 0.50282 0.0
C578 C 0.23478 0.78327 0.48027 0.0
C579 C 0.21197 0.78015 0.47315 0.0
C580 C 0.21998 0.77929 0.47811 0.0
C581 C 0.24211 0.7808 0.49423 0.0
C582 C 0.23473 0.77962 0.48841 0.0
H583 H 0.19148 0.78644 0.47591 0.0
H584 H 0.20418 0.78313 0.4841 0.0
H585 H 0.22765 0.78633 0.46911 0.0
H586 H 0.26368 0.78263 0.4938 0.0
H587 H 0.25174 0.77886 0.4846 0.0
C588 C 0.4245 -0.00087 0.76088 0.0
C589 C 0.42508 0.00753 0.75794 0.0
C590 C 0.42664 -0.00767 0.75561 0.0
C591 C 0.42782 -0.01312 0.73294 0.0
H592 H 0.43705 0.96575 0.74154 0.0
C593 C 0.43026 0.95729 0.71159 0.0
C594 C 0.42679 0.94988 0.71516 0.0
C595 C 0.43204 0.96436 0.71669 0.0
C596 C 0.43447 0.97161 0.73904 0.0
H597 H 0.4288 0.01538 0.74726 0.0
H598 H 0.43266 0.00349 0.73808 0.0
H599 H 0.43669 0.97825 0.75072 0.0
H600 H 0.42297 0.94392 0.72696 0.0
H601 H 0.42605 0.95622 0.73582 0.0
H602 H 0.42541 0.9802 0.72134 0.0
C603 C 0.43039 0.00216 0.74444 0.0
C604 C 0.43425 0.97877 0.7443 0.0
C605 C 0.42823 0.00898 0.74971 0.0
C606 C 0.42561 0.94953 0.724 0.0
C607 C 0.42742 0.95658 0.72909 0.0
C608 C 0.42807 0.97974 0.72767 0.0
C609 C 0.42945 -0.00626 0.74726 0.0
C610 C 0.43073 -0.01355 0.74138 0.0
C611 C 0.43045 0.96415 0.72547 0.0
C612 C 0.43122 0.97196 0.73072 0.0
H613 H 0.42211 -0.00223 0.76719 0.0
H614 H 0.42573 -0.01406 0.75798 0.0
H615 H 0.42495 -0.00736 0.7305 0.0
H616 H 0.43129 0.95777 0.70481 0.0
H617 H 0.43448 0.97006 0.71372 0.0
C618 C 0.19783 0.17305 -0.01207 0.0
C619 C 0.19804 0.17464 -0.00328 0.0
C620 C 0.20489 0.17479 -0.01713 0.0
C621 C 0.22803 0.17624 -0.0155 0.0
H622 H 0.22641 0.18409 0.96121 0.0
C623 C 0.25747 0.1772 0.96276 0.0
C624 C 0.25624 0.17381 0.95458 0.0
C625 C 0.2505 0.1791 0.96794 0.0
C626 C 0.22697 0.18186 0.9677 0.0
H627 H 0.20572 0.17973 0.007 0.0
H628 H 0.21804 0.1828 -0.00185 0.0
H629 H 0.21383 0.18425 0.97024 0.0
H630 H 0.24671 0.17008 0.94531 0.0
H631 H 0.23464 0.17324 0.95434 0.0
H632 H 0.24108 0.17356 -0.01809 0.0
C633 C 0.21243 0.1801 -0.0048 0.0
C634 C 0.21976 0.18196 0.97287 0.0
C635 C 0.20535 0.17839 0.00026 0.0
C636 C 0.2479 0.17267 0.95158 0.0
C637 C 0.24095 0.17455 0.95675 0.0
C638 C 0.23523 0.17611 0.97933 0.0
C639 C 0.21235 0.17816 -0.01352 0.0
C640 C 0.22017 0.179 -0.01872 0.0
C641 C 0.24216 0.17764 0.96505 0.0
C642 C 0.23475 0.17875 0.97081 0.0
H643 H 0.1923 0.17018 -0.01501 0.0
H644 H 0.20464 0.17315 0.97619 0.0
H645 H 0.22855 0.17381 -0.00909 0.0
H646 H 0.26381 0.1782 0.96525 0.0
H647 H 0.25166 0.18158 0.97425 0.0
C648 C 0.21047 0.03364 0.00495 0.0
C649 C 0.21429 0.03692 0.01235 0.0
C650 C 0.21536 0.03181 -0.00223 0.0
C651 C 0.23747 0.02862 -0.00975 0.0
H652 H 0.22893 0.03817 0.9692 0.0
C653 C 0.25921 0.03709 0.9622 0.0
C654 C 0.25611 0.03635 0.95385 0.0
C655 C 0.25395 0.03542 0.96913 0.0
C656 C 0.23136 0.0353 0.97497 0.0
H657 H 0.22632 0.04041 0.01813 0.0
H658 H 0.23482 0.03723 0.00564 0.0
H659 H 0.22 0.03823 -0.01821 0.0
H660 H 0.24513 0.03291 0.94624 0.0
H661 H 0.23596 0.02989 0.95837 0.0
H662 H 0.24891 0.02586 -0.01654 0.0
C663 C 0.22805 0.03605 0.00538 0.0
C664 C 0.22623 0.03534 -0.0178 0.0
C665 C 0.22316 0.03792 0.01254 0.0
C666 C 0.24771 0.03358 0.95259 0.0
C667 C 0.24244 0.0319 0.95954 0.0
C668 C 0.24259 0.02855 -0.01699 0.0
C669 C 0.22419 0.03315 -0.00215 0.0
C670 C 0.22929 0.03217 -0.01003 0.0
C671 C 0.24546 0.03295 0.9679 0.0
C672 C 0.23967 0.03206 0.97532 0.0
H673 H 0.20365 0.03276 0.0046 0.0
H674 H 0.21221 0.02948 -0.00789 0.0
H675 H 0.23996 0.026 -0.00389 0.0
H676 H 0.26564 0.03921 0.96341 0.0
H677 H 0.25647 0.03641 0.97547 0.0
C678 C 0.17827 0.96677 0.2556 0.0
C679 C 0.17485 0.95863 0.25425 0.0
C680 C 0.18023 0.97202 0.24871 0.0
C681 C 0.18304 0.97213 0.22516 0.0
H682 H 0.17488 -0.00472 0.22704 0.0
C683 C 0.17413 -0.00726 0.19626 0.0
C684 C 0.17565 0.00153 0.1966 0.0
C685 C 0.17591 -0.01241 0.20326 0.0
C686 C 0.17735 -0.01111 0.22644 0.0
H687 H 0.17119 0.94949 0.24458 0.0
H688 H 0.17446 0.95865 0.23263 0.0
H689 H 0.17469 -0.0139 0.23945 0.0
H690 H 0.18066 0.01173 0.20444 0.0
H691 H 0.18379 0.00271 0.21665 0.0
H692 H 0.18541 0.97487 0.21205 0.0
C693 C 0.17574 0.96097 0.23899 0.0
C694 C 0.17725 -0.01639 0.23358 0.0
C695 C 0.17379 0.95573 0.24586 0.0
C696 C 0.17937 0.00499 0.20397 0.0
C697 C 0.18112 -0.00017 0.21099 0.0
C698 C 0.18312 0.9774 0.21802 0.0
C699 C 0.17882 0.96925 0.24032 0.0
C700 C 0.17992 0.97512 0.23299 0.0
C701 C 0.17924 -0.00889 0.21078 0.0
C702 C 0.18012 -0.01421 0.21854 0.0
H703 H 0.17921 0.96918 0.26198 0.0
H704 H 0.18271 0.97832 0.24995 0.0
H705 H 0.18529 0.96567 0.22452 0.0
H706 H 0.17129 -0.01013 0.19068 0.0
H707 H 0.17431 -0.01909 0.20291 0.0
C708 C 0.20851 0.93017 0.45611 0.0
C709 C 0.21189 0.92657 0.44867 0.0
C710 C 0.21375 0.93189 0.4631 0.0
C711 C 0.23623 0.93401 0.46996 0.0
H712 H 0.2279 0.92503 0.4913 0.0
C713 C 0.25838 0.92442 0.49742 0.0
C714 C 0.25557 0.92524 0.50585 0.0
C715 C 0.25302 0.92643 0.49064 0.0
C716 C 0.23029 0.92775 0.48546 0.0
H717 H 0.2235 0.9224 0.44258 0.0
H718 H 0.23262 0.92539 0.45475 0.0
H719 H 0.21857 0.92538 0.47898 0.0
H720 H 0.24505 0.92924 0.51376 0.0
H721 H 0.23572 0.93288 0.5019 0.0
H722 H 0.24802 0.93621 0.47641 0.0
C723 C 0.22593 0.92691 0.45518 0.0
C724 C 0.22492 0.92793 0.47837 0.0
C725 C 0.22069 0.92515 0.44822 0.0
C726 C 0.24739 0.92848 0.50734 0.0
C727 C 0.24203 0.93052 0.50054 0.0
C728 C 0.24159 0.93386 0.47706 0.0
C729 C 0.22248 0.9301 0.46278 0.0
C730 C 0.22789 0.9309 0.4705 0.0
C731 C 0.24472 0.92935 0.4921 0.0
C732 C 0.23875 0.93054 0.48485 0.0
H733 H 0.20176 0.93138 0.45667 0.0
H734 H 0.21093 0.93446 0.46882 0.0
H735 H 0.23866 0.93645 0.46402 0.0
H736 H 0.26464 0.92194 0.49603 0.0
H737 H 0.25529 0.92535 0.48424 0.0
C738 C 0.29084 -0.00739 0.76436 0.0
C739 C 0.28692 0.00042 0.76611 0.0
C740 C 0.28888 -0.01188 0.75695 0.0
C741 C 0.28114 -0.00816 0.73525 0.0
H742 H 0.28219 0.96728 0.73398 0.0
C743 C 0.29041 0.97403 0.70482 0.0
C744 C 0.28698 0.96595 0.70318 0.0
C745 C 0.2884 0.97837 0.71229 0.0
C746 C 0.28172 0.97414 0.7342 0.0
H747 H 0.27751 0.00944 0.76166 0.0
H748 H 0.274 0.00154 0.74875 0.0
H749 H 0.28201 0.97424 0.7478 0.0
H750 H 0.27837 0.9563 0.70789 0.0
H751 H 0.27477 0.96395 0.72091 0.0
H752 H 0.28091 -0.00825 0.72165 0.0
C753 C 0.27871 -0.00104 0.75305 0.0
C754 C 0.28173 0.97813 0.74214 0.0
C755 C 0.28068 0.00346 0.76048 0.0
C756 C 0.28116 0.9625 0.70899 0.0
C757 C 0.27914 0.96686 0.71647 0.0
C758 C 0.28111 -0.01215 0.72731 0.0
C759 C 0.28293 -0.00867 0.75111 0.0
C760 C 0.28167 -0.01296 0.74276 0.0
C761 C 0.28289 0.97476 0.7183 0.0
C762 C 0.28164 0.97896 0.72669 0.0
H763 H 0.29567 -0.00993 0.76857 0.0
H764 H 0.29233 -0.01767 0.75563 0.0
H765 H 0.28114 -0.00129 0.73547 0.0
H766 H 0.29491 0.97689 0.70049 0.0
H767 H 0.29149 -0.0156 0.71351 0.0
C768 C 0.00595 0.20981 0.03403 0.0
C769 C 0.01328 0.21342 0.03767 0.0
C770 C -0.00117 0.21484 0.03229 0.0
C771 C -0.00854 0.23713 0.03009 0.0
H772 H 0.97018 0.22823 0.03866 0.0
C773 C 0.96327 0.25854 0.039 0.0
C774 C 0.95494 0.25552 0.03789 0.0
C775 C 0.97023 0.25335 0.03723 0.0
C776 C 0.97602 0.23076 0.03607 0.0
H777 H 0.01904 0.22521 0.0419 0.0
H778 H 0.00665 0.23395 0.0389 0.0
H779 H -0.01726 0.21923 0.03856 0.0
H780 H 0.9474 0.24478 0.03367 0.0
H781 H 0.95957 0.23572 0.03047 0.0
H782 H -0.01523 0.24873 0.02778 0.0
C783 C 0.00639 0.22725 0.03736 0.0
C784 C -0.01677 0.2256 0.03602 0.0
C785 C 0.01349 0.22222 0.03913 0.0
C786 C 0.95373 0.24728 0.03464 0.0
C787 C 0.96071 0.24208 0.03285 0.0
C788 C -0.01576 0.24229 0.03012 0.0
C789 C -0.00109 0.22358 0.0341 0.0
C790 C -0.00892 0.22878 0.0332 0.0
C791 C 0.96904 0.245 0.03428 0.0
C792 C 0.97647 0.23923 0.03328 0.0
H793 H 0.00559 0.20306 0.03279 0.0
H794 H -0.00679 0.21185 0.02968 0.0
H795 H -0.00262 0.23972 0.02776 0.0
H796 H 0.96444 0.26485 0.04149 0.0
H797 H 0.97653 0.25578 0.03851 0.0
C798 C 0.50744 0.25464 0.92973 0.0
C799 C 0.51484 0.25101 0.92631 0.0
C800 C 0.50025 0.24965 0.93123 0.0
C801 C 0.49266 0.22739 0.93313 0.0
H802 H 0.47168 0.23643 0.92392 0.0
C803 C 0.46455 0.20616 0.92333 0.0
C804 C 0.45622 0.20923 0.92419 0.0
C805 C 0.4715 0.21131 0.92532 0.0
C806 C 0.47743 0.23386 0.92669 0.0
H807 H 0.52062 0.2392 0.9222 0.0
H808 H 0.50809 0.23052 0.9248 0.0
H809 H 0.48429 0.24536 0.92443 0.0
H810 H 0.44866 0.22001 0.92818 0.0
H811 H 0.46081 0.22899 0.93176 0.0
H812 H 0.48584 0.21583 0.93522 0.0
C813 C 0.50785 0.23721 0.92635 0.0
C814 C 0.48467 0.23898 0.92698 0.0
C815 C 0.51502 0.24221 0.92482 0.0
C816 C 0.45499 0.21747 0.9274 0.0
C817 C 0.46196 0.22263 0.92941 0.0
C818 C 0.48541 0.22227 0.93287 0.0
C819 C 0.50031 0.24091 0.92939 0.0
C820 C 0.49242 0.23576 0.93003 0.0
C821 C 0.47031 0.21966 0.92824 0.0
C822 C 0.47775 0.22538 0.92948 0.0
H823 H 0.5071 0.26139 0.93098 0.0
H824 H 0.49458 0.25266 0.93368 0.0
H825 H 0.4985 0.22476 0.93564 0.0
H826 H 0.46574 0.19984 0.92088 0.0
H827 H 0.47782 0.20884 0.92423 0.0
C828 C 0.95835 0.25612 0.17867 0.0
C829 C 0.96181 0.26347 0.17497 0.0
C830 C 0.96345 0.24902 0.18023 0.0
C831 C -0.01416 0.24179 0.18186 0.0
H832 H 0.97682 0.22037 0.17367 0.0
C833 C 0.0072 0.21356 0.17292 0.0
C834 C 0.00427 0.20524 0.17426 0.0
C835 C 0.00199 0.22052 0.17462 0.0
C836 C 0.9794 0.22625 0.17615 0.0
H837 H 0.97343 0.26924 0.17038 0.0
H838 H -0.01769 0.25688 0.17308 0.0
H839 H 0.96776 0.23288 0.17388 0.0
H840 H -0.00634 0.19772 0.17878 0.0
H841 H -0.01543 0.20991 0.18184 0.0
H842 H -0.00247 0.23519 0.18397 0.0
C843 C 0.97566 0.25661 0.17482 0.0
C844 C 0.97419 0.23343 0.17627 0.0
C845 C 0.97056 0.26369 0.17322 0.0
C846 C -0.0039 0.20405 0.17764 0.0
C847 C -0.00913 0.21103 0.17934 0.0
C848 C -0.00896 0.23459 0.18178 0.0
C849 C 0.97214 0.24913 0.17817 0.0
C850 C 0.9774 0.24133 0.17896 0.0
C851 C -0.00629 0.21935 0.17773 0.0
C852 C -0.01207 0.22677 0.17875 0.0
H853 H 0.95164 0.25574 0.18012 0.0
H854 H 0.96057 0.24339 0.18292 0.0
H855 H -0.01154 0.24774 0.1841 0.0
H856 H 0.01346 0.21472 0.17033 0.0
H857 H 0.00435 0.22682 0.17318 0.0
C858 C 0.01229 0.741 0.42446 0.0
C859 C 0.01192 0.74984 0.42566 0.0
C860 C 0.00525 0.7359 0.42621 0.0
C861 C -0.01796 0.73719 0.42695 0.0
H862 H -0.01622 0.71428 0.43576 0.0
C863 C 0.95286 0.71506 0.42808 0.0
C864 C 0.95425 0.70679 0.42501 0.0
C865 C 0.95972 0.7204 0.42994 0.0
C866 C -0.01681 0.72066 0.43327 0.0
H867 H 0.00397 0.76019 0.43007 0.0
H868 H -0.00832 0.75126 0.43316 0.0
H869 H -0.00376 0.7235 0.43589 0.0
H870 H 0.96396 0.69754 0.42184 0.0
H871 H 0.97586 0.70686 0.42496 0.0
H872 H 0.96909 0.73428 0.42405 0.0
C873 C -0.0026 0.7483 0.43076 0.0
C874 C -0.00967 0.72594 0.43335 0.0
C875 C 0.00446 0.75341 0.42903 0.0
C876 C 0.96265 0.70388 0.42418 0.0
C877 C 0.96949 0.70921 0.42603 0.0
C878 C 0.97491 0.7319 0.42685 0.0
C879 C -0.00235 0.73951 0.4292 0.0
C880 C -0.01012 0.73421 0.43004 0.0
C881 C 0.96813 0.7176 0.42878 0.0
C882 C 0.97544 0.72351 0.42984 0.0
H883 H 0.01793 0.73804 0.42189 0.0
H884 H 0.00564 0.72917 0.42487 0.0
H885 H -0.0185 0.74349 0.42425 0.0
H886 H 0.94647 0.71748 0.42883 0.0
H887 H 0.95845 0.72679 0.43216 0.0
C888 C 0.51573 0.72057 0.53699 0.0
C889 C 0.51545 0.7117 0.53607 0.0
C890 C 0.50863 0.72553 0.53508 0.0
C891 C 0.48545 0.72395 0.53443 0.0
H892 H 0.48687 0.74656 0.52483 0.0
C893 C 0.45605 0.74571 0.53285 0.0
C894 C 0.45741 0.75408 0.53565 0.0
C895 C 0.46293 0.74038 0.53106 0.0
C896 C 0.48637 0.74027 0.52755 0.0
H897 H 0.50758 0.70112 0.53199 0.0
H898 H 0.49519 0.7098 0.52864 0.0
H899 H 0.49943 0.73748 0.52498 0.0
H900 H 0.46708 0.76353 0.53838 0.0
H901 H 0.47901 0.75426 0.53539 0.0
H902 H 0.4725 0.72681 0.53729 0.0
C903 C 0.50089 0.7129 0.53094 0.0
C904 C 0.49356 0.73507 0.52762 0.0
C905 C 0.50801 0.70794 0.53282 0.0
C906 C 0.46579 0.75711 0.53625 0.0
C907 C 0.47265 0.7518 0.53448 0.0
C908 C 0.47827 0.72916 0.53439 0.0
C909 C 0.50106 0.72174 0.53222 0.0
C910 C 0.49323 0.72691 0.53122 0.0
C911 C 0.47133 0.74332 0.53202 0.0
C912 C 0.47868 0.73745 0.5311 0.0
H913 H 0.52136 0.72368 0.53946 0.0
H914 H 0.50896 0.73231 0.53621 0.0
H915 H 0.485 0.71775 0.53736 0.0
H916 H 0.44968 0.74318 0.53227 0.0
H917 H 0.46168 0.73392 0.52905 0.0
C918 C 0.95779 0.70483 0.28298 0.0
C919 C 0.96124 0.69747 0.28666 0.0
C920 C 0.96294 0.71187 0.2813 0.0
C921 C -0.01464 0.7189 0.27931 0.0
H922 H 0.97673 0.7404 0.28764 0.0
C923 C 0.00717 0.7469 0.2881 0.0
C924 C 0.0043 0.75525 0.28686 0.0
C925 C 0.00186 0.73999 0.2864 0.0
C926 C 0.97919 0.7345 0.28512 0.0
H927 H 0.9729 0.69159 0.29107 0.0
H928 H -0.01815 0.70385 0.28817 0.0
H929 H 0.96753 0.72797 0.28755 0.0
H930 H -0.0063 0.76289 0.28249 0.0
H931 H -0.01555 0.7508 0.27942 0.0
H932 H -0.00292 0.7254 0.27705 0.0
C933 C 0.97517 0.70419 0.28654 0.0
C934 C 0.97391 0.72736 0.28507 0.0
C935 C 0.97002 0.69716 0.28825 0.0
C936 C -0.0039 0.75653 0.28356 0.0
C937 C -0.00923 0.74961 0.28185 0.0
C938 C -0.00936 0.72605 0.27933 0.0
C939 C 0.97166 0.71169 0.28321 0.0
C940 C 0.97699 0.71944 0.28233 0.0
C941 C -0.00645 0.74125 0.28339 0.0
C942 C -0.01233 0.7339 0.28241 0.0
H943 H 0.95105 0.70527 0.28164 0.0
H944 H 0.96006 0.71752 0.27863 0.0
H945 H -0.01212 0.71292 0.27704 0.0
H946 H 0.01345 0.74567 0.29063 0.0
H947 H 0.00418 0.73367 0.28777 0.0
C948 C 0.47365 0.19788 0.78889 0.0
C949 C 0.46487 0.19823 0.7873 0.0
C950 C 0.47886 0.20482 0.78704 0.0
C951 C 0.47769 0.22796 0.78532 0.0
H952 H 0.50094 0.22586 0.77757 0.0
C953 C 0.49998 0.25701 0.78424 0.0
C954 C 0.5081 0.25568 0.78771 0.0
C955 C 0.49469 0.25011 0.78234 0.0
C956 C 0.49447 0.22655 0.77977 0.0
H957 H 0.45476 0.20601 0.78209 0.0
H958 H 0.46386 0.21812 0.77884 0.0
H959 H 0.49168 0.21342 0.77751 0.0
H960 H 0.51717 0.24604 0.79154 0.0
H961 H 0.50795 0.23409 0.78837 0.0
H962 H 0.48053 0.24099 0.78788 0.0
C963 C 0.46669 0.2125 0.78162 0.0
C964 C 0.48916 0.21943 0.77972 0.0
C965 C 0.46149 0.20554 0.78344 0.0
C966 C 0.51095 0.24731 0.78889 0.0
C967 C 0.50567 0.24043 0.78701 0.0
C968 C 0.483 0.23507 0.78539 0.0
C969 C 0.47541 0.21229 0.78357 0.0
C970 C 0.48076 0.22001 0.78265 0.0
C971 C 0.49741 0.24174 0.78386 0.0
C972 C 0.49151 0.23442 0.78279 0.0
H973 H 0.47648 0.19235 0.79184 0.0
H974 H 0.48553 0.20448 0.78869 0.0
H975 H 0.47129 0.22861 0.78773 0.0
H976 H 0.49761 0.26338 0.78321 0.0
H977 H 0.48841 0.25134 0.77981 0.0
C978 C 0.53334 0.50752 0.71432 0.0
C979 C 0.53633 0.50614 0.70603 0.0
C980 C 0.53126 0.50064 0.71955 0.0
C981 C 0.52741 0.47724 0.71946 0.0
H982 H 0.53667 0.47846 0.74227 0.0
C983 C 0.53644 0.44782 0.73926 0.0
C984 C 0.53537 0.44808 0.74812 0.0
C985 C 0.53454 0.45491 0.73428 0.0
C986 C 0.53389 0.47805 0.73598 0.0
H987 H 0.5391 0.49648 0.6966 0.0
H988 H 0.53564 0.48456 0.70571 0.0
H989 H 0.53695 0.49099 0.73327 0.0
H990 H 0.53102 0.45586 0.75863 0.0
H991 H 0.5277 0.46823 0.74992 0.0
H992 H 0.52467 0.46418 0.72211 0.0
C993 C 0.53478 0.49092 0.70818 0.0
C994 C 0.53404 0.48525 0.73081 0.0
C995 C 0.53683 0.49778 0.70296 0.0
C996 C 0.53196 0.45545 0.75183 0.0
C997 C 0.5301 0.46256 0.74685 0.0
C998 C 0.52729 0.47002 0.72463 0.0
C999 C 0.53214 0.49225 0.7166 0.0
C1000 C 0.53097 0.48489 0.72242 0.0
C1001 C 0.53156 0.46244 0.73804 0.0
C1002 C 0.5307 0.4703 0.73289 0.0
H1003 H 0.53282 0.51389 0.71687 0.0
H1004 H 0.52912 0.5019 0.72596 0.0
H1005 H 0.52485 0.47677 0.71309 0.0
H1006 H 0.53903 0.44224 0.73619 0.0
H1007 H 0.53581 0.45463 0.72752 0.0
C1008 C 0.75629 0.2837 0.00049 0.0
C1009 C 0.7635 0.28764 -0.00299 0.0
C1010 C 0.7492 0.28192 -0.00459 0.0
C1011 C 0.74186 0.28011 0.97303 0.0
H1012 H 0.72028 0.28762 -0.01784 0.0
C1013 C 0.71328 0.28845 0.95181 0.0
C1014 C 0.70501 0.28687 0.95476 0.0
C1015 C 0.72032 0.28687 0.95699 0.0
C1016 C 0.72621 0.28533 0.97955 0.0
H1017 H 0.76906 0.2924 -0.01464 0.0
H1018 H 0.75673 0.28932 0.97652 0.0
H1019 H 0.73286 0.28774 -0.00882 0.0
H1020 H 0.69768 0.28205 0.96536 0.0
H1021 H 0.71 0.27919 0.97438 0.0
H1022 H 0.73525 0.27787 0.96135 0.0
C1023 C 0.75655 0.28757 -0.01683 0.0
C1024 C 0.73344 0.2854 -0.01527 0.0
C1025 C 0.76361 0.28939 -0.01175 0.0
C1026 C 0.70396 0.28337 0.9629 0.0
C1027 C 0.71102 0.28178 0.96809 0.0
C1028 C 0.73463 0.28001 0.96786 0.0
C1029 C 0.74919 0.28398 -0.01328 0.0
C1030 C 0.74138 0.28296 -0.01851 0.0
C1031 C 0.71928 0.28365 0.96525 0.0
C1032 C 0.72675 0.28279 0.971 0.0
H1033 H 0.756 0.28224 0.00721 0.0
H1034 H 0.74367 0.27905 -0.00168 0.0
H1035 H 0.74786 0.27807 0.97038 0.0
H1036 H 0.71433 0.29114 0.94558 0.0
H1037 H 0.72656 0.28849 0.95462 0.0
C1038 C 0.92911 0.45245 0.21254 0.0
C1039 C 0.92636 0.45379 0.20414 0.0
C1040 C 0.93091 0.45934 0.21787 0.0
C1041 C 0.93469 0.48274 0.21794 0.0
H1042 H 0.92484 0.4816 0.24045 0.0
C1043 C 0.9255 0.51232 0.2374 0.0
C1044 C 0.92634 0.51211 0.24629 0.0
C1045 C 0.92739 0.50516 0.2325 0.0
C1046 C 0.92778 0.48199 0.23425 0.0
H1047 H 0.9237 0.46344 0.19467 0.0
H1048 H 0.92672 0.47539 0.20395 0.0
H1049 H 0.92476 0.46904 0.23143 0.0
H1050 H 0.93026 0.50433 0.25696 0.0
H1051 H 0.93357 0.49183 0.2484 0.0
H1052 H 0.93742 0.49578 0.22068 0.0
C1053 C 0.92759 0.46904 0.20642 0.0
C1054 C 0.92774 0.47477 0.22907 0.0
C1055 C 0.92579 0.46216 0.2011 0.0
C1056 C 0.9295 0.5047 0.25013 0.0
C1057 C 0.93135 0.49751 0.24524 0.0
C1058 C 0.9347 0.48996 0.22311 0.0
C1059 C 0.93002 0.46773 0.21492 0.0
C1060 C 0.93103 0.4751 0.22078 0.0
C1061 C 0.93014 0.4976 0.23638 0.0
C1062 C 0.93109 0.48972 0.23126 0.0
H1063 H 0.92965 0.44608 0.21506 0.0
H1064 H 0.93289 0.45811 0.22435 0.0
H1065 H 0.93742 0.48317 0.21164 0.0
H1066 H 0.9231 0.51792 0.23422 0.0
H1067 H 0.9263 0.50543 0.22571 0.0
C1068 C 0.75735 0.67824 0.46016 0.0
C1069 C 0.76466 0.67459 0.46376 0.0
C1070 C 0.75022 0.67995 0.46517 0.0
C1071 C 0.7428 0.682 0.48746 0.0
H1072 H 0.72152 0.67349 0.47838 0.0
C1073 C 0.71452 0.67296 0.50867 0.0
C1074 C 0.7062 0.6741 0.50562 0.0
C1075 C 0.7215 0.67475 0.50352 0.0
C1076 C 0.72735 0.67607 0.48097 0.0
H1077 H 0.77037 0.67028 0.47555 0.0
H1078 H 0.75797 0.67322 0.48426 0.0
H1079 H 0.7341 0.67365 0.46944 0.0
H1080 H 0.69871 0.6784 0.49488 0.0
H1081 H 0.71092 0.68164 0.48591 0.0
H1082 H 0.73609 0.68423 0.49906 0.0
C1083 C 0.75773 0.67481 0.47757 0.0
C1084 C 0.73458 0.67615 0.47583 0.0
C1085 C 0.76484 0.67307 0.47256 0.0
C1086 C 0.70503 0.6774 0.49741 0.0
C1087 C 0.71203 0.67921 0.49225 0.0
C1088 C 0.73556 0.68194 0.49259 0.0
C1089 C 0.75028 0.67809 0.47391 0.0
C1090 C 0.74243 0.67895 0.47907 0.0
C1091 C 0.72035 0.67776 0.49519 0.0
C1092 C 0.72779 0.6788 0.48947 0.0
H1093 H 0.75701 0.67953 0.45341 0.0
H1094 H 0.74461 0.68258 0.46218 0.0
H1095 H 0.74872 0.68431 0.49011 0.0
H1096 H 0.71566 0.67042 0.51496 0.0
H1097 H 0.72779 0.67345 0.50597 0.0
C1098 C 0.7202 0.53797 0.51318 0.0
C1099 C 0.71141 0.53644 0.51284 0.0
C1100 C 0.72532 0.53637 0.50612 0.0
C1101 C 0.72399 0.5354 0.4829 0.0
H1102 H 0.74712 0.52717 0.48468 0.0
C1103 C 0.74608 0.53429 0.45368 0.0
C1104 C 0.75432 0.53748 0.45504 0.0
C1105 C 0.74077 0.5325 0.46057 0.0
C1106 C 0.74069 0.52951 0.48408 0.0
H1107 H 0.70118 0.53166 0.50491 0.0
H1108 H 0.71013 0.52886 0.49259 0.0
H1109 H 0.73795 0.52696 0.49716 0.0
H1110 H 0.76352 0.54098 0.46471 0.0
H1111 H 0.75427 0.53798 0.47665 0.0
H1112 H 0.72678 0.53822 0.46992 0.0
C1113 C 0.71304 0.53138 0.4983 0.0
C1114 C 0.73543 0.52938 0.49123 0.0
C1115 C 0.70792 0.53294 0.50538 0.0
C1116 C 0.75722 0.53854 0.46342 0.0
C1117 C 0.75192 0.53676 0.47029 0.0
C1118 C 0.72925 0.53556 0.47576 0.0
C1119 C 0.72177 0.53323 0.49853 0.0
C1120 C 0.72707 0.53248 0.49076 0.0
C1121 C 0.74358 0.53385 0.46896 0.0
C1122 C 0.73772 0.53277 0.4763 0.0
H1123 H 0.72311 0.54064 0.51883 0.0
H1124 H 0.73201 0.53794 0.50649 0.0
H1125 H 0.71763 0.53794 0.48235 0.0
H1126 H 0.74366 0.53337 0.4473 0.0
H1127 H 0.73442 0.53016 0.45932 0.0
C1128 C 0.68051 0.50226 0.70511 0.0
C1129 C 0.6744 0.49889 0.6995 0.0
C1130 C 0.68261 0.49796 0.71261 0.0
C1131 C 0.68024 0.47724 0.72384 0.0
H1132 H 0.68039 0.49127 0.7441 0.0
C1133 C 0.68074 0.46225 0.75726 0.0
C1134 C 0.67472 0.46564 0.76291 0.0
C1135 C 0.68277 0.46653 0.74974 0.0
C1136 C 0.68038 0.48725 0.73851 0.0
H1137 H 0.66607 0.48816 0.69716 0.0
H1138 H 0.66963 0.48077 0.71021 0.0
H1139 H 0.6801 0.49795 0.73017 0.0
H1140 H 0.66648 0.4764 0.7653 0.0
H1141 H 0.66992 0.48377 0.75222 0.0
H1142 H 0.68001 0.46654 0.73219 0.0
C1143 C 0.67288 0.48667 0.70882 0.0
C1144 C 0.68032 0.49109 0.73051 0.0
C1145 C 0.67078 0.49095 0.70134 0.0
C1146 C 0.67112 0.47359 0.76109 0.0
C1147 C 0.67315 0.47786 0.75359 0.0
C1148 C 0.68028 0.4734 0.73185 0.0
C1149 C 0.67867 0.49021 0.71464 0.0
C1150 C 0.68002 0.48613 0.72307 0.0
C1151 C 0.67885 0.4743 0.74772 0.0
C1152 C 0.68011 0.47836 0.73928 0.0
H1153 H 0.68346 0.50834 0.70386 0.0
H1154 H 0.6872 0.5008 0.71689 0.0
H1155 H 0.68015 0.47323 0.71825 0.0
H1156 H 0.68366 0.45615 0.75849 0.0
H1157 H 0.68728 0.46366 0.74542 0.0
C1158 C 0.70934 0.42792 0.95816 0.0
C1159 C 0.71283 0.42436 0.95076 0.0
C1160 C 0.71448 0.42966 0.96521 0.0
C1161 C 0.73689 0.43201 0.97227 0.0
H1162 H 0.72842 0.42327 -0.00635 0.0
C1163 C 0.75885 0.42321 0.00015 0.0
C1164 C 0.75597 0.42427 0.00853 0.0
C1165 C 0.75352 0.42494 -0.00673 0.0
C1166 C 0.73083 0.42591 -0.01221 0.0
H1167 H 0.72454 0.42026 0.94481 0.0
H1168 H 0.73349 0.42327 0.95709 0.0
H1169 H 0.7192 0.42335 -0.01878 0.0
H1170 H 0.74533 0.42835 0.01623 0.0
H1171 H 0.73603 0.43148 0.00419 0.0
H1172 H 0.74859 0.4344 0.97881 0.0
C1173 C 0.72678 0.42475 0.95745 0.0
C1174 C 0.72554 0.42595 0.98065 0.0
C1175 C 0.72164 0.42298 0.95042 0.0
C1176 C 0.74773 0.42742 0.00986 0.0
C1177 C 0.74239 0.42917 0.00295 0.0
C1178 C 0.74217 0.432 0.97943 0.0
C1179 C 0.72323 0.42794 0.965 0.0
C1180 C 0.72856 0.42883 0.97276 0.0
C1181 C 0.74517 0.4278 -0.00543 0.0
C1182 C 0.73927 0.42878 -0.01277 0.0
H1183 H 0.70258 0.4291 0.95863 0.0
H1184 H 0.71158 0.43222 0.9709 0.0
H1185 H 0.73936 0.4344 0.96632 0.0
H1186 H 0.76516 0.42079 -0.00111 0.0
H1187 H 0.75586 0.4237 -0.01308 0.0
C1188 C 0.78728 0.48741 0.26365 0.0
C1189 C 0.78569 0.49619 0.26339 0.0
C1190 C 0.78555 0.4823 0.25659 0.0
C1191 C 0.78425 0.48377 0.23343 0.0
H1192 H 0.77639 0.4605 0.23504 0.0
C1193 C 0.78361 0.46184 0.20403 0.0
C1194 C 0.78699 0.45369 0.20533 0.0
C1195 C 0.78163 0.46706 0.21096 0.0
C1196 C 0.77862 0.46697 0.23448 0.0
H1197 H 0.78063 0.5064 0.25565 0.0
H1198 H 0.77761 0.49746 0.24333 0.0
H1199 H 0.77613 0.4696 0.2476 0.0
H1200 H 0.79059 0.44449 0.21494 0.0
H1201 H 0.78728 0.45358 0.22695 0.0
H1202 H 0.78705 0.48109 0.22041 0.0
C1203 C 0.78028 0.49456 0.24897 0.0
C1204 C 0.77846 0.47219 0.24168 0.0
C1205 C 0.78196 0.49967 0.25605 0.0
C1206 C 0.78801 0.45074 0.2137 0.0
C1207 C 0.78605 0.45594 0.22061 0.0
C1208 C 0.78445 0.47855 0.22624 0.0
C1209 C 0.78222 0.48585 0.24909 0.0
C1210 C 0.78143 0.48059 0.24127 0.0
C1211 C 0.78298 0.46423 0.21934 0.0
C1212 C 0.7818 0.47003 0.22671 0.0
H1213 H 0.79012 0.48452 0.26921 0.0
H1214 H 0.7872 0.47563 0.25687 0.0
H1215 H 0.7867 0.49018 0.23292 0.0
H1216 H 0.7827 0.46429 0.19767 0.0
H1217 H 0.77917 0.47336 0.20976 0.0
C1218 C 0.49164 0.69613 0.67527 0.0
C1219 C 0.50049 0.69637 0.67641 0.0
C1220 C 0.48666 0.70321 0.6772 0.0
C1221 C 0.48829 0.72636 0.67831 0.0
H1222 H 0.46545 0.72484 0.68732 0.0
C1223 C 0.4666 0.75579 0.67975 0.0
C1224 C 0.4583 0.7545 0.6767 0.0
C1225 C 0.47185 0.74887 0.68161 0.0
C1226 C 0.47181 0.72537 0.68477 0.0
H1227 H 0.511 0.70412 0.6809 0.0
H1228 H 0.50227 0.71646 0.68428 0.0
H1229 H 0.4745 0.71226 0.68718 0.0
H1230 H 0.44889 0.74491 0.6736 0.0
H1231 H 0.45803 0.7329 0.67671 0.0
H1232 H 0.48554 0.73937 0.67561 0.0
C1233 C 0.49921 0.71082 0.6818 0.0
C1234 C 0.47699 0.71816 0.6847 0.0
C1235 C 0.5042 0.70373 0.6799 0.0
C1236 C 0.45525 0.74615 0.67593 0.0
C1237 C 0.46049 0.73924 0.67777 0.0
C1238 C 0.48311 0.73356 0.67835 0.0
C1239 C 0.49041 0.71071 0.6803 0.0
C1240 C 0.48523 0.71854 0.68132 0.0
C1241 C 0.46891 0.7405 0.68047 0.0
C1242 C 0.47474 0.73312 0.68142 0.0
H1243 H 0.48858 0.69056 0.67262 0.0
H1244 H 0.47991 0.70293 0.6759 0.0
H1245 H 0.49457 0.72685 0.67555 0.0
H1246 H 0.46914 0.76215 0.68047 0.0
H1247 H 0.47827 0.75006 0.6838 0.0
C1248 C 0.13436 0.02562 0.16851 0.0
C1249 C 0.14085 0.03001 0.17281 0.0
C1250 C 0.12591 0.02826 0.16919 0.0
C1251 C 0.11198 0.04038 0.18364 0.0
H1252 H 0.09543 0.03717 0.16563 0.0
C1253 C 0.07661 0.04824 0.18852 0.0
C1254 C 0.071 0.04167 0.18622 0.0
C1255 C 0.08509 0.04805 0.1859 0.0
C1256 C 0.09999 0.0381 0.17071 0.0
H1257 H 0.14361 0.04091 0.1808 0.0
H1258 H 0.12893 0.04563 0.1818 0.0
H1259 H 0.11047 0.03475 0.16276 0.0
H1260 H 0.06981 0.02998 0.17901 0.0
H1261 H 0.08457 0.02968 0.17442 0.0
H1262 H 0.1015 0.04365 0.19161 0.0
C1263 C 0.13032 0.04 0.1781 0.0
C1264 C 0.1086 0.03669 0.16908 0.0
C1265 C 0.13875 0.03733 0.17748 0.0
C1266 C 0.07396 0.03512 0.18092 0.0
C1267 C 0.08241 0.03497 0.17824 0.0
C1268 C 0.10339 0.04186 0.18524 0.0
C1269 C 0.12376 0.03539 0.17413 0.0
C1270 C 0.11469 0.03766 0.17557 0.0
C1271 C 0.08811 0.04133 0.18086 0.0
C1272 C 0.09729 0.0406 0.17884 0.0
H1273 H 0.13575 0.01995 0.16487 0.0
H1274 H 0.12104 0.02448 0.16613 0.0
H1275 H 0.11644 0.04105 0.18884 0.0
H1276 H 0.07454 0.05339 0.19258 0.0
H1277 H 0.08932 0.05309 0.18793 0.0
C1278 C 0.1792 0.82603 0.43728 0.0
C1279 C 0.17214 0.82108 0.43497 0.0
C1280 C 0.17923 0.83477 0.43592 0.0
C1281 C 0.1697 0.85184 0.42329 0.0
H1282 H 0.17845 0.86603 0.44146 0.0
C1283 C 0.18109 0.88655 0.41878 0.0
C1284 C 0.17978 0.89231 0.42549 0.0
C1285 C 0.1787 0.87803 0.41962 0.0
C1286 C 0.17588 0.86219 0.43636 0.0
H1287 H 0.1596 0.82145 0.42923 0.0
H1288 H 0.15967 0.83681 0.42682 0.0
H1289 H 0.17717 0.8508 0.44361 0.0
H1290 H 0.17441 0.89375 0.43809 0.0
H1291 H 0.1702 0.87895 0.4395 0.0
H1292 H 0.1685 0.86328 0.41601 0.0
C1293 C 0.16519 0.83386 0.42969 0.0
C1294 C 0.17524 0.85344 0.43756 0.0
C1295 C 0.16513 0.82508 0.43111 0.0
C1296 C 0.1756 0.88947 0.43284 0.0
C1297 C 0.17322 0.88097 0.43367 0.0
C1298 C 0.17039 0.86062 0.42206 0.0
C1299 C 0.17221 0.8388 0.43218 0.0
C1300 C 0.17227 0.84815 0.43101 0.0
C1301 C 0.17496 0.8751 0.42717 0.0
C1302 C 0.17357 0.86588 0.42856 0.0
H1303 H 0.18473 0.82317 0.44023 0.0
H1304 H 0.18479 0.83839 0.43777 0.0
H1305 H 0.16741 0.84791 0.41811 0.0
H1306 H 0.18427 0.88853 0.41302 0.0
H1307 H 0.18018 0.87366 0.41451 0.0
C1308 C 0.32451 0.93414 0.66943 0.0
C1309 C 0.31991 0.93565 0.67694 0.0
C1310 C 0.3332 0.9323 0.66977 0.0
C1311 C 0.35162 0.93635 0.68333 0.0
H1312 H 0.36296 0.91898 0.67006 0.0
C1313 C 0.38786 0.93483 0.68185 0.0
C1314 C 0.3915 0.92687 0.68359 0.0
C1315 C 0.37921 0.93553 0.68006 0.0
C1316 C 0.35986 0.92385 0.6738 0.0
H1317 H 0.3208 0.936 0.69071 0.0
H1318 H 0.33589 0.93282 0.69127 0.0
H1319 H 0.34748 0.92053 0.66911 0.0
H1320 H 0.38896 0.91334 0.68434 0.0
H1321 H 0.3738 0.9146 0.6812 0.0
H1322 H 0.36391 0.93968 0.68807 0.0
C1323 C 0.3328 0.93316 0.68512 0.0
C1324 C 0.35103 0.92476 0.67322 0.0
C1325 C 0.32413 0.93495 0.68479 0.0
C1326 C 0.38636 0.91957 0.68306 0.0
C1327 C 0.37768 0.92028 0.68122 0.0
C1328 C 0.36042 0.9355 0.68384 0.0
C1329 C 0.33747 0.932 0.67762 0.0
C1330 C 0.34682 0.93099 0.67804 0.0
C1331 C 0.37398 0.9283 0.67994 0.0
C1332 C 0.36464 0.92924 0.67911 0.0
H1333 H 0.32145 0.93461 0.66328 0.0
H1334 H 0.33666 0.93146 0.66389 0.0
H1335 H 0.34858 0.94128 0.68704 0.0
H1336 H 0.39163 0.94057 0.68213 0.0
H1337 H 0.37656 0.94178 0.67895 0.0
C1338 C 0.28293 0.07222 0.92657 0.0
C1339 C 0.27596 0.07054 0.92123 0.0
C1340 C 0.28613 0.08047 0.92737 0.0
C1341 C 0.28507 0.10225 0.91802 0.0
H1342 H 0.2902 0.10915 0.94112 0.0
C1343 C 0.28419 0.13698 0.92981 0.0
C1344 C 0.29033 0.13962 0.93575 0.0
C1345 C 0.28388 0.12855 0.92705 0.0
C1346 C 0.28894 0.1073 0.93461 0.0
H1347 H 0.2671 0.07615 0.91228 0.0
H1348 H 0.27251 0.09053 0.91384 0.0
H1349 H 0.28704 0.09435 0.9381 0.0
H1350 H 0.30121 0.13552 0.94318 0.0
H1351 H 0.30062 0.12078 0.9384 0.0
H1352 H 0.28662 0.11535 0.91465 0.0
C1353 C 0.27563 0.08548 0.91731 0.0
C1354 C 0.28714 0.0988 0.93286 0.0
C1355 C 0.27249 0.07722 0.91644 0.0
C1356 C 0.29637 0.1337 0.93862 0.0
C1357 C 0.29602 0.12525 0.93591 0.0
C1358 C 0.2868 0.11079 0.91979 0.0
C1359 C 0.28238 0.08724 0.92291 0.0
C1360 C 0.28506 0.09617 0.92457 0.0
C1361 C 0.28967 0.12255 0.93023 0.0
C1362 C 0.28864 0.11342 0.92813 0.0
H1363 H 0.28582 0.0672 0.93028 0.0
H1364 H 0.29145 0.08155 0.9316 0.0
H1365 H 0.28364 0.10044 0.91153 0.0
H1366 H 0.27946 0.14138 0.92745 0.0
H1367 H 0.27887 0.12665 0.92272 0.0
C1368 C 0.07492 0.9179 0.27849 0.0
C1369 C 0.06928 0.92481 0.27881 0.0
C1370 C 0.0835 0.91898 0.28062 0.0
C1371 C 0.09956 0.9357 0.28044 0.0
H1372 H 0.11369 0.9196 0.2926 0.0
C1373 C 0.13576 0.9374 0.27876 0.0
C1374 C 0.14021 0.93712 0.28651 0.0
C1375 C 0.12717 0.93528 0.27839 0.0
C1376 C 0.1098 0.92416 0.28923 0.0
H1377 H 0.06811 0.93813 0.2822 0.0
H1378 H 0.08299 0.93996 0.28594 0.0
H1379 H 0.09832 0.91715 0.29152 0.0
H1380 H 0.13917 0.934 0.2999 0.0
H1381 H 0.12409 0.93026 0.29921 0.0
H1382 H 0.11095 0.94268 0.27809 0.0
C1383 C 0.08083 0.93376 0.28389 0.0
C1384 C 0.10103 0.92274 0.28857 0.0
C1385 C 0.07229 0.93269 0.28178 0.0
C1386 C 0.13593 0.93432 0.29383 0.0
C1387 C 0.12731 0.93214 0.29344 0.0
C1388 C 0.10828 0.93707 0.28103 0.0
C1389 C 0.08658 0.92699 0.2831 0.0
C1390 C 0.09583 0.9285 0.28416 0.0
C1391 C 0.12281 0.93278 0.28574 0.0
C1392 C 0.11351 0.9313 0.28538 0.0
H1393 H 0.07281 0.91174 0.27625 0.0
H1394 H 0.08778 0.91365 0.27993 0.0
H1395 H 0.09575 0.9402 0.2769 0.0
H1396 H 0.13885 0.93946 0.27298 0.0
H1397 H 0.1239 0.93569 0.27234 0.0
C1398 C 0.28012 0.88704 0.53094 0.0
C1399 C 0.27776 0.89079 0.53869 0.0
C1400 C 0.28288 0.87862 0.53065 0.0
C1401 C 0.28072 0.8586 0.54232 0.0
H1402 H 0.2972 0.85077 0.52582 0.0
C1403 C 0.28075 0.8246 0.52914 0.0
C1404 C 0.28849 0.82072 0.527 0.0
C1405 C 0.28054 0.83299 0.53199 0.0
C1406 C 0.29268 0.85283 0.53057 0.0
H1407 H 0.27682 0.88872 0.55229 0.0
H1408 H 0.28172 0.87402 0.55178 0.0
H1409 H 0.29536 0.86594 0.5282 0.0
H1410 H 0.30214 0.82254 0.5265 0.0
H1411 H 0.30178 0.8372 0.53155 0.0
H1412 H 0.278 0.84549 0.54465 0.0
C1413 C 0.28131 0.87757 0.54591 0.0
C1414 C 0.29156 0.86154 0.53186 0.0
C1415 C 0.27854 0.88601 0.5462 0.0
C1416 C 0.29606 0.82535 0.52806 0.0
C1417 C 0.29585 0.83376 0.53091 0.0
C1418 C 0.28185 0.84989 0.54105 0.0
C1419 C 0.28336 0.87373 0.5381 0.0
C1420 C 0.2854 0.86453 0.53759 0.0
C1421 C 0.28808 0.83773 0.53278 0.0
C1422 C 0.28769 0.8469 0.53499 0.0
H1423 H 0.27961 0.89052 0.52503 0.0
H1424 H 0.2843 0.87585 0.52452 0.0
H1425 H 0.27588 0.86066 0.54675 0.0
H1426 H 0.27479 0.82124 0.52841 0.0
H1427 H 0.27443 0.83587 0.53326 0.0
C1428 C 0.32646 0.02418 0.7957 0.0
C1429 C 0.31981 0.02834 0.79143 0.0
C1430 C 0.33483 0.02699 0.79485 0.0
C1431 C 0.34829 0.03894 0.77991 0.0
H1432 H 0.36516 0.03664 0.79774 0.0
C1433 C 0.38345 0.04714 0.77414 0.0
C1434 C 0.38924 0.04084 0.7767 0.0
C1435 C 0.37501 0.04689 0.77687 0.0
C1436 C 0.36052 0.03731 0.7927 0.0
H1437 H 0.31669 0.03902 0.78331 0.0
H1438 H 0.33127 0.04403 0.78199 0.0
H1439 H 0.35021 0.03406 0.80093 0.0
H1440 H 0.39078 0.02956 0.78446 0.0
H1441 H 0.37607 0.02913 0.7892 0.0
H1442 H 0.35859 0.04207 0.77166 0.0
C1443 C 0.33004 0.03846 0.78582 0.0
C1444 C 0.35195 0.03581 0.79452 0.0
C1445 C 0.32167 0.03562 0.78662 0.0
C1446 C 0.38648 0.0345 0.78234 0.0
C1447 C 0.37806 0.03428 0.78511 0.0
C1448 C 0.35683 0.04048 0.77811 0.0
C1449 C 0.33675 0.03407 0.78976 0.0
C1450 C 0.34575 0.03646 0.78811 0.0
C1451 C 0.37219 0.04037 0.78227 0.0
C1452 C 0.36305 0.03954 0.78445 0.0
H1453 H 0.32525 0.01854 0.79945 0.0
H1454 H 0.33983 0.02338 0.7979 0.0
H1455 H 0.34372 0.03936 0.77477 0.0
H1456 H 0.38536 0.05214 0.76983 0.0
H1457 H 0.37065 0.05172 0.77466 0.0
C1458 C 0.18245 0.07548 0.04626 0.0
C1459 C 0.18318 0.07104 0.03853 0.0
C1460 C 0.18 0.08402 0.04635 0.0
C1461 C 0.17011 0.1008 0.033 0.0
H1462 H 0.18358 0.11617 0.0468 0.0
C1463 C 0.16563 0.13706 0.03083 0.0
C1464 C 0.1732 0.14171 0.03001 0.0
C1465 C 0.16581 0.12855 0.0334 0.0
C1466 C 0.17975 0.11196 0.04292 0.0
H1467 H 0.18167 0.07207 0.02486 0.0
H1468 H 0.1775 0.0869 0.02501 0.0
H1469 H 0.18565 0.10089 0.04812 0.0
H1470 H 0.18689 0.14116 0.03164 0.0
H1471 H 0.18721 0.12638 0.03599 0.0
H1472 H 0.16452 0.11186 0.02747 0.0
C1473 C 0.17872 0.08378 0.03102 0.0
C1474 C 0.18087 0.1032 0.04375 0.0
C1475 C 0.18118 0.07527 0.03093 0.0
C1476 C 0.18092 0.13778 0.03218 0.0
C1477 C 0.1811 0.1293 0.03474 0.0
C1478 C 0.16899 0.10956 0.03216 0.0
C1479 C 0.17818 0.08829 0.03871 0.0
C1480 C 0.17621 0.09752 0.03864 0.0
C1481 C 0.17357 0.12453 0.03522 0.0
C1482 C 0.17395 0.11525 0.03696 0.0
H1483 H 0.18392 0.0724 0.05224 0.0
H1484 H 0.17956 0.08729 0.05238 0.0
H1485 H 0.16633 0.0966 0.02907 0.0
H1486 H 0.15956 0.1399 0.02926 0.0
H1487 H 0.15988 0.12509 0.03382 0.0
C1488 C 0.0311 0.17683 0.13939 0.0
C1489 C 0.02426 0.17143 0.14126 0.0
C1490 C 0.03426 0.17738 0.13112 0.0
C1491 C 0.03331 0.16723 0.10964 0.0
H1492 H 0.03816 0.19012 0.10201 0.0
C1493 C 0.03253 0.17783 0.07449 0.0
C1494 C 0.03863 0.18374 0.07176 0.0
C1495 C 0.03217 0.17534 0.083 0.0
C1496 C 0.03697 0.18367 0.10407 0.0
H1497 H 0.01557 0.16212 0.13598 0.0
H1498 H 0.02088 0.16326 0.12153 0.0
H1499 H 0.03498 0.1876 0.11688 0.0
H1500 H 0.04941 0.19137 0.07577 0.0
H1501 H 0.04875 0.18705 0.09064 0.0
H1502 H 0.03495 0.16342 0.09666 0.0
C1503 C 0.02395 0.16696 0.12646 0.0
C1504 C 0.03516 0.1822 0.11262 0.0
C1505 C 0.02086 0.16634 0.13475 0.0
C1506 C 0.0446 0.18683 0.07766 0.0
C1507 C 0.0442 0.18439 0.08619 0.0
C1508 C 0.03504 0.16872 0.10106 0.0
C1509 C 0.03057 0.17262 0.12449 0.0
C1510 C 0.03321 0.17398 0.11551 0.0
C1511 C 0.03788 0.17876 0.08898 0.0
C1512 C 0.03679 0.17697 0.09817 0.0
H1513 H 0.03393 0.18077 0.14428 0.0
H1514 H 0.03949 0.18166 0.12989 0.0
H1515 H 0.03198 0.1608 0.11166 0.0
H1516 H 0.02785 0.1753 0.07011 0.0
H1517 H 0.02719 0.17104 0.08498 0.0
C1518 C 0.53532 0.28616 0.89001 0.0
C1519 C 0.54 0.27891 0.89227 0.0
C1520 C 0.53477 0.28871 0.88153 0.0
C1521 C 0.54396 0.28519 0.85997 0.0
H1522 H 0.52143 0.29181 0.85253 0.0
C1523 C 0.53246 0.28344 0.82511 0.0
C1524 C 0.52708 0.2899 0.8221 0.0
C1525 C 0.53507 0.28331 0.8336 0.0
C1526 C 0.5278 0.29011 0.85451 0.0
H1527 H 0.54805 0.26884 0.88743 0.0
H1528 H 0.54692 0.27316 0.87263 0.0
H1529 H 0.52411 0.28938 0.86753 0.0
H1530 H 0.52051 0.30149 0.8256 0.0
H1531 H 0.52505 0.30124 0.84043 0.0
H1532 H 0.54751 0.28562 0.84683 0.0
C1533 C 0.54379 0.27698 0.87741 0.0
C1534 C 0.52935 0.28873 0.86313 0.0
C1535 C 0.5444 0.27447 0.8859 0.0
C1536 C 0.52463 0.29641 0.82771 0.0
C1537 C 0.5272 0.29624 0.83622 0.0
C1538 C 0.54238 0.28652 0.85132 0.0
C1539 C 0.53883 0.28404 0.87509 0.0
C1540 C 0.53743 0.28616 0.86597 0.0
C1541 C 0.53231 0.28961 0.83929 0.0
C1542 C 0.53425 0.2889 0.84849 0.0
H1543 H 0.53193 0.28978 0.89477 0.0
H1544 H 0.53105 0.29429 0.88001 0.0
H1545 H 0.55029 0.28335 0.86194 0.0
H1546 H 0.53449 0.27834 0.82096 0.0
H1547 H 0.53896 0.27808 0.83579 0.0
C1548 C 0.92549 0.28359 0.13936 0.0
C1549 C 0.9327 0.28841 0.14151 0.0
C1550 C 0.92277 0.283 0.13092 0.0
C1551 C 0.92584 0.29221 0.10927 0.0
H1552 H 0.91909 0.26965 0.10201 0.0
C1553 C 0.92715 0.28042 0.0745 0.0
C1554 C 0.92058 0.27511 0.07157 0.0
C1555 C 0.92739 0.2831 0.08296 0.0
C1556 C 0.92083 0.27602 0.10395 0.0
H1557 H 0.94255 0.29661 0.13651 0.0
H1558 H 0.93798 0.29539 0.12177 0.0
H1559 H 0.92179 0.27237 0.11697 0.0
H1560 H 0.9089 0.26875 0.07518 0.0
H1561 H 0.90937 0.27339 0.08998 0.0
H1562 H 0.92521 0.2957 0.09612 0.0
C1563 C 0.9343 0.2922 0.12661 0.0
C1564 C 0.92236 0.2776 0.11255 0.0
C1565 C 0.93695 0.29287 0.13507 0.0
C1566 C 0.91407 0.27282 0.07723 0.0
C1567 C 0.91435 0.27544 0.08571 0.0
C1568 C 0.92438 0.29059 0.10064 0.0
C1569 C 0.92727 0.28713 0.1244 0.0
C1570 C 0.92499 0.28569 0.11532 0.0
C1571 C 0.9211 0.28048 0.08871 0.0
C1572 C 0.92194 0.28246 0.09789 0.0
H1573 H 0.92201 0.28015 0.14419 0.0
H1574 H 0.91722 0.2792 0.1295 0.0
H1575 H 0.92771 0.29854 0.11118 0.0
H1576 H 0.93224 0.28234 0.07031 0.0
H1577 H 0.9327 0.28693 0.0851 0.0
C1578 C 0.92519 0.67812 0.32293 0.0
C1579 C 0.93245 0.67337 0.32086 0.0
C1580 C 0.92247 0.67874 0.33135 0.0
C1581 C 0.92558 0.66967 0.35306 0.0
H1582 H 0.91873 0.69221 0.36021 0.0
C1583 C 0.92686 0.6815 0.3878 0.0
C1584 C 0.9203 0.68683 0.39068 0.0
C1585 C 0.92709 0.67881 0.37934 0.0
C1586 C 0.92049 0.68584 0.3583 0.0
H1587 H 0.94239 0.66533 0.32598 0.0
H1588 H 0.93781 0.66661 0.34068 0.0
H1589 H 0.92143 0.68945 0.34527 0.0
H1590 H 0.90864 0.69319 0.38701 0.0
H1591 H 0.90909 0.68853 0.37222 0.0
H1592 H 0.92495 0.66621 0.36621 0.0
C1593 C 0.93409 0.66972 0.33579 0.0
C1594 C 0.92203 0.68424 0.34972 0.0
C1595 C 0.93675 0.66902 0.32736 0.0
C1596 C 0.9138 0.68912 0.38499 0.0
C1597 C 0.91407 0.68648 0.37651 0.0
C1598 C 0.9241 0.6713 0.36167 0.0
C1599 C 0.927 0.67472 0.33792 0.0
C1600 C 0.92469 0.67617 0.34698 0.0
C1601 C 0.9208 0.68143 0.37356 0.0
C1602 C 0.92164 0.67943 0.36439 0.0
H1603 H 0.92167 0.68147 0.31806 0.0
H1604 H 0.91688 0.6825 0.33272 0.0
H1605 H 0.92748 0.66334 0.35117 0.0
H1606 H 0.93195 0.67958 0.39202 0.0
H1607 H 0.93239 0.67497 0.37724 0.0
C1608 C 0.43374 0.77823 0.57373 0.0
C1609 C 0.42583 0.77556 0.57056 0.0
C1610 C 0.43467 0.78054 0.58224 0.0
C1611 C 0.42333 0.78651 0.60187 0.0
H1612 H 0.44245 0.7755 0.61284 0.0
C1613 C 0.43456 0.79297 0.6367 0.0
C1614 C 0.43693 0.78577 0.64143 0.0
C1615 C 0.43244 0.79222 0.62808 0.0
C1616 C 0.43706 0.77859 0.60988 0.0
H1617 H 0.41256 0.7737 0.57375 0.0
H1618 H 0.4142 0.77773 0.58867 0.0
H1619 H 0.44029 0.77374 0.59763 0.0
H1620 H 0.43855 0.77208 0.64087 0.0
H1621 H 0.43489 0.77082 0.62592 0.0
H1622 H 0.4201 0.7913 0.61423 0.0
C1623 C 0.41968 0.77804 0.58453 0.0
C1624 C 0.43588 0.77767 0.60115 0.0
C1625 C 0.41875 0.7757 0.57599 0.0
C1626 C 0.43683 0.77778 0.63743 0.0
C1627 C 0.43477 0.77705 0.62884 0.0
C1628 C 0.42457 0.78751 0.61063 0.0
C1629 C 0.4277 0.78025 0.58779 0.0
C1630 C 0.42899 0.78158 0.59704 0.0
C1631 C 0.43273 0.78427 0.62403 0.0
C1632 C 0.43141 0.78348 0.61473 0.0
H1633 H 0.43932 0.77829 0.56971 0.0
H1634 H 0.4409 0.78237 0.58454 0.0
H1635 H 0.41798 0.78963 0.59886 0.0
H1636 H 0.43455 0.79921 0.6396 0.0
H1637 H 0.43091 0.79789 0.62452 0.0
C1638 C 0.63677 0.5296 0.66532 0.0
C1639 C 0.64163 0.52902 0.67281 0.0
C1640 C 0.62823 0.53202 0.66565 0.0
C1641 C 0.61212 0.54203 0.67973 0.0
H1642 H 0.59613 0.52836 0.66686 0.0
C1643 C 0.57594 0.54656 0.68332 0.0
C1644 C 0.57129 0.53901 0.68434 0.0
C1645 C 0.58437 0.54632 0.68051 0.0
C1646 C 0.60051 0.53225 0.67049 0.0
H1647 H 0.64135 0.53077 0.68649 0.0
H1648 H 0.62651 0.53488 0.68706 0.0
H1649 H 0.61133 0.52631 0.66483 0.0
H1650 H 0.57176 0.5253 0.68289 0.0
H1651 H 0.5864 0.52489 0.67813 0.0
H1652 H 0.60133 0.54766 0.68571 0.0
C1653 C 0.6293 0.53357 0.68092 0.0
C1654 C 0.60923 0.53114 0.66925 0.0
C1655 C 0.63781 0.53114 0.68059 0.0
C1656 C 0.57515 0.53125 0.68219 0.0
C1657 C 0.58355 0.53101 0.67939 0.0
C1658 C 0.60341 0.54313 0.68097 0.0
C1659 C 0.62437 0.53395 0.67347 0.0
C1660 C 0.61514 0.53587 0.674 0.0
C1661 C 0.58831 0.53852 0.67865 0.0
C1662 C 0.5975 0.53811 0.67652 0.0
H1663 H 0.63952 0.52803 0.65921 0.0
H1664 H 0.62463 0.53234 0.65979 0.0
H1665 H 0.6165 0.54587 0.6834 0.0
H1666 H 0.57316 0.55265 0.68487 0.0
H1667 H 0.58782 0.55223 0.6799 0.0
C1668 C 0.68523 0.38466 0.91917 0.0
C1669 C 0.68255 0.39035 0.92551 0.0
C1670 C 0.6828 0.37613 0.91944 0.0
C1671 C 0.66768 0.36095 0.92903 0.0
H1672 H 0.68641 0.34511 0.92717 0.0
C1673 C 0.66595 0.32648 0.94148 0.0
C1674 C 0.6707 0.32018 0.93734 0.0
C1675 C 0.66646 0.33496 0.93889 0.0
C1676 C 0.68105 0.34939 0.92753 0.0
H1677 H 0.67481 0.39163 0.93683 0.0
H1678 H 0.67056 0.37674 0.93727 0.0
H1679 H 0.68883 0.3601 0.92453 0.0
H1680 H 0.67933 0.31774 0.92689 0.0
H1681 H 0.68004 0.33245 0.92222 0.0
H1682 H 0.65991 0.35023 0.93211 0.0
C1683 C 0.67454 0.37889 0.9321 0.0
C1684 C 0.68245 0.35801 0.92603 0.0
C1685 C 0.67703 0.38741 0.93187 0.0
C1686 C 0.67566 0.32246 0.93029 0.0
C1687 C 0.67611 0.33091 0.92764 0.0
C1688 C 0.66625 0.3523 0.93047 0.0
C1689 C 0.67757 0.37312 0.926 0.0
C1690 C 0.67582 0.3639 0.92688 0.0
C1691 C 0.67169 0.33731 0.93204 0.0
C1692 C 0.67296 0.34642 0.92985 0.0
H1693 H 0.68946 0.38671 0.91416 0.0
H1694 H 0.68514 0.37184 0.9146 0.0
H1695 H 0.66243 0.36534 0.92965 0.0
H1696 H 0.66208 0.32494 0.94694 0.0
H1697 H 0.66304 0.3397 0.94249 0.0
C1698 C 0.8244 0.42915 0.17778 0.0
C1699 C 0.82171 0.43496 0.17155 0.0
C1700 C 0.83288 0.42653 0.17816 0.0
C1701 C 0.85404 0.43432 0.17311 0.0
H1702 H 0.86122 0.41136 0.1783 0.0
C1703 C 0.88933 0.42664 0.17821 0.0
C1704 C 0.89132 0.42122 0.18502 0.0
C1705 C 0.88097 0.42741 0.17533 0.0
C1706 C 0.85932 0.41781 0.17692 0.0
H1707 H 0.82575 0.44228 0.16061 0.0
H1708 H 0.84055 0.43774 0.16133 0.0
H1709 H 0.84624 0.41427 0.17549 0.0
H1710 H 0.88611 0.41215 0.19396 0.0
H1711 H 0.8715 0.41369 0.18912 0.0
H1712 H 0.86697 0.43798 0.17487 0.0
C1713 C 0.8361 0.43526 0.16594 0.0
C1714 C 0.85074 0.41947 0.17528 0.0
C1715 C 0.82761 0.43783 0.16551 0.0
C1716 C 0.8848 0.41637 0.18868 0.0
C1717 C 0.87641 0.41722 0.18587 0.0
C1718 C 0.86259 0.43268 0.17483 0.0
C1719 C 0.83885 0.42972 0.17236 0.0
C1720 C 0.84801 0.42776 0.17343 0.0
C1721 C 0.87436 0.42287 0.17926 0.0
C1722 C 0.86534 0.42443 0.17684 0.0
H1723 H 0.82002 0.4268 0.18252 0.0
H1724 H 0.83482 0.4223 0.18322 0.0
H1725 H 0.85211 0.44079 0.17185 0.0
H1726 H 0.89422 0.43039 0.17518 0.0
H1727 H 0.87967 0.43168 0.1701 0.0
C1728 C 0.78162 0.57294 0.42782 0.0
C1729 C 0.775 0.5711 0.4221 0.0
C1730 C 0.78486 0.58117 0.42849 0.0
C1731 C 0.78473 0.60254 0.41817 0.0
H1732 H 0.78866 0.61034 0.44122 0.0
C1733 C 0.78412 0.63779 0.42844 0.0
C1734 C 0.78997 0.6405 0.43463 0.0
C1735 C 0.78373 0.62926 0.426 0.0
C1736 C 0.78773 0.60824 0.43473 0.0
H1737 H 0.7668 0.57641 0.41237 0.0
H1738 H 0.77226 0.5908 0.41371 0.0
H1739 H 0.78533 0.5955 0.43865 0.0
H1740 H 0.8003 0.63641 0.44283 0.0
H1741 H 0.79957 0.62152 0.4386 0.0
H1742 H 0.78679 0.61544 0.41434 0.0
C1743 C 0.77509 0.58587 0.41757 0.0
C1744 C 0.78584 0.5997 0.43324 0.0
C1745 C 0.77192 0.57761 0.41684 0.0
C1746 C 0.79568 0.63454 0.43807 0.0
C1747 C 0.79524 0.626 0.43568 0.0
C1748 C 0.78655 0.6111 0.41967 0.0
C1749 C 0.78149 0.5878 0.42353 0.0
C1750 C 0.78421 0.59675 0.42496 0.0
C1751 C 0.78915 0.62324 0.42975 0.0
C1752 C 0.78797 0.61406 0.42798 0.0
H1753 H 0.78421 0.56804 0.4319 0.0
H1754 H 0.78991 0.58237 0.43301 0.0
H1755 H 0.78366 0.60047 0.41169 0.0
H1756 H 0.77965 0.64221 0.42564 0.0
H1757 H 0.77892 0.62731 0.42147 0.0
C1758 C 0.57606 0.4176 0.77951 0.0
C1759 C 0.5707 0.42474 0.77958 0.0
C1760 C 0.58466 0.41839 0.78166 0.0
C1761 C 0.60145 0.43433 0.78108 0.0
H1762 H 0.6146 0.41831 0.7944 0.0
C1763 C 0.63774 0.43465 0.78048 0.0
C1764 C 0.6419 0.43471 0.7884 0.0
C1765 C 0.62911 0.43275 0.77991 0.0
C1766 C 0.61099 0.42284 0.79069 0.0
H1767 H 0.57008 0.43821 0.7825 0.0
H1768 H 0.58501 0.43956 0.78624 0.0
H1769 H 0.59918 0.41642 0.79301 0.0
H1770 H 0.64029 0.43241 0.80189 0.0
H1771 H 0.62513 0.42903 0.80085 0.0
H1772 H 0.61318 0.44073 0.7787 0.0
C1773 C 0.5826 0.43338 0.7844 0.0
C1774 C 0.60219 0.42174 0.78986 0.0
C1775 C 0.57403 0.43259 0.78228 0.0
C1776 C 0.63727 0.43245 0.7957 0.0
C1777 C 0.62861 0.43049 0.79511 0.0
C1778 C 0.61021 0.43538 0.78184 0.0
C1779 C 0.58806 0.42634 0.7839 0.0
C1780 C 0.59734 0.42749 0.78505 0.0
C1781 C 0.62441 0.43081 0.78723 0.0
C1782 C 0.61508 0.42964 0.78661 0.0
H1783 H 0.5737 0.41146 0.77749 0.0
H1784 H 0.58872 0.41287 0.78119 0.0
H1785 H 0.59791 0.43881 0.77724 0.0
H1786 H 0.6411 0.4363 0.77471 0.0
H1787 H 0.62607 0.43292 0.77373 0.0
C1788 C 0.79539 0.32668 0.02524 0.0
C1789 C 0.78918 0.32085 0.02792 0.0
C1790 C 0.79507 0.33515 0.02788 0.0
C1791 C 0.7856 0.34983 0.04358 0.0
H1792 H 0.78655 0.36612 0.02516 0.0
C1793 C 0.7718 0.38365 0.04631 0.0
C1794 C 0.77549 0.39024 0.04157 0.0
C1795 C 0.77481 0.37533 0.04558 0.0
C1796 C 0.78645 0.36172 0.03044 0.0
H1797 H 0.77804 0.31926 0.03584 0.0
H1798 H 0.77751 0.33403 0.04047 0.0
H1799 H 0.78957 0.35126 0.02234 0.0
H1800 H 0.78558 0.39335 0.03274 0.0
H1801 H 0.79098 0.37891 0.03166 0.0
H1802 H 0.7824 0.36028 0.05166 0.0
C1803 C 0.78262 0.33205 0.03632 0.0
C1804 C 0.78817 0.35317 0.0288 0.0
C1805 C 0.7829 0.32359 0.03363 0.0
C1806 C 0.78253 0.3884 0.03641 0.0
C1807 C 0.78559 0.3801 0.03575 0.0
C1808 C 0.78396 0.3584 0.04523 0.0
C1809 C 0.78859 0.33796 0.03332 0.0
C1810 C 0.78762 0.34712 0.03532 0.0
C1811 C 0.78164 0.37342 0.04016 0.0
C1812 C 0.78421 0.36444 0.03865 0.0
H1813 H 0.80033 0.32477 0.02086 0.0
H1814 H 0.7998 0.33955 0.02553 0.0
H1815 H 0.78523 0.34531 0.04874 0.0
H1816 H 0.76636 0.38484 0.05033 0.0
H1817 H 0.77153 0.37035 0.049 0.0
C1818 C 0.88648 0.54391 0.27952 0.0
C1819 C 0.89078 0.53665 0.27658 0.0
C1820 C 0.87775 0.54362 0.28118 0.0
C1821 C 0.85867 0.5317 0.275 0.0
H1822 H 0.84839 0.54135 0.29519 0.0
C1823 C 0.82259 0.53188 0.27895 0.0
C1824 C 0.81954 0.52876 0.28673 0.0
C1825 C 0.83112 0.5341 0.27803 0.0
C1826 C 0.85118 0.53863 0.28952 0.0
H1827 H 0.88927 0.52332 0.27334 0.0
H1828 H 0.87414 0.52284 0.27623 0.0
H1829 H 0.86377 0.5425 0.2931 0.0
H1830 H 0.823 0.52598 0.29979 0.0
H1831 H 0.83794 0.5298 0.29814 0.0
H1832 H 0.84621 0.52767 0.27147 0.0
C1833 C 0.87749 0.52878 0.27715 0.0
C1834 C 0.85996 0.53934 0.2883 0.0
C1835 C 0.88618 0.52906 0.27553 0.0
C1836 C 0.82514 0.52835 0.2937 0.0
C1837 C 0.83369 0.53057 0.29277 0.0
C1838 C 0.84993 0.53104 0.27619 0.0
C1839 C 0.87315 0.53608 0.27988 0.0
C1840 C 0.8638 0.53578 0.28107 0.0
C1841 C 0.83682 0.53324 0.28485 0.0
C1842 C 0.84608 0.53443 0.28349 0.0
H1843 H 0.88983 0.54986 0.28041 0.0
H1844 H 0.87456 0.54934 0.28325 0.0
H1845 H 0.86143 0.52898 0.26932 0.0
H1846 H 0.81845 0.53238 0.27347 0.0
H1847 H 0.8333 0.53629 0.27189 0.0
C1848 C 0.68745 0.57682 0.54192 0.0
C1849 C 0.68302 0.57041 0.53755 0.0
C1850 C 0.68485 0.58529 0.54135 0.0
C1851 C 0.67273 0.59943 0.52708 0.0
H1852 H 0.6761 0.61578 0.54522 0.0
C1853 C 0.66496 0.63482 0.52249 0.0
C1854 C 0.67156 0.6404 0.52478 0.0
C1855 C 0.66513 0.62634 0.52508 0.0
C1856 C 0.67512 0.61127 0.5401 0.0
H1857 H 0.67208 0.56779 0.52957 0.0
H1858 H 0.6674 0.58251 0.52876 0.0
H1859 H 0.67848 0.6007 0.54795 0.0
H1860 H 0.68329 0.64152 0.53196 0.0
H1861 H 0.68356 0.62673 0.53649 0.0
H1862 H 0.66946 0.61 0.51922 0.0
C1863 C 0.67304 0.58104 0.53243 0.0
C1864 C 0.67651 0.60264 0.54165 0.0
C1865 C 0.67569 0.57259 0.53293 0.0
C1866 C 0.67812 0.63739 0.53005 0.0
C1867 C 0.67825 0.62893 0.5327 0.0
C1868 C 0.67128 0.60804 0.52556 0.0
C1869 C 0.6777 0.58753 0.53646 0.0
C1870 C 0.67547 0.59662 0.53511 0.0
C1871 C 0.67186 0.62326 0.53007 0.0
C1872 C 0.67259 0.61407 0.53201 0.0
H1873 H 0.69313 0.57536 0.54552 0.0
H1874 H 0.68866 0.5901 0.54446 0.0
H1875 H 0.67201 0.59502 0.52184 0.0
H1876 H 0.65979 0.63693 0.51846 0.0
H1877 H 0.66007 0.62214 0.52304 0.0
C1878 C 0.52524 0.66702 0.63483 0.0
C1879 C 0.52921 0.67184 0.64123 0.0
C1880 C 0.52804 0.66749 0.62643 0.0
C1881 C 0.53953 0.68202 0.61214 0.0
H1882 H 0.53789 0.66317 0.59635 0.0
C1883 C 0.54761 0.68608 0.57674 0.0
C1884 C 0.54136 0.68303 0.5711 0.0
C1885 C 0.54747 0.68377 0.58531 0.0
C1886 C 0.53837 0.66849 0.60069 0.0
H1887 H 0.53957 0.68054 0.6439 0.0
H1888 H 0.54458 0.68119 0.62928 0.0
H1889 H 0.53535 0.66078 0.61147 0.0
H1890 H 0.53035 0.67482 0.56997 0.0
H1891 H 0.53012 0.6708 0.58491 0.0
H1892 H 0.54244 0.68974 0.60137 0.0
C1893 C 0.53915 0.67722 0.63071 0.0
C1894 C 0.5369 0.66713 0.60935 0.0
C1895 C 0.53631 0.67681 0.63911 0.0
C1896 C 0.53523 0.6773 0.57415 0.0
C1897 C 0.53513 0.67496 0.5827 0.0
C1898 C 0.54106 0.68336 0.60351 0.0
C1899 C 0.53493 0.67272 0.62423 0.0
C1900 C 0.53731 0.67392 0.61516 0.0
C1901 C 0.54113 0.67831 0.58842 0.0
C1902 C 0.54035 0.67664 0.59767 0.0
H1903 H 0.51975 0.66313 0.63625 0.0
H1904 H 0.52456 0.664 0.62161 0.0
H1905 H 0.53976 0.68743 0.61638 0.0
H1906 H 0.55244 0.69047 0.57461 0.0
H1907 H 0.55224 0.68637 0.58955 0.0
C1908 C 0.02153 0.79397 0.32678 0.0
C1909 C 0.0245 0.78841 0.32046 0.0
C1910 C 0.02441 0.79325 0.33515 0.0
C1911 C 0.03376 0.77735 0.34963 0.0
H1912 H 0.03553 0.79654 0.36499 0.0
C1913 C 0.04257 0.77295 0.38486 0.0
C1914 C 0.03708 0.77698 0.39062 0.0
C1915 C 0.04237 0.77504 0.37623 0.0
C1916 C 0.03505 0.79113 0.36077 0.0
H1917 H 0.03322 0.77807 0.31789 0.0
H1918 H 0.03841 0.77698 0.33243 0.0
H1919 H 0.03296 0.79899 0.34988 0.0
H1920 H 0.02735 0.78665 0.39189 0.0
H1921 H 0.02702 0.79028 0.37684 0.0
H1922 H 0.03577 0.76949 0.36051 0.0
C1923 C 0.03367 0.78173 0.33097 0.0
C1924 C 0.03356 0.79252 0.35212 0.0
C1925 C 0.03072 0.78239 0.32262 0.0
C1926 C 0.03164 0.7834 0.38762 0.0
C1927 C 0.03149 0.78552 0.379 0.0
C1928 C 0.03532 0.77597 0.35825 0.0
C1929 C 0.03039 0.78701 0.33739 0.0
C1930 C 0.03276 0.78564 0.34646 0.0
C1931 C 0.03672 0.78124 0.37319 0.0
C1932 C 0.03585 0.78283 0.36394 0.0
H1933 H 0.01672 0.79867 0.32533 0.0
H1934 H 0.02167 0.79737 0.33992 0.0
H1935 H 0.03302 0.77189 0.34551 0.0
H1936 H 0.04687 0.76801 0.38696 0.0
H1937 H 0.04655 0.7717 0.37191 0.0
C1938 C 0.4311 0.16677 0.82558 0.0
C1939 C 0.43147 0.17423 0.82069 0.0
C1940 C 0.42844 0.16707 0.83405 0.0
C1941 C 0.41796 0.18094 0.85013 0.0
H1942 H 0.43253 0.16902 0.86602 0.0
C1943 C 0.41453 0.18531 0.88643 0.0
C1944 C 0.42222 0.18674 0.89077 0.0
C1945 C 0.41455 0.18231 0.87805 0.0
C1946 C 0.42839 0.17238 0.86167 0.0
H1947 H 0.42894 0.18777 0.82076 0.0
H1948 H 0.42445 0.18831 0.83549 0.0
H1949 H 0.43427 0.16671 0.85083 0.0
H1950 H 0.43594 0.18586 0.8898 0.0
H1951 H 0.43597 0.18077 0.87524 0.0
H1952 H 0.41241 0.18696 0.86096 0.0
C1953 C 0.42612 0.1822 0.83279 0.0
C1954 C 0.42931 0.17098 0.85295 0.0
C1955 C 0.42876 0.18191 0.82434 0.0
C1956 C 0.42989 0.18484 0.88665 0.0
C1957 C 0.42991 0.18185 0.8783 0.0
C1958 C 0.41705 0.18236 0.85885 0.0
C1959 C 0.42609 0.17483 0.83781 0.0
C1960 C 0.42426 0.17541 0.84706 0.0
C1961 C 0.42225 0.18066 0.87385 0.0
C1962 C 0.42241 0.17826 0.86471 0.0
H1963 H 0.43309 0.16074 0.82295 0.0
H1964 H 0.42838 0.16125 0.83771 0.0
H1965 H 0.41388 0.18436 0.84577 0.0
H1966 H 0.4085 0.18667 0.88942 0.0
H1967 H 0.40854 0.18138 0.87483 0.0
C1968 C 0.03772 0.08014 0.19925 0.0
C1969 C 0.03482 0.07294 0.19484 0.0
C1970 C 0.03476 0.08823 0.19711 0.0
C1971 C 0.02432 0.09998 0.17951 0.0
H1972 H 0.02115 0.11724 0.19681 0.0
C1973 C 0.00934 0.13264 0.17217 0.0
C1974 C 0.01367 0.13976 0.17541 0.0
C1975 C 0.01154 0.12445 0.17479 0.0
C1976 C 0.02206 0.1125 0.19191 0.0
H1977 H 0.02637 0.06855 0.18486 0.0
H1978 H 0.02102 0.08261 0.18128 0.0
H1979 H 0.02553 0.10297 0.20095 0.0
H1980 H 0.02358 0.14386 0.18408 0.0
H1981 H 0.02736 0.12956 0.18872 0.0
H1982 H 0.02075 0.10951 0.17049 0.0
C1983 C 0.02575 0.08206 0.18626 0.0
C1984 C 0.02459 0.10432 0.19427 0.0
C1985 C 0.02878 0.07398 0.18835 0.0
C1986 C 0.02013 0.13851 0.18146 0.0
C1987 C 0.02227 0.13032 0.18415 0.0
C1988 C 0.02171 0.10813 0.17716 0.0
C1989 C 0.02877 0.08931 0.19055 0.0
C1990 C 0.02581 0.09796 0.18809 0.0
C1991 C 0.01805 0.1232 0.18078 0.0
C1992 C 0.0206 0.11449 0.18333 0.0
H1993 H 0.04242 0.07956 0.20426 0.0
H1994 H 0.03733 0.09366 0.20048 0.0
H1995 H 0.02535 0.09532 0.17455 0.0
H1996 H 0.00433 0.13337 0.1675 0.0
H1997 H 0.00813 0.11909 0.17214 0.0
C1998 C 0.07437 0.76155 0.42516 0.0
C1999 C 0.06842 0.7682 0.42533 0.0
C2000 C 0.08292 0.76309 0.42703 0.0
C2001 C 0.10116 0.76905 0.42562 0.0
H2002 H 0.10786 0.78558 0.44264 0.0
C2003 C 0.13528 0.78227 0.42759 0.0
C2004 C 0.13874 0.78394 0.43566 0.0
C2005 C 0.12675 0.77996 0.42671 0.0
C2006 C 0.10612 0.78087 0.43793 0.0
H2007 H 0.06679 0.78167 0.42771 0.0
H2008 H 0.0817 0.78439 0.4308 0.0
H2009 H 0.0929 0.7821 0.44079 0.0
H2010 H 0.13599 0.78435 0.44915 0.0
H2011 H 0.12116 0.78015 0.44763 0.0
H2012 H 0.11439 0.76769 0.42287 0.0
C2013 C 0.07975 0.77794 0.42938 0.0
C2014 C 0.09752 0.77895 0.43679 0.0
C2015 C 0.07119 0.77639 0.42756 0.0
C2016 C 0.13351 0.78315 0.44284 0.0
C2017 C 0.12499 0.78079 0.44196 0.0
C2018 C 0.10976 0.77094 0.42678 0.0
C2019 C 0.08574 0.77133 0.42906 0.0
C2020 C 0.09492 0.77308 0.43057 0.0
C2021 C 0.12148 0.77921 0.43388 0.0
C2022 C 0.11235 0.77693 0.43289 0.0
H2023 H 0.07243 0.75516 0.42351 0.0
H2024 H 0.08732 0.75782 0.42686 0.0
H2025 H 0.09941 0.76457 0.4207 0.0
H2026 H 0.13912 0.78287 0.42193 0.0
H2027 H 0.12425 0.77893 0.42038 0.0
C2028 C 0.44682 0.82868 0.67159 0.0
C2029 C 0.44194 0.82216 0.67523 0.0
C2030 C 0.44517 0.83718 0.67354 0.0
C2031 C 0.43553 0.85107 0.68959 0.0
H2032 H 0.43348 0.86718 0.6711 0.0
C2033 C 0.42257 0.88496 0.69479 0.0
C2034 C 0.42598 0.8916 0.68992 0.0
C2035 C 0.42482 0.87653 0.69315 0.0
C2036 C 0.43417 0.86281 0.67636 0.0
H2037 H 0.4316 0.81944 0.68389 0.0
H2038 H 0.4288 0.8343 0.68737 0.0
H2039 H 0.43698 0.85243 0.66803 0.0
H2040 H 0.43459 0.89463 0.67963 0.0
H2041 H 0.43872 0.87997 0.67692 0.0
H2042 H 0.43286 0.86143 0.69795 0.0
C2043 C 0.43389 0.83282 0.683 0.0
C2044 C 0.43615 0.85434 0.67459 0.0
C2045 C 0.43547 0.82432 0.68097 0.0
C2046 C 0.4318 0.88965 0.68346 0.0
C2047 C 0.43413 0.88122 0.68187 0.0
C2048 C 0.43364 0.85955 0.69138 0.0
C2049 C 0.43868 0.83934 0.67925 0.0
C2050 C 0.4368 0.84837 0.68118 0.0
C2051 C 0.43062 0.87454 0.68665 0.0
C2052 C 0.43288 0.86554 0.68478 0.0
H2053 H 0.45185 0.82723 0.66714 0.0
H2054 H 0.44901 0.84208 0.67061 0.0
H2055 H 0.4361 0.84662 0.6948 0.0
H2056 H 0.41803 0.88625 0.69978 0.0
H2057 H 0.42187 0.87157 0.69687 0.0
C2058 C 0.38813 0.18749 0.93317 0.0
C2059 C 0.38934 0.1938 0.92699 0.0
C2060 C 0.37997 0.18547 0.936 0.0
C2061 C 0.35767 0.19341 0.93626 0.0
H2062 H 0.35239 0.16973 0.94045 0.0
C2063 C 0.32338 0.18055 0.93963 0.0
C2064 C 0.32189 0.17465 0.94616 0.0
C2065 C 0.33164 0.18323 0.93778 0.0
C2066 C 0.35379 0.17638 0.93939 0.0
H2067 H 0.38293 0.20296 0.91896 0.0
H2068 H 0.3687 0.19929 0.92372 0.0
H2069 H 0.36672 0.17373 0.93627 0.0
H2070 H 0.32791 0.16704 0.95594 0.0
H2071 H 0.34233 0.17168 0.95266 0.0
H2072 H 0.34464 0.19598 0.93917 0.0
C2073 C 0.37405 0.19602 0.92654 0.0
C2074 C 0.36202 0.17869 0.93702 0.0
C2075 C 0.38222 0.1981 0.92376 0.0
C2076 C 0.32883 0.17158 0.95087 0.0
C2077 C 0.3371 0.1742 0.94897 0.0
C2078 C 0.34942 0.19108 0.93856 0.0
C2079 C 0.37281 0.18965 0.93266 0.0
C2080 C 0.36408 0.18723 0.9354 0.0
C2081 C 0.33859 0.18002 0.94237 0.0
C2082 C 0.34739 0.18254 0.94013 0.0
H2083 H 0.3935 0.18409 0.93582 0.0
H2084 H 0.37929 0.18063 0.94084 0.0
H2085 H 0.35904 0.20006 0.93522 0.0
H2086 H 0.31817 0.18304 0.93589 0.0
H2087 H 0.3326 0.18767 0.93262 0.0
C2088 C 0.02869 0.88818 0.27767 0.0
C2089 C 0.03476 0.88969 0.27133 0.0
C2090 C 0.02594 0.87993 0.27942 0.0
C2091 C 0.02551 0.85804 0.27043 0.0
H2092 H 0.02127 0.85169 0.29383 0.0
C2093 C 0.02126 0.82321 0.28148 0.0
C2094 C 0.01468 0.8216 0.28728 0.0
C2095 C 0.02336 0.83155 0.27926 0.0
C2096 C 0.02235 0.85339 0.28725 0.0
H2097 H 0.04273 0.88369 0.26184 0.0
H2098 H 0.03811 0.86928 0.26502 0.0
H2099 H 0.02568 0.86614 0.29054 0.0
H2100 H 0.00509 0.82747 0.29522 0.0
H2101 H 0.00882 0.84201 0.29138 0.0
H2102 H 0.02235 0.84519 0.26721 0.0
C2103 C 0.03531 0.87449 0.26854 0.0
C2104 C 0.02485 0.86169 0.28535 0.0
C2105 C 0.03801 0.88275 0.26674 0.0
C2106 C 0.0102 0.82849 0.29074 0.0
C2107 C 0.01236 0.83683 0.28858 0.0
C2108 C 0.02307 0.84972 0.27234 0.0
C2109 C 0.02925 0.87296 0.27491 0.0
C2110 C 0.02647 0.86413 0.27691 0.0
C2111 C 0.01899 0.83845 0.28285 0.0
C2112 C 0.02146 0.84731 0.28078 0.0
H2113 H 0.02602 0.8934 0.28128 0.0
H2114 H 0.02115 0.87903 0.28426 0.0
H2115 H 0.02654 0.85971 0.26384 0.0
H2116 H 0.02484 0.81804 0.2787 0.0
H2117 H 0.02855 0.83261 0.27488 0.0
C2118 C 0.3291 0.78909 0.51402 0.0
C2119 C 0.32234 0.78575 0.51878 0.0
C2120 C 0.33747 0.78669 0.51577 0.0
C2121 C 0.35044 0.77002 0.52574 0.0
H2122 H 0.36737 0.78778 0.5279 0.0
C2123 C 0.38382 0.76361 0.53962 0.0
C2124 C 0.39074 0.7681 0.53623 0.0
C2125 C 0.37552 0.76555 0.53712 0.0
C2126 C 0.36277 0.78271 0.52718 0.0
H2127 H 0.31906 0.77714 0.529 0.0
H2128 H 0.33368 0.7729 0.532 0.0
H2129 H 0.35284 0.79146 0.52407 0.0
H2130 H 0.39439 0.77801 0.52741 0.0
H2131 H 0.37995 0.78124 0.52288 0.0
H2132 H 0.36036 0.76125 0.52875 0.0
C2133 C 0.33249 0.77737 0.52691 0.0
C2134 C 0.35443 0.78484 0.52501 0.0
C2135 C 0.32412 0.77983 0.52522 0.0
C2136 C 0.38919 0.77447 0.53019 0.0
C2137 C 0.3809 0.77636 0.52763 0.0
C2138 C 0.3588 0.76788 0.52783 0.0
C2139 C 0.33926 0.78084 0.52226 0.0
C2140 C 0.34816 0.77852 0.52432 0.0
C2141 C 0.37394 0.77198 0.53112 0.0
C2142 C 0.36507 0.77421 0.52864 0.0
H2143 H 0.32795 0.79366 0.50901 0.0
H2144 H 0.34255 0.7894 0.51202 0.0
H2145 H 0.34576 0.76501 0.52515 0.0
H2146 H 0.38479 0.75869 0.54432 0.0
H2147 H 0.37033 0.76213 0.54005 0.0
C2148 C 0.42107 0.07941 0.76219 0.0
C2149 C 0.42425 0.07243 0.76674 0.0
C2150 C 0.42364 0.08767 0.76422 0.0
C2151 C 0.43323 0.10018 0.78179 0.0
H2152 H 0.43554 0.11741 0.76436 0.0
C2153 C 0.44582 0.1339 0.789 0.0
C2154 C 0.44102 0.14064 0.78564 0.0
C2155 C 0.44426 0.12555 0.78643 0.0
C2156 C 0.43487 0.11267 0.76929 0.0
H2157 H 0.43284 0.06862 0.77683 0.0
H2158 H 0.43751 0.08299 0.78022 0.0
H2159 H 0.43213 0.10283 0.76031 0.0
H2160 H 0.43095 0.1439 0.77681 0.0
H2161 H 0.42829 0.1293 0.77226 0.0
H2162 H 0.43606 0.11003 0.79075 0.0
C2163 C 0.43285 0.08212 0.77522 0.0
C2164 C 0.4329 0.10432 0.76698 0.0
C2165 C 0.43022 0.07387 0.77324 0.0
C2166 C 0.43475 0.13885 0.77953 0.0
C2167 C 0.43325 0.1305 0.77688 0.0
C2168 C 0.43529 0.10851 0.78408 0.0
C2169 C 0.42952 0.08914 0.7708 0.0
C2170 C 0.43198 0.09797 0.77321 0.0
C2171 C 0.43794 0.12375 0.78037 0.0
C2172 C 0.43607 0.11485 0.77787 0.0
H2173 H 0.41643 0.07852 0.75717 0.0
H2174 H 0.42084 0.0929 0.76076 0.0
H2175 H 0.43243 0.09552 0.78678 0.0
H2176 H 0.4507 0.13507 0.79373 0.0
H2177 H 0.44802 0.12048 0.78916 0.0
C2178 C 0.07207 0.1873 0.03116 0.0
C2179 C 0.07042 0.1938 0.03705 0.0
C2180 C 0.08039 0.18549 0.02867 0.0
C2181 C 0.10241 0.19425 0.02891 0.0
H2182 H 0.10866 0.17064 0.02582 0.0
C2183 C 0.13723 0.18253 0.02744 0.0
C2184 C 0.1392 0.17651 0.02114 0.0
C2185 C 0.12881 0.18496 0.02886 0.0
C2186 C 0.10699 0.17726 0.02657 0.0
H2187 H 0.07622 0.20354 0.0449 0.0
H2188 H 0.09072 0.20024 0.04076 0.0
H2189 H 0.09404 0.17426 0.02928 0.0
H2190 H 0.13387 0.16836 0.01136 0.0
H2191 H 0.11917 0.17254 0.01392 0.0
H2192 H 0.11546 0.19718 0.02643 0.0
C2193 C 0.08559 0.19665 0.0379 0.0
C2194 C 0.09859 0.17936 0.02853 0.0
C2195 C 0.07727 0.19851 0.04032 0.0
C2196 C 0.13257 0.17302 0.01626 0.0
C2197 C 0.12415 0.17537 0.01775 0.0
C2198 C 0.11082 0.19214 0.02704 0.0
C2199 C 0.08728 0.19008 0.03208 0.0
C2200 C 0.09619 0.18788 0.02975 0.0
C2201 C 0.12217 0.18134 0.02409 0.0
C2202 C 0.1132 0.18362 0.02587 0.0
H2203 H 0.06692 0.18359 0.02848 0.0
H2204 H 0.08141 0.18049 0.02406 0.0
H2205 H 0.10078 0.20088 0.02965 0.0
H2206 H 0.14219 0.18535 0.0313 0.0
H2207 H 0.12747 0.18952 0.03384 0.0
C2208 C 0.18086 0.03269 0.07435 0.0
C2209 C 0.18906 0.03476 0.07152 0.0
C2210 C 0.17946 0.03039 0.0828 0.0
C2211 C 0.18919 0.03193 0.10425 0.0
H2212 H 0.17191 0.01534 0.10988 0.0
C2213 C 0.1748 0.01269 0.13527 0.0
C2214 C 0.17472 0.01936 0.1412 0.0
C2215 C 0.17706 0.01419 0.12681 0.0
C2216 C 0.17684 0.01991 0.10844 0.0
H2217 H 0.20227 0.03583 0.07532 0.0
H2218 H 0.19987 0.03158 0.09 0.0
H2219 H 0.17504 0.01831 0.09506 0.0
H2220 H 0.17698 0.03283 0.14293 0.0
H2221 H 0.1807 0.0355 0.12818 0.0
H2222 H 0.19116 0.03335 0.11762 0.0
C2223 C 0.19447 0.03194 0.08575 0.0
C2224 C 0.17855 0.02171 0.09992 0.0
C2225 C 0.19586 0.03432 0.07731 0.0
C2226 C 0.17703 0.02754 0.13852 0.0
C2227 C 0.17921 0.02906 0.13006 0.0
C2228 C 0.18752 0.03008 0.11277 0.0
C2229 C 0.18624 0.03001 0.08863 0.0
C2230 C 0.18469 0.02781 0.0977 0.0
C2231 C 0.17922 0.02241 0.12407 0.0
C2232 C 0.18127 0.02411 0.11499 0.0
H2233 H 0.17548 0.03302 0.07006 0.0
H2234 H 0.17302 0.02909 0.0848 0.0
H2235 H 0.19389 0.03673 0.10282 0.0
H2236 H 0.1731 0.00629 0.13714 0.0
H2237 H 0.17713 0.00888 0.12243 0.0
C2238 C 0.17169 0.9471 0.32836 0.0
C2239 C 0.17506 0.942 0.32185 0.0
C2240 C 0.17374 0.94553 0.33686 0.0
C2241 C 0.18963 0.93546 0.35068 0.0
H2242 H 0.17129 0.9343 0.36703 0.0
C2243 C 0.19462 0.92236 0.38459 0.0
C2244 C 0.18996 0.92599 0.39127 0.0
C2245 C 0.19302 0.92471 0.37617 0.0
C2246 C 0.17652 0.93474 0.3626 0.0
H2247 H 0.18336 0.93135 0.31916 0.0
H2248 H 0.187 0.92867 0.33401 0.0
H2249 H 0.16818 0.9378 0.35227 0.0
H2250 H 0.18012 0.93509 0.39438 0.0
H2251 H 0.1775 0.93937 0.37974 0.0
H2252 H 0.198 0.93251 0.36099 0.0
C2253 C 0.18277 0.93388 0.33252 0.0
C2254 C 0.17472 0.93672 0.35413 0.0
C2255 C 0.18065 0.93539 0.32403 0.0
C2256 C 0.18378 0.93213 0.38937 0.0
C2257 C 0.18224 0.93454 0.38096 0.0
C2258 C 0.19145 0.93356 0.35917 0.0
C2259 C 0.17927 0.93888 0.33903 0.0
C2260 C 0.18125 0.93705 0.34807 0.0
C2261 C 0.18679 0.93081 0.37423 0.0
C2262 C 0.18491 0.93312 0.36524 0.0
H2263 H 0.16736 0.95225 0.3269 0.0
H2264 H 0.17101 0.94953 0.34174 0.0
H2265 H 0.19481 0.93577 0.34617 0.0
H2266 H 0.19939 0.91757 0.38583 0.0
H2267 H 0.19656 0.92159 0.37117 0.0
C2268 C 0.26363 0.9211 0.57971 0.0
C2269 C 0.2684 0.92484 0.57317 0.0
C2270 C 0.26515 0.92326 0.58819 0.0
C2271 C 0.27422 0.93981 0.60198 0.0
H2272 H 0.27702 0.92151 0.6182 0.0
C2273 C 0.28742 0.94558 0.63577 0.0
C2274 C 0.28427 0.94061 0.64246 0.0
C2275 C 0.28508 0.94386 0.62737 0.0
C2276 C 0.27611 0.92672 0.61381 0.0
H2277 H 0.27837 0.93393 0.57039 0.0
H2278 H 0.28095 0.93776 0.58522 0.0
H2279 H 0.27352 0.91823 0.60348 0.0
H2280 H 0.276 0.93007 0.64561 0.0
H2281 H 0.2717 0.92722 0.631 0.0
H2282 H 0.27669 0.94831 0.6123 0.0
C2283 C 0.27604 0.93315 0.58377 0.0
C2284 C 0.27413 0.92482 0.60536 0.0
C2285 C 0.2746 0.93092 0.57528 0.0
C2286 C 0.27859 0.93398 0.64059 0.0
C2287 C 0.27617 0.93231 0.6322 0.0
C2288 C 0.27611 0.94171 0.61046 0.0
C2289 C 0.2714 0.92928 0.59032 0.0
C2290 C 0.27322 0.93134 0.59934 0.0
C2291 C 0.27944 0.93718 0.62546 0.0
C2292 C 0.27714 0.93519 0.61648 0.0
H2293 H 0.25881 0.9164 0.57829 0.0
H2294 H 0.26142 0.92023 0.59311 0.0
H2295 H 0.27345 0.94496 0.5975 0.0
H2296 H 0.29185 0.95071 0.637 0.0
H2297 H 0.28784 0.94766 0.62236 0.0
C2298 C 0.27923 0.02404 0.82315 0.0
C2299 C 0.28527 0.01757 0.82206 0.0
C2300 C 0.27629 0.02616 0.83126 0.0
C2301 C 0.27532 0.0182 0.85351 0.0
H2302 H 0.27159 0.04196 0.85879 0.0
C2303 C 0.27115 0.03092 0.88779 0.0
C2304 C 0.26473 0.03699 0.8891 0.0
C2305 C 0.27322 0.02827 0.87957 0.0
C2306 C 0.27252 0.03529 0.85739 0.0
H2307 H 0.29294 0.00823 0.82864 0.0
H2308 H 0.28801 0.01204 0.84278 0.0
H2309 H 0.27605 0.03789 0.84455 0.0
H2310 H 0.25541 0.04495 0.88281 0.0
H2311 H 0.25909 0.04035 0.86847 0.0
H2312 H 0.27197 0.01566 0.86646 0.0
C2313 C 0.28538 0.01537 0.83737 0.0
C2314 C 0.27506 0.03294 0.84921 0.0
C2315 C 0.28826 0.01321 0.82925 0.0
C2316 C 0.26039 0.04027 0.88202 0.0
C2317 C 0.26252 0.03767 0.8738 0.0
C2318 C 0.27286 0.02055 0.86172 0.0
C2319 C 0.27938 0.0219 0.83849 0.0
C2320 C 0.2765 0.02437 0.84716 0.0
C2321 C 0.26899 0.03167 0.87249 0.0
C2322 C 0.27144 0.02913 0.86374 0.0
H2323 H 0.27676 0.02749 0.81773 0.0
H2324 H 0.27157 0.03111 0.83184 0.0
H2325 H 0.27623 0.01152 0.85214 0.0
H2326 H 0.27462 0.02827 0.89311 0.0
H2327 H 0.27828 0.02369 0.87875 0.0
C2328 C 0.6333 0.28484 0.95219 0.0
C2329 C 0.63949 0.28526 0.94579 0.0
C2330 C 0.62497 0.2824 0.95026 0.0
C2331 C 0.61184 0.27198 0.93349 0.0
H2332 H 0.59338 0.28357 0.94489 0.0
C2333 C 0.57331 0.27735 0.92972 0.0
C2334 C 0.57082 0.26911 0.92737 0.0
C2335 C 0.58164 0.27901 0.9323 0.0
C2336 C 0.59845 0.28031 0.94159 0.0
H2337 H 0.64179 0.28341 0.93234 0.0
H2338 H 0.62726 0.27938 0.92893 0.0
H2339 H 0.60798 0.28709 0.94852 0.0
H2340 H 0.57509 0.25609 0.92608 0.0
H2341 H 0.58957 0.25892 0.93081 0.0
H2342 H 0.60232 0.26548 0.92628 0.0
C2343 C 0.62885 0.28074 0.93548 0.0
C2344 C 0.60684 0.28224 0.94377 0.0
C2345 C 0.63719 0.28311 0.93743 0.0
C2346 C 0.57682 0.26252 0.9278 0.0
C2347 C 0.58514 0.26416 0.93046 0.0
C2348 C 0.60344 0.2701 0.93126 0.0
C2349 C 0.62261 0.28039 0.94186 0.0
C2350 C 0.61366 0.27813 0.93972 0.0
C2351 C 0.58769 0.27244 0.93269 0.0
C2352 C 0.59663 0.27427 0.93525 0.0
H2353 H 0.63488 0.28641 0.95871 0.0
H2354 H 0.62039 0.28206 0.95537 0.0
H2355 H 0.6169 0.26859 0.93032 0.0
H2356 H 0.56885 0.28258 0.92941 0.0
H2357 H 0.58338 0.28549 0.93383 0.0
C2358 C 0.94862 0.32589 0.17681 0.0
C2359 C 0.9421 0.31981 0.17631 0.0
C2360 C 0.94686 0.33421 0.17939 0.0
C2361 C 0.94077 0.35244 0.17997 0.0
H2362 H 0.92343 0.35692 0.19682 0.0
C2363 C 0.92763 0.38616 0.18573 0.0
C2364 C 0.92532 0.38848 0.19403 0.0
C2365 C 0.92999 0.37781 0.18385 0.0
C2366 C 0.92837 0.3558 0.19218 0.0
H2367 H 0.92862 0.3177 0.17814 0.0
H2368 H 0.92551 0.33222 0.18239 0.0
H2369 H 0.92712 0.34234 0.19336 0.0
H2370 H 0.92386 0.38388 0.20692 0.0
H2371 H 0.92821 0.36938 0.20372 0.0
H2372 H 0.94222 0.36591 0.17899 0.0
C2373 C 0.93203 0.33055 0.181 0.0
C2374 C 0.9304 0.34742 0.1901 0.0
C2375 C 0.9338 0.32222 0.1785 0.0
C2376 C 0.92555 0.38229 0.20044 0.0
C2377 C 0.928 0.37395 0.19859 0.0
C2378 C 0.9388 0.36083 0.18211 0.0
C2379 C 0.93853 0.33667 0.18145 0.0
C2380 C 0.93658 0.34562 0.18391 0.0
C2381 C 0.93019 0.37158 0.19025 0.0
C2382 C 0.93252 0.36263 0.18819 0.0
H2383 H 0.95509 0.32423 0.17522 0.0
H2384 H 0.95206 0.33869 0.17981 0.0
H2385 H 0.9455 0.35134 0.17511 0.0
H2386 H 0.92746 0.39077 0.18062 0.0
H2387 H 0.93148 0.37622 0.17733 0.0
C2388 C 0.88139 0.70002 0.42286 0.0
C2389 C 0.88852 0.69573 0.42608 0.0
C2390 C 0.87321 0.69785 0.42554 0.0
C2391 C 0.86125 0.6803 0.43577 0.0
H2392 H 0.84368 0.69741 0.43788 0.0
C2393 C 0.82805 0.67288 0.44944 0.0
C2394 C 0.8211 0.67588 0.44469 0.0
C2395 C 0.8363 0.67557 0.44757 0.0
C2396 C 0.84852 0.69256 0.43728 0.0
H2397 H 0.89269 0.68595 0.43483 0.0
H2398 H 0.87847 0.68233 0.43971 0.0
H2399 H 0.85808 0.70165 0.43408 0.0
H2400 H 0.81736 0.68419 0.43436 0.0
H2401 H 0.83177 0.68894 0.43116 0.0
H2402 H 0.85167 0.67123 0.43908 0.0
C2403 C 0.87915 0.68723 0.43493 0.0
C2404 C 0.85677 0.69498 0.43507 0.0
C2405 C 0.88732 0.68934 0.43218 0.0
C2406 C 0.82257 0.68176 0.43814 0.0
C2407 C 0.83081 0.68451 0.43633 0.0
C2408 C 0.85302 0.6779 0.43807 0.0
C2409 C 0.87197 0.69139 0.43159 0.0
C2410 C 0.86324 0.68887 0.43423 0.0
C2411 C 0.83777 0.68138 0.44097 0.0
C2412 C 0.84656 0.68399 0.43879 0.0
H2413 H 0.88209 0.70494 0.41811 0.0
H2414 H 0.86786 0.70111 0.42272 0.0
H2415 H 0.866 0.67539 0.43503 0.0
H2416 H 0.82713 0.66836 0.45453 0.0
H2417 H 0.84153 0.67311 0.4513 0.0
C2418 C 0.92762 0.57677 0.26794 0.0
C2419 C 0.92692 0.57123 0.2749 0.0
C2420 C 0.92992 0.58527 0.26916 0.0
C2421 C 0.93969 0.59992 0.28498 0.0
H2422 H 0.9287 0.61726 0.27139 0.0
C2423 C 0.94927 0.63522 0.28768 0.0
C2424 C 0.9427 0.64125 0.28744 0.0
C2425 C 0.94767 0.62671 0.28566 0.0
C2426 C 0.93179 0.61251 0.27529 0.0
H2427 H 0.92806 0.57028 0.2886 0.0
H2428 H 0.93186 0.58511 0.29075 0.0
H2429 H 0.92519 0.6024 0.26905 0.0
H2430 H 0.92931 0.64308 0.28481 0.0
H2431 H 0.92646 0.62825 0.28149 0.0
H2432 H 0.94603 0.61005 0.29145 0.0
C2433 C 0.93082 0.58288 0.28432 0.0
C2434 C 0.92986 0.60396 0.27386 0.0
C2435 C 0.92859 0.57437 0.28309 0.0
C2436 C 0.93452 0.63861 0.28503 0.0
C2437 C 0.9329 0.6301 0.28307 0.0
C2438 C 0.94158 0.60848 0.28644 0.0
C2439 C 0.93151 0.58845 0.27737 0.0
C2440 C 0.93375 0.59755 0.27872 0.0
C2441 C 0.93944 0.62402 0.28341 0.0
C2442 C 0.93763 0.61489 0.28165 0.0
H2443 H 0.92642 0.57454 0.26154 0.0
H2444 H 0.93052 0.58933 0.26365 0.0
H2445 H 0.94291 0.59517 0.28876 0.0
H2446 H 0.95566 0.63705 0.28947 0.0
H2447 H 0.95289 0.62226 0.28585 0.0
C2448 C 0.52356 0.3237 0.7817 0.0
C2449 C 0.51699 0.32189 0.78745 0.0
C2450 C 0.52534 0.33209 0.77939 0.0
C2451 C 0.52351 0.35388 0.78724 0.0
H2452 H 0.5278 0.36026 0.76386 0.0
C2453 C 0.52952 0.38875 0.77783 0.0
C2454 C 0.53567 0.39033 0.77157 0.0
C2455 C 0.52678 0.38047 0.77947 0.0
C2456 C 0.52673 0.35857 0.77043 0.0
H2457 H 0.50705 0.32746 0.79518 0.0
H2458 H 0.51023 0.3421 0.79119 0.0
H2459 H 0.52391 0.34564 0.76721 0.0
H2460 H 0.54376 0.38445 0.76212 0.0
H2461 H 0.53918 0.37 0.76514 0.0
H2462 H 0.52655 0.36669 0.79054 0.0
C2463 C 0.514 0.33702 0.7885 0.0
C2464 C 0.52447 0.3502 0.77234 0.0
C2465 C 0.51216 0.32864 0.79074 0.0
C2466 C 0.53898 0.38345 0.76696 0.0
C2467 C 0.53631 0.37516 0.76865 0.0
C2468 C 0.52586 0.36222 0.78535 0.0
C2469 C 0.52065 0.33884 0.78284 0.0
C2470 C 0.52285 0.34776 0.78076 0.0
C2471 C 0.53019 0.37355 0.77495 0.0
C2472 C 0.52751 0.36469 0.77692 0.0
H2473 H 0.52739 0.31865 0.77905 0.0
H2474 H 0.53054 0.3333 0.77506 0.0
H2475 H 0.52242 0.35215 0.7938 0.0
H2476 H 0.5268 0.39392 0.78146 0.0
H2477 H 0.52196 0.37951 0.78426 0.0
C2478 C 0.52969 0.5742 0.68618 0.0
C2479 C 0.53592 0.5727 0.69241 0.0
C2480 C 0.52699 0.58247 0.68442 0.0
C2481 C 0.52721 0.60454 0.69301 0.0
H2482 H 0.52278 0.61052 0.66953 0.0
C2483 C 0.52411 0.63921 0.6811 0.0
C2484 C 0.51753 0.64093 0.67531 0.0
C2485 C 0.52588 0.63087 0.68357 0.0
C2486 C 0.52391 0.60892 0.67613 0.0
H2487 H 0.54416 0.5787 0.7017 0.0
H2488 H 0.53962 0.59312 0.69848 0.0
H2489 H 0.52681 0.59603 0.67307 0.0
H2490 H 0.50756 0.63523 0.66765 0.0
H2491 H 0.51071 0.62067 0.6719 0.0
H2492 H 0.52452 0.61755 0.69599 0.0
C2493 C 0.53667 0.58792 0.69508 0.0
C2494 C 0.52619 0.6006 0.67817 0.0
C2495 C 0.53932 0.57964 0.69689 0.0
C2496 C 0.51268 0.63413 0.67212 0.0
C2497 C 0.51451 0.62578 0.67452 0.0
C2498 C 0.525 0.61289 0.69094 0.0
C2499 C 0.5305 0.58945 0.68878 0.0
C2500 C 0.52789 0.59829 0.68665 0.0
C2501 C 0.52116 0.62406 0.68022 0.0
C2502 C 0.52333 0.61517 0.68248 0.0
H2503 H 0.5269 0.56899 0.68265 0.0
H2504 H 0.52211 0.58338 0.67965 0.0
H2505 H 0.52832 0.60298 0.69962 0.0
H2506 H 0.52796 0.64431 0.68368 0.0
H2507 H 0.53109 0.62973 0.68792 0.0
C2508 C 0.88727 0.27269 0.03007 0.0
C2509 C 0.88855 0.26625 0.03611 0.0
C2510 C 0.87908 0.27476 0.02733 0.0
C2511 C 0.85676 0.26682 0.02709 0.0
H2512 H 0.85148 0.29057 0.02334 0.0
C2513 C 0.82244 0.27977 0.02412 0.0
C2514 C 0.82091 0.28574 0.01766 0.0
C2515 C 0.83071 0.27706 0.0259 0.0
C2516 C 0.85288 0.2839 0.02428 0.0
H2517 H 0.88223 0.25691 0.04398 0.0
H2518 H 0.86795 0.26066 0.03939 0.0
H2519 H 0.86585 0.28649 0.02735 0.0
H2520 H 0.82685 0.29347 0.00795 0.0
H2521 H 0.84129 0.28879 0.01112 0.0
H2522 H 0.84367 0.26431 0.02423 0.0
C2523 C 0.87327 0.264 0.03661 0.0
C2524 C 0.86113 0.28154 0.02655 0.0
C2525 C 0.88147 0.26187 0.03928 0.0
C2526 C 0.82781 0.28887 0.01297 0.0
C2527 C 0.83609 0.28623 0.01481 0.0
C2528 C 0.84848 0.26919 0.0249 0.0
C2529 C 0.87195 0.2705 0.03063 0.0
C2530 C 0.86319 0.27297 0.028 0.0
C2531 C 0.83763 0.28033 0.02132 0.0
C2532 C 0.84645 0.27776 0.02348 0.0
H2533 H 0.89261 0.27615 0.02746 0.0
H2534 H 0.87835 0.27969 0.0226 0.0
H2535 H 0.85812 0.26015 0.02801 0.0
H2536 H 0.81726 0.27723 0.02785 0.0
H2537 H 0.83172 0.27256 0.031 0.0
C2538 C 0.63856 0.68188 0.52202 0.0
C2539 C 0.63987 0.67577 0.51564 0.0
C2540 C 0.63035 0.68454 0.52407 0.0
C2541 C 0.60797 0.68432 0.5162 0.0
H2542 H 0.60279 0.68831 0.53995 0.0
C2543 C 0.57372 0.68669 0.52939 0.0
C2544 C 0.57211 0.69323 0.53526 0.0
C2545 C 0.582 0.68507 0.52663 0.0
C2546 C 0.60416 0.6873 0.53328 0.0
H2547 H 0.63359 0.66771 0.50638 0.0
H2548 H 0.61928 0.67216 0.51011 0.0
H2549 H 0.61719 0.68451 0.53584 0.0
H2550 H 0.57792 0.70324 0.54277 0.0
H2551 H 0.59238 0.70034 0.53801 0.0
H2552 H 0.59482 0.68688 0.51373 0.0
C2553 C 0.62458 0.67506 0.5134 0.0
C2554 C 0.61243 0.68515 0.53091 0.0
C2555 C 0.6328 0.67246 0.51129 0.0
C2556 C 0.57894 0.69816 0.53824 0.0
C2557 C 0.58723 0.69648 0.53555 0.0
C2558 C 0.59967 0.68638 0.5186 0.0
C2559 C 0.62323 0.6811 0.51986 0.0
C2560 C 0.61445 0.68361 0.52234 0.0
C2561 C 0.58885 0.68989 0.52976 0.0
C2562 C 0.59768 0.68789 0.52716 0.0
H2563 H 0.64388 0.68459 0.52545 0.0
H2564 H 0.62958 0.68932 0.52896 0.0
H2565 H 0.6093 0.68333 0.50953 0.0
H2566 H 0.5686 0.68278 0.52697 0.0
H2567 H 0.58307 0.67991 0.52221 0.0
C2568 C 0.69963 0.53618 0.57493 0.0
C2569 C 0.69302 0.53635 0.56891 0.0
C2570 C 0.698 0.534 0.58338 0.0
C2571 C 0.68177 0.52395 0.59733 0.0
H2572 H 0.69361 0.53635 0.61505 0.0
C2573 C 0.67912 0.53086 0.63573 0.0
C2574 C 0.67697 0.5227 0.6386 0.0
C2575 C 0.68142 0.53219 0.62726 0.0
C2576 C 0.69019 0.53287 0.61019 0.0
H2577 H 0.67953 0.53432 0.56705 0.0
H2578 H 0.67664 0.53074 0.58179 0.0
H2579 H 0.69676 0.53932 0.60024 0.0
H2580 H 0.6757 0.5095 0.63488 0.0
H2581 H 0.67992 0.51177 0.62017 0.0
H2582 H 0.67493 0.51777 0.60728 0.0
C2583 C 0.68312 0.5321 0.57997 0.0
C2584 C 0.69209 0.53448 0.60167 0.0
C2585 C 0.68477 0.5342 0.57151 0.0
C2586 C 0.67728 0.51588 0.63285 0.0
C2587 C 0.67965 0.51719 0.6244 0.0
C2588 C 0.67982 0.52238 0.60585 0.0
C2589 C 0.6897 0.53201 0.58604 0.0
C2590 C 0.68788 0.53007 0.59512 0.0
C2591 C 0.6817 0.52538 0.62147 0.0
C2592 C 0.68397 0.52685 0.6124 0.0
H2593 H 0.70607 0.53776 0.57312 0.0
H2594 H 0.70325 0.53386 0.58782 0.0
H2595 H 0.67847 0.52034 0.59248 0.0
H2596 H 0.6789 0.53627 0.63998 0.0
H2597 H 0.68281 0.53861 0.62522 0.0
C2598 C 0.67323 0.44509 0.83061 0.0
C2599 C 0.67662 0.44 0.82411 0.0
C2600 C 0.67542 0.44362 0.8391 0.0
C2601 C 0.69174 0.43408 0.85277 0.0
H2602 H 0.67369 0.43259 0.86941 0.0
C2603 C 0.69758 0.42135 0.88668 0.0
C2604 C 0.69287 0.42483 0.89341 0.0
C2605 C 0.69583 0.42365 0.87828 0.0
C2606 C 0.67884 0.43313 0.86489 0.0
H2607 H 0.68508 0.42949 0.8214 0.0
H2608 H 0.68897 0.427 0.83622 0.0
H2609 H 0.67027 0.43587 0.85468 0.0
H2610 H 0.68281 0.43364 0.89662 0.0
H2611 H 0.67992 0.43785 0.88201 0.0
H2612 H 0.70035 0.43146 0.86297 0.0
C2613 C 0.68462 0.43211 0.83474 0.0
C2614 C 0.67686 0.43498 0.85644 0.0
C2615 C 0.68235 0.43351 0.82626 0.0
C2616 C 0.68651 0.4308 0.89157 0.0
C2617 C 0.68481 0.43317 0.88318 0.0
C2618 C 0.69374 0.43232 0.86125 0.0
C2619 C 0.68112 0.43711 0.84125 0.0
C2620 C 0.68328 0.43542 0.85028 0.0
C2621 C 0.68938 0.42955 0.8764 0.0
C2622 C 0.68731 0.43175 0.86742 0.0
H2623 H 0.6688 0.45014 0.82917 0.0
H2624 H 0.67268 0.44762 0.84398 0.0
H2625 H 0.69683 0.43448 0.84817 0.0
H2626 H 0.70249 0.4167 0.88788 0.0
H2627 H 0.69939 0.42062 0.87325 0.0
C2628 C 0.76046 0.42117 0.08025 0.0
C2629 C 0.76482 0.42437 0.07315 0.0
C2630 C 0.76265 0.42381 0.08845 0.0
C2631 C 0.77318 0.44091 0.10047 0.0
H2632 H 0.77641 0.4236 0.11767 0.0
C2633 C 0.78878 0.44828 0.13292 0.0
C2634 C 0.78586 0.4439 0.14012 0.0
C2635 C 0.78584 0.44613 0.12481 0.0
C2636 C 0.7754 0.42854 0.113 0.0
H2637 H 0.77476 0.43298 0.06909 0.0
H2638 H 0.77852 0.43765 0.08343 0.0
H2639 H 0.77183 0.41952 0.10345 0.0
H2640 H 0.77738 0.43397 0.14446 0.0
H2641 H 0.77206 0.43037 0.13036 0.0
H2642 H 0.77665 0.44996 0.11001 0.0
C2643 C 0.77341 0.4331 0.08263 0.0
C2644 C 0.7728 0.42619 0.10483 0.0
C2645 C 0.77129 0.43039 0.07443 0.0
C2646 C 0.77981 0.43743 0.13904 0.0
C2647 C 0.7768 0.43533 0.13094 0.0
C2648 C 0.7757 0.44328 0.10866 0.0
C2649 C 0.76918 0.42977 0.08973 0.0
C2650 C 0.77171 0.43233 0.09846 0.0
C2651 C 0.77983 0.43959 0.1237 0.0
C2652 C 0.7769 0.43712 0.11503 0.0
H2653 H 0.75544 0.41653 0.07949 0.0
H2654 H 0.75922 0.4212 0.0938 0.0
H2655 H 0.77229 0.44579 0.09571 0.0
H2656 H 0.79348 0.45327 0.13353 0.0
H2657 H 0.78843 0.44947 0.1194 0.0
C2658 C 0.77073 0.53217 0.38762 0.0
C2659 C 0.76424 0.5381 0.38915 0.0
C2660 C 0.77284 0.52984 0.37931 0.0
C2661 C 0.77206 0.53769 0.35741 0.0
H2662 H 0.77606 0.51419 0.35124 0.0
C2663 C 0.77863 0.52779 0.32272 0.0
C2664 C 0.78468 0.52138 0.32132 0.0
C2665 C 0.7758 0.52961 0.33093 0.0
C2666 C 0.77508 0.5208 0.35287 0.0
H2667 H 0.75481 0.54615 0.38315 0.0
H2668 H 0.75855 0.54213 0.36865 0.0
H2669 H 0.77178 0.51772 0.36571 0.0
H2670 H 0.7925 0.51187 0.32748 0.0
H2671 H 0.78775 0.51519 0.34181 0.0
H2672 H 0.77554 0.54083 0.34467 0.0
C2673 C 0.76201 0.5393 0.37388 0.0
C2674 C 0.7726 0.52281 0.36116 0.0
C2675 C 0.75985 0.54157 0.38219 0.0
C2676 C 0.78781 0.51682 0.32833 0.0
C2677 C 0.78503 0.51869 0.33655 0.0
C2678 C 0.77462 0.5357 0.34914 0.0
C2679 C 0.76857 0.53345 0.37235 0.0
C2680 C 0.77107 0.53128 0.36352 0.0
C2681 C 0.779 0.52512 0.33797 0.0
C2682 C 0.77616 0.52722 0.34676 0.0
H2683 H 0.77424 0.52937 0.39284 0.0
H2684 H 0.77797 0.52536 0.37832 0.0
H2685 H 0.77105 0.54429 0.35907 0.0
H2686 H 0.77605 0.53139 0.31745 0.0
H2687 H 0.77105 0.5345 0.33175 0.0
loop_
_geom_bond_atom_site_label_1
_geom_bond_atom_site_label_2
_geom_bond_distance
_geom_bond_site_symmetry_2
_ccdc_geom_bond_type
O0 Cd1 2.300 . S
O0 C7 1.275 . S
Cd1 O0 2.300 . S
Cd1 O9 2.381 . S
Cd1 O10 2.378 . S
O2 Cd3 2.385 . S
O2 C7 1.255 . S
Cd3 O2 2.385 . S
Cd3 O4 2.317 . S
O4 Cd3 2.317 . S
O4 C5 1.232 . S
C5 O4 1.232 . S
C5 O6 1.218 . S
O6 C5 1.218 . S
C7 O0 1.275 . S
C7 O2 1.255 . S
C8 O9 1.258 . S
C8 O10 1.256 . S
O9 Cd1 2.381 . S
O9 C8 1.258 . S
O10 Cd1 2.378 . S
O10 C8 1.256 . S
O11 Cd12 2.300 . S
O11 C18 1.275 . S
Cd12 O11 2.300 . S
Cd12 O20 2.381 . S
Cd12 O21 2.378 . S
O13 Cd14 2.385 . S
O13 C18 1.255 . S
Cd14 O13 2.385 . S
Cd14 O15 2.317 . S
O15 Cd14 2.317 . S
O15 C16 1.232 . S
C16 O15 1.232 . S
C16 O17 1.218 . S
O17 C16 1.218 . S
C18 O11 1.275 . S
C18 O13 1.255 . S
C19 O20 1.258 . S
C19 O21 1.256 . S
O20 Cd12 2.381 . S
O20 C19 1.258 . S
O21 Cd12 2.378 . S
O21 C19 1.256 . S
O22 Cd23 2.300 . S
O22 C29 1.275 . S
Cd23 O22 2.300 . S
Cd23 O31 2.381 . S
Cd23 O32 2.378 . S
O24 Cd25 2.385 . S
O24 C29 1.255 . S
Cd25 O24 2.385 . S
Cd25 O26 2.317 . S
O26 Cd25 2.317 . S
O26 C27 1.232 . S
C27 O26 1.232 . S
C27 O28 1.218 . S
O28 C27 1.218 . S
C29 O22 1.275 . S
C29 O24 1.255 . S
C30 O31 1.258 . S
C30 O32 1.256 . S
O31 Cd23 2.381 . S
O31 C30 1.258 . S
O32 Cd23 2.378 . S
O32 C30 1.256 . S
O33 Cd34 2.300 . S
O33 C40 1.275 . S
Cd34 O33 2.300 . S
Cd34 O42 2.381 . S
Cd34 O43 2.378 . S
O35 Cd36 2.385 . S
O35 C40 1.255 . S
Cd36 O35 2.385 . S
Cd36 O37 2.317 . S
O37 Cd36 2.317 . S
O37 C38 1.232 . S
C38 O37 1.232 . S
C38 O39 1.218 . S
O39 C38 1.218 . S
C40 O33 1.275 . S
C40 O35 1.255 . S
C41 O42 1.258 . S
C41 O43 1.256 . S
O42 Cd34 2.381 . S
O42 C41 1.258 . S
O43 Cd34 2.378 . S
O43 C41 1.256 . S
O44 Cd45 2.300 . S
O44 C51 1.275 . S
Cd45 O44 2.300 . S
Cd45 O53 2.381 . S
Cd45 O54 2.378 . S
O46 Cd47 2.385 . S
O46 C51 1.255 . S
Cd47 O46 2.385 . S
Cd47 O48 2.317 . S
O48 Cd47 2.317 . S
O48 C49 1.232 . S
C49 O48 1.232 . S
C49 O50 1.218 . S
O50 C49 1.218 . S
C51 O44 1.275 . S
C51 O46 1.255 . S
C52 O53 1.258 . S
C52 O54 1.256 . S
O53 Cd45 2.381 . S
O53 C52 1.258 . S
O54 Cd45 2.378 . S
O54 C52 1.256 . S
O55 Cd56 2.300 . S
O55 C62 1.275 . S
Cd56 O55 2.300 . S
Cd56 O64 2.381 . S
Cd56 O65 2.378 . S
O57 Cd58 2.385 . S
O57 C62 1.255 . S
Cd58 O57 2.385 . S
Cd58 O59 2.317 . S
O59 Cd58 2.317 . S
O59 C60 1.232 . S
C60 O59 1.232 . S
C60 O61 1.218 . S
O61 C60 1.218 . S
C62 O55 1.275 . S
C62 O57 1.255 . S
C63 O64 1.258 . S
C63 O65 1.256 . S
O64 Cd56 2.381 . S
O64 C63 1.258 . S
O65 Cd56 2.378 . S
O65 C63 1.256 . S
O66 Cd67 2.300 . S
O66 C73 1.275 . S
Cd67 O66 2.300 . S
Cd67 O75 2.381 . S
Cd67 O76 2.378 . S
O68 Cd69 2.385 . S
O68 C73 1.255 . S
Cd69 O68 2.385 . S
Cd69 O70 2.317 . S
O70 Cd69 2.317 . S
O70 C71 1.232 . S
C71 O70 1.232 . S
C71 O72 1.218 . S
O72 C71 1.218 . S
C73 O66 1.275 . S
C73 O68 1.255 . S
C74 O75 1.258 . S
C74 O76 1.256 . S
O75 Cd67 2.381 . S
O75 C74 1.258 . S
O76 Cd67 2.378 . S
O76 C74 1.256 . S
O77 Cd78 2.300 . S
O77 C84 1.275 . S
Cd78 O77 2.300 . S
Cd78 O86 2.381 . S
Cd78 O87 2.378 . S
O79 Cd80 2.385 . S
O79 C84 1.255 . S
Cd80 O79 2.385 . S
Cd80 O81 2.317 . S
O81 Cd80 2.317 . S
O81 C82 1.232 . S
C82 O81 1.232 . S
C82 O83 1.218 . S
O83 C82 1.218 . S
C84 O77 1.275 . S
C84 O79 1.255 . S
C85 O86 1.258 . S
C85 O87 1.256 . S
O86 Cd78 2.381 . S
O86 C85 1.258 . S
O87 Cd78 2.378 . S
O87 C85 1.256 . S
O88 Cd89 2.300 . S
O88 C95 1.275 . S
Cd89 O88 2.300 . S
Cd89 O97 2.381 . S
Cd89 O98 2.378 . S
O90 Cd91 2.385 . S
O90 C95 1.255 . S
Cd91 O90 2.385 . S
Cd91 O92 2.317 . S
O92 Cd91 2.317 . S
O92 C93 1.232 . S
C93 O92 1.232 . S
C93 O94 1.218 . S
O94 C93 1.218 . S
C95 O88 1.275 . S
C95 O90 1.255 . S
C96 O97 1.258 . S
C96 O98 1.256 . S
O97 Cd89 2.381 . S
O97 C96 1.258 . S
O98 Cd89 2.378 . S
O98 C96 1.256 . S
O99 Cd100 2.300 . S
O99 C106 1.275 . S
Cd100 O99 2.300 . S
Cd100 O108 2.381 . S
Cd100 O109 2.378 . S
O101 Cd102 2.385 . S
O101 C106 1.255 . S
Cd102 O101 2.385 . S
Cd102 O103 2.317 . S
O103 Cd102 2.317 . S
O103 C104 1.232 . S
C104 O103 1.232 . S
C104 O105 1.218 . S
O105 C104 1.218 . S
C106 O99 1.275 . S
C106 O101 1.255 . S
C107 O108 1.258 . S
C107 O109 1.256 . S
O108 Cd100 2.381 . S
O108 C107 1.258 . S
O109 Cd100 2.378 . S
O109 C107 1.256 . S
O110 Cd111 2.300 . S
O110 C117 1.275 . S
Cd111 O110 2.300 . S
Cd111 O119 2.381 . S
Cd111 O120 2.378 . S
O112 Cd113 2.385 . S
O112 C117 1.255 . S
Cd113 O112 2.385 . S
Cd113 O114 2.317 . S
O114 Cd113 2.317 . S
O114 C115 1.232 . S
C115 O114 1.232 . S
C115 O116 1.218 . S
O116 C115 1.218 . S
C117 O110 1.275 . S
C117 O112 1.255 . S
C118 O119 1.258 . S
C118 O120 1.256 . S
O119 Cd111 2.381 . S
O119 C118 1.258 . S
O120 Cd111 2.378 . S
O120 C118 1.256 . S
O121 Cd122 2.300 . S
O121 C128 1.275 . S
Cd122 O121 2.300 . S
Cd122 O130 2.381 . S
Cd122 O131 2.378 . S
O123 Cd124 2.385 . S
O123 C128 1.255 . S
Cd124 O123 2.385 . S
Cd124 O125 2.317 . S
O125 Cd124 2.317 . S
O125 C126 1.232 . S
C126 O125 1.232 . S
C126 O127 1.218 . S
O127 C126 1.218 . S
C128 O121 1.275 . S
C128 O123 1.255 . S
C129 O130 1.258 . S
C129 O131 1.256 . S
O130 Cd122 2.381 . S
O130 C129 1.258 . S
O131 Cd122 2.378 . S
O131 C129 1.256 . S
O132 Cd133 2.300 . S
O132 C139 1.275 . S
Cd133 O132 2.300 . S
Cd133 O141 2.381 . S
Cd133 O142 2.378 . S
O134 Cd135 2.385 . S
O134 C139 1.255 . S
Cd135 O134 2.385 . S
Cd135 O136 2.317 . S
O136 Cd135 2.317 . S
O136 C137 1.232 . S
C137 O136 1.232 . S
C137 O138 1.218 . S
O138 C137 1.218 . S
C139 O132 1.275 . S
C139 O134 1.255 . S
C140 O141 1.258 . S
C140 O142 1.256 . S
O141 Cd133 2.381 . S
O141 C140 1.258 . S
O142 Cd133 2.378 . S
O142 C140 1.256 . S
O143 Cd144 2.300 . S
O143 C150 1.275 . S
Cd144 O143 2.300 . S
Cd144 O152 2.381 . S
Cd144 O153 2.378 . S
O145 Cd146 2.385 . S
O145 C150 1.255 . S
Cd146 O145 2.385 . S
Cd146 O147 2.317 . S
O147 Cd146 2.317 . S
O147 C148 1.232 . S
C148 O147 1.232 . S
C148 O149 1.218 . S
O149 C148 1.218 . S
C150 O143 1.275 . S
C150 O145 1.255 . S
C151 O152 1.258 . S
C151 O153 1.256 . S
O152 Cd144 2.381 . S
O152 C151 1.258 . S
O153 Cd144 2.378 . S
O153 C151 1.256 . S
O154 Cd155 2.300 . S
O154 C161 1.275 . S
Cd155 O154 2.300 . S
Cd155 O163 2.381 . S
Cd155 O164 2.378 . S
O156 Cd157 2.385 . S
O156 C161 1.255 . S
Cd157 O156 2.385 . S
Cd157 O158 2.317 . S
O158 Cd157 2.317 . S
O158 C159 1.232 . S
C159 O158 1.232 . S
C159 O160 1.218 . S
O160 C159 1.218 . S
C161 O154 1.275 . S
C161 O156 1.255 . S
C162 O163 1.258 . S
C162 O164 1.256 . S
O163 Cd155 2.381 . S
O163 C162 1.258 . S
O164 Cd155 2.378 . S
O164 C162 1.256 . S
O165 Cd166 2.300 . S
O165 C172 1.275 . S
Cd166 O165 2.300 . S
Cd166 O174 2.381 . S
Cd166 O175 2.378 . S
O167 Cd168 2.385 . S
O167 C172 1.255 . S
Cd168 O167 2.385 . S
Cd168 O169 2.317 . S
O169 Cd168 2.317 . S
O169 C170 1.232 . S
C170 O169 1.232 . S
C170 O171 1.218 . S
O171 C170 1.218 . S
C172 O165 1.275 . S
C172 O167 1.255 . S
C173 O174 1.258 . S
C173 O175 1.256 . S
O174 Cd166 2.381 . S
O174 C173 1.258 . S
O175 Cd166 2.378 . S
O175 C173 1.256 . S
O176 Cd177 2.300 . S
O176 C183 1.275 . S
Cd177 O176 2.300 . S
Cd177 O185 2.381 . S
Cd177 O186 2.378 . S
O178 Cd179 2.385 . S
O178 C183 1.255 . S
Cd179 O178 2.385 . S
Cd179 O180 2.317 . S
O180 Cd179 2.317 . S
O180 C181 1.232 . S
C181 O180 1.232 . S
C181 O182 1.218 . S
O182 C181 1.218 . S
C183 O176 1.275 . S
C183 O178 1.255 . S
C184 O185 1.258 . S
C184 O186 1.256 . S
O185 Cd177 2.381 . S
O185 C184 1.258 . S
O186 Cd177 2.378 . S
O186 C184 1.256 . S
O187 Cd188 2.300 . S
O187 C194 1.275 . S
Cd188 O187 2.300 . S
Cd188 O196 2.381 . S
Cd188 O197 2.378 . S
O189 Cd190 2.385 . S
O189 C194 1.255 . S
Cd190 O189 2.385 . S
Cd190 O191 2.317 . S
O191 Cd190 2.317 . S
O191 C192 1.232 . S
C192 O191 1.232 . S
C192 O193 1.218 . S
O193 C192 1.218 . S
C194 O187 1.275 . S
C194 O189 1.255 . S
C195 O196 1.258 . S
C195 O197 1.256 . S
O196 Cd188 2.381 . S
O196 C195 1.258 . S
O197 Cd188 2.378 . S
O197 C195 1.256 . S
O198 Cd199 2.300 . S
O198 C205 1.275 . S
Cd199 O198 2.300 . S
Cd199 O207 2.381 . S
Cd199 O208 2.378 . S
O200 Cd201 2.385 . S
O200 C205 1.255 . S
Cd201 O200 2.385 . S
Cd201 O202 2.317 . S
O202 Cd201 2.317 . S
O202 C203 1.232 . S
C203 O202 1.232 . S
C203 O204 1.218 . S
O204 C203 1.218 . S
C205 O198 1.275 . S
C205 O200 1.255 . S
C206 O207 1.258 . S
C206 O208 1.256 . S
O207 Cd199 2.381 . S
O207 C206 1.258 . S
O208 Cd199 2.378 . S
O208 C206 1.256 . S
O209 Cd210 2.300 . S
O209 C216 1.275 . S
Cd210 O209 2.300 . S
Cd210 O218 2.381 . S
Cd210 O219 2.378 . S
O211 Cd212 2.385 . S
O211 C216 1.255 . S
Cd212 O211 2.385 . S
Cd212 O213 2.317 . S
O213 Cd212 2.317 . S
O213 C214 1.232 . S
C214 O213 1.232 . S
C214 O215 1.218 . S
O215 C214 1.218 . S
C216 O209 1.275 . S
C216 O211 1.255 . S
C217 O218 1.258 . S
C217 O219 1.256 . S
O218 Cd210 2.381 . S
O218 C217 1.258 . S
O219 Cd210 2.378 . S
O219 C217 1.256 . S
O220 Cd221 2.300 . S
O220 C227 1.275 . S
Cd221 O220 2.300 . S
Cd221 O229 2.381 . S
Cd221 O230 2.378 . S
O222 Cd223 2.385 . S
O222 C227 1.255 . S
Cd223 O222 2.385 . S
Cd223 O224 2.317 . S
O224 Cd223 2.317 . S
O224 C225 1.232 . S
C225 O224 1.232 . S
C225 O226 1.218 . S
O226 C225 1.218 . S
C227 O220 1.275 . S
C227 O222 1.255 . S
C228 O229 1.258 . S
C228 O230 1.256 . S
O229 Cd221 2.381 . S
O229 C228 1.258 . S
O230 Cd221 2.378 . S
O230 C228 1.256 . S
O231 Cd232 2.300 . S
O231 C238 1.275 . S
Cd232 O231 2.300 . S
Cd232 O240 2.381 . S
Cd232 O241 2.378 . S
O233 Cd234 2.385 . S
O233 C238 1.255 . S
Cd234 O233 2.385 . S
Cd234 O235 2.317 . S
O235 Cd234 2.317 . S
O235 C236 1.232 . S
C236 O235 1.232 . S
C236 O237 1.218 . S
O237 C236 1.218 . S
C238 O231 1.275 . S
C238 O233 1.255 . S
C239 O240 1.258 . S
C239 O241 1.256 . S
O240 Cd232 2.381 . S
O240 C239 1.258 . S
O241 Cd232 2.378 . S
O241 C239 1.256 . S
O242 Cd243 2.300 . S
O242 C249 1.275 . S
Cd243 O242 2.300 . S
Cd243 O251 2.381 . S
Cd243 O252 2.378 . S
O244 Cd245 2.385 . S
O244 C249 1.255 . S
Cd245 O244 2.385 . S
Cd245 O246 2.317 . S
O246 Cd245 2.317 . S
O246 C247 1.232 . S
C247 O246 1.232 . S
C247 O248 1.218 . S
O248 C247 1.218 . S
C249 O242 1.275 . S
C249 O244 1.255 . S
C250 O251 1.258 . S
C250 O252 1.256 . S
O251 Cd243 2.381 . S
O251 C250 1.258 . S
O252 Cd243 2.378 . S
O252 C250 1.256 . S
O253 Cd254 2.300 . S
O253 C260 1.275 . S
Cd254 O253 2.300 . S
Cd254 O262 2.381 . S
Cd254 O263 2.378 . S
O255 Cd256 2.385 . S
O255 C260 1.255 . S
Cd256 O255 2.385 . S
Cd256 O257 2.317 . S
O257 Cd256 2.317 . S
O257 C258 1.232 . S
C258 O257 1.232 . S
C258 O259 1.218 . S
O259 C258 1.218 . S
C260 O253 1.275 . S
C260 O255 1.255 . S
C261 O262 1.258 . S
C261 O263 1.256 . S
O262 Cd254 2.381 . S
O262 C261 1.258 . S
O263 Cd254 2.378 . S
O263 C261 1.256 . S
O264 Cd265 2.300 . S
O264 C271 1.275 . S
Cd265 O264 2.300 . S
Cd265 O273 2.381 . S
Cd265 O274 2.378 . S
O266 Cd267 2.385 . S
O266 C271 1.255 . S
Cd267 O266 2.385 . S
Cd267 O268 2.317 . S
O268 Cd267 2.317 . S
O268 C269 1.232 . S
C269 O268 1.232 . S
C269 O270 1.218 . S
O270 C269 1.218 . S
C271 O264 1.275 . S
C271 O266 1.255 . S
C272 O273 1.258 . S
C272 O274 1.256 . S
O273 Cd265 2.381 . S
O273 C272 1.258 . S
O274 Cd265 2.378 . S
O274 C272 1.256 . S
O275 Cd276 2.300 . S
O275 C282 1.275 . S
Cd276 O275 2.300 . S
Cd276 O284 2.381 . S
Cd276 O285 2.378 . S
O277 Cd278 2.385 . S
O277 C282 1.255 . S
Cd278 O277 2.385 . S
Cd278 O279 2.317 . S
O279 Cd278 2.317 . S
O279 C280 1.232 . S
C280 O279 1.232 . S
C280 O281 1.218 . S
O281 C280 1.218 . S
C282 O275 1.275 . S
C282 O277 1.255 . S
C283 O284 1.258 . S
C283 O285 1.256 . S
O284 Cd276 2.381 . S
O284 C283 1.258 . S
O285 Cd276 2.378 . S
O285 C283 1.256 . S
O286 Cd287 2.300 . S
O286 C293 1.275 . S
Cd287 O286 2.300 . S
Cd287 O295 2.381 . S
Cd287 O296 2.378 . S
O288 Cd289 2.385 . S
O288 C293 1.255 . S
Cd289 O288 2.385 . S
Cd289 O290 2.317 . S
O290 Cd289 2.317 . S
O290 C291 1.232 . S
C291 O290 1.232 . S
C291 O292 1.218 . S
O292 C291 1.218 . S
C293 O286 1.275 . S
C293 O288 1.255 . S
C294 O295 1.258 . S
C294 O296 1.256 . S
O295 Cd287 2.381 . S
O295 C294 1.258 . S
O296 Cd287 2.378 . S
O296 C294 1.256 . S
O297 Cd298 2.300 . S
O297 C304 1.275 . S
Cd298 O297 2.300 . S
Cd298 O306 2.381 . S
Cd298 O307 2.378 . S
O299 Cd300 2.385 . S
O299 C304 1.255 . S
Cd300 O299 2.385 . S
Cd300 O301 2.317 . S
O301 Cd300 2.317 . S
O301 C302 1.232 . S
C302 O301 1.232 . S
C302 O303 1.218 . S
O303 C302 1.218 . S
C304 O297 1.275 . S
C304 O299 1.255 . S
C305 O306 1.258 . S
C305 O307 1.256 . S
O306 Cd298 2.381 . S
O306 C305 1.258 . S
O307 Cd298 2.378 . S
O307 C305 1.256 . S
O308 Cd309 2.300 . S
O308 C315 1.275 . S
Cd309 O308 2.300 . S
Cd309 O317 2.381 . S
Cd309 O318 2.378 . S
O310 Cd311 2.385 . S
O310 C315 1.255 . S
Cd311 O310 2.385 . S
Cd311 O312 2.317 . S
O312 Cd311 2.317 . S
O312 C313 1.232 . S
C313 O312 1.232 . S
C313 O314 1.218 . S
O314 C313 1.218 . S
C315 O308 1.275 . S
C315 O310 1.255 . S
C316 O317 1.258 . S
C316 O318 1.256 . S
O317 Cd309 2.381 . S
O317 C316 1.258 . S
O318 Cd309 2.378 . S
O318 C316 1.256 . S
O319 Cd320 2.300 . S
O319 C326 1.275 . S
Cd320 O319 2.300 . S
Cd320 O328 2.381 . S
Cd320 O329 2.378 . S
O321 Cd322 2.385 . S
O321 C326 1.255 . S
Cd322 O321 2.385 . S
Cd322 O323 2.317 . S
O323 Cd322 2.317 . S
O323 C324 1.232 . S
C324 O323 1.232 . S
C324 O325 1.218 . S
O325 C324 1.218 . S
C326 O319 1.275 . S
C326 O321 1.255 . S
C327 O328 1.258 . S
C327 O329 1.256 . S
O328 Cd320 2.381 . S
O328 C327 1.258 . S
O329 Cd320 2.378 . S
O329 C327 1.256 . S
O330 Cd331 2.300 . S
O330 C337 1.275 . S
Cd331 O330 2.300 . S
Cd331 O339 2.381 . S
Cd331 O340 2.378 . S
O332 Cd333 2.385 . S
O332 C337 1.255 . S
Cd333 O332 2.385 . S
Cd333 O334 2.317 . S
O334 Cd333 2.317 . S
O334 C335 1.232 . S
C335 O334 1.232 . S
C335 O336 1.218 . S
O336 C335 1.218 . S
C337 O330 1.275 . S
C337 O332 1.255 . S
C338 O339 1.258 . S
C338 O340 1.256 . S
O339 Cd331 2.381 . S
O339 C338 1.258 . S
O340 Cd331 2.378 . S
O340 C338 1.256 . S
O341 Cd342 2.300 . S
O341 C348 1.275 . S
Cd342 O341 2.300 . S
Cd342 O350 2.381 . S
Cd342 O351 2.378 . S
O343 Cd344 2.385 . S
O343 C348 1.255 . S
Cd344 O343 2.385 . S
Cd344 O345 2.317 . S
O345 Cd344 2.317 . S
O345 C346 1.232 . S
C346 O345 1.232 . S
C346 O347 1.218 . S
O347 C346 1.218 . S
C348 O341 1.275 . S
C348 O343 1.255 . S
C349 O350 1.258 . S
C349 O351 1.256 . S
O350 Cd342 2.381 . S
O350 C349 1.258 . S
O351 Cd342 2.378 . S
O351 C349 1.256 . S
O352 Cd353 2.300 . S
O352 C359 1.275 . S
Cd353 O352 2.300 . S
Cd353 O361 2.381 . S
Cd353 O362 2.378 . S
O354 Cd355 2.385 . S
O354 C359 1.255 . S
Cd355 O354 2.385 . S
Cd355 O356 2.317 . S
O356 Cd355 2.317 . S
O356 C357 1.232 . S
C357 O356 1.232 . S
C357 O358 1.218 . S
O358 C357 1.218 . S
C359 O352 1.275 . S
C359 O354 1.255 . S
C360 O361 1.258 . S
C360 O362 1.256 . S
O361 Cd353 2.381 . S
O361 C360 1.258 . S
O362 Cd353 2.378 . S
O362 C360 1.256 . S
O363 Cd364 2.300 . S
O363 C370 1.275 . S
Cd364 O363 2.300 . S
Cd364 O372 2.381 . S
Cd364 O373 2.378 . S
O365 Cd366 2.385 . S
O365 C370 1.255 . S
Cd366 O365 2.385 . S
Cd366 O367 2.317 . S
O367 Cd366 2.317 . S
O367 C368 1.232 . S
C368 O367 1.232 . S
C368 O369 1.218 . S
O369 C368 1.218 . S
C370 O363 1.275 . S
C370 O365 1.255 . S
C371 O372 1.258 . S
C371 O373 1.256 . S
O372 Cd364 2.381 . S
O372 C371 1.258 . S
O373 Cd364 2.378 . S
O373 C371 1.256 . S
O374 Cd375 2.300 . S
O374 C381 1.275 . S
Cd375 O374 2.300 . S
Cd375 O383 2.381 . S
Cd375 O384 2.378 . S
O376 Cd377 2.385 . S
O376 C381 1.255 . S
Cd377 O376 2.385 . S
Cd377 O378 2.317 . S
O378 Cd377 2.317 . S
O378 C379 1.232 . S
C379 O378 1.232 . S
C379 O380 1.218 . S
O380 C379 1.218 . S
C381 O374 1.275 . S
C381 O376 1.255 . S
C382 O383 1.258 . S
C382 O384 1.256 . S
O383 Cd375 2.381 . S
O383 C382 1.258 . S
O384 Cd375 2.378 . S
O384 C382 1.256 . S
O385 Cd386 2.300 . S
O385 C392 1.275 . S
Cd386 O385 2.300 . S
Cd386 O394 2.381 . S
Cd386 O395 2.378 . S
O387 Cd388 2.385 . S
O387 C392 1.255 . S
Cd388 O387 2.385 . S
Cd388 O389 2.317 . S
O389 Cd388 2.317 . S
O389 C390 1.232 . S
C390 O389 1.232 . S
C390 O391 1.218 . S
O391 C390 1.218 . S
C392 O385 1.275 . S
C392 O387 1.255 . S
C393 O394 1.258 . S
C393 O395 1.256 . S
O394 Cd386 2.381 . S
O394 C393 1.258 . S
O395 Cd386 2.378 . S
O395 C393 1.256 . S
O396 Cd397 2.300 . S
O396 C403 1.275 . S
Cd397 O396 2.300 . S
Cd397 O405 2.381 . S
Cd397 O406 2.378 . S
O398 Cd399 2.385 . S
O398 C403 1.255 . S
Cd399 O398 2.385 . S
Cd399 O400 2.317 . S
O400 Cd399 2.317 . S
O400 C401 1.232 . S
C401 O400 1.232 . S
C401 O402 1.218 . S
O402 C401 1.218 . S
C403 O396 1.275 . S
C403 O398 1.255 . S
C404 O405 1.258 . S
C404 O406 1.256 . S
O405 Cd397 2.381 . S
O405 C404 1.258 . S
O406 Cd397 2.378 . S
O406 C404 1.256 . S
O407 Cd408 2.300 . S
O407 C414 1.275 . S
Cd408 O407 2.300 . S
Cd408 O416 2.381 . S
Cd408 O417 2.378 . S
O409 Cd410 2.385 . S
O409 C414 1.255 . S
Cd410 O409 2.385 . S
Cd410 O411 2.317 . S
O411 Cd410 2.317 . S
O411 C412 1.232 . S
C412 O411 1.232 . S
C412 O413 1.218 . S
O413 C412 1.218 . S
C414 O407 1.275 . S
C414 O409 1.255 . S
C415 O416 1.258 . S
C415 O417 1.256 . S
O416 Cd408 2.381 . S
O416 C415 1.258 . S
O417 Cd408 2.378 . S
O417 C415 1.256 . S
O418 Cd419 2.300 . S
O418 C425 1.275 . S
Cd419 O418 2.300 . S
Cd419 O427 2.381 . S
Cd419 O428 2.378 . S
O420 Cd421 2.385 . S
O420 C425 1.255 . S
Cd421 O420 2.385 . S
Cd421 O422 2.317 . S
O422 Cd421 2.317 . S
O422 C423 1.232 . S
C423 O422 1.232 . S
C423 O424 1.218 . S
O424 C423 1.218 . S
C425 O418 1.275 . S
C425 O420 1.255 . S
C426 O427 1.258 . S
C426 O428 1.256 . S
O427 Cd419 2.381 . S
O427 C426 1.258 . S
O428 Cd419 2.378 . S
O428 C426 1.256 . S
O429 Cd430 2.300 . S
O429 C436 1.275 . S
Cd430 O429 2.300 . S
Cd430 O438 2.381 . S
Cd430 O439 2.378 . S
O431 Cd432 2.385 . S
O431 C436 1.255 . S
Cd432 O431 2.385 . S
Cd432 O433 2.317 . S
O433 Cd432 2.317 . S
O433 C434 1.232 . S
C434 O433 1.232 . S
C434 O435 1.218 . S
O435 C434 1.218 . S
C436 O429 1.275 . S
C436 O431 1.255 . S
C437 O438 1.258 . S
C437 O439 1.256 . S
O438 Cd430 2.381 . S
O438 C437 1.258 . S
O439 Cd430 2.378 . S
O439 C437 1.256 . S
O440 Cd441 2.300 . S
O440 C447 1.275 . S
Cd441 O440 2.300 . S
Cd441 O449 2.381 . S
Cd441 O450 2.378 . S
O442 Cd443 2.385 . S
O442 C447 1.255 . S
Cd443 O442 2.385 . S
Cd443 O444 2.317 . S
O444 Cd443 2.317 . S
O444 C445 1.232 . S
C445 O444 1.232 . S
C445 O446 1.218 . S
O446 C445 1.218 . S
C447 O440 1.275 . S
C447 O442 1.255 . S
C448 O449 1.258 . S
C448 O450 1.256 . S
O449 Cd441 2.381 . S
O449 C448 1.258 . S
O450 Cd441 2.378 . S
O450 C448 1.256 . S
O451 Cd452 2.300 . S
O451 C458 1.275 . S
Cd452 O451 2.300 . S
Cd452 O460 2.381 . S
Cd452 O461 2.378 . S
O453 Cd454 2.385 . S
O453 C458 1.255 . S
Cd454 O453 2.385 . S
Cd454 O455 2.317 . S
O455 Cd454 2.317 . S
O455 C456 1.232 . S
C456 O455 1.232 . S
C456 O457 1.218 . S
O457 C456 1.218 . S
C458 O451 1.275 . S
C458 O453 1.255 . S
C459 O460 1.258 . S
C459 O461 1.256 . S
O460 Cd452 2.381 . S
O460 C459 1.258 . S
O461 Cd452 2.378 . S
O461 C459 1.256 . S
O462 Cd463 2.300 . S
O462 C469 1.275 . S
Cd463 O462 2.300 . S
Cd463 O471 2.381 . S
Cd463 O472 2.378 . S
O464 Cd465 2.385 . S
O464 C469 1.255 . S
Cd465 O464 2.385 . S
Cd465 O466 2.317 . S
O466 Cd465 2.317 . S
O466 C467 1.232 . S
C467 O466 1.232 . S
C467 O468 1.218 . S
O468 C467 1.218 . S
C469 O462 1.275 . S
C469 O464 1.255 . S
C470 O471 1.258 . S
C470 O472 1.256 . S
O471 Cd463 2.381 . S
O471 C470 1.258 . S
O472 Cd463 2.378 . S
O472 C470 1.256 . S
O473 Cd474 2.300 . S
O473 C480 1.275 . S
Cd474 O473 2.300 . S
Cd474 O482 2.381 . S
Cd474 O483 2.378 . S
O475 Cd476 2.385 . S
O475 C480 1.255 . S
Cd476 O475 2.385 . S
Cd476 O477 2.317 . S
O477 Cd476 2.317 . S
O477 C478 1.232 . S
C478 O477 1.232 . S
C478 O479 1.218 . S
O479 C478 1.218 . S
C480 O473 1.275 . S
C480 O475 1.255 . S
C481 O482 1.258 . S
C481 O483 1.256 . S
O482 Cd474 2.381 . S
O482 C481 1.258 . S
O483 Cd474 2.378 . S
O483 C481 1.256 . S
O484 Cd485 2.300 . S
O484 C491 1.275 . S
Cd485 O484 2.300 . S
Cd485 O493 2.381 . S
Cd485 O494 2.378 . S
O486 Cd487 2.385 . S
O486 C491 1.255 . S
Cd487 O486 2.385 . S
Cd487 O488 2.317 . S
O488 Cd487 2.317 . S
O488 C489 1.232 . S
C489 O488 1.232 . S
C489 O490 1.218 . S
O490 C489 1.218 . S
C491 O484 1.275 . S
C491 O486 1.255 . S
C492 O493 1.258 . S
C492 O494 1.256 . S
O493 Cd485 2.381 . S
O493 C492 1.258 . S
O494 Cd485 2.378 . S
O494 C492 1.256 . S
O495 Cd496 2.300 . S
O495 C502 1.275 . S
Cd496 O495 2.300 . S
Cd496 O504 2.381 . S
Cd496 O505 2.378 . S
O497 Cd498 2.385 . S
O497 C502 1.255 . S
Cd498 O497 2.385 . S
Cd498 O499 2.317 . S
O499 Cd498 2.317 . S
O499 C500 1.232 . S
C500 O499 1.232 . S
C500 O501 1.218 . S
O501 C500 1.218 . S
C502 O495 1.275 . S
C502 O497 1.255 . S
C503 O504 1.258 . S
C503 O505 1.256 . S
O504 Cd496 2.381 . S
O504 C503 1.258 . S
O505 Cd496 2.378 . S
O505 C503 1.256 . S
O506 Cd507 2.300 . S
O506 C513 1.275 . S
Cd507 O506 2.300 . S
Cd507 O515 2.381 . S
Cd507 O516 2.378 . S
O508 Cd509 2.385 . S
O508 C513 1.255 . S
Cd509 O508 2.385 . S
Cd509 O510 2.317 . S
O510 Cd509 2.317 . S
O510 C511 1.232 . S
C511 O510 1.232 . S
C511 O512 1.218 . S
O512 C511 1.218 . S
C513 O506 1.275 . S
C513 O508 1.255 . S
C514 O515 1.258 . S
C514 O516 1.256 . S
O515 Cd507 2.381 . S
O515 C514 1.258 . S
O516 Cd507 2.378 . S
O516 C514 1.256 . S
O517 Cd518 2.300 . S
O517 C524 1.275 . S
Cd518 O517 2.300 . S
Cd518 O526 2.381 . S
Cd518 O527 2.378 . S
O519 Cd520 2.385 . S
O519 C524 1.255 . S
Cd520 O519 2.385 . S
Cd520 O521 2.317 . S
O521 Cd520 2.317 . S
O521 C522 1.232 . S
C522 O521 1.232 . S
C522 O523 1.218 . S
O523 C522 1.218 . S
C524 O517 1.275 . S
C524 O519 1.255 . S
C525 O526 1.258 . S
C525 O527 1.256 . S
O526 Cd518 2.381 . S
O526 C525 1.258 . S
O527 Cd518 2.378 . S
O527 C525 1.256 . S
C528 C529 1.349 . S
C528 C530 1.327 . S
C528 H553 0.950 . S
C529 C528 1.349 . S
C529 C545 1.349 . S
C530 C528 1.327 . S
C530 C549 1.429 . S
C530 H554 0.950 . S
C531 C548 1.574 1_545 S
C531 C550 1.368 . S
C531 H555 0.949 . S
H532 C536 0.949 . S
C533 C534 1.349 . S
C533 C535 1.327 . S
C533 H556 0.950 . S
C534 C533 1.349 . S
C534 C546 1.349 . S
C535 C533 1.327 . S
C535 C551 1.429 . S
C535 H557 0.950 . S
C536 H532 0.949 . S
C536 C544 1.574 1_565 S
C536 C552 1.368 . S
H537 C545 0.950 . S
H538 C543 0.950 . S
H539 C544 0.949 . S
H540 C546 0.950 . S
H541 C547 0.950 . S
H542 C548 0.949 . S
C543 H538 0.950 . S
C543 C545 1.327 . S
C543 C549 1.429 . S
C544 C536 1.574 1_545 S
C544 H539 0.949 . S
C544 C550 1.368 . S
C545 C529 1.349 . S
C545 H537 0.950 . S
C545 C543 1.327 . S
C546 C534 1.349 . S
C546 H540 0.950 . S
C546 C547 1.327 . S
C547 H541 0.950 . S
C547 C546 1.327 . S
C547 C551 1.429 . S
C548 C531 1.574 1_565 S
C548 H542 0.949 . S
C548 C552 1.368 . S
C549 C530 1.429 . S
C549 C543 1.429 . S
C549 C550 1.523 . S
C550 C531 1.368 . S
C550 C544 1.368 . S
C550 C549 1.523 . S
C551 C535 1.429 . S
C551 C547 1.429 . S
C551 C552 1.523 . S
C552 C536 1.368 . S
C552 C548 1.368 . S
C552 C551 1.523 . S
H553 C528 0.950 . S
H554 C530 0.950 . S
H555 C531 0.949 . S
H556 C533 0.950 . S
H557 C535 0.950 . S
C558 C559 1.349 . S
C558 C560 1.327 . S
C558 H583 0.950 . S
C559 C558 1.349 . S
C559 C575 1.349 . S
C560 C558 1.327 . S
C560 C579 1.429 . S
C560 H584 0.950 . S
C561 C578 1.574 . S
C561 C580 1.368 . S
C561 H585 0.949 . S
H562 C566 0.949 . S
C563 C564 1.349 . S
C563 C565 1.327 . S
C563 H586 0.950 . S
C564 C563 1.349 . S
C564 C576 1.349 . S
C565 C563 1.327 . S
C565 C581 1.429 . S
C565 H587 0.950 . S
C566 H562 0.949 . S
C566 C574 1.574 . S
C566 C582 1.368 . S
H567 C575 0.950 . S
H568 C573 0.950 . S
H569 C574 0.949 . S
H570 C576 0.950 . S
H571 C577 0.950 . S
H572 C578 0.949 . S
C573 H568 0.950 . S
C573 C575 1.327 . S
C573 C579 1.429 . S
C574 C566 1.574 . S
C574 H569 0.949 . S
C574 C580 1.368 . S
C575 C559 1.349 . S
C575 H567 0.950 . S
C575 C573 1.327 . S
C576 C564 1.349 . S
C576 H570 0.950 . S
C576 C577 1.327 . S
C577 H571 0.950 . S
C577 C576 1.327 . S
C577 C581 1.429 . S
C578 C561 1.574 . S
C578 H572 0.949 . S
C578 C582 1.368 . S
C579 C560 1.429 . S
C579 C573 1.429 . S
C579 C580 1.523 . S
C580 C561 1.368 . S
C580 C574 1.368 . S
C580 C579 1.523 . S
C581 C565 1.429 . S
C581 C577 1.429 . S
C581 C582 1.523 . S
C582 C566 1.368 . S
C582 C578 1.368 . S
C582 C581 1.523 . S
H583 C558 0.950 . S
H584 C560 0.950 . S
H585 C561 0.949 . S
H586 C563 0.950 . S
H587 C565 0.950 . S
C588 C589 1.349 . S
C588 C590 1.327 . S
C588 H613 0.950 . S
C589 C588 1.349 . S
C589 C605 1.349 . S
C590 C588 1.327 . S
C590 C609 1.429 . S
C590 H614 0.950 . S
C591 C608 1.458 1_545 S
C591 C610 1.368 . S
C591 H615 0.949 . S
H592 C596 0.949 . S
C593 C594 1.349 . S
C593 C595 1.327 . S
C593 H616 0.950 . S
C594 C593 1.349 . S
C594 C606 1.349 . S
C595 C593 1.327 . S
C595 C611 1.429 . S
C595 H617 0.950 . S
C596 H592 0.949 . S
C596 C604 1.458 1_565 S
C596 C612 1.368 . S
H597 C605 0.950 . S
H598 C603 0.950 . S
H599 C604 0.976 . S
H600 C606 0.950 . S
H601 C607 0.950 . S
H602 C608 0.976 . S
C603 H598 0.950 . S
C603 C605 1.327 . S
C603 C609 1.429 . S
C604 C596 1.458 1_545 S
C604 H599 0.976 . S
C604 C610 1.469 . S
C605 C589 1.349 . S
C605 H597 0.950 . S
C605 C603 1.327 . S
C606 C594 1.349 . S
C606 H600 0.950 . S
C606 C607 1.327 . S
C607 H601 0.950 . S
C607 C606 1.327 . S
C607 C611 1.429 . S
C608 C591 1.458 1_565 S
C608 H602 0.976 . S
C608 C612 1.469 . S
C609 C590 1.429 . S
C609 C603 1.429 . S
C609 C610 1.523 . S
C610 C591 1.368 . S
C610 C604 1.469 . S
C610 C609 1.523 . S
C611 C595 1.429 . S
C611 C607 1.429 . S
C611 C612 1.523 . S
C612 C596 1.368 . S
C612 C608 1.469 . S
C612 C611 1.523 . S
H613 C588 0.950 . S
H614 C590 0.950 . S
H615 C591 0.949 . S
H616 C593 0.950 . S
H617 C595 0.950 . S
C618 C619 1.349 . S
C618 C620 1.327 . S
C618 H643 0.950 . S
C619 C618 1.349 . S
C619 C635 1.349 . S
C620 C618 1.327 . S
C620 C639 1.429 . S
C620 H644 0.950 . S
C621 C638 1.574 . S
C621 C640 1.368 . S
C621 H645 0.949 . S
H622 C626 0.949 . S
C623 C624 1.349 . S
C623 C625 1.327 . S
C623 H646 0.950 . S
C624 C623 1.349 . S
C624 C636 1.349 . S
C625 C623 1.327 . S
C625 C641 1.429 . S
C625 H647 0.950 . S
C626 H622 0.949 . S
C626 C634 1.574 . S
C626 C642 1.368 . S
H627 C635 0.950 . S
H628 C633 0.950 . S
H629 C634 0.949 . S
H630 C636 0.950 . S
H631 C637 0.950 . S
H632 C638 0.949 . S
C633 H628 0.950 . S
C633 C635 1.327 . S
C633 C639 1.429 . S
C634 C626 1.574 . S
C634 H629 0.949 . S
C634 C640 1.368 1_556 S
C635 C619 1.349 . S
C635 H627 0.950 . S
C635 C633 1.327 . S
C636 C624 1.349 . S
C636 H630 0.950 . S
C636 C637 1.327 . S
C637 H631 0.950 . S
C637 C636 1.327 . S
C637 C641 1.429 . S
C638 C621 1.574 . S
C638 H632 0.949 . S
C638 C642 1.368 1_554 S
C639 C620 1.429 . S
C639 C633 1.429 . S
C639 C640 1.523 . S
C640 C621 1.368 . S
C640 C634 1.368 1_554 S
C640 C639 1.523 . S
C641 C625 1.429 . S
C641 C637 1.429 . S
C641 C642 1.523 . S
C642 C626 1.368 . S
C642 C638 1.368 1_556 S
C642 C641 1.523 . S
H643 C618 0.950 . S
H644 C620 0.950 . S
H645 C621 0.949 . S
H646 C623 0.950 . S
H647 C625 0.950 . S
C648 C649 1.349 . S
C648 C650 1.327 . S
C648 H673 0.950 . S
C649 C648 1.349 . S
C649 C665 1.349 . S
C650 C648 1.327 . S
C650 C669 1.429 . S
C650 H674 0.950 . S
C651 C668 1.574 1_554 S
C651 C670 1.368 . S
C651 H675 0.949 . S
H652 C656 0.949 . S
C653 C654 1.349 . S
C653 C655 1.327 . S
C653 H676 0.950 . S
C654 C653 1.349 . S
C654 C666 1.349 . S
C655 C653 1.327 . S
C655 C671 1.429 . S
C655 H677 0.950 . S
C656 H652 0.949 . S
C656 C664 1.574 1_556 S
C656 C672 1.368 . S
H657 C665 0.950 . S
H658 C663 0.950 . S
H659 C664 0.949 . S
H660 C666 0.950 . S
H661 C667 0.950 . S
H662 C668 0.949 . S
C663 H658 0.950 . S
C663 C665 1.327 . S
C663 C669 1.429 . S
C664 C656 1.574 1_554 S
C664 H659 0.949 . S
C664 C670 1.368 . S
C665 C649 1.349 . S
C665 H657 0.950 . S
C665 C663 1.327 . S
C666 C654 1.349 . S
C666 H660 0.950 . S
C666 C667 1.327 . S
C667 H661 0.950 . S
C667 C666 1.327 . S
C667 C671 1.429 . S
C668 C651 1.574 1_556 S
C668 H662 0.949 . S
C668 C672 1.368 . S
C669 C650 1.429 . S
C669 C663 1.429 . S
C669 C670 1.523 . S
C670 C651 1.368 . S
C670 C664 1.368 . S
C670 C669 1.523 . S
C671 C655 1.429 . S
C671 C667 1.429 . S
C671 C672 1.523 . S
C672 C656 1.368 . S
C672 C668 1.368 . S
C672 C671 1.523 . S
H673 C648 0.950 . S
H674 C650 0.950 . S
H675 C651 0.949 . S
H676 C653 0.950 . S
H677 C655 0.950 . S
C678 C679 1.349 . S
C678 C680 1.327 . S
C678 H703 0.950 . S
C679 C678 1.349 . S
C679 C695 1.349 . S
C680 C678 1.327 . S
C680 C699 1.429 . S
C680 H704 0.950 . S
C681 C698 1.589 . S
C681 C700 1.368 . S
C681 H705 0.949 . S
H682 C686 0.949 . S
C683 C684 1.349 . S
C683 C685 1.327 . S
C683 H706 0.950 . S
C684 C683 1.349 . S
C684 C696 1.349 . S
C685 C683 1.327 . S
C685 C701 1.429 . S
C685 H707 0.950 . S
C686 H682 0.949 . S
C686 C694 1.589 . S
C686 C702 1.368 . S
H687 C695 0.950 . S
H688 C693 0.950 . S
H689 C694 0.949 . S
H690 C696 0.950 . S
H691 C697 0.950 . S
H692 C698 0.949 . S
C693 H688 0.950 . S
C693 C695 1.327 . S
C693 C699 1.429 . S
C694 C686 1.589 . S
C694 H689 0.949 . S
C694 C700 1.353 1_545 S
C695 C679 1.349 . S
C695 H687 0.950 . S
C695 C693 1.327 . S
C696 C684 1.349 . S
C696 H690 0.950 . S
C696 C697 1.327 . S
C697 H691 0.950 . S
C697 C696 1.327 . S
C697 C701 1.429 . S
C698 C681 1.589 . S
C698 H692 0.949 . S
C698 C702 1.353 1_565 S
C699 C680 1.429 . S
C699 C693 1.429 . S
C699 C700 1.523 . S
C700 C681 1.368 . S
C700 C694 1.353 1_565 S
C700 C699 1.523 . S
C701 C685 1.429 . S
C701 C697 1.429 . S
C701 C702 1.523 . S
C702 C686 1.368 . S
C702 C698 1.353 1_545 S
C702 C701 1.523 . S
H703 C678 0.950 . S
H704 C680 0.950 . S
H705 C681 0.949 . S
H706 C683 0.950 . S
H707 C685 0.950 . S
C708 C709 1.349 . S
C708 C710 1.327 . S
C708 H733 0.950 . S
C709 C708 1.349 . S
C709 C725 1.349 . S
C710 C708 1.327 . S
C710 C729 1.429 . S
C710 H734 0.950 . S
C711 C728 1.574 . S
C711 C730 1.368 . S
C711 H735 0.949 . S
H712 C716 0.949 . S
C713 C714 1.349 . S
C713 C715 1.327 . S
C713 H736 0.950 . S
C714 C713 1.349 . S
C714 C726 1.349 . S
C715 C713 1.327 . S
C715 C731 1.429 . S
C715 H737 0.950 . S
C716 H712 0.949 . S
C716 C724 1.574 . S
C716 C732 1.368 . S
H717 C725 0.950 . S
H718 C723 0.950 . S
H719 C724 0.949 . S
H720 C726 0.950 . S
H721 C727 0.950 . S
H722 C728 0.949 . S
C723 H718 0.950 . S
C723 C725 1.327 . S
C723 C729 1.429 . S
C724 C716 1.574 . S
C724 H719 0.949 . S
C724 C730 1.368 . S
C725 C709 1.349 . S
C725 H717 0.950 . S
C725 C723 1.327 . S
C726 C714 1.349 . S
C726 H720 0.950 . S
C726 C727 1.327 . S
C727 H721 0.950 . S
C727 C726 1.327 . S
C727 C731 1.429 . S
C728 C711 1.574 . S
C728 H722 0.949 . S
C728 C732 1.368 . S
C729 C710 1.429 . S
C729 C723 1.429 . S
C729 C730 1.523 . S
C730 C711 1.368 . S
C730 C724 1.368 . S
C730 C729 1.523 . S
C731 C715 1.429 . S
C731 C727 1.429 . S
C731 C732 1.523 . S
C732 C716 1.368 . S
C732 C728 1.368 . S
C732 C731 1.523 . S
H733 C708 0.950 . S
H734 C710 0.950 . S
H735 C711 0.949 . S
H736 C713 0.950 . S
H737 C715 0.950 . S
C738 C739 1.349 . S
C738 C740 1.327 . S
C738 H763 0.950 . S
C739 C738 1.349 . S
C739 C755 1.349 . S
C740 C738 1.327 . S
C740 C759 1.429 . S
C740 H764 0.934 1_545 S
C741 C758 1.574 . S
C741 C760 1.368 . S
C741 H765 0.949 . S
H742 C746 0.949 . S
C743 C744 1.349 . S
C743 C745 1.327 . S
C743 H766 0.950 . S
C744 C743 1.349 . S
C744 C756 1.349 . S
C745 C743 1.327 . S
C745 C761 1.429 . S
C745 H767 0.934 1_565 S
C746 H742 0.949 . S
C746 C754 1.574 . S
C746 C762 1.368 . S
H747 C755 0.950 . S
H748 C753 0.950 . S
H749 C754 0.949 . S
H750 C756 0.950 . S
H751 C757 0.950 . S
H752 C758 0.949 . S
C753 H748 0.950 . S
C753 C755 1.327 . S
C753 C759 1.429 . S
C754 C746 1.574 . S
C754 H749 0.949 . S
C754 C760 1.368 1_565 S
C755 C739 1.349 . S
C755 H747 0.950 . S
C755 C753 1.327 . S
C756 C744 1.349 . S
C756 H750 0.950 . S
C756 C757 1.327 . S
C757 H751 0.950 . S
C757 C756 1.327 . S
C757 C761 1.429 . S
C758 C741 1.574 . S
C758 H752 0.949 . S
C758 C762 1.368 1_545 S
C759 C740 1.429 . S
C759 C753 1.429 . S
C759 C760 1.523 . S
C760 C741 1.368 . S
C760 C754 1.368 1_545 S
C760 C759 1.523 . S
C761 C745 1.429 . S
C761 C757 1.429 . S
C761 C762 1.523 . S
C762 C746 1.368 . S
C762 C758 1.368 1_565 S
C762 C761 1.523 . S
H763 C738 0.950 . S
H764 C740 0.934 1_565 S
H765 C741 0.949 . S
H766 C743 0.950 . S
H767 C745 0.934 1_545 S
C768 C769 1.349 . S
C768 C770 1.327 . S
C768 H793 0.950 . S
C769 C768 1.349 . S
C769 C785 1.349 . S
C770 C768 1.327 . S
C770 C789 1.429 . S
C770 H794 0.950 . S
C771 C788 1.574 1_455 S
C771 C790 1.368 . S
C771 H795 0.949 . S
H772 C776 0.949 . S
C773 C774 1.349 . S
C773 C775 1.327 . S
C773 H796 0.950 . S
C774 C773 1.349 . S
C774 C786 1.349 . S
C775 C773 1.327 . S
C775 C791 1.429 . S
C775 H797 0.950 . S
C776 H772 0.949 . S
C776 C784 1.574 1_655 S
C776 C792 1.368 . S
H777 C785 0.950 . S
H778 C783 0.950 . S
H779 C784 0.949 . S
H780 C786 0.950 . S
H781 C787 0.950 . S
H782 C788 0.949 . S
C783 H778 0.950 . S
C783 C785 1.327 . S
C783 C789 1.429 . S
C784 C776 1.574 1_455 S
C784 H779 0.949 . S
C784 C790 1.368 . S
C785 C769 1.349 . S
C785 H777 0.950 . S
C785 C783 1.327 . S
C786 C774 1.349 . S
C786 H780 0.950 . S
C786 C787 1.327 . S
C787 H781 0.950 . S
C787 C786 1.327 . S
C787 C791 1.429 . S
C788 C771 1.574 1_655 S
C788 H782 0.949 . S
C788 C792 1.368 . S
C789 C770 1.429 . S
C789 C783 1.429 . S
C789 C790 1.523 . S
C790 C771 1.368 . S
C790 C784 1.368 . S
C790 C789 1.523 . S
C791 C775 1.429 . S
C791 C787 1.429 . S
C791 C792 1.523 . S
C792 C776 1.368 . S
C792 C788 1.368 . S
C792 C791 1.523 . S
H793 C768 0.950 . S
H794 C770 0.950 . S
H795 C771 0.949 . S
H796 C773 0.950 . S
H797 C775 0.950 . S
C798 C799 1.349 . S
C798 C800 1.327 . S
C798 H823 0.950 . S
C799 C798 1.349 . S
C799 C815 1.349 . S
C800 C798 1.327 . S
C800 C819 1.429 . S
C800 H824 0.950 . S
C801 C818 1.574 . S
C801 C820 1.368 . S
C801 H825 0.949 . S
H802 C806 0.949 . S
C803 C804 1.349 . S
C803 C805 1.327 . S
C803 H826 0.950 . S
C804 C803 1.349 . S
C804 C816 1.349 . S
C805 C803 1.327 . S
C805 C821 1.429 . S
C805 H827 0.950 . S
C806 H802 0.949 . S
C806 C814 1.574 . S
C806 C822 1.368 . S
H807 C815 0.950 . S
H808 C813 0.950 . S
H809 C814 0.949 . S
H810 C816 0.950 . S
H811 C817 0.950 . S
H812 C818 0.949 . S
C813 H808 0.950 . S
C813 C815 1.327 . S
C813 C819 1.429 . S
C814 C806 1.574 . S
C814 H809 0.949 . S
C814 C820 1.368 . S
C815 C799 1.349 . S
C815 H807 0.950 . S
C815 C813 1.327 . S
C816 C804 1.349 . S
C816 H810 0.950 . S
C816 C817 1.327 . S
C817 H811 0.950 . S
C817 C816 1.327 . S
C817 C821 1.429 . S
C818 C801 1.574 . S
C818 H812 0.949 . S
C818 C822 1.368 . S
C819 C800 1.429 . S
C819 C813 1.429 . S
C819 C820 1.523 . S
C820 C801 1.368 . S
C820 C814 1.368 . S
C820 C819 1.523 . S
C821 C805 1.429 . S
C821 C817 1.429 . S
C821 C822 1.523 . S
C822 C806 1.368 . S
C822 C818 1.368 . S
C822 C821 1.523 . S
H823 C798 0.950 . S
H824 C800 0.950 . S
H825 C801 0.949 . S
H826 C803 0.950 . S
H827 C805 0.950 . S
C828 C829 1.349 . S
C828 C830 1.327 . S
C828 H853 0.950 . S
C829 C828 1.349 . S
C829 C845 1.349 . S
C830 C828 1.327 . S
C830 C849 1.429 . S
C830 H854 0.950 . S
C831 C848 1.574 . S
C831 C850 1.368 1_455 S
C831 H855 0.949 . S
H832 C836 0.949 . S
C833 C834 1.349 . S
C833 C835 1.327 . S
C833 H856 0.950 . S
C834 C833 1.349 . S
C834 C846 1.349 . S
C835 C833 1.327 . S
C835 C851 1.429 . S
C835 H857 0.950 . S
C836 H832 0.949 . S
C836 C844 1.574 . S
C836 C852 1.368 1_655 S
H837 C845 0.950 . S
H838 C843 0.950 . S
H839 C844 0.949 . S
H840 C846 0.950 . S
H841 C847 0.950 . S
H842 C848 0.949 . S
C843 H838 0.950 . S
C843 C845 1.327 . S
C843 C849 1.429 . S
C844 C836 1.574 . S
C844 H839 0.949 . S
C844 C850 1.368 . S
C845 C829 1.349 . S
C845 H837 0.950 . S
C845 C843 1.327 . S
C846 C834 1.349 . S
C846 H840 0.950 . S
C846 C847 1.327 . S
C847 H841 0.950 . S
C847 C846 1.327 . S
C847 C851 1.429 . S
C848 C831 1.574 . S
C848 H842 0.949 . S
C848 C852 1.368 . S
C849 C830 1.429 . S
C849 C843 1.429 . S
C849 C850 1.523 . S
C850 C831 1.368 1_655 S
C850 C844 1.368 . S
C850 C849 1.523 . S
C851 C835 1.429 . S
C851 C847 1.429 . S
C851 C852 1.523 . S
C852 C836 1.368 1_455 S
C852 C848 1.368 . S
C852 C851 1.523 . S
H853 C828 0.950 . S
H854 C830 0.950 . S
H855 C831 0.949 . S
H856 C833 0.950 . S
H857 C835 0.950 . S
C858 C859 1.349 . S
C858 C860 1.327 . S
C858 H883 0.950 . S
C859 C858 1.349 . S
C859 C875 1.349 . S
C860 C858 1.327 . S
C860 C879 1.429 . S
C860 H884 0.950 . S
C861 C878 1.574 1_455 S
C861 C880 1.368 . S
C861 H885 0.949 . S
H862 C866 0.949 . S
C863 C864 1.349 . S
C863 C865 1.327 . S
C863 H886 0.950 . S
C864 C863 1.349 . S
C864 C876 1.349 . S
C865 C863 1.327 . S
C865 C881 1.429 . S
C865 H887 0.950 . S
C866 H862 0.949 . S
C866 C874 1.574 1_655 S
C866 C882 1.368 . S
H867 C875 0.950 . S
H868 C873 0.950 . S
H869 C874 0.949 . S
H870 C876 0.950 . S
H871 C877 0.950 . S
H872 C878 0.949 . S
C873 H868 0.950 . S
C873 C875 1.327 . S
C873 C879 1.429 . S
C874 C866 1.574 1_455 S
C874 H869 0.949 . S
C874 C880 1.368 . S
C875 C859 1.349 . S
C875 H867 0.950 . S
C875 C873 1.327 . S
C876 C864 1.349 . S
C876 H870 0.950 . S
C876 C877 1.327 . S
C877 H871 0.950 . S
C877 C876 1.327 . S
C877 C881 1.429 . S
C878 C861 1.574 1_655 S
C878 H872 0.949 . S
C878 C882 1.368 . S
C879 C860 1.429 . S
C879 C873 1.429 . S
C879 C880 1.523 . S
C880 C861 1.368 . S
C880 C874 1.368 . S
C880 C879 1.523 . S
C881 C865 1.429 . S
C881 C877 1.429 . S
C881 C882 1.523 . S
C882 C866 1.368 . S
C882 C878 1.368 . S
C882 C881 1.523 . S
H883 C858 0.950 . S
H884 C860 0.950 . S
H885 C861 0.949 . S
H886 C863 0.950 . S
H887 C865 0.950 . S
C888 C889 1.349 . S
C888 C890 1.327 . S
C888 H913 0.950 . S
C889 C888 1.349 . S
C889 C905 1.349 . S
C890 C888 1.327 . S
C890 C909 1.429 . S
C890 H914 0.950 . S
C891 C908 1.574 . S
C891 C910 1.368 . S
C891 H915 0.949 . S
H892 C896 0.949 . S
C893 C894 1.349 . S
C893 C895 1.327 . S
C893 H916 0.950 . S
C894 C893 1.349 . S
C894 C906 1.349 . S
C895 C893 1.327 . S
C895 C911 1.429 . S
C895 H917 0.950 . S
C896 H892 0.949 . S
C896 C904 1.574 . S
C896 C912 1.368 . S
H897 C905 0.950 . S
H898 C903 0.950 . S
H899 C904 0.949 . S
H900 C906 0.950 . S
H901 C907 0.950 . S
H902 C908 0.949 . S
C903 H898 0.950 . S
C903 C905 1.327 . S
C903 C909 1.429 . S
C904 C896 1.574 . S
C904 H899 0.949 . S
C904 C910 1.368 . S
C905 C889 1.349 . S
C905 H897 0.950 . S
C905 C903 1.327 . S
C906 C894 1.349 . S
C906 H900 0.950 . S
C906 C907 1.327 . S
C907 H901 0.950 . S
C907 C906 1.327 . S
C907 C911 1.429 . S
C908 C891 1.574 . S
C908 H902 0.949 . S
C908 C912 1.368 . S
C909 C890 1.429 . S
C909 C903 1.429 . S
C909 C910 1.523 . S
C910 C891 1.368 . S
C910 C904 1.368 . S
C910 C909 1.523 . S
C911 C895 1.429 . S
C911 C907 1.429 . S
C911 C912 1.523 . S
C912 C896 1.368 . S
C912 C908 1.368 . S
C912 C911 1.523 . S
H913 C888 0.950 . S
H914 C890 0.950 . S
H915 C891 0.949 . S
H916 C893 0.950 . S
H917 C895 0.950 . S
C918 C919 1.349 . S
C918 C920 1.327 . S
C918 H943 0.950 . S
C919 C918 1.349 . S
C919 C935 1.349 . S
C920 C918 1.327 . S
C920 C939 1.429 . S
C920 H944 0.950 . S
C921 C938 1.574 . S
C921 C940 1.368 1_455 S
C921 H945 0.949 . S
H922 C926 0.949 . S
C923 C924 1.349 . S
C923 C925 1.327 . S
C923 H946 0.950 . S
C924 C923 1.349 . S
C924 C936 1.349 . S
C925 C923 1.327 . S
C925 C941 1.429 . S
C925 H947 0.950 . S
C926 H922 0.949 . S
C926 C934 1.574 . S
C926 C942 1.368 1_655 S
H927 C935 0.950 . S
H928 C933 0.950 . S
H929 C934 0.949 . S
H930 C936 0.950 . S
H931 C937 0.950 . S
H932 C938 0.949 . S
C933 H928 0.950 . S
C933 C935 1.327 . S
C933 C939 1.429 . S
C934 C926 1.574 . S
C934 H929 0.949 . S
C934 C940 1.368 . S
C935 C919 1.349 . S
C935 H927 0.950 . S
C935 C933 1.327 . S
C936 C924 1.349 . S
C936 H930 0.950 . S
C936 C937 1.327 . S
C937 H931 0.950 . S
C937 C936 1.327 . S
C937 C941 1.429 . S
C938 C921 1.574 . S
C938 H932 0.949 . S
C938 C942 1.368 . S
C939 C920 1.429 . S
C939 C933 1.429 . S
C939 C940 1.523 . S
C940 C921 1.368 1_655 S
C940 C934 1.368 . S
C940 C939 1.523 . S
C941 C925 1.429 . S
C941 C937 1.429 . S
C941 C942 1.523 . S
C942 C926 1.368 1_455 S
C942 C938 1.368 . S
C942 C941 1.523 . S
H943 C918 0.950 . S
H944 C920 0.950 . S
H945 C921 0.949 . S
H946 C923 0.950 . S
H947 C925 0.950 . S
C948 C949 1.349 . S
C948 C950 1.327 . S
C948 H973 0.950 . S
C949 C948 1.349 . S
C949 C965 1.349 . S
C950 C948 1.327 . S
C950 C969 1.429 . S
C950 H974 0.950 . S
C951 C968 1.574 . S
C951 C970 1.368 . S
C951 H975 0.949 . S
H952 C956 0.949 . S
C953 C954 1.349 . S
C953 C955 1.327 . S
C953 H976 0.950 . S
C954 C953 1.349 . S
C954 C966 1.349 . S
C955 C953 1.327 . S
C955 C971 1.429 . S
C955 H977 0.950 . S
C956 H952 0.949 . S
C956 C964 1.574 . S
C956 C972 1.368 . S
H957 C965 0.950 . S
H958 C963 0.950 . S
H959 C964 0.949 . S
H960 C966 0.950 . S
H961 C967 0.950 . S
H962 C968 0.949 . S
C963 H958 0.950 . S
C963 C965 1.327 . S
C963 C969 1.429 . S
C964 C956 1.574 . S
C964 H959 0.949 . S
C964 C970 1.368 . S
C965 C949 1.349 . S
C965 H957 0.950 . S
C965 C963 1.327 . S
C966 C954 1.349 . S
C966 H960 0.950 . S
C966 C967 1.327 . S
C967 H961 0.950 . S
C967 C966 1.327 . S
C967 C971 1.429 . S
C968 C951 1.574 . S
C968 H962 0.949 . S
C968 C972 1.368 . S
C969 C950 1.429 . S
C969 C963 1.429 . S
C969 C970 1.523 . S
C970 C951 1.368 . S
C970 C964 1.368 . S
C970 C969 1.523 . S
C971 C955 1.429 . S
C971 C967 1.429 . S
C971 C972 1.523 . S
C972 C956 1.368 . S
C972 C968 1.368 . S
C972 C971 1.523 . S
H973 C948 0.950 . S
H974 C950 0.950 . S
H975 C951 0.949 . S
H976 C953 0.950 . S
H977 C955 0.950 . S
C978 C979 1.349 . S
C978 C980 1.327 . S
C978 H1003 0.950 . S
C979 C978 1.349 . S
C979 C995 1.349 . S
C980 C978 1.327 . S
C980 C999 1.429 . S
C980 H1004 0.950 . S
C981 C998 1.574 . S
C981 C1000 1.368 . S
C981 H1005 0.949 . S
H982 C986 0.949 . S
C983 C984 1.349 . S
C983 C985 1.327 . S
C983 H1006 0.950 . S
C984 C983 1.349 . S
C984 C996 1.349 . S
C985 C983 1.327 . S
C985 C1001 1.429 . S
C985 H1007 0.950 . S
C986 H982 0.949 . S
C986 C994 1.574 . S
C986 C1002 1.368 . S
H987 C995 0.950 . S
H988 C993 0.950 . S
H989 C994 0.949 . S
H990 C996 0.950 . S
H991 C997 0.950 . S
H992 C998 0.949 . S
C993 H988 0.950 . S
C993 C995 1.327 . S
C993 C999 1.429 . S
C994 C986 1.574 . S
C994 H989 0.949 . S
C994 C1000 1.368 . S
C995 C979 1.349 . S
C995 H987 0.950 . S
C995 C993 1.327 . S
C996 C984 1.349 . S
C996 H990 0.950 . S
C996 C997 1.327 . S
C997 H991 0.950 . S
C997 C996 1.327 . S
C997 C1001 1.429 . S
C998 C981 1.574 . S
C998 H992 0.949 . S
C998 C1002 1.368 . S
C999 C980 1.429 . S
C999 C993 1.429 . S
C999 C1000 1.523 . S
C1000 C981 1.368 . S
C1000 C994 1.368 . S
C1000 C999 1.523 . S
C1001 C985 1.429 . S
C1001 C997 1.429 . S
C1001 C1002 1.523 . S
C1002 C986 1.368 . S
C1002 C998 1.368 . S
C1002 C1001 1.523 . S
H1003 C978 0.950 . S
H1004 C980 0.950 . S
H1005 C981 0.949 . S
H1006 C983 0.950 . S
H1007 C985 0.950 . S
C1008 C1009 1.349 . S
C1008 C1010 1.327 . S
C1008 H1033 0.950 . S
C1009 C1008 1.349 . S
C1009 C1025 1.349 . S
C1010 C1008 1.327 . S
C1010 C1029 1.429 . S
C1010 H1034 0.950 . S
C1011 C1028 1.574 . S
C1011 C1030 1.368 1_556 S
C1011 H1035 0.949 . S
H1012 C1016 0.949 . S
C1013 C1014 1.349 . S
C1013 C1015 1.327 . S
C1013 H1036 0.950 . S
C1014 C1013 1.349 . S
C1014 C1026 1.349 . S
C1015 C1013 1.327 . S
C1015 C1031 1.429 . S
C1015 H1037 0.950 . S
C1016 H1012 0.949 . S
C1016 C1024 1.574 . S
C1016 C1032 1.368 1_554 S
H1017 C1025 0.950 . S
H1018 C1023 0.950 . S
H1019 C1024 0.949 . S
H1020 C1026 0.950 . S
H1021 C1027 0.950 . S
H1022 C1028 0.949 . S
C1023 H1018 0.950 . S
C1023 C1025 1.327 . S
C1023 C1029 1.429 . S
C1024 C1016 1.574 . S
C1024 H1019 0.949 . S
C1024 C1030 1.368 . S
C1025 C1009 1.349 . S
C1025 H1017 0.950 . S
C1025 C1023 1.327 . S
C1026 C1014 1.349 . S
C1026 H1020 0.950 . S
C1026 C1027 1.327 . S
C1027 H1021 0.950 . S
C1027 C1026 1.327 . S
C1027 C1031 1.429 . S
C1028 C1011 1.574 . S
C1028 H1022 0.949 . S
C1028 C1032 1.368 . S
C1029 C1010 1.429 . S
C1029 C1023 1.429 . S
C1029 C1030 1.523 . S
C1030 C1011 1.368 1_554 S
C1030 C1024 1.368 . S
C1030 C1029 1.523 . S
C1031 C1015 1.429 . S
C1031 C1027 1.429 . S
C1031 C1032 1.523 . S
C1032 C1016 1.368 1_556 S
C1032 C1028 1.368 . S
C1032 C1031 1.523 . S
H1033 C1008 0.950 . S
H1034 C1010 0.950 . S
H1035 C1011 0.949 . S
H1036 C1013 0.950 . S
H1037 C1015 0.950 . S
C1038 C1039 1.349 . S
C1038 C1040 1.327 . S
C1038 H1063 0.950 . S
C1039 C1038 1.349 . S
C1039 C1055 1.349 . S
C1040 C1038 1.327 . S
C1040 C1059 1.429 . S
C1040 H1064 0.950 . S
C1041 C1058 1.574 . S
C1041 C1060 1.368 . S
C1041 H1065 0.949 . S
H1042 C1046 0.949 . S
C1043 C1044 1.349 . S
C1043 C1045 1.327 . S
C1043 H1066 0.950 . S
C1044 C1043 1.349 . S
C1044 C1056 1.349 . S
C1045 C1043 1.327 . S
C1045 C1061 1.429 . S
C1045 H1067 0.950 . S
C1046 H1042 0.949 . S
C1046 C1054 1.574 . S
C1046 C1062 1.368 . S
H1047 C1055 0.950 . S
H1048 C1053 0.950 . S
H1049 C1054 0.949 . S
H1050 C1056 0.950 . S
H1051 C1057 0.950 . S
H1052 C1058 0.949 . S
C1053 H1048 0.950 . S
C1053 C1055 1.327 . S
C1053 C1059 1.429 . S
C1054 C1046 1.574 . S
C1054 H1049 0.949 . S
C1054 C1060 1.368 . S
C1055 C1039 1.349 . S
C1055 H1047 0.950 . S
C1055 C1053 1.327 . S
C1056 C1044 1.349 . S
C1056 H1050 0.950 . S
C1056 C1057 1.327 . S
C1057 H1051 0.950 . S
C1057 C1056 1.327 . S
C1057 C1061 1.429 . S
C1058 C1041 1.574 . S
C1058 H1052 0.949 . S
C1058 C1062 1.368 . S
C1059 C1040 1.429 . S
C1059 C1053 1.429 . S
C1059 C1060 1.523 . S
C1060 C1041 1.368 . S
C1060 C1054 1.368 . S
C1060 C1059 1.523 . S
C1061 C1045 1.429 . S
C1061 C1057 1.429 . S
C1061 C1062 1.523 . S
C1062 C1046 1.368 . S
C1062 C1058 1.368 . S
C1062 C1061 1.523 . S
H1063 C1038 0.950 . S
H1064 C1040 0.950 . S
H1065 C1041 0.949 . S
H1066 C1043 0.950 . S
H1067 C1045 0.950 . S
C1068 C1069 1.349 . S
C1068 C1070 1.327 . S
C1068 H1093 0.950 . S
C1069 C1068 1.349 . S
C1069 C1085 1.349 . S
C1070 C1068 1.327 . S
C1070 C1089 1.429 . S
C1070 H1094 0.950 . S
C1071 C1088 1.574 . S
C1071 C1090 1.368 . S
C1071 H1095 0.949 . S
H1072 C1076 0.949 . S
C1073 C1074 1.349 . S
C1073 C1075 1.327 . S
C1073 H1096 0.950 . S
C1074 C1073 1.349 . S
C1074 C1086 1.349 . S
C1075 C1073 1.327 . S
C1075 C1091 1.429 . S
C1075 H1097 0.950 . S
C1076 H1072 0.949 . S
C1076 C1084 1.574 . S
C1076 C1092 1.368 . S
H1077 C1085 0.950 . S
H1078 C1083 0.950 . S
H1079 C1084 0.949 . S
H1080 C1086 0.950 . S
H1081 C1087 0.950 . S
H1082 C1088 0.949 . S
C1083 H1078 0.950 . S
C1083 C1085 1.327 . S
C1083 C1089 1.429 . S
C1084 C1076 1.574 . S
C1084 H1079 0.949 . S
C1084 C1090 1.368 . S
C1085 C1069 1.349 . S
C1085 H1077 0.950 . S
C1085 C1083 1.327 . S
C1086 C1074 1.349 . S
C1086 H1080 0.950 . S
C1086 C1087 1.327 . S
C1087 H1081 0.950 . S
C1087 C1086 1.327 . S
C1087 C1091 1.429 . S
C1088 C1071 1.574 . S
C1088 H1082 0.949 . S
C1088 C1092 1.368 . S
C1089 C1070 1.429 . S
C1089 C1083 1.429 . S
C1089 C1090 1.523 . S
C1090 C1071 1.368 . S
C1090 C1084 1.368 . S
C1090 C1089 1.523 . S
C1091 C1075 1.429 . S
C1091 C1087 1.429 . S
C1091 C1092 1.523 . S
C1092 C1076 1.368 . S
C1092 C1088 1.368 . S
C1092 C1091 1.523 . S
H1093 C1068 0.950 . S
H1094 C1070 0.950 . S
H1095 C1071 0.949 . S
H1096 C1073 0.950 . S
H1097 C1075 0.950 . S
C1098 C1099 1.349 . S
C1098 C1100 1.327 . S
C1098 H1123 0.950 . S
C1099 C1098 1.349 . S
C1099 C1115 1.349 . S
C1100 C1098 1.327 . S
C1100 C1119 1.429 . S
C1100 H1124 0.950 . S
C1101 C1118 1.574 . S
C1101 C1120 1.368 . S
C1101 H1125 0.949 . S
H1102 C1106 0.949 . S
C1103 C1104 1.349 . S
C1103 C1105 1.327 . S
C1103 H1126 0.950 . S
C1104 C1103 1.349 . S
C1104 C1116 1.349 . S
C1105 C1103 1.327 . S
C1105 C1121 1.429 . S
C1105 H1127 0.950 . S
C1106 H1102 0.949 . S
C1106 C1114 1.574 . S
C1106 C1122 1.368 . S
H1107 C1115 0.950 . S
H1108 C1113 0.950 . S
H1109 C1114 0.949 . S
H1110 C1116 0.950 . S
H1111 C1117 0.950 . S
H1112 C1118 0.949 . S
C1113 H1108 0.950 . S
C1113 C1115 1.327 . S
C1113 C1119 1.429 . S
C1114 C1106 1.574 . S
C1114 H1109 0.949 . S
C1114 C1120 1.368 . S
C1115 C1099 1.349 . S
C1115 H1107 0.950 . S
C1115 C1113 1.327 . S
C1116 C1104 1.349 . S
C1116 H1110 0.950 . S
C1116 C1117 1.327 . S
C1117 H1111 0.950 . S
C1117 C1116 1.327 . S
C1117 C1121 1.429 . S
C1118 C1101 1.574 . S
C1118 H1112 0.949 . S
C1118 C1122 1.368 . S
C1119 C1100 1.429 . S
C1119 C1113 1.429 . S
C1119 C1120 1.523 . S
C1120 C1101 1.368 . S
C1120 C1114 1.368 . S
C1120 C1119 1.523 . S
C1121 C1105 1.429 . S
C1121 C1117 1.429 . S
C1121 C1122 1.523 . S
C1122 C1106 1.368 . S
C1122 C1118 1.368 . S
C1122 C1121 1.523 . S
H1123 C1098 0.950 . S
H1124 C1100 0.950 . S
H1125 C1101 0.949 . S
H1126 C1103 0.950 . S
H1127 C1105 0.950 . S
C1128 C1129 1.349 . S
C1128 C1130 1.327 . S
C1128 H1153 0.950 . S
C1129 C1128 1.349 . S
C1129 C1145 1.349 . S
C1130 C1128 1.327 . S
C1130 C1149 1.429 . S
C1130 H1154 0.950 . S
C1131 C1148 1.574 . S
C1131 C1150 1.368 . S
C1131 H1155 0.949 . S
H1132 C1136 0.949 . S
C1133 C1134 1.349 . S
C1133 C1135 1.327 . S
C1133 H1156 0.950 . S
C1134 C1133 1.349 . S
C1134 C1146 1.349 . S
C1135 C1133 1.327 . S
C1135 C1151 1.429 . S
C1135 H1157 0.950 . S
C1136 H1132 0.949 . S
C1136 C1144 1.574 . S
C1136 C1152 1.368 . S
H1137 C1145 0.950 . S
H1138 C1143 0.950 . S
H1139 C1144 0.949 . S
H1140 C1146 0.950 . S
H1141 C1147 0.950 . S
H1142 C1148 0.949 . S
C1143 H1138 0.950 . S
C1143 C1145 1.327 . S
C1143 C1149 1.429 . S
C1144 C1136 1.574 . S
C1144 H1139 0.949 . S
C1144 C1150 1.368 . S
C1145 C1129 1.349 . S
C1145 H1137 0.950 . S
C1145 C1143 1.327 . S
C1146 C1134 1.349 . S
C1146 H1140 0.950 . S
C1146 C1147 1.327 . S
C1147 H1141 0.950 . S
C1147 C1146 1.327 . S
C1147 C1151 1.429 . S
C1148 C1131 1.574 . S
C1148 H1142 0.949 . S
C1148 C1152 1.368 . S
C1149 C1130 1.429 . S
C1149 C1143 1.429 . S
C1149 C1150 1.523 . S
C1150 C1131 1.368 . S
C1150 C1144 1.368 . S
C1150 C1149 1.523 . S
C1151 C1135 1.429 . S
C1151 C1147 1.429 . S
C1151 C1152 1.523 . S
C1152 C1136 1.368 . S
C1152 C1148 1.368 . S
C1152 C1151 1.523 . S
H1153 C1128 0.950 . S
H1154 C1130 0.950 . S
H1155 C1131 0.949 . S
H1156 C1133 0.950 . S
H1157 C1135 0.950 . S
C1158 C1159 1.349 . S
C1158 C1160 1.327 . S
C1158 H1183 0.950 . S
C1159 C1158 1.349 . S
C1159 C1175 1.349 . S
C1160 C1158 1.327 . S
C1160 C1179 1.429 . S
C1160 H1184 0.950 . S
C1161 C1178 1.574 1_556 S
C1161 C1180 1.368 . S
C1161 H1185 0.949 . S
H1162 C1166 0.949 . S
C1163 C1164 1.349 . S
C1163 C1165 1.327 . S
C1163 H1186 0.950 . S
C1164 C1163 1.349 . S
C1164 C1176 1.349 . S
C1165 C1163 1.327 . S
C1165 C1181 1.429 . S
C1165 H1187 0.950 . S
C1166 H1162 0.949 . S
C1166 C1174 1.574 1_554 S
C1166 C1182 1.368 . S
H1167 C1175 0.950 . S
H1168 C1173 0.950 . S
H1169 C1174 0.949 . S
H1170 C1176 0.950 . S
H1171 C1177 0.950 . S
H1172 C1178 0.949 . S
C1173 H1168 0.950 . S
C1173 C1175 1.327 . S
C1173 C1179 1.429 . S
C1174 C1166 1.574 1_556 S
C1174 H1169 0.949 . S
C1174 C1180 1.368 . S
C1175 C1159 1.349 . S
C1175 H1167 0.950 . S
C1175 C1173 1.327 . S
C1176 C1164 1.349 . S
C1176 H1170 0.950 . S
C1176 C1177 1.327 . S
C1177 H1171 0.950 . S
C1177 C1176 1.327 . S
C1177 C1181 1.429 . S
C1178 C1161 1.574 1_554 S
C1178 H1172 0.949 . S
C1178 C1182 1.368 . S
C1179 C1160 1.429 . S
C1179 C1173 1.429 . S
C1179 C1180 1.523 . S
C1180 C1161 1.368 . S
C1180 C1174 1.368 . S
C1180 C1179 1.523 . S
C1181 C1165 1.429 . S
C1181 C1177 1.429 . S
C1181 C1182 1.523 . S
C1182 C1166 1.368 . S
C1182 C1178 1.368 . S
C1182 C1181 1.523 . S
H1183 C1158 0.950 . S
H1184 C1160 0.950 . S
H1185 C1161 0.949 . S
H1186 C1163 0.950 . S
H1187 C1165 0.950 . S
C1188 C1189 1.349 . S
C1188 C1190 1.327 . S
C1188 H1213 0.950 . S
C1189 C1188 1.349 . S
C1189 C1205 1.349 . S
C1190 C1188 1.327 . S
C1190 C1209 1.429 . S
C1190 H1214 0.950 . S
C1191 C1208 1.574 . S
C1191 C1210 1.368 . S
C1191 H1215 0.949 . S
H1192 C1196 0.949 . S
C1193 C1194 1.349 . S
C1193 C1195 1.327 . S
C1193 H1216 0.950 . S
C1194 C1193 1.349 . S
C1194 C1206 1.349 . S
C1195 C1193 1.327 . S
C1195 C1211 1.429 . S
C1195 H1217 0.950 . S
C1196 H1192 0.949 . S
C1196 C1204 1.574 . S
C1196 C1212 1.368 . S
H1197 C1205 0.950 . S
H1198 C1203 0.950 . S
H1199 C1204 0.949 . S
H1200 C1206 0.950 . S
H1201 C1207 0.950 . S
H1202 C1208 0.949 . S
C1203 H1198 0.950 . S
C1203 C1205 1.327 . S
C1203 C1209 1.429 . S
C1204 C1196 1.574 . S
C1204 H1199 0.949 . S
C1204 C1210 1.368 . S
C1205 C1189 1.349 . S
C1205 H1197 0.950 . S
C1205 C1203 1.327 . S
C1206 C1194 1.349 . S
C1206 H1200 0.950 . S
C1206 C1207 1.327 . S
C1207 H1201 0.950 . S
C1207 C1206 1.327 . S
C1207 C1211 1.429 . S
C1208 C1191 1.574 . S
C1208 H1202 0.949 . S
C1208 C1212 1.368 . S
C1209 C1190 1.429 . S
C1209 C1203 1.429 . S
C1209 C1210 1.523 . S
C1210 C1191 1.368 . S
C1210 C1204 1.368 . S
C1210 C1209 1.523 . S
C1211 C1195 1.429 . S
C1211 C1207 1.429 . S
C1211 C1212 1.523 . S
C1212 C1196 1.368 . S
C1212 C1208 1.368 . S
C1212 C1211 1.523 . S
H1213 C1188 0.950 . S
H1214 C1190 0.950 . S
H1215 C1191 0.949 . S
H1216 C1193 0.950 . S
H1217 C1195 0.950 . S
C1218 C1219 1.349 . S
C1218 C1220 1.327 . S
C1218 H1243 0.950 . S
C1219 C1218 1.349 . S
C1219 C1235 1.349 . S
C1220 C1218 1.327 . S
C1220 C1239 1.429 . S
C1220 H1244 0.950 . S
C1221 C1238 1.574 . S
C1221 C1240 1.368 . S
C1221 H1245 0.949 . S
H1222 C1226 0.949 . S
C1223 C1224 1.349 . S
C1223 C1225 1.327 . S
C1223 H1246 0.950 . S
C1224 C1223 1.349 . S
C1224 C1236 1.349 . S
C1225 C1223 1.327 . S
C1225 C1241 1.429 . S
C1225 H1247 0.950 . S
C1226 H1222 0.949 . S
C1226 C1234 1.574 . S
C1226 C1242 1.368 . S
H1227 C1235 0.950 . S
H1228 C1233 0.950 . S
H1229 C1234 0.949 . S
H1230 C1236 0.950 . S
H1231 C1237 0.950 . S
H1232 C1238 0.949 . S
C1233 H1228 0.950 . S
C1233 C1235 1.327 . S
C1233 C1239 1.429 . S
C1234 C1226 1.574 . S
C1234 H1229 0.949 . S
C1234 C1240 1.368 . S
C1235 C1219 1.349 . S
C1235 H1227 0.950 . S
C1235 C1233 1.327 . S
C1236 C1224 1.349 . S
C1236 H1230 0.950 . S
C1236 C1237 1.327 . S
C1237 H1231 0.950 . S
C1237 C1236 1.327 . S
C1237 C1241 1.429 . S
C1238 C1221 1.574 . S
C1238 H1232 0.949 . S
C1238 C1242 1.368 . S
C1239 C1220 1.429 . S
C1239 C1233 1.429 . S
C1239 C1240 1.523 . S
C1240 C1221 1.368 . S
C1240 C1234 1.368 . S
C1240 C1239 1.523 . S
C1241 C1225 1.429 . S
C1241 C1237 1.429 . S
C1241 C1242 1.523 . S
C1242 C1226 1.368 . S
C1242 C1238 1.368 . S
C1242 C1241 1.523 . S
H1243 C1218 0.950 . S
H1244 C1220 0.950 . S
H1245 C1221 0.949 . S
H1246 C1223 0.950 . S
H1247 C1225 0.950 . S
C1248 C1249 1.349 . S
C1248 C1250 1.327 . S
C1248 H1273 0.950 . S
C1249 C1248 1.349 . S
C1249 C1265 1.349 . S
C1250 C1248 1.327 . S
C1250 C1269 1.429 . S
C1250 H1274 0.950 . S
C1251 C1268 1.574 . S
C1251 C1270 1.368 . S
C1251 H1275 0.949 . S
H1252 C1256 0.949 . S
C1253 C1254 1.349 . S
C1253 C1255 1.327 . S
C1253 H1276 0.950 . S
C1254 C1253 1.349 . S
C1254 C1266 1.349 . S
C1255 C1253 1.327 . S
C1255 C1271 1.429 . S
C1255 H1277 0.950 . S
C1256 H1252 0.949 . S
C1256 C1264 1.574 . S
C1256 C1272 1.368 . S
H1257 C1265 0.950 . S
H1258 C1263 0.950 . S
H1259 C1264 0.949 . S
H1260 C1266 0.950 . S
H1261 C1267 0.950 . S
H1262 C1268 0.949 . S
C1263 H1258 0.950 . S
C1263 C1265 1.327 . S
C1263 C1269 1.429 . S
C1264 C1256 1.574 . S
C1264 H1259 0.949 . S
C1264 C1270 1.368 . S
C1265 C1249 1.349 . S
C1265 H1257 0.950 . S
C1265 C1263 1.327 . S
C1266 C1254 1.349 . S
C1266 H1260 0.950 . S
C1266 C1267 1.327 . S
C1267 H1261 0.950 . S
C1267 C1266 1.327 . S
C1267 C1271 1.429 . S
C1268 C1251 1.574 . S
C1268 H1262 0.949 . S
C1268 C1272 1.368 . S
C1269 C1250 1.429 . S
C1269 C1263 1.429 . S
C1269 C1270 1.523 . S
C1270 C1251 1.368 . S
C1270 C1264 1.368 . S
C1270 C1269 1.523 . S
C1271 C1255 1.429 . S
C1271 C1267 1.429 . S
C1271 C1272 1.523 . S
C1272 C1256 1.368 . S
C1272 C1268 1.368 . S
C1272 C1271 1.523 . S
H1273 C1248 0.950 . S
H1274 C1250 0.950 . S
H1275 C1251 0.949 . S
H1276 C1253 0.950 . S
H1277 C1255 0.950 . S
C1278 C1279 1.349 . S
C1278 C1280 1.327 . S
C1278 H1303 0.950 . S
C1279 C1278 1.349 . S
C1279 C1295 1.349 . S
C1280 C1278 1.327 . S
C1280 C1299 1.429 . S
C1280 H1304 0.950 . S
C1281 C1298 1.574 . S
C1281 C1300 1.368 . S
C1281 H1305 0.949 . S
H1282 C1286 0.949 . S
C1283 C1284 1.349 . S
C1283 C1285 1.327 . S
C1283 H1306 0.950 . S
C1284 C1283 1.349 . S
C1284 C1296 1.349 . S
C1285 C1283 1.327 . S
C1285 C1301 1.429 . S
C1285 H1307 0.950 . S
C1286 H1282 0.949 . S
C1286 C1294 1.574 . S
C1286 C1302 1.368 . S
H1287 C1295 0.950 . S
H1288 C1293 0.950 . S
H1289 C1294 0.949 . S
H1290 C1296 0.950 . S
H1291 C1297 0.950 . S
H1292 C1298 0.949 . S
C1293 H1288 0.950 . S
C1293 C1295 1.327 . S
C1293 C1299 1.429 . S
C1294 C1286 1.574 . S
C1294 H1289 0.949 . S
C1294 C1300 1.368 . S
C1295 C1279 1.349 . S
C1295 H1287 0.950 . S
C1295 C1293 1.327 . S
C1296 C1284 1.349 . S
C1296 H1290 0.950 . S
C1296 C1297 1.327 . S
C1297 H1291 0.950 . S
C1297 C1296 1.327 . S
C1297 C1301 1.429 . S
C1298 C1281 1.574 . S
C1298 H1292 0.949 . S
C1298 C1302 1.368 . S
C1299 C1280 1.429 . S
C1299 C1293 1.429 . S
C1299 C1300 1.523 . S
C1300 C1281 1.368 . S
C1300 C1294 1.368 . S
C1300 C1299 1.523 . S
C1301 C1285 1.429 . S
C1301 C1297 1.429 . S
C1301 C1302 1.523 . S
C1302 C1286 1.368 . S
C1302 C1298 1.368 . S
C1302 C1301 1.523 . S
H1303 C1278 0.950 . S
H1304 C1280 0.950 . S
H1305 C1281 0.949 . S
H1306 C1283 0.950 . S
H1307 C1285 0.950 . S
C1308 C1309 1.349 . S
C1308 C1310 1.327 . S
C1308 H1333 0.950 . S
C1309 C1308 1.349 . S
C1309 C1325 1.349 . S
C1310 C1308 1.327 . S
C1310 C1329 1.429 . S
C1310 H1334 0.950 . S
C1311 C1328 1.574 . S
C1311 C1330 1.368 . S
C1311 H1335 0.949 . S
H1312 C1316 0.949 . S
C1313 C1314 1.349 . S
C1313 C1315 1.327 . S
C1313 H1336 0.950 . S
C1314 C1313 1.349 . S
C1314 C1326 1.349 . S
C1315 C1313 1.327 . S
C1315 C1331 1.429 . S
C1315 H1337 0.950 . S
C1316 H1312 0.949 . S
C1316 C1324 1.574 . S
C1316 C1332 1.368 . S
H1317 C1325 0.950 . S
H1318 C1323 0.950 . S
H1319 C1324 0.949 . S
H1320 C1326 0.950 . S
H1321 C1327 0.950 . S
H1322 C1328 0.949 . S
C1323 H1318 0.950 . S
C1323 C1325 1.327 . S
C1323 C1329 1.429 . S
C1324 C1316 1.574 . S
C1324 H1319 0.949 . S
C1324 C1330 1.368 . S
C1325 C1309 1.349 . S
C1325 H1317 0.950 . S
C1325 C1323 1.327 . S
C1326 C1314 1.349 . S
C1326 H1320 0.950 . S
C1326 C1327 1.327 . S
C1327 H1321 0.950 . S
C1327 C1326 1.327 . S
C1327 C1331 1.429 . S
C1328 C1311 1.574 . S
C1328 H1322 0.949 . S
C1328 C1332 1.368 . S
C1329 C1310 1.429 . S
C1329 C1323 1.429 . S
C1329 C1330 1.523 . S
C1330 C1311 1.368 . S
C1330 C1324 1.368 . S
C1330 C1329 1.523 . S
C1331 C1315 1.429 . S
C1331 C1327 1.429 . S
C1331 C1332 1.523 . S
C1332 C1316 1.368 . S
C1332 C1328 1.368 . S
C1332 C1331 1.523 . S
H1333 C1308 0.950 . S
H1334 C1310 0.950 . S
H1335 C1311 0.949 . S
H1336 C1313 0.950 . S
H1337 C1315 0.950 . S
C1338 C1339 1.349 . S
C1338 C1340 1.327 . S
C1338 H1363 0.950 . S
C1339 C1338 1.349 . S
C1339 C1355 1.349 . S
C1340 C1338 1.327 . S
C1340 C1359 1.429 . S
C1340 H1364 0.950 . S
C1341 C1358 1.574 . S
C1341 C1360 1.368 . S
C1341 H1365 0.949 . S
H1342 C1346 0.949 . S
C1343 C1344 1.349 . S
C1343 C1345 1.327 . S
C1343 H1366 0.950 . S
C1344 C1343 1.349 . S
C1344 C1356 1.349 . S
C1345 C1343 1.327 . S
C1345 C1361 1.429 . S
C1345 H1367 0.950 . S
C1346 H1342 0.949 . S
C1346 C1354 1.574 . S
C1346 C1362 1.368 . S
H1347 C1355 0.950 . S
H1348 C1353 0.950 . S
H1349 C1354 0.949 . S
H1350 C1356 0.950 . S
H1351 C1357 0.950 . S
H1352 C1358 0.949 . S
C1353 H1348 0.950 . S
C1353 C1355 1.327 . S
C1353 C1359 1.429 . S
C1354 C1346 1.574 . S
C1354 H1349 0.949 . S
C1354 C1360 1.368 . S
C1355 C1339 1.349 . S
C1355 H1347 0.950 . S
C1355 C1353 1.327 . S
C1356 C1344 1.349 . S
C1356 H1350 0.950 . S
C1356 C1357 1.327 . S
C1357 H1351 0.950 . S
C1357 C1356 1.327 . S
C1357 C1361 1.429 . S
C1358 C1341 1.574 . S
C1358 H1352 0.949 . S
C1358 C1362 1.368 . S
C1359 C1340 1.429 . S
C1359 C1353 1.429 . S
C1359 C1360 1.523 . S
C1360 C1341 1.368 . S
C1360 C1354 1.368 . S
C1360 C1359 1.523 . S
C1361 C1345 1.429 . S
C1361 C1357 1.429 . S
C1361 C1362 1.523 . S
C1362 C1346 1.368 . S
C1362 C1358 1.368 . S
C1362 C1361 1.523 . S
H1363 C1338 0.950 . S
H1364 C1340 0.950 . S
H1365 C1341 0.949 . S
H1366 C1343 0.950 . S
H1367 C1345 0.950 . S
C1368 C1369 1.349 . S
C1368 C1370 1.327 . S
C1368 H1393 0.950 . S
C1369 C1368 1.349 . S
C1369 C1385 1.349 . S
C1370 C1368 1.327 . S
C1370 C1389 1.429 . S
C1370 H1394 0.950 . S
C1371 C1388 1.574 . S
C1371 C1390 1.368 . S
C1371 H1395 0.949 . S
H1372 C1376 0.949 . S
C1373 C1374 1.349 . S
C1373 C1375 1.327 . S
C1373 H1396 0.950 . S
C1374 C1373 1.349 . S
C1374 C1386 1.349 . S
C1375 C1373 1.327 . S
C1375 C1391 1.429 . S
C1375 H1397 0.950 . S
C1376 H1372 0.949 . S
C1376 C1384 1.574 . S
C1376 C1392 1.368 . S
H1377 C1385 0.950 . S
H1378 C1383 0.950 . S
H1379 C1384 0.949 . S
H1380 C1386 0.950 . S
H1381 C1387 0.950 . S
H1382 C1388 0.949 . S
C1383 H1378 0.950 . S
C1383 C1385 1.327 . S
C1383 C1389 1.429 . S
C1384 C1376 1.574 . S
C1384 H1379 0.949 . S
C1384 C1390 1.368 . S
C1385 C1369 1.349 . S
C1385 H1377 0.950 . S
C1385 C1383 1.327 . S
C1386 C1374 1.349 . S
C1386 H1380 0.950 . S
C1386 C1387 1.327 . S
C1387 H1381 0.950 . S
C1387 C1386 1.327 . S
C1387 C1391 1.429 . S
C1388 C1371 1.574 . S
C1388 H1382 0.949 . S
C1388 C1392 1.368 . S
C1389 C1370 1.429 . S
C1389 C1383 1.429 . S
C1389 C1390 1.523 . S
C1390 C1371 1.368 . S
C1390 C1384 1.368 . S
C1390 C1389 1.523 . S
C1391 C1375 1.429 . S
C1391 C1387 1.429 . S
C1391 C1392 1.523 . S
C1392 C1376 1.368 . S
C1392 C1388 1.368 . S
C1392 C1391 1.523 . S
H1393 C1368 0.950 . S
H1394 C1370 0.950 . S
H1395 C1371 0.949 . S
H1396 C1373 0.950 . S
H1397 C1375 0.950 . S
C1398 C1399 1.349 . S
C1398 C1400 1.327 . S
C1398 H1423 0.950 . S
C1399 C1398 1.349 . S
C1399 C1415 1.349 . S
C1400 C1398 1.327 . S
C1400 C1419 1.429 . S
C1400 H1424 0.950 . S
C1401 C1418 1.574 . S
C1401 C1420 1.368 . S
C1401 H1425 0.949 . S
H1402 C1406 0.949 . S
C1403 C1404 1.349 . S
C1403 C1405 1.327 . S
C1403 H1426 0.950 . S
C1404 C1403 1.349 . S
C1404 C1416 1.349 . S
C1405 C1403 1.327 . S
C1405 C1421 1.429 . S
C1405 H1427 0.950 . S
C1406 H1402 0.949 . S
C1406 C1414 1.574 . S
C1406 C1422 1.368 . S
H1407 C1415 0.950 . S
H1408 C1413 0.950 . S
H1409 C1414 0.949 . S
H1410 C1416 0.950 . S
H1411 C1417 0.950 . S
H1412 C1418 0.949 . S
C1413 H1408 0.950 . S
C1413 C1415 1.327 . S
C1413 C1419 1.429 . S
C1414 C1406 1.574 . S
C1414 H1409 0.949 . S
C1414 C1420 1.368 . S
C1415 C1399 1.349 . S
C1415 H1407 0.950 . S
C1415 C1413 1.327 . S
C1416 C1404 1.349 . S
C1416 H1410 0.950 . S
C1416 C1417 1.327 . S
C1417 H1411 0.950 . S
C1417 C1416 1.327 . S
C1417 C1421 1.429 . S
C1418 C1401 1.574 . S
C1418 H1412 0.949 . S
C1418 C1422 1.368 . S
C1419 C1400 1.429 . S
C1419 C1413 1.429 . S
C1419 C1420 1.523 . S
C1420 C1401 1.368 . S
C1420 C1414 1.368 . S
C1420 C1419 1.523 . S
C1421 C1405 1.429 . S
C1421 C1417 1.429 . S
C1421 C1422 1.523 . S
C1422 C1406 1.368 . S
C1422 C1418 1.368 . S
C1422 C1421 1.523 . S
H1423 C1398 0.950 . S
H1424 C1400 0.950 . S
H1425 C1401 0.949 . S
H1426 C1403 0.950 . S
H1427 C1405 0.950 . S
C1428 C1429 1.349 . S
C1428 C1430 1.327 . S
C1428 H1453 0.950 . S
C1429 C1428 1.349 . S
C1429 C1445 1.349 . S
C1430 C1428 1.327 . S
C1430 C1449 1.429 . S
C1430 H1454 0.950 . S
C1431 C1448 1.574 . S
C1431 C1450 1.368 . S
C1431 H1455 0.949 . S
H1432 C1436 0.949 . S
C1433 C1434 1.349 . S
C1433 C1435 1.327 . S
C1433 H1456 0.950 . S
C1434 C1433 1.349 . S
C1434 C1446 1.349 . S
C1435 C1433 1.327 . S
C1435 C1451 1.429 . S
C1435 H1457 0.950 . S
C1436 H1432 0.949 . S
C1436 C1444 1.574 . S
C1436 C1452 1.368 . S
H1437 C1445 0.950 . S
H1438 C1443 0.950 . S
H1439 C1444 0.949 . S
H1440 C1446 0.950 . S
H1441 C1447 0.950 . S
H1442 C1448 0.949 . S
C1443 H1438 0.950 . S
C1443 C1445 1.327 . S
C1443 C1449 1.429 . S
C1444 C1436 1.574 . S
C1444 H1439 0.949 . S
C1444 C1450 1.368 . S
C1445 C1429 1.349 . S
C1445 H1437 0.950 . S
C1445 C1443 1.327 . S
C1446 C1434 1.349 . S
C1446 H1440 0.950 . S
C1446 C1447 1.327 . S
C1447 H1441 0.950 . S
C1447 C1446 1.327 . S
C1447 C1451 1.429 . S
C1448 C1431 1.574 . S
C1448 H1442 0.949 . S
C1448 C1452 1.368 . S
C1449 C1430 1.429 . S
C1449 C1443 1.429 . S
C1449 C1450 1.523 . S
C1450 C1431 1.368 . S
C1450 C1444 1.368 . S
C1450 C1449 1.523 . S
C1451 C1435 1.429 . S
C1451 C1447 1.429 . S
C1451 C1452 1.523 . S
C1452 C1436 1.368 . S
C1452 C1448 1.368 . S
C1452 C1451 1.523 . S
H1453 C1428 0.950 . S
H1454 C1430 0.950 . S
H1455 C1431 0.949 . S
H1456 C1433 0.950 . S
H1457 C1435 0.950 . S
C1458 C1459 1.349 . S
C1458 C1460 1.327 . S
C1458 H1483 0.950 . S
C1459 C1458 1.349 . S
C1459 C1475 1.349 . S
C1460 C1458 1.327 . S
C1460 C1479 1.429 . S
C1460 H1484 0.950 . S
C1461 C1478 1.574 . S
C1461 C1480 1.368 . S
C1461 H1485 0.949 . S
H1462 C1466 0.949 . S
C1463 C1464 1.349 . S
C1463 C1465 1.327 . S
C1463 H1486 0.950 . S
C1464 C1463 1.349 . S
C1464 C1476 1.349 . S
C1465 C1463 1.327 . S
C1465 C1481 1.429 . S
C1465 H1487 0.950 . S
C1466 H1462 0.949 . S
C1466 C1474 1.574 . S
C1466 C1482 1.368 . S
H1467 C1475 0.950 . S
H1468 C1473 0.950 . S
H1469 C1474 0.949 . S
H1470 C1476 0.950 . S
H1471 C1477 0.950 . S
H1472 C1478 0.949 . S
C1473 H1468 0.950 . S
C1473 C1475 1.327 . S
C1473 C1479 1.429 . S
C1474 C1466 1.574 . S
C1474 H1469 0.949 . S
C1474 C1480 1.368 . S
C1475 C1459 1.349 . S
C1475 H1467 0.950 . S
C1475 C1473 1.327 . S
C1476 C1464 1.349 . S
C1476 H1470 0.950 . S
C1476 C1477 1.327 . S
C1477 H1471 0.950 . S
C1477 C1476 1.327 . S
C1477 C1481 1.429 . S
C1478 C1461 1.574 . S
C1478 H1472 0.949 . S
C1478 C1482 1.368 . S
C1479 C1460 1.429 . S
C1479 C1473 1.429 . S
C1479 C1480 1.523 . S
C1480 C1461 1.368 . S
C1480 C1474 1.368 . S
C1480 C1479 1.523 . S
C1481 C1465 1.429 . S
C1481 C1477 1.429 . S
C1481 C1482 1.523 . S
C1482 C1466 1.368 . S
C1482 C1478 1.368 . S
C1482 C1481 1.523 . S
H1483 C1458 0.950 . S
H1484 C1460 0.950 . S
H1485 C1461 0.949 . S
H1486 C1463 0.950 . S
H1487 C1465 0.950 . S
C1488 C1489 1.349 . S
C1488 C1490 1.327 . S
C1488 H1513 0.950 . S
C1489 C1488 1.349 . S
C1489 C1505 1.349 . S
C1490 C1488 1.327 . S
C1490 C1509 1.429 . S
C1490 H1514 0.950 . S
C1491 C1508 1.574 . S
C1491 C1510 1.368 . S
C1491 H1515 0.949 . S
H1492 C1496 0.949 . S
C1493 C1494 1.349 . S
C1493 C1495 1.327 . S
C1493 H1516 0.950 . S
C1494 C1493 1.349 . S
C1494 C1506 1.349 . S
C1495 C1493 1.327 . S
C1495 C1511 1.429 . S
C1495 H1517 0.950 . S
C1496 H1492 0.949 . S
C1496 C1504 1.574 . S
C1496 C1512 1.368 . S
H1497 C1505 0.950 . S
H1498 C1503 0.950 . S
H1499 C1504 0.949 . S
H1500 C1506 0.950 . S
H1501 C1507 0.950 . S
H1502 C1508 0.949 . S
C1503 H1498 0.950 . S
C1503 C1505 1.327 . S
C1503 C1509 1.429 . S
C1504 C1496 1.574 . S
C1504 H1499 0.949 . S
C1504 C1510 1.368 . S
C1505 C1489 1.349 . S
C1505 H1497 0.950 . S
C1505 C1503 1.327 . S
C1506 C1494 1.349 . S
C1506 H1500 0.950 . S
C1506 C1507 1.327 . S
C1507 H1501 0.950 . S
C1507 C1506 1.327 . S
C1507 C1511 1.429 . S
C1508 C1491 1.574 . S
C1508 H1502 0.949 . S
C1508 C1512 1.368 . S
C1509 C1490 1.429 . S
C1509 C1503 1.429 . S
C1509 C1510 1.523 . S
C1510 C1491 1.368 . S
C1510 C1504 1.368 . S
C1510 C1509 1.523 . S
C1511 C1495 1.429 . S
C1511 C1507 1.429 . S
C1511 C1512 1.523 . S
C1512 C1496 1.368 . S
C1512 C1508 1.368 . S
C1512 C1511 1.523 . S
H1513 C1488 0.950 . S
H1514 C1490 0.950 . S
H1515 C1491 0.949 . S
H1516 C1493 0.950 . S
H1517 C1495 0.950 . S
C1518 C1519 1.349 . S
C1518 C1520 1.327 . S
C1518 H1543 0.950 . S
C1519 C1518 1.349 . S
C1519 C1535 1.349 . S
C1520 C1518 1.327 . S
C1520 C1539 1.429 . S
C1520 H1544 0.950 . S
C1521 C1538 1.574 . S
C1521 C1540 1.368 . S
C1521 H1545 0.949 . S
H1522 C1526 0.949 . S
C1523 C1524 1.349 . S
C1523 C1525 1.327 . S
C1523 H1546 0.950 . S
C1524 C1523 1.349 . S
C1524 C1536 1.349 . S
C1525 C1523 1.327 . S
C1525 C1541 1.429 . S
C1525 H1547 0.950 . S
C1526 H1522 0.949 . S
C1526 C1534 1.574 . S
C1526 C1542 1.368 . S
H1527 C1535 0.950 . S
H1528 C1533 0.950 . S
H1529 C1534 0.949 . S
H1530 C1536 0.950 . S
H1531 C1537 0.950 . S
H1532 C1538 0.949 . S
C1533 H1528 0.950 . S
C1533 C1535 1.327 . S
C1533 C1539 1.429 . S
C1534 C1526 1.574 . S
C1534 H1529 0.949 . S
C1534 C1540 1.368 . S
C1535 C1519 1.349 . S
C1535 H1527 0.950 . S
C1535 C1533 1.327 . S
C1536 C1524 1.349 . S
C1536 H1530 0.950 . S
C1536 C1537 1.327 . S
C1537 H1531 0.950 . S
C1537 C1536 1.327 . S
C1537 C1541 1.429 . S
C1538 C1521 1.574 . S
C1538 H1532 0.949 . S
C1538 C1542 1.368 . S
C1539 C1520 1.429 . S
C1539 C1533 1.429 . S
C1539 C1540 1.523 . S
C1540 C1521 1.368 . S
C1540 C1534 1.368 . S
C1540 C1539 1.523 . S
C1541 C1525 1.429 . S
C1541 C1537 1.429 . S
C1541 C1542 1.523 . S
C1542 C1526 1.368 . S
C1542 C1538 1.368 . S
C1542 C1541 1.523 . S
H1543 C1518 0.950 . S
H1544 C1520 0.950 . S
H1545 C1521 0.949 . S
H1546 C1523 0.950 . S
H1547 C1525 0.950 . S
C1548 C1549 1.349 . S
C1548 C1550 1.327 . S
C1548 H1573 0.950 . S
C1549 C1548 1.349 . S
C1549 C1565 1.349 . S
C1550 C1548 1.327 . S
C1550 C1569 1.429 . S
C1550 H1574 0.950 . S
C1551 C1568 1.574 . S
C1551 C1570 1.368 . S
C1551 H1575 0.949 . S
H1552 C1556 0.949 . S
C1553 C1554 1.349 . S
C1553 C1555 1.327 . S
C1553 H1576 0.950 . S
C1554 C1553 1.349 . S
C1554 C1566 1.349 . S
C1555 C1553 1.327 . S
C1555 C1571 1.429 . S
C1555 H1577 0.950 . S
C1556 H1552 0.949 . S
C1556 C1564 1.574 . S
C1556 C1572 1.368 . S
H1557 C1565 0.950 . S
H1558 C1563 0.950 . S
H1559 C1564 0.949 . S
H1560 C1566 0.950 . S
H1561 C1567 0.950 . S
H1562 C1568 0.949 . S
C1563 H1558 0.950 . S
C1563 C1565 1.327 . S
C1563 C1569 1.429 . S
C1564 C1556 1.574 . S
C1564 H1559 0.949 . S
C1564 C1570 1.368 . S
C1565 C1549 1.349 . S
C1565 H1557 0.950 . S
C1565 C1563 1.327 . S
C1566 C1554 1.349 . S
C1566 H1560 0.950 . S
C1566 C1567 1.327 . S
C1567 H1561 0.950 . S
C1567 C1566 1.327 . S
C1567 C1571 1.429 . S
C1568 C1551 1.574 . S
C1568 H1562 0.949 . S
C1568 C1572 1.368 . S
C1569 C1550 1.429 . S
C1569 C1563 1.429 . S
C1569 C1570 1.523 . S
C1570 C1551 1.368 . S
C1570 C1564 1.368 . S
C1570 C1569 1.523 . S
C1571 C1555 1.429 . S
C1571 C1567 1.429 . S
C1571 C1572 1.523 . S
C1572 C1556 1.368 . S
C1572 C1568 1.368 . S
C1572 C1571 1.523 . S
H1573 C1548 0.950 . S
H1574 C1550 0.950 . S
H1575 C1551 0.949 . S
H1576 C1553 0.950 . S
H1577 C1555 0.950 . S
C1578 C1579 1.349 . S
C1578 C1580 1.327 . S
C1578 H1603 0.950 . S
C1579 C1578 1.349 . S
C1579 C1595 1.349 . S
C1580 C1578 1.327 . S
C1580 C1599 1.429 . S
C1580 H1604 0.950 . S
C1581 C1598 1.574 . S
C1581 C1600 1.368 . S
C1581 H1605 0.949 . S
H1582 C1586 0.949 . S
C1583 C1584 1.349 . S
C1583 C1585 1.327 . S
C1583 H1606 0.950 . S
C1584 C1583 1.349 . S
C1584 C1596 1.349 . S
C1585 C1583 1.327 . S
C1585 C1601 1.429 . S
C1585 H1607 0.950 . S
C1586 H1582 0.949 . S
C1586 C1594 1.574 . S
C1586 C1602 1.368 . S
H1587 C1595 0.950 . S
H1588 C1593 0.950 . S
H1589 C1594 0.949 . S
H1590 C1596 0.950 . S
H1591 C1597 0.950 . S
H1592 C1598 0.949 . S
C1593 H1588 0.950 . S
C1593 C1595 1.327 . S
C1593 C1599 1.429 . S
C1594 C1586 1.574 . S
C1594 H1589 0.949 . S
C1594 C1600 1.368 . S
C1595 C1579 1.349 . S
C1595 H1587 0.950 . S
C1595 C1593 1.327 . S
C1596 C1584 1.349 . S
C1596 H1590 0.950 . S
C1596 C1597 1.327 . S
C1597 H1591 0.950 . S
C1597 C1596 1.327 . S
C1597 C1601 1.429 . S
C1598 C1581 1.574 . S
C1598 H1592 0.949 . S
C1598 C1602 1.368 . S
C1599 C1580 1.429 . S
C1599 C1593 1.429 . S
C1599 C1600 1.523 . S
C1600 C1581 1.368 . S
C1600 C1594 1.368 . S
C1600 C1599 1.523 . S
C1601 C1585 1.429 . S
C1601 C1597 1.429 . S
C1601 C1602 1.523 . S
C1602 C1586 1.368 . S
C1602 C1598 1.368 . S
C1602 C1601 1.523 . S
H1603 C1578 0.950 . S
H1604 C1580 0.950 . S
H1605 C1581 0.949 . S
H1606 C1583 0.950 . S
H1607 C1585 0.950 . S
C1608 C1609 1.349 . S
C1608 C1610 1.327 . S
C1608 H1633 0.950 . S
C1609 C1608 1.349 . S
C1609 C1625 1.349 . S
C1610 C1608 1.327 . S
C1610 C1629 1.429 . S
C1610 H1634 0.950 . S
C1611 C1628 1.574 . S
C1611 C1630 1.368 . S
C1611 H1635 0.949 . S
H1612 C1616 0.949 . S
C1613 C1614 1.349 . S
C1613 C1615 1.327 . S
C1613 H1636 0.950 . S
C1614 C1613 1.349 . S
C1614 C1626 1.349 . S
C1615 C1613 1.327 . S
C1615 C1631 1.429 . S
C1615 H1637 0.950 . S
C1616 H1612 0.949 . S
C1616 C1624 1.574 . S
C1616 C1632 1.368 . S
H1617 C1625 0.950 . S
H1618 C1623 0.950 . S
H1619 C1624 0.949 . S
H1620 C1626 0.950 . S
H1621 C1627 0.950 . S
H1622 C1628 0.949 . S
C1623 H1618 0.950 . S
C1623 C1625 1.327 . S
C1623 C1629 1.429 . S
C1624 C1616 1.574 . S
C1624 H1619 0.949 . S
C1624 C1630 1.368 . S
C1625 C1609 1.349 . S
C1625 H1617 0.950 . S
C1625 C1623 1.327 . S
C1626 C1614 1.349 . S
C1626 H1620 0.950 . S
C1626 C1627 1.327 . S
C1627 H1621 0.950 . S
C1627 C1626 1.327 . S
C1627 C1631 1.429 . S
C1628 C1611 1.574 . S
C1628 H1622 0.949 . S
C1628 C1632 1.368 . S
C1629 C1610 1.429 . S
C1629 C1623 1.429 . S
C1629 C1630 1.523 . S
C1630 C1611 1.368 . S
C1630 C1624 1.368 . S
C1630 C1629 1.523 . S
C1631 C1615 1.429 . S
C1631 C1627 1.429 . S
C1631 C1632 1.523 . S
C1632 C1616 1.368 . S
C1632 C1628 1.368 . S
C1632 C1631 1.523 . S
H1633 C1608 0.950 . S
H1634 C1610 0.950 . S
H1635 C1611 0.949 . S
H1636 C1613 0.950 . S
H1637 C1615 0.950 . S
C1638 C1639 1.349 . S
C1638 C1640 1.327 . S
C1638 H1663 0.950 . S
C1639 C1638 1.349 . S
C1639 C1655 1.349 . S
C1640 C1638 1.327 . S
C1640 C1659 1.429 . S
C1640 H1664 0.950 . S
C1641 C1658 1.574 . S
C1641 C1660 1.368 . S
C1641 H1665 0.949 . S
H1642 C1646 0.949 . S
C1643 C1644 1.349 . S
C1643 C1645 1.327 . S
C1643 H1666 0.950 . S
C1644 C1643 1.349 . S
C1644 C1656 1.349 . S
C1645 C1643 1.327 . S
C1645 C1661 1.429 . S
C1645 H1667 0.950 . S
C1646 H1642 0.949 . S
C1646 C1654 1.574 . S
C1646 C1662 1.368 . S
H1647 C1655 0.950 . S
H1648 C1653 0.950 . S
H1649 C1654 0.949 . S
H1650 C1656 0.950 . S
H1651 C1657 0.950 . S
H1652 C1658 0.949 . S
C1653 H1648 0.950 . S
C1653 C1655 1.327 . S
C1653 C1659 1.429 . S
C1654 C1646 1.574 . S
C1654 H1649 0.949 . S
C1654 C1660 1.368 . S
C1655 C1639 1.349 . S
C1655 H1647 0.950 . S
C1655 C1653 1.327 . S
C1656 C1644 1.349 . S
C1656 H1650 0.950 . S
C1656 C1657 1.327 . S
C1657 H1651 0.950 . S
C1657 C1656 1.327 . S
C1657 C1661 1.429 . S
C1658 C1641 1.574 . S
C1658 H1652 0.949 . S
C1658 C1662 1.368 . S
C1659 C1640 1.429 . S
C1659 C1653 1.429 . S
C1659 C1660 1.523 . S
C1660 C1641 1.368 . S
C1660 C1654 1.368 . S
C1660 C1659 1.523 . S
C1661 C1645 1.429 . S
C1661 C1657 1.429 . S
C1661 C1662 1.523 . S
C1662 C1646 1.368 . S
C1662 C1658 1.368 . S
C1662 C1661 1.523 . S
H1663 C1638 0.950 . S
H1664 C1640 0.950 . S
H1665 C1641 0.949 . S
H1666 C1643 0.950 . S
H1667 C1645 0.950 . S
C1668 C1669 1.349 . S
C1668 C1670 1.327 . S
C1668 H1693 0.950 . S
C1669 C1668 1.349 . S
C1669 C1685 1.349 . S
C1670 C1668 1.327 . S
C1670 C1689 1.429 . S
C1670 H1694 0.950 . S
C1671 C1688 1.574 . S
C1671 C1690 1.368 . S
C1671 H1695 0.949 . S
H1672 C1676 0.949 . S
C1673 C1674 1.349 . S
C1673 C1675 1.327 . S
C1673 H1696 0.950 . S
C1674 C1673 1.349 . S
C1674 C1686 1.349 . S
C1675 C1673 1.327 . S
C1675 C1691 1.429 . S
C1675 H1697 0.950 . S
C1676 H1672 0.949 . S
C1676 C1684 1.574 . S
C1676 C1692 1.368 . S
H1677 C1685 0.950 . S
H1678 C1683 0.950 . S
H1679 C1684 0.949 . S
H1680 C1686 0.950 . S
H1681 C1687 0.950 . S
H1682 C1688 0.949 . S
C1683 H1678 0.950 . S
C1683 C1685 1.327 . S
C1683 C1689 1.429 . S
C1684 C1676 1.574 . S
C1684 H1679 0.949 . S
C1684 C1690 1.368 . S
C1685 C1669 1.349 . S
C1685 H1677 0.950 . S
C1685 C1683 1.327 . S
C1686 C1674 1.349 . S
C1686 H1680 0.950 . S
C1686 C1687 1.327 . S
C1687 H1681 0.950 . S
C1687 C1686 1.327 . S
C1687 C1691 1.429 . S
C1688 C1671 1.574 . S
C1688 H1682 0.949 . S
C1688 C1692 1.368 . S
C1689 C1670 1.429 . S
C1689 C1683 1.429 . S
C1689 C1690 1.523 . S
C1690 C1671 1.368 . S
C1690 C1684 1.368 . S
C1690 C1689 1.523 . S
C1691 C1675 1.429 . S
C1691 C1687 1.429 . S
C1691 C1692 1.523 . S
C1692 C1676 1.368 . S
C1692 C1688 1.368 . S
C1692 C1691 1.523 . S
H1693 C1668 0.950 . S
H1694 C1670 0.950 . S
H1695 C1671 0.949 . S
H1696 C1673 0.950 . S
H1697 C1675 0.950 . S
C1698 C1699 1.349 . S
C1698 C1700 1.327 . S
C1698 H1723 0.950 . S
C1699 C1698 1.349 . S
C1699 C1715 1.349 . S
C1700 C1698 1.327 . S
C1700 C1719 1.429 . S
C1700 H1724 0.950 . S
C1701 C1718 1.574 . S
C1701 C1720 1.368 . S
C1701 H1725 0.949 . S
H1702 C1706 0.949 . S
C1703 C1704 1.349 . S
C1703 C1705 1.327 . S
C1703 H1726 0.950 . S
C1704 C1703 1.349 . S
C1704 C1716 1.349 . S
C1705 C1703 1.327 . S
C1705 C1721 1.429 . S
C1705 H1727 0.950 . S
C1706 H1702 0.949 . S
C1706 C1714 1.574 . S
C1706 C1722 1.368 . S
H1707 C1715 0.950 . S
H1708 C1713 0.950 . S
H1709 C1714 0.949 . S
H1710 C1716 0.950 . S
H1711 C1717 0.950 . S
H1712 C1718 0.949 . S
C1713 H1708 0.950 . S
C1713 C1715 1.327 . S
C1713 C1719 1.429 . S
C1714 C1706 1.574 . S
C1714 H1709 0.949 . S
C1714 C1720 1.368 . S
C1715 C1699 1.349 . S
C1715 H1707 0.950 . S
C1715 C1713 1.327 . S
C1716 C1704 1.349 . S
C1716 H1710 0.950 . S
C1716 C1717 1.327 . S
C1717 H1711 0.950 . S
C1717 C1716 1.327 . S
C1717 C1721 1.429 . S
C1718 C1701 1.574 . S
C1718 H1712 0.949 . S
C1718 C1722 1.368 . S
C1719 C1700 1.429 . S
C1719 C1713 1.429 . S
C1719 C1720 1.523 . S
C1720 C1701 1.368 . S
C1720 C1714 1.368 . S
C1720 C1719 1.523 . S
C1721 C1705 1.429 . S
C1721 C1717 1.429 . S
C1721 C1722 1.523 . S
C1722 C1706 1.368 . S
C1722 C1718 1.368 . S
C1722 C1721 1.523 . S
H1723 C1698 0.950 . S
H1724 C1700 0.950 . S
H1725 C1701 0.949 . S
H1726 C1703 0.950 . S
H1727 C1705 0.950 . S
C1728 C1729 1.349 . S
C1728 C1730 1.327 . S
C1728 H1753 0.950 . S
C1729 C1728 1.349 . S
C1729 C1745 1.349 . S
C1730 C1728 1.327 . S
C1730 C1749 1.429 . S
C1730 H1754 0.950 . S
C1731 C1748 1.574 . S
C1731 C1750 1.368 . S
C1731 H1755 0.949 . S
H1732 C1736 0.949 . S
C1733 C1734 1.349 . S
C1733 C1735 1.327 . S
C1733 H1756 0.950 . S
C1734 C1733 1.349 . S
C1734 C1746 1.349 . S
C1735 C1733 1.327 . S
C1735 C1751 1.429 . S
C1735 H1757 0.950 . S
C1736 H1732 0.949 . S
C1736 C1744 1.574 . S
C1736 C1752 1.368 . S
H1737 C1745 0.950 . S
H1738 C1743 0.950 . S
H1739 C1744 0.949 . S
H1740 C1746 0.950 . S
H1741 C1747 0.950 . S
H1742 C1748 0.949 . S
C1743 H1738 0.950 . S
C1743 C1745 1.327 . S
C1743 C1749 1.429 . S
C1744 C1736 1.574 . S
C1744 H1739 0.949 . S
C1744 C1750 1.368 . S
C1745 C1729 1.349 . S
C1745 H1737 0.950 . S
C1745 C1743 1.327 . S
C1746 C1734 1.349 . S
C1746 H1740 0.950 . S
C1746 C1747 1.327 . S
C1747 H1741 0.950 . S
C1747 C1746 1.327 . S
C1747 C1751 1.429 . S
C1748 C1731 1.574 . S
C1748 H1742 0.949 . S
C1748 C1752 1.368 . S
C1749 C1730 1.429 . S
C1749 C1743 1.429 . S
C1749 C1750 1.523 . S
C1750 C1731 1.368 . S
C1750 C1744 1.368 . S
C1750 C1749 1.523 . S
C1751 C1735 1.429 . S
C1751 C1747 1.429 . S
C1751 C1752 1.523 . S
C1752 C1736 1.368 . S
C1752 C1748 1.368 . S
C1752 C1751 1.523 . S
H1753 C1728 0.950 . S
H1754 C1730 0.950 . S
H1755 C1731 0.949 . S
H1756 C1733 0.950 . S
H1757 C1735 0.950 . S
C1758 C1759 1.349 . S
C1758 C1760 1.327 . S
C1758 H1783 0.950 . S
C1759 C1758 1.349 . S
C1759 C1775 1.349 . S
C1760 C1758 1.327 . S
C1760 C1779 1.429 . S
C1760 H1784 0.950 . S
C1761 C1778 1.574 . S
C1761 C1780 1.368 . S
C1761 H1785 0.949 . S
H1762 C1766 0.949 . S
C1763 C1764 1.349 . S
C1763 C1765 1.327 . S
C1763 H1786 0.950 . S
C1764 C1763 1.349 . S
C1764 C1776 1.349 . S
C1765 C1763 1.327 . S
C1765 C1781 1.429 . S
C1765 H1787 0.950 . S
C1766 H1762 0.949 . S
C1766 C1774 1.574 . S
C1766 C1782 1.368 . S
H1767 C1775 0.950 . S
H1768 C1773 0.950 . S
H1769 C1774 0.949 . S
H1770 C1776 0.950 . S
H1771 C1777 0.950 . S
H1772 C1778 0.949 . S
C1773 H1768 0.950 . S
C1773 C1775 1.327 . S
C1773 C1779 1.429 . S
C1774 C1766 1.574 . S
C1774 H1769 0.949 . S
C1774 C1780 1.368 . S
C1775 C1759 1.349 . S
C1775 H1767 0.950 . S
C1775 C1773 1.327 . S
C1776 C1764 1.349 . S
C1776 H1770 0.950 . S
C1776 C1777 1.327 . S
C1777 H1771 0.950 . S
C1777 C1776 1.327 . S
C1777 C1781 1.429 . S
C1778 C1761 1.574 . S
C1778 H1772 0.949 . S
C1778 C1782 1.368 . S
C1779 C1760 1.429 . S
C1779 C1773 1.429 . S
C1779 C1780 1.523 . S
C1780 C1761 1.368 . S
C1780 C1774 1.368 . S
C1780 C1779 1.523 . S
C1781 C1765 1.429 . S
C1781 C1777 1.429 . S
C1781 C1782 1.523 . S
C1782 C1766 1.368 . S
C1782 C1778 1.368 . S
C1782 C1781 1.523 . S
H1783 C1758 0.950 . S
H1784 C1760 0.950 . S
H1785 C1761 0.949 . S
H1786 C1763 0.950 . S
H1787 C1765 0.950 . S
C1788 C1789 1.349 . S
C1788 C1790 1.327 . S
C1788 H1813 0.950 . S
C1789 C1788 1.349 . S
C1789 C1805 1.349 . S
C1790 C1788 1.327 . S
C1790 C1809 1.429 . S
C1790 H1814 0.950 . S
C1791 C1808 1.574 . S
C1791 C1810 1.368 . S
C1791 H1815 0.949 . S
H1792 C1796 0.949 . S
C1793 C1794 1.349 . S
C1793 C1795 1.327 . S
C1793 H1816 0.950 . S
C1794 C1793 1.349 . S
C1794 C1806 1.349 . S
C1795 C1793 1.327 . S
C1795 C1811 1.429 . S
C1795 H1817 0.950 . S
C1796 H1792 0.949 . S
C1796 C1804 1.574 . S
C1796 C1812 1.368 . S
H1797 C1805 0.950 . S
H1798 C1803 0.950 . S
H1799 C1804 0.949 . S
H1800 C1806 0.950 . S
H1801 C1807 0.950 . S
H1802 C1808 0.949 . S
C1803 H1798 0.950 . S
C1803 C1805 1.327 . S
C1803 C1809 1.429 . S
C1804 C1796 1.574 . S
C1804 H1799 0.949 . S
C1804 C1810 1.368 . S
C1805 C1789 1.349 . S
C1805 H1797 0.950 . S
C1805 C1803 1.327 . S
C1806 C1794 1.349 . S
C1806 H1800 0.950 . S
C1806 C1807 1.327 . S
C1807 H1801 0.950 . S
C1807 C1806 1.327 . S
C1807 C1811 1.429 . S
C1808 C1791 1.574 . S
C1808 H1802 0.949 . S
C1808 C1812 1.368 . S
C1809 C1790 1.429 . S
C1809 C1803 1.429 . S
C1809 C1810 1.523 . S
C1810 C1791 1.368 . S
C1810 C1804 1.368 . S
C1810 C1809 1.523 . S
C1811 C1795 1.429 . S
C1811 C1807 1.429 . S
C1811 C1812 1.523 . S
C1812 C1796 1.368 . S
C1812 C1808 1.368 . S
C1812 C1811 1.523 . S
H1813 C1788 0.950 . S
H1814 C1790 0.950 . S
H1815 C1791 0.949 . S
H1816 C1793 0.950 . S
H1817 C1795 0.950 . S
C1818 C1819 1.349 . S
C1818 C1820 1.327 . S
C1818 H1843 0.950 . S
C1819 C1818 1.349 . S
C1819 C1835 1.349 . S
C1820 C1818 1.327 . S
C1820 C1839 1.429 . S
C1820 H1844 0.950 . S
C1821 C1838 1.574 . S
C1821 C1840 1.368 . S
C1821 H1845 0.949 . S
H1822 C1826 0.949 . S
C1823 C1824 1.349 . S
C1823 C1825 1.327 . S
C1823 H1846 0.950 . S
C1824 C1823 1.349 . S
C1824 C1836 1.349 . S
C1825 C1823 1.327 . S
C1825 C1841 1.429 . S
C1825 H1847 0.950 . S
C1826 H1822 0.949 . S
C1826 C1834 1.574 . S
C1826 C1842 1.368 . S
H1827 C1835 0.950 . S
H1828 C1833 0.950 . S
H1829 C1834 0.949 . S
H1830 C1836 0.950 . S
H1831 C1837 0.950 . S
H1832 C1838 0.949 . S
C1833 H1828 0.950 . S
C1833 C1835 1.327 . S
C1833 C1839 1.429 . S
C1834 C1826 1.574 . S
C1834 H1829 0.949 . S
C1834 C1840 1.368 . S
C1835 C1819 1.349 . S
C1835 H1827 0.950 . S
C1835 C1833 1.327 . S
C1836 C1824 1.349 . S
C1836 H1830 0.950 . S
C1836 C1837 1.327 . S
C1837 H1831 0.950 . S
C1837 C1836 1.327 . S
C1837 C1841 1.429 . S
C1838 C1821 1.574 . S
C1838 H1832 0.949 . S
C1838 C1842 1.368 . S
C1839 C1820 1.429 . S
C1839 C1833 1.429 . S
C1839 C1840 1.523 . S
C1840 C1821 1.368 . S
C1840 C1834 1.368 . S
C1840 C1839 1.523 . S
C1841 C1825 1.429 . S
C1841 C1837 1.429 . S
C1841 C1842 1.523 . S
C1842 C1826 1.368 . S
C1842 C1838 1.368 . S
C1842 C1841 1.523 . S
H1843 C1818 0.950 . S
H1844 C1820 0.950 . S
H1845 C1821 0.949 . S
H1846 C1823 0.950 . S
H1847 C1825 0.950 . S
C1848 C1849 1.349 . S
C1848 C1850 1.327 . S
C1848 H1873 0.950 . S
C1849 C1848 1.349 . S
C1849 C1865 1.349 . S
C1850 C1848 1.327 . S
C1850 C1869 1.429 . S
C1850 H1874 0.950 . S
C1851 C1868 1.574 . S
C1851 C1870 1.368 . S
C1851 H1875 0.949 . S
H1852 C1856 0.949 . S
C1853 C1854 1.349 . S
C1853 C1855 1.327 . S
C1853 H1876 0.950 . S
C1854 C1853 1.349 . S
C1854 C1866 1.349 . S
C1855 C1853 1.327 . S
C1855 C1871 1.429 . S
C1855 H1877 0.950 . S
C1856 H1852 0.949 . S
C1856 C1864 1.574 . S
C1856 C1872 1.368 . S
H1857 C1865 0.950 . S
H1858 C1863 0.950 . S
H1859 C1864 0.949 . S
H1860 C1866 0.950 . S
H1861 C1867 0.950 . S
H1862 C1868 0.949 . S
C1863 H1858 0.950 . S
C1863 C1865 1.327 . S
C1863 C1869 1.429 . S
C1864 C1856 1.574 . S
C1864 H1859 0.949 . S
C1864 C1870 1.368 . S
C1865 C1849 1.349 . S
C1865 H1857 0.950 . S
C1865 C1863 1.327 . S
C1866 C1854 1.349 . S
C1866 H1860 0.950 . S
C1866 C1867 1.327 . S
C1867 H1861 0.950 . S
C1867 C1866 1.327 . S
C1867 C1871 1.429 . S
C1868 C1851 1.574 . S
C1868 H1862 0.949 . S
C1868 C1872 1.368 . S
C1869 C1850 1.429 . S
C1869 C1863 1.429 . S
C1869 C1870 1.523 . S
C1870 C1851 1.368 . S
C1870 C1864 1.368 . S
C1870 C1869 1.523 . S
C1871 C1855 1.429 . S
C1871 C1867 1.429 . S
C1871 C1872 1.523 . S
C1872 C1856 1.368 . S
C1872 C1868 1.368 . S
C1872 C1871 1.523 . S
H1873 C1848 0.950 . S
H1874 C1850 0.950 . S
H1875 C1851 0.949 . S
H1876 C1853 0.950 . S
H1877 C1855 0.950 . S
C1878 C1879 1.349 . S
C1878 C1880 1.327 . S
C1878 H1903 0.950 . S
C1879 C1878 1.349 . S
C1879 C1895 1.349 . S
C1880 C1878 1.327 . S
C1880 C1899 1.429 . S
C1880 H1904 0.950 . S
C1881 C1898 1.574 . S
C1881 C1900 1.368 . S
C1881 H1905 0.949 . S
H1882 C1886 0.949 . S
C1883 C1884 1.349 . S
C1883 C1885 1.327 . S
C1883 H1906 0.950 . S
C1884 C1883 1.349 . S
C1884 C1896 1.349 . S
C1885 C1883 1.327 . S
C1885 C1901 1.429 . S
C1885 H1907 0.950 . S
C1886 H1882 0.949 . S
C1886 C1894 1.574 . S
C1886 C1902 1.368 . S
H1887 C1895 0.950 . S
H1888 C1893 0.950 . S
H1889 C1894 0.949 . S
H1890 C1896 0.950 . S
H1891 C1897 0.950 . S
H1892 C1898 0.949 . S
C1893 H1888 0.950 . S
C1893 C1895 1.327 . S
C1893 C1899 1.429 . S
C1894 C1886 1.574 . S
C1894 H1889 0.949 . S
C1894 C1900 1.368 . S
C1895 C1879 1.349 . S
C1895 H1887 0.950 . S
C1895 C1893 1.327 . S
C1896 C1884 1.349 . S
C1896 H1890 0.950 . S
C1896 C1897 1.327 . S
C1897 H1891 0.950 . S
C1897 C1896 1.327 . S
C1897 C1901 1.429 . S
C1898 C1881 1.574 . S
C1898 H1892 0.949 . S
C1898 C1902 1.368 . S
C1899 C1880 1.429 . S
C1899 C1893 1.429 . S
C1899 C1900 1.523 . S
C1900 C1881 1.368 . S
C1900 C1894 1.368 . S
C1900 C1899 1.523 . S
C1901 C1885 1.429 . S
C1901 C1897 1.429 . S
C1901 C1902 1.523 . S
C1902 C1886 1.368 . S
C1902 C1898 1.368 . S
C1902 C1901 1.523 . S
H1903 C1878 0.950 . S
H1904 C1880 0.950 . S
H1905 C1881 0.949 . S
H1906 C1883 0.950 . S
H1907 C1885 0.950 . S
C1908 C1909 1.349 . S
C1908 C1910 1.327 . S
C1908 H1933 0.950 . S
C1909 C1908 1.349 . S
C1909 C1925 1.349 . S
C1910 C1908 1.327 . S
C1910 C1929 1.429 . S
C1910 H1934 0.950 . S
C1911 C1928 1.574 . S
C1911 C1930 1.368 . S
C1911 H1935 0.949 . S
H1912 C1916 0.949 . S
C1913 C1914 1.349 . S
C1913 C1915 1.327 . S
C1913 H1936 0.950 . S
C1914 C1913 1.349 . S
C1914 C1926 1.349 . S
C1915 C1913 1.327 . S
C1915 C1931 1.429 . S
C1915 H1937 0.950 . S
C1916 H1912 0.949 . S
C1916 C1924 1.574 . S
C1916 C1932 1.368 . S
H1917 C1925 0.950 . S
H1918 C1923 0.950 . S
H1919 C1924 0.949 . S
H1920 C1926 0.950 . S
H1921 C1927 0.950 . S
H1922 C1928 0.949 . S
C1923 H1918 0.950 . S
C1923 C1925 1.327 . S
C1923 C1929 1.429 . S
C1924 C1916 1.574 . S
C1924 H1919 0.949 . S
C1924 C1930 1.368 . S
C1925 C1909 1.349 . S
C1925 H1917 0.950 . S
C1925 C1923 1.327 . S
C1926 C1914 1.349 . S
C1926 H1920 0.950 . S
C1926 C1927 1.327 . S
C1927 H1921 0.950 . S
C1927 C1926 1.327 . S
C1927 C1931 1.429 . S
C1928 C1911 1.574 . S
C1928 H1922 0.949 . S
C1928 C1932 1.368 . S
C1929 C1910 1.429 . S
C1929 C1923 1.429 . S
C1929 C1930 1.523 . S
C1930 C1911 1.368 . S
C1930 C1924 1.368 . S
C1930 C1929 1.523 . S
C1931 C1915 1.429 . S
C1931 C1927 1.429 . S
C1931 C1932 1.523 . S
C1932 C1916 1.368 . S
C1932 C1928 1.368 . S
C1932 C1931 1.523 . S
H1933 C1908 0.950 . S
H1934 C1910 0.950 . S
H1935 C1911 0.949 . S
H1936 C1913 0.950 . S
H1937 C1915 0.950 . S
C1938 C1939 1.349 . S
C1938 C1940 1.327 . S
C1938 H1963 0.950 . S
C1939 C1938 1.349 . S
C1939 C1955 1.349 . S
C1940 C1938 1.327 . S
C1940 C1959 1.429 . S
C1940 H1964 0.950 . S
C1941 C1958 1.574 . S
C1941 C1960 1.368 . S
C1941 H1965 0.949 . S
H1942 C1946 0.949 . S
C1943 C1944 1.349 . S
C1943 C1945 1.327 . S
C1943 H1966 0.950 . S
C1944 C1943 1.349 . S
C1944 C1956 1.349 . S
C1945 C1943 1.327 . S
C1945 C1961 1.429 . S
C1945 H1967 0.950 . S
C1946 H1942 0.949 . S
C1946 C1954 1.574 . S
C1946 C1962 1.368 . S
H1947 C1955 0.950 . S
H1948 C1953 0.950 . S
H1949 C1954 0.949 . S
H1950 C1956 0.950 . S
H1951 C1957 0.950 . S
H1952 C1958 0.949 . S
C1953 H1948 0.950 . S
C1953 C1955 1.327 . S
C1953 C1959 1.429 . S
C1954 C1946 1.574 . S
C1954 H1949 0.949 . S
C1954 C1960 1.368 . S
C1955 C1939 1.349 . S
C1955 H1947 0.950 . S
C1955 C1953 1.327 . S
C1956 C1944 1.349 . S
C1956 H1950 0.950 . S
C1956 C1957 1.327 . S
C1957 H1951 0.950 . S
C1957 C1956 1.327 . S
C1957 C1961 1.429 . S
C1958 C1941 1.574 . S
C1958 H1952 0.949 . S
C1958 C1962 1.368 . S
C1959 C1940 1.429 . S
C1959 C1953 1.429 . S
C1959 C1960 1.523 . S
C1960 C1941 1.368 . S
C1960 C1954 1.368 . S
C1960 C1959 1.523 . S
C1961 C1945 1.429 . S
C1961 C1957 1.429 . S
C1961 C1962 1.523 . S
C1962 C1946 1.368 . S
C1962 C1958 1.368 . S
C1962 C1961 1.523 . S
H1963 C1938 0.950 . S
H1964 C1940 0.950 . S
H1965 C1941 0.949 . S
H1966 C1943 0.950 . S
H1967 C1945 0.950 . S
C1968 C1969 1.349 . S
C1968 C1970 1.327 . S
C1968 H1993 0.950 . S
C1969 C1968 1.349 . S
C1969 C1985 1.349 . S
C1970 C1968 1.327 . S
C1970 C1989 1.429 . S
C1970 H1994 0.950 . S
C1971 C1988 1.574 . S
C1971 C1990 1.368 . S
C1971 H1995 0.949 . S
H1972 C1976 0.949 . S
C1973 C1974 1.349 . S
C1973 C1975 1.327 . S
C1973 H1996 0.950 . S
C1974 C1973 1.349 . S
C1974 C1986 1.349 . S
C1975 C1973 1.327 . S
C1975 C1991 1.429 . S
C1975 H1997 0.950 . S
C1976 H1972 0.949 . S
C1976 C1984 1.574 . S
C1976 C1992 1.368 . S
H1977 C1985 0.950 . S
H1978 C1983 0.950 . S
H1979 C1984 0.949 . S
H1980 C1986 0.950 . S
H1981 C1987 0.950 . S
H1982 C1988 0.949 . S
C1983 H1978 0.950 . S
C1983 C1985 1.327 . S
C1983 C1989 1.429 . S
C1984 C1976 1.574 . S
C1984 H1979 0.949 . S
C1984 C1990 1.368 . S
C1985 C1969 1.349 . S
C1985 H1977 0.950 . S
C1985 C1983 1.327 . S
C1986 C1974 1.349 . S
C1986 H1980 0.950 . S
C1986 C1987 1.327 . S
C1987 H1981 0.950 . S
C1987 C1986 1.327 . S
C1987 C1991 1.429 . S
C1988 C1971 1.574 . S
C1988 H1982 0.949 . S
C1988 C1992 1.368 . S
C1989 C1970 1.429 . S
C1989 C1983 1.429 . S
C1989 C1990 1.523 . S
C1990 C1971 1.368 . S
C1990 C1984 1.368 . S
C1990 C1989 1.523 . S
C1991 C1975 1.429 . S
C1991 C1987 1.429 . S
C1991 C1992 1.523 . S
C1992 C1976 1.368 . S
C1992 C1988 1.368 . S
C1992 C1991 1.523 . S
H1993 C1968 0.950 . S
H1994 C1970 0.950 . S
H1995 C1971 0.949 . S
H1996 C1973 0.950 . S
H1997 C1975 0.950 . S
C1998 C1999 1.349 . S
C1998 C2000 1.327 . S
C1998 H2023 0.950 . S
C1999 C1998 1.349 . S
C1999 C2015 1.349 . S
C2000 C1998 1.327 . S
C2000 C2019 1.429 . S
C2000 H2024 0.950 . S
C2001 C2018 1.574 . S
C2001 C2020 1.368 . S
C2001 H2025 0.949 . S
H2002 C2006 0.949 . S
C2003 C2004 1.349 . S
C2003 C2005 1.327 . S
C2003 H2026 0.950 . S
C2004 C2003 1.349 . S
C2004 C2016 1.349 . S
C2005 C2003 1.327 . S
C2005 C2021 1.429 . S
C2005 H2027 0.950 . S
C2006 H2002 0.949 . S
C2006 C2014 1.574 . S
C2006 C2022 1.368 . S
H2007 C2015 0.950 . S
H2008 C2013 0.950 . S
H2009 C2014 0.949 . S
H2010 C2016 0.950 . S
H2011 C2017 0.950 . S
H2012 C2018 0.949 . S
C2013 H2008 0.950 . S
C2013 C2015 1.327 . S
C2013 C2019 1.429 . S
C2014 C2006 1.574 . S
C2014 H2009 0.949 . S
C2014 C2020 1.368 . S
C2015 C1999 1.349 . S
C2015 H2007 0.950 . S
C2015 C2013 1.327 . S
C2016 C2004 1.349 . S
C2016 H2010 0.950 . S
C2016 C2017 1.327 . S
C2017 H2011 0.950 . S
C2017 C2016 1.327 . S
C2017 C2021 1.429 . S
C2018 C2001 1.574 . S
C2018 H2012 0.949 . S
C2018 C2022 1.368 . S
C2019 C2000 1.429 . S
C2019 C2013 1.429 . S
C2019 C2020 1.523 . S
C2020 C2001 1.368 . S
C2020 C2014 1.368 . S
C2020 C2019 1.523 . S
C2021 C2005 1.429 . S
C2021 C2017 1.429 . S
C2021 C2022 1.523 . S
C2022 C2006 1.368 . S
C2022 C2018 1.368 . S
C2022 C2021 1.523 . S
H2023 C1998 0.950 . S
H2024 C2000 0.950 . S
H2025 C2001 0.949 . S
H2026 C2003 0.950 . S
H2027 C2005 0.950 . S
C2028 C2029 1.349 . S
C2028 C2030 1.327 . S
C2028 H2053 0.950 . S
C2029 C2028 1.349 . S
C2029 C2045 1.349 . S
C2030 C2028 1.327 . S
C2030 C2049 1.429 . S
C2030 H2054 0.950 . S
C2031 C2048 1.574 . S
C2031 C2050 1.368 . S
C2031 H2055 0.949 . S
H2032 C2036 0.949 . S
C2033 C2034 1.349 . S
C2033 C2035 1.327 . S
C2033 H2056 0.950 . S
C2034 C2033 1.349 . S
C2034 C2046 1.349 . S
C2035 C2033 1.327 . S
C2035 C2051 1.429 . S
C2035 H2057 0.950 . S
C2036 H2032 0.949 . S
C2036 C2044 1.574 . S
C2036 C2052 1.368 . S
H2037 C2045 0.950 . S
H2038 C2043 0.950 . S
H2039 C2044 0.949 . S
H2040 C2046 0.950 . S
H2041 C2047 0.950 . S
H2042 C2048 0.949 . S
C2043 H2038 0.950 . S
C2043 C2045 1.327 . S
C2043 C2049 1.429 . S
C2044 C2036 1.574 . S
C2044 H2039 0.949 . S
C2044 C2050 1.368 . S
C2045 C2029 1.349 . S
C2045 H2037 0.950 . S
C2045 C2043 1.327 . S
C2046 C2034 1.349 . S
C2046 H2040 0.950 . S
C2046 C2047 1.327 . S
C2047 H2041 0.950 . S
C2047 C2046 1.327 . S
C2047 C2051 1.429 . S
C2048 C2031 1.574 . S
C2048 H2042 0.949 . S
C2048 C2052 1.368 . S
C2049 C2030 1.429 . S
C2049 C2043 1.429 . S
C2049 C2050 1.523 . S
C2050 C2031 1.368 . S
C2050 C2044 1.368 . S
C2050 C2049 1.523 . S
C2051 C2035 1.429 . S
C2051 C2047 1.429 . S
C2051 C2052 1.523 . S
C2052 C2036 1.368 . S
C2052 C2048 1.368 . S
C2052 C2051 1.523 . S
H2053 C2028 0.950 . S
H2054 C2030 0.950 . S
H2055 C2031 0.949 . S
H2056 C2033 0.950 . S
H2057 C2035 0.950 . S
C2058 C2059 1.349 . S
C2058 C2060 1.327 . S
C2058 H2083 0.950 . S
C2059 C2058 1.349 . S
C2059 C2075 1.349 . S
C2060 C2058 1.327 . S
C2060 C2079 1.429 . S
C2060 H2084 0.950 . S
C2061 C2078 1.574 . S
C2061 C2080 1.368 . S
C2061 H2085 0.949 . S
H2062 C2066 0.949 . S
C2063 C2064 1.349 . S
C2063 C2065 1.327 . S
C2063 H2086 0.950 . S
C2064 C2063 1.349 . S
C2064 C2076 1.349 . S
C2065 C2063 1.327 . S
C2065 C2081 1.429 . S
C2065 H2087 0.950 . S
C2066 H2062 0.949 . S
C2066 C2074 1.574 . S
C2066 C2082 1.368 . S
H2067 C2075 0.950 . S
H2068 C2073 0.950 . S
H2069 C2074 0.949 . S
H2070 C2076 0.950 . S
H2071 C2077 0.950 . S
H2072 C2078 0.949 . S
C2073 H2068 0.950 . S
C2073 C2075 1.327 . S
C2073 C2079 1.429 . S
C2074 C2066 1.574 . S
C2074 H2069 0.949 . S
C2074 C2080 1.368 . S
C2075 C2059 1.349 . S
C2075 H2067 0.950 . S
C2075 C2073 1.327 . S
C2076 C2064 1.349 . S
C2076 H2070 0.950 . S
C2076 C2077 1.327 . S
C2077 H2071 0.950 . S
C2077 C2076 1.327 . S
C2077 C2081 1.429 . S
C2078 C2061 1.574 . S
C2078 H2072 0.949 . S
C2078 C2082 1.368 . S
C2079 C2060 1.429 . S
C2079 C2073 1.429 . S
C2079 C2080 1.523 . S
C2080 C2061 1.368 . S
C2080 C2074 1.368 . S
C2080 C2079 1.523 . S
C2081 C2065 1.429 . S
C2081 C2077 1.429 . S
C2081 C2082 1.523 . S
C2082 C2066 1.368 . S
C2082 C2078 1.368 . S
C2082 C2081 1.523 . S
H2083 C2058 0.950 . S
H2084 C2060 0.950 . S
H2085 C2061 0.949 . S
H2086 C2063 0.950 . S
H2087 C2065 0.950 . S
C2088 C2089 1.349 . S
C2088 C2090 1.327 . S
C2088 H2113 0.950 . S
C2089 C2088 1.349 . S
C2089 C2105 1.349 . S
C2090 C2088 1.327 . S
C2090 C2109 1.429 . S
C2090 H2114 0.950 . S
C2091 C2108 1.574 . S
C2091 C2110 1.368 . S
C2091 H2115 0.949 . S
H2092 C2096 0.949 . S
C2093 C2094 1.349 . S
C2093 C2095 1.327 . S
C2093 H2116 0.950 . S
C2094 C2093 1.349 . S
C2094 C2106 1.349 . S
C2095 C2093 1.327 . S
C2095 C2111 1.429 . S
C2095 H2117 0.950 . S
C2096 H2092 0.949 . S
C2096 C2104 1.574 . S
C2096 C2112 1.368 . S
H2097 C2105 0.950 . S
H2098 C2103 0.950 . S
H2099 C2104 0.949 . S
H2100 C2106 0.950 . S
H2101 C2107 0.950 . S
H2102 C2108 0.949 . S
C2103 H2098 0.950 . S
C2103 C2105 1.327 . S
C2103 C2109 1.429 . S
C2104 C2096 1.574 . S
C2104 H2099 0.949 . S
C2104 C2110 1.368 . S
C2105 C2089 1.349 . S
C2105 H2097 0.950 . S
C2105 C2103 1.327 . S
C2106 C2094 1.349 . S
C2106 H2100 0.950 . S
C2106 C2107 1.327 . S
C2107 H2101 0.950 . S
C2107 C2106 1.327 . S
C2107 C2111 1.429 . S
C2108 C2091 1.574 . S
C2108 H2102 0.949 . S
C2108 C2112 1.368 . S
C2109 C2090 1.429 . S
C2109 C2103 1.429 . S
C2109 C2110 1.523 . S
C2110 C2091 1.368 . S
C2110 C2104 1.368 . S
C2110 C2109 1.523 . S
C2111 C2095 1.429 . S
C2111 C2107 1.429 . S
C2111 C2112 1.523 . S
C2112 C2096 1.368 . S
C2112 C2108 1.368 . S
C2112 C2111 1.523 . S
H2113 C2088 0.950 . S
H2114 C2090 0.950 . S
H2115 C2091 0.949 . S
H2116 C2093 0.950 . S
H2117 C2095 0.950 . S
C2118 C2119 1.349 . S
C2118 C2120 1.327 . S
C2118 H2143 0.950 . S
C2119 C2118 1.349 . S
C2119 C2135 1.349 . S
C2120 C2118 1.327 . S
C2120 C2139 1.429 . S
C2120 H2144 0.950 . S
C2121 C2138 1.574 . S
C2121 C2140 1.368 . S
C2121 H2145 0.949 . S
H2122 C2126 0.949 . S
C2123 C2124 1.349 . S
C2123 C2125 1.327 . S
C2123 H2146 0.950 . S
C2124 C2123 1.349 . S
C2124 C2136 1.349 . S
C2125 C2123 1.327 . S
C2125 C2141 1.429 . S
C2125 H2147 0.950 . S
C2126 H2122 0.949 . S
C2126 C2134 1.574 . S
C2126 C2142 1.368 . S
H2127 C2135 0.950 . S
H2128 C2133 0.950 . S
H2129 C2134 0.949 . S
H2130 C2136 0.950 . S
H2131 C2137 0.950 . S
H2132 C2138 0.949 . S
C2133 H2128 0.950 . S
C2133 C2135 1.327 . S
C2133 C2139 1.429 . S
C2134 C2126 1.574 . S
C2134 H2129 0.949 . S
C2134 C2140 1.368 . S
C2135 C2119 1.349 . S
C2135 H2127 0.950 . S
C2135 C2133 1.327 . S
C2136 C2124 1.349 . S
C2136 H2130 0.950 . S
C2136 C2137 1.327 . S
C2137 H2131 0.950 . S
C2137 C2136 1.327 . S
C2137 C2141 1.429 . S
C2138 C2121 1.574 . S
C2138 H2132 0.949 . S
C2138 C2142 1.368 . S
C2139 C2120 1.429 . S
C2139 C2133 1.429 . S
C2139 C2140 1.523 . S
C2140 C2121 1.368 . S
C2140 C2134 1.368 . S
C2140 C2139 1.523 . S
C2141 C2125 1.429 . S
C2141 C2137 1.429 . S
C2141 C2142 1.523 . S
C2142 C2126 1.368 . S
C2142 C2138 1.368 . S
C2142 C2141 1.523 . S
H2143 C2118 0.950 . S
H2144 C2120 0.950 . S
H2145 C2121 0.949 . S
H2146 C2123 0.950 . S
H2147 C2125 0.950 . S
C2148 C2149 1.349 . S
C2148 C2150 1.327 . S
C2148 H2173 0.950 . S
C2149 C2148 1.349 . S
C2149 C2165 1.349 . S
C2150 C2148 1.327 . S
C2150 C2169 1.429 . S
C2150 H2174 0.950 . S
C2151 C2168 1.574 . S
C2151 C2170 1.368 . S
C2151 H2175 0.949 . S
H2152 C2156 0.949 . S
C2153 C2154 1.349 . S
C2153 C2155 1.327 . S
C2153 H2176 0.950 . S
C2154 C2153 1.349 . S
C2154 C2166 1.349 . S
C2155 C2153 1.327 . S
C2155 C2171 1.429 . S
C2155 H2177 0.950 . S
C2156 H2152 0.949 . S
C2156 C2164 1.574 . S
C2156 C2172 1.368 . S
H2157 C2165 0.950 . S
H2158 C2163 0.950 . S
H2159 C2164 0.949 . S
H2160 C2166 0.950 . S
H2161 C2167 0.950 . S
H2162 C2168 0.949 . S
C2163 H2158 0.950 . S
C2163 C2165 1.327 . S
C2163 C2169 1.429 . S
C2164 C2156 1.574 . S
C2164 H2159 0.949 . S
C2164 C2170 1.368 . S
C2165 C2149 1.349 . S
C2165 H2157 0.950 . S
C2165 C2163 1.327 . S
C2166 C2154 1.349 . S
C2166 H2160 0.950 . S
C2166 C2167 1.327 . S
C2167 H2161 0.950 . S
C2167 C2166 1.327 . S
C2167 C2171 1.429 . S
C2168 C2151 1.574 . S
C2168 H2162 0.949 . S
C2168 C2172 1.368 . S
C2169 C2150 1.429 . S
C2169 C2163 1.429 . S
C2169 C2170 1.523 . S
C2170 C2151 1.368 . S
C2170 C2164 1.368 . S
C2170 C2169 1.523 . S
C2171 C2155 1.429 . S
C2171 C2167 1.429 . S
C2171 C2172 1.523 . S
C2172 C2156 1.368 . S
C2172 C2168 1.368 . S
C2172 C2171 1.523 . S
H2173 C2148 0.950 . S
H2174 C2150 0.950 . S
H2175 C2151 0.949 . S
H2176 C2153 0.950 . S
H2177 C2155 0.950 . S
C2178 C2179 1.349 . S
C2178 C2180 1.327 . S
C2178 H2203 0.950 . S
C2179 C2178 1.349 . S
C2179 C2195 1.349 . S
C2180 C2178 1.327 . S
C2180 C2199 1.429 . S
C2180 H2204 0.950 . S
C2181 C2198 1.574 . S
C2181 C2200 1.368 . S
C2181 H2205 0.949 . S
H2182 C2186 0.949 . S
C2183 C2184 1.349 . S
C2183 C2185 1.327 . S
C2183 H2206 0.950 . S
C2184 C2183 1.349 . S
C2184 C2196 1.349 . S
C2185 C2183 1.327 . S
C2185 C2201 1.429 . S
C2185 H2207 0.950 . S
C2186 H2182 0.949 . S
C2186 C2194 1.574 . S
C2186 C2202 1.368 . S
H2187 C2195 0.950 . S
H2188 C2193 0.950 . S
H2189 C2194 0.949 . S
H2190 C2196 0.950 . S
H2191 C2197 0.950 . S
H2192 C2198 0.949 . S
C2193 H2188 0.950 . S
C2193 C2195 1.327 . S
C2193 C2199 1.429 . S
C2194 C2186 1.574 . S
C2194 H2189 0.949 . S
C2194 C2200 1.368 . S
C2195 C2179 1.349 . S
C2195 H2187 0.950 . S
C2195 C2193 1.327 . S
C2196 C2184 1.349 . S
C2196 H2190 0.950 . S
C2196 C2197 1.327 . S
C2197 H2191 0.950 . S
C2197 C2196 1.327 . S
C2197 C2201 1.429 . S
C2198 C2181 1.574 . S
C2198 H2192 0.949 . S
C2198 C2202 1.368 . S
C2199 C2180 1.429 . S
C2199 C2193 1.429 . S
C2199 C2200 1.523 . S
C2200 C2181 1.368 . S
C2200 C2194 1.368 . S
C2200 C2199 1.523 . S
C2201 C2185 1.429 . S
C2201 C2197 1.429 . S
C2201 C2202 1.523 . S
C2202 C2186 1.368 . S
C2202 C2198 1.368 . S
C2202 C2201 1.523 . S
H2203 C2178 0.950 . S
H2204 C2180 0.950 . S
H2205 C2181 0.949 . S
H2206 C2183 0.950 . S
H2207 C2185 0.950 . S
C2208 C2209 1.349 . S
C2208 C2210 1.327 . S
C2208 H2233 0.950 . S
C2209 C2208 1.349 . S
C2209 C2225 1.349 . S
C2210 C2208 1.327 . S
C2210 C2229 1.429 . S
C2210 H2234 0.950 . S
C2211 C2228 1.574 . S
C2211 C2230 1.368 . S
C2211 H2235 0.949 . S
H2212 C2216 0.949 . S
C2213 C2214 1.349 . S
C2213 C2215 1.327 . S
C2213 H2236 0.950 . S
C2214 C2213 1.349 . S
C2214 C2226 1.349 . S
C2215 C2213 1.327 . S
C2215 C2231 1.429 . S
C2215 H2237 0.950 . S
C2216 H2212 0.949 . S
C2216 C2224 1.574 . S
C2216 C2232 1.368 . S
H2217 C2225 0.950 . S
H2218 C2223 0.950 . S
H2219 C2224 0.949 . S
H2220 C2226 0.950 . S
H2221 C2227 0.950 . S
H2222 C2228 0.949 . S
C2223 H2218 0.950 . S
C2223 C2225 1.327 . S
C2223 C2229 1.429 . S
C2224 C2216 1.574 . S
C2224 H2219 0.949 . S
C2224 C2230 1.368 . S
C2225 C2209 1.349 . S
C2225 H2217 0.950 . S
C2225 C2223 1.327 . S
C2226 C2214 1.349 . S
C2226 H2220 0.950 . S
C2226 C2227 1.327 . S
C2227 H2221 0.950 . S
C2227 C2226 1.327 . S
C2227 C2231 1.429 . S
C2228 C2211 1.574 . S
C2228 H2222 0.949 . S
C2228 C2232 1.368 . S
C2229 C2210 1.429 . S
C2229 C2223 1.429 . S
C2229 C2230 1.523 . S
C2230 C2211 1.368 . S
C2230 C2224 1.368 . S
C2230 C2229 1.523 . S
C2231 C2215 1.429 . S
C2231 C2227 1.429 . S
C2231 C2232 1.523 . S
C2232 C2216 1.368 . S
C2232 C2228 1.368 . S
C2232 C2231 1.523 . S
H2233 C2208 0.950 . S
H2234 C2210 0.950 . S
H2235 C2211 0.949 . S
H2236 C2213 0.950 . S
H2237 C2215 0.950 . S
C2238 C2239 1.349 . S
C2238 C2240 1.327 . S
C2238 H2263 0.950 . S
C2239 C2238 1.349 . S
C2239 C2255 1.349 . S
C2240 C2238 1.327 . S
C2240 C2259 1.429 . S
C2240 H2264 0.950 . S
C2241 C2258 1.574 . S
C2241 C2260 1.368 . S
C2241 H2265 0.949 . S
H2242 C2246 0.949 . S
C2243 C2244 1.349 . S
C2243 C2245 1.327 . S
C2243 H2266 0.950 . S
C2244 C2243 1.349 . S
C2244 C2256 1.349 . S
C2245 C2243 1.327 . S
C2245 C2261 1.429 . S
C2245 H2267 0.950 . S
C2246 H2242 0.949 . S
C2246 C2254 1.574 . S
C2246 C2262 1.368 . S
H2247 C2255 0.950 . S
H2248 C2253 0.950 . S
H2249 C2254 0.949 . S
H2250 C2256 0.950 . S
H2251 C2257 0.950 . S
H2252 C2258 0.949 . S
C2253 H2248 0.950 . S
C2253 C2255 1.327 . S
C2253 C2259 1.429 . S
C2254 C2246 1.574 . S
C2254 H2249 0.949 . S
C2254 C2260 1.368 . S
C2255 C2239 1.349 . S
C2255 H2247 0.950 . S
C2255 C2253 1.327 . S
C2256 C2244 1.349 . S
C2256 H2250 0.950 . S
C2256 C2257 1.327 . S
C2257 H2251 0.950 . S
C2257 C2256 1.327 . S
C2257 C2261 1.429 . S
C2258 C2241 1.574 . S
C2258 H2252 0.949 . S
C2258 C2262 1.368 . S
C2259 C2240 1.429 . S
C2259 C2253 1.429 . S
C2259 C2260 1.523 . S
C2260 C2241 1.368 . S
C2260 C2254 1.368 . S
C2260 C2259 1.523 . S
C2261 C2245 1.429 . S
C2261 C2257 1.429 . S
C2261 C2262 1.523 . S
C2262 C2246 1.368 . S
C2262 C2258 1.368 . S
C2262 C2261 1.523 . S
H2263 C2238 0.950 . S
H2264 C2240 0.950 . S
H2265 C2241 0.949 . S
H2266 C2243 0.950 . S
H2267 C2245 0.950 . S
C2268 C2269 1.349 . S
C2268 C2270 1.327 . S
C2268 H2293 0.950 . S
C2269 C2268 1.349 . S
C2269 C2285 1.349 . S
C2270 C2268 1.327 . S
C2270 C2289 1.429 . S
C2270 H2294 0.950 . S
C2271 C2288 1.574 . S
C2271 C2290 1.368 . S
C2271 H2295 0.949 . S
H2272 C2276 0.949 . S
C2273 C2274 1.349 . S
C2273 C2275 1.327 . S
C2273 H2296 0.950 . S
C2274 C2273 1.349 . S
C2274 C2286 1.349 . S
C2275 C2273 1.327 . S
C2275 C2291 1.429 . S
C2275 H2297 0.950 . S
C2276 H2272 0.949 . S
C2276 C2284 1.574 . S
C2276 C2292 1.368 . S
H2277 C2285 0.950 . S
H2278 C2283 0.950 . S
H2279 C2284 0.949 . S
H2280 C2286 0.950 . S
H2281 C2287 0.950 . S
H2282 C2288 0.949 . S
C2283 H2278 0.950 . S
C2283 C2285 1.327 . S
C2283 C2289 1.429 . S
C2284 C2276 1.574 . S
C2284 H2279 0.949 . S
C2284 C2290 1.368 . S
C2285 C2269 1.349 . S
C2285 H2277 0.950 . S
C2285 C2283 1.327 . S
C2286 C2274 1.349 . S
C2286 H2280 0.950 . S
C2286 C2287 1.327 . S
C2287 H2281 0.950 . S
C2287 C2286 1.327 . S
C2287 C2291 1.429 . S
C2288 C2271 1.574 . S
C2288 H2282 0.949 . S
C2288 C2292 1.368 . S
C2289 C2270 1.429 . S
C2289 C2283 1.429 . S
C2289 C2290 1.523 . S
C2290 C2271 1.368 . S
C2290 C2284 1.368 . S
C2290 C2289 1.523 . S
C2291 C2275 1.429 . S
C2291 C2287 1.429 . S
C2291 C2292 1.523 . S
C2292 C2276 1.368 . S
C2292 C2288 1.368 . S
C2292 C2291 1.523 . S
H2293 C2268 0.950 . S
H2294 C2270 0.950 . S
H2295 C2271 0.949 . S
H2296 C2273 0.950 . S
H2297 C2275 0.950 . S
C2298 C2299 1.349 . S
C2298 C2300 1.327 . S
C2298 H2323 0.950 . S
C2299 C2298 1.349 . S
C2299 C2315 1.349 . S
C2300 C2298 1.327 . S
C2300 C2319 1.429 . S
C2300 H2324 0.950 . S
C2301 C2318 1.574 . S
C2301 C2320 1.368 . S
C2301 H2325 0.949 . S
H2302 C2306 0.949 . S
C2303 C2304 1.349 . S
C2303 C2305 1.327 . S
C2303 H2326 0.950 . S
C2304 C2303 1.349 . S
C2304 C2316 1.349 . S
C2305 C2303 1.327 . S
C2305 C2321 1.429 . S
C2305 H2327 0.950 . S
C2306 H2302 0.949 . S
C2306 C2314 1.574 . S
C2306 C2322 1.368 . S
H2307 C2315 0.950 . S
H2308 C2313 0.950 . S
H2309 C2314 0.949 . S
H2310 C2316 0.950 . S
H2311 C2317 0.950 . S
H2312 C2318 0.949 . S
C2313 H2308 0.950 . S
C2313 C2315 1.327 . S
C2313 C2319 1.429 . S
C2314 C2306 1.574 . S
C2314 H2309 0.949 . S
C2314 C2320 1.368 . S
C2315 C2299 1.349 . S
C2315 H2307 0.950 . S
C2315 C2313 1.327 . S
C2316 C2304 1.349 . S
C2316 H2310 0.950 . S
C2316 C2317 1.327 . S
C2317 H2311 0.950 . S
C2317 C2316 1.327 . S
C2317 C2321 1.429 . S
C2318 C2301 1.574 . S
C2318 H2312 0.949 . S
C2318 C2322 1.368 . S
C2319 C2300 1.429 . S
C2319 C2313 1.429 . S
C2319 C2320 1.523 . S
C2320 C2301 1.368 . S
C2320 C2314 1.368 . S
C2320 C2319 1.523 . S
C2321 C2305 1.429 . S
C2321 C2317 1.429 . S
C2321 C2322 1.523 . S
C2322 C2306 1.368 . S
C2322 C2318 1.368 . S
C2322 C2321 1.523 . S
H2323 C2298 0.950 . S
H2324 C2300 0.950 . S
H2325 C2301 0.949 . S
H2326 C2303 0.950 . S
H2327 C2305 0.950 . S
C2328 C2329 1.349 . S
C2328 C2330 1.327 . S
C2328 H2353 0.950 . S
C2329 C2328 1.349 . S
C2329 C2345 1.349 . S
C2330 C2328 1.327 . S
C2330 C2349 1.429 . S
C2330 H2354 0.950 . S
C2331 C2348 1.574 . S
C2331 C2350 1.368 . S
C2331 H2355 0.949 . S
H2332 C2336 0.949 . S
C2333 C2334 1.349 . S
C2333 C2335 1.327 . S
C2333 H2356 0.950 . S
C2334 C2333 1.349 . S
C2334 C2346 1.349 . S
C2335 C2333 1.327 . S
C2335 C2351 1.429 . S
C2335 H2357 0.950 . S
C2336 H2332 0.949 . S
C2336 C2344 1.574 . S
C2336 C2352 1.368 . S
H2337 C2345 0.950 . S
H2338 C2343 0.950 . S
H2339 C2344 0.949 . S
H2340 C2346 0.950 . S
H2341 C2347 0.950 . S
H2342 C2348 0.949 . S
C2343 H2338 0.950 . S
C2343 C2345 1.327 . S
C2343 C2349 1.429 . S
C2344 C2336 1.574 . S
C2344 H2339 0.949 . S
C2344 C2350 1.368 . S
C2345 C2329 1.349 . S
C2345 H2337 0.950 . S
C2345 C2343 1.327 . S
C2346 C2334 1.349 . S
C2346 H2340 0.950 . S
C2346 C2347 1.327 . S
C2347 H2341 0.950 . S
C2347 C2346 1.327 . S
C2347 C2351 1.429 . S
C2348 C2331 1.574 . S
C2348 H2342 0.949 . S
C2348 C2352 1.368 . S
C2349 C2330 1.429 . S
C2349 C2343 1.429 . S
C2349 C2350 1.523 . S
C2350 C2331 1.368 . S
C2350 C2344 1.368 . S
C2350 C2349 1.523 . S
C2351 C2335 1.429 . S
C2351 C2347 1.429 . S
C2351 C2352 1.523 . S
C2352 C2336 1.368 . S
C2352 C2348 1.368 . S
C2352 C2351 1.523 . S
H2353 C2328 0.950 . S
H2354 C2330 0.950 . S
H2355 C2331 0.949 . S
H2356 C2333 0.950 . S
H2357 C2335 0.950 . S
C2358 C2359 1.349 . S
C2358 C2360 1.327 . S
C2358 H2383 0.950 . S
C2359 C2358 1.349 . S
C2359 C2375 1.349 . S
C2360 C2358 1.327 . S
C2360 C2379 1.429 . S
C2360 H2384 0.950 . S
C2361 C2378 1.574 . S
C2361 C2380 1.368 . S
C2361 H2385 0.949 . S
H2362 C2366 0.949 . S
C2363 C2364 1.349 . S
C2363 C2365 1.327 . S
C2363 H2386 0.950 . S
C2364 C2363 1.349 . S
C2364 C2376 1.349 . S
C2365 C2363 1.327 . S
C2365 C2381 1.429 . S
C2365 H2387 0.950 . S
C2366 H2362 0.949 . S
C2366 C2374 1.574 . S
C2366 C2382 1.368 . S
H2367 C2375 0.950 . S
H2368 C2373 0.950 . S
H2369 C2374 0.949 . S
H2370 C2376 0.950 . S
H2371 C2377 0.950 . S
H2372 C2378 0.949 . S
C2373 H2368 0.950 . S
C2373 C2375 1.327 . S
C2373 C2379 1.429 . S
C2374 C2366 1.574 . S
C2374 H2369 0.949 . S
C2374 C2380 1.368 . S
C2375 C2359 1.349 . S
C2375 H2367 0.950 . S
C2375 C2373 1.327 . S
C2376 C2364 1.349 . S
C2376 H2370 0.950 . S
C2376 C2377 1.327 . S
C2377 H2371 0.950 . S
C2377 C2376 1.327 . S
C2377 C2381 1.429 . S
C2378 C2361 1.574 . S
C2378 H2372 0.949 . S
C2378 C2382 1.368 . S
C2379 C2360 1.429 . S
C2379 C2373 1.429 . S
C2379 C2380 1.523 . S
C2380 C2361 1.368 . S
C2380 C2374 1.368 . S
C2380 C2379 1.523 . S
C2381 C2365 1.429 . S
C2381 C2377 1.429 . S
C2381 C2382 1.523 . S
C2382 C2366 1.368 . S
C2382 C2378 1.368 . S
C2382 C2381 1.523 . S
H2383 C2358 0.950 . S
H2384 C2360 0.950 . S
H2385 C2361 0.949 . S
H2386 C2363 0.950 . S
H2387 C2365 0.950 . S
C2388 C2389 1.349 . S
C2388 C2390 1.327 . S
C2388 H2413 0.950 . S
C2389 C2388 1.349 . S
C2389 C2405 1.349 . S
C2390 C2388 1.327 . S
C2390 C2409 1.429 . S
C2390 H2414 0.950 . S
C2391 C2408 1.574 . S
C2391 C2410 1.368 . S
C2391 H2415 0.949 . S
H2392 C2396 0.949 . S
C2393 C2394 1.349 . S
C2393 C2395 1.327 . S
C2393 H2416 0.950 . S
C2394 C2393 1.349 . S
C2394 C2406 1.349 . S
C2395 C2393 1.327 . S
C2395 C2411 1.429 . S
C2395 H2417 0.950 . S
C2396 H2392 0.949 . S
C2396 C2404 1.574 . S
C2396 C2412 1.368 . S
H2397 C2405 0.950 . S
H2398 C2403 0.950 . S
H2399 C2404 0.949 . S
H2400 C2406 0.950 . S
H2401 C2407 0.950 . S
H2402 C2408 0.949 . S
C2403 H2398 0.950 . S
C2403 C2405 1.327 . S
C2403 C2409 1.429 . S
C2404 C2396 1.574 . S
C2404 H2399 0.949 . S
C2404 C2410 1.368 . S
C2405 C2389 1.349 . S
C2405 H2397 0.950 . S
C2405 C2403 1.327 . S
C2406 C2394 1.349 . S
C2406 H2400 0.950 . S
C2406 C2407 1.327 . S
C2407 H2401 0.950 . S
C2407 C2406 1.327 . S
C2407 C2411 1.429 . S
C2408 C2391 1.574 . S
C2408 H2402 0.949 . S
C2408 C2412 1.368 . S
C2409 C2390 1.429 . S
C2409 C2403 1.429 . S
C2409 C2410 1.523 . S
C2410 C2391 1.368 . S
C2410 C2404 1.368 . S
C2410 C2409 1.523 . S
C2411 C2395 1.429 . S
C2411 C2407 1.429 . S
C2411 C2412 1.523 . S
C2412 C2396 1.368 . S
C2412 C2408 1.368 . S
C2412 C2411 1.523 . S
H2413 C2388 0.950 . S
H2414 C2390 0.950 . S
H2415 C2391 0.949 . S
H2416 C2393 0.950 . S
H2417 C2395 0.950 . S
C2418 C2419 1.349 . S
C2418 C2420 1.327 . S
C2418 H2443 0.950 . S
C2419 C2418 1.349 . S
C2419 C2435 1.349 . S
C2420 C2418 1.327 . S
C2420 C2439 1.429 . S
C2420 H2444 0.950 . S
C2421 C2438 1.574 . S
C2421 C2440 1.368 . S
C2421 H2445 0.949 . S
H2422 C2426 0.949 . S
C2423 C2424 1.349 . S
C2423 C2425 1.327 . S
C2423 H2446 0.950 . S
C2424 C2423 1.349 . S
C2424 C2436 1.349 . S
C2425 C2423 1.327 . S
C2425 C2441 1.429 . S
C2425 H2447 0.950 . S
C2426 H2422 0.949 . S
C2426 C2434 1.574 . S
C2426 C2442 1.368 . S
H2427 C2435 0.950 . S
H2428 C2433 0.950 . S
H2429 C2434 0.949 . S
H2430 C2436 0.950 . S
H2431 C2437 0.950 . S
H2432 C2438 0.949 . S
C2433 H2428 0.950 . S
C2433 C2435 1.327 . S
C2433 C2439 1.429 . S
C2434 C2426 1.574 . S
C2434 H2429 0.949 . S
C2434 C2440 1.368 . S
C2435 C2419 1.349 . S
C2435 H2427 0.950 . S
C2435 C2433 1.327 . S
C2436 C2424 1.349 . S
C2436 H2430 0.950 . S
C2436 C2437 1.327 . S
C2437 H2431 0.950 . S
C2437 C2436 1.327 . S
C2437 C2441 1.429 . S
C2438 C2421 1.574 . S
C2438 H2432 0.949 . S
C2438 C2442 1.368 . S
C2439 C2420 1.429 . S
C2439 C2433 1.429 . S
C2439 C2440 1.523 . S
C2440 C2421 1.368 . S
C2440 C2434 1.368 . S
C2440 C2439 1.523 . S
C2441 C2425 1.429 . S
C2441 C2437 1.429 . S
C2441 C2442 1.523 . S
C2442 C2426 1.368 . S
C2442 C2438 1.368 . S
C2442 C2441 1.523 . S
H2443 C2418 0.950 . S
H2444 C2420 0.950 . S
H2445 C2421 0.949 . S
H2446 C2423 0.950 . S
H2447 C2425 0.950 . S
C2448 C2449 1.349 . S
C2448 C2450 1.327 . S
C2448 H2473 0.950 . S
C2449 C2448 1.349 . S
C2449 C2465 1.349 . S
C2450 C2448 1.327 . S
C2450 C2469 1.429 . S
C2450 H2474 0.950 . S
C2451 C2468 1.574 . S
C2451 C2470 1.368 . S
C2451 H2475 0.949 . S
H2452 C2456 0.949 . S
C2453 C2454 1.349 . S
C2453 C2455 1.327 . S
C2453 H2476 0.950 . S
C2454 C2453 1.349 . S
C2454 C2466 1.349 . S
C2455 C2453 1.327 . S
C2455 C2471 1.429 . S
C2455 H2477 0.950 . S
C2456 H2452 0.949 . S
C2456 C2464 1.574 . S
C2456 C2472 1.368 . S
H2457 C2465 0.950 . S
H2458 C2463 0.950 . S
H2459 C2464 0.949 . S
H2460 C2466 0.950 . S
H2461 C2467 0.950 . S
H2462 C2468 0.949 . S
C2463 H2458 0.950 . S
C2463 C2465 1.327 . S
C2463 C2469 1.429 . S
C2464 C2456 1.574 . S
C2464 H2459 0.949 . S
C2464 C2470 1.368 . S
C2465 C2449 1.349 . S
C2465 H2457 0.950 . S
C2465 C2463 1.327 . S
C2466 C2454 1.349 . S
C2466 H2460 0.950 . S
C2466 C2467 1.327 . S
C2467 H2461 0.950 . S
C2467 C2466 1.327 . S
C2467 C2471 1.429 . S
C2468 C2451 1.574 . S
C2468 H2462 0.949 . S
C2468 C2472 1.368 . S
C2469 C2450 1.429 . S
C2469 C2463 1.429 . S
C2469 C2470 1.523 . S
C2470 C2451 1.368 . S
C2470 C2464 1.368 . S
C2470 C2469 1.523 . S
C2471 C2455 1.429 . S
C2471 C2467 1.429 . S
C2471 C2472 1.523 . S
C2472 C2456 1.368 . S
C2472 C2468 1.368 . S
C2472 C2471 1.523 . S
H2473 C2448 0.950 . S
H2474 C2450 0.950 . S
H2475 C2451 0.949 . S
H2476 C2453 0.950 . S
H2477 C2455 0.950 . S
C2478 C2479 1.349 . S
C2478 C2480 1.327 . S
C2478 H2503 0.950 . S
C2479 C2478 1.349 . S
C2479 C2495 1.349 . S
C2480 C2478 1.327 . S
C2480 C2499 1.429 . S
C2480 H2504 0.950 . S
C2481 C2498 1.574 . S
C2481 C2500 1.368 . S
C2481 H2505 0.949 . S
H2482 C2486 0.949 . S
C2483 C2484 1.349 . S
C2483 C2485 1.327 . S
C2483 H2506 0.950 . S
C2484 C2483 1.349 . S
C2484 C2496 1.349 . S
C2485 C2483 1.327 . S
C2485 C2501 1.429 . S
C2485 H2507 0.950 . S
C2486 H2482 0.949 . S
C2486 C2494 1.574 . S
C2486 C2502 1.368 . S
H2487 C2495 0.950 . S
H2488 C2493 0.950 . S
H2489 C2494 0.949 . S
H2490 C2496 0.950 . S
H2491 C2497 0.950 . S
H2492 C2498 0.949 . S
C2493 H2488 0.950 . S
C2493 C2495 1.327 . S
C2493 C2499 1.429 . S
C2494 C2486 1.574 . S
C2494 H2489 0.949 . S
C2494 C2500 1.368 . S
C2495 C2479 1.349 . S
C2495 H2487 0.950 . S
C2495 C2493 1.327 . S
C2496 C2484 1.349 . S
C2496 H2490 0.950 . S
C2496 C2497 1.327 . S
C2497 H2491 0.950 . S
C2497 C2496 1.327 . S
C2497 C2501 1.429 . S
C2498 C2481 1.574 . S
C2498 H2492 0.949 . S
C2498 C2502 1.368 . S
C2499 C2480 1.429 . S
C2499 C2493 1.429 . S
C2499 C2500 1.523 . S
C2500 C2481 1.368 . S
C2500 C2494 1.368 . S
C2500 C2499 1.523 . S
C2501 C2485 1.429 . S
C2501 C2497 1.429 . S
C2501 C2502 1.523 . S
C2502 C2486 1.368 . S
C2502 C2498 1.368 . S
C2502 C2501 1.523 . S
H2503 C2478 0.950 . S
H2504 C2480 0.950 . S
H2505 C2481 0.949 . S
H2506 C2483 0.950 . S
H2507 C2485 0.950 . S
C2508 C2509 1.349 . S
C2508 C2510 1.327 . S
C2508 H2533 0.950 . S
C2509 C2508 1.349 . S
C2509 C2525 1.349 . S
C2510 C2508 1.327 . S
C2510 C2529 1.429 . S
C2510 H2534 0.950 . S
C2511 C2528 1.574 . S
C2511 C2530 1.368 . S
C2511 H2535 0.949 . S
H2512 C2516 0.949 . S
C2513 C2514 1.349 . S
C2513 C2515 1.327 . S
C2513 H2536 0.950 . S
C2514 C2513 1.349 . S
C2514 C2526 1.349 . S
C2515 C2513 1.327 . S
C2515 C2531 1.429 . S
C2515 H2537 0.950 . S
C2516 H2512 0.949 . S
C2516 C2524 1.574 . S
C2516 C2532 1.368 . S
H2517 C2525 0.950 . S
H2518 C2523 0.950 . S
H2519 C2524 0.949 . S
H2520 C2526 0.950 . S
H2521 C2527 0.950 . S
H2522 C2528 0.949 . S
C2523 H2518 0.950 . S
C2523 C2525 1.327 . S
C2523 C2529 1.429 . S
C2524 C2516 1.574 . S
C2524 H2519 0.949 . S
C2524 C2530 1.368 . S
C2525 C2509 1.349 . S
C2525 H2517 0.950 . S
C2525 C2523 1.327 . S
C2526 C2514 1.349 . S
C2526 H2520 0.950 . S
C2526 C2527 1.327 . S
C2527 H2521 0.950 . S
C2527 C2526 1.327 . S
C2527 C2531 1.429 . S
C2528 C2511 1.574 . S
C2528 H2522 0.949 . S
C2528 C2532 1.368 . S
C2529 C2510 1.429 . S
C2529 C2523 1.429 . S
C2529 C2530 1.523 . S
C2530 C2511 1.368 . S
C2530 C2524 1.368 . S
C2530 C2529 1.523 . S
C2531 C2515 1.429 . S
C2531 C2527 1.429 . S
C2531 C2532 1.523 . S
C2532 C2516 1.368 . S
C2532 C2528 1.368 . S
C2532 C2531 1.523 . S
H2533 C2508 0.950 . S
H2534 C2510 0.950 . S
H2535 C2511 0.949 . S
H2536 C2513 0.950 . S
H2537 C2515 0.950 . S
C2538 C2539 1.349 . S
C2538 C2540 1.327 . S
C2538 H2563 0.950 . S
C2539 C2538 1.349 . S
C2539 C2555 1.349 . S
C2540 C2538 1.327 . S
C2540 C2559 1.429 . S
C2540 H2564 0.950 . S
C2541 C2558 1.574 . S
C2541 C2560 1.368 . S
C2541 H2565 0.949 . S
H2542 C2546 0.949 . S
C2543 C2544 1.349 . S
C2543 C2545 1.327 . S
C2543 H2566 0.950 . S
C2544 C2543 1.349 . S
C2544 C2556 1.349 . S
C2545 C2543 1.327 . S
C2545 C2561 1.429 . S
C2545 H2567 0.950 . S
C2546 H2542 0.949 . S
C2546 C2554 1.574 . S
C2546 C2562 1.368 . S
H2547 C2555 0.950 . S
H2548 C2553 0.950 . S
H2549 C2554 0.949 . S
H2550 C2556 0.950 . S
H2551 C2557 0.950 . S
H2552 C2558 0.949 . S
C2553 H2548 0.950 . S
C2553 C2555 1.327 . S
C2553 C2559 1.429 . S
C2554 C2546 1.574 . S
C2554 H2549 0.949 . S
C2554 C2560 1.368 . S
C2555 C2539 1.349 . S
C2555 H2547 0.950 . S
C2555 C2553 1.327 . S
C2556 C2544 1.349 . S
C2556 H2550 0.950 . S
C2556 C2557 1.327 . S
C2557 H2551 0.950 . S
C2557 C2556 1.327 . S
C2557 C2561 1.429 . S
C2558 C2541 1.574 . S
C2558 H2552 0.949 . S
C2558 C2562 1.368 . S
C2559 C2540 1.429 . S
C2559 C2553 1.429 . S
C2559 C2560 1.523 . S
C2560 C2541 1.368 . S
C2560 C2554 1.368 . S
C2560 C2559 1.523 . S
C2561 C2545 1.429 . S
C2561 C2557 1.429 . S
C2561 C2562 1.523 . S
C2562 C2546 1.368 . S
C2562 C2558 1.368 . S
C2562 C2561 1.523 . S
H2563 C2538 0.950 . S
H2564 C2540 0.950 . S
H2565 C2541 0.949 . S
H2566 C2543 0.950 . S
H2567 C2545 0.950 . S
C2568 C2569 1.349 . S
C2568 C2570 1.327 . S
C2568 H2593 0.950 . S
C2569 C2568 1.349 . S
C2569 C2585 1.349 . S
C2570 C2568 1.327 . S
C2570 C2589 1.429 . S
C2570 H2594 0.950 . S
C2571 C2588 1.574 . S
C2571 C2590 1.368 . S
C2571 H2595 0.949 . S
H2572 C2576 0.949 . S
C2573 C2574 1.349 . S
C2573 C2575 1.327 . S
C2573 H2596 0.950 . S
C2574 C2573 1.349 . S
C2574 C2586 1.349 . S
C2575 C2573 1.327 . S
C2575 C2591 1.429 . S
C2575 H2597 0.950 . S
C2576 H2572 0.949 . S
C2576 C2584 1.574 . S
C2576 C2592 1.368 . S
H2577 C2585 0.950 . S
H2578 C2583 0.950 . S
H2579 C2584 0.949 . S
H2580 C2586 0.950 . S
H2581 C2587 0.950 . S
H2582 C2588 0.949 . S
C2583 H2578 0.950 . S
C2583 C2585 1.327 . S
C2583 C2589 1.429 . S
C2584 C2576 1.574 . S
C2584 H2579 0.949 . S
C2584 C2590 1.368 . S
C2585 C2569 1.349 . S
C2585 H2577 0.950 . S
C2585 C2583 1.327 . S
C2586 C2574 1.349 . S
C2586 H2580 0.950 . S
C2586 C2587 1.327 . S
C2587 H2581 0.950 . S
C2587 C2586 1.327 . S
C2587 C2591 1.429 . S
C2588 C2571 1.574 . S
C2588 H2582 0.949 . S
C2588 C2592 1.368 . S
C2589 C2570 1.429 . S
C2589 C2583 1.429 . S
C2589 C2590 1.523 . S
C2590 C2571 1.368 . S
C2590 C2584 1.368 . S
C2590 C2589 1.523 . S
C2591 C2575 1.429 . S
C2591 C2587 1.429 . S
C2591 C2592 1.523 . S
C2592 C2576 1.368 . S
C2592 C2588 1.368 . S
C2592 C2591 1.523 . S
H2593 C2568 0.950 . S
H2594 C2570 0.950 . S
H2595 C2571 0.949 . S
H2596 C2573 0.950 . S
H2597 C2575 0.950 . S
C2598 C2599 1.349 . S
C2598 C2600 1.327 . S
C2598 H2623 0.950 . S
C2599 C2598 1.349 . S
C2599 C2615 1.349 . S
C2600 C2598 1.327 . S
C2600 C2619 1.429 . S
C2600 H2624 0.950 . S
C2601 C2618 1.574 . S
C2601 C2620 1.368 . S
C2601 H2625 0.949 . S
H2602 C2606 0.949 . S
C2603 C2604 1.349 . S
C2603 C2605 1.327 . S
C2603 H2626 0.950 . S
C2604 C2603 1.349 . S
C2604 C2616 1.349 . S
C2605 C2603 1.327 . S
C2605 C2621 1.429 . S
C2605 H2627 0.950 . S
C2606 H2602 0.949 . S
C2606 C2614 1.574 . S
C2606 C2622 1.368 . S
H2607 C2615 0.950 . S
H2608 C2613 0.950 . S
H2609 C2614 0.949 . S
H2610 C2616 0.950 . S
H2611 C2617 0.950 . S
H2612 C2618 0.949 . S
C2613 H2608 0.950 . S
C2613 C2615 1.327 . S
C2613 C2619 1.429 . S
C2614 C2606 1.574 . S
C2614 H2609 0.949 . S
C2614 C2620 1.368 . S
C2615 C2599 1.349 . S
C2615 H2607 0.950 . S
C2615 C2613 1.327 . S
C2616 C2604 1.349 . S
C2616 H2610 0.950 . S
C2616 C2617 1.327 . S
C2617 H2611 0.950 . S
C2617 C2616 1.327 . S
C2617 C2621 1.429 . S
C2618 C2601 1.574 . S
C2618 H2612 0.949 . S
C2618 C2622 1.368 . S
C2619 C2600 1.429 . S
C2619 C2613 1.429 . S
C2619 C2620 1.523 . S
C2620 C2601 1.368 . S
C2620 C2614 1.368 . S
C2620 C2619 1.523 . S
C2621 C2605 1.429 . S
C2621 C2617 1.429 . S
C2621 C2622 1.523 . S
C2622 C2606 1.368 . S
C2622 C2618 1.368 . S
C2622 C2621 1.523 . S
H2623 C2598 0.950 . S
H2624 C2600 0.950 . S
H2625 C2601 0.949 . S
H2626 C2603 0.950 . S
H2627 C2605 0.950 . S
C2628 C2629 1.349 . S
C2628 C2630 1.327 . S
C2628 H2653 0.950 . S
C2629 C2628 1.349 . S
C2629 C2645 1.349 . S
C2630 C2628 1.327 . S
C2630 C2649 1.429 . S
C2630 H2654 0.950 . S
C2631 C2648 1.574 . S
C2631 C2650 1.368 . S
C2631 H2655 0.949 . S
H2632 C2636 0.949 . S
C2633 C2634 1.349 . S
C2633 C2635 1.327 . S
C2633 H2656 0.950 . S
C2634 C2633 1.349 . S
C2634 C2646 1.349 . S
C2635 C2633 1.327 . S
C2635 C2651 1.429 . S
C2635 H2657 0.950 . S
C2636 H2632 0.949 . S
C2636 C2644 1.574 . S
C2636 C2652 1.368 . S
H2637 C2645 0.950 . S
H2638 C2643 0.950 . S
H2639 C2644 0.949 . S
H2640 C2646 0.950 . S
H2641 C2647 0.950 . S
H2642 C2648 0.949 . S
C2643 H2638 0.950 . S
C2643 C2645 1.327 . S
C2643 C2649 1.429 . S
C2644 C2636 1.574 . S
C2644 H2639 0.949 . S
C2644 C2650 1.368 . S
C2645 C2629 1.349 . S
C2645 H2637 0.950 . S
C2645 C2643 1.327 . S
C2646 C2634 1.349 . S
C2646 H2640 0.950 . S
C2646 C2647 1.327 . S
C2647 H2641 0.950 . S
C2647 C2646 1.327 . S
C2647 C2651 1.429 . S
C2648 C2631 1.574 . S
C2648 H2642 0.949 . S
C2648 C2652 1.368 . S
C2649 C2630 1.429 . S
C2649 C2643 1.429 . S
C2649 C2650 1.523 . S
C2650 C2631 1.368 . S
C2650 C2644 1.368 . S
C2650 C2649 1.523 . S
C2651 C2635 1.429 . S
C2651 C2647 1.429 . S
C2651 C2652 1.523 . S
C2652 C2636 1.368 . S
C2652 C2648 1.368 . S
C2652 C2651 1.523 . S
H2653 C2628 0.950 . S
H2654 C2630 0.950 . S
H2655 C2631 0.949 . S
H2656 C2633 0.950 . S
H2657 C2635 0.950 . S
C2658 C2659 1.349 . S
C2658 C2660 1.327 . S
C2658 H2683 0.950 . S
C2659 C2658 1.349 . S
C2659 C2675 1.349 . S
C2660 C2658 1.327 . S
C2660 C2679 1.429 . S
C2660 H2684 0.950 . S
C2661 C2678 1.574 . S
C2661 C2680 1.368 . S
C2661 H2685 0.949 . S
H2662 C2666 0.949 . S
C2663 C2664 1.349 . S
C2663 C2665 1.327 . S
C2663 H2686 0.950 . S
C2664 C2663 1.349 . S
C2664 C2676 1.349 . S
C2665 C2663 1.327 . S
C2665 C2681 1.429 . S
C2665 H2687 0.950 . S
C2666 H2662 0.949 . S
C2666 C2674 1.574 . S
C2666 C2682 1.368 . S
H2667 C2675 0.950 . S
H2668 C2673 0.950 . S
H2669 C2674 0.949 . S
H2670 C2676 0.950 . S
H2671 C2677 0.950 . S
H2672 C2678 0.949 . S
C2673 H2668 0.950 . S
C2673 C2675 1.327 . S
C2673 C2679 1.429 . S
C2674 C2666 1.574 . S
C2674 H2669 0.949 . S
C2674 C2680 1.368 . S
C2675 C2659 1.349 . S
C2675 H2667 0.950 . S
C2675 C2673 1.327 . S
C2676 C2664 1.349 . S
C2676 H2670 0.950 . S
C2676 C2677 1.327 . S
C2677 H2671 0.950 . S
C2677 C2676 1.327 . S
C2677 C2681 1.429 . S
C2678 C2661 1.574 . S
C2678 H2672 0.949 . S
C2678 C2682 1.368 . S
C2679 C2660 1.429 . S
C2679 C2673 1.429 . S
C2679 C2680 1.523 . S
C2680 C2661 1.368 . S
C2680 C2674 1.368 . S
C2680 C2679 1.523 . S
C2681 C2665 1.429 . S
C2681 C2677 1.429 . S
C2681 C2682 1.523 . S
C2682 C2666 1.368 . S
C2682 C2678 1.368 . S
C2682 C2681 1.523 . S
H2683 C2658 0.950 . S
H2684 C2660 0.950 . S
H2685 C2661 0.949 . S
H2686 C2663 0.950 . S
H2687 C2665 0.950 . S
C529 C5 1.127 . S
C534 C49 1.127 . S
C559 C16 1.127 . S
C564 C60 1.127 . S
C589 C71 1.127 . S
C594 C27 1.127 . S
C619 C82 1.127 . S
C624 C38 1.127 . S
C649 C93 1.127 . S
C654 C159 1.127 . S
C679 C104 1.127 . S
C684 C170 1.127 . S
C709 C137 1.127 . S
C714 C115 1.127 . S
C739 C126 1.127 . S
C744 C148 1.127 . S
C769 C181 1.127 . S
C774 C500 1.127 . S
C799 C192 1.127 . S
C804 C478 1.127 . S
C829 C203 1.127 . S
C834 C225 1.127 . S
C859 C456 1.127 . S
C864 C214 1.127 . S
C889 C445 1.127 . S
C894 C236 1.127 . S
C919 C247 1.127 . S
C924 C522 1.127 . S
C949 C511 1.127 . S
C954 C258 1.127 . S
C979 C269 1.127 . S
C984 C313 1.127 . S
C1009 C324 1.127 . S
C1014 C280 1.127 . S
C1039 C291 1.127 . S
C1044 C335 1.127 . S
C1069 C302 1.127 . S
C1074 C346 1.127 . S
C1099 C357 1.127 . S
C1104 C423 1.127 . S
C1129 C434 1.127 . S
C1134 C368 1.127 . S
C1159 C401 1.127 . S
C1164 C379 1.127 . S
C1189 C390 1.127 . S
C1194 C412 1.127 . S
C1219 C489 1.127 . S
C1224 C467 1.127 . S
C1249 C172 1.504 . S
C1254 C7 1.504 . S
C1279 C18 1.504 . S
C1284 C139 1.504 . S
C1309 C150 1.504 . S
C1314 C29 1.504 . S
C1339 C161 1.504 . S
C1344 C40 1.504 . S
C1369 C51 1.504 . S
C1374 C106 1.504 . S
C1399 C117 1.504 . S
C1404 C62 1.504 . S
C1429 C128 1.504 . S
C1434 C73 1.504 . S
C1459 C95 1.504 . S
C1464 C84 1.504 . S
C1489 C227 1.504 . S
C1494 C183 1.504 . S
C1519 C194 1.504 . S
C1524 C260 1.504 . S
C1549 C205 1.504 . S
C1554 C502 1.504 . S
C1579 C249 1.504 . S
C1584 C216 1.504 . S
C1609 C238 1.504 . S
C1614 C469 1.504 . S
C1639 C436 1.504 . S
C1644 C271 1.504 . S
C1669 C403 1.504 . S
C1674 C282 1.504 . S
C1699 C414 1.504 . S
C1704 C293 1.504 . S
C1729 C425 1.504 . S
C1734 C304 1.504 . S
C1759 C315 1.504 . S
C1764 C370 1.504 . S
C1789 C326 1.504 . S
C1794 C381 1.504 . S
C1819 C337 1.504 . S
C1824 C392 1.504 . S
C1849 C359 1.504 . S
C1854 C348 1.504 . S
C1879 C491 1.504 . S
C1884 C447 1.504 . S
C1909 C524 1.504 . S
C1914 C458 1.504 . S
C1939 C513 1.504 . S
C1944 C480 1.504 . S
C1969 C8 1.481 . S
C1974 C228 1.481 . S
C1999 C459 1.481 . S
C2004 C19 1.481 . S
C2029 C470 1.481 . S
C2034 C30 1.481 . S
C2059 C481 1.481 . S
C2064 C41 1.481 . S
C2089 C52 1.481 . S
C2094 C525 1.481 . S
C2119 C63 1.481 . S
C2124 C239 1.481 . S
C2149 C74 1.481 . S
C2154 C514 1.481 . S
C2179 C184 1.481 . S
C2184 C85 1.481 . S
C2209 C96 1.481 . S
C2214 C173 1.481 . S
C2239 C107 1.481 . S
C2244 C140 1.481 . S
C2269 C118 1.481 . S
C2274 C151 1.481 . S
C2299 C129 1.481 . S
C2304 C162 1.481 . S
C2329 C283 1.481 . S
C2334 C195 1.481 . S
C2359 C206 1.481 . S
C2364 C294 1.481 . S
C2389 C217 1.481 . S
C2394 C305 1.481 . S
C2419 C338 1.481 . S
C2424 C250 1.481 . S
C2449 C261 1.481 . S
C2454 C316 1.481 . S
C2479 C272 1.481 . S
C2484 C492 1.481 . S
C2509 C503 1.481 . S
C2514 C327 1.481 . S
C2539 C349 1.481 . S
C2544 C448 1.481 . S
C2569 C360 1.481 . S
C2574 C437 1.481 . S
C2599 C371 1.481 . S
C2604 C404 1.481 . S
C2629 C382 1.481 . S
C2634 C415 1.481 . S
C2659 C426 1.481 . S
C2664 C393 1.481 . S
