# Generated by pormake.
# Topology wiu, (6)-cn, num edge types: 1
# Building blocks:
#     Node 0, Type 0, BuildingBlock: INOVEN_clean_sbu_0, # of connection points: 6
#     Node 1, Type 0, BuildingBlock: INOVEN_clean_sbu_0, # of connection points: 6
#     Node 2, Type 0, BuildingBlock: INOVEN_clean_sbu_0, # of connection points: 6
#     Node 3, Type 0, BuildingBlock: INOVEN_clean_sbu_0, # of connection points: 6
#     Node 4, Type 0, BuildingBlock: INOVEN_clean_sbu_0, # of connection points: 6
#     Node 5, Type 0, BuildingBlock: INOVEN_clean_sbu_0, # of connection points: 6
#     Node 6, Type 0, BuildingBlock: INOVEN_clean_sbu_0, # of connection points: 6
#     Node 7, Type 0, BuildingBlock: INOVEN_clean_sbu_0, # of connection points: 6
#     Node 8, Type 0, BuildingBlock: INOVEN_clean_sbu_0, # of connection points: 6
#     Node 9, Type 0, BuildingBlock: INOVEN_clean_sbu_0, # of connection points: 6
#     Node 10, Type 0, BuildingBlock: INOVEN_clean_sbu_0, # of connection points: 6
#     Node 11, Type 0, BuildingBlock: INOVEN_clean_sbu_0, # of connection points: 6
#     Node 12, Type 0, BuildingBlock: INOVEN_clean_sbu_0, # of connection points: 6
#     Node 13, Type 0, BuildingBlock: INOVEN_clean_sbu_0, # of connection points: 6
#     Node 14, Type 0, BuildingBlock: INOVEN_clean_sbu_0, # of connection points: 6
#     Node 15, Type 0, BuildingBlock: INOVEN_clean_sbu_0, # of connection points: 6
#     Edge 16, Type (0, 0), BuildingBlock: ZUJKAS_clean_linker_0, # of connection points: 2
#     Edge 17, Type (0, 0), BuildingBlock: ZUJKAS_clean_linker_0, # of connection points: 2
#     Edge 18, Type (0, 0), BuildingBlock: ZUJKAS_clean_linker_0, # of connection points: 2
#     Edge 19, Type (0, 0), BuildingBlock: ZUJKAS_clean_linker_0, # of connection points: 2
#     Edge 20, Type (0, 0), BuildingBlock: ZUJKAS_clean_linker_0, # of connection points: 2
#     Edge 21, Type (0, 0), BuildingBlock: ZUJKAS_clean_linker_0, # of connection points: 2
#     Edge 22, Type (0, 0), BuildingBlock: ZUJKAS_clean_linker_0, # of connection points: 2
#     Edge 23, Type (0, 0), BuildingBlock: ZUJKAS_clean_linker_0, # of connection points: 2
#     Edge 24, Type (0, 0), BuildingBlock: ZUJKAS_clean_linker_0, # of connection points: 2
#     Edge 25, Type (0, 0), BuildingBlock: ZUJKAS_clean_linker_0, # of connection points: 2
#     Edge 26, Type (0, 0), BuildingBlock: ZUJKAS_clean_linker_0, # of connection points: 2
#     Edge 27, Type (0, 0), BuildingBlock: ZUJKAS_clean_linker_0, # of connection points: 2
#     Edge 28, Type (0, 0), BuildingBlock: ZUJKAS_clean_linker_0, # of connection points: 2
#     Edge 29, Type (0, 0), BuildingBlock: ZUJKAS_clean_linker_0, # of connection points: 2
#     Edge 30, Type (0, 0), BuildingBlock: ZUJKAS_clean_linker_0, # of connection points: 2
#     Edge 31, Type (0, 0), BuildingBlock: ZUJKAS_clean_linker_0, # of connection points: 2
#     Edge 32, Type (0, 0), BuildingBlock: ZUJKAS_clean_linker_0, # of connection points: 2
#     Edge 33, Type (0, 0), BuildingBlock: ZUJKAS_clean_linker_0, # of connection points: 2
#     Edge 34, Type (0, 0), BuildingBlock: ZUJKAS_clean_linker_0, # of connection points: 2
#     Edge 35, Type (0, 0), BuildingBlock: ZUJKAS_clean_linker_0, # of connection points: 2
#     Edge 36, Type (0, 0), BuildingBlock: ZUJKAS_clean_linker_0, # of connection points: 2
#     Edge 37, Type (0, 0), BuildingBlock: ZUJKAS_clean_linker_0, # of connection points: 2
#     Edge 38, Type (0, 0), BuildingBlock: ZUJKAS_clean_linker_0, # of connection points: 2
#     Edge 39, Type (0, 0), BuildingBlock: ZUJKAS_clean_linker_0, # of connection points: 2
#     Edge 40, Type (0, 0), BuildingBlock: ZUJKAS_clean_linker_0, # of connection points: 2
#     Edge 41, Type (0, 0), BuildingBlock: ZUJKAS_clean_linker_0, # of connection points: 2
#     Edge 42, Type (0, 0), BuildingBlock: ZUJKAS_clean_linker_0, # of connection points: 2
#     Edge 43, Type (0, 0), BuildingBlock: ZUJKAS_clean_linker_0, # of connection points: 2
#     Edge 44, Type (0, 0), BuildingBlock: ZUJKAS_clean_linker_0, # of connection points: 2
#     Edge 45, Type (0, 0), BuildingBlock: ZUJKAS_clean_linker_0, # of connection points: 2
#     Edge 46, Type (0, 0), BuildingBlock: ZUJKAS_clean_linker_0, # of connection points: 2
#     Edge 47, Type (0, 0), BuildingBlock: ZUJKAS_clean_linker_0, # of connection points: 2
#     Edge 48, Type (0, 0), BuildingBlock: ZUJKAS_clean_linker_0, # of connection points: 2
#     Edge 49, Type (0, 0), BuildingBlock: ZUJKAS_clean_linker_0, # of connection points: 2
#     Edge 50, Type (0, 0), BuildingBlock: ZUJKAS_clean_linker_0, # of connection points: 2
#     Edge 51, Type (0, 0), BuildingBlock: ZUJKAS_clean_linker_0, # of connection points: 2
#     Edge 52, Type (0, 0), BuildingBlock: ZUJKAS_clean_linker_0, # of connection points: 2
#     Edge 53, Type (0, 0), BuildingBlock: ZUJKAS_clean_linker_0, # of connection points: 2
#     Edge 54, Type (0, 0), BuildingBlock: ZUJKAS_clean_linker_0, # of connection points: 2
#     Edge 55, Type (0, 0), BuildingBlock: ZUJKAS_clean_linker_0, # of connection points: 2
#     Edge 56, Type (0, 0), BuildingBlock: ZUJKAS_clean_linker_0, # of connection points: 2
#     Edge 57, Type (0, 0), BuildingBlock: ZUJKAS_clean_linker_0, # of connection points: 2
#     Edge 58, Type (0, 0), BuildingBlock: ZUJKAS_clean_linker_0, # of connection points: 2
#     Edge 59, Type (0, 0), BuildingBlock: ZUJKAS_clean_linker_0, # of connection points: 2
#     Edge 60, Type (0, 0), BuildingBlock: ZUJKAS_clean_linker_0, # of connection points: 2
#     Edge 61, Type (0, 0), BuildingBlock: ZUJKAS_clean_linker_0, # of connection points: 2
#     Edge 62, Type (0, 0), BuildingBlock: ZUJKAS_clean_linker_0, # of connection points: 2
#     Edge 63, Type (0, 0), BuildingBlock: ZUJKAS_clean_linker_0, # of connection points: 2
# Relax obj value: 0.435
# Max RMSD: 0.309
# Mean RMSD: 0.309
data_MOF--net-wiu--node1-INOVEN_clean_sbu_0--edge1-ZUJKAS_clean_linker_0
_symmetry_space_group_name_H-M    P1
_symmetry_Int_Tables_number       1
_symmetry_cell_setting            triclinic
loop_
_symmetry_equiv_pos_as_xyz
'x, y, z'
_cell_length_a     47.005006
_cell_length_b     47.039381
_cell_length_c     73.51296
_cell_angle_alpha  89.843131
_cell_angle_beta   90.016136
_cell_angle_gamma 89.900104
loop_
_atom_site_label
_atom_site_type_symbol
_atom_site_fract_x
_atom_site_fract_y
_atom_site_fract_z
_atom_type_partial_charge
Gd0 Gd 0.31926 0.13922 0.25667 0.0
Gd1 Gd 0.35409 0.09375 0.24654 0.0
C2 C 0.34389 0.09636 0.28862 0.0
C3 C 0.28594 0.17812 0.26968 0.0
C4 C 0.27911 0.20743 0.26437 0.0
C5 C 0.28952 0.2189 0.24803 0.0
C6 C 0.262 0.22412 0.27567 0.0
C7 C 0.2653 0.26363 0.25427 0.0
C8 C 0.25515 0.25198 0.27069 0.0
C9 C 0.28271 0.2468 0.24303 0.0
C10 C 0.37241 0.15827 0.24658 0.0
C11 C 0.31295 0.12017 0.21405 0.0
C12 C 0.3945 0.0627 0.23382 0.0
C13 C 0.40047 0.04083 0.22024 0.0
C14 C 0.40849 0.01368 0.22631 0.0
C15 C 0.40102 0.04716 0.20159 0.0
C16 C 0.42131 1.00065 0.1956 0.0
C17 C 0.4114 0.02715 0.18932 0.0
C18 C 0.41868 0.99366 0.21406 0.0
C19 C 0.30037 0.07566 0.25402 0.0
O20 O 0.32202 0.11253 0.28349 0.0
O21 O 0.36365 0.09092 0.27648 0.0
O22 O 0.27745 0.15842 0.25849 0.0
O23 O 0.31179 0.1738 0.27554 0.0
O24 O 0.34842 0.16845 0.24093 0.0
O25 O 0.36724 0.13678 0.25665 0.0
O26 O 0.33462 0.10293 0.21807 0.0
O27 O 0.30237 0.13642 0.22723 0.0
O28 O 0.37821 0.05491 0.2473 0.0
O29 O 0.38978 0.08878 0.22823 0.0
O30 O 0.3229 0.06055 0.25719 0.0
O31 O 0.30743 0.09798 0.24591 0.0
H32 H 0.30275 0.20622 0.23911 0.0
H33 H 0.25392 0.2156 0.28837 0.0
H34 H 0.24209 0.26451 0.27979 0.0
H35 H 0.29065 0.25501 0.23022 0.0
H36 H 0.40818 0.00838 0.24066 0.0
H37 H 0.39482 0.06794 0.19657 0.0
H38 H 0.4135 0.03318 0.17516 0.0
H39 H 0.42594 0.97327 0.21916 0.0
Gd40 Gd 0.61072 0.56796 0.50601 0.0
Gd41 Gd 0.65914 0.60321 0.49607 0.0
C42 C 0.65255 0.59368 0.53813 0.0
C43 C 0.57658 0.52663 0.51414 0.0
C44 C 0.54577 0.52188 0.5124 0.0
C45 C 0.52803 0.543 0.50502 0.0
C46 C 0.53438 0.49512 0.51646 0.0
C47 C 0.48797 0.51037 0.50523 0.0
C48 C 0.50571 0.48937 0.51289 0.0
C49 C 0.49937 0.53738 0.50158 0.0
C50 C 0.58749 0.62181 0.5027 0.0
C51 C 0.63233 0.56425 0.46305 0.0
C52 C 0.6929 0.64116 0.48326 0.0
C53 C 0.71369 0.64308 0.46857 0.0
C54 C 0.74135 0.65205 0.47264 0.0
C55 C 0.70615 0.63699 0.45055 0.0
C56 C 0.7525 0.6532 0.4405 0.0
C57 C 0.7254 0.64216 0.43658 0.0
C58 C 0.76075 0.65686 0.45869 0.0
C59 C 0.67399 0.54906 0.5048 0.0
O60 O 0.63704 0.57132 0.533 0.0
O61 O 0.65773 0.61359 0.52595 0.0
O62 O 0.59011 0.52864 0.4987 0.0
O63 O 0.58492 0.54558 0.526 0.0
O64 O 0.57415 0.59873 0.50638 0.0
O65 O 0.61369 0.61572 0.50021 0.0
O66 O 0.6532 0.58163 0.46814 0.0
O67 O 0.6121 0.55761 0.47509 0.0
O68 O 0.69986 0.62427 0.49665 0.0
O69 O 0.66604 0.63951 0.47863 0.0
O70 O 0.68971 0.57086 0.5086 0.0
O71 O 0.65278 0.55727 0.49593 0.0
H72 H 0.53641 0.56355 0.50134 0.0
H73 H 0.54781 0.47845 0.52196 0.0
H74 H 0.49748 0.46842 0.516 0.0
H75 H 0.4864 0.55387 0.49544 0.0
H76 H 0.74762 0.65635 0.48655 0.0
H77 H 0.68504 0.62948 0.44714 0.0
H78 H 0.71827 0.6394 0.42269 0.0
H79 H 0.78165 0.66496 0.46206 0.0
Gd80 Gd 0.18041 0.86327 0.75761 0.0
Gd81 Gd 0.14717 0.90963 0.74767 0.0
C82 C 0.15609 0.90593 0.78966 0.0
C83 C 0.21275 0.82336 0.77058 0.0
C84 C 0.21948 0.79416 0.76509 0.0
C85 C 0.20389 0.78071 0.7513 0.0
C86 C 0.24196 0.77969 0.77349 0.0
C87 C 0.23307 0.73818 0.75455 0.0
C88 C 0.24874 0.75196 0.76827 0.0
C89 C 0.21058 0.75293 0.74609 0.0
C90 C 0.12672 0.84596 0.74746 0.0
C91 C 0.18736 0.88266 0.71506 0.0
C92 C 0.10853 0.94261 0.73474 0.0
C93 C 0.1043 0.96331 0.72017 0.0
C94 C 0.09637 0.99107 0.72484 0.0
C95 C 0.10564 0.95538 0.70182 0.0
C96 C 0.0861 1.00124 0.69328 0.0
C97 C 0.09651 0.97426 0.68843 0.0
C98 C 0.08754 0.01003 0.71146 0.0
C99 C 0.20127 0.92602 0.75553 0.0
O100 O 0.17782 0.88953 0.78459 0.0
O101 O 0.13664 0.91182 0.7774 0.0
O102 O 0.22189 0.84329 0.75972 0.0
O103 O 0.18676 0.82786 0.7761 0.0
O104 O 0.15036 0.83544 0.74148 0.0
O105 O 0.13257 0.86694 0.75772 0.0
O106 O 0.16599 0.90019 0.71909 0.0
O107 O 0.19762 0.86611 0.72824 0.0
O108 O 0.12604 0.95026 0.74759 0.0
O109 O 0.11068 0.91574 0.73025 0.0
O110 O 0.17906 0.94126 0.75924 0.0
O111 O 0.19374 0.90429 0.74703 0.0
H112 H 0.18652 0.79165 0.74459 0.0
H113 H 0.25435 0.78988 0.78404 0.0
H114 H 0.26651 0.74144 0.77483 0.0
H115 H 0.19792 0.7429 0.73562 0.0
H116 H 0.09552 0.99761 0.73896 0.0
H117 H 0.11209 0.93415 0.69788 0.0
H118 H 0.0954 0.96681 0.67451 0.0
H119 H 0.07991 0.03084 0.71546 0.0
Gd120 Gd 0.89205 0.434 1.00655 0.0
Gd121 Gd 0.84567 0.40083 0.99703 0.0
C122 C 0.84953 0.41044 1.0389 0.0
C123 C 0.93289 0.46548 1.01881 0.0
C124 C 0.96241 0.47118 1.01297 0.0
C125 C 0.9847 0.4676 1.02544 0.0
C126 C 0.96876 0.47968 0.99507 0.0
C127 C 0.01928 0.48177 1.00244 0.0
C128 C 0.99688 0.48502 0.98989 0.0
C129 C 0.01283 0.47273 1.02023 0.0
C130 C 0.90938 0.38014 0.99674 0.0
C131 C 0.87254 0.44064 0.96403 0.0
C132 C 0.81256 0.36234 0.98435 0.0
C133 C 0.79292 0.35856 0.96922 0.0
C134 C 0.76544 0.34868 0.9729 0.0
C135 C 0.80157 0.36306 0.9512 0.0
C136 C 0.75712 0.34293 0.94066 0.0
C137 C 0.78379 0.35517 0.93697 0.0
C138 C 0.74751 0.34112 0.95869 0.0
C139 C 0.82924 0.45502 1.00453 0.0
O140 O 0.86538 0.43233 1.03345 0.0
O141 O 0.84403 0.39055 1.02692 0.0
O142 O 0.91255 0.47509 1.00837 0.0
O143 O 0.92779 0.43991 1.02489 0.0
O144 O 0.91983 0.40367 0.99057 0.0
O145 O 0.88839 0.38618 1.007 0.0
O146 O 0.85511 0.41929 0.96825 0.0
O147 O 0.88908 0.45101 0.97712 0.0
O148 O 0.80456 0.38061 0.99666 0.0
O149 O 0.83976 0.36351 0.9805 0.0
O150 O 0.81417 0.43288 1.0086 0.0
O151 O 0.85097 0.44737 0.99599 0.0
H152 H 0.98035 0.46075 1.03925 0.0
H153 H 0.95202 0.48236 0.98508 0.0
H154 H 1.00099 0.49219 0.97613 0.0
H155 H 0.02955 0.46944 1.03016 0.0
H156 H 0.75835 0.34554 0.98679 0.0
H157 H 0.82257 0.3712 0.94808 0.0
H158 H 0.79189 0.35659 0.92321 0.0
H159 H 0.72689 0.3321 0.96183 0.0
Gd160 Gd 0.64648 0.91056 0.97582 0.0
Gd161 Gd 0.68098 0.86454 0.96447 0.0
C162 C 0.68806 0.88168 1.0072 0.0
C163 C 0.60684 0.93986 0.99104 0.0
C164 C 0.59911 0.94364 1.01004 0.0
C165 C 0.57036 0.94367 1.01484 0.0
C166 C 0.62011 0.94265 1.02359 0.0
C167 C 0.58354 0.93898 1.04662 0.0
C168 C 0.61238 0.9402 1.04178 0.0
C169 C 0.56259 0.94153 1.03304 0.0
C170 C 0.69966 0.92792 0.96697 0.0
C171 C 0.65602 0.90988 0.93337 0.0
C172 C 0.71367 0.82543 0.95118 0.0
C173 C 0.72074 0.79597 0.95649 0.0
C174 C 0.69941 0.776 0.96048 0.0
C175 C 0.74935 0.78789 0.95807 0.0
C176 C 0.73536 0.73999 0.96707 0.0
C177 C 0.7566 0.76027 0.96337 0.0
C178 C 0.70665 0.74826 0.96563 0.0
C179 C 0.62807 0.84606 0.97537 0.0
O180 O 0.66508 0.89749 1.0039 0.0
O181 O 0.69945 0.86728 0.99346 0.0
O182 O 0.63105 0.95088 0.98594 0.0
O183 O 0.60308 0.91398 0.9851 0.0
O184 O 0.67699 0.94293 0.9637 0.0
O185 O 0.69301 0.90565 0.97538 0.0
O186 O 0.67656 0.89138 0.93769 0.0
O187 O 0.63795 0.91768 0.9461 0.0
O188 O 0.7228 0.84526 0.96208 0.0
O189 O 0.68785 0.83022 0.94536 0.0
O190 O 0.6521 0.83533 0.98055 0.0
O191 O 0.63328 0.86762 0.96536 0.0
H192 H 0.55396 0.94426 1.00447 0.0
H193 H 0.64246 0.94266 1.02006 0.0
H194 H 0.62893 0.9383 1.05196 0.0
H195 H 0.54017 0.94145 1.03645 0.0
H196 H 0.67712 0.78173 0.95958 0.0
H197 H 0.76614 0.80305 0.95528 0.0
H198 H 0.77891 0.75491 0.96472 0.0
H199 H 0.6897 0.73322 0.96818 0.0
Gd200 Gd 0.3429 0.3998 0.72554 0.0
Gd201 Gd 0.38944 0.4326 0.71525 0.0
C202 C 0.37113 0.43973 0.75789 0.0
C203 C 0.31017 0.36209 0.73965 0.0
C204 C 0.29509 0.35863 0.7568 0.0
C205 C 0.26734 0.34797 0.7566 0.0
C206 C 0.30845 0.36473 0.77338 0.0
C207 C 0.26835 0.3445 0.78946 0.0
C208 C 0.29519 0.3576 0.78964 0.0
C209 C 0.2539 0.34112 0.77288 0.0
C210 C 0.3268 0.45379 0.7173 0.0
C211 C 0.3459 0.40835 0.68343 0.0
C212 C 0.42962 0.4641 0.70207 0.0
C213 C 0.45879 0.47129 0.70774 0.0
C214 C 0.48097 0.46929 0.69508 0.0
C215 C 0.46496 0.47951 0.72568 0.0
C216 C 0.51513 0.48449 0.71799 0.0
C217 C 0.49285 0.48616 0.73073 0.0
C218 C 0.50885 0.47572 0.70015 0.0
C219 C 0.4065 0.37891 0.72546 0.0
O220 O 0.35359 0.41839 0.75397 0.0
O221 O 0.38739 0.44999 0.74459 0.0
O222 O 0.30077 0.38239 0.72912 0.0
O223 O 0.33798 0.36061 0.74041 0.0
O224 O 0.31167 0.43161 0.71342 0.0
O225 O 0.34857 0.4463 0.72591 0.0
O226 O 0.36308 0.42957 0.68827 0.0
O227 O 0.33913 0.38947 0.69588 0.0
O228 O 0.40887 0.47402 0.71201 0.0
O229 O 0.42551 0.43783 0.69711 0.0
O230 O 0.41721 0.40243 0.73142 0.0
O231 O 0.3854 0.38494 0.71524 0.0
H232 H 0.25659 0.34373 0.74385 0.0
H233 H 0.32973 0.37352 0.77378 0.0
H234 H 0.30696 0.36026 0.80219 0.0
H235 H 0.23301 0.33146 0.77245 0.0
H236 H 0.47671 0.46265 0.68124 0.0
H237 H 0.44827 0.48093 0.7358 0.0
H238 H 0.49684 0.49307 0.74454 0.0
H239 H 0.52554 0.47362 0.69008 0.0
Gd240 Gd 0.8531 0.09362 0.47494 0.0
Gd241 Gd 0.81973 0.13988 0.46382 0.0
C242 C 0.81238 0.1223 0.50659 0.0
C243 C 0.89103 0.06195 0.48993 0.0
C244 C 0.89633 0.054 0.50874 0.0
C245 C 0.90537 0.0264 0.51285 0.0
C246 C 0.89193 0.07377 0.5227 0.0
C247 C 0.90874 0.03933 0.54466 0.0
C248 C 0.89819 0.06651 0.54055 0.0
C249 C 0.91147 0.01903 0.53078 0.0
C250 C 0.79947 0.07721 0.46619 0.0
C251 C 0.84462 0.09533 0.4326 0.0
C252 C 0.78737 0.17937 0.45056 0.0
C253 C 0.78004 0.20855 0.45619 0.0
C254 C 0.8012 0.22879 0.45997 0.0
C255 C 0.75138 0.21603 0.45838 0.0
C256 C 0.76493 0.26384 0.46763 0.0
C257 C 0.74388 0.24331 0.46411 0.0
C258 C 0.7937 0.25619 0.46555 0.0
C259 C 0.87267 0.15804 0.47481 0.0
O260 O 0.83473 0.10574 0.50317 0.0
O261 O 0.8015 0.1374 0.49292 0.0
O262 O 0.86762 0.05181 0.48301 0.0
O263 O 0.89531 0.08872 0.48594 0.0
O264 O 0.82192 0.06222 0.46247 0.0
O265 O 0.80659 0.09909 0.47474 0.0
O266 O 0.82386 0.11345 0.43699 0.0
O267 O 0.86279 0.08774 0.44532 0.0
O268 O 0.77795 0.15907 0.46106 0.0
O269 O 0.81338 0.17486 0.44502 0.0
O270 O 0.84861 0.16873 0.47991 0.0
O271 O 0.86754 0.13648 0.4648 0.0
H272 H 0.90827 0.01081 0.50218 0.0
H273 H 0.88455 0.09512 0.51978 0.0
H274 H 0.89626 0.0827 0.55093 0.0
H275 H 0.91927 0.99782 0.5337 0.0
H276 H 0.82354 0.22353 0.4586 0.0
H277 H 0.73474 0.20065 0.45577 0.0
H278 H 0.72155 0.24821 0.46595 0.0
H279 H 0.81047 0.27148 0.46796 0.0
Gd280 Gd 0.15658 0.60316 0.22474 0.0
Gd281 Gd 0.11068 0.56944 0.21484 0.0
C282 C 0.12958 0.56304 0.25745 0.0
C283 C 0.18868 0.6419 0.23814 0.0
C284 C 0.20568 0.64574 0.2545 0.0
C285 C 0.23321 0.65668 0.25282 0.0
C286 C 0.1944 0.63992 0.27176 0.0
C287 C 0.23608 0.66099 0.28556 0.0
C288 C 0.20949 0.64762 0.28722 0.0
C289 C 0.24847 0.66407 0.26829 0.0
C290 C 0.17375 0.54923 0.21713 0.0
C291 C 0.15386 0.59341 0.18281 0.0
C292 C 0.07123 0.53678 0.20189 0.0
C293 C 0.04189 0.53035 0.2073 0.0
C294 C 0.02836 0.5462 0.22094 0.0
C295 C 0.02741 0.50789 0.19901 0.0
C296 C 0.98573 0.51732 0.21778 0.0
C297 C 0.99957 0.50139 0.20421 0.0
C298 C 1.00049 0.53979 0.22611 0.0
C299 C 0.09241 0.6229 0.22481 0.0
O300 O 0.14681 0.58456 0.25333 0.0
O301 O 0.11334 0.55243 0.24429 0.0
O302 O 0.19798 0.62264 0.22687 0.0
O303 O 0.161 0.64171 0.24023 0.0
O304 O 0.18867 0.57158 0.21327 0.0
O305 O 0.15178 0.55655 0.22555 0.0
O306 O 0.1373 0.57189 0.18798 0.0
O307 O 0.1598 0.61298 0.19493 0.0
O308 O 0.09092 0.52792 0.21304 0.0
O309 O 0.07583 0.56258 0.19606 0.0
O310 O 0.08223 0.59911 0.23073 0.0
O311 O 0.11366 0.61733 0.21461 0.0
H312 H 0.24235 0.66074 0.23953 0.0
H313 H 0.17335 0.63089 0.27331 0.0
H314 H 0.19929 0.64518 0.30035 0.0
H315 H 0.26914 0.67393 0.26671 0.0
H316 H 0.03929 0.56355 0.22755 0.0
H317 H 0.03768 0.49529 0.18858 0.0
H318 H 0.98902 0.48364 0.19774 0.0
H319 H 0.9904 0.55267 0.23647 0.0
Gd320 Gd 0.81952 0.64041 0.7557 0.0
Gd321 Gd 0.85383 0.59468 0.74556 0.0
C322 C 0.84404 0.59735 0.78769 0.0
C323 C 0.78671 0.6797 0.7688 0.0
C324 C 0.77999 0.70906 0.76354 0.0
C325 C 0.79013 0.72047 0.74711 0.0
C326 C 0.76318 0.72583 0.77497 0.0
C327 C 0.76615 0.76528 0.75351 0.0
C328 C 0.75632 0.7537 0.77002 0.0
C329 C 0.78329 0.74839 0.74214 0.0
C330 C 0.87309 0.65864 0.74581 0.0
C331 C 0.81218 0.62091 0.71317 0.0
C332 C 0.89394 0.56369 0.73245 0.0
C333 C 0.89898 0.54194 0.71862 0.0
C334 C 0.90336 0.51372 0.72423 0.0
C335 C 0.90204 0.54918 0.7002 0.0
C336 C 0.91701 0.50092 0.69363 0.0
C337 C 0.91101 0.52877 0.68778 0.0
C338 C 0.91212 0.49332 0.7118 0.0
C339 C 0.80037 0.5768 0.75358 0.0
O340 O 0.82232 0.61382 0.78262 0.0
O341 O 0.8636 0.59161 0.77546 0.0
O342 O 0.77794 0.66007 0.75764 0.0
O343 O 0.81259 0.67518 0.77452 0.0
O344 O 0.84937 0.6691 0.73986 0.0
O345 O 0.86736 0.63737 0.7559 0.0
O346 O 0.83372 0.60347 0.71716 0.0
O347 O 0.80214 0.63755 0.72633 0.0
O348 O 0.87802 0.55594 0.74613 0.0
O349 O 0.88928 0.58987 0.72704 0.0
O350 O 0.82294 0.56165 0.75657 0.0
O351 O 0.80717 0.59905 0.74528 0.0
H352 H 0.80313 0.70772 0.7381 0.0
H353 H 0.75532 0.71736 0.78774 0.0
H354 H 0.74348 0.76628 0.77923 0.0
H355 H 0.79099 0.75655 0.72926 0.0
H356 H 0.90116 0.50765 0.73839 0.0
H357 H 0.89877 0.5708 0.69552 0.0
H358 H 0.91494 0.53527 0.67386 0.0
H359 H 0.9163 0.4719 0.71657 0.0
Gd360 Gd 0.11072 0.06991 1.00763 0.0
Gd361 Gd 0.15696 0.10298 0.99739 0.0
C362 C 0.15403 0.09381 1.03944 0.0
C363 C 0.07015 0.03846 1.02037 0.0
C364 C 0.04084 0.03192 1.01448 0.0
C365 C 0.01816 0.03661 1.02649 0.0
C366 C 0.03506 0.02155 0.99694 0.0
C367 C 0.98434 0.02 1.00375 0.0
C368 C 0.00712 0.01556 0.99166 0.0
C369 C 0.99022 0.03083 1.02118 0.0
C370 C 0.09329 0.1236 0.99745 0.0
C371 C 0.12933 0.06297 0.96501 0.0
C372 C 0.18964 0.14115 0.98376 0.0
C373 C 0.2078 0.14436 0.96782 0.0
C374 C 0.23566 0.15414 0.9702 0.0
C375 C 0.19737 0.13926 0.95027 0.0
C376 C 0.24064 0.15899 0.93758 0.0
C377 C 0.21367 0.14665 0.93521 0.0
C378 C 0.25212 0.16119 0.95515 0.0
C379 C 0.17372 0.0489 1.00512 0.0
O380 O 0.13735 0.07231 1.03447 0.0
O381 O 0.16006 0.11318 1.02715 0.0
O382 O 0.09085 0.02861 1.01037 0.0
O383 O 0.0747 0.06444 1.0258 0.0
O384 O 0.08277 0.10001 0.99149 0.0
O385 O 0.11445 0.11771 1.00764 0.0
O386 O 0.14668 0.08447 0.9689 0.0
O387 O 0.11321 0.05254 0.97832 0.0
O388 O 0.19832 0.12263 0.99578 0.0
O389 O 0.16211 0.14063 0.98095 0.0
O390 O 0.18886 0.07117 1.0087 0.0
O391 O 0.1516 0.05636 0.99685 0.0
H392 H 0.02207 0.04487 1.04001 0.0
H393 H 0.05209 0.01793 0.98729 0.0
H394 H 0.00345 0.00699 0.97821 0.0
H395 H 0.9732 0.03504 1.03072 0.0
H396 H 0.24416 0.15764 0.98372 0.0
H397 H 0.17608 0.13112 0.94815 0.0
H398 H 0.20412 0.14489 0.92185 0.0
H399 H 0.27303 0.17024 0.95729 0.0
Gd400 Gd 0.68229 0.36494 0.25521 0.0
Gd401 Gd 0.64571 0.41269 0.2451 0.0
C402 C 0.65582 0.40656 0.28721 0.0
C403 C 0.72345 0.33093 0.26371 0.0
C404 C 0.72764 0.30021 0.26106 0.0
C405 C 0.71261 0.28576 0.24741 0.0
C406 C 0.74769 0.28541 0.27152 0.0
C407 C 0.7389 0.24228 0.254 0.0
C408 C 0.75323 0.25668 0.26807 0.0
C409 C 0.71823 0.25713 0.24388 0.0
C410 C 0.62905 0.34061 0.25171 0.0
C411 C 0.68641 0.38665 0.21243 0.0
C412 C 0.60744 0.44495 0.23086 0.0
C413 C 0.60665 0.46559 0.21583 0.0
C414 C 0.60614 0.4948 0.21968 0.0
C415 C 0.60593 0.45653 0.19766 0.0
C416 C 0.60206 0.50554 0.18751 0.0
C417 C 0.60359 0.47633 0.18363 0.0
C418 C 0.60408 0.51461 0.20564 0.0
C419 C 0.6994 0.4288 0.25385 0.0
O420 O 0.67847 0.39152 0.28193 0.0
O421 O 0.63559 0.41154 0.27516 0.0
O422 O 0.72281 0.34592 0.24873 0.0
O423 O 0.70379 0.33854 0.27534 0.0
O424 O 0.65249 0.32763 0.25521 0.0
O425 O 0.63456 0.36693 0.24925 0.0
O426 O 0.66852 0.40718 0.21748 0.0
O427 O 0.69324 0.36641 0.22442 0.0
O428 O 0.62253 0.45231 0.245 0.0
O429 O 0.61041 0.4181 0.22657 0.0
O430 O 0.6772 0.44431 0.25726 0.0
O431 O 0.69179 0.40729 0.24514 0.0
H432 H 0.69705 0.29684 0.23913 0.0
H433 H 0.7594 0.29618 0.28216 0.0
H434 H 0.76889 0.2458 0.27637 0.0
H435 H 0.707 0.24693 0.23282 0.0
H436 H 0.6068 0.50233 0.23359 0.0
H437 H 0.60641 0.43415 0.19424 0.0
H438 H 0.6016 0.46861 0.16982 0.0
H439 H 0.60328 0.537 0.20901 0.0
Gd440 Gd 0.38937 0.93392 0.50804 0.0
Gd441 Gd 0.34307 0.90073 0.49764 0.0
C442 C 0.34555 0.90967 0.53976 0.0
C443 C 0.42925 0.96609 0.52099 0.0
C444 C 0.45849 0.97264 0.51533 0.0
C445 C 0.47204 0.95652 0.50182 0.0
C446 C 0.47289 0.99545 0.52328 0.0
C447 C 0.51452 0.98577 0.50448 0.0
C448 C 0.50065 0.002 0.5179 0.0
C449 C 0.49983 0.96298 0.49646 0.0
C450 C 0.40708 0.88044 0.49786 0.0
C451 C 0.37103 0.94073 0.46525 0.0
C452 C 0.31068 0.86249 0.48394 0.0
C453 C 0.29502 0.85856 0.46707 0.0
C454 C 0.2675 0.84738 0.46783 0.0
C455 C 0.30762 0.86461 0.45022 0.0
C456 C 0.26726 0.8434 0.43502 0.0
C457 C 0.29384 0.85696 0.43426 0.0
C458 C 0.25355 0.84002 0.45186 0.0
C459 C 0.32671 0.95483 0.50538 0.0
O460 O 0.36267 0.93098 0.53492 0.0
O461 O 0.33919 0.89063 0.52738 0.0
O462 O 0.40923 0.97537 0.51023 0.0
O463 O 0.42471 0.94013 0.52655 0.0
O464 O 0.41769 0.90416 0.49215 0.0
O465 O 0.38572 0.88611 0.50793 0.0
O466 O 0.35377 0.91912 0.46911 0.0
O467 O 0.38691 0.95126 0.47863 0.0
O468 O 0.30119 0.8826 0.49451 0.0
O469 O 0.33848 0.86162 0.48278 0.0
O470 O 0.31145 0.93268 0.50916 0.0
O471 O 0.34865 0.94721 0.49704 0.0
H472 H 0.46119 0.93889 0.49545 0.0
H473 H 0.46264 0.00827 0.53361 0.0
H474 H 0.51112 0.02001 0.52413 0.0
H475 H 0.50991 0.94987 0.48622 0.0
H476 H 0.25736 0.84315 0.4808 0.0
H477 H 0.32871 0.87378 0.44939 0.0
H478 H 0.30503 0.85962 0.42149 0.0
H479 H 0.23286 0.82999 0.45272 0.0
Gd480 Gd 0.14819 0.41155 0.47659 0.0
Gd481 Gd 0.18414 0.36307 0.46482 0.0
C482 C 0.1883 0.38199 0.50813 0.0
C483 C 0.10958 0.44303 0.49094 0.0
C484 C 0.09625 0.44104 0.50866 0.0
C485 C 0.08018 0.46366 0.51543 0.0
C486 C 0.10064 0.41656 0.51921 0.0
C487 C 0.07256 0.43706 0.54331 0.0
C488 C 0.08895 0.41461 0.53648 0.0
C489 C 0.06823 0.46164 0.53273 0.0
C490 C 0.2015 0.42665 0.46652 0.0
C491 C 0.15804 0.40791 0.43379 0.0
C492 C 0.22512 0.32949 0.45521 0.0
C493 C 0.23056 0.29874 0.45661 0.0
C494 C 0.20811 0.27911 0.45733 0.0
C495 C 0.25849 0.28917 0.45925 0.0
C496 C 0.24147 0.24088 0.4643 0.0
C497 C 0.26394 0.26053 0.46299 0.0
C498 C 0.21351 0.25046 0.46116 0.0
C499 C 0.13106 0.33923 0.4706 0.0
O500 O 0.16682 0.39963 0.50462 0.0
O501 O 0.19845 0.36562 0.49486 0.0
O502 O 0.1366 0.44938 0.49144 0.0
O503 O 0.10378 0.42198 0.47995 0.0
O504 O 0.17936 0.44253 0.46346 0.0
O505 O 0.19394 0.40497 0.47516 0.0
O506 O 0.17874 0.38953 0.43805 0.0
O507 O 0.14005 0.41608 0.44653 0.0
O508 O 0.22429 0.34269 0.47079 0.0
O509 O 0.20517 0.33798 0.44398 0.0
O510 O 0.15402 0.32613 0.46616 0.0
O511 O 0.13717 0.36551 0.47279 0.0
H512 H 0.07695 0.48275 0.50741 0.0
H513 H 0.11299 0.39889 0.51403 0.0
H514 H 0.09224 0.39537 0.54434 0.0
H515 H 0.0558 0.47928 0.53789 0.0
H516 H 0.18636 0.28596 0.4554 0.0
H517 H 0.27608 0.30402 0.45886 0.0
H518 H 0.28577 0.25383 0.46501 0.0
H519 H 0.19567 0.23601 0.46222 0.0
Gd520 Gd 0.84014 0.90259 0.22472 0.0
Gd521 Gd 0.88963 0.93577 0.21384 0.0
C522 C 0.86995 0.93968 0.25702 0.0
C523 C 0.80369 0.86681 0.23724 0.0
C524 C 0.79977 0.85269 0.25455 0.0
C525 C 0.77447 0.83814 0.25798 0.0
C526 C 0.82124 0.85388 0.26774 0.0
C527 C 0.79269 0.82442 0.28752 0.0
C528 C 0.81771 0.83979 0.28419 0.0
C529 C 0.77092 0.824 0.27444 0.0
C530 C 0.8272 0.95654 0.21439 0.0
C531 C 0.84609 0.91096 0.18212 0.0
C532 C 0.92568 0.97498 0.20502 0.0
C533 C 0.95662 0.97793 0.20737 0.0
C534 C 0.97137 0.95999 0.21941 0.0
C535 C 0.97123 1.00003 0.19867 0.0
C536 C 0.01489 0.98697 0.21464 0.0
C537 C 1.00012 0.00455 0.20227 0.0
C538 C 1.00022 0.96435 0.22293 0.0
C539 C 0.91205 0.88215 0.21969 0.0
O540 O 0.85192 0.91882 0.25319 0.0
O541 O 0.88681 0.94966 0.24393 0.0
O542 O 0.7998 0.89425 0.23762 0.0
O543 O 0.82641 0.85919 0.22821 0.0
O544 O 0.81139 0.93483 0.21053 0.0
O545 O 0.84804 0.94834 0.22363 0.0
O546 O 0.86408 0.93173 0.18663 0.0
O547 O 0.83785 0.89303 0.19482 0.0
O548 O 0.9112 0.97495 0.22016 0.0
O549 O 0.91692 0.95564 0.19355 0.0
O550 O 0.92568 0.9048 0.2154 0.0
O551 O 0.8857 0.88854 0.22164 0.0
H552 H 0.75769 0.83746 0.24788 0.0
H553 H 0.84087 0.86523 0.26516 0.0
H554 H 0.83487 0.84009 0.29403 0.0
H555 H 0.75135 0.81246 0.27689 0.0
H556 H 0.96043 0.94305 0.2265 0.0
H557 H 0.96012 0.01428 0.18949 0.0
H558 H 0.01061 0.0224 0.19582 0.0
H559 H 0.01095 0.95014 0.23232 0.0
Gd560 Gd 0.35626 0.59169 0.97749 0.0
Gd561 Gd 0.32212 0.63706 0.96559 0.0
C562 C 0.31489 0.61608 1.00865 0.0
C563 C 0.39715 0.56099 0.98997 0.0
C564 C 0.4171 0.56588 1.0047 0.0
C565 C 0.43425 0.54375 1.01106 0.0
C566 C 0.41887 0.59295 1.0125 0.0
C567 C 0.45534 0.57589 1.03307 0.0
C568 C 0.43805 0.59802 1.02651 0.0
C569 C 0.45323 0.54868 1.02525 0.0
C570 C 0.30407 0.57294 0.96691 0.0
C571 C 0.34424 0.59427 0.93437 0.0
C572 C 0.28683 0.6791 0.96191 0.0
C573 C 0.28507 0.70989 0.9583 0.0
C574 C 0.30441 0.72881 0.96638 0.0
C575 C 0.2608 0.72078 0.94969 0.0
C576 C 0.27287 0.76866 0.95971 0.0
C577 C 0.25484 0.74991 0.95026 0.0
C578 C 0.2983 0.75787 0.96717 0.0
C579 C 0.37885 0.65317 0.9664 0.0
O580 O 0.33824 0.6009 1.00586 0.0
O581 O 0.30393 0.63034 0.99464 0.0
O582 O 0.37071 0.55764 0.99503 0.0
O583 O 0.40005 0.5783 0.97614 0.0
O584 O 0.32726 0.55845 0.96469 0.0
O585 O 0.30963 0.59528 0.97536 0.0
O586 O 0.3224 0.61081 0.93899 0.0
O587 O 0.36373 0.58875 0.94689 0.0
O588 O 0.29928 0.67205 0.9771 0.0
O589 O 0.29249 0.66156 0.94859 0.0
O590 O 0.36106 0.65769 0.95338 0.0
O591 O 0.366 0.63868 0.97856 0.0
H592 H 0.43279 0.52269 1.00519 0.0
H593 H 0.40537 0.61012 1.00774 0.0
H594 H 0.43933 0.6192 1.03219 0.0
H595 H 0.46583 0.53106 1.03033 0.0
H596 H 0.32332 0.72093 0.97317 0.0
H597 H 0.24556 0.70658 0.94343 0.0
H598 H 0.23546 0.75752 0.94393 0.0
H599 H 0.31267 0.7715 0.97464 0.0
Gd600 Gd 0.65738 0.10449 0.72432 0.0
Gd601 Gd 0.61107 0.07097 0.71386 0.0
C602 C 0.62925 0.06452 0.75664 0.0
C603 C 0.68927 0.14292 0.73834 0.0
C604 C 0.70074 0.14817 0.75637 0.0
C605 C 0.72784 0.16004 0.75805 0.0
C606 C 0.68452 0.1422 0.77191 0.0
C607 C 0.72068 0.16409 0.79055 0.0
C608 C 0.69441 0.15019 0.78893 0.0
C609 C 0.73787 0.16786 0.77511 0.0
C610 C 0.67389 0.05063 0.71623 0.0
C611 C 0.65508 0.09527 0.68213 0.0
C612 C 0.57131 0.03858 0.70117 0.0
C613 C 0.54192 0.03193 0.70679 0.0
C614 C 0.5219 0.0535 0.71021 0.0
C615 C 0.53394 0.00348 0.70921 0.0
C616 C 0.48607 0.01806 0.71793 0.0
C617 C 0.50639 0.9966 0.7148 0.0
C618 C 0.49423 0.04663 0.71565 0.0
C619 C 0.59311 0.1243 0.72412 0.0
O620 O 0.64609 0.08646 0.75281 0.0
O621 O 0.61373 0.0536 0.74323 0.0
O622 O 0.69946 0.12063 0.73007 0.0
O623 O 0.66168 0.14569 0.73669 0.0
O624 O 0.6889 0.07292 0.71231 0.0
O625 O 0.652 0.05799 0.72474 0.0
O626 O 0.63757 0.07423 0.68693 0.0
O627 O 0.6621 0.11403 0.69455 0.0
O628 O 0.59137 0.02939 0.71195 0.0
O629 O 0.57619 0.06423 0.69509 0.0
O630 O 0.58238 0.1005 0.72964 0.0
O631 O 0.61455 0.11874 0.71408 0.0
H632 H 0.74074 0.16424 0.74612 0.0
H633 H 0.66363 0.13267 0.77085 0.0
H634 H 0.68062 0.14729 0.80059 0.0
H635 H 0.75838 0.17822 0.77612 0.0
H636 H 0.52754 0.0757 0.70866 0.0
H637 H 0.54913 0.98652 0.70688 0.0
H638 H 0.50111 0.97442 0.7168 0.0
H639 H 0.47914 0.06371 0.71777 0.0
H640 H 0.42616 0.1474 0.26184 0.0
H641 H 0.46821 0.17885 0.26225 0.0
H642 H 0.42194 0.24161 0.23138 0.0
H643 H 0.38034 0.21061 0.23096 0.0
H644 H 0.50215 0.20296 0.23512 0.0
H645 H 0.45037 0.29097 0.27236 0.0
H646 H 0.4345 0.25618 0.27062 0.0
H647 H 0.43181 0.28101 0.25203 0.0
C648 C 0.42491 0.16789 0.25514 0.0
C649 C 0.39938 0.17624 0.24649 0.0
C650 C 0.44912 0.18604 0.25538 0.0
C651 C 0.44858 0.21337 0.24722 0.0
C652 C 0.42325 0.22129 0.23828 0.0
H653 H 0.5745 0.3572 0.23862 0.0
H654 H 0.53113 0.32743 0.23675 0.0
C655 C 0.39927 0.2032 0.23792 0.0
C656 C 0.4743 0.23335 0.2477 0.0
H657 H 0.49589 0.30076 0.25983 0.0
C658 C 0.50066 0.22426 0.24065 0.0
C659 C 0.47295 0.26161 0.25461 0.0
C660 C 0.44599 0.27302 0.26298 0.0
C661 C 0.52498 0.24224 0.24006 0.0
C662 C 0.52386 0.27035 0.24731 0.0
C663 C 0.49739 0.27953 0.25422 0.0
C664 C 0.55012 0.28964 0.24863 0.0
C665 C 0.55145 0.23093 0.23099 0.0
C666 C 0.57554 0.27938 0.25638 0.0
C667 C 0.60024 0.29624 0.25728 0.0
C668 C 0.60088 0.3246 0.25087 0.0
C669 C 0.57521 0.33557 0.24368 0.0
C670 C 0.55025 0.31837 0.2426 0.0
H671 H 0.54615 0.21472 0.22056 0.0
H672 H 0.56379 0.24817 0.22433 0.0
H673 H 0.56511 0.22046 0.24134 0.0
H674 H 0.57642 0.25804 0.26189 0.0
H675 H 0.61915 0.28678 0.26317 0.0
H676 H 0.53284 0.6322 0.51237 0.0
H677 H 0.50491 0.67565 0.51098 0.0
H678 H 0.57733 0.72072 0.48967 0.0
H679 H 0.60583 0.67642 0.49095 0.0
H680 H 0.50859 0.72546 0.52776 0.0
H681 H 0.51729 0.74671 0.45381 0.0
H682 H 0.5287 0.71354 0.46384 0.0
H683 H 0.55074 0.74462 0.46555 0.0
C684 C 0.54314 0.65123 0.50732 0.0
C685 C 0.57194 0.65027 0.50176 0.0
C686 C 0.52688 0.67639 0.50656 0.0
C687 C 0.53835 0.70204 0.50001 0.0
C688 C 0.56731 0.70143 0.49449 0.0
H689 H 0.46015 0.87196 0.48342 0.0
H690 H 0.49068 0.83 0.48439 0.0
C691 C 0.58386 0.67597 0.49536 0.0
C692 C 0.51972 0.72884 0.49947 0.0
H693 H 0.49209 0.78047 0.4712 0.0
C694 C 0.5051 0.73742 0.51532 0.0
C695 C 0.51466 0.745 0.4834 0.0
C696 C 0.52842 0.73697 0.46562 0.0
C697 C 0.48642 0.76127 0.51569 0.0
C698 C 0.48092 0.77721 0.49955 0.0
C699 C 0.49571 0.76871 0.48369 0.0
C700 C 0.46096 0.80315 0.49888 0.0
C701 C 0.47355 0.76954 0.53371 0.0
C702 C 0.43312 0.80299 0.50636 0.0
C703 C 0.41543 0.82757 0.50604 0.0
C704 C 0.42464 0.85316 0.4979 0.0
C705 C 0.45202 0.85295 0.48992 0.0
C706 C 0.46972 0.82863 0.49043 0.0
H707 H 0.48653 0.76159 0.5453 0.0
H708 H 0.4715 0.79296 0.53497 0.0
H709 H 0.45211 0.7599 0.53491 0.0
H710 H 0.42482 0.78375 0.51242 0.0
H711 H 0.39452 0.82651 0.51217 0.0
H712 H 0.11346 0.80037 0.72596 0.0
H713 H 0.07127 0.77011 0.72612 0.0
H714 H 0.0356 0.82031 0.76947 0.0
H715 H 0.07759 0.85144 0.76876 0.0
H716 H 0.04945 0.73473 0.74769 0.0
H717 H 0.96591 0.81657 0.7404 0.0
H718 H 0.0031 0.82495 0.73801 0.0
H719 H 0.98718 0.82234 0.76027 0.0
C720 C 0.09649 0.80535 0.7354 0.0
C721 C 0.09924 0.82881 0.74723 0.0
C722 C 0.07214 0.78771 0.73556 0.0
C723 C 0.04927 0.79253 0.74762 0.0
C724 C 0.05202 0.81604 0.75954 0.0
H725 H 0.92208 0.65245 0.76713 0.0
H726 H 0.96398 0.68361 0.76838 0.0
C727 C 0.07637 0.83396 0.75924 0.0
C728 C 0.02346 0.77245 0.74788 0.0
H729 H 0.95019 0.77005 0.74776 0.0
C730 C 0.0278 0.74269 0.74765 0.0
C731 C 0.99467 0.782 0.74757 0.0
C732 C 0.98737 0.81318 0.74638 0.0
C733 C 0.00498 0.7228 0.74715 0.0
C734 C 0.97618 0.73233 0.74749 0.0
C735 C 0.97184 0.76209 0.74768 0.0
C736 C 0.95039 0.71226 0.74688 0.0
C737 C 0.01229 0.69168 0.74551 0.0
C738 C 0.92756 0.71755 0.73483 0.0
C739 C 0.90324 0.69988 0.73436 0.0
C740 C 0.90048 0.67593 0.74586 0.0
C741 C 0.9233 0.67033 0.75785 0.0
C742 C 0.94761 0.68826 0.75847 0.0
H743 H 0.03378 0.68857 0.73953 0.0
H744 H 0.01243 0.68191 0.75926 0.0
H745 H 0.99661 0.68028 0.73694 0.0
H746 H 0.92847 0.73555 0.72563 0.0
H747 H 0.88631 0.70521 0.72494 0.0
H748 H 0.04486 0.13527 0.97809 0.0
H749 H 0.01452 0.17742 0.97842 0.0
H750 H 0.07112 0.21738 1.01663 0.0
H751 H 0.10156 0.17453 1.01658 0.0
H752 H 0.01671 0.22851 1.02638 0.0
H753 H 0.02375 0.25157 0.95292 0.0
H754 H 0.01095 0.21627 0.95705 0.0
H755 H 0.04651 0.2258 0.96384 0.0
C756 C 0.05118 0.15304 0.9865 0.0
C757 C 0.0761 0.15112 0.99721 0.0
C758 C 0.03367 0.17751 0.98659 0.0
C759 C 0.04029 0.20147 0.99727 0.0
C760 C 0.06517 0.19962 1.0081 0.0
H761 H 0.95943 0.36916 0.97896 0.0
H762 H 0.98972 0.32699 0.97986 0.0
C763 C 0.08282 0.17499 1.00801 0.0
C764 C 0.02101 0.22785 0.99727 0.0
H765 H 0.98711 0.27574 0.96909 0.0
C766 C 0.01041 0.23882 1.0138 0.0
C767 C 0.0126 0.24216 0.98103 0.0
C768 C 0.02426 0.23356 0.96273 0.0
C769 C 0.99173 0.26273 1.01452 0.0
C770 C 0.98243 0.27636 0.99821 0.0
C771 C 0.99346 0.26561 0.98172 0.0
C772 C 0.96272 0.30248 0.99783 0.0
C773 C 0.98287 0.27359 1.03295 0.0
C774 C 0.93647 0.30364 1.00731 0.0
C775 C 0.91886 0.3283 1.00689 0.0
C776 C 0.92665 0.35267 0.9968 0.0
C777 C 0.95245 0.35113 0.98698 0.0
C778 C 0.97 0.3267 0.98747 0.0
H779 H 0.99804 0.26685 1.04373 0.0
H780 H 0.9814 0.29714 1.03304 0.0
H781 H 0.96171 0.26473 1.03645 0.0
H782 H 0.92933 0.28537 1.01501 0.0
H783 H 0.8992 0.3283 1.01456 0.0
H784 H 0.57883 0.8506 0.954 0.0
H785 H 0.53713 0.81874 0.95354 0.0
H786 H 0.57397 0.76896 0.99679 0.0
H787 H 0.61542 0.80041 0.99718 0.0
H788 H 0.53373 0.75954 0.94672 0.0
H789 H 0.49342 0.77964 1.01623 0.0
H790 H 0.51904 0.80263 1.00534 0.0
H791 H 0.53026 0.76956 1.01537 0.0
C792 C 0.57792 0.83311 0.96359 0.0
C793 C 0.6008 0.8285 0.97572 0.0
C794 C 0.55395 0.81465 0.96327 0.0
C795 C 0.55163 0.79118 0.9753 0.0
C796 C 0.57437 0.7869 0.98754 0.0
H797 H 0.42068 0.65494 0.99411 0.0
H798 H 0.46227 0.68681 0.99629 0.0
C799 C 0.59838 0.80505 0.9877 0.0
C800 C 0.52632 0.77063 0.97463 0.0
H801 H 0.47241 0.74118 1.00032 0.0
C802 C 0.52028 0.75578 0.95846 0.0
C803 C 0.50856 0.76482 0.98989 0.0
C804 C 0.51289 0.78013 1.00766 0.0
C805 C 0.49793 0.73546 0.95719 0.0
C806 C 0.47964 0.73005 0.97232 0.0
C807 C 0.48584 0.74483 0.98856 0.0
C808 C 0.4538 0.71 0.97133 0.0
C809 C 0.49508 0.71919 0.93963 0.0
C810 C 0.43407 0.71202 0.95693 0.0
C811 C 0.41058 0.69346 0.95554 0.0
C812 C 0.40495 0.67223 0.96871 0.0
C813 C 0.42408 0.67058 0.98353 0.0
C814 C 0.44803 0.68909 0.9848 0.0
H815 H 0.51581 0.71764 0.93244 0.0
H816 H 0.48698 0.69734 0.94198 0.0
H817 H 0.48014 0.73062 0.93047 0.0
H818 H 0.43656 0.72832 0.94664 0.0
H819 H 0.39647 0.69609 0.94401 0.0
H820 H 0.54002 0.1326 0.73852 0.0
H821 H 0.50952 0.17454 0.73785 0.0
H822 H 0.57517 0.22122 0.70991 0.0
H823 H 0.60554 0.17845 0.70993 0.0
H824 H 0.50899 0.22333 0.75176 0.0
H825 H 0.51249 0.24506 0.67786 0.0
H826 H 0.52758 0.2132 0.68757 0.0
H827 H 0.54706 0.24616 0.68812 0.0
C828 C 0.54814 0.15169 0.73211 0.0
C829 C 0.57551 0.1516 0.72414 0.0
C830 C 0.53044 0.17601 0.73176 0.0
C831 C 0.53916 0.20165 0.72348 0.0
C832 C 0.56692 0.20189 0.71589 0.0
H833 H 0.45204 0.36516 0.74701 0.0
H834 H 0.48285 0.32326 0.74636 0.0
C835 C 0.58465 0.1773 0.71608 0.0
C836 C 0.51927 0.22768 0.72334 0.0
H837 H 0.48979 0.27996 0.69616 0.0
C838 C 0.50495 0.23551 0.73948 0.0
C839 C 0.51297 0.24404 0.70746 0.0
C840 C 0.52558 0.23657 0.68924 0.0
C841 C 0.4854 0.25862 0.74027 0.0
C842 C 0.47988 0.27554 0.72457 0.0
C843 C 0.49382 0.26757 0.70835 0.0
C844 C 0.4602 0.30158 0.72488 0.0
C845 C 0.47019 0.26415 0.75798 0.0
C846 C 0.43682 0.30453 0.71286 0.0
C847 C 0.41879 0.32887 0.71325 0.0
C848 C 0.42373 0.35142 0.72551 0.0
C849 C 0.44715 0.3484 0.73743 0.0
C850 C 0.46493 0.32412 0.73713 0.0
H851 H 0.46963 0.24482 0.76669 0.0
H852 H 0.48166 0.28095 0.76558 0.0
H853 H 0.44801 0.27143 0.75561 0.0
H854 H 0.43237 0.28786 0.70314 0.0
H855 H 0.4013 0.33026 0.7037 0.0
H856 H 0.07637 0.35616 0.48371 0.0
H857 H 0.03279 0.3266 0.48557 0.0
H858 H 0.07805 0.2567 0.46128 0.0
H859 H 0.12088 0.28515 0.46 0.0
H860 H 0.99769 0.29995 0.46236 0.0
H861 H 0.04646 0.21351 0.50231 0.0
H862 H 0.06451 0.24676 0.49856 0.0
H863 H 0.06586 0.21902 0.48166 0.0
C864 C 0.07705 0.33445 0.47887 0.0
C865 C 0.10276 0.32332 0.47186 0.0
C866 C 0.05195 0.31735 0.47993 0.0
C867 C 0.05168 0.28855 0.4741 0.0
C868 C 0.07719 0.27808 0.46664 0.0
H869 H 0.927 0.14661 0.46043 0.0
H870 H 0.96927 0.1778 0.46032 0.0
C871 C 0.10199 0.29483 0.46573 0.0
C872 C 0.0252 0.26938 0.47524 0.0
H873 H 0.00273 0.20204 0.48734 0.0
C874 C 0.99893 0.27869 0.46804 0.0
C875 C 0.02593 0.2412 0.48254 0.0
C876 C 0.05212 0.22965 0.49187 0.0
C877 C 0.97438 0.2609 0.46743 0.0
C878 C 0.97533 0.23259 0.47441 0.0
C879 C 1.00149 0.22336 0.48174 0.0
C880 C 0.9494 0.21273 0.47469 0.0
C881 C 0.94773 0.2725 0.4587 0.0
C882 C 0.92378 0.22092 0.48318 0.0
C883 C 0.89966 0.20297 0.48336 0.0
C884 C 0.89984 0.17584 0.47508 0.0
C885 C 0.92565 0.16722 0.4669 0.0
C886 C 0.95 0.18524 0.46684 0.0
H887 H 0.95253 0.29032 0.44924 0.0
H888 H 0.93624 0.25573 0.45106 0.0
H889 H 0.93339 0.28076 0.46945 0.0
H890 H 0.92235 0.24135 0.48985 0.0
H891 H 0.88055 0.21063 0.48997 0.0
H892 H 0.10322 0.67668 0.20945 0.0
H893 H 0.07221 0.71911 0.2095 0.0
H894 H 0.00883 0.67248 0.2395 0.0
H895 H 0.03987 0.63098 0.24007 0.0
H896 H 0.02282 0.73271 0.19586 0.0
H897 H 0.00599 0.74061 0.26989 0.0
H898 H 0.03192 0.71672 0.2603 0.0
H899 H 0.99497 0.7066 0.26163 0.0
C900 C 0.08284 0.67558 0.21627 0.0
C901 C 0.07452 0.65004 0.2249 0.0
C902 C 0.06486 0.70001 0.21626 0.0
C903 C 0.03787 0.69996 0.22491 0.0
C904 C 0.0296 0.67423 0.23327 0.0
H905 H 0.89359 0.82727 0.23149 0.0
H906 H 0.92224 0.78289 0.23278 0.0
C907 C 0.04754 0.65006 0.23342 0.0
C908 C 0.01802 0.72604 0.22465 0.0
H909 H 0.97454 0.76809 0.25135 0.0
C910 C 0.01253 0.74035 0.20811 0.0
C911 C 0.00392 0.73675 0.24044 0.0
C912 C 0.00971 0.72457 0.25908 0.0
C913 C 0.99363 0.764 0.20685 0.0
C914 C 0.97944 0.77456 0.22259 0.0
C915 C 0.98475 0.76024 0.23913 0.0
C916 C 0.96104 0.80156 0.22225 0.0
C917 C 0.98869 0.77721 0.1884 0.0
C918 C 0.97277 0.82745 0.21633 0.0
C919 C 0.95655 0.85265 0.2157 0.0
C920 C 0.92757 0.85359 0.22096 0.0
C921 C 0.91559 0.82776 0.22716 0.0
C922 C 0.93216 0.80224 0.22793 0.0
H923 H 0.99331 0.76195 0.17728 0.0
H924 H 0.96643 0.78483 0.18693 0.0
H925 H 0.00314 0.79566 0.18671 0.0
H926 H 0.99489 0.82834 0.21226 0.0
H927 H 0.96706 0.87175 0.21095 0.0
H928 H 0.47198 0.97589 0.20349 0.0
H929 H 0.50544 0.95516 0.18192 0.0
H930 H 0.44405 0.96552 0.13881 0.0
H931 H 0.41004 0.98599 0.1604 0.0
H932 H 0.49954 0.90824 0.15163 0.0
H933 H 0.51734 0.02079 0.13097 0.0
H934 H 0.50201 0.0111 0.15263 0.0
H935 H 0.48084 0.0095 0.13234 0.0
C936 C 0.46512 0.97269 0.18958 0.0
C937 C 0.43848 0.98261 0.18353 0.0
C938 C 0.4843 0.96095 0.17732 0.0
C939 C 0.47702 0.95908 0.15895 0.0
C940 C 0.44977 0.96693 0.15306 0.0
H941 H 0.54104 0.9056 1.05986 0.0
H942 H 0.52158 0.90628 1.0905 0.0
C943 C 0.43052 0.97867 0.16532 0.0
C944 C 0.49914 0.95303 0.14556 0.0
H945 H 0.53791 0.9853 0.11251 0.0
C946 C 0.5083 0.92498 0.14315 0.0
C947 C 0.51087 0.97523 0.13506 0.0
C948 C 0.50251 0.00592 0.1379 0.0
C949 C 0.52799 0.91826 0.12954 0.0
C950 C 0.53816 0.94022 0.11812 0.0
C951 C 0.53013 0.96849 0.12133 0.0
C952 C 0.55386 0.93445 1.10127 0.0
C953 C 0.53721 0.88776 0.12729 0.0
C954 C 0.57855 0.94991 1.09723 0.0
C955 C 0.5891 0.95039 1.07955 0.0
C956 C 0.57513 0.93526 1.06575 0.0
C957 C 0.55179 0.91799 1.07018 0.0
C958 C 0.54104 0.91783 1.08778 0.0
H959 H 0.53696 0.87637 0.14055 0.0
H960 H 0.52205 0.87678 0.11812 0.0
H961 H 0.55887 0.88621 0.12135 0.0
H962 H 0.58852 0.96307 1.10748 0.0
H963 H 0.60709 0.96394 1.0765 0.0
H964 H 0.76225 0.6317 0.40647 0.0
H965 H 0.77731 0.65948 0.37997 0.0
H966 H 0.7952 0.73103 0.41466 0.0
H967 H 0.77954 0.70406 0.44098 0.0
H968 H 0.74314 0.71324 0.37617 0.0
H969 H 0.86052 0.72951 0.37498 0.0
H970 H 0.84426 0.69854 0.38524 0.0
H971 H 0.84282 0.73217 0.39664 0.0
C972 C 0.77027 0.65304 0.40849 0.0
C973 C 0.76949 0.6658 0.42573 0.0
C974 C 0.77897 0.66873 0.39342 0.0
C975 C 0.78739 0.69706 0.39557 0.0
C976 C 0.78924 0.70896 0.41292 0.0
H977 H 0.80474 0.84024 0.3223 0.0
H978 H 0.80291 0.80995 0.34951 0.0
C979 C 0.78035 0.69342 0.42795 0.0
C980 C 0.78858 0.71585 0.37977 0.0
H981 H 0.83286 0.75756 0.35475 0.0
C982 C 0.76275 0.72275 0.37131 0.0
C983 C 0.81413 0.72864 0.37406 0.0
C984 C 0.84212 0.72182 0.3831 0.0
C985 C 0.76181 0.7423 0.35704 0.0
C986 C 0.7875 0.75449 0.35095 0.0
C987 C 0.8133 0.74793 0.35957 0.0
C988 C 0.78812 0.77288 0.33494 0.0
C989 C 0.7334 0.75005 0.34878 0.0
C990 C 0.78055 0.76168 0.31801 0.0
C991 C 0.7815 0.77876 0.30262 0.0
C992 C 0.79024 0.80716 0.30402 0.0
C993 C 0.79794 0.81834 0.321 0.0
C994 C 0.79691 0.8012 0.33644 0.0
H995 H 0.71554 0.7453 0.3582 0.0
H996 H 0.73258 0.77296 0.34509 0.0
H997 H 0.73014 0.73748 0.3362 0.0
H998 H 0.77429 0.73963 0.31668 0.0
H999 H 0.7761 0.76957 0.28957 0.0
H1000 H 0.03452 0.02481 0.69976 0.0
H1001 H 0.99951 0.03853 0.67697 0.0
H1002 H 0.06133 0.02513 0.63454 0.0
H1003 H 0.09701 0.01179 0.65735 0.0
H1004 H 0.00917 0.07823 0.63659 0.0
H1005 H 0.98566 0.96191 0.63927 0.0
H1006 H 0.9961 0.981 0.65946 0.0
H1007 H 0.02169 0.97436 0.64191 0.0
C1008 C 0.04119 0.02615 0.68568 0.0
C1009 C 0.06845 0.01715 0.68025 0.0
C1010 C 0.02108 0.03383 0.67273 0.0
C1011 C 0.02809 0.03261 0.65431 0.0
C1012 C 0.0559 0.0262 0.64885 0.0
H1013 H 0.95895 0.01375 0.55216 0.0
H1014 H 0.98322 0.01208 0.58134 0.0
C1015 C 0.0761 0.01852 0.66181 0.0
C1016 C 0.00543 0.03315 0.6408 0.0
H1017 H 0.96188 0.98897 0.61712 0.0
C1018 C 0.99841 0.05893 0.63244 0.0
C1019 C 0.99174 0.0077 0.63571 0.0
C1020 C 0.999 0.97956 0.64451 0.0
C1021 C 0.97855 0.05969 0.61829 0.0
C1022 C 0.96556 0.03406 0.6128 0.0
C1023 C 0.9718 0.0085 0.62169 0.0
C1024 C 0.94905 0.03256 0.59605 0.0
C1025 C 0.97273 0.08742 0.60861 0.0
C1026 C 0.92152 0.04378 0.59509 0.0
C1027 C 0.90734 0.04438 0.57846 0.0
C1028 C 0.92077 0.03387 0.56275 0.0
C1029 C 0.94786 0.02145 0.56409 0.0
C1030 C 0.96186 0.02075 0.58066 0.0
H1031 H 0.98598 0.10508 0.61393 0.0
H1032 H 0.97691 0.08507 0.59382 0.0
H1033 H 0.94998 0.09321 0.61025 0.0
H1034 H 0.91144 0.05273 0.60703 0.0
H1035 H 0.88637 0.0539 0.57773 0.0
H1036 H 0.73466 0.29012 0.94349 0.0
H1037 H 0.72329 0.25845 0.91848 0.0
H1038 H 0.73742 0.32654 0.88016 0.0
H1039 H 0.74829 0.35892 0.90527 0.0
H1040 H 0.68502 0.2632 0.88438 0.0
H1041 H 0.8027 0.26205 0.87485 0.0
H1042 H 0.78618 0.27381 0.89569 0.0
H1043 H 0.78568 0.29631 0.87595 0.0
C1044 C 0.73402 0.29884 0.92985 0.0
C1045 C 0.74253 0.32695 0.92626 0.0
C1046 C 0.7277 0.28062 0.9156 0.0
C1047 C 0.72992 0.29032 0.89769 0.0
C1048 C 0.73581 0.31894 0.89405 0.0
H1049 H 0.73958 0.21801 0.79374 0.0
H1050 H 0.74285 0.2459 0.82143 0.0
C1051 C 0.74202 0.33728 0.90832 0.0
C1052 C 0.73027 0.26959 0.88299 0.0
H1053 H 0.77536 0.2355 0.85413 0.0
C1054 C 0.70466 0.25698 0.87772 0.0
C1055 C 0.7562 0.26149 0.87479 0.0
C1056 C 0.78435 0.2739 0.88063 0.0
C1057 C 0.70415 0.23698 0.8637 0.0
C1058 C 0.73003 0.22935 0.85524 0.0
C1059 C 0.7557 0.24146 0.86087 0.0
C1060 C 0.73059 0.21125 0.83916 0.0
C1061 C 0.676 0.22495 0.85759 0.0
C1062 C 0.72356 0.1824 0.84029 0.0
C1063 C 0.722 0.16623 0.82448 0.0
C1064 C 0.72752 0.17891 0.80752 0.0
C1065 C 0.73585 0.20752 0.80666 0.0
C1066 C 0.73742 0.22356 0.8224 0.0
H1067 H 0.65767 0.2362 0.86385 0.0
H1068 H 0.67402 0.22632 0.84256 0.0
H1069 H 0.67483 0.20217 0.86148 0.0
H1070 H 0.71863 0.17267 0.85329 0.0
H1071 H 0.71561 0.14415 0.82542 0.0
H1072 H 0.26922 0.36273 0.82485 0.0
H1073 H 0.26511 0.33219 0.85183 0.0
H1074 H 0.24275 0.26127 0.81764 0.0
H1075 H 0.2472 0.2911 0.79082 0.0
H1076 H 0.21139 0.26639 0.85134 0.0
H1077 H 0.32938 0.27069 0.85859 0.0
H1078 H 0.31073 0.30412 0.85804 0.0
H1079 H 0.31133 0.2821 0.83815 0.0
C1080 C 0.26277 0.34079 0.82319 0.0
C1081 C 0.25863 0.32924 0.80578 0.0
C1082 C 0.26055 0.32346 0.83852 0.0
C1083 C 0.25413 0.29459 0.83648 0.0
C1084 C 0.24774 0.2836 0.81932 0.0
H1085 H 0.24529 0.143 0.90187 0.0
H1086 H 0.25252 0.17554 0.87619 0.0
C1087 C 0.25002 0.30079 0.80405 0.0
C1088 C 0.25633 0.27494 0.85184 0.0
H1089 H 0.30448 0.24139 0.87915 0.0
C1090 C 0.23165 0.26096 0.85753 0.0
C1091 C 0.283 0.26791 0.85953 0.0
C1092 C 0.31023 0.28178 0.85324 0.0
C1093 C 0.23288 0.23997 0.87095 0.0
C1094 C 0.25958 0.23273 0.87851 0.0
C1095 C 0.28423 0.24694 0.873 0.0
C1096 C 0.26173 0.21185 0.89318 0.0
C1097 C 0.20566 0.22593 0.87711 0.0
C1098 C 0.26629 0.22148 0.9109 0.0
C1099 C 0.26212 0.20316 0.92547 0.0
C1100 C 0.25342 0.17498 0.92243 0.0
C1101 C 0.25169 0.1647 0.90454 0.0
C1102 C 0.25577 0.18316 0.88993 0.0
H1103 H 0.18649 0.23732 0.87204 0.0
H1104 H 0.20502 0.20382 0.8719 0.0
H1105 H 0.2047 0.22494 0.8922 0.0
H1106 H 0.27088 0.24367 0.9135 0.0
H1107 H 0.2632 0.21187 0.93907 0.0
H1108 H 0.24721 0.78958 0.43445 0.0
H1109 H 0.24141 0.75961 0.40789 0.0
H1110 H 0.26048 0.83077 0.37285 0.0
H1111 H 0.26594 0.86143 0.39956 0.0
H1112 H 0.20747 0.76469 0.37497 0.0
H1113 H 0.32486 0.76969 0.36465 0.0
H1114 H 0.30805 0.78082 0.38554 0.0
H1115 H 0.3062 0.80307 0.3657 0.0
C1116 C 0.24903 0.79925 0.42111 0.0
C1117 C 0.25704 0.82784 0.41902 0.0
C1118 C 0.24598 0.782 0.40599 0.0
C1119 C 0.251 0.79307 0.38863 0.0
C1120 C 0.25693 0.82201 0.3863 0.0
H1121 H 0.25666 0.71466 0.28511 0.0
H1122 H 0.26379 0.74529 0.31124 0.0
C1123 C 0.25994 0.8394 0.40148 0.0
C1124 C 0.2523 0.77351 0.37328 0.0
H1125 H 0.29869 0.74114 0.34438 0.0
C1126 C 0.22732 0.75953 0.36819 0.0
C1127 C 0.27846 0.76684 0.36484 0.0
C1128 C 0.30602 0.78068 0.37049 0.0
C1129 C 0.22771 0.73903 0.35451 0.0
C1130 C 0.25389 0.73228 0.34612 0.0
C1131 C 0.27885 0.74634 0.35115 0.0
C1132 C 0.25517 0.7123 0.33099 0.0
C1133 C 0.20015 0.72512 0.34891 0.0
C1134 C 0.24947 0.6834 0.33375 0.0
C1135 C 0.24572 0.66563 0.31882 0.0
C1136 C 0.24758 0.67679 0.30112 0.0
C1137 C 0.25559 0.7053 0.29857 0.0
C1138 C 0.25941 0.72293 0.31345 0.0
H1139 H 0.18131 0.73618 0.35468 0.0
H1140 H 0.19815 0.7248 0.33386 0.0
H1141 H 0.19997 0.70278 0.35381 0.0
H1142 H 0.24649 0.67501 0.34735 0.0
H1143 H 0.23977 0.64367 0.32109 0.0
H1144 H 0.0975 0.41958 0.57485 0.0
H1145 H 0.07473 0.41502 0.60475 0.0
H1146 H 0.99537 0.44417 0.5817 0.0
H1147 H 0.01774 0.44826 0.55186 0.0
H1148 H 0.04871 0.46152 0.62243 0.0
H1149 H 0.97222 0.37392 0.61163 0.0
H1150 H 0.00308 0.3792 0.59733 0.0
H1151 H 0.97125 0.39977 0.59365 0.0
C1152 C 0.07509 0.42459 0.57621 0.0
C1153 C 0.05924 0.43432 0.56122 0.0
C1154 C 0.0622 0.4219 0.59317 0.0
C1155 C 0.03335 0.42858 0.59516 0.0
C1156 C 0.01752 0.43818 0.5802 0.0
H1157 H 0.90591 0.49057 0.65784 0.0
H1158 H 0.93686 0.46541 0.63654 0.0
C1159 C 0.03037 0.44097 0.5633 0.0
C1160 C 0.02015 0.42891 0.61316 0.0
H1161 H 0.95949 0.40858 0.63474 0.0
C1162 C 0.02971 0.44935 0.62552 0.0
C1163 C 0.99545 0.41294 0.61689 0.0
C1164 C 0.98506 0.39003 0.60422 0.0
C1165 C 0.01351 0.45629 0.6408 0.0
C1166 C 0.98766 0.44169 0.64383 0.0
C1167 C 0.97937 0.41961 0.63226 0.0
C1168 C 0.96703 0.45209 0.65715 0.0
C1169 C 0.02286 0.48082 0.6526 0.0
C1170 C 0.97348 0.45187 0.67571 0.0
C1171 C 0.95611 0.46648 0.68781 0.0
C1172 C 0.93199 0.48121 0.68145 0.0
C1173 C 0.92454 0.47962 0.663 0.0
C1174 C 0.94203 0.46514 0.6509 0.0
H1175 H 0.04135 0.49236 0.64676 0.0
H1176 H 0.00513 0.49618 0.65445 0.0
H1177 H 0.02904 0.47269 0.66622 0.0
H1178 H 0.99267 0.44167 0.68066 0.0
H1179 H 0.96255 0.46767 0.70193 0.0
H1180 H 0.62205 0.50676 0.15253 0.0
H1181 H 0.60135 0.53314 0.12713 0.0
H1182 H 0.54528 0.57694 0.16416 0.0
H1183 H 0.56467 0.54965 0.18944 0.0
H1184 H 0.51758 0.54703 0.1384 0.0
H1185 H 0.60108 0.61286 1.10605 0.0
H1186 H 0.6121 0.57672 1.10953 0.0
H1187 H 0.60455 0.59888 0.12887 0.0
C1188 C 0.60572 0.52244 0.15529 0.0
C1189 C 0.59479 0.52593 0.17293 0.0
C1190 C 0.59423 0.53781 0.14082 0.0
C1191 C 0.57206 0.55719 0.14387 0.0
C1192 C 0.56263 0.56228 0.16163 0.0
H1193 H 0.44472 0.60701 1.06363 0.0
H1194 H 0.4743 0.60996 1.09085 0.0
C1195 C 0.57387 0.54674 0.17607 0.0
C1196 C 0.55529 0.56789 0.12842 0.0
H1197 H 0.56062 0.6009 1.08728 0.0
C1198 C 0.52674 0.55943 0.1274 0.0
C1199 C 0.56757 0.58364 0.11408 0.0
C1200 C 0.59796 0.59377 0.11475 0.0
C1201 C 0.51043 0.56505 0.11194 0.0
C1202 C 0.52295 0.58016 1.09737 0.0
C1203 C 0.55117 0.58954 1.09862 0.0
C1204 C 0.50791 0.5835 1.08001 0.0
C1205 C 0.48059 0.55321 1.1109 0.0
C1206 C 0.51796 0.56896 1.0647 0.0
C1207 C 0.50143 0.56765 1.04904 0.0
C1208 C 0.47455 0.5807 1.04858 0.0
C1209 C 0.46539 0.59681 1.06357 0.0
C1210 C 0.48211 0.59836 1.07916 0.0
H1211 H 0.47638 0.53734 0.12179 0.0
H1212 H 0.46502 0.57079 0.11244 0.0
H1213 H 0.47679 0.54296 1.09753 0.0
H1214 H 0.53795 0.55746 1.06518 0.0
H1215 H 0.50928 0.55567 1.03752 0.0
H1216 H 0.29944 0.30444 0.23886 0.0
H1217 H 0.28663 0.35358 0.23116 0.0
H1218 H 0.20099 0.33855 0.24981 0.0
H1219 H 0.21347 0.28951 0.25738 0.0
H1220 H 0.24373 0.37518 0.20765 0.0
H1221 H 0.22601 0.40836 0.27911 0.0
H1222 H 0.24443 0.37594 0.27324 0.0
H1223 H 0.20621 0.37737 0.27267 0.0
C1224 C 0.27782 0.31154 0.24118 0.0
C1225 C 0.25755 0.29315 0.24894 0.0
C1226 C 0.27058 0.33964 0.23684 0.0
C1227 C 0.24303 0.34983 0.24025 0.0
C1228 C 0.22257 0.33131 0.24749 0.0
H1229 H 0.14562 0.50248 0.22881 0.0
H1230 H 0.16435 0.4546 0.23332 0.0
C1231 C 0.22976 0.30329 0.25183 0.0
C1232 C 0.23547 0.37982 0.23628 0.0
H1233 H 0.20986 0.44022 0.25607 0.0
C1234 C 0.2366 0.38955 0.21823 0.0
C1235 C 0.22627 0.39849 0.25015 0.0
C1236 C 0.22588 0.38965 0.26991 0.0
C1237 C 0.22765 0.41717 0.21356 0.0
C1238 C 0.21781 0.43559 0.22738 0.0
C1239 C 0.21734 0.42603 0.24548 0.0
C1240 C 0.2065 0.46441 0.22335 0.0
C1241 C 0.22778 0.42605 0.19383 0.0
C1242 C 0.22395 0.48587 0.21608 0.0
C1243 C 0.21323 0.51343 0.21343 0.0
C1244 C 0.18497 0.51988 0.21812 0.0
C1245 C 0.16749 0.49818 0.22505 0.0
C1246 C 0.17817 0.47079 0.22769 0.0
H1247 H 0.23022 0.40757 0.18458 0.0
H1248 H 0.20783 0.43748 0.19029 0.0
H1249 H 0.24585 0.44073 0.19141 0.0
H1250 H 0.24602 0.48149 0.21291 0.0
H1251 H 0.2272 0.52979 0.20817 0.0
H1252 H 0.46758 0.46264 0.48866 0.0
H1253 H 0.41834 0.45202 0.48035 0.0
H1254 H 0.39148 0.53281 0.502 0.0
H1255 H 0.44069 0.54343 0.51066 0.0
H1256 H 0.35844 0.48483 0.51355 0.0
H1257 H 0.37161 0.48862 0.4385 0.0
H1258 H 0.3969 0.46652 0.45025 0.0
H1259 H 0.397 0.50426 0.45397 0.0
C1260 C 0.45118 0.47807 0.49177 0.0
C1261 C 0.45801 0.50384 0.50037 0.0
C1262 C 0.42312 0.47211 0.48681 0.0
C1263 C 0.40138 0.49181 0.49032 0.0
C1264 C 0.40803 0.51745 0.49904 0.0
H1265 H 0.22229 0.47908 0.45652 0.0
H1266 H 0.27083 0.49706 0.46165 0.0
C1267 C 0.43613 0.52351 0.50392 0.0
C1268 C 0.37155 0.4851 0.4855 0.0
H1269 H 0.32804 0.4694 0.44966 0.0
C1270 C 0.3517 0.48174 0.49958 0.0
C1271 C 0.36284 0.48125 0.46724 0.0
C1272 C 0.3831 0.48557 0.45158 0.0
C1273 C 0.32356 0.47364 0.49593 0.0
C1274 C 0.31512 0.46884 0.47773 0.0
C1275 C 0.33467 0.47308 0.46359 0.0
C1276 C 0.2865 0.4578 0.47334 0.0
C1277 C 0.30309 0.46984 0.51155 0.0
C1278 C 0.27971 0.42964 0.47774 0.0
C1279 C 0.25233 0.41934 0.47469 0.0
C1280 C 0.23113 0.43704 0.46725 0.0
C1281 C 0.23822 0.46499 0.46223 0.0
C1282 C 0.26583 0.47528 0.4652 0.0
H1283 H 0.31117 0.47964 0.52427 0.0
H1284 H 0.28207 0.47932 0.50819 0.0
H1285 H 0.29988 0.4468 0.51408 0.0
H1286 H 0.29548 0.41578 0.48387 0.0
H1287 H 0.24757 0.39769 0.4787 0.0
H1288 H 0.24815 0.69387 0.77673 0.0
H1289 H 0.26207 0.64584 0.76788 0.0
H1290 H 0.24672 0.66675 0.71156 0.0
H1291 H 0.23392 0.7153 0.72022 0.0
H1292 H 0.23244 0.60423 0.75021 0.0
H1293 H 0.32768 0.63591 0.71041 0.0
H1294 H 0.30918 0.66016 0.72527 0.0
H1295 H 0.29519 0.65248 0.70306 0.0
C1296 C 0.24806 0.6884 0.76243 0.0
C1297 C 0.24025 0.70857 0.74917 0.0
C1298 C 0.25578 0.66084 0.75741 0.0
C1299 C 0.25586 0.65284 0.73904 0.0
C1300 C 0.24734 0.67264 0.72579 0.0
H1301 H 0.27453 0.4738 0.70636 0.0
H1302 H 0.25584 0.52228 0.71019 0.0
C1303 C 0.23971 0.70029 0.73079 0.0
C1304 C 0.26504 0.62378 0.73389 0.0
H1305 H 0.31542 0.58719 0.71 0.0
C1306 C 0.25049 0.60046 0.74134 0.0
C1307 C 0.28886 0.61897 0.72254 0.0
C1308 C 0.30634 0.64316 0.71497 0.0
C1309 C 0.25922 0.57243 0.73785 0.0
C1310 C 0.28272 0.5676 0.72623 0.0
C1311 C 0.29716 0.59094 0.71869 0.0
C1312 C 0.29406 0.53863 0.72283 0.0
C1313 C 0.2439 0.54832 0.74722 0.0
C1314 C 0.322 0.53205 0.72805 0.0
C1315 C 0.33273 0.50465 0.7257 0.0
C1316 C 0.31574 0.48319 0.71807 0.0
C1317 C 0.28802 0.48991 0.71233 0.0
C1318 C 0.27728 0.5175 0.71465 0.0
H1319 H 0.23084 0.55589 0.75884 0.0
H1320 H 0.22948 0.53784 0.73735 0.0
H1321 H 0.25923 0.53216 0.75231 0.0
H1322 H 0.33535 0.54801 0.73434 0.0
H1323 H 0.35421 0.50014 0.73023 0.0
H1324 H 0.04613 0.47055 0.96998 0.0
H1325 H 0.09511 0.48214 0.96141 0.0
H1326 H 0.10905 0.51916 1.01424 0.0
H1327 H 0.06012 0.50823 1.02282 0.0
H1328 H 0.12119 0.53602 0.96044 0.0
H1329 H 0.17622 0.46361 1.00865 0.0
H1330 H 0.13893 0.46015 1.00314 0.0
H1331 H 0.15046 0.48645 1.01923 0.0
C1332 C 0.05955 0.48128 0.97976 0.0
C1333 C 0.04917 0.48828 0.99716 0.0
C1334 C 0.08759 0.48772 0.97487 0.0
C1335 C 0.10584 0.50103 0.98731 0.0
C1336 C 0.09553 0.50824 1.00459 0.0
H1337 H 0.25518 0.6013 0.97344 0.0
H1338 H 0.20742 0.58187 0.97662 0.0
C1339 C 0.06753 0.50192 1.00948 0.0
C1340 C 0.13536 0.50844 0.98204 0.0
H1341 H 0.20482 0.49923 0.99439 0.0
C1342 C 0.13951 0.52773 0.96771 0.0
C1343 C 0.15923 0.49735 0.99141 0.0
C1344 C 0.1561 0.47553 1.00636 0.0
C1345 C 0.16687 0.53708 0.96294 0.0
C1346 C 0.19064 0.5271 0.97291 0.0
C1347 C 0.18658 0.50695 0.98679 0.0
C1348 C 0.2196 0.53874 0.96998 0.0
C1349 C 0.17 0.55776 0.94734 0.0
C1350 C 0.24253 0.52087 0.96545 0.0
C1351 C 0.27008 0.53197 0.96369 0.0
C1352 C 0.27503 0.56103 0.96664 0.0
C1353 C 0.25197 0.57884 0.97095 0.0
C1354 C 0.2246 0.5678 0.9727 0.0
H1355 H 0.15183 0.55624 0.93772 0.0
H1356 H 0.1704 0.57974 0.95277 0.0
H1357 H 0.19006 0.554 0.93973 0.0
H1358 H 0.23913 0.49832 0.96346 0.0
H1359 H 0.28752 0.51775 0.96053 0.0
H1360 H 0.77779 0.47579 1.01647 0.0
H1361 H 0.75866 0.52401 1.01154 0.0
H1362 H 0.83625 0.54805 0.98435 0.0
H1363 H 0.85549 0.50045 0.9893 0.0
H1364 H 0.78693 0.58095 1.02136 0.0
H1365 H 0.76815 0.56375 0.94752 0.0
H1366 H 0.77128 0.53471 0.96355 0.0
H1367 H 0.80249 0.55323 0.95601 0.0
C1368 C 0.79079 0.49148 1.0096 0.0
C1369 C 0.81803 0.48433 1.00319 0.0
C1370 C 0.77986 0.51892 1.00678 0.0
C1371 C 0.79595 0.53936 0.99738 0.0
C1372 C 0.82341 0.53245 0.99145 0.0
H1373 H 0.77922 0.7078 0.95371 0.0
H1374 H 0.79258 0.65948 0.9622 0.0
C1375 C 0.83437 0.50525 0.99435 0.0
C1376 C 0.7842 0.56792 0.99341 0.0
H1377 H 0.7637 0.61092 0.95831 0.0
C1378 C 0.7815 0.58752 1.00764 0.0
C1379 C 0.77748 0.57634 0.97545 0.0
C1380 C 0.77976 0.55591 0.95972 0.0
C1381 C 0.77312 0.61575 1.00428 0.0
C1382 C 0.76653 0.62428 0.98626 0.0
C1383 C 0.76872 0.6044 0.97211 0.0
C1384 C 0.7584 0.65395 0.9816 0.0
C1385 C 0.7726 0.63643 1.01994 0.0
C1386 C 0.7346 0.66696 0.98959 0.0
C1387 C 0.72718 0.69491 0.98501 0.0
C1388 C 0.74319 0.71028 0.97213 0.0
C1389 C 0.76674 0.69693 0.96396 0.0
C1390 C 0.77427 0.66914 0.96866 0.0
H1391 H 0.78553 0.6287 1.03161 0.0
H1392 H 0.78073 0.65759 1.01571 0.0
H1393 H 0.75037 0.63907 1.02472 0.0
H1394 H 0.72163 0.65546 0.99929 0.0
H1395 H 0.70904 0.7045 0.99169 0.0
H1396 H 0.54319 0.47326 0.75004 0.0
H1397 H 0.5917 0.48697 0.75838 0.0
H1398 H 0.60269 0.5266 0.70592 0.0
H1399 H 0.55413 0.51366 0.6976 0.0
H1400 H 0.64838 0.48947 0.71722 0.0
H1401 H 0.6189 0.56979 0.76934 0.0
H1402 H 0.60282 0.53532 0.77185 0.0
H1403 H 0.59405 0.55702 0.75251 0.0
C1404 C 0.55579 0.48517 0.74034 0.0
C1405 C 0.5447 0.49236 0.72314 0.0
C1406 C 0.58353 0.49289 0.74512 0.0
C1407 C 0.60065 0.50794 0.7328 0.0
C1408 C 0.5898 0.51492 0.71559 0.0
H1409 H 0.75273 0.60572 0.74422 0.0
H1410 H 0.70467 0.58718 0.74036 0.0
C1411 C 0.56207 0.50735 0.71084 0.0
C1412 C 0.62997 0.5164 0.73771 0.0
H1413 H 0.66789 0.56047 0.76541 0.0
C1414 C 0.65274 0.50483 0.72784 0.0
C1415 C 0.63541 0.53672 0.7514 0.0
C1416 C 0.61157 0.55068 0.76184 0.0
C1417 C 0.68091 0.51314 0.73126 0.0
C1418 C 0.68642 0.53324 0.7451 0.0
C1419 C 0.66362 0.54475 0.75499 0.0
C1420 C 0.71545 0.54428 0.74851 0.0
C1421 C 0.70444 0.50115 0.7196 0.0
C1422 C 0.7374 0.5264 0.75475 0.0
C1423 C 0.76505 0.537 0.75701 0.0
C1424 C 0.77103 0.5656 0.75305 0.0
C1425 C 0.74878 0.58356 0.74735 0.0
C1426 C 0.72129 0.57302 0.74514 0.0
H1427 H 0.69607 0.49032 0.70731 0.0
H1428 H 0.71924 0.51824 0.71523 0.0
H1429 H 0.71679 0.4854 0.72764 0.0
H1430 H 0.73321 0.50423 0.75768 0.0
H1431 H 0.78178 0.52272 0.76144 0.0
H1432 H 0.7914 0.29858 0.49246 0.0
H1433 H 0.77776 0.34691 0.50127 0.0
H1434 H 0.70632 0.34361 0.46458 0.0
H1435 H 0.72015 0.29579 0.45525 0.0
H1436 H 0.76895 0.39641 0.47634 0.0
H1437 H 0.67279 0.36586 0.51573 0.0
H1438 H 0.70107 0.34104 0.51067 0.0
H1439 H 0.67578 0.35063 0.4934 0.0
C1440 C 0.77293 0.3082 0.48612 0.0
C1441 C 0.75678 0.29316 0.4732 0.0
C1442 C 0.7651 0.33574 0.49126 0.0
C1443 C 0.74085 0.34859 0.48374 0.0
C1444 C 0.72484 0.33381 0.47077 0.0
H1445 H 0.64721 0.5041 0.4895 0.0
H1446 H 0.66511 0.45581 0.48576 0.0
C1447 C 0.73272 0.30641 0.46552 0.0
C1448 C 0.73238 0.37766 0.48916 0.0
H1449 H 0.67914 0.41501 0.50972 0.0
C1450 C 0.7495 0.40058 0.48381 0.0
C1451 C 0.70692 0.38285 0.4988 0.0
C1452 C 0.68811 0.35883 0.50514 0.0
C1453 C 0.74125 0.42879 0.48727 0.0
C1454 C 0.7156 0.43407 0.49681 0.0
C1455 C 0.69884 0.41098 0.50249 0.0
C1456 C 0.70472 0.46333 0.49996 0.0
C1457 C 0.75942 0.45261 0.47991 0.0
C1458 C 0.72076 0.48358 0.50955 0.0
C1459 C 0.71062 0.51145 0.51159 0.0
C1460 C 0.68415 0.51932 0.50426 0.0
C1461 C 0.66772 0.49871 0.49529 0.0
C1462 C 0.67793 0.47106 0.49313 0.0
H1463 H 0.77417 0.44511 0.46913 0.0
H1464 H 0.74603 0.46996 0.47422 0.0
H1465 H 0.77243 0.46153 0.49112 0.0
H1466 H 0.74118 0.47791 0.51534 0.0
H1467 H 0.72361 0.52688 0.51866 0.0
H1468 H 0.72002 0.48045 0.26523 0.0
H1469 H 0.76896 0.49816 0.26193 0.0
H1470 H 0.79409 0.41833 0.23802 0.0
H1471 H 0.74575 0.40049 0.24156 0.0
H1472 H 0.83325 0.43762 0.26252 0.0
H1473 H 0.80358 0.52256 0.21335 0.0
H1474 H 0.78529 0.5242 0.23478 0.0
H1475 H 0.77941 0.49458 0.21985 0.0
C1476 C 0.7361 0.46666 0.25944 0.0
C1477 C 0.72906 0.43917 0.25358 0.0
C1478 C 0.76396 0.47685 0.25743 0.0
C1479 C 0.78506 0.45972 0.24944 0.0
C1480 C 0.77817 0.43195 0.24417 0.0
H1481 H 0.94146 0.50246 0.19564 0.0
H1482 H 0.89317 0.48931 0.20451 0.0
C1483 C 0.7505 0.42179 0.2462 0.0
C1484 C 0.81425 0.47058 0.24614 0.0
H1485 H 0.85185 0.52001 0.22201 0.0
C1486 C 0.83733 0.45576 0.25377 0.0
C1487 C 0.81953 0.49392 0.23444 0.0
C1488 C 0.79571 0.50963 0.22497 0.0
C1489 C 0.86554 0.46351 0.24993 0.0
C1490 C 0.87079 0.48715 0.23848 0.0
C1491 C 0.84773 0.50209 0.23095 0.0
C1492 C 0.90004 0.49574 0.23332 0.0
C1493 C 0.88944 0.44566 0.2576 0.0
C1494 C 0.91985 0.5041 0.24655 0.0
C1495 C 0.94763 0.51129 0.24153 0.0
C1496 C 0.95603 0.51047 0.22316 0.0
C1497 C 0.93588 0.50276 0.20993 0.0
C1498 C 0.90818 0.49549 0.21496 0.0
H1499 H 0.88184 0.42452 0.2623 0.0
H1500 H 0.90643 0.44239 0.24732 0.0
H1501 H 0.89891 0.45674 0.26944 0.0
H1502 H 0.91386 0.50495 0.26076 0.0
H1503 H 0.96263 0.517 0.25208 0.0
H1504 H 0.79995 0.80603 0.7377 0.0
H1505 H 0.78697 0.85513 0.73003 0.0
H1506 H 0.70177 0.84021 0.74951 0.0
H1507 H 0.71441 0.79121 0.75706 0.0
H1508 H 0.74373 0.87657 0.70687 0.0
H1509 H 0.7272 0.91025 0.77834 0.0
H1510 H 0.74548 0.87777 0.77244 0.0
H1511 H 0.70725 0.87924 0.77215 0.0
C1512 C 0.77839 0.81315 0.74022 0.0
C1513 C 0.75829 0.7948 0.7482 0.0
C1514 C 0.77106 0.84122 0.7359 0.0
C1515 C 0.74358 0.85144 0.73954 0.0
C1516 C 0.72329 0.83296 0.74701 0.0
H1517 H 0.64581 0.00394 0.72811 0.0
H1518 H 0.6646 0.95609 0.73272 0.0
C1519 C 0.73057 0.80496 0.75134 0.0
C1520 C 0.73593 0.8814 0.73555 0.0
H1521 H 0.71051 0.9419 0.75532 0.0
C1522 C 0.73674 0.891 0.71746 0.0
C1523 C 0.72692 0.90015 0.74942 0.0
C1524 C 0.72688 0.89147 0.7692 0.0
C1525 C 0.72768 0.91857 0.71277 0.0
C1526 C 0.71802 0.93707 0.72659 0.0
C1527 C 0.71786 0.92765 0.74473 0.0
C1528 C 0.70665 0.96585 0.72255 0.0
C1529 C 0.7275 0.92732 0.69302 0.0
C1530 C 0.72402 0.98725 0.71514 0.0
C1531 C 0.71327 0.01478 0.71243 0.0
C1532 C 0.68506 0.02126 0.7172 0.0
C1533 C 0.66764 0.99961 0.72427 0.0
C1534 C 0.67836 0.97225 0.72697 0.0
H1535 H 0.72985 0.90879 0.6838 0.0
H1536 H 0.70747 0.93867 0.68957 0.0
H1537 H 0.74549 0.94203 0.69044 0.0
H1538 H 0.74607 0.98286 0.7119 0.0
H1539 H 0.72719 0.03111 0.70709 0.0
H1540 H 0.71801 0.98187 0.95862 0.0
H1541 H 0.76659 1.00057 0.9619 0.0
H1542 H 0.79549 0.91816 0.98003 0.0
H1543 H 0.74748 0.89942 0.97659 0.0
H1544 H 0.79909 0.00243 0.99371 0.0
H1545 H 0.85384 0.93833 0.94115 0.0
H1546 H 0.81559 0.94162 0.94213 0.0
H1547 H 0.83387 0.91707 0.9569 0.0
C1548 C 0.73487 0.96771 0.96301 0.0
C1549 C 0.72901 0.93917 0.96724 0.0
C1550 C 0.76254 0.9784 0.96494 0.0
C1551 C 0.78475 0.96064 0.97094 0.0
C1552 C 0.77888 0.9321 0.97498 0.0
H1553 H 0.94286 0.99556 1.02472 0.0
H1554 H 0.8942 0.98374 1.01599 0.0
C1555 C 0.75136 0.92146 0.97308 0.0
C1556 C 0.8138 0.97204 0.97395 0.0
H1557 H 0.88365 0.96114 0.96314 0.0
C1558 C 0.81755 0.99366 0.98686 0.0
C1559 C 0.83787 0.96071 0.96494 0.0
C1560 C 0.83513 0.93834 0.95038 0.0
C1561 C 0.84481 0.00353 0.99145 0.0
C1562 C 0.86892 0.99123 0.98305 0.0
C1563 C 0.86513 0.97036 0.96967 0.0
C1564 C 0.89829 0.99911 0.98835 0.0
C1565 C 0.84761 0.02695 1.00532 0.0
C1566 C 0.91693 0.0112 0.9756 0.0
C1567 C 0.9448 0.01817 0.98058 0.0
C1568 C 0.95463 0.01291 0.99838 0.0
C1569 C 0.93588 1.0005 1.01103 0.0
C1570 C 0.90804 0.99367 1.00606 0.0
H1571 H 0.82746 0.03911 1.00682 0.0
H1572 H 0.85293 0.01748 1.01874 0.0
H1573 H 0.86488 0.04191 1.00153 0.0
H1574 H 0.90984 0.01543 0.96184 0.0
H1575 H 0.95852 0.02794 0.97053 0.0
H1576 H 0.77394 0.97735 0.20644 0.0
H1577 H 0.75679 0.02623 0.2111 0.0
H1578 H 0.8404 0.05112 0.22914 0.0
H1579 H 0.85759 0.00273 0.22443 0.0
H1580 H 0.75783 0.05639 0.24469 0.0
H1581 H 0.82021 0.11253 0.19164 0.0
H1582 H 0.81543 0.07444 0.19162 0.0
H1583 H 0.84131 0.0905 0.20638 0.0
C1584 C 0.78873 0.99342 0.21105 0.0
C1585 C 0.81714 0.98631 0.21494 0.0
C1586 C 0.7789 0.02125 0.2138 0.0
C1587 C 0.79742 0.04238 0.22025 0.0
C1588 C 0.82588 0.03534 0.22382 0.0
H1589 H 0.79164 0.21742 0.25389 0.0
H1590 H 0.80399 0.1686 0.24601 0.0
C1591 C 0.83565 0.00763 0.22115 0.0
C1592 C 0.78688 0.07147 0.22421 0.0
H1593 H 0.7979 0.14145 0.21406 0.0
C1594 C 0.7663 0.07501 0.23785 0.0
C1595 C 0.7982 0.0957 0.2154 0.0
C1596 C 0.81984 0.09318 0.20033 0.0
C1597 C 0.75737 0.10221 0.24334 0.0
C1598 C 0.76886 0.12648 0.2346 0.0
C1599 C 0.78911 0.12286 0.22076 0.0
C1600 C 0.76082 0.15588 0.23991 0.0
C1601 C 0.73658 0.10467 0.2589 0.0
C1602 C 0.73242 0.16509 0.23904 0.0
C1603 C 0.72518 0.19295 0.24386 0.0
C1604 C 0.74628 0.2123 0.24943 0.0
C1605 C 0.77474 0.20301 0.25008 0.0
C1606 C 0.7819 0.17514 0.24539 0.0
H1607 H 0.73607 0.08499 0.26729 0.0
H1608 H 0.74199 0.12285 0.26785 0.0
H1609 H 0.7149 0.10821 0.25337 0.0
H1610 H 0.71585 0.15083 0.23447 0.0
H1611 H 0.70304 0.19926 0.24328 0.0
H1612 H 0.75258 0.10495 0.47812 0.0
H1613 H 0.70477 0.08613 0.48233 0.0
H1614 H 0.73156 0.00564 0.4601 0.0
H1615 H 0.78003 0.02434 0.45617 0.0
H1616 H 0.66617 0.06508 0.45829 0.0
H1617 H 0.69699 0.98271 0.50894 0.0
H1618 H 0.72076 0.01075 0.50196 0.0
H1619 H 0.71532 0.98044 0.48755 0.0
C1620 C 0.74833 0.08326 0.47402 0.0
C1621 C 0.7701 0.06604 0.4669 0.0
C1622 C 0.72095 0.07254 0.47644 0.0
C1623 C 0.71465 0.04435 0.4718 0.0
C1624 C 0.7361 0.0273 0.46411 0.0
H1625 H 0.53764 0.98495 0.47016 0.0
H1626 H 0.58631 0.997 0.46127 0.0
C1627 C 0.76368 0.03804 0.46172 0.0
C1628 C 0.68563 0.03313 0.47526 0.0
H1629 H 0.64868 0.98423 0.50025 0.0
C1630 C 0.66234 0.04726 0.46736 0.0
C1631 C 0.68066 0.01023 0.48737 0.0
C1632 C 0.70468 0.99526 0.49711 0.0
C1633 C 0.63423 0.0393 0.47134 0.0
C1634 C 0.62928 0.0161 0.48321 0.0
C1635 C 0.65255 0.00181 0.491 0.0
C1636 C 0.60012 0.00737 0.48854 0.0
C1637 C 0.61012 0.05652 0.46336 0.0
C1638 C 0.59198 0.00826 0.50689 0.0
C1639 C 0.56434 1.00098 0.51205 0.0
C1640 C 0.5442 0.99263 0.49896 0.0
C1641 C 0.55261 0.99116 0.48061 0.0
C1642 C 0.58034 0.99835 0.47547 0.0
H1643 H 0.61745 0.07757 0.45833 0.0
H1644 H 0.60084 0.04484 0.45169 0.0
H1645 H 0.59305 0.05997 0.47356 0.0
H1646 H 0.60695 0.01495 0.51723 0.0
H1647 H 0.55878 0.00179 0.52634 0.0
H1648 H 0.21641 0.19272 0.45068 0.0
H1649 H 0.22604 0.14328 0.45918 0.0
H1650 H 0.2897 0.17131 0.49735 0.0
H1651 H 0.27945 0.22072 0.48951 0.0
H1652 H 0.27608 0.11393 0.45588 0.0
H1653 H 0.24305 0.11686 0.52818 0.0
H1654 H 0.23375 0.14455 0.51217 0.0
H1655 H 0.26844 0.14393 0.52253 0.0
C1656 C 0.23214 0.1884 0.46109 0.0
C1657 C 0.24716 0.21074 0.46939 0.0
C1658 C 0.23772 0.16012 0.46586 0.0
C1659 C 0.25827 0.15362 0.4791 0.0
C1660 C 0.27333 0.17583 0.48738 0.0
H1661 H 0.3555 1.00125 0.49384 0.0
H1662 H 0.33679 0.04868 0.48766 0.0
C1663 C 0.26773 0.20408 0.48266 0.0
C1664 C 0.26506 0.12359 0.48362 0.0
H1665 H 0.27104 0.07675 0.51904 0.0
C1666 C 0.27469 0.10572 0.46966 0.0
C1667 C 0.26289 0.11277 0.50156 0.0
C1668 C 0.2512 0.13044 0.51694 0.0
C1669 C 0.28323 0.07765 0.47325 0.0
C1670 C 0.2825 0.06732 0.49136 0.0
C1671 C 0.27184 0.08481 0.50521 0.0
C1672 C 0.29388 0.03886 0.49621 0.0
C1673 C 0.29305 0.05935 0.45763 0.0
C1674 C 0.27622 0.01789 0.50383 0.0
C1675 C 0.28695 0.99062 0.50752 0.0
C1676 C 0.31552 0.98411 0.50372 0.0
C1677 C 0.33334 0.00556 0.49681 0.0
C1678 C 0.32264 0.03264 0.49314 0.0
H1679 H 0.28465 0.06723 0.44441 0.0
H1680 H 0.31663 0.05982 0.45692 0.0
H1681 H 0.28628 0.03692 0.4595 0.0
H1682 H 0.254 0.02239 0.50647 0.0
H1683 H 0.27278 0.9745 0.51285 0.0
H1684 H 0.05816 0.00446 0.19215 0.0
H1685 H 0.10701 0.0164 0.2006 0.0
H1686 H 0.08911 0.99417 0.25638 0.0
H1687 H 0.03995 0.98343 0.24823 0.0
H1688 H 0.1162 0.04471 0.25365 0.0
H1689 H 0.17308 0.96409 0.2125 0.0
H1690 H 0.14924 0.98577 0.19934 0.0
H1691 H 0.13525 0.9625 0.2166 0.0
C1692 C 0.06457 0.00217 0.20622 0.0
C1693 C 0.04508 0.99288 0.21948 0.0
C1694 C 0.09264 0.00864 0.21099 0.0
C1695 C 0.10188 0.00568 0.22907 0.0
C1696 C 0.08253 0.99635 0.24231 0.0
H1697 H 0.28121 0.02163 0.26172 0.0
H1698 H 0.23266 0.00333 0.25727 0.0
C1699 C 0.05446 0.98999 0.23759 0.0
C1700 C 0.13127 0.01375 0.23437 0.0
H1701 H 0.20142 1.00128 0.22514 0.0
C1702 C 0.13483 0.03502 0.24753 0.0
C1703 C 0.15559 1.00085 0.22657 0.0
C1704 C 0.15318 0.97684 0.2131 0.0
C1705 C 0.16199 0.04434 0.25271 0.0
C1706 C 0.18629 0.0324 0.24429 0.0
C1707 C 0.18279 0.01052 0.23153 0.0
C1708 C 0.21537 0.04342 0.24781 0.0
C1709 C 0.16436 0.0669 0.26719 0.0
C1710 C 0.22173 0.0719 0.24392 0.0
C1711 C 0.24918 0.08232 0.24654 0.0
C1712 C 0.27104 0.06444 0.25291 0.0
C1713 C 0.26473 0.03592 0.25692 0.0
C1714 C 0.23709 0.02545 0.25431 0.0
H1715 H 0.14528 0.06722 0.2761 0.0
H1716 H 0.18351 0.06357 0.27578 0.0
H1717 H 0.16606 0.08806 0.26057 0.0
H1718 H 0.20555 0.086 0.2385 0.0
H1719 H 0.2534 0.10436 0.24318 0.0
H1720 H 0.1446 1.00113 0.99669 0.0
H1721 H 0.16377 0.95412 0.98976 0.0
H1722 H 0.2486 0.98438 1.00087 0.0
H1723 H 0.22932 0.03143 1.00835 0.0
H1724 H 0.19936 0.94053 0.96282 0.0
H1725 H 0.24853 0.9106 1.02879 0.0
H1726 H 0.22444 0.94029 1.02652 0.0
H1727 H 0.26112 0.94385 1.01991 0.0
C1728 C 0.1673 0.99762 0.99801 0.0
C1729 C 0.18546 0.01989 1.00317 0.0
C1730 C 0.17824 0.97077 0.99395 0.0
C1731 C 0.20761 0.96556 0.99493 0.0
C1732 C 0.22581 0.98766 1.0004 0.0
H1733 H 0.30641 0.81667 0.9613 0.0
H1734 H 0.2917 0.865 0.96943 0.0
C1735 C 0.21479 0.01457 1.00463 0.0
C1736 C 0.21904 0.93744 0.98925 0.0
H1737 H 0.25816 0.88034 1.0037 0.0
C1738 C 0.21219 0.92739 0.97179 0.0
C1739 C 0.2358 0.92025 1.00093 0.0
C1740 C 0.24271 0.92913 1.02014 0.0
C1741 C 0.22156 0.90069 0.96575 0.0
C1742 C 0.23823 0.88359 0.97743 0.0
C1743 C 0.2455 0.89369 0.99476 0.0
C1744 C 0.24715 0.85455 0.97219 0.0
C1745 C 0.2136 0.89086 0.94691 0.0
C1746 C 0.22695 0.83275 0.97116 0.0
C1747 C 0.23526 0.80509 0.96677 0.0
C1748 C 0.264 0.79864 0.9632 0.0
C1749 C 0.28416 0.82072 0.9641 0.0
C1750 C 0.27581 0.84839 0.96867 0.0
H1751 H 0.2054 0.90857 0.93834 0.0
H1752 H 0.23222 0.88109 0.94001 0.0
H1753 H 0.19676 0.87443 0.94795 0.0
H1754 H 0.20477 0.83705 0.97409 0.0
H1755 H 0.21919 0.78863 0.96672 0.0
H1756 H 0.45383 0.97349 0.70582 0.0
H1757 H 0.40559 0.96061 0.71493 0.0
H1758 H 0.40226 0.03296 0.75071 0.0
H1759 H 0.45099 0.04562 0.74215 0.0
H1760 H 0.38627 0.95066 0.75313 0.0
H1761 H 0.32913 0.03782 0.71689 0.0
H1762 H 0.36461 0.02673 0.71062 0.0
H1763 H 0.35917 0.0474 0.73078 0.0
C1764 C 0.44306 0.98655 0.71579 0.0
C1765 C 0.45644 0.01057 0.72329 0.0
C1766 C 0.41539 0.97924 0.72087 0.0
C1767 C 0.40036 0.99596 0.73336 0.0
C1768 C 0.41344 0.02001 0.74086 0.0
H1769 H 0.22221 0.97709 0.76782 0.0
H1770 H 0.27113 0.99498 0.76449 0.0
C1771 C 0.44125 0.02724 0.73589 0.0
C1772 C 0.37121 0.98767 0.7388 0.0
H1773 H 0.30124 0.00549 0.73365 0.0
C1774 C 0.36765 0.9627 0.74899 0.0
C1775 C 0.34708 0.00358 0.73346 0.0
C1776 C 0.34995 0.03032 0.72224 0.0
C1777 C 0.34048 0.95301 0.75387 0.0
C1778 C 0.31617 0.96835 0.74799 0.0
C1779 C 0.31983 0.99376 0.73817 0.0
C1780 C 0.28686 0.95738 0.75082 0.0
C1781 C 0.33818 0.92647 0.76535 0.0
C1782 C 0.27943 0.9305 0.74414 0.0
C1783 C 0.25182 0.92023 0.7462 0.0
C1784 C 0.23076 0.93682 0.75469 0.0
C1785 C 0.23805 0.96382 0.76133 0.0
C1786 C 0.26592 0.97404 0.75938 0.0
H1787 H 0.35758 0.92323 0.77376 0.0
H1788 H 0.31941 0.92729 0.7745 0.0
H1789 H 0.33602 0.90775 0.75631 0.0
H1790 H 0.2949 0.91758 0.73701 0.0
H1791 H 0.24684 0.89944 0.74077 0.0
H1792 H 0.32504 0.08539 0.18437 0.0
H1793 H 0.29847 0.07939 0.15594 0.0
H1794 H 0.23836 0.14302 0.17314 0.0
H1795 H 0.26453 0.14857 0.2018 0.0
H1796 H 0.20911 0.10311 0.15716 0.0
H1797 H 0.29852 0.12425 1.11044 0.0
H1798 H 0.30585 0.0948 0.12524 0.0
H1799 H 0.30143 0.12991 0.1346 0.0
C1800 C 0.30638 0.09847 0.18211 0.0
C1801 C 0.29758 0.1179 0.19567 0.0
C1802 C 0.29105 0.09509 0.16557 0.0
C1803 C 0.26625 0.11112 0.16165 0.0
C1804 C 0.2573 0.13031 0.1753 0.0
H1805 H 0.19311 0.13321 1.05138 0.0
H1806 H 0.21861 0.13608 1.08021 0.0
C1807 C 0.27259 0.13367 0.19185 0.0
C1808 C 0.24952 0.10768 0.14372 0.0
H1809 H 0.25641 0.10608 1.09699 0.0
C1810 C 0.21967 0.10381 0.14406 0.0
C1811 C 0.26244 0.10889 0.12618 0.0
C1812 C 0.29375 0.11498 0.12402 0.0
C1813 C 0.20297 0.10093 0.12793 0.0
C1814 C 0.21605 0.10123 1.11043 0.0
C1815 C 0.24584 0.10537 1.11009 0.0
C1816 C 0.1994 0.0989 1.09242 0.0
C1817 C 0.17113 0.09859 0.12989 0.0
C1818 C 0.17964 0.07684 1.08882 0.0
C1819 C 0.16462 0.07516 1.072 0.0
C1820 C 0.16875 0.09543 1.05802 0.0
C1821 C 0.18871 0.11722 1.06162 0.0
C1822 C 0.20367 0.11884 1.07831 0.0
H1823 H 0.16373 0.10707 0.14316 0.0
H1824 H 0.15996 0.11026 0.11884 0.0
H1825 H 0.16493 0.07587 0.12921 0.0
H1826 H 0.17607 0.06045 1.09891 0.0
H1827 H 0.14994 0.05776 1.06992 0.0
H1828 H 0.60903 0.43064 0.30421 0.0
H1829 H 0.60598 0.45626 0.33318 0.0
H1830 H 0.69547 0.44272 0.34198 0.0
H1831 H 0.69855 0.41654 0.31303 0.0
H1832 H 0.62051 0.43791 0.37054 0.0
H1833 H 0.68572 0.53063 0.3498 0.0
H1834 H 0.66967 0.50706 0.33338 0.0
H1835 H 0.70068 0.49598 0.34575 0.0
C1836 C 0.62816 0.43278 0.31229 0.0
C1837 C 0.65403 0.4209 0.30595 0.0
C1838 C 0.62636 0.44768 0.32904 0.0
C1839 C 0.65045 0.45209 0.34017 0.0
C1840 C 0.67638 0.44023 0.3339 0.0
H1841 H 0.6788 0.55703 0.44008 0.0
H1842 H 0.68285 0.52971 0.4119 0.0
C1843 C 0.6781 0.42486 0.31724 0.0
C1844 C 0.64816 0.46863 0.3582 0.0
H1845 H 0.66923 0.52996 0.37998 0.0
C1846 C 0.63122 0.45805 0.37254 0.0
C1847 C 0.66215 0.49496 0.36138 0.0
C1848 C 0.68047 0.5081 0.3468 0.0
C1849 C 0.62841 0.47224 0.38963 0.0
C1850 C 0.64166 0.4992 0.39272 0.0
C1851 C 0.65867 0.50969 0.37824 0.0
C1852 C 0.63874 0.5165 0.41065 0.0
C1853 C 0.61216 0.45705 0.40441 0.0
C1854 C 0.61258 0.51951 0.42014 0.0
C1855 C 0.61041 0.5348 0.43681 0.0
C1856 C 0.63399 0.54893 0.44457 0.0
C1857 C 0.65988 0.54686 0.4348 0.0
C1858 C 0.66222 0.53098 0.41839 0.0
H1859 H 0.61265 0.43364 0.40242 0.0
H1860 H 0.62095 0.46173 0.41808 0.0
H1861 H 0.58953 0.46376 0.40392 0.0
H1862 H 0.59342 0.51024 0.41465 0.0
H1863 H 0.58996 0.53573 0.44357 0.0
H1864 H 0.23733 0.85634 0.70368 0.0
H1865 H 0.26401 0.86249 0.67532 0.0
H1866 H 0.19963 0.92009 0.6556 0.0
H1867 H 0.17346 0.91477 0.68426 0.0
H1868 H 0.25923 0.85108 0.64214 0.0
H1869 H 0.26381 0.9681 0.64157 0.0
H1870 H 0.25027 0.94862 0.66083 0.0
H1871 H 0.2277 0.95603 0.64152 0.0
C1872 C 0.22867 0.87036 0.69336 0.0
C1873 C 0.20282 0.88493 0.69668 0.0
C1874 C 0.24418 0.87396 0.67691 0.0
C1875 C 0.23477 0.89239 0.66287 0.0
C1876 C 0.20854 0.90646 0.66602 0.0
H1877 H 0.30239 0.87369 0.55019 0.0
H1878 H 0.27649 0.87057 0.57874 0.0
C1879 C 0.19312 0.90303 0.68255 0.0
C1880 C 0.25192 0.896 0.64504 0.0
H1881 H 0.27735 0.94513 0.61401 0.0
C1882 C 0.26313 0.87181 0.63618 0.0
C1883 C 0.25818 0.92285 0.63683 0.0
C1884 C 0.24965 0.95038 0.64577 0.0
C1885 C 0.27938 0.87348 0.61982 0.0
C1886 C 0.28432 0.90017 0.61108 0.0
C1887 C 0.27364 0.92446 0.62011 0.0
C1888 C 0.30028 0.90318 0.5928 0.0
C1889 C 0.2919 0.84626 0.6125 0.0
C1890 C 0.32195 0.9237 0.58995 0.0
C1891 C 0.33677 0.92602 0.57306 0.0
C1892 C 0.33063 0.90784 0.55828 0.0
C1893 C 0.30859 0.88782 0.56109 0.0
C1894 C 0.29365 0.88579 0.57776 0.0
H1895 H 0.29531 0.83043 0.62354 0.0
H1896 H 0.27686 0.83675 0.60262 0.0
H1897 H 0.31258 0.85001 0.60562 0.0
H1898 H 0.32774 0.9379 0.6009 0.0
H1899 H 0.35315 0.94202 0.57164 0.0
H1900 H 0.88125 0.55543 0.79891 0.0
H1901 H 0.88412 0.52982 0.82769 0.0
H1902 H 0.81464 0.57982 0.84863 0.0
H1903 H 0.81087 0.60473 0.81924 0.0
H1904 H 0.89782 0.5391 0.85958 0.0
H1905 H 0.78543 0.50768 0.86688 0.0
H1906 H 0.7987 0.52395 0.84637 0.0
H1907 H 0.78911 0.54553 0.86567 0.0
C1908 C 0.86637 0.56114 0.80953 0.0
C1909 C 0.84578 0.58258 0.80632 0.0
C1910 C 0.86808 0.54623 0.82629 0.0
C1911 C 0.84939 0.55191 0.8409 0.0
C1912 C 0.829 0.57374 0.83782 0.0
H1913 H 0.89855 0.49061 0.95257 0.0
H1914 H 0.89259 0.51718 0.92419 0.0
C1915 C 0.82703 0.58849 0.82087 0.0
C1916 C 0.8522 0.53553 0.85912 0.0
H1917 H 0.8149 0.50016 0.89276 0.0
C1918 C 0.87947 0.53062 0.86666 0.0
C1919 C 0.8288 0.52346 0.86883 0.0
C1920 C 0.79891 0.52512 0.86145 0.0
C1921 C 0.88397 0.51481 0.88302 0.0
C1922 C 0.86052 0.50387 0.89319 0.0
C1923 C 0.83322 0.50848 0.88557 0.0
C1924 C 0.86388 0.48735 0.91134 0.0
C1925 C 0.91429 0.50913 0.8887 0.0
C1926 C 0.84904 0.46168 0.9148 0.0
C1927 C 0.85215 0.44641 0.93147 0.0
C1928 C 0.8703 0.45599 0.94556 0.0
C1929 C 0.88484 0.4818 0.94218 0.0
C1930 C 0.88153 0.49716 0.92562 0.0
H1931 H 0.92893 0.5097 0.87684 0.0
H1932 H 0.92123 0.52593 0.89828 0.0
H1933 H 0.9165 0.48811 0.89545 0.0
H1934 H 0.83501 0.45316 0.90449 0.0
H1935 H 0.84009 0.42703 0.93332 0.0
H1936 H 0.80831 0.87047 0.17006 0.0
H1937 H 0.78326 0.86671 0.14118 0.0
H1938 H 0.82424 0.94313 0.12235 0.0
H1939 H 0.85014 0.94659 0.15138 0.0
H1940 H 0.7451 0.89423 0.12435 0.0
H1941 H 0.83732 0.89818 1.07794 0.0
H1942 H 0.84146 0.89518 1.10224 0.0
H1943 H 0.83487 0.92932 1.09187 0.0
C1944 C 0.81252 0.88644 0.15978 0.0
C1945 C 0.832 0.90867 0.16337 0.0
C1946 C 0.79779 0.8843 0.14304 0.0
C1947 C 0.80171 0.9042 0.12887 0.0
C1948 C 0.821 0.92671 0.13245 0.0
H1949 H 0.6739 0.91288 1.03809 0.0
H1950 H 0.70048 0.91913 1.06638 0.0
C1951 C 0.8359 0.92883 0.1493 0.0
C1952 C 0.78508 0.90136 1.11085 0.0
H1953 H 0.7917 0.90088 1.06408 0.0
C1954 C 0.75554 0.89572 1.11123 0.0
C1955 C 0.79799 0.9026 1.09331 0.0
C1956 C 0.82967 0.90635 1.09124 0.0
C1957 C 0.73902 0.89159 1.09517 0.0
C1958 C 0.75167 0.89393 1.07759 0.0
C1959 C 0.78129 0.89931 1.0772 0.0
C1960 C 0.7349 0.89033 1.05965 0.0
C1961 C 0.70817 0.88357 1.09745 0.0
C1962 C 0.74501 0.87282 1.0454 0.0
C1963 C 0.72972 0.8695 1.02882 0.0
C1964 C 0.70353 0.88357 1.0256 0.0
C1965 C 0.69354 0.90121 1.0398 0.0
C1966 C 0.70889 0.90466 1.05631 0.0
H1967 H 0.7043 0.87327 1.11085 0.0
H1968 H 0.69488 0.90306 1.09685 0.0
H1969 H 0.70109 0.8688 1.08661 0.0
H1970 H 0.76488 0.86144 1.04708 0.0
H1971 H 0.73872 0.85601 1.01838 0.0
H1972 H 0.30915 0.59847 0.90348 0.0
H1973 H 0.31283 0.57263 0.87443 0.0
H1974 H 0.3883 0.53031 0.8938 0.0
H1975 H 0.38449 0.55555 0.92266 0.0
H1976 H 0.3492 0.56962 0.84688 0.0
H1977 H 0.3481 0.46173 0.87626 0.0
H1978 H 0.34063 0.49277 0.88977 0.0
H1979 H 0.37686 0.48233 0.88525 0.0
C1980 C 0.32656 0.58367 0.90162 0.0
C1981 C 0.34645 0.57947 0.91583 0.0
C1982 C 0.3287 0.5687 0.88482 0.0
C1983 C 0.35058 0.54855 0.88152 0.0
C1984 C 0.37062 0.54478 0.89566 0.0
H1985 H 0.40032 0.48755 0.77024 0.0
H1986 H 0.3955 0.51324 0.79905 0.0
C1987 C 0.36856 0.55972 0.91235 0.0
C1988 C 0.35287 0.53206 0.86343 0.0
H1989 H 0.36213 0.46511 0.84514 0.0
C1990 C 0.35194 0.54674 0.84664 0.0
C1991 C 0.35599 0.50191 0.86246 0.0
C1992 C 0.35515 0.48372 0.87937 0.0
C1993 C 0.3546 0.53274 0.82949 0.0
C1994 C 0.35901 0.50271 0.82853 0.0
C1995 C 0.35925 0.48798 0.84533 0.0
C1996 C 0.36276 0.48621 0.81049 0.0
C1997 C 0.35176 0.55053 0.8125 0.0
C1998 C 0.34715 0.46114 0.8068 0.0
C1999 C 0.35025 0.44596 0.79018 0.0
C2000 C 0.36934 0.45487 0.7764 0.0
C2001 C 0.38536 0.47961 0.78022 0.0
C2002 C 0.38228 0.49477 0.79685 0.0
H2003 H 0.3394 0.57026 0.81509 0.0
H2004 H 0.37325 0.55694 0.80781 0.0
H2005 H 0.34114 0.53856 0.80142 0.0
H2006 H 0.33198 0.45341 0.81672 0.0
H2007 H 0.33726 0.42728 0.78806 0.0
H2008 H 0.64739 0.06233 0.65057 0.0
H2009 H 0.67243 0.06598 0.62125 0.0
H2010 H 0.72265 0.13502 0.64227 0.0
H2011 H 0.69708 0.13219 0.671 0.0
H2012 H 0.7124 0.14877 0.6101 0.0
H2013 H 0.74564 0.03666 0.60392 0.0
H2014 H 0.70771 0.04011 0.60507 0.0
H2015 H 0.72924 0.05021 0.62429 0.0
C2016 C 0.66369 0.07836 0.64897 0.0
C2017 C 0.66974 0.09698 0.66352 0.0
C2018 C 0.6785 0.08027 0.63207 0.0
C2019 C 0.70039 0.10052 0.62907 0.0
C2020 C 0.70617 0.1191 0.64366 0.0
H2021 H 0.82681 0.09195 0.53802 0.0
H2022 H 0.80043 0.08723 0.56671 0.0
C2023 C 0.69129 0.11741 0.66037 0.0
C2024 C 0.71681 0.10324 0.61094 0.0
H2025 H 0.75327 0.06587 0.57793 0.0
C2026 C 0.72128 0.13044 0.60321 0.0
C2027 C 0.72938 0.07986 0.60155 0.0
C2028 C 0.72806 0.05012 0.60921 0.0
C2029 C 0.73715 0.13485 0.58691 0.0
C2030 C 0.74866 0.11139 0.57707 0.0
C2031 C 0.74449 0.08418 0.58489 0.0
C2032 C 0.76534 0.11464 0.55905 0.0
C2033 C 0.74224 0.1651 0.5809 0.0
C2034 C 0.7551 0.1314 0.5444 0.0
C2035 C 0.77055 0.13446 0.52788 0.0
C2036 C 0.7969 0.12059 0.52498 0.0
C2037 C 0.80697 0.10345 0.5395 0.0
C2038 C 0.79158 0.10054 0.55608 0.0
H2039 H 0.74111 0.18004 0.59257 0.0
H2040 H 0.76334 0.16753 0.57431 0.0
H2041 H 0.72547 0.17144 0.57107 0.0
H2042 H 0.7347 0.14191 0.54552 0.0
H2043 H 0.7614 0.1474 0.51717 0.0
H2044 H 0.11943 0.44833 0.42216 0.0
H2045 H 0.11584 0.47308 0.39307 0.0
H2046 H 0.18874 0.42693 0.37338 0.0
H2047 H 0.19205 0.40146 0.4026 0.0
H2048 H 0.1455 0.50905 0.37511 0.0
H2049 H 0.14002 0.41537 0.33019 0.0
H2050 H 0.13801 0.4123 0.35459 0.0
H2051 H 0.17199 0.41587 0.34349 0.0
C2052 C 0.13464 0.44296 0.41166 0.0
C2053 C 0.15584 0.42217 0.41506 0.0
C2054 C 0.13262 0.4575 0.3948 0.0
C2055 C 0.15156 0.45201 0.38033 0.0
C2056 C 0.17305 0.43144 0.38374 0.0
H2057 H 0.1648 0.57517 0.28693 0.0
H2058 H 0.17083 0.54919 0.3156 0.0
C2059 C 0.1751 0.4168 0.4007 0.0
C2060 C 0.14884 0.46824 0.36214 0.0
H2061 H 0.14512 0.46017 0.31554 0.0
C2062 C 0.14545 0.49813 0.36215 0.0
C2063 C 0.14811 0.45473 0.3448 0.0
C2064 C 0.14942 0.4228 0.3432 0.0
C2065 C 0.14173 0.5144 0.3459 0.0
C2066 C 0.14205 0.50102 0.3285 0.0
C2067 C 0.14513 0.47108 0.3285 0.0
C2068 C 0.13856 0.5174 0.31038 0.0
C2069 C 0.13638 0.54587 0.34779 0.0
C2070 C 0.11909 0.50846 0.29687 0.0
C2071 C 0.11576 0.52339 0.28014 0.0
C2072 C 0.1318 0.54802 0.276 0.0
C2073 C 0.15149 0.55681 0.28942 0.0
C2074 C 0.15488 0.54182 0.30612 0.0
H2075 H 0.12745 0.55114 0.36136 0.0
H2076 H 0.15682 0.55742 0.34637 0.0
H2077 H 0.12142 0.55374 0.33722 0.0
H2078 H 0.10615 0.4898 0.29927 0.0
H2079 H 0.10064 0.51534 0.27031 0.0
H2080 H 0.69018 0.63448 0.55029 0.0
H2081 H 0.71616 0.63773 0.57891 0.0
H2082 H 0.67643 0.56063 0.59759 0.0
H2083 H 0.6499 0.55739 0.56869 0.0
H2084 H 0.67949 0.59681 0.62577 0.0
H2085 H 0.78636 0.59761 0.59498 0.0
H2086 H 0.76489 0.62617 0.5864 0.0
H2087 H 0.75491 0.5899 0.58186 0.0
C2088 C 0.68667 0.61807 0.56039 0.0
C2089 C 0.66743 0.59564 0.55674 0.0
C2090 C 0.70207 0.61983 0.57695 0.0
C2091 C 0.69928 0.59919 0.59083 0.0
C2092 C 0.6796 0.57698 0.5874 0.0
H2093 H 0.82403 0.58662 0.68307 0.0
H2094 H 0.79699 0.58081 0.65472 0.0
C2095 C 0.66421 0.57511 0.5707 0.0
C2096 C 0.71639 0.60121 0.60875 0.0
H2097 H 0.7839 0.61112 0.62621 0.0
C2098 C 0.70235 0.59985 0.62572 0.0
C2099 C 0.74655 0.60471 0.60936 0.0
C2100 C 0.76412 0.60438 0.5922 0.0
C2101 C 0.71695 0.60255 0.64271 0.0
C2102 C 0.74694 0.60737 0.6433 0.0
C2103 C 0.76107 0.60794 0.62631 0.0
C2104 C 0.76401 0.61136 0.66114 0.0
C2105 C 0.69983 0.59937 0.65993 0.0
C2106 C 0.75566 0.63092 0.67476 0.0
C2107 C 0.77136 0.63435 0.69118 0.0
C2108 C 0.79644 0.61861 0.69484 0.0
C2109 C 0.8051 0.59941 0.68108 0.0
C2110 C 0.7894 0.59601 0.66464 0.0
H2111 H 0.68019 0.58678 0.65758 0.0
H2112 H 0.71239 0.58884 0.67082 0.0
H2113 H 0.69325 0.62072 0.66473 0.0
H2114 H 0.73694 0.64394 0.6727 0.0
H2115 H 0.76356 0.64937 0.70115 0.0
H2116 H 0.18918 0.89866 0.82134 0.0
H2117 H 0.18509 0.9238 0.85065 0.0
H2118 H 0.11632 0.97405 0.82891 0.0
H2119 H 0.11941 0.94836 0.80032 0.0
H2120 H 0.1916 0.97402 0.86381 0.0
H2121 H 0.07732 0.95447 0.87389 0.0
H2122 H 0.0969 0.9376 0.85585 0.0
H2123 H 0.08292 0.97311 0.85295 0.0
C2124 C 0.17286 0.91475 0.82288 0.0
C2125 C 0.15427 0.92066 0.80821 0.0
C2126 C 0.17056 0.92941 0.83979 0.0
C2127 C 0.14966 0.95072 0.84277 0.0
C2128 C 0.13185 0.95715 0.82784 0.0
H2129 H 0.16065 0.0773 0.93404 0.0
H2130 H 0.16592 0.05123 0.9054 0.0
C2131 C 0.13386 0.94234 0.81115 0.0
C2132 C 0.14668 0.96651 0.86108 0.0
H2133 H 0.09764 0.99083 0.89235 0.0
C2134 C 0.17095 0.97745 0.87 0.0
C2135 C 0.12003 0.97105 0.86994 0.0
C2136 C 0.09289 0.95817 0.86277 0.0
C2137 C 0.16935 0.99279 0.88673 0.0
C2138 C 0.14251 0.9987 0.89505 0.0
C2139 C 0.11835 0.98721 0.8863 0.0
C2140 C 0.13889 0.01578 0.91286 0.0
C2141 C 0.19689 0.0016 0.89558 0.0
C2142 C 0.12082 0.00614 0.927 0.0
C2143 C 0.11723 0.02159 0.94344 0.0
C2144 C 0.13146 0.04759 0.94664 0.0
C2145 C 0.14918 0.05752 0.93242 0.0
C2146 C 0.15259 0.04216 0.9159 0.0
H2147 H 0.21478 0.98764 0.89132 0.0
H2148 H 0.20218 0.0236 0.89131 0.0
H2149 H 0.19534 1.00091 0.91064 0.0
H2150 H 0.10964 0.98618 0.92549 0.0
H2151 H 0.10351 0.01276 0.95384 0.0
H2152 H 0.83982 0.45326 1.06474 0.0
H2153 H 0.81275 0.45028 1.09349 0.0
H2154 H 0.79797 0.36128 1.08415 0.0
H2155 H 0.8244 0.3642 1.05551 0.0
H2156 H 0.75142 0.42867 1.09935 0.0
H2157 H 0.83079 0.36495 0.13771 0.0
H2158 H 0.84042 0.38619 0.11814 0.0
H2159 H 0.82214 0.3531 0.11512 0.0
C2160 C 0.83114 0.43293 1.06886 0.0
C2161 C 0.83496 0.40893 1.05755 0.0
C2162 C 0.81535 0.43125 1.08539 0.0
C2163 C 0.80313 0.40542 1.09149 0.0
C2164 C 0.80715 0.38149 1.08024 0.0
H2165 H 0.71741 0.34558 0.19325 0.0
H2166 H 0.74376 0.35043 0.16455 0.0
C2167 C 0.82248 0.38324 1.06367 0.0
C2168 C 0.78607 0.40326 1.1093 0.0
H2169 H 0.78666 0.37286 0.15202 0.0
C2170 C 0.75929 0.41659 1.11089 0.0
C2171 C 0.7955 0.38709 0.12452 0.0
C2172 C 0.82384 0.37208 0.12399 0.0
C2173 C 0.74182 0.41379 0.12672 0.0
C2174 C 0.75153 0.3982 0.1423 0.0
C2175 C 0.7785 0.38495 0.14058 0.0
C2176 C 0.73428 0.39507 0.16021 0.0
C2177 C 0.71239 0.42656 0.12593 0.0
C2178 C 0.71969 0.41819 0.1683 0.0
C2179 C 0.70368 0.41512 0.1846 0.0
C2180 C 0.70214 0.38898 0.19413 0.0
C2181 C 0.71743 0.36603 0.18645 0.0
C2182 C 0.73289 0.36894 0.16987 0.0
H2183 H 0.70454 0.428 0.1117 0.0
H2184 H 0.69689 0.41389 0.13392 0.0
H2185 H 0.71308 0.44851 0.1314 0.0
H2186 H 0.72098 0.43911 0.16224 0.0
H2187 H 0.69309 0.43371 0.19003 0.0
H2188 H 0.34008 0.92639 0.43412 0.0
H2189 H 0.33534 0.95238 0.40525 0.0
H2190 H 0.39076 0.01772 0.42569 0.0
H2191 H 0.39638 0.9913 0.45417 0.0
H2192 H 0.31441 0.99898 0.39344 0.0
H2193 H 0.42864 0.01093 0.37871 0.0
H2194 H 0.41617 0.98906 0.39718 0.0
H2195 H 0.41997 0.02696 0.40007 0.0
C2196 C 0.35175 0.94604 0.43244 0.0
C2197 C 0.36918 0.95605 0.44677 0.0
C2198 C 0.34883 0.96122 0.41574 0.0
C2199 C 0.36316 0.98723 0.41249 0.0
C2200 C 0.38012 0.99745 0.42699 0.0
H2201 H 0.31012 0.10331 0.3199 0.0
H2202 H 0.31378 0.07856 0.34933 0.0
C2203 C 0.38324 0.98218 0.4436 0.0
C2204 C 0.35993 0.00364 0.39432 0.0
H2205 H 0.39733 0.03948 0.36102 0.0
C2206 C 0.33273 0.00766 0.38642 0.0
C2207 C 0.38341 0.01503 0.38437 0.0
C2208 C 0.41368 0.01003 0.3904 0.0
C2209 C 0.32843 0.02246 0.36962 0.0
C2210 C 0.35181 0.03495 0.36013 0.0
C2211 C 0.37899 0.03066 0.36794 0.0
C2212 C 0.3491 0.0512 0.34188 0.0
C2213 C 0.2987 0.02348 0.36193 0.0
C2214 C 0.36814 0.04576 0.32742 0.0
C2215 C 0.36647 0.06057 0.31063 0.0
C2216 C 0.3456 0.08167 0.30726 0.0
C2217 C 0.32651 0.08734 0.32167 0.0
C2218 C 0.32842 0.07268 0.33864 0.0
H2219 H 0.28544 0.00579 0.36726 0.0
H2220 H 0.28838 0.04371 0.36601 0.0
H2221 H 0.29888 0.02225 0.34685 0.0
H2222 H 0.3844 0.0296 0.32897 0.0
H2223 H 0.38161 0.05507 0.30011 0.0
H2224 H 0.35387 0.44114 0.65173 0.0
H2225 H 0.32892 0.43749 0.62239 0.0
H2226 H 0.27822 0.36885 0.6437 0.0
H2227 H 0.30375 0.37161 0.67245 0.0
H2228 H 0.28831 0.35487 0.61172 0.0
H2229 H 0.25617 0.46724 0.6047 0.0
H2230 H 0.29407 0.46346 0.60586 0.0
H2231 H 0.27247 0.45376 0.62517 0.0
C2232 C 0.33748 0.42518 0.65019 0.0
C2233 C 0.3313 0.40664 0.66482 0.0
C2234 C 0.32273 0.42329 0.63328 0.0
C2235 C 0.30073 0.40315 0.63036 0.0
C2236 C 0.2948 0.38466 0.64503 0.0
H2237 H 0.17442 0.41264 0.5394 0.0
H2238 H 0.20099 0.41714 0.56801 0.0
C2239 C 0.30965 0.38632 0.66175 0.0
C2240 C 0.28434 0.40044 0.61223 0.0
H2241 H 0.24831 0.43788 0.57892 0.0
C2242 C 0.2796 0.37322 0.6047 0.0
C2243 C 0.27204 0.42387 0.60266 0.0
C2244 C 0.27364 0.45368 0.61008 0.0
C2245 C 0.26367 0.36881 0.58844 0.0
C2246 C 0.25239 0.3923 0.57843 0.0
C2247 C 0.25689 0.41955 0.58603 0.0
C2248 C 0.23558 0.38908 0.56048 0.0
C2249 C 0.25823 0.33856 0.58267 0.0
C2250 C 0.24545 0.37198 0.54595 0.0
C2251 C 0.22987 0.36902 0.5295 0.0
C2252 C 0.20377 0.38335 0.52653 0.0
C2253 C 0.19406 0.4008 0.54093 0.0
C2254 C 0.20956 0.40358 0.55747 0.0
H2255 H 0.25924 0.32373 0.59445 0.0
H2256 H 0.23709 0.33629 0.57612 0.0
H2257 H 0.2749 0.33194 0.57287 0.0
H2258 H 0.26569 0.36117 0.54711 0.0
H2259 H 0.23875 0.35585 0.51886 0.0
H2260 H 0.87957 0.05112 0.42251 0.0
H2261 H 0.88277 0.02568 0.39384 0.0
H2262 H 0.81778 0.07969 0.37104 0.0
H2263 H 0.81359 0.10471 0.40037 0.0
H2264 H 0.80923 0.02951 0.35788 0.0
H2265 H 0.92463 0.04435 0.34958 0.0
H2266 H 0.91732 0.02584 0.37036 0.0
H2267 H 0.90506 0.06193 0.36735 0.0
C2268 C 0.86599 0.05801 0.41144 0.0
C2269 C 0.8466 0.08069 0.41407 0.0
C2270 C 0.86807 0.04334 0.39473 0.0
C2271 C 0.85133 0.05088 0.3795 0.0
C2272 C 0.83144 0.07321 0.38216 0.0
H2273 H 0.89752 0.98875 0.26858 0.0
H2274 H 0.89201 0.01512 0.29707 0.0
C2275 C 0.8291 0.08779 0.39908 0.0
C2276 C 0.85432 0.03517 0.36122 0.0
H2277 H 0.90338 0.00928 0.33051 0.0
C2278 C 0.82992 0.02532 0.35195 0.0
C2279 C 0.88107 0.02966 0.35274 0.0
C2280 C 0.90845 0.04127 0.36042 0.0
C2281 C 0.83146 0.01009 0.3352 0.0
C2282 C 0.85832 0.00324 0.32723 0.0
C2283 C 0.88265 0.01366 0.33632 0.0
C2284 C 0.86178 0.98623 0.30942 0.0
C2285 C 0.80389 0.00239 0.32597 0.0
C2286 C 0.84736 0.96029 0.30624 0.0
C2287 C 0.85045 0.94505 0.28967 0.0
C2288 C 0.86852 0.95467 0.27553 0.0
C2289 C 0.88353 0.98017 0.27891 0.0
C2290 C 0.88028 0.9955 0.29542 0.0
H2291 H 0.78639 0.01693 0.33008 0.0
H2292 H 0.80594 0.00321 0.31093 0.0
H2293 H 0.7977 0.98054 0.33005 0.0
H2294 H 0.83366 0.95153 0.31665 0.0
H2295 H 0.8384 0.92565 0.28791 0.0
H2296 H 0.14809 0.55845 0.15204 0.0
H2297 H 0.17367 0.56129 0.12288 0.0
H2298 H 0.22078 0.63339 0.14261 0.0
H2299 H 0.1946 0.63134 0.17117 0.0
H2300 H 0.21081 0.64473 1.11003 0.0
H2301 H 0.2483 0.53361 1.10709 0.0
H2302 H 0.21024 0.5357 1.10775 0.0
H2303 H 0.23083 0.54778 0.12692 0.0
C2304 C 0.1638 0.57501 0.15018 0.0
C2305 C 0.1688 0.59471 0.1643 0.0
C2306 C 0.17892 0.57644 0.13339 0.0
C2307 C 0.20013 0.59729 0.1301 0.0
C2308 C 0.20485 0.61697 0.14425 0.0
H2309 H 0.32933 0.58785 1.04088 0.0
H2310 H 0.30219 0.58385 1.06933 0.0
C2311 C 0.18963 0.61574 0.16085 0.0
C2312 C 0.21689 0.59949 0.11209 0.0
H2313 H 0.2555 0.56143 1.08045 0.0
C2314 C 0.22054 0.62633 1.10371 0.0
C2315 C 0.23052 0.57599 1.10345 0.0
C2316 C 0.23008 0.54671 0.11184 0.0
C2317 C 0.23666 0.63029 1.08747 0.0
C2318 C 0.24928 0.60666 1.07839 0.0
C2319 C 0.24589 0.57981 1.08685 0.0
C2320 C 0.26634 0.60936 1.06051 0.0
C2321 C 0.24078 0.6603 1.08071 0.0
C2322 C 0.25591 0.62475 1.04532 0.0
C2323 C 0.27175 0.62738 1.02895 0.0
C2324 C 0.29872 0.6144 1.02676 0.0
C2325 C 0.30898 0.59857 1.0418 0.0
C2326 C 0.29318 0.5961 1.05825 0.0
H2327 H 0.23875 0.67594 1.09194 0.0
H2328 H 0.26196 0.66311 1.07428 0.0
H2329 H 0.22407 0.66535 1.07053 0.0
H2330 H 0.23508 0.63452 1.04592 0.0
H2331 H 0.2625 0.63935 1.01782 0.0
H2332 H 0.62073 0.9538 0.92294 0.0
H2333 H 0.61741 0.97908 0.89412 0.0
H2334 H 0.68307 0.92567 0.87176 0.0
H2335 H 0.68731 0.90076 0.90121 0.0
H2336 H 0.69112 0.97622 0.85838 0.0
H2337 H 0.57599 0.95957 0.84978 0.0
H2338 H 0.58301 0.9782 0.8705 0.0
H2339 H 0.59575 0.94227 0.86766 0.0
C2340 C 0.63446 0.94701 0.91195 0.0
C2341 C 0.65404 0.92451 0.91474 0.0
C2342 C 0.6323 0.96159 0.89513 0.0
C2343 C 0.64919 0.95418 0.87998 0.0
C2344 C 0.66928 0.93205 0.88281 0.0
H2345 H 0.60309 0.01462 0.76833 0.0
H2346 H 0.6089 0.98858 0.79703 0.0
C2347 C 0.67166 0.91753 0.89981 0.0
C2348 C 0.64611 0.96979 0.86158 0.0
H2349 H 0.5969 0.99463 0.83048 0.0
C2350 C 0.67041 0.98002 0.85234 0.0
C2351 C 0.61935 0.97483 0.85295 0.0
C2352 C 0.59211 0.96287 0.86063 0.0
C2353 C 0.66877 0.99516 0.83548 0.0
C2354 C 0.64188 0.00145 0.82733 0.0
C2355 C 0.61766 0.99067 0.8364 0.0
C2356 C 0.63829 0.01824 0.80935 0.0
C2357 C 0.69627 0.00337 0.82635 0.0
C2358 C 0.65214 0.04448 0.80604 0.0
C2359 C 0.64885 0.05957 0.78936 0.0
C2360 C 0.63117 0.04945 0.77519 0.0
C2361 C 0.61679 0.02358 0.77866 0.0
C2362 C 0.6202 0.00844 0.7953 0.0
H2363 H 0.71404 0.98927 0.83067 0.0
H2364 H 0.69444 0.00236 0.81131 0.0
H2365 H 0.70191 0.0254 0.83029 0.0
H2366 H 0.66553 0.05364 0.81646 0.0
H2367 H 0.66042 0.07926 0.78755 0.0
loop_
_geom_bond_atom_site_label_1
_geom_bond_atom_site_label_2
_geom_bond_distance
_geom_bond_site_symmetry_2
_ccdc_geom_bond_type
Gd0 C3 2.818 . S
Gd0 O20 2.377 . S
Gd0 O22 2.448 . S
Gd0 O23 2.506 . S
Gd0 O24 2.435 . S
Gd0 O25 2.717 . S
Gd0 O27 2.395 . S
Gd0 O31 2.327 . S
Gd1 C12 2.818 . S
Gd1 O21 2.395 . S
Gd1 O25 2.327 . S
Gd1 O26 2.377 . S
Gd1 O28 2.448 . S
Gd1 O29 2.506 . S
Gd1 O30 2.435 . S
Gd1 O31 2.717 . S
C2 O20 1.240 . S
C2 O21 1.240 . S
C3 Gd0 2.818 . S
C3 C4 1.510 . S
C3 O22 1.249 . S
C3 O23 1.252 . S
C4 C3 1.510 . S
C4 C5 1.404 . S
C4 C6 1.352 . S
C5 C4 1.404 . S
C5 C9 1.389 . S
C5 H32 0.930 . S
C6 C4 1.352 . S
C6 C8 1.374 . S
C6 H33 0.931 . S
C7 C8 1.359 . S
C7 C9 1.364 . S
C8 C6 1.374 . S
C8 C7 1.359 . S
C8 H34 0.931 . S
C9 C5 1.389 . S
C9 C7 1.364 . S
C9 H35 0.931 . S
C10 O24 1.256 . S
C10 O25 1.257 . S
C11 O26 1.240 . S
C11 O27 1.240 . S
C12 Gd1 2.818 . S
C12 C13 1.510 . S
C12 O28 1.249 . S
C12 O29 1.252 . S
C13 C12 1.510 . S
C13 C14 1.404 . S
C13 C15 1.352 . S
C14 C13 1.404 . S
C14 C18 1.389 . S
C14 H36 0.930 . S
C15 C13 1.352 . S
C15 C17 1.374 . S
C15 H37 0.931 . S
C16 C17 1.359 . S
C16 C18 1.364 . S
C17 C15 1.374 . S
C17 C16 1.359 . S
C17 H38 0.931 . S
C18 C14 1.389 . S
C18 C16 1.364 . S
C18 H39 0.931 1_545 S
C19 O30 1.256 . S
C19 O31 1.257 . S
O20 Gd0 2.377 . S
O20 C2 1.240 . S
O21 Gd1 2.395 . S
O21 C2 1.240 . S
O22 Gd0 2.448 . S
O22 C3 1.249 . S
O23 Gd0 2.506 . S
O23 C3 1.252 . S
O24 Gd0 2.435 . S
O24 C10 1.256 . S
O25 Gd0 2.717 . S
O25 Gd1 2.327 . S
O25 C10 1.257 . S
O26 Gd1 2.377 . S
O26 C11 1.240 . S
O27 Gd0 2.395 . S
O27 C11 1.240 . S
O28 Gd1 2.448 . S
O28 C12 1.249 . S
O29 Gd1 2.506 . S
O29 C12 1.252 . S
O30 Gd1 2.435 . S
O30 C19 1.256 . S
O31 Gd0 2.327 . S
O31 Gd1 2.717 . S
O31 C19 1.257 . S
H32 C5 0.930 . S
H33 C6 0.931 . S
H34 C8 0.931 . S
H35 C9 0.931 . S
H36 C14 0.930 . S
H37 C15 0.931 . S
H38 C17 0.931 . S
H39 C18 0.931 1_565 S
Gd40 C43 2.818 . S
Gd40 O60 2.377 . S
Gd40 O62 2.448 . S
Gd40 O63 2.506 . S
Gd40 O64 2.435 . S
Gd40 O65 2.717 . S
Gd40 O67 2.395 . S
Gd40 O71 2.327 . S
Gd41 C52 2.818 . S
Gd41 O61 2.395 . S
Gd41 O65 2.327 . S
Gd41 O66 2.377 . S
Gd41 O68 2.448 . S
Gd41 O69 2.506 . S
Gd41 O70 2.435 . S
Gd41 O71 2.717 . S
C42 O60 1.240 . S
C42 O61 1.240 . S
C43 Gd40 2.818 . S
C43 C44 1.510 . S
C43 O62 1.249 . S
C43 O63 1.252 . S
C44 C43 1.510 . S
C44 C45 1.404 . S
C44 C46 1.352 . S
C45 C44 1.404 . S
C45 C49 1.389 . S
C45 H72 0.930 . S
C46 C44 1.352 . S
C46 C48 1.374 . S
C46 H73 0.931 . S
C47 C48 1.359 . S
C47 C49 1.364 . S
C48 C46 1.374 . S
C48 C47 1.359 . S
C48 H74 0.931 . S
C49 C45 1.389 . S
C49 C47 1.364 . S
C49 H75 0.931 . S
C50 O64 1.256 . S
C50 O65 1.257 . S
C51 O66 1.240 . S
C51 O67 1.240 . S
C52 Gd41 2.818 . S
C52 C53 1.510 . S
C52 O68 1.249 . S
C52 O69 1.252 . S
C53 C52 1.510 . S
C53 C54 1.404 . S
C53 C55 1.352 . S
C54 C53 1.404 . S
C54 C58 1.389 . S
C54 H76 0.930 . S
C55 C53 1.352 . S
C55 C57 1.374 . S
C55 H77 0.931 . S
C56 C57 1.359 . S
C56 C58 1.364 . S
C57 C55 1.374 . S
C57 C56 1.359 . S
C57 H78 0.931 . S
C58 C54 1.389 . S
C58 C56 1.364 . S
C58 H79 0.931 . S
C59 O70 1.256 . S
C59 O71 1.257 . S
O60 Gd40 2.377 . S
O60 C42 1.240 . S
O61 Gd41 2.395 . S
O61 C42 1.240 . S
O62 Gd40 2.448 . S
O62 C43 1.249 . S
O63 Gd40 2.506 . S
O63 C43 1.252 . S
O64 Gd40 2.435 . S
O64 C50 1.256 . S
O65 Gd40 2.717 . S
O65 Gd41 2.327 . S
O65 C50 1.257 . S
O66 Gd41 2.377 . S
O66 C51 1.240 . S
O67 Gd40 2.395 . S
O67 C51 1.240 . S
O68 Gd41 2.448 . S
O68 C52 1.249 . S
O69 Gd41 2.506 . S
O69 C52 1.252 . S
O70 Gd41 2.435 . S
O70 C59 1.256 . S
O71 Gd40 2.327 . S
O71 Gd41 2.717 . S
O71 C59 1.257 . S
H72 C45 0.930 . S
H73 C46 0.931 . S
H74 C48 0.931 . S
H75 C49 0.931 . S
H76 C54 0.930 . S
H77 C55 0.931 . S
H78 C57 0.931 . S
H79 C58 0.931 . S
Gd80 C83 2.818 . S
Gd80 O100 2.377 . S
Gd80 O102 2.448 . S
Gd80 O103 2.506 . S
Gd80 O104 2.435 . S
Gd80 O105 2.717 . S
Gd80 O107 2.395 . S
Gd80 O111 2.327 . S
Gd81 C92 2.818 . S
Gd81 O101 2.395 . S
Gd81 O105 2.327 . S
Gd81 O106 2.377 . S
Gd81 O108 2.448 . S
Gd81 O109 2.506 . S
Gd81 O110 2.435 . S
Gd81 O111 2.717 . S
C82 O100 1.240 . S
C82 O101 1.240 . S
C83 Gd80 2.818 . S
C83 C84 1.510 . S
C83 O102 1.249 . S
C83 O103 1.252 . S
C84 C83 1.510 . S
C84 C85 1.404 . S
C84 C86 1.352 . S
C85 C84 1.404 . S
C85 C89 1.389 . S
C85 H112 0.930 . S
C86 C84 1.352 . S
C86 C88 1.374 . S
C86 H113 0.931 . S
C87 C88 1.359 . S
C87 C89 1.364 . S
C88 C86 1.374 . S
C88 C87 1.359 . S
C88 H114 0.931 . S
C89 C85 1.389 . S
C89 C87 1.364 . S
C89 H115 0.931 . S
C90 O104 1.256 . S
C90 O105 1.257 . S
C91 O106 1.240 . S
C91 O107 1.240 . S
C92 Gd81 2.818 . S
C92 C93 1.510 . S
C92 O108 1.249 . S
C92 O109 1.252 . S
C93 C92 1.510 . S
C93 C94 1.404 . S
C93 C95 1.352 . S
C94 C93 1.404 . S
C94 C98 1.389 . S
C94 H116 0.930 . S
C95 C93 1.352 . S
C95 C97 1.374 . S
C95 H117 0.931 . S
C96 C97 1.359 . S
C96 C98 1.364 . S
C97 C95 1.374 . S
C97 C96 1.359 . S
C97 H118 0.931 . S
C98 C94 1.389 . S
C98 C96 1.364 . S
C98 H119 0.931 1_565 S
C99 O110 1.256 . S
C99 O111 1.257 . S
O100 Gd80 2.377 . S
O100 C82 1.240 . S
O101 Gd81 2.395 . S
O101 C82 1.240 . S
O102 Gd80 2.448 . S
O102 C83 1.249 . S
O103 Gd80 2.506 . S
O103 C83 1.252 . S
O104 Gd80 2.435 . S
O104 C90 1.256 . S
O105 Gd80 2.717 . S
O105 Gd81 2.327 . S
O105 C90 1.257 . S
O106 Gd81 2.377 . S
O106 C91 1.240 . S
O107 Gd80 2.395 . S
O107 C91 1.240 . S
O108 Gd81 2.448 . S
O108 C92 1.249 . S
O109 Gd81 2.506 . S
O109 C92 1.252 . S
O110 Gd81 2.435 . S
O110 C99 1.256 . S
O111 Gd80 2.327 . S
O111 Gd81 2.717 . S
O111 C99 1.257 . S
H112 C85 0.930 . S
H113 C86 0.931 . S
H114 C88 0.931 . S
H115 C89 0.931 . S
H116 C94 0.930 . S
H117 C95 0.931 . S
H118 C97 0.931 . S
H119 C98 0.931 1_545 S
Gd120 C123 2.818 . S
Gd120 O140 2.377 . S
Gd120 O142 2.448 . S
Gd120 O143 2.506 . S
Gd120 O144 2.435 . S
Gd120 O145 2.717 . S
Gd120 O147 2.395 . S
Gd120 O151 2.327 . S
Gd121 C132 2.818 . S
Gd121 O141 2.395 . S
Gd121 O145 2.327 . S
Gd121 O146 2.377 . S
Gd121 O148 2.448 . S
Gd121 O149 2.506 . S
Gd121 O150 2.435 . S
Gd121 O151 2.717 . S
C122 O140 1.240 . S
C122 O141 1.240 . S
C123 Gd120 2.818 . S
C123 C124 1.510 . S
C123 O142 1.249 . S
C123 O143 1.252 . S
C124 C123 1.510 . S
C124 C125 1.404 1_655 S
C124 C126 1.352 . S
C125 C124 1.404 1_455 S
C125 C129 1.389 . S
C125 H152 0.930 . S
C126 C124 1.352 . S
C126 C128 1.374 . S
C126 H153 0.931 . S
C127 C128 1.359 1_455 S
C127 C129 1.364 . S
C128 C126 1.374 . S
C128 C127 1.359 1_655 S
C128 H154 0.931 . S
C129 C125 1.389 . S
C129 C127 1.364 . S
C129 H155 0.931 . S
C130 O144 1.256 . S
C130 O145 1.257 . S
C131 O146 1.240 . S
C131 O147 1.240 . S
C132 Gd121 2.818 . S
C132 C133 1.510 . S
C132 O148 1.249 . S
C132 O149 1.252 . S
C133 C132 1.510 . S
C133 C134 1.404 . S
C133 C135 1.352 . S
C134 C133 1.404 . S
C134 C138 1.389 . S
C134 H156 0.930 . S
C135 C133 1.352 . S
C135 C137 1.374 . S
C135 H157 0.931 . S
C136 C137 1.359 . S
C136 C138 1.364 . S
C137 C135 1.374 . S
C137 C136 1.359 . S
C137 H158 0.931 . S
C138 C134 1.389 . S
C138 C136 1.364 . S
C138 H159 0.931 . S
C139 O150 1.256 . S
C139 O151 1.257 . S
O140 Gd120 2.377 . S
O140 C122 1.240 . S
O141 Gd121 2.395 . S
O141 C122 1.240 . S
O142 Gd120 2.448 . S
O142 C123 1.249 . S
O143 Gd120 2.506 . S
O143 C123 1.252 . S
O144 Gd120 2.435 . S
O144 C130 1.256 . S
O145 Gd120 2.717 . S
O145 Gd121 2.327 . S
O145 C130 1.257 . S
O146 Gd121 2.377 . S
O146 C131 1.240 . S
O147 Gd120 2.395 . S
O147 C131 1.240 . S
O148 Gd121 2.448 . S
O148 C132 1.249 . S
O149 Gd121 2.506 . S
O149 C132 1.252 . S
O150 Gd121 2.435 . S
O150 C139 1.256 . S
O151 Gd120 2.327 . S
O151 Gd121 2.717 . S
O151 C139 1.257 . S
H152 C125 0.930 . S
H153 C126 0.931 . S
H154 C128 0.931 . S
H155 C129 0.931 . S
H156 C134 0.930 . S
H157 C135 0.931 . S
H158 C137 0.931 . S
H159 C138 0.931 . S
Gd160 C163 2.818 . S
Gd160 O180 2.377 . S
Gd160 O182 2.448 . S
Gd160 O183 2.506 . S
Gd160 O184 2.435 . S
Gd160 O185 2.717 . S
Gd160 O187 2.395 . S
Gd160 O191 2.327 . S
Gd161 C172 2.818 . S
Gd161 O181 2.395 . S
Gd161 O185 2.327 . S
Gd161 O186 2.377 . S
Gd161 O188 2.448 . S
Gd161 O189 2.506 . S
Gd161 O190 2.435 . S
Gd161 O191 2.717 . S
C162 O180 1.240 . S
C162 O181 1.240 . S
C163 Gd160 2.818 . S
C163 C164 1.510 . S
C163 O182 1.249 . S
C163 O183 1.252 . S
C164 C163 1.510 . S
C164 C165 1.404 . S
C164 C166 1.352 . S
C165 C164 1.404 . S
C165 C169 1.389 . S
C165 H192 0.930 . S
C166 C164 1.352 . S
C166 C168 1.374 . S
C166 H193 0.931 . S
C167 C168 1.359 . S
C167 C169 1.364 . S
C168 C166 1.374 . S
C168 C167 1.359 . S
C168 H194 0.931 . S
C169 C165 1.389 . S
C169 C167 1.364 . S
C169 H195 0.931 1_565 S
C170 O184 1.256 . S
C170 O185 1.257 . S
C171 O186 1.240 . S
C171 O187 1.240 . S
C172 Gd161 2.818 . S
C172 C173 1.510 . S
C172 O188 1.249 . S
C172 O189 1.252 . S
C173 C172 1.510 . S
C173 C174 1.404 . S
C173 C175 1.352 . S
C174 C173 1.404 . S
C174 C178 1.389 . S
C174 H196 0.930 . S
C175 C173 1.352 . S
C175 C177 1.374 . S
C175 H197 0.931 . S
C176 C177 1.359 . S
C176 C178 1.364 . S
C177 C175 1.374 . S
C177 C176 1.359 . S
C177 H198 0.931 . S
C178 C174 1.389 . S
C178 C176 1.364 . S
C178 H199 0.931 . S
C179 O190 1.256 . S
C179 O191 1.257 . S
O180 Gd160 2.377 . S
O180 C162 1.240 . S
O181 Gd161 2.395 . S
O181 C162 1.240 . S
O182 Gd160 2.448 . S
O182 C163 1.249 . S
O183 Gd160 2.506 . S
O183 C163 1.252 . S
O184 Gd160 2.435 . S
O184 C170 1.256 . S
O185 Gd160 2.717 . S
O185 Gd161 2.327 . S
O185 C170 1.257 . S
O186 Gd161 2.377 . S
O186 C171 1.240 . S
O187 Gd160 2.395 . S
O187 C171 1.240 . S
O188 Gd161 2.448 . S
O188 C172 1.249 . S
O189 Gd161 2.506 . S
O189 C172 1.252 . S
O190 Gd161 2.435 . S
O190 C179 1.256 . S
O191 Gd160 2.327 . S
O191 Gd161 2.717 . S
O191 C179 1.257 . S
H192 C165 0.930 . S
H193 C166 0.931 . S
H194 C168 0.931 . S
H195 C169 0.931 1_545 S
H196 C174 0.930 . S
H197 C175 0.931 . S
H198 C177 0.931 . S
H199 C178 0.931 . S
Gd200 C203 2.818 . S
Gd200 O220 2.377 . S
Gd200 O222 2.448 . S
Gd200 O223 2.506 . S
Gd200 O224 2.435 . S
Gd200 O225 2.717 . S
Gd200 O227 2.395 . S
Gd200 O231 2.327 . S
Gd201 C212 2.818 . S
Gd201 O221 2.395 . S
Gd201 O225 2.327 . S
Gd201 O226 2.377 . S
Gd201 O228 2.448 . S
Gd201 O229 2.506 . S
Gd201 O230 2.435 . S
Gd201 O231 2.717 . S
C202 O220 1.240 . S
C202 O221 1.240 . S
C203 Gd200 2.818 . S
C203 C204 1.510 . S
C203 O222 1.249 . S
C203 O223 1.252 . S
C204 C203 1.510 . S
C204 C205 1.404 . S
C204 C206 1.352 . S
C205 C204 1.404 . S
C205 C209 1.389 . S
C205 H232 0.930 . S
C206 C204 1.352 . S
C206 C208 1.374 . S
C206 H233 0.931 . S
C207 C208 1.359 . S
C207 C209 1.364 . S
C208 C206 1.374 . S
C208 C207 1.359 . S
C208 H234 0.931 . S
C209 C205 1.389 . S
C209 C207 1.364 . S
C209 H235 0.931 . S
C210 O224 1.256 . S
C210 O225 1.257 . S
C211 O226 1.240 . S
C211 O227 1.240 . S
C212 Gd201 2.818 . S
C212 C213 1.510 . S
C212 O228 1.249 . S
C212 O229 1.252 . S
C213 C212 1.510 . S
C213 C214 1.404 . S
C213 C215 1.352 . S
C214 C213 1.404 . S
C214 C218 1.389 . S
C214 H236 0.930 . S
C215 C213 1.352 . S
C215 C217 1.374 . S
C215 H237 0.931 . S
C216 C217 1.359 . S
C216 C218 1.364 . S
C217 C215 1.374 . S
C217 C216 1.359 . S
C217 H238 0.931 . S
C218 C214 1.389 . S
C218 C216 1.364 . S
C218 H239 0.931 . S
C219 O230 1.256 . S
C219 O231 1.257 . S
O220 Gd200 2.377 . S
O220 C202 1.240 . S
O221 Gd201 2.395 . S
O221 C202 1.240 . S
O222 Gd200 2.448 . S
O222 C203 1.249 . S
O223 Gd200 2.506 . S
O223 C203 1.252 . S
O224 Gd200 2.435 . S
O224 C210 1.256 . S
O225 Gd200 2.717 . S
O225 Gd201 2.327 . S
O225 C210 1.257 . S
O226 Gd201 2.377 . S
O226 C211 1.240 . S
O227 Gd200 2.395 . S
O227 C211 1.240 . S
O228 Gd201 2.448 . S
O228 C212 1.249 . S
O229 Gd201 2.506 . S
O229 C212 1.252 . S
O230 Gd201 2.435 . S
O230 C219 1.256 . S
O231 Gd200 2.327 . S
O231 Gd201 2.717 . S
O231 C219 1.257 . S
H232 C205 0.930 . S
H233 C206 0.931 . S
H234 C208 0.931 . S
H235 C209 0.931 . S
H236 C214 0.930 . S
H237 C215 0.931 . S
H238 C217 0.931 . S
H239 C218 0.931 . S
Gd240 C243 2.818 . S
Gd240 O260 2.377 . S
Gd240 O262 2.448 . S
Gd240 O263 2.506 . S
Gd240 O264 2.435 . S
Gd240 O265 2.717 . S
Gd240 O267 2.395 . S
Gd240 O271 2.327 . S
Gd241 C252 2.818 . S
Gd241 O261 2.395 . S
Gd241 O265 2.327 . S
Gd241 O266 2.377 . S
Gd241 O268 2.448 . S
Gd241 O269 2.506 . S
Gd241 O270 2.435 . S
Gd241 O271 2.717 . S
C242 O260 1.240 . S
C242 O261 1.240 . S
C243 Gd240 2.818 . S
C243 C244 1.510 . S
C243 O262 1.249 . S
C243 O263 1.252 . S
C244 C243 1.510 . S
C244 C245 1.404 . S
C244 C246 1.352 . S
C245 C244 1.404 . S
C245 C249 1.389 . S
C245 H272 0.930 . S
C246 C244 1.352 . S
C246 C248 1.374 . S
C246 H273 0.931 . S
C247 C248 1.359 . S
C247 C249 1.364 . S
C248 C246 1.374 . S
C248 C247 1.359 . S
C248 H274 0.931 . S
C249 C245 1.389 . S
C249 C247 1.364 . S
C249 H275 0.931 1_545 S
C250 O264 1.256 . S
C250 O265 1.257 . S
C251 O266 1.240 . S
C251 O267 1.240 . S
C252 Gd241 2.818 . S
C252 C253 1.510 . S
C252 O268 1.249 . S
C252 O269 1.252 . S
C253 C252 1.510 . S
C253 C254 1.404 . S
C253 C255 1.352 . S
C254 C253 1.404 . S
C254 C258 1.389 . S
C254 H276 0.930 . S
C255 C253 1.352 . S
C255 C257 1.374 . S
C255 H277 0.931 . S
C256 C257 1.359 . S
C256 C258 1.364 . S
C257 C255 1.374 . S
C257 C256 1.359 . S
C257 H278 0.931 . S
C258 C254 1.389 . S
C258 C256 1.364 . S
C258 H279 0.931 . S
C259 O270 1.256 . S
C259 O271 1.257 . S
O260 Gd240 2.377 . S
O260 C242 1.240 . S
O261 Gd241 2.395 . S
O261 C242 1.240 . S
O262 Gd240 2.448 . S
O262 C243 1.249 . S
O263 Gd240 2.506 . S
O263 C243 1.252 . S
O264 Gd240 2.435 . S
O264 C250 1.256 . S
O265 Gd240 2.717 . S
O265 Gd241 2.327 . S
O265 C250 1.257 . S
O266 Gd241 2.377 . S
O266 C251 1.240 . S
O267 Gd240 2.395 . S
O267 C251 1.240 . S
O268 Gd241 2.448 . S
O268 C252 1.249 . S
O269 Gd241 2.506 . S
O269 C252 1.252 . S
O270 Gd241 2.435 . S
O270 C259 1.256 . S
O271 Gd240 2.327 . S
O271 Gd241 2.717 . S
O271 C259 1.257 . S
H272 C245 0.930 . S
H273 C246 0.931 . S
H274 C248 0.931 . S
H275 C249 0.931 1_565 S
H276 C254 0.930 . S
H277 C255 0.931 . S
H278 C257 0.931 . S
H279 C258 0.931 . S
Gd280 C283 2.818 . S
Gd280 O300 2.377 . S
Gd280 O302 2.448 . S
Gd280 O303 2.506 . S
Gd280 O304 2.435 . S
Gd280 O305 2.717 . S
Gd280 O307 2.395 . S
Gd280 O311 2.327 . S
Gd281 C292 2.818 . S
Gd281 O301 2.395 . S
Gd281 O305 2.327 . S
Gd281 O306 2.377 . S
Gd281 O308 2.448 . S
Gd281 O309 2.506 . S
Gd281 O310 2.435 . S
Gd281 O311 2.717 . S
C282 O300 1.240 . S
C282 O301 1.240 . S
C283 Gd280 2.818 . S
C283 C284 1.510 . S
C283 O302 1.249 . S
C283 O303 1.252 . S
C284 C283 1.510 . S
C284 C285 1.404 . S
C284 C286 1.352 . S
C285 C284 1.404 . S
C285 C289 1.389 . S
C285 H312 0.930 . S
C286 C284 1.352 . S
C286 C288 1.374 . S
C286 H313 0.931 . S
C287 C288 1.359 . S
C287 C289 1.364 . S
C288 C286 1.374 . S
C288 C287 1.359 . S
C288 H314 0.931 . S
C289 C285 1.389 . S
C289 C287 1.364 . S
C289 H315 0.931 . S
C290 O304 1.256 . S
C290 O305 1.257 . S
C291 O306 1.240 . S
C291 O307 1.240 . S
C292 Gd281 2.818 . S
C292 C293 1.510 . S
C292 O308 1.249 . S
C292 O309 1.252 . S
C293 C292 1.510 . S
C293 C294 1.404 1_455 S
C293 C295 1.352 . S
C294 C293 1.404 1_655 S
C294 C298 1.389 . S
C294 H316 0.930 . S
C295 C293 1.352 . S
C295 C297 1.374 . S
C295 H317 0.931 . S
C296 C297 1.359 1_655 S
C296 C298 1.364 . S
C297 C295 1.374 . S
C297 C296 1.359 1_455 S
C297 H318 0.931 . S
C298 C294 1.389 . S
C298 C296 1.364 . S
C298 H319 0.931 . S
C299 O310 1.256 . S
C299 O311 1.257 . S
O300 Gd280 2.377 . S
O300 C282 1.240 . S
O301 Gd281 2.395 . S
O301 C282 1.240 . S
O302 Gd280 2.448 . S
O302 C283 1.249 . S
O303 Gd280 2.506 . S
O303 C283 1.252 . S
O304 Gd280 2.435 . S
O304 C290 1.256 . S
O305 Gd280 2.717 . S
O305 Gd281 2.327 . S
O305 C290 1.257 . S
O306 Gd281 2.377 . S
O306 C291 1.240 . S
O307 Gd280 2.395 . S
O307 C291 1.240 . S
O308 Gd281 2.448 . S
O308 C292 1.249 . S
O309 Gd281 2.506 . S
O309 C292 1.252 . S
O310 Gd281 2.435 . S
O310 C299 1.256 . S
O311 Gd280 2.327 . S
O311 Gd281 2.717 . S
O311 C299 1.257 . S
H312 C285 0.930 . S
H313 C286 0.931 . S
H314 C288 0.931 . S
H315 C289 0.931 . S
H316 C294 0.930 . S
H317 C295 0.931 . S
H318 C297 0.931 . S
H319 C298 0.931 . S
Gd320 C323 2.818 . S
Gd320 O340 2.377 . S
Gd320 O342 2.448 . S
Gd320 O343 2.506 . S
Gd320 O344 2.435 . S
Gd320 O345 2.717 . S
Gd320 O347 2.395 . S
Gd320 O351 2.327 . S
Gd321 C332 2.818 . S
Gd321 O341 2.395 . S
Gd321 O345 2.327 . S
Gd321 O346 2.377 . S
Gd321 O348 2.448 . S
Gd321 O349 2.506 . S
Gd321 O350 2.435 . S
Gd321 O351 2.717 . S
C322 O340 1.240 . S
C322 O341 1.240 . S
C323 Gd320 2.818 . S
C323 C324 1.510 . S
C323 O342 1.249 . S
C323 O343 1.252 . S
C324 C323 1.510 . S
C324 C325 1.404 . S
C324 C326 1.352 . S
C325 C324 1.404 . S
C325 C329 1.389 . S
C325 H352 0.930 . S
C326 C324 1.352 . S
C326 C328 1.374 . S
C326 H353 0.931 . S
C327 C328 1.359 . S
C327 C329 1.364 . S
C328 C326 1.374 . S
C328 C327 1.359 . S
C328 H354 0.931 . S
C329 C325 1.389 . S
C329 C327 1.364 . S
C329 H355 0.931 . S
C330 O344 1.256 . S
C330 O345 1.257 . S
C331 O346 1.240 . S
C331 O347 1.240 . S
C332 Gd321 2.818 . S
C332 C333 1.510 . S
C332 O348 1.249 . S
C332 O349 1.252 . S
C333 C332 1.510 . S
C333 C334 1.404 . S
C333 C335 1.352 . S
C334 C333 1.404 . S
C334 C338 1.389 . S
C334 H356 0.930 . S
C335 C333 1.352 . S
C335 C337 1.374 . S
C335 H357 0.931 . S
C336 C337 1.359 . S
C336 C338 1.364 . S
C337 C335 1.374 . S
C337 C336 1.359 . S
C337 H358 0.931 . S
C338 C334 1.389 . S
C338 C336 1.364 . S
C338 H359 0.931 . S
C339 O350 1.256 . S
C339 O351 1.257 . S
O340 Gd320 2.377 . S
O340 C322 1.240 . S
O341 Gd321 2.395 . S
O341 C322 1.240 . S
O342 Gd320 2.448 . S
O342 C323 1.249 . S
O343 Gd320 2.506 . S
O343 C323 1.252 . S
O344 Gd320 2.435 . S
O344 C330 1.256 . S
O345 Gd320 2.717 . S
O345 Gd321 2.327 . S
O345 C330 1.257 . S
O346 Gd321 2.377 . S
O346 C331 1.240 . S
O347 Gd320 2.395 . S
O347 C331 1.240 . S
O348 Gd321 2.448 . S
O348 C332 1.249 . S
O349 Gd321 2.506 . S
O349 C332 1.252 . S
O350 Gd321 2.435 . S
O350 C339 1.256 . S
O351 Gd320 2.327 . S
O351 Gd321 2.717 . S
O351 C339 1.257 . S
H352 C325 0.930 . S
H353 C326 0.931 . S
H354 C328 0.931 . S
H355 C329 0.931 . S
H356 C334 0.930 . S
H357 C335 0.931 . S
H358 C337 0.931 . S
H359 C338 0.931 . S
Gd360 C363 2.818 . S
Gd360 O380 2.377 . S
Gd360 O382 2.448 . S
Gd360 O383 2.506 . S
Gd360 O384 2.435 . S
Gd360 O385 2.717 . S
Gd360 O387 2.395 . S
Gd360 O391 2.327 . S
Gd361 C372 2.818 . S
Gd361 O381 2.395 . S
Gd361 O385 2.327 . S
Gd361 O386 2.377 . S
Gd361 O388 2.448 . S
Gd361 O389 2.506 . S
Gd361 O390 2.435 . S
Gd361 O391 2.717 . S
C362 O380 1.240 . S
C362 O381 1.240 . S
C363 Gd360 2.818 . S
C363 C364 1.510 . S
C363 O382 1.249 . S
C363 O383 1.252 . S
C364 C363 1.510 . S
C364 C365 1.404 1_455 S
C364 C366 1.352 1_545 S
C365 C364 1.404 1_655 S
C365 C369 1.389 1_545 S
C365 H392 0.930 . S
C366 C364 1.352 1_565 S
C366 C368 1.374 . S
C366 H393 0.931 . S
C367 C368 1.359 1_655 S
C367 C369 1.364 . S
C368 C366 1.374 . S
C368 C367 1.359 1_455 S
C368 H394 0.931 . S
C369 C365 1.389 1_565 S
C369 C367 1.364 . S
C369 H395 0.931 1_565 S
C370 O384 1.256 . S
C370 O385 1.257 . S
C371 O386 1.240 . S
C371 O387 1.240 . S
C372 Gd361 2.818 . S
C372 C373 1.510 . S
C372 O388 1.249 . S
C372 O389 1.252 . S
C373 C372 1.510 . S
C373 C374 1.404 . S
C373 C375 1.352 . S
C374 C373 1.404 . S
C374 C378 1.389 . S
C374 H396 0.930 . S
C375 C373 1.352 . S
C375 C377 1.374 . S
C375 H397 0.931 . S
C376 C377 1.359 . S
C376 C378 1.364 . S
C377 C375 1.374 . S
C377 C376 1.359 . S
C377 H398 0.931 . S
C378 C374 1.389 . S
C378 C376 1.364 . S
C378 H399 0.931 . S
C379 O390 1.256 . S
C379 O391 1.257 . S
O380 Gd360 2.377 . S
O380 C362 1.240 . S
O381 Gd361 2.395 . S
O381 C362 1.240 . S
O382 Gd360 2.448 . S
O382 C363 1.249 . S
O383 Gd360 2.506 . S
O383 C363 1.252 . S
O384 Gd360 2.435 . S
O384 C370 1.256 . S
O385 Gd360 2.717 . S
O385 Gd361 2.327 . S
O385 C370 1.257 . S
O386 Gd361 2.377 . S
O386 C371 1.240 . S
O387 Gd360 2.395 . S
O387 C371 1.240 . S
O388 Gd361 2.448 . S
O388 C372 1.249 . S
O389 Gd361 2.506 . S
O389 C372 1.252 . S
O390 Gd361 2.435 . S
O390 C379 1.256 . S
O391 Gd360 2.327 . S
O391 Gd361 2.717 . S
O391 C379 1.257 . S
H392 C365 0.930 . S
H393 C366 0.931 . S
H394 C368 0.931 . S
H395 C369 0.931 1_545 S
H396 C374 0.930 . S
H397 C375 0.931 . S
H398 C377 0.931 . S
H399 C378 0.931 . S
Gd400 C403 2.818 . S
Gd400 O420 2.377 . S
Gd400 O422 2.448 . S
Gd400 O423 2.506 . S
Gd400 O424 2.435 . S
Gd400 O425 2.717 . S
Gd400 O427 2.395 . S
Gd400 O431 2.327 . S
Gd401 C412 2.818 . S
Gd401 O421 2.395 . S
Gd401 O425 2.327 . S
Gd401 O426 2.377 . S
Gd401 O428 2.448 . S
Gd401 O429 2.506 . S
Gd401 O430 2.435 . S
Gd401 O431 2.717 . S
C402 O420 1.240 . S
C402 O421 1.240 . S
C403 Gd400 2.818 . S
C403 C404 1.510 . S
C403 O422 1.249 . S
C403 O423 1.252 . S
C404 C403 1.510 . S
C404 C405 1.404 . S
C404 C406 1.352 . S
C405 C404 1.404 . S
C405 C409 1.389 . S
C405 H432 0.930 . S
C406 C404 1.352 . S
C406 C408 1.374 . S
C406 H433 0.931 . S
C407 C408 1.359 . S
C407 C409 1.364 . S
C408 C406 1.374 . S
C408 C407 1.359 . S
C408 H434 0.931 . S
C409 C405 1.389 . S
C409 C407 1.364 . S
C409 H435 0.931 . S
C410 O424 1.256 . S
C410 O425 1.257 . S
C411 O426 1.240 . S
C411 O427 1.240 . S
C412 Gd401 2.818 . S
C412 C413 1.510 . S
C412 O428 1.249 . S
C412 O429 1.252 . S
C413 C412 1.510 . S
C413 C414 1.404 . S
C413 C415 1.352 . S
C414 C413 1.404 . S
C414 C418 1.389 . S
C414 H436 0.930 . S
C415 C413 1.352 . S
C415 C417 1.374 . S
C415 H437 0.931 . S
C416 C417 1.359 . S
C416 C418 1.364 . S
C417 C415 1.374 . S
C417 C416 1.359 . S
C417 H438 0.931 . S
C418 C414 1.389 . S
C418 C416 1.364 . S
C418 H439 0.931 . S
C419 O430 1.256 . S
C419 O431 1.257 . S
O420 Gd400 2.377 . S
O420 C402 1.240 . S
O421 Gd401 2.395 . S
O421 C402 1.240 . S
O422 Gd400 2.448 . S
O422 C403 1.249 . S
O423 Gd400 2.506 . S
O423 C403 1.252 . S
O424 Gd400 2.435 . S
O424 C410 1.256 . S
O425 Gd400 2.717 . S
O425 Gd401 2.327 . S
O425 C410 1.257 . S
O426 Gd401 2.377 . S
O426 C411 1.240 . S
O427 Gd400 2.395 . S
O427 C411 1.240 . S
O428 Gd401 2.448 . S
O428 C412 1.249 . S
O429 Gd401 2.506 . S
O429 C412 1.252 . S
O430 Gd401 2.435 . S
O430 C419 1.256 . S
O431 Gd400 2.327 . S
O431 Gd401 2.717 . S
O431 C419 1.257 . S
H432 C405 0.930 . S
H433 C406 0.931 . S
H434 C408 0.931 . S
H435 C409 0.931 . S
H436 C414 0.930 . S
H437 C415 0.931 . S
H438 C417 0.931 . S
H439 C418 0.931 . S
Gd440 C443 2.818 . S
Gd440 O460 2.377 . S
Gd440 O462 2.448 . S
Gd440 O463 2.506 . S
Gd440 O464 2.435 . S
Gd440 O465 2.717 . S
Gd440 O467 2.395 . S
Gd440 O471 2.327 . S
Gd441 C452 2.818 . S
Gd441 O461 2.395 . S
Gd441 O465 2.327 . S
Gd441 O466 2.377 . S
Gd441 O468 2.448 . S
Gd441 O469 2.506 . S
Gd441 O470 2.435 . S
Gd441 O471 2.717 . S
C442 O460 1.240 . S
C442 O461 1.240 . S
C443 Gd440 2.818 . S
C443 C444 1.510 . S
C443 O462 1.249 . S
C443 O463 1.252 . S
C444 C443 1.510 . S
C444 C445 1.404 . S
C444 C446 1.352 1_565 S
C445 C444 1.404 . S
C445 C449 1.389 1_565 S
C445 H472 0.930 . S
C446 C444 1.352 1_545 S
C446 C448 1.374 . S
C446 H473 0.931 . S
C447 C448 1.359 . S
C447 C449 1.364 . S
C448 C446 1.374 . S
C448 C447 1.359 . S
C448 H474 0.931 . S
C449 C445 1.389 1_545 S
C449 C447 1.364 . S
C449 H475 0.931 1_545 S
C450 O464 1.256 . S
C450 O465 1.257 . S
C451 O466 1.240 . S
C451 O467 1.240 . S
C452 Gd441 2.818 . S
C452 C453 1.510 . S
C452 O468 1.249 . S
C452 O469 1.252 . S
C453 C452 1.510 . S
C453 C454 1.404 . S
C453 C455 1.352 . S
C454 C453 1.404 . S
C454 C458 1.389 . S
C454 H476 0.930 . S
C455 C453 1.352 . S
C455 C457 1.374 . S
C455 H477 0.931 . S
C456 C457 1.359 . S
C456 C458 1.364 . S
C457 C455 1.374 . S
C457 C456 1.359 . S
C457 H478 0.931 . S
C458 C454 1.389 . S
C458 C456 1.364 . S
C458 H479 0.931 . S
C459 O470 1.256 . S
C459 O471 1.257 . S
O460 Gd440 2.377 . S
O460 C442 1.240 . S
O461 Gd441 2.395 . S
O461 C442 1.240 . S
O462 Gd440 2.448 . S
O462 C443 1.249 . S
O463 Gd440 2.506 . S
O463 C443 1.252 . S
O464 Gd440 2.435 . S
O464 C450 1.256 . S
O465 Gd440 2.717 . S
O465 Gd441 2.327 . S
O465 C450 1.257 . S
O466 Gd441 2.377 . S
O466 C451 1.240 . S
O467 Gd440 2.395 . S
O467 C451 1.240 . S
O468 Gd441 2.448 . S
O468 C452 1.249 . S
O469 Gd441 2.506 . S
O469 C452 1.252 . S
O470 Gd441 2.435 . S
O470 C459 1.256 . S
O471 Gd440 2.327 . S
O471 Gd441 2.717 . S
O471 C459 1.257 . S
H472 C445 0.930 . S
H473 C446 0.931 . S
H474 C448 0.931 . S
H475 C449 0.931 1_565 S
H476 C454 0.930 . S
H477 C455 0.931 . S
H478 C457 0.931 . S
H479 C458 0.931 . S
Gd480 C483 2.818 . S
Gd480 O500 2.377 . S
Gd480 O502 2.448 . S
Gd480 O503 2.506 . S
Gd480 O504 2.435 . S
Gd480 O505 2.717 . S
Gd480 O507 2.395 . S
Gd480 O511 2.327 . S
Gd481 C492 2.818 . S
Gd481 O501 2.395 . S
Gd481 O505 2.327 . S
Gd481 O506 2.377 . S
Gd481 O508 2.448 . S
Gd481 O509 2.506 . S
Gd481 O510 2.435 . S
Gd481 O511 2.717 . S
C482 O500 1.240 . S
C482 O501 1.240 . S
C483 Gd480 2.818 . S
C483 C484 1.510 . S
C483 O502 1.249 . S
C483 O503 1.252 . S
C484 C483 1.510 . S
C484 C485 1.404 . S
C484 C486 1.352 . S
C485 C484 1.404 . S
C485 C489 1.389 . S
C485 H512 0.930 . S
C486 C484 1.352 . S
C486 C488 1.374 . S
C486 H513 0.931 . S
C487 C488 1.359 . S
C487 C489 1.364 . S
C488 C486 1.374 . S
C488 C487 1.359 . S
C488 H514 0.931 . S
C489 C485 1.389 . S
C489 C487 1.364 . S
C489 H515 0.931 . S
C490 O504 1.256 . S
C490 O505 1.257 . S
C491 O506 1.240 . S
C491 O507 1.240 . S
C492 Gd481 2.818 . S
C492 C493 1.510 . S
C492 O508 1.249 . S
C492 O509 1.252 . S
C493 C492 1.510 . S
C493 C494 1.404 . S
C493 C495 1.352 . S
C494 C493 1.404 . S
C494 C498 1.389 . S
C494 H516 0.930 . S
C495 C493 1.352 . S
C495 C497 1.374 . S
C495 H517 0.931 . S
C496 C497 1.359 . S
C496 C498 1.364 . S
C497 C495 1.374 . S
C497 C496 1.359 . S
C497 H518 0.931 . S
C498 C494 1.389 . S
C498 C496 1.364 . S
C498 H519 0.931 . S
C499 O510 1.256 . S
C499 O511 1.257 . S
O500 Gd480 2.377 . S
O500 C482 1.240 . S
O501 Gd481 2.395 . S
O501 C482 1.240 . S
O502 Gd480 2.448 . S
O502 C483 1.249 . S
O503 Gd480 2.506 . S
O503 C483 1.252 . S
O504 Gd480 2.435 . S
O504 C490 1.256 . S
O505 Gd480 2.717 . S
O505 Gd481 2.327 . S
O505 C490 1.257 . S
O506 Gd481 2.377 . S
O506 C491 1.240 . S
O507 Gd480 2.395 . S
O507 C491 1.240 . S
O508 Gd481 2.448 . S
O508 C492 1.249 . S
O509 Gd481 2.506 . S
O509 C492 1.252 . S
O510 Gd481 2.435 . S
O510 C499 1.256 . S
O511 Gd480 2.327 . S
O511 Gd481 2.717 . S
O511 C499 1.257 . S
H512 C485 0.930 . S
H513 C486 0.931 . S
H514 C488 0.931 . S
H515 C489 0.931 . S
H516 C494 0.930 . S
H517 C495 0.931 . S
H518 C497 0.931 . S
H519 C498 0.931 . S
Gd520 C523 2.818 . S
Gd520 O540 2.377 . S
Gd520 O542 2.448 . S
Gd520 O543 2.506 . S
Gd520 O544 2.435 . S
Gd520 O545 2.717 . S
Gd520 O547 2.395 . S
Gd520 O551 2.327 . S
Gd521 C532 2.818 . S
Gd521 O541 2.395 . S
Gd521 O545 2.327 . S
Gd521 O546 2.377 . S
Gd521 O548 2.448 . S
Gd521 O549 2.506 . S
Gd521 O550 2.435 . S
Gd521 O551 2.717 . S
C522 O540 1.240 . S
C522 O541 1.240 . S
C523 Gd520 2.818 . S
C523 C524 1.510 . S
C523 O542 1.249 . S
C523 O543 1.252 . S
C524 C523 1.510 . S
C524 C525 1.404 . S
C524 C526 1.352 . S
C525 C524 1.404 . S
C525 C529 1.389 . S
C525 H552 0.930 . S
C526 C524 1.352 . S
C526 C528 1.374 . S
C526 H553 0.931 . S
C527 C528 1.359 . S
C527 C529 1.364 . S
C528 C526 1.374 . S
C528 C527 1.359 . S
C528 H554 0.931 . S
C529 C525 1.389 . S
C529 C527 1.364 . S
C529 H555 0.931 . S
C530 O544 1.256 . S
C530 O545 1.257 . S
C531 O546 1.240 . S
C531 O547 1.240 . S
C532 Gd521 2.818 . S
C532 C533 1.510 . S
C532 O548 1.249 . S
C532 O549 1.252 . S
C533 C532 1.510 . S
C533 C534 1.404 1_655 S
C533 C535 1.352 1_565 S
C534 C533 1.404 1_455 S
C534 C538 1.389 1_565 S
C534 H556 0.930 . S
C535 C533 1.352 1_545 S
C535 C537 1.374 . S
C535 H557 0.931 . S
C536 C537 1.359 1_455 S
C536 C538 1.364 . S
C537 C535 1.374 . S
C537 C536 1.359 1_655 S
C537 H558 0.931 . S
C538 C534 1.389 1_545 S
C538 C536 1.364 . S
C538 H559 0.931 1_545 S
C539 O550 1.256 . S
C539 O551 1.257 . S
O540 Gd520 2.377 . S
O540 C522 1.240 . S
O541 Gd521 2.395 . S
O541 C522 1.240 . S
O542 Gd520 2.448 . S
O542 C523 1.249 . S
O543 Gd520 2.506 . S
O543 C523 1.252 . S
O544 Gd520 2.435 . S
O544 C530 1.256 . S
O545 Gd520 2.717 . S
O545 Gd521 2.327 . S
O545 C530 1.257 . S
O546 Gd521 2.377 . S
O546 C531 1.240 . S
O547 Gd520 2.395 . S
O547 C531 1.240 . S
O548 Gd521 2.448 . S
O548 C532 1.249 . S
O549 Gd521 2.506 . S
O549 C532 1.252 . S
O550 Gd521 2.435 . S
O550 C539 1.256 . S
O551 Gd520 2.327 . S
O551 Gd521 2.717 . S
O551 C539 1.257 . S
H552 C525 0.930 . S
H553 C526 0.931 . S
H554 C528 0.931 . S
H555 C529 0.931 . S
H556 C534 0.930 . S
H557 C535 0.931 . S
H558 C537 0.931 . S
H559 C538 0.931 1_565 S
Gd560 C563 2.818 . S
Gd560 O580 2.377 . S
Gd560 O582 2.448 . S
Gd560 O583 2.506 . S
Gd560 O584 2.435 . S
Gd560 O585 2.717 . S
Gd560 O587 2.395 . S
Gd560 O591 2.327 . S
Gd561 C572 2.818 . S
Gd561 O581 2.395 . S
Gd561 O585 2.327 . S
Gd561 O586 2.377 . S
Gd561 O588 2.448 . S
Gd561 O589 2.506 . S
Gd561 O590 2.435 . S
Gd561 O591 2.717 . S
C562 O580 1.240 . S
C562 O581 1.240 . S
C563 Gd560 2.818 . S
C563 C564 1.510 . S
C563 O582 1.249 . S
C563 O583 1.252 . S
C564 C563 1.510 . S
C564 C565 1.404 . S
C564 C566 1.352 . S
C565 C564 1.404 . S
C565 C569 1.389 . S
C565 H592 0.930 . S
C566 C564 1.352 . S
C566 C568 1.374 . S
C566 H593 0.931 . S
C567 C568 1.359 . S
C567 C569 1.364 . S
C568 C566 1.374 . S
C568 C567 1.359 . S
C568 H594 0.931 . S
C569 C565 1.389 . S
C569 C567 1.364 . S
C569 H595 0.931 . S
C570 O584 1.256 . S
C570 O585 1.257 . S
C571 O586 1.240 . S
C571 O587 1.240 . S
C572 Gd561 2.818 . S
C572 C573 1.510 . S
C572 O588 1.249 . S
C572 O589 1.252 . S
C573 C572 1.510 . S
C573 C574 1.404 . S
C573 C575 1.352 . S
C574 C573 1.404 . S
C574 C578 1.389 . S
C574 H596 0.930 . S
C575 C573 1.352 . S
C575 C577 1.374 . S
C575 H597 0.931 . S
C576 C577 1.359 . S
C576 C578 1.364 . S
C577 C575 1.374 . S
C577 C576 1.359 . S
C577 H598 0.931 . S
C578 C574 1.389 . S
C578 C576 1.364 . S
C578 H599 0.931 . S
C579 O590 1.256 . S
C579 O591 1.257 . S
O580 Gd560 2.377 . S
O580 C562 1.240 . S
O581 Gd561 2.395 . S
O581 C562 1.240 . S
O582 Gd560 2.448 . S
O582 C563 1.249 . S
O583 Gd560 2.506 . S
O583 C563 1.252 . S
O584 Gd560 2.435 . S
O584 C570 1.256 . S
O585 Gd560 2.717 . S
O585 Gd561 2.327 . S
O585 C570 1.257 . S
O586 Gd561 2.377 . S
O586 C571 1.240 . S
O587 Gd560 2.395 . S
O587 C571 1.240 . S
O588 Gd561 2.448 . S
O588 C572 1.249 . S
O589 Gd561 2.506 . S
O589 C572 1.252 . S
O590 Gd561 2.435 . S
O590 C579 1.256 . S
O591 Gd560 2.327 . S
O591 Gd561 2.717 . S
O591 C579 1.257 . S
H592 C565 0.930 . S
H593 C566 0.931 . S
H594 C568 0.931 . S
H595 C569 0.931 . S
H596 C574 0.930 . S
H597 C575 0.931 . S
H598 C577 0.931 . S
H599 C578 0.931 . S
Gd600 C603 2.818 . S
Gd600 O620 2.377 . S
Gd600 O622 2.448 . S
Gd600 O623 2.506 . S
Gd600 O624 2.435 . S
Gd600 O625 2.717 . S
Gd600 O627 2.395 . S
Gd600 O631 2.327 . S
Gd601 C612 2.818 . S
Gd601 O621 2.395 . S
Gd601 O625 2.327 . S
Gd601 O626 2.377 . S
Gd601 O628 2.448 . S
Gd601 O629 2.506 . S
Gd601 O630 2.435 . S
Gd601 O631 2.717 . S
C602 O620 1.240 . S
C602 O621 1.240 . S
C603 Gd600 2.818 . S
C603 C604 1.510 . S
C603 O622 1.249 . S
C603 O623 1.252 . S
C604 C603 1.510 . S
C604 C605 1.404 . S
C604 C606 1.352 . S
C605 C604 1.404 . S
C605 C609 1.389 . S
C605 H632 0.930 . S
C606 C604 1.352 . S
C606 C608 1.374 . S
C606 H633 0.931 . S
C607 C608 1.359 . S
C607 C609 1.364 . S
C608 C606 1.374 . S
C608 C607 1.359 . S
C608 H634 0.931 . S
C609 C605 1.389 . S
C609 C607 1.364 . S
C609 H635 0.931 . S
C610 O624 1.256 . S
C610 O625 1.257 . S
C611 O626 1.240 . S
C611 O627 1.240 . S
C612 Gd601 2.818 . S
C612 C613 1.510 . S
C612 O628 1.249 . S
C612 O629 1.252 . S
C613 C612 1.510 . S
C613 C614 1.404 . S
C613 C615 1.352 1_545 S
C614 C613 1.404 . S
C614 C618 1.389 1_545 S
C614 H636 0.930 . S
C615 C613 1.352 1_565 S
C615 C617 1.374 . S
C615 H637 0.931 . S
C616 C617 1.359 . S
C616 C618 1.364 . S
C617 C615 1.374 . S
C617 C616 1.359 . S
C617 H638 0.931 . S
C618 C614 1.389 1_565 S
C618 C616 1.364 . S
C618 H639 0.931 1_565 S
C619 O630 1.256 . S
C619 O631 1.257 . S
O620 Gd600 2.377 . S
O620 C602 1.240 . S
O621 Gd601 2.395 . S
O621 C602 1.240 . S
O622 Gd600 2.448 . S
O622 C603 1.249 . S
O623 Gd600 2.506 . S
O623 C603 1.252 . S
O624 Gd600 2.435 . S
O624 C610 1.256 . S
O625 Gd600 2.717 . S
O625 Gd601 2.327 . S
O625 C610 1.257 . S
O626 Gd601 2.377 . S
O626 C611 1.240 . S
O627 Gd600 2.395 . S
O627 C611 1.240 . S
O628 Gd601 2.448 . S
O628 C612 1.249 . S
O629 Gd601 2.506 . S
O629 C612 1.252 . S
O630 Gd601 2.435 . S
O630 C619 1.256 . S
O631 Gd600 2.327 . S
O631 Gd601 2.717 . S
O631 C619 1.257 . S
H632 C605 0.930 . S
H633 C606 0.931 . S
H634 C608 0.931 . S
H635 C609 0.931 . S
H636 C614 0.930 . S
H637 C615 0.931 . S
H638 C617 0.931 . S
H639 C618 0.931 1_545 S
H640 C648 0.929 . S
H641 C650 0.930 . S
H642 C652 0.930 . S
H643 C655 0.929 . S
H644 C658 0.930 . S
H645 C660 0.960 . S
H646 C660 0.960 . S
H647 C660 0.960 . S
C648 H640 0.929 . S
C648 C649 1.377 . S
C648 C650 1.384 . S
C649 C648 1.377 . S
C649 C655 1.390 . S
C650 H641 0.930 . S
C650 C648 1.384 . S
C650 C651 1.372 . S
C651 C650 1.372 . S
C651 C652 1.400 . S
C651 C656 1.490 . S
C652 H642 0.930 . S
C652 C651 1.400 . S
C652 C655 1.386 . S
H653 C669 0.930 . S
H654 C670 0.931 . S
C655 H643 0.929 . S
C655 C649 1.390 . S
C655 C652 1.386 . S
C656 C651 1.490 . S
C656 C658 1.395 . S
C656 C659 1.403 . S
H657 C663 0.930 . S
C658 H644 0.930 . S
C658 C656 1.395 . S
C658 C661 1.403 . S
C659 C656 1.403 . S
C659 C660 1.524 . S
C659 C663 1.400 . S
C660 H645 0.960 . S
C660 H646 0.960 . S
C660 H647 0.960 . S
C660 C659 1.524 . S
C661 C658 1.403 . S
C661 C662 1.392 . S
C661 C665 1.495 . S
C662 C661 1.392 . S
C662 C663 1.385 . S
C662 C664 1.478 . S
C663 H657 0.930 . S
C663 C659 1.400 . S
C663 C662 1.385 . S
C664 C662 1.478 . S
C664 C666 1.381 . S
C664 C670 1.383 . S
C665 C661 1.495 . S
C665 H671 0.959 . S
C665 H672 0.961 . S
C665 H673 0.960 . S
C666 C664 1.381 . S
C666 C667 1.394 . S
C666 H674 0.930 . S
C667 C666 1.394 . S
C667 C668 1.383 . S
C667 H675 0.929 . S
C668 C667 1.383 . S
C668 C669 1.377 . S
C669 H653 0.930 . S
C669 C668 1.377 . S
C669 C670 1.379 . S
C670 H654 0.931 . S
C670 C664 1.383 . S
C670 C669 1.379 . S
H671 C665 0.959 . S
H672 C665 0.961 . S
H673 C665 0.960 . S
H674 C666 0.930 . S
H675 C667 0.929 . S
H676 C684 0.929 . S
H677 C686 0.930 . S
H678 C688 0.930 . S
H679 C691 0.929 . S
H680 C694 0.930 . S
H681 C696 0.960 . S
H682 C696 0.960 . S
H683 C696 0.960 . S
C684 H676 0.929 . S
C684 C685 1.377 . S
C684 C686 1.384 . S
C685 C684 1.377 . S
C685 C691 1.390 . S
C686 H677 0.930 . S
C686 C684 1.384 . S
C686 C687 1.372 . S
C687 C686 1.372 . S
C687 C688 1.400 . S
C687 C692 1.490 . S
C688 H678 0.930 . S
C688 C687 1.400 . S
C688 C691 1.386 . S
H689 C705 0.930 . S
H690 C706 0.931 . S
C691 H679 0.929 . S
C691 C685 1.390 . S
C691 C688 1.386 . S
C692 C687 1.490 . S
C692 C694 1.395 . S
C692 C695 1.403 . S
H693 C699 0.930 . S
C694 H680 0.930 . S
C694 C692 1.395 . S
C694 C697 1.403 . S
C695 C692 1.403 . S
C695 C696 1.524 . S
C695 C699 1.400 . S
C696 H681 0.960 . S
C696 H682 0.960 . S
C696 H683 0.960 . S
C696 C695 1.524 . S
C697 C694 1.403 . S
C697 C698 1.392 . S
C697 C701 1.495 . S
C698 C697 1.392 . S
C698 C699 1.385 . S
C698 C700 1.478 . S
C699 H693 0.930 . S
C699 C695 1.400 . S
C699 C698 1.385 . S
C700 C698 1.478 . S
C700 C702 1.381 . S
C700 C706 1.383 . S
C701 C697 1.495 . S
C701 H707 0.959 . S
C701 H708 0.961 . S
C701 H709 0.960 . S
C702 C700 1.381 . S
C702 C703 1.394 . S
C702 H710 0.930 . S
C703 C702 1.394 . S
C703 C704 1.383 . S
C703 H711 0.929 . S
C704 C703 1.383 . S
C704 C705 1.377 . S
C705 H689 0.930 . S
C705 C704 1.377 . S
C705 C706 1.379 . S
C706 H690 0.931 . S
C706 C700 1.383 . S
C706 C705 1.379 . S
H707 C701 0.959 . S
H708 C701 0.961 . S
H709 C701 0.960 . S
H710 C702 0.930 . S
H711 C703 0.929 . S
H712 C720 0.929 . S
H713 C722 0.930 . S
H714 C724 0.930 . S
H715 C727 0.929 . S
H716 C730 0.930 . S
H717 C732 0.960 . S
H718 C732 0.960 1_455 S
H719 C732 0.960 1_455 S
C720 H712 0.929 . S
C720 C721 1.377 . S
C720 C722 1.384 . S
C721 C720 1.377 . S
C721 C727 1.390 . S
C722 H713 0.930 . S
C722 C720 1.384 . S
C722 C723 1.372 . S
C723 C722 1.372 . S
C723 C724 1.400 . S
C723 C728 1.490 . S
C724 H714 0.930 . S
C724 C723 1.400 . S
C724 C727 1.386 . S
H725 C741 0.930 . S
H726 C742 0.931 . S
C727 H715 0.929 . S
C727 C721 1.390 . S
C727 C724 1.386 . S
C728 C723 1.490 . S
C728 C730 1.395 . S
C728 C731 1.412 . S
H729 C735 0.930 . S
C730 H716 0.930 . S
C730 C728 1.395 . S
C730 C733 1.403 . S
C731 C728 1.412 . S
C731 C732 1.523 1_455 S
C731 C735 1.391 1_455 S
C732 H717 0.960 . S
C732 H718 0.960 1_655 S
C732 H719 0.960 1_655 S
C732 C731 1.523 1_655 S
C733 C730 1.403 . S
C733 C734 1.392 1_455 S
C733 C737 1.495 . S
C734 C733 1.392 1_655 S
C734 C735 1.385 . S
C734 C736 1.478 . S
C735 H729 0.930 . S
C735 C731 1.391 1_655 S
C735 C734 1.385 . S
C736 C734 1.478 . S
C736 C738 1.381 . S
C736 C742 1.383 . S
C737 C733 1.495 . S
C737 H743 0.959 . S
C737 H744 0.961 1_455 S
C737 H745 0.960 1_455 S
C738 C736 1.381 . S
C738 C739 1.394 . S
C738 H746 0.930 . S
C739 C738 1.394 . S
C739 C740 1.383 . S
C739 H747 0.929 . S
C740 C739 1.383 . S
C740 C741 1.377 . S
C741 H725 0.930 . S
C741 C740 1.377 . S
C741 C742 1.379 . S
C742 H726 0.931 . S
C742 C736 1.383 . S
C742 C741 1.379 . S
H743 C737 0.959 . S
H744 C737 0.961 1_655 S
H745 C737 0.960 1_655 S
H746 C738 0.930 . S
H747 C739 0.929 . S
H748 C756 0.929 . S
H749 C758 0.930 1_655 S
H750 C760 0.930 . S
H751 C763 0.929 . S
H752 C766 0.930 . S
H753 C768 0.960 . S
H754 C768 0.960 . S
H755 C768 0.960 . S
C756 H748 0.929 . S
C756 C757 1.377 . S
C756 C758 1.384 . S
C757 C756 1.377 . S
C757 C763 1.390 . S
C758 H749 0.930 1_455 S
C758 C756 1.384 . S
C758 C759 1.372 . S
C759 C758 1.372 . S
C759 C760 1.400 . S
C759 C764 1.490 . S
C760 H750 0.930 . S
C760 C759 1.400 . S
C760 C763 1.386 . S
H761 C777 0.930 . S
H762 C778 0.931 1_455 S
C763 H751 0.929 . S
C763 C757 1.390 . S
C763 C760 1.386 . S
C764 C759 1.490 . S
C764 C766 1.395 1_455 S
C764 C767 1.403 . S
H765 C771 0.933 . S
C766 H752 0.930 . S
C766 C764 1.395 1_655 S
C766 C769 1.403 . S
C767 C764 1.403 . S
C767 C768 1.524 . S
C767 C771 1.411 . S
C768 H753 0.960 . S
C768 H754 0.960 . S
C768 H755 0.960 . S
C768 C767 1.524 . S
C769 C766 1.403 . S
C769 C770 1.392 . S
C769 C773 1.495 . S
C770 C769 1.392 . S
C770 C771 1.372 1_655 S
C770 C772 1.478 . S
C771 H765 0.933 . S
C771 C767 1.411 . S
C771 C770 1.372 1_455 S
C772 C770 1.478 . S
C772 C774 1.381 . S
C772 C778 1.383 . S
C773 C769 1.495 . S
C773 H779 0.959 . S
C773 H780 0.961 . S
C773 H781 0.960 . S
C774 C772 1.381 . S
C774 C775 1.394 . S
C774 H782 0.930 . S
C775 C774 1.394 . S
C775 C776 1.383 . S
C775 H783 0.929 . S
C776 C775 1.383 . S
C776 C777 1.377 . S
C777 H761 0.930 . S
C777 C776 1.377 . S
C777 C778 1.379 . S
C778 H762 0.931 1_655 S
C778 C772 1.383 . S
C778 C777 1.379 . S
H779 C773 0.959 . S
H780 C773 0.961 . S
H781 C773 0.960 . S
H782 C774 0.930 . S
H783 C775 0.929 . S
H784 C792 0.929 . S
H785 C794 0.930 . S
H786 C796 0.930 . S
H787 C799 0.929 . S
H788 C802 0.930 . S
H789 C804 0.960 . S
H790 C804 0.960 . S
H791 C804 0.960 . S
C792 H784 0.929 . S
C792 C793 1.377 . S
C792 C794 1.384 . S
C793 C792 1.377 . S
C793 C799 1.390 . S
C794 H785 0.930 . S
C794 C792 1.384 . S
C794 C795 1.372 . S
C795 C794 1.372 . S
C795 C796 1.400 . S
C795 C800 1.490 . S
C796 H786 0.930 . S
C796 C795 1.400 . S
C796 C799 1.386 . S
H797 C813 0.930 . S
H798 C814 0.931 . S
C799 H787 0.929 . S
C799 C793 1.390 . S
C799 C796 1.386 . S
C800 C795 1.490 . S
C800 C802 1.395 . S
C800 C803 1.403 . S
H801 C807 0.930 . S
C802 H788 0.930 . S
C802 C800 1.395 . S
C802 C805 1.403 . S
C803 C800 1.403 . S
C803 C804 1.524 . S
C803 C807 1.400 . S
C804 H789 0.960 . S
C804 H790 0.960 . S
C804 H791 0.960 . S
C804 C803 1.524 . S
C805 C802 1.403 . S
C805 C806 1.392 . S
C805 C809 1.495 . S
C806 C805 1.392 . S
C806 C807 1.385 . S
C806 C808 1.478 . S
C807 H801 0.930 . S
C807 C803 1.400 . S
C807 C806 1.385 . S
C808 C806 1.478 . S
C808 C810 1.381 . S
C808 C814 1.383 . S
C809 C805 1.495 . S
C809 H815 0.959 . S
C809 H816 0.961 . S
C809 H817 0.960 . S
C810 C808 1.381 . S
C810 C811 1.394 . S
C810 H818 0.930 . S
C811 C810 1.394 . S
C811 C812 1.383 . S
C811 H819 0.929 . S
C812 C811 1.383 . S
C812 C813 1.377 . S
C813 H797 0.930 . S
C813 C812 1.377 . S
C813 C814 1.379 . S
C814 H798 0.931 . S
C814 C808 1.383 . S
C814 C813 1.379 . S
H815 C809 0.959 . S
H816 C809 0.961 . S
H817 C809 0.960 . S
H818 C810 0.930 . S
H819 C811 0.929 . S
H820 C828 0.929 . S
H821 C830 0.930 . S
H822 C832 0.930 . S
H823 C835 0.929 . S
H824 C838 0.930 . S
H825 C840 0.960 . S
H826 C840 0.960 . S
H827 C840 0.960 . S
C828 H820 0.929 . S
C828 C829 1.377 . S
C828 C830 1.384 . S
C829 C828 1.377 . S
C829 C835 1.390 . S
C830 H821 0.930 . S
C830 C828 1.384 . S
C830 C831 1.372 . S
C831 C830 1.372 . S
C831 C832 1.400 . S
C831 C836 1.490 . S
C832 H822 0.930 . S
C832 C831 1.400 . S
C832 C835 1.386 . S
H833 C849 0.930 . S
H834 C850 0.931 . S
C835 H823 0.929 . S
C835 C829 1.390 . S
C835 C832 1.386 . S
C836 C831 1.490 . S
C836 C838 1.395 . S
C836 C839 1.403 . S
H837 C843 0.930 . S
C838 H824 0.930 . S
C838 C836 1.395 . S
C838 C841 1.403 . S
C839 C836 1.403 . S
C839 C840 1.524 . S
C839 C843 1.400 . S
C840 H825 0.960 . S
C840 H826 0.960 . S
C840 H827 0.960 . S
C840 C839 1.524 . S
C841 C838 1.403 . S
C841 C842 1.392 . S
C841 C845 1.495 . S
C842 C841 1.392 . S
C842 C843 1.385 . S
C842 C844 1.478 . S
C843 H837 0.930 . S
C843 C839 1.400 . S
C843 C842 1.385 . S
C844 C842 1.478 . S
C844 C846 1.381 . S
C844 C850 1.383 . S
C845 C841 1.495 . S
C845 H851 0.959 . S
C845 H852 0.961 . S
C845 H853 0.960 . S
C846 C844 1.381 . S
C846 C847 1.394 . S
C846 H854 0.930 . S
C847 C846 1.394 . S
C847 C848 1.383 . S
C847 H855 0.929 . S
C848 C847 1.383 . S
C848 C849 1.377 . S
C849 H833 0.930 . S
C849 C848 1.377 . S
C849 C850 1.379 . S
C850 H834 0.931 . S
C850 C844 1.383 . S
C850 C849 1.379 . S
H851 C845 0.959 . S
H852 C845 0.961 . S
H853 C845 0.960 . S
H854 C846 0.930 . S
H855 C847 0.929 . S
H856 C864 0.929 . S
H857 C866 0.930 . S
H858 C868 0.930 . S
H859 C871 0.929 . S
H860 C874 0.930 . S
H861 C876 0.960 . S
H862 C876 0.960 . S
H863 C876 0.960 . S
C864 H856 0.929 . S
C864 C865 1.377 . S
C864 C866 1.384 . S
C865 C864 1.377 . S
C865 C871 1.390 . S
C866 H857 0.930 . S
C866 C864 1.384 . S
C866 C867 1.372 . S
C867 C866 1.372 . S
C867 C868 1.400 . S
C867 C872 1.490 . S
C868 H858 0.930 . S
C868 C867 1.400 . S
C868 C871 1.386 . S
H869 C885 0.930 . S
H870 C886 0.931 . S
C871 H859 0.929 . S
C871 C865 1.390 . S
C871 C868 1.386 . S
C872 C867 1.490 . S
C872 C874 1.395 . S
C872 C875 1.403 . S
H873 C879 0.930 . S
C874 H860 0.930 . S
C874 C872 1.395 . S
C874 C877 1.403 1_455 S
C875 C872 1.403 . S
C875 C876 1.524 . S
C875 C879 1.400 1_455 S
C876 H861 0.960 . S
C876 H862 0.960 . S
C876 H863 0.960 . S
C876 C875 1.524 . S
C877 C874 1.403 1_655 S
C877 C878 1.392 . S
C877 C881 1.495 . S
C878 C877 1.392 . S
C878 C879 1.385 . S
C878 C880 1.478 . S
C879 H873 0.930 . S
C879 C875 1.400 1_655 S
C879 C878 1.385 . S
C880 C878 1.478 . S
C880 C882 1.381 . S
C880 C886 1.383 . S
C881 C877 1.495 . S
C881 H887 0.959 . S
C881 H888 0.961 . S
C881 H889 0.960 . S
C882 C880 1.381 . S
C882 C883 1.394 . S
C882 H890 0.930 . S
C883 C882 1.394 . S
C883 C884 1.383 . S
C883 H891 0.929 . S
C884 C883 1.383 . S
C884 C885 1.377 . S
C885 H869 0.930 . S
C885 C884 1.377 . S
C885 C886 1.379 . S
C886 H870 0.931 . S
C886 C880 1.383 . S
C886 C885 1.379 . S
H887 C881 0.959 . S
H888 C881 0.961 . S
H889 C881 0.960 . S
H890 C882 0.930 . S
H891 C883 0.929 . S
H892 C900 0.929 . S
H893 C902 0.930 . S
H894 C904 0.930 . S
H895 C907 0.929 . S
H896 C910 0.930 . S
H897 C912 0.960 . S
H898 C912 0.960 . S
H899 C912 0.960 . S
C900 H892 0.929 . S
C900 C901 1.377 . S
C900 C902 1.384 . S
C901 C900 1.377 . S
C901 C907 1.390 . S
C902 H893 0.930 . S
C902 C900 1.384 . S
C902 C903 1.372 . S
C903 C902 1.372 . S
C903 C904 1.400 . S
C903 C908 1.490 . S
C904 H894 0.930 . S
C904 C903 1.400 . S
C904 C907 1.386 . S
H905 C921 0.930 . S
H906 C922 0.931 . S
C907 H895 0.929 . S
C907 C901 1.390 . S
C907 C904 1.386 . S
C908 C903 1.490 . S
C908 C910 1.395 1_455 S
C908 C911 1.403 . S
H909 C915 0.930 . S
C910 H896 0.930 . S
C910 C908 1.395 1_655 S
C910 C913 1.403 . S
C911 C908 1.403 . S
C911 C912 1.524 . S
C911 C915 1.400 . S
C912 H897 0.960 . S
C912 H898 0.960 . S
C912 H899 0.960 . S
C912 C911 1.524 . S
C913 C910 1.403 . S
C913 C914 1.392 . S
C913 C917 1.495 . S
C914 C913 1.392 . S
C914 C915 1.385 1_655 S
C914 C916 1.478 . S
C915 H909 0.930 . S
C915 C911 1.400 . S
C915 C914 1.385 1_455 S
C916 C914 1.478 . S
C916 C918 1.381 . S
C916 C922 1.383 . S
C917 C913 1.495 . S
C917 H923 0.959 . S
C917 H924 0.961 . S
C917 H925 0.960 . S
C918 C916 1.381 . S
C918 C919 1.394 . S
C918 H926 0.930 . S
C919 C918 1.394 . S
C919 C920 1.383 . S
C919 H927 0.929 . S
C920 C919 1.383 . S
C920 C921 1.377 . S
C921 H905 0.930 . S
C921 C920 1.377 . S
C921 C922 1.379 . S
C922 H906 0.931 . S
C922 C916 1.383 . S
C922 C921 1.379 . S
H923 C917 0.959 . S
H924 C917 0.961 . S
H925 C917 0.960 . S
H926 C918 0.930 . S
H927 C919 0.929 . S
H928 C936 0.929 . S
H929 C938 0.930 . S
H930 C940 0.930 1_556 S
H931 C943 0.929 . S
H932 C946 0.930 . S
H933 C948 0.960 . S
H934 C948 0.960 . S
H935 C948 0.960 . S
C936 H928 0.929 . S
C936 C937 1.377 . S
C936 C938 1.384 . S
C937 C936 1.377 . S
C937 C943 1.390 1_545 S
C938 H929 0.930 . S
C938 C936 1.384 . S
C938 C939 1.372 . S
C939 C938 1.372 . S
C939 C940 1.400 1_545 S
C939 C944 1.490 . S
C940 H930 0.930 1_554 S
C940 C939 1.400 1_565 S
C940 C943 1.386 . S
H941 C957 0.930 . S
H942 C958 0.931 . S
C943 H931 0.929 . S
C943 C937 1.390 1_565 S
C943 C940 1.386 . S
C944 C939 1.490 . S
C944 C946 1.395 1_545 S
C944 C947 1.403 1_554 S
H945 C951 0.930 . S
C946 H932 0.930 . S
C946 C944 1.395 1_565 S
C946 C949 1.403 . S
C947 C944 1.403 1_556 S
C947 C948 1.524 . S
C947 C951 1.400 . S
C948 H933 0.960 . S
C948 H934 0.960 . S
C948 H935 0.960 . S
C948 C947 1.524 . S
C949 C946 1.403 . S
C949 C950 1.392 1_554 S
C949 C953 1.495 . S
C950 C949 1.392 1_556 S
C950 C951 1.385 1_565 S
C950 C952 1.478 . S
C951 H945 0.930 . S
C951 C947 1.400 . S
C951 C950 1.385 1_545 S
C952 C950 1.478 . S
C952 C954 1.381 1_565 S
C952 C958 1.383 . S
C953 C949 1.495 . S
C953 H959 0.959 . S
C953 H960 0.961 . S
C953 H961 0.959 . S
C954 C952 1.381 1_545 S
C954 C955 1.394 . S
C954 H962 0.930 1_556 S
C955 C954 1.394 . S
C955 C956 1.383 1_545 S
C955 H963 0.929 . S
C956 C955 1.383 1_565 S
C956 C957 1.377 . S
C957 H941 0.930 . S
C957 C956 1.377 . S
C957 C958 1.379 . S
C958 H942 0.931 . S
C958 C952 1.383 . S
C958 C957 1.379 . S
H959 C953 0.959 . S
H960 C953 0.961 . S
H961 C953 0.959 . S
H962 C954 0.930 1_554 S
H963 C955 0.929 . S
H964 C972 0.929 . S
H965 C974 0.930 . S
H966 C976 0.930 . S
H967 C979 0.929 . S
H968 C982 0.930 . S
H969 C984 0.960 . S
H970 C984 0.960 . S
H971 C984 0.960 . S
C972 H964 0.929 . S
C972 C973 1.377 . S
C972 C974 1.384 . S
C973 C972 1.377 . S
C973 C979 1.390 . S
C974 H965 0.930 . S
C974 C972 1.384 . S
C974 C975 1.372 . S
C975 C974 1.372 . S
C975 C976 1.400 . S
C975 C980 1.490 . S
C976 H966 0.930 . S
C976 C975 1.400 . S
C976 C979 1.386 . S
H977 C993 0.930 . S
H978 C994 0.931 . S
C979 H967 0.929 . S
C979 C973 1.390 . S
C979 C976 1.386 . S
C980 C975 1.490 . S
C980 C982 1.395 . S
C980 C983 1.403 . S
H981 C987 0.930 . S
C982 H968 0.930 . S
C982 C980 1.395 . S
C982 C985 1.403 . S
C983 C980 1.403 . S
C983 C984 1.524 . S
C983 C987 1.400 . S
C984 H969 0.960 . S
C984 H970 0.960 . S
C984 H971 0.960 . S
C984 C983 1.524 . S
C985 C982 1.403 . S
C985 C986 1.392 . S
C985 C989 1.495 . S
C986 C985 1.392 . S
C986 C987 1.385 . S
C986 C988 1.478 . S
C987 H981 0.930 . S
C987 C983 1.400 . S
C987 C986 1.385 . S
C988 C986 1.478 . S
C988 C990 1.381 . S
C988 C994 1.383 . S
C989 C985 1.495 . S
C989 H995 0.959 . S
C989 H996 0.961 . S
C989 H997 0.960 . S
C990 C988 1.381 . S
C990 C991 1.394 . S
C990 H998 0.930 . S
C991 C990 1.394 . S
C991 C992 1.383 . S
C991 H999 0.929 . S
C992 C991 1.383 . S
C992 C993 1.377 . S
C993 H977 0.930 . S
C993 C992 1.377 . S
C993 C994 1.379 . S
C994 H978 0.931 . S
C994 C988 1.383 . S
C994 C993 1.379 . S
H995 C989 0.959 . S
H996 C989 0.961 . S
H997 C989 0.960 . S
H998 C990 0.930 . S
H999 C991 0.929 . S
H1000 C1008 0.929 . S
H1001 C1010 0.930 . S
H1002 C1012 0.930 . S
H1003 C1015 0.929 . S
H1004 C1018 0.930 . S
H1005 C1020 0.960 . S
H1006 C1020 0.960 . S
H1007 C1020 0.960 . S
C1008 H1000 0.929 . S
C1008 C1009 1.377 . S
C1008 C1010 1.384 . S
C1009 C1008 1.377 . S
C1009 C1015 1.390 1_565 S
C1010 H1001 0.930 . S
C1010 C1008 1.384 . S
C1010 C1011 1.372 . S
C1011 C1010 1.372 . S
C1011 C1012 1.400 1_565 S
C1011 C1016 1.490 . S
C1012 H1002 0.930 . S
C1012 C1011 1.400 1_545 S
C1012 C1015 1.386 . S
H1013 C1029 0.930 . S
H1014 C1030 0.931 . S
C1015 H1003 0.929 . S
C1015 C1009 1.390 1_545 S
C1015 C1012 1.386 . S
C1016 C1011 1.490 . S
C1016 C1018 1.395 1_565 S
C1016 C1019 1.403 . S
H1017 C1023 0.930 . S
C1018 H1004 0.930 . S
C1018 C1016 1.395 1_545 S
C1018 C1021 1.403 1_455 S
C1019 C1016 1.403 . S
C1019 C1020 1.524 . S
C1019 C1023 1.400 1_455 S
C1020 H1005 0.960 . S
C1020 H1006 0.960 . S
C1020 H1007 0.960 . S
C1020 C1019 1.524 . S
C1021 C1018 1.403 1_655 S
C1021 C1022 1.392 . S
C1021 C1025 1.495 . S
C1022 C1021 1.392 . S
C1022 C1023 1.385 1_545 S
C1022 C1024 1.478 . S
C1023 H1017 0.930 . S
C1023 C1019 1.400 1_655 S
C1023 C1022 1.385 1_565 S
C1024 C1022 1.478 . S
C1024 C1026 1.381 1_545 S
C1024 C1030 1.383 . S
C1025 C1021 1.495 . S
C1025 H1031 0.959 . S
C1025 H1032 0.961 . S
C1025 H1033 0.957 . S
C1026 C1024 1.381 1_565 S
C1026 C1027 1.394 . S
C1026 H1034 0.930 . S
C1027 C1026 1.394 . S
C1027 C1028 1.383 1_565 S
C1027 H1035 0.929 . S
C1028 C1027 1.383 1_545 S
C1028 C1029 1.377 . S
C1029 H1013 0.930 . S
C1029 C1028 1.377 . S
C1029 C1030 1.379 . S
C1030 H1014 0.931 . S
C1030 C1024 1.383 . S
C1030 C1029 1.379 . S
H1031 C1025 0.959 . S
H1032 C1025 0.961 . S
H1033 C1025 0.957 . S
H1034 C1026 0.930 . S
H1035 C1027 0.929 . S
H1036 C1044 0.929 . S
H1037 C1046 0.930 . S
H1038 C1048 0.930 . S
H1039 C1051 0.929 . S
H1040 C1054 0.930 . S
H1041 C1056 0.960 . S
H1042 C1056 0.960 . S
H1043 C1056 0.960 . S
C1044 H1036 0.929 . S
C1044 C1045 1.377 . S
C1044 C1046 1.384 . S
C1045 C1044 1.377 . S
C1045 C1051 1.390 . S
C1046 H1037 0.930 . S
C1046 C1044 1.384 . S
C1046 C1047 1.372 . S
C1047 C1046 1.372 . S
C1047 C1048 1.400 . S
C1047 C1052 1.490 . S
C1048 H1038 0.930 . S
C1048 C1047 1.400 . S
C1048 C1051 1.386 . S
H1049 C1065 0.930 . S
H1050 C1066 0.931 . S
C1051 H1039 0.929 . S
C1051 C1045 1.390 . S
C1051 C1048 1.386 . S
C1052 C1047 1.490 . S
C1052 C1054 1.395 . S
C1052 C1055 1.403 . S
H1053 C1059 0.930 . S
C1054 H1040 0.930 . S
C1054 C1052 1.395 . S
C1054 C1057 1.403 . S
C1055 C1052 1.403 . S
C1055 C1056 1.524 . S
C1055 C1059 1.400 . S
C1056 H1041 0.960 . S
C1056 H1042 0.960 . S
C1056 H1043 0.960 . S
C1056 C1055 1.524 . S
C1057 C1054 1.403 . S
C1057 C1058 1.392 . S
C1057 C1061 1.495 . S
C1058 C1057 1.392 . S
C1058 C1059 1.385 . S
C1058 C1060 1.478 . S
C1059 H1053 0.930 . S
C1059 C1055 1.400 . S
C1059 C1058 1.385 . S
C1060 C1058 1.478 . S
C1060 C1062 1.381 . S
C1060 C1066 1.383 . S
C1061 C1057 1.495 . S
C1061 H1067 0.959 . S
C1061 H1068 0.961 . S
C1061 H1069 0.960 . S
C1062 C1060 1.381 . S
C1062 C1063 1.394 . S
C1062 H1070 0.930 . S
C1063 C1062 1.394 . S
C1063 C1064 1.383 . S
C1063 H1071 0.929 . S
C1064 C1063 1.383 . S
C1064 C1065 1.377 . S
C1065 H1049 0.930 . S
C1065 C1064 1.377 . S
C1065 C1066 1.379 . S
C1066 H1050 0.931 . S
C1066 C1060 1.383 . S
C1066 C1065 1.379 . S
H1067 C1061 0.959 . S
H1068 C1061 0.961 . S
H1069 C1061 0.960 . S
H1070 C1062 0.930 . S
H1071 C1063 0.929 . S
H1072 C1080 0.929 . S
H1073 C1082 0.930 . S
H1074 C1084 0.930 . S
H1075 C1087 0.929 . S
H1076 C1090 0.930 . S
H1077 C1092 0.960 . S
H1078 C1092 0.960 . S
H1079 C1092 0.960 . S
C1080 H1072 0.929 . S
C1080 C1081 1.377 . S
C1080 C1082 1.384 . S
C1081 C1080 1.377 . S
C1081 C1087 1.390 . S
C1082 H1073 0.930 . S
C1082 C1080 1.384 . S
C1082 C1083 1.372 . S
C1083 C1082 1.372 . S
C1083 C1084 1.400 . S
C1083 C1088 1.490 . S
C1084 H1074 0.930 . S
C1084 C1083 1.400 . S
C1084 C1087 1.386 . S
H1085 C1101 0.930 . S
H1086 C1102 0.931 . S
C1087 H1075 0.929 . S
C1087 C1081 1.390 . S
C1087 C1084 1.386 . S
C1088 C1083 1.490 . S
C1088 C1090 1.395 . S
C1088 C1091 1.403 . S
H1089 C1095 0.930 . S
C1090 H1076 0.930 . S
C1090 C1088 1.395 . S
C1090 C1093 1.403 . S
C1091 C1088 1.403 . S
C1091 C1092 1.524 . S
C1091 C1095 1.400 . S
C1092 H1077 0.960 . S
C1092 H1078 0.960 . S
C1092 H1079 0.960 . S
C1092 C1091 1.524 . S
C1093 C1090 1.403 . S
C1093 C1094 1.392 . S
C1093 C1097 1.495 . S
C1094 C1093 1.392 . S
C1094 C1095 1.385 . S
C1094 C1096 1.478 . S
C1095 H1089 0.930 . S
C1095 C1091 1.400 . S
C1095 C1094 1.385 . S
C1096 C1094 1.478 . S
C1096 C1098 1.381 . S
C1096 C1102 1.383 . S
C1097 C1093 1.495 . S
C1097 H1103 0.959 . S
C1097 H1104 0.961 . S
C1097 H1105 0.960 . S
C1098 C1096 1.381 . S
C1098 C1099 1.394 . S
C1098 H1106 0.930 . S
C1099 C1098 1.394 . S
C1099 C1100 1.383 . S
C1099 H1107 0.929 . S
C1100 C1099 1.383 . S
C1100 C1101 1.377 . S
C1101 H1085 0.930 . S
C1101 C1100 1.377 . S
C1101 C1102 1.379 . S
C1102 H1086 0.931 . S
C1102 C1096 1.383 . S
C1102 C1101 1.379 . S
H1103 C1097 0.959 . S
H1104 C1097 0.961 . S
H1105 C1097 0.960 . S
H1106 C1098 0.930 . S
H1107 C1099 0.929 . S
H1108 C1116 0.929 . S
H1109 C1118 0.930 . S
H1110 C1120 0.930 . S
H1111 C1123 0.929 . S
H1112 C1126 0.930 . S
H1113 C1128 0.960 . S
H1114 C1128 0.960 . S
H1115 C1128 0.960 . S
C1116 H1108 0.929 . S
C1116 C1117 1.377 . S
C1116 C1118 1.384 . S
C1117 C1116 1.377 . S
C1117 C1123 1.390 . S
C1118 H1109 0.930 . S
C1118 C1116 1.384 . S
C1118 C1119 1.372 . S
C1119 C1118 1.372 . S
C1119 C1120 1.400 . S
C1119 C1124 1.490 . S
C1120 H1110 0.930 . S
C1120 C1119 1.400 . S
C1120 C1123 1.386 . S
H1121 C1137 0.930 . S
H1122 C1138 0.931 . S
C1123 H1111 0.929 . S
C1123 C1117 1.390 . S
C1123 C1120 1.386 . S
C1124 C1119 1.490 . S
C1124 C1126 1.395 . S
C1124 C1127 1.403 . S
H1125 C1131 0.930 . S
C1126 H1112 0.930 . S
C1126 C1124 1.395 . S
C1126 C1129 1.403 . S
C1127 C1124 1.403 . S
C1127 C1128 1.524 . S
C1127 C1131 1.400 . S
C1128 H1113 0.960 . S
C1128 H1114 0.960 . S
C1128 H1115 0.960 . S
C1128 C1127 1.524 . S
C1129 C1126 1.403 . S
C1129 C1130 1.392 . S
C1129 C1133 1.495 . S
C1130 C1129 1.392 . S
C1130 C1131 1.385 . S
C1130 C1132 1.478 . S
C1131 H1125 0.930 . S
C1131 C1127 1.400 . S
C1131 C1130 1.385 . S
C1132 C1130 1.478 . S
C1132 C1134 1.381 . S
C1132 C1138 1.383 . S
C1133 C1129 1.495 . S
C1133 H1139 0.959 . S
C1133 H1140 0.961 . S
C1133 H1141 0.960 . S
C1134 C1132 1.381 . S
C1134 C1135 1.394 . S
C1134 H1142 0.930 . S
C1135 C1134 1.394 . S
C1135 C1136 1.383 . S
C1135 H1143 0.929 . S
C1136 C1135 1.383 . S
C1136 C1137 1.377 . S
C1137 H1121 0.930 . S
C1137 C1136 1.377 . S
C1137 C1138 1.379 . S
C1138 H1122 0.931 . S
C1138 C1132 1.383 . S
C1138 C1137 1.379 . S
H1139 C1133 0.959 . S
H1140 C1133 0.961 . S
H1141 C1133 0.960 . S
H1142 C1134 0.930 . S
H1143 C1135 0.929 . S
H1144 C1152 0.929 . S
H1145 C1154 0.930 . S
H1146 C1156 0.930 . S
H1147 C1159 0.929 . S
H1148 C1162 0.930 . S
H1149 C1164 0.960 1_655 S
H1150 C1164 0.960 . S
H1151 C1164 0.960 . S
C1152 H1144 0.929 . S
C1152 C1153 1.377 . S
C1152 C1154 1.384 . S
C1153 C1152 1.377 . S
C1153 C1159 1.390 . S
C1154 H1145 0.930 . S
C1154 C1152 1.384 . S
C1154 C1155 1.372 . S
C1155 C1154 1.372 . S
C1155 C1156 1.400 . S
C1155 C1160 1.490 . S
C1156 H1146 0.930 . S
C1156 C1155 1.400 . S
C1156 C1159 1.386 . S
H1157 C1173 0.930 . S
H1158 C1174 0.931 . S
C1159 H1147 0.929 . S
C1159 C1153 1.390 . S
C1159 C1156 1.386 . S
C1160 C1155 1.490 . S
C1160 C1162 1.395 . S
C1160 C1163 1.403 . S
H1161 C1167 0.930 . S
C1162 H1148 0.930 . S
C1162 C1160 1.395 . S
C1162 C1165 1.403 1_455 S
C1163 C1160 1.403 . S
C1163 C1164 1.524 . S
C1163 C1167 1.400 1_455 S
C1164 H1149 0.960 1_455 S
C1164 H1150 0.960 . S
C1164 H1151 0.960 . S
C1164 C1163 1.524 . S
C1165 C1162 1.403 1_655 S
C1165 C1166 1.392 . S
C1165 C1169 1.495 . S
C1166 C1165 1.392 . S
C1166 C1167 1.385 . S
C1166 C1168 1.478 . S
C1167 H1161 0.930 . S
C1167 C1163 1.400 1_655 S
C1167 C1166 1.385 . S
C1168 C1166 1.478 . S
C1168 C1170 1.381 . S
C1168 C1174 1.383 . S
C1169 C1165 1.495 . S
C1169 H1175 0.959 1_655 S
C1169 H1176 0.961 . S
C1169 H1177 0.960 . S
C1170 C1168 1.381 . S
C1170 C1171 1.394 . S
C1170 H1178 0.930 . S
C1171 C1170 1.394 . S
C1171 C1172 1.383 . S
C1171 H1179 0.929 . S
C1172 C1171 1.383 . S
C1172 C1173 1.377 . S
C1173 H1157 0.930 . S
C1173 C1172 1.377 . S
C1173 C1174 1.379 . S
C1174 H1158 0.931 . S
C1174 C1168 1.383 . S
C1174 C1173 1.379 . S
H1175 C1169 0.959 1_455 S
H1176 C1169 0.961 . S
H1177 C1169 0.960 . S
H1178 C1170 0.930 . S
H1179 C1171 0.929 . S
H1180 C1188 0.929 . S
H1181 C1190 0.930 . S
H1182 C1192 0.930 . S
H1183 C1195 0.929 . S
H1184 C1198 0.930 . S
H1185 C1200 0.960 . S
H1186 C1200 0.960 . S
H1187 C1200 0.960 . S
C1188 H1180 0.929 . S
C1188 C1189 1.377 . S
C1188 C1190 1.384 . S
C1189 C1188 1.377 . S
C1189 C1195 1.390 . S
C1190 H1181 0.930 . S
C1190 C1188 1.384 . S
C1190 C1191 1.372 . S
C1191 C1190 1.372 . S
C1191 C1192 1.400 . S
C1191 C1196 1.490 . S
C1192 H1182 0.930 . S
C1192 C1191 1.400 . S
C1192 C1195 1.386 . S
H1193 C1209 0.930 . S
H1194 C1210 0.931 . S
C1195 H1183 0.929 . S
C1195 C1189 1.390 . S
C1195 C1192 1.386 . S
C1196 C1191 1.490 . S
C1196 C1198 1.395 . S
C1196 C1199 1.403 1_554 S
H1197 C1203 0.930 . S
C1198 H1184 0.930 . S
C1198 C1196 1.395 . S
C1198 C1201 1.403 . S
C1199 C1196 1.403 1_556 S
C1199 C1200 1.524 . S
C1199 C1203 1.400 . S
C1200 H1185 0.960 . S
C1200 H1186 0.960 . S
C1200 H1187 0.960 . S
C1200 C1199 1.524 . S
C1201 C1198 1.403 . S
C1201 C1202 1.392 1_554 S
C1201 C1205 1.495 . S
C1202 C1201 1.392 1_556 S
C1202 C1203 1.385 . S
C1202 C1204 1.478 . S
C1203 H1197 0.930 . S
C1203 C1199 1.400 . S
C1203 C1202 1.385 . S
C1204 C1202 1.478 . S
C1204 C1206 1.381 . S
C1204 C1210 1.383 . S
C1205 C1201 1.495 . S
C1205 H1211 0.959 . S
C1205 H1212 0.961 . S
C1205 H1213 0.960 . S
C1206 C1204 1.381 . S
C1206 C1207 1.394 . S
C1206 H1214 0.930 . S
C1207 C1206 1.394 . S
C1207 C1208 1.383 . S
C1207 H1215 0.929 . S
C1208 C1207 1.383 . S
C1208 C1209 1.377 . S
C1209 H1193 0.930 . S
C1209 C1208 1.377 . S
C1209 C1210 1.379 . S
C1210 H1194 0.931 . S
C1210 C1204 1.383 . S
C1210 C1209 1.379 . S
H1211 C1205 0.959 . S
H1212 C1205 0.961 . S
H1213 C1205 0.960 . S
H1214 C1206 0.930 . S
H1215 C1207 0.929 . S
H1216 C1224 0.929 . S
H1217 C1226 0.930 . S
H1218 C1228 0.930 . S
H1219 C1231 0.929 . S
H1220 C1234 0.930 . S
H1221 C1236 0.960 . S
H1222 C1236 0.960 . S
H1223 C1236 0.960 . S
C1224 H1216 0.929 . S
C1224 C1225 1.377 . S
C1224 C1226 1.384 . S
C1225 C1224 1.377 . S
C1225 C1231 1.390 . S
C1226 H1217 0.930 . S
C1226 C1224 1.384 . S
C1226 C1227 1.372 . S
C1227 C1226 1.372 . S
C1227 C1228 1.400 . S
C1227 C1232 1.490 . S
C1228 H1218 0.930 . S
C1228 C1227 1.400 . S
C1228 C1231 1.386 . S
H1229 C1245 0.930 . S
H1230 C1246 0.931 . S
C1231 H1219 0.929 . S
C1231 C1225 1.390 . S
C1231 C1228 1.386 . S
C1232 C1227 1.490 . S
C1232 C1234 1.395 . S
C1232 C1235 1.403 . S
H1233 C1239 0.930 . S
C1234 H1220 0.930 . S
C1234 C1232 1.395 . S
C1234 C1237 1.403 . S
C1235 C1232 1.403 . S
C1235 C1236 1.524 . S
C1235 C1239 1.400 . S
C1236 H1221 0.960 . S
C1236 H1222 0.960 . S
C1236 H1223 0.960 . S
C1236 C1235 1.524 . S
C1237 C1234 1.403 . S
C1237 C1238 1.392 . S
C1237 C1241 1.495 . S
C1238 C1237 1.392 . S
C1238 C1239 1.385 . S
C1238 C1240 1.478 . S
C1239 H1233 0.930 . S
C1239 C1235 1.400 . S
C1239 C1238 1.385 . S
C1240 C1238 1.478 . S
C1240 C1242 1.381 . S
C1240 C1246 1.383 . S
C1241 C1237 1.495 . S
C1241 H1247 0.959 . S
C1241 H1248 0.961 . S
C1241 H1249 0.960 . S
C1242 C1240 1.381 . S
C1242 C1243 1.394 . S
C1242 H1250 0.930 . S
C1243 C1242 1.394 . S
C1243 C1244 1.383 . S
C1243 H1251 0.929 . S
C1244 C1243 1.383 . S
C1244 C1245 1.377 . S
C1245 H1229 0.930 . S
C1245 C1244 1.377 . S
C1245 C1246 1.379 . S
C1246 H1230 0.931 . S
C1246 C1240 1.383 . S
C1246 C1245 1.379 . S
H1247 C1241 0.959 . S
H1248 C1241 0.961 . S
H1249 C1241 0.960 . S
H1250 C1242 0.930 . S
H1251 C1243 0.929 . S
H1252 C1260 0.929 . S
H1253 C1262 0.930 . S
H1254 C1264 0.930 . S
H1255 C1267 0.929 . S
H1256 C1270 0.930 . S
H1257 C1272 0.960 . S
H1258 C1272 0.960 . S
H1259 C1272 0.960 . S
C1260 H1252 0.929 . S
C1260 C1261 1.377 . S
C1260 C1262 1.384 . S
C1261 C1260 1.377 . S
C1261 C1267 1.390 . S
C1262 H1253 0.930 . S
C1262 C1260 1.384 . S
C1262 C1263 1.372 . S
C1263 C1262 1.372 . S
C1263 C1264 1.400 . S
C1263 C1268 1.490 . S
C1264 H1254 0.930 . S
C1264 C1263 1.400 . S
C1264 C1267 1.386 . S
H1265 C1281 0.930 . S
H1266 C1282 0.931 . S
C1267 H1255 0.929 . S
C1267 C1261 1.390 . S
C1267 C1264 1.386 . S
C1268 C1263 1.490 . S
C1268 C1270 1.395 . S
C1268 C1271 1.403 . S
H1269 C1275 0.930 . S
C1270 H1256 0.930 . S
C1270 C1268 1.395 . S
C1270 C1273 1.403 . S
C1271 C1268 1.403 . S
C1271 C1272 1.524 . S
C1271 C1275 1.400 . S
C1272 H1257 0.960 . S
C1272 H1258 0.960 . S
C1272 H1259 0.960 . S
C1272 C1271 1.524 . S
C1273 C1270 1.403 . S
C1273 C1274 1.392 . S
C1273 C1277 1.495 . S
C1274 C1273 1.392 . S
C1274 C1275 1.385 . S
C1274 C1276 1.478 . S
C1275 H1269 0.930 . S
C1275 C1271 1.400 . S
C1275 C1274 1.385 . S
C1276 C1274 1.478 . S
C1276 C1278 1.381 . S
C1276 C1282 1.383 . S
C1277 C1273 1.495 . S
C1277 H1283 0.959 . S
C1277 H1284 0.961 . S
C1277 H1285 0.960 . S
C1278 C1276 1.381 . S
C1278 C1279 1.394 . S
C1278 H1286 0.930 . S
C1279 C1278 1.394 . S
C1279 C1280 1.383 . S
C1279 H1287 0.929 . S
C1280 C1279 1.383 . S
C1280 C1281 1.377 . S
C1281 H1265 0.930 . S
C1281 C1280 1.377 . S
C1281 C1282 1.379 . S
C1282 H1266 0.931 . S
C1282 C1276 1.383 . S
C1282 C1281 1.379 . S
H1283 C1277 0.959 . S
H1284 C1277 0.961 . S
H1285 C1277 0.960 . S
H1286 C1278 0.930 . S
H1287 C1279 0.929 . S
H1288 C1296 0.929 . S
H1289 C1298 0.930 . S
H1290 C1300 0.930 . S
H1291 C1303 0.929 . S
H1292 C1306 0.930 . S
H1293 C1308 0.960 . S
H1294 C1308 0.960 . S
H1295 C1308 0.960 . S
C1296 H1288 0.929 . S
C1296 C1297 1.377 . S
C1296 C1298 1.384 . S
C1297 C1296 1.377 . S
C1297 C1303 1.390 . S
C1298 H1289 0.930 . S
C1298 C1296 1.384 . S
C1298 C1299 1.372 . S
C1299 C1298 1.372 . S
C1299 C1300 1.400 . S
C1299 C1304 1.490 . S
C1300 H1290 0.930 . S
C1300 C1299 1.400 . S
C1300 C1303 1.386 . S
H1301 C1317 0.930 . S
H1302 C1318 0.931 . S
C1303 H1291 0.929 . S
C1303 C1297 1.390 . S
C1303 C1300 1.386 . S
C1304 C1299 1.490 . S
C1304 C1306 1.395 . S
C1304 C1307 1.403 . S
H1305 C1311 0.930 . S
C1306 H1292 0.930 . S
C1306 C1304 1.395 . S
C1306 C1309 1.403 . S
C1307 C1304 1.403 . S
C1307 C1308 1.524 . S
C1307 C1311 1.400 . S
C1308 H1293 0.960 . S
C1308 H1294 0.960 . S
C1308 H1295 0.960 . S
C1308 C1307 1.524 . S
C1309 C1306 1.403 . S
C1309 C1310 1.392 . S
C1309 C1313 1.495 . S
C1310 C1309 1.392 . S
C1310 C1311 1.385 . S
C1310 C1312 1.478 . S
C1311 H1305 0.930 . S
C1311 C1307 1.400 . S
C1311 C1310 1.385 . S
C1312 C1310 1.478 . S
C1312 C1314 1.381 . S
C1312 C1318 1.383 . S
C1313 C1309 1.495 . S
C1313 H1319 0.959 . S
C1313 H1320 0.961 . S
C1313 H1321 0.960 . S
C1314 C1312 1.381 . S
C1314 C1315 1.394 . S
C1314 H1322 0.930 . S
C1315 C1314 1.394 . S
C1315 C1316 1.383 . S
C1315 H1323 0.929 . S
C1316 C1315 1.383 . S
C1316 C1317 1.377 . S
C1317 H1301 0.930 . S
C1317 C1316 1.377 . S
C1317 C1318 1.379 . S
C1318 H1302 0.931 . S
C1318 C1312 1.383 . S
C1318 C1317 1.379 . S
H1319 C1313 0.959 . S
H1320 C1313 0.961 . S
H1321 C1313 0.960 . S
H1322 C1314 0.930 . S
H1323 C1315 0.929 . S
H1324 C1332 0.929 . S
H1325 C1334 0.930 . S
H1326 C1336 0.930 . S
H1327 C1339 0.929 . S
H1328 C1342 0.930 . S
H1329 C1344 0.960 . S
H1330 C1344 0.960 . S
H1331 C1344 0.960 . S
C1332 H1324 0.929 . S
C1332 C1333 1.377 . S
C1332 C1334 1.384 . S
C1333 C1332 1.377 . S
C1333 C1339 1.390 . S
C1334 H1325 0.930 . S
C1334 C1332 1.384 . S
C1334 C1335 1.372 . S
C1335 C1334 1.372 . S
C1335 C1336 1.400 . S
C1335 C1340 1.490 . S
C1336 H1326 0.930 . S
C1336 C1335 1.400 . S
C1336 C1339 1.386 . S
H1337 C1353 0.930 . S
H1338 C1354 0.931 . S
C1339 H1327 0.929 . S
C1339 C1333 1.390 . S
C1339 C1336 1.386 . S
C1340 C1335 1.490 . S
C1340 C1342 1.395 . S
C1340 C1343 1.403 . S
H1341 C1347 0.930 . S
C1342 H1328 0.930 . S
C1342 C1340 1.395 . S
C1342 C1345 1.403 . S
C1343 C1340 1.403 . S
C1343 C1344 1.524 . S
C1343 C1347 1.400 . S
C1344 H1329 0.960 . S
C1344 H1330 0.960 . S
C1344 H1331 0.960 . S
C1344 C1343 1.524 . S
C1345 C1342 1.403 . S
C1345 C1346 1.392 . S
C1345 C1349 1.495 . S
C1346 C1345 1.392 . S
C1346 C1347 1.385 . S
C1346 C1348 1.478 . S
C1347 H1341 0.930 . S
C1347 C1343 1.400 . S
C1347 C1346 1.385 . S
C1348 C1346 1.478 . S
C1348 C1350 1.381 . S
C1348 C1354 1.383 . S
C1349 C1345 1.495 . S
C1349 H1355 0.959 . S
C1349 H1356 0.961 . S
C1349 H1357 0.960 . S
C1350 C1348 1.381 . S
C1350 C1351 1.394 . S
C1350 H1358 0.930 . S
C1351 C1350 1.394 . S
C1351 C1352 1.383 . S
C1351 H1359 0.929 . S
C1352 C1351 1.383 . S
C1352 C1353 1.377 . S
C1353 H1337 0.930 . S
C1353 C1352 1.377 . S
C1353 C1354 1.379 . S
C1354 H1338 0.931 . S
C1354 C1348 1.383 . S
C1354 C1353 1.379 . S
H1355 C1349 0.959 . S
H1356 C1349 0.961 . S
H1357 C1349 0.960 . S
H1358 C1350 0.930 . S
H1359 C1351 0.929 . S
H1360 C1368 0.929 . S
H1361 C1370 0.930 . S
H1362 C1372 0.930 . S
H1363 C1375 0.929 . S
H1364 C1378 0.930 . S
H1365 C1380 0.960 . S
H1366 C1380 0.960 . S
H1367 C1380 0.960 . S
C1368 H1360 0.929 . S
C1368 C1369 1.377 . S
C1368 C1370 1.384 . S
C1369 C1368 1.377 . S
C1369 C1375 1.390 . S
C1370 H1361 0.930 . S
C1370 C1368 1.384 . S
C1370 C1371 1.372 . S
C1371 C1370 1.372 . S
C1371 C1372 1.400 . S
C1371 C1376 1.490 . S
C1372 H1362 0.930 . S
C1372 C1371 1.400 . S
C1372 C1375 1.386 . S
H1373 C1389 0.930 . S
H1374 C1390 0.931 . S
C1375 H1363 0.929 . S
C1375 C1369 1.390 . S
C1375 C1372 1.386 . S
C1376 C1371 1.490 . S
C1376 C1378 1.395 . S
C1376 C1379 1.403 . S
H1377 C1383 0.930 . S
C1378 H1364 0.930 . S
C1378 C1376 1.395 . S
C1378 C1381 1.403 . S
C1379 C1376 1.403 . S
C1379 C1380 1.524 . S
C1379 C1383 1.400 . S
C1380 H1365 0.960 . S
C1380 H1366 0.960 . S
C1380 H1367 0.960 . S
C1380 C1379 1.524 . S
C1381 C1378 1.403 . S
C1381 C1382 1.392 . S
C1381 C1385 1.495 . S
C1382 C1381 1.392 . S
C1382 C1383 1.385 . S
C1382 C1384 1.478 . S
C1383 H1377 0.930 . S
C1383 C1379 1.400 . S
C1383 C1382 1.385 . S
C1384 C1382 1.478 . S
C1384 C1386 1.381 . S
C1384 C1390 1.383 . S
C1385 C1381 1.495 . S
C1385 H1391 0.959 . S
C1385 H1392 0.961 . S
C1385 H1393 0.960 . S
C1386 C1384 1.381 . S
C1386 C1387 1.394 . S
C1386 H1394 0.930 . S
C1387 C1386 1.394 . S
C1387 C1388 1.383 . S
C1387 H1395 0.929 . S
C1388 C1387 1.383 . S
C1388 C1389 1.377 . S
C1389 H1373 0.930 . S
C1389 C1388 1.377 . S
C1389 C1390 1.379 . S
C1390 H1374 0.931 . S
C1390 C1384 1.383 . S
C1390 C1389 1.379 . S
H1391 C1385 0.959 . S
H1392 C1385 0.961 . S
H1393 C1385 0.960 . S
H1394 C1386 0.930 . S
H1395 C1387 0.929 . S
H1396 C1404 0.929 . S
H1397 C1406 0.930 . S
H1398 C1408 0.930 . S
H1399 C1411 0.929 . S
H1400 C1414 0.930 . S
H1401 C1416 0.960 . S
H1402 C1416 0.960 . S
H1403 C1416 0.960 . S
C1404 H1396 0.929 . S
C1404 C1405 1.377 . S
C1404 C1406 1.384 . S
C1405 C1404 1.377 . S
C1405 C1411 1.390 . S
C1406 H1397 0.930 . S
C1406 C1404 1.384 . S
C1406 C1407 1.372 . S
C1407 C1406 1.372 . S
C1407 C1408 1.400 . S
C1407 C1412 1.490 . S
C1408 H1398 0.930 . S
C1408 C1407 1.400 . S
C1408 C1411 1.386 . S
H1409 C1425 0.930 . S
H1410 C1426 0.931 . S
C1411 H1399 0.929 . S
C1411 C1405 1.390 . S
C1411 C1408 1.386 . S
C1412 C1407 1.490 . S
C1412 C1414 1.395 . S
C1412 C1415 1.403 . S
H1413 C1419 0.930 . S
C1414 H1400 0.930 . S
C1414 C1412 1.395 . S
C1414 C1417 1.403 . S
C1415 C1412 1.403 . S
C1415 C1416 1.524 . S
C1415 C1419 1.400 . S
C1416 H1401 0.960 . S
C1416 H1402 0.960 . S
C1416 H1403 0.960 . S
C1416 C1415 1.524 . S
C1417 C1414 1.403 . S
C1417 C1418 1.392 . S
C1417 C1421 1.495 . S
C1418 C1417 1.392 . S
C1418 C1419 1.385 . S
C1418 C1420 1.478 . S
C1419 H1413 0.930 . S
C1419 C1415 1.400 . S
C1419 C1418 1.385 . S
C1420 C1418 1.478 . S
C1420 C1422 1.381 . S
C1420 C1426 1.383 . S
C1421 C1417 1.495 . S
C1421 H1427 0.959 . S
C1421 H1428 0.961 . S
C1421 H1429 0.960 . S
C1422 C1420 1.381 . S
C1422 C1423 1.394 . S
C1422 H1430 0.930 . S
C1423 C1422 1.394 . S
C1423 C1424 1.383 . S
C1423 H1431 0.929 . S
C1424 C1423 1.383 . S
C1424 C1425 1.377 . S
C1425 H1409 0.930 . S
C1425 C1424 1.377 . S
C1425 C1426 1.379 . S
C1426 H1410 0.931 . S
C1426 C1420 1.383 . S
C1426 C1425 1.379 . S
H1427 C1421 0.959 . S
H1428 C1421 0.961 . S
H1429 C1421 0.960 . S
H1430 C1422 0.930 . S
H1431 C1423 0.929 . S
H1432 C1440 0.929 . S
H1433 C1442 0.930 . S
H1434 C1444 0.930 . S
H1435 C1447 0.929 . S
H1436 C1450 0.930 . S
H1437 C1452 0.960 . S
H1438 C1452 0.960 . S
H1439 C1452 0.960 . S
C1440 H1432 0.929 . S
C1440 C1441 1.377 . S
C1440 C1442 1.384 . S
C1441 C1440 1.377 . S
C1441 C1447 1.390 . S
C1442 H1433 0.930 . S
C1442 C1440 1.384 . S
C1442 C1443 1.372 . S
C1443 C1442 1.372 . S
C1443 C1444 1.400 . S
C1443 C1448 1.490 . S
C1444 H1434 0.930 . S
C1444 C1443 1.400 . S
C1444 C1447 1.386 . S
H1445 C1461 0.930 . S
H1446 C1462 0.931 . S
C1447 H1435 0.929 . S
C1447 C1441 1.390 . S
C1447 C1444 1.386 . S
C1448 C1443 1.490 . S
C1448 C1450 1.395 . S
C1448 C1451 1.403 . S
H1449 C1455 0.930 . S
C1450 H1436 0.930 . S
C1450 C1448 1.395 . S
C1450 C1453 1.403 . S
C1451 C1448 1.403 . S
C1451 C1452 1.524 . S
C1451 C1455 1.400 . S
C1452 H1437 0.960 . S
C1452 H1438 0.960 . S
C1452 H1439 0.960 . S
C1452 C1451 1.524 . S
C1453 C1450 1.403 . S
C1453 C1454 1.392 . S
C1453 C1457 1.495 . S
C1454 C1453 1.392 . S
C1454 C1455 1.385 . S
C1454 C1456 1.478 . S
C1455 H1449 0.930 . S
C1455 C1451 1.400 . S
C1455 C1454 1.385 . S
C1456 C1454 1.478 . S
C1456 C1458 1.381 . S
C1456 C1462 1.383 . S
C1457 C1453 1.495 . S
C1457 H1463 0.959 . S
C1457 H1464 0.961 . S
C1457 H1465 0.960 . S
C1458 C1456 1.381 . S
C1458 C1459 1.394 . S
C1458 H1466 0.930 . S
C1459 C1458 1.394 . S
C1459 C1460 1.383 . S
C1459 H1467 0.929 . S
C1460 C1459 1.383 . S
C1460 C1461 1.377 . S
C1461 H1445 0.930 . S
C1461 C1460 1.377 . S
C1461 C1462 1.379 . S
C1462 H1446 0.931 . S
C1462 C1456 1.383 . S
C1462 C1461 1.379 . S
H1463 C1457 0.959 . S
H1464 C1457 0.961 . S
H1465 C1457 0.960 . S
H1466 C1458 0.930 . S
H1467 C1459 0.929 . S
H1468 C1476 0.929 . S
H1469 C1478 0.930 . S
H1470 C1480 0.930 . S
H1471 C1483 0.929 . S
H1472 C1486 0.930 . S
H1473 C1488 0.960 . S
H1474 C1488 0.960 . S
H1475 C1488 0.960 . S
C1476 H1468 0.929 . S
C1476 C1477 1.377 . S
C1476 C1478 1.384 . S
C1477 C1476 1.377 . S
C1477 C1483 1.390 . S
C1478 H1469 0.930 . S
C1478 C1476 1.384 . S
C1478 C1479 1.372 . S
C1479 C1478 1.372 . S
C1479 C1480 1.400 . S
C1479 C1484 1.490 . S
C1480 H1470 0.930 . S
C1480 C1479 1.400 . S
C1480 C1483 1.386 . S
H1481 C1497 0.930 . S
H1482 C1498 0.931 . S
C1483 H1471 0.929 . S
C1483 C1477 1.390 . S
C1483 C1480 1.386 . S
C1484 C1479 1.490 . S
C1484 C1486 1.395 . S
C1484 C1487 1.403 . S
H1485 C1491 0.930 . S
C1486 H1472 0.930 . S
C1486 C1484 1.395 . S
C1486 C1489 1.403 . S
C1487 C1484 1.403 . S
C1487 C1488 1.524 . S
C1487 C1491 1.400 . S
C1488 H1473 0.960 . S
C1488 H1474 0.960 . S
C1488 H1475 0.960 . S
C1488 C1487 1.524 . S
C1489 C1486 1.403 . S
C1489 C1490 1.392 . S
C1489 C1493 1.495 . S
C1490 C1489 1.392 . S
C1490 C1491 1.385 . S
C1490 C1492 1.478 . S
C1491 H1485 0.930 . S
C1491 C1487 1.400 . S
C1491 C1490 1.385 . S
C1492 C1490 1.478 . S
C1492 C1494 1.381 . S
C1492 C1498 1.383 . S
C1493 C1489 1.495 . S
C1493 H1499 0.959 . S
C1493 H1500 0.961 . S
C1493 H1501 0.960 . S
C1494 C1492 1.381 . S
C1494 C1495 1.394 . S
C1494 H1502 0.930 . S
C1495 C1494 1.394 . S
C1495 C1496 1.383 . S
C1495 H1503 0.929 . S
C1496 C1495 1.383 . S
C1496 C1497 1.377 . S
C1497 H1481 0.930 . S
C1497 C1496 1.377 . S
C1497 C1498 1.379 . S
C1498 H1482 0.931 . S
C1498 C1492 1.383 . S
C1498 C1497 1.379 . S
H1499 C1493 0.959 . S
H1500 C1493 0.961 . S
H1501 C1493 0.960 . S
H1502 C1494 0.930 . S
H1503 C1495 0.929 . S
H1504 C1512 0.929 . S
H1505 C1514 0.930 . S
H1506 C1516 0.930 . S
H1507 C1519 0.929 . S
H1508 C1522 0.930 . S
H1509 C1524 0.960 . S
H1510 C1524 0.960 . S
H1511 C1524 0.960 . S
C1512 H1504 0.929 . S
C1512 C1513 1.377 . S
C1512 C1514 1.384 . S
C1513 C1512 1.377 . S
C1513 C1519 1.390 . S
C1514 H1505 0.930 . S
C1514 C1512 1.384 . S
C1514 C1515 1.372 . S
C1515 C1514 1.372 . S
C1515 C1516 1.400 . S
C1515 C1520 1.490 . S
C1516 H1506 0.930 . S
C1516 C1515 1.400 . S
C1516 C1519 1.386 . S
H1517 C1533 0.930 . S
H1518 C1534 0.931 . S
C1519 H1507 0.929 . S
C1519 C1513 1.390 . S
C1519 C1516 1.386 . S
C1520 C1515 1.490 . S
C1520 C1522 1.395 . S
C1520 C1523 1.403 . S
H1521 C1527 0.930 . S
C1522 H1508 0.930 . S
C1522 C1520 1.395 . S
C1522 C1525 1.403 . S
C1523 C1520 1.403 . S
C1523 C1524 1.524 . S
C1523 C1527 1.400 . S
C1524 H1509 0.960 . S
C1524 H1510 0.960 . S
C1524 H1511 0.960 . S
C1524 C1523 1.524 . S
C1525 C1522 1.403 . S
C1525 C1526 1.392 . S
C1525 C1529 1.495 . S
C1526 C1525 1.392 . S
C1526 C1527 1.385 . S
C1526 C1528 1.478 . S
C1527 H1521 0.930 . S
C1527 C1523 1.400 . S
C1527 C1526 1.385 . S
C1528 C1526 1.478 . S
C1528 C1530 1.381 . S
C1528 C1534 1.383 . S
C1529 C1525 1.495 . S
C1529 H1535 0.959 . S
C1529 H1536 0.961 . S
C1529 H1537 0.960 . S
C1530 C1528 1.381 . S
C1530 C1531 1.394 . S
C1530 H1538 0.930 . S
C1531 C1530 1.394 . S
C1531 C1532 1.392 . S
C1531 H1539 0.929 1_565 S
C1532 C1531 1.392 . S
C1532 C1533 1.404 . S
C1533 H1517 0.930 . S
C1533 C1532 1.404 . S
C1533 C1534 1.379 . S
C1534 H1518 0.931 . S
C1534 C1528 1.383 . S
C1534 C1533 1.379 . S
H1535 C1529 0.959 . S
H1536 C1529 0.961 . S
H1537 C1529 0.960 . S
H1538 C1530 0.930 . S
H1539 C1531 0.929 1_545 S
H1540 C1548 0.929 . S
H1541 C1550 0.930 . S
H1542 C1552 0.930 . S
H1543 C1555 0.929 . S
H1544 C1558 0.930 . S
H1545 C1560 0.960 . S
H1546 C1560 0.960 . S
H1547 C1560 0.960 . S
C1548 H1540 0.929 . S
C1548 C1549 1.377 . S
C1548 C1550 1.384 . S
C1549 C1548 1.377 . S
C1549 C1555 1.390 . S
C1550 H1541 0.930 . S
C1550 C1548 1.384 . S
C1550 C1551 1.372 . S
C1551 C1550 1.372 . S
C1551 C1552 1.400 . S
C1551 C1556 1.490 . S
C1552 H1542 0.930 . S
C1552 C1551 1.400 . S
C1552 C1555 1.386 . S
H1553 C1569 0.930 . S
H1554 C1570 0.931 . S
C1555 H1543 0.929 . S
C1555 C1549 1.390 . S
C1555 C1552 1.386 . S
C1556 C1551 1.490 . S
C1556 C1558 1.395 . S
C1556 C1559 1.403 . S
H1557 C1563 0.930 . S
C1558 H1544 0.930 . S
C1558 C1556 1.395 . S
C1558 C1561 1.403 . S
C1559 C1556 1.403 . S
C1559 C1560 1.524 . S
C1559 C1563 1.400 . S
C1560 H1545 0.960 . S
C1560 H1546 0.960 . S
C1560 H1547 0.960 . S
C1560 C1559 1.524 . S
C1561 C1558 1.403 . S
C1561 C1562 1.392 . S
C1561 C1565 1.495 . S
C1562 C1561 1.392 . S
C1562 C1563 1.385 . S
C1562 C1564 1.478 . S
C1563 H1557 0.930 . S
C1563 C1559 1.400 . S
C1563 C1562 1.385 . S
C1564 C1562 1.478 . S
C1564 C1566 1.381 . S
C1564 C1570 1.383 . S
C1565 C1561 1.495 . S
C1565 H1571 0.959 . S
C1565 H1572 0.961 . S
C1565 H1573 0.960 . S
C1566 C1564 1.381 . S
C1566 C1567 1.394 . S
C1566 H1574 0.930 . S
C1567 C1566 1.394 . S
C1567 C1568 1.383 . S
C1567 H1575 0.929 . S
C1568 C1567 1.383 . S
C1568 C1569 1.377 . S
C1569 H1553 0.930 . S
C1569 C1568 1.377 . S
C1569 C1570 1.379 . S
C1570 H1554 0.931 . S
C1570 C1564 1.383 . S
C1570 C1569 1.379 . S
H1571 C1565 0.959 . S
H1572 C1565 0.961 . S
H1573 C1565 0.960 . S
H1574 C1566 0.930 . S
H1575 C1567 0.929 . S
H1576 C1584 0.929 1_565 S
H1577 C1586 0.930 . S
H1578 C1588 0.930 . S
H1579 C1591 0.929 . S
H1580 C1594 0.930 . S
H1581 C1596 0.960 . S
H1582 C1596 0.960 . S
H1583 C1596 0.960 . S
C1584 H1576 0.929 1_545 S
C1584 C1585 1.377 . S
C1584 C1586 1.384 . S
C1585 C1584 1.377 . S
C1585 C1591 1.390 . S
C1586 H1577 0.930 . S
C1586 C1584 1.384 . S
C1586 C1587 1.372 . S
C1587 C1586 1.372 . S
C1587 C1588 1.400 . S
C1587 C1592 1.490 . S
C1588 H1578 0.930 . S
C1588 C1587 1.400 . S
C1588 C1591 1.386 . S
H1589 C1605 0.930 . S
H1590 C1606 0.931 . S
C1591 H1579 0.929 . S
C1591 C1585 1.390 . S
C1591 C1588 1.386 . S
C1592 C1587 1.490 . S
C1592 C1594 1.395 . S
C1592 C1595 1.403 . S
H1593 C1599 0.930 . S
C1594 H1580 0.930 . S
C1594 C1592 1.395 . S
C1594 C1597 1.403 . S
C1595 C1592 1.403 . S
C1595 C1596 1.524 . S
C1595 C1599 1.400 . S
C1596 H1581 0.960 . S
C1596 H1582 0.960 . S
C1596 H1583 0.960 . S
C1596 C1595 1.524 . S
C1597 C1594 1.403 . S
C1597 C1598 1.392 . S
C1597 C1601 1.495 . S
C1598 C1597 1.392 . S
C1598 C1599 1.385 . S
C1598 C1600 1.478 . S
C1599 H1593 0.930 . S
C1599 C1595 1.400 . S
C1599 C1598 1.385 . S
C1600 C1598 1.478 . S
C1600 C1602 1.381 . S
C1600 C1606 1.383 . S
C1601 C1597 1.495 . S
C1601 H1607 0.959 . S
C1601 H1608 0.961 . S
C1601 H1609 0.960 . S
C1602 C1600 1.381 . S
C1602 C1603 1.394 . S
C1602 H1610 0.930 . S
C1603 C1602 1.394 . S
C1603 C1604 1.383 . S
C1603 H1611 0.929 . S
C1604 C1603 1.383 . S
C1604 C1605 1.377 . S
C1605 H1589 0.930 . S
C1605 C1604 1.377 . S
C1605 C1606 1.379 . S
C1606 H1590 0.931 . S
C1606 C1600 1.383 . S
C1606 C1605 1.379 . S
H1607 C1601 0.959 . S
H1608 C1601 0.961 . S
H1609 C1601 0.960 . S
H1610 C1602 0.930 . S
H1611 C1603 0.929 . S
H1612 C1620 0.929 . S
H1613 C1622 0.930 . S
H1614 C1624 0.930 . S
H1615 C1627 0.929 . S
H1616 C1630 0.930 . S
H1617 C1632 0.960 . S
H1618 C1632 0.960 . S
H1619 C1632 0.960 . S
C1620 H1612 0.929 . S
C1620 C1621 1.377 . S
C1620 C1622 1.384 . S
C1621 C1620 1.377 . S
C1621 C1627 1.390 . S
C1622 H1613 0.930 . S
C1622 C1620 1.384 . S
C1622 C1623 1.372 . S
C1623 C1622 1.372 . S
C1623 C1624 1.400 . S
C1623 C1628 1.490 . S
C1624 H1614 0.930 . S
C1624 C1623 1.400 . S
C1624 C1627 1.386 . S
H1625 C1641 0.951 . S
H1626 C1642 0.931 . S
C1627 H1615 0.929 . S
C1627 C1621 1.390 . S
C1627 C1624 1.386 . S
C1628 C1623 1.490 . S
C1628 C1630 1.395 . S
C1628 C1631 1.403 . S
H1629 C1635 0.930 . S
C1630 H1616 0.930 . S
C1630 C1628 1.395 . S
C1630 C1633 1.403 . S
C1631 C1628 1.403 . S
C1631 C1632 1.524 . S
C1631 C1635 1.400 . S
C1632 H1617 0.960 . S
C1632 H1618 0.960 . S
C1632 H1619 0.960 . S
C1632 C1631 1.524 . S
C1633 C1630 1.403 . S
C1633 C1634 1.392 . S
C1633 C1637 1.495 . S
C1634 C1633 1.392 . S
C1634 C1635 1.385 . S
C1634 C1636 1.478 . S
C1635 H1629 0.930 . S
C1635 C1631 1.400 . S
C1635 C1634 1.385 . S
C1636 C1634 1.478 . S
C1636 C1638 1.381 . S
C1636 C1642 1.383 . S
C1637 C1633 1.495 . S
C1637 H1643 0.959 . S
C1637 H1644 0.961 . S
C1637 H1645 0.960 . S
C1638 C1636 1.381 . S
C1638 C1639 1.394 . S
C1638 H1646 0.930 . S
C1639 C1638 1.394 . S
C1639 C1640 1.383 . S
C1639 H1647 0.929 . S
C1640 C1639 1.383 . S
C1640 C1641 1.377 . S
C1641 H1625 0.951 . S
C1641 C1640 1.377 . S
C1641 C1642 1.379 . S
C1642 H1626 0.931 . S
C1642 C1636 1.383 . S
C1642 C1641 1.379 . S
H1643 C1637 0.959 . S
H1644 C1637 0.961 . S
H1645 C1637 0.960 . S
H1646 C1638 0.930 . S
H1647 C1639 0.929 . S
H1648 C1656 0.929 . S
H1649 C1658 0.930 . S
H1650 C1660 0.930 . S
H1651 C1663 0.929 . S
H1652 C1666 0.930 . S
H1653 C1668 0.960 . S
H1654 C1668 0.960 . S
H1655 C1668 0.960 . S
C1656 H1648 0.929 . S
C1656 C1657 1.377 . S
C1656 C1658 1.384 . S
C1657 C1656 1.377 . S
C1657 C1663 1.390 . S
C1658 H1649 0.930 . S
C1658 C1656 1.384 . S
C1658 C1659 1.372 . S
C1659 C1658 1.372 . S
C1659 C1660 1.400 . S
C1659 C1664 1.490 . S
C1660 H1650 0.930 . S
C1660 C1659 1.400 . S
C1660 C1663 1.386 . S
H1661 C1677 0.930 . S
H1662 C1678 0.931 . S
C1663 H1651 0.929 . S
C1663 C1657 1.390 . S
C1663 C1660 1.386 . S
C1664 C1659 1.490 . S
C1664 C1666 1.395 . S
C1664 C1667 1.403 . S
H1665 C1671 0.930 . S
C1666 H1652 0.930 . S
C1666 C1664 1.395 . S
C1666 C1669 1.403 . S
C1667 C1664 1.403 . S
C1667 C1668 1.524 . S
C1667 C1671 1.400 . S
C1668 H1653 0.960 . S
C1668 H1654 0.960 . S
C1668 H1655 0.960 . S
C1668 C1667 1.524 . S
C1669 C1666 1.403 . S
C1669 C1670 1.392 . S
C1669 C1673 1.495 . S
C1670 C1669 1.392 . S
C1670 C1671 1.385 . S
C1670 C1672 1.478 . S
C1671 H1665 0.930 . S
C1671 C1667 1.400 . S
C1671 C1670 1.385 . S
C1672 C1670 1.478 . S
C1672 C1674 1.381 . S
C1672 C1678 1.383 . S
C1673 C1669 1.495 . S
C1673 H1679 0.959 . S
C1673 H1680 0.961 . S
C1673 H1681 0.960 . S
C1674 C1672 1.381 . S
C1674 C1675 1.394 . S
C1674 H1682 0.930 . S
C1675 C1674 1.394 . S
C1675 C1676 1.383 . S
C1675 H1683 0.929 1_545 S
C1676 C1675 1.383 . S
C1676 C1677 1.377 . S
C1677 H1661 0.930 . S
C1677 C1676 1.377 . S
C1677 C1678 1.379 . S
C1678 H1662 0.931 . S
C1678 C1672 1.383 . S
C1678 C1677 1.379 . S
H1679 C1673 0.959 . S
H1680 C1673 0.961 . S
H1681 C1673 0.960 . S
H1682 C1674 0.930 . S
H1683 C1675 0.929 1_565 S
H1684 C1692 0.929 . S
H1685 C1694 0.930 . S
H1686 C1696 0.930 . S
H1687 C1699 0.929 . S
H1688 C1702 0.930 . S
H1689 C1704 0.960 . S
H1690 C1704 0.946 1_565 S
H1691 C1704 0.960 . S
C1692 H1684 0.929 . S
C1692 C1693 1.377 . S
C1692 C1694 1.384 . S
C1693 C1692 1.377 . S
C1693 C1699 1.390 . S
C1694 H1685 0.930 . S
C1694 C1692 1.384 . S
C1694 C1695 1.372 . S
C1695 C1694 1.372 . S
C1695 C1696 1.400 . S
C1695 C1700 1.490 . S
C1696 H1686 0.930 . S
C1696 C1695 1.400 . S
C1696 C1699 1.386 . S
H1697 C1713 0.930 . S
H1698 C1714 0.931 . S
C1699 H1687 0.929 . S
C1699 C1693 1.390 . S
C1699 C1696 1.386 . S
C1700 C1695 1.490 . S
C1700 C1702 1.395 . S
C1700 C1703 1.403 . S
H1701 C1707 0.930 . S
C1702 H1688 0.930 . S
C1702 C1700 1.395 . S
C1702 C1705 1.403 . S
C1703 C1700 1.403 . S
C1703 C1704 1.524 . S
C1703 C1707 1.400 . S
C1704 H1689 0.960 . S
C1704 H1690 0.946 1_545 S
C1704 H1691 0.960 . S
C1704 C1703 1.524 . S
C1705 C1702 1.403 . S
C1705 C1706 1.392 . S
C1705 C1709 1.495 . S
C1706 C1705 1.392 . S
C1706 C1707 1.385 . S
C1706 C1708 1.478 . S
C1707 H1701 0.930 . S
C1707 C1703 1.400 . S
C1707 C1706 1.385 . S
C1708 C1706 1.478 . S
C1708 C1710 1.381 . S
C1708 C1714 1.383 . S
C1709 C1705 1.495 . S
C1709 H1715 0.959 . S
C1709 H1716 0.961 . S
C1709 H1717 0.960 . S
C1710 C1708 1.381 . S
C1710 C1711 1.394 . S
C1710 H1718 0.930 . S
C1711 C1710 1.394 . S
C1711 C1712 1.383 . S
C1711 H1719 0.929 . S
C1712 C1711 1.383 . S
C1712 C1713 1.377 . S
C1713 H1697 0.930 . S
C1713 C1712 1.377 . S
C1713 C1714 1.379 . S
C1714 H1698 0.931 . S
C1714 C1708 1.383 . S
C1714 C1713 1.379 . S
H1715 C1709 0.959 . S
H1716 C1709 0.961 . S
H1717 C1709 0.960 . S
H1718 C1710 0.930 . S
H1719 C1711 0.929 . S
H1720 C1728 0.929 . S
H1721 C1730 0.930 . S
H1722 C1732 0.930 . S
H1723 C1735 0.929 1_545 S
H1724 C1738 0.930 . S
H1725 C1740 0.960 . S
H1726 C1740 0.960 . S
H1727 C1740 0.960 . S
C1728 H1720 0.929 . S
C1728 C1729 1.377 . S
C1728 C1730 1.384 . S
C1729 C1728 1.377 . S
C1729 C1735 1.390 . S
C1730 H1721 0.930 . S
C1730 C1728 1.384 . S
C1730 C1731 1.372 . S
C1731 C1730 1.372 . S
C1731 C1732 1.400 . S
C1731 C1736 1.490 . S
C1732 H1722 0.930 . S
C1732 C1731 1.400 . S
C1732 C1735 1.386 . S
H1733 C1749 0.930 . S
H1734 C1750 0.931 . S
C1735 H1723 0.929 1_565 S
C1735 C1729 1.390 . S
C1735 C1732 1.386 . S
C1736 C1731 1.490 . S
C1736 C1738 1.395 . S
C1736 C1739 1.403 . S
H1737 C1743 0.930 . S
C1738 H1724 0.930 . S
C1738 C1736 1.395 . S
C1738 C1741 1.403 . S
C1739 C1736 1.403 . S
C1739 C1740 1.524 . S
C1739 C1743 1.400 . S
C1740 H1725 0.960 . S
C1740 H1726 0.960 . S
C1740 H1727 0.960 . S
C1740 C1739 1.524 . S
C1741 C1738 1.403 . S
C1741 C1742 1.392 . S
C1741 C1745 1.495 . S
C1742 C1741 1.392 . S
C1742 C1743 1.385 . S
C1742 C1744 1.478 . S
C1743 H1737 0.930 . S
C1743 C1739 1.400 . S
C1743 C1742 1.385 . S
C1744 C1742 1.478 . S
C1744 C1746 1.381 . S
C1744 C1750 1.383 . S
C1745 C1741 1.495 . S
C1745 H1751 0.959 . S
C1745 H1752 0.961 . S
C1745 H1753 0.960 . S
C1746 C1744 1.381 . S
C1746 C1747 1.394 . S
C1746 H1754 0.930 . S
C1747 C1746 1.394 . S
C1747 C1748 1.383 . S
C1747 H1755 0.929 . S
C1748 C1747 1.383 . S
C1748 C1749 1.377 . S
C1749 H1733 0.930 . S
C1749 C1748 1.377 . S
C1749 C1750 1.379 . S
C1750 H1734 0.931 . S
C1750 C1744 1.383 . S
C1750 C1749 1.379 . S
H1751 C1745 0.959 . S
H1752 C1745 0.961 . S
H1753 C1745 0.960 . S
H1754 C1746 0.930 . S
H1755 C1747 0.929 . S
H1756 C1764 0.929 . S
H1757 C1766 0.930 . S
H1758 C1768 0.930 . S
H1759 C1771 0.956 . S
H1760 C1774 0.930 . S
H1761 C1776 0.960 . S
H1762 C1776 0.960 . S
H1763 C1776 0.959 1_545 S
C1764 H1756 0.929 . S
C1764 C1765 1.377 . S
C1764 C1766 1.384 . S
C1765 C1764 1.377 . S
C1765 C1771 1.390 . S
C1766 H1757 0.930 . S
C1766 C1764 1.384 . S
C1766 C1767 1.372 . S
C1767 C1766 1.372 . S
C1767 C1768 1.400 . S
C1767 C1772 1.490 . S
C1768 H1758 0.930 . S
C1768 C1767 1.400 . S
C1768 C1771 1.386 . S
H1769 C1785 0.930 . S
H1770 C1786 0.931 . S
C1771 H1759 0.956 . S
C1771 C1765 1.390 . S
C1771 C1768 1.386 . S
C1772 C1767 1.490 . S
C1772 C1774 1.395 . S
C1772 C1775 1.403 . S
H1773 C1779 0.930 . S
C1774 H1760 0.930 . S
C1774 C1772 1.395 . S
C1774 C1777 1.403 . S
C1775 C1772 1.403 . S
C1775 C1776 1.524 . S
C1775 C1779 1.400 . S
C1776 H1761 0.960 . S
C1776 H1762 0.960 . S
C1776 H1763 0.959 1_565 S
C1776 C1775 1.524 . S
C1777 C1774 1.403 . S
C1777 C1778 1.392 . S
C1777 C1781 1.495 . S
C1778 C1777 1.392 . S
C1778 C1779 1.385 . S
C1778 C1780 1.478 . S
C1779 H1773 0.930 . S
C1779 C1775 1.400 . S
C1779 C1778 1.385 . S
C1780 C1778 1.478 . S
C1780 C1782 1.381 . S
C1780 C1786 1.383 . S
C1781 C1777 1.495 . S
C1781 H1787 0.959 . S
C1781 H1788 0.961 . S
C1781 H1789 0.960 . S
C1782 C1780 1.381 . S
C1782 C1783 1.394 . S
C1782 H1790 0.930 . S
C1783 C1782 1.394 . S
C1783 C1784 1.383 . S
C1783 H1791 0.929 . S
C1784 C1783 1.383 . S
C1784 C1785 1.377 . S
C1785 H1769 0.930 . S
C1785 C1784 1.377 . S
C1785 C1786 1.379 . S
C1786 H1770 0.931 . S
C1786 C1780 1.383 . S
C1786 C1785 1.379 . S
H1787 C1781 0.959 . S
H1788 C1781 0.961 . S
H1789 C1781 0.960 . S
H1790 C1782 0.930 . S
H1791 C1783 0.929 . S
H1792 C1800 0.929 . S
H1793 C1802 0.930 . S
H1794 C1804 0.930 . S
H1795 C1807 0.929 . S
H1796 C1810 0.930 . S
H1797 C1812 0.960 . S
H1798 C1812 0.960 . S
H1799 C1812 0.960 . S
C1800 H1792 0.929 . S
C1800 C1801 1.377 . S
C1800 C1802 1.384 1_554 S
C1801 C1800 1.377 . S
C1801 C1807 1.390 . S
C1802 H1793 0.930 . S
C1802 C1800 1.384 1_556 S
C1802 C1803 1.372 . S
C1803 C1802 1.372 . S
C1803 C1804 1.400 . S
C1803 C1808 1.490 . S
C1804 H1794 0.930 . S
C1804 C1803 1.400 . S
C1804 C1807 1.386 1_556 S
H1805 C1821 0.930 . S
H1806 C1822 0.931 . S
C1807 H1795 0.929 . S
C1807 C1801 1.390 . S
C1807 C1804 1.386 1_554 S
C1808 C1803 1.490 . S
C1808 C1810 1.395 . S
C1808 C1811 1.403 . S
H1809 C1815 0.930 . S
C1810 H1796 0.930 . S
C1810 C1808 1.395 . S
C1810 C1813 1.403 . S
C1811 C1808 1.403 . S
C1811 C1812 1.524 . S
C1811 C1815 1.400 . S
C1812 H1797 0.960 . S
C1812 H1798 0.960 . S
C1812 H1799 0.960 . S
C1812 C1811 1.524 . S
C1813 C1810 1.403 . S
C1813 C1814 1.392 . S
C1813 C1817 1.495 . S
C1814 C1813 1.392 . S
C1814 C1815 1.385 . S
C1814 C1816 1.478 . S
C1815 H1809 0.930 . S
C1815 C1811 1.400 . S
C1815 C1814 1.385 . S
C1816 C1814 1.478 . S
C1816 C1818 1.381 . S
C1816 C1822 1.383 . S
C1817 C1813 1.495 . S
C1817 H1823 0.959 . S
C1817 H1824 0.961 . S
C1817 H1825 0.960 . S
C1818 C1816 1.381 . S
C1818 C1819 1.394 . S
C1818 H1826 0.930 . S
C1819 C1818 1.394 . S
C1819 C1820 1.383 . S
C1819 H1827 0.929 . S
C1820 C1819 1.383 . S
C1820 C1821 1.377 . S
C1821 H1805 0.930 . S
C1821 C1820 1.377 . S
C1821 C1822 1.379 . S
C1822 H1806 0.931 . S
C1822 C1816 1.383 . S
C1822 C1821 1.379 . S
H1823 C1817 0.959 . S
H1824 C1817 0.961 . S
H1825 C1817 0.960 . S
H1826 C1818 0.930 . S
H1827 C1819 0.929 . S
H1828 C1836 0.929 . S
H1829 C1838 0.930 . S
H1830 C1840 0.930 . S
H1831 C1843 0.929 . S
H1832 C1846 0.930 . S
H1833 C1848 0.960 . S
H1834 C1848 0.960 . S
H1835 C1848 0.960 . S
C1836 H1828 0.929 . S
C1836 C1837 1.377 . S
C1836 C1838 1.384 . S
C1837 C1836 1.377 . S
C1837 C1843 1.390 . S
C1838 H1829 0.930 . S
C1838 C1836 1.384 . S
C1838 C1839 1.372 . S
C1839 C1838 1.372 . S
C1839 C1840 1.400 . S
C1839 C1844 1.490 . S
C1840 H1830 0.930 . S
C1840 C1839 1.400 . S
C1840 C1843 1.386 . S
H1841 C1857 0.930 . S
H1842 C1858 0.931 . S
C1843 H1831 0.929 . S
C1843 C1837 1.390 . S
C1843 C1840 1.386 . S
C1844 C1839 1.490 . S
C1844 C1846 1.395 . S
C1844 C1847 1.403 . S
H1845 C1851 0.930 . S
C1846 H1832 0.930 . S
C1846 C1844 1.395 . S
C1846 C1849 1.403 . S
C1847 C1844 1.403 . S
C1847 C1848 1.524 . S
C1847 C1851 1.400 . S
C1848 H1833 0.960 . S
C1848 H1834 0.960 . S
C1848 H1835 0.960 . S
C1848 C1847 1.524 . S
C1849 C1846 1.403 . S
C1849 C1850 1.392 . S
C1849 C1853 1.495 . S
C1850 C1849 1.392 . S
C1850 C1851 1.385 . S
C1850 C1852 1.478 . S
C1851 H1845 0.930 . S
C1851 C1847 1.400 . S
C1851 C1850 1.385 . S
C1852 C1850 1.478 . S
C1852 C1854 1.381 . S
C1852 C1858 1.383 . S
C1853 C1849 1.495 . S
C1853 H1859 0.959 . S
C1853 H1860 0.961 . S
C1853 H1861 0.960 . S
C1854 C1852 1.381 . S
C1854 C1855 1.394 . S
C1854 H1862 0.930 . S
C1855 C1854 1.394 . S
C1855 C1856 1.383 . S
C1855 H1863 0.929 . S
C1856 C1855 1.383 . S
C1856 C1857 1.377 . S
C1857 H1841 0.930 . S
C1857 C1856 1.377 . S
C1857 C1858 1.379 . S
C1858 H1842 0.931 . S
C1858 C1852 1.383 . S
C1858 C1857 1.379 . S
H1859 C1853 0.959 . S
H1860 C1853 0.961 . S
H1861 C1853 0.960 . S
H1862 C1854 0.930 . S
H1863 C1855 0.929 . S
H1864 C1872 0.929 . S
H1865 C1874 0.930 . S
H1866 C1876 0.930 . S
H1867 C1879 0.929 . S
H1868 C1882 0.930 . S
H1869 C1884 0.960 . S
H1870 C1884 0.960 . S
H1871 C1884 0.960 . S
C1872 H1864 0.929 . S
C1872 C1873 1.377 . S
C1872 C1874 1.384 . S
C1873 C1872 1.377 . S
C1873 C1879 1.390 . S
C1874 H1865 0.930 . S
C1874 C1872 1.384 . S
C1874 C1875 1.372 . S
C1875 C1874 1.372 . S
C1875 C1876 1.400 . S
C1875 C1880 1.490 . S
C1876 H1866 0.930 . S
C1876 C1875 1.400 . S
C1876 C1879 1.386 . S
H1877 C1893 0.930 . S
H1878 C1894 0.931 . S
C1879 H1867 0.929 . S
C1879 C1873 1.390 . S
C1879 C1876 1.386 . S
C1880 C1875 1.490 . S
C1880 C1882 1.395 . S
C1880 C1883 1.403 . S
H1881 C1887 0.930 . S
C1882 H1868 0.930 . S
C1882 C1880 1.395 . S
C1882 C1885 1.403 . S
C1883 C1880 1.403 . S
C1883 C1884 1.524 . S
C1883 C1887 1.400 . S
C1884 H1869 0.960 . S
C1884 H1870 0.960 . S
C1884 H1871 0.960 . S
C1884 C1883 1.524 . S
C1885 C1882 1.403 . S
C1885 C1886 1.392 . S
C1885 C1889 1.495 . S
C1886 C1885 1.392 . S
C1886 C1887 1.385 . S
C1886 C1888 1.478 . S
C1887 H1881 0.930 . S
C1887 C1883 1.400 . S
C1887 C1886 1.385 . S
C1888 C1886 1.478 . S
C1888 C1890 1.381 . S
C1888 C1894 1.383 . S
C1889 C1885 1.495 . S
C1889 H1895 0.959 . S
C1889 H1896 0.961 . S
C1889 H1897 0.960 . S
C1890 C1888 1.381 . S
C1890 C1891 1.394 . S
C1890 H1898 0.930 . S
C1891 C1890 1.394 . S
C1891 C1892 1.383 . S
C1891 H1899 0.929 . S
C1892 C1891 1.383 . S
C1892 C1893 1.377 . S
C1893 H1877 0.930 . S
C1893 C1892 1.377 . S
C1893 C1894 1.379 . S
C1894 H1878 0.931 . S
C1894 C1888 1.383 . S
C1894 C1893 1.379 . S
H1895 C1889 0.959 . S
H1896 C1889 0.961 . S
H1897 C1889 0.960 . S
H1898 C1890 0.930 . S
H1899 C1891 0.929 . S
H1900 C1908 0.929 . S
H1901 C1910 0.930 . S
H1902 C1912 0.930 . S
H1903 C1915 0.929 . S
H1904 C1918 0.930 . S
H1905 C1920 0.960 . S
H1906 C1920 0.960 . S
H1907 C1920 0.960 . S
C1908 H1900 0.929 . S
C1908 C1909 1.377 . S
C1908 C1910 1.384 . S
C1909 C1908 1.377 . S
C1909 C1915 1.390 . S
C1910 H1901 0.930 . S
C1910 C1908 1.384 . S
C1910 C1911 1.372 . S
C1911 C1910 1.372 . S
C1911 C1912 1.400 . S
C1911 C1916 1.490 . S
C1912 H1902 0.930 . S
C1912 C1911 1.400 . S
C1912 C1915 1.386 . S
H1913 C1929 0.930 . S
H1914 C1930 0.931 . S
C1915 H1903 0.929 . S
C1915 C1909 1.390 . S
C1915 C1912 1.386 . S
C1916 C1911 1.490 . S
C1916 C1918 1.395 . S
C1916 C1919 1.403 . S
H1917 C1923 0.930 . S
C1918 H1904 0.930 . S
C1918 C1916 1.395 . S
C1918 C1921 1.403 . S
C1919 C1916 1.403 . S
C1919 C1920 1.524 . S
C1919 C1923 1.400 . S
C1920 H1905 0.960 . S
C1920 H1906 0.960 . S
C1920 H1907 0.960 . S
C1920 C1919 1.524 . S
C1921 C1918 1.403 . S
C1921 C1922 1.392 . S
C1921 C1925 1.495 . S
C1922 C1921 1.392 . S
C1922 C1923 1.385 . S
C1922 C1924 1.478 . S
C1923 H1917 0.930 . S
C1923 C1919 1.400 . S
C1923 C1922 1.385 . S
C1924 C1922 1.478 . S
C1924 C1926 1.381 . S
C1924 C1930 1.383 . S
C1925 C1921 1.495 . S
C1925 H1931 0.959 . S
C1925 H1932 0.961 . S
C1925 H1933 0.960 . S
C1926 C1924 1.381 . S
C1926 C1927 1.394 . S
C1926 H1934 0.930 . S
C1927 C1926 1.394 . S
C1927 C1928 1.383 . S
C1927 H1935 0.929 . S
C1928 C1927 1.383 . S
C1928 C1929 1.377 . S
C1929 H1913 0.930 . S
C1929 C1928 1.377 . S
C1929 C1930 1.379 . S
C1930 H1914 0.931 . S
C1930 C1924 1.383 . S
C1930 C1929 1.379 . S
H1931 C1925 0.959 . S
H1932 C1925 0.961 . S
H1933 C1925 0.960 . S
H1934 C1926 0.930 . S
H1935 C1927 0.929 . S
H1936 C1944 0.929 . S
H1937 C1946 0.930 . S
H1938 C1948 0.930 . S
H1939 C1951 0.929 . S
H1940 C1954 0.930 . S
H1941 C1956 0.960 . S
H1942 C1956 0.960 . S
H1943 C1956 0.960 . S
C1944 H1936 0.929 . S
C1944 C1945 1.377 . S
C1944 C1946 1.384 . S
C1945 C1944 1.377 . S
C1945 C1951 1.390 . S
C1946 H1937 0.930 . S
C1946 C1944 1.384 . S
C1946 C1947 1.372 . S
C1947 C1946 1.372 . S
C1947 C1948 1.400 . S
C1947 C1952 1.490 . S
C1948 H1938 0.930 . S
C1948 C1947 1.400 . S
C1948 C1951 1.386 . S
H1949 C1965 0.930 . S
H1950 C1966 0.931 . S
C1951 H1939 0.929 . S
C1951 C1945 1.390 . S
C1951 C1948 1.386 . S
C1952 C1947 1.490 . S
C1952 C1954 1.395 . S
C1952 C1955 1.403 . S
H1953 C1959 0.930 . S
C1954 H1940 0.930 . S
C1954 C1952 1.395 . S
C1954 C1957 1.403 . S
C1955 C1952 1.403 . S
C1955 C1956 1.524 . S
C1955 C1959 1.400 . S
C1956 H1941 0.960 . S
C1956 H1942 0.960 . S
C1956 H1943 0.960 . S
C1956 C1955 1.524 . S
C1957 C1954 1.403 . S
C1957 C1958 1.392 . S
C1957 C1961 1.495 . S
C1958 C1957 1.392 . S
C1958 C1959 1.385 . S
C1958 C1960 1.478 . S
C1959 H1953 0.930 . S
C1959 C1955 1.400 . S
C1959 C1958 1.385 . S
C1960 C1958 1.478 . S
C1960 C1962 1.381 . S
C1960 C1966 1.383 . S
C1961 C1957 1.495 . S
C1961 H1967 0.959 . S
C1961 H1968 0.961 . S
C1961 H1969 0.960 . S
C1962 C1960 1.381 . S
C1962 C1963 1.394 1_554 S
C1962 H1970 0.930 . S
C1963 C1962 1.394 1_556 S
C1963 C1964 1.383 . S
C1963 H1971 0.929 . S
C1964 C1963 1.383 . S
C1964 C1965 1.377 . S
C1965 H1949 0.930 . S
C1965 C1964 1.377 . S
C1965 C1966 1.379 1_556 S
C1966 H1950 0.931 . S
C1966 C1960 1.383 . S
C1966 C1965 1.379 1_554 S
H1967 C1961 0.959 . S
H1968 C1961 0.961 . S
H1969 C1961 0.960 . S
H1970 C1962 0.930 . S
H1971 C1963 0.929 . S
H1972 C1980 0.929 . S
H1973 C1982 0.930 . S
H1974 C1984 0.930 . S
H1975 C1987 0.929 . S
H1976 C1990 0.930 . S
H1977 C1992 0.960 . S
H1978 C1992 0.960 . S
H1979 C1992 0.960 . S
C1980 H1972 0.929 . S
C1980 C1981 1.377 . S
C1980 C1982 1.384 . S
C1981 C1980 1.377 . S
C1981 C1987 1.390 . S
C1982 H1973 0.930 . S
C1982 C1980 1.384 . S
C1982 C1983 1.372 . S
C1983 C1982 1.372 . S
C1983 C1984 1.400 . S
C1983 C1988 1.490 . S
C1984 H1974 0.930 . S
C1984 C1983 1.400 . S
C1984 C1987 1.386 . S
H1985 C2001 0.930 . S
H1986 C2002 0.931 . S
C1987 H1975 0.929 . S
C1987 C1981 1.390 . S
C1987 C1984 1.386 . S
C1988 C1983 1.490 . S
C1988 C1990 1.395 . S
C1988 C1991 1.403 . S
H1989 C1995 0.930 . S
C1990 H1976 0.930 . S
C1990 C1988 1.395 . S
C1990 C1993 1.403 . S
C1991 C1988 1.403 . S
C1991 C1992 1.524 . S
C1991 C1995 1.400 . S
C1992 H1977 0.960 . S
C1992 H1978 0.960 . S
C1992 H1979 0.960 . S
C1992 C1991 1.524 . S
C1993 C1990 1.403 . S
C1993 C1994 1.392 . S
C1993 C1997 1.495 . S
C1994 C1993 1.392 . S
C1994 C1995 1.385 . S
C1994 C1996 1.478 . S
C1995 H1989 0.930 . S
C1995 C1991 1.400 . S
C1995 C1994 1.385 . S
C1996 C1994 1.478 . S
C1996 C1998 1.381 . S
C1996 C2002 1.383 . S
C1997 C1993 1.495 . S
C1997 H2003 0.959 . S
C1997 H2004 0.961 . S
C1997 H2005 0.960 . S
C1998 C1996 1.381 . S
C1998 C1999 1.394 . S
C1998 H2006 0.930 . S
C1999 C1998 1.394 . S
C1999 C2000 1.383 . S
C1999 H2007 0.929 . S
C2000 C1999 1.383 . S
C2000 C2001 1.377 . S
C2001 H1985 0.930 . S
C2001 C2000 1.377 . S
C2001 C2002 1.379 . S
C2002 H1986 0.931 . S
C2002 C1996 1.383 . S
C2002 C2001 1.379 . S
H2003 C1997 0.959 . S
H2004 C1997 0.961 . S
H2005 C1997 0.960 . S
H2006 C1998 0.930 . S
H2007 C1999 0.929 . S
H2008 C2016 0.929 . S
H2009 C2018 0.930 . S
H2010 C2020 0.930 . S
H2011 C2023 0.929 . S
H2012 C2026 0.930 . S
H2013 C2028 0.960 . S
H2014 C2028 0.960 . S
H2015 C2028 0.960 . S
C2016 H2008 0.929 . S
C2016 C2017 1.377 . S
C2016 C2018 1.384 . S
C2017 C2016 1.377 . S
C2017 C2023 1.390 . S
C2018 H2009 0.930 . S
C2018 C2016 1.384 . S
C2018 C2019 1.372 . S
C2019 C2018 1.372 . S
C2019 C2020 1.400 . S
C2019 C2024 1.490 . S
C2020 H2010 0.930 . S
C2020 C2019 1.400 . S
C2020 C2023 1.386 . S
H2021 C2037 0.930 . S
H2022 C2038 0.931 . S
C2023 H2011 0.929 . S
C2023 C2017 1.390 . S
C2023 C2020 1.386 . S
C2024 C2019 1.490 . S
C2024 C2026 1.395 . S
C2024 C2027 1.403 . S
H2025 C2031 0.930 . S
C2026 H2012 0.930 . S
C2026 C2024 1.395 . S
C2026 C2029 1.403 . S
C2027 C2024 1.403 . S
C2027 C2028 1.524 . S
C2027 C2031 1.400 . S
C2028 H2013 0.960 . S
C2028 H2014 0.960 . S
C2028 H2015 0.960 . S
C2028 C2027 1.524 . S
C2029 C2026 1.403 . S
C2029 C2030 1.392 . S
C2029 C2033 1.495 . S
C2030 C2029 1.392 . S
C2030 C2031 1.385 . S
C2030 C2032 1.478 . S
C2031 H2025 0.930 . S
C2031 C2027 1.400 . S
C2031 C2030 1.385 . S
C2032 C2030 1.478 . S
C2032 C2034 1.381 . S
C2032 C2038 1.383 . S
C2033 C2029 1.495 . S
C2033 H2039 0.959 . S
C2033 H2040 0.961 . S
C2033 H2041 0.960 . S
C2034 C2032 1.381 . S
C2034 C2035 1.394 . S
C2034 H2042 0.930 . S
C2035 C2034 1.394 . S
C2035 C2036 1.383 . S
C2035 H2043 0.929 . S
C2036 C2035 1.383 . S
C2036 C2037 1.377 . S
C2037 H2021 0.930 . S
C2037 C2036 1.377 . S
C2037 C2038 1.379 . S
C2038 H2022 0.931 . S
C2038 C2032 1.383 . S
C2038 C2037 1.379 . S
H2039 C2033 0.959 . S
H2040 C2033 0.961 . S
H2041 C2033 0.960 . S
H2042 C2034 0.930 . S
H2043 C2035 0.929 . S
H2044 C2052 0.929 . S
H2045 C2054 0.930 . S
H2046 C2056 0.930 . S
H2047 C2059 0.929 . S
H2048 C2062 0.930 . S
H2049 C2064 0.960 . S
H2050 C2064 0.960 . S
H2051 C2064 0.960 . S
C2052 H2044 0.929 . S
C2052 C2053 1.377 . S
C2052 C2054 1.384 . S
C2053 C2052 1.377 . S
C2053 C2059 1.390 . S
C2054 H2045 0.930 . S
C2054 C2052 1.384 . S
C2054 C2055 1.372 . S
C2055 C2054 1.372 . S
C2055 C2056 1.400 . S
C2055 C2060 1.490 . S
C2056 H2046 0.930 . S
C2056 C2055 1.400 . S
C2056 C2059 1.386 . S
H2057 C2073 0.930 . S
H2058 C2074 0.931 . S
C2059 H2047 0.929 . S
C2059 C2053 1.390 . S
C2059 C2056 1.386 . S
C2060 C2055 1.490 . S
C2060 C2062 1.395 . S
C2060 C2063 1.403 . S
H2061 C2067 0.930 . S
C2062 H2048 0.930 . S
C2062 C2060 1.395 . S
C2062 C2065 1.403 . S
C2063 C2060 1.403 . S
C2063 C2064 1.524 . S
C2063 C2067 1.400 . S
C2064 H2049 0.960 . S
C2064 H2050 0.960 . S
C2064 H2051 0.960 . S
C2064 C2063 1.524 . S
C2065 C2062 1.403 . S
C2065 C2066 1.392 . S
C2065 C2069 1.495 . S
C2066 C2065 1.392 . S
C2066 C2067 1.385 . S
C2066 C2068 1.478 . S
C2067 H2061 0.930 . S
C2067 C2063 1.400 . S
C2067 C2066 1.385 . S
C2068 C2066 1.478 . S
C2068 C2070 1.381 . S
C2068 C2074 1.383 . S
C2069 C2065 1.495 . S
C2069 H2075 0.959 . S
C2069 H2076 0.961 . S
C2069 H2077 0.960 . S
C2070 C2068 1.381 . S
C2070 C2071 1.394 . S
C2070 H2078 0.930 . S
C2071 C2070 1.394 . S
C2071 C2072 1.383 . S
C2071 H2079 0.929 . S
C2072 C2071 1.383 . S
C2072 C2073 1.377 . S
C2073 H2057 0.930 . S
C2073 C2072 1.377 . S
C2073 C2074 1.379 . S
C2074 H2058 0.931 . S
C2074 C2068 1.383 . S
C2074 C2073 1.379 . S
H2075 C2069 0.959 . S
H2076 C2069 0.961 . S
H2077 C2069 0.960 . S
H2078 C2070 0.930 . S
H2079 C2071 0.929 . S
H2080 C2088 0.929 . S
H2081 C2090 0.930 . S
H2082 C2092 0.930 . S
H2083 C2095 0.929 . S
H2084 C2098 0.930 . S
H2085 C2100 0.960 . S
H2086 C2100 0.960 . S
H2087 C2100 0.960 . S
C2088 H2080 0.929 . S
C2088 C2089 1.377 . S
C2088 C2090 1.384 . S
C2089 C2088 1.377 . S
C2089 C2095 1.390 . S
C2090 H2081 0.930 . S
C2090 C2088 1.384 . S
C2090 C2091 1.372 . S
C2091 C2090 1.372 . S
C2091 C2092 1.400 . S
C2091 C2096 1.490 . S
C2092 H2082 0.930 . S
C2092 C2091 1.400 . S
C2092 C2095 1.386 . S
H2093 C2109 0.930 . S
H2094 C2110 0.931 . S
C2095 H2083 0.929 . S
C2095 C2089 1.390 . S
C2095 C2092 1.386 . S
C2096 C2091 1.490 . S
C2096 C2098 1.395 . S
C2096 C2099 1.403 . S
H2097 C2103 0.930 . S
C2098 H2084 0.930 . S
C2098 C2096 1.395 . S
C2098 C2101 1.403 . S
C2099 C2096 1.403 . S
C2099 C2100 1.524 . S
C2099 C2103 1.400 . S
C2100 H2085 0.960 . S
C2100 H2086 0.960 . S
C2100 H2087 0.960 . S
C2100 C2099 1.524 . S
C2101 C2098 1.403 . S
C2101 C2102 1.392 . S
C2101 C2105 1.495 . S
C2102 C2101 1.392 . S
C2102 C2103 1.385 . S
C2102 C2104 1.478 . S
C2103 H2097 0.930 . S
C2103 C2099 1.400 . S
C2103 C2102 1.385 . S
C2104 C2102 1.478 . S
C2104 C2106 1.381 . S
C2104 C2110 1.383 . S
C2105 C2101 1.495 . S
C2105 H2111 0.959 . S
C2105 H2112 0.961 . S
C2105 H2113 0.960 . S
C2106 C2104 1.381 . S
C2106 C2107 1.394 . S
C2106 H2114 0.930 . S
C2107 C2106 1.394 . S
C2107 C2108 1.383 . S
C2107 H2115 0.929 . S
C2108 C2107 1.383 . S
C2108 C2109 1.377 . S
C2109 H2093 0.930 . S
C2109 C2108 1.377 . S
C2109 C2110 1.379 . S
C2110 H2094 0.931 . S
C2110 C2104 1.383 . S
C2110 C2109 1.379 . S
H2111 C2105 0.959 . S
H2112 C2105 0.961 . S
H2113 C2105 0.960 . S
H2114 C2106 0.930 . S
H2115 C2107 0.929 . S
H2116 C2124 0.929 . S
H2117 C2126 0.930 . S
H2118 C2128 0.930 . S
H2119 C2131 0.929 . S
H2120 C2134 0.930 . S
H2121 C2136 0.960 . S
H2122 C2136 0.960 . S
H2123 C2136 0.960 . S
C2124 H2116 0.929 . S
C2124 C2125 1.377 . S
C2124 C2126 1.384 . S
C2125 C2124 1.377 . S
C2125 C2131 1.390 . S
C2126 H2117 0.930 . S
C2126 C2124 1.384 . S
C2126 C2127 1.372 . S
C2127 C2126 1.372 . S
C2127 C2128 1.400 . S
C2127 C2132 1.490 . S
C2128 H2118 0.930 . S
C2128 C2127 1.400 . S
C2128 C2131 1.386 . S
H2129 C2145 0.930 . S
H2130 C2146 0.931 . S
C2131 H2119 0.929 . S
C2131 C2125 1.390 . S
C2131 C2128 1.386 . S
C2132 C2127 1.490 . S
C2132 C2134 1.395 . S
C2132 C2135 1.403 . S
H2133 C2139 0.930 . S
C2134 H2120 0.930 . S
C2134 C2132 1.395 . S
C2134 C2137 1.403 . S
C2135 C2132 1.403 . S
C2135 C2136 1.524 . S
C2135 C2139 1.400 . S
C2136 H2121 0.960 . S
C2136 H2122 0.960 . S
C2136 H2123 0.960 . S
C2136 C2135 1.524 . S
C2137 C2134 1.403 . S
C2137 C2138 1.392 . S
C2137 C2141 1.495 . S
C2138 C2137 1.392 . S
C2138 C2139 1.385 . S
C2138 C2140 1.478 . S
C2139 H2133 0.930 . S
C2139 C2135 1.400 . S
C2139 C2138 1.385 . S
C2140 C2138 1.478 . S
C2140 C2142 1.381 . S
C2140 C2146 1.383 1_565 S
C2141 C2137 1.495 . S
C2141 H2147 0.959 . S
C2141 H2148 0.961 . S
C2141 H2149 0.960 . S
C2142 C2140 1.381 . S
C2142 C2143 1.394 . S
C2142 H2150 0.930 . S
C2143 C2142 1.394 . S
C2143 C2144 1.383 1_565 S
C2143 H2151 0.929 . S
C2144 C2143 1.383 1_545 S
C2144 C2145 1.377 . S
C2145 H2129 0.930 . S
C2145 C2144 1.377 . S
C2145 C2146 1.379 . S
C2146 H2130 0.931 . S
C2146 C2140 1.383 1_545 S
C2146 C2145 1.379 . S
H2147 C2141 0.959 . S
H2148 C2141 0.961 . S
H2149 C2141 0.960 . S
H2150 C2142 0.930 . S
H2151 C2143 0.929 . S
H2152 C2160 0.929 . S
H2153 C2162 0.930 . S
H2154 C2164 0.930 . S
H2155 C2167 0.929 . S
H2156 C2170 0.930 . S
H2157 C2172 0.960 . S
H2158 C2172 0.960 . S
H2159 C2172 0.960 . S
C2160 H2152 0.929 . S
C2160 C2161 1.377 . S
C2160 C2162 1.384 . S
C2161 C2160 1.377 . S
C2161 C2167 1.390 . S
C2162 H2153 0.930 . S
C2162 C2160 1.384 . S
C2162 C2163 1.372 . S
C2163 C2162 1.372 . S
C2163 C2164 1.400 . S
C2163 C2168 1.490 . S
C2164 H2154 0.930 . S
C2164 C2163 1.400 . S
C2164 C2167 1.386 . S
H2165 C2181 0.930 . S
H2166 C2182 0.931 . S
C2167 H2155 0.929 . S
C2167 C2161 1.390 . S
C2167 C2164 1.386 . S
C2168 C2163 1.490 . S
C2168 C2170 1.395 . S
C2168 C2171 1.403 . S
H2169 C2175 0.930 . S
C2170 H2156 0.930 . S
C2170 C2168 1.395 . S
C2170 C2173 1.403 . S
C2171 C2168 1.403 . S
C2171 C2172 1.524 . S
C2171 C2175 1.400 . S
C2172 H2157 0.960 . S
C2172 H2158 0.960 . S
C2172 H2159 0.960 . S
C2172 C2171 1.524 . S
C2173 C2170 1.403 . S
C2173 C2174 1.392 . S
C2173 C2177 1.495 . S
C2174 C2173 1.392 . S
C2174 C2175 1.385 . S
C2174 C2176 1.478 . S
C2175 H2169 0.930 . S
C2175 C2171 1.400 . S
C2175 C2174 1.385 . S
C2176 C2174 1.478 . S
C2176 C2178 1.381 1_556 S
C2176 C2182 1.383 . S
C2177 C2173 1.495 . S
C2177 H2183 0.959 . S
C2177 H2184 0.961 . S
C2177 H2185 0.960 . S
C2178 C2176 1.381 1_554 S
C2178 C2179 1.394 . S
C2178 H2186 0.930 . S
C2179 C2178 1.394 . S
C2179 C2180 1.383 . S
C2179 H2187 0.929 . S
C2180 C2179 1.383 . S
C2180 C2181 1.377 . S
C2181 H2165 0.930 . S
C2181 C2180 1.377 . S
C2181 C2182 1.379 1_554 S
C2182 H2166 0.931 . S
C2182 C2176 1.383 . S
C2182 C2181 1.379 1_556 S
H2183 C2177 0.959 . S
H2184 C2177 0.961 . S
H2185 C2177 0.960 . S
H2186 C2178 0.930 . S
H2187 C2179 0.929 . S
H2188 C2196 0.929 . S
H2189 C2198 0.930 . S
H2190 C2200 0.930 . S
H2191 C2203 0.929 . S
H2192 C2206 0.930 . S
H2193 C2208 0.960 . S
H2194 C2208 0.960 . S
H2195 C2208 0.960 . S
C2196 H2188 0.929 . S
C2196 C2197 1.377 . S
C2196 C2198 1.384 . S
C2197 C2196 1.377 . S
C2197 C2203 1.390 1_565 S
C2198 H2189 0.930 . S
C2198 C2196 1.384 . S
C2198 C2199 1.372 1_565 S
C2199 C2198 1.372 1_545 S
C2199 C2200 1.400 . S
C2199 C2204 1.490 . S
C2200 H2190 0.930 . S
C2200 C2199 1.400 . S
C2200 C2203 1.386 . S
H2201 C2217 0.930 . S
H2202 C2218 0.931 . S
C2203 H2191 0.929 . S
C2203 C2197 1.390 1_545 S
C2203 C2200 1.386 . S
C2204 C2199 1.490 . S
C2204 C2206 1.395 . S
C2204 C2207 1.403 . S
H2205 C2211 0.930 . S
C2206 H2192 0.930 . S
C2206 C2204 1.395 . S
C2206 C2209 1.403 . S
C2207 C2204 1.403 . S
C2207 C2208 1.524 . S
C2207 C2211 1.400 . S
C2208 H2193 0.960 . S
C2208 H2194 0.960 . S
C2208 H2195 0.960 . S
C2208 C2207 1.524 . S
C2209 C2206 1.403 . S
C2209 C2210 1.392 . S
C2209 C2213 1.495 . S
C2210 C2209 1.392 . S
C2210 C2211 1.385 . S
C2210 C2212 1.478 . S
C2211 H2205 0.930 . S
C2211 C2207 1.400 . S
C2211 C2210 1.385 . S
C2212 C2210 1.478 . S
C2212 C2214 1.381 . S
C2212 C2218 1.383 . S
C2213 C2209 1.495 . S
C2213 H2219 0.959 . S
C2213 H2220 0.961 . S
C2213 H2221 0.960 . S
C2214 C2212 1.381 . S
C2214 C2215 1.394 . S
C2214 H2222 0.930 . S
C2215 C2214 1.394 . S
C2215 C2216 1.383 . S
C2215 H2223 0.929 . S
C2216 C2215 1.383 . S
C2216 C2217 1.377 . S
C2217 H2201 0.930 . S
C2217 C2216 1.377 . S
C2217 C2218 1.379 . S
C2218 H2202 0.931 . S
C2218 C2212 1.383 . S
C2218 C2217 1.379 . S
H2219 C2213 0.959 . S
H2220 C2213 0.961 . S
H2221 C2213 0.960 . S
H2222 C2214 0.930 . S
H2223 C2215 0.929 . S
H2224 C2232 0.929 . S
H2225 C2234 0.930 . S
H2226 C2236 0.930 . S
H2227 C2239 0.929 . S
H2228 C2242 0.930 . S
H2229 C2244 0.960 . S
H2230 C2244 0.960 . S
H2231 C2244 0.960 . S
C2232 H2224 0.929 . S
C2232 C2233 1.377 . S
C2232 C2234 1.384 . S
C2233 C2232 1.377 . S
C2233 C2239 1.390 . S
C2234 H2225 0.930 . S
C2234 C2232 1.384 . S
C2234 C2235 1.372 . S
C2235 C2234 1.372 . S
C2235 C2236 1.400 . S
C2235 C2240 1.490 . S
C2236 H2226 0.930 . S
C2236 C2235 1.400 . S
C2236 C2239 1.386 . S
H2237 C2253 0.930 . S
H2238 C2254 0.931 . S
C2239 H2227 0.929 . S
C2239 C2233 1.390 . S
C2239 C2236 1.386 . S
C2240 C2235 1.490 . S
C2240 C2242 1.395 . S
C2240 C2243 1.403 . S
H2241 C2247 0.930 . S
C2242 H2228 0.930 . S
C2242 C2240 1.395 . S
C2242 C2245 1.403 . S
C2243 C2240 1.403 . S
C2243 C2244 1.524 . S
C2243 C2247 1.400 . S
C2244 H2229 0.960 . S
C2244 H2230 0.960 . S
C2244 H2231 0.960 . S
C2244 C2243 1.524 . S
C2245 C2242 1.403 . S
C2245 C2246 1.392 . S
C2245 C2249 1.495 . S
C2246 C2245 1.392 . S
C2246 C2247 1.385 . S
C2246 C2248 1.478 . S
C2247 H2241 0.930 . S
C2247 C2243 1.400 . S
C2247 C2246 1.385 . S
C2248 C2246 1.478 . S
C2248 C2250 1.381 . S
C2248 C2254 1.383 . S
C2249 C2245 1.495 . S
C2249 H2255 0.959 . S
C2249 H2256 0.961 . S
C2249 H2257 0.960 . S
C2250 C2248 1.381 . S
C2250 C2251 1.394 . S
C2250 H2258 0.930 . S
C2251 C2250 1.394 . S
C2251 C2252 1.383 . S
C2251 H2259 0.929 . S
C2252 C2251 1.383 . S
C2252 C2253 1.377 . S
C2253 H2237 0.930 . S
C2253 C2252 1.377 . S
C2253 C2254 1.379 . S
C2254 H2238 0.931 . S
C2254 C2248 1.383 . S
C2254 C2253 1.379 . S
H2255 C2249 0.959 . S
H2256 C2249 0.961 . S
H2257 C2249 0.960 . S
H2258 C2250 0.930 . S
H2259 C2251 0.929 . S
H2260 C2268 0.929 . S
H2261 C2270 0.930 . S
H2262 C2272 0.930 . S
H2263 C2275 0.929 . S
H2264 C2278 0.930 . S
H2265 C2280 0.960 . S
H2266 C2280 0.960 . S
H2267 C2280 0.960 . S
C2268 H2260 0.929 . S
C2268 C2269 1.377 . S
C2268 C2270 1.384 . S
C2269 C2268 1.377 . S
C2269 C2275 1.390 . S
C2270 H2261 0.930 . S
C2270 C2268 1.384 . S
C2270 C2271 1.372 . S
C2271 C2270 1.372 . S
C2271 C2272 1.400 . S
C2271 C2276 1.490 . S
C2272 H2262 0.930 . S
C2272 C2271 1.400 . S
C2272 C2275 1.386 . S
H2273 C2289 0.930 . S
H2274 C2290 0.931 . S
C2275 H2263 0.929 . S
C2275 C2269 1.390 . S
C2275 C2272 1.386 . S
C2276 C2271 1.490 . S
C2276 C2278 1.395 . S
C2276 C2279 1.403 . S
H2277 C2283 0.930 . S
C2278 H2264 0.930 . S
C2278 C2276 1.395 . S
C2278 C2281 1.403 . S
C2279 C2276 1.403 . S
C2279 C2280 1.524 . S
C2279 C2283 1.400 . S
C2280 H2265 0.960 . S
C2280 H2266 0.960 . S
C2280 H2267 0.960 . S
C2280 C2279 1.524 . S
C2281 C2278 1.403 . S
C2281 C2282 1.392 . S
C2281 C2285 1.495 1_545 S
C2282 C2281 1.392 . S
C2282 C2283 1.385 . S
C2282 C2284 1.478 . S
C2283 H2277 0.930 . S
C2283 C2279 1.400 . S
C2283 C2282 1.385 . S
C2284 C2282 1.478 . S
C2284 C2286 1.381 1_545 S
C2284 C2290 1.383 . S
C2285 C2281 1.495 1_565 S
C2285 H2291 0.959 . S
C2285 H2292 0.961 . S
C2285 H2293 0.960 . S
C2286 C2284 1.381 1_565 S
C2286 C2287 1.394 . S
C2286 H2294 0.930 . S
C2287 C2286 1.394 . S
C2287 C2288 1.383 . S
C2287 H2295 0.929 . S
C2288 C2287 1.383 . S
C2288 C2289 1.377 1_565 S
C2289 H2273 0.930 . S
C2289 C2288 1.377 1_545 S
C2289 C2290 1.379 . S
C2290 H2274 0.931 . S
C2290 C2284 1.383 . S
C2290 C2289 1.379 . S
H2291 C2285 0.959 . S
H2292 C2285 0.961 . S
H2293 C2285 0.960 . S
H2294 C2286 0.930 . S
H2295 C2287 0.929 . S
H2296 C2304 0.929 . S
H2297 C2306 0.930 . S
H2298 C2308 0.930 . S
H2299 C2311 0.929 . S
H2300 C2314 0.930 . S
H2301 C2316 0.960 . S
H2302 C2316 0.960 . S
H2303 C2316 0.960 . S
C2304 H2296 0.929 . S
C2304 C2305 1.377 . S
C2304 C2306 1.384 . S
C2305 C2304 1.377 . S
C2305 C2311 1.390 . S
C2306 H2297 0.930 . S
C2306 C2304 1.384 . S
C2306 C2307 1.372 . S
C2307 C2306 1.372 . S
C2307 C2308 1.400 . S
C2307 C2312 1.490 . S
C2308 H2298 0.930 . S
C2308 C2307 1.400 . S
C2308 C2311 1.386 . S
H2309 C2325 0.930 . S
H2310 C2326 0.931 . S
C2311 H2299 0.929 . S
C2311 C2305 1.390 . S
C2311 C2308 1.386 . S
C2312 C2307 1.490 . S
C2312 C2314 1.395 . S
C2312 C2315 1.403 . S
H2313 C2319 0.930 . S
C2314 H2300 0.930 . S
C2314 C2312 1.395 . S
C2314 C2317 1.403 . S
C2315 C2312 1.403 . S
C2315 C2316 1.524 . S
C2315 C2319 1.400 . S
C2316 H2301 0.960 . S
C2316 H2302 0.960 . S
C2316 H2303 0.960 . S
C2316 C2315 1.524 . S
C2317 C2314 1.403 . S
C2317 C2318 1.392 . S
C2317 C2321 1.495 . S
C2318 C2317 1.392 . S
C2318 C2319 1.385 . S
C2318 C2320 1.478 . S
C2319 H2313 0.930 . S
C2319 C2315 1.400 . S
C2319 C2318 1.385 . S
C2320 C2318 1.478 . S
C2320 C2322 1.381 1_554 S
C2320 C2326 1.383 . S
C2321 C2317 1.495 . S
C2321 H2327 0.959 . S
C2321 H2328 0.961 . S
C2321 H2329 0.960 . S
C2322 C2320 1.381 1_556 S
C2322 C2323 1.394 . S
C2322 H2330 0.930 . S
C2323 C2322 1.394 . S
C2323 C2324 1.383 . S
C2323 H2331 0.929 . S
C2324 C2323 1.383 . S
C2324 C2325 1.377 . S
C2325 H2309 0.930 . S
C2325 C2324 1.377 . S
C2325 C2326 1.379 1_556 S
C2326 H2310 0.931 . S
C2326 C2320 1.383 . S
C2326 C2325 1.379 1_554 S
H2327 C2321 0.959 . S
H2328 C2321 0.961 . S
H2329 C2321 0.960 . S
H2330 C2322 0.930 . S
H2331 C2323 0.929 . S
H2332 C2340 0.929 . S
H2333 C2342 0.930 . S
H2334 C2344 0.930 . S
H2335 C2347 0.929 . S
H2336 C2350 0.930 . S
H2337 C2352 0.960 . S
H2338 C2352 0.960 . S
H2339 C2352 0.960 . S
C2340 H2332 0.929 . S
C2340 C2341 1.377 . S
C2340 C2342 1.384 . S
C2341 C2340 1.377 . S
C2341 C2347 1.390 . S
C2342 H2333 0.930 . S
C2342 C2340 1.384 . S
C2342 C2343 1.372 . S
C2343 C2342 1.372 . S
C2343 C2344 1.400 . S
C2343 C2348 1.490 . S
C2344 H2334 0.930 . S
C2344 C2343 1.400 . S
C2344 C2347 1.386 . S
H2345 C2361 0.930 . S
H2346 C2362 0.931 . S
C2347 H2335 0.929 . S
C2347 C2341 1.390 . S
C2347 C2344 1.386 . S
C2348 C2343 1.490 . S
C2348 C2350 1.395 . S
C2348 C2351 1.403 . S
H2349 C2355 0.930 . S
C2350 H2336 0.930 . S
C2350 C2348 1.395 . S
C2350 C2353 1.403 . S
C2351 C2348 1.403 . S
C2351 C2352 1.524 . S
C2351 C2355 1.400 . S
C2352 H2337 0.960 . S
C2352 H2338 0.960 . S
C2352 H2339 0.960 . S
C2352 C2351 1.524 . S
C2353 C2350 1.403 . S
C2353 C2354 1.392 . S
C2353 C2357 1.495 . S
C2354 C2353 1.392 . S
C2354 C2355 1.385 . S
C2354 C2356 1.478 . S
C2355 H2349 0.930 . S
C2355 C2351 1.400 . S
C2355 C2354 1.385 . S
C2356 C2354 1.478 . S
C2356 C2358 1.381 1_565 S
C2356 C2362 1.383 . S
C2357 C2353 1.495 . S
C2357 H2363 0.959 . S
C2357 H2364 0.961 . S
C2357 H2365 0.960 . S
C2358 C2356 1.381 1_545 S
C2358 C2359 1.394 . S
C2358 H2366 0.930 . S
C2359 C2358 1.394 . S
C2359 C2360 1.383 . S
C2359 H2367 0.929 . S
C2360 C2359 1.383 . S
C2360 C2361 1.377 1_545 S
C2361 H2345 0.930 . S
C2361 C2360 1.377 1_565 S
C2361 C2362 1.379 . S
C2362 H2346 0.931 . S
C2362 C2356 1.383 . S
C2362 C2361 1.379 . S
H2363 C2357 0.959 . S
H2364 C2357 0.961 . S
H2365 C2357 0.960 . S
H2366 C2358 0.930 . S
H2367 C2359 0.929 . S
C649 C10 2.354 . S
C668 C410 2.342 . S
C685 C50 2.355 . S
C704 C450 2.347 . S
C721 C90 2.359 . S
C740 C330 2.365 . S
C757 C370 2.355 . S
C776 C130 2.350 . S
C793 C179 2.358 . S
C812 C579 2.356 . S
C829 C619 2.354 . S
C848 C219 2.366 . S
C865 C499 2.357 . S
C884 C259 2.336 . S
C901 C299 2.357 . S
C920 C539 2.361 . S
C937 C16 0.688 . S
C956 C167 0.734 . S
C973 C56 0.706 . S
C992 C527 0.782 . S
C1009 C96 0.688 . S
C1028 C247 0.734 . S
C1045 C136 0.694 . S
C1064 C607 0.615 . S
C1081 C207 0.712 . S
C1100 C376 0.681 . S
C1117 C456 0.694 . S
C1136 C287 0.615 . S
C1153 C487 0.684 . S
C1172 C336 0.626 . S
C1189 C416 0.700 . S
C1208 C567 0.774 . S
C1225 C7 0.785 . S
C1244 C290 0.762 . S
C1261 C47 0.769 . S
C1280 C490 0.756 . S
C1297 C87 0.778 . S
C1316 C210 0.746 . S
C1333 C127 0.759 . S
C1352 C570 0.803 . S
C1369 C139 0.772 . S
C1388 C176 0.722 . S
C1405 C216 0.768 . S
C1424 C339 0.768 . S
C1441 C256 0.760 . S
C1460 C59 0.748 . S
C1477 C419 0.775 . S
C1496 C296 0.755 . S
C1513 C327 0.784 . S
C1532 C610 0.737 1_565 S
C1549 C170 0.783 . S
C1568 C367 0.715 . S
C1585 C530 0.780 1_545 S
C1604 C407 0.799 . S
C1621 C250 0.773 . S
C1640 C447 0.749 . S
C1657 C496 0.766 . S
C1676 C459 0.765 1_545 S
C1693 C536 0.780 . S
C1712 C19 0.797 . S
C1729 C379 0.780 1_565 S
C1748 C576 0.809 . S
C1765 C616 0.784 . S
C1784 C99 0.806 . S
C1801 C11 4.140 . S
C1820 C362 4.150 . S
C1837 C402 4.145 . S
C1856 C51 4.126 . S
C1873 C91 4.137 . S
C1892 C442 4.148 . S
C1909 C322 4.148 . S
C1928 C131 4.143 . S
C1945 C531 4.149 . S
C1964 C162 4.140 . S
C1981 C571 4.147 . S
C2000 C202 4.122 . S
C2017 C611 4.150 . S
C2036 C242 4.137 . S
C2053 C491 4.149 . S
C2072 C282 4.140 . S
C2089 C42 4.145 . S
C2108 C331 4.127 . S
C2125 C82 4.148 . S
C2144 C371 4.125 . S
C2161 C122 4.149 . S
C2180 C411 4.133 . S
C2197 C451 4.139 . S
C2216 C2 4.139 . S
C2233 C211 4.149 . S
C2252 C482 4.131 . S
C2269 C251 4.146 . S
C2288 C522 4.137 . S
C2305 C291 4.149 . S
C2324 C562 4.127 . S
C2341 C171 4.145 . S
C2360 C602 4.129 . S
