# Generated by pormake.
# Topology ung, (4)-cn, num edge types: 1
# Building blocks:
#     Node 0, Type 0, BuildingBlock: NAWXER_clean_sbu_0, # of connection points: 4
#     Node 1, Type 0, BuildingBlock: NAWXER_clean_sbu_0, # of connection points: 4
#     Node 2, Type 0, BuildingBlock: NAWXER_clean_sbu_0, # of connection points: 4
#     Node 3, Type 0, BuildingBlock: NAWXER_clean_sbu_0, # of connection points: 4
#     Node 4, Type 0, BuildingBlock: NAWXER_clean_sbu_0, # of connection points: 4
#     Node 5, Type 0, BuildingBlock: NAWXER_clean_sbu_0, # of connection points: 4
#     Node 6, Type 0, BuildingBlock: NAWXER_clean_sbu_0, # of connection points: 4
#     Node 7, Type 0, BuildingBlock: NAWXER_clean_sbu_0, # of connection points: 4
#     Node 8, Type 0, BuildingBlock: NAWXER_clean_sbu_0, # of connection points: 4
#     Node 9, Type 0, BuildingBlock: NAWXER_clean_sbu_0, # of connection points: 4
#     Node 10, Type 0, BuildingBlock: NAWXER_clean_sbu_0, # of connection points: 4
#     Node 11, Type 0, BuildingBlock: NAWXER_clean_sbu_0, # of connection points: 4
#     Node 12, Type 0, BuildingBlock: NAWXER_clean_sbu_0, # of connection points: 4
#     Node 13, Type 0, BuildingBlock: NAWXER_clean_sbu_0, # of connection points: 4
#     Node 14, Type 0, BuildingBlock: NAWXER_clean_sbu_0, # of connection points: 4
#     Node 15, Type 0, BuildingBlock: NAWXER_clean_sbu_0, # of connection points: 4
#     Node 16, Type 0, BuildingBlock: NAWXER_clean_sbu_0, # of connection points: 4
#     Node 17, Type 0, BuildingBlock: NAWXER_clean_sbu_0, # of connection points: 4
#     Edge 18, Type (0, 0), BuildingBlock: CIFDUS_clean_linker_0, # of connection points: 2
#     Edge 19, Type (0, 0), BuildingBlock: CIFDUS_clean_linker_0, # of connection points: 2
#     Edge 20, Type (0, 0), BuildingBlock: CIFDUS_clean_linker_0, # of connection points: 2
#     Edge 21, Type (0, 0), BuildingBlock: CIFDUS_clean_linker_0, # of connection points: 2
#     Edge 22, Type (0, 0), BuildingBlock: CIFDUS_clean_linker_0, # of connection points: 2
#     Edge 23, Type (0, 0), BuildingBlock: CIFDUS_clean_linker_0, # of connection points: 2
#     Edge 24, Type (0, 0), BuildingBlock: CIFDUS_clean_linker_0, # of connection points: 2
#     Edge 25, Type (0, 0), BuildingBlock: CIFDUS_clean_linker_0, # of connection points: 2
#     Edge 26, Type (0, 0), BuildingBlock: CIFDUS_clean_linker_0, # of connection points: 2
#     Edge 27, Type (0, 0), BuildingBlock: CIFDUS_clean_linker_0, # of connection points: 2
#     Edge 28, Type (0, 0), BuildingBlock: CIFDUS_clean_linker_0, # of connection points: 2
#     Edge 29, Type (0, 0), BuildingBlock: CIFDUS_clean_linker_0, # of connection points: 2
#     Edge 30, Type (0, 0), BuildingBlock: CIFDUS_clean_linker_0, # of connection points: 2
#     Edge 31, Type (0, 0), BuildingBlock: CIFDUS_clean_linker_0, # of connection points: 2
#     Edge 32, Type (0, 0), BuildingBlock: CIFDUS_clean_linker_0, # of connection points: 2
#     Edge 33, Type (0, 0), BuildingBlock: CIFDUS_clean_linker_0, # of connection points: 2
#     Edge 34, Type (0, 0), BuildingBlock: CIFDUS_clean_linker_0, # of connection points: 2
#     Edge 35, Type (0, 0), BuildingBlock: CIFDUS_clean_linker_0, # of connection points: 2
#     Edge 36, Type (0, 0), BuildingBlock: CIFDUS_clean_linker_0, # of connection points: 2
#     Edge 37, Type (0, 0), BuildingBlock: CIFDUS_clean_linker_0, # of connection points: 2
#     Edge 38, Type (0, 0), BuildingBlock: CIFDUS_clean_linker_0, # of connection points: 2
#     Edge 39, Type (0, 0), BuildingBlock: CIFDUS_clean_linker_0, # of connection points: 2
#     Edge 40, Type (0, 0), BuildingBlock: CIFDUS_clean_linker_0, # of connection points: 2
#     Edge 41, Type (0, 0), BuildingBlock: CIFDUS_clean_linker_0, # of connection points: 2
#     Edge 42, Type (0, 0), BuildingBlock: CIFDUS_clean_linker_0, # of connection points: 2
#     Edge 43, Type (0, 0), BuildingBlock: CIFDUS_clean_linker_0, # of connection points: 2
#     Edge 44, Type (0, 0), BuildingBlock: CIFDUS_clean_linker_0, # of connection points: 2
#     Edge 45, Type (0, 0), BuildingBlock: CIFDUS_clean_linker_0, # of connection points: 2
#     Edge 46, Type (0, 0), BuildingBlock: CIFDUS_clean_linker_0, # of connection points: 2
#     Edge 47, Type (0, 0), BuildingBlock: CIFDUS_clean_linker_0, # of connection points: 2
#     Edge 48, Type (0, 0), BuildingBlock: CIFDUS_clean_linker_0, # of connection points: 2
#     Edge 49, Type (0, 0), BuildingBlock: CIFDUS_clean_linker_0, # of connection points: 2
#     Edge 50, Type (0, 0), BuildingBlock: CIFDUS_clean_linker_0, # of connection points: 2
#     Edge 51, Type (0, 0), BuildingBlock: CIFDUS_clean_linker_0, # of connection points: 2
#     Edge 52, Type (0, 0), BuildingBlock: CIFDUS_clean_linker_0, # of connection points: 2
#     Edge 53, Type (0, 0), BuildingBlock: CIFDUS_clean_linker_0, # of connection points: 2
# Relax obj value: 0.020
# Max RMSD: 0.247
# Mean RMSD: 0.247
data_MOF--net-ung--node1-NAWXER_clean_sbu_0--edge1-CIFDUS_clean_linker_0
_symmetry_space_group_name_H-M    P1
_symmetry_Int_Tables_number       1
_symmetry_cell_setting            triclinic
loop_
_symmetry_equiv_pos_as_xyz
'x, y, z'
_cell_length_a     68.132389
_cell_length_b     68.079934
_cell_length_c     18.600888
_cell_angle_alpha  90.127686
_cell_angle_beta   89.873535
_cell_angle_gamma 120.07832
loop_
_atom_site_label
_atom_site_type_symbol
_atom_site_fract_x
_atom_site_fract_y
_atom_site_fract_z
_atom_type_partial_charge
C0 C 0.07366 0.61739 0.36794 0.0
C1 C 0.05505 0.65736 0.19082 0.0
O2 O 0.05507 0.61643 0.3532 0.0
Zn3 Zn 0.06562 0.638 0.27709 0.0
O4 O 0.09156 0.63111 0.33248 0.0
Zn5 Zn 0.09914 0.65555 0.24589 0.0
O6 O 0.12106 0.68341 0.28846 0.0
O7 O 0.0865 0.67076 0.33074 0.0
O8 O 0.07653 0.66478 0.1894 0.0
O9 O 0.04246 0.64139 0.23314 0.0
O10 O 0.07456 0.62177 0.19217 0.0
O11 O 0.11081 0.64499 0.17096 0.0
C12 C 0.10763 0.68604 0.32928 0.0
C13 C 0.09268 0.62667 0.15691 0.0
C14 C 0.48408 0.49872 0.33159 0.0
C15 C 0.54187 0.54348 0.15613 0.0
O16 O 0.48618 0.51439 0.29015 0.0
Zn17 Zn 0.51386 0.52068 0.24632 0.0
O18 O 0.49959 0.4932 0.33244 0.0
Zn19 Zn 0.53225 0.50563 0.27664 0.0
O20 O 0.55423 0.51744 0.35179 0.0
O21 O 0.53859 0.53839 0.33161 0.0
O22 O 0.54756 0.53081 0.19098 0.0
O23 O 0.5233 0.54257 0.17116 0.0
O24 O 0.50514 0.4888 0.19032 0.0
O25 O 0.52938 0.47915 0.23252 0.0
C26 C 0.5528 0.53484 0.36649 0.0
C27 C 0.51309 0.47518 0.191 0.0
C28 C 0.66651 0.05932 0.34002 0.0
C29 C 0.62175 0.07287 0.16574 0.0
O30 O 0.64999 0.0453 0.30174 0.0
Zn31 Zn 0.64401 0.06679 0.25598 0.0
O32 O 0.67246 0.08046 0.33867 0.0
Zn33 Zn 0.66079 0.10095 0.28292 0.0
O34 O 0.65014 0.1125 0.35818 0.0
O35 O 0.62805 0.07578 0.34121 0.0
O36 O 0.63545 0.09129 0.19894 0.0
O37 O 0.62145 0.05465 0.18198 0.0
O38 O 0.67571 0.08813 0.19768 0.0
O39 O 0.68775 0.12302 0.23616 0.0
C40 C 0.63247 0.09406 0.37479 0.0
C41 C 0.69049 0.10944 0.19632 0.0
C42 C 0.05904 0.47384 0.6879 0.0
C43 C 0.07341 0.53186 0.86555 0.0
O44 O 0.08025 0.48888 0.68946 0.0
Zn45 Zn 0.10113 0.52081 0.74714 0.0
O46 O 0.04522 0.47641 0.72707 0.0
Zn47 Zn 0.06696 0.50361 0.77383 0.0
O48 O 0.07632 0.52891 0.68989 0.0
O49 O 0.11299 0.54334 0.67287 0.0
O50 O 0.05512 0.51405 0.84884 0.0
O51 O 0.09177 0.53653 0.83213 0.0
O52 O 0.12286 0.51531 0.79343 0.0
O53 O 0.08778 0.49249 0.83029 0.0
C54 C 0.09466 0.54278 0.65667 0.0
C55 C 0.10898 0.49875 0.8319 0.0
C56 C 0.66308 0.69079 0.83466 0.0
C57 C 0.6249 0.63222 0.65494 0.0
O58 O 0.6712 0.67731 0.83492 0.0
Zn59 Zn 0.66318 0.64596 0.77701 0.0
O60 O 0.64702 0.68702 0.79235 0.0
Zn61 Zn 0.64478 0.661 0.74672 0.0
O62 O 0.62919 0.63532 0.83091 0.0
O63 O 0.65349 0.62362 0.85085 0.0
O64 O 0.62327 0.64948 0.67017 0.0
O65 O 0.639 0.62861 0.69018 0.0
O66 O 0.69131 0.653 0.735 0.0
O67 O 0.67792 0.67425 0.69327 0.0
C68 C 0.63481 0.62254 0.86538 0.0
C69 C 0.69363 0.66901 0.69478 0.0
C70 C 0.53724 0.07316 0.66639 0.0
C71 C 0.478 0.05709 0.84088 0.0
O72 O 0.54155 0.09129 0.70091 0.0
Zn73 Zn 0.52495 0.09967 0.78717 0.0
O74 O 0.51938 0.05465 0.68123 0.0
Zn75 Zn 0.50815 0.06607 0.75431 0.0
O76 O 0.49965 0.08817 0.69428 0.0
O77 O 0.51887 0.12178 0.74599 0.0
O78 O 0.47947 0.04421 0.7946 0.0
O79 O 0.49379 0.07793 0.84527 0.0
O80 O 0.54714 0.11093 0.86112 0.0
O81 O 0.53271 0.07431 0.84148 0.0
C82 C 0.50494 0.10908 0.6986 0.0
C83 C 0.54642 0.09243 0.87622 0.0
C84 C 0.75148 0.96019 0.70113 0.0
C85 C 0.72048 0.99526 0.54694 0.0
O86 O 0.7323 0.95899 0.70352 0.0
Zn87 Zn 0.73664 0.97821 0.6229 0.0
O88 O 0.76598 0.97276 0.65341 0.0
Zn89 Zn 0.76709 0.99441 0.56641 0.0
O90 O 0.79168 0.02334 0.59413 0.0
O91 O 0.76113 0.01216 0.66127 0.0
O92 O 0.74121 1.00204 0.53003 0.0
O93 O 0.71105 0.98088 0.59695 0.0
O94 O 0.73907 0.9588 0.5342 0.0
O95 O 0.77243 0.98062 0.48433 0.0
C96 C 0.7816 0.02716 0.64495 0.0
C97 C 0.75387 0.96191 0.48602 0.0
C98 C 0.14353 0.82929 0.64958 0.0
C99 C 0.20767 0.87077 0.48787 0.0
O100 O 0.14612 0.84357 0.60134 0.0
Zn101 Zn 0.17553 0.84987 0.56922 0.0
O102 O 0.15949 0.82491 0.66189 0.0
Zn103 Zn 0.19325 0.83602 0.62052 0.0
O104 O 0.21273 0.851 0.70134 0.0
O105 O 0.19702 0.86981 0.65691 0.0
O106 O 0.21131 0.85886 0.53352 0.0
O107 O 0.18872 0.87012 0.48846 0.0
O108 O 0.16864 0.81709 0.52845 0.0
O109 O 0.191 0.80819 0.58874 0.0
C110 C 0.21031 0.8683 0.7025 0.0
C111 C 0.17593 0.80331 0.54109 0.0
C112 C 0.36728 0.45146 0.54444 0.0
C113 C 0.29972 0.42321 0.69327 0.0
O114 O 0.36228 0.46168 0.59175 0.0
Zn115 Zn 0.33293 0.437 0.61764 0.0
O116 O 0.35292 0.43076 0.52878 0.0
Zn117 Zn 0.3192 0.40586 0.5637 0.0
O118 O 0.30047 0.39989 0.47972 0.0
O119 O 0.31185 0.4336 0.52698 0.0
O120 O 0.29817 0.40802 0.64871 0.0
O121 O 0.31748 0.44268 0.69348 0.0
O122 O 0.33962 0.41206 0.66642 0.0
O123 O 0.32393 0.38183 0.59584 0.0
C124 C 0.30037 0.41848 0.47941 0.0
C125 C 0.33523 0.39182 0.65171 0.0
C126 C 0.78961 0.84295 0.14895 0.0
C127 C 0.75925 0.87625 0.98436 0.0
O128 O 0.76848 0.83556 0.1611 0.0
Zn129 Zn 0.74245 0.84175 0.11836 0.0
O130 O 0.79987 0.85764 0.10022 0.0
Zn131 Zn 0.77417 0.85928 0.06721 0.0
O132 O 0.76916 0.8775 0.15341 0.0
O133 O 0.73514 0.85513 0.19845 0.0
O134 O 0.77888 0.87845 0.98583 0.0
O135 O 0.74426 0.8631 0.02996 0.0
O136 O 0.71969 0.81199 0.0874 0.0
O137 O 0.75184 0.82522 0.02738 0.0
C138 C 0.75356 0.87404 0.19885 0.0
C139 C 0.73154 0.80915 0.04016 0.0
C140 C 0.32623 0.02745 0.14531 0.0
C141 C 0.2914 0.961 0.98989 0.0
O142 O 0.33326 0.01362 0.16007 0.0
Zn143 Zn 0.32679 0.98097 0.12246 0.0
O144 O 0.31163 0.02251 0.09611 0.0
Zn145 Zn 0.30883 0.99395 0.06792 0.0
O146 O 0.29088 0.97184 0.15677 0.0
O147 O 0.31376 0.96138 0.20456 0.0
O148 O 0.28873 0.97817 0.99001 0.0
O149 O 0.30506 0.95997 0.0353 0.0
O150 O 0.35658 0.98777 0.09301 0.0
O151 O 0.34163 1.00286 0.02213 0.0
C152 C 0.29469 0.96046 0.20404 0.0
C153 C 0.35801 0.99944 0.03807 0.0
C154 C 0.17431 0.44714 0.04433 0.0
C155 C 0.212 0.41886 0.19802 0.0
O156 O 0.16834 0.42656 0.02743 0.0
Zn157 Zn 0.17727 0.40157 0.06452 0.0
O158 O 0.1884 0.45695 0.09479 0.0
Zn159 Zn 0.19228 0.43211 0.12063 0.0
O160 O 0.2119 0.43059 0.03105 0.0
O161 O 0.19133 0.39681 0.98197 0.0
O162 O 0.21198 0.43746 0.20054 0.0
O163 O 0.19981 0.40396 0.15068 0.0
O164 O 0.1489 0.37626 0.09296 0.0
O165 O 0.15886 0.40675 0.15936 0.0
C166 C 0.20942 0.41597 0.98294 0.0
C167 C 0.14453 0.38603 0.14343 0.0
C168 C 0.40703 0.28864 0.04258 0.0
C169 C 0.3876 0.32706 0.8607 0.0
O170 O 0.38874 0.28896 0.03386 0.0
Zn171 Zn 0.39786 0.30876 0.95205 0.0
O172 O 0.42394 0.30058 1.00095 0.0
Zn173 Zn 0.43084 0.32316 0.91091 0.0
O174 O 0.45444 0.35229 0.94529 0.0
O175 O 0.42125 0.34182 0.99477 0.0
O176 O 0.40818 0.33149 0.85359 0.0
O177 O 0.37541 0.31444 0.91166 0.0
O178 O 0.40277 0.28929 0.86813 0.0
O179 O 0.43887 0.30875 0.83701 0.0
C180 C 0.44232 0.35657 0.98719 0.0
C181 C 0.41933 0.29137 0.82925 0.0
C182 C 0.80445 0.17705 0.96794 0.0
C183 C 0.86393 0.21415 0.79025 0.0
O184 O 0.80732 0.19159 0.9205 0.0
Zn185 Zn 0.83445 0.19489 0.8805 0.0
O186 O 0.81912 0.17054 0.97474 0.0
Zn187 Zn 0.85131 0.17911 0.92191 0.0
O188 O 0.87327 0.19254 0.99807 0.0
O189 O 0.85888 0.21367 0.96409 0.0
O190 O 0.8683 0.20178 0.83182 0.0
O191 O 0.84568 0.21452 0.79917 0.0
O192 O 0.82357 0.16127 0.83725 0.0
O193 O 0.84587 0.1503 0.88686 0.0
C194 C 0.87246 0.21068 1.00431 0.0
C195 C 0.82969 0.14636 0.84468 0.0
C196 C 1.00443 0.72455 0.98398 0.0
C197 C 0.95889 0.73966 0.81759 0.0
O198 O 0.98965 0.71162 0.93879 0.0
Zn199 Zn 0.9817 0.73281 0.90314 0.0
O200 O 1.00832 0.74496 0.99234 0.0
Zn201 Zn 0.99494 0.76534 0.94492 0.0
O202 O 0.98082 0.77162 0.02419 0.0
O203 O 0.96227 0.73577 0.99076 0.0
O204 O 0.97056 0.7569 0.85841 0.0
O205 O 0.96066 0.72211 0.82501 0.0
O206 O 0.01323 0.75852 0.85425 0.0
O207 O 0.02148 0.79095 0.90624 0.0
C208 C 0.96402 0.75176 0.03184 0.0
C209 C 0.02629 0.78007 0.86084 0.0
C210 C 0.39512 0.1442 0.35992 0.0
C211 C 0.4189 0.20774 0.52528 0.0
O212 O 0.41637 0.15855 0.35447 0.0
Zn213 Zn 0.44019 0.19085 0.40047 0.0
O214 O 0.38296 0.14827 0.40228 0.0
Zn215 Zn 0.40702 0.17661 0.44048 0.0
O216 O 0.4148 0.20017 0.35295 0.0
O217 O 0.44999 0.21152 0.32055 0.0
O218 O 0.39923 0.19069 0.51608 0.0
O219 O 0.43546 0.20981 0.48642 0.0
O220 O 0.46195 0.18389 0.43956 0.0
O221 O 0.42892 0.16683 0.4962 0.0
C222 C 0.4319 0.21227 0.31222 0.0
C223 C 0.44935 0.1708 0.48903 0.0
C224 C 0.99365 0.357 0.47178 0.0
C225 C 0.95812 0.29435 0.30316 0.0
O226 O 1.0018 0.34368 0.47923 0.0
Zn227 Zn 0.99498 0.31147 0.43091 0.0
O228 O 0.97799 0.35217 0.42652 0.0
Zn229 Zn 0.97639 0.32535 0.3893 0.0
O230 O 0.96003 0.30139 0.47634 0.0
O231 O 0.98412 0.29057 0.51006 0.0
O232 O 0.95591 0.31165 0.3107 0.0
O233 O 0.97202 0.29205 0.34401 0.0
O234 O 0.02391 0.31853 0.39349 0.0
O235 O 0.0099 0.33801 0.3418 0.0
C236 C 0.96507 0.28945 0.5175 0.0
C237 C 0.02604 0.33357 0.34897 0.0
C238 C 0.83817 0.77632 0.36839 0.0
C239 C 0.87989 0.7597 0.54525 0.0
O240 O 0.83389 0.75575 0.36173 0.0
Zn241 Zn 0.84563 0.73476 0.41363 0.0
O242 O 0.85221 0.78916 0.41547 0.0
Zn243 Zn 0.85858 0.76725 0.45534 0.0
O244 O 0.87899 0.76399 0.37125 0.0
O245 O 0.86051 0.72815 0.33756 0.0
O246 O 0.87842 0.77738 0.53677 0.0
O247 O 0.86865 0.74262 0.50344 0.0
O248 O 0.81818 0.70955 0.44822 0.0
O249 O 0.82574 0.7419 0.49915 0.0
C250 C 0.87753 0.74794 0.33108 0.0
C251 C 0.81256 0.72041 0.49106 0.0
H252 H 0.10897 0.5721 0.9111 0.0
H253 H 0.03768 0.52597 0.94835 0.0
H254 H 0.0373 0.55107 0.04141 0.0
H255 H 0.05711 0.58622 0.11229 0.0
H256 H 0.12838 0.63238 0.07452 0.0
H257 H 0.12877 0.6072 0.98191 0.0
C258 C 0.09335 0.5675 0.9396 0.0
C259 C 0.07341 0.54714 0.92259 0.0
C260 C 0.0932 0.58205 0.9931 0.0
C261 C 0.05331 0.54152 0.96015 0.0
C262 C 0.05305 0.55588 0.01349 0.0
C263 C 0.07273 0.59078 0.08383 0.0
C264 C 0.09266 0.6112 0.10054 0.0
C265 C 0.07288 0.57621 0.03039 0.0
C266 C 0.11275 0.6168 0.06295 0.0
C267 C 0.11302 0.60239 0.00986 0.0
H268 H 0.59343 0.61515 0.90979 0.0
H269 H 0.64257 0.59397 0.94759 0.0
H270 H 0.61829 0.56768 0.04013 0.0
H271 H 0.58311 0.55063 0.11102 0.0
H272 H 0.53397 0.57182 0.07324 0.0
H273 H 0.55819 0.59802 0.98042 0.0
C274 C 0.59884 0.60479 0.93824 0.0
C275 C 0.61982 0.6066 0.92158 0.0
C276 C 0.58477 0.58963 0.99161 0.0
C277 C 0.62652 0.59299 0.95912 0.0
C278 C 0.61263 0.5779 0.01219 0.0
C279 C 0.57768 0.56095 0.08246 0.0
C280 C 0.55673 0.5592 0.0993 0.0
C281 C 0.59172 0.57607 0.02895 0.0
C282 C 0.55001 0.57276 0.0616 0.0
C283 C 0.56386 0.5878 1.00837 0.0
H284 H 0.61699 0.10832 0.12119 0.0
H285 H 0.59166 0.03701 0.08351 0.0
H286 H 0.56605 0.03661 0.99124 0.0
H287 H 0.55078 0.05653 0.92076 0.0
H288 H 0.57631 0.12788 0.95929 0.0
H289 H 0.60174 0.12813 0.0514 0.0
C290 C 0.60589 0.09268 0.09281 0.0
C291 C 0.60631 0.07275 0.1094 0.0
C292 C 0.59115 0.09253 0.03981 0.0
C293 C 0.59174 0.05263 0.07199 0.0
C294 C 0.57705 0.05237 0.01912 0.0
C295 C 0.56188 0.07212 0.94937 0.0
C296 C 0.56156 0.09213 0.9329 0.0
C297 C 0.57659 0.07221 1.00255 0.0
C298 C 0.57612 0.11219 0.97062 0.0
C299 C 0.59073 0.11239 0.02344 0.0
H300 H 0.59263 0.05807 0.42072 0.0
H301 H 0.63769 0.12967 0.45716 0.0
H302 H 0.61236 0.12962 0.5501 0.0
H303 H 0.57728 0.10931 0.62123 0.0
H304 H 0.53229 0.03771 0.58421 0.0
H305 H 0.55768 0.03781 0.49165 0.0
C306 C 0.59695 0.07367 0.44901 0.0
C307 C 0.61708 0.09382 0.43181 0.0
C308 C 0.58227 0.07357 0.50245 0.0
C309 C 0.62233 0.11388 0.46913 0.0
C310 C 0.60783 0.11389 0.52239 0.0
C311 C 0.57302 0.09373 0.59292 0.0
C312 C 0.55286 0.07356 0.60988 0.0
C313 C 0.58773 0.09385 0.53949 0.0
C314 C 0.54766 0.05352 0.57249 0.0
C315 C 0.56219 0.05353 0.51941 0.0
H316 H 0.10985 0.6134 0.41142 0.0
H317 H 0.03865 0.58761 0.4525 0.0
H318 H 0.03886 0.56239 0.54459 0.0
H319 H 0.059 0.54734 0.61345 0.0
H320 H 0.13018 0.57292 0.5734 0.0
H321 H 0.13015 0.59839 0.48128 0.0
C322 C 0.0944 0.6023 0.44061 0.0
C323 C 0.07429 0.60246 0.42481 0.0
C324 C 0.09457 0.5877 0.49378 0.0
C325 C 0.05441 0.5879 0.46327 0.0
C326 C 0.05447 0.57341 0.51609 0.0
C327 C 0.07452 0.55845 0.58458 0.0
C328 C 0.09453 0.55814 0.60043 0.0
C329 C 0.07442 0.57311 0.5317 0.0
C330 C 0.11449 0.57275 0.56243 0.0
C331 C 0.11451 0.58736 0.50965 0.0
H332 H 0.62201 0.59242 0.61244 0.0
H333 H 0.59473 0.63636 0.56912 0.0
H334 H 0.57005 0.61026 0.47684 0.0
H335 H 0.55592 0.57481 0.40828 0.0
H336 H 0.58319 0.53087 0.45163 0.0
H337 H 0.60797 0.55703 0.54363 0.0
C338 C 0.61071 0.59632 0.58273 0.0
C339 C 0.6103 0.61636 0.59791 0.0
C340 C 0.59644 0.58118 0.5296 0.0
C341 C 0.59547 0.62107 0.55879 0.0
C342 C 0.58128 0.60614 0.50588 0.0
C343 C 0.56726 0.57093 0.43788 0.0
C344 C 0.56762 0.55086 0.42287 0.0
C345 C 0.58157 0.5861 0.49088 0.0
C346 C 0.58249 0.54617 0.46184 0.0
C347 C 0.59673 0.56115 0.5146 0.0
H348 H 0.7234 0.87405 0.29616 0.0
H349 H 0.79152 0.91548 0.21475 0.0
H350 H 0.79731 0.9463 0.29468 0.0
H351 H 0.78328 0.96164 0.38764 0.0
H352 H 0.71536 0.92049 0.47053 0.0
H353 H 0.70928 0.88955 0.38985 0.0
C354 C 0.73953 0.88979 0.29605 0.0
C355 C 0.75698 0.89236 0.24944 0.0
C356 C 0.74279 0.90759 0.3422 0.0
C357 C 0.77776 0.91295 0.24996 0.0
C358 C 0.78111 0.93065 0.29565 0.0
C359 C 0.76709 0.94596 0.38794 0.0
C360 C 0.74981 0.94346 0.43506 0.0
C361 C 0.76375 0.92818 0.34185 0.0
C362 C 0.72898 0.92293 0.4348 0.0
C363 C 0.72549 0.90519 0.38874 0.0
H364 H 0.2074 0.90116 0.39313 0.0
H365 H 0.24916 0.87446 0.46971 0.0
H366 H 0.27987 0.90016 0.39039 0.0
H367 H 0.29501 0.93029 0.29938 0.0
H368 H 0.25326 0.95694 0.22239 0.0
H369 H 0.22257 0.93133 0.30204 0.0
C370 C 0.22317 0.90088 0.39228 0.0
C371 C 0.22589 0.88583 0.43732 0.0
C372 C 0.24087 0.91582 0.34673 0.0
C373 C 0.24653 0.88582 0.43564 0.0
C374 C 0.26416 0.90056 0.39035 0.0
C375 C 0.27925 0.9306 0.30024 0.0
C376 C 0.27652 0.94558 0.25498 0.0
C377 C 0.26156 0.91569 0.34583 0.0
C378 C 0.25589 0.94562 0.25663 0.0
C379 C 0.23827 0.93093 0.30211 0.0
H380 H 0.26993 0.3884 0.3829 0.0
H381 H 0.2984 0.45716 0.46079 0.0
H382 H 0.27336 0.46309 0.38181 0.0
H383 H 0.24309 0.44877 0.29213 0.0
H384 H 0.21444 0.38013 0.21329 0.0
H385 H 0.23976 0.37415 0.29151 0.0
C386 C 0.27078 0.40474 0.38225 0.0
C387 C 0.28608 0.4223 0.42777 0.0
C388 C 0.25617 0.40803 0.33695 0.0
C389 C 0.28683 0.44332 0.4264 0.0
C390 C 0.27246 0.44674 0.38134 0.0
C391 C 0.24228 0.43245 0.29215 0.0
C392 C 0.2268 0.41491 0.24704 0.0
C393 C 0.25697 0.42918 0.33679 0.0
C394 C 0.22614 0.39393 0.24755 0.0
C395 C 0.24066 0.3905 0.29218 0.0
H396 H 0.21143 0.38753 0.88367 0.0
H397 H 0.24917 0.45597 0.96607 0.0
H398 H 0.28035 0.46416 0.88408 0.0
H399 H 0.29713 0.45184 0.79016 0.0
H400 H 0.25957 0.38335 0.7081 0.0
H401 H 0.22815 0.37527 0.78904 0.0
C402 C 0.22642 0.40428 0.88352 0.0
C403 C 0.2279 0.42111 0.93101 0.0
C404 C 0.24439 0.40886 0.83653 0.0
C405 C 0.24753 0.44269 0.93017 0.0
C406 C 0.26541 0.44739 0.88333 0.0
C407 C 0.2821 0.43512 0.78994 0.0
C408 C 0.28077 0.41823 0.7431 0.0
C409 C 0.26407 0.43058 0.83654 0.0
C410 C 0.2611 0.39668 0.74358 0.0
C411 C 0.24309 0.39204 0.78982 0.0
H412 H 0.78784 0.90783 0.88814 0.0
H413 H 0.71887 0.87498 0.96637 0.0
H414 H 0.71057 0.89831 0.8868 0.0
H415 H 0.7229 0.92826 0.79603 0.0
H416 H 0.79179 0.96107 0.71722 0.0
H417 H 0.80009 0.93761 0.7964 0.0
C418 C 0.77095 0.90568 0.88757 0.0
C419 C 0.75402 0.88963 0.93321 0.0
C420 C 0.7663 0.91925 0.84193 0.0
C421 C 0.73225 0.88715 0.93182 0.0
C422 C 0.72748 0.90054 0.88644 0.0
C423 C 0.73977 0.93037 0.79631 0.0
C424 C 0.75671 0.94648 0.75086 0.0
C425 C 0.7444 0.91671 0.84157 0.0
C426 C 0.77843 0.94884 0.75169 0.0
C427 C 0.78319 0.9354 0.79688 0.0
H428 H 0.25909 0.95646 0.89488 0.0
H429 H 0.29416 0.92256 0.97184 0.0
H430 H 0.2719 0.89073 0.89094 0.0
H431 H 0.24246 0.87248 0.79827 0.0
H432 H 0.2075 0.90656 0.72177 0.0
H433 H 0.22968 0.93825 0.80287 0.0
C434 C 0.26195 0.94216 0.8939 0.0
C435 C 0.27832 0.94197 0.93937 0.0
C436 C 0.24903 0.92385 0.84752 0.0
C437 C 0.28169 0.92321 0.93743 0.0
C438 C 0.26894 0.90495 0.89123 0.0
C439 C 0.23961 0.88678 0.79952 0.0
C440 C 0.22329 0.88707 0.75395 0.0
C441 C 0.25253 0.90507 0.84613 0.0
C442 C 0.21992 0.90583 0.75619 0.0
C443 C 0.23263 0.92401 0.80252 0.0
H444 H 0.45059 0.29014 0.74046 0.0
H445 H 0.37961 0.25267 0.79752 0.0
H446 H 0.37327 0.22353 0.70915 0.0
H447 H 0.38776 0.20871 0.61524 0.0
H448 H 0.45874 0.24618 0.55817 0.0
H449 H 0.46512 0.27521 0.647 0.0
C450 C 0.43372 0.2756 0.73366 0.0
C451 C 0.41561 0.27366 0.77568 0.0
C452 C 0.43016 0.25887 0.68268 0.0
C453 C 0.39388 0.25466 0.76602 0.0
C454 C 0.39022 0.23795 0.71543 0.0
C455 C 0.40464 0.2232 0.62221 0.0
C456 C 0.42272 0.22521 0.57991 0.0
C457 C 0.40822 0.23989 0.67341 0.0
C458 C 0.44448 0.24415 0.58985 0.0
C459 C 0.44817 0.2608 0.64068 0.0
H460 H 0.90643 0.22106 0.76413 0.0
H461 H 0.85806 0.23979 0.68961 0.0
H462 H 0.88498 0.26463 0.5994 0.0
H463 H 0.92234 0.28148 0.54224 0.0
H464 H 0.97097 0.26306 0.61612 0.0
H465 H 0.94391 0.23778 0.70581 0.0
C466 C 0.90174 0.23049 0.72795 0.0
C467 C 0.88022 0.2285 0.73383 0.0
C468 C 0.91739 0.24491 0.67613 0.0
C469 C 0.87449 0.24095 0.68653 0.0
C470 C 0.88989 0.25522 0.63484 0.0
C471 C 0.92706 0.27197 0.57795 0.0
C472 C 0.9487 0.27424 0.57238 0.0
C473 C 0.91142 0.25742 0.62935 0.0
C474 C 0.95445 0.26169 0.61913 0.0
C475 C 0.93897 0.24719 0.67049 0.0
H476 H 0.94918 0.7733 0.79222 0.0
H477 H 0.93329 0.7066 0.72009 0.0
H478 H 0.90723 0.70674 0.63072 0.0
H479 H 0.88904 0.72579 0.57234 0.0
H480 H 0.90494 0.79251 0.64423 0.0
H481 H 0.93077 0.79226 0.73433 0.0
C482 C 0.94005 0.7588 0.75692 0.0
C483 C 0.94326 0.74 0.76295 0.0
C484 C 0.92501 0.75894 0.70558 0.0
C485 C 0.9312 0.72133 0.71677 0.0
C486 C 0.91625 0.72136 0.66556 0.0
C487 C 0.89808 0.74025 0.60785 0.0
C488 C 0.89501 0.75912 0.60139 0.0
C489 C 0.91302 0.74007 0.65947 0.0
C490 C 0.90694 0.77773 0.64787 0.0
C491 C 0.92177 0.77764 0.69945 0.0
H492 H 0.8802 0.7175 0.24214 0.0
H493 H 0.91574 0.78839 0.30139 0.0
H494 H 0.9457 0.79571 0.21513 0.0
H495 H 0.96176 0.78208 0.12246 0.0
H496 H 0.92616 0.7112 0.06309 0.0
H497 H 0.89636 0.70383 0.15003 0.0
C498 C 0.89448 0.73457 0.23624 0.0
C499 C 0.89565 0.75236 0.27827 0.0
C500 C 0.9117 0.73868 0.18658 0.0
C501 C 0.91434 0.77436 0.26983 0.0
C502 C 0.93152 0.77857 0.22048 0.0
C503 C 0.94753 0.76499 0.12861 0.0
C504 C 0.94626 0.74723 0.08618 0.0
C505 C 0.93038 0.76086 0.17857 0.0
C506 C 0.92763 0.72521 0.09495 0.0
C507 C 0.91054 0.72097 0.14465 0.0
H508 H 0.39707 0.22018 0.28791 0.0
H509 H 0.46422 0.23866 0.21346 0.0
H510 H 0.46264 0.2642 0.12475 0.0
H511 H 0.44219 0.28124 0.06794 0.0
H512 H 0.37503 0.26269 0.14253 0.0
H513 H 0.37673 0.23735 0.23165 0.0
C514 C 0.41136 0.22974 0.2522 0.0
C515 C 0.43071 0.22743 0.25738 0.0
C516 C 0.41039 0.24448 0.20143 0.0
C517 C 0.44909 0.24005 0.21074 0.0
C518 C 0.44822 0.25471 0.15997 0.0
C519 C 0.42795 0.27174 0.10386 0.0
C520 C 0.40853 0.27393 0.09843 0.0
C521 C 0.42898 0.25708 0.15488 0.0
C522 C 0.39021 0.26138 0.14538 0.0
C523 C 0.39114 0.24684 0.19638 0.0
H524 H 0.92702 0.29425 0.21177 0.0
H525 H 0.95786 0.25477 0.27327 0.0
H526 H 0.93412 0.2254 0.18642 0.0
H527 H 0.90429 0.21076 0.09372 0.0
H528 H 0.87365 0.25056 0.03327 0.0
H529 H 0.89763 0.2799 0.11917 0.0
C530 C 0.92864 0.27927 0.20619 0.0
C531 C 0.94424 0.27677 0.24911 0.0
C532 C 0.91491 0.26243 0.1564 0.0
C533 C 0.94603 0.25718 0.24097 0.0
C534 C 0.93243 0.24034 0.19134 0.0
C535 C 0.90284 0.22584 0.09933 0.0
C536 C 0.88712 0.22838 0.057 0.0
C537 C 0.91674 0.24275 0.14892 0.0
C538 C 0.88555 0.24809 0.06501 0.0
C539 C 0.89928 0.26493 0.11417 0.0
H540 H 0.15048 0.71246 0.37753 0.0
H541 H 0.0845 0.70669 0.37742 0.0
H542 H 0.10001 0.74304 0.44092 0.0
H543 H 0.13268 0.77687 0.49438 0.0
H544 H 0.19789 0.78095 0.50152 0.0
H545 H 0.18241 0.74489 0.4369 0.0
C546 C 0.13948 0.71913 0.39163 0.0
C547 C 0.11642 0.70701 0.37253 0.0
C548 C 0.14843 0.73979 0.42891 0.0
C549 C 0.10229 0.71569 0.39188 0.0
C550 C 0.11118 0.73651 0.42778 0.0
C551 C 0.14347 0.76986 0.48137 0.0
C552 C 0.16644 0.7816 0.50177 0.0
C553 C 0.13427 0.74879 0.44606 0.0
C554 C 0.18018 0.7722 0.4861 0.0
C555 C 0.17134 0.75161 0.44922 0.0
H556 H 0.45928 0.5161 0.38589 0.0
H557 H 0.46259 0.45454 0.37716 0.0
H558 H 0.42627 0.43414 0.44125 0.0
H559 H 0.39286 0.43371 0.49602 0.0
H560 H 0.39141 0.49621 0.51117 0.0
H561 H 0.42769 0.51637 0.44794 0.0
C562 C 0.4521 0.49823 0.39839 0.0
C563 C 0.46346 0.48677 0.37648 0.0
C564 C 0.43149 0.48679 0.43588 0.0
C565 C 0.45417 0.46372 0.39379 0.0
C566 C 0.43336 0.45205 0.42998 0.0
C567 C 0.40054 0.45174 0.48528 0.0
C568 C 0.38942 0.46345 0.50741 0.0
C569 C 0.42173 0.46336 0.45055 0.0
C570 C 0.39967 0.48686 0.49451 0.0
C571 C 0.42038 0.49838 0.45835 0.0
H572 H 0.73594 0.03799 0.49663 0.0
H573 H 0.67579 0.9721 0.51377 0.0
H574 H 0.65368 0.98616 0.45183 0.0
H575 H 0.6515 0.01704 0.39192 0.0
H576 H 0.7108 0.08377 0.38191 0.0
H577 H 0.73316 0.06969 0.44274 0.0
C578 C 0.71802 0.02676 0.48636 0.0
C579 C 0.7075 1.00402 0.50884 0.0
C580 C 0.70526 0.03516 0.45263 0.0
C581 C 0.6842 0.98967 0.49671 0.0
C582 C 0.67157 0.9977 0.46137 0.0
C583 C 0.6693 0.02852 0.40336 0.0
C584 C 0.67952 0.05136 0.38224 0.0
C585 C 0.68191 0.02039 0.4391 0.0
C586 C 0.70253 0.06612 0.39805 0.0
C587 C 0.71534 0.05805 0.43239 0.0
H588 H 0.71767 0.1527 0.15229 0.0
H589 H 0.7097 0.0858 0.13996 0.0
H590 H 0.74515 0.101 0.07171 0.0
H591 H 0.77858 0.1336 0.01539 0.0
H592 H 0.7846 0.19972 0.02182 0.0
H593 H 0.74992 0.18463 0.09328 0.0
C594 C 0.72366 0.14142 0.1346 0.0
C595 C 0.71112 0.11818 0.15129 0.0
C596 C 0.74382 0.1502 0.09481 0.0
C597 C 0.71899 0.10375 0.12741 0.0
C598 C 0.73932 0.11245 0.08876 0.0
C599 C 0.77233 0.14465 0.03316 0.0
C600 C 0.78415 0.16774 0.01415 0.0
C601 C 0.75194 0.13568 0.07236 0.0
C602 C 0.77574 0.18189 0.03605 0.0
C603 C 0.75593 0.17328 0.07675 0.0
H604 H 0.99321 0.68079 1.0024 0.0
H605 H 0.04445 0.74915 0.05756 0.0
H606 H 0.06589 0.73457 0.12181 0.0
H607 H 0.06955 0.70197 0.16444 0.0
H608 H 0.01651 0.63391 0.11491 0.0
H609 H 0.99647 0.64876 0.04529 0.0
C610 C 0.0091 0.69256 0.02833 0.0
C611 C 0.01723 0.71602 0.02511 0.0
C612 C 0.0211 0.68407 0.0657 0.0
C613 C 0.03775 0.73099 0.05959 0.0
C614 C 0.05006 0.72266 0.09601 0.0
C615 C 0.05377 0.69051 0.13743 0.0
C616 C 0.04456 0.66693 0.1439 0.0
C617 C 0.04189 0.6992 0.0995 0.0
C618 C 0.02389 0.65214 0.11023 0.0
C619 C 0.01241 0.6606 0.07069 0.0
H620 H 0.48689 0.3867 0.01199 0.0
H621 H 0.41965 0.37606 0.04746 0.0
H622 H 0.4356 0.41269 0.10862 0.0
H623 H 0.46878 0.44751 0.15515 0.0
H624 H 0.53564 0.45656 0.12699 0.0
H625 H 0.51983 0.42106 0.05932 0.0
C626 C 0.47574 0.39242 0.03296 0.0
C627 C 0.45213 0.37865 0.02519 0.0
C628 C 0.48499 0.41333 0.06917 0.0
C629 C 0.43789 0.38625 0.05314 0.0
C630 C 0.447 0.40726 0.08788 0.0
C631 C 0.47983 0.44178 0.13332 0.0
C632 C 0.50332 0.45465 0.14544 0.0
C633 C 0.47053 0.42093 0.09647 0.0
C634 C 0.51749 0.4469 0.11819 0.0
C635 C 0.50847 0.4266 0.07964 0.0
H636 H 0.03702 0.38464 0.51698 0.0
H637 H 0.97016 0.3768 0.51988 0.0
H638 H 0.98452 0.41233 0.58653 0.0
H639 H 0.01599 0.44564 0.64353 0.0
H640 H 0.08349 0.45514 0.63482 0.0
H641 H 0.06909 0.41915 0.57012 0.0
C642 C 0.02563 0.39069 0.53281 0.0
C643 C 1.00254 0.37807 0.51432 0.0
C644 C 0.03416 0.41152 0.56935 0.0
C645 C 0.98799 0.38624 0.53372 0.0
C646 C 0.99619 0.40655 0.57172 0.0
C647 C 0.02758 0.43987 0.6273 0.0
C648 C 0.05075 0.45299 0.64412 0.0
C649 C 0.01924 0.41935 0.58959 0.0
C650 C 0.06558 0.4454 0.62214 0.0
C651 C 0.05734 0.42477 0.58553 0.0
H652 H 0.72188 0.65415 0.65293 0.0
H653 H 0.71286 0.7124 0.64193 0.0
H654 H 0.74948 0.73399 0.58022 0.0
H655 H 0.78452 0.73632 0.53127 0.0
H656 H 0.79171 0.67689 0.53728 0.0
H657 H 0.75545 0.65579 0.59975 0.0
C658 C 0.72788 0.67156 0.63689 0.0
C659 C 0.71475 0.68171 0.6523 0.0
C660 C 0.74872 0.68369 0.60106 0.0
C661 C 0.72262 0.70418 0.63037 0.0
C662 C 0.74361 0.71656 0.59551 0.0
C663 C 0.77814 0.7188 0.54677 0.0
C664 C 0.79084 0.70821 0.53042 0.0
C665 C 0.75691 0.70653 0.58108 0.0
C666 C 0.78225 0.68539 0.54943 0.0
C667 C 0.76152 0.67331 0.58508 0.0
H668 H 0.46977 0.14701 0.45183 0.0
H669 H 0.44803 0.17023 0.63466 0.0
H670 H 0.46386 0.1535 0.71637 0.0
H671 H 0.48455 0.13284 0.73525 0.0
H672 H 0.5024 0.10583 0.55294 0.0
H673 H 0.48738 0.12332 0.47101 0.0
C674 C 0.46856 0.14834 0.50962 0.0
C675 C 0.45812 0.16001 0.53769 0.0
C676 C 0.47696 0.138 0.55595 0.0
C677 C 0.45613 0.16134 0.61234 0.0
C678 C 0.46518 0.15184 0.65885 0.0
C679 C 0.48505 0.13079 0.67752 0.0
C680 C 0.4947 0.11837 0.64966 0.0
C681 C 0.47573 0.14023 0.63124 0.0
C682 C 0.495 0.11538 0.57513 0.0
C683 C 0.4865 0.12541 0.52848 0.0
H684 H 0.4018 0.02544 0.0789 0.0
H685 H 0.35925 0.99432 0.89415 0.0
H686 H 0.39282 0.00863 0.81683 0.0
H687 H 0.43434 0.02994 0.80219 0.0
H688 H 0.47678 0.06485 0.98399 0.0
H689 H 0.44331 0.04928 0.06244 0.0
C690 C 0.40001 0.02186 0.02168 0.0
C691 C 0.37827 0.00872 0.99194 0.0
C692 C 0.41933 0.03083 0.97735 0.0
C693 C 0.37592 1.00441 0.91778 0.0
C694 C 0.39507 0.01254 0.87377 0.0
C695 C 0.43618 0.03406 0.85906 0.0
C696 C 0.45788 0.04823 0.88778 0.0
C697 C 0.41686 0.02572 0.90299 0.0
C698 C 0.46016 0.0539 0.96105 0.0
C699 C 0.44108 0.04498 1.00578 0.0
H700 H 0.15122 0.51456 0.8849 0.0
H701 H 0.08512 0.45443 0.87437 0.0
H702 H 0.09965 0.4327 0.93682 0.0
H703 H 0.13158 0.43072 0.9925 0.0
H704 H 0.19676 0.49174 0.01012 0.0
H705 H 0.18227 0.51318 0.94638 0.0
C706 C 0.13998 0.49671 0.89656 0.0
C707 C 0.11719 0.48608 0.87485 0.0
C708 C 0.14835 0.48446 0.93326 0.0
C709 C 0.10273 0.46302 0.89095 0.0
C710 C 0.11106 0.45056 0.92624 0.0
C711 C 0.14256 0.44869 0.98195 0.0
C712 C 0.16523 0.45965 1.00514 0.0
C713 C 0.1339 0.46107 0.94715 0.0
C714 C 0.17924 0.48299 0.99257 0.0
C715 C 0.17098 0.49524 0.95619 0.0
H716 H 0.70738 0.71989 0.86593 0.0
H717 H 0.63964 0.70717 0.90573 0.0
H718 H 0.65475 0.74225 0.97552 0.0
H719 H 0.68725 0.77733 0.02097 0.0
H720 H 0.7552 0.79184 0.9729 0.0
H721 H 0.74009 0.75548 0.91032 0.0
C722 C 0.696 0.72473 0.89082 0.0
C723 C 0.67247 0.71097 0.88151 0.0
C724 C 0.70486 0.74537 0.92861 0.0
C725 C 0.65784 0.71755 0.91251 0.0
C726 C 0.66646 0.73761 0.95221 0.0
C727 C 0.69874 0.7725 0.99698 0.0
C728 C 0.72229 0.78725 1.00155 0.0
C729 C 0.68994 0.75179 0.95986 0.0
C730 C 0.73698 0.78084 0.96966 0.0
C731 C 0.72836 0.76001 0.93414 0.0
H732 H 0.76406 0.05292 0.69209 0.0
H733 H 0.82587 0.05017 0.68389 0.0
H734 H 0.84617 0.08662 0.74658 0.0
H735 H 0.84644 0.11947 0.80267 0.0
H736 H 0.78556 0.12403 0.8014 0.0
H737 H 0.76481 0.08684 0.74307 0.0
C738 C 0.78193 0.0603 0.7046 0.0
C739 C 0.79345 0.04887 0.68429 0.0
C740 C 0.79367 0.08164 0.73841 0.0
C741 C 0.81669 0.05872 0.69927 0.0
C742 C 0.82829 0.07953 0.73503 0.0
C743 C 0.82863 0.11229 0.78955 0.0
C744 C 0.8175 0.12439 0.80649 0.0
C745 C 0.81698 0.09118 0.75462 0.0
C746 C 0.79451 0.11506 0.78849 0.0
C747 C 0.78262 0.09377 0.75547 0.0
H748 H 0.11458 0.84443 0.68336 0.0
H749 H 0.12425 0.78679 0.70551 0.0
H750 H 0.0881 0.76592 0.76927 0.0
H751 H 0.05387 0.76418 0.81982 0.0
H752 H 0.04582 0.82298 0.80751 0.0
H753 H 0.0811 0.84328 0.73858 0.0
C754 C 0.10871 0.82729 0.70213 0.0
C755 C 0.12196 0.81711 0.68963 0.0
C756 C 0.08819 0.81561 0.74031 0.0
C757 C 0.11436 0.79501 0.7149 0.0
C758 C 0.09367 0.78304 0.75108 0.0
C759 C 0.05981 0.78138 0.80149 0.0
C760 C 0.04724 0.79204 0.81785 0.0
C761 C 0.08045 0.79317 0.76411 0.0
C762 C 0.05526 0.81447 0.79527 0.0
C763 C 0.0754 0.82606 0.75594 0.0
H764 H 0.35584 0.36822 0.61401 0.0
H765 H 0.33272 0.39001 0.79703 0.0
H766 H 0.34567 0.37053 0.87818 0.0
H767 H 0.36408 0.34773 0.89681 0.0
H768 H 0.39138 0.32989 0.71522 0.0
H769 H 0.37635 0.34734 0.63327 0.0
C770 C 0.35362 0.36856 0.67168 0.0
C771 C 0.34321 0.38023 0.69991 0.0
C772 C 0.36186 0.35807 0.71792 0.0
C773 C 0.34072 0.38105 0.77454 0.0
C774 C 0.34806 0.36991 0.82076 0.0
C775 C 0.36657 0.34759 0.8392 0.0
C776 C 0.37847 0.33737 0.81155 0.0
C777 C 0.35869 0.35841 0.79304 0.0
C778 C 0.38214 0.33765 0.73723 0.0
C779 C 0.37356 0.34759 0.69057 0.0
H780 H 0.05443 0.31878 0.30683 0.0
H781 H 0.0454 0.37706 0.29959 0.0
H782 H 0.08197 0.399 0.23834 0.0
H783 H 0.11681 0.4016 0.18772 0.0
H784 H 0.1239 0.34214 0.18599 0.0
H785 H 0.08791 0.32066 0.25029 0.0
C786 C 0.06047 0.33627 0.29166 0.0
C787 C 0.04735 0.34635 0.30791 0.0
C788 C 0.08122 0.34857 0.25528 0.0
C789 C 0.05519 0.36892 0.28725 0.0
C790 C 0.07613 0.38149 0.25262 0.0
C791 C 0.11045 0.38398 0.20192 0.0
C792 C 0.12299 0.37347 0.18313 0.0
C793 C 0.08936 0.37152 0.23668 0.0
C794 C 0.11448 0.35053 0.20024 0.0
C795 C 0.09393 0.33826 0.23691 0.0
H796 H 0.85412 0.81956 0.32487 0.0
H797 H 0.79564 0.75235 0.312 0.0
H798 H 0.77501 0.76723 0.24496 0.0
H799 H 0.77349 0.79963 0.19196 0.0
H800 H 0.83312 0.86617 0.19624 0.0
H801 H 0.85349 0.85137 0.26508 0.0
C802 C 0.83688 0.80819 0.30714 0.0
C803 C 0.82632 0.78496 0.32357 0.0
C804 C 0.82535 0.81679 0.26755 0.0
C805 C 0.80411 0.7703 0.29961 0.0
C806 C 0.79229 0.77882 0.26167 0.0
C807 C 0.79092 0.81083 0.20835 0.0
C808 C 0.80179 0.83395 0.19013 0.0
C809 C 0.8027 0.80206 0.24581 0.0
C810 C 0.82448 0.84831 0.21005 0.0
C811 C 0.83609 0.83987 0.24932 0.0
H812 H 0.36842 0.05242 0.19999 0.0
H813 H 0.30491 0.05127 0.17723 0.0
H814 H 0.32031 0.0871 0.2437 0.0
H815 H 0.35205 0.11882 0.30863 0.0
H816 H 0.41641 0.12119 0.32157 0.0
H817 H 0.40055 0.08489 0.25861 0.0
C818 C 0.35795 0.06 0.20986 0.0
C819 C 0.33553 0.04919 0.1845 0.0
C820 C 0.36712 0.08085 0.24619 0.0
C821 C 0.32224 0.05934 0.19637 0.0
C822 C 0.33102 0.07978 0.23442 0.0
C823 C 0.36254 0.11133 0.29757 0.0
C824 C 0.38531 0.12257 0.31989 0.0
C825 C 0.35345 0.0907 0.25964 0.0
C826 C 0.39885 0.11289 0.30456 0.0
C827 C 0.38978 0.0921 0.2688 0.0
loop_
_geom_bond_atom_site_label_1
_geom_bond_atom_site_label_2
_geom_bond_distance
_geom_bond_site_symmetry_2
_ccdc_geom_bond_type
C0 O2 1.247 . S
C0 O4 1.258 . S
C1 O8 1.247 . S
C1 O9 1.258 . S
O2 C0 1.247 . S
O2 Zn3 2.028 . S
Zn3 O2 2.028 . S
Zn3 O7 2.035 . S
Zn3 O9 2.035 . S
Zn3 O10 2.028 . S
O4 C0 1.258 . S
O4 Zn5 2.035 . S
Zn5 O4 2.035 . S
Zn5 O6 2.028 . S
Zn5 O8 2.028 . S
Zn5 O11 2.035 . S
O6 Zn5 2.028 . S
O6 C12 1.247 . S
O7 Zn3 2.035 . S
O7 C12 1.258 . S
O8 C1 1.247 . S
O8 Zn5 2.028 . S
O9 C1 1.258 . S
O9 Zn3 2.035 . S
O10 Zn3 2.028 . S
O10 C13 1.247 . S
O11 Zn5 2.035 . S
O11 C13 1.258 . S
C12 O6 1.247 . S
C12 O7 1.258 . S
C13 O10 1.247 . S
C13 O11 1.258 . S
C14 O16 1.247 . S
C14 O18 1.258 . S
C15 O22 1.247 . S
C15 O23 1.258 . S
O16 C14 1.247 . S
O16 Zn17 2.028 . S
Zn17 O16 2.028 . S
Zn17 O21 2.035 . S
Zn17 O23 2.035 . S
Zn17 O24 2.028 . S
O18 C14 1.258 . S
O18 Zn19 2.035 . S
Zn19 O18 2.035 . S
Zn19 O20 2.028 . S
Zn19 O22 2.028 . S
Zn19 O25 2.035 . S
O20 Zn19 2.028 . S
O20 C26 1.247 . S
O21 Zn17 2.035 . S
O21 C26 1.258 . S
O22 C15 1.247 . S
O22 Zn19 2.028 . S
O23 C15 1.258 . S
O23 Zn17 2.035 . S
O24 Zn17 2.028 . S
O24 C27 1.247 . S
O25 Zn19 2.035 . S
O25 C27 1.258 . S
C26 O20 1.247 . S
C26 O21 1.258 . S
C27 O24 1.247 . S
C27 O25 1.258 . S
C28 O30 1.247 . S
C28 O32 1.258 . S
C29 O36 1.247 . S
C29 O37 1.258 . S
O30 C28 1.247 . S
O30 Zn31 2.028 . S
Zn31 O30 2.028 . S
Zn31 O35 2.035 . S
Zn31 O37 2.035 . S
Zn31 O38 2.028 . S
O32 C28 1.258 . S
O32 Zn33 2.035 . S
Zn33 O32 2.035 . S
Zn33 O34 2.028 . S
Zn33 O36 2.028 . S
Zn33 O39 2.035 . S
O34 Zn33 2.028 . S
O34 C40 1.247 . S
O35 Zn31 2.035 . S
O35 C40 1.258 . S
O36 C29 1.247 . S
O36 Zn33 2.028 . S
O37 C29 1.258 . S
O37 Zn31 2.035 . S
O38 Zn31 2.028 . S
O38 C41 1.247 . S
O39 Zn33 2.035 . S
O39 C41 1.258 . S
C40 O34 1.247 . S
C40 O35 1.258 . S
C41 O38 1.247 . S
C41 O39 1.258 . S
C42 O44 1.247 . S
C42 O46 1.258 . S
C43 O50 1.247 . S
C43 O51 1.258 . S
O44 C42 1.247 . S
O44 Zn45 2.028 . S
Zn45 O44 2.028 . S
Zn45 O49 2.035 . S
Zn45 O51 2.035 . S
Zn45 O52 2.028 . S
O46 C42 1.258 . S
O46 Zn47 2.035 . S
Zn47 O46 2.035 . S
Zn47 O48 2.028 . S
Zn47 O50 2.028 . S
Zn47 O53 2.035 . S
O48 Zn47 2.028 . S
O48 C54 1.247 . S
O49 Zn45 2.035 . S
O49 C54 1.258 . S
O50 C43 1.247 . S
O50 Zn47 2.028 . S
O51 C43 1.258 . S
O51 Zn45 2.035 . S
O52 Zn45 2.028 . S
O52 C55 1.247 . S
O53 Zn47 2.035 . S
O53 C55 1.258 . S
C54 O48 1.247 . S
C54 O49 1.258 . S
C55 O52 1.247 . S
C55 O53 1.258 . S
C56 O58 1.247 . S
C56 O60 1.258 . S
C57 O64 1.247 . S
C57 O65 1.258 . S
O58 C56 1.247 . S
O58 Zn59 2.028 . S
Zn59 O58 2.028 . S
Zn59 O63 2.035 . S
Zn59 O65 2.035 . S
Zn59 O66 2.028 . S
O60 C56 1.258 . S
O60 Zn61 2.035 . S
Zn61 O60 2.035 . S
Zn61 O62 2.028 . S
Zn61 O64 2.028 . S
Zn61 O67 2.035 . S
O62 Zn61 2.028 . S
O62 C68 1.247 . S
O63 Zn59 2.035 . S
O63 C68 1.258 . S
O64 C57 1.247 . S
O64 Zn61 2.028 . S
O65 C57 1.258 . S
O65 Zn59 2.035 . S
O66 Zn59 2.028 . S
O66 C69 1.247 . S
O67 Zn61 2.035 . S
O67 C69 1.258 . S
C68 O62 1.247 . S
C68 O63 1.258 . S
C69 O66 1.247 . S
C69 O67 1.258 . S
C70 O72 1.247 . S
C70 O74 1.258 . S
C71 O78 1.247 . S
C71 O79 1.258 . S
O72 C70 1.247 . S
O72 Zn73 2.028 . S
Zn73 O72 2.028 . S
Zn73 O77 2.035 . S
Zn73 O79 2.035 . S
Zn73 O80 2.028 . S
O74 C70 1.258 . S
O74 Zn75 2.035 . S
Zn75 O74 2.035 . S
Zn75 O76 2.028 . S
Zn75 O78 2.028 . S
Zn75 O81 2.035 . S
O76 Zn75 2.028 . S
O76 C82 1.247 . S
O77 Zn73 2.035 . S
O77 C82 1.258 . S
O78 C71 1.247 . S
O78 Zn75 2.028 . S
O79 C71 1.258 . S
O79 Zn73 2.035 . S
O80 Zn73 2.028 . S
O80 C83 1.247 . S
O81 Zn75 2.035 . S
O81 C83 1.258 . S
C82 O76 1.247 . S
C82 O77 1.258 . S
C83 O80 1.247 . S
C83 O81 1.258 . S
C84 O86 1.247 . S
C84 O88 1.258 . S
C85 O92 1.247 . S
C85 O93 1.258 1_545 S
O86 C84 1.247 . S
O86 Zn87 2.028 . S
Zn87 O86 2.028 . S
Zn87 O91 2.035 . S
Zn87 O93 2.035 . S
Zn87 O94 2.028 . S
O88 C84 1.258 . S
O88 Zn89 2.035 . S
Zn89 O88 2.035 . S
Zn89 O90 2.028 1_565 S
Zn89 O92 2.028 1_565 S
Zn89 O95 2.035 . S
O90 Zn89 2.028 1_545 S
O90 C96 1.247 . S
O91 Zn87 2.035 . S
O91 C96 1.258 1_565 S
O92 C85 1.247 . S
O92 Zn89 2.028 1_545 S
O93 C85 1.258 1_565 S
O93 Zn87 2.035 . S
O94 Zn87 2.028 . S
O94 C97 1.247 . S
O95 Zn89 2.035 . S
O95 C97 1.258 . S
C96 O90 1.247 . S
C96 O91 1.258 1_545 S
C97 O94 1.247 . S
C97 O95 1.258 . S
C98 O100 1.247 . S
C98 O102 1.258 . S
C99 O106 1.247 . S
C99 O107 1.258 . S
O100 C98 1.247 . S
O100 Zn101 2.028 . S
Zn101 O100 2.028 . S
Zn101 O105 2.035 . S
Zn101 O107 2.035 . S
Zn101 O108 2.028 . S
O102 C98 1.258 . S
O102 Zn103 2.035 . S
Zn103 O102 2.035 . S
Zn103 O104 2.028 . S
Zn103 O106 2.028 . S
Zn103 O109 2.035 . S
O104 Zn103 2.028 . S
O104 C110 1.247 . S
O105 Zn101 2.035 . S
O105 C110 1.258 . S
O106 C99 1.247 . S
O106 Zn103 2.028 . S
O107 C99 1.258 . S
O107 Zn101 2.035 . S
O108 Zn101 2.028 . S
O108 C111 1.247 . S
O109 Zn103 2.035 . S
O109 C111 1.258 . S
C110 O104 1.247 . S
C110 O105 1.258 . S
C111 O108 1.247 . S
C111 O109 1.258 . S
C112 O114 1.247 . S
C112 O116 1.258 . S
C113 O120 1.247 . S
C113 O121 1.258 . S
O114 C112 1.247 . S
O114 Zn115 2.028 . S
Zn115 O114 2.028 . S
Zn115 O119 2.035 . S
Zn115 O121 2.035 . S
Zn115 O122 2.028 . S
O116 C112 1.258 . S
O116 Zn117 2.035 . S
Zn117 O116 2.035 . S
Zn117 O118 2.028 . S
Zn117 O120 2.028 . S
Zn117 O123 2.035 . S
O118 Zn117 2.028 . S
O118 C124 1.247 . S
O119 Zn115 2.035 . S
O119 C124 1.258 . S
O120 C113 1.247 . S
O120 Zn117 2.028 . S
O121 C113 1.258 . S
O121 Zn115 2.035 . S
O122 Zn115 2.028 . S
O122 C125 1.247 . S
O123 Zn117 2.035 . S
O123 C125 1.258 . S
C124 O118 1.247 . S
C124 O119 1.258 . S
C125 O122 1.247 . S
C125 O123 1.258 . S
C126 O128 1.247 . S
C126 O130 1.258 . S
C127 O134 1.247 . S
C127 O135 1.258 1_556 S
O128 C126 1.247 . S
O128 Zn129 2.028 . S
Zn129 O128 2.028 . S
Zn129 O133 2.035 . S
Zn129 O135 2.035 . S
Zn129 O136 2.028 . S
O130 C126 1.258 . S
O130 Zn131 2.035 . S
Zn131 O130 2.035 . S
Zn131 O132 2.028 . S
Zn131 O134 2.028 1_554 S
Zn131 O137 2.035 1_554 S
O132 Zn131 2.028 . S
O132 C138 1.247 . S
O133 Zn129 2.035 . S
O133 C138 1.258 . S
O134 C127 1.247 . S
O134 Zn131 2.028 1_556 S
O135 C127 1.258 1_554 S
O135 Zn129 2.035 . S
O136 Zn129 2.028 . S
O136 C139 1.247 1_554 S
O137 Zn131 2.035 1_556 S
O137 C139 1.258 . S
C138 O132 1.247 . S
C138 O133 1.258 . S
C139 O136 1.247 1_556 S
C139 O137 1.258 . S
C140 O142 1.247 1_545 S
C140 O144 1.258 . S
C141 O148 1.247 . S
C141 O149 1.258 1_556 S
O142 C140 1.247 1_565 S
O142 Zn143 2.028 . S
Zn143 O142 2.028 . S
Zn143 O147 2.035 . S
Zn143 O149 2.035 . S
Zn143 O150 2.028 . S
O144 C140 1.258 . S
O144 Zn145 2.035 1_545 S
Zn145 O144 2.035 1_565 S
Zn145 O146 2.028 . S
Zn145 O148 2.028 1_554 S
Zn145 O151 2.035 1_564 S
O146 Zn145 2.028 . S
O146 C152 1.247 . S
O147 Zn143 2.035 . S
O147 C152 1.258 . S
O148 C141 1.247 . S
O148 Zn145 2.028 1_556 S
O149 C141 1.258 1_554 S
O149 Zn143 2.035 . S
O150 Zn143 2.028 . S
O150 C153 1.247 1_564 S
O151 Zn145 2.035 1_546 S
O151 C153 1.258 . S
C152 O146 1.247 . S
C152 O147 1.258 . S
C153 O150 1.247 1_546 S
C153 O151 1.258 . S
C154 O156 1.247 . S
C154 O158 1.258 1_556 S
C155 O162 1.247 . S
C155 O163 1.258 . S
O156 C154 1.247 . S
O156 Zn157 2.028 1_556 S
Zn157 O156 2.028 1_554 S
Zn157 O161 2.035 1_554 S
Zn157 O163 2.035 . S
Zn157 O164 2.028 . S
O158 C154 1.258 1_554 S
O158 Zn159 2.035 . S
Zn159 O158 2.035 . S
Zn159 O160 2.028 . S
Zn159 O162 2.028 . S
Zn159 O165 2.035 . S
O160 Zn159 2.028 . S
O160 C166 1.247 1_554 S
O161 Zn157 2.035 1_556 S
O161 C166 1.258 . S
O162 C155 1.247 . S
O162 Zn159 2.028 . S
O163 C155 1.258 . S
O163 Zn157 2.035 . S
O164 Zn157 2.028 . S
O164 C167 1.247 . S
O165 Zn159 2.035 . S
O165 C167 1.258 . S
C166 O160 1.247 1_556 S
C166 O161 1.258 . S
C167 O164 1.247 . S
C167 O165 1.258 . S
C168 O170 1.247 . S
C168 O172 1.258 1_554 S
C169 O176 1.247 . S
C169 O177 1.258 . S
O170 C168 1.247 . S
O170 Zn171 2.028 1_554 S
Zn171 O170 2.028 1_556 S
Zn171 O175 2.035 1_556 S
Zn171 O177 2.035 . S
Zn171 O178 2.028 . S
O172 C168 1.258 1_556 S
O172 Zn173 2.035 . S
Zn173 O172 2.035 . S
Zn173 O174 2.028 . S
Zn173 O176 2.028 . S
Zn173 O179 2.035 . S
O174 Zn173 2.028 . S
O174 C180 1.247 1_556 S
O175 Zn171 2.035 1_554 S
O175 C180 1.258 . S
O176 C169 1.247 . S
O176 Zn173 2.028 . S
O177 C169 1.258 . S
O177 Zn171 2.035 . S
O178 Zn171 2.028 . S
O178 C181 1.247 . S
O179 Zn173 2.035 . S
O179 C181 1.258 . S
C180 O174 1.247 1_554 S
C180 O175 1.258 . S
C181 O178 1.247 . S
C181 O179 1.258 . S
C182 O184 1.247 1_554 S
C182 O186 1.258 . S
C183 O190 1.247 . S
C183 O191 1.258 . S
O184 C182 1.247 1_556 S
O184 Zn185 2.028 . S
Zn185 O184 2.028 . S
Zn185 O189 2.035 . S
Zn185 O191 2.035 . S
Zn185 O192 2.028 . S
O186 C182 1.258 . S
O186 Zn187 2.035 1_554 S
Zn187 O186 2.035 1_556 S
Zn187 O188 2.028 1_556 S
Zn187 O190 2.028 . S
Zn187 O193 2.035 . S
O188 Zn187 2.028 1_554 S
O188 C194 1.247 . S
O189 Zn185 2.035 . S
O189 C194 1.258 1_556 S
O190 C183 1.247 . S
O190 Zn187 2.028 . S
O191 C183 1.258 . S
O191 Zn185 2.035 . S
O192 Zn185 2.028 . S
O192 C195 1.247 . S
O193 Zn187 2.035 . S
O193 C195 1.258 . S
C194 O188 1.247 . S
C194 O189 1.258 1_554 S
C195 O192 1.247 . S
C195 O193 1.258 . S
C196 O198 1.247 1_454 S
C196 O200 1.258 . S
C197 O204 1.247 . S
C197 O205 1.258 . S
O198 C196 1.247 1_656 S
O198 Zn199 2.028 . S
Zn199 O198 2.028 . S
Zn199 O203 2.035 . S
Zn199 O205 2.035 . S
Zn199 O206 2.028 . S
O200 C196 1.258 . S
O200 Zn201 2.035 1_454 S
Zn201 O200 2.035 1_656 S
Zn201 O202 2.028 1_556 S
Zn201 O204 2.028 . S
Zn201 O207 2.035 1_655 S
O202 Zn201 2.028 1_554 S
O202 C208 1.247 . S
O203 Zn199 2.035 . S
O203 C208 1.258 1_556 S
O204 C197 1.247 . S
O204 Zn201 2.028 . S
O205 C197 1.258 . S
O205 Zn199 2.035 . S
O206 Zn199 2.028 . S
O206 C209 1.247 1_655 S
O207 Zn201 2.035 1_455 S
O207 C209 1.258 . S
C208 O202 1.247 . S
C208 O203 1.258 1_554 S
C209 O206 1.247 1_455 S
C209 O207 1.258 . S
C210 O212 1.247 . S
C210 O214 1.258 . S
C211 O218 1.247 . S
C211 O219 1.258 . S
O212 C210 1.247 . S
O212 Zn213 2.028 . S
Zn213 O212 2.028 . S
Zn213 O217 2.035 . S
Zn213 O219 2.035 . S
Zn213 O220 2.028 . S
O214 C210 1.258 . S
O214 Zn215 2.035 . S
Zn215 O214 2.035 . S
Zn215 O216 2.028 . S
Zn215 O218 2.028 . S
Zn215 O221 2.035 . S
O216 Zn215 2.028 . S
O216 C222 1.247 . S
O217 Zn213 2.035 . S
O217 C222 1.258 . S
O218 C211 1.247 . S
O218 Zn215 2.028 . S
O219 C211 1.258 . S
O219 Zn213 2.035 . S
O220 Zn213 2.028 . S
O220 C223 1.247 . S
O221 Zn215 2.035 . S
O221 C223 1.258 . S
C222 O216 1.247 . S
C222 O217 1.258 . S
C223 O220 1.247 . S
C223 O221 1.258 . S
C224 O226 1.247 . S
C224 O228 1.258 1_455 S
C225 O232 1.247 . S
C225 O233 1.258 . S
O226 C224 1.247 . S
O226 Zn227 2.028 1_455 S
Zn227 O226 2.028 1_655 S
Zn227 O231 2.035 . S
Zn227 O233 2.035 . S
Zn227 O234 2.028 1_655 S
O228 C224 1.258 1_655 S
O228 Zn229 2.035 . S
Zn229 O228 2.035 . S
Zn229 O230 2.028 . S
Zn229 O232 2.028 . S
Zn229 O235 2.035 . S
O230 Zn229 2.028 . S
O230 C236 1.247 . S
O231 Zn227 2.035 . S
O231 C236 1.258 . S
O232 C225 1.247 . S
O232 Zn229 2.028 . S
O233 C225 1.258 . S
O233 Zn227 2.035 . S
O234 Zn227 2.028 1_455 S
O234 C237 1.247 . S
O235 Zn229 2.035 . S
O235 C237 1.258 1_655 S
C236 O230 1.247 . S
C236 O231 1.258 . S
C237 O234 1.247 . S
C237 O235 1.258 1_455 S
C238 O240 1.247 . S
C238 O242 1.258 . S
C239 O246 1.247 . S
C239 O247 1.258 . S
O240 C238 1.247 . S
O240 Zn241 2.028 . S
Zn241 O240 2.028 . S
Zn241 O245 2.035 . S
Zn241 O247 2.035 . S
Zn241 O248 2.028 . S
O242 C238 1.258 . S
O242 Zn243 2.035 . S
Zn243 O242 2.035 . S
Zn243 O244 2.028 . S
Zn243 O246 2.028 . S
Zn243 O249 2.035 . S
O244 Zn243 2.028 . S
O244 C250 1.247 . S
O245 Zn241 2.035 . S
O245 C250 1.258 . S
O246 C239 1.247 . S
O246 Zn243 2.028 . S
O247 C239 1.258 . S
O247 Zn241 2.035 . S
O248 Zn241 2.028 . S
O248 C251 1.247 . S
O249 Zn243 2.035 . S
O249 C251 1.258 . S
C250 O244 1.247 . S
C250 O245 1.258 . S
C251 O248 1.247 . S
C251 O249 1.258 . S
H252 C258 0.930 . S
H253 C261 0.930 . S
H254 C262 0.930 . S
H255 C263 0.930 . S
H256 C266 0.930 . S
H257 C267 0.930 . S
C258 H252 0.930 . S
C258 C259 1.355 . S
C258 C260 1.415 1_556 S
C259 C258 1.355 . S
C259 C261 1.419 . S
C260 C258 1.415 1_554 S
C260 C265 1.425 1_554 S
C260 C267 1.409 . S
C261 H253 0.930 . S
C261 C259 1.419 . S
C261 C262 1.362 . S
C262 H254 0.930 . S
C262 C261 1.362 . S
C262 C265 1.409 . S
C263 H255 0.930 . S
C263 C264 1.355 . S
C263 C265 1.415 1_554 S
C264 C263 1.355 . S
C264 C266 1.419 . S
C265 C260 1.425 1_556 S
C265 C262 1.409 . S
C265 C263 1.415 1_556 S
C266 H256 0.930 . S
C266 C264 1.419 . S
C266 C267 1.362 . S
C267 H257 0.930 . S
C267 C260 1.409 . S
C267 C266 1.362 . S
H268 C274 0.930 . S
H269 C277 0.930 . S
H270 C278 0.930 . S
H271 C279 0.930 . S
H272 C282 0.930 . S
H273 C283 0.930 . S
C274 H268 0.930 . S
C274 C275 1.355 . S
C274 C276 1.415 . S
C275 C274 1.355 . S
C275 C277 1.419 . S
C276 C274 1.415 . S
C276 C281 1.425 1_556 S
C276 C283 1.409 1_556 S
C277 H269 0.930 . S
C277 C275 1.419 . S
C277 C278 1.362 . S
C278 H270 0.930 . S
C278 C277 1.362 . S
C278 C281 1.409 1_556 S
C279 H271 0.930 . S
C279 C280 1.355 . S
C279 C281 1.415 . S
C280 C279 1.355 . S
C280 C282 1.419 . S
C281 C276 1.425 1_554 S
C281 C278 1.409 1_554 S
C281 C279 1.415 . S
C282 H272 0.930 . S
C282 C280 1.419 . S
C282 C283 1.362 . S
C283 H273 0.930 . S
C283 C276 1.409 1_554 S
C283 C282 1.362 . S
H284 C290 0.930 . S
H285 C293 0.930 . S
H286 C294 0.930 . S
H287 C295 0.930 . S
H288 C298 0.930 . S
H289 C299 0.930 . S
C290 H284 0.930 . S
C290 C291 1.355 . S
C290 C292 1.415 1_554 S
C291 C290 1.355 . S
C291 C293 1.419 . S
C292 C290 1.415 1_556 S
C292 C297 1.425 1_556 S
C292 C299 1.409 . S
C293 H285 0.930 . S
C293 C291 1.419 . S
C293 C294 1.362 . S
C294 H286 0.930 . S
C294 C293 1.362 . S
C294 C297 1.409 . S
C295 H287 0.930 . S
C295 C296 1.355 . S
C295 C297 1.415 1_556 S
C296 C295 1.355 . S
C296 C298 1.419 . S
C297 C292 1.425 1_554 S
C297 C294 1.409 . S
C297 C295 1.415 1_554 S
C298 H288 0.930 . S
C298 C296 1.419 . S
C298 C299 1.362 . S
C299 H289 0.930 . S
C299 C292 1.409 . S
C299 C298 1.362 . S
H300 C306 0.930 . S
H301 C309 0.930 . S
H302 C310 0.930 . S
H303 C311 0.930 . S
H304 C314 0.930 . S
H305 C315 0.930 . S
C306 H300 0.930 . S
C306 C307 1.355 . S
C306 C308 1.415 . S
C307 C306 1.355 . S
C307 C309 1.419 . S
C308 C306 1.415 . S
C308 C313 1.425 . S
C308 C315 1.409 . S
C309 H301 0.930 . S
C309 C307 1.419 . S
C309 C310 1.362 . S
C310 H302 0.930 . S
C310 C309 1.362 . S
C310 C313 1.409 . S
C311 H303 0.930 . S
C311 C312 1.355 . S
C311 C313 1.415 . S
C312 C311 1.355 . S
C312 C314 1.419 . S
C313 C308 1.425 . S
C313 C310 1.409 . S
C313 C311 1.415 . S
C314 H304 0.930 . S
C314 C312 1.419 . S
C314 C315 1.362 . S
C315 H305 0.930 . S
C315 C308 1.409 . S
C315 C314 1.362 . S
H316 C322 0.930 . S
H317 C325 0.930 . S
H318 C326 0.930 . S
H319 C327 0.930 . S
H320 C330 0.930 . S
H321 C331 0.930 . S
C322 H316 0.930 . S
C322 C323 1.355 . S
C322 C324 1.415 . S
C323 C322 1.355 . S
C323 C325 1.419 . S
C324 C322 1.415 . S
C324 C329 1.425 . S
C324 C331 1.409 . S
C325 H317 0.930 . S
C325 C323 1.419 . S
C325 C326 1.362 . S
C326 H318 0.930 . S
C326 C325 1.362 . S
C326 C329 1.409 . S
C327 H319 0.930 . S
C327 C328 1.355 . S
C327 C329 1.415 . S
C328 C327 1.355 . S
C328 C330 1.419 . S
C329 C324 1.425 . S
C329 C326 1.409 . S
C329 C327 1.415 . S
C330 H320 0.930 . S
C330 C328 1.419 . S
C330 C331 1.362 . S
C331 H321 0.930 . S
C331 C324 1.409 . S
C331 C330 1.362 . S
H332 C338 0.930 . S
H333 C341 0.930 . S
H334 C342 0.930 . S
H335 C343 0.930 . S
H336 C346 0.930 . S
H337 C347 0.930 . S
C338 H332 0.930 . S
C338 C339 1.355 . S
C338 C340 1.415 . S
C339 C338 1.355 . S
C339 C341 1.419 . S
C340 C338 1.415 . S
C340 C345 1.425 . S
C340 C347 1.409 . S
C341 H333 0.930 . S
C341 C339 1.419 . S
C341 C342 1.362 . S
C342 H334 0.930 . S
C342 C341 1.362 . S
C342 C345 1.409 . S
C343 H335 0.930 . S
C343 C344 1.355 . S
C343 C345 1.415 . S
C344 C343 1.355 . S
C344 C346 1.419 . S
C345 C340 1.425 . S
C345 C342 1.409 . S
C345 C343 1.415 . S
C346 H336 0.930 . S
C346 C344 1.419 . S
C346 C347 1.362 . S
C347 H337 0.930 . S
C347 C340 1.409 . S
C347 C346 1.362 . S
H348 C354 0.930 . S
H349 C357 0.930 . S
H350 C358 0.930 . S
H351 C359 0.930 . S
H352 C362 0.930 . S
H353 C363 0.930 . S
C354 H348 0.930 . S
C354 C355 1.355 . S
C354 C356 1.415 . S
C355 C354 1.355 . S
C355 C357 1.419 . S
C356 C354 1.415 . S
C356 C361 1.425 . S
C356 C363 1.409 . S
C357 H349 0.930 . S
C357 C355 1.419 . S
C357 C358 1.362 . S
C358 H350 0.930 . S
C358 C357 1.362 . S
C358 C361 1.409 . S
C359 H351 0.930 . S
C359 C360 1.355 . S
C359 C361 1.415 . S
C360 C359 1.355 . S
C360 C362 1.419 . S
C361 C356 1.425 . S
C361 C358 1.409 . S
C361 C359 1.415 . S
C362 H352 0.930 . S
C362 C360 1.419 . S
C362 C363 1.362 . S
C363 H353 0.930 . S
C363 C356 1.409 . S
C363 C362 1.362 . S
H364 C370 0.930 . S
H365 C373 0.930 . S
H366 C374 0.930 . S
H367 C375 0.930 . S
H368 C378 0.930 . S
H369 C379 0.930 . S
C370 H364 0.930 . S
C370 C371 1.355 . S
C370 C372 1.415 . S
C371 C370 1.355 . S
C371 C373 1.419 . S
C372 C370 1.415 . S
C372 C377 1.425 . S
C372 C379 1.409 . S
C373 H365 0.930 . S
C373 C371 1.419 . S
C373 C374 1.362 . S
C374 H366 0.930 . S
C374 C373 1.362 . S
C374 C377 1.409 . S
C375 H367 0.930 . S
C375 C376 1.355 . S
C375 C377 1.415 . S
C376 C375 1.355 . S
C376 C378 1.419 . S
C377 C372 1.425 . S
C377 C374 1.409 . S
C377 C375 1.415 . S
C378 H368 0.930 . S
C378 C376 1.419 . S
C378 C379 1.362 . S
C379 H369 0.930 . S
C379 C372 1.409 . S
C379 C378 1.362 . S
H380 C386 0.930 . S
H381 C389 0.930 . S
H382 C390 0.930 . S
H383 C391 0.930 . S
H384 C394 0.930 . S
H385 C395 0.930 . S
C386 H380 0.930 . S
C386 C387 1.355 . S
C386 C388 1.415 . S
C387 C386 1.355 . S
C387 C389 1.419 . S
C388 C386 1.415 . S
C388 C393 1.425 . S
C388 C395 1.409 . S
C389 H381 0.930 . S
C389 C387 1.419 . S
C389 C390 1.362 . S
C390 H382 0.930 . S
C390 C389 1.362 . S
C390 C393 1.409 . S
C391 H383 0.930 . S
C391 C392 1.355 . S
C391 C393 1.415 . S
C392 C391 1.355 . S
C392 C394 1.419 . S
C393 C388 1.425 . S
C393 C390 1.409 . S
C393 C391 1.415 . S
C394 H384 0.930 . S
C394 C392 1.419 . S
C394 C395 1.362 . S
C395 H385 0.930 . S
C395 C388 1.409 . S
C395 C394 1.362 . S
H396 C402 0.930 . S
H397 C405 0.930 1_554 S
H398 C406 0.930 . S
H399 C407 0.930 . S
H400 C410 0.930 . S
H401 C411 0.930 . S
C402 H396 0.930 . S
C402 C403 1.355 . S
C402 C404 1.415 . S
C403 C402 1.355 . S
C403 C405 1.419 . S
C404 C402 1.415 . S
C404 C409 1.425 . S
C404 C411 1.409 . S
C405 H397 0.930 1_556 S
C405 C403 1.419 . S
C405 C406 1.362 . S
C406 H398 0.930 . S
C406 C405 1.362 . S
C406 C409 1.409 . S
C407 H399 0.930 . S
C407 C408 1.355 . S
C407 C409 1.415 . S
C408 C407 1.355 . S
C408 C410 1.419 . S
C409 C404 1.425 . S
C409 C406 1.409 . S
C409 C407 1.415 . S
C410 H400 0.930 . S
C410 C408 1.419 . S
C410 C411 1.362 . S
C411 H401 0.930 . S
C411 C404 1.409 . S
C411 C410 1.362 . S
H412 C418 0.930 . S
H413 C421 0.930 . S
H414 C422 0.930 . S
H415 C423 0.930 . S
H416 C426 0.930 . S
H417 C427 0.930 . S
C418 H412 0.930 . S
C418 C419 1.355 . S
C418 C420 1.415 . S
C419 C418 1.355 . S
C419 C421 1.419 . S
C420 C418 1.415 . S
C420 C425 1.425 . S
C420 C427 1.409 . S
C421 H413 0.930 . S
C421 C419 1.419 . S
C421 C422 1.362 . S
C422 H414 0.930 . S
C422 C421 1.362 . S
C422 C425 1.409 . S
C423 H415 0.930 . S
C423 C424 1.355 . S
C423 C425 1.415 . S
C424 C423 1.355 . S
C424 C426 1.419 . S
C425 C420 1.425 . S
C425 C422 1.409 . S
C425 C423 1.415 . S
C426 H416 0.930 . S
C426 C424 1.419 . S
C426 C427 1.362 . S
C427 H417 0.930 . S
C427 C420 1.409 . S
C427 C426 1.362 . S
H428 C434 0.930 . S
H429 C437 0.930 1_554 S
H430 C438 0.930 . S
H431 C439 0.930 . S
H432 C442 0.930 . S
H433 C443 0.930 . S
C434 H428 0.930 . S
C434 C435 1.355 . S
C434 C436 1.415 . S
C435 C434 1.355 . S
C435 C437 1.419 . S
C436 C434 1.415 . S
C436 C441 1.425 . S
C436 C443 1.409 . S
C437 H429 0.930 1_556 S
C437 C435 1.419 . S
C437 C438 1.362 . S
C438 H430 0.930 . S
C438 C437 1.362 . S
C438 C441 1.409 . S
C439 H431 0.930 . S
C439 C440 1.355 . S
C439 C441 1.415 . S
C440 C439 1.355 . S
C440 C442 1.419 . S
C441 C436 1.425 . S
C441 C438 1.409 . S
C441 C439 1.415 . S
C442 H432 0.930 . S
C442 C440 1.419 . S
C442 C443 1.362 . S
C443 H433 0.930 . S
C443 C436 1.409 . S
C443 C442 1.362 . S
H444 C450 0.930 . S
H445 C453 0.930 . S
H446 C454 0.930 . S
H447 C455 0.930 . S
H448 C458 0.930 . S
H449 C459 0.930 . S
C450 H444 0.930 . S
C450 C451 1.355 . S
C450 C452 1.415 . S
C451 C450 1.355 . S
C451 C453 1.419 . S
C452 C450 1.415 . S
C452 C457 1.425 . S
C452 C459 1.409 . S
C453 H445 0.930 . S
C453 C451 1.419 . S
C453 C454 1.362 . S
C454 H446 0.930 . S
C454 C453 1.362 . S
C454 C457 1.409 . S
C455 H447 0.930 . S
C455 C456 1.355 . S
C455 C457 1.415 . S
C456 C455 1.355 . S
C456 C458 1.419 . S
C457 C452 1.425 . S
C457 C454 1.409 . S
C457 C455 1.415 . S
C458 H448 0.930 . S
C458 C456 1.419 . S
C458 C459 1.362 . S
C459 H449 0.930 . S
C459 C452 1.409 . S
C459 C458 1.362 . S
H460 C466 0.930 . S
H461 C469 0.930 . S
H462 C470 0.930 . S
H463 C471 0.930 . S
H464 C474 0.930 . S
H465 C475 0.930 . S
C466 H460 0.930 . S
C466 C467 1.355 . S
C466 C468 1.415 . S
C467 C466 1.355 . S
C467 C469 1.419 . S
C468 C466 1.415 . S
C468 C473 1.425 . S
C468 C475 1.409 . S
C469 H461 0.930 . S
C469 C467 1.419 . S
C469 C470 1.362 . S
C470 H462 0.930 . S
C470 C469 1.362 . S
C470 C473 1.409 . S
C471 H463 0.930 . S
C471 C472 1.355 . S
C471 C473 1.415 . S
C472 C471 1.355 . S
C472 C474 1.419 . S
C473 C468 1.425 . S
C473 C470 1.409 . S
C473 C471 1.415 . S
C474 H464 0.930 . S
C474 C472 1.419 . S
C474 C475 1.362 . S
C475 H465 0.930 . S
C475 C468 1.409 . S
C475 C474 1.362 . S
H476 C482 0.930 . S
H477 C485 0.930 . S
H478 C486 0.930 . S
H479 C487 0.930 . S
H480 C490 0.930 . S
H481 C491 0.930 . S
C482 H476 0.930 . S
C482 C483 1.355 . S
C482 C484 1.415 . S
C483 C482 1.355 . S
C483 C485 1.419 . S
C484 C482 1.415 . S
C484 C489 1.425 . S
C484 C491 1.409 . S
C485 H477 0.930 . S
C485 C483 1.419 . S
C485 C486 1.362 . S
C486 H478 0.930 . S
C486 C485 1.362 . S
C486 C489 1.409 . S
C487 H479 0.930 . S
C487 C488 1.355 . S
C487 C489 1.415 . S
C488 C487 1.355 . S
C488 C490 1.419 . S
C489 C484 1.425 . S
C489 C486 1.409 . S
C489 C487 1.415 . S
C490 H480 0.930 . S
C490 C488 1.419 . S
C490 C491 1.362 . S
C491 H481 0.930 . S
C491 C484 1.409 . S
C491 C490 1.362 . S
H492 C498 0.930 . S
H493 C501 0.930 . S
H494 C502 0.930 . S
H495 C503 0.930 . S
H496 C506 0.930 1_556 S
H497 C507 0.930 . S
C498 H492 0.930 . S
C498 C499 1.355 . S
C498 C500 1.415 . S
C499 C498 1.355 . S
C499 C501 1.419 . S
C500 C498 1.415 . S
C500 C505 1.425 . S
C500 C507 1.409 . S
C501 H493 0.930 . S
C501 C499 1.419 . S
C501 C502 1.362 . S
C502 H494 0.930 . S
C502 C501 1.362 . S
C502 C505 1.409 . S
C503 H495 0.930 . S
C503 C504 1.355 . S
C503 C505 1.415 . S
C504 C503 1.355 . S
C504 C506 1.419 . S
C505 C500 1.425 . S
C505 C502 1.409 . S
C505 C503 1.415 . S
C506 H496 0.930 1_554 S
C506 C504 1.419 . S
C506 C507 1.362 . S
C507 H497 0.930 . S
C507 C500 1.409 . S
C507 C506 1.362 . S
H508 C514 0.930 . S
H509 C517 0.930 . S
H510 C518 0.930 . S
H511 C519 0.930 . S
H512 C522 0.930 . S
H513 C523 0.930 . S
C514 H508 0.930 . S
C514 C515 1.355 . S
C514 C516 1.415 . S
C515 C514 1.355 . S
C515 C517 1.419 . S
C516 C514 1.415 . S
C516 C521 1.425 . S
C516 C523 1.409 . S
C517 H509 0.930 . S
C517 C515 1.419 . S
C517 C518 1.362 . S
C518 H510 0.930 . S
C518 C517 1.362 . S
C518 C521 1.409 . S
C519 H511 0.930 . S
C519 C520 1.355 . S
C519 C521 1.415 . S
C520 C519 1.355 . S
C520 C522 1.419 . S
C521 C516 1.425 . S
C521 C518 1.409 . S
C521 C519 1.415 . S
C522 H512 0.930 . S
C522 C520 1.419 . S
C522 C523 1.362 . S
C523 H513 0.930 . S
C523 C516 1.409 . S
C523 C522 1.362 . S
H524 C530 0.930 . S
H525 C533 0.930 . S
H526 C534 0.930 . S
H527 C535 0.930 . S
H528 C538 0.930 . S
H529 C539 0.930 . S
C530 H524 0.930 . S
C530 C531 1.355 . S
C530 C532 1.415 . S
C531 C530 1.355 . S
C531 C533 1.419 . S
C532 C530 1.415 . S
C532 C537 1.425 . S
C532 C539 1.409 . S
C533 H525 0.930 . S
C533 C531 1.419 . S
C533 C534 1.362 . S
C534 H526 0.930 . S
C534 C533 1.362 . S
C534 C537 1.409 . S
C535 H527 0.930 . S
C535 C536 1.355 . S
C535 C537 1.415 . S
C536 C535 1.355 . S
C536 C538 1.419 . S
C537 C532 1.425 . S
C537 C534 1.409 . S
C537 C535 1.415 . S
C538 H528 0.930 . S
C538 C536 1.419 . S
C538 C539 1.362 . S
C539 H529 0.930 . S
C539 C532 1.409 . S
C539 C538 1.362 . S
H540 C546 0.930 . S
H541 C549 0.930 . S
H542 C550 0.930 . S
H543 C551 0.930 . S
H544 C554 0.930 . S
H545 C555 0.930 . S
C546 H540 0.930 . S
C546 C547 1.355 . S
C546 C548 1.415 . S
C547 C546 1.355 . S
C547 C549 1.419 . S
C548 C546 1.415 . S
C548 C553 1.425 . S
C548 C555 1.409 . S
C549 H541 0.930 . S
C549 C547 1.419 . S
C549 C550 1.362 . S
C550 H542 0.930 . S
C550 C549 1.362 . S
C550 C553 1.409 . S
C551 H543 0.930 . S
C551 C552 1.355 . S
C551 C553 1.415 . S
C552 C551 1.355 . S
C552 C554 1.419 . S
C553 C548 1.425 . S
C553 C550 1.409 . S
C553 C551 1.415 . S
C554 H544 0.930 . S
C554 C552 1.419 . S
C554 C555 1.362 . S
C555 H545 0.930 . S
C555 C548 1.409 . S
C555 C554 1.362 . S
H556 C562 0.930 . S
H557 C565 0.930 . S
H558 C566 0.930 . S
H559 C567 0.930 . S
H560 C570 0.930 . S
H561 C571 0.930 . S
C562 H556 0.930 . S
C562 C563 1.355 . S
C562 C564 1.415 . S
C563 C562 1.355 . S
C563 C565 1.419 . S
C564 C562 1.415 . S
C564 C569 1.425 . S
C564 C571 1.409 . S
C565 H557 0.930 . S
C565 C563 1.419 . S
C565 C566 1.362 . S
C566 H558 0.930 . S
C566 C565 1.362 . S
C566 C569 1.409 . S
C567 H559 0.930 . S
C567 C568 1.355 . S
C567 C569 1.415 . S
C568 C567 1.355 . S
C568 C570 1.419 . S
C569 C564 1.425 . S
C569 C566 1.409 . S
C569 C567 1.415 . S
C570 H560 0.930 . S
C570 C568 1.419 . S
C570 C571 1.362 . S
C571 H561 0.930 . S
C571 C564 1.409 . S
C571 C570 1.362 . S
H572 C578 0.930 . S
H573 C581 0.930 . S
H574 C582 0.930 . S
H575 C583 0.930 . S
H576 C586 0.930 . S
H577 C587 0.930 . S
C578 H572 0.930 . S
C578 C579 1.355 . S
C578 C580 1.415 . S
C579 C578 1.355 . S
C579 C581 1.419 . S
C580 C578 1.415 . S
C580 C585 1.425 . S
C580 C587 1.409 . S
C581 H573 0.930 . S
C581 C579 1.419 . S
C581 C582 1.362 . S
C582 H574 0.930 . S
C582 C581 1.362 . S
C582 C585 1.409 . S
C583 H575 0.930 . S
C583 C584 1.355 . S
C583 C585 1.415 . S
C584 C583 1.355 . S
C584 C586 1.419 . S
C585 C580 1.425 . S
C585 C582 1.409 . S
C585 C583 1.415 . S
C586 H576 0.930 . S
C586 C584 1.419 . S
C586 C587 1.362 . S
C587 H577 0.930 . S
C587 C580 1.409 . S
C587 C586 1.362 . S
H588 C594 0.930 . S
H589 C597 0.930 . S
H590 C598 0.930 . S
H591 C599 0.930 . S
H592 C602 0.930 1_556 S
H593 C603 0.930 . S
C594 H588 0.930 . S
C594 C595 1.355 . S
C594 C596 1.415 . S
C595 C594 1.355 . S
C595 C597 1.419 . S
C596 C594 1.415 . S
C596 C601 1.425 . S
C596 C603 1.409 . S
C597 H589 0.930 . S
C597 C595 1.419 . S
C597 C598 1.362 . S
C598 H590 0.930 . S
C598 C597 1.362 . S
C598 C601 1.409 . S
C599 H591 0.930 . S
C599 C600 1.355 . S
C599 C601 1.415 . S
C600 C599 1.355 . S
C600 C602 1.419 . S
C601 C596 1.425 . S
C601 C598 1.409 . S
C601 C599 1.415 . S
C602 H592 0.930 1_554 S
C602 C600 1.419 . S
C602 C603 1.362 . S
C603 H593 0.930 . S
C603 C596 1.409 . S
C603 C602 1.362 . S
H604 C610 0.930 . S
H605 C613 0.930 . S
H606 C614 0.930 1_556 S
H607 C615 0.930 . S
H608 C618 0.930 . S
H609 C619 0.930 . S
C610 H604 0.930 . S
C610 C611 1.355 . S
C610 C612 1.415 . S
C611 C610 1.355 . S
C611 C613 1.419 1_554 S
C612 C610 1.415 . S
C612 C617 1.425 . S
C612 C619 1.409 . S
C613 H605 0.930 . S
C613 C611 1.419 1_556 S
C613 C614 1.362 1_556 S
C614 H606 0.930 1_554 S
C614 C613 1.362 1_554 S
C614 C617 1.409 . S
C615 H607 0.930 . S
C615 C616 1.355 . S
C615 C617 1.415 . S
C616 C615 1.355 . S
C616 C618 1.419 . S
C617 C612 1.425 . S
C617 C614 1.409 . S
C617 C615 1.415 . S
C618 H608 0.930 . S
C618 C616 1.419 . S
C618 C619 1.362 . S
C619 H609 0.930 . S
C619 C612 1.409 . S
C619 C618 1.362 . S
H620 C626 0.930 . S
H621 C629 0.930 . S
H622 C630 0.930 . S
H623 C631 0.930 . S
H624 C634 0.930 . S
H625 C635 0.930 . S
C626 H620 0.930 . S
C626 C627 1.355 . S
C626 C628 1.415 . S
C627 C626 1.355 . S
C627 C629 1.419 . S
C628 C626 1.415 . S
C628 C633 1.425 . S
C628 C635 1.409 . S
C629 H621 0.930 . S
C629 C627 1.419 . S
C629 C630 1.362 . S
C630 H622 0.930 . S
C630 C629 1.362 . S
C630 C633 1.409 . S
C631 H623 0.930 . S
C631 C632 1.355 . S
C631 C633 1.415 . S
C632 C631 1.355 . S
C632 C634 1.419 . S
C633 C628 1.425 . S
C633 C630 1.409 . S
C633 C631 1.415 . S
C634 H624 0.930 . S
C634 C632 1.419 . S
C634 C635 1.362 . S
C635 H625 0.930 . S
C635 C628 1.409 . S
C635 C634 1.362 . S
H636 C642 0.930 . S
H637 C645 0.930 1_655 S
H638 C646 0.930 . S
H639 C647 0.930 . S
H640 C650 0.930 . S
H641 C651 0.930 . S
C642 H636 0.930 . S
C642 C643 1.355 . S
C642 C644 1.415 . S
C643 C642 1.355 . S
C643 C645 1.419 . S
C644 C642 1.415 . S
C644 C649 1.425 . S
C644 C651 1.409 . S
C645 H637 0.930 1_455 S
C645 C643 1.419 . S
C645 C646 1.362 . S
C646 H638 0.930 . S
C646 C645 1.362 . S
C646 C649 1.409 . S
C647 H639 0.930 . S
C647 C648 1.355 . S
C647 C649 1.415 . S
C648 C647 1.355 . S
C648 C650 1.419 . S
C649 C644 1.425 . S
C649 C646 1.409 . S
C649 C647 1.415 . S
C650 H640 0.930 . S
C650 C648 1.419 . S
C650 C651 1.362 . S
C651 H641 0.930 . S
C651 C644 1.409 . S
C651 C650 1.362 . S
H652 C658 0.930 . S
H653 C661 0.930 . S
H654 C662 0.930 . S
H655 C663 0.930 . S
H656 C666 0.930 . S
H657 C667 0.930 . S
C658 H652 0.930 . S
C658 C659 1.355 . S
C658 C660 1.415 . S
C659 C658 1.355 . S
C659 C661 1.419 . S
C660 C658 1.415 . S
C660 C665 1.425 . S
C660 C667 1.409 . S
C661 H653 0.930 . S
C661 C659 1.419 . S
C661 C662 1.362 . S
C662 H654 0.930 . S
C662 C661 1.362 . S
C662 C665 1.409 . S
C663 H655 0.930 . S
C663 C664 1.355 . S
C663 C665 1.415 . S
C664 C663 1.355 . S
C664 C666 1.419 . S
C665 C660 1.425 . S
C665 C662 1.409 . S
C665 C663 1.415 . S
C666 H656 0.930 . S
C666 C664 1.419 . S
C666 C667 1.362 . S
C667 H657 0.930 . S
C667 C660 1.409 . S
C667 C666 1.362 . S
H668 C674 0.930 . S
H669 C677 0.930 . S
H670 C678 0.930 . S
H671 C679 0.930 . S
H672 C682 0.930 . S
H673 C683 0.930 . S
C674 H668 0.930 . S
C674 C675 1.355 . S
C674 C676 1.415 . S
C675 C674 1.355 . S
C675 C677 1.419 . S
C676 C674 1.415 . S
C676 C681 1.425 . S
C676 C683 1.409 . S
C677 H669 0.930 . S
C677 C675 1.419 . S
C677 C678 1.362 . S
C678 H670 0.930 . S
C678 C677 1.362 . S
C678 C681 1.409 . S
C679 H671 0.930 . S
C679 C680 1.355 . S
C679 C681 1.415 . S
C680 C679 1.355 . S
C680 C682 1.419 . S
C681 C676 1.425 . S
C681 C678 1.409 . S
C681 C679 1.415 . S
C682 H672 0.930 . S
C682 C680 1.419 . S
C682 C683 1.362 . S
C683 H673 0.930 . S
C683 C676 1.409 . S
C683 C682 1.362 . S
H684 C690 0.930 1_554 S
H685 C693 0.930 1_565 S
H686 C694 0.930 . S
H687 C695 0.930 . S
H688 C698 0.930 . S
H689 C699 0.930 1_554 S
C690 H684 0.930 1_556 S
C690 C691 1.355 . S
C690 C692 1.415 . S
C691 C690 1.355 . S
C691 C693 1.419 . S
C692 C690 1.415 . S
C692 C697 1.425 . S
C692 C699 1.409 . S
C693 H685 0.930 1_545 S
C693 C691 1.419 . S
C693 C694 1.362 . S
C694 H686 0.930 . S
C694 C693 1.362 . S
C694 C697 1.409 . S
C695 H687 0.930 . S
C695 C696 1.355 . S
C695 C697 1.415 . S
C696 C695 1.355 . S
C696 C698 1.419 . S
C697 C692 1.425 . S
C697 C694 1.409 . S
C697 C695 1.415 . S
C698 H688 0.930 . S
C698 C696 1.419 . S
C698 C699 1.362 . S
C699 H689 0.930 1_556 S
C699 C692 1.409 . S
C699 C698 1.362 . S
H700 C706 0.930 . S
H701 C709 0.930 . S
H702 C710 0.930 . S
H703 C711 0.930 . S
H704 C714 0.930 . S
H705 C715 0.930 . S
C706 H700 0.930 . S
C706 C707 1.355 . S
C706 C708 1.415 . S
C707 C706 1.355 . S
C707 C709 1.419 . S
C708 C706 1.415 . S
C708 C713 1.425 . S
C708 C715 1.409 1_556 S
C709 H701 0.930 . S
C709 C707 1.419 . S
C709 C710 1.362 . S
C710 H702 0.930 . S
C710 C709 1.362 . S
C710 C713 1.409 . S
C711 H703 0.930 . S
C711 C712 1.355 . S
C711 C713 1.415 . S
C712 C711 1.355 . S
C712 C714 1.419 1_556 S
C713 C708 1.425 . S
C713 C710 1.409 . S
C713 C711 1.415 . S
C714 H704 0.930 . S
C714 C712 1.419 1_554 S
C714 C715 1.362 . S
C715 H705 0.930 . S
C715 C708 1.409 1_554 S
C715 C714 1.362 . S
H716 C722 0.930 . S
H717 C725 0.930 . S
H718 C726 0.930 . S
H719 C727 0.930 . S
H720 C730 0.930 . S
H721 C731 0.930 . S
C722 H716 0.930 . S
C722 C723 1.355 . S
C722 C724 1.415 . S
C723 C722 1.355 . S
C723 C725 1.419 . S
C724 C722 1.415 . S
C724 C729 1.425 . S
C724 C731 1.409 . S
C725 H717 0.930 . S
C725 C723 1.419 . S
C725 C726 1.362 . S
C726 H718 0.930 . S
C726 C725 1.362 . S
C726 C729 1.409 . S
C727 H719 0.930 . S
C727 C728 1.355 . S
C727 C729 1.415 . S
C728 C727 1.355 . S
C728 C730 1.419 . S
C729 C724 1.425 . S
C729 C726 1.409 . S
C729 C727 1.415 . S
C730 H720 0.930 . S
C730 C728 1.419 . S
C730 C731 1.362 . S
C731 H721 0.930 . S
C731 C724 1.409 . S
C731 C730 1.362 . S
H732 C738 0.930 . S
H733 C741 0.930 . S
H734 C742 0.930 . S
H735 C743 0.930 . S
H736 C746 0.930 . S
H737 C747 0.930 . S
C738 H732 0.930 . S
C738 C739 1.355 . S
C738 C740 1.415 . S
C739 C738 1.355 . S
C739 C741 1.419 . S
C740 C738 1.415 . S
C740 C745 1.425 . S
C740 C747 1.409 . S
C741 H733 0.930 . S
C741 C739 1.419 . S
C741 C742 1.362 . S
C742 H734 0.930 . S
C742 C741 1.362 . S
C742 C745 1.409 . S
C743 H735 0.930 . S
C743 C744 1.355 . S
C743 C745 1.415 . S
C744 C743 1.355 . S
C744 C746 1.419 . S
C745 C740 1.425 . S
C745 C742 1.409 . S
C745 C743 1.415 . S
C746 H736 0.930 . S
C746 C744 1.419 . S
C746 C747 1.362 . S
C747 H737 0.930 . S
C747 C740 1.409 . S
C747 C746 1.362 . S
H748 C754 0.930 . S
H749 C757 0.930 . S
H750 C758 0.930 . S
H751 C759 0.930 . S
H752 C762 0.930 . S
H753 C763 0.930 . S
C754 H748 0.930 . S
C754 C755 1.355 . S
C754 C756 1.415 . S
C755 C754 1.355 . S
C755 C757 1.419 . S
C756 C754 1.415 . S
C756 C761 1.425 . S
C756 C763 1.409 . S
C757 H749 0.930 . S
C757 C755 1.419 . S
C757 C758 1.362 . S
C758 H750 0.930 . S
C758 C757 1.362 . S
C758 C761 1.409 . S
C759 H751 0.930 . S
C759 C760 1.355 . S
C759 C761 1.415 . S
C760 C759 1.355 . S
C760 C762 1.419 . S
C761 C756 1.425 . S
C761 C758 1.409 . S
C761 C759 1.415 . S
C762 H752 0.930 . S
C762 C760 1.419 . S
C762 C763 1.362 . S
C763 H753 0.930 . S
C763 C756 1.409 . S
C763 C762 1.362 . S
H764 C770 0.930 . S
H765 C773 0.930 . S
H766 C774 0.930 . S
H767 C775 0.930 . S
H768 C778 0.930 . S
H769 C779 0.930 . S
C770 H764 0.930 . S
C770 C771 1.355 . S
C770 C772 1.415 . S
C771 C770 1.355 . S
C771 C773 1.419 . S
C772 C770 1.415 . S
C772 C777 1.425 . S
C772 C779 1.409 . S
C773 H765 0.930 . S
C773 C771 1.419 . S
C773 C774 1.362 . S
C774 H766 0.930 . S
C774 C773 1.362 . S
C774 C777 1.409 . S
C775 H767 0.930 . S
C775 C776 1.355 . S
C775 C777 1.415 . S
C776 C775 1.355 . S
C776 C778 1.419 . S
C777 C772 1.425 . S
C777 C774 1.409 . S
C777 C775 1.415 . S
C778 H768 0.930 . S
C778 C776 1.419 . S
C778 C779 1.362 . S
C779 H769 0.930 . S
C779 C772 1.409 . S
C779 C778 1.362 . S
H780 C786 0.930 . S
H781 C789 0.930 . S
H782 C790 0.930 . S
H783 C791 0.930 . S
H784 C794 0.930 . S
H785 C795 0.930 . S
C786 H780 0.930 . S
C786 C787 1.355 . S
C786 C788 1.415 . S
C787 C786 1.355 . S
C787 C789 1.419 . S
C788 C786 1.415 . S
C788 C793 1.425 . S
C788 C795 1.409 . S
C789 H781 0.930 . S
C789 C787 1.419 . S
C789 C790 1.362 . S
C790 H782 0.930 . S
C790 C789 1.362 . S
C790 C793 1.409 . S
C791 H783 0.930 . S
C791 C792 1.355 . S
C791 C793 1.415 . S
C792 C791 1.355 . S
C792 C794 1.419 . S
C793 C788 1.425 . S
C793 C790 1.409 . S
C793 C791 1.415 . S
C794 H784 0.930 . S
C794 C792 1.419 . S
C794 C795 1.362 . S
C795 H785 0.930 . S
C795 C788 1.409 . S
C795 C794 1.362 . S
H796 C802 0.930 . S
H797 C805 0.930 . S
H798 C806 0.930 . S
H799 C807 0.930 . S
H800 C810 0.930 . S
H801 C811 0.930 . S
C802 H796 0.930 . S
C802 C803 1.355 . S
C802 C804 1.415 . S
C803 C802 1.355 . S
C803 C805 1.419 . S
C804 C802 1.415 . S
C804 C809 1.425 . S
C804 C811 1.409 . S
C805 H797 0.930 . S
C805 C803 1.419 . S
C805 C806 1.362 . S
C806 H798 0.930 . S
C806 C805 1.362 . S
C806 C809 1.409 . S
C807 H799 0.930 . S
C807 C808 1.355 . S
C807 C809 1.415 . S
C808 C807 1.355 . S
C808 C810 1.419 . S
C809 C804 1.425 . S
C809 C806 1.409 . S
C809 C807 1.415 . S
C810 H800 0.930 . S
C810 C808 1.419 . S
C810 C811 1.362 . S
C811 H801 0.930 . S
C811 C804 1.409 . S
C811 C810 1.362 . S
H812 C818 0.930 . S
H813 C821 0.930 . S
H814 C822 0.930 . S
H815 C823 0.930 . S
H816 C826 0.930 . S
H817 C827 0.930 . S
C818 H812 0.930 . S
C818 C819 1.355 . S
C818 C820 1.415 . S
C819 C818 1.355 . S
C819 C821 1.419 . S
C820 C818 1.415 . S
C820 C825 1.425 . S
C820 C827 1.409 . S
C821 H813 0.930 . S
C821 C819 1.419 . S
C821 C822 1.362 . S
C822 H814 0.930 . S
C822 C821 1.362 . S
C822 C825 1.409 . S
C823 H815 0.930 . S
C823 C824 1.355 . S
C823 C825 1.415 . S
C824 C823 1.355 . S
C824 C826 1.419 . S
C825 C820 1.425 . S
C825 C822 1.409 . S
C825 C823 1.415 . S
C826 H816 0.930 . S
C826 C824 1.419 . S
C826 C827 1.362 . S
C827 H817 0.930 . S
C827 C820 1.409 . S
C827 C826 1.362 . S
C259 C43 1.829 . S
C264 C13 1.832 . S
C275 C68 1.815 . S
C280 C15 1.815 . S
C291 C29 1.838 . S
C296 C83 1.835 . S
C307 C40 1.810 . S
C312 C70 1.813 . S
C323 C0 1.838 . S
C328 C54 1.841 . S
C339 C57 1.810 . S
C344 C26 1.810 . S
C355 C138 1.837 . S
C360 C97 1.837 . S
C371 C99 1.865 . S
C376 C152 1.865 . S
C387 C124 1.859 . S
C392 C155 1.859 . S
C403 C166 1.833 . S
C408 C113 1.833 . S
C419 C127 1.861 . S
C424 C84 1.861 . S
C435 C141 1.828 . S
C440 C110 1.828 . S
C451 C181 1.839 . S
C456 C211 1.837 . S
C467 C183 1.843 . S
C472 C236 1.843 . S
C483 C197 1.840 . S
C488 C239 1.837 . S
C499 C250 1.844 . S
C504 C208 1.841 . S
C515 C222 1.822 . S
C520 C168 1.819 . S
C531 C225 1.856 . S
C536 C194 1.856 . S
C547 C12 1.633 . S
C552 C111 1.606 . S
C563 C14 1.620 . S
C568 C112 1.597 . S
C579 C85 1.610 . S
C584 C28 1.596 . S
C595 C41 1.630 . S
C600 C182 1.600 . S
C611 C196 1.621 . S
C616 C1 1.599 . S
C627 C180 1.639 . S
C632 C27 1.616 . S
C643 C224 1.604 . S
C648 C42 1.632 . S
C659 C69 1.632 . S
C664 C251 1.603 . S
C675 C223 1.639 . S
C680 C82 1.623 . S
C691 C153 1.632 . S
C696 C71 1.635 . S
C707 C55 1.602 . S
C712 C154 1.603 . S
C723 C56 1.618 . S
C728 C139 1.639 . S
C739 C96 1.608 . S
C744 C195 1.637 . S
C755 C98 1.640 . S
C760 C209 1.619 . S
C771 C125 1.630 . S
C776 C169 1.639 . S
C787 C237 1.609 . S
C792 C167 1.597 . S
C803 C238 1.640 . S
C808 C126 1.618 . S
C819 C140 1.599 . S
C824 C210 1.613 . S
