# Generated by pormake.
# Topology whz, (6)-cn, num edge types: 1
# Building blocks:
#     Node 0, Type 0, BuildingBlock: MIFKUJ_clean_sbu_0, # of connection points: 6
#     Node 1, Type 0, BuildingBlock: MIFKUJ_clean_sbu_0, # of connection points: 6
#     Node 2, Type 0, BuildingBlock: MIFKUJ_clean_sbu_0, # of connection points: 6
#     Node 3, Type 0, BuildingBlock: MIFKUJ_clean_sbu_0, # of connection points: 6
#     Node 4, Type 0, BuildingBlock: MIFKUJ_clean_sbu_0, # of connection points: 6
#     Node 5, Type 0, BuildingBlock: MIFKUJ_clean_sbu_0, # of connection points: 6
#     Node 6, Type 0, BuildingBlock: MIFKUJ_clean_sbu_0, # of connection points: 6
#     Node 7, Type 0, BuildingBlock: MIFKUJ_clean_sbu_0, # of connection points: 6
#     Node 8, Type 0, BuildingBlock: MIFKUJ_clean_sbu_0, # of connection points: 6
#     Node 9, Type 0, BuildingBlock: MIFKUJ_clean_sbu_0, # of connection points: 6
#     Node 10, Type 0, BuildingBlock: MIFKUJ_clean_sbu_0, # of connection points: 6
#     Node 11, Type 0, BuildingBlock: MIFKUJ_clean_sbu_0, # of connection points: 6
#     Node 12, Type 0, BuildingBlock: MIFKUJ_clean_sbu_0, # of connection points: 6
#     Node 13, Type 0, BuildingBlock: MIFKUJ_clean_sbu_0, # of connection points: 6
#     Node 14, Type 0, BuildingBlock: MIFKUJ_clean_sbu_0, # of connection points: 6
#     Node 15, Type 0, BuildingBlock: MIFKUJ_clean_sbu_0, # of connection points: 6
#     Edge 16, Type (0, 0), BuildingBlock: AJUNOK_clean_linker_0, # of connection points: 2
#     Edge 17, Type (0, 0), BuildingBlock: AJUNOK_clean_linker_0, # of connection points: 2
#     Edge 18, Type (0, 0), BuildingBlock: AJUNOK_clean_linker_0, # of connection points: 2
#     Edge 19, Type (0, 0), BuildingBlock: AJUNOK_clean_linker_0, # of connection points: 2
#     Edge 20, Type (0, 0), BuildingBlock: AJUNOK_clean_linker_0, # of connection points: 2
#     Edge 21, Type (0, 0), BuildingBlock: AJUNOK_clean_linker_0, # of connection points: 2
#     Edge 22, Type (0, 0), BuildingBlock: AJUNOK_clean_linker_0, # of connection points: 2
#     Edge 23, Type (0, 0), BuildingBlock: AJUNOK_clean_linker_0, # of connection points: 2
#     Edge 24, Type (0, 0), BuildingBlock: AJUNOK_clean_linker_0, # of connection points: 2
#     Edge 25, Type (0, 0), BuildingBlock: AJUNOK_clean_linker_0, # of connection points: 2
#     Edge 26, Type (0, 0), BuildingBlock: AJUNOK_clean_linker_0, # of connection points: 2
#     Edge 27, Type (0, 0), BuildingBlock: AJUNOK_clean_linker_0, # of connection points: 2
#     Edge 28, Type (0, 0), BuildingBlock: AJUNOK_clean_linker_0, # of connection points: 2
#     Edge 29, Type (0, 0), BuildingBlock: AJUNOK_clean_linker_0, # of connection points: 2
#     Edge 30, Type (0, 0), BuildingBlock: AJUNOK_clean_linker_0, # of connection points: 2
#     Edge 31, Type (0, 0), BuildingBlock: AJUNOK_clean_linker_0, # of connection points: 2
#     Edge 32, Type (0, 0), BuildingBlock: AJUNOK_clean_linker_0, # of connection points: 2
#     Edge 33, Type (0, 0), BuildingBlock: AJUNOK_clean_linker_0, # of connection points: 2
#     Edge 34, Type (0, 0), BuildingBlock: AJUNOK_clean_linker_0, # of connection points: 2
#     Edge 35, Type (0, 0), BuildingBlock: AJUNOK_clean_linker_0, # of connection points: 2
#     Edge 36, Type (0, 0), BuildingBlock: AJUNOK_clean_linker_0, # of connection points: 2
#     Edge 37, Type (0, 0), BuildingBlock: AJUNOK_clean_linker_0, # of connection points: 2
#     Edge 38, Type (0, 0), BuildingBlock: AJUNOK_clean_linker_0, # of connection points: 2
#     Edge 39, Type (0, 0), BuildingBlock: AJUNOK_clean_linker_0, # of connection points: 2
#     Edge 40, Type (0, 0), BuildingBlock: AJUNOK_clean_linker_0, # of connection points: 2
#     Edge 41, Type (0, 0), BuildingBlock: AJUNOK_clean_linker_0, # of connection points: 2
#     Edge 42, Type (0, 0), BuildingBlock: AJUNOK_clean_linker_0, # of connection points: 2
#     Edge 43, Type (0, 0), BuildingBlock: AJUNOK_clean_linker_0, # of connection points: 2
#     Edge 44, Type (0, 0), BuildingBlock: AJUNOK_clean_linker_0, # of connection points: 2
#     Edge 45, Type (0, 0), BuildingBlock: AJUNOK_clean_linker_0, # of connection points: 2
#     Edge 46, Type (0, 0), BuildingBlock: AJUNOK_clean_linker_0, # of connection points: 2
#     Edge 47, Type (0, 0), BuildingBlock: AJUNOK_clean_linker_0, # of connection points: 2
#     Edge 48, Type (0, 0), BuildingBlock: AJUNOK_clean_linker_0, # of connection points: 2
#     Edge 49, Type (0, 0), BuildingBlock: AJUNOK_clean_linker_0, # of connection points: 2
#     Edge 50, Type (0, 0), BuildingBlock: AJUNOK_clean_linker_0, # of connection points: 2
#     Edge 51, Type (0, 0), BuildingBlock: AJUNOK_clean_linker_0, # of connection points: 2
#     Edge 52, Type (0, 0), BuildingBlock: AJUNOK_clean_linker_0, # of connection points: 2
#     Edge 53, Type (0, 0), BuildingBlock: AJUNOK_clean_linker_0, # of connection points: 2
#     Edge 54, Type (0, 0), BuildingBlock: AJUNOK_clean_linker_0, # of connection points: 2
#     Edge 55, Type (0, 0), BuildingBlock: AJUNOK_clean_linker_0, # of connection points: 2
#     Edge 56, Type (0, 0), BuildingBlock: AJUNOK_clean_linker_0, # of connection points: 2
#     Edge 57, Type (0, 0), BuildingBlock: AJUNOK_clean_linker_0, # of connection points: 2
#     Edge 58, Type (0, 0), BuildingBlock: AJUNOK_clean_linker_0, # of connection points: 2
#     Edge 59, Type (0, 0), BuildingBlock: AJUNOK_clean_linker_0, # of connection points: 2
#     Edge 60, Type (0, 0), BuildingBlock: AJUNOK_clean_linker_0, # of connection points: 2
#     Edge 61, Type (0, 0), BuildingBlock: AJUNOK_clean_linker_0, # of connection points: 2
#     Edge 62, Type (0, 0), BuildingBlock: AJUNOK_clean_linker_0, # of connection points: 2
#     Edge 63, Type (0, 0), BuildingBlock: AJUNOK_clean_linker_0, # of connection points: 2
# Relax obj value: 0.393
# Max RMSD: 0.248
# Mean RMSD: 0.248
data_MOF--net-whz--node1-MIFKUJ_clean_sbu_0--edge1-AJUNOK_clean_linker_0
_symmetry_space_group_name_H-M    P1
_symmetry_Int_Tables_number       1
_symmetry_cell_setting            triclinic
loop_
_symmetry_equiv_pos_as_xyz
'x, y, z'
_cell_length_a     28.318296
_cell_length_b     28.398116
_cell_length_c     41.847679
_cell_angle_alpha  89.845896
_cell_angle_beta   90.216396
_cell_angle_gamma 90.174914
loop_
_atom_site_label
_atom_site_type_symbol
_atom_site_fract_x
_atom_site_fract_y
_atom_site_fract_z
_atom_type_partial_charge
Zn0 Zn 0.21557 0.07396 0.13677 0.0
Zn1 Zn 0.3245 0.15597 0.1736 0.0
C2 C 0.13594 0.01638 0.1618 0.0
O3 O 0.16757 0.98537 0.17093 0.0
C4 C 0.39927 0.22457 0.16443 0.0
O5 O 0.37259 0.25082 0.18271 0.0
O6 O 0.2308 0.03788 0.09706 0.0
O7 O 0.20513 0.14242 0.1233 0.0
O8 O 0.27371 0.148 0.1433 0.0
C9 C 0.25097 0.05577 0.07277 0.0
O10 O 0.2744 0.09547 0.07581 0.0
O11 O 0.14945 0.05408 0.14815 0.0
C12 C 0.29119 0.17785 0.23678 0.0
O13 O 0.30162 0.13396 0.24343 0.0
O14 O 0.30003 0.19484 0.20941 0.0
O15 O 0.32969 0.09023 0.19028 0.0
O16 O 0.26076 0.05693 0.17535 0.0
O17 O 0.38609 0.18292 0.15727 0.0
C18 C 0.23842 0.16907 0.13173 0.0
C19 C 0.29775 0.05849 0.19325 0.0
Zn20 Zn 0.66126 0.46226 0.38879 0.0
Zn21 Zn 0.60184 0.57397 0.4316 0.0
C22 C 0.70844 0.37501 0.40479 0.0
O23 O 0.74359 0.40395 0.41087 0.0
C24 C 0.53644 0.65042 0.43042 0.0
O25 O 0.50722 0.61487 0.42659 0.0
O26 O 0.69259 0.47283 0.34596 0.0
O27 O 0.58935 0.47413 0.38396 0.0
O28 O 0.55959 0.54261 0.40092 0.0
C29 C 0.67501 0.49573 0.3226 0.0
O30 O 0.63919 0.52393 0.32767 0.0
O31 O 0.66904 0.39202 0.39565 0.0
C32 C 0.56084 0.55283 0.49339 0.0
O33 O 0.54831 0.59725 0.49364 0.0
O34 O 0.58672 0.53756 0.47113 0.0
O35 O 0.66682 0.56102 0.41759 0.0
O36 O 0.69445 0.49137 0.42706 0.0
O37 O 0.58048 0.64229 0.43385 0.0
C38 C 0.55541 0.50357 0.38645 0.0
C39 C 0.68988 0.53375 0.43583 0.0
Zn40 Zn 0.27249 0.91352 0.64078 0.0
Zn41 Zn 0.1685 0.83142 0.66972 0.0
C42 C 0.35796 0.9565 0.66689 0.0
O43 O 0.3287 0.98555 0.68096 0.0
C44 C 0.08774 0.7772 0.66125 0.0
O45 O 0.12165 0.7504 0.65018 0.0
O46 O 0.2575 0.93646 0.59557 0.0
O47 O 0.26964 0.84049 0.64373 0.0
O48 O 0.19826 0.82011 0.62776 0.0
C49 C 0.2651 0.90727 0.57316 0.0
O50 O 0.27963 0.86483 0.58067 0.0
O51 O 0.34174 0.9254 0.64801 0.0
C52 C 0.18602 0.75948 0.71973 0.0
O53 O 0.14104 0.7483 0.71982 0.0
O54 O 0.2017 0.79109 0.70123 0.0
O55 O 0.19123 0.89268 0.68307 0.0
O56 O 0.23889 0.95127 0.67593 0.0
O57 O 0.09848 0.81815 0.67121 0.0
C58 C 0.2406 0.80897 0.63417 0.0
C59 C 0.20586 0.93244 0.69186 0.0
Zn60 Zn 0.8124 0.51459 0.88674 0.0
Zn61 Zn 0.89573 0.41591 0.93104 0.0
C62 C 0.76823 0.60044 0.90943 0.0
O63 O 0.73516 0.57136 0.91921 0.0
C64 C 0.9503 0.33552 0.9282 0.0
O65 O 0.98088 0.36968 0.9234 0.0
O66 O 0.78813 0.50551 0.84097 0.0
O67 O 0.88747 0.50863 0.88748 0.0
O68 O 0.92763 0.44122 0.89314 0.0
C69 C 0.81795 0.49673 0.81912 0.0
O70 O 0.86158 0.48679 0.82719 0.0
O71 O 0.80377 0.58396 0.89482 0.0
C72 C 0.95631 0.43344 0.98724 0.0
O73 O 0.96475 0.38806 0.98811 0.0
O74 O 0.92783 0.45039 0.96685 0.0
O75 O 0.83297 0.44119 0.92392 0.0
O76 O 0.77039 0.48181 0.92162 0.0
O77 O 0.90701 0.34591 0.93228 0.0
C78 C 0.92626 0.48518 0.88751 0.0
C79 C 0.79418 0.45156 0.93672 0.0
Zn80 Zn 0.65958 0.85226 0.8685 0.0
Zn81 Zn 0.77694 0.90621 0.91547 0.0
C82 C 0.58612 0.7846 0.87653 0.0
O83 O 0.62297 0.75698 0.87353 0.0
C84 C 0.86053 0.95851 0.90344 0.0
O85 O 0.82947 -0.00729 0.90191 0.0
O86 O 0.68105 0.84232 0.8235 0.0
O87 O 0.67736 0.91557 0.88425 0.0
O88 O 0.74912 0.94113 0.87771 0.0
C89 C 0.66115 0.81332 0.80477 0.0
O90 O 0.61877 0.79754 0.81141 0.0
O91 O 0.59222 0.82917 0.87529 0.0
C92 C 0.75594 0.90484 0.98242 0.0
O93 O 0.75189 0.85979 0.97603 0.0
O94 O 0.76259 0.9334 0.95936 0.0
O95 O 0.76757 0.83402 0.91495 0.0
O96 O 0.7007 0.80787 0.89225 0.0
O97 O 0.8464 0.91703 0.9099 0.0
C98 C 0.70715 0.93799 0.86744 0.0
C99 C 0.73877 0.80098 0.90766 0.0
Zn100 Zn 0.38921 0.40777 0.61385 0.0
Zn101 Zn 0.3204 0.51968 0.66636 0.0
C102 C 0.44938 0.33131 0.63203 0.0
O103 O 0.47808 0.36691 0.63702 0.0
C104 C 0.27598 0.60775 0.64794 0.0
O105 O 0.24385 0.5789 0.63646 0.0
O106 O 0.40766 0.42888 0.56965 0.0
O107 O 0.33007 0.4336 0.63051 0.0
O108 O 0.27973 0.49016 0.63039 0.0
C109 C 0.44772 0.41545 0.55954 0.0
O110 O 0.46887 0.37995 0.57347 0.0
O111 O 0.40703 0.33935 0.62294 0.0
C112 C 0.32609 0.52521 0.73239 0.0
O113 O 0.36118 0.55089 0.72147 0.0
O114 O 0.29919 0.50497 0.7121 0.0
O115 O 0.39312 0.50577 0.66434 0.0
O116 O 0.43154 0.4471 0.63962 0.0
O117 O 0.31239 0.59064 0.66156 0.0
C118 C 0.2961 0.45409 0.61671 0.0
C119 C 0.431 0.4836 0.65712 0.0
Zn120 Zn 0.81659 0.1517 0.38518 0.0
Zn121 Zn 0.71074 0.07364 0.41562 0.0
C122 C 0.89539 0.21514 0.38222 0.0
O123 O 0.86264 0.24412 0.37193 0.0
C124 C 0.62915 0.01663 0.39463 0.0
O125 O 0.66049 0.98918 0.38114 0.0
O126 O 0.7842 0.19302 0.35373 0.0
O127 O 0.81265 0.08842 0.36354 0.0
O128 O 0.74789 0.04752 0.37716 0.0
C129 C 0.79461 0.19537 0.32427 0.0
O130 O 0.83202 0.17311 0.31371 0.0
O131 O 0.88397 0.17352 0.39053 0.0
C132 C 0.70321 0.07407 0.48171 0.0
O133 O 0.67133 0.10385 0.47112 0.0
O134 O 0.72949 0.0538 0.46122 0.0
O135 O 0.7053 0.14374 0.41396 0.0
O136 O 0.77937 0.15632 0.4253 0.0
O137 O 0.6432 0.05254 0.41007 0.0
C138 C 0.78482 0.0534 0.36008 0.0
C139 C 0.73818 0.17249 0.42042 0.0
Zn140 Zn 0.09383 0.56837 0.13116 0.0
Zn141 Zn 0.14569 0.451 0.16376 0.0
C142 C 0.03095 0.64418 0.13405 0.0
O143 O 0.00308 0.60897 0.12621 0.0
C144 C 0.20341 0.36839 0.15376 0.0
O145 O 0.23834 0.39826 0.1582 0.0
O146 O 0.06712 0.55156 0.08883 0.0
O147 O 0.1644 0.55723 0.13142 0.0
O148 O 0.17235 0.48123 0.12351 0.0
C149 C 0.07532 0.55755 0.05942 0.0
O150 O 0.11322 0.58007 0.04981 0.0
O151 O 0.07466 0.63592 0.1387 0.0
C152 C 0.15356 0.47865 0.23082 0.0
O153 O 0.10783 0.48347 0.22697 0.0
O154 O 0.17833 0.46774 0.20656 0.0
O155 O 0.07348 0.45376 0.16727 0.0
O156 O 0.05118 0.52742 0.15714 0.0
O157 O 0.16103 0.38271 0.15623 0.0
C158 C 0.18033 0.52339 0.11483 0.0
C159 C 0.04202 0.48584 0.16662 0.0
Zn160 Zn 0.71301 0.5658 0.63806 0.0
Zn161 Zn 0.81746 0.64547 0.68838 0.0
C162 C 0.62804 0.52236 0.66084 0.0
O163 O 0.65754 0.48784 0.66687 0.0
C164 C 0.89654 0.70523 0.67466 0.0
O165 O 0.86228 0.73584 0.67104 0.0
O166 O 0.72179 0.54453 0.59229 0.0
O167 O 0.7275 0.63765 0.64022 0.0
O168 O 0.78043 0.68758 0.66082 0.0
C169 C 0.69929 0.57069 0.5728 0.0
O170 O 0.67412 0.60543 0.58437 0.0
O171 O 0.64373 0.55968 0.64784 0.0
C172 C 0.80249 0.7019 0.74276 0.0
O173 O 0.84095 0.72286 0.73271 0.0
O174 O 0.791 0.66223 0.7312 0.0
O175 O 0.79332 0.58418 0.67365 0.0
O176 O 0.74733 0.52433 0.67115 0.0
O177 O 0.88676 0.66255 0.68169 0.0
C178 C 0.74352 0.67936 0.64441 0.0
C179 C 0.7793 0.54611 0.68628 0.0
Zn180 Zn 0.1594 0.95998 0.88692 0.0
Zn181 Zn 0.07377 0.06114 0.92086 0.0
C182 C 0.19554 0.87053 0.9151 0.0
O183 O 0.20893 0.89524 0.94006 0.0
C184 C 0.01285 0.1412 0.92134 0.0
O185 O 0.98084 0.10768 0.92171 0.0
O186 O 0.18883 0.97805 0.84412 0.0
O187 O 0.08839 0.95602 0.88387 0.0
O188 O 0.07723 0.03144 0.87892 0.0
C189 C 0.16409 -0.00702 0.82078 0.0
O190 O 0.12013 0.00481 0.82568 0.0
O191 O 0.1763 0.89137 0.89153 0.0
C192 C 0.01639 0.04227 0.97512 0.0
O193 O 0.03068 0.08463 0.98327 0.0
O194 O 0.02817 0.02569 0.94821 0.0
O195 O 0.13431 0.05003 0.94362 0.0
O196 O 0.1842 -0.006 0.92728 0.0
O197 O 0.05625 0.13 0.91991 0.0
C198 C 0.0603 -0.00986 0.87966 0.0
C199 C 0.17234 0.02663 0.94666 0.0
Zn200 Zn 0.75502 0.39961 0.13681 0.0
Zn201 Zn 0.66816 0.31442 0.18096 0.0
C202 C 0.83958 0.45194 0.15888 0.0
O203 O 0.81013 0.48667 0.16426 0.0
C204 C 0.59223 0.28669 0.14813 0.0
O205 O 0.62357 0.25304 0.14556 0.0
O206 O 0.74146 0.42693 0.09192 0.0
O207 O 0.75729 0.32808 0.13035 0.0
O208 O 0.70831 0.27827 0.15416 0.0
C209 C 0.76597 0.40516 0.07118 0.0
O210 O 0.79376 0.37114 0.08103 0.0
O211 O 0.82371 0.41377 0.14719 0.0
C212 C 0.64284 0.24318 0.23815 0.0
O213 O 0.60314 0.22165 0.24537 0.0
O214 O 0.64334 0.26961 0.21376 0.0
O215 O 0.70889 0.36345 0.20086 0.0
O216 O 0.71536 0.42909 0.17366 0.0
O217 O 0.60585 0.32675 0.15866 0.0
C218 C 0.74166 0.28676 0.13525 0.0
C219 C 0.70233 0.40729 0.19886 0.0
Zn220 Zn 0.32843 0.022 0.38847 0.0
Zn221 Zn 0.39308 0.91521 0.4152 0.0
C222 C 0.28119 0.10652 0.41213 0.0
O223 O 0.26026 0.07672 0.4315 0.0
C224 C 0.46327 0.8416 0.42181 0.0
O225 O 0.49084 0.87791 0.42751 0.0
O226 O 0.30419 -0.00158 0.34494 0.0
O227 O 0.39943 0.02272 0.38951 0.0
O228 O 0.4072 0.94944 0.37465 0.0
C229 C 0.33033 0.0126 0.32213 0.0
O230 O 0.36788 0.0378 0.32914 0.0
O231 O 0.30994 0.09096 0.39142 0.0
C232 C 0.43379 0.93574 0.47725 0.0
O233 O 0.41937 0.89327 0.48507 0.0
O234 O 0.42615 0.95169 0.44939 0.0
O235 O 0.32461 0.91343 0.42825 0.0
O236 O 0.3036 0.98879 0.42838 0.0
O237 O 0.42012 0.84875 0.41465 0.0
C238 C 0.42577 0.98934 0.38032 0.0
C239 C 0.30208 0.94764 0.44058 0.0
Zn240 Zn 0.17031 0.33302 0.38429 0.0
Zn241 Zn 0.27977 0.40689 0.41384 0.0
C242 C 0.08953 0.27796 0.39363 0.0
O243 O 0.12227 0.24741 0.40167 0.0
C244 C 0.35819 0.45944 0.38919 0.0
O245 O 0.32535 0.49099 0.38359 0.0
O246 O 0.19357 0.2853 0.35387 0.0
O247 O 0.18186 0.39413 0.3619 0.0
O248 O 0.24385 0.43767 0.3763 0.0
C249 C 0.18779 0.29286 0.32427 0.0
O250 O 0.1662 0.33109 0.31442 0.0
O251 O 0.10136 0.32006 0.38719 0.0
C252 C 0.25595 0.41055 0.48326 0.0
O253 O 0.23792 0.3687 0.47808 0.0
O254 O 0.27169 0.43411 0.45953 0.0
O255 O 0.27989 0.33576 0.41332 0.0
O256 O 0.20545 0.32351 0.42509 0.0
O257 O 0.34689 0.42119 0.40297 0.0
C258 C 0.20788 0.43023 0.35858 0.0
C259 C 0.24685 0.30774 0.42092 0.0
Zn260 Zn 0.89382 0.91292 0.13767 0.0
Zn261 Zn 0.83579 0.01995 0.16389 0.0
C262 C 0.96172 0.83696 0.14032 0.0
O263 O -0.00775 0.87144 0.14396 0.0
C264 C 0.78949 0.09842 0.13499 0.0
O265 O 0.76049 0.06569 0.12459 0.0
O266 O 0.92294 0.94857 0.10135 0.0
O267 O 0.82408 0.91032 0.1281 0.0
O268 O 0.80977 0.98641 0.12515 0.0
C269 C 0.93503 0.92816 0.07573 0.0
O270 O 0.92869 0.88253 0.07298 0.0
O271 O 0.91812 0.84657 0.13748 0.0
C272 C 0.83282 0.00586 0.23225 0.0
O273 O 0.87793 0.01446 0.22826 0.0
O274 O 0.80598 0.00493 0.20772 0.0
O275 O 0.90633 0.01865 0.16443 0.0
O276 O 0.91566 0.94466 0.17785 0.0
O277 O 0.82256 0.0872 0.15408 0.0
C278 C 0.80451 0.94509 0.11429 0.0
C279 C 0.93314 0.98532 0.17314 0.0
Zn280 Zn 0.3255 0.6311 0.86843 0.0
Zn281 Zn 0.21279 0.56305 0.91514 0.0
C282 C 0.39935 0.69733 0.88245 0.0
O283 O 0.36178 0.72342 0.88685 0.0
C284 C 0.11954 0.5525 0.88459 0.0
O285 O 0.14183 0.56215 0.85789 0.0
O286 O 0.30423 0.63993 0.82315 0.0
O287 O 0.30507 0.56952 0.88559 0.0
O288 O 0.24341 0.52572 0.8788 0.0
C289 C 0.31772 0.6764 0.80817 0.0
O290 O 0.35162 0.70243 0.82031 0.0
O291 O 0.39361 0.65398 0.87526 0.0
C292 C 0.22354 0.56844 0.98285 0.0
O293 O 0.21345 0.61223 0.97551 0.0
O294 O 0.22798 0.53878 0.96027 0.0
O295 O 0.22159 0.63609 0.91262 0.0
O296 O 0.28283 0.67473 0.8908 0.0
O297 O 0.14274 0.55141 0.91069 0.0
C298 C 0.2831 0.53973 0.86853 0.0
C299 C 0.24399 0.67408 0.90585 0.0
Zn300 Zn 0.59667 0.06947 0.61919 0.0
Zn301 Zn 0.66443 0.95745 0.6647 0.0
C302 C 0.53093 0.14355 0.62874 0.0
O303 O 0.50382 0.10622 0.63151 0.0
C304 C 0.68308 0.86893 0.63112 0.0
O305 O 0.69281 0.89625 0.60665 0.0
O306 O 0.5786 0.03788 0.5779 0.0
O307 O 0.65993 0.05158 0.63476 0.0
O308 O 0.70218 0.98934 0.62846 0.0
C309 C 0.54584 0.05451 0.56048 0.0
O310 O 0.53073 0.09735 0.56593 0.0
O311 O 0.57475 0.13777 0.6227 0.0
C312 C 0.66236 0.9594 0.73232 0.0
O313 O 0.61908 0.94668 0.72501 0.0
O314 O 0.69118 0.96824 0.7097 0.0
O315 O 0.59215 0.97016 0.66671 0.0
O316 O 0.55598 0.03454 0.64806 0.0
O317 O 0.67029 0.88745 0.65735 0.0
C318 C 0.68934 0.02918 0.61792 0.0
C319 C 0.55546 -0.00424 0.66302 0.0
C320 C 0.27393 0.25474 0.26174 0.0
C321 C 0.26494 0.20619 0.25965 0.0
C322 C 0.24788 0.28292 0.28247 0.0
C323 C 0.21222 0.26321 0.30146 0.0
H324 H 0.30146 0.2709 0.24748 0.0
H325 H 0.25616 0.32014 0.28406 0.0
S326 S 0.17135 0.13943 0.3019 0.0
N327 N 0.21554 0.14036 0.27624 0.0
N328 N 0.16682 0.1937 0.31564 0.0
C329 C 0.20225 0.21506 0.29921 0.0
C330 C 0.22864 0.18635 0.27809 0.0
C331 C 0.51784 0.46757 0.55616 0.0
C332 C 0.4768 0.44901 0.54172 0.0
C333 C 0.54502 0.50199 0.54065 0.0
C334 C 0.53181 0.51836 0.51033 0.0
H335 H 0.52846 0.45603 0.57982 0.0
H336 H 0.57637 0.51574 0.55232 0.0
S337 S 0.42917 0.47911 0.46209 0.0
N338 N 0.42534 0.4481 0.49541 0.0
N339 N 0.47658 0.5127 0.46591 0.0
C340 C 0.49139 0.49951 0.49552 0.0
C341 C 0.46369 0.46481 0.51137 0.0
C342 C 0.24887 0.7656 0.76047 0.0
C343 C 0.21902 0.73719 0.74185 0.0
C344 C 0.28219 0.74546 0.78097 0.0
C345 C 0.28687 0.69626 0.78327 0.0
H346 H 0.24594 0.80363 0.7595 0.0
H347 H 0.30338 0.76865 0.79577 0.0
S348 S 0.22061 0.60737 0.73624 0.0
N349 N 0.19829 0.65833 0.72469 0.0
N350 N 0.26119 0.62001 0.76339 0.0
C351 C 0.25805 0.66766 0.76397 0.0
C352 C 0.22396 0.68827 0.74319 0.0
C353 C 0.03539 0.46244 1.00347 0.0
C354 C 0.98602 0.46607 1.00533 0.0
C355 C 0.06464 0.49512 1.01892 0.0
C356 C 0.04518 0.53159 0.03713 0.0
H357 H 0.05144 0.43438 0.98983 0.0
H358 H 0.10252 0.49045 1.01792 0.0
S359 S 0.91796 0.55634 0.04891 0.0
N360 N 0.91882 0.5096 1.02549 0.0
N361 N 0.97384 0.56989 0.05593 0.0
C362 C -0.00416 0.53585 0.03878 0.0
C363 C 0.96617 0.50332 1.02246 0.0
C364 C 0.70346 0.73839 0.79733 0.0
C365 C 0.69258 0.78375 0.78596 0.0
C366 C 0.7393 0.71178 0.78327 0.0
C367 C 0.76562 0.73022 0.75782 0.0
H368 H 0.68524 0.72409 0.81794 0.0
H369 H 0.7472 0.67713 0.79276 0.0
S370 S 0.74597 0.8445 0.7167 0.0
N371 N 0.70748 0.84419 0.74628 0.0
N372 N 0.77499 0.79428 0.71951 0.0
C373 C 0.75374 0.77484 0.74548 0.0
C374 C 0.71716 0.80171 0.75973 0.0
C375 C 0.67563 0.22961 0.29185 0.0
C376 C 0.68403 0.23758 0.25931 0.0
C377 C 0.7123 0.2186 0.31269 0.0
C378 C 0.75898 0.21429 0.30189 0.0
H379 H 0.64007 0.23085 0.30128 0.0
H380 H 0.70336 0.21098 0.33721 0.0
S381 S 0.80042 0.23469 0.21904 0.0
N382 N 0.74277 0.24329 0.21718 0.0
N383 N 0.81235 0.22155 0.2567 0.0
C384 C 0.76845 0.22392 0.26955 0.0
C385 C 0.73081 0.23593 0.24819 0.0
C386 C 0.94598 0.00467 0.04729 0.0
C387 C 0.95488 0.956 0.04911 0.0
C388 C 0.96488 0.03216 1.02263 0.0
C389 C -0.00687 0.01191 0.99889 0.0
H390 H 0.92429 0.02177 0.06507 0.0
H391 H 0.95761 0.0696 1.0223 0.0
S392 S 0.03006 0.88691 0.99409 0.0
N393 N -0.00421 0.88918 1.02588 0.0
N394 N 0.03092 0.94084 0.97933 0.0
C395 C 0.00225 0.96331 1.00031 0.0
C396 C 0.98327 0.93536 1.02553 0.0
C397 C 0.44917 0.01105 0.50502 0.0
C398 C 0.46179 0.96409 0.49956 0.0
C399 C 0.47708 0.04009 0.52436 0.0
C400 C 0.51911 0.02343 0.53848 0.0
H401 H 0.41732 0.02535 0.49436 0.0
H402 H 0.46528 0.07583 0.52837 0.0
S403 S 0.56831 0.90295 0.52979 0.0
N404 N 0.51882 0.90194 0.50878 0.0
N405 N 0.57228 0.95658 0.54478 0.0
C406 C 0.53222 0.97631 0.53286 0.0
C407 C 0.50326 0.94659 0.5135 0.0
C408 C 0.24346 0.03613 0.98282 0.0
C409 C 0.19471 0.02894 0.97851 0.0
C410 C 0.26234 0.04343 1.01367 0.0
C411 C 0.23312 0.04227 0.04087 0.0
H412 H 0.26659 0.03806 0.9623 0.0
H413 H 0.29971 0.05081 1.01623 0.0
S414 S 0.10354 0.02185 0.04194 0.0
N415 N 0.1183 0.01857 1.00394 0.0
N416 N 0.15329 0.03235 0.06123 0.0
C417 C 0.18471 0.03317 0.03669 0.0
C418 C 0.16567 0.02637 1.00565 0.0
C419 C 0.69695 0.5015 0.26419 0.0
C420 C 0.68059 0.47517 0.29048 0.0
C421 C 0.70264 0.48027 0.23394 0.0
C422 C 0.69123 0.43238 0.22913 0.0
H423 H 0.70647 0.53819 0.26722 0.0
H424 H 0.71714 0.50107 0.21457 0.0
S425 S 0.64056 0.35087 0.28992 0.0
N426 N 0.64952 0.40053 0.30934 0.0
N427 N 0.658 0.36123 0.25301 0.0
C428 C 0.67235 0.40687 0.25515 0.0
C429 C 0.66763 0.42808 0.28569 0.0
C430 C 0.26214 0.88535 0.51571 0.0
C431 C 0.26383 0.92107 0.53894 0.0
C432 C 0.27088 0.89497 0.48346 0.0
C433 C 0.28159 0.9408 0.47295 0.0
H434 H 0.25627 0.84904 0.52268 0.0
H435 H 0.27161 0.86574 0.46689 0.0
S436 S 0.28529 0.04811 0.52368 0.0
N437 N 0.27263 0.00501 0.54883 0.0
N438 N 0.28948 0.02325 0.48819 0.0
C439 C 0.27986 0.9776 0.49556 0.0
C440 C 0.27084 0.96772 0.52856 0.0
C441 C 0.76047 0.50158 0.73682 0.0
C442 C 0.79032 0.53299 0.72 0.0
C443 C 0.7688 0.49021 0.76911 0.0
C444 C 0.80767 0.50927 0.78553 0.0
H445 H 0.73003 0.48603 0.72511 0.0
H446 H 0.74513 0.46598 0.78114 0.0
S447 S 0.89614 0.59305 0.7532 0.0
N448 N 0.86068 0.582 0.72273 0.0
N449 N 0.8753 0.5618 0.78333 0.0
C450 C 0.8376 0.54053 0.76917 0.0
C451 C 0.82925 0.55204 0.73644 0.0
C452 C 0.76419 0.89611 0.0727 0.0
C453 C 0.78505 0.93903 0.08156 0.0
C454 C 0.75204 0.8869 0.04082 0.0
C455 C 0.76098 0.91988 1.01631 0.0
H456 H 0.75845 0.86883 0.09042 0.0
H457 H 0.73727 0.85267 0.03523 0.0
S458 S 0.81399 0.03865 0.02712 0.0
N459 N 0.81256 0.01596 0.06346 0.0
N460 N 0.79054 -0.0017 1.00351 0.0
C461 C 0.78007 0.96389 1.02503 0.0
C462 C 0.79196 0.9735 0.05764 0.0
C463 C 0.2623 0.51425 0.81238 0.0
C464 C 0.296 0.53159 0.83441 0.0
C465 C 0.27274 0.51 0.77962 0.0
C466 C 0.3171 0.5235 0.7675 0.0
H467 H 0.22705 0.50514 0.82026 0.0
H468 H 0.24518 0.49802 0.76354 0.0
S469 S 0.41954 0.56527 0.81564 0.0
N470 N 0.37716 0.55714 0.84204 0.0
N471 N 0.39629 0.55095 0.78078 0.0
C472 C 0.35173 0.53866 0.78954 0.0
C473 C 0.34135 0.54219 0.82285 0.0
C474 C 0.67778 0.0912 0.53755 0.0
C475 C 0.70515 0.06365 0.51669 0.0
C476 C 0.67483 0.08108 0.57025 0.0
C477 C 0.6978 0.04191 0.58369 0.0
H478 H 0.65772 0.12088 0.52859 0.0
H479 H 0.65319 0.10372 0.58485 0.0
S480 S 0.78007 0.96244 0.54073 0.0
N481 N 0.76052 -0.00134 0.51273 0.0
N482 N 0.75394 0.97866 0.57414 0.0
C483 C 0.72751 0.01541 0.56353 0.0
C484 C 0.73125 0.02635 0.5301 0.0
C485 C 0.23024 0.44314 0.30191 0.0
C486 C 0.20214 0.45609 0.32815 0.0
C487 C 0.21634 0.45366 0.27034 0.0
C488 C 0.17367 0.47742 0.2639 0.0
H489 H 0.26113 0.42134 0.30565 0.0
H490 H 0.23745 0.44012 0.25091 0.0
S491 S 0.09165 0.52498 0.32488 0.0
N492 N 0.13276 0.49778 0.34598 0.0
N493 N 0.10696 0.51892 0.28708 0.0
C494 C 0.14755 0.49392 0.29025 0.0
C495 C 0.1616 0.48281 0.32224 0.0
C496 C 0.71018 0.51762 0.52543 0.0
C497 C 0.70022 0.56245 0.53781 0.0
C498 C 0.70789 0.50893 0.49242 0.0
C499 C 0.69582 0.54483 0.47044 0.0
H500 H 0.71853 0.48868 0.54138 0.0
H501 H 0.71471 0.47346 0.48422 0.0
S502 S 0.67223 0.66973 0.49067 0.0
N503 N 0.68142 0.64395 0.52549 0.0
N504 N 0.67794 0.62796 0.46364 0.0
C505 C 0.68785 0.59027 0.48255 0.0
C506 C 0.68974 0.59895 0.51613 0.0
C507 C 0.20631 0.00423 0.76875 0.0
C508 C 0.17627 0.97771 0.78843 0.0
C509 C 0.21469 -0.00959 0.73701 0.0
C510 C 0.19301 0.94983 0.7241 0.0
H511 H 0.2231 0.03581 0.77786 0.0
H512 H 0.23868 0.01133 0.72268 0.0
S513 S 0.11241 0.868 0.76739 0.0
N514 N 0.12589 0.909 0.79378 0.0
N515 N 0.14059 0.88307 0.73448 0.0
C516 C 0.16281 0.92323 0.744 0.0
C517 C 0.15477 0.93715 0.77611 0.0
C518 C 0.81409 0.41513 1.02276 0.0
C519 C 0.76987 0.42025 0.03733 0.0
C520 C 0.82031 0.42324 0.99022 0.0
C521 C 0.78348 0.43918 0.9706 0.0
H522 H 0.84448 0.40374 0.03655 0.0
H523 H 0.8545 0.41636 0.98046 0.0
S524 S 0.65867 0.45307 0.99585 0.0
N525 N 0.68664 0.43764 0.02902 0.0
N526 N 0.6993 0.45612 0.96762 0.0
C527 C 0.73846 0.44422 0.98461 0.0
C528 C 0.73157 0.43439 1.01803 0.0
C529 C 0.34715 0.01744 0.23346 0.0
C530 C 0.30167 0.0281 0.22206 0.0
C531 C 0.35512 0.00704 0.26569 0.0
C532 C 0.31797 0.00671 0.28789 0.0
H533 H 0.37749 0.02164 0.218 0.0
H534 H 0.39132 0.00315 0.27373 0.0
S535 S 0.19072 0.01992 0.26872 0.0
N536 N 0.21768 0.02857 0.23423 0.0
N537 N 0.23282 0.0088 0.29515 0.0
C538 C 0.27154 0.01082 0.27613 0.0
C539 C 0.26334 0.02149 0.24303 0.0
C540 C 0.25319 0.40957 0.57428 0.0
C541 C 0.28489 0.44548 0.58271 0.0
C542 C 0.24256 0.4002 0.5421 0.0
C543 C 0.26346 0.42619 0.517 0.0
H544 H 0.23673 0.38831 0.5927 0.0
H545 H 0.21839 0.37157 0.53692 0.0
S546 S 0.34702 0.52626 0.5273 0.0
N547 N 0.33518 0.50904 0.56414 0.0
N548 N 0.31624 0.49118 0.50356 0.0
C549 C 0.29422 0.46337 0.5254 0.0
C550 C 0.30469 0.47303 0.55827 0.0
C551 C 0.77068 0.02689 0.27256 0.0
C552 C 0.81394 0.00514 0.26534 0.0
C553 C 0.75878 0.03771 0.30435 0.0
C554 C 0.78967 0.02709 0.32985 0.0
H555 H 0.74779 0.03912 0.25349 0.0
H556 H 0.72722 0.05818 0.30869 0.0
S557 S 0.90239 0.96219 0.3241 0.0
N558 N 0.88394 0.96689 0.28674 0.0
N559 N 0.86197 0.98835 0.34614 0.0
C560 C 0.83077 0.00174 0.32315 0.0
C561 C 0.84271 -0.00962 0.29096 0.0
C562 C 0.1939 0.49854 0.05785 0.0
C563 C 0.19945 0.53248 0.08222 0.0
C564 C 0.20493 0.50899 1.02581 0.0
C565 C 0.22204 0.55372 1.01697 0.0
H566 H 0.17836 0.46453 0.0632 0.0
H567 H 0.19721 0.48288 1.00769 0.0
S568 S 0.25213 0.65132 0.07223 0.0
N569 N 0.22971 0.6101 0.09565 0.0
N570 N 0.25065 0.6295 0.03573 0.0
C571 C 0.23142 0.5864 0.04142 0.0
C572 C 0.22008 0.57588 0.07393 0.0
C573 C 0.64134 0.96228 0.79006 0.0
C574 C 0.67666 0.95936 0.76651 0.0
C575 C 0.65173 0.95615 0.82256 0.0
C576 C 0.69795 0.94693 0.83297 0.0
H577 H 0.60491 0.96848 0.7833 0.0
H578 H 0.62317 0.9581 0.83965 0.0
S579 S 0.80356 0.93502 0.78106 0.0
N580 N 0.76005 0.94699 0.75597 0.0
N581 N 0.77972 0.93477 0.817 0.0
C582 C 0.73402 0.94492 0.80977 0.0
C583 C 0.72337 0.9514 0.77659 0.0
C584 C 0.48475 0.20916 0.15841 0.0
C585 C 0.44714 0.24093 0.15646 0.0
C586 C 0.53124 0.22454 0.15468 0.0
C587 C 0.54204 0.27233 0.14867 0.0
H588 H 0.47844 0.17246 0.16419 0.0
H589 H 0.55897 0.19869 0.15772 0.0
S590 S 0.45537 0.36832 0.13751 0.0
N591 N 0.42278 0.32143 0.14562 0.0
N592 N 0.51085 0.35046 0.13843 0.0
C593 C 0.50459 0.30417 0.14548 0.0
C594 C 0.45697 0.28843 0.1494 0.0
C595 C 0.47753 0.70941 0.41095 0.0
C596 C 0.51792 0.69912 0.42939 0.0
C597 C 0.45991 0.75547 0.40868 0.0
C598 C 0.48196 0.79297 0.42487 0.0
H599 H 0.4598 0.68183 0.39767 0.0
H600 H 0.42921 0.76179 0.39377 0.0
S601 S 0.58442 0.78316 0.48015 0.0
N602 N 0.57644 0.72916 0.46664 0.0
N603 N 0.54374 0.81567 0.46243 0.0
C604 C 0.52142 0.78277 0.44427 0.0
C605 C 0.53928 0.73587 0.44654 0.0
C606 C 0.95948 0.76408 0.68664 0.0
C607 C 0.94575 0.72162 0.67203 0.0
C608 C 0.00544 0.78192 0.68311 0.0
C609 C 0.03905 0.75824 0.66439 0.0
H610 H 0.93455 0.78354 0.70105 0.0
H611 H 0.01462 0.8144 0.69518 0.0
S612 S 0.0189 0.64714 0.61953 0.0
N613 N 0.9682 0.65711 0.63761 0.0
N614 N 0.05428 0.69071 0.63016 0.0
C615 C 0.02532 0.71583 0.64949 0.0
C616 C 0.97875 0.69747 0.65351 0.0
C617 C 0.93518 0.24975 0.91987 0.0
C618 C 0.96651 0.28611 0.92828 0.0
C619 C 0.95067 0.20308 0.91765 0.0
C620 C -0.00198 0.19098 0.9239 0.0
H621 H 0.89866 0.2575 0.91421 0.0
H622 H 0.92534 0.17639 0.91056 0.0
S623 S 0.09275 0.27257 0.95079 0.0
N624 N 0.04616 0.30656 0.94551 0.0
N625 N 0.07524 0.21883 0.94142 0.0
C626 C 0.0294 0.22685 0.93336 0.0
C627 C 0.01363 0.27441 0.93557 0.0
C628 C 0.53165 0.71525 0.8716 0.0
C629 C 0.53829 0.7633 0.87889 0.0
C630 C 0.4869 0.69401 0.87321 0.0
C631 C 0.44691 0.71984 0.88239 0.0
H632 H 0.56118 0.6938 0.86416 0.0
H633 H 0.48366 0.65718 0.86687 0.0
S634 S 0.44554 0.84657 0.90489 0.0
N635 N 0.50122 0.83585 0.89613 0.0
N636 N 0.41731 0.79629 0.89949 0.0
C637 C 0.45319 0.7679 0.89005 0.0
C638 C 0.49875 0.78951 0.8882 0.0
C639 C 0.51703 0.27647 0.62468 0.0
C640 C 0.46903 0.28319 0.6321 0.0
C641 C 0.53685 0.23134 0.62382 0.0
C642 C 0.50957 0.19117 0.63066 0.0
H643 H 0.53942 0.30628 0.6189 0.0
H644 H 0.57374 0.22801 0.61748 0.0
S645 S 0.38264 0.19045 0.65359 0.0
N646 N 0.39511 0.24656 0.64748 0.0
N647 N 0.43203 0.16161 0.64657 0.0
C648 C 0.46156 0.19762 0.63871 0.0
C649 C 0.44137 0.24363 0.63921 0.0
C650 C 0.02199 0.22756 0.41055 0.0
C651 C 0.04007 0.2626 0.39021 0.0
C652 C 0.97517 0.21205 0.40765 0.0
C653 C 0.94496 0.23099 0.38422 0.0
H654 H 0.04401 0.21245 0.42914 0.0
H655 H 0.96236 0.18558 0.42419 0.0
S656 S 0.97759 0.31822 0.32184 0.0
N657 N 0.02583 0.31238 0.34378 0.0
N658 N 0.93778 0.28318 0.33826 0.0
C659 C 0.96312 0.26493 0.363 0.0
C660 C 0.01074 0.28077 0.366 0.0
C661 C 0.03945 0.72897 0.14964 0.0
C662 C 0.0119 0.69275 0.13614 0.0
C663 C 0.02287 0.77541 0.15099 0.0
C664 C 0.97802 0.78748 0.13898 0.0
H665 H 0.0742 0.72149 0.15925 0.0
H666 H 0.04539 0.80202 0.16166 0.0
S667 S 0.89225 0.70622 0.10037 0.0
N668 N 0.93745 0.67248 0.11008 0.0
N669 N 0.90656 0.7596 0.11258 0.0
C670 C 0.94995 0.75164 0.12552 0.0
C671 C 0.96679 0.70435 0.12413 0.0
C672 C 0.2647 0.24969 0.14912 0.0
C673 C 0.23082 0.22081 0.13436 0.0
C674 C 0.25607 0.29753 0.15509 0.0
C675 C 0.21322 0.31855 0.14582 0.0
H676 H 0.29793 0.23496 0.15626 0.0
H677 H 0.28281 0.31786 0.16753 0.0
S678 S 0.11741 0.2616 0.09905 0.0
N679 N 0.15564 0.21895 0.1059 0.0
N680 N 0.13976 0.30884 0.11637 0.0
C681 C 0.18045 0.29107 0.12874 0.0
C682 C 0.18918 0.24231 0.123 0.0
C683 C 0.4425 0.43375 0.38628 0.0
C684 C 0.40836 0.46922 0.38171 0.0
C685 C 0.4909 0.44386 0.38442 0.0
C686 C 0.50674 0.48976 0.37784 0.0
H687 H 0.43196 0.39846 0.39314 0.0
H688 H 0.51584 0.41646 0.39068 0.0
S689 S 0.43219 0.5931 0.35807 0.0
N690 N 0.39411 0.55065 0.36613 0.0
N691 N 0.48495 0.56923 0.36207 0.0
C692 C 0.47305 0.52437 0.37023 0.0
C693 C 0.42386 0.51424 0.37232 0.0
C694 C 0.22769 0.72503 0.61911 0.0
C695 C 0.25236 0.75829 0.63761 0.0
C696 C 0.23603 0.67669 0.62251 0.0
C697 C 0.26934 0.65942 0.64464 0.0
H698 H 0.20157 0.73642 0.60178 0.0
H699 H 0.21605 0.65269 0.60756 0.0
S700 S 0.34165 0.73163 0.70028 0.0
N701 N 0.31073 0.77053 0.67965 0.0
N702 N 0.32614 0.67953 0.68621 0.0
C703 C 0.29431 0.69225 0.66342 0.0
C704 C 0.28595 0.74168 0.65984 0.0
C705 C 0.00028 0.51004 0.91396 0.0
C706 C 0.97215 0.50966 0.88629 0.0
C707 C 0.04725 0.52516 0.91323 0.0
C708 C 0.06839 0.54029 0.88458 0.0
H709 H 0.98631 0.49745 0.93634 0.0
H710 H 0.06738 0.52365 0.93528 0.0
S711 S 0.00864 0.54798 0.80548 0.0
N712 N 0.96755 0.52709 0.82965 0.0
N713 N 0.05626 0.55589 0.82781 0.0
C714 C 0.04003 0.54151 0.85675 0.0
C715 C -0.00818 0.52613 0.85769 0.0
C716 C 0.79207 0.73195 0.90255 0.0
C717 C 0.75048 0.75165 0.91467 0.0
C718 C 0.79823 0.68295 0.90193 0.0
C719 C 0.76308 0.65208 0.91357 0.0
H720 H 0.81864 0.75432 0.89169 0.0
H721 H 0.83004 0.66923 0.89114 0.0
S722 S 0.65018 0.68766 0.95138 0.0
N723 N 0.67557 0.73776 0.94098 0.0
N724 N 0.68705 0.64582 0.94043 0.0
C725 C 0.72261 0.67188 0.92759 0.0
C726 C 0.71634 0.72165 0.92796 0.0
C727 C 0.54454 0.55087 0.65577 0.0
C728 C 0.57671 0.5164 0.66659 0.0
C729 C 0.49562 0.54271 0.65638 0.0
C730 C 0.47749 0.5 0.66801 0.0
H731 H 0.55718 0.58323 0.64498 0.0
H732 H 0.4723 0.56814 0.64522 0.0
S733 S 0.54524 0.40173 0.70393 0.0
N734 N 0.58583 0.44027 0.69293 0.0
N735 N 0.49408 0.42568 0.69431 0.0
C736 C 0.50876 0.4673 0.68157 0.0
C737 C 0.55839 0.47525 0.68076 0.0
C738 C 0.76433 0.25682 0.42571 0.0
C739 C 0.73011 0.2239 0.41577 0.0
C740 C 0.75694 0.30545 0.42214 0.0
C741 C 0.71519 0.32325 0.40822 0.0
H742 H 0.79695 0.24502 0.43666 0.0
H743 H 0.78422 0.32924 0.43054 0.0
S744 S 0.61559 0.25194 0.3763 0.0
N745 N 0.65307 0.21282 0.39065 0.0
N746 N 0.64018 0.30373 0.38298 0.0
C747 C 0.68106 0.29069 0.39762 0.0
C748 C 0.68824 0.24124 0.40167 0.0
C749 C 0.9095 0.50343 0.17031 0.0
C750 C 0.89114 0.45812 0.16482 0.0
C751 C 0.95818 0.51121 0.17325 0.0
C752 C 0.991 0.4741 0.17078 0.0
H753 H 0.88627 0.53362 0.17125 0.0
H754 H 0.97022 0.54718 0.17622 0.0
S755 S 0.96086 0.34766 0.16044 0.0
N756 N 0.90932 0.37468 0.1601 0.0
N757 N 0.00095 0.3894 0.16536 0.0
C758 C 0.973 0.4281 0.16723 0.0
C759 C 0.92316 0.42015 0.16417 0.0
C760 C 0.68495 0.7405 0.65571 0.0
C761 C 0.71688 0.72074 0.63402 0.0
C762 C 0.67212 0.78798 0.65348 0.0
C763 C 0.69085 0.81735 0.62946 0.0
H764 H 0.67288 0.72019 0.67609 0.0
H765 H 0.64934 0.80228 0.67176 0.0
S766 S 0.77258 0.78033 0.56505 0.0
N767 N 0.76442 0.73227 0.58666 0.0
N768 N 0.73995 0.82154 0.58179 0.0
C769 C 0.72019 0.79685 0.6062 0.0
C770 C 0.7334 0.7485 0.60871 0.0
C771 C 0.94507 0.93408 0.90597 0.0
C772 C 0.91111 0.96773 0.89705 0.0
C773 C -0.00692 0.94133 0.89987 0.0
C774 C 0.00913 0.98264 0.88468 0.0
H775 H 0.93461 0.9019 0.91801 0.0
H776 H 0.01781 0.91457 0.90761 0.0
S777 S 0.93435 0.07993 0.85394 0.0
N778 N 0.89672 0.04296 0.87073 0.0
N779 N 0.98706 0.05627 0.85898 0.0
C780 C 0.97555 0.01621 0.87506 0.0
C781 C 0.92657 0.00891 0.88138 0.0
C782 C 0.81621 0.18221 0.13566 0.0
C783 C 0.78276 0.14819 0.12594 0.0
C784 C 0.80649 0.23035 0.13303 0.0
C785 C 0.76305 0.2455 0.12079 0.0
H786 H 0.8486 0.17176 0.14752 0.0
H787 H 0.83039 0.25526 0.14424 0.0
S788 S 0.66837 0.17196 0.08547 0.0
N789 N 0.70801 0.13386 0.09846 0.0
N790 N 0.69049 0.2245 0.09338 0.0
C791 C 0.73248 0.21239 0.10691 0.0
C792 C 0.74193 0.16348 0.1098 0.0
C793 C 0.49651 0.03396 0.39967 0.0
C794 C 0.47781 -0.00547 0.38361 0.0
C795 C 0.54523 0.04026 0.40336 0.0
C796 C 0.57765 0.0076 0.39101 0.0
H797 H 0.47338 0.06035 0.40969 0.0
H798 H 0.55743 0.07138 0.41587 0.0
S799 S 0.54715 0.89798 0.34719 0.0
N800 N 0.49561 0.92201 0.35541 0.0
N801 N 0.58738 0.93384 0.3623 0.0
C802 C 0.55953 0.96778 0.37504 0.0
C803 C 0.50966 0.96127 0.37137 0.0
C804 C 0.27365 0.23667 0.39107 0.0
C805 C 0.25499 0.25661 0.41901 0.0
C806 C 0.28158 0.18803 0.38887 0.0
C807 C 0.27222 0.15781 0.41485 0.0
H808 H 0.28163 0.25874 0.37062 0.0
H809 H 0.295 0.17405 0.36663 0.0
S810 S 0.23093 0.19461 0.49512 0.0
N811 N 0.23167 0.24381 0.474 0.0
N812 N 0.24817 0.15265 0.47057 0.0
C813 C 0.25537 0.17787 0.44337 0.0
C814 C 0.24648 0.22724 0.44531 0.0
C815 C 0.00321 0.03011 0.15355 0.0
C816 C 0.98494 -0.00751 0.17171 0.0
C817 C 0.05186 0.03741 0.15069 0.0
C818 C 0.08456 0.00747 0.16591 0.0
H819 H 0.97978 0.05391 0.14091 0.0
H820 H 0.06378 0.06664 0.13609 0.0
S821 S 0.0549 0.9051 0.21755 0.0
N822 N 0.00315 0.92595 0.20612 0.0
N823 N 0.09493 0.9393 0.20059 0.0
C824 C 0.06681 0.96993 0.18442 0.0
C825 C 0.017 0.96256 0.18737 0.0
C826 C 0.22798 0.79598 0.939 0.0
C827 C 0.20287 0.81868 0.91422 0.0
C828 C 0.23809 0.74763 0.9376 0.0
C829 C 0.22263 0.7202 0.91172 0.0
H830 H 0.24146 0.81593 0.9591 0.0
H831 H 0.25992 0.73205 0.95611 0.0
S832 S 0.15535 0.76118 0.841 0.0
N833 N 0.16218 0.80878 0.86314 0.0
N834 N 0.18111 0.71816 0.86106 0.0
C835 C 0.19634 0.74177 0.8874 0.0
C836 C 0.18641 0.79094 0.88851 0.0
C837 C 0.42766 0.00422 0.68376 0.0
C838 C 0.40953 0.96178 0.67154 0.0
C839 C 0.47625 0.0129 0.68431 0.0
C840 C 0.50851 0.97934 0.67298 0.0
H841 H 0.4042 0.03215 0.69119 0.0
H842 H 0.4885 0.04746 0.6916 0.0
S843 S 0.4799 0.85978 0.64358 0.0
N844 N 0.42808 0.88344 0.65162 0.0
N845 N 0.51972 0.90019 0.65278 0.0
C846 C 0.49134 0.93522 0.66348 0.0
C847 C 0.44169 0.92642 0.66258 0.0
loop_
_geom_bond_atom_site_label_1
_geom_bond_atom_site_label_2
_geom_bond_distance
_geom_bond_site_symmetry_2
_ccdc_geom_bond_type
Zn0 O6 1.969 . S
Zn0 O7 1.965 . S
Zn0 O11 2.024 . S
Zn0 O16 1.969 . S
Zn1 O8 1.969 . S
Zn1 O14 1.969 . S
Zn1 O15 1.965 . S
Zn1 O17 2.024 . S
C2 O3 1.229 . S
C2 O11 1.058 . S
O3 C2 1.229 . S
C4 O5 1.229 . S
C4 O17 1.058 . S
O5 C4 1.229 . S
O6 Zn0 1.969 . S
O6 C9 1.267 . S
O7 Zn0 1.965 . S
O7 C18 1.260 . S
O8 Zn1 1.969 . S
O8 C18 1.258 . S
C9 O6 1.267 . S
C9 O10 1.228 . S
O10 C9 1.228 . S
O11 Zn0 2.024 . S
O11 C2 1.058 . S
C12 O13 1.228 . S
C12 O14 1.267 . S
O13 C12 1.228 . S
O14 Zn1 1.969 . S
O14 C12 1.267 . S
O15 Zn1 1.965 . S
O15 C19 1.260 . S
O16 Zn0 1.969 . S
O16 C19 1.258 . S
O17 Zn1 2.024 . S
O17 C4 1.058 . S
C18 O7 1.260 . S
C18 O8 1.258 . S
C19 O15 1.260 . S
C19 O16 1.258 . S
Zn20 O26 1.969 . S
Zn20 O27 1.965 . S
Zn20 O31 2.024 . S
Zn20 O36 1.969 . S
Zn21 O28 1.969 . S
Zn21 O34 1.969 . S
Zn21 O35 1.965 . S
Zn21 O37 2.024 . S
C22 O23 1.229 . S
C22 O31 1.058 . S
O23 C22 1.229 . S
C24 O25 1.229 . S
C24 O37 1.058 . S
O25 C24 1.229 . S
O26 Zn20 1.969 . S
O26 C29 1.267 . S
O27 Zn20 1.965 . S
O27 C38 1.260 . S
O28 Zn21 1.969 . S
O28 C38 1.258 . S
C29 O26 1.267 . S
C29 O30 1.228 . S
O30 C29 1.228 . S
O31 Zn20 2.024 . S
O31 C22 1.058 . S
C32 O33 1.228 . S
C32 O34 1.267 . S
O33 C32 1.228 . S
O34 Zn21 1.969 . S
O34 C32 1.267 . S
O35 Zn21 1.965 . S
O35 C39 1.260 . S
O36 Zn20 1.969 . S
O36 C39 1.258 . S
O37 Zn21 2.024 . S
O37 C24 1.058 . S
C38 O27 1.260 . S
C38 O28 1.258 . S
C39 O35 1.260 . S
C39 O36 1.258 . S
Zn40 O46 1.969 . S
Zn40 O47 1.965 . S
Zn40 O51 2.024 . S
Zn40 O56 1.969 . S
Zn41 O48 1.969 . S
Zn41 O54 1.969 . S
Zn41 O55 1.965 . S
Zn41 O57 2.024 . S
C42 O43 1.229 . S
C42 O51 1.058 . S
O43 C42 1.229 . S
C44 O45 1.229 . S
C44 O57 1.058 . S
O45 C44 1.229 . S
O46 Zn40 1.969 . S
O46 C49 1.267 . S
O47 Zn40 1.965 . S
O47 C58 1.260 . S
O48 Zn41 1.969 . S
O48 C58 1.258 . S
C49 O46 1.267 . S
C49 O50 1.228 . S
O50 C49 1.228 . S
O51 Zn40 2.024 . S
O51 C42 1.058 . S
C52 O53 1.228 . S
C52 O54 1.267 . S
O53 C52 1.228 . S
O54 Zn41 1.969 . S
O54 C52 1.267 . S
O55 Zn41 1.965 . S
O55 C59 1.260 . S
O56 Zn40 1.969 . S
O56 C59 1.258 . S
O57 Zn41 2.024 . S
O57 C44 1.058 . S
C58 O47 1.260 . S
C58 O48 1.258 . S
C59 O55 1.260 . S
C59 O56 1.258 . S
Zn60 O66 1.969 . S
Zn60 O67 1.965 . S
Zn60 O71 2.024 . S
Zn60 O76 1.969 . S
Zn61 O68 1.969 . S
Zn61 O74 1.969 . S
Zn61 O75 1.965 . S
Zn61 O77 2.024 . S
C62 O63 1.229 . S
C62 O71 1.058 . S
O63 C62 1.229 . S
C64 O65 1.228 1_655 S
C64 O77 1.058 . S
O65 C64 1.228 1_455 S
O66 Zn60 1.969 . S
O66 C69 1.267 . S
O67 Zn60 1.965 . S
O67 C78 1.260 . S
O68 Zn61 1.969 . S
O68 C78 1.258 . S
C69 O66 1.267 . S
C69 O70 1.228 . S
O70 C69 1.228 . S
O71 Zn60 2.024 . S
O71 C62 1.058 . S
C72 O73 1.228 . S
C72 O74 1.267 . S
O73 C72 1.228 . S
O74 Zn61 1.969 . S
O74 C72 1.267 . S
O75 Zn61 1.965 . S
O75 C79 1.260 . S
O76 Zn60 1.969 . S
O76 C79 1.258 . S
O77 Zn61 2.024 . S
O77 C64 1.058 . S
C78 O67 1.260 . S
C78 O68 1.258 . S
C79 O75 1.260 . S
C79 O76 1.258 . S
Zn80 O86 1.969 . S
Zn80 O87 1.965 . S
Zn80 O91 2.024 . S
Zn80 O96 1.969 . S
Zn81 O88 1.969 . S
Zn81 O94 1.969 . S
Zn81 O95 1.965 . S
Zn81 O97 2.024 . S
C82 O83 1.229 . S
C82 O91 1.058 . S
O83 C82 1.229 . S
C84 O85 1.229 . S
C84 O97 1.058 . S
O85 C84 1.229 . S
O86 Zn80 1.969 . S
O86 C89 1.267 . S
O87 Zn80 1.965 . S
O87 C98 1.260 . S
O88 Zn81 1.969 . S
O88 C98 1.258 . S
C89 O86 1.267 . S
C89 O90 1.228 . S
O90 C89 1.228 . S
O91 Zn80 2.024 . S
O91 C82 1.058 . S
C92 O93 1.228 . S
C92 O94 1.267 . S
O93 C92 1.228 . S
O94 Zn81 1.969 . S
O94 C92 1.267 . S
O95 Zn81 1.965 . S
O95 C99 1.260 . S
O96 Zn80 1.969 . S
O96 C99 1.258 . S
O97 Zn81 2.024 . S
O97 C84 1.058 . S
C98 O87 1.260 . S
C98 O88 1.258 . S
C99 O95 1.260 . S
C99 O96 1.258 . S
Zn100 O106 1.969 . S
Zn100 O107 1.965 . S
Zn100 O111 2.024 . S
Zn100 O116 1.969 . S
Zn101 O108 1.969 . S
Zn101 O114 1.969 . S
Zn101 O115 1.965 . S
Zn101 O117 2.024 . S
C102 O103 1.229 . S
C102 O111 1.058 . S
O103 C102 1.229 . S
C104 O105 1.229 . S
C104 O117 1.058 . S
O105 C104 1.229 . S
O106 Zn100 1.969 . S
O106 C109 1.267 . S
O107 Zn100 1.965 . S
O107 C118 1.260 . S
O108 Zn101 1.969 . S
O108 C118 1.258 . S
C109 O106 1.267 . S
C109 O110 1.228 . S
O110 C109 1.228 . S
O111 Zn100 2.024 . S
O111 C102 1.058 . S
C112 O113 1.228 . S
C112 O114 1.267 . S
O113 C112 1.228 . S
O114 Zn101 1.969 . S
O114 C112 1.267 . S
O115 Zn101 1.965 . S
O115 C119 1.260 . S
O116 Zn100 1.969 . S
O116 C119 1.258 . S
O117 Zn101 2.024 . S
O117 C104 1.058 . S
C118 O107 1.260 . S
C118 O108 1.258 . S
C119 O115 1.260 . S
C119 O116 1.258 . S
Zn120 O126 1.969 . S
Zn120 O127 1.965 . S
Zn120 O131 2.024 . S
Zn120 O136 1.969 . S
Zn121 O128 1.969 . S
Zn121 O134 1.969 . S
Zn121 O135 1.965 . S
Zn121 O137 2.024 . S
C122 O123 1.229 . S
C122 O131 1.058 . S
O123 C122 1.229 . S
C124 O125 1.229 . S
C124 O137 1.058 . S
O125 C124 1.229 . S
O126 Zn120 1.969 . S
O126 C129 1.267 . S
O127 Zn120 1.965 . S
O127 C138 1.260 . S
O128 Zn121 1.969 . S
O128 C138 1.258 . S
C129 O126 1.267 . S
C129 O130 1.228 . S
O130 C129 1.228 . S
O131 Zn120 2.024 . S
O131 C122 1.058 . S
C132 O133 1.228 . S
C132 O134 1.267 . S
O133 C132 1.228 . S
O134 Zn121 1.969 . S
O134 C132 1.267 . S
O135 Zn121 1.965 . S
O135 C139 1.260 . S
O136 Zn120 1.969 . S
O136 C139 1.258 . S
O137 Zn121 2.024 . S
O137 C124 1.058 . S
C138 O127 1.260 . S
C138 O128 1.258 . S
C139 O135 1.260 . S
C139 O136 1.258 . S
Zn140 O146 1.969 . S
Zn140 O147 1.965 . S
Zn140 O151 2.024 . S
Zn140 O156 1.969 . S
Zn141 O148 1.969 . S
Zn141 O154 1.969 . S
Zn141 O155 1.965 . S
Zn141 O157 2.024 . S
C142 O143 1.228 1_455 S
C142 O151 1.058 . S
O143 C142 1.228 1_655 S
C144 O145 1.229 . S
C144 O157 1.058 . S
O145 C144 1.229 . S
O146 Zn140 1.969 . S
O146 C149 1.267 . S
O147 Zn140 1.965 . S
O147 C158 1.260 . S
O148 Zn141 1.969 . S
O148 C158 1.258 . S
C149 O146 1.267 . S
C149 O150 1.228 . S
O150 C149 1.228 . S
O151 Zn140 2.024 . S
O151 C142 1.058 . S
C152 O153 1.228 . S
C152 O154 1.267 . S
O153 C152 1.228 . S
O154 Zn141 1.969 . S
O154 C152 1.267 . S
O155 Zn141 1.965 . S
O155 C159 1.260 . S
O156 Zn140 1.969 . S
O156 C159 1.258 . S
O157 Zn141 2.024 . S
O157 C144 1.058 . S
C158 O147 1.260 . S
C158 O148 1.258 . S
C159 O155 1.260 . S
C159 O156 1.258 . S
Zn160 O166 1.969 . S
Zn160 O167 1.965 . S
Zn160 O171 2.024 . S
Zn160 O176 1.969 . S
Zn161 O168 1.969 . S
Zn161 O174 1.969 . S
Zn161 O175 1.965 . S
Zn161 O177 2.024 . S
C162 O163 1.229 . S
C162 O171 1.058 . S
O163 C162 1.229 . S
C164 O165 1.229 . S
C164 O177 1.058 . S
O165 C164 1.229 . S
O166 Zn160 1.969 . S
O166 C169 1.267 . S
O167 Zn160 1.965 . S
O167 C178 1.260 . S
O168 Zn161 1.969 . S
O168 C178 1.258 . S
C169 O166 1.267 . S
C169 O170 1.228 . S
O170 C169 1.228 . S
O171 Zn160 2.024 . S
O171 C162 1.058 . S
C172 O173 1.228 . S
C172 O174 1.267 . S
O173 C172 1.228 . S
O174 Zn161 1.969 . S
O174 C172 1.267 . S
O175 Zn161 1.965 . S
O175 C179 1.260 . S
O176 Zn160 1.969 . S
O176 C179 1.258 . S
O177 Zn161 2.024 . S
O177 C164 1.058 . S
C178 O167 1.260 . S
C178 O168 1.258 . S
C179 O175 1.260 . S
C179 O176 1.258 . S
Zn180 O186 1.969 1_565 S
Zn180 O187 1.965 1_565 S
Zn180 O191 2.024 . S
Zn180 O196 1.969 1_565 S
Zn181 O188 1.969 . S
Zn181 O194 1.969 . S
Zn181 O195 1.965 . S
Zn181 O197 2.024 . S
C182 O183 1.229 . S
C182 O191 1.058 . S
O183 C182 1.229 . S
C184 O185 1.228 1_455 S
C184 O197 1.058 . S
O185 C184 1.228 1_655 S
O186 Zn180 1.969 1_545 S
O186 C189 1.267 1_545 S
O187 Zn180 1.965 1_545 S
O187 C198 1.263 . S
O188 Zn181 1.969 . S
O188 C198 1.268 . S
C189 O186 1.267 1_565 S
C189 O190 1.228 . S
O190 C189 1.228 . S
O191 Zn180 2.024 . S
O191 C182 1.058 . S
C192 O193 1.228 . S
C192 O194 1.267 . S
O193 C192 1.228 . S
O194 Zn181 1.969 . S
O194 C192 1.267 . S
O195 Zn181 1.965 . S
O195 C199 1.260 . S
O196 Zn180 1.969 1_545 S
O196 C199 1.258 . S
O197 Zn181 2.024 . S
O197 C184 1.058 . S
C198 O187 1.263 . S
C198 O188 1.268 . S
C199 O195 1.260 . S
C199 O196 1.258 . S
Zn200 O206 1.969 . S
Zn200 O207 1.965 . S
Zn200 O211 2.024 . S
Zn200 O216 1.969 . S
Zn201 O208 1.969 . S
Zn201 O214 1.969 . S
Zn201 O215 1.965 . S
Zn201 O217 2.024 . S
C202 O203 1.229 . S
C202 O211 1.058 . S
O203 C202 1.229 . S
C204 O205 1.229 . S
C204 O217 1.058 . S
O205 C204 1.229 . S
O206 Zn200 1.969 . S
O206 C209 1.267 . S
O207 Zn200 1.965 . S
O207 C218 1.260 . S
O208 Zn201 1.969 . S
O208 C218 1.258 . S
C209 O206 1.267 . S
C209 O210 1.228 . S
O210 C209 1.228 . S
O211 Zn200 2.024 . S
O211 C202 1.058 . S
C212 O213 1.228 . S
C212 O214 1.267 . S
O213 C212 1.228 . S
O214 Zn201 1.969 . S
O214 C212 1.267 . S
O215 Zn201 1.965 . S
O215 C219 1.260 . S
O216 Zn200 1.969 . S
O216 C219 1.258 . S
O217 Zn201 2.024 . S
O217 C204 1.058 . S
C218 O207 1.260 . S
C218 O208 1.258 . S
C219 O215 1.260 . S
C219 O216 1.258 . S
Zn220 O226 1.969 1_545 S
Zn220 O227 1.965 1_545 S
Zn220 O231 2.024 . S
Zn220 O236 1.969 1_545 S
Zn221 O228 1.969 . S
Zn221 O234 1.969 . S
Zn221 O235 1.965 . S
Zn221 O237 2.024 . S
C222 O223 1.229 . S
C222 O231 1.058 . S
O223 C222 1.229 . S
C224 O225 1.229 . S
C224 O237 1.058 . S
O225 C224 1.229 . S
O226 Zn220 1.969 1_565 S
O226 C229 1.267 1_565 S
O227 Zn220 1.965 1_565 S
O227 C238 1.263 . S
O228 Zn221 1.969 . S
O228 C238 1.268 . S
C229 O226 1.267 1_545 S
C229 O230 1.228 . S
O230 C229 1.228 . S
O231 Zn220 2.024 . S
O231 C222 1.058 . S
C232 O233 1.228 . S
C232 O234 1.267 . S
O233 C232 1.228 . S
O234 Zn221 1.969 . S
O234 C232 1.267 . S
O235 Zn221 1.965 . S
O235 C239 1.260 . S
O236 Zn220 1.969 1_565 S
O236 C239 1.258 . S
O237 Zn221 2.024 . S
O237 C224 1.058 . S
C238 O227 1.263 . S
C238 O228 1.268 . S
C239 O235 1.260 . S
C239 O236 1.258 . S
Zn240 O246 1.969 . S
Zn240 O247 1.965 . S
Zn240 O251 2.024 . S
Zn240 O256 1.969 . S
Zn241 O248 1.969 . S
Zn241 O254 1.969 . S
Zn241 O255 1.965 . S
Zn241 O257 2.024 . S
C242 O243 1.229 . S
C242 O251 1.058 . S
O243 C242 1.229 . S
C244 O245 1.229 . S
C244 O257 1.058 . S
O245 C244 1.229 . S
O246 Zn240 1.969 . S
O246 C249 1.267 . S
O247 Zn240 1.965 . S
O247 C258 1.260 . S
O248 Zn241 1.969 . S
O248 C258 1.258 . S
C249 O246 1.267 . S
C249 O250 1.228 . S
O250 C249 1.228 . S
O251 Zn240 2.024 . S
O251 C242 1.058 . S
C252 O253 1.228 . S
C252 O254 1.267 . S
O253 C252 1.228 . S
O254 Zn241 1.969 . S
O254 C252 1.267 . S
O255 Zn241 1.965 . S
O255 C259 1.260 . S
O256 Zn240 1.969 . S
O256 C259 1.258 . S
O257 Zn241 2.024 . S
O257 C244 1.058 . S
C258 O247 1.260 . S
C258 O248 1.258 . S
C259 O255 1.260 . S
C259 O256 1.258 . S
Zn260 O266 1.969 . S
Zn260 O267 1.965 . S
Zn260 O271 2.024 . S
Zn260 O276 1.969 . S
Zn261 O268 1.969 1_545 S
Zn261 O274 1.969 1_545 S
Zn261 O275 1.965 1_545 S
Zn261 O277 2.024 . S
C262 O263 1.228 1_655 S
C262 O271 1.058 . S
O263 C262 1.228 1_455 S
C264 O265 1.229 . S
C264 O277 1.058 . S
O265 C264 1.229 . S
O266 Zn260 1.969 . S
O266 C269 1.267 . S
O267 Zn260 1.965 . S
O267 C278 1.260 . S
O268 Zn261 1.969 1_565 S
O268 C278 1.258 . S
C269 O266 1.267 . S
C269 O270 1.228 . S
O270 C269 1.228 . S
O271 Zn260 2.024 . S
O271 C262 1.058 . S
C272 O273 1.228 . S
C272 O274 1.267 1_545 S
O273 C272 1.228 . S
O274 Zn261 1.969 1_565 S
O274 C272 1.267 1_565 S
O275 Zn261 1.965 1_565 S
O275 C279 1.263 . S
O276 Zn260 1.969 . S
O276 C279 1.268 . S
O277 Zn261 2.024 . S
O277 C264 1.058 . S
C278 O267 1.260 . S
C278 O268 1.258 . S
C279 O275 1.263 . S
C279 O276 1.268 . S
Zn280 O286 1.969 . S
Zn280 O287 1.965 . S
Zn280 O291 2.024 . S
Zn280 O296 1.969 . S
Zn281 O288 1.969 . S
Zn281 O294 1.969 . S
Zn281 O295 1.965 . S
Zn281 O297 2.024 . S
C282 O283 1.229 . S
C282 O291 1.058 . S
O283 C282 1.229 . S
C284 O285 1.229 . S
C284 O297 1.058 . S
O285 C284 1.229 . S
O286 Zn280 1.969 . S
O286 C289 1.267 . S
O287 Zn280 1.965 . S
O287 C298 1.260 . S
O288 Zn281 1.969 . S
O288 C298 1.258 . S
C289 O286 1.267 . S
C289 O290 1.228 . S
O290 C289 1.228 . S
O291 Zn280 2.024 . S
O291 C282 1.058 . S
C292 O293 1.228 . S
C292 O294 1.267 . S
O293 C292 1.228 . S
O294 Zn281 1.969 . S
O294 C292 1.267 . S
O295 Zn281 1.965 . S
O295 C299 1.260 . S
O296 Zn280 1.969 . S
O296 C299 1.258 . S
O297 Zn281 2.024 . S
O297 C284 1.058 . S
C298 O287 1.260 . S
C298 O288 1.258 . S
C299 O295 1.260 . S
C299 O296 1.258 . S
Zn300 O306 1.969 . S
Zn300 O307 1.965 . S
Zn300 O311 2.024 . S
Zn300 O316 1.969 . S
Zn301 O308 1.969 1_565 S
Zn301 O314 1.969 1_565 S
Zn301 O315 1.965 1_565 S
Zn301 O317 2.024 . S
C302 O303 1.229 . S
C302 O311 1.058 . S
O303 C302 1.229 . S
C304 O305 1.229 . S
C304 O317 1.058 . S
O305 C304 1.229 . S
O306 Zn300 1.969 . S
O306 C309 1.267 . S
O307 Zn300 1.965 . S
O307 C318 1.260 . S
O308 Zn301 1.969 1_545 S
O308 C318 1.258 . S
C309 O306 1.267 . S
C309 O310 1.228 . S
O310 C309 1.228 . S
O311 Zn300 2.024 . S
O311 C302 1.058 . S
C312 O313 1.228 . S
C312 O314 1.267 1_565 S
O313 C312 1.228 . S
O314 Zn301 1.969 1_545 S
O314 C312 1.267 1_545 S
O315 Zn301 1.965 1_545 S
O315 C319 1.263 . S
O316 Zn300 1.969 . S
O316 C319 1.268 . S
O317 Zn301 2.024 . S
O317 C304 1.058 . S
C318 O307 1.260 . S
C318 O308 1.258 . S
C319 O315 1.263 . S
C319 O316 1.268 . S
C320 C321 1.369 . S
C320 C322 1.419 . S
C320 H324 0.930 . S
C321 C320 1.369 . S
C321 C330 1.429 . S
C322 C320 1.419 . S
C322 C323 1.363 . S
C322 H325 0.929 . S
C323 C322 1.363 . S
C323 C329 1.428 . S
H324 C320 0.930 . S
H325 C322 0.929 . S
S326 N327 1.613 . S
S326 N328 1.610 . S
N327 S326 1.613 . S
N327 C330 1.350 . S
N328 S326 1.610 . S
N328 C329 1.351 . S
C329 C323 1.428 . S
C329 N328 1.351 . S
C329 C330 1.434 . S
C330 C321 1.429 . S
C330 N327 1.350 . S
C330 C329 1.434 . S
C331 C332 1.369 . S
C331 C333 1.419 . S
C331 H335 0.930 . S
C332 C331 1.369 . S
C332 C341 1.429 . S
C333 C331 1.419 . S
C333 C334 1.363 . S
C333 H336 0.929 . S
C334 C333 1.363 . S
C334 C340 1.428 . S
H335 C331 0.930 . S
H336 C333 0.929 . S
S337 N338 1.613 . S
S337 N339 1.610 . S
N338 S337 1.613 . S
N338 C341 1.350 . S
N339 S337 1.610 . S
N339 C340 1.351 . S
C340 C334 1.428 . S
C340 N339 1.351 . S
C340 C341 1.434 . S
C341 C332 1.429 . S
C341 N338 1.350 . S
C341 C340 1.434 . S
C342 C343 1.369 . S
C342 C344 1.419 . S
C342 H346 0.930 . S
C343 C342 1.369 . S
C343 C352 1.429 . S
C344 C342 1.419 . S
C344 C345 1.363 . S
C344 H347 0.929 . S
C345 C344 1.363 . S
C345 C351 1.428 . S
H346 C342 0.930 . S
H347 C344 0.929 . S
S348 N349 1.613 . S
S348 N350 1.610 . S
N349 S348 1.613 . S
N349 C352 1.350 . S
N350 S348 1.610 . S
N350 C351 1.351 . S
C351 C345 1.428 . S
C351 N350 1.351 . S
C351 C352 1.434 . S
C352 C343 1.429 . S
C352 N349 1.350 . S
C352 C351 1.434 . S
C353 C354 1.369 1_455 S
C353 C355 1.419 . S
C353 H357 0.930 . S
C354 C353 1.369 1_655 S
C354 C363 1.429 1_556 S
C355 C353 1.419 . S
C355 C356 1.363 1_556 S
C355 H358 0.929 . S
C356 C355 1.363 1_554 S
C356 C362 1.428 1_455 S
H357 C353 0.930 . S
H358 C355 0.929 . S
S359 N360 1.613 . S
S359 N361 1.610 . S
N360 S359 1.613 . S
N360 C363 1.350 . S
N361 S359 1.610 . S
N361 C362 1.351 . S
C362 C356 1.428 1_655 S
C362 N361 1.351 . S
C362 C363 1.434 . S
C363 C354 1.429 1_554 S
C363 N360 1.350 . S
C363 C362 1.434 . S
C364 C365 1.369 . S
C364 C366 1.419 . S
C364 H368 0.930 . S
C365 C364 1.369 . S
C365 C374 1.429 . S
C366 C364 1.419 . S
C366 C367 1.363 . S
C366 H369 0.929 . S
C367 C366 1.363 . S
C367 C373 1.428 . S
H368 C364 0.930 . S
H369 C366 0.929 . S
S370 N371 1.613 . S
S370 N372 1.610 . S
N371 S370 1.613 . S
N371 C374 1.350 . S
N372 S370 1.610 . S
N372 C373 1.351 . S
C373 C367 1.428 . S
C373 N372 1.351 . S
C373 C374 1.434 . S
C374 C365 1.429 . S
C374 N371 1.350 . S
C374 C373 1.434 . S
C375 C376 1.369 . S
C375 C377 1.419 . S
C375 H379 0.930 . S
C376 C375 1.369 . S
C376 C385 1.429 . S
C377 C375 1.419 . S
C377 C378 1.363 . S
C377 H380 0.929 . S
C378 C377 1.363 . S
C378 C384 1.428 . S
H379 C375 0.930 . S
H380 C377 0.929 . S
S381 N382 1.613 . S
S381 N383 1.610 . S
N382 S381 1.613 . S
N382 C385 1.350 . S
N383 S381 1.610 . S
N383 C384 1.351 . S
C384 C378 1.428 . S
C384 N383 1.351 . S
C384 C385 1.434 . S
C385 C376 1.429 . S
C385 N382 1.350 . S
C385 C384 1.434 . S
C386 C387 1.369 1_545 S
C386 C388 1.419 . S
C386 H390 0.930 . S
C387 C386 1.369 1_565 S
C387 C396 1.429 1_654 S
C388 C386 1.419 . S
C388 C389 1.363 1_654 S
C388 H391 0.929 . S
C389 C388 1.363 1_456 S
C389 C395 1.428 1_545 S
H390 C386 0.930 . S
H391 C388 0.929 . S
S392 N393 1.613 . S
S392 N394 1.610 . S
N393 S392 1.613 . S
N393 C396 1.350 . S
N394 S392 1.610 . S
N394 C395 1.351 . S
C395 C389 1.428 1_565 S
C395 N394 1.351 . S
C395 C396 1.434 . S
C396 C387 1.429 1_456 S
C396 N393 1.350 . S
C396 C395 1.434 . S
C397 C398 1.369 1_545 S
C397 C399 1.419 . S
C397 H401 0.930 . S
C398 C397 1.369 1_565 S
C398 C407 1.429 . S
C399 C397 1.419 . S
C399 C400 1.363 . S
C399 H402 0.929 . S
C400 C399 1.363 . S
C400 C406 1.428 1_545 S
H401 C397 0.930 . S
H402 C399 0.929 . S
S403 N404 1.613 . S
S403 N405 1.610 . S
N404 S403 1.613 . S
N404 C407 1.350 . S
N405 S403 1.610 . S
N405 C406 1.351 . S
C406 C400 1.428 1_565 S
C406 N405 1.351 . S
C406 C407 1.434 . S
C407 C398 1.429 . S
C407 N404 1.350 . S
C407 C406 1.434 . S
C408 C409 1.369 . S
C408 C410 1.419 . S
C408 H412 0.930 . S
C409 C408 1.369 . S
C409 C418 1.429 . S
C410 C408 1.419 . S
C410 C411 1.363 1_556 S
C410 H413 0.929 . S
C411 C410 1.363 1_554 S
C411 C417 1.428 . S
H412 C408 0.930 . S
H413 C410 0.929 . S
S414 N415 1.613 1_554 S
S414 N416 1.610 . S
N415 S414 1.613 1_556 S
N415 C418 1.350 . S
N416 S414 1.610 . S
N416 C417 1.351 . S
C417 C411 1.428 . S
C417 N416 1.351 . S
C417 C418 1.434 1_554 S
C418 C409 1.429 . S
C418 N415 1.350 . S
C418 C417 1.434 1_556 S
C419 C420 1.369 . S
C419 C421 1.419 . S
C419 H423 0.930 . S
C420 C419 1.369 . S
C420 C429 1.429 . S
C421 C419 1.419 . S
C421 C422 1.363 . S
C421 H424 0.929 . S
C422 C421 1.363 . S
C422 C428 1.428 . S
H423 C419 0.930 . S
H424 C421 0.929 . S
S425 N426 1.613 . S
S425 N427 1.610 . S
N426 S425 1.613 . S
N426 C429 1.350 . S
N427 S425 1.610 . S
N427 C428 1.351 . S
C428 C422 1.428 . S
C428 N427 1.351 . S
C428 C429 1.434 . S
C429 C420 1.429 . S
C429 N426 1.350 . S
C429 C428 1.434 . S
C430 C431 1.369 . S
C430 C432 1.419 . S
C430 H434 0.930 . S
C431 C430 1.369 . S
C431 C440 1.429 . S
C432 C430 1.419 . S
C432 C433 1.363 . S
C432 H435 0.929 . S
C433 C432 1.363 . S
C433 C439 1.428 . S
H434 C430 0.930 . S
H435 C432 0.929 . S
S436 N437 1.613 . S
S436 N438 1.610 . S
N437 S436 1.613 . S
N437 C440 1.350 1_545 S
N438 S436 1.610 . S
N438 C439 1.351 1_545 S
C439 C433 1.428 . S
C439 N438 1.351 1_565 S
C439 C440 1.434 . S
C440 C431 1.429 . S
C440 N437 1.350 1_565 S
C440 C439 1.434 . S
C441 C442 1.369 . S
C441 C443 1.419 . S
C441 H445 0.930 . S
C442 C441 1.369 . S
C442 C451 1.429 . S
C443 C441 1.419 . S
C443 C444 1.363 . S
C443 H446 0.929 . S
C444 C443 1.363 . S
C444 C450 1.428 . S
H445 C441 0.930 . S
H446 C443 0.929 . S
S447 N448 1.613 . S
S447 N449 1.610 . S
N448 S447 1.613 . S
N448 C451 1.350 . S
N449 S447 1.610 . S
N449 C450 1.351 . S
C450 C444 1.428 . S
C450 N449 1.351 . S
C450 C451 1.434 . S
C451 C442 1.429 . S
C451 N448 1.350 . S
C451 C450 1.434 . S
C452 C453 1.369 . S
C452 C454 1.419 . S
C452 H456 0.930 . S
C453 C452 1.369 . S
C453 C462 1.429 . S
C454 C452 1.419 . S
C454 C455 1.363 1_554 S
C454 H457 0.929 . S
C455 C454 1.363 1_556 S
C455 C461 1.428 . S
H456 C452 0.930 . S
H457 C454 0.929 . S
S458 N459 1.613 . S
S458 N460 1.610 1_554 S
N459 S458 1.613 . S
N459 C462 1.350 1_545 S
N460 S458 1.610 1_556 S
N460 C461 1.351 1_545 S
C461 C455 1.428 . S
C461 N460 1.351 1_565 S
C461 C462 1.434 1_556 S
C462 C453 1.429 . S
C462 N459 1.350 1_565 S
C462 C461 1.434 1_554 S
C463 C464 1.369 . S
C463 C465 1.419 . S
C463 H467 0.930 . S
C464 C463 1.369 . S
C464 C473 1.429 . S
C465 C463 1.419 . S
C465 C466 1.363 . S
C465 H468 0.929 . S
C466 C465 1.363 . S
C466 C472 1.428 . S
H467 C463 0.930 . S
H468 C465 0.929 . S
S469 N470 1.613 . S
S469 N471 1.610 . S
N470 S469 1.613 . S
N470 C473 1.350 . S
N471 S469 1.610 . S
N471 C472 1.351 . S
C472 C466 1.428 . S
C472 N471 1.351 . S
C472 C473 1.434 . S
C473 C464 1.429 . S
C473 N470 1.350 . S
C473 C472 1.434 . S
C474 C475 1.369 . S
C474 C476 1.419 . S
C474 H478 0.930 . S
C475 C474 1.369 . S
C475 C484 1.429 . S
C476 C474 1.419 . S
C476 C477 1.363 . S
C476 H479 0.929 . S
C477 C476 1.363 . S
C477 C483 1.428 . S
H478 C474 0.930 . S
H479 C476 0.929 . S
S480 N481 1.613 . S
S480 N482 1.610 . S
N481 S480 1.613 . S
N481 C484 1.350 . S
N482 S480 1.610 . S
N482 C483 1.351 . S
C483 C477 1.428 . S
C483 N482 1.351 . S
C483 C484 1.434 . S
C484 C475 1.429 . S
C484 N481 1.350 . S
C484 C483 1.434 . S
C485 C486 1.369 . S
C485 C487 1.419 . S
C485 H489 0.930 . S
C486 C485 1.369 . S
C486 C495 1.429 . S
C487 C485 1.419 . S
C487 C488 1.363 . S
C487 H490 0.929 . S
C488 C487 1.363 . S
C488 C494 1.428 . S
H489 C485 0.930 . S
H490 C487 0.929 . S
S491 N492 1.613 . S
S491 N493 1.610 . S
N492 S491 1.613 . S
N492 C495 1.350 . S
N493 S491 1.610 . S
N493 C494 1.351 . S
C494 C488 1.428 . S
C494 N493 1.351 . S
C494 C495 1.434 . S
C495 C486 1.429 . S
C495 N492 1.350 . S
C495 C494 1.434 . S
C496 C497 1.369 . S
C496 C498 1.419 . S
C496 H500 0.930 . S
C497 C496 1.369 . S
C497 C506 1.429 . S
C498 C496 1.419 . S
C498 C499 1.363 . S
C498 H501 0.929 . S
C499 C498 1.363 . S
C499 C505 1.428 . S
H500 C496 0.930 . S
H501 C498 0.929 . S
S502 N503 1.613 . S
S502 N504 1.610 . S
N503 S502 1.613 . S
N503 C506 1.350 . S
N504 S502 1.610 . S
N504 C505 1.351 . S
C505 C499 1.428 . S
C505 N504 1.351 . S
C505 C506 1.434 . S
C506 C497 1.429 . S
C506 N503 1.350 . S
C506 C505 1.434 . S
C507 C508 1.369 1_545 S
C507 C509 1.419 1_545 S
C507 H511 0.930 . S
C508 C507 1.369 1_565 S
C508 C517 1.429 . S
C509 C507 1.419 1_565 S
C509 C510 1.363 . S
C509 H512 0.929 1_565 S
C510 C509 1.363 . S
C510 C516 1.428 . S
H511 C507 0.930 . S
H512 C509 0.929 1_545 S
S513 N514 1.613 . S
S513 N515 1.610 . S
N514 S513 1.613 . S
N514 C517 1.350 . S
N515 S513 1.610 . S
N515 C516 1.351 . S
C516 C510 1.428 . S
C516 N515 1.351 . S
C516 C517 1.434 . S
C517 C508 1.429 . S
C517 N514 1.350 . S
C517 C516 1.434 . S
C518 C519 1.369 . S
C518 C520 1.419 1_554 S
C518 H522 0.930 . S
C519 C518 1.369 . S
C519 C528 1.429 1_554 S
C520 C518 1.419 1_556 S
C520 C521 1.363 . S
C520 H523 0.929 . S
C521 C520 1.363 . S
C521 C527 1.428 . S
H522 C518 0.930 . S
H523 C520 0.929 . S
S524 N525 1.613 . S
S524 N526 1.610 . S
N525 S524 1.613 . S
N525 C528 1.350 . S
N526 S524 1.610 . S
N526 C527 1.351 . S
C527 C521 1.428 . S
C527 N526 1.351 . S
C527 C528 1.434 . S
C528 C519 1.429 1_556 S
C528 N525 1.350 . S
C528 C527 1.434 . S
C529 C530 1.369 . S
C529 C531 1.419 . S
C529 H533 0.930 . S
C530 C529 1.369 . S
C530 C539 1.429 . S
C531 C529 1.419 . S
C531 C532 1.363 . S
C531 H534 0.929 1_545 S
C532 C531 1.363 . S
C532 C538 1.428 . S
H533 C529 0.930 . S
H534 C531 0.929 1_565 S
S535 N536 1.613 . S
S535 N537 1.610 . S
N536 S535 1.613 . S
N536 C539 1.350 . S
N537 S535 1.610 . S
N537 C538 1.351 . S
C538 C532 1.428 . S
C538 N537 1.351 . S
C538 C539 1.434 . S
C539 C530 1.429 . S
C539 N536 1.350 . S
C539 C538 1.434 . S
C540 C541 1.369 . S
C540 C542 1.419 . S
C540 H544 0.930 . S
C541 C540 1.369 . S
C541 C550 1.429 . S
C542 C540 1.419 . S
C542 C543 1.363 . S
C542 H545 0.929 . S
C543 C542 1.363 . S
C543 C549 1.428 . S
H544 C540 0.930 . S
H545 C542 0.929 . S
S546 N547 1.613 . S
S546 N548 1.610 . S
N547 S546 1.613 . S
N547 C550 1.350 . S
N548 S546 1.610 . S
N548 C549 1.351 . S
C549 C543 1.428 . S
C549 N548 1.351 . S
C549 C550 1.434 . S
C550 C541 1.429 . S
C550 N547 1.350 . S
C550 C549 1.434 . S
C551 C552 1.369 . S
C551 C553 1.419 . S
C551 H555 0.930 . S
C552 C551 1.369 . S
C552 C561 1.428 . S
C553 C551 1.419 . S
C553 C554 1.363 . S
C553 H556 0.929 . S
C554 C553 1.363 . S
C554 C560 1.428 . S
H555 C551 0.930 . S
H556 C553 0.929 . S
S557 N558 1.613 . S
S557 N559 1.610 . S
N558 S557 1.613 . S
N558 C561 1.350 1_565 S
N559 S557 1.610 . S
N559 C560 1.351 1_565 S
C560 C554 1.428 . S
C560 N559 1.351 1_545 S
C560 C561 1.434 . S
C561 C552 1.428 . S
C561 N558 1.350 1_545 S
C561 C560 1.434 . S
C562 C563 1.369 . S
C562 C564 1.410 1_554 S
C562 H566 0.930 . S
C563 C562 1.369 . S
C563 C572 1.429 . S
C564 C562 1.410 1_556 S
C564 C565 1.367 . S
C564 H567 0.934 . S
C565 C564 1.367 . S
C565 C571 1.428 1_556 S
H566 C562 0.930 . S
H567 C564 0.934 . S
S568 N569 1.613 . S
S568 N570 1.616 . S
N569 S568 1.613 . S
N569 C572 1.350 . S
N570 S568 1.616 . S
N570 C571 1.353 . S
C571 C565 1.428 1_554 S
C571 N570 1.353 . S
C571 C572 1.434 . S
C572 C563 1.429 . S
C572 N569 1.350 . S
C572 C571 1.434 . S
C573 C574 1.369 1_545 S
C573 C575 1.419 1_545 S
C573 H577 0.930 . S
C574 C573 1.369 1_565 S
C574 C583 1.429 . S
C575 C573 1.419 1_565 S
C575 C576 1.363 . S
C575 H578 0.929 1_565 S
C576 C575 1.363 . S
C576 C582 1.428 . S
H577 C573 0.930 . S
H578 C575 0.929 1_545 S
S579 N580 1.613 . S
S579 N581 1.610 . S
N580 S579 1.613 . S
N580 C583 1.350 . S
N581 S579 1.610 . S
N581 C582 1.351 . S
C582 C576 1.428 . S
C582 N581 1.351 . S
C582 C583 1.434 . S
C583 C574 1.429 . S
C583 N580 1.350 . S
C583 C582 1.434 . S
C584 C585 1.369 . S
C584 C586 1.419 . S
C584 H588 0.930 . S
C585 C584 1.369 . S
C585 C594 1.429 . S
C586 C584 1.419 . S
C586 C587 1.363 . S
C586 H589 0.929 . S
C587 C586 1.363 . S
C587 C593 1.428 . S
H588 C584 0.930 . S
H589 C586 0.929 . S
S590 N591 1.613 . S
S590 N592 1.610 . S
N591 S590 1.613 . S
N591 C594 1.350 . S
N592 S590 1.610 . S
N592 C593 1.351 . S
C593 C587 1.428 . S
C593 N592 1.351 . S
C593 C594 1.434 . S
C594 C585 1.429 . S
C594 N591 1.350 . S
C594 C593 1.434 . S
C595 C596 1.369 . S
C595 C597 1.419 . S
C595 H599 0.930 . S
C596 C595 1.369 . S
C596 C605 1.429 . S
C597 C595 1.419 . S
C597 C598 1.363 . S
C597 H600 0.929 . S
C598 C597 1.363 . S
C598 C604 1.428 . S
H599 C595 0.930 . S
H600 C597 0.929 . S
S601 N602 1.613 . S
S601 N603 1.610 . S
N602 S601 1.613 . S
N602 C605 1.350 . S
N603 S601 1.610 . S
N603 C604 1.351 . S
C604 C598 1.428 . S
C604 N603 1.351 . S
C604 C605 1.434 . S
C605 C596 1.429 . S
C605 N602 1.350 . S
C605 C604 1.434 . S
C606 C607 1.369 . S
C606 C608 1.419 1_655 S
C606 H610 0.930 . S
C607 C606 1.369 . S
C607 C616 1.429 . S
C608 C606 1.419 1_455 S
C608 C609 1.363 . S
C608 H611 0.929 . S
C609 C608 1.363 . S
C609 C615 1.428 . S
H610 C606 0.930 . S
H611 C608 0.929 . S
S612 N613 1.613 1_455 S
S612 N614 1.610 . S
N613 S612 1.613 1_655 S
N613 C616 1.350 . S
N614 S612 1.610 . S
N614 C615 1.351 . S
C615 C609 1.428 . S
C615 N614 1.351 . S
C615 C616 1.434 1_455 S
C616 C607 1.429 . S
C616 N613 1.350 . S
C616 C615 1.434 1_655 S
C617 C618 1.369 . S
C617 C619 1.419 . S
C617 H621 0.930 . S
C618 C617 1.369 . S
C618 C627 1.429 1_655 S
C619 C617 1.419 . S
C619 C620 1.363 1_655 S
C619 H622 0.929 . S
C620 C619 1.363 1_455 S
C620 C626 1.428 . S
H621 C617 0.930 . S
H622 C619 0.929 . S
S623 N624 1.613 . S
S623 N625 1.610 . S
N624 S623 1.613 . S
N624 C627 1.350 . S
N625 S623 1.610 . S
N625 C626 1.351 . S
C626 C620 1.428 . S
C626 N625 1.351 . S
C626 C627 1.434 . S
C627 C618 1.429 1_455 S
C627 N624 1.350 . S
C627 C626 1.434 . S
C628 C629 1.369 . S
C628 C630 1.419 . S
C628 H632 0.930 . S
C629 C628 1.369 . S
C629 C638 1.429 . S
C630 C628 1.419 . S
C630 C631 1.363 . S
C630 H633 0.929 . S
C631 C630 1.363 . S
C631 C637 1.428 . S
H632 C628 0.930 . S
H633 C630 0.929 . S
S634 N635 1.613 . S
S634 N636 1.610 . S
N635 S634 1.613 . S
N635 C638 1.350 . S
N636 S634 1.610 . S
N636 C637 1.351 . S
C637 C631 1.428 . S
C637 N636 1.351 . S
C637 C638 1.434 . S
C638 C629 1.429 . S
C638 N635 1.350 . S
C638 C637 1.434 . S
C639 C640 1.369 . S
C639 C641 1.419 . S
C639 H643 0.930 . S
C640 C639 1.369 . S
C640 C649 1.429 . S
C641 C639 1.419 . S
C641 C642 1.363 . S
C641 H644 0.929 . S
C642 C641 1.363 . S
C642 C648 1.428 . S
H643 C639 0.930 . S
H644 C641 0.929 . S
S645 N646 1.613 . S
S645 N647 1.610 . S
N646 S645 1.613 . S
N646 C649 1.350 . S
N647 S645 1.610 . S
N647 C648 1.351 . S
C648 C642 1.428 . S
C648 N647 1.351 . S
C648 C649 1.434 . S
C649 C640 1.429 . S
C649 N646 1.350 . S
C649 C648 1.434 . S
C650 C651 1.369 . S
C650 C652 1.419 1_455 S
C650 H654 0.930 . S
C651 C650 1.369 . S
C651 C660 1.429 . S
C652 C650 1.419 1_655 S
C652 C653 1.363 . S
C652 H655 0.929 . S
C653 C652 1.363 . S
C653 C659 1.428 . S
H654 C650 0.930 . S
H655 C652 0.929 . S
S656 N657 1.613 1_655 S
S656 N658 1.610 . S
N657 S656 1.613 1_455 S
N657 C660 1.350 . S
N658 S656 1.610 . S
N658 C659 1.351 . S
C659 C653 1.428 . S
C659 N658 1.351 . S
C659 C660 1.434 1_655 S
C660 C651 1.429 . S
C660 N657 1.350 . S
C660 C659 1.434 1_455 S
C661 C662 1.369 . S
C661 C663 1.419 . S
C661 H665 0.930 . S
C662 C661 1.369 . S
C662 C671 1.429 1_455 S
C663 C661 1.419 . S
C663 C664 1.363 1_455 S
C663 H666 0.929 . S
C664 C663 1.363 1_655 S
C664 C670 1.428 . S
H665 C661 0.930 . S
H666 C663 0.929 . S
S667 N668 1.613 . S
S667 N669 1.610 . S
N668 S667 1.613 . S
N668 C671 1.350 . S
N669 S667 1.610 . S
N669 C670 1.351 . S
C670 C664 1.428 . S
C670 N669 1.351 . S
C670 C671 1.434 . S
C671 C662 1.429 1_655 S
C671 N668 1.350 . S
C671 C670 1.434 . S
C672 C673 1.369 . S
C672 C674 1.419 . S
C672 H676 0.930 . S
C673 C672 1.369 . S
C673 C682 1.429 . S
C674 C672 1.419 . S
C674 C675 1.363 . S
C674 H677 0.929 . S
C675 C674 1.363 . S
C675 C681 1.428 . S
H676 C672 0.930 . S
H677 C674 0.929 . S
S678 N679 1.613 . S
S678 N680 1.610 . S
N679 S678 1.613 . S
N679 C682 1.350 . S
N680 S678 1.610 . S
N680 C681 1.351 . S
C681 C675 1.428 . S
C681 N680 1.351 . S
C681 C682 1.434 . S
C682 C673 1.429 . S
C682 N679 1.350 . S
C682 C681 1.434 . S
C683 C684 1.369 . S
C683 C685 1.419 . S
C683 H687 0.930 . S
C684 C683 1.369 . S
C684 C693 1.429 . S
C685 C683 1.419 . S
C685 C686 1.363 . S
C685 H688 0.929 . S
C686 C685 1.363 . S
C686 C692 1.428 . S
H687 C683 0.930 . S
H688 C685 0.929 . S
S689 N690 1.613 . S
S689 N691 1.610 . S
N690 S689 1.613 . S
N690 C693 1.350 . S
N691 S689 1.610 . S
N691 C692 1.351 . S
C692 C686 1.428 . S
C692 N691 1.351 . S
C692 C693 1.434 . S
C693 C684 1.429 . S
C693 N690 1.350 . S
C693 C692 1.434 . S
C694 C695 1.369 . S
C694 C696 1.419 . S
C694 H698 0.930 . S
C695 C694 1.369 . S
C695 C704 1.429 . S
C696 C694 1.419 . S
C696 C697 1.363 . S
C696 H699 0.929 . S
C697 C696 1.363 . S
C697 C703 1.428 . S
H698 C694 0.930 . S
H699 C696 0.929 . S
S700 N701 1.613 . S
S700 N702 1.610 . S
N701 S700 1.613 . S
N701 C704 1.350 . S
N702 S700 1.610 . S
N702 C703 1.351 . S
C703 C697 1.428 . S
C703 N702 1.351 . S
C703 C704 1.434 . S
C704 C695 1.429 . S
C704 N701 1.350 . S
C704 C703 1.434 . S
C705 C706 1.369 1_455 S
C705 C707 1.419 . S
C705 H709 0.930 . S
C706 C705 1.369 1_655 S
C706 C715 1.429 1_655 S
C707 C705 1.419 . S
C707 C708 1.363 . S
C707 H710 0.929 . S
C708 C707 1.363 . S
C708 C714 1.428 . S
H709 C705 0.930 . S
H710 C707 0.929 . S
S711 N712 1.613 . S
S711 N713 1.610 . S
N712 S711 1.613 . S
N712 C715 1.350 . S
N713 S711 1.610 . S
N713 C714 1.351 . S
C714 C708 1.428 . S
C714 N713 1.351 . S
C714 C715 1.434 . S
C715 C706 1.429 1_455 S
C715 N712 1.350 . S
C715 C714 1.434 . S
C716 C717 1.369 . S
C716 C718 1.419 . S
C716 H720 0.930 . S
C717 C716 1.369 . S
C717 C726 1.429 . S
C718 C716 1.419 . S
C718 C719 1.363 . S
C718 H721 0.929 . S
C719 C718 1.363 . S
C719 C725 1.428 . S
H720 C716 0.930 . S
H721 C718 0.929 . S
S722 N723 1.613 . S
S722 N724 1.610 . S
N723 S722 1.613 . S
N723 C726 1.350 . S
N724 S722 1.610 . S
N724 C725 1.351 . S
C725 C719 1.428 . S
C725 N724 1.351 . S
C725 C726 1.434 . S
C726 C717 1.429 . S
C726 N723 1.350 . S
C726 C725 1.434 . S
C727 C728 1.369 . S
C727 C729 1.419 . S
C727 H731 0.930 . S
C728 C727 1.369 . S
C728 C737 1.429 . S
C729 C727 1.419 . S
C729 C730 1.363 . S
C729 H732 0.929 . S
C730 C729 1.363 . S
C730 C736 1.428 . S
H731 C727 0.930 . S
H732 C729 0.929 . S
S733 N734 1.613 . S
S733 N735 1.610 . S
N734 S733 1.613 . S
N734 C737 1.350 . S
N735 S733 1.610 . S
N735 C736 1.351 . S
C736 C730 1.428 . S
C736 N735 1.351 . S
C736 C737 1.434 . S
C737 C728 1.429 . S
C737 N734 1.350 . S
C737 C736 1.434 . S
C738 C739 1.369 . S
C738 C740 1.419 . S
C738 H742 0.930 . S
C739 C738 1.369 . S
C739 C748 1.429 . S
C740 C738 1.419 . S
C740 C741 1.363 . S
C740 H743 0.929 . S
C741 C740 1.363 . S
C741 C747 1.428 . S
H742 C738 0.930 . S
H743 C740 0.929 . S
S744 N745 1.613 . S
S744 N746 1.610 . S
N745 S744 1.613 . S
N745 C748 1.350 . S
N746 S744 1.610 . S
N746 C747 1.351 . S
C747 C741 1.428 . S
C747 N746 1.351 . S
C747 C748 1.434 . S
C748 C739 1.429 . S
C748 N745 1.350 . S
C748 C747 1.434 . S
C749 C750 1.369 . S
C749 C751 1.419 . S
C749 H753 0.930 . S
C750 C749 1.369 . S
C750 C759 1.429 . S
C751 C749 1.419 . S
C751 C752 1.363 1_655 S
C751 H754 0.929 . S
C752 C751 1.363 1_455 S
C752 C758 1.428 1_455 S
H753 C749 0.930 . S
H754 C751 0.929 . S
S755 N756 1.613 . S
S755 N757 1.610 1_655 S
N756 S755 1.613 . S
N756 C759 1.350 . S
N757 S755 1.610 1_455 S
N757 C758 1.351 1_455 S
C758 C752 1.428 1_655 S
C758 N757 1.351 1_655 S
C758 C759 1.434 . S
C759 C750 1.429 . S
C759 N756 1.350 . S
C759 C758 1.434 . S
C760 C761 1.369 . S
C760 C762 1.419 . S
C760 H764 0.930 . S
C761 C760 1.369 . S
C761 C770 1.429 . S
C762 C760 1.419 . S
C762 C763 1.363 . S
C762 H765 0.929 . S
C763 C762 1.363 . S
C763 C769 1.428 . S
H764 C760 0.930 . S
H765 C762 0.929 . S
S766 N767 1.613 . S
S766 N768 1.610 . S
N767 S766 1.613 . S
N767 C770 1.350 . S
N768 S766 1.610 . S
N768 C769 1.351 . S
C769 C763 1.428 . S
C769 N768 1.351 . S
C769 C770 1.434 . S
C770 C761 1.429 . S
C770 N767 1.350 . S
C770 C769 1.434 . S
C771 C772 1.369 . S
C771 C773 1.419 . S
C771 H775 0.930 . S
C772 C771 1.369 . S
C772 C781 1.429 . S
C773 C771 1.419 . S
C773 C774 1.363 1_655 S
C773 H776 0.929 1_655 S
C774 C773 1.363 1_455 S
C774 C780 1.428 1_465 S
H775 C771 0.930 . S
H776 C773 0.929 1_455 S
S777 N778 1.613 . S
S777 N779 1.610 . S
N778 S777 1.613 . S
N778 C781 1.350 1_545 S
N779 S777 1.610 . S
N779 C780 1.351 . S
C780 C774 1.428 1_645 S
C780 N779 1.351 . S
C780 C781 1.434 1_545 S
C781 C772 1.429 . S
C781 N778 1.350 1_565 S
C781 C780 1.434 1_565 S
C782 C783 1.369 . S
C782 C784 1.419 . S
C782 H786 0.930 . S
C783 C782 1.369 . S
C783 C792 1.429 . S
C784 C782 1.419 . S
C784 C785 1.363 . S
C784 H787 0.929 . S
C785 C784 1.363 . S
C785 C791 1.428 . S
H786 C782 0.930 . S
H787 C784 0.929 . S
S788 N789 1.613 . S
S788 N790 1.610 . S
N789 S788 1.613 . S
N789 C792 1.350 . S
N790 S788 1.610 . S
N790 C791 1.351 . S
C791 C785 1.428 . S
C791 N790 1.351 . S
C791 C792 1.434 . S
C792 C783 1.429 . S
C792 N789 1.350 . S
C792 C791 1.434 . S
C793 C794 1.369 . S
C793 C795 1.419 . S
C793 H797 0.930 . S
C794 C793 1.369 . S
C794 C803 1.429 1_545 S
C795 C793 1.419 . S
C795 C796 1.363 . S
C795 H798 0.929 . S
C796 C795 1.363 . S
C796 C802 1.428 . S
H797 C793 0.930 . S
H798 C795 0.929 . S
S799 N800 1.613 . S
S799 N801 1.610 . S
N800 S799 1.613 . S
N800 C803 1.350 . S
N801 S799 1.610 . S
N801 C802 1.351 1_565 S
C802 C796 1.428 . S
C802 N801 1.351 1_545 S
C802 C803 1.434 1_545 S
C803 C794 1.429 1_565 S
C803 N800 1.350 . S
C803 C802 1.434 1_565 S
C804 C805 1.369 . S
C804 C806 1.419 . S
C804 H808 0.930 . S
C805 C804 1.369 . S
C805 C814 1.429 . S
C806 C804 1.419 . S
C806 C807 1.363 . S
C806 H809 0.929 . S
C807 C806 1.363 . S
C807 C813 1.428 . S
H808 C804 0.930 . S
H809 C806 0.929 . S
S810 N811 1.613 . S
S810 N812 1.610 . S
N811 S810 1.613 . S
N811 C814 1.350 . S
N812 S810 1.610 . S
N812 C813 1.351 . S
C813 C807 1.428 . S
C813 N812 1.351 . S
C813 C814 1.434 . S
C814 C805 1.429 . S
C814 N811 1.350 . S
C814 C813 1.434 . S
C815 C816 1.369 1_455 S
C815 C817 1.419 . S
C815 H819 0.930 1_455 S
C816 C815 1.369 1_655 S
C816 C825 1.418 1_645 S
C817 C815 1.419 . S
C817 C818 1.363 . S
C817 H820 0.929 . S
C818 C817 1.363 . S
C818 C824 1.428 . S
H819 C815 0.930 1_655 S
H820 C817 0.929 . S
S821 N822 1.613 . S
S821 N823 1.610 . S
N822 S821 1.613 . S
N822 C825 1.367 . S
N823 S821 1.610 . S
N823 C824 1.351 1_565 S
C824 C818 1.428 . S
C824 N823 1.351 1_545 S
C824 C825 1.428 1_545 S
C825 C816 1.418 1_465 S
C825 N822 1.367 . S
C825 C824 1.428 1_565 S
C826 C827 1.369 . S
C826 C828 1.419 . S
C826 H830 0.930 . S
C827 C826 1.369 . S
C827 C836 1.429 . S
C828 C826 1.419 . S
C828 C829 1.363 . S
C828 H831 0.929 . S
C829 C828 1.363 . S
C829 C835 1.428 . S
H830 C826 0.930 . S
H831 C828 0.929 . S
S832 N833 1.613 . S
S832 N834 1.610 . S
N833 S832 1.613 . S
N833 C836 1.350 . S
N834 S832 1.610 . S
N834 C835 1.351 . S
C835 C829 1.428 . S
C835 N834 1.351 . S
C835 C836 1.434 . S
C836 C827 1.429 . S
C836 N833 1.350 . S
C836 C835 1.434 . S
C837 C838 1.369 . S
C837 C839 1.419 1_565 S
C837 H841 0.930 1_565 S
C838 C837 1.369 . S
C838 C847 1.429 . S
C839 C837 1.419 1_545 S
C839 C840 1.363 1_545 S
C839 H842 0.929 . S
C840 C839 1.363 1_565 S
C840 C846 1.428 . S
H841 C837 0.930 1_545 S
H842 C839 0.929 . S
S843 N844 1.613 . S
S843 N845 1.610 . S
N844 S843 1.613 . S
N844 C847 1.350 . S
N845 S843 1.610 . S
N845 C846 1.351 . S
C846 C840 1.428 . S
C846 N845 1.351 . S
C846 C847 1.434 . S
C847 C838 1.429 . S
C847 N844 1.350 . S
C847 C846 1.434 . S
C321 C12 0.809 . S
C323 C249 0.822 . S
C332 C109 0.828 . S
C334 C32 0.808 . S
C343 C52 0.814 . S
C345 C289 0.819 . S
C354 C72 0.812 . S
C356 C149 0.819 . S
C365 C89 0.824 . S
C367 C172 0.811 . S
C376 C212 0.806 . S
C378 C129 0.825 . S
C387 C269 0.819 . S
C389 C192 0.814 . S
C398 C232 0.827 . S
C400 C309 0.809 . S
C409 C199 1.749 . S
C411 C9 1.773 . S
C420 C29 1.773 . S
C422 C219 1.748 . S
C431 C49 1.781 . S
C433 C239 1.748 . S
C442 C179 1.750 . S
C444 C69 1.773 . S
C453 C278 1.745 . S
C455 C92 1.777 . S
C464 C298 1.751 . S
C466 C112 1.773 . S
C475 C132 1.782 . S
C477 C318 1.750 . S
C486 C258 1.756 . S
C488 C152 1.776 . S
C497 C169 1.772 . S
C499 C39 1.751 . S
C508 C189 1.773 . S
C510 C59 1.748 . S
C519 C209 1.779 . S
C521 C79 1.754 . S
C530 C19 1.745 . S
C532 C229 1.776 . S
C541 C118 1.746 . S
C543 C252 1.775 . S
C552 C272 1.779 . S
C554 C138 1.754 . S
C563 C158 1.756 . S
C565 C292 1.775 . S
C574 C312 1.773 . S
C576 C98 1.748 . S
C585 C4 1.818 . S
C587 C204 1.820 . S
C596 C24 1.815 . S
C598 C224 1.815 . S
C607 C164 1.821 . S
C609 C44 1.817 . S
C618 C64 1.815 . S
C620 C184 1.819 . S
C629 C82 1.821 . S
C631 C282 1.817 . S
C640 C102 1.821 . S
C642 C302 1.818 . S
C651 C242 1.817 . S
C653 C122 1.814 . S
C662 C142 1.813 . S
C664 C262 1.817 . S
C673 C18 1.468 . S
C675 C144 1.575 . S
C684 C244 1.572 . S
C686 C38 1.461 . S
C695 C58 1.461 . S
C697 C104 1.573 . S
C706 C78 1.467 . S
C708 C284 1.575 . S
C717 C99 1.464 . S
C719 C62 1.573 . S
C728 C162 1.571 . S
C730 C119 1.459 . S
C739 C139 1.458 . S
C741 C22 1.572 . S
C750 C202 1.576 . S
C752 C159 1.466 . S
C761 C178 1.463 . S
C763 C304 1.574 . S
C772 C84 1.571 . S
C774 C198 1.449 1_565 S
C783 C264 1.574 . S
C785 C218 1.463 . S
C794 C238 1.449 1_545 S
C796 C124 1.572 . S
C805 C259 1.468 . S
C807 C222 1.575 . S
C816 C279 1.455 1_545 S
C818 C2 1.574 . S
C827 C182 1.571 . S
C829 C299 1.459 . S
C838 C42 1.575 . S
C840 C319 1.456 1_565 S
