# Generated by pormake.
# Topology wmt, (6)-cn, num edge types: 1
# Building blocks:
#     Node 0, Type 0, BuildingBlock: BETFEN_clean_sbu_0, # of connection points: 6
#     Node 1, Type 0, BuildingBlock: BETFEN_clean_sbu_0, # of connection points: 6
#     Node 2, Type 0, BuildingBlock: BETFEN_clean_sbu_0, # of connection points: 6
#     Node 3, Type 0, BuildingBlock: BETFEN_clean_sbu_0, # of connection points: 6
#     Node 4, Type 0, BuildingBlock: BETFEN_clean_sbu_0, # of connection points: 6
#     Node 5, Type 0, BuildingBlock: BETFEN_clean_sbu_0, # of connection points: 6
#     Node 6, Type 0, BuildingBlock: BETFEN_clean_sbu_0, # of connection points: 6
#     Node 7, Type 0, BuildingBlock: BETFEN_clean_sbu_0, # of connection points: 6
#     Node 8, Type 0, BuildingBlock: BETFEN_clean_sbu_0, # of connection points: 6
#     Node 9, Type 0, BuildingBlock: BETFEN_clean_sbu_0, # of connection points: 6
#     Node 10, Type 0, BuildingBlock: BETFEN_clean_sbu_0, # of connection points: 6
#     Node 11, Type 0, BuildingBlock: BETFEN_clean_sbu_0, # of connection points: 6
#     Node 12, Type 0, BuildingBlock: BETFEN_clean_sbu_0, # of connection points: 6
#     Node 13, Type 0, BuildingBlock: BETFEN_clean_sbu_0, # of connection points: 6
#     Node 14, Type 0, BuildingBlock: BETFEN_clean_sbu_0, # of connection points: 6
#     Node 15, Type 0, BuildingBlock: BETFEN_clean_sbu_0, # of connection points: 6
#     Node 16, Type 0, BuildingBlock: BETFEN_clean_sbu_0, # of connection points: 6
#     Node 17, Type 0, BuildingBlock: BETFEN_clean_sbu_0, # of connection points: 6
#     Node 18, Type 0, BuildingBlock: BETFEN_clean_sbu_0, # of connection points: 6
#     Node 19, Type 0, BuildingBlock: BETFEN_clean_sbu_0, # of connection points: 6
#     Node 20, Type 0, BuildingBlock: BETFEN_clean_sbu_0, # of connection points: 6
#     Node 21, Type 0, BuildingBlock: BETFEN_clean_sbu_0, # of connection points: 6
#     Node 22, Type 0, BuildingBlock: BETFEN_clean_sbu_0, # of connection points: 6
#     Node 23, Type 0, BuildingBlock: BETFEN_clean_sbu_0, # of connection points: 6
#     Node 24, Type 0, BuildingBlock: BETFEN_clean_sbu_0, # of connection points: 6
#     Node 25, Type 0, BuildingBlock: BETFEN_clean_sbu_0, # of connection points: 6
#     Node 26, Type 0, BuildingBlock: BETFEN_clean_sbu_0, # of connection points: 6
#     Node 27, Type 0, BuildingBlock: BETFEN_clean_sbu_0, # of connection points: 6
#     Node 28, Type 0, BuildingBlock: BETFEN_clean_sbu_0, # of connection points: 6
#     Node 29, Type 0, BuildingBlock: BETFEN_clean_sbu_0, # of connection points: 6
#     Node 30, Type 0, BuildingBlock: BETFEN_clean_sbu_0, # of connection points: 6
#     Node 31, Type 0, BuildingBlock: BETFEN_clean_sbu_0, # of connection points: 6
#     Node 32, Type 0, BuildingBlock: BETFEN_clean_sbu_0, # of connection points: 6
#     Node 33, Type 0, BuildingBlock: BETFEN_clean_sbu_0, # of connection points: 6
#     Node 34, Type 0, BuildingBlock: BETFEN_clean_sbu_0, # of connection points: 6
#     Node 35, Type 0, BuildingBlock: BETFEN_clean_sbu_0, # of connection points: 6
#     Edge 36, Type (0, 0), BuildingBlock: CIFDUS_clean_linker_0, # of connection points: 2
#     Edge 37, Type (0, 0), BuildingBlock: CIFDUS_clean_linker_0, # of connection points: 2
#     Edge 38, Type (0, 0), BuildingBlock: CIFDUS_clean_linker_0, # of connection points: 2
#     Edge 39, Type (0, 0), BuildingBlock: CIFDUS_clean_linker_0, # of connection points: 2
#     Edge 40, Type (0, 0), BuildingBlock: CIFDUS_clean_linker_0, # of connection points: 2
#     Edge 41, Type (0, 0), BuildingBlock: CIFDUS_clean_linker_0, # of connection points: 2
#     Edge 42, Type (0, 0), BuildingBlock: CIFDUS_clean_linker_0, # of connection points: 2
#     Edge 43, Type (0, 0), BuildingBlock: CIFDUS_clean_linker_0, # of connection points: 2
#     Edge 44, Type (0, 0), BuildingBlock: CIFDUS_clean_linker_0, # of connection points: 2
#     Edge 45, Type (0, 0), BuildingBlock: CIFDUS_clean_linker_0, # of connection points: 2
#     Edge 46, Type (0, 0), BuildingBlock: CIFDUS_clean_linker_0, # of connection points: 2
#     Edge 47, Type (0, 0), BuildingBlock: CIFDUS_clean_linker_0, # of connection points: 2
#     Edge 48, Type (0, 0), BuildingBlock: CIFDUS_clean_linker_0, # of connection points: 2
#     Edge 49, Type (0, 0), BuildingBlock: CIFDUS_clean_linker_0, # of connection points: 2
#     Edge 50, Type (0, 0), BuildingBlock: CIFDUS_clean_linker_0, # of connection points: 2
#     Edge 51, Type (0, 0), BuildingBlock: CIFDUS_clean_linker_0, # of connection points: 2
#     Edge 52, Type (0, 0), BuildingBlock: CIFDUS_clean_linker_0, # of connection points: 2
#     Edge 53, Type (0, 0), BuildingBlock: CIFDUS_clean_linker_0, # of connection points: 2
#     Edge 54, Type (0, 0), BuildingBlock: CIFDUS_clean_linker_0, # of connection points: 2
#     Edge 55, Type (0, 0), BuildingBlock: CIFDUS_clean_linker_0, # of connection points: 2
#     Edge 56, Type (0, 0), BuildingBlock: CIFDUS_clean_linker_0, # of connection points: 2
#     Edge 57, Type (0, 0), BuildingBlock: CIFDUS_clean_linker_0, # of connection points: 2
#     Edge 58, Type (0, 0), BuildingBlock: CIFDUS_clean_linker_0, # of connection points: 2
#     Edge 59, Type (0, 0), BuildingBlock: CIFDUS_clean_linker_0, # of connection points: 2
#     Edge 60, Type (0, 0), BuildingBlock: CIFDUS_clean_linker_0, # of connection points: 2
#     Edge 61, Type (0, 0), BuildingBlock: CIFDUS_clean_linker_0, # of connection points: 2
#     Edge 62, Type (0, 0), BuildingBlock: CIFDUS_clean_linker_0, # of connection points: 2
#     Edge 63, Type (0, 0), BuildingBlock: CIFDUS_clean_linker_0, # of connection points: 2
#     Edge 64, Type (0, 0), BuildingBlock: CIFDUS_clean_linker_0, # of connection points: 2
#     Edge 65, Type (0, 0), BuildingBlock: CIFDUS_clean_linker_0, # of connection points: 2
#     Edge 66, Type (0, 0), BuildingBlock: CIFDUS_clean_linker_0, # of connection points: 2
#     Edge 67, Type (0, 0), BuildingBlock: CIFDUS_clean_linker_0, # of connection points: 2
#     Edge 68, Type (0, 0), BuildingBlock: CIFDUS_clean_linker_0, # of connection points: 2
#     Edge 69, Type (0, 0), BuildingBlock: CIFDUS_clean_linker_0, # of connection points: 2
#     Edge 70, Type (0, 0), BuildingBlock: CIFDUS_clean_linker_0, # of connection points: 2
#     Edge 71, Type (0, 0), BuildingBlock: CIFDUS_clean_linker_0, # of connection points: 2
#     Edge 72, Type (0, 0), BuildingBlock: CIFDUS_clean_linker_0, # of connection points: 2
#     Edge 73, Type (0, 0), BuildingBlock: CIFDUS_clean_linker_0, # of connection points: 2
#     Edge 74, Type (0, 0), BuildingBlock: CIFDUS_clean_linker_0, # of connection points: 2
#     Edge 75, Type (0, 0), BuildingBlock: CIFDUS_clean_linker_0, # of connection points: 2
#     Edge 76, Type (0, 0), BuildingBlock: CIFDUS_clean_linker_0, # of connection points: 2
#     Edge 77, Type (0, 0), BuildingBlock: CIFDUS_clean_linker_0, # of connection points: 2
#     Edge 78, Type (0, 0), BuildingBlock: CIFDUS_clean_linker_0, # of connection points: 2
#     Edge 79, Type (0, 0), BuildingBlock: CIFDUS_clean_linker_0, # of connection points: 2
#     Edge 80, Type (0, 0), BuildingBlock: CIFDUS_clean_linker_0, # of connection points: 2
#     Edge 81, Type (0, 0), BuildingBlock: CIFDUS_clean_linker_0, # of connection points: 2
#     Edge 82, Type (0, 0), BuildingBlock: CIFDUS_clean_linker_0, # of connection points: 2
#     Edge 83, Type (0, 0), BuildingBlock: CIFDUS_clean_linker_0, # of connection points: 2
#     Edge 84, Type (0, 0), BuildingBlock: CIFDUS_clean_linker_0, # of connection points: 2
#     Edge 85, Type (0, 0), BuildingBlock: CIFDUS_clean_linker_0, # of connection points: 2
#     Edge 86, Type (0, 0), BuildingBlock: CIFDUS_clean_linker_0, # of connection points: 2
#     Edge 87, Type (0, 0), BuildingBlock: CIFDUS_clean_linker_0, # of connection points: 2
#     Edge 88, Type (0, 0), BuildingBlock: CIFDUS_clean_linker_0, # of connection points: 2
#     Edge 89, Type (0, 0), BuildingBlock: CIFDUS_clean_linker_0, # of connection points: 2
#     Edge 90, Type (0, 0), BuildingBlock: CIFDUS_clean_linker_0, # of connection points: 2
#     Edge 91, Type (0, 0), BuildingBlock: CIFDUS_clean_linker_0, # of connection points: 2
#     Edge 92, Type (0, 0), BuildingBlock: CIFDUS_clean_linker_0, # of connection points: 2
#     Edge 93, Type (0, 0), BuildingBlock: CIFDUS_clean_linker_0, # of connection points: 2
#     Edge 94, Type (0, 0), BuildingBlock: CIFDUS_clean_linker_0, # of connection points: 2
#     Edge 95, Type (0, 0), BuildingBlock: CIFDUS_clean_linker_0, # of connection points: 2
#     Edge 96, Type (0, 0), BuildingBlock: CIFDUS_clean_linker_0, # of connection points: 2
#     Edge 97, Type (0, 0), BuildingBlock: CIFDUS_clean_linker_0, # of connection points: 2
#     Edge 98, Type (0, 0), BuildingBlock: CIFDUS_clean_linker_0, # of connection points: 2
#     Edge 99, Type (0, 0), BuildingBlock: CIFDUS_clean_linker_0, # of connection points: 2
#     Edge 100, Type (0, 0), BuildingBlock: CIFDUS_clean_linker_0, # of connection points: 2
#     Edge 101, Type (0, 0), BuildingBlock: CIFDUS_clean_linker_0, # of connection points: 2
#     Edge 102, Type (0, 0), BuildingBlock: CIFDUS_clean_linker_0, # of connection points: 2
#     Edge 103, Type (0, 0), BuildingBlock: CIFDUS_clean_linker_0, # of connection points: 2
#     Edge 104, Type (0, 0), BuildingBlock: CIFDUS_clean_linker_0, # of connection points: 2
#     Edge 105, Type (0, 0), BuildingBlock: CIFDUS_clean_linker_0, # of connection points: 2
#     Edge 106, Type (0, 0), BuildingBlock: CIFDUS_clean_linker_0, # of connection points: 2
#     Edge 107, Type (0, 0), BuildingBlock: CIFDUS_clean_linker_0, # of connection points: 2
#     Edge 108, Type (0, 0), BuildingBlock: CIFDUS_clean_linker_0, # of connection points: 2
#     Edge 109, Type (0, 0), BuildingBlock: CIFDUS_clean_linker_0, # of connection points: 2
#     Edge 110, Type (0, 0), BuildingBlock: CIFDUS_clean_linker_0, # of connection points: 2
#     Edge 111, Type (0, 0), BuildingBlock: CIFDUS_clean_linker_0, # of connection points: 2
#     Edge 112, Type (0, 0), BuildingBlock: CIFDUS_clean_linker_0, # of connection points: 2
#     Edge 113, Type (0, 0), BuildingBlock: CIFDUS_clean_linker_0, # of connection points: 2
#     Edge 114, Type (0, 0), BuildingBlock: CIFDUS_clean_linker_0, # of connection points: 2
#     Edge 115, Type (0, 0), BuildingBlock: CIFDUS_clean_linker_0, # of connection points: 2
#     Edge 116, Type (0, 0), BuildingBlock: CIFDUS_clean_linker_0, # of connection points: 2
#     Edge 117, Type (0, 0), BuildingBlock: CIFDUS_clean_linker_0, # of connection points: 2
#     Edge 118, Type (0, 0), BuildingBlock: CIFDUS_clean_linker_0, # of connection points: 2
#     Edge 119, Type (0, 0), BuildingBlock: CIFDUS_clean_linker_0, # of connection points: 2
#     Edge 120, Type (0, 0), BuildingBlock: CIFDUS_clean_linker_0, # of connection points: 2
#     Edge 121, Type (0, 0), BuildingBlock: CIFDUS_clean_linker_0, # of connection points: 2
#     Edge 122, Type (0, 0), BuildingBlock: CIFDUS_clean_linker_0, # of connection points: 2
#     Edge 123, Type (0, 0), BuildingBlock: CIFDUS_clean_linker_0, # of connection points: 2
#     Edge 124, Type (0, 0), BuildingBlock: CIFDUS_clean_linker_0, # of connection points: 2
#     Edge 125, Type (0, 0), BuildingBlock: CIFDUS_clean_linker_0, # of connection points: 2
#     Edge 126, Type (0, 0), BuildingBlock: CIFDUS_clean_linker_0, # of connection points: 2
#     Edge 127, Type (0, 0), BuildingBlock: CIFDUS_clean_linker_0, # of connection points: 2
#     Edge 128, Type (0, 0), BuildingBlock: CIFDUS_clean_linker_0, # of connection points: 2
#     Edge 129, Type (0, 0), BuildingBlock: CIFDUS_clean_linker_0, # of connection points: 2
#     Edge 130, Type (0, 0), BuildingBlock: CIFDUS_clean_linker_0, # of connection points: 2
#     Edge 131, Type (0, 0), BuildingBlock: CIFDUS_clean_linker_0, # of connection points: 2
#     Edge 132, Type (0, 0), BuildingBlock: CIFDUS_clean_linker_0, # of connection points: 2
#     Edge 133, Type (0, 0), BuildingBlock: CIFDUS_clean_linker_0, # of connection points: 2
#     Edge 134, Type (0, 0), BuildingBlock: CIFDUS_clean_linker_0, # of connection points: 2
#     Edge 135, Type (0, 0), BuildingBlock: CIFDUS_clean_linker_0, # of connection points: 2
#     Edge 136, Type (0, 0), BuildingBlock: CIFDUS_clean_linker_0, # of connection points: 2
#     Edge 137, Type (0, 0), BuildingBlock: CIFDUS_clean_linker_0, # of connection points: 2
#     Edge 138, Type (0, 0), BuildingBlock: CIFDUS_clean_linker_0, # of connection points: 2
#     Edge 139, Type (0, 0), BuildingBlock: CIFDUS_clean_linker_0, # of connection points: 2
#     Edge 140, Type (0, 0), BuildingBlock: CIFDUS_clean_linker_0, # of connection points: 2
#     Edge 141, Type (0, 0), BuildingBlock: CIFDUS_clean_linker_0, # of connection points: 2
#     Edge 142, Type (0, 0), BuildingBlock: CIFDUS_clean_linker_0, # of connection points: 2
#     Edge 143, Type (0, 0), BuildingBlock: CIFDUS_clean_linker_0, # of connection points: 2
# Relax obj value: 0.417
# Max RMSD: 0.195
# Mean RMSD: 0.195
data_MOF--net-wmt--node1-BETFEN_clean_sbu_0--edge1-CIFDUS_clean_linker_0
_symmetry_space_group_name_H-M    P1
_symmetry_Int_Tables_number       1
_symmetry_cell_setting            triclinic
loop_
_symmetry_equiv_pos_as_xyz
'x, y, z'
_cell_length_a     70.455463
_cell_length_b     70.537667
_cell_length_c     31.766198
_cell_angle_alpha  89.814079
_cell_angle_beta   90.058361
_cell_angle_gamma 119.98345
loop_
_atom_site_label
_atom_site_type_symbol
_atom_site_fract_x
_atom_site_fract_y
_atom_site_fract_z
_atom_type_partial_charge
Pr0 Pr 0.07671 0.48223 0.25248 0.0
Pr1 Pr 0.04067 0.44785 0.20826 0.0
C2 C 0.10177 0.51176 0.31227 0.0
C3 C 0.09857 0.52026 0.35327 0.0
C4 C 0.1162 0.53874 0.37177 0.0
C5 C 0.11343 0.5477 0.40923 0.0
C6 C 0.09289 0.53846 0.42961 0.0
C7 C 0.07531 0.51958 0.41147 0.0
C8 C 0.07808 0.51068 0.37373 0.0
C9 C 0.0919 0.46176 0.19384 0.0
C10 C 0.03491 0.44166 0.3087 0.0
C11 C 0.01318 0.41597 0.1569 0.0
C12 C 0.01552 0.41311 0.11273 0.0
C13 C 0.99745 0.39854 0.0889 0.0
C14 C 0.99948 0.39841 0.04539 0.0
C15 C 0.01962 0.41276 1.02616 0.0
C16 C 0.03776 0.42688 0.05024 0.0
C17 C 0.03561 0.42721 0.09339 0.0
C18 C 0.02866 0.47721 0.24052 0.0
C19 C 0.07185 0.49435 0.15483 0.0
O20 O 0.0948 0.51692 0.27833 0.0
O21 O 0.098 0.49159 0.31138 0.0
O22 O 0.07487 0.45133 0.21728 0.0
O23 O 0.10258 0.48204 0.20588 0.0
O24 O 0.02963 0.43035 0.27371 0.0
O25 O 0.051 0.46218 0.30779 0.0
O26 O 0.02701 0.41396 0.18139 0.0
O27 O 0.01161 0.43325 0.16492 0.0
O28 O 0.04691 0.48223 0.22467 0.0
O29 O 0.01707 0.45617 0.24518 0.0
O30 O 0.07938 0.50336 0.19223 0.0
O31 O 0.0587 0.4729 0.15202 0.0
H32 H 0.13218 0.54646 0.35694 0.0
H33 H 0.12749 0.56199 0.42226 0.0
H34 H 0.05921 0.51202 0.42576 0.0
H35 H 0.06411 0.4965 0.36024 0.0
H36 H 0.98176 0.38793 0.10369 0.0
H37 H 0.98534 0.38748 1.02668 0.0
H38 H 0.05326 0.43824 1.03557 0.0
H39 H 0.04938 0.43907 0.1115 0.0
Pr40 Pr 0.51679 0.59243 0.24604 0.0
Pr41 Pr 0.55449 0.59129 0.21067 0.0
C42 C 0.48499 0.58587 0.30205 0.0
C43 C 0.47873 0.57601 0.34552 0.0
C44 C 0.47299 0.58625 0.37693 0.0
C45 C 0.46697 0.5772 0.41772 0.0
C46 C 0.46646 0.55751 0.42876 0.0
C47 C 0.47237 0.54736 0.39716 0.0
C48 C 0.47843 0.55645 0.35635 0.0
C49 C 0.54145 0.62868 0.19116 0.0
C50 C 0.55565 0.59322 0.31186 0.0
C51 C 0.58962 0.59485 0.1708 0.0
C52 C 0.59874 0.59966 0.12873 0.0
C53 C 0.6063 0.58641 0.11148 0.0
C54 C 0.6104 0.5873 0.06853 0.0
C55 C 0.60704 0.60155 0.04282 0.0
C56 C 0.60116 0.61603 0.06087 0.0
C57 C 0.59677 0.6149 0.10359 0.0
C58 C 0.52242 0.55003 0.2405 0.0
C59 C 0.5119 0.57873 0.14608 0.0
O60 O 0.48192 0.57261 0.27069 0.0
O61 O 0.50329 0.60461 0.29826 0.0
O62 O 0.5498 0.62127 0.21802 0.0
O63 O 0.52042 0.61947 0.19757 0.0
O64 O 0.56846 0.59788 0.27904 0.0
O65 O 0.53544 0.58934 0.30666 0.0
O66 O 0.59003 0.61102 0.19168 0.0
O67 O 0.57105 0.5765 0.17397 0.0
O68 O 0.51915 0.56358 0.22093 0.0
O69 O 0.54305 0.55899 0.24963 0.0
O70 O 0.50014 0.57627 0.18056 0.0
O71 O 0.53341 0.58669 0.14893 0.0
H72 H 0.47304 0.60131 0.36985 0.0
H73 H 0.46233 0.58557 0.44044 0.0
H74 H 0.47265 0.53246 0.40403 0.0
H75 H 0.48296 0.54815 0.33325 0.0
H76 H 0.60762 0.5744 0.13072 0.0
H77 H 0.61472 0.57585 0.05514 0.0
H78 H 0.59876 0.62737 0.04158 0.0
H79 H 0.59066 0.62503 0.1164 0.0
Pr80 Pr 0.40728 0.92593 0.24486 0.0
Pr81 Pr 0.39528 0.95804 0.20839 0.0
C82 C 0.41706 0.90365 0.30263 0.0
C83 C 0.42925 0.90865 0.34397 0.0
C84 C 0.41966 0.89534 0.37973 0.0
C85 C 0.43103 0.89982 0.41849 0.0
C86 C 0.45256 0.91774 0.42297 0.0
C87 C 0.46205 0.93091 0.38673 0.0
C88 C 0.45061 0.92657 0.34829 0.0
C89 C 0.36829 0.90699 0.19305 0.0
C90 C 0.40677 0.96458 0.30934 0.0
C91 C 0.37803 0.97935 0.16978 0.0
C92 C 0.38242 0.98598 0.12535 0.0
C93 C 0.4041 0.99985 0.1117 0.0
C94 C 0.4095 0.00075 0.06932 0.0
C95 C 0.39336 0.98779 0.03997 0.0
C96 C 0.37151 0.97492 0.05314 0.0
C97 C 0.36605 0.97414 0.09546 0.0
C98 C 0.43948 0.97485 0.20634 0.0
C99 C 0.41807 0.93512 0.14551 0.0
O100 O 0.42858 0.91227 0.26817 0.0
O101 O 0.3983 0.90342 0.30221 0.0
O102 O 0.37345 0.92169 0.22123 0.0
O103 O 0.38231 0.90016 0.1952 0.0
O104 O 0.39565 0.96821 0.28004 0.0
O105 O 0.41404 0.95093 0.30126 0.0
O106 O 0.36702 0.95818 0.17557 0.0
O107 O 0.39456 0.98931 0.19573 0.0
O108 O 0.42767 0.96342 0.23693 0.0
O109 O 0.42871 0.97863 0.17763 0.0
O110 O 0.42493 0.92976 0.18012 0.0
O111 O 0.40445 0.9432 0.14811 0.0
H112 H 0.40324 0.8814 0.37776 0.0
H113 H 0.42267 0.88927 0.44502 0.0
H114 H 0.47864 0.94456 0.38744 0.0
H115 H 0.45867 0.93728 0.32173 0.0
H116 H 0.4172 0.00901 0.13391 0.0
H117 H 0.42644 0.0109 0.05976 0.0
H118 H 0.35869 0.96519 1.03078 0.0
H119 H 0.3493 0.96314 0.10521 0.0
Pr120 Pr 0.48022 0.07372 0.58782 0.0
Pr121 Pr 0.43741 0.04319 0.6293 0.0
C122 C 0.51236 0.09535 0.52956 0.0
C123 C 0.51924 0.09207 0.48633 0.0
C124 C 0.52437 0.1079 0.4546 0.0
C125 C 0.53136 0.10558 0.41425 0.0
C126 C 0.53354 0.08728 0.40385 0.0
C127 C 0.5283 0.07137 0.43575 0.0
C128 C 0.52127 0.0737 0.47616 0.0
C129 C 0.46097 0.09399 0.63816 0.0
C130 C 0.43852 0.0359 0.52693 0.0
C131 C 0.39931 0.02185 0.66953 0.0
C132 C 0.39692 0.01458 0.71351 0.0
C133 C 0.40493 0.00075 0.72643 0.0
C134 C 0.40898 0.99915 0.76882 0.0
C135 C 0.40522 0.01143 0.79876 0.0
C136 C 0.396 0.02418 0.78625 0.0
C137 C 0.39173 0.02562 0.74395 0.0
C138 C 0.46532 0.02692 0.63146 0.0
C139 C 0.48366 0.06787 0.68931 0.0
O140 O 0.51426 0.08457 0.5616 0.0
O141 O 0.4948 0.09727 0.53219 0.0
O142 O 0.45113 0.07869 0.61139 0.0
O143 O 0.48177 0.10058 0.63574 0.0
O144 O 0.42543 0.03222 0.55936 0.0
O145 O 0.45973 0.0499 0.53086 0.0
O146 O 0.40976 0.04314 0.66484 0.0
O147 O 0.40559 0.01199 0.64276 0.0
O148 O 0.46318 0.03629 0.59906 0.0
O149 O 0.45246 0.02507 0.6622 0.0
O150 O 0.49524 0.0722 0.6539 0.0
O151 O 0.46198 0.05972 0.68765 0.0
H152 H 0.52316 0.12233 0.46113 0.0
H153 H 0.53543 0.11847 0.39139 0.0
H154 H 0.52933 0.05684 0.42941 0.0
H155 H 0.5174 0.06105 0.49948 0.0
H156 H 0.40935 0.99219 0.70372 0.0
H157 H 0.41593 0.98908 0.77798 0.0
H158 H 0.39251 0.0334 0.80912 0.0
H159 H 0.38578 0.03654 0.73474 0.0
Pr160 Pr 0.92561 0.40449 0.58785 0.0
Pr161 Pr 0.95592 0.3925 0.62869 0.0
C162 C 0.90344 0.41453 0.53048 0.0
C163 C 0.90633 0.42372 0.48661 0.0
C164 C 0.89233 0.41071 0.45407 0.0
C165 C 0.89443 0.41893 0.41284 0.0
C166 C 0.91058 0.44056 0.40259 0.0
C167 C 0.92462 0.4536 0.43527 0.0
C168 C 0.92255 0.44533 0.47655 0.0
C169 C 0.90383 0.36644 0.64065 0.0
C170 C 0.96423 0.40244 0.52677 0.0
C171 C 0.97817 0.37529 0.66363 0.0
C172 C 0.98491 0.37911 0.70774 0.0
C173 C 0.00718 0.39256 0.71742 0.0
C174 C 0.01331 0.40276 0.7565 0.0
C175 C 0.99722 0.39936 0.78635 0.0
C176 C 0.97513 0.38481 0.77762 0.0
C177 C 0.96906 0.37489 0.73869 0.0
C178 C 0.97343 0.43662 0.63138 0.0
C179 C 0.93269 0.41492 0.68904 0.0
O180 O 0.91492 0.42772 0.5613 0.0
O181 O 0.90114 0.39496 0.53426 0.0
O182 O 0.91951 0.37037 0.6152 0.0
O183 O 0.89787 0.3809 0.63469 0.0
O184 O 0.96908 0.39461 0.56005 0.0
O185 O 0.94815 0.40691 0.52898 0.0
O186 O 0.9571 0.36359 0.65663 0.0
O187 O 0.98771 0.39293 0.64044 0.0
O188 O 0.96298 0.42541 0.59927 0.0
O189 O 0.97552 0.42524 0.66129 0.0
O190 O 0.92766 0.42139 0.65341 0.0
O191 O 0.94094 0.40147 0.68813 0.0
H192 H 0.87955 0.39407 0.46059 0.0
H193 H 0.88305 0.40836 0.38911 0.0
H194 H 0.93748 0.4702 0.42891 0.0
H195 H 0.93371 0.4559 0.50055 0.0
H196 H 0.01966 0.39646 0.69373 0.0
H197 H 0.0305 0.41382 0.76286 0.0
H198 H 0.96245 0.38135 0.80064 0.0
H199 H 0.95181 0.36517 0.73217 0.0
Pr200 Pr 0.59604 0.51742 0.5837 0.0
Pr201 Pr 0.59156 0.55188 0.62131 0.0
C202 C 0.59196 0.48801 0.52484 0.0
C203 C 0.57958 0.48159 0.48403 0.0
C204 C 0.58805 0.47659 0.44839 0.0
C205 C 0.57665 0.47112 0.40973 0.0
C206 C 0.55626 0.47031 0.40545 0.0
C207 C 0.5479 0.47532 0.44158 0.0
C208 C 0.55942 0.48103 0.47993 0.0
C209 C 0.63114 0.5419 0.64107 0.0
C210 C 0.59525 0.55597 0.52058 0.0
C211 C 0.59137 0.58394 0.66593 0.0
C212 C 0.58996 0.58813 0.71041 0.0
C213 C 0.57006 0.57622 0.73235 0.0
C214 C 0.56941 0.57862 0.77554 0.0
C215 C 0.58858 0.593 0.79718 0.0
C216 C 0.60822 0.60562 0.77505 0.0
C217 C 0.6089 0.60322 0.73185 0.0
C218 C 0.55142 0.51991 0.58874 0.0
C219 C 0.57833 0.50718 0.68071 0.0
O220 O 0.58024 0.48257 0.5594 0.0
O221 O 0.60905 0.50775 0.52679 0.0
O222 O 0.62335 0.55025 0.61508 0.0
O223 O 0.62317 0.52128 0.63233 0.0
O224 O 0.59976 0.56817 0.55427 0.0
O225 O 0.59141 0.53578 0.52476 0.0
O226 O 0.60945 0.58471 0.65362 0.0
O227 O 0.57382 0.56771 0.64955 0.0
O228 O 0.565 0.51643 0.608 0.0
O229 O 0.56056 0.54044 0.57886 0.0
O230 O 0.57869 0.49769 0.64499 0.0
O231 O 0.58444 0.52835 0.68109 0.0
H232 H 0.60364 0.47708 0.45031 0.0
H233 H 0.58414 0.46788 0.38309 0.0
H234 H 0.5322 0.4746 0.44074 0.0
H235 H 0.55245 0.48498 0.50657 0.0
H236 H 0.55513 0.56454 0.71653 0.0
H237 H 0.55414 0.56864 0.79217 0.0
H238 H 0.62312 0.61707 0.79127 0.0
H239 H 0.62434 0.61269 0.71542 0.0
Pr240 Pr 0.95908 0.55188 0.12178 0.0
Pr241 Pr 0.92129 0.51362 0.08413 0.0
C242 C 0.98791 0.58499 0.17001 0.0
C243 C 0.99062 0.58718 0.21533 0.0
C244 C 0.01068 0.60255 0.23277 0.0
C245 C 0.01368 0.60289 0.2762 0.0
C246 C 0.99666 0.58767 0.30209 0.0
C247 C 0.97673 0.57217 0.28433 0.0
C248 C 0.97379 0.57199 0.24121 0.0
C249 C 0.97006 0.52108 0.09302 0.0
C250 C 0.92913 0.50714 0.18326 0.0
C251 C 0.89715 0.48221 1.02668 0.0
C252 C 0.90091 0.47586 0.98364 0.0
C253 C 0.88344 0.4656 0.95502 0.0
C254 C 0.88651 0.45915 0.91479 0.0
C255 C 0.90721 0.46271 0.90164 0.0
C256 C 0.92475 0.47317 0.93041 0.0
C257 C 0.92167 0.47969 0.97067 0.0
C258 C 0.90743 0.53594 0.13975 0.0
C259 C 0.96007 0.55384 1.02058 0.0
O260 O 0.97023 0.58414 0.15483 0.0
O261 O 0.99165 0.57011 0.15447 0.0
O262 O 0.95265 0.51705 0.11124 0.0
O263 O 0.98161 0.54187 0.08509 0.0
O264 O 0.92003 0.49571 0.14852 0.0
O265 O 0.94265 0.52859 0.18091 0.0
O266 O 0.90724 0.47915 0.0584 0.0
O267 O 0.89674 0.50053 1.02992 0.0
O268 O 0.92369 0.54563 0.11406 0.0
O269 O 0.89624 0.51521 0.13072 0.0
O270 O 0.96703 0.56679 0.05352 0.0
O271 O 0.9443 0.53331 1.02553 0.0
H272 H 0.024 0.61405 0.21289 0.0
H273 H 0.02919 0.61499 0.28962 0.0
H274 H 0.96328 0.56056 0.30384 0.0
H275 H 0.95847 0.55984 0.22805 0.0
H276 H 0.86726 0.46238 0.96391 0.0
H277 H 0.87244 0.45096 0.89424 0.0
H278 H 0.94102 0.4766 0.92169 0.0
H279 H 0.93556 0.48772 0.99172 0.0
Pr280 Pr 0.45005 0.40879 0.12196 0.0
Pr281 Pr 0.48584 0.40655 0.08359 0.0
C282 C 0.41512 0.40328 0.16501 0.0
C283 C 0.4071 0.39603 0.20705 0.0
C284 C 0.39618 0.40526 0.22764 0.0
C285 C 0.39287 0.40247 0.27075 0.0
C286 C 0.40047 0.39041 0.29312 0.0
C287 C 0.41016 0.38001 0.27198 0.0
C288 C 0.41361 0.38294 0.22894 0.0
C289 C 0.48041 0.44981 0.08948 0.0
C290 C 0.49541 0.4247 0.18064 0.0
C291 C 0.51619 0.4115 1.02593 0.0
C292 C 0.52282 0.42388 0.98526 0.0
C293 C 0.53338 0.41869 0.9536 0.0
C294 C 0.54006 0.43079 0.91574 0.0
C295 C 0.53636 0.44845 0.90847 0.0
C296 C 0.52525 0.45317 0.94003 0.0
C297 C 0.51861 0.4411 0.97775 0.0
C298 C 0.46325 0.37134 0.1422 0.0
C299 C 0.44745 0.40785 1.02021 0.0
O300 O 0.41453 0.38834 0.13989 0.0
O301 O 0.43354 0.42188 0.16356 0.0
O302 O 0.48487 0.43656 0.10715 0.0
O303 O 0.45948 0.44049 0.08303 0.0
O304 O 0.50511 0.42431 0.14515 0.0
O305 O 0.47404 0.41784 0.18132 0.0
O306 O 0.52093 0.42332 0.06016 0.0
O307 O 0.49657 0.39417 1.02737 0.0
O308 O 0.45395 0.3782 0.1163 0.0
O309 O 0.48397 0.38076 0.13301 0.0
O310 O 0.43518 0.40353 0.05383 0.0
O311 O 0.46734 0.4108 1.02439 0.0
H312 H 0.39145 0.41567 0.21089 0.0
H313 H 0.38535 0.41054 0.28694 0.0
H314 H 0.41635 0.37089 0.28905 0.0
H315 H 0.4225 0.37613 0.21327 0.0
H316 H 0.53672 0.40542 0.95834 0.0
H317 H 0.54864 0.42661 0.89262 0.0
H318 H 0.52157 0.46623 0.93563 0.0
H319 H 0.51026 0.44536 1.00129 0.0
Pr320 Pr 0.60321 0.04063 0.12717 0.0
Pr321 Pr 0.59441 0.07367 0.08697 0.0
C322 C 0.61975 0.01788 0.16265 0.0
C323 C 0.62167 0.01709 0.20805 0.0
C324 C 0.61492 0.99716 0.2288 0.0
C325 C 0.61196 0.99589 0.27239 0.0
C326 C 0.61595 0.01461 0.29495 0.0
C327 C 0.6228 0.03443 0.27415 0.0
C328 C 0.62534 0.03555 0.23106 0.0
C329 C 0.55961 0.02611 0.12651 0.0
C330 C 0.5836 0.06598 0.18847 0.0
C331 C 0.58428 0.09624 1.03031 0.0
C332 C 0.57409 0.09294 0.98703 0.0
C333 C 0.5859 0.10721 0.95369 0.0
C334 C 0.57656 0.10478 0.91329 0.0
C335 C 0.55495 0.08795 0.90448 0.0
C336 C 0.54317 0.07362 0.93799 0.0
C337 C 0.55254 0.07605 0.97842 0.0
C338 C 0.63274 0.09197 0.14032 0.0
C339 C 0.59455 0.03411 1.02503 0.0
O340 O 0.63231 0.03706 0.14533 0.0
O341 O 0.59948 0.00859 0.14986 0.0
O342 O 0.57189 0.03643 0.09543 0.0
O343 O 0.56964 0.02279 0.15749 0.0
O344 O 0.57738 0.07151 0.15304 0.0
O345 O 0.59637 0.05699 0.18681 0.0
O346 O 0.57158 0.08527 0.06215 0.0
O347 O 0.6038 0.09824 1.033 0.0
O348 O 0.62721 0.07667 0.11334 0.0
O349 O 0.61951 0.09968 0.13617 0.0
O350 O 0.59862 0.02625 0.05919 0.0
O351 O 0.59357 0.05235 1.02701 0.0
H352 H 0.61103 0.98252 0.2112 0.0
H353 H 0.60645 0.98042 0.28839 0.0
H354 H 0.62544 0.04887 0.2911 0.0
H355 H 0.62889 0.05059 0.21557 0.0
H356 H 0.60244 0.1205 0.95895 0.0
H357 H 0.58629 0.11646 0.88911 0.0
H358 H 0.52668 0.06022 0.93296 0.0
H359 H 0.54283 0.06462 1.00298 0.0
Pr360 Pr 0.55948 0.9562 0.70288 0.0
Pr361 Pr 0.52054 0.92395 0.74937 0.0
C362 C 0.59656 0.97984 0.66124 0.0
C363 C 0.59693 0.98462 0.61647 0.0
C364 C 0.60393 0.00613 0.6036 0.0
C365 C 0.59947 0.01022 0.56301 0.0
C366 C 0.5883 0.99287 0.53461 0.0
C367 C 0.58137 0.97139 0.54748 0.0
C368 C 0.58561 0.96727 0.58805 0.0
C369 C 0.52852 0.96854 0.70458 0.0
C370 C 0.51272 0.92739 0.64787 0.0
C371 C 0.48939 0.90199 0.80895 0.0
C372 C 0.48275 0.90626 0.85156 0.0
C373 C 0.48304 0.89455 0.88729 0.0
C374 C 0.47628 0.89781 0.92711 0.0
C375 C 0.46892 0.91297 0.93291 0.0
C376 C 0.46868 0.92472 0.89699 0.0
C377 C 0.47544 0.92143 0.85713 0.0
C378 C 0.54096 0.90587 0.6964 0.0
C379 C 0.56156 0.96549 0.80498 0.0
O380 O 0.58947 0.95933 0.6709 0.0
O381 O 0.58813 0.98897 0.68468 0.0
O382 O 0.5329 0.96065 0.73675 0.0
O383 O 0.54045 0.97064 0.6719 0.0
O384 O 0.50259 0.92203 0.68496 0.0
O385 O 0.53455 0.93828 0.64578 0.0
O386 O 0.48629 0.9113 0.77581 0.0
O387 O 0.50758 0.90117 0.80646 0.0
O388 O 0.55054 0.92176 0.72202 0.0
O389 O 0.51998 0.89751 0.70145 0.0
O390 O 0.57249 0.97166 0.76936 0.0
O391 O 0.54201 0.94764 0.80584 0.0
H392 H 0.61206 0.01964 0.62543 0.0
H393 H 0.60495 0.02696 0.55363 0.0
H394 H 0.57319 0.95778 0.52589 0.0
H395 H 0.57942 0.9504 0.59732 0.0
H396 H 0.48835 0.88261 0.88439 0.0
H397 H 0.4765 0.88806 0.95327 0.0
H398 H 0.46353 0.93678 0.89961 0.0
H399 H 0.47492 0.93085 0.83061 0.0
Pr400 Pr 0.04048 0.59896 0.70664 0.0
Pr401 Pr 0.07517 0.5939 0.74822 0.0
C402 C 0.01501 0.6139 0.67529 0.0
C403 C 0.0092 0.61607 0.63184 0.0
C404 C 0.99103 0.5984 0.61259 0.0
C405 C 0.9884 0.59811 0.56918 0.0
C406 C 0.00387 0.6155 0.54442 0.0
C407 C 0.02086 0.63402 0.5641 0.0
C408 C 0.0234 0.63438 0.60754 0.0
C409 C 0.02737 0.55596 0.71253 0.0
C410 C 0.06646 0.57889 0.64953 0.0
C411 C 0.09861 0.58484 0.80434 0.0
C412 C 0.09405 0.5735 0.84629 0.0
C413 C 0.10944 0.5821 0.87926 0.0
C414 C 0.1056 0.57093 0.91808 0.0
C415 C 0.08626 0.55073 0.92501 0.0
C416 C 0.07061 0.5426 0.89229 0.0
C417 C 0.07442 0.55377 0.85371 0.0
C418 C 0.09181 0.63046 0.69082 0.0
C419 C 0.03721 0.59506 0.81096 0.0
O420 O 0.03536 0.62693 0.68658 0.0
O421 O 0.00739 0.59386 0.68854 0.0
O422 O 0.03782 0.56918 0.74253 0.0
O423 O 0.02363 0.56489 0.68003 0.0
O424 O 0.07212 0.57428 0.68633 0.0
O425 O 0.05669 0.59094 0.6476 0.0
O426 O 0.08877 0.57263 0.77145 0.0
O427 O 0.0994 0.60381 0.80284 0.0
O428 O 0.07622 0.62474 0.71722 0.0
O429 O 0.10095 0.61869 0.69788 0.0
O430 O 0.02683 0.59455 0.77619 0.0
O431 O 0.05705 0.59759 0.80851 0.0
H432 H 0.97953 0.58423 0.6307 0.0
H433 H 0.97475 0.58391 0.55489 0.0
H434 H 0.033 0.64771 0.54584 0.0
H435 H 0.03733 0.64839 0.62164 0.0
H436 H 0.12466 0.59734 0.87476 0.0
H437 H 0.11812 0.57781 0.94216 0.0
H438 H 0.05528 0.52744 0.89637 0.0
H439 H 0.06199 0.54677 0.82944 0.0
Pr440 Pr 0.40717 0.44474 0.71309 0.0
Pr441 Pr 0.40697 0.48253 0.74602 0.0
C442 C 0.40422 0.41133 0.66897 0.0
C443 C 0.40661 0.41014 0.62374 0.0
C444 C 0.42645 0.42482 0.60367 0.0
C445 C 0.42757 0.42606 0.56011 0.0
C446 C 0.40892 0.41266 0.53632 0.0
C447 C 0.38915 0.39801 0.55628 0.0
C448 C 0.38806 0.39662 0.59978 0.0
C449 C 0.4492 0.47604 0.73925 0.0
C450 C 0.42145 0.4875 0.64669 0.0
C451 C 0.4136 0.51417 0.80217 0.0
C452 C 0.42369 0.52058 0.84547 0.0
C453 C 0.41106 0.52032 0.88001 0.0
C454 C 0.42019 0.52628 0.92068 0.0
C455 C 0.44237 0.53273 0.92855 0.0
C456 C 0.45498 0.53292 0.8938 0.0
C457 C 0.44583 0.52696 0.85309 0.0
C458 C 0.37052 0.45855 0.69112 0.0
C459 C 0.40485 0.44347 0.81295 0.0
O460 O 0.38695 0.41226 0.68074 0.0
O461 O 0.42195 0.42506 0.68898 0.0
O462 O 0.43576 0.47986 0.72039 0.0
O463 O 0.43935 0.45588 0.75193 0.0
O464 O 0.42306 0.49929 0.68051 0.0
O465 O 0.41404 0.46614 0.65066 0.0
O466 O 0.42667 0.51744 0.77022 0.0
O467 O 0.3949 0.4958 0.7988 0.0
O468 O 0.37741 0.4499 0.7185 0.0
O469 O 0.38018 0.47956 0.69746 0.0
O470 O 0.39812 0.43012 0.78085 0.0
O471 O 0.41101 0.46426 0.80657 0.0
H472 H 0.44099 0.43574 0.62143 0.0
H473 H 0.44298 0.4373 0.54506 0.0
H474 H 0.37451 0.38772 0.53818 0.0
H475 H 0.37255 0.38556 0.61473 0.0
H476 H 0.39401 0.51557 0.87553 0.0
H477 H 0.40979 0.52613 0.94588 0.0
H478 H 0.47195 0.53735 0.89802 0.0
H479 H 0.45617 0.52728 0.82758 0.0
Pr480 Pr 0.74621 0.81893 0.58382 0.0
Pr481 Pr 0.70822 0.78395 0.5451 0.0
C482 C 0.77166 0.84926 0.64157 0.0
C483 C 0.76783 0.85553 0.6845 0.0
C484 C 0.78387 0.86176 0.71598 0.0
C485 C 0.7806 0.86785 0.75635 0.0
C486 C 0.76112 0.8679 0.76674 0.0
C487 C 0.745 0.86149 0.73505 0.0
C488 C 0.74828 0.85537 0.69466 0.0
C489 C 0.7589 0.79656 0.5259 0.0
C490 C 0.70668 0.77965 0.6463 0.0
C491 C 0.67728 0.7506 0.50046 0.0
C492 C 0.67134 0.7452 0.45632 0.0
C493 C 0.65863 0.75267 0.4357 0.0
C494 C 0.65478 0.74938 0.39279 0.0
C495 C 0.66341 0.73841 0.37018 0.0
C496 C 0.67509 0.72991 0.39116 0.0
C497 C 0.67902 0.73327 0.43402 0.0
C498 C 0.69889 0.81542 0.57607 0.0
C499 C 0.73912 0.82849 0.4853 0.0
O500 O 0.76256 0.85349 0.60966 0.0
O501 O 0.77077 0.83032 0.63798 0.0
O502 O 0.74241 0.78686 0.55098 0.0
O503 O 0.77067 0.81703 0.53644 0.0
O504 O 0.69914 0.76773 0.61225 0.0
O505 O 0.72338 0.79974 0.64279 0.0
O506 O 0.69518 0.75114 0.5134 0.0
O507 O 0.675 0.76654 0.51534 0.0
O508 O 0.71624 0.81919 0.55782 0.0
O509 O 0.68736 0.79476 0.585 0.0
O510 O 0.74972 0.83806 0.5205 0.0
O511 O 0.72338 0.8076 0.48549 0.0
H512 H 0.79908 0.86205 0.70927 0.0
H513 H 0.79362 0.87289 0.77925 0.0
H514 H 0.72962 0.86088 0.74153 0.0
H515 H 0.73544 0.85045 0.67136 0.0
H516 H 0.65222 0.76166 0.45235 0.0
H517 H 0.64582 0.75614 0.37707 0.0
H518 H 0.68155 0.72105 0.37423 0.0
H519 H 0.68854 0.72704 0.44938 0.0
Pr520 Pr 0.18612 0.92933 0.58083 0.0
Pr521 Pr 0.22722 0.93809 0.54125 0.0
C522 C 0.15262 0.91854 0.63541 0.0
C523 C 0.14637 0.90981 0.67932 0.0
C524 C 0.13358 0.91567 0.70404 0.0
C525 C 0.12736 0.90754 0.74529 0.0
C526 C 0.13374 0.89324 0.76327 0.0
C527 C 0.14681 0.88761 0.73842 0.0
C528 C 0.15305 0.89579 0.69714 0.0
C529 C 0.20325 0.96622 0.52525 0.0
C530 C 0.22576 0.93232 0.64494 0.0
C531 C 0.26682 0.95488 0.50679 0.0
C532 C 0.27055 0.95336 0.46193 0.0
C533 C 0.2771 0.93851 0.44886 0.0
C534 C 0.2733 0.93085 0.40766 0.0
C535 C 0.26315 0.93818 0.37906 0.0
C536 C 0.2582 0.95427 0.39122 0.0
C537 C 0.26197 0.96187 0.43225 0.0
C538 C 0.1981 0.89438 0.54116 0.0
C539 C 0.18275 0.91826 0.47919 0.0
O540 O 0.15235 0.9052 0.60639 0.0
O541 O 0.16923 0.93848 0.63131 0.0
O542 O 0.21478 0.96218 0.55113 0.0
O543 O 0.18269 0.95276 0.53287 0.0
O544 O 0.23676 0.93366 0.61058 0.0
O545 O 0.20764 0.93341 0.6419 0.0
O546 O 0.25832 0.96708 0.51665 0.0
O547 O 0.2574 0.93604 0.52632 0.0
O548 O 0.2006 0.9064 0.57298 0.0
O549 O 0.21105 0.90473 0.50981 0.0
O550 O 0.17111 0.91281 0.51465 0.0
O551 O 0.20455 0.93017 0.48046 0.0
H552 H 0.12824 0.92649 0.6913 0.0
H553 H 0.11713 0.91217 0.76276 0.0
H554 H 0.15247 0.87702 0.75097 0.0
H555 H 0.16314 0.89115 0.67914 0.0
H556 H 0.28355 0.93155 0.47127 0.0
H557 H 0.27743 0.91855 0.39867 0.0
H558 H 0.25102 0.96069 0.36923 0.0
H559 H 0.25677 0.97332 0.44116 0.0
Pr560 Pr 0.07252 0.25421 0.58498 0.0
Pr561 Pr 0.07234 0.29061 0.5469 0.0
C562 C 0.07866 0.22942 0.64268 0.0
C563 C 0.08898 0.23356 0.68547 0.0
C564 C 0.07948 0.21765 0.7173 0.0
C565 C 0.08898 0.22123 0.75761 0.0
C566 C 0.10836 0.2409 0.76754 0.0
C567 C 0.11776 0.2569 0.73551 0.0
C568 C 0.1082 0.25331 0.69519 0.0
C569 C 0.03716 0.2395 0.52652 0.0
C570 C 0.0706 0.29204 0.64803 0.0
C571 C 0.06648 0.31909 0.50099 0.0
C572 C 0.06633 0.32179 0.45612 0.0
C573 C 0.07223 0.34235 0.4395 0.0
C574 C 0.07651 0.34614 0.39672 0.0
C575 C 0.07516 0.32942 0.37091 0.0
C576 C 0.06883 0.30873 0.38757 0.0
C577 C 0.06437 0.30491 0.43009 0.0
C578 C 0.11425 0.3033 0.57732 0.0
C579 C 0.08988 0.26267 0.48756 0.0
O580 O 0.09175 0.23877 0.61057 0.0
O581 O 0.06025 0.22969 0.63932 0.0
O582 O 0.04268 0.2555 0.55215 0.0
O583 O 0.04755 0.22923 0.53641 0.0
O584 O 0.06493 0.29884 0.6144 0.0
O585 O 0.07554 0.27644 0.64403 0.0
O586 O 0.05012 0.30116 0.51642 0.0
O587 O 0.08552 0.32321 0.5151 0.0
O588 O 0.10156 0.28552 0.55936 0.0
O589 O 0.10379 0.31357 0.58596 0.0
O590 O 0.09059 0.2533 0.52336 0.0
O591 O 0.08204 0.27634 0.48735 0.0
H592 H 0.06467 0.2023 0.71093 0.0
H593 H 0.08125 0.20831 0.78082 0.0
H594 H 0.1324 0.2724 0.74169 0.0
H595 H 0.11586 0.26607 0.67161 0.0
H596 H 0.07423 0.35557 0.45973 0.0
H597 H 0.08119 0.36213 0.38384 0.0
H598 H 0.06726 0.29555 0.36769 0.0
H599 H 0.06014 0.28906 0.44285 0.0
Pr600 Pr 0.14877 0.41035 0.91665 0.0
Pr601 Pr 0.11368 0.37165 0.95584 0.0
C602 C 0.17935 0.43549 0.85875 0.0
C603 C 0.18694 0.42991 0.8189 0.0
C604 C 0.19303 0.44377 0.78349 0.0
C605 C 0.20043 0.43868 0.74623 0.0
C606 C 0.20203 0.41953 0.74315 0.0
C607 C 0.19548 0.40549 0.77856 0.0
C608 C 0.18804 0.41057 0.81568 0.0
C609 C 0.12486 0.42173 0.97444 0.0
C610 C 0.11041 0.37025 0.85428 0.0
C611 C 0.07994 0.34026 0.99898 0.0
C612 C 0.071 0.33755 0.04098 0.0
C613 C 0.06669 0.31887 0.06392 0.0
C614 C 0.06316 0.31822 0.10697 0.0
C615 C 0.06391 0.33627 0.12706 0.0
C616 C 0.06662 0.35426 0.10356 0.0
C617 C 0.07019 0.35488 0.06059 0.0
C618 C 0.14583 0.36296 0.92457 0.0
C619 C 0.15807 0.40272 1.01437 0.0
O620 O 0.18406 0.4292 0.89414 0.0
O621 O 0.15952 0.43273 0.85887 0.0
O622 O 0.11622 0.40557 0.94865 0.0
O623 O 0.14557 0.43394 0.96548 0.0
O624 O 0.09849 0.36207 0.88823 0.0
O625 O 0.13017 0.38747 0.85773 0.0
O626 O 0.07805 0.35411 0.9743 0.0
O627 O 0.09924 0.34194 0.99757 0.0
O628 O 0.14906 0.38026 0.942 0.0
O629 O 0.12507 0.35064 0.9176 0.0
O630 O 0.16792 0.41125 0.97799 0.0
O631 O 0.13653 0.38911 1.01551 0.0
H632 H 0.19223 0.4587 0.78474 0.0
H633 H 0.20539 0.45008 0.72013 0.0
H634 H 0.1959 0.39037 0.77762 0.0
H635 H 0.18316 0.39929 0.84202 0.0
H636 H 0.06744 0.30545 0.04904 0.0
H637 H 0.06091 0.30414 0.12487 0.0
H638 H 0.06743 0.36839 0.11872 0.0
H639 H 0.07359 0.36939 0.04326 0.0
Pr640 Pr 0.59034 0.73994 0.9198 0.0
Pr641 Pr 0.62794 0.73978 0.95462 0.0
C642 C 0.5649 0.74634 0.86419 0.0
C643 C 0.56819 0.7559 0.82064 0.0
C644 C 0.55381 0.74376 0.78789 0.0
C645 C 0.55669 0.75239 0.74683 0.0
C646 C 0.57408 0.77354 0.73701 0.0
C647 C 0.58855 0.78564 0.76993 0.0
C648 C 0.58568 0.77697 0.81098 0.0
C649 C 0.57637 0.70404 0.97607 0.0
C650 C 0.62805 0.73895 0.85346 0.0
C651 C 0.65884 0.73512 0.99498 0.0
C652 C 0.66475 0.7328 1.03784 0.0
C653 C 0.68394 0.75003 0.05512 0.0
C654 C 0.68795 0.75035 0.09796 0.0
C655 C 0.67288 0.73332 0.12372 0.0
C656 C 0.65458 0.71525 0.10587 0.0
C657 C 0.6505 0.71499 0.06307 0.0
C658 C 0.6386 0.78169 0.92599 0.0
C659 C 0.59989 0.75448 1.01944 0.0
O660 O 0.57526 0.75975 0.89531 0.0
O661 O 0.56448 0.72762 0.86803 0.0
O662 O 0.59247 0.71004 0.95013 0.0
O663 O 0.56577 0.71425 0.96745 0.0
O664 O 0.63531 0.73311 0.8861 0.0
O665 O 0.61221 0.74353 0.859 0.0
O666 O 0.64138 0.71859 0.97853 0.0
O667 O 0.66048 0.75401 0.98682 0.0
O668 O 0.62154 0.76842 0.94524 0.0
O669 O 0.64991 0.77234 0.91704 0.0
O670 O 0.59017 0.75647 0.98507 0.0
O671 O 0.61329 0.74639 1.01644 0.0
H672 H 0.54021 0.72749 0.7941 0.0
H673 H 0.54498 0.74252 0.7229 0.0
H674 H 0.60239 0.80177 0.76394 0.0
H675 H 0.59729 0.78679 0.83513 0.0
H676 H 0.69516 0.76385 1.0359 0.0
H677 H 0.7021 0.76449 0.11123 0.0
H678 H 0.64298 0.70178 0.12533 0.0
H679 H 0.6358 0.70135 0.05026 0.0
Pr680 Pr 0.26237 0.84972 0.91309 0.0
Pr681 Pr 0.25988 0.88473 0.95415 0.0
C682 C 0.2574 0.81966 0.85457 0.0
C683 C 0.24704 0.81309 0.81197 0.0
C684 C 0.25546 0.80468 0.78192 0.0
C685 C 0.24569 0.79804 0.74199 0.0
C686 C 0.22708 0.79955 0.73077 0.0
C687 C 0.21875 0.80815 0.76099 0.0
C688 C 0.22861 0.81487 0.80091 0.0
C689 C 0.2975 0.87101 0.97185 0.0
C690 C 0.26205 0.88988 0.85279 0.0
C691 C 0.26291 0.91636 1.00498 0.0
C692 C 0.26588 0.9189 0.05005 0.0
C693 C 0.26295 0.93454 0.07132 0.0
C694 C 0.26402 0.9353 0.11511 0.0
C695 C 0.26813 0.92047 0.13729 0.0
C696 C 0.27103 0.90489 0.11584 0.0
C697 C 0.26974 0.90404 0.07244 0.0
C698 C 0.21893 0.85416 0.92195 0.0
C699 C 0.24519 0.83875 1.01033 0.0
O700 O 0.24421 0.81529 0.88669 0.0
O701 O 0.27525 0.8388 0.8578 0.0
O702 O 0.29082 0.88116 0.94759 0.0
O703 O 0.28847 0.85067 0.96034 0.0
O704 O 0.26582 0.90135 0.88741 0.0
O705 O 0.2593 0.86998 0.85529 0.0
O706 O 0.27964 0.91806 0.98393 0.0
O707 O 0.24429 0.89953 0.99397 0.0
O708 O 0.2324 0.84991 0.9393 0.0
O709 O 0.228 0.87508 0.91557 0.0
O710 O 0.24482 0.82927 0.97414 0.0
O711 O 0.25213 0.86 1.01133 0.0
H712 H 0.26959 0.80307 0.78945 0.0
H713 H 0.25254 0.79131 0.72014 0.0
H714 H 0.20472 0.80994 0.75366 0.0
H715 H 0.22179 0.82145 0.8232 0.0
H716 H 0.25951 0.94581 0.05423 0.0
H717 H 0.26169 0.9474 0.13165 0.0
H718 H 0.27388 0.89314 0.13268 0.0
H719 H 0.27133 0.89148 0.05647 0.0
Pr720 Pr 0.62558 0.88489 0.45437 0.0
Pr721 Pr 0.5882 0.84702 0.41904 0.0
C722 C 0.6563 0.9201 0.49522 0.0
C723 C 0.66123 0.92852 0.53797 0.0
C724 C 0.67914 0.92915 0.55856 0.0
C725 C 0.68195 0.93316 0.60145 0.0
C726 C 0.667 0.93682 0.62396 0.0
C727 C 0.65017 0.93799 0.60271 0.0
C728 C 0.6472 0.93376 0.55986 0.0
C729 C 0.63692 0.85425 0.42549 0.0
C730 C 0.59721 0.84213 0.51884 0.0
C731 C 0.56323 0.81519 0.36319 0.0
C732 C 0.56675 0.80918 0.31975 0.0
C733 C 0.54937 0.79998 0.29078 0.0
C734 C 0.55236 0.79419 0.24991 0.0
C735 C 0.5729 0.79742 0.2365 0.0
C736 C 0.59036 0.80685 0.26564 0.0
C737 C 0.58735 0.81268 0.30653 0.0
C738 C 0.57399 0.86856 0.47548 0.0
C739 C 0.62573 0.88647 0.35344 0.0
O740 O 0.63966 0.91982 0.47619 0.0
O741 O 0.65737 0.90237 0.48924 0.0
O742 O 0.61968 0.85007 0.44454 0.0
O743 O 0.64777 0.8749 0.41624 0.0
O744 O 0.58824 0.83033 0.48433 0.0
O745 O 0.61019 0.86366 0.51596 0.0
O746 O 0.57391 0.81237 0.39414 0.0
O747 O 0.5625 0.83331 0.36697 0.0
O748 O 0.59002 0.8787 0.44942 0.0
O749 O 0.56327 0.84781 0.46664 0.0
O750 O 0.63288 0.89936 0.3862 0.0
O751 O 0.61004 0.86598 0.35864 0.0
H752 H 0.69028 0.92539 0.54192 0.0
H753 H 0.6953 0.9326 0.61727 0.0
H754 H 0.6386 0.941 0.61962 0.0
H755 H 0.6334 0.9336 0.54449 0.0
H756 H 0.53333 0.79712 0.29985 0.0
H757 H 0.53836 0.78678 0.22904 0.0
H758 H 0.60652 0.81004 0.25675 0.0
H759 H 0.6012 0.81998 0.32782 0.0
Pr760 Pr 0.10759 0.72894 0.46134 0.0
Pr761 Pr 0.14888 0.74073 0.41865 0.0
C762 C 0.06714 0.70876 0.49348 0.0
C763 C 0.0608 0.70548 0.53775 0.0
C764 C 0.05029 0.71616 0.55474 0.0
C765 C 0.0499 0.71859 0.59816 0.0
C766 C 0.05974 0.71005 0.62465 0.0
C767 C 0.0691 0.69833 0.6078 0.0
C768 C 0.06959 0.69606 0.56469 0.0
C769 C 0.13471 0.77291 0.46521 0.0
C770 C 0.15273 0.74951 0.5209 0.0
C771 C 0.18203 0.75265 0.36288 0.0
C772 C 0.18853 0.76357 0.3208 0.0
C773 C 0.20015 0.75801 0.29214 0.0
C774 C 0.20697 0.76868 0.2529 0.0
C775 C 0.20239 0.7853 0.24127 0.0
C776 C 0.19015 0.79033 0.26972 0.0
C777 C 0.18331 0.77963 0.30881 0.0
C778 C 0.1337 0.70279 0.47132 0.0
C779 C 0.10848 0.73972 0.35928 0.0
O780 O 0.0765 0.69801 0.47929 0.0
O781 O 0.07714 0.72922 0.48166 0.0
O782 O 0.1329 0.76205 0.43184 0.0
O783 O 0.12218 0.76125 0.49612 0.0
O784 O 0.16388 0.75675 0.48501 0.0
O785 O 0.13108 0.73608 0.52031 0.0
O786 O 0.18304 0.76478 0.39507 0.0
O787 O 0.16473 0.73299 0.364 0.0
O788 O 0.12161 0.7067 0.44671 0.0
O789 O 0.15397 0.71711 0.46354 0.0
O790 O 0.09713 0.73478 0.39437 0.0
O791 O 0.12783 0.74099 0.35929 0.0
H792 H 0.04373 0.72386 0.53439 0.0
H793 H 0.04253 0.72762 0.61096 0.0
H794 H 0.07702 0.69186 0.62782 0.0
H795 H 0.07813 0.68816 0.55256 0.0
H796 H 0.20426 0.74557 0.30037 0.0
H797 H 0.21639 0.76433 0.23221 0.0
H798 H 0.18581 0.80263 0.26181 0.0
H799 H 0.17406 0.78404 0.32985 0.0
Pr800 Pr 0.26174 0.37575 0.45408 0.0
Pr801 Pr 0.2592 0.40998 0.41739 0.0
C802 C 0.27034 0.34958 0.50124 0.0
C803 C 0.26963 0.34758 0.54644 0.0
C804 C 0.26133 0.32685 0.56444 0.0
C805 C 0.25638 0.32402 0.60704 0.0
C806 C 0.25963 0.34191 0.63153 0.0
C807 C 0.26788 0.36264 0.61349 0.0
C808 C 0.2729 0.36548 0.57098 0.0
C809 C 0.21821 0.35992 0.43014 0.0
C810 C 0.2428 0.40266 0.51406 0.0
C811 C 0.254 0.43455 0.35797 0.0
C812 C 0.24102 0.42917 0.31813 0.0
C813 C 0.2491 0.44317 0.28301 0.0
C814 C 0.23679 0.43832 0.24559 0.0
C815 C 0.21599 0.41933 0.24227 0.0
C816 C 0.20823 0.40509 0.27733 0.0
C817 C 0.22056 0.40991 0.31459 0.0
C818 C 0.29549 0.42665 0.47435 0.0
C819 C 0.25788 0.37126 0.35413 0.0
O820 O 0.28582 0.36806 0.48583 0.0
O821 O 0.25118 0.3433 0.48491 0.0
O822 O 0.23073 0.37861 0.44527 0.0
O823 O 0.22918 0.35018 0.42134 0.0
O824 O 0.24066 0.41076 0.47785 0.0
O825 O 0.252 0.39011 0.51432 0.0
O826 O 0.24289 0.42863 0.39329 0.0
O827 O 0.27069 0.43118 0.35827 0.0
O828 O 0.29066 0.41099 0.44823 0.0
O829 O 0.28359 0.43547 0.46586 0.0
O830 O 0.26882 0.3684 0.38463 0.0
O831 O 0.24991 0.3842 0.36193 0.0
H832 H 0.25813 0.31284 0.54539 0.0
H833 H 0.25023 0.30797 0.62108 0.0
H834 H 0.2709 0.37664 0.63242 0.0
H835 H 0.27883 0.3815 0.55714 0.0
H836 H 0.2649 0.45801 0.28462 0.0
H837 H 0.24339 0.4498 0.21963 0.0
H838 H 0.1926 0.39006 0.276 0.0
H839 H 0.21401 0.39854 0.34076 0.0
Pr840 Pr 0.2243 0.29194 0.04574 0.0
Pr841 Pr 0.18474 0.25805 0.08086 0.0
C842 C 0.26149 0.31916 1.00497 0.0
C843 C 0.26797 0.32385 0.96093 0.0
C844 C 0.26921 0.34243 0.94199 0.0
C845 C 0.2712 0.34497 0.89864 0.0
C846 C 0.27204 0.32899 0.8739 0.0
C847 C 0.27216 0.31114 0.89308 0.0
C848 C 0.27041 0.30873 0.93643 0.0
C849 C 0.19676 0.30834 0.06945 0.0
C850 C 0.1806 0.26695 0.98121 0.0
C851 C 0.1528 0.23505 0.13816 0.0
C852 C 0.14615 0.24042 0.17924 0.0
C853 C 0.13563 0.22424 0.21037 0.0
C854 C 0.12897 0.22906 0.24881 0.0
C855 C 0.13259 0.25026 0.25732 0.0
C856 C 0.14362 0.26654 0.22628 0.0
C857 C 0.1503 0.26171 0.18795 0.0
C858 C 0.20361 0.23994 1.02596 0.0
C859 C 0.22451 0.29364 0.14556 0.0
O860 O 0.25734 0.30012 1.01965 0.0
O861 O 0.24723 0.32464 1.01701 0.0
O862 O 0.19092 0.29023 0.05246 0.0
O863 O 0.21736 0.31765 0.079 0.0
O864 O 0.16862 0.25907 1.01597 0.0
O865 O 0.20238 0.27821 0.98387 0.0
O866 O 0.14972 0.2437 0.10407 0.0
O867 O 0.17147 0.23519 0.13755 0.0
O868 O 0.21472 0.25558 0.05203 0.0
O869 O 0.18286 0.23157 1.03393 0.0
O870 O 0.23758 0.29525 0.11478 0.0
O871 O 0.2033 0.28284 0.13798 0.0
H872 H 0.26768 0.35448 0.9605 0.0
H873 H 0.27158 0.35914 0.88441 0.0
H874 H 0.27278 0.29864 0.87444 0.0
H875 H 0.2701 0.2946 0.95047 0.0
H876 H 0.13234 0.20773 0.20479 0.0
H877 H 0.12046 0.21597 0.27142 0.0
H878 H 0.14723 0.28317 0.23161 0.0
H879 H 0.15866 0.27467 0.16497 0.0
Pr880 Pr 0.70356 0.92399 0.04646 0.0
Pr881 Pr 0.74314 0.92712 0.08081 0.0
C882 C 0.67165 0.92468 1.00224 0.0
C883 C 0.66826 0.92405 0.95683 0.0
C884 C 0.6558 0.90377 0.93662 0.0
C885 C 0.65605 0.90251 0.89304 0.0
C886 C 0.66854 0.92153 0.86935 0.0
C887 C 0.68045 0.94185 0.88943 0.0
C888 C 0.68007 0.94315 0.93283 0.0
C889 C 0.69618 0.88315 0.07491 0.0
C890 C 0.7341 0.91232 0.98159 0.0
C891 C 0.76879 0.92189 0.13764 0.0
C892 C 0.76345 0.9101 0.17915 0.0
C893 C 0.7781 0.91836 0.21324 0.0
C894 C 0.77278 0.90757 0.25261 0.0
C895 C 0.75262 0.88803 0.25919 0.0
C896 C 0.73807 0.87986 0.2246 0.0
C897 C 0.74331 0.89077 0.18553 0.0
C898 C 0.75377 0.96277 1.0253 0.0
C899 C 0.70415 0.92622 0.14658 0.0
O900 O 0.68831 0.94247 1.01736 0.0
O901 O 0.66996 0.90684 1.01803 0.0
O902 O 0.7128 0.89731 0.05568 0.0
O903 O 0.68398 0.89137 0.08508 0.0
O904 O 0.74432 0.91104 1.01583 0.0
O905 O 0.71961 0.91906 0.98473 0.0
O906 O 0.76103 0.90977 0.10385 0.0
O907 O 0.76722 0.93962 0.13572 0.0
O908 O 0.7378 0.95504 0.05181 0.0
O909 O 0.76637 0.9546 1.03317 0.0
O910 O 0.69655 0.93176 0.11407 0.0
O911 O 0.72024 0.922 0.14086 0.0
H912 H 0.64648 0.88879 0.95453 0.0
H913 H 0.64648 0.88676 0.87791 0.0
H914 H 0.69029 0.95673 0.87154 0.0
H915 H 0.68968 0.959 0.94749 0.0
H916 H 0.79366 0.93333 0.20955 0.0
H917 H 0.78443 0.91485 0.27804 0.0
H918 H 0.72258 0.86477 0.22724 0.0
H919 H 0.7315 0.88399 0.16015 0.0
Pr920 Pr 0.0729 0.77941 0.0416 0.0
Pr921 Pr 0.07445 0.81685 0.08094 0.0
C922 C 0.06713 0.74646 0.99211 0.0
C923 C 0.06931 0.746 0.94691 0.0
C924 C 0.07925 0.73489 0.93001 0.0
C925 C 0.08358 0.7363 0.88716 0.0
C926 C 0.0776 0.74852 0.86085 0.0
C927 C 0.06839 0.76031 0.87817 0.0
C928 C 0.06447 0.7592 0.9211 0.0
C929 C 0.11562 0.80922 0.06841 0.0
C930 C 0.08934 0.82426 0.98127 0.0
C931 C 0.08127 0.84753 0.13975 0.0
C932 C 0.09185 0.8546 0.18253 0.0
C933 C 0.07894 0.85146 0.21849 0.0
C934 C 0.08852 0.85872 0.25848 0.0
C935 C 0.11151 0.86975 0.26419 0.0
C936 C 0.1244 0.87257 0.22806 0.0
C937 C 0.11476 0.86511 0.18808 0.0
C938 C 0.03771 0.79579 1.02542 0.0
C939 C 0.07357 0.77608 0.14117 0.0
O940 O 0.05074 0.74846 1.00585 0.0
O941 O 0.08556 0.75922 1.01105 0.0
O942 O 0.1023 0.81395 0.05207 0.0
O943 O 0.10602 0.78831 0.07528 0.0
O944 O 0.09126 0.83527 1.01652 0.0
O945 O 0.08081 0.80274 0.98276 0.0
O946 O 0.09399 0.85143 0.10693 0.0
O947 O 0.06301 0.82868 0.13707 0.0
O948 O 0.04389 0.78559 0.05062 0.0
O949 O 0.04829 0.81653 1.03445 0.0
O950 O 0.06477 0.76351 0.10831 0.0
O951 O 0.08041 0.79721 0.1373 0.0
H952 H 0.08384 0.72534 0.94997 0.0
H953 H 0.09101 0.72733 0.87434 0.0
H954 H 0.06354 0.76974 0.85848 0.0
H955 H 0.05779 0.76877 0.93401 0.0
H956 H 0.06127 0.84344 0.21571 0.0
H957 H 0.07768 0.85553 0.28496 0.0
H958 H 0.14208 0.88109 0.23017 0.0
H959 H 0.12539 0.8679 0.16136 0.0
Pr960 Pr 0.41254 0.15226 0.91374 0.0
Pr961 Pr 0.37568 0.11325 0.88003 0.0
C962 C 0.43714 0.18416 0.96958 0.0
C963 C 0.43362 0.19023 1.01311 0.0
C964 C 0.4478 0.19218 0.0461 0.0
C965 C 0.44504 0.19818 0.08693 0.0
C966 C 0.42806 0.20265 0.09633 0.0
C967 C 0.4136 0.20027 0.06327 0.0
C968 C 0.41629 0.19412 1.02245 0.0
C969 C 0.42701 0.13059 0.85828 0.0
C970 C 0.37596 0.11319 0.98088 0.0
C971 C 0.3468 0.07708 0.83873 0.0
C972 C 0.34016 0.07091 0.79501 0.0
C973 C 0.32389 0.07441 0.7771 0.0
C974 C 0.31963 0.07139 0.73425 0.0
C975 C 0.33139 0.06461 0.70899 0.0
C976 C 0.34654 0.05967 0.72731 0.0
C977 C 0.35091 0.06281 0.77011 0.0
C978 C 0.36274 0.14286 0.90671 0.0
C979 C 0.40171 0.15704 0.81488 0.0
O980 O 0.42662 0.18695 0.93827 0.0
O981 O 0.43819 0.1662 0.96586 0.0
O982 O 0.4115 0.12067 0.88534 0.0
O983 O 0.43731 0.15152 0.86543 0.0
O984 O 0.36963 0.09962 0.94905 0.0
O985 O 0.3906 0.13392 0.97426 0.0
O986 O 0.36631 0.08085 0.84948 0.0
O987 O 0.34199 0.09119 0.85458 0.0
O988 O 0.38031 0.1476 0.88815 0.0
O989 O 0.35273 0.1224 0.91757 0.0
O990 O 0.41242 0.16868 0.84851 0.0
O991 O 0.388 0.13558 0.81826 0.0
H992 H 0.46117 0.18911 0.04029 0.0
H993 H 0.4563 0.19919 0.11119 0.0
H994 H 0.40041 0.20366 0.06849 0.0
H995 H 0.40486 0.19262 0.99809 0.0
H996 H 0.3151 0.08035 0.79579 0.0
H997 H 0.30795 0.07538 0.72061 0.0
H998 H 0.35553 0.05407 0.70829 0.0
H999 H 0.36326 0.05964 0.78329 0.0
Pr1000 Pr 0.84896 0.25924 0.91576 0.0
Pr1001 Pr 0.88746 0.25949 0.88147 0.0
C1002 C 0.81693 0.25217 0.97103 0.0
C1003 C 0.81018 0.24017 1.01214 0.0
C1004 C 0.80199 0.24739 0.04496 0.0
C1005 C 0.79528 0.23586 0.08342 0.0
C1006 C 0.79654 0.21671 0.09012 0.0
C1007 C 0.80537 0.20995 0.05746 0.0
C1008 C 0.81211 0.2215 1.01919 0.0
C1009 C 0.87233 0.29554 0.86097 0.0
C1010 C 0.88789 0.26047 0.98209 0.0
C1011 C 0.92268 0.26526 0.83894 0.0
C1012 C 0.92832 0.2707 0.79529 0.0
C1013 C 0.94436 0.26745 0.77647 0.0
C1014 C 0.94718 0.26971 0.73306 0.0
C1015 C 0.93407 0.27542 0.70897 0.0
C1016 C 0.91848 0.27923 0.72815 0.0
C1017 C 0.91544 0.27657 0.77112 0.0
C1018 C 0.8565 0.21768 0.90997 0.0
C1019 C 0.84431 0.24462 0.8168 0.0
O1020 O 0.81355 0.24027 0.93724 0.0
O1021 O 0.83587 0.27038 0.97022 0.0
O1022 O 0.88128 0.28863 0.88752 0.0
O1023 O 0.85138 0.28597 0.86809 0.0
O1024 O 0.9012 0.26643 0.94983 0.0
O1025 O 0.86735 0.25549 0.97619 0.0
O1026 O 0.92262 0.28075 0.86136 0.0
O1027 O 0.90531 0.2461 0.84454 0.0
O1028 O 0.85252 0.23095 0.891 0.0
O1029 O 0.8771 0.2273 0.91984 0.0
O1030 O 0.83248 0.2427 0.8508 0.0
O1031 O 0.8658 0.25277 0.82003 0.0
H1032 H 0.80055 0.26186 0.04069 0.0
H1033 H 0.78856 0.24165 0.10746 0.0
H1034 H 0.80717 0.19568 0.06143 0.0
H1035 H 0.81877 0.21572 0.99493 0.0
H1036 H 0.95397 0.26236 0.79497 0.0
H1037 H 0.95906 0.26643 0.71814 0.0
H1038 H 0.90786 0.28305 0.7097 0.0
H1039 H 0.90234 0.27807 0.78524 0.0
Pr1040 Pr 0.74262 0.59245 0.913 0.0
Pr1041 Pr 0.7361 0.62699 0.8771 0.0
C1042 C 0.7537 0.57058 0.96914 0.0
C1043 C 0.76382 0.57483 1.01244 0.0
C1044 C 0.75118 0.56312 0.0476 0.0
C1045 C 0.76046 0.56663 0.08817 0.0
C1046 C 0.78279 0.58204 0.09525 0.0
C1047 C 0.79539 0.59382 0.05994 0.0
C1048 C 0.7861 0.59027 1.01934 0.0
C1049 C 0.70598 0.57463 0.85777 0.0
C1050 C 0.73734 0.62808 0.97831 0.0
C1051 C 0.72397 0.65 0.82881 0.0
C1052 C 0.72553 0.65168 0.783 0.0
C1053 C 0.74612 0.66032 0.76345 0.0
C1054 C 0.74752 0.65799 0.72052 0.0
C1055 C 0.72841 0.64715 0.69641 0.0
C1056 C 0.70782 0.63882 0.71559 0.0
C1057 C 0.7064 0.64117 0.75873 0.0
C1058 C 0.77962 0.64349 0.9026 0.0
C1059 C 0.75743 0.60334 0.81356 0.0
O1060 O 0.76625 0.58185 0.93745 0.0
O1061 O 0.73378 0.56749 0.96591 0.0
O1062 O 0.71046 0.59023 0.88396 0.0
O1063 O 0.71815 0.56606 0.86627 0.0
O1064 O 0.72933 0.63368 0.94633 0.0
O1065 O 0.74431 0.61407 0.9723 0.0
O1066 O 0.70988 0.63063 0.84334 0.0
O1067 O 0.7426 0.659 0.84889 0.0
O1068 O 0.76747 0.62537 0.88537 0.0
O1069 O 0.76851 0.65327 0.91013 0.0
O1070 O 0.75937 0.59337 0.84756 0.0
O1071 O 0.74834 0.61594 0.81649 0.0
H1072 H 0.73404 0.55102 0.04369 0.0
H1073 H 0.75007 0.55688 0.11389 0.0
H1074 H 0.81248 0.60609 0.06359 0.0
H1075 H 0.79647 0.59972 0.99332 0.0
H1076 H 0.76122 0.6682 0.78136 0.0
H1077 H 0.76355 0.66447 0.70619 0.0
H1078 H 0.6929 0.63073 0.69719 0.0
H1079 H 0.69039 0.63416 0.77335 0.0
Pr1080 Pr 0.81263 0.7402 0.25382 0.0
Pr1081 Pr 0.77165 0.70593 0.29277 0.0
C1082 C 0.84623 0.76239 0.19895 0.0
C1083 C 0.8527 0.75916 0.15532 0.0
C1084 C 0.85396 0.77289 0.12187 0.0
C1085 C 0.86078 0.77071 0.08131 0.0
C1086 C 0.86689 0.75483 0.0725 0.0
C1087 C 0.86527 0.74085 0.10602 0.0
C1088 C 0.8583 0.74296 0.14657 0.0
C1089 C 0.79147 0.75708 0.3069 0.0
C1090 C 0.77334 0.70348 0.18913 0.0
C1091 C 0.73175 0.68113 0.32514 0.0
C1092 C 0.72698 0.67417 0.36924 0.0
C1093 C 0.72884 0.65622 0.38316 0.0
C1094 C 0.73218 0.65399 0.42553 0.0
C1095 C 0.73332 0.66944 0.45451 0.0
C1096 C 0.7294 0.68615 0.4413 0.0
C1097 C 0.72605 0.68839 0.39894 0.0
C1098 C 0.80282 0.69375 0.29215 0.0
C1099 C 0.81526 0.73283 0.3562 0.0
O1100 O 0.8468 0.75023 0.22975 0.0
O1101 O 0.82967 0.7659 0.2023 0.0
O1102 O 0.78209 0.74171 0.27988 0.0
O1103 O 0.81256 0.76571 0.30269 0.0
O1104 O 0.76278 0.69292 0.22322 0.0
O1105 O 0.791 0.72302 0.19258 0.0
O1106 O 0.74014 0.70214 0.31855 0.0
O1107 O 0.74182 0.67288 0.30406 0.0
O1108 O 0.79947 0.70306 0.26092 0.0
O1109 O 0.78967 0.69007 0.32371 0.0
O1110 O 0.82721 0.73918 0.32107 0.0
O1111 O 0.79344 0.72215 0.35398 0.0
H1112 H 0.84977 0.78552 0.12711 0.0
H1113 H 0.86117 0.78158 0.0568 0.0
H1114 H 0.86994 0.72853 0.10143 0.0
H1115 H 0.85759 0.73199 0.17125 0.0
H1116 H 0.72944 0.64487 0.36105 0.0
H1117 H 0.73494 0.64083 0.4353 0.0
H1118 H 0.72953 0.69782 0.46355 0.0
H1119 H 0.72437 0.70222 0.38921 0.0
Pr1120 Pr 0.25671 0.07321 0.24823 0.0
Pr1121 Pr 0.29621 0.07832 0.28882 0.0
C1122 C 0.23013 0.07701 0.19129 0.0
C1123 C 0.23351 0.08869 0.1501 0.0
C1124 C 0.22284 0.10068 0.14229 0.0
C1125 C 0.22671 0.11285 0.10497 0.0
C1126 C 0.2413 0.11333 0.07407 0.0
C1127 C 0.25167 0.10095 0.08148 0.0
C1128 C 0.24793 0.0889 0.11908 0.0
C1129 C 0.24626 0.03864 0.30657 0.0
C1130 C 0.29726 0.0745 0.18743 0.0
C1131 C 0.32878 0.07865 0.33304 0.0
C1132 C 0.33443 0.07662 0.37632 0.0
C1133 C 0.35027 0.09545 0.39709 0.0
C1134 C 0.35407 0.09464 0.43973 0.0
C1135 C 0.34215 0.07493 0.46186 0.0
C1136 C 0.32722 0.05581 0.44063 0.0
C1137 C 0.32344 0.05661 0.39795 0.0
C1138 C 0.30359 0.1179 0.25408 0.0
C1139 C 0.26394 0.09066 0.34629 0.0
O1140 O 0.23759 0.08931 0.22481 0.0
O1141 O 0.23333 0.06022 0.19255 0.0
O1142 O 0.26278 0.04671 0.28161 0.0
O1143 O 0.23318 0.04589 0.29614 0.0
O1144 O 0.30554 0.07141 0.22204 0.0
O1145 O 0.27988 0.0769 0.18988 0.0
O1146 O 0.31347 0.06105 0.31453 0.0
O1147 O 0.32751 0.09614 0.32515 0.0
O1148 O 0.2865 0.10406 0.27272 0.0
O1149 O 0.31585 0.10943 0.24657 0.0
O1150 O 0.25454 0.09061 0.30999 0.0
O1151 O 0.27877 0.08427 0.34768 0.0
H1152 H 0.21165 0.10086 0.16543 0.0
H1153 H 0.21823 0.12195 0.10027 0.0
H1154 H 0.26315 0.10106 0.0587 0.0
H1155 H 0.25656 0.07999 0.12403 0.0
H1156 H 0.3591 0.11099 0.38071 0.0
H1157 H 0.36555 0.10958 0.45574 0.0
H1158 H 0.31811 0.04039 0.45729 0.0
H1159 H 0.31152 0.04175 0.38239 0.0
Pr1160 Pr 0.92993 0.18357 0.24901 0.0
Pr1161 Pr 0.92733 0.21907 0.28793 0.0
C1162 C 0.9248 0.15326 0.19098 0.0
C1163 C 0.91425 0.14656 0.14814 0.0
C1164 C 0.92713 0.15025 0.11191 0.0
C1165 C 0.9175 0.14367 0.07178 0.0
C1166 C 0.89452 0.13291 0.06623 0.0
C1167 C 0.88165 0.12949 0.10262 0.0
C1168 C 0.89132 0.13621 0.14274 0.0
C1169 C 0.96547 0.20737 0.30624 0.0
C1170 C 0.92938 0.22288 0.18717 0.0
C1171 C 0.9306 0.2519 0.33451 0.0
C1172 C 0.93283 0.25498 0.37935 0.0
C1173 C 0.92167 0.26405 0.39949 0.0
C1174 C 0.91977 0.26287 0.44295 0.0
C1175 C 0.92931 0.25287 0.46641 0.0
C1176 C 0.94071 0.24401 0.44604 0.0
C1177 C 0.94227 0.24488 0.40259 0.0
C1178 C 0.88622 0.18791 0.25751 0.0
C1179 C 0.91368 0.17429 0.34722 0.0
O1180 O 0.91191 0.14885 0.22364 0.0
O1181 O 0.94281 0.17229 0.19425 0.0
O1182 O 0.95814 0.21597 0.27986 0.0
O1183 O 0.95654 0.18655 0.29834 0.0
O1184 O 0.9338 0.23491 0.221 0.0
O1185 O 0.92595 0.20278 0.19053 0.0
O1186 O 0.94743 0.25297 0.3149 0.0
O1187 O 0.91186 0.23521 0.32359 0.0
O1188 O 0.89989 0.18396 0.27508 0.0
O1189 O 0.8954 0.2086 0.24892 0.0
O1190 O 0.91313 0.16442 0.31138 0.0
O1191 O 0.92059 0.19563 0.3475 0.0
H1192 H 0.9448 0.15822 0.11458 0.0
H1193 H 0.92825 0.1472 0.04501 0.0
H1194 H 0.86397 0.12112 0.10048 0.0
H1195 H 0.88071 0.13305 0.16964 0.0
H1196 H 0.91365 0.27115 0.38154 0.0
H1197 H 0.91059 0.26949 0.45818 0.0
H1198 H 0.94838 0.23644 0.46359 0.0
H1199 H 0.95015 0.23699 0.3871 0.0
Pr1200 Pr 0.2934 0.21901 0.79081 0.0
Pr1201 Pr 0.25687 0.18394 0.75008 0.0
C1202 C 0.32258 0.25241 0.8371 0.0
C1203 C 0.32404 0.2558 0.88173 0.0
C1204 C 0.34454 0.26903 0.89989 0.0
C1205 C 0.34679 0.2687 0.94319 0.0
C1206 C 0.32853 0.25503 0.96809 0.0
C1207 C 0.30791 0.24212 0.9498 0.0
C1208 C 0.30567 0.24252 0.90661 0.0
C1209 C 0.30553 0.18951 0.75983 0.0
C1210 C 0.2631 0.17323 0.84717 0.0
C1211 C 0.23176 0.15482 0.69019 0.0
C1212 C 0.2372 0.14762 0.64989 0.0
C1213 C 0.22124 0.13699 0.61855 0.0
C1214 C 0.22629 0.12984 0.58095 0.0
C1215 C 0.24749 0.13309 0.57356 0.0
C1216 C 0.26352 0.14418 0.60488 0.0
C1217 C 0.25845 0.15129 0.64237 0.0
C1218 C 0.24368 0.20665 0.80751 0.0
C1219 C 0.29739 0.22346 0.69101 0.0
O1220 O 0.3061 0.25257 0.8186 0.0
O1221 O 0.32512 0.23604 0.82609 0.0
O1222 O 0.28738 0.18438 0.77657 0.0
O1223 O 0.31638 0.21037 0.7527 0.0
O1224 O 0.2553 0.16372 0.8103 0.0
O1225 O 0.27612 0.1948 0.84917 0.0
O1226 O 0.23769 0.14923 0.72501 0.0
O1227 O 0.23542 0.17494 0.69142 0.0
O1228 O 0.2596 0.21563 0.78132 0.0
O1229 O 0.23253 0.1858 0.79966 0.0
O1230 O 0.30185 0.23562 0.72463 0.0
O1231 O 0.2825 0.20256 0.69404 0.0
H1232 H 0.35884 0.27888 0.88055 0.0
H1233 H 0.36278 0.27879 0.95722 0.0
H1234 H 0.29362 0.23181 0.96884 0.0
H1235 H 0.28983 0.2319 0.89253 0.0
H1236 H 0.20475 0.134 0.62332 0.0
H1237 H 0.21336 0.12127 0.55812 0.0
H1238 H 0.28014 0.14752 0.60045 0.0
H1239 H 0.27119 0.15961 0.66568 0.0
Pr1240 Pr 0.77816 0.07134 0.79017 0.0
Pr1241 Pr 0.81578 0.07401 0.75179 0.0
C1242 C 0.7423 0.06334 0.83311 0.0
C1243 C 0.73613 0.0568 0.87611 0.0
C1244 C 0.7222 0.06248 0.89668 0.0
C1245 C 0.72019 0.06045 0.94018 0.0
C1246 C 0.73186 0.05241 0.96254 0.0
C1247 C 0.74495 0.04576 0.94165 0.0
C1248 C 0.74738 0.04835 0.89854 0.0
C1249 C 0.80646 0.11431 0.76267 0.0
C1250 C 0.82242 0.08846 0.85152 0.0
C1251 C 0.84721 0.08155 0.69419 0.0
C1252 C 0.85403 0.09347 0.65302 0.0
C1253 C 0.86765 0.09023 0.62519 0.0
C1254 C 0.87457 0.10186 0.58685 0.0
C1255 C 0.86806 0.1171 0.57515 0.0
C1256 C 0.85399 0.1199 0.6029 0.0
C1257 C 0.84714 0.10832 0.6412 0.0
C1258 C 0.79635 0.03762 0.80852 0.0
C1259 C 0.77525 0.07147 0.69024 0.0
O1260 O 0.74313 0.04869 0.80934 0.0
O1261 O 0.75936 0.08285 0.82932 0.0
O1262 O 0.81205 0.10166 0.77919 0.0
O1263 O 0.78571 0.10354 0.7541 0.0
O1264 O 0.8335 0.09101 0.81604 0.0
O1265 O 0.80072 0.07902 0.85058 0.0
O1266 O 0.85077 0.09354 0.72788 0.0
O1267 O 0.82813 0.06349 0.69524 0.0
O1268 O 0.78534 0.04288 0.78357 0.0
O1269 O 0.81697 0.04897 0.79862 0.0
O1270 O 0.76289 0.06206 0.72309 0.0
O1271 O 0.79655 0.07963 0.6945 0.0
H1272 H 0.71405 0.06969 0.87955 0.0
H1273 H 0.71042 0.06605 0.95655 0.0
H1274 H 0.75453 0.04018 0.95895 0.0
H1275 H 0.75924 0.04532 0.88309 0.0
H1276 H 0.87319 0.07886 0.63335 0.0
H1277 H 0.88551 0.09926 0.5669 0.0
H1278 H 0.84814 0.13104 0.59505 0.0
H1279 H 0.83654 0.1111 0.66178 0.0
Pr1280 Pr 0.93038 0.70375 0.79303 0.0
Pr1281 Pr 0.92571 0.73886 0.7541 0.0
C1282 C 0.9403 0.67883 0.84159 0.0
C1283 C 0.93524 0.67204 0.88558 0.0
C1284 C 0.91346 0.65844 0.89891 0.0
C1285 C 0.90857 0.65504 0.94166 0.0
C1286 C 0.92535 0.66538 0.97133 0.0
C1287 C 0.94716 0.67825 0.95799 0.0
C1288 C 0.95208 0.68146 0.91538 0.0
C1289 C 0.88709 0.68826 0.76728 0.0
C1290 C 0.91023 0.72963 0.85354 0.0
C1291 C 0.91695 0.76182 0.69582 0.0
C1292 C 0.90644 0.75817 0.65284 0.0
C1293 C 0.91848 0.77129 0.61843 0.0
C1294 C 0.90887 0.76863 0.57829 0.0
C1295 C 0.88673 0.75268 0.57077 0.0
C1296 C 0.8747 0.73948 0.60536 0.0
C1297 C 0.88435 0.74216 0.64558 0.0
C1298 C 0.96334 0.75471 0.80799 0.0
C1299 C 0.92987 0.70151 0.69264 0.0
O1300 O 0.95365 0.69972 0.83573 0.0
O1301 O 0.92384 0.67065 0.81543 0.0
O1302 O 0.89966 0.70667 0.78315 0.0
O1303 O 0.89778 0.67801 0.76032 0.0
O1304 O 0.90925 0.73976 0.81887 0.0
O1305 O 0.91838 0.71618 0.85195 0.0
O1306 O 0.90431 0.75195 0.72829 0.0
O1307 O 0.93596 0.7627 0.69858 0.0
O1308 O 0.95718 0.73923 0.78103 0.0
O1309 O 0.95171 0.76418 0.80255 0.0
O1310 O 0.94 0.69893 0.72501 0.0
O1311 O 0.92081 0.71388 0.69764 0.0
H1312 H 0.90011 0.65102 0.87653 0.0
H1313 H 0.89168 0.64495 0.95154 0.0
H1314 H 0.96039 0.68599 0.98058 0.0
H1315 H 0.96896 0.692 0.90576 0.0
H1316 H 0.93543 0.78388 0.62265 0.0
H1317 H 0.91883 0.77949 0.55327 0.0
H1318 H 0.8578 0.72677 0.60138 0.0
H1319 H 0.87443 0.73163 0.67103 0.0
Pr1320 Pr 0.89864 0.62558 0.37402 0.0
Pr1321 Pr 0.85417 0.59329 0.41039 0.0
C1322 C 0.93691 0.64292 0.33328 0.0
C1323 C 0.9435 0.6563 0.29518 0.0
C1324 C 0.93686 0.6719 0.289 0.0
C1325 C 0.9356 0.67875 0.24845 0.0
C1326 C 0.94085 0.66995 0.21399 0.0
C1327 C 0.94944 0.656 0.22048 0.0
C1328 C 0.95084 0.64927 0.26095 0.0
C1329 C 0.87659 0.64877 0.37935 0.0
C1330 C 0.85261 0.60343 0.31148 0.0
C1331 C 0.82293 0.57082 0.46937 0.0
C1332 C 0.81589 0.57431 0.51221 0.0
C1333 C 0.81782 0.56333 0.54759 0.0
C1334 C 0.8108 0.56567 0.58777 0.0
C1335 C 0.80126 0.57894 0.59434 0.0
C1336 C 0.79958 0.59017 0.55883 0.0
C1337 C 0.80676 0.58791 0.51854 0.0
C1338 C 0.87421 0.5745 0.35928 0.0
C1339 C 0.89344 0.63172 0.47322 0.0
O1340 O 0.92093 0.62299 0.32694 0.0
O1341 O 0.93433 0.65177 0.36735 0.0
O1342 O 0.86854 0.62899 0.39042 0.0
O1343 O 0.89647 0.65711 0.36585 0.0
O1344 O 0.83999 0.59645 0.34559 0.0
O1345 O 0.87443 0.61295 0.31435 0.0
O1346 O 0.81959 0.58 0.43622 0.0
O1347 O 0.84145 0.57063 0.46724 0.0
O1348 O 0.88376 0.58916 0.38772 0.0
O1349 O 0.85332 0.56765 0.36095 0.0
O1350 O 0.90798 0.63235 0.44631 0.0
O1351 O 0.87249 0.62066 0.46306 0.0
H1352 H 0.93093 0.67743 0.31494 0.0
H1353 H 0.92898 0.68955 0.24385 0.0
H1354 H 0.9538 0.64928 0.19402 0.0
H1355 H 0.95569 0.63702 0.2651 0.0
H1356 H 0.82473 0.55272 0.5442 0.0
H1357 H 0.81303 0.55704 0.61379 0.0
H1358 H 0.79223 0.60039 0.56176 0.0
H1359 H 0.80493 0.59668 0.49227 0.0
Pr1360 Pr 0.37017 0.25743 0.37545 0.0
Pr1361 Pr 0.40879 0.25927 0.41347 0.0
C1362 C 0.33977 0.26324 0.33637 0.0
C1363 C 0.33706 0.27102 0.29592 0.0
C1364 C 0.31778 0.258 0.27356 0.0
C1365 C 0.31706 0.26154 0.23083 0.0
C1366 C 0.33574 0.27796 0.21037 0.0
C1367 C 0.35412 0.29256 0.23379 0.0
C1368 C 0.35475 0.28913 0.27664 0.0
C1369 C 0.35962 0.21652 0.4088 0.0
C1370 C 0.39874 0.24104 0.31579 0.0
C1371 C 0.43498 0.25542 0.47127 0.0
C1372 C 0.43189 0.24516 0.51425 0.0
C1373 C 0.44278 0.2582 0.54936 0.0
C1374 C 0.44036 0.24894 0.58974 0.0
C1375 C 0.42707 0.22617 0.59662 0.0
C1376 C 0.41594 0.21315 0.56136 0.0
C1377 C 0.41827 0.22247 0.52097 0.0
C1378 C 0.42038 0.29469 0.35545 0.0
C1379 C 0.36939 0.25903 0.47566 0.0
O1380 O 0.35466 0.27788 0.36114 0.0
O1381 O 0.34002 0.24484 0.33515 0.0
O1382 O 0.37722 0.22968 0.39069 0.0
O1383 O 0.348 0.22585 0.41495 0.0
O1384 O 0.40966 0.24159 0.35044 0.0
O1385 O 0.38427 0.24788 0.31648 0.0
O1386 O 0.42674 0.24236 0.43879 0.0
O1387 O 0.43295 0.27288 0.46809 0.0
O1388 O 0.4046 0.28736 0.382 0.0
O1389 O 0.43221 0.28563 0.36299 0.0
O1390 O 0.36436 0.2665 0.44238 0.0
O1391 O 0.38436 0.25308 0.4719 0.0
H1392 H 0.30395 0.24411 0.28839 0.0
H1393 H 0.3025 0.25047 0.21325 0.0
H1394 H 0.36857 0.3055 0.21857 0.0
H1395 H 0.36958 0.29966 0.29392 0.0
H1396 H 0.45329 0.27572 0.54559 0.0
H1397 H 0.4489 0.25982 0.61566 0.0
H1398 H 0.40574 0.19559 0.56459 0.0
H1399 H 0.40948 0.21179 0.49492 0.0
Pr1400 Pr 0.73869 0.11526 0.37851 0.0
Pr1401 Pr 0.73976 0.15135 0.41801 0.0
C1402 C 0.73251 0.08142 0.3311 0.0
C1403 C 0.73495 0.08013 0.28635 0.0
C1404 C 0.74312 0.06707 0.27116 0.0
C1405 C 0.7486 0.06825 0.22893 0.0
C1406 C 0.74559 0.08226 0.20168 0.0
C1407 C 0.73769 0.09555 0.21729 0.0
C1408 C 0.73268 0.09467 0.25956 0.0
C1409 C 0.78172 0.14433 0.40396 0.0
C1410 C 0.75542 0.16119 0.32035 0.0
C1411 C 0.74379 0.18069 0.47737 0.0
C1412 C 0.75442 0.18784 0.51952 0.0
C1413 C 0.74827 0.19954 0.54656 0.0
C1414 C 0.75779 0.20613 0.58665 0.0
C1415 C 0.77377 0.20116 0.60113 0.0
C1416 C 0.78 0.18949 0.57369 0.0
C1417 C 0.77044 0.18292 0.53349 0.0
C1418 C 0.70328 0.13062 0.36172 0.0
C1419 C 0.74099 0.11265 0.4783 0.0
O1420 O 0.71636 0.0842 0.34318 0.0
O1421 O 0.75092 0.09432 0.34988 0.0
O1422 O 0.76859 0.1497 0.38874 0.0
O1423 O 0.77158 0.12351 0.41142 0.0
O1424 O 0.75728 0.17112 0.35675 0.0
O1425 O 0.74698 0.13958 0.31955 0.0
O1426 O 0.75674 0.18582 0.44462 0.0
O1427 O 0.72683 0.16089 0.47495 0.0
O1428 O 0.70915 0.12033 0.38725 0.0
O1429 O 0.71422 0.15137 0.37014 0.0
O1430 O 0.73081 0.09968 0.44652 0.0
O1431 O 0.74891 0.13375 0.47253 0.0
H1432 H 0.74571 0.0564 0.29207 0.0
H1433 H 0.75496 0.05806 0.21745 0.0
H1434 H 0.73494 0.10626 0.19681 0.0
H1435 H 0.72738 0.10561 0.27129 0.0
H1436 H 0.73602 0.20363 0.53665 0.0
H1437 H 0.75272 0.21537 0.60615 0.0
H1438 H 0.792 0.18507 0.5835 0.0
H1439 H 0.77551 0.17387 0.5134 0.0
H1440 H 0.14456 0.45296 1.0366 0.0
H1441 H 0.08119 0.39985 1.00193 0.0
H1442 H 0.06558 0.40483 0.06767 0.0
H1443 H 0.07002 0.42493 0.13717 0.0
H1444 H 0.13326 0.48087 0.16407 0.0
H1445 H 0.14846 0.47376 0.10154 0.0
C1446 C 0.12725 0.44242 0.043 0.0
C1447 C 0.11434 0.4256 1.01367 0.0
C1448 C 0.1182 0.44586 0.08067 0.0
C1449 C 0.09188 0.41256 1.02356 0.0
C1450 C 0.08287 0.41554 0.06148 0.0
C1451 C 0.08703 0.43576 0.1292 0.0
C1452 C 0.10016 0.45378 0.15648 0.0
C1453 C 0.09584 0.43217 0.09077 0.0
C1454 C 0.1224 0.46695 0.14486 0.0
C1455 C 0.13125 0.46297 0.10844 0.0
H1456 H 0.59893 0.69181 1.03584 0.0
H1457 H 0.53436 0.67787 0.99863 0.0
H1458 H 0.51858 0.65464 0.06003 0.0
H1459 H 0.52221 0.63875 0.12636 0.0
H1460 H 0.58578 0.65143 0.16698 0.0
H1461 H 0.60238 0.67394 0.10347 0.0
C1462 C 0.58138 0.68323 0.04053 0.0
C1463 C 0.56801 0.68663 1.01105 0.0
C1464 C 0.57203 0.66965 0.07746 0.0
C1465 C 0.5453 0.67567 1.01949 0.0
C1466 C 0.53612 0.66233 0.05517 0.0
C1467 C 0.53977 0.64643 0.12172 0.0
C1468 C 0.55254 0.64323 0.15255 0.0
C1469 C 0.54922 0.65936 0.08478 0.0
C1470 C 0.57529 0.65345 0.14469 0.0
C1471 C 0.58484 0.66641 0.10795 0.0
H1472 H 0.3649 0.88374 0.12042 0.0
H1473 H 0.33725 0.91983 0.17702 0.0
H1474 H 0.31699 0.91646 0.11188 0.0
H1475 H 0.30543 0.90153 1.03778 0.0
H1476 H 0.32808 0.85952 0.98883 0.0
H1477 H 0.3516 0.86698 0.05015 0.0
C1478 C 0.35437 0.89085 0.11892 0.0
C1479 C 0.35368 0.90298 0.15409 0.0
C1480 C 0.34153 0.88762 0.08177 0.0
C1481 C 0.33934 0.91146 0.15055 0.0
C1482 C 0.32732 0.90915 0.1131 0.0
C1483 C 0.31533 0.89389 0.04056 0.0
C1484 C 0.31459 0.87986 1.0075 0.0
C1485 C 0.32814 0.89719 0.07818 0.0
C1486 C 0.32814 0.87054 1.01258 0.0
C1487 C 0.3416 0.87466 0.04825 0.0
H1488 H 0.48061 0.11486 0.71289 0.0
H1489 H 0.4176 0.08305 0.65208 0.0
H1490 H 0.40079 0.08832 0.71546 0.0
H1491 H 0.40416 0.10401 0.78854 0.0
H1492 H 0.46808 0.13787 0.8458 0.0
H1493 H 0.48392 0.12992 0.78471 0.0
C1494 C 0.46318 0.10908 0.71317 0.0
C1495 C 0.45054 0.09823 0.67691 0.0
C1496 C 0.45357 0.11254 0.74997 0.0
C1497 C 0.42793 0.09108 0.679 0.0
C1498 C 0.41824 0.09421 0.71557 0.0
C1499 C 0.42143 0.10907 0.78829 0.0
C1500 C 0.43465 0.121 0.82342 0.0
C1501 C 0.43084 0.105 0.75153 0.0
C1502 C 0.45722 0.12818 0.82058 0.0
C1503 C 0.46643 0.12381 0.78509 0.0
H1504 H 0.92246 0.34598 0.69039 0.0
H1505 H 0.86454 0.35133 0.67841 0.0
H1506 H 0.8501 0.33068 0.74343 0.0
H1507 H 0.85382 0.31183 0.80593 0.0
H1508 H 0.91395 0.31127 0.82588 0.0
H1509 H 0.92762 0.32923 0.75734 0.0
C1510 C 0.90696 0.34302 0.70216 0.0
C1511 C 0.89501 0.35079 0.67853 0.0
C1512 C 0.89909 0.33197 0.7419 0.0
C1513 C 0.87439 0.34581 0.69486 0.0
C1514 C 0.86607 0.33402 0.73263 0.0
C1515 C 0.8701 0.31586 0.79578 0.0
C1516 C 0.88254 0.30957 0.82158 0.0
C1517 C 0.87833 0.32725 0.75688 0.0
C1518 C 0.9037 0.31544 0.80719 0.0
C1519 C 0.9116 0.3259 0.76765 0.0
H1520 H 0.65221 0.52625 0.69086 0.0
H1521 H 0.64206 0.58139 0.6819 0.0
H1522 H 0.66212 0.59589 0.7483 0.0
H1523 H 0.68374 0.59319 0.81045 0.0
H1524 H 0.69385 0.53766 0.8145 0.0
H1525 H 0.67339 0.52378 0.74997 0.0
C1526 C 0.65447 0.5416 0.70297 0.0
C1527 C 0.64535 0.55253 0.68026 0.0
C1528 C 0.66638 0.55005 0.74129 0.0
C1529 C 0.64873 0.57241 0.69763 0.0
C1530 C 0.66033 0.58077 0.73611 0.0
C1531 C 0.68138 0.578 0.79761 0.0
C1532 C 0.6907 0.56667 0.81904 0.0
C1533 C 0.66936 0.56978 0.75864 0.0
C1534 C 0.68715 0.54701 0.80023 0.0
C1535 C 0.67533 0.5389 0.76263 0.0
H1536 H 0.85447 0.55273 0.28556 0.0
H1537 H 0.91778 0.5852 0.34522 0.0
H1538 H 0.93427 0.57946 0.28172 0.0
H1539 H 0.9306 0.56416 0.20791 0.0
H1540 H 0.86616 0.52789 0.15401 0.0
H1541 H 0.85067 0.53644 0.21482 0.0
C1542 C 0.87192 0.55859 0.28506 0.0
C1543 C 0.88473 0.56996 0.3209 0.0
C1544 C 0.88129 0.55467 0.24842 0.0
C1545 C 0.90731 0.57693 0.31859 0.0
C1546 C 0.91681 0.57354 0.28192 0.0
C1547 C 0.91326 0.5583 0.20923 0.0
C1548 C 0.89985 0.54559 0.17492 0.0
C1549 C 0.90403 0.56243 0.24627 0.0
C1550 C 0.87721 0.53803 0.1786 0.0
C1551 C 0.8682 0.54276 0.21397 0.0
H1552 H 0.45395 0.33601 0.33232 0.0
H1553 H 0.39374 0.28278 0.28483 0.0
H1554 H 0.40067 0.30066 0.21611 0.0
H1555 H 0.42432 0.3321 0.16706 0.0
H1556 H 0.48468 0.38468 0.21616 0.0
H1557 H 0.4765 0.36766 0.28522 0.0
C1558 C 0.44197 0.32851 0.30738 0.0
C1559 C 0.42303 0.30786 0.31512 0.0
C1560 C 0.44583 0.33936 0.26741 0.0
C1561 C 0.40829 0.29854 0.28116 0.0
C1562 C 0.41223 0.30897 0.24131 0.0
C1563 C 0.4355 0.34008 0.19297 0.0
C1564 C 0.45509 0.36037 0.18545 0.0
C1565 C 0.43097 0.32951 0.23367 0.0
C1566 C 0.46935 0.36963 0.22012 0.0
C1567 C 0.46476 0.35965 0.26011 0.0
H1568 H 0.63757 0.1177 0.20973 0.0
H1569 H 0.66214 0.07745 0.15985 0.0
H1570 H 0.6831 0.08258 0.22494 0.0
H1571 H 0.69513 0.09918 0.29771 0.0
H1572 H 0.67432 0.14366 0.34095 0.0
H1573 H 0.65134 0.13594 0.27867 0.0
C1574 C 0.64755 0.11004 0.21271 0.0
C1575 C 0.64751 0.09662 0.17924 0.0
C1576 C 0.66027 0.11369 0.25017 0.0
C1577 C 0.66114 0.08741 0.18457 0.0
C1578 C 0.67328 0.09042 0.22221 0.0
C1579 C 0.68555 0.10711 0.29372 0.0
C1580 C 0.68655 0.12187 0.32551 0.0
C1581 C 0.67298 0.10347 0.25566 0.0
C1582 C 0.67385 0.13195 0.31838 0.0
C1583 C 0.66073 0.12767 0.28216 0.0
H1584 H 0.59718 0.89784 0.54229 0.0
H1585 H 0.53218 0.85766 0.49246 0.0
H1586 H 0.51649 0.86511 0.5543 0.0
H1587 H 0.52039 0.88181 0.62475 0.0
H1588 H 0.58478 0.92042 0.67798 0.0
H1589 H 0.601 0.91503 0.61394 0.0
C1590 C 0.57965 0.89128 0.54424 0.0
C1591 C 0.5661 0.87767 0.51097 0.0
C1592 C 0.57037 0.8952 0.58144 0.0
C1593 C 0.54328 0.86861 0.51617 0.0
C1594 C 0.53416 0.87272 0.55211 0.0
C1595 C 0.53803 0.88912 0.62263 0.0
C1596 C 0.55116 0.90183 0.65703 0.0
C1597 C 0.54741 0.88575 0.58536 0.0
C1598 C 0.57402 0.91092 0.65256 0.0
C1599 C 0.58341 0.90777 0.61558 0.0
H1600 H 0.13082 0.66069 0.65316 0.0
H1601 H 0.06128 0.62859 0.63299 0.0
H1602 H 0.06712 0.64617 0.56407 0.0
H1603 H 0.09237 0.67121 0.50711 0.0
H1604 H 0.16191 0.70468 0.53125 0.0
H1605 H 0.15564 0.68659 0.59891 0.0
C1606 C 0.11683 0.65777 0.63414 0.0
C1607 C 0.09546 0.64343 0.64984 0.0
C1608 C 0.12035 0.66842 0.59409 0.0
C1609 C 0.07784 0.63993 0.62352 0.0
C1610 C 0.08123 0.64991 0.58334 0.0
C1611 C 0.10616 0.67471 0.5272 0.0
C1612 C 0.12771 0.68972 0.51279 0.0
C1613 C 0.10245 0.66433 0.56793 0.0
C1614 C 0.14511 0.69339 0.54013 0.0
C1615 C 0.14157 0.68301 0.57955 0.0
H1616 H 0.35068 0.47509 0.64011 0.0
H1617 H 0.35708 0.41784 0.65236 0.0
H1618 H 0.3368 0.40339 0.58615 0.0
H1619 H 0.3162 0.4069 0.52282 0.0
H1620 H 0.30923 0.46428 0.51632 0.0
H1621 H 0.32997 0.47806 0.58066 0.0
C1622 C 0.34759 0.45931 0.62876 0.0
C1623 C 0.35584 0.44783 0.65232 0.0
C1624 C 0.33548 0.45089 0.59057 0.0
C1625 C 0.35128 0.42736 0.63591 0.0
C1626 C 0.33954 0.41903 0.59751 0.0
C1627 C 0.31939 0.42252 0.53506 0.0
C1628 C 0.31091 0.43444 0.51293 0.0
C1629 C 0.33149 0.43064 0.57405 0.0
C1630 C 0.31534 0.45452 0.53108 0.0
C1631 C 0.32731 0.46257 0.56857 0.0
H1632 H 0.8117 0.78165 0.3776 0.0
H1633 H 0.74725 0.74197 0.32535 0.0
H1634 H 0.731 0.74797 0.38886 0.0
H1635 H 0.73513 0.7664 0.45982 0.0
H1636 H 0.80044 0.80708 0.50829 0.0
H1637 H 0.81578 0.79891 0.44704 0.0
C1638 C 0.79405 0.77426 0.37975 0.0
C1639 C 0.78093 0.76114 0.34576 0.0
C1640 C 0.78474 0.77801 0.41664 0.0
C1641 C 0.75804 0.75187 0.3504 0.0
C1642 C 0.74866 0.75543 0.38707 0.0
C1643 C 0.75267 0.77301 0.45763 0.0
C1644 C 0.76642 0.7871 0.49033 0.0
C1645 C 0.76179 0.76857 0.42072 0.0
C1646 C 0.7892 0.79595 0.48495 0.0
C1647 C 0.79813 0.7914 0.44936 0.0
H1648 H 0.24521 0.99309 0.4852 0.0
H1649 H 0.17626 0.97087 0.47166 0.0
H1650 H 0.18304 0.98976 0.40499 0.0
H1651 H 0.20785 0.01295 0.34894 0.0
H1652 H 0.2765 0.03423 0.35641 0.0
H1653 H 0.27064 0.01557 0.42496 0.0
C1654 C 0.23165 0.9922 0.46761 0.0
C1655 C 0.21006 0.98009 0.48475 0.0
C1656 C 0.2356 0.00306 0.42726 0.0
C1657 C 0.19304 0.97981 0.46062 0.0
C1658 C 0.19687 0.99067 0.4218 0.0
C1659 C 0.22161 0.01337 0.36515 0.0
C1660 C 0.2427 0.02509 0.34657 0.0
C1661 C 0.21798 0.00232 0.40457 0.0
C1662 C 0.26009 0.02526 0.369 0.0
C1663 C 0.25667 0.01462 0.40869 0.0
H1664 H 0.97568 0.18748 0.36998 0.0
H1665 H 0.98686 0.2511 0.3338 0.0
H1666 H 0.00802 0.26673 0.39893 0.0
H1667 H 0.02445 0.26237 0.46764 0.0
H1668 H 0.01321 0.19805 0.49926 0.0
H1669 H 0.99121 0.18312 0.43628 0.0
C1670 C 0.98275 0.20484 0.37593 0.0
C1671 C 0.97943 0.21789 0.34586 0.0
C1672 C 0.995 0.21377 0.41379 0.0
C1673 C 0.98893 0.24038 0.35543 0.0
C1674 C 0.00109 0.24938 0.39317 0.0
C1675 C 0.017 0.24506 0.46113 0.0
C1676 C 0.02074 0.23151 0.48968 0.0
C1677 C 0.00435 0.23627 0.42299 0.0
C1678 C 0.01083 0.20912 0.47916 0.0
C1679 C 0.99819 0.20044 0.44253 0.0
H1680 H 0.21036 0.18762 0.86651 0.0
H1681 H 0.26866 0.24894 0.84017 0.0
H1682 H 0.26377 0.26398 0.9062 0.0
H1683 H 0.24121 0.26067 0.97167 0.0
H1684 H 0.18226 0.19915 0.99383 0.0
H1685 H 0.1888 0.18403 0.93051 0.0
C1686 C 0.22199 0.20442 0.87473 0.0
C1687 C 0.23998 0.21692 0.84721 0.0
C1688 C 0.21875 0.21329 0.91281 0.0
C1689 C 0.25465 0.23865 0.8597 0.0
C1690 C 0.25174 0.2474 0.89787 0.0
C1691 C 0.23005 0.24387 0.96314 0.0
C1692 C 0.21127 0.2312 0.98911 0.0
C1693 C 0.23372 0.23502 0.92492 0.0
C1694 C 0.19692 0.20952 0.9758 0.0
C1695 C 0.20059 0.20074 0.93896 0.0
H1696 H 0.75493 0.0138 0.85301 0.0
H1697 H 0.82162 0.02661 0.85403 0.0
H1698 H 0.81477 0.00607 0.91867 0.0
H1699 H 0.79079 0.98455 0.97697 0.0
H1700 H 0.725 0.97325 0.98333 0.0
H1701 H 0.73061 0.99302 0.91611 0.0
C1702 C 0.76804 0.01233 0.8675 0.0
C1703 C 0.78905 0.02241 0.84742 0.0
C1704 C 0.7642 0.00065 0.90702 0.0
C1705 C 0.80533 0.01945 0.86742 0.0
C1706 C 0.80148 0.00762 0.90511 0.0
C1707 C 0.77759 0.98649 0.96412 0.0
C1708 C 0.75735 0.97709 0.98617 0.0
C1709 C 0.78113 0.99826 0.92555 0.0
C1710 C 0.74074 0.98009 0.96793 0.0
C1711 C 0.744 0.99145 0.929 0.0
H1712 H 0.02589 0.76135 0.96529 0.0
H1713 H 0.01104 0.81122 1.00208 0.0
H1714 H 0.98754 0.80326 0.94072 0.0
H1715 H 0.97175 0.78344 0.87401 0.0
H1716 H 0.98941 0.73656 0.83073 0.0
H1717 H 0.01103 0.74222 0.89512 0.0
C1718 C 0.01755 0.77048 0.96004 0.0
C1719 C 0.02058 0.78698 0.98969 0.0
C1720 C 0.00444 0.76644 0.9225 0.0
C1721 C 0.00923 0.79834 0.98109 0.0
C1722 C 0.99574 0.79389 0.94538 0.0
C1723 C 0.98032 0.77439 0.87829 0.0
C1724 C 0.97821 0.75911 0.84678 0.0
C1725 C 0.99337 0.77822 0.91537 0.0
C1726 C 0.98991 0.74796 0.854 0.0
C1727 C 0.00252 0.75134 0.89118 0.0
H1728 H 0.99623 0.42266 0.97388 0.0
H1729 H 0.0475 0.40627 0.97844 0.0
H1730 H 0.04791 0.40477 0.90149 0.0
H1731 H 0.02963 0.4025 0.83527 0.0
H1732 H 0.97787 0.41828 0.83037 0.0
H1733 H 0.98177 0.426 0.90579 0.0
C1734 C 0.00754 0.41894 0.95767 0.0
C1735 C 0.02138 0.41396 0.98072 0.0
C1736 C 0.00754 0.41802 0.91398 0.0
C1737 C 0.03652 0.40976 0.96046 0.0
C1738 C 0.03676 0.40895 0.91681 0.0
C1739 C 0.01976 0.40838 0.85041 0.0
C1740 C 0.00324 0.40944 0.82798 0.0
C1741 C 0.02181 0.41231 0.89347 0.0
C1742 C 0.9904 0.41695 0.84771 0.0
C1743 C 0.99258 0.42131 0.89061 0.0
H1744 H 0.57635 0.5996 0.99032 0.0
H1745 H 0.63664 0.59768 0.99357 0.0
H1746 H 0.63542 0.59358 0.91699 0.0
H1747 H 0.61775 0.59178 0.84977 0.0
H1748 H 0.55865 0.5959 0.84663 0.0
H1749 H 0.55881 0.59794 0.92342 0.0
C1750 C 0.58945 0.5987 0.97416 0.0
C1751 C 0.60683 0.59943 0.99701 0.0
C1752 C 0.58879 0.59671 0.93061 0.0
C1753 C 0.62322 0.59732 0.97621 0.0
C1754 C 0.62254 0.59502 0.93266 0.0
C1755 C 0.60509 0.59341 0.86598 0.0
C1756 C 0.5884 0.59402 0.84308 0.0
C1757 C 0.60552 0.59495 0.90965 0.0
C1758 C 0.57164 0.59542 0.86404 0.0
C1759 C 0.57178 0.59667 0.90769 0.0
H1760 H 0.41795 0.02355 0.99256 0.0
H1761 H 0.38137 0.95301 0.98786 0.0
H1762 H 0.38514 0.95415 0.91122 0.0
H1763 H 0.39354 0.97541 0.84581 0.0
H1764 H 0.42853 0.04594 0.85079 0.0
H1765 H 0.43114 0.0447 0.9274 0.0
C1766 C 0.41129 0.00845 0.97478 0.0
C1767 C 0.399 0.98827 0.9953 0.0
C1768 C 0.41305 0.00927 0.93095 0.0
C1769 C 0.39043 0.96875 0.97224 0.0
C1770 C 0.39263 0.96939 0.9286 0.0
C1771 C 0.40218 0.99046 0.86371 0.0
C1772 C 0.41038 0.0107 0.84331 0.0
C1773 C 0.40305 0.98958 0.90758 0.0
C1774 C 0.42164 0.03018 0.86639 0.0
C1775 C 0.42316 0.02947 0.90999 0.0
H1776 H 0.00871 0.62354 0.34756 0.0
H1777 H 0.98807 0.55497 0.3581 0.0
H1778 H 0.98846 0.55752 0.4351 0.0
H1779 H 0.99448 0.57949 0.49859 0.0
H1780 H 0.01257 0.64755 0.48677 0.0
H1781 H 0.01388 0.64511 0.4105 0.0
C1782 C 0.0047 0.6093 0.36687 0.0
C1783 C 0.99874 0.58925 0.34786 0.0
C1784 C 0.00445 0.6108 0.41051 0.0
C1785 C 0.9929 0.57062 0.37264 0.0
C1786 C 0.99306 0.57207 0.41639 0.0
C1787 C 0.99831 0.59369 0.47932 0.0
C1788 C 0.00331 0.61366 0.49822 0.0
C1789 C 0.99862 0.59207 0.43558 0.0
C1790 C 0.00883 0.63206 0.47292 0.0
C1791 C 0.00952 0.63067 0.42939 0.0
H1792 H 0.41728 0.42619 0.34118 0.0
H1793 H 0.38499 0.35569 0.34602 0.0
H1794 H 0.38578 0.35674 0.42299 0.0
H1795 H 0.39482 0.3776 0.48767 0.0
H1796 H 0.42657 0.44805 0.48379 0.0
H1797 H 0.42717 0.44734 0.40666 0.0
C1798 C 0.41022 0.41111 0.35932 0.0
C1799 C 0.40067 0.39086 0.33883 0.0
C1800 C 0.41078 0.4119 0.40304 0.0
C1801 C 0.39217 0.37135 0.36184 0.0
C1802 C 0.39265 0.37197 0.40549 0.0
C1803 C 0.40166 0.39275 0.4698 0.0
C1804 C 0.41024 0.41278 0.4906 0.0
C1805 C 0.40172 0.39212 0.42621 0.0
C1806 C 0.41976 0.43247 0.46779 0.0
C1807 C 0.42003 0.43204 0.42401 0.0
H1808 H 0.57917 0.98838 0.3389 0.0
H1809 H 0.6463 0.04027 0.35108 0.0
H1810 H 0.64212 0.04049 0.42716 0.0
H1811 H 0.62088 0.0237 0.48937 0.0
H1812 H 0.55384 0.97127 0.4799 0.0
H1813 H 0.55626 0.97363 0.40286 0.0
C1814 C 0.59279 0.99956 0.35856 0.0
C1815 C 0.61311 0.01397 0.34033 0.0
C1816 C 0.59023 0.99963 0.40213 0.0
C1817 C 0.63064 0.02889 0.36517 0.0
C1818 C 0.62823 0.0291 0.40836 0.0
C1819 C 0.60653 0.01328 0.47058 0.0
C1820 C 0.5873 0.99733 0.48987 0.0
C1821 C 0.60825 0.01434 0.42707 0.0
C1822 C 0.56891 0.98358 0.46527 0.0
C1823 C 0.57033 0.98483 0.42145 0.0
H1824 H 0.69575 0.74734 0.3155 0.0
H1825 H 0.627 0.72703 0.32297 0.0
H1826 H 0.62417 0.72437 0.24623 0.0
H1827 H 0.64111 0.72679 0.17802 0.0
H1828 H 0.70948 0.74557 0.17084 0.0
H1829 H 0.7127 0.74986 0.24735 0.0
C1830 C 0.6801 0.74205 0.30026 0.0
C1831 C 0.66152 0.73701 0.32435 0.0
C1832 C 0.67857 0.74026 0.25667 0.0
C1833 C 0.64146 0.73091 0.30463 0.0
C1834 C 0.63983 0.72931 0.26101 0.0
C1835 C 0.65661 0.73147 0.19337 0.0
C1836 C 0.67495 0.73546 0.16945 0.0
C1837 C 0.65823 0.7337 0.2369 0.0
C1838 C 0.69517 0.7423 0.18909 0.0
C1839 C 0.69699 0.74472 0.23258 0.0
H1840 H 0.23689 0.91673 0.19016 0.0
H1841 H 0.30168 0.92482 0.18523 0.0
H1842 H 0.30467 0.9282 0.26183 0.0
H1843 H 0.29046 0.93299 0.32818 0.0
H1844 H 0.22571 0.92514 0.33384 0.0
H1845 H 0.22086 0.91732 0.2584 0.0
C1846 C 0.25156 0.91918 0.20619 0.0
C1847 C 0.26923 0.92103 0.18295 0.0
C1848 C 0.25312 0.92115 0.24982 0.0
C1849 C 0.28805 0.92361 0.2032 0.0
C1850 C 0.28974 0.92552 0.24669 0.0
C1851 C 0.2751 0.92903 0.31307 0.0
C1852 C 0.25863 0.92994 0.33588 0.0
C1853 C 0.27259 0.92486 0.27009 0.0
C1854 C 0.23878 0.92493 0.31625 0.0
C1855 C 0.23599 0.92046 0.27336 0.0
H1856 H 0.05409 0.34278 0.32069 0.0
H1857 H 0.1027 0.3227 0.32168 0.0
H1858 H 0.10418 0.32401 0.24457 0.0
H1859 H 0.08978 0.32882 0.17781 0.0
H1860 H 0.03977 0.34711 0.17737 0.0
H1861 H 0.0408 0.34891 0.25427 0.0
C1862 C 0.0653 0.33916 0.30383 0.0
C1863 C 0.07835 0.3328 0.32586 0.0
C1864 C 0.06558 0.33943 0.26017 0.0
C1865 C 0.09258 0.32764 0.30452 0.0
C1866 C 0.09335 0.32833 0.2608 0.0
C1867 C 0.07899 0.33298 0.19475 0.0
C1868 C 0.06438 0.33739 0.17277 0.0
C1869 C 0.07955 0.33375 0.23844 0.0
C1870 C 0.05094 0.34348 0.1943 0.0
C1871 C 0.05155 0.34452 0.23794 0.0
H1872 H 0.67202 0.90912 0.67501 0.0
H1873 H 0.66257 0.9651 0.67511 0.0
H1874 H 0.66104 0.96423 0.75182 0.0
H1875 H 0.66236 0.94771 0.81776 0.0
H1876 H 0.67405 0.89322 0.81923 0.0
H1877 H 0.67459 0.89314 0.74202 0.0
C1878 C 0.67006 0.92137 0.69195 0.0
C1879 C 0.66762 0.9373 0.66992 0.0
C1880 C 0.66941 0.92088 0.73576 0.0
C1881 C 0.66444 0.95271 0.69179 0.0
C1882 C 0.66359 0.95223 0.73541 0.0
C1883 C 0.66528 0.93599 0.8011 0.0
C1884 C 0.66834 0.92065 0.82349 0.0
C1885 C 0.66605 0.93641 0.7575 0.0
C1886 C 0.67154 0.9051 0.80208 0.0
C1887 C 0.67199 0.90516 0.75824 0.0
H1888 H 0.07551 0.7491 0.66326 0.0
H1889 H 0.04826 0.67992 0.68604 0.0
H1890 H 0.05287 0.68635 0.76161 0.0
H1891 H 0.06332 0.71104 0.8202 0.0
H1892 H 0.09099 0.78043 0.80003 0.0
H1893 H 0.08725 0.77457 0.7236 0.0
C1894 C 0.07035 0.73551 0.68503 0.0
C1895 C 0.06131 0.71407 0.66981 0.0
C1896 C 0.07319 0.73936 0.72828 0.0
C1897 C 0.05513 0.6965 0.69763 0.0
C1898 C 0.05779 0.70016 0.74056 0.0
C1899 C 0.06906 0.72497 0.79908 0.0
C1900 C 0.07772 0.7461 0.8152 0.0
C1901 C 0.06676 0.72146 0.75605 0.0
C1902 C 0.08436 0.76399 0.78783 0.0
C1903 C 0.08218 0.76064 0.7444 0.0
H1904 H 0.24693 0.33967 0.82642 0.0
H1905 H 0.29684 0.32122 0.81932 0.0
H1906 H 0.29593 0.32226 0.74284 0.0
H1907 H 0.28196 0.32939 0.67891 0.0
H1908 H 0.2342 0.35046 0.68407 0.0
H1909 H 0.23346 0.34791 0.76137 0.0
C1910 C 0.25782 0.33621 0.80804 0.0
C1911 C 0.27198 0.33044 0.82807 0.0
C1912 C 0.25755 0.33731 0.7643 0.0
C1913 C 0.28568 0.32549 0.80426 0.0
C1914 C 0.28525 0.32617 0.76073 0.0
C1915 C 0.2712 0.33311 0.69715 0.0
C1916 C 0.25786 0.33965 0.67688 0.0
C1917 C 0.27131 0.33207 0.74064 0.0
C1918 C 0.24437 0.34515 0.69993 0.0
C1919 C 0.24401 0.34373 0.74371 0.0
H1920 H 0.36446 0.08232 0.65371 0.0
H1921 H 0.29388 0.04767 0.66257 0.0
H1922 H 0.2911 0.04828 0.58583 0.0
H1923 H 0.30891 0.05808 0.51692 0.0
H1924 H 0.37947 0.092 0.50831 0.0
H1925 H 0.38222 0.09219 0.58509 0.0
C1926 C 0.34848 0.07461 0.63872 0.0
C1927 C 0.32939 0.0646 0.66318 0.0
C1928 C 0.34707 0.07489 0.5951 0.0
C1929 C 0.30875 0.05533 0.64392 0.0
C1930 C 0.30717 0.05564 0.60028 0.0
C1931 C 0.32485 0.06523 0.53199 0.0
C1932 C 0.34397 0.07471 0.5076 0.0
C1933 C 0.32624 0.0652 0.57569 0.0
C1934 C 0.3646 0.08455 0.52696 0.0
C1935 C 0.36615 0.08463 0.57059 0.0
H1936 H 0.93605 0.28654 0.51462 0.0
H1937 H 0.92111 0.2193 0.52004 0.0
H1938 H 0.9219 0.22064 0.59699 0.0
H1939 H 0.92738 0.24141 0.662 0.0
H1940 H 0.94072 0.30806 0.6557 0.0
H1941 H 0.93958 0.30645 0.57877 0.0
C1942 C 0.93256 0.27206 0.53267 0.0
C1943 C 0.92845 0.25287 0.51224 0.0
C1944 C 0.93292 0.27295 0.57623 0.0
C1945 C 0.92444 0.2343 0.53559 0.0
C1946 C 0.92487 0.23505 0.57932 0.0
C1947 C 0.93036 0.2556 0.64348 0.0
C1948 C 0.93471 0.27499 0.66345 0.0
C1949 C 0.92934 0.2544 0.59982 0.0
C1950 C 0.93777 0.29318 0.64012 0.0
C1951 C 0.93703 0.29222 0.59653 0.0
H1952 H 0.75429 0.68066 0.64616 0.0
H1953 H 0.70601 0.61187 0.64525 0.0
H1954 H 0.7054 0.61226 0.56819 0.0
H1955 H 0.7152 0.63334 0.5028 0.0
H1956 H 0.76263 0.7024 0.50431 0.0
H1957 H 0.76727 0.70077 0.58025 0.0
C1958 C 0.74406 0.66566 0.62899 0.0
C1959 C 0.73008 0.64632 0.65073 0.0
C1960 C 0.7435 0.66616 0.58528 0.0
C1961 C 0.71664 0.62697 0.62863 0.0
C1962 C 0.71633 0.6272 0.58485 0.0
C1963 C 0.72687 0.64789 0.51971 0.0
C1964 C 0.73826 0.66799 0.4987 0.0
C1965 C 0.72915 0.64687 0.56305 0.0
C1966 C 0.75335 0.68685 0.5205 0.0
C1967 C 0.75605 0.68592 0.56364 0.0
H1968 H 0.34585 0.29065 1.01558 0.0
H1969 H 0.31525 0.22029 1.02086 0.0
H1970 H 0.31594 0.22146 0.09795 0.0
H1971 H 0.32373 0.2426 0.16254 0.0
H1972 H 0.35219 0.31282 0.15676 0.0
H1973 H 0.35458 0.31178 0.08014 0.0
C1974 C 0.33973 0.27567 1.03381 0.0
C1975 C 0.33063 0.25548 1.01351 0.0
C1976 C 0.33975 0.27649 0.07739 0.0
C1977 C 0.32229 0.23597 1.03663 0.0
C1978 C 0.32267 0.23665 0.08033 0.0
C1979 C 0.3301 0.25763 0.14439 0.0
C1980 C 0.33719 0.2777 0.16462 0.0
C1981 C 0.33098 0.25682 0.10085 0.0
C1982 C 0.34638 0.2972 0.14135 0.0
C1983 C 0.34773 0.29661 0.09782 0.0
H1984 H 0.74973 0.08953 1.00569 0.0
H1985 H 0.71861 0.01943 1.01858 0.0
H1986 H 0.72206 0.02291 0.0953 0.0
H1987 H 0.7316 0.0457 0.15723 0.0
H1988 H 0.76417 0.11606 0.14522 0.0
H1989 H 0.76243 0.11282 0.06847 0.0
C1990 C 0.74358 0.07512 1.02566 0.0
C1991 C 0.73334 0.05425 1.0078 0.0
C1992 C 0.74598 0.07734 0.06906 0.0
C1993 C 0.72605 0.03553 1.03273 0.0
C1994 C 0.72815 0.03755 0.07613 0.0
C1995 C 0.73893 0.06036 0.13787 0.0
C1996 C 0.74799 0.08104 0.15636 0.0
C1997 C 0.73785 0.05835 0.09446 0.0
C1998 C 0.75694 0.09995 0.13117 0.0
C1999 C 0.75594 0.09811 0.08757 0.0
H2000 H 0.93835 0.69745 1.02848 0.0
H2001 H 0.90167 0.6273 1.01431 0.0
H2002 H 0.90043 0.62269 0.0908 0.0
H2003 H 0.91515 0.63861 0.15981 0.0
H2004 H 0.95373 0.70865 0.17377 0.0
H2005 H 0.94875 0.71354 0.09889 0.0
C2006 C 0.92982 0.68121 0.0424 0.0
C2007 C 0.92052 0.6627 1.01644 0.0
C2008 C 0.92981 0.67875 0.08595 0.0
C2009 C 0.90901 0.6417 1.03414 0.0
C2010 C 0.90846 0.63908 0.07766 0.0
C2011 C 0.92227 0.65491 0.14632 0.0
C2012 C 0.93532 0.67327 0.17124 0.0
C2013 C 0.91968 0.65747 0.10357 0.0
C2014 C 0.94394 0.69438 0.15447 0.0
C2015 C 0.94113 0.69713 0.11189 0.0
H2016 H 0.09706 0.56509 1.00776 0.0
H2017 H 0.06756 0.50625 0.93284 0.0
H2018 H 0.06062 0.48413 0.996 0.0
H2019 H 0.06255 0.48093 0.07277 0.0
H2020 H 0.09249 0.53931 0.14872 0.0
H2021 H 0.09972 0.56185 0.08542 0.0
C2022 C 0.08924 0.54745 1.00511 0.0
C2023 C 0.08264 0.53755 0.96496 0.0
C2024 C 0.08535 0.53457 0.04204 0.0
C2025 C 0.07242 0.51454 0.96287 0.0
C2026 C 0.06856 0.50177 0.99917 0.0
C2027 C 0.0707 0.4986 0.07566 0.0
C2028 C 0.07695 0.50827 0.11589 0.0
C2029 C 0.07484 0.51153 0.03897 0.0
C2030 C 0.08754 0.53127 0.11846 0.0
C2031 C 0.09165 0.54423 0.0821 0.0
H2032 H 0.46869 0.54923 0.12439 0.0
H2033 H 0.53155 0.5944 0.07021 0.0
H2034 H 0.51608 0.58457 0.99964 0.0
H2035 H 0.48481 0.56324 0.95229 0.0
H2036 H 0.42219 0.51649 1.00554 0.0
H2037 H 0.43729 0.52699 0.07626 0.0
C2038 C 0.47897 0.55703 0.09717 0.0
C2039 C 0.50138 0.57266 0.10315 0.0
C2040 C 0.46996 0.55101 0.05595 0.0
C2041 C 0.51435 0.58229 0.06707 0.0
C2042 C 0.50547 0.57668 1.02642 0.0
C2043 C 0.47439 0.55508 0.97914 0.0
C2044 C 0.45212 0.53908 0.97256 0.0
C2045 C 0.48332 0.56097 1.0203 0.0
C2046 C 0.43917 0.52916 1.00868 0.0
C2047 C 0.44788 0.53507 0.04956 0.0
H2048 H 0.44988 0.92436 0.12615 0.0
H2049 H 0.40276 0.93819 0.06779 0.0
H2050 H 0.41394 0.93262 0.99833 0.0
H2051 H 0.43684 0.92346 0.95323 0.0
H2052 H 0.48487 0.91084 1.01136 0.0
H2053 H 0.47338 0.9159 0.08074 0.0
C2054 C 0.442 0.92615 0.0983 0.0
C2055 C 0.42537 0.93174 0.10283 0.0
C2056 C 0.44863 0.92298 0.05787 0.0
C2057 C 0.41558 0.93401 0.06588 0.0
C2058 C 0.42198 0.93077 1.02585 0.0
C2059 C 0.44505 0.92202 0.98086 0.0
C2060 C 0.46178 0.91655 0.97605 0.0
C2061 C 0.43851 0.92527 1.02129 0.0
C2062 C 0.47172 0.91453 1.01314 0.0
C2063 C 0.46524 0.91762 0.05324 0.0
H2064 H 0.52748 0.08273 0.70965 0.0
H2065 H 0.46409 0.06007 0.76661 0.0
H2066 H 0.47996 0.0639 0.83626 0.0
H2067 H 0.51175 0.07386 0.8824 0.0
H2068 H 0.57528 0.09617 0.82655 0.0
H2069 H 0.55961 0.09265 0.75649 0.0
C2070 C 0.51712 0.07871 0.73725 0.0
C2071 C 0.49443 0.07113 0.73207 0.0
C2072 C 0.52645 0.08098 0.77809 0.0
C2073 C 0.48151 0.06598 0.7688 0.0
C2074 C 0.49062 0.06815 0.80906 0.0
C2075 C 0.52226 0.07778 0.85508 0.0
C2076 C 0.54491 0.08539 0.86079 0.0
C2077 C 0.51306 0.0756 0.81428 0.0
C2078 C 0.55796 0.09063 0.82413 0.0
C2079 C 0.54893 0.08847 0.78361 0.0
H2080 H 0.9077 0.434 0.7101 0.0
H2081 H 0.95278 0.41583 0.76313 0.0
H2082 H 0.94969 0.42951 0.83174 0.0
H2083 H 0.93354 0.44566 0.8782 0.0
H2084 H 0.88786 0.46333 0.82631 0.0
H2085 H 0.89164 0.45067 0.75702 0.0
C2086 C 0.91687 0.43303 0.73663 0.0
C2087 C 0.93038 0.42363 0.73094 0.0
C2088 C 0.9148 0.44074 0.7768 0.0
C2089 C 0.94206 0.42264 0.76612 0.0
C2090 C 0.94036 0.43056 0.80561 0.0
C2091 C 0.92453 0.447 0.85179 0.0
C2092 C 0.9103 0.45548 0.85835 0.0
C2093 C 0.92669 0.43952 0.81156 0.0
C2094 C 0.89867 0.45664 0.82313 0.0
C2095 C 0.90092 0.44948 0.78309 0.0
H2096 H 0.53836 0.43574 0.82702 0.0
H2097 H 0.55331 0.49291 0.9005 0.0
H2098 H 0.5669 0.51577 0.83767 0.0
H2099 H 0.57543 0.52006 0.76141 0.0
H2100 H 0.56126 0.46295 0.6885 0.0
H2101 H 0.54692 0.44 0.75105 0.0
C2102 C 0.54474 0.45322 0.82954 0.0
C2103 C 0.5446 0.46234 0.86905 0.0
C2104 C 0.55286 0.46651 0.79303 0.0
C2105 C 0.55272 0.48511 0.87086 0.0
C2106 C 0.56072 0.49834 0.83478 0.0
C2107 C 0.56925 0.5026 0.75914 0.0
C2108 C 0.56967 0.49345 0.71987 0.0
C2109 C 0.56096 0.48929 0.79562 0.0
C2110 C 0.5614 0.47068 0.71798 0.0
C2111 C 0.5531 0.45742 0.75392 0.0
H2112 H 0.91634 0.46411 0.20585 0.0
H2113 H 0.93197 0.52662 0.25818 0.0
H2114 H 0.92831 0.51219 0.32902 0.0
H2115 H 0.92081 0.48202 0.37736 0.0
H2116 H 0.90499 0.41911 0.32689 0.0
H2117 H 0.90809 0.43323 0.25531 0.0
C2118 C 0.91874 0.47449 0.23275 0.0
C2119 C 0.92478 0.49666 0.22614 0.0
C2120 C 0.91649 0.46595 0.27429 0.0
C2121 C 0.92785 0.50973 0.26177 0.0
C2122 C 0.92561 0.50142 0.30264 0.0
C2123 C 0.91822 0.47136 0.35085 0.0
C2124 C 0.91267 0.44941 0.35825 0.0
C2125 C 0.92012 0.47962 0.30944 0.0
C2126 C 0.90902 0.43597 0.32283 0.0
C2127 C 0.91091 0.44409 0.28157 0.0
H2128 H 0.55654 0.44404 0.34057 0.0
H2129 H 0.52765 0.48337 0.3747 0.0
H2130 H 0.50591 0.47223 0.31062 0.0
H2131 H 0.49431 0.4508 0.24405 0.0
H2132 H 0.52677 0.41557 0.20614 0.0
H2133 H 0.54787 0.42588 0.27155 0.0
C2134 C 0.54582 0.45057 0.33411 0.0
C2135 C 0.54375 0.46432 0.36399 0.0
C2136 C 0.53373 0.44471 0.29599 0.0
C2137 C 0.52935 0.47218 0.35394 0.0
C2138 C 0.51691 0.46597 0.3167 0.0
C2139 C 0.506 0.44539 0.2502 0.0
C2140 C 0.50866 0.43212 0.22031 0.0
C2141 C 0.51876 0.45205 0.28758 0.0
C2142 C 0.52429 0.42571 0.22847 0.0
C2143 C 0.53637 0.43158 0.26604 0.0
H2144 H 0.55803 0.08479 0.20934 0.0
H2145 H 0.59137 0.05359 0.26514 0.0
H2146 H 0.57902 0.05703 0.33467 0.0
H2147 H 0.559 0.069 0.38113 0.0
H2148 H 0.52535 0.10012 0.32655 0.0
H2149 H 0.53774 0.0969 0.25657 0.0
C2150 C 0.56266 0.07877 0.23666 0.0
C2151 C 0.57581 0.06892 0.23118 0.0
C2152 C 0.55547 0.08088 0.2775 0.0
C2153 C 0.58143 0.0613 0.26757 0.0
C2154 C 0.57431 0.06324 0.30776 0.0
C2155 C 0.55411 0.07493 0.35407 0.0
C2156 C 0.54112 0.08488 0.36016 0.0
C2157 C 0.56129 0.07296 0.31331 0.0
C2158 C 0.53552 0.09268 0.32388 0.0
C2159 C 0.54253 0.09071 0.28339 0.0
H2160 H 0.51765 0.95455 0.58147 0.0
H2161 H 0.47757 0.88819 0.62477 0.0
H2162 H 0.45577 0.87902 0.55991 0.0
H2163 H 0.44835 0.88978 0.48992 0.0
H2164 H 0.48522 0.95784 0.45269 0.0
H2165 H 0.50751 0.96619 0.51554 0.0
C2166 C 0.50411 0.93808 0.57676 0.0
C2167 C 0.49944 0.92204 0.60806 0.0
C2168 C 0.49093 0.93315 0.54009 0.0
C2169 C 0.4816 0.90087 0.60141 0.0
C2170 C 0.4691 0.89563 0.56419 0.0
C2171 C 0.46102 0.90654 0.49537 0.0
C2172 C 0.46516 0.92286 0.46457 0.0
C2173 C 0.47355 0.91164 0.53313 0.0
C2174 C 0.48188 0.94445 0.47374 0.0
C2175 C 0.49468 0.94943 0.51037 0.0
H2176 H 0.06898 0.51907 0.50213 0.0
H2177 H 0.10995 0.58226 0.44485 0.0
H2178 H 0.10524 0.60023 0.50619 0.0
H2179 H 0.08903 0.59838 0.57665 0.0
H2180 H 0.05001 0.5355 0.63578 0.0
H2181 H 0.05401 0.51727 0.57375 0.0
C2182 C 0.07679 0.53677 0.50287 0.0
C2183 C 0.08981 0.54914 0.46829 0.0
C2184 C 0.07418 0.54718 0.53884 0.0
C2185 C 0.10001 0.57214 0.47071 0.0
C2186 C 0.09721 0.58252 0.50588 0.0
C2187 C 0.08132 0.58069 0.57575 0.0
C2188 C 0.06898 0.56832 0.61075 0.0
C2189 C 0.08426 0.57027 0.54015 0.0
C2190 C 0.0595 0.54542 0.60935 0.0
C2191 C 0.06181 0.53496 0.57376 0.0
H2192 H 0.44383 0.51388 0.45318 0.0
H2193 H 0.47422 0.57903 0.50503 0.0
H2194 H 0.46292 0.56375 0.57564 0.0
H2195 H 0.44423 0.53161 0.62398 0.0
H2196 H 0.41496 0.46668 0.57127 0.0
H2197 H 0.42609 0.48215 0.50098 0.0
C2198 C 0.44826 0.52487 0.47978 0.0
C2199 C 0.45987 0.54779 0.47279 0.0
C2200 C 0.44182 0.51592 0.52089 0.0
C2201 C 0.46499 0.56141 0.50846 0.0
C2202 C 0.45862 0.55263 0.54928 0.0
C2203 C 0.44022 0.52081 0.59716 0.0
C2204 C 0.42856 0.49785 0.60362 0.0
C2205 C 0.44692 0.52987 0.55605 0.0
C2206 C 0.42383 0.48433 0.56798 0.0
C2207 C 0.43025 0.49319 0.52741 0.0
H2208 H 0.77996 0.88674 0.32114 0.0
H2209 H 0.71148 0.86271 0.29467 0.0
H2210 H 0.70137 0.84183 0.35991 0.0
H2211 H 0.7116 0.82956 0.42516 0.0
H2212 H 0.77993 0.8568 0.4555 0.0
H2213 H 0.79026 0.87729 0.38907 0.0
C2214 C 0.76279 0.87725 0.32955 0.0
C2215 C 0.74665 0.87622 0.30145 0.0
C2216 C 0.75693 0.86563 0.36832 0.0
C2217 C 0.7245 0.86348 0.314 0.0
C2218 C 0.71859 0.85157 0.35189 0.0
C2219 C 0.72875 0.83997 0.41713 0.0
C2220 C 0.74498 0.8414 0.44518 0.0
C2221 C 0.73462 0.85229 0.37919 0.0
C2222 C 0.7671 0.85534 0.4346 0.0
C2223 C 0.77302 0.86706 0.39647 0.0
H2224 H 0.15108 0.8764 0.29721 0.0
H2225 H 0.09575 0.88412 0.32939 0.0
H2226 H 0.11171 0.89823 0.39808 0.0
H2227 H 0.14201 0.9095 0.45001 0.0
H2228 H 0.19897 0.90562 0.41425 0.0
H2229 H 0.18197 0.88937 0.34693 0.0
C2230 C 0.14247 0.88136 0.31874 0.0
C2231 C 0.12183 0.8787 0.30709 0.0
C2232 C 0.15219 0.89037 0.35829 0.0
C2233 C 0.11122 0.88514 0.33681 0.0
C2234 C 0.12051 0.89355 0.37642 0.0
C2235 C 0.15071 0.90514 0.42743 0.0
C2236 C 0.17186 0.9089 0.43757 0.0
C2237 C 0.14103 0.89631 0.38767 0.0
C2238 C 0.18284 0.90322 0.40748 0.0
C2239 C 0.17305 0.89379 0.36883 0.0
H2240 H 0.13083 0.23439 0.33803 0.0
H2241 H 0.11532 0.27738 0.2678 0.0
H2242 H 0.10137 0.28529 0.33161 0.0
H2243 H 0.09271 0.27965 0.40777 0.0
H2244 H 0.1078 0.2363 0.4777 0.0
H2245 H 0.1224 0.22893 0.41414 0.0
C2246 C 0.12429 0.24539 0.33643 0.0
C2247 C 0.12433 0.25523 0.29748 0.0
C2248 C 0.11606 0.24986 0.37357 0.0
C2249 C 0.11598 0.26972 0.29693 0.0
C2250 C 0.10779 0.27419 0.33359 0.0
C2251 C 0.09916 0.26857 0.4092 0.0
C2252 C 0.09892 0.2585 0.44794 0.0
C2253 C 0.10765 0.26432 0.37216 0.0
C2254 C 0.10757 0.24429 0.4487 0.0
C2255 C 0.11599 0.24003 0.41216 0.0
H2256 H 0.22907 0.42662 0.15893 0.0
H2257 H 0.17133 0.40156 0.237 0.0
H2258 H 0.14851 0.39384 0.17455 0.0
H2259 H 0.1446 0.3945 0.09717 0.0
H2260 H 0.2025 0.42069 1.01943 0.0
H2261 H 0.22526 0.42771 0.08181 0.0
C2262 C 0.21153 0.41963 0.16247 0.0
C2263 C 0.20213 0.41463 0.20318 0.0
C2264 C 0.19834 0.41541 0.12614 0.0
C2265 C 0.1792 0.40527 0.20645 0.0
C2266 C 0.16605 0.40097 0.17058 0.0
C2267 C 0.16219 0.40177 0.09384 0.0
C2268 C 0.1717 0.40714 0.05332 0.0
C2269 C 0.17538 0.40596 0.13018 0.0
C2270 C 0.1946 0.41654 0.04997 0.0
C2271 C 0.20771 0.42053 0.08578 0.0
H2272 H 0.57406 0.77248 0.04269 0.0
H2273 H 0.61912 0.75359 0.09337 0.0
H2274 H 0.61525 0.76532 0.16304 0.0
H2275 H 0.59875 0.78029 0.21112 0.0
H2276 H 0.55397 0.79979 0.1618 0.0
H2277 H 0.55789 0.78834 0.09139 0.0
C2278 C 0.58303 0.7709 0.06894 0.0
C2279 C 0.59684 0.76197 0.06208 0.0
C2280 C 0.58072 0.77774 0.10981 0.0
C2281 C 0.60829 0.76024 0.09698 0.0
C2282 C 0.60612 0.767 0.13723 0.0
C2283 C 0.58998 0.78232 0.18505 0.0
C2284 C 0.57595 0.79091 0.19261 0.0
C2285 C 0.59236 0.77574 0.14419 0.0
C2286 C 0.5646 0.79295 0.1578 0.0
C2287 C 0.56694 0.78649 0.11714 0.0
H2288 H 0.20599 0.77054 0.16249 0.0
H2289 H 0.21882 0.82919 0.22846 0.0
H2290 H 0.23286 0.85045 0.16395 0.0
H2291 H 0.24173 0.85283 0.08869 0.0
H2292 H 0.22945 0.79465 1.02182 0.0
H2293 H 0.21531 0.77306 0.08647 0.0
C2294 C 0.21197 0.78799 0.16291 0.0
C2295 C 0.21105 0.79804 0.20078 0.0
C2296 C 0.22024 0.80034 0.12532 0.0
C2297 C 0.21879 0.82073 0.20006 0.0
C2298 C 0.22703 0.83303 0.16306 0.0
C2299 C 0.23603 0.83544 0.08808 0.0
C2300 C 0.23679 0.82551 0.05004 0.0
C2301 C 0.22782 0.82305 0.12547 0.0
C2302 C 0.22917 0.80287 0.05036 0.0
C2303 C 0.22103 0.79046 0.08747 0.0
H2304 H 0.5887 0.81624 0.71268 0.0
H2305 H 0.56624 0.75203 0.66077 0.0
H2306 H 0.57041 0.76686 0.58962 0.0
H2307 H 0.58101 0.79848 0.54098 0.0
H2308 H 0.60451 0.8626 0.59436 0.0
H2309 H 0.59961 0.84747 0.66498 0.0
C2310 C 0.58491 0.80542 0.68597 0.0
C2311 C 0.57705 0.78288 0.69288 0.0
C2312 C 0.58755 0.81411 0.64475 0.0
C2313 C 0.57195 0.76933 0.65716 0.0
C2314 C 0.57447 0.77785 0.61612 0.0
C2315 C 0.58496 0.80911 0.56805 0.0
C2316 C 0.59318 0.83177 0.5618 0.0
C2317 C 0.58225 0.80026 0.60936 0.0
C2318 C 0.5983 0.84519 0.59765 0.0
C2319 C 0.59547 0.83652 0.63837 0.0
H2320 H 0.19714 0.77215 0.53961 0.0
H2321 H 0.13337 0.74592 0.59706 0.0
H2322 H 0.15033 0.75954 0.6654 0.0
H2323 H 0.18315 0.77817 0.71021 0.0
H2324 H 0.24711 0.80411 0.6539 0.0
H2325 H 0.23029 0.7912 0.58489 0.0
C2326 C 0.18694 0.76936 0.56707 0.0
C2327 C 0.16387 0.75778 0.5627 0.0
C2328 C 0.19687 0.77713 0.60702 0.0
C2329 C 0.15108 0.75448 0.59901 0.0
C2330 C 0.1608 0.76237 0.63838 0.0
C2331 C 0.1935 0.78124 0.68289 0.0
C2332 C 0.21652 0.79213 0.68794 0.0
C2333 C 0.18368 0.77364 0.64294 0.0
C2334 C 0.22941 0.79555 0.65167 0.0
C2335 C 0.21977 0.78823 0.61189 0.0
H2336 H 0.24702 0.39294 0.59707 0.0
H2337 H 0.21716 0.42143 0.52016 0.0
H2338 H 0.20187 0.42872 0.58264 0.0
H2339 H 0.19691 0.42747 0.6596 0.0
H2340 H 0.22752 0.40003 0.73734 0.0
H2341 H 0.24209 0.39181 0.67475 0.0
C2342 C 0.23717 0.40073 0.59394 0.0
C2343 C 0.23348 0.40667 0.55347 0.0
C2344 C 0.22837 0.40509 0.63049 0.0
C2345 C 0.22056 0.41675 0.55052 0.0
C2346 C 0.2117 0.42093 0.58644 0.0
C2347 C 0.20691 0.41986 0.66313 0.0
C2348 C 0.21088 0.41442 0.70387 0.0
C2349 C 0.21556 0.41532 0.6267 0.0
C2350 C 0.22369 0.40419 0.70689 0.0
C2351 C 0.23224 0.39957 0.67088 0.0
H2352 H 0.15221 0.26263 0.78941 0.0
H2353 H 0.08764 0.22761 0.84456 0.0
H2354 H 0.10378 0.23222 0.91442 0.0
H2355 H 0.13643 0.24599 0.96085 0.0
H2356 H 0.20084 0.28165 0.90511 0.0
H2357 H 0.1846 0.27729 0.8356 0.0
C2358 C 0.14157 0.25618 0.81661 0.0
C2359 C 0.11857 0.24457 0.81092 0.0
C2360 C 0.151 0.25901 0.85719 0.0
C2361 C 0.10532 0.23621 0.84717 0.0
C2362 C 0.11458 0.23898 0.88749 0.0
C2363 C 0.14694 0.25281 0.93354 0.0
C2364 C 0.16997 0.26406 0.93877 0.0
C2365 C 0.13743 0.25024 0.893 0.0
C2366 C 0.18314 0.27282 0.90261 0.0
C2367 C 0.17383 0.27035 0.86253 0.0
H2368 H 0.75633 0.89036 0.96057 0.0
H2369 H 0.72015 0.91876 0.90557 0.0
H2370 H 0.72494 0.90762 0.83582 0.0
H2371 H 0.73964 0.89018 0.78924 0.0
H2372 H 0.77481 0.86055 0.84352 0.0
H2373 H 0.77041 0.87196 0.91353 0.0
C2374 C 0.74958 0.89422 0.93334 0.0
C2375 C 0.73793 0.90556 0.93893 0.0
C2376 C 0.75227 0.88756 0.89262 0.0
C2377 C 0.7292 0.91012 0.90285 0.0
C2378 C 0.73193 0.90373 0.86261 0.0
C2379 C 0.74619 0.88595 0.81627 0.0
C2380 C 0.75774 0.87453 0.81025 0.0
C2381 C 0.74341 0.89242 0.85697 0.0
C2382 C 0.76624 0.86964 0.84633 0.0
C2383 C 0.76359 0.87607 0.88676 0.0
H2384 H 0.10216 0.86694 0.95488 0.0
H2385 H 0.09733 0.80655 0.91271 0.0
H2386 H 0.11049 0.82214 0.84363 0.0
H2387 H 0.12257 0.85232 0.7933 0.0
H2388 H 0.12847 0.91339 0.83344 0.0
H2389 H 0.11567 0.89819 0.90379 0.0
C2390 C 0.10403 0.85723 0.93062 0.0
C2391 C 0.09831 0.83534 0.93952 0.0
C2392 C 0.11178 0.86641 0.88992 0.0
C2393 C 0.10106 0.82321 0.90725 0.0
C2394 C 0.10877 0.83218 0.86738 0.0
C2395 C 0.12139 0.86252 0.8174 0.0
C2396 C 0.12654 0.88409 0.80728 0.0
C2397 C 0.11406 0.85369 0.85812 0.0
C2398 C 0.12438 0.89666 0.83946 0.0
C2399 C 0.11714 0.88798 0.88008 0.0
H2400 H 0.43596 0.19532 0.78229 0.0
H2401 H 0.37051 0.14362 0.75382 0.0
H2402 H 0.37201 0.16043 0.68571 0.0
H2403 H 0.39198 0.18949 0.63298 0.0
H2404 H 0.45854 0.23985 0.65906 0.0
H2405 H 0.45631 0.22417 0.72847 0.0
C2406 C 0.42202 0.18775 0.76119 0.0
C2407 C 0.40319 0.16805 0.77344 0.0
C2408 C 0.42313 0.19735 0.72119 0.0
C2409 C 0.38535 0.15856 0.74535 0.0
C2410 C 0.38615 0.16824 0.70624 0.0
C2411 C 0.40617 0.19703 0.65344 0.0
C2412 C 0.42538 0.21615 0.6399 0.0
C2413 C 0.40503 0.18754 0.6935 0.0
C2414 C 0.44328 0.22554 0.66807 0.0
C2415 C 0.44213 0.21641 0.70803 0.0
H2416 H 0.80118 0.22915 0.79286 0.0
H2417 H 0.86372 0.24184 0.74457 0.0
H2418 H 0.84772 0.2292 0.67527 0.0
H2419 H 0.81626 0.21535 0.62687 0.0
H2420 H 0.75352 0.20238 0.67443 0.0
H2421 H 0.76931 0.21449 0.7443 0.0
C2422 C 0.81132 0.22918 0.76721 0.0
C2423 C 0.83377 0.23667 0.77446 0.0
C2424 C 0.80198 0.22191 0.72671 0.0
C2425 C 0.84649 0.23641 0.74044 0.0
C2426 C 0.83732 0.2291 0.70049 0.0
C2427 C 0.8059 0.21491 0.65249 0.0
C2428 C 0.78362 0.208 0.64461 0.0
C2429 C 0.8151 0.2219 0.69306 0.0
C2430 C 0.77076 0.20793 0.67872 0.0
C2431 C 0.77977 0.21476 0.71906 0.0
H2432 H 0.79887 0.61365 0.6306 0.0
H2433 H 0.78364 0.54739 0.6569 0.0
H2434 H 0.77042 0.54942 0.72647 0.0
H2435 H 0.76202 0.56953 0.7807 0.0
H2436 H 0.77447 0.63454 0.75213 0.0
H2437 H 0.78948 0.63327 0.68358 0.0
C2438 C 0.7925 0.59949 0.65113 0.0
C2439 C 0.79273 0.58046 0.63757 0.0
C2440 C 0.78423 0.60049 0.6914 0.0
C2441 C 0.78445 0.56256 0.66586 0.0
C2442 C 0.77659 0.56359 0.70597 0.0
C2443 C 0.7681 0.58345 0.75954 0.0
C2444 C 0.767 0.60211 0.77196 0.0
C2445 C 0.77635 0.58244 0.71925 0.0
C2446 C 0.77485 0.61987 0.74364 0.0
C2447 C 0.78353 0.61918 0.70424 0.0
H2448 H 0.84378 0.74034 0.54929 0.0
H2449 H 0.90627 0.75849 0.49257 0.0
H2450 H 0.89053 0.75517 0.42275 0.0
H2451 H 0.85877 0.74679 0.37642 0.0
H2452 H 0.79599 0.72692 0.43354 0.0
H2453 H 0.812 0.73109 0.50333 0.0
C2454 C 0.85404 0.7434 0.52185 0.0
C2455 C 0.87648 0.74992 0.52727 0.0
C2456 C 0.84475 0.74118 0.48112 0.0
C2457 C 0.88918 0.75396 0.49042 0.0
C2458 C 0.8801 0.7519 0.45003 0.0
C2459 C 0.84857 0.74345 0.40407 0.0
C2460 C 0.82602 0.7365 0.399 0.0
C2461 C 0.85789 0.74559 0.44481 0.0
C2462 C 0.81328 0.73221 0.43576 0.0
C2463 C 0.82247 0.73459 0.47603 0.0
H2464 H 0.27945 0.0934 0.42722 0.0
H2465 H 0.23622 0.10724 0.35373 0.0
H2466 H 0.22751 0.12151 0.41616 0.0
H2467 H 0.23215 0.13045 0.49208 0.0
H2468 H 0.27479 0.11585 0.56581 0.0
H2469 H 0.28377 0.10198 0.50329 0.0
C2470 C 0.26808 0.09948 0.42475 0.0
C2471 C 0.25852 0.09907 0.38534 0.0
C2472 C 0.26305 0.10776 0.46112 0.0
C2473 C 0.24386 0.10717 0.38329 0.0
C2474 C 0.23884 0.11541 0.41917 0.0
C2475 C 0.24327 0.12408 0.49475 0.0
C2476 C 0.25279 0.12448 0.53427 0.0
C2477 C 0.2483 0.1158 0.45836 0.0
C2478 C 0.26742 0.11631 0.53619 0.0
C2479 C 0.27249 0.10814 0.50028 0.0
H2480 H 0.87634 0.10495 0.49748 0.0
H2481 H 0.87887 0.15997 0.56188 0.0
H2482 H 0.89258 0.18206 0.49817 0.0
H2483 H 0.90508 0.18655 0.42412 0.0
H2484 H 0.90271 0.1316 0.35987 0.0
H2485 H 0.88838 0.10925 0.4233 0.0
C2486 C 0.88008 0.12184 0.49792 0.0
C2487 C 0.8764 0.13053 0.53513 0.0
C2488 C 0.88833 0.13475 0.46095 0.0
C2489 C 0.88108 0.15246 0.53407 0.0
C2490 C 0.88921 0.1653 0.49754 0.0
C2491 C 0.90154 0.16971 0.42396 0.0
C2492 C 0.90522 0.16096 0.38689 0.0
C2493 C 0.89306 0.15673 0.46079 0.0
C2494 C 0.9002 0.13896 0.38762 0.0
C2495 C 0.89194 0.12608 0.42406 0.0
H2496 H 0.26281 0.18448 0.92987 0.0
H2497 H 0.25317 0.13057 0.85152 0.0
H2498 H 0.2467 0.10774 0.91387 0.0
H2499 H 0.24322 0.10266 0.99134 0.0
H2500 H 0.25028 0.15574 0.06925 0.0
H2501 H 0.25803 0.17897 1.00704 0.0
C2502 C 0.25928 0.16773 0.92645 0.0
C2503 C 0.25858 0.15937 0.88581 0.0
C2504 C 0.25497 0.15438 0.96264 0.0
C2505 C 0.25372 0.1375 0.88218 0.0
C2506 C 0.25006 0.12439 0.91797 0.0
C2507 C 0.24655 0.11934 0.99473 0.0
C2508 C 0.24615 0.12734 1.03525 0.0
C2509 C 0.25058 0.13259 0.95846 0.0
C2510 C 0.25027 0.14898 1.03867 0.0
C2511 C 0.2548 0.16236 1.003 0.0
H2512 H 0.85593 0.12879 1.03386 0.0
H2513 H 0.90929 0.11823 1.00011 0.0
H2514 H 0.89298 0.10513 0.93111 0.0
H2515 H 0.86271 0.09526 0.87972 0.0
H2516 H 0.80822 0.10333 0.91613 0.0
H2517 H 0.8256 0.11837 0.98373 0.0
C2518 C 0.86401 0.12345 1.01183 0.0
C2519 C 0.88414 0.12484 1.02314 0.0
C2520 C 0.85419 0.11527 0.972 0.0
C2521 C 0.89417 0.11802 0.99291 0.0
C2522 C 0.88469 0.11024 0.95315 0.0
C2523 C 0.85467 0.10035 0.90243 0.0
C2524 C 0.834 0.09794 0.89252 0.0
C2525 C 0.86463 0.10867 0.94222 0.0
C2526 C 0.82393 0.10464 0.92271 0.0
C2527 C 0.83393 0.11336 0.96157 0.0
H2528 H 0.91052 0.76549 0.88983 0.0
H2529 H 0.88659 0.69669 0.9089 0.0
H2530 H 0.8704 0.69788 0.97614 0.0
H2531 H 0.86364 0.71851 1.0311 0.0
H2532 H 0.89022 0.78809 1.01494 0.0
H2533 H 0.90426 0.78638 0.94598 0.0
C2534 C 0.90168 0.75076 0.90864 0.0
C2535 C 0.89993 0.73102 0.89404 0.0
C2536 C 0.89279 0.75166 0.94833 0.0
C2537 C 0.88848 0.71216 0.91926 0.0
C2538 C 0.87913 0.71282 0.95788 0.0
C2539 C 0.87266 0.73344 1.01296 0.0
C2540 C 0.87548 0.7534 1.02922 0.0
C2541 C 0.88138 0.73252 0.97314 0.0
C2542 C 0.88708 0.77229 1.00385 0.0
C2543 C 0.89541 0.77141 0.96412 0.0
H2544 H 0.81018 0.59265 0.29015 0.0
H2545 H 0.87205 0.60729 0.23513 0.0
H2546 H 0.85634 0.60216 0.16487 0.0
H2547 H 0.82498 0.59284 0.11818 0.0
H2548 H 0.76336 0.5797 0.17229 0.0
H2549 H 0.77888 0.58453 0.24275 0.0
C2550 C 0.82024 0.59469 0.26283 0.0
C2551 C 0.8424 0.60036 0.2685 0.0
C2552 C 0.81107 0.59183 0.22186 0.0
C2553 C 0.85505 0.60305 0.23229 0.0
C2554 C 0.84603 0.60005 0.1918 0.0
C2555 C 0.81489 0.59127 0.14515 0.0
C2556 C 0.79277 0.58568 0.13899 0.0
C2557 C 0.82405 0.59441 0.18607 0.0
C2558 C 0.7802 0.58348 0.17521 0.0
C2559 C 0.78916 0.58644 0.21589 0.0
H2560 H 0.39059 0.19536 0.13916 0.0
H2561 H 0.46094 0.22794 0.15268 0.0
H2562 H 0.45819 0.24094 0.22202 0.0
H2563 H 0.43603 0.24477 0.27884 0.0
H2564 H 0.36613 0.21451 0.26263 0.0
H2565 H 0.36857 0.19924 0.19526 0.0
C2566 C 0.40542 0.20545 0.15687 0.0
C2567 C 0.42598 0.21038 0.13981 0.0
C2568 C 0.40383 0.21347 0.19686 0.0
C2569 C 0.44478 0.22328 0.16449 0.0
C2570 C 0.44328 0.23098 0.2044 0.0
C2571 C 0.42134 0.23471 0.26065 0.0
C2572 C 0.40092 0.23094 0.27592 0.0
C2573 C 0.42292 0.22634 0.22096 0.0
C2574 C 0.3821 0.21794 0.25161 0.0
C2575 C 0.38348 0.20914 0.21295 0.0
H2576 H 0.79872 0.231 0.17203 0.0
H2577 H 0.77465 0.17195 0.09877 0.0
H2578 H 0.76039 0.14988 0.16238 0.0
H2579 H 0.75404 0.14691 0.23919 0.0
H2580 H 0.7773 0.20584 0.31235 0.0
H2581 H 0.79223 0.22802 0.2489 0.0
C2582 C 0.79024 0.21331 0.16978 0.0
C2583 C 0.78799 0.20337 0.13007 0.0
C2584 C 0.78178 0.2005 0.20679 0.0
C2585 C 0.77712 0.1803 0.12853 0.0
C2586 C 0.76875 0.16755 0.16506 0.0
C2587 C 0.76232 0.1646 0.24134 0.0
C2588 C 0.76432 0.17454 0.28088 0.0
C2589 C 0.77092 0.17741 0.20442 0.0
C2590 C 0.77528 0.19757 0.28263 0.0
C2591 C 0.78391 0.21036 0.24619 0.0
H2592 H 0.04314 0.43861 0.39347 0.0
H2593 H 0.99099 0.42582 0.30701 0.0
H2594 H 0.9647 0.41362 0.36515 0.0
H2595 H 0.95601 0.40625 0.44178 0.0
H2596 H 0.00758 0.41512 0.52672 0.0
H2597 H 0.03396 0.4287 0.46906 0.0
C2598 C 0.026 0.433 0.38734 0.0
C2599 C 0.01921 0.43317 0.3455 0.0
C2600 C 0.01057 0.42508 0.42111 0.0
C2601 C 0.99681 0.42576 0.33855 0.0
C2602 C 0.98167 0.41879 0.372 0.0
C2603 C 0.97296 0.41097 0.44765 0.0
C2604 C 0.9795 0.40939 0.48911 0.0
C2605 C 0.98825 0.41827 0.41359 0.0
C2606 C 0.00173 0.41574 0.49548 0.0
C2607 C 0.01701 0.4237 0.46233 0.0
H2608 H 0.57631 0.58128 0.50337 0.0
H2609 H 0.60393 0.54604 0.44261 0.0
H2610 H 0.59552 0.55547 0.37352 0.0
H2611 H 0.57939 0.573 0.32953 0.0
H2612 H 0.54753 0.6042 0.38997 0.0
H2613 H 0.55844 0.59729 0.4592 0.0
C2614 C 0.58083 0.57599 0.47499 0.0
C2615 C 0.59137 0.56341 0.47852 0.0
C2616 C 0.57505 0.58075 0.43496 0.0
C2617 C 0.59625 0.55604 0.44115 0.0
C2618 C 0.59134 0.56138 0.40147 0.0
C2619 C 0.57506 0.57854 0.35784 0.0
C2620 C 0.56302 0.58961 0.35421 0.0
C2621 C 0.58067 0.57368 0.39784 0.0
C2622 C 0.55698 0.59594 0.39153 0.0
C2623 C 0.56322 0.59193 0.43125 0.0
H2624 H 0.38516 0.97756 0.36688 0.0
H2625 H 0.44803 0.98377 0.34067 0.0
H2626 H 0.46369 0.007 0.40244 0.0
H2627 H 0.45985 0.02547 0.46568 0.0
H2628 H 0.39631 0.01642 0.49666 0.0
H2629 H 0.38094 0.99476 0.43266 0.0
C2630 C 0.40228 0.98403 0.37462 0.0
C2631 C 0.4153 0.97879 0.3484 0.0
C2632 C 0.41123 0.99705 0.41166 0.0
C2633 C 0.43744 0.98727 0.35984 0.0
C2634 C 0.44651 0.00071 0.39539 0.0
C2635 C 0.44266 0.01894 0.45838 0.0
C2636 C 0.42945 0.02307 0.48635 0.0
C2637 C 0.43362 0.00572 0.42178 0.0
C2638 C 0.40707 0.01385 0.47612 0.0
C2639 C 0.39819 0.00134 0.43926 0.0
H2640 H 0.00359 0.58383 1.00221 0.0
H2641 H 0.94217 0.53953 0.94263 0.0
H2642 H 0.95992 0.54909 0.87356 0.0
H2643 H 0.9932 0.56939 0.82912 0.0
H2644 H 0.05543 0.61062 0.88886 0.0
H2645 H 0.03731 0.60308 0.95773 0.0
C2646 C 0.99399 0.57651 0.97408 0.0
C2647 C 0.97126 0.56126 0.97811 0.0
C2648 C 0.0046 0.58154 0.934 0.0
C2649 C 0.95948 0.5515 0.94097 0.0
C2650 C 0.96971 0.55695 0.90122 0.0
C2651 C 0.00281 0.57696 0.85712 0.0
C2652 C 0.02578 0.59099 0.85319 0.0
C2653 C 0.99229 0.57189 0.89717 0.0
C2654 C 0.03783 0.6 0.89039 0.0
C2655 C 0.0274 0.59563 0.93002 0.0
H2656 H 0.43279 0.42806 0.83008 0.0
H2657 H 0.38732 0.44326 0.89022 0.0
H2658 H 0.39502 0.43218 0.95869 0.0
H2659 H 0.41563 0.41899 1.0024 0.0
H2660 H 0.4638 0.40745 0.94235 0.0
H2661 H 0.45433 0.41631 0.87388 0.0
C2662 C 0.42442 0.42875 0.85815 0.0
C2663 C 0.40913 0.43613 0.85469 0.0
C2664 C 0.42955 0.42304 0.89782 0.0
C2665 C 0.39894 0.43746 0.89171 0.0
C2666 C 0.4034 0.43113 0.93097 0.0
C2667 C 0.42386 0.4181 0.97429 0.0
C2668 C 0.4402 0.41203 0.978 0.0
C2669 C 0.41875 0.42393 0.9346 0.0
C2670 C 0.45099 0.41168 0.94093 0.0
C2671 C 0.44561 0.41684 0.90152 0.0
H2672 H 0.60965 0.04188 0.94188 0.0
H2673 H 0.56029 0.99288 1.02246 0.0
H2674 H 0.54541 0.96747 0.9633 0.0
H2675 H 0.54635 0.95856 0.88788 0.0
H2676 H 0.59739 0.00672 0.80835 0.0
H2677 H 0.61148 0.03236 0.86689 0.0
C2678 C 0.59564 0.02566 0.94643 0.0
C2679 C 0.58615 0.01944 0.98694 0.0
C2680 C 0.58744 0.01065 0.9121 0.0
C2681 C 0.56806 0.99818 0.99193 0.0
C2682 C 0.55949 0.98356 0.95794 0.0
C2683 C 0.56066 0.97458 0.88331 0.0
C2684 C 0.57069 0.98034 0.84308 0.0
C2685 C 0.56907 0.98946 0.91776 0.0
C2686 C 0.58923 0.00142 0.83851 0.0
C2687 C 0.59734 0.01631 0.87219 0.0
H2688 H 0.67232 0.75966 0.83691 0.0
H2689 H 0.60969 0.72888 0.77456 0.0
H2690 H 0.62806 0.73692 0.70581 0.0
H2691 H 0.66226 0.75386 0.66249 0.0
H2692 H 0.72469 0.78873 0.72518 0.0
H2693 H 0.70635 0.77811 0.79374 0.0
C2694 C 0.66266 0.75445 0.80829 0.0
C2695 C 0.63948 0.74315 0.81132 0.0
C2696 C 0.67346 0.76001 0.7685 0.0
C2697 C 0.62743 0.73728 0.77355 0.0
C2698 C 0.638 0.74195 0.73406 0.0
C2699 C 0.67189 0.75887 0.69115 0.0
C2700 C 0.69506 0.77173 0.6882 0.0
C2701 C 0.66105 0.7534 0.73096 0.0
C2702 C 0.70701 0.77861 0.72604 0.0
C2703 C 0.69645 0.77256 0.76547 0.0
H2704 H 0.24325 0.9156 0.83643 0.0
H2705 H 0.27197 0.88182 0.77399 0.0
H2706 H 0.2648 0.89293 0.70541 0.0
H2707 H 0.24932 0.91141 0.66204 0.0
H2708 H 0.21703 0.94181 0.72408 0.0
H2709 H 0.22651 0.93298 0.79282 0.0
C2710 C 0.24825 0.91093 0.80785 0.0
C2711 C 0.25867 0.89818 0.81093 0.0
C2712 C 0.24328 0.91676 0.76793 0.0
C2713 C 0.26426 0.8918 0.77309 0.0
C2714 C 0.26007 0.89814 0.73362 0.0
C2715 C 0.24459 0.91641 0.69055 0.0
C2716 C 0.23278 0.92779 0.68726 0.0
C2717 C 0.2495 0.91056 0.73045 0.0
C2718 C 0.22632 0.93337 0.72506 0.0
C2719 C 0.23173 0.92824 0.76464 0.0
H2720 H 0.08575 0.32605 0.83819 0.0
H2721 H 0.11865 0.38863 0.77545 0.0
H2722 H 0.10782 0.3704 0.70688 0.0
H2723 H 0.08988 0.33634 0.6638 0.0
H2724 H 0.06109 0.27384 0.72668 0.0
H2725 H 0.06923 0.29209 0.79523 0.0
C2726 C 0.0903 0.33573 0.80953 0.0
C2727 C 0.10268 0.35885 0.81239 0.0
C2728 C 0.08471 0.325 0.76982 0.0
C2729 C 0.10896 0.37093 0.77457 0.0
C2730 C 0.10276 0.36045 0.73518 0.0
C2731 C 0.08505 0.3267 0.69251 0.0
C2732 C 0.07429 0.30356 0.68973 0.0
C2733 C 0.09069 0.33746 0.73224 0.0
C2734 C 0.06899 0.29153 0.72755 0.0
C2735 C 0.07374 0.30202 0.76692 0.0
H2736 H 0.66004 0.90787 0.16314 0.0
H2737 H 0.72241 0.93331 0.22534 0.0
H2738 H 0.7041 0.92488 0.29409 0.0
H2739 H 0.67002 0.90941 0.3373 0.0
H2740 H 0.60745 0.87947 0.27476 0.0
H2741 H 0.6259 0.89043 0.20617 0.0
C2742 C 0.66967 0.91184 0.19176 0.0
C2743 C 0.69278 0.92179 0.18873 0.0
C2744 C 0.65884 0.90603 0.23147 0.0
C2745 C 0.70476 0.92603 0.2264 0.0
C2746 C 0.69422 0.92113 0.26587 0.0
C2747 C 0.66042 0.90552 0.30866 0.0
C2748 C 0.63723 0.89403 0.31153 0.0
C2749 C 0.67124 0.91108 0.26894 0.0
C2750 C 0.62519 0.88852 0.2738 0.0
C2751 C 0.6358 0.89478 0.23444 0.0
H2752 H 0.11177 0.73424 0.27266 0.0
H2753 H 0.08777 0.76336 0.36156 0.0
H2754 H 0.0758 0.77791 0.30401 0.0
H2755 H 0.0718 0.7827 0.22731 0.0
H2756 H 0.09185 0.7501 0.13847 0.0
H2757 H 0.10544 0.73692 0.19589 0.0
C2758 C 0.10382 0.74366 0.27945 0.0
C2759 C 0.1007 0.74749 0.32197 0.0
C2760 C 0.09612 0.7515 0.24571 0.0
C2761 C 0.09026 0.7598 0.32955 0.0
C2762 C 0.08343 0.76828 0.29644 0.0
C2763 C 0.07899 0.77259 0.22053 0.0
C2764 C 0.0806 0.76741 0.17815 0.0
C2765 C 0.08617 0.76426 0.25423 0.0
C2766 C 0.09005 0.75422 0.17049 0.0
C2767 C 0.09798 0.74669 0.2035 0.0
H2768 H 0.20486 0.30915 0.19972 0.0
H2769 H 0.26523 0.30875 0.18139 0.0
H2770 H 0.28084 0.33161 0.24409 0.0
H2771 H 0.27773 0.35281 0.3047 0.0
H2772 H 0.21814 0.35543 0.31747 0.0
H2773 H 0.20221 0.33102 0.25764 0.0
C2774 C 0.22138 0.31385 0.20957 0.0
C2775 C 0.23362 0.30677 0.18564 0.0
C2776 C 0.2306 0.32773 0.24514 0.0
C2777 C 0.25521 0.31364 0.19894 0.0
C2778 C 0.26422 0.32684 0.23499 0.0
C2779 C 0.26128 0.34804 0.29439 0.0
C2780 C 0.24932 0.35624 0.31619 0.0
C2781 C 0.25217 0.33418 0.25844 0.0
C2782 C 0.22801 0.34978 0.30163 0.0
C2783 C 0.21873 0.33562 0.26723 0.0
H2784 H 0.34151 0.0986 0.17123 0.0
H2785 H 0.27947 0.05936 0.10944 0.0
H2786 H 0.29816 0.06618 0.04125 0.0
H2787 H 0.33231 0.08434 0.99808 0.0
H2788 H 0.39367 0.12734 0.0591 0.0
H2789 H 0.37536 0.11815 0.12779 0.0
C2790 C 0.33209 0.0913 0.1429 0.0
C2791 C 0.30901 0.07801 0.14592 0.0
C2792 C 0.34297 0.09608 0.10326 0.0
C2793 C 0.29716 0.06938 0.10843 0.0
C2794 C 0.30791 0.07334 0.06927 0.0
C2795 C 0.34175 0.09143 1.02647 0.0
C2796 C 0.36462 0.10616 1.02312 0.0
C2797 C 0.33083 0.08674 0.06611 0.0
C2798 C 0.37625 0.11573 0.06042 0.0
C2799 C 0.36571 0.1105 0.09988 0.0
H2800 H 0.91652 0.2456 0.99834 0.0
H2801 H 0.87451 0.26482 0.06075 0.0
H2802 H 0.88484 0.25661 0.1293 0.0
H2803 H 0.90517 0.24291 0.17208 0.0
H2804 H 0.94331 0.21926 0.10886 0.0
H2805 H 0.93534 0.23023 0.04072 0.0
C2806 C 0.90984 0.24828 1.02698 0.0
C2807 C 0.89507 0.25636 1.02415 0.0
C2808 C 0.9152 0.24264 0.06643 0.0
C2809 C 0.88609 0.25897 0.06174 0.0
C2810 C 0.89198 0.2542 0.10107 0.0
C2811 C 0.91198 0.24043 0.1434 0.0
C2812 C 0.92532 0.2307 0.14586 0.0
C2813 C 0.90649 0.24595 0.10393 0.0
C2814 C 0.93331 0.22696 0.10812 0.0
C2815 C 0.92868 0.2332 0.06905 0.0
H2816 H 0.75125 0.67147 0.99714 0.0
H2817 H 0.7327 0.60943 0.05579 0.0
H2818 H 0.74076 0.62667 0.12523 0.0
H2819 H 0.75423 0.65968 0.17012 0.0
H2820 H 0.77696 0.72254 0.11144 0.0
H2821 H 0.76625 0.70495 0.04219 0.0
C2822 C 0.74862 0.66166 1.02517 0.0
C2823 C 0.74076 0.6389 1.02086 0.0
C2824 C 0.75423 0.67197 0.06542 0.0
C2825 C 0.7383 0.62678 0.05778 0.0
C2826 C 0.74303 0.63671 0.0977 0.0
C2827 C 0.75664 0.66955 0.14226 0.0
C2828 C 0.76612 0.69253 0.14657 0.0
C2829 C 0.75112 0.65932 0.10206 0.0
C2830 C 0.7696 0.70492 0.10958 0.0
C2831 C 0.76344 0.6948 0.06976 0.0
H2832 H 0.37767 0.25865 0.56174 0.0
H2833 H 0.32563 0.24309 0.47287 0.0
H2834 H 0.29884 0.23001 0.52966 0.0
H2835 H 0.28946 0.22264 0.60549 0.0
H2836 H 0.34167 0.24223 0.69551 0.0
H2837 H 0.36853 0.25371 0.6385 0.0
C2838 C 0.3605 0.2525 0.55487 0.0
C2839 C 0.3539 0.25203 0.51266 0.0
C2840 C 0.34493 0.24558 0.58831 0.0
C2841 C 0.33144 0.24398 0.5048 0.0
C2842 C 0.31594 0.23634 0.53741 0.0
C2843 C 0.30673 0.22958 0.61259 0.0
C2844 C 0.3134 0.23156 0.65498 0.0
C2845 C 0.32239 0.23706 0.57941 0.0
C2846 C 0.33595 0.24064 0.66335 0.0
C2847 C 0.35142 0.24719 0.63061 0.0
H2848 H 0.7946 0.0903 0.61325 0.0
H2849 H 0.73361 0.06447 0.68117 0.0
H2850 H 0.71761 0.07445 0.62323 0.0
H2851 H 0.72058 0.09111 0.55248 0.0
H2852 H 0.78166 0.11747 0.48521 0.0
H2853 H 0.79741 0.10647 0.54216 0.0
C2854 C 0.77773 0.08659 0.61525 0.0
C2855 C 0.76543 0.07629 0.65199 0.0
C2856 C 0.76839 0.09246 0.58131 0.0
C2857 C 0.7436 0.07201 0.65354 0.0
C2858 C 0.73434 0.07784 0.62023 0.0
C2859 C 0.73727 0.09431 0.55019 0.0
C2860 C 0.74972 0.10497 0.51395 0.0
C2861 C 0.74651 0.08812 0.58383 0.0
C2862 C 0.77148 0.10917 0.51216 0.0
C2863 C 0.78061 0.10291 0.54504 0.0
H2864 H 0.91029 0.70226 0.61657 0.0
H2865 H 0.93977 0.669 0.6791 0.0
H2866 H 0.93192 0.64515 0.61828 0.0
H2867 H 0.91618 0.63285 0.54628 0.0
H2868 H 0.88565 0.66525 0.48487 0.0
H2869 H 0.89468 0.69009 0.54475 0.0
C2870 C 0.91523 0.68997 0.61687 0.0
C2871 C 0.92598 0.68792 0.653 0.0
C2872 C 0.91052 0.67596 0.58128 0.0
C2873 C 0.93185 0.67149 0.65214 0.0
C2874 C 0.92725 0.65764 0.61711 0.0
C2875 C 0.91167 0.64545 0.54587 0.0
C2876 C 0.90032 0.64713 0.51048 0.0
C2877 C 0.91659 0.65962 0.58131 0.0
C2878 C 0.89437 0.66346 0.5113 0.0
C2879 C 0.89953 0.67774 0.54577 0.0
H2880 H 0.98928 0.45947 0.20192 0.0
H2881 H 0.04579 0.52108 0.23565 0.0
H2882 H 0.0346 0.5402 0.18583 0.0
H2883 H 0.00949 0.53904 0.13121 0.0
H2884 H 0.95317 0.47736 0.09732 0.0
H2885 H 0.96437 0.45827 0.14714 0.0
C2886 C 0.9988 0.47717 0.19941 0.0
C2887 C 0.01812 0.48895 0.22302 0.0
C2888 C 0.99295 0.4878 0.16917 0.0
C2889 C 0.03055 0.5118 0.21855 0.0
C2890 C 0.02445 0.52262 0.18939 0.0
C2891 C 1.0001 0.52133 0.13361 0.0
C2892 C 0.9808 0.50948 0.10998 0.0
C2893 C 0.00601 0.51069 0.16378 0.0
C2894 C 0.96841 0.48665 0.1144 0.0
C2895 C 0.97452 0.47585 0.14356 0.0
H2896 H 0.5409 0.52946 0.2014 0.0
H2897 H 0.47867 0.52272 0.23616 0.0
H2898 H 0.46004 0.49299 0.18531 0.0
H2899 H 0.46187 0.47028 0.12926 0.0
H2900 H 0.52416 0.47723 0.09409 0.0
H2901 H 0.54273 0.50679 0.14526 0.0
C2902 C 0.52317 0.52095 0.19895 0.0
C2903 C 0.51103 0.52782 0.22319 0.0
C2904 C 0.51284 0.50488 0.16805 0.0
C2905 C 0.48818 0.51717 0.21868 0.0
C2906 C 0.47765 0.50062 0.18891 0.0
C2907 C 0.47959 0.47875 0.1317 0.0
C2908 C 0.49175 0.47195 0.10726 0.0
C2909 C 0.48992 0.4948 0.16265 0.0
C2910 C 0.51461 0.48266 0.11175 0.0
C2911 C 0.52512 0.49913 0.14169 0.0
H2912 H 0.53085 0.98802 0.15939 0.0
H2913 H 0.53713 0.04662 0.10326 0.0
H2914 H 0.50043 0.03673 0.12882 0.0
H2915 H 0.46774 0.01214 0.16953 0.0
H2916 H 0.46218 0.95429 0.22798 0.0
H2917 H 0.49833 0.9636 0.20035 0.0
C2918 C 0.52389 0.99833 0.15204 0.0
C2919 C 0.53623 0.01782 0.12937 0.0
C2920 C 0.50353 0.99305 0.16835 0.0
C2921 C 0.52747 0.03128 0.11986 0.0
C2922 C 0.50681 0.02585 0.1352 0.0
C2923 C 0.4747 0.00181 0.17677 0.0
C2924 C 0.46267 0.98267 0.20062 0.0
C2925 C 0.49501 0.00704 0.1602 0.0
C2926 C 0.47152 0.96929 0.21018 0.0
C2927 C 0.49189 0.9744 0.1938 0.0
H2928 H 0.50164 0.96313 0.64244 0.0
H2929 H 0.52474 0.99535 0.76181 0.0
H2930 H 0.5089 0.01876 0.74628 0.0
H2931 H 0.48999 0.03052 0.69706 0.0
H2932 H 0.46898 0.99965 0.57581 0.0
H2933 H 0.48366 0.97542 0.59265 0.0
C2934 C 0.50282 0.97503 0.66526 0.0
C2935 C 0.51402 0.97758 0.70316 0.0
C2936 C 0.49489 0.98895 0.65499 0.0
C2937 C 0.51562 0.99289 0.73292 0.0
C2938 C 0.50704 0.00649 0.72359 0.0
C2939 C 0.48916 0.01884 0.67398 0.0
C2940 C 0.47887 0.01688 0.63511 0.0
C2941 C 0.49714 0.00493 0.6843 0.0
C2942 C 0.47744 0.00164 0.6054 0.0
C2943 C 0.48538 0.9876 0.6154 0.0
H2944 H 0.01114 0.46389 0.66826 0.0
H2945 H 0.95372 0.46036 0.61204 0.0
H2946 H 0.96331 0.49585 0.64297 0.0
H2947 H 0.98797 0.52736 0.68533 0.0
H2948 H 0.04704 0.53266 0.73681 0.0
H2949 H 0.03615 0.49584 0.71064 0.0
C2950 C 0.00104 0.47121 0.66208 0.0
C2951 C 0.98194 0.45991 0.63775 0.0
C2952 C 0.00646 0.4912 0.6805 0.0
C2953 C 0.96875 0.46917 0.62991 0.0
C2954 C 0.97399 0.48912 0.6483 0.0
C2955 C 0.99816 0.52015 0.6917 0.0
C2956 C 0.01813 0.53235 0.71295 0.0
C2957 C 0.99261 0.50003 0.674 0.0
C2958 C 0.03135 0.52317 0.72132 0.0
C2959 C 0.02539 0.50248 0.70541 0.0
H2960 H 0.53391 0.48895 0.6501 0.0
H2961 H 0.5188 0.52834 0.56739 0.0
H2962 H 0.4872 0.5206 0.61125 0.0
H2963 H 0.46625 0.5055 0.67567 0.0
H2964 H 0.48098 0.46585 0.7584 0.0
H2965 H 0.51227 0.47301 0.71389 0.0
C2966 C 0.5236 0.49566 0.64122 0.0
C2967 C 0.52893 0.50952 0.60579 0.0
C2968 C 0.50632 0.4922 0.6678 0.0
C2969 C 0.51507 0.51766 0.59446 0.0
C2970 C 0.49731 0.51362 0.61999 0.0
C2971 C 0.47632 0.49849 0.68434 0.0
C2972 C 0.47116 0.48499 0.72025 0.0
C2973 C 0.49332 0.50158 0.65744 0.0
C2974 C 0.48466 0.47636 0.73108 0.0
C2975 C 0.50224 0.48008 0.70521 0.0
H2976 H 0.67668 0.87391 0.46267 0.0
H2977 H 0.62173 0.81081 0.43113 0.0
H2978 H 0.63431 0.79316 0.48155 0.0
H2979 H 0.65969 0.79606 0.53694 0.0
H2980 H 0.71487 0.85903 0.56832 0.0
H2981 H 0.70259 0.8767 0.51718 0.0
C2982 C 0.66789 0.85622 0.46573 0.0
C2983 C 0.64855 0.84356 0.44263 0.0
C2984 C 0.67455 0.8464 0.49631 0.0
C2985 C 0.63697 0.82074 0.44784 0.0
C2986 C 0.64386 0.81075 0.47734 0.0
C2987 C 0.66867 0.81373 0.5336 0.0
C2988 C 0.68785 0.82636 0.55719 0.0
C2989 C 0.66223 0.82352 0.50262 0.0
C2990 C 0.69969 0.84913 0.55142 0.0
C2991 C 0.69297 0.85913 0.52152 0.0
H2992 H 0.17284 0.87357 0.47637 0.0
H2993 H 0.19302 0.863 0.59802 0.0
H2994 H 0.17674 0.82379 0.58221 0.0
H2995 H 0.15802 0.79346 0.53253 0.0
H2996 H 0.13897 0.8045 0.40993 0.0
H2997 H 0.15427 0.84345 0.42674 0.0
C2998 C 0.17319 0.86257 0.49974 0.0
C2999 C 0.18367 0.87081 0.53842 0.0
C3000 C 0.16467 0.84061 0.48966 0.0
C3001 C 0.1844 0.85668 0.56856 0.0
C3002 C 0.17553 0.8345 0.55914 0.0
C3003 C 0.15766 0.80454 0.50923 0.0
C3004 C 0.14783 0.79653 0.4699 0.0
C3005 C 0.16602 0.82648 0.51949 0.0
C3006 C 0.14706 0.81068 0.4399 0.0
C3007 C 0.1554 0.83271 0.44983 0.0
H3008 H 0.19879 0.37359 0.48645 0.0
H3009 H 0.18863 0.31661 0.41743 0.0
H3010 H 0.15721 0.29335 0.46243 0.0
H3011 H 0.13425 0.28926 0.52315 0.0
H3012 H 0.1444 0.34631 0.59197 0.0
H3013 H 0.17615 0.36946 0.54769 0.0
C3014 C 0.18969 0.35611 0.48093 0.0
C3015 C 0.19619 0.34681 0.44882 0.0
C3016 C 0.17252 0.34283 0.5082 0.0
C3017 C 0.18392 0.32416 0.44184 0.0
C3018 C 0.16626 0.31084 0.46803 0.0
C3019 C 0.14349 0.30673 0.52891 0.0
C3020 C 0.13676 0.3161 0.56053 0.0
C3021 C 0.16083 0.31998 0.50192 0.0
C3022 C 0.14923 0.33871 0.56789 0.0
C3023 C 0.16709 0.35197 0.54207 0.0
H3024 H 0.19708 0.31642 0.9874 0.0
H3025 H 0.17755 0.32925 0.10771 0.0
H3026 H 0.16005 0.34758 0.07207 0.0
H3027 H 0.14876 0.3577 1.00687 0.0
H3028 H 0.16761 0.34443 0.88626 0.0
H3029 H 0.18655 0.32751 0.92194 0.0
C3030 C 0.18907 0.32338 1.00574 0.0
C3031 C 0.18847 0.32163 0.04997 0.0
C3032 C 0.17877 0.3333 0.98502 0.0
C3033 C 0.17825 0.33065 0.0737 0.0
C3034 C 0.16816 0.3409 0.05331 0.0
C3035 C 0.1573 0.35137 0.98839 0.0
C3036 C 0.15714 0.35246 0.9441 0.0
C3037 C 0.1681 0.34199 1.00906 0.0
C3038 C 0.16766 0.34375 0.92033 0.0
C3039 C 0.1785 0.33423 0.94074 0.0
H3040 H 0.65783 0.86261 1.03338 0.0
H3041 H 0.71336 0.85644 0.0706 0.0
H3042 H 0.70253 0.82635 1.02062 0.0
H3043 H 0.67767 0.80254 0.96555 0.0
H3044 H 0.62251 0.80926 0.92785 0.0
H3045 H 0.63364 0.83959 0.97718 0.0
C3046 C 0.66715 0.8542 1.03157 0.0
C3047 C 0.68596 0.86118 0.05657 0.0
C3048 C 0.66156 0.83791 1.0012 0.0
C3049 C 0.69838 0.85074 0.05268 0.0
C3050 C 0.6925 0.83396 1.02344 0.0
C3051 C 0.66856 0.81118 0.967 0.0
C3052 C 0.64959 0.80409 0.94244 0.0
C3053 C 0.6744 0.82775 0.99693 0.0
C3054 C 0.63751 0.81493 0.94564 0.0
C3055 C 0.64356 0.83185 0.97454 0.0
H3056 H 0.13702 0.79143 1.02897 0.0
H3057 H 0.14255 0.85293 0.06464 0.0
H3058 H 0.17315 0.87236 1.01568 0.0
H3059 H 0.19724 0.87159 0.96125 0.0
H3060 H 0.19225 0.81025 0.92613 0.0
H3061 H 0.16154 0.79073 0.97494 0.0
C3062 C 0.14542 0.80915 1.02709 0.0
C3063 C 0.13792 0.82084 0.05103 0.0
C3064 C 0.16227 0.82004 0.99753 0.0
C3065 C 0.1485 0.84372 0.0473 0.0
C3066 C 0.16561 0.85474 1.01866 0.0
C3067 C 0.18898 0.85388 0.9632 0.0
C3068 C 0.1966 0.84227 0.93931 0.0
C3069 C 0.17223 0.84299 0.99288 0.0
C3070 C 0.18619 0.8194 0.94329 0.0
C3071 C 0.16901 0.80834 0.97187 0.0
H3072 H 0.29152 0.15652 0.81695 0.0
H3073 H 0.34771 0.20058 0.74219 0.0
H3074 H 0.37119 0.19241 0.78635 0.0
H3075 H 0.37599 0.17524 0.84889 0.0
H3076 H 0.31982 0.13029 0.92278 0.0
H3077 H 0.29619 0.13823 0.87842 0.0
C3078 C 0.30884 0.16413 0.80984 0.0
C3079 C 0.31792 0.1794 0.77664 0.0
C3080 C 0.32232 0.16021 0.83653 0.0
C3081 C 0.34035 0.1888 0.76756 0.0
C3082 C 0.35381 0.18448 0.79328 0.0
C3083 C 0.3586 0.16723 0.85565 0.0
C3084 C 0.34963 0.15199 0.88893 0.0
C3085 C 0.34505 0.17081 0.8286 0.0
C3086 C 0.32712 0.14212 0.8975 0.0
C3087 C 0.31358 0.14634 0.87166 0.0
H3088 H 0.82229 0.19887 0.8559 0.0
H3089 H 0.86789 0.18641 0.92474 0.0
H3090 H 0.85847 0.15477 0.87994 0.0
H3091 H 0.83987 0.13306 0.81825 0.0
H3092 H 0.79357 0.14472 0.75008 0.0
H3093 H 0.80276 0.17631 0.79515 0.0
C3094 C 0.83002 0.18911 0.86158 0.0
C3095 C 0.84607 0.1952 0.89326 0.0
C3096 C 0.82542 0.17178 0.8344 0.0
C3097 C 0.85556 0.1821 0.90056 0.0
C3098 C 0.8505 0.16432 0.87444 0.0
C3099 C 0.83177 0.14249 0.81292 0.0
C3100 C 0.81585 0.13639 0.78101 0.0
C3101 C 0.83605 0.15955 0.84047 0.0
C3102 C 0.8059 0.14911 0.77429 0.0
C3103 C 0.81083 0.16685 0.80056 0.0
H3104 H 0.86376 0.70553 0.79985 0.0
H3105 H 0.86074 0.64388 0.77542 0.0
H3106 H 0.82917 0.62527 0.82224 0.0
H3107 H 0.80361 0.62679 0.87201 0.0
H3108 H 0.80576 0.68809 0.89521 0.0
H3109 H 0.83782 0.70697 0.84934 0.0
C3110 C 0.85593 0.68794 0.80415 0.0
C3111 C 0.86462 0.67612 0.78424 0.0
C3112 C 0.8384 0.67752 0.83236 0.0
C3113 C 0.85429 0.65334 0.79001 0.0
C3114 C 0.83651 0.64277 0.81743 0.0
C3115 C 0.81133 0.64437 0.86763 0.0
C3116 C 0.80231 0.65601 0.88691 0.0
C3117 C 0.82883 0.6548 0.83948 0.0
C3118 C 0.81251 0.67878 0.88112 0.0
C3119 C 0.83054 0.68948 0.8542 0.0
H3120 H 0.84882 0.63895 0.31492 0.0
H3121 H 0.87791 0.68331 0.41881 0.0
H3122 H 0.86002 0.70381 0.39585 0.0
H3123 H 0.83462 0.7073 0.34858 0.0
H3124 H 0.80593 0.66359 0.24375 0.0
H3125 H 0.82569 0.64443 0.26392 0.0
C3126 C 0.85076 0.65274 0.333 0.0
C3127 C 0.86367 0.65912 0.3695 0.0
C3128 C 0.84106 0.66467 0.31875 0.0
C3129 C 0.86725 0.67776 0.39155 0.0
C3130 C 0.85732 0.68957 0.3781 0.0
C3131 C 0.8333 0.6941 0.32938 0.0
C3132 C 0.81926 0.68701 0.29452 0.0
C3133 C 0.84415 0.68306 0.34188 0.0
C3134 C 0.81719 0.66958 0.2701 0.0
C3135 C 0.82812 0.65845 0.28212 0.0
H3136 H 0.32066 0.19594 0.36877 0.0
H3137 H 0.37589 0.18904 0.4054 0.0
H3138 H 0.36558 0.16006 0.35323 0.0
H3139 H 0.34222 0.13849 0.29501 0.0
H3140 H 0.28648 0.14468 0.25929 0.0
H3141 H 0.29671 0.17365 0.31157 0.0
C3142 C 0.33 0.18757 0.36645 0.0
C3143 C 0.3488 0.19431 0.39141 0.0
C3144 C 0.3247 0.17188 0.33492 0.0
C3145 C 0.36104 0.18368 0.38723 0.0
C3146 C 0.3555 0.16758 0.35669 0.0
C3147 C 0.33267 0.14662 0.29769 0.0
C3148 C 0.31389 0.13985 0.27264 0.0
C3149 C 0.33779 0.1621 0.32952 0.0
C3150 C 0.30137 0.15015 0.27736 0.0
C3151 C 0.30688 0.16624 0.30795 0.0
H3152 H 0.87808 0.18203 0.34003 0.0
H3153 H 0.84624 0.17327 0.21987 0.0
H3154 H 0.81076 0.15923 0.25592 0.0
H3155 H 0.78952 0.14963 0.3214 0.0
H3156 H 0.82153 0.1584 0.44137 0.0
H3157 H 0.85694 0.17222 0.40526 0.0
C3158 C 0.86333 0.17657 0.32159 0.0
C3159 C 0.86452 0.17803 0.27731 0.0
C3160 C 0.8434 0.16886 0.34248 0.0
C3161 C 0.8455 0.17188 0.25387 0.0
C3162 C 0.82538 0.16399 0.27449 0.0
C3163 C 0.80433 0.15495 0.33966 0.0
C3164 C 0.80325 0.15363 0.38392 0.0
C3165 C 0.82425 0.16255 0.31872 0.0
C3166 C 0.82224 0.15969 0.40735 0.0
C3167 C 0.84231 0.16745 0.38671 0.0
loop_
_geom_bond_atom_site_label_1
_geom_bond_atom_site_label_2
_geom_bond_distance
_geom_bond_site_symmetry_2
_ccdc_geom_bond_type
Pr0 C2 2.880 . S
Pr0 O20 2.562 . S
Pr0 O21 2.490 . S
Pr0 O22 2.695 . S
Pr0 O23 2.512 . S
Pr0 O25 2.437 . S
Pr0 O28 2.436 . S
Pr0 O30 2.438 . S
Pr1 C11 2.880 . S
Pr1 O22 2.436 . S
Pr1 O24 2.438 . S
Pr1 O26 2.562 . S
Pr1 O27 2.490 . S
Pr1 O28 2.695 . S
Pr1 O29 2.512 . S
Pr1 O31 2.437 . S
C2 Pr0 2.880 . S
C2 C3 1.491 . S
C2 O20 1.254 . S
C2 O21 1.225 . S
C3 C2 1.491 . S
C3 C4 1.392 . S
C3 C8 1.356 . S
C4 C3 1.392 . S
C4 C5 1.368 . S
C4 H32 0.929 . S
C5 C4 1.368 . S
C5 C6 1.386 . S
C5 H33 0.929 . S
C6 C5 1.386 . S
C6 C7 1.373 . S
C7 C6 1.373 . S
C7 C8 1.409 . S
C7 H34 0.931 . S
C8 C3 1.356 . S
C8 C7 1.409 . S
C8 H35 0.930 . S
C9 O22 1.270 . S
C9 O23 1.248 . S
C10 O24 1.267 . S
C10 O25 1.278 . S
C11 Pr1 2.880 . S
C11 C12 1.491 . S
C11 O26 1.254 . S
C11 O27 1.225 . S
C12 C11 1.491 . S
C12 C13 1.385 1_554 S
C12 C17 1.356 1_554 S
C13 C12 1.385 1_556 S
C13 C14 1.386 . S
C13 H36 0.919 1_456 S
C14 C13 1.386 . S
C14 C15 1.386 . S
C14 H37 0.929 1_455 S
C15 C14 1.386 . S
C15 C16 1.373 . S
C16 C15 1.373 . S
C16 C17 1.409 . S
C16 H38 0.931 . S
C17 C12 1.356 1_556 S
C17 C16 1.409 . S
C17 H39 0.929 1_556 S
C18 O28 1.270 . S
C18 O29 1.248 . S
C19 O30 1.267 . S
C19 O31 1.278 . S
O20 Pr0 2.562 . S
O20 C2 1.254 . S
O21 Pr0 2.490 . S
O21 C2 1.225 . S
O22 Pr0 2.695 . S
O22 Pr1 2.436 . S
O22 C9 1.270 . S
O23 Pr0 2.512 . S
O23 C9 1.248 . S
O24 Pr1 2.438 . S
O24 C10 1.267 . S
O25 Pr0 2.437 . S
O25 C10 1.278 . S
O26 Pr1 2.562 . S
O26 C11 1.254 . S
O27 Pr1 2.490 . S
O27 C11 1.225 . S
O28 Pr0 2.436 . S
O28 Pr1 2.695 . S
O28 C18 1.270 . S
O29 Pr1 2.512 . S
O29 C18 1.248 . S
O30 Pr0 2.438 . S
O30 C19 1.267 . S
O31 Pr1 2.437 . S
O31 C19 1.278 . S
H32 C4 0.929 . S
H33 C5 0.929 . S
H34 C7 0.931 . S
H35 C8 0.930 . S
H36 C13 0.919 1_654 S
H37 C14 0.929 1_655 S
H38 C16 0.931 . S
H39 C17 0.929 1_554 S
Pr40 C42 2.880 . S
Pr40 O60 2.562 . S
Pr40 O61 2.490 . S
Pr40 O62 2.695 . S
Pr40 O63 2.512 . S
Pr40 O65 2.437 . S
Pr40 O68 2.436 . S
Pr40 O70 2.438 . S
Pr41 C51 2.880 . S
Pr41 O62 2.436 . S
Pr41 O64 2.438 . S
Pr41 O66 2.562 . S
Pr41 O67 2.490 . S
Pr41 O68 2.695 . S
Pr41 O69 2.512 . S
Pr41 O71 2.437 . S
C42 Pr40 2.880 . S
C42 C43 1.491 . S
C42 O60 1.254 . S
C42 O61 1.225 . S
C43 C42 1.491 . S
C43 C44 1.392 . S
C43 C48 1.356 . S
C44 C43 1.392 . S
C44 C45 1.368 . S
C44 H72 0.929 . S
C45 C44 1.368 . S
C45 C46 1.386 . S
C45 H73 0.929 . S
C46 C45 1.386 . S
C46 C47 1.373 . S
C47 C46 1.373 . S
C47 C48 1.409 . S
C47 H74 0.931 . S
C48 C43 1.356 . S
C48 C47 1.409 . S
C48 H75 0.930 . S
C49 O62 1.270 . S
C49 O63 1.248 . S
C50 O64 1.267 . S
C50 O65 1.278 . S
C51 Pr41 2.880 . S
C51 C52 1.491 . S
C51 O66 1.254 . S
C51 O67 1.225 . S
C52 C51 1.491 . S
C52 C53 1.385 1_554 S
C52 C57 1.356 1_554 S
C53 C52 1.385 1_556 S
C53 C54 1.387 . S
C53 H76 0.918 1_556 S
C54 C53 1.387 . S
C54 C55 1.386 . S
C54 H77 0.929 . S
C55 C54 1.386 . S
C55 C56 1.373 . S
C56 C55 1.373 . S
C56 C57 1.409 . S
C56 H78 0.931 . S
C57 C52 1.356 1_556 S
C57 C56 1.409 . S
C57 H79 0.930 1_556 S
C58 O68 1.270 . S
C58 O69 1.248 . S
C59 O70 1.267 . S
C59 O71 1.278 . S
O60 Pr40 2.562 . S
O60 C42 1.254 . S
O61 Pr40 2.490 . S
O61 C42 1.225 . S
O62 Pr40 2.695 . S
O62 Pr41 2.436 . S
O62 C49 1.270 . S
O63 Pr40 2.512 . S
O63 C49 1.248 . S
O64 Pr41 2.438 . S
O64 C50 1.267 . S
O65 Pr40 2.437 . S
O65 C50 1.278 . S
O66 Pr41 2.562 . S
O66 C51 1.254 . S
O67 Pr41 2.490 . S
O67 C51 1.225 . S
O68 Pr40 2.436 . S
O68 Pr41 2.695 . S
O68 C58 1.270 . S
O69 Pr41 2.512 . S
O69 C58 1.248 . S
O70 Pr40 2.438 . S
O70 C59 1.267 . S
O71 Pr41 2.437 . S
O71 C59 1.278 . S
H72 C44 0.929 . S
H73 C45 0.929 . S
H74 C47 0.931 . S
H75 C48 0.930 . S
H76 C53 0.918 1_554 S
H77 C54 0.929 . S
H78 C56 0.931 . S
H79 C57 0.930 1_554 S
Pr80 C82 2.880 . S
Pr80 O100 2.562 . S
Pr80 O101 2.490 . S
Pr80 O102 2.695 . S
Pr80 O103 2.512 . S
Pr80 O105 2.437 . S
Pr80 O108 2.436 . S
Pr80 O110 2.438 . S
Pr81 C91 2.880 . S
Pr81 O102 2.436 . S
Pr81 O104 2.438 . S
Pr81 O106 2.562 . S
Pr81 O107 2.490 . S
Pr81 O108 2.695 . S
Pr81 O109 2.512 . S
Pr81 O111 2.437 . S
C82 Pr80 2.880 . S
C82 C83 1.491 . S
C82 O100 1.254 . S
C82 O101 1.225 . S
C83 C82 1.491 . S
C83 C84 1.392 . S
C83 C88 1.356 . S
C84 C83 1.392 . S
C84 C85 1.368 . S
C84 H112 0.929 . S
C85 C84 1.368 . S
C85 C86 1.386 . S
C85 H113 0.929 . S
C86 C85 1.386 . S
C86 C87 1.373 . S
C87 C86 1.373 . S
C87 C88 1.409 . S
C87 H114 0.931 . S
C88 C83 1.356 . S
C88 C87 1.409 . S
C88 H115 0.930 . S
C89 O102 1.270 . S
C89 O103 1.248 . S
C90 O104 1.267 . S
C90 O105 1.278 . S
C91 Pr81 2.880 . S
C91 C92 1.491 . S
C91 O106 1.254 . S
C91 O107 1.225 . S
C92 C91 1.491 . S
C92 C93 1.385 1_554 S
C92 C97 1.356 1_554 S
C93 C92 1.385 1_556 S
C93 C94 1.386 . S
C93 H116 0.918 1_566 S
C94 C93 1.386 . S
C94 C95 1.386 . S
C94 H117 0.929 1_565 S
C95 C94 1.386 . S
C95 C96 1.373 . S
C96 C95 1.373 . S
C96 C97 1.409 . S
C96 H118 0.931 . S
C97 C92 1.356 1_556 S
C97 C96 1.409 . S
C97 H119 0.929 1_556 S
C98 O108 1.270 . S
C98 O109 1.248 . S
C99 O110 1.267 . S
C99 O111 1.278 . S
O100 Pr80 2.562 . S
O100 C82 1.254 . S
O101 Pr80 2.490 . S
O101 C82 1.225 . S
O102 Pr80 2.695 . S
O102 Pr81 2.436 . S
O102 C89 1.270 . S
O103 Pr80 2.512 . S
O103 C89 1.248 . S
O104 Pr81 2.438 . S
O104 C90 1.267 . S
O105 Pr80 2.437 . S
O105 C90 1.278 . S
O106 Pr81 2.562 . S
O106 C91 1.254 . S
O107 Pr81 2.490 . S
O107 C91 1.225 . S
O108 Pr80 2.436 . S
O108 Pr81 2.695 . S
O108 C98 1.270 . S
O109 Pr81 2.512 . S
O109 C98 1.248 . S
O110 Pr80 2.438 . S
O110 C99 1.267 . S
O111 Pr81 2.437 . S
O111 C99 1.278 . S
H112 C84 0.929 . S
H113 C85 0.929 . S
H114 C87 0.931 . S
H115 C88 0.930 . S
H116 C93 0.918 1_544 S
H117 C94 0.929 1_545 S
H118 C96 0.931 . S
H119 C97 0.929 1_554 S
Pr120 C122 2.880 . S
Pr120 O140 2.562 . S
Pr120 O141 2.490 . S
Pr120 O142 2.695 . S
Pr120 O143 2.512 . S
Pr120 O145 2.437 . S
Pr120 O148 2.436 . S
Pr120 O150 2.438 . S
Pr121 C131 2.880 . S
Pr121 O142 2.436 . S
Pr121 O144 2.438 . S
Pr121 O146 2.562 . S
Pr121 O147 2.490 . S
Pr121 O148 2.695 . S
Pr121 O149 2.512 . S
Pr121 O151 2.437 . S
C122 Pr120 2.880 . S
C122 C123 1.491 . S
C122 O140 1.254 . S
C122 O141 1.225 . S
C123 C122 1.491 . S
C123 C124 1.392 . S
C123 C128 1.356 . S
C124 C123 1.392 . S
C124 C125 1.368 . S
C124 H152 0.929 . S
C125 C124 1.368 . S
C125 C126 1.386 . S
C125 H153 0.929 . S
C126 C125 1.386 . S
C126 C127 1.373 . S
C127 C126 1.373 . S
C127 C128 1.409 . S
C127 H154 0.931 . S
C128 C123 1.356 . S
C128 C127 1.409 . S
C128 H155 0.930 . S
C129 O142 1.270 . S
C129 O143 1.248 . S
C130 O144 1.267 . S
C130 O145 1.278 . S
C131 Pr121 2.880 . S
C131 C132 1.491 . S
C131 O146 1.254 . S
C131 O147 1.225 . S
C132 C131 1.491 . S
C132 C133 1.392 . S
C132 C137 1.356 . S
C133 C132 1.392 . S
C133 C134 1.368 . S
C133 H156 0.929 1_545 S
C134 C133 1.368 . S
C134 C135 1.386 . S
C134 H157 0.929 1_545 S
C135 C134 1.386 . S
C135 C136 1.373 . S
C136 C135 1.373 . S
C136 C137 1.409 . S
C136 H158 0.931 . S
C137 C132 1.356 . S
C137 C136 1.409 . S
C137 H159 0.930 . S
C138 O148 1.270 . S
C138 O149 1.248 . S
C139 O150 1.267 . S
C139 O151 1.278 . S
O140 Pr120 2.562 . S
O140 C122 1.254 . S
O141 Pr120 2.490 . S
O141 C122 1.225 . S
O142 Pr120 2.695 . S
O142 Pr121 2.436 . S
O142 C129 1.270 . S
O143 Pr120 2.512 . S
O143 C129 1.248 . S
O144 Pr121 2.438 . S
O144 C130 1.267 . S
O145 Pr120 2.437 . S
O145 C130 1.278 . S
O146 Pr121 2.562 . S
O146 C131 1.254 . S
O147 Pr121 2.490 . S
O147 C131 1.225 . S
O148 Pr120 2.436 . S
O148 Pr121 2.695 . S
O148 C138 1.270 . S
O149 Pr121 2.512 . S
O149 C138 1.248 . S
O150 Pr120 2.438 . S
O150 C139 1.267 . S
O151 Pr121 2.437 . S
O151 C139 1.278 . S
H152 C124 0.929 . S
H153 C125 0.929 . S
H154 C127 0.931 . S
H155 C128 0.930 . S
H156 C133 0.929 1_565 S
H157 C134 0.929 1_565 S
H158 C136 0.931 . S
H159 C137 0.930 . S
Pr160 C162 2.880 . S
Pr160 O180 2.562 . S
Pr160 O181 2.490 . S
Pr160 O182 2.695 . S
Pr160 O183 2.512 . S
Pr160 O185 2.437 . S
Pr160 O188 2.436 . S
Pr160 O190 2.438 . S
Pr161 C171 2.880 . S
Pr161 O182 2.436 . S
Pr161 O184 2.438 . S
Pr161 O186 2.562 . S
Pr161 O187 2.490 . S
Pr161 O188 2.695 . S
Pr161 O189 2.512 . S
Pr161 O191 2.437 . S
C162 Pr160 2.880 . S
C162 C163 1.491 . S
C162 O180 1.254 . S
C162 O181 1.225 . S
C163 C162 1.491 . S
C163 C164 1.392 . S
C163 C168 1.356 . S
C164 C163 1.392 . S
C164 C165 1.368 . S
C164 H192 0.929 . S
C165 C164 1.368 . S
C165 C166 1.386 . S
C165 H193 0.929 . S
C166 C165 1.386 . S
C166 C167 1.373 . S
C167 C166 1.373 . S
C167 C168 1.409 . S
C167 H194 0.931 . S
C168 C163 1.356 . S
C168 C167 1.409 . S
C168 H195 0.930 . S
C169 O182 1.270 . S
C169 O183 1.248 . S
C170 O184 1.267 . S
C170 O185 1.278 . S
C171 Pr161 2.880 . S
C171 C172 1.491 . S
C171 O186 1.254 . S
C171 O187 1.225 . S
C172 C171 1.491 . S
C172 C173 1.392 . S
C172 C177 1.356 . S
C173 C172 1.392 . S
C173 C174 1.368 . S
C173 H196 0.929 1_655 S
C174 C173 1.368 . S
C174 C175 1.386 . S
C174 H197 0.929 1_655 S
C175 C174 1.386 . S
C175 C176 1.373 . S
C176 C175 1.373 . S
C176 C177 1.409 . S
C176 H198 0.931 . S
C177 C172 1.356 . S
C177 C176 1.409 . S
C177 H199 0.930 . S
C178 O188 1.270 . S
C178 O189 1.248 . S
C179 O190 1.267 . S
C179 O191 1.278 . S
O180 Pr160 2.562 . S
O180 C162 1.254 . S
O181 Pr160 2.490 . S
O181 C162 1.225 . S
O182 Pr160 2.695 . S
O182 Pr161 2.436 . S
O182 C169 1.270 . S
O183 Pr160 2.512 . S
O183 C169 1.248 . S
O184 Pr161 2.438 . S
O184 C170 1.267 . S
O185 Pr160 2.437 . S
O185 C170 1.278 . S
O186 Pr161 2.562 . S
O186 C171 1.254 . S
O187 Pr161 2.490 . S
O187 C171 1.225 . S
O188 Pr160 2.436 . S
O188 Pr161 2.695 . S
O188 C178 1.270 . S
O189 Pr161 2.512 . S
O189 C178 1.248 . S
O190 Pr160 2.438 . S
O190 C179 1.267 . S
O191 Pr161 2.437 . S
O191 C179 1.278 . S
H192 C164 0.929 . S
H193 C165 0.929 . S
H194 C167 0.931 . S
H195 C168 0.930 . S
H196 C173 0.929 1_455 S
H197 C174 0.929 1_455 S
H198 C176 0.931 . S
H199 C177 0.930 . S
Pr200 C202 2.880 . S
Pr200 O220 2.562 . S
Pr200 O221 2.490 . S
Pr200 O222 2.695 . S
Pr200 O223 2.512 . S
Pr200 O225 2.437 . S
Pr200 O228 2.436 . S
Pr200 O230 2.438 . S
Pr201 C211 2.880 . S
Pr201 O222 2.436 . S
Pr201 O224 2.438 . S
Pr201 O226 2.562 . S
Pr201 O227 2.490 . S
Pr201 O228 2.695 . S
Pr201 O229 2.512 . S
Pr201 O231 2.437 . S
C202 Pr200 2.880 . S
C202 C203 1.491 . S
C202 O220 1.254 . S
C202 O221 1.225 . S
C203 C202 1.491 . S
C203 C204 1.392 . S
C203 C208 1.356 . S
C204 C203 1.392 . S
C204 C205 1.368 . S
C204 H232 0.929 . S
C205 C204 1.368 . S
C205 C206 1.386 . S
C205 H233 0.929 . S
C206 C205 1.386 . S
C206 C207 1.373 . S
C207 C206 1.373 . S
C207 C208 1.409 . S
C207 H234 0.931 . S
C208 C203 1.356 . S
C208 C207 1.409 . S
C208 H235 0.930 . S
C209 O222 1.270 . S
C209 O223 1.248 . S
C210 O224 1.267 . S
C210 O225 1.278 . S
C211 Pr201 2.880 . S
C211 C212 1.491 . S
C211 O226 1.254 . S
C211 O227 1.225 . S
C212 C211 1.491 . S
C212 C213 1.392 . S
C212 C217 1.356 . S
C213 C212 1.392 . S
C213 C214 1.368 . S
C213 H236 0.929 . S
C214 C213 1.368 . S
C214 C215 1.386 . S
C214 H237 0.929 . S
C215 C214 1.386 . S
C215 C216 1.373 . S
C216 C215 1.373 . S
C216 C217 1.409 . S
C216 H238 0.931 . S
C217 C212 1.356 . S
C217 C216 1.409 . S
C217 H239 0.930 . S
C218 O228 1.270 . S
C218 O229 1.248 . S
C219 O230 1.267 . S
C219 O231 1.278 . S
O220 Pr200 2.562 . S
O220 C202 1.254 . S
O221 Pr200 2.490 . S
O221 C202 1.225 . S
O222 Pr200 2.695 . S
O222 Pr201 2.436 . S
O222 C209 1.270 . S
O223 Pr200 2.512 . S
O223 C209 1.248 . S
O224 Pr201 2.438 . S
O224 C210 1.267 . S
O225 Pr200 2.437 . S
O225 C210 1.278 . S
O226 Pr201 2.562 . S
O226 C211 1.254 . S
O227 Pr201 2.490 . S
O227 C211 1.225 . S
O228 Pr200 2.436 . S
O228 Pr201 2.695 . S
O228 C218 1.270 . S
O229 Pr201 2.512 . S
O229 C218 1.248 . S
O230 Pr200 2.438 . S
O230 C219 1.267 . S
O231 Pr201 2.437 . S
O231 C219 1.278 . S
H232 C204 0.929 . S
H233 C205 0.929 . S
H234 C207 0.931 . S
H235 C208 0.930 . S
H236 C213 0.929 . S
H237 C214 0.929 . S
H238 C216 0.931 . S
H239 C217 0.930 . S
Pr240 C242 2.880 . S
Pr240 O260 2.562 . S
Pr240 O261 2.490 . S
Pr240 O262 2.695 . S
Pr240 O263 2.512 . S
Pr240 O265 2.437 . S
Pr240 O268 2.436 . S
Pr240 O270 2.438 . S
Pr241 C251 2.880 1_554 S
Pr241 O262 2.436 . S
Pr241 O264 2.438 . S
Pr241 O266 2.562 1_554 S
Pr241 O267 2.490 . S
Pr241 O268 2.695 . S
Pr241 O269 2.512 . S
Pr241 O271 2.437 . S
C242 Pr240 2.880 . S
C242 C243 1.491 . S
C242 O260 1.254 . S
C242 O261 1.225 . S
C243 C242 1.491 . S
C243 C244 1.392 . S
C243 C248 1.356 . S
C244 C243 1.392 . S
C244 C245 1.368 . S
C244 H272 0.929 1_655 S
C245 C244 1.368 . S
C245 C246 1.386 . S
C245 H273 0.929 1_655 S
C246 C245 1.386 . S
C246 C247 1.373 . S
C247 C246 1.373 . S
C247 C248 1.409 . S
C247 H274 0.931 . S
C248 C243 1.356 . S
C248 C247 1.409 . S
C248 H275 0.930 . S
C249 O262 1.270 . S
C249 O263 1.248 . S
C250 O264 1.267 . S
C250 O265 1.278 . S
C251 Pr241 2.880 1_556 S
C251 C252 1.491 . S
C251 O266 1.254 . S
C251 O267 1.225 1_556 S
C252 C251 1.491 . S
C252 C253 1.392 . S
C252 C257 1.356 . S
C253 C252 1.392 . S
C253 C254 1.368 . S
C253 H276 0.929 . S
C254 C253 1.368 . S
C254 C255 1.386 . S
C254 H277 0.929 . S
C255 C254 1.386 . S
C255 C256 1.373 . S
C256 C255 1.373 . S
C256 C257 1.409 . S
C256 H278 0.931 . S
C257 C252 1.356 . S
C257 C256 1.409 . S
C257 H279 0.930 . S
C258 O268 1.270 . S
C258 O269 1.248 . S
C259 O270 1.267 . S
C259 O271 1.278 . S
O260 Pr240 2.562 . S
O260 C242 1.254 . S
O261 Pr240 2.490 . S
O261 C242 1.225 . S
O262 Pr240 2.695 . S
O262 Pr241 2.436 . S
O262 C249 1.270 . S
O263 Pr240 2.512 . S
O263 C249 1.248 . S
O264 Pr241 2.438 . S
O264 C250 1.267 . S
O265 Pr240 2.437 . S
O265 C250 1.278 . S
O266 Pr241 2.562 1_556 S
O266 C251 1.254 . S
O267 Pr241 2.490 . S
O267 C251 1.225 1_554 S
O268 Pr240 2.436 . S
O268 Pr241 2.695 . S
O268 C258 1.270 . S
O269 Pr241 2.512 . S
O269 C258 1.248 . S
O270 Pr240 2.438 . S
O270 C259 1.267 . S
O271 Pr241 2.437 . S
O271 C259 1.278 . S
H272 C244 0.929 1_455 S
H273 C245 0.929 1_455 S
H274 C247 0.931 . S
H275 C248 0.930 . S
H276 C253 0.929 . S
H277 C254 0.929 . S
H278 C256 0.931 . S
H279 C257 0.930 . S
Pr280 C282 2.880 . S
Pr280 O300 2.562 . S
Pr280 O301 2.490 . S
Pr280 O302 2.695 . S
Pr280 O303 2.512 . S
Pr280 O305 2.437 . S
Pr280 O308 2.436 . S
Pr280 O310 2.438 . S
Pr281 C291 2.880 1_554 S
Pr281 O302 2.436 . S
Pr281 O304 2.438 . S
Pr281 O306 2.562 1_554 S
Pr281 O307 2.490 . S
Pr281 O308 2.695 . S
Pr281 O309 2.512 . S
Pr281 O311 2.437 . S
C282 Pr280 2.880 . S
C282 C283 1.491 . S
C282 O300 1.254 . S
C282 O301 1.225 . S
C283 C282 1.491 . S
C283 C284 1.392 . S
C283 C288 1.356 . S
C284 C283 1.392 . S
C284 C285 1.368 . S
C284 H312 0.929 . S
C285 C284 1.368 . S
C285 C286 1.386 . S
C285 H313 0.929 . S
C286 C285 1.386 . S
C286 C287 1.373 . S
C287 C286 1.373 . S
C287 C288 1.409 . S
C287 H314 0.931 . S
C288 C283 1.356 . S
C288 C287 1.409 . S
C288 H315 0.930 . S
C289 O302 1.270 . S
C289 O303 1.248 . S
C290 O304 1.267 . S
C290 O305 1.278 . S
C291 Pr281 2.880 1_556 S
C291 C292 1.491 . S
C291 O306 1.254 . S
C291 O307 1.225 1_556 S
C292 C291 1.491 . S
C292 C293 1.392 . S
C292 C297 1.356 . S
C293 C292 1.392 . S
C293 C294 1.368 . S
C293 H316 0.929 . S
C294 C293 1.368 . S
C294 C295 1.386 . S
C294 H317 0.929 . S
C295 C294 1.386 . S
C295 C296 1.373 . S
C296 C295 1.373 . S
C296 C297 1.409 . S
C296 H318 0.931 . S
C297 C292 1.356 . S
C297 C296 1.409 . S
C297 H319 0.930 . S
C298 O308 1.270 . S
C298 O309 1.248 . S
C299 O310 1.267 . S
C299 O311 1.278 . S
O300 Pr280 2.562 . S
O300 C282 1.254 . S
O301 Pr280 2.490 . S
O301 C282 1.225 . S
O302 Pr280 2.695 . S
O302 Pr281 2.436 . S
O302 C289 1.270 . S
O303 Pr280 2.512 . S
O303 C289 1.248 . S
O304 Pr281 2.438 . S
O304 C290 1.267 . S
O305 Pr280 2.437 . S
O305 C290 1.278 . S
O306 Pr281 2.562 1_556 S
O306 C291 1.254 . S
O307 Pr281 2.490 . S
O307 C291 1.225 1_554 S
O308 Pr280 2.436 . S
O308 Pr281 2.695 . S
O308 C298 1.270 . S
O309 Pr281 2.512 . S
O309 C298 1.248 . S
O310 Pr280 2.438 . S
O310 C299 1.267 . S
O311 Pr281 2.437 . S
O311 C299 1.278 . S
H312 C284 0.929 . S
H313 C285 0.929 . S
H314 C287 0.931 . S
H315 C288 0.930 . S
H316 C293 0.929 . S
H317 C294 0.929 . S
H318 C296 0.931 . S
H319 C297 0.930 . S
Pr320 C322 2.880 . S
Pr320 O340 2.562 . S
Pr320 O341 2.490 . S
Pr320 O342 2.695 . S
Pr320 O343 2.512 . S
Pr320 O345 2.437 . S
Pr320 O348 2.436 . S
Pr320 O350 2.438 . S
Pr321 C331 2.880 1_554 S
Pr321 O342 2.436 . S
Pr321 O344 2.438 . S
Pr321 O346 2.562 1_554 S
Pr321 O347 2.490 . S
Pr321 O348 2.695 . S
Pr321 O349 2.512 . S
Pr321 O351 2.437 . S
C322 Pr320 2.880 . S
C322 C323 1.491 . S
C322 O340 1.254 . S
C322 O341 1.225 . S
C323 C322 1.491 . S
C323 C324 1.392 . S
C323 C328 1.356 . S
C324 C323 1.392 . S
C324 C325 1.368 . S
C324 H352 0.929 1_545 S
C325 C324 1.368 . S
C325 C326 1.386 . S
C325 H353 0.929 1_545 S
C326 C325 1.386 . S
C326 C327 1.373 . S
C327 C326 1.373 . S
C327 C328 1.409 . S
C327 H354 0.931 . S
C328 C323 1.356 . S
C328 C327 1.409 . S
C328 H355 0.930 . S
C329 O342 1.270 . S
C329 O343 1.248 . S
C330 O344 1.267 . S
C330 O345 1.278 . S
C331 Pr321 2.880 1_556 S
C331 C332 1.491 . S
C331 O346 1.254 . S
C331 O347 1.225 1_556 S
C332 C331 1.491 . S
C332 C333 1.392 . S
C332 C337 1.356 . S
C333 C332 1.392 . S
C333 C334 1.368 . S
C333 H356 0.929 . S
C334 C333 1.368 . S
C334 C335 1.386 . S
C334 H357 0.929 . S
C335 C334 1.386 . S
C335 C336 1.373 . S
C336 C335 1.373 . S
C336 C337 1.409 . S
C336 H358 0.931 . S
C337 C332 1.356 . S
C337 C336 1.409 . S
C337 H359 0.930 . S
C338 O348 1.270 . S
C338 O349 1.248 . S
C339 O350 1.267 . S
C339 O351 1.278 . S
O340 Pr320 2.562 . S
O340 C322 1.254 . S
O341 Pr320 2.490 . S
O341 C322 1.225 . S
O342 Pr320 2.695 . S
O342 Pr321 2.436 . S
O342 C329 1.270 . S
O343 Pr320 2.512 . S
O343 C329 1.248 . S
O344 Pr321 2.438 . S
O344 C330 1.267 . S
O345 Pr320 2.437 . S
O345 C330 1.278 . S
O346 Pr321 2.562 1_556 S
O346 C331 1.254 . S
O347 Pr321 2.490 . S
O347 C331 1.225 1_554 S
O348 Pr320 2.436 . S
O348 Pr321 2.695 . S
O348 C338 1.270 . S
O349 Pr321 2.512 . S
O349 C338 1.248 . S
O350 Pr320 2.438 . S
O350 C339 1.267 . S
O351 Pr321 2.437 . S
O351 C339 1.278 . S
H352 C324 0.929 1_565 S
H353 C325 0.929 1_565 S
H354 C327 0.931 . S
H355 C328 0.930 . S
H356 C333 0.929 . S
H357 C334 0.929 . S
H358 C336 0.931 . S
H359 C337 0.930 . S
Pr360 C362 2.880 . S
Pr360 O380 2.562 . S
Pr360 O381 2.490 . S
Pr360 O382 2.695 . S
Pr360 O383 2.512 . S
Pr360 O385 2.437 . S
Pr360 O388 2.436 . S
Pr360 O390 2.438 . S
Pr361 C371 2.880 . S
Pr361 O382 2.436 . S
Pr361 O384 2.438 . S
Pr361 O386 2.562 . S
Pr361 O387 2.490 . S
Pr361 O388 2.695 . S
Pr361 O389 2.512 . S
Pr361 O391 2.437 . S
C362 Pr360 2.880 . S
C362 C363 1.491 . S
C362 O380 1.254 . S
C362 O381 1.225 . S
C363 C362 1.491 . S
C363 C364 1.392 . S
C363 C368 1.356 . S
C364 C363 1.392 . S
C364 C365 1.368 . S
C364 H392 0.929 1_565 S
C365 C364 1.368 . S
C365 C366 1.386 . S
C365 H393 0.929 1_565 S
C366 C365 1.386 . S
C366 C367 1.373 . S
C367 C366 1.373 . S
C367 C368 1.409 . S
C367 H394 0.931 . S
C368 C363 1.356 . S
C368 C367 1.409 . S
C368 H395 0.930 . S
C369 O382 1.270 . S
C369 O383 1.248 . S
C370 O384 1.267 . S
C370 O385 1.278 . S
C371 Pr361 2.880 . S
C371 C372 1.491 . S
C371 O386 1.254 . S
C371 O387 1.225 . S
C372 C371 1.491 . S
C372 C373 1.392 . S
C372 C377 1.356 . S
C373 C372 1.392 . S
C373 C374 1.368 . S
C373 H396 0.929 . S
C374 C373 1.368 . S
C374 C375 1.386 . S
C374 H397 0.929 . S
C375 C374 1.386 . S
C375 C376 1.373 . S
C376 C375 1.373 . S
C376 C377 1.409 . S
C376 H398 0.931 . S
C377 C372 1.356 . S
C377 C376 1.409 . S
C377 H399 0.930 . S
C378 O388 1.270 . S
C378 O389 1.248 . S
C379 O390 1.267 . S
C379 O391 1.278 . S
O380 Pr360 2.562 . S
O380 C362 1.254 . S
O381 Pr360 2.490 . S
O381 C362 1.225 . S
O382 Pr360 2.695 . S
O382 Pr361 2.436 . S
O382 C369 1.270 . S
O383 Pr360 2.512 . S
O383 C369 1.248 . S
O384 Pr361 2.438 . S
O384 C370 1.267 . S
O385 Pr360 2.437 . S
O385 C370 1.278 . S
O386 Pr361 2.562 . S
O386 C371 1.254 . S
O387 Pr361 2.490 . S
O387 C371 1.225 . S
O388 Pr360 2.436 . S
O388 Pr361 2.695 . S
O388 C378 1.270 . S
O389 Pr361 2.512 . S
O389 C378 1.248 . S
O390 Pr360 2.438 . S
O390 C379 1.267 . S
O391 Pr361 2.437 . S
O391 C379 1.278 . S
H392 C364 0.929 1_545 S
H393 C365 0.929 1_545 S
H394 C367 0.931 . S
H395 C368 0.930 . S
H396 C373 0.929 . S
H397 C374 0.929 . S
H398 C376 0.931 . S
H399 C377 0.930 . S
Pr400 C402 2.880 . S
Pr400 O420 2.562 . S
Pr400 O421 2.490 . S
Pr400 O422 2.695 . S
Pr400 O423 2.512 . S
Pr400 O425 2.437 . S
Pr400 O428 2.436 . S
Pr400 O430 2.438 . S
Pr401 C411 2.880 . S
Pr401 O422 2.436 . S
Pr401 O424 2.438 . S
Pr401 O426 2.562 . S
Pr401 O427 2.490 . S
Pr401 O428 2.695 . S
Pr401 O429 2.512 . S
Pr401 O431 2.437 . S
C402 Pr400 2.880 . S
C402 C403 1.491 . S
C402 O420 1.254 . S
C402 O421 1.225 . S
C403 C402 1.491 . S
C403 C404 1.392 . S
C403 C408 1.356 . S
C404 C403 1.392 . S
C404 C405 1.368 . S
C404 H432 0.929 1_455 S
C405 C404 1.368 . S
C405 C406 1.386 . S
C405 H433 0.929 1_455 S
C406 C405 1.386 . S
C406 C407 1.373 . S
C407 C406 1.373 . S
C407 C408 1.409 . S
C407 H434 0.931 . S
C408 C403 1.356 . S
C408 C407 1.409 . S
C408 H435 0.930 . S
C409 O422 1.270 . S
C409 O423 1.248 . S
C410 O424 1.267 . S
C410 O425 1.278 . S
C411 Pr401 2.880 . S
C411 C412 1.491 . S
C411 O426 1.254 . S
C411 O427 1.225 . S
C412 C411 1.491 . S
C412 C413 1.392 . S
C412 C417 1.356 . S
C413 C412 1.392 . S
C413 C414 1.368 . S
C413 H436 0.929 . S
C414 C413 1.368 . S
C414 C415 1.386 . S
C414 H437 0.929 . S
C415 C414 1.386 . S
C415 C416 1.373 . S
C416 C415 1.373 . S
C416 C417 1.409 . S
C416 H438 0.931 . S
C417 C412 1.356 . S
C417 C416 1.409 . S
C417 H439 0.930 . S
C418 O428 1.270 . S
C418 O429 1.248 . S
C419 O430 1.267 . S
C419 O431 1.278 . S
O420 Pr400 2.562 . S
O420 C402 1.254 . S
O421 Pr400 2.490 . S
O421 C402 1.225 . S
O422 Pr400 2.695 . S
O422 Pr401 2.436 . S
O422 C409 1.270 . S
O423 Pr400 2.512 . S
O423 C409 1.248 . S
O424 Pr401 2.438 . S
O424 C410 1.267 . S
O425 Pr400 2.437 . S
O425 C410 1.278 . S
O426 Pr401 2.562 . S
O426 C411 1.254 . S
O427 Pr401 2.490 . S
O427 C411 1.225 . S
O428 Pr400 2.436 . S
O428 Pr401 2.695 . S
O428 C418 1.270 . S
O429 Pr401 2.512 . S
O429 C418 1.248 . S
O430 Pr400 2.438 . S
O430 C419 1.267 . S
O431 Pr401 2.437 . S
O431 C419 1.278 . S
H432 C404 0.929 1_655 S
H433 C405 0.929 1_655 S
H434 C407 0.931 . S
H435 C408 0.930 . S
H436 C413 0.929 . S
H437 C414 0.929 . S
H438 C416 0.931 . S
H439 C417 0.930 . S
Pr440 C442 2.880 . S
Pr440 O460 2.562 . S
Pr440 O461 2.490 . S
Pr440 O462 2.695 . S
Pr440 O463 2.512 . S
Pr440 O465 2.437 . S
Pr440 O468 2.436 . S
Pr440 O470 2.438 . S
Pr441 C451 2.880 . S
Pr441 O462 2.436 . S
Pr441 O464 2.438 . S
Pr441 O466 2.562 . S
Pr441 O467 2.490 . S
Pr441 O468 2.695 . S
Pr441 O469 2.512 . S
Pr441 O471 2.437 . S
C442 Pr440 2.880 . S
C442 C443 1.491 . S
C442 O460 1.254 . S
C442 O461 1.225 . S
C443 C442 1.491 . S
C443 C444 1.392 . S
C443 C448 1.356 . S
C444 C443 1.392 . S
C444 C445 1.368 . S
C444 H472 0.929 . S
C445 C444 1.368 . S
C445 C446 1.386 . S
C445 H473 0.929 . S
C446 C445 1.386 . S
C446 C447 1.373 . S
C447 C446 1.373 . S
C447 C448 1.409 . S
C447 H474 0.931 . S
C448 C443 1.356 . S
C448 C447 1.409 . S
C448 H475 0.930 . S
C449 O462 1.270 . S
C449 O463 1.248 . S
C450 O464 1.267 . S
C450 O465 1.278 . S
C451 Pr441 2.880 . S
C451 C452 1.491 . S
C451 O466 1.254 . S
C451 O467 1.225 . S
C452 C451 1.491 . S
C452 C453 1.392 . S
C452 C457 1.356 . S
C453 C452 1.392 . S
C453 C454 1.368 . S
C453 H476 0.929 . S
C454 C453 1.368 . S
C454 C455 1.386 . S
C454 H477 0.929 . S
C455 C454 1.386 . S
C455 C456 1.373 . S
C456 C455 1.373 . S
C456 C457 1.409 . S
C456 H478 0.931 . S
C457 C452 1.356 . S
C457 C456 1.409 . S
C457 H479 0.930 . S
C458 O468 1.270 . S
C458 O469 1.248 . S
C459 O470 1.267 . S
C459 O471 1.278 . S
O460 Pr440 2.562 . S
O460 C442 1.254 . S
O461 Pr440 2.490 . S
O461 C442 1.225 . S
O462 Pr440 2.695 . S
O462 Pr441 2.436 . S
O462 C449 1.270 . S
O463 Pr440 2.512 . S
O463 C449 1.248 . S
O464 Pr441 2.438 . S
O464 C450 1.267 . S
O465 Pr440 2.437 . S
O465 C450 1.278 . S
O466 Pr441 2.562 . S
O466 C451 1.254 . S
O467 Pr441 2.490 . S
O467 C451 1.225 . S
O468 Pr440 2.436 . S
O468 Pr441 2.695 . S
O468 C458 1.270 . S
O469 Pr441 2.512 . S
O469 C458 1.248 . S
O470 Pr440 2.438 . S
O470 C459 1.267 . S
O471 Pr441 2.437 . S
O471 C459 1.278 . S
H472 C444 0.929 . S
H473 C445 0.929 . S
H474 C447 0.931 . S
H475 C448 0.930 . S
H476 C453 0.929 . S
H477 C454 0.929 . S
H478 C456 0.931 . S
H479 C457 0.930 . S
Pr480 C482 2.880 . S
Pr480 O500 2.562 . S
Pr480 O501 2.490 . S
Pr480 O502 2.695 . S
Pr480 O503 2.512 . S
Pr480 O505 2.437 . S
Pr480 O508 2.436 . S
Pr480 O510 2.438 . S
Pr481 C491 2.880 . S
Pr481 O502 2.436 . S
Pr481 O504 2.438 . S
Pr481 O506 2.562 . S
Pr481 O507 2.490 . S
Pr481 O508 2.695 . S
Pr481 O509 2.512 . S
Pr481 O511 2.437 . S
C482 Pr480 2.880 . S
C482 C483 1.491 . S
C482 O500 1.254 . S
C482 O501 1.225 . S
C483 C482 1.491 . S
C483 C484 1.392 . S
C483 C488 1.356 . S
C484 C483 1.392 . S
C484 C485 1.368 . S
C484 H512 0.929 . S
C485 C484 1.368 . S
C485 C486 1.386 . S
C485 H513 0.929 . S
C486 C485 1.386 . S
C486 C487 1.373 . S
C487 C486 1.373 . S
C487 C488 1.409 . S
C487 H514 0.931 . S
C488 C483 1.356 . S
C488 C487 1.409 . S
C488 H515 0.930 . S
C489 O502 1.270 . S
C489 O503 1.248 . S
C490 O504 1.267 . S
C490 O505 1.278 . S
C491 Pr481 2.880 . S
C491 C492 1.491 . S
C491 O506 1.254 . S
C491 O507 1.225 . S
C492 C491 1.491 . S
C492 C493 1.392 . S
C492 C497 1.356 . S
C493 C492 1.392 . S
C493 C494 1.368 . S
C493 H516 0.929 . S
C494 C493 1.368 . S
C494 C495 1.386 . S
C494 H517 0.929 . S
C495 C494 1.386 . S
C495 C496 1.373 . S
C496 C495 1.373 . S
C496 C497 1.409 . S
C496 H518 0.931 . S
C497 C492 1.356 . S
C497 C496 1.409 . S
C497 H519 0.930 . S
C498 O508 1.270 . S
C498 O509 1.248 . S
C499 O510 1.267 . S
C499 O511 1.278 . S
O500 Pr480 2.562 . S
O500 C482 1.254 . S
O501 Pr480 2.490 . S
O501 C482 1.225 . S
O502 Pr480 2.695 . S
O502 Pr481 2.436 . S
O502 C489 1.270 . S
O503 Pr480 2.512 . S
O503 C489 1.248 . S
O504 Pr481 2.438 . S
O504 C490 1.267 . S
O505 Pr480 2.437 . S
O505 C490 1.278 . S
O506 Pr481 2.562 . S
O506 C491 1.254 . S
O507 Pr481 2.490 . S
O507 C491 1.225 . S
O508 Pr480 2.436 . S
O508 Pr481 2.695 . S
O508 C498 1.270 . S
O509 Pr481 2.512 . S
O509 C498 1.248 . S
O510 Pr480 2.438 . S
O510 C499 1.267 . S
O511 Pr481 2.437 . S
O511 C499 1.278 . S
H512 C484 0.929 . S
H513 C485 0.929 . S
H514 C487 0.931 . S
H515 C488 0.930 . S
H516 C493 0.929 . S
H517 C494 0.929 . S
H518 C496 0.931 . S
H519 C497 0.930 . S
Pr520 C522 2.880 . S
Pr520 O540 2.562 . S
Pr520 O541 2.490 . S
Pr520 O542 2.695 . S
Pr520 O543 2.512 . S
Pr520 O545 2.437 . S
Pr520 O548 2.436 . S
Pr520 O550 2.438 . S
Pr521 C531 2.880 . S
Pr521 O542 2.436 . S
Pr521 O544 2.438 . S
Pr521 O546 2.562 . S
Pr521 O547 2.490 . S
Pr521 O548 2.695 . S
Pr521 O549 2.512 . S
Pr521 O551 2.437 . S
C522 Pr520 2.880 . S
C522 C523 1.491 . S
C522 O540 1.254 . S
C522 O541 1.225 . S
C523 C522 1.491 . S
C523 C524 1.392 . S
C523 C528 1.356 . S
C524 C523 1.392 . S
C524 C525 1.368 . S
C524 H552 0.929 . S
C525 C524 1.368 . S
C525 C526 1.386 . S
C525 H553 0.929 . S
C526 C525 1.386 . S
C526 C527 1.373 . S
C527 C526 1.373 . S
C527 C528 1.409 . S
C527 H554 0.931 . S
C528 C523 1.356 . S
C528 C527 1.409 . S
C528 H555 0.930 . S
C529 O542 1.270 . S
C529 O543 1.248 . S
C530 O544 1.267 . S
C530 O545 1.278 . S
C531 Pr521 2.880 . S
C531 C532 1.491 . S
C531 O546 1.254 . S
C531 O547 1.225 . S
C532 C531 1.491 . S
C532 C533 1.392 . S
C532 C537 1.356 . S
C533 C532 1.392 . S
C533 C534 1.368 . S
C533 H556 0.929 . S
C534 C533 1.368 . S
C534 C535 1.386 . S
C534 H557 0.929 . S
C535 C534 1.386 . S
C535 C536 1.373 . S
C536 C535 1.373 . S
C536 C537 1.409 . S
C536 H558 0.931 . S
C537 C532 1.356 . S
C537 C536 1.409 . S
C537 H559 0.930 . S
C538 O548 1.270 . S
C538 O549 1.248 . S
C539 O550 1.267 . S
C539 O551 1.278 . S
O540 Pr520 2.562 . S
O540 C522 1.254 . S
O541 Pr520 2.490 . S
O541 C522 1.225 . S
O542 Pr520 2.695 . S
O542 Pr521 2.436 . S
O542 C529 1.270 . S
O543 Pr520 2.512 . S
O543 C529 1.248 . S
O544 Pr521 2.438 . S
O544 C530 1.267 . S
O545 Pr520 2.437 . S
O545 C530 1.278 . S
O546 Pr521 2.562 . S
O546 C531 1.254 . S
O547 Pr521 2.490 . S
O547 C531 1.225 . S
O548 Pr520 2.436 . S
O548 Pr521 2.695 . S
O548 C538 1.270 . S
O549 Pr521 2.512 . S
O549 C538 1.248 . S
O550 Pr520 2.438 . S
O550 C539 1.267 . S
O551 Pr521 2.437 . S
O551 C539 1.278 . S
H552 C524 0.929 . S
H553 C525 0.929 . S
H554 C527 0.931 . S
H555 C528 0.930 . S
H556 C533 0.929 . S
H557 C534 0.929 . S
H558 C536 0.931 . S
H559 C537 0.930 . S
Pr560 C562 2.880 . S
Pr560 O580 2.562 . S
Pr560 O581 2.490 . S
Pr560 O582 2.695 . S
Pr560 O583 2.512 . S
Pr560 O585 2.437 . S
Pr560 O588 2.436 . S
Pr560 O590 2.438 . S
Pr561 C571 2.880 . S
Pr561 O582 2.436 . S
Pr561 O584 2.438 . S
Pr561 O586 2.562 . S
Pr561 O587 2.490 . S
Pr561 O588 2.695 . S
Pr561 O589 2.512 . S
Pr561 O591 2.437 . S
C562 Pr560 2.880 . S
C562 C563 1.491 . S
C562 O580 1.254 . S
C562 O581 1.225 . S
C563 C562 1.491 . S
C563 C564 1.392 . S
C563 C568 1.356 . S
C564 C563 1.392 . S
C564 C565 1.368 . S
C564 H592 0.929 . S
C565 C564 1.368 . S
C565 C566 1.386 . S
C565 H593 0.929 . S
C566 C565 1.386 . S
C566 C567 1.373 . S
C567 C566 1.373 . S
C567 C568 1.409 . S
C567 H594 0.931 . S
C568 C563 1.356 . S
C568 C567 1.409 . S
C568 H595 0.930 . S
C569 O582 1.270 . S
C569 O583 1.248 . S
C570 O584 1.267 . S
C570 O585 1.278 . S
C571 Pr561 2.880 . S
C571 C572 1.491 . S
C571 O586 1.254 . S
C571 O587 1.225 . S
C572 C571 1.491 . S
C572 C573 1.392 . S
C572 C577 1.356 . S
C573 C572 1.392 . S
C573 C574 1.368 . S
C573 H596 0.929 . S
C574 C573 1.368 . S
C574 C575 1.386 . S
C574 H597 0.929 . S
C575 C574 1.386 . S
C575 C576 1.373 . S
C576 C575 1.373 . S
C576 C577 1.409 . S
C576 H598 0.931 . S
C577 C572 1.356 . S
C577 C576 1.409 . S
C577 H599 0.930 . S
C578 O588 1.270 . S
C578 O589 1.248 . S
C579 O590 1.267 . S
C579 O591 1.278 . S
O580 Pr560 2.562 . S
O580 C562 1.254 . S
O581 Pr560 2.490 . S
O581 C562 1.225 . S
O582 Pr560 2.695 . S
O582 Pr561 2.436 . S
O582 C569 1.270 . S
O583 Pr560 2.512 . S
O583 C569 1.248 . S
O584 Pr561 2.438 . S
O584 C570 1.267 . S
O585 Pr560 2.437 . S
O585 C570 1.278 . S
O586 Pr561 2.562 . S
O586 C571 1.254 . S
O587 Pr561 2.490 . S
O587 C571 1.225 . S
O588 Pr560 2.436 . S
O588 Pr561 2.695 . S
O588 C578 1.270 . S
O589 Pr561 2.512 . S
O589 C578 1.248 . S
O590 Pr560 2.438 . S
O590 C579 1.267 . S
O591 Pr561 2.437 . S
O591 C579 1.278 . S
H592 C564 0.929 . S
H593 C565 0.929 . S
H594 C567 0.931 . S
H595 C568 0.930 . S
H596 C573 0.929 . S
H597 C574 0.929 . S
H598 C576 0.931 . S
H599 C577 0.930 . S
Pr600 C602 2.880 . S
Pr600 O620 2.562 . S
Pr600 O621 2.490 . S
Pr600 O622 2.695 . S
Pr600 O623 2.512 . S
Pr600 O625 2.437 . S
Pr600 O628 2.436 . S
Pr600 O630 2.438 . S
Pr601 C611 2.880 1_556 S
Pr601 O622 2.436 . S
Pr601 O624 2.438 . S
Pr601 O626 2.562 1_556 S
Pr601 O627 2.490 1_556 S
Pr601 O628 2.695 . S
Pr601 O629 2.512 . S
Pr601 O631 2.437 . S
C602 Pr600 2.880 . S
C602 C603 1.491 . S
C602 O620 1.254 . S
C602 O621 1.225 . S
C603 C602 1.491 . S
C603 C604 1.392 . S
C603 C608 1.356 . S
C604 C603 1.392 . S
C604 C605 1.368 . S
C604 H632 0.929 . S
C605 C604 1.368 . S
C605 C606 1.386 . S
C605 H633 0.929 . S
C606 C605 1.386 . S
C606 C607 1.373 . S
C607 C606 1.373 . S
C607 C608 1.409 . S
C607 H634 0.931 . S
C608 C603 1.356 . S
C608 C607 1.409 . S
C608 H635 0.930 . S
C609 O622 1.270 . S
C609 O623 1.248 . S
C610 O624 1.267 . S
C610 O625 1.278 . S
C611 Pr601 2.880 1_554 S
C611 C612 1.491 . S
C611 O626 1.254 . S
C611 O627 1.225 . S
C612 C611 1.491 . S
C612 C613 1.392 . S
C612 C617 1.356 . S
C613 C612 1.392 . S
C613 C614 1.368 . S
C613 H636 0.929 . S
C614 C613 1.368 . S
C614 C615 1.386 . S
C614 H637 0.929 . S
C615 C614 1.386 . S
C615 C616 1.373 . S
C616 C615 1.373 . S
C616 C617 1.409 . S
C616 H638 0.931 . S
C617 C612 1.356 . S
C617 C616 1.409 . S
C617 H639 0.930 . S
C618 O628 1.270 . S
C618 O629 1.248 . S
C619 O630 1.267 . S
C619 O631 1.278 . S
O620 Pr600 2.562 . S
O620 C602 1.254 . S
O621 Pr600 2.490 . S
O621 C602 1.225 . S
O622 Pr600 2.695 . S
O622 Pr601 2.436 . S
O622 C609 1.270 . S
O623 Pr600 2.512 . S
O623 C609 1.248 . S
O624 Pr601 2.438 . S
O624 C610 1.267 . S
O625 Pr600 2.437 . S
O625 C610 1.278 . S
O626 Pr601 2.562 1_554 S
O626 C611 1.254 . S
O627 Pr601 2.490 1_554 S
O627 C611 1.225 . S
O628 Pr600 2.436 . S
O628 Pr601 2.695 . S
O628 C618 1.270 . S
O629 Pr601 2.512 . S
O629 C618 1.248 . S
O630 Pr600 2.438 . S
O630 C619 1.267 . S
O631 Pr601 2.437 . S
O631 C619 1.278 . S
H632 C604 0.929 . S
H633 C605 0.929 . S
H634 C607 0.931 . S
H635 C608 0.930 . S
H636 C613 0.929 . S
H637 C614 0.929 . S
H638 C616 0.931 . S
H639 C617 0.930 . S
Pr640 C642 2.880 . S
Pr640 O660 2.562 . S
Pr640 O661 2.490 . S
Pr640 O662 2.695 . S
Pr640 O663 2.512 . S
Pr640 O665 2.437 . S
Pr640 O668 2.436 . S
Pr640 O670 2.438 . S
Pr641 C651 2.880 1_556 S
Pr641 O662 2.436 . S
Pr641 O664 2.438 . S
Pr641 O666 2.562 1_556 S
Pr641 O667 2.490 1_556 S
Pr641 O668 2.695 . S
Pr641 O669 2.512 . S
Pr641 O671 2.437 . S
C642 Pr640 2.880 . S
C642 C643 1.491 . S
C642 O660 1.254 . S
C642 O661 1.225 . S
C643 C642 1.491 . S
C643 C644 1.392 . S
C643 C648 1.356 . S
C644 C643 1.392 . S
C644 C645 1.368 . S
C644 H672 0.929 . S
C645 C644 1.368 . S
C645 C646 1.386 . S
C645 H673 0.929 . S
C646 C645 1.386 . S
C646 C647 1.373 . S
C647 C646 1.373 . S
C647 C648 1.409 . S
C647 H674 0.931 . S
C648 C643 1.356 . S
C648 C647 1.409 . S
C648 H675 0.930 . S
C649 O662 1.270 . S
C649 O663 1.248 . S
C650 O664 1.267 . S
C650 O665 1.278 . S
C651 Pr641 2.880 1_554 S
C651 C652 1.491 . S
C651 O666 1.254 . S
C651 O667 1.225 . S
C652 C651 1.491 . S
C652 C653 1.392 . S
C652 C657 1.356 . S
C653 C652 1.392 . S
C653 C654 1.368 . S
C653 H676 0.929 . S
C654 C653 1.368 . S
C654 C655 1.386 . S
C654 H677 0.929 . S
C655 C654 1.386 . S
C655 C656 1.373 . S
C656 C655 1.373 . S
C656 C657 1.409 . S
C656 H678 0.931 . S
C657 C652 1.356 . S
C657 C656 1.409 . S
C657 H679 0.930 . S
C658 O668 1.270 . S
C658 O669 1.248 . S
C659 O670 1.267 . S
C659 O671 1.278 . S
O660 Pr640 2.562 . S
O660 C642 1.254 . S
O661 Pr640 2.490 . S
O661 C642 1.225 . S
O662 Pr640 2.695 . S
O662 Pr641 2.436 . S
O662 C649 1.270 . S
O663 Pr640 2.512 . S
O663 C649 1.248 . S
O664 Pr641 2.438 . S
O664 C650 1.267 . S
O665 Pr640 2.437 . S
O665 C650 1.278 . S
O666 Pr641 2.562 1_554 S
O666 C651 1.254 . S
O667 Pr641 2.490 1_554 S
O667 C651 1.225 . S
O668 Pr640 2.436 . S
O668 Pr641 2.695 . S
O668 C658 1.270 . S
O669 Pr641 2.512 . S
O669 C658 1.248 . S
O670 Pr640 2.438 . S
O670 C659 1.267 . S
O671 Pr641 2.437 . S
O671 C659 1.278 . S
H672 C644 0.929 . S
H673 C645 0.929 . S
H674 C647 0.931 . S
H675 C648 0.930 . S
H676 C653 0.929 . S
H677 C654 0.929 . S
H678 C656 0.931 . S
H679 C657 0.930 . S
Pr680 C682 2.880 . S
Pr680 O700 2.562 . S
Pr680 O701 2.490 . S
Pr680 O702 2.695 . S
Pr680 O703 2.512 . S
Pr680 O705 2.437 . S
Pr680 O708 2.436 . S
Pr680 O710 2.438 . S
Pr681 C691 2.880 1_556 S
Pr681 O702 2.436 . S
Pr681 O704 2.438 . S
Pr681 O706 2.562 1_556 S
Pr681 O707 2.490 1_556 S
Pr681 O708 2.695 . S
Pr681 O709 2.512 . S
Pr681 O711 2.437 . S
C682 Pr680 2.880 . S
C682 C683 1.491 . S
C682 O700 1.254 . S
C682 O701 1.225 . S
C683 C682 1.491 . S
C683 C684 1.392 . S
C683 C688 1.356 . S
C684 C683 1.392 . S
C684 C685 1.368 . S
C684 H712 0.929 . S
C685 C684 1.368 . S
C685 C686 1.386 . S
C685 H713 0.929 . S
C686 C685 1.386 . S
C686 C687 1.373 . S
C687 C686 1.373 . S
C687 C688 1.409 . S
C687 H714 0.931 . S
C688 C683 1.356 . S
C688 C687 1.409 . S
C688 H715 0.930 . S
C689 O702 1.270 . S
C689 O703 1.248 . S
C690 O704 1.267 . S
C690 O705 1.278 . S
C691 Pr681 2.880 1_554 S
C691 C692 1.491 . S
C691 O706 1.254 . S
C691 O707 1.225 . S
C692 C691 1.491 . S
C692 C693 1.392 . S
C692 C697 1.356 . S
C693 C692 1.392 . S
C693 C694 1.368 . S
C693 H716 0.929 . S
C694 C693 1.368 . S
C694 C695 1.386 . S
C694 H717 0.929 . S
C695 C694 1.386 . S
C695 C696 1.373 . S
C696 C695 1.373 . S
C696 C697 1.409 . S
C696 H718 0.931 . S
C697 C692 1.356 . S
C697 C696 1.409 . S
C697 H719 0.930 . S
C698 O708 1.270 . S
C698 O709 1.248 . S
C699 O710 1.267 . S
C699 O711 1.278 . S
O700 Pr680 2.562 . S
O700 C682 1.254 . S
O701 Pr680 2.490 . S
O701 C682 1.225 . S
O702 Pr680 2.695 . S
O702 Pr681 2.436 . S
O702 C689 1.270 . S
O703 Pr680 2.512 . S
O703 C689 1.248 . S
O704 Pr681 2.438 . S
O704 C690 1.267 . S
O705 Pr680 2.437 . S
O705 C690 1.278 . S
O706 Pr681 2.562 1_554 S
O706 C691 1.254 . S
O707 Pr681 2.490 1_554 S
O707 C691 1.225 . S
O708 Pr680 2.436 . S
O708 Pr681 2.695 . S
O708 C698 1.270 . S
O709 Pr681 2.512 . S
O709 C698 1.248 . S
O710 Pr680 2.438 . S
O710 C699 1.267 . S
O711 Pr681 2.437 . S
O711 C699 1.278 . S
H712 C684 0.929 . S
H713 C685 0.929 . S
H714 C687 0.931 . S
H715 C688 0.930 . S
H716 C693 0.929 . S
H717 C694 0.929 . S
H718 C696 0.931 . S
H719 C697 0.930 . S
Pr720 C722 2.880 . S
Pr720 O740 2.562 . S
Pr720 O741 2.490 . S
Pr720 O742 2.695 . S
Pr720 O743 2.512 . S
Pr720 O745 2.437 . S
Pr720 O748 2.436 . S
Pr720 O750 2.438 . S
Pr721 C731 2.880 . S
Pr721 O742 2.436 . S
Pr721 O744 2.438 . S
Pr721 O746 2.562 . S
Pr721 O747 2.490 . S
Pr721 O748 2.695 . S
Pr721 O749 2.512 . S
Pr721 O751 2.437 . S
C722 Pr720 2.880 . S
C722 C723 1.491 . S
C722 O740 1.254 . S
C722 O741 1.225 . S
C723 C722 1.491 . S
C723 C724 1.392 . S
C723 C728 1.356 . S
C724 C723 1.392 . S
C724 C725 1.368 . S
C724 H752 0.929 . S
C725 C724 1.368 . S
C725 C726 1.386 . S
C725 H753 0.929 . S
C726 C725 1.386 . S
C726 C727 1.373 . S
C727 C726 1.373 . S
C727 C728 1.409 . S
C727 H754 0.931 . S
C728 C723 1.356 . S
C728 C727 1.409 . S
C728 H755 0.930 . S
C729 O742 1.270 . S
C729 O743 1.248 . S
C730 O744 1.267 . S
C730 O745 1.278 . S
C731 Pr721 2.880 . S
C731 C732 1.491 . S
C731 O746 1.254 . S
C731 O747 1.225 . S
C732 C731 1.491 . S
C732 C733 1.392 . S
C732 C737 1.356 . S
C733 C732 1.392 . S
C733 C734 1.368 . S
C733 H756 0.929 . S
C734 C733 1.368 . S
C734 C735 1.386 . S
C734 H757 0.929 . S
C735 C734 1.386 . S
C735 C736 1.373 . S
C736 C735 1.373 . S
C736 C737 1.409 . S
C736 H758 0.931 . S
C737 C732 1.356 . S
C737 C736 1.409 . S
C737 H759 0.930 . S
C738 O748 1.270 . S
C738 O749 1.248 . S
C739 O750 1.267 . S
C739 O751 1.278 . S
O740 Pr720 2.562 . S
O740 C722 1.254 . S
O741 Pr720 2.490 . S
O741 C722 1.225 . S
O742 Pr720 2.695 . S
O742 Pr721 2.436 . S
O742 C729 1.270 . S
O743 Pr720 2.512 . S
O743 C729 1.248 . S
O744 Pr721 2.438 . S
O744 C730 1.267 . S
O745 Pr720 2.437 . S
O745 C730 1.278 . S
O746 Pr721 2.562 . S
O746 C731 1.254 . S
O747 Pr721 2.490 . S
O747 C731 1.225 . S
O748 Pr720 2.436 . S
O748 Pr721 2.695 . S
O748 C738 1.270 . S
O749 Pr721 2.512 . S
O749 C738 1.248 . S
O750 Pr720 2.438 . S
O750 C739 1.267 . S
O751 Pr721 2.437 . S
O751 C739 1.278 . S
H752 C724 0.929 . S
H753 C725 0.929 . S
H754 C727 0.931 . S
H755 C728 0.930 . S
H756 C733 0.929 . S
H757 C734 0.929 . S
H758 C736 0.931 . S
H759 C737 0.930 . S
Pr760 C762 2.880 . S
Pr760 O780 2.562 . S
Pr760 O781 2.490 . S
Pr760 O782 2.695 . S
Pr760 O783 2.512 . S
Pr760 O785 2.437 . S
Pr760 O788 2.436 . S
Pr760 O790 2.438 . S
Pr761 C771 2.880 . S
Pr761 O782 2.436 . S
Pr761 O784 2.438 . S
Pr761 O786 2.562 . S
Pr761 O787 2.490 . S
Pr761 O788 2.695 . S
Pr761 O789 2.512 . S
Pr761 O791 2.437 . S
C762 Pr760 2.880 . S
C762 C763 1.491 . S
C762 O780 1.254 . S
C762 O781 1.225 . S
C763 C762 1.491 . S
C763 C764 1.392 . S
C763 C768 1.356 . S
C764 C763 1.392 . S
C764 C765 1.368 . S
C764 H792 0.929 . S
C765 C764 1.368 . S
C765 C766 1.386 . S
C765 H793 0.929 . S
C766 C765 1.386 . S
C766 C767 1.373 . S
C767 C766 1.373 . S
C767 C768 1.409 . S
C767 H794 0.931 . S
C768 C763 1.356 . S
C768 C767 1.409 . S
C768 H795 0.930 . S
C769 O782 1.270 . S
C769 O783 1.248 . S
C770 O784 1.267 . S
C770 O785 1.278 . S
C771 Pr761 2.880 . S
C771 C772 1.491 . S
C771 O786 1.254 . S
C771 O787 1.225 . S
C772 C771 1.491 . S
C772 C773 1.392 . S
C772 C777 1.356 . S
C773 C772 1.392 . S
C773 C774 1.368 . S
C773 H796 0.929 . S
C774 C773 1.368 . S
C774 C775 1.386 . S
C774 H797 0.929 . S
C775 C774 1.386 . S
C775 C776 1.373 . S
C776 C775 1.373 . S
C776 C777 1.409 . S
C776 H798 0.931 . S
C777 C772 1.356 . S
C777 C776 1.409 . S
C777 H799 0.930 . S
C778 O788 1.270 . S
C778 O789 1.248 . S
C779 O790 1.267 . S
C779 O791 1.278 . S
O780 Pr760 2.562 . S
O780 C762 1.254 . S
O781 Pr760 2.490 . S
O781 C762 1.225 . S
O782 Pr760 2.695 . S
O782 Pr761 2.436 . S
O782 C769 1.270 . S
O783 Pr760 2.512 . S
O783 C769 1.248 . S
O784 Pr761 2.438 . S
O784 C770 1.267 . S
O785 Pr760 2.437 . S
O785 C770 1.278 . S
O786 Pr761 2.562 . S
O786 C771 1.254 . S
O787 Pr761 2.490 . S
O787 C771 1.225 . S
O788 Pr760 2.436 . S
O788 Pr761 2.695 . S
O788 C778 1.270 . S
O789 Pr761 2.512 . S
O789 C778 1.248 . S
O790 Pr760 2.438 . S
O790 C779 1.267 . S
O791 Pr761 2.437 . S
O791 C779 1.278 . S
H792 C764 0.929 . S
H793 C765 0.929 . S
H794 C767 0.931 . S
H795 C768 0.930 . S
H796 C773 0.929 . S
H797 C774 0.929 . S
H798 C776 0.931 . S
H799 C777 0.930 . S
Pr800 C802 2.880 . S
Pr800 O820 2.562 . S
Pr800 O821 2.490 . S
Pr800 O822 2.695 . S
Pr800 O823 2.512 . S
Pr800 O825 2.437 . S
Pr800 O828 2.436 . S
Pr800 O830 2.438 . S
Pr801 C811 2.880 . S
Pr801 O822 2.436 . S
Pr801 O824 2.438 . S
Pr801 O826 2.562 . S
Pr801 O827 2.490 . S
Pr801 O828 2.695 . S
Pr801 O829 2.512 . S
Pr801 O831 2.437 . S
C802 Pr800 2.880 . S
C802 C803 1.491 . S
C802 O820 1.254 . S
C802 O821 1.225 . S
C803 C802 1.491 . S
C803 C804 1.392 . S
C803 C808 1.356 . S
C804 C803 1.392 . S
C804 C805 1.368 . S
C804 H832 0.929 . S
C805 C804 1.368 . S
C805 C806 1.386 . S
C805 H833 0.929 . S
C806 C805 1.386 . S
C806 C807 1.373 . S
C807 C806 1.373 . S
C807 C808 1.409 . S
C807 H834 0.931 . S
C808 C803 1.356 . S
C808 C807 1.409 . S
C808 H835 0.930 . S
C809 O822 1.270 . S
C809 O823 1.248 . S
C810 O824 1.267 . S
C810 O825 1.278 . S
C811 Pr801 2.880 . S
C811 C812 1.491 . S
C811 O826 1.254 . S
C811 O827 1.225 . S
C812 C811 1.491 . S
C812 C813 1.392 . S
C812 C817 1.356 . S
C813 C812 1.392 . S
C813 C814 1.368 . S
C813 H836 0.929 . S
C814 C813 1.368 . S
C814 C815 1.386 . S
C814 H837 0.929 . S
C815 C814 1.386 . S
C815 C816 1.373 . S
C816 C815 1.373 . S
C816 C817 1.409 . S
C816 H838 0.931 . S
C817 C812 1.356 . S
C817 C816 1.409 . S
C817 H839 0.930 . S
C818 O828 1.270 . S
C818 O829 1.248 . S
C819 O830 1.267 . S
C819 O831 1.278 . S
O820 Pr800 2.562 . S
O820 C802 1.254 . S
O821 Pr800 2.490 . S
O821 C802 1.225 . S
O822 Pr800 2.695 . S
O822 Pr801 2.436 . S
O822 C809 1.270 . S
O823 Pr800 2.512 . S
O823 C809 1.248 . S
O824 Pr801 2.438 . S
O824 C810 1.267 . S
O825 Pr800 2.437 . S
O825 C810 1.278 . S
O826 Pr801 2.562 . S
O826 C811 1.254 . S
O827 Pr801 2.490 . S
O827 C811 1.225 . S
O828 Pr800 2.436 . S
O828 Pr801 2.695 . S
O828 C818 1.270 . S
O829 Pr801 2.512 . S
O829 C818 1.248 . S
O830 Pr800 2.438 . S
O830 C819 1.267 . S
O831 Pr801 2.437 . S
O831 C819 1.278 . S
H832 C804 0.929 . S
H833 C805 0.929 . S
H834 C807 0.931 . S
H835 C808 0.930 . S
H836 C813 0.929 . S
H837 C814 0.929 . S
H838 C816 0.931 . S
H839 C817 0.930 . S
Pr840 C842 2.880 . S
Pr840 O860 2.562 . S
Pr840 O861 2.490 . S
Pr840 O862 2.695 1_556 S
Pr840 O863 2.512 . S
Pr840 O865 2.437 . S
Pr840 O868 2.436 . S
Pr840 O870 2.438 1_556 S
Pr841 C851 2.880 . S
Pr841 O862 2.436 . S
Pr841 O864 2.438 1_554 S
Pr841 O866 2.562 . S
Pr841 O867 2.490 . S
Pr841 O868 2.695 1_554 S
Pr841 O869 2.512 . S
Pr841 O871 2.437 . S
C842 Pr840 2.880 . S
C842 C843 1.491 . S
C842 O860 1.254 . S
C842 O861 1.225 . S
C843 C842 1.491 . S
C843 C844 1.392 . S
C843 C848 1.356 . S
C844 C843 1.392 . S
C844 C845 1.368 . S
C844 H872 0.929 . S
C845 C844 1.368 . S
C845 C846 1.386 . S
C845 H873 0.929 . S
C846 C845 1.386 . S
C846 C847 1.373 . S
C847 C846 1.373 . S
C847 C848 1.409 . S
C847 H874 0.931 . S
C848 C843 1.356 . S
C848 C847 1.409 . S
C848 H875 0.930 . S
C849 O862 1.270 . S
C849 O863 1.248 1_554 S
C850 O864 1.267 . S
C850 O865 1.278 . S
C851 Pr841 2.880 . S
C851 C852 1.491 . S
C851 O866 1.254 . S
C851 O867 1.225 . S
C852 C851 1.491 . S
C852 C853 1.392 . S
C852 C857 1.356 . S
C853 C852 1.392 . S
C853 C854 1.368 . S
C853 H876 0.929 . S
C854 C853 1.368 . S
C854 C855 1.386 . S
C854 H877 0.929 . S
C855 C854 1.386 . S
C855 C856 1.373 . S
C856 C855 1.373 . S
C856 C857 1.409 . S
C856 H878 0.931 . S
C857 C852 1.356 . S
C857 C856 1.409 . S
C857 H879 0.930 . S
C858 O868 1.270 . S
C858 O869 1.248 1_556 S
C859 O870 1.267 . S
C859 O871 1.278 . S
O860 Pr840 2.562 . S
O860 C842 1.254 . S
O861 Pr840 2.490 . S
O861 C842 1.225 . S
O862 Pr840 2.695 1_554 S
O862 Pr841 2.436 . S
O862 C849 1.270 . S
O863 Pr840 2.512 . S
O863 C849 1.248 1_556 S
O864 Pr841 2.438 1_556 S
O864 C850 1.267 . S
O865 Pr840 2.437 . S
O865 C850 1.278 . S
O866 Pr841 2.562 . S
O866 C851 1.254 . S
O867 Pr841 2.490 . S
O867 C851 1.225 . S
O868 Pr840 2.436 . S
O868 Pr841 2.695 1_556 S
O868 C858 1.270 . S
O869 Pr841 2.512 . S
O869 C858 1.248 1_554 S
O870 Pr840 2.438 1_554 S
O870 C859 1.267 . S
O871 Pr841 2.437 . S
O871 C859 1.278 . S
H872 C844 0.929 . S
H873 C845 0.929 . S
H874 C847 0.931 . S
H875 C848 0.930 . S
H876 C853 0.929 . S
H877 C854 0.929 . S
H878 C856 0.931 . S
H879 C857 0.930 . S
Pr880 C882 2.880 . S
Pr880 O900 2.562 . S
Pr880 O901 2.490 . S
Pr880 O902 2.695 1_556 S
Pr880 O903 2.512 . S
Pr880 O905 2.437 . S
Pr880 O908 2.436 . S
Pr880 O910 2.438 1_556 S
Pr881 C891 2.880 . S
Pr881 O902 2.436 . S
Pr881 O904 2.438 1_554 S
Pr881 O906 2.562 . S
Pr881 O907 2.490 . S
Pr881 O908 2.695 1_554 S
Pr881 O909 2.512 . S
Pr881 O911 2.437 . S
C882 Pr880 2.880 . S
C882 C883 1.491 . S
C882 O900 1.254 . S
C882 O901 1.225 . S
C883 C882 1.491 . S
C883 C884 1.392 . S
C883 C888 1.356 . S
C884 C883 1.392 . S
C884 C885 1.368 . S
C884 H912 0.929 . S
C885 C884 1.368 . S
C885 C886 1.386 . S
C885 H913 0.929 . S
C886 C885 1.386 . S
C886 C887 1.373 . S
C887 C886 1.373 . S
C887 C888 1.409 . S
C887 H914 0.931 . S
C888 C883 1.356 . S
C888 C887 1.409 . S
C888 H915 0.930 . S
C889 O902 1.270 . S
C889 O903 1.248 1_554 S
C890 O904 1.267 . S
C890 O905 1.278 . S
C891 Pr881 2.880 . S
C891 C892 1.491 . S
C891 O906 1.254 . S
C891 O907 1.225 . S
C892 C891 1.491 . S
C892 C893 1.392 . S
C892 C897 1.356 . S
C893 C892 1.392 . S
C893 C894 1.368 . S
C893 H916 0.929 . S
C894 C893 1.368 . S
C894 C895 1.386 . S
C894 H917 0.929 . S
C895 C894 1.386 . S
C895 C896 1.373 . S
C896 C895 1.373 . S
C896 C897 1.409 . S
C896 H918 0.931 . S
C897 C892 1.356 . S
C897 C896 1.409 . S
C897 H919 0.930 . S
C898 O908 1.270 . S
C898 O909 1.248 1_556 S
C899 O910 1.267 . S
C899 O911 1.278 . S
O900 Pr880 2.562 . S
O900 C882 1.254 . S
O901 Pr880 2.490 . S
O901 C882 1.225 . S
O902 Pr880 2.695 1_554 S
O902 Pr881 2.436 . S
O902 C889 1.270 . S
O903 Pr880 2.512 . S
O903 C889 1.248 1_556 S
O904 Pr881 2.438 1_556 S
O904 C890 1.267 . S
O905 Pr880 2.437 . S
O905 C890 1.278 . S
O906 Pr881 2.562 . S
O906 C891 1.254 . S
O907 Pr881 2.490 . S
O907 C891 1.225 . S
O908 Pr880 2.436 . S
O908 Pr881 2.695 1_556 S
O908 C898 1.270 . S
O909 Pr881 2.512 . S
O909 C898 1.248 1_554 S
O910 Pr880 2.438 1_554 S
O910 C899 1.267 . S
O911 Pr881 2.437 . S
O911 C899 1.278 . S
H912 C884 0.929 . S
H913 C885 0.929 . S
H914 C887 0.931 . S
H915 C888 0.930 . S
H916 C893 0.929 . S
H917 C894 0.929 . S
H918 C896 0.931 . S
H919 C897 0.930 . S
Pr920 C922 2.880 . S
Pr920 O940 2.562 . S
Pr920 O941 2.490 . S
Pr920 O942 2.695 1_556 S
Pr920 O943 2.512 . S
Pr920 O945 2.437 . S
Pr920 O948 2.436 . S
Pr920 O950 2.438 1_556 S
Pr921 C931 2.880 . S
Pr921 O942 2.436 . S
Pr921 O944 2.438 1_554 S
Pr921 O946 2.562 . S
Pr921 O947 2.490 . S
Pr921 O948 2.695 1_554 S
Pr921 O949 2.512 . S
Pr921 O951 2.437 . S
C922 Pr920 2.880 . S
C922 C923 1.491 . S
C922 O940 1.254 . S
C922 O941 1.225 . S
C923 C922 1.491 . S
C923 C924 1.392 . S
C923 C928 1.356 . S
C924 C923 1.392 . S
C924 C925 1.368 . S
C924 H952 0.929 . S
C925 C924 1.368 . S
C925 C926 1.386 . S
C925 H953 0.929 . S
C926 C925 1.386 . S
C926 C927 1.373 . S
C927 C926 1.373 . S
C927 C928 1.409 . S
C927 H954 0.931 . S
C928 C923 1.356 . S
C928 C927 1.409 . S
C928 H955 0.930 . S
C929 O942 1.270 . S
C929 O943 1.248 1_554 S
C930 O944 1.267 . S
C930 O945 1.278 . S
C931 Pr921 2.880 . S
C931 C932 1.491 . S
C931 O946 1.254 . S
C931 O947 1.225 . S
C932 C931 1.491 . S
C932 C933 1.392 . S
C932 C937 1.356 . S
C933 C932 1.392 . S
C933 C934 1.368 . S
C933 H956 0.929 . S
C934 C933 1.368 . S
C934 C935 1.386 . S
C934 H957 0.929 . S
C935 C934 1.386 . S
C935 C936 1.373 . S
C936 C935 1.373 . S
C936 C937 1.409 . S
C936 H958 0.931 . S
C937 C932 1.356 . S
C937 C936 1.409 . S
C937 H959 0.930 . S
C938 O948 1.270 . S
C938 O949 1.248 1_556 S
C939 O950 1.267 . S
C939 O951 1.278 . S
O940 Pr920 2.562 . S
O940 C922 1.254 . S
O941 Pr920 2.490 . S
O941 C922 1.225 . S
O942 Pr920 2.695 1_554 S
O942 Pr921 2.436 . S
O942 C929 1.270 . S
O943 Pr920 2.512 . S
O943 C929 1.248 1_556 S
O944 Pr921 2.438 1_556 S
O944 C930 1.267 . S
O945 Pr920 2.437 . S
O945 C930 1.278 . S
O946 Pr921 2.562 . S
O946 C931 1.254 . S
O947 Pr921 2.490 . S
O947 C931 1.225 . S
O948 Pr920 2.436 . S
O948 Pr921 2.695 1_556 S
O948 C938 1.270 . S
O949 Pr921 2.512 . S
O949 C938 1.248 1_554 S
O950 Pr920 2.438 1_554 S
O950 C939 1.267 . S
O951 Pr921 2.437 . S
O951 C939 1.278 . S
H952 C924 0.929 . S
H953 C925 0.929 . S
H954 C927 0.931 . S
H955 C928 0.930 . S
H956 C933 0.929 . S
H957 C934 0.929 . S
H958 C936 0.931 . S
H959 C937 0.930 . S
Pr960 C962 2.880 . S
Pr960 O980 2.562 . S
Pr960 O981 2.490 . S
Pr960 O982 2.695 . S
Pr960 O983 2.512 . S
Pr960 O985 2.437 . S
Pr960 O988 2.436 . S
Pr960 O990 2.438 . S
Pr961 C971 2.880 . S
Pr961 O982 2.436 . S
Pr961 O984 2.438 . S
Pr961 O986 2.562 . S
Pr961 O987 2.490 . S
Pr961 O988 2.695 . S
Pr961 O989 2.512 . S
Pr961 O991 2.437 . S
C962 Pr960 2.880 . S
C962 C963 1.491 . S
C962 O980 1.254 . S
C962 O981 1.225 . S
C963 C962 1.491 . S
C963 C964 1.392 . S
C963 C968 1.356 1_556 S
C964 C963 1.392 . S
C964 C965 1.368 1_556 S
C964 H992 0.929 . S
C965 C964 1.368 1_554 S
C965 C966 1.386 . S
C965 H993 0.929 . S
C966 C965 1.386 . S
C966 C967 1.373 . S
C967 C966 1.373 . S
C967 C968 1.409 . S
C967 H994 0.931 . S
C968 C963 1.356 1_554 S
C968 C967 1.409 . S
C968 H995 0.930 1_554 S
C969 O982 1.270 . S
C969 O983 1.248 . S
C970 O984 1.267 . S
C970 O985 1.278 . S
C971 Pr961 2.880 . S
C971 C972 1.491 . S
C971 O986 1.254 . S
C971 O987 1.225 . S
C972 C971 1.491 . S
C972 C973 1.392 . S
C972 C977 1.356 . S
C973 C972 1.392 . S
C973 C974 1.368 . S
C973 H996 0.929 . S
C974 C973 1.368 . S
C974 C975 1.386 . S
C974 H997 0.929 . S
C975 C974 1.386 . S
C975 C976 1.373 . S
C976 C975 1.373 . S
C976 C977 1.409 . S
C976 H998 0.931 . S
C977 C972 1.356 . S
C977 C976 1.409 . S
C977 H999 0.930 . S
C978 O988 1.270 . S
C978 O989 1.248 . S
C979 O990 1.267 . S
C979 O991 1.278 . S
O980 Pr960 2.562 . S
O980 C962 1.254 . S
O981 Pr960 2.490 . S
O981 C962 1.225 . S
O982 Pr960 2.695 . S
O982 Pr961 2.436 . S
O982 C969 1.270 . S
O983 Pr960 2.512 . S
O983 C969 1.248 . S
O984 Pr961 2.438 . S
O984 C970 1.267 . S
O985 Pr960 2.437 . S
O985 C970 1.278 . S
O986 Pr961 2.562 . S
O986 C971 1.254 . S
O987 Pr961 2.490 . S
O987 C971 1.225 . S
O988 Pr960 2.436 . S
O988 Pr961 2.695 . S
O988 C978 1.270 . S
O989 Pr961 2.512 . S
O989 C978 1.248 . S
O990 Pr960 2.438 . S
O990 C979 1.267 . S
O991 Pr961 2.437 . S
O991 C979 1.278 . S
H992 C964 0.929 . S
H993 C965 0.929 . S
H994 C967 0.931 . S
H995 C968 0.930 1_556 S
H996 C973 0.929 . S
H997 C974 0.929 . S
H998 C976 0.931 . S
H999 C977 0.930 . S
Pr1000 C1002 2.880 . S
Pr1000 O1020 2.562 . S
Pr1000 O1021 2.490 . S
Pr1000 O1022 2.695 . S
Pr1000 O1023 2.512 . S
Pr1000 O1025 2.437 . S
Pr1000 O1028 2.436 . S
Pr1000 O1030 2.438 . S
Pr1001 C1011 2.880 . S
Pr1001 O1022 2.436 . S
Pr1001 O1024 2.438 . S
Pr1001 O1026 2.562 . S
Pr1001 O1027 2.490 . S
Pr1001 O1028 2.695 . S
Pr1001 O1029 2.512 . S
Pr1001 O1031 2.437 . S
C1002 Pr1000 2.880 . S
C1002 C1003 1.491 . S
C1002 O1020 1.254 . S
C1002 O1021 1.225 . S
C1003 C1002 1.491 . S
C1003 C1004 1.392 . S
C1003 C1008 1.356 1_556 S
C1004 C1003 1.392 . S
C1004 C1005 1.368 1_556 S
C1004 H1032 0.929 . S
C1005 C1004 1.368 1_554 S
C1005 C1006 1.386 . S
C1005 H1033 0.929 . S
C1006 C1005 1.386 . S
C1006 C1007 1.373 . S
C1007 C1006 1.373 . S
C1007 C1008 1.409 . S
C1007 H1034 0.931 . S
C1008 C1003 1.356 1_554 S
C1008 C1007 1.409 . S
C1008 H1035 0.930 1_554 S
C1009 O1022 1.270 . S
C1009 O1023 1.248 . S
C1010 O1024 1.267 . S
C1010 O1025 1.278 . S
C1011 Pr1001 2.880 . S
C1011 C1012 1.491 . S
C1011 O1026 1.254 . S
C1011 O1027 1.225 . S
C1012 C1011 1.491 . S
C1012 C1013 1.392 . S
C1012 C1017 1.356 . S
C1013 C1012 1.392 . S
C1013 C1014 1.368 . S
C1013 H1036 0.929 . S
C1014 C1013 1.368 . S
C1014 C1015 1.386 . S
C1014 H1037 0.929 . S
C1015 C1014 1.386 . S
C1015 C1016 1.373 . S
C1016 C1015 1.373 . S
C1016 C1017 1.409 . S
C1016 H1038 0.931 . S
C1017 C1012 1.356 . S
C1017 C1016 1.409 . S
C1017 H1039 0.930 . S
C1018 O1028 1.270 . S
C1018 O1029 1.248 . S
C1019 O1030 1.267 . S
C1019 O1031 1.278 . S
O1020 Pr1000 2.562 . S
O1020 C1002 1.254 . S
O1021 Pr1000 2.490 . S
O1021 C1002 1.225 . S
O1022 Pr1000 2.695 . S
O1022 Pr1001 2.436 . S
O1022 C1009 1.270 . S
O1023 Pr1000 2.512 . S
O1023 C1009 1.248 . S
O1024 Pr1001 2.438 . S
O1024 C1010 1.267 . S
O1025 Pr1000 2.437 . S
O1025 C1010 1.278 . S
O1026 Pr1001 2.562 . S
O1026 C1011 1.254 . S
O1027 Pr1001 2.490 . S
O1027 C1011 1.225 . S
O1028 Pr1000 2.436 . S
O1028 Pr1001 2.695 . S
O1028 C1018 1.270 . S
O1029 Pr1001 2.512 . S
O1029 C1018 1.248 . S
O1030 Pr1000 2.438 . S
O1030 C1019 1.267 . S
O1031 Pr1001 2.437 . S
O1031 C1019 1.278 . S
H1032 C1004 0.929 . S
H1033 C1005 0.929 . S
H1034 C1007 0.931 . S
H1035 C1008 0.930 1_556 S
H1036 C1013 0.929 . S
H1037 C1014 0.929 . S
H1038 C1016 0.931 . S
H1039 C1017 0.930 . S
Pr1040 C1042 2.880 . S
Pr1040 O1060 2.562 . S
Pr1040 O1061 2.490 . S
Pr1040 O1062 2.695 . S
Pr1040 O1063 2.512 . S
Pr1040 O1065 2.437 . S
Pr1040 O1068 2.436 . S
Pr1040 O1070 2.438 . S
Pr1041 C1051 2.880 . S
Pr1041 O1062 2.436 . S
Pr1041 O1064 2.438 . S
Pr1041 O1066 2.562 . S
Pr1041 O1067 2.490 . S
Pr1041 O1068 2.695 . S
Pr1041 O1069 2.512 . S
Pr1041 O1071 2.437 . S
C1042 Pr1040 2.880 . S
C1042 C1043 1.491 . S
C1042 O1060 1.254 . S
C1042 O1061 1.225 . S
C1043 C1042 1.491 . S
C1043 C1044 1.392 . S
C1043 C1048 1.356 1_556 S
C1044 C1043 1.392 . S
C1044 C1045 1.368 1_556 S
C1044 H1072 0.929 . S
C1045 C1044 1.368 1_554 S
C1045 C1046 1.386 . S
C1045 H1073 0.929 . S
C1046 C1045 1.386 . S
C1046 C1047 1.373 . S
C1047 C1046 1.373 . S
C1047 C1048 1.409 . S
C1047 H1074 0.931 . S
C1048 C1043 1.356 1_554 S
C1048 C1047 1.409 . S
C1048 H1075 0.930 1_554 S
C1049 O1062 1.270 . S
C1049 O1063 1.248 . S
C1050 O1064 1.267 . S
C1050 O1065 1.278 . S
C1051 Pr1041 2.880 . S
C1051 C1052 1.491 . S
C1051 O1066 1.254 . S
C1051 O1067 1.225 . S
C1052 C1051 1.491 . S
C1052 C1053 1.392 . S
C1052 C1057 1.356 . S
C1053 C1052 1.392 . S
C1053 C1054 1.368 . S
C1053 H1076 0.929 . S
C1054 C1053 1.368 . S
C1054 C1055 1.386 . S
C1054 H1077 0.929 . S
C1055 C1054 1.386 . S
C1055 C1056 1.373 . S
C1056 C1055 1.373 . S
C1056 C1057 1.409 . S
C1056 H1078 0.931 . S
C1057 C1052 1.356 . S
C1057 C1056 1.409 . S
C1057 H1079 0.930 . S
C1058 O1068 1.270 . S
C1058 O1069 1.248 . S
C1059 O1070 1.267 . S
C1059 O1071 1.278 . S
O1060 Pr1040 2.562 . S
O1060 C1042 1.254 . S
O1061 Pr1040 2.490 . S
O1061 C1042 1.225 . S
O1062 Pr1040 2.695 . S
O1062 Pr1041 2.436 . S
O1062 C1049 1.270 . S
O1063 Pr1040 2.512 . S
O1063 C1049 1.248 . S
O1064 Pr1041 2.438 . S
O1064 C1050 1.267 . S
O1065 Pr1040 2.437 . S
O1065 C1050 1.278 . S
O1066 Pr1041 2.562 . S
O1066 C1051 1.254 . S
O1067 Pr1041 2.490 . S
O1067 C1051 1.225 . S
O1068 Pr1040 2.436 . S
O1068 Pr1041 2.695 . S
O1068 C1058 1.270 . S
O1069 Pr1041 2.512 . S
O1069 C1058 1.248 . S
O1070 Pr1040 2.438 . S
O1070 C1059 1.267 . S
O1071 Pr1041 2.437 . S
O1071 C1059 1.278 . S
H1072 C1044 0.929 . S
H1073 C1045 0.929 . S
H1074 C1047 0.931 . S
H1075 C1048 0.930 1_556 S
H1076 C1053 0.929 . S
H1077 C1054 0.929 . S
H1078 C1056 0.931 . S
H1079 C1057 0.930 . S
Pr1080 C1082 2.880 . S
Pr1080 O1100 2.562 . S
Pr1080 O1101 2.490 . S
Pr1080 O1102 2.695 . S
Pr1080 O1103 2.512 . S
Pr1080 O1105 2.437 . S
Pr1080 O1108 2.436 . S
Pr1080 O1110 2.438 . S
Pr1081 C1091 2.880 . S
Pr1081 O1102 2.436 . S
Pr1081 O1104 2.438 . S
Pr1081 O1106 2.562 . S
Pr1081 O1107 2.490 . S
Pr1081 O1108 2.695 . S
Pr1081 O1109 2.512 . S
Pr1081 O1111 2.437 . S
C1082 Pr1080 2.880 . S
C1082 C1083 1.491 . S
C1082 O1100 1.254 . S
C1082 O1101 1.225 . S
C1083 C1082 1.491 . S
C1083 C1084 1.392 . S
C1083 C1088 1.356 . S
C1084 C1083 1.392 . S
C1084 C1085 1.368 . S
C1084 H1112 0.929 . S
C1085 C1084 1.368 . S
C1085 C1086 1.386 . S
C1085 H1113 0.929 . S
C1086 C1085 1.386 . S
C1086 C1087 1.373 . S
C1087 C1086 1.373 . S
C1087 C1088 1.409 . S
C1087 H1114 0.931 . S
C1088 C1083 1.356 . S
C1088 C1087 1.409 . S
C1088 H1115 0.930 . S
C1089 O1102 1.270 . S
C1089 O1103 1.248 . S
C1090 O1104 1.267 . S
C1090 O1105 1.278 . S
C1091 Pr1081 2.880 . S
C1091 C1092 1.491 . S
C1091 O1106 1.254 . S
C1091 O1107 1.225 . S
C1092 C1091 1.491 . S
C1092 C1093 1.392 . S
C1092 C1097 1.356 . S
C1093 C1092 1.392 . S
C1093 C1094 1.368 . S
C1093 H1116 0.929 . S
C1094 C1093 1.368 . S
C1094 C1095 1.386 . S
C1094 H1117 0.929 . S
C1095 C1094 1.386 . S
C1095 C1096 1.373 . S
C1096 C1095 1.373 . S
C1096 C1097 1.409 . S
C1096 H1118 0.931 . S
C1097 C1092 1.356 . S
C1097 C1096 1.409 . S
C1097 H1119 0.930 . S
C1098 O1108 1.270 . S
C1098 O1109 1.248 . S
C1099 O1110 1.267 . S
C1099 O1111 1.278 . S
O1100 Pr1080 2.562 . S
O1100 C1082 1.254 . S
O1101 Pr1080 2.490 . S
O1101 C1082 1.225 . S
O1102 Pr1080 2.695 . S
O1102 Pr1081 2.436 . S
O1102 C1089 1.270 . S
O1103 Pr1080 2.512 . S
O1103 C1089 1.248 . S
O1104 Pr1081 2.438 . S
O1104 C1090 1.267 . S
O1105 Pr1080 2.437 . S
O1105 C1090 1.278 . S
O1106 Pr1081 2.562 . S
O1106 C1091 1.254 . S
O1107 Pr1081 2.490 . S
O1107 C1091 1.225 . S
O1108 Pr1080 2.436 . S
O1108 Pr1081 2.695 . S
O1108 C1098 1.270 . S
O1109 Pr1081 2.512 . S
O1109 C1098 1.248 . S
O1110 Pr1080 2.438 . S
O1110 C1099 1.267 . S
O1111 Pr1081 2.437 . S
O1111 C1099 1.278 . S
H1112 C1084 0.929 . S
H1113 C1085 0.929 . S
H1114 C1087 0.931 . S
H1115 C1088 0.930 . S
H1116 C1093 0.929 . S
H1117 C1094 0.929 . S
H1118 C1096 0.931 . S
H1119 C1097 0.930 . S
Pr1120 C1122 2.880 . S
Pr1120 O1140 2.562 . S
Pr1120 O1141 2.490 . S
Pr1120 O1142 2.695 . S
Pr1120 O1143 2.512 . S
Pr1120 O1145 2.437 . S
Pr1120 O1148 2.436 . S
Pr1120 O1150 2.438 . S
Pr1121 C1131 2.880 . S
Pr1121 O1142 2.436 . S
Pr1121 O1144 2.438 . S
Pr1121 O1146 2.562 . S
Pr1121 O1147 2.490 . S
Pr1121 O1148 2.695 . S
Pr1121 O1149 2.512 . S
Pr1121 O1151 2.437 . S
C1122 Pr1120 2.880 . S
C1122 C1123 1.491 . S
C1122 O1140 1.254 . S
C1122 O1141 1.225 . S
C1123 C1122 1.491 . S
C1123 C1124 1.392 . S
C1123 C1128 1.356 . S
C1124 C1123 1.392 . S
C1124 C1125 1.368 . S
C1124 H1152 0.929 . S
C1125 C1124 1.368 . S
C1125 C1126 1.386 . S
C1125 H1153 0.929 . S
C1126 C1125 1.386 . S
C1126 C1127 1.373 . S
C1127 C1126 1.373 . S
C1127 C1128 1.409 . S
C1127 H1154 0.931 . S
C1128 C1123 1.356 . S
C1128 C1127 1.409 . S
C1128 H1155 0.930 . S
C1129 O1142 1.270 . S
C1129 O1143 1.248 . S
C1130 O1144 1.267 . S
C1130 O1145 1.278 . S
C1131 Pr1121 2.880 . S
C1131 C1132 1.491 . S
C1131 O1146 1.254 . S
C1131 O1147 1.225 . S
C1132 C1131 1.491 . S
C1132 C1133 1.392 . S
C1132 C1137 1.356 . S
C1133 C1132 1.392 . S
C1133 C1134 1.368 . S
C1133 H1156 0.929 . S
C1134 C1133 1.368 . S
C1134 C1135 1.386 . S
C1134 H1157 0.929 . S
C1135 C1134 1.386 . S
C1135 C1136 1.373 . S
C1136 C1135 1.373 . S
C1136 C1137 1.409 . S
C1136 H1158 0.931 . S
C1137 C1132 1.356 . S
C1137 C1136 1.409 . S
C1137 H1159 0.930 . S
C1138 O1148 1.270 . S
C1138 O1149 1.248 . S
C1139 O1150 1.267 . S
C1139 O1151 1.278 . S
O1140 Pr1120 2.562 . S
O1140 C1122 1.254 . S
O1141 Pr1120 2.490 . S
O1141 C1122 1.225 . S
O1142 Pr1120 2.695 . S
O1142 Pr1121 2.436 . S
O1142 C1129 1.270 . S
O1143 Pr1120 2.512 . S
O1143 C1129 1.248 . S
O1144 Pr1121 2.438 . S
O1144 C1130 1.267 . S
O1145 Pr1120 2.437 . S
O1145 C1130 1.278 . S
O1146 Pr1121 2.562 . S
O1146 C1131 1.254 . S
O1147 Pr1121 2.490 . S
O1147 C1131 1.225 . S
O1148 Pr1120 2.436 . S
O1148 Pr1121 2.695 . S
O1148 C1138 1.270 . S
O1149 Pr1121 2.512 . S
O1149 C1138 1.248 . S
O1150 Pr1120 2.438 . S
O1150 C1139 1.267 . S
O1151 Pr1121 2.437 . S
O1151 C1139 1.278 . S
H1152 C1124 0.929 . S
H1153 C1125 0.929 . S
H1154 C1127 0.931 . S
H1155 C1128 0.930 . S
H1156 C1133 0.929 . S
H1157 C1134 0.929 . S
H1158 C1136 0.931 . S
H1159 C1137 0.930 . S
Pr1160 C1162 2.880 . S
Pr1160 O1180 2.562 . S
Pr1160 O1181 2.490 . S
Pr1160 O1182 2.695 . S
Pr1160 O1183 2.512 . S
Pr1160 O1185 2.437 . S
Pr1160 O1188 2.436 . S
Pr1160 O1190 2.438 . S
Pr1161 C1171 2.880 . S
Pr1161 O1182 2.436 . S
Pr1161 O1184 2.438 . S
Pr1161 O1186 2.562 . S
Pr1161 O1187 2.490 . S
Pr1161 O1188 2.695 . S
Pr1161 O1189 2.512 . S
Pr1161 O1191 2.437 . S
C1162 Pr1160 2.880 . S
C1162 C1163 1.491 . S
C1162 O1180 1.254 . S
C1162 O1181 1.225 . S
C1163 C1162 1.491 . S
C1163 C1164 1.392 . S
C1163 C1168 1.356 . S
C1164 C1163 1.392 . S
C1164 C1165 1.368 . S
C1164 H1192 0.929 . S
C1165 C1164 1.368 . S
C1165 C1166 1.386 . S
C1165 H1193 0.929 . S
C1166 C1165 1.386 . S
C1166 C1167 1.373 . S
C1167 C1166 1.373 . S
C1167 C1168 1.409 . S
C1167 H1194 0.931 . S
C1168 C1163 1.356 . S
C1168 C1167 1.409 . S
C1168 H1195 0.930 . S
C1169 O1182 1.270 . S
C1169 O1183 1.248 . S
C1170 O1184 1.267 . S
C1170 O1185 1.278 . S
C1171 Pr1161 2.880 . S
C1171 C1172 1.491 . S
C1171 O1186 1.254 . S
C1171 O1187 1.225 . S
C1172 C1171 1.491 . S
C1172 C1173 1.392 . S
C1172 C1177 1.356 . S
C1173 C1172 1.392 . S
C1173 C1174 1.368 . S
C1173 H1196 0.929 . S
C1174 C1173 1.368 . S
C1174 C1175 1.386 . S
C1174 H1197 0.929 . S
C1175 C1174 1.386 . S
C1175 C1176 1.373 . S
C1176 C1175 1.373 . S
C1176 C1177 1.409 . S
C1176 H1198 0.931 . S
C1177 C1172 1.356 . S
C1177 C1176 1.409 . S
C1177 H1199 0.930 . S
C1178 O1188 1.270 . S
C1178 O1189 1.248 . S
C1179 O1190 1.267 . S
C1179 O1191 1.278 . S
O1180 Pr1160 2.562 . S
O1180 C1162 1.254 . S
O1181 Pr1160 2.490 . S
O1181 C1162 1.225 . S
O1182 Pr1160 2.695 . S
O1182 Pr1161 2.436 . S
O1182 C1169 1.270 . S
O1183 Pr1160 2.512 . S
O1183 C1169 1.248 . S
O1184 Pr1161 2.438 . S
O1184 C1170 1.267 . S
O1185 Pr1160 2.437 . S
O1185 C1170 1.278 . S
O1186 Pr1161 2.562 . S
O1186 C1171 1.254 . S
O1187 Pr1161 2.490 . S
O1187 C1171 1.225 . S
O1188 Pr1160 2.436 . S
O1188 Pr1161 2.695 . S
O1188 C1178 1.270 . S
O1189 Pr1161 2.512 . S
O1189 C1178 1.248 . S
O1190 Pr1160 2.438 . S
O1190 C1179 1.267 . S
O1191 Pr1161 2.437 . S
O1191 C1179 1.278 . S
H1192 C1164 0.929 . S
H1193 C1165 0.929 . S
H1194 C1167 0.931 . S
H1195 C1168 0.930 . S
H1196 C1173 0.929 . S
H1197 C1174 0.929 . S
H1198 C1176 0.931 . S
H1199 C1177 0.930 . S
Pr1200 C1202 2.880 . S
Pr1200 O1220 2.562 . S
Pr1200 O1221 2.490 . S
Pr1200 O1222 2.695 . S
Pr1200 O1223 2.512 . S
Pr1200 O1225 2.437 . S
Pr1200 O1228 2.436 . S
Pr1200 O1230 2.438 . S
Pr1201 C1211 2.880 . S
Pr1201 O1222 2.436 . S
Pr1201 O1224 2.438 . S
Pr1201 O1226 2.562 . S
Pr1201 O1227 2.490 . S
Pr1201 O1228 2.695 . S
Pr1201 O1229 2.512 . S
Pr1201 O1231 2.437 . S
C1202 Pr1200 2.880 . S
C1202 C1203 1.491 . S
C1202 O1220 1.254 . S
C1202 O1221 1.225 . S
C1203 C1202 1.491 . S
C1203 C1204 1.392 . S
C1203 C1208 1.356 . S
C1204 C1203 1.392 . S
C1204 C1205 1.368 . S
C1204 H1232 0.929 . S
C1205 C1204 1.368 . S
C1205 C1206 1.386 . S
C1205 H1233 0.929 . S
C1206 C1205 1.386 . S
C1206 C1207 1.373 . S
C1207 C1206 1.373 . S
C1207 C1208 1.409 . S
C1207 H1234 0.931 . S
C1208 C1203 1.356 . S
C1208 C1207 1.409 . S
C1208 H1235 0.930 . S
C1209 O1222 1.270 . S
C1209 O1223 1.248 . S
C1210 O1224 1.267 . S
C1210 O1225 1.278 . S
C1211 Pr1201 2.880 . S
C1211 C1212 1.491 . S
C1211 O1226 1.254 . S
C1211 O1227 1.225 . S
C1212 C1211 1.491 . S
C1212 C1213 1.392 . S
C1212 C1217 1.356 . S
C1213 C1212 1.392 . S
C1213 C1214 1.368 . S
C1213 H1236 0.929 . S
C1214 C1213 1.368 . S
C1214 C1215 1.386 . S
C1214 H1237 0.929 . S
C1215 C1214 1.386 . S
C1215 C1216 1.373 . S
C1216 C1215 1.373 . S
C1216 C1217 1.409 . S
C1216 H1238 0.931 . S
C1217 C1212 1.356 . S
C1217 C1216 1.409 . S
C1217 H1239 0.930 . S
C1218 O1228 1.270 . S
C1218 O1229 1.248 . S
C1219 O1230 1.267 . S
C1219 O1231 1.278 . S
O1220 Pr1200 2.562 . S
O1220 C1202 1.254 . S
O1221 Pr1200 2.490 . S
O1221 C1202 1.225 . S
O1222 Pr1200 2.695 . S
O1222 Pr1201 2.436 . S
O1222 C1209 1.270 . S
O1223 Pr1200 2.512 . S
O1223 C1209 1.248 . S
O1224 Pr1201 2.438 . S
O1224 C1210 1.267 . S
O1225 Pr1200 2.437 . S
O1225 C1210 1.278 . S
O1226 Pr1201 2.562 . S
O1226 C1211 1.254 . S
O1227 Pr1201 2.490 . S
O1227 C1211 1.225 . S
O1228 Pr1200 2.436 . S
O1228 Pr1201 2.695 . S
O1228 C1218 1.270 . S
O1229 Pr1201 2.512 . S
O1229 C1218 1.248 . S
O1230 Pr1200 2.438 . S
O1230 C1219 1.267 . S
O1231 Pr1201 2.437 . S
O1231 C1219 1.278 . S
H1232 C1204 0.929 . S
H1233 C1205 0.929 . S
H1234 C1207 0.931 . S
H1235 C1208 0.930 . S
H1236 C1213 0.929 . S
H1237 C1214 0.929 . S
H1238 C1216 0.931 . S
H1239 C1217 0.930 . S
Pr1240 C1242 2.880 . S
Pr1240 O1260 2.562 . S
Pr1240 O1261 2.490 . S
Pr1240 O1262 2.695 . S
Pr1240 O1263 2.512 . S
Pr1240 O1265 2.437 . S
Pr1240 O1268 2.436 . S
Pr1240 O1270 2.438 . S
Pr1241 C1251 2.880 . S
Pr1241 O1262 2.436 . S
Pr1241 O1264 2.438 . S
Pr1241 O1266 2.562 . S
Pr1241 O1267 2.490 . S
Pr1241 O1268 2.695 . S
Pr1241 O1269 2.512 . S
Pr1241 O1271 2.437 . S
C1242 Pr1240 2.880 . S
C1242 C1243 1.491 . S
C1242 O1260 1.254 . S
C1242 O1261 1.225 . S
C1243 C1242 1.491 . S
C1243 C1244 1.392 . S
C1243 C1248 1.356 . S
C1244 C1243 1.392 . S
C1244 C1245 1.368 . S
C1244 H1272 0.929 . S
C1245 C1244 1.368 . S
C1245 C1246 1.386 . S
C1245 H1273 0.929 . S
C1246 C1245 1.386 . S
C1246 C1247 1.373 . S
C1247 C1246 1.373 . S
C1247 C1248 1.409 . S
C1247 H1274 0.931 . S
C1248 C1243 1.356 . S
C1248 C1247 1.409 . S
C1248 H1275 0.930 . S
C1249 O1262 1.270 . S
C1249 O1263 1.248 . S
C1250 O1264 1.267 . S
C1250 O1265 1.278 . S
C1251 Pr1241 2.880 . S
C1251 C1252 1.491 . S
C1251 O1266 1.254 . S
C1251 O1267 1.225 . S
C1252 C1251 1.491 . S
C1252 C1253 1.392 . S
C1252 C1257 1.356 . S
C1253 C1252 1.392 . S
C1253 C1254 1.368 . S
C1253 H1276 0.929 . S
C1254 C1253 1.368 . S
C1254 C1255 1.386 . S
C1254 H1277 0.929 . S
C1255 C1254 1.386 . S
C1255 C1256 1.373 . S
C1256 C1255 1.373 . S
C1256 C1257 1.409 . S
C1256 H1278 0.931 . S
C1257 C1252 1.356 . S
C1257 C1256 1.409 . S
C1257 H1279 0.930 . S
C1258 O1268 1.270 . S
C1258 O1269 1.248 . S
C1259 O1270 1.267 . S
C1259 O1271 1.278 . S
O1260 Pr1240 2.562 . S
O1260 C1242 1.254 . S
O1261 Pr1240 2.490 . S
O1261 C1242 1.225 . S
O1262 Pr1240 2.695 . S
O1262 Pr1241 2.436 . S
O1262 C1249 1.270 . S
O1263 Pr1240 2.512 . S
O1263 C1249 1.248 . S
O1264 Pr1241 2.438 . S
O1264 C1250 1.267 . S
O1265 Pr1240 2.437 . S
O1265 C1250 1.278 . S
O1266 Pr1241 2.562 . S
O1266 C1251 1.254 . S
O1267 Pr1241 2.490 . S
O1267 C1251 1.225 . S
O1268 Pr1240 2.436 . S
O1268 Pr1241 2.695 . S
O1268 C1258 1.270 . S
O1269 Pr1241 2.512 . S
O1269 C1258 1.248 . S
O1270 Pr1240 2.438 . S
O1270 C1259 1.267 . S
O1271 Pr1241 2.437 . S
O1271 C1259 1.278 . S
H1272 C1244 0.929 . S
H1273 C1245 0.929 . S
H1274 C1247 0.931 . S
H1275 C1248 0.930 . S
H1276 C1253 0.929 . S
H1277 C1254 0.929 . S
H1278 C1256 0.931 . S
H1279 C1257 0.930 . S
Pr1280 C1282 2.880 . S
Pr1280 O1300 2.562 . S
Pr1280 O1301 2.490 . S
Pr1280 O1302 2.695 . S
Pr1280 O1303 2.512 . S
Pr1280 O1305 2.437 . S
Pr1280 O1308 2.436 . S
Pr1280 O1310 2.438 . S
Pr1281 C1291 2.880 . S
Pr1281 O1302 2.436 . S
Pr1281 O1304 2.438 . S
Pr1281 O1306 2.562 . S
Pr1281 O1307 2.490 . S
Pr1281 O1308 2.695 . S
Pr1281 O1309 2.512 . S
Pr1281 O1311 2.437 . S
C1282 Pr1280 2.880 . S
C1282 C1283 1.491 . S
C1282 O1300 1.254 . S
C1282 O1301 1.225 . S
C1283 C1282 1.491 . S
C1283 C1284 1.392 . S
C1283 C1288 1.356 . S
C1284 C1283 1.392 . S
C1284 C1285 1.368 . S
C1284 H1312 0.929 . S
C1285 C1284 1.368 . S
C1285 C1286 1.386 . S
C1285 H1313 0.929 . S
C1286 C1285 1.386 . S
C1286 C1287 1.373 . S
C1287 C1286 1.373 . S
C1287 C1288 1.409 . S
C1287 H1314 0.931 . S
C1288 C1283 1.356 . S
C1288 C1287 1.409 . S
C1288 H1315 0.930 . S
C1289 O1302 1.270 . S
C1289 O1303 1.248 . S
C1290 O1304 1.267 . S
C1290 O1305 1.278 . S
C1291 Pr1281 2.880 . S
C1291 C1292 1.491 . S
C1291 O1306 1.254 . S
C1291 O1307 1.225 . S
C1292 C1291 1.491 . S
C1292 C1293 1.392 . S
C1292 C1297 1.356 . S
C1293 C1292 1.392 . S
C1293 C1294 1.368 . S
C1293 H1316 0.929 . S
C1294 C1293 1.368 . S
C1294 C1295 1.386 . S
C1294 H1317 0.929 . S
C1295 C1294 1.386 . S
C1295 C1296 1.373 . S
C1296 C1295 1.373 . S
C1296 C1297 1.409 . S
C1296 H1318 0.931 . S
C1297 C1292 1.356 . S
C1297 C1296 1.409 . S
C1297 H1319 0.930 . S
C1298 O1308 1.270 . S
C1298 O1309 1.248 . S
C1299 O1310 1.267 . S
C1299 O1311 1.278 . S
O1300 Pr1280 2.562 . S
O1300 C1282 1.254 . S
O1301 Pr1280 2.490 . S
O1301 C1282 1.225 . S
O1302 Pr1280 2.695 . S
O1302 Pr1281 2.436 . S
O1302 C1289 1.270 . S
O1303 Pr1280 2.512 . S
O1303 C1289 1.248 . S
O1304 Pr1281 2.438 . S
O1304 C1290 1.267 . S
O1305 Pr1280 2.437 . S
O1305 C1290 1.278 . S
O1306 Pr1281 2.562 . S
O1306 C1291 1.254 . S
O1307 Pr1281 2.490 . S
O1307 C1291 1.225 . S
O1308 Pr1280 2.436 . S
O1308 Pr1281 2.695 . S
O1308 C1298 1.270 . S
O1309 Pr1281 2.512 . S
O1309 C1298 1.248 . S
O1310 Pr1280 2.438 . S
O1310 C1299 1.267 . S
O1311 Pr1281 2.437 . S
O1311 C1299 1.278 . S
H1312 C1284 0.929 . S
H1313 C1285 0.929 . S
H1314 C1287 0.931 . S
H1315 C1288 0.930 . S
H1316 C1293 0.929 . S
H1317 C1294 0.929 . S
H1318 C1296 0.931 . S
H1319 C1297 0.930 . S
Pr1320 C1322 2.880 . S
Pr1320 O1340 2.562 . S
Pr1320 O1341 2.490 . S
Pr1320 O1342 2.695 . S
Pr1320 O1343 2.512 . S
Pr1320 O1345 2.437 . S
Pr1320 O1348 2.436 . S
Pr1320 O1350 2.438 . S
Pr1321 C1331 2.880 . S
Pr1321 O1342 2.436 . S
Pr1321 O1344 2.438 . S
Pr1321 O1346 2.562 . S
Pr1321 O1347 2.490 . S
Pr1321 O1348 2.695 . S
Pr1321 O1349 2.512 . S
Pr1321 O1351 2.437 . S
C1322 Pr1320 2.880 . S
C1322 C1323 1.491 . S
C1322 O1340 1.254 . S
C1322 O1341 1.225 . S
C1323 C1322 1.491 . S
C1323 C1324 1.392 . S
C1323 C1328 1.356 . S
C1324 C1323 1.392 . S
C1324 C1325 1.368 . S
C1324 H1352 0.929 . S
C1325 C1324 1.368 . S
C1325 C1326 1.386 . S
C1325 H1353 0.929 . S
C1326 C1325 1.386 . S
C1326 C1327 1.373 . S
C1327 C1326 1.373 . S
C1327 C1328 1.409 . S
C1327 H1354 0.931 . S
C1328 C1323 1.356 . S
C1328 C1327 1.409 . S
C1328 H1355 0.930 . S
C1329 O1342 1.270 . S
C1329 O1343 1.248 . S
C1330 O1344 1.267 . S
C1330 O1345 1.278 . S
C1331 Pr1321 2.880 . S
C1331 C1332 1.491 . S
C1331 O1346 1.254 . S
C1331 O1347 1.225 . S
C1332 C1331 1.491 . S
C1332 C1333 1.392 . S
C1332 C1337 1.356 . S
C1333 C1332 1.392 . S
C1333 C1334 1.368 . S
C1333 H1356 0.929 . S
C1334 C1333 1.368 . S
C1334 C1335 1.386 . S
C1334 H1357 0.929 . S
C1335 C1334 1.386 . S
C1335 C1336 1.373 . S
C1336 C1335 1.373 . S
C1336 C1337 1.409 . S
C1336 H1358 0.931 . S
C1337 C1332 1.356 . S
C1337 C1336 1.409 . S
C1337 H1359 0.930 . S
C1338 O1348 1.270 . S
C1338 O1349 1.248 . S
C1339 O1350 1.267 . S
C1339 O1351 1.278 . S
O1340 Pr1320 2.562 . S
O1340 C1322 1.254 . S
O1341 Pr1320 2.490 . S
O1341 C1322 1.225 . S
O1342 Pr1320 2.695 . S
O1342 Pr1321 2.436 . S
O1342 C1329 1.270 . S
O1343 Pr1320 2.512 . S
O1343 C1329 1.248 . S
O1344 Pr1321 2.438 . S
O1344 C1330 1.267 . S
O1345 Pr1320 2.437 . S
O1345 C1330 1.278 . S
O1346 Pr1321 2.562 . S
O1346 C1331 1.254 . S
O1347 Pr1321 2.490 . S
O1347 C1331 1.225 . S
O1348 Pr1320 2.436 . S
O1348 Pr1321 2.695 . S
O1348 C1338 1.270 . S
O1349 Pr1321 2.512 . S
O1349 C1338 1.248 . S
O1350 Pr1320 2.438 . S
O1350 C1339 1.267 . S
O1351 Pr1321 2.437 . S
O1351 C1339 1.278 . S
H1352 C1324 0.929 . S
H1353 C1325 0.929 . S
H1354 C1327 0.931 . S
H1355 C1328 0.930 . S
H1356 C1333 0.929 . S
H1357 C1334 0.929 . S
H1358 C1336 0.931 . S
H1359 C1337 0.930 . S
Pr1360 C1362 2.880 . S
Pr1360 O1380 2.562 . S
Pr1360 O1381 2.490 . S
Pr1360 O1382 2.695 . S
Pr1360 O1383 2.512 . S
Pr1360 O1385 2.437 . S
Pr1360 O1388 2.436 . S
Pr1360 O1390 2.438 . S
Pr1361 C1371 2.880 . S
Pr1361 O1382 2.436 . S
Pr1361 O1384 2.438 . S
Pr1361 O1386 2.562 . S
Pr1361 O1387 2.490 . S
Pr1361 O1388 2.695 . S
Pr1361 O1389 2.512 . S
Pr1361 O1391 2.437 . S
C1362 Pr1360 2.880 . S
C1362 C1363 1.491 . S
C1362 O1380 1.254 . S
C1362 O1381 1.225 . S
C1363 C1362 1.491 . S
C1363 C1364 1.392 . S
C1363 C1368 1.356 . S
C1364 C1363 1.392 . S
C1364 C1365 1.368 . S
C1364 H1392 0.929 . S
C1365 C1364 1.368 . S
C1365 C1366 1.386 . S
C1365 H1393 0.929 . S
C1366 C1365 1.386 . S
C1366 C1367 1.373 . S
C1367 C1366 1.373 . S
C1367 C1368 1.409 . S
C1367 H1394 0.931 . S
C1368 C1363 1.356 . S
C1368 C1367 1.409 . S
C1368 H1395 0.930 . S
C1369 O1382 1.270 . S
C1369 O1383 1.248 . S
C1370 O1384 1.267 . S
C1370 O1385 1.278 . S
C1371 Pr1361 2.880 . S
C1371 C1372 1.491 . S
C1371 O1386 1.254 . S
C1371 O1387 1.225 . S
C1372 C1371 1.491 . S
C1372 C1373 1.392 . S
C1372 C1377 1.356 . S
C1373 C1372 1.392 . S
C1373 C1374 1.368 . S
C1373 H1396 0.929 . S
C1374 C1373 1.368 . S
C1374 C1375 1.386 . S
C1374 H1397 0.929 . S
C1375 C1374 1.386 . S
C1375 C1376 1.373 . S
C1376 C1375 1.373 . S
C1376 C1377 1.409 . S
C1376 H1398 0.931 . S
C1377 C1372 1.356 . S
C1377 C1376 1.409 . S
C1377 H1399 0.930 . S
C1378 O1388 1.270 . S
C1378 O1389 1.248 . S
C1379 O1390 1.267 . S
C1379 O1391 1.278 . S
O1380 Pr1360 2.562 . S
O1380 C1362 1.254 . S
O1381 Pr1360 2.490 . S
O1381 C1362 1.225 . S
O1382 Pr1360 2.695 . S
O1382 Pr1361 2.436 . S
O1382 C1369 1.270 . S
O1383 Pr1360 2.512 . S
O1383 C1369 1.248 . S
O1384 Pr1361 2.438 . S
O1384 C1370 1.267 . S
O1385 Pr1360 2.437 . S
O1385 C1370 1.278 . S
O1386 Pr1361 2.562 . S
O1386 C1371 1.254 . S
O1387 Pr1361 2.490 . S
O1387 C1371 1.225 . S
O1388 Pr1360 2.436 . S
O1388 Pr1361 2.695 . S
O1388 C1378 1.270 . S
O1389 Pr1361 2.512 . S
O1389 C1378 1.248 . S
O1390 Pr1360 2.438 . S
O1390 C1379 1.267 . S
O1391 Pr1361 2.437 . S
O1391 C1379 1.278 . S
H1392 C1364 0.929 . S
H1393 C1365 0.929 . S
H1394 C1367 0.931 . S
H1395 C1368 0.930 . S
H1396 C1373 0.929 . S
H1397 C1374 0.929 . S
H1398 C1376 0.931 . S
H1399 C1377 0.930 . S
Pr1400 C1402 2.880 . S
Pr1400 O1420 2.562 . S
Pr1400 O1421 2.490 . S
Pr1400 O1422 2.695 . S
Pr1400 O1423 2.512 . S
Pr1400 O1425 2.437 . S
Pr1400 O1428 2.436 . S
Pr1400 O1430 2.438 . S
Pr1401 C1411 2.880 . S
Pr1401 O1422 2.436 . S
Pr1401 O1424 2.438 . S
Pr1401 O1426 2.562 . S
Pr1401 O1427 2.490 . S
Pr1401 O1428 2.695 . S
Pr1401 O1429 2.512 . S
Pr1401 O1431 2.437 . S
C1402 Pr1400 2.880 . S
C1402 C1403 1.491 . S
C1402 O1420 1.254 . S
C1402 O1421 1.225 . S
C1403 C1402 1.491 . S
C1403 C1404 1.392 . S
C1403 C1408 1.356 . S
C1404 C1403 1.392 . S
C1404 C1405 1.368 . S
C1404 H1432 0.929 . S
C1405 C1404 1.368 . S
C1405 C1406 1.386 . S
C1405 H1433 0.929 . S
C1406 C1405 1.386 . S
C1406 C1407 1.373 . S
C1407 C1406 1.373 . S
C1407 C1408 1.409 . S
C1407 H1434 0.931 . S
C1408 C1403 1.356 . S
C1408 C1407 1.409 . S
C1408 H1435 0.930 . S
C1409 O1422 1.270 . S
C1409 O1423 1.248 . S
C1410 O1424 1.267 . S
C1410 O1425 1.278 . S
C1411 Pr1401 2.880 . S
C1411 C1412 1.491 . S
C1411 O1426 1.254 . S
C1411 O1427 1.225 . S
C1412 C1411 1.491 . S
C1412 C1413 1.392 . S
C1412 C1417 1.356 . S
C1413 C1412 1.392 . S
C1413 C1414 1.368 . S
C1413 H1436 0.929 . S
C1414 C1413 1.368 . S
C1414 C1415 1.386 . S
C1414 H1437 0.929 . S
C1415 C1414 1.386 . S
C1415 C1416 1.373 . S
C1416 C1415 1.373 . S
C1416 C1417 1.409 . S
C1416 H1438 0.931 . S
C1417 C1412 1.356 . S
C1417 C1416 1.409 . S
C1417 H1439 0.930 . S
C1418 O1428 1.270 . S
C1418 O1429 1.248 . S
C1419 O1430 1.267 . S
C1419 O1431 1.278 . S
O1420 Pr1400 2.562 . S
O1420 C1402 1.254 . S
O1421 Pr1400 2.490 . S
O1421 C1402 1.225 . S
O1422 Pr1400 2.695 . S
O1422 Pr1401 2.436 . S
O1422 C1409 1.270 . S
O1423 Pr1400 2.512 . S
O1423 C1409 1.248 . S
O1424 Pr1401 2.438 . S
O1424 C1410 1.267 . S
O1425 Pr1400 2.437 . S
O1425 C1410 1.278 . S
O1426 Pr1401 2.562 . S
O1426 C1411 1.254 . S
O1427 Pr1401 2.490 . S
O1427 C1411 1.225 . S
O1428 Pr1400 2.436 . S
O1428 Pr1401 2.695 . S
O1428 C1418 1.270 . S
O1429 Pr1401 2.512 . S
O1429 C1418 1.248 . S
O1430 Pr1400 2.438 . S
O1430 C1419 1.267 . S
O1431 Pr1401 2.437 . S
O1431 C1419 1.278 . S
H1432 C1404 0.929 . S
H1433 C1405 0.929 . S
H1434 C1407 0.931 . S
H1435 C1408 0.930 . S
H1436 C1413 0.929 . S
H1437 C1414 0.929 . S
H1438 C1416 0.931 . S
H1439 C1417 0.930 . S
H1440 C1446 0.930 . S
H1441 C1449 0.930 . S
H1442 C1450 0.930 . S
H1443 C1451 0.930 . S
H1444 C1454 0.930 . S
H1445 C1455 0.930 . S
C1446 H1440 0.930 . S
C1446 C1447 1.355 1_554 S
C1446 C1448 1.415 . S
C1447 C1446 1.355 1_556 S
C1447 C1449 1.419 . S
C1448 C1446 1.415 . S
C1448 C1453 1.425 . S
C1448 C1455 1.409 . S
C1449 H1441 0.930 . S
C1449 C1447 1.419 . S
C1449 C1450 1.362 1_556 S
C1450 H1442 0.930 . S
C1450 C1449 1.362 1_554 S
C1450 C1453 1.409 . S
C1451 H1443 0.930 . S
C1451 C1452 1.355 . S
C1451 C1453 1.415 . S
C1452 C1451 1.355 . S
C1452 C1454 1.419 . S
C1453 C1448 1.425 . S
C1453 C1450 1.409 . S
C1453 C1451 1.415 . S
C1454 H1444 0.930 . S
C1454 C1452 1.419 . S
C1454 C1455 1.362 . S
C1455 H1445 0.930 . S
C1455 C1448 1.409 . S
C1455 C1454 1.362 . S
H1456 C1462 0.930 . S
H1457 C1465 0.930 . S
H1458 C1466 0.930 . S
H1459 C1467 0.930 . S
H1460 C1470 0.930 . S
H1461 C1471 0.930 . S
C1462 H1456 0.930 . S
C1462 C1463 1.355 . S
C1462 C1464 1.415 1_556 S
C1463 C1462 1.355 . S
C1463 C1465 1.419 . S
C1464 C1462 1.415 1_554 S
C1464 C1469 1.425 . S
C1464 C1471 1.409 . S
C1465 H1457 0.930 . S
C1465 C1463 1.419 . S
C1465 C1466 1.362 1_556 S
C1466 H1458 0.930 . S
C1466 C1465 1.362 1_554 S
C1466 C1469 1.409 . S
C1467 H1459 0.930 . S
C1467 C1468 1.355 . S
C1467 C1469 1.415 . S
C1468 C1467 1.355 . S
C1468 C1470 1.419 . S
C1469 C1464 1.425 . S
C1469 C1466 1.409 . S
C1469 C1467 1.415 . S
C1470 H1460 0.930 . S
C1470 C1468 1.419 . S
C1470 C1471 1.362 . S
C1471 H1461 0.930 . S
C1471 C1464 1.409 . S
C1471 C1470 1.362 . S
H1472 C1478 0.930 . S
H1473 C1481 0.930 . S
H1474 C1482 0.930 . S
H1475 C1483 0.930 . S
H1476 C1486 0.930 . S
H1477 C1487 0.930 . S
C1478 H1472 0.930 . S
C1478 C1479 1.355 . S
C1478 C1480 1.415 . S
C1479 C1478 1.355 . S
C1479 C1481 1.419 . S
C1480 C1478 1.415 . S
C1480 C1485 1.425 . S
C1480 C1487 1.409 . S
C1481 H1473 0.930 . S
C1481 C1479 1.419 . S
C1481 C1482 1.362 . S
C1482 H1474 0.930 . S
C1482 C1481 1.362 . S
C1482 C1485 1.409 . S
C1483 H1475 0.930 . S
C1483 C1484 1.355 1_554 S
C1483 C1485 1.415 . S
C1484 C1483 1.355 1_556 S
C1484 C1486 1.419 . S
C1485 C1480 1.425 . S
C1485 C1482 1.409 . S
C1485 C1483 1.415 . S
C1486 H1476 0.930 . S
C1486 C1484 1.419 . S
C1486 C1487 1.362 1_556 S
C1487 H1477 0.930 . S
C1487 C1480 1.409 . S
C1487 C1486 1.362 1_554 S
H1488 C1494 0.930 . S
H1489 C1497 0.930 . S
H1490 C1498 0.930 . S
H1491 C1499 0.930 . S
H1492 C1502 0.930 . S
H1493 C1503 0.930 . S
C1494 H1488 0.930 . S
C1494 C1495 1.355 . S
C1494 C1496 1.415 . S
C1495 C1494 1.355 . S
C1495 C1497 1.419 . S
C1496 C1494 1.415 . S
C1496 C1501 1.425 . S
C1496 C1503 1.409 . S
C1497 H1489 0.930 . S
C1497 C1495 1.419 . S
C1497 C1498 1.362 . S
C1498 H1490 0.930 . S
C1498 C1497 1.362 . S
C1498 C1501 1.409 . S
C1499 H1491 0.930 . S
C1499 C1500 1.355 . S
C1499 C1501 1.415 . S
C1500 C1499 1.355 . S
C1500 C1502 1.419 . S
C1501 C1496 1.425 . S
C1501 C1498 1.409 . S
C1501 C1499 1.415 . S
C1502 H1492 0.930 . S
C1502 C1500 1.419 . S
C1502 C1503 1.362 . S
C1503 H1493 0.930 . S
C1503 C1496 1.409 . S
C1503 C1502 1.362 . S
H1504 C1510 0.930 . S
H1505 C1513 0.930 . S
H1506 C1514 0.930 . S
H1507 C1515 0.930 . S
H1508 C1518 0.930 . S
H1509 C1519 0.930 . S
C1510 H1504 0.930 . S
C1510 C1511 1.355 . S
C1510 C1512 1.415 . S
C1511 C1510 1.355 . S
C1511 C1513 1.419 . S
C1512 C1510 1.415 . S
C1512 C1517 1.425 . S
C1512 C1519 1.409 . S
C1513 H1505 0.930 . S
C1513 C1511 1.419 . S
C1513 C1514 1.362 . S
C1514 H1506 0.930 . S
C1514 C1513 1.362 . S
C1514 C1517 1.409 . S
C1515 H1507 0.930 . S
C1515 C1516 1.355 . S
C1515 C1517 1.415 . S
C1516 C1515 1.355 . S
C1516 C1518 1.419 . S
C1517 C1512 1.425 . S
C1517 C1514 1.409 . S
C1517 C1515 1.415 . S
C1518 H1508 0.930 . S
C1518 C1516 1.419 . S
C1518 C1519 1.362 . S
C1519 H1509 0.930 . S
C1519 C1512 1.409 . S
C1519 C1518 1.362 . S
H1520 C1526 0.930 . S
H1521 C1529 0.930 . S
H1522 C1530 0.930 . S
H1523 C1531 0.930 . S
H1524 C1534 0.930 . S
H1525 C1535 0.930 . S
C1526 H1520 0.930 . S
C1526 C1527 1.355 . S
C1526 C1528 1.415 . S
C1527 C1526 1.355 . S
C1527 C1529 1.419 . S
C1528 C1526 1.415 . S
C1528 C1533 1.425 . S
C1528 C1535 1.409 . S
C1529 H1521 0.930 . S
C1529 C1527 1.419 . S
C1529 C1530 1.362 . S
C1530 H1522 0.930 . S
C1530 C1529 1.362 . S
C1530 C1533 1.409 . S
C1531 H1523 0.930 . S
C1531 C1532 1.355 . S
C1531 C1533 1.415 . S
C1532 C1531 1.355 . S
C1532 C1534 1.419 . S
C1533 C1528 1.425 . S
C1533 C1530 1.409 . S
C1533 C1531 1.415 . S
C1534 H1524 0.930 . S
C1534 C1532 1.419 . S
C1534 C1535 1.362 . S
C1535 H1525 0.930 . S
C1535 C1528 1.409 . S
C1535 C1534 1.362 . S
H1536 C1542 0.930 . S
H1537 C1545 0.930 . S
H1538 C1546 0.930 . S
H1539 C1547 0.930 . S
H1540 C1550 0.930 . S
H1541 C1551 0.930 . S
C1542 H1536 0.930 . S
C1542 C1543 1.355 . S
C1542 C1544 1.415 . S
C1543 C1542 1.355 . S
C1543 C1545 1.419 . S
C1544 C1542 1.415 . S
C1544 C1549 1.425 . S
C1544 C1551 1.409 . S
C1545 H1537 0.930 . S
C1545 C1543 1.419 . S
C1545 C1546 1.362 . S
C1546 H1538 0.930 . S
C1546 C1545 1.362 . S
C1546 C1549 1.409 . S
C1547 H1539 0.930 . S
C1547 C1548 1.355 . S
C1547 C1549 1.415 . S
C1548 C1547 1.355 . S
C1548 C1550 1.419 . S
C1549 C1544 1.425 . S
C1549 C1546 1.409 . S
C1549 C1547 1.415 . S
C1550 H1540 0.930 . S
C1550 C1548 1.419 . S
C1550 C1551 1.362 . S
C1551 H1541 0.930 . S
C1551 C1544 1.409 . S
C1551 C1550 1.362 . S
H1552 C1558 0.930 . S
H1553 C1561 0.930 . S
H1554 C1562 0.930 . S
H1555 C1563 0.930 . S
H1556 C1566 0.930 . S
H1557 C1567 0.930 . S
C1558 H1552 0.930 . S
C1558 C1559 1.355 . S
C1558 C1560 1.415 . S
C1559 C1558 1.355 . S
C1559 C1561 1.419 . S
C1560 C1558 1.415 . S
C1560 C1565 1.425 . S
C1560 C1567 1.409 . S
C1561 H1553 0.930 . S
C1561 C1559 1.419 . S
C1561 C1562 1.362 . S
C1562 H1554 0.930 . S
C1562 C1561 1.362 . S
C1562 C1565 1.409 . S
C1563 H1555 0.930 . S
C1563 C1564 1.355 . S
C1563 C1565 1.415 . S
C1564 C1563 1.355 . S
C1564 C1566 1.419 . S
C1565 C1560 1.425 . S
C1565 C1562 1.409 . S
C1565 C1563 1.415 . S
C1566 H1556 0.930 . S
C1566 C1564 1.419 . S
C1566 C1567 1.362 . S
C1567 H1557 0.930 . S
C1567 C1560 1.409 . S
C1567 C1566 1.362 . S
H1568 C1574 0.930 . S
H1569 C1577 0.930 . S
H1570 C1578 0.930 . S
H1571 C1579 0.930 . S
H1572 C1582 0.930 . S
H1573 C1583 0.930 . S
C1574 H1568 0.930 . S
C1574 C1575 1.355 . S
C1574 C1576 1.415 . S
C1575 C1574 1.355 . S
C1575 C1577 1.419 . S
C1576 C1574 1.415 . S
C1576 C1581 1.425 . S
C1576 C1583 1.409 . S
C1577 H1569 0.930 . S
C1577 C1575 1.419 . S
C1577 C1578 1.362 . S
C1578 H1570 0.930 . S
C1578 C1577 1.362 . S
C1578 C1581 1.409 . S
C1579 H1571 0.930 . S
C1579 C1580 1.355 . S
C1579 C1581 1.415 . S
C1580 C1579 1.355 . S
C1580 C1582 1.419 . S
C1581 C1576 1.425 . S
C1581 C1578 1.409 . S
C1581 C1579 1.415 . S
C1582 H1572 0.930 . S
C1582 C1580 1.419 . S
C1582 C1583 1.362 . S
C1583 H1573 0.930 . S
C1583 C1576 1.409 . S
C1583 C1582 1.362 . S
H1584 C1590 0.930 . S
H1585 C1593 0.930 . S
H1586 C1594 0.930 . S
H1587 C1595 0.930 . S
H1588 C1598 0.930 . S
H1589 C1599 0.930 . S
C1590 H1584 0.930 . S
C1590 C1591 1.355 . S
C1590 C1592 1.415 . S
C1591 C1590 1.355 . S
C1591 C1593 1.419 . S
C1592 C1590 1.415 . S
C1592 C1597 1.425 . S
C1592 C1599 1.409 . S
C1593 H1585 0.930 . S
C1593 C1591 1.419 . S
C1593 C1594 1.362 . S
C1594 H1586 0.930 . S
C1594 C1593 1.362 . S
C1594 C1597 1.409 . S
C1595 H1587 0.930 . S
C1595 C1596 1.355 . S
C1595 C1597 1.415 . S
C1596 C1595 1.355 . S
C1596 C1598 1.419 . S
C1597 C1592 1.425 . S
C1597 C1594 1.409 . S
C1597 C1595 1.415 . S
C1598 H1588 0.930 . S
C1598 C1596 1.419 . S
C1598 C1599 1.362 . S
C1599 H1589 0.930 . S
C1599 C1592 1.409 . S
C1599 C1598 1.362 . S
H1600 C1606 0.930 . S
H1601 C1609 0.930 . S
H1602 C1610 0.930 . S
H1603 C1611 0.930 . S
H1604 C1614 0.930 . S
H1605 C1615 0.930 . S
C1606 H1600 0.930 . S
C1606 C1607 1.355 . S
C1606 C1608 1.415 . S
C1607 C1606 1.355 . S
C1607 C1609 1.419 . S
C1608 C1606 1.415 . S
C1608 C1613 1.425 . S
C1608 C1615 1.409 . S
C1609 H1601 0.930 . S
C1609 C1607 1.419 . S
C1609 C1610 1.362 . S
C1610 H1602 0.930 . S
C1610 C1609 1.362 . S
C1610 C1613 1.409 . S
C1611 H1603 0.930 . S
C1611 C1612 1.355 . S
C1611 C1613 1.415 . S
C1612 C1611 1.355 . S
C1612 C1614 1.419 . S
C1613 C1608 1.425 . S
C1613 C1610 1.409 . S
C1613 C1611 1.415 . S
C1614 H1604 0.930 . S
C1614 C1612 1.419 . S
C1614 C1615 1.362 . S
C1615 H1605 0.930 . S
C1615 C1608 1.409 . S
C1615 C1614 1.362 . S
H1616 C1622 0.930 . S
H1617 C1625 0.930 . S
H1618 C1626 0.930 . S
H1619 C1627 0.930 . S
H1620 C1630 0.930 . S
H1621 C1631 0.930 . S
C1622 H1616 0.930 . S
C1622 C1623 1.355 . S
C1622 C1624 1.415 . S
C1623 C1622 1.355 . S
C1623 C1625 1.419 . S
C1624 C1622 1.415 . S
C1624 C1629 1.425 . S
C1624 C1631 1.409 . S
C1625 H1617 0.930 . S
C1625 C1623 1.419 . S
C1625 C1626 1.362 . S
C1626 H1618 0.930 . S
C1626 C1625 1.362 . S
C1626 C1629 1.409 . S
C1627 H1619 0.930 . S
C1627 C1628 1.355 . S
C1627 C1629 1.415 . S
C1628 C1627 1.355 . S
C1628 C1630 1.419 . S
C1629 C1624 1.425 . S
C1629 C1626 1.409 . S
C1629 C1627 1.415 . S
C1630 H1620 0.930 . S
C1630 C1628 1.419 . S
C1630 C1631 1.362 . S
C1631 H1621 0.930 . S
C1631 C1624 1.409 . S
C1631 C1630 1.362 . S
H1632 C1638 0.930 . S
H1633 C1641 0.930 . S
H1634 C1642 0.930 . S
H1635 C1643 0.930 . S
H1636 C1646 0.930 . S
H1637 C1647 0.930 . S
C1638 H1632 0.930 . S
C1638 C1639 1.355 . S
C1638 C1640 1.415 . S
C1639 C1638 1.355 . S
C1639 C1641 1.419 . S
C1640 C1638 1.415 . S
C1640 C1645 1.425 . S
C1640 C1647 1.409 . S
C1641 H1633 0.930 . S
C1641 C1639 1.419 . S
C1641 C1642 1.362 . S
C1642 H1634 0.930 . S
C1642 C1641 1.362 . S
C1642 C1645 1.409 . S
C1643 H1635 0.930 . S
C1643 C1644 1.355 . S
C1643 C1645 1.415 . S
C1644 C1643 1.355 . S
C1644 C1646 1.419 . S
C1645 C1640 1.425 . S
C1645 C1642 1.409 . S
C1645 C1643 1.415 . S
C1646 H1636 0.930 . S
C1646 C1644 1.419 . S
C1646 C1647 1.362 . S
C1647 H1637 0.930 . S
C1647 C1640 1.409 . S
C1647 C1646 1.362 . S
H1648 C1654 0.930 . S
H1649 C1657 0.930 . S
H1650 C1658 0.930 . S
H1651 C1659 0.930 . S
H1652 C1662 0.930 . S
H1653 C1663 0.930 . S
C1654 H1648 0.930 . S
C1654 C1655 1.355 1_545 S
C1654 C1656 1.415 . S
C1655 C1654 1.355 1_565 S
C1655 C1657 1.419 . S
C1656 C1654 1.415 . S
C1656 C1661 1.425 1_545 S
C1656 C1663 1.409 . S
C1657 H1649 0.930 . S
C1657 C1655 1.419 . S
C1657 C1658 1.362 . S
C1658 H1650 0.930 . S
C1658 C1657 1.362 . S
C1658 C1661 1.409 . S
C1659 H1651 0.930 . S
C1659 C1660 1.355 1_565 S
C1659 C1661 1.415 . S
C1660 C1659 1.355 1_545 S
C1660 C1662 1.419 . S
C1661 C1656 1.425 1_565 S
C1661 C1658 1.409 . S
C1661 C1659 1.415 . S
C1662 H1652 0.930 . S
C1662 C1660 1.419 . S
C1662 C1663 1.362 . S
C1663 H1653 0.930 . S
C1663 C1656 1.409 . S
C1663 C1662 1.362 . S
H1664 C1670 0.930 . S
H1665 C1673 0.930 . S
H1666 C1674 0.930 . S
H1667 C1675 0.930 . S
H1668 C1678 0.930 . S
H1669 C1679 0.930 . S
C1670 H1664 0.930 . S
C1670 C1671 1.355 . S
C1670 C1672 1.415 . S
C1671 C1670 1.355 . S
C1671 C1673 1.419 . S
C1672 C1670 1.415 . S
C1672 C1677 1.425 1_655 S
C1672 C1679 1.409 . S
C1673 H1665 0.930 . S
C1673 C1671 1.419 . S
C1673 C1674 1.362 1_655 S
C1674 H1666 0.930 . S
C1674 C1673 1.362 1_455 S
C1674 C1677 1.409 . S
C1675 H1667 0.930 . S
C1675 C1676 1.355 . S
C1675 C1677 1.415 . S
C1676 C1675 1.355 . S
C1676 C1678 1.419 . S
C1677 C1672 1.425 1_455 S
C1677 C1674 1.409 . S
C1677 C1675 1.415 . S
C1678 H1668 0.930 . S
C1678 C1676 1.419 . S
C1678 C1679 1.362 1_455 S
C1679 H1669 0.930 . S
C1679 C1672 1.409 . S
C1679 C1678 1.362 1_655 S
H1680 C1686 0.930 . S
H1681 C1689 0.930 . S
H1682 C1690 0.930 . S
H1683 C1691 0.930 . S
H1684 C1694 0.930 . S
H1685 C1695 0.930 . S
C1686 H1680 0.930 . S
C1686 C1687 1.355 . S
C1686 C1688 1.415 . S
C1687 C1686 1.355 . S
C1687 C1689 1.419 . S
C1688 C1686 1.415 . S
C1688 C1693 1.425 . S
C1688 C1695 1.409 . S
C1689 H1681 0.930 . S
C1689 C1687 1.419 . S
C1689 C1690 1.362 . S
C1690 H1682 0.930 . S
C1690 C1689 1.362 . S
C1690 C1693 1.409 . S
C1691 H1683 0.930 . S
C1691 C1692 1.355 . S
C1691 C1693 1.415 . S
C1692 C1691 1.355 . S
C1692 C1694 1.419 . S
C1693 C1688 1.425 . S
C1693 C1690 1.409 . S
C1693 C1691 1.415 . S
C1694 H1684 0.930 . S
C1694 C1692 1.419 . S
C1694 C1695 1.362 . S
C1695 H1685 0.930 . S
C1695 C1688 1.409 . S
C1695 C1694 1.362 . S
H1696 C1702 0.930 . S
H1697 C1705 0.930 . S
H1698 C1706 0.930 . S
H1699 C1707 0.929 . S
H1700 C1710 0.930 . S
H1701 C1711 0.930 . S
C1702 H1696 0.930 . S
C1702 C1703 1.354 1_565 S
C1702 C1704 1.415 . S
C1703 C1702 1.354 1_545 S
C1703 C1705 1.419 . S
C1704 C1702 1.415 . S
C1704 C1709 1.425 1_565 S
C1704 C1711 1.409 . S
C1705 H1697 0.930 . S
C1705 C1703 1.419 . S
C1705 C1706 1.362 . S
C1706 H1698 0.930 . S
C1706 C1705 1.362 . S
C1706 C1709 1.409 . S
C1707 H1699 0.929 . S
C1707 C1708 1.356 1_545 S
C1707 C1709 1.414 . S
C1708 C1707 1.356 1_565 S
C1708 C1710 1.419 . S
C1709 C1704 1.425 1_545 S
C1709 C1706 1.409 . S
C1709 C1707 1.414 . S
C1710 H1700 0.930 . S
C1710 C1708 1.419 . S
C1710 C1711 1.362 . S
C1711 H1701 0.930 . S
C1711 C1704 1.409 . S
C1711 C1710 1.362 . S
H1712 C1718 0.930 . S
H1713 C1721 0.915 1_655 S
H1714 C1722 0.930 . S
H1715 C1723 0.930 . S
H1716 C1726 0.915 1_455 S
H1717 C1727 0.930 . S
C1718 H1712 0.930 . S
C1718 C1719 1.355 . S
C1718 C1720 1.415 . S
C1719 C1718 1.355 . S
C1719 C1721 1.452 . S
C1720 C1718 1.415 . S
C1720 C1725 1.425 1_455 S
C1720 C1727 1.409 . S
C1721 H1713 0.915 1_455 S
C1721 C1719 1.452 . S
C1721 C1722 1.344 1_455 S
C1722 H1714 0.930 . S
C1722 C1721 1.344 1_655 S
C1722 C1725 1.409 . S
C1723 H1715 0.930 . S
C1723 C1724 1.355 . S
C1723 C1725 1.415 . S
C1724 C1723 1.355 . S
C1724 C1726 1.453 . S
C1725 C1720 1.425 1_655 S
C1725 C1722 1.409 . S
C1725 C1723 1.415 . S
C1726 H1716 0.915 1_655 S
C1726 C1724 1.453 . S
C1726 C1727 1.344 1_655 S
C1727 H1717 0.930 . S
C1727 C1720 1.409 . S
C1727 C1726 1.344 1_455 S
H1728 C1734 0.930 1_655 S
H1729 C1737 0.930 . S
H1730 C1738 0.930 . S
H1731 C1739 0.930 1_455 S
H1732 C1742 0.930 . S
H1733 C1743 0.930 . S
C1734 H1728 0.930 1_455 S
C1734 C1735 1.355 . S
C1734 C1736 1.415 1_455 S
C1735 C1734 1.355 . S
C1735 C1737 1.419 . S
C1736 C1734 1.415 1_655 S
C1736 C1741 1.425 1_655 S
C1736 C1743 1.409 . S
C1737 H1729 0.930 . S
C1737 C1735 1.419 . S
C1737 C1738 1.362 . S
C1738 H1730 0.930 . S
C1738 C1737 1.362 . S
C1738 C1741 1.409 . S
C1739 H1731 0.930 1_655 S
C1739 C1740 1.355 . S
C1739 C1741 1.415 1_655 S
C1740 C1739 1.355 . S
C1740 C1742 1.419 . S
C1741 C1736 1.425 1_455 S
C1741 C1738 1.409 . S
C1741 C1739 1.415 1_455 S
C1742 H1732 0.930 . S
C1742 C1740 1.419 . S
C1742 C1743 1.362 . S
C1743 H1733 0.930 . S
C1743 C1736 1.409 . S
C1743 C1742 1.362 . S
H1744 C1750 0.930 . S
H1745 C1753 0.930 . S
H1746 C1754 0.930 . S
H1747 C1755 0.930 . S
H1748 C1758 0.930 . S
H1749 C1759 0.930 . S
C1750 H1744 0.930 . S
C1750 C1751 1.355 . S
C1750 C1752 1.415 . S
C1751 C1750 1.355 . S
C1751 C1753 1.419 . S
C1752 C1750 1.415 . S
C1752 C1757 1.425 . S
C1752 C1759 1.409 . S
C1753 H1745 0.930 . S
C1753 C1751 1.419 . S
C1753 C1754 1.362 . S
C1754 H1746 0.930 . S
C1754 C1753 1.362 . S
C1754 C1757 1.409 . S
C1755 H1747 0.930 . S
C1755 C1756 1.355 . S
C1755 C1757 1.415 . S
C1756 C1755 1.355 . S
C1756 C1758 1.419 . S
C1757 C1752 1.425 . S
C1757 C1754 1.409 . S
C1757 C1755 1.415 . S
C1758 H1748 0.930 . S
C1758 C1756 1.419 . S
C1758 C1759 1.362 . S
C1759 H1749 0.930 . S
C1759 C1752 1.409 . S
C1759 C1758 1.362 . S
H1760 C1766 0.930 1_545 S
H1761 C1769 0.930 . S
H1762 C1770 0.930 . S
H1763 C1771 0.893 1_565 S
H1764 C1774 0.930 . S
H1765 C1775 0.930 . S
C1766 H1760 0.930 1_565 S
C1766 C1767 1.355 . S
C1766 C1768 1.415 1_565 S
C1767 C1766 1.355 . S
C1767 C1769 1.419 . S
C1768 C1766 1.415 1_545 S
C1768 C1773 1.425 1_545 S
C1768 C1775 1.409 . S
C1769 H1761 0.930 . S
C1769 C1767 1.419 . S
C1769 C1770 1.362 . S
C1770 H1762 0.930 . S
C1770 C1769 1.362 . S
C1770 C1773 1.409 . S
C1771 H1763 0.893 1_545 S
C1771 C1772 1.409 . S
C1771 C1773 1.398 1_545 S
C1772 C1771 1.409 . S
C1772 C1774 1.419 . S
C1773 C1768 1.425 1_565 S
C1773 C1770 1.409 . S
C1773 C1771 1.398 1_565 S
C1774 H1764 0.930 . S
C1774 C1772 1.419 . S
C1774 C1775 1.362 . S
C1775 H1765 0.930 . S
C1775 C1768 1.409 . S
C1775 C1774 1.362 . S
H1776 C1782 0.930 1_455 S
H1777 C1785 0.930 . S
H1778 C1786 0.930 . S
H1779 C1787 0.930 1_655 S
H1780 C1790 0.930 . S
H1781 C1791 0.930 . S
C1782 H1776 0.930 1_655 S
C1782 C1783 1.355 . S
C1782 C1784 1.415 1_655 S
C1783 C1782 1.355 . S
C1783 C1785 1.419 . S
C1784 C1782 1.415 1_455 S
C1784 C1789 1.425 1_455 S
C1784 C1791 1.409 . S
C1785 H1777 0.930 . S
C1785 C1783 1.419 . S
C1785 C1786 1.362 . S
C1786 H1778 0.930 . S
C1786 C1785 1.362 . S
C1786 C1789 1.409 . S
C1787 H1779 0.930 1_455 S
C1787 C1788 1.355 . S
C1787 C1789 1.415 1_455 S
C1788 C1787 1.355 . S
C1788 C1790 1.419 . S
C1789 C1784 1.425 1_655 S
C1789 C1786 1.409 . S
C1789 C1787 1.415 1_655 S
C1790 H1780 0.930 . S
C1790 C1788 1.419 . S
C1790 C1791 1.362 . S
C1791 H1781 0.930 . S
C1791 C1784 1.409 . S
C1791 C1790 1.362 . S
H1792 C1798 0.930 . S
H1793 C1801 0.930 . S
H1794 C1802 0.930 . S
H1795 C1803 0.930 . S
H1796 C1806 0.930 . S
H1797 C1807 0.930 . S
C1798 H1792 0.930 . S
C1798 C1799 1.355 . S
C1798 C1800 1.415 . S
C1799 C1798 1.355 . S
C1799 C1801 1.419 . S
C1800 C1798 1.415 . S
C1800 C1805 1.425 . S
C1800 C1807 1.409 . S
C1801 H1793 0.930 . S
C1801 C1799 1.419 . S
C1801 C1802 1.362 . S
C1802 H1794 0.930 . S
C1802 C1801 1.362 . S
C1802 C1805 1.409 . S
C1803 H1795 0.930 . S
C1803 C1804 1.355 . S
C1803 C1805 1.415 . S
C1804 C1803 1.355 . S
C1804 C1806 1.419 . S
C1805 C1800 1.425 . S
C1805 C1802 1.409 . S
C1805 C1803 1.415 . S
C1806 H1796 0.930 . S
C1806 C1804 1.419 . S
C1806 C1807 1.362 . S
C1807 H1797 0.930 . S
C1807 C1800 1.409 . S
C1807 C1806 1.362 . S
H1808 C1814 0.930 1_565 S
H1809 C1817 0.930 . S
H1810 C1818 0.930 . S
H1811 C1819 0.930 1_545 S
H1812 C1822 0.930 . S
H1813 C1823 0.930 . S
C1814 H1808 0.930 1_545 S
C1814 C1815 1.355 . S
C1814 C1816 1.415 1_545 S
C1815 C1814 1.355 . S
C1815 C1817 1.419 . S
C1816 C1814 1.415 1_565 S
C1816 C1821 1.425 1_565 S
C1816 C1823 1.409 . S
C1817 H1809 0.930 . S
C1817 C1815 1.419 . S
C1817 C1818 1.362 . S
C1818 H1810 0.930 . S
C1818 C1817 1.362 . S
C1818 C1821 1.409 . S
C1819 H1811 0.930 1_565 S
C1819 C1820 1.355 . S
C1819 C1821 1.415 1_565 S
C1820 C1819 1.355 . S
C1820 C1822 1.419 . S
C1821 C1816 1.425 1_545 S
C1821 C1818 1.409 . S
C1821 C1819 1.415 1_545 S
C1822 H1812 0.930 . S
C1822 C1820 1.419 . S
C1822 C1823 1.362 . S
C1823 H1813 0.930 . S
C1823 C1816 1.409 . S
C1823 C1822 1.362 . S
H1824 C1830 0.930 . S
H1825 C1833 0.930 . S
H1826 C1834 0.930 . S
H1827 C1835 0.930 . S
H1828 C1838 0.930 . S
H1829 C1839 0.930 . S
C1830 H1824 0.930 . S
C1830 C1831 1.355 . S
C1830 C1832 1.415 . S
C1831 C1830 1.355 . S
C1831 C1833 1.419 . S
C1832 C1830 1.415 . S
C1832 C1837 1.425 . S
C1832 C1839 1.409 . S
C1833 H1825 0.930 . S
C1833 C1831 1.419 . S
C1833 C1834 1.362 . S
C1834 H1826 0.930 . S
C1834 C1833 1.362 . S
C1834 C1837 1.409 . S
C1835 H1827 0.930 . S
C1835 C1836 1.355 . S
C1835 C1837 1.415 . S
C1836 C1835 1.355 . S
C1836 C1838 1.419 . S
C1837 C1832 1.425 . S
C1837 C1834 1.409 . S
C1837 C1835 1.415 . S
C1838 H1828 0.930 . S
C1838 C1836 1.419 . S
C1838 C1839 1.362 . S
C1839 H1829 0.930 . S
C1839 C1832 1.409 . S
C1839 C1838 1.362 . S
H1840 C1846 0.930 . S
H1841 C1849 0.930 . S
H1842 C1850 0.930 . S
H1843 C1851 0.930 . S
H1844 C1854 0.930 . S
H1845 C1855 0.930 . S
C1846 H1840 0.930 . S
C1846 C1847 1.355 . S
C1846 C1848 1.415 . S
C1847 C1846 1.355 . S
C1847 C1849 1.419 . S
C1848 C1846 1.415 . S
C1848 C1853 1.425 . S
C1848 C1855 1.409 . S
C1849 H1841 0.930 . S
C1849 C1847 1.419 . S
C1849 C1850 1.362 . S
C1850 H1842 0.930 . S
C1850 C1849 1.362 . S
C1850 C1853 1.409 . S
C1851 H1843 0.930 . S
C1851 C1852 1.355 . S
C1851 C1853 1.415 . S
C1852 C1851 1.355 . S
C1852 C1854 1.419 . S
C1853 C1848 1.425 . S
C1853 C1850 1.409 . S
C1853 C1851 1.415 . S
C1854 H1844 0.930 . S
C1854 C1852 1.419 . S
C1854 C1855 1.362 . S
C1855 H1845 0.930 . S
C1855 C1848 1.409 . S
C1855 C1854 1.362 . S
H1856 C1862 0.930 . S
H1857 C1865 0.930 . S
H1858 C1866 0.930 . S
H1859 C1867 0.930 . S
H1860 C1870 0.930 . S
H1861 C1871 0.930 . S
C1862 H1856 0.930 . S
C1862 C1863 1.355 . S
C1862 C1864 1.415 . S
C1863 C1862 1.355 . S
C1863 C1865 1.419 . S
C1864 C1862 1.415 . S
C1864 C1869 1.425 . S
C1864 C1871 1.409 . S
C1865 H1857 0.930 . S
C1865 C1863 1.419 . S
C1865 C1866 1.362 . S
C1866 H1858 0.930 . S
C1866 C1865 1.362 . S
C1866 C1869 1.409 . S
C1867 H1859 0.930 . S
C1867 C1868 1.355 . S
C1867 C1869 1.415 . S
C1868 C1867 1.355 . S
C1868 C1870 1.419 . S
C1869 C1864 1.425 . S
C1869 C1866 1.409 . S
C1869 C1867 1.415 . S
C1870 H1860 0.930 . S
C1870 C1868 1.419 . S
C1870 C1871 1.362 . S
C1871 H1861 0.930 . S
C1871 C1864 1.409 . S
C1871 C1870 1.362 . S
H1872 C1878 0.930 . S
H1873 C1881 0.930 . S
H1874 C1882 0.930 . S
H1875 C1883 0.930 . S
H1876 C1886 0.930 . S
H1877 C1887 0.930 . S
C1878 H1872 0.930 . S
C1878 C1879 1.355 . S
C1878 C1880 1.415 . S
C1879 C1878 1.355 . S
C1879 C1881 1.419 . S
C1880 C1878 1.415 . S
C1880 C1885 1.425 . S
C1880 C1887 1.409 . S
C1881 H1873 0.930 . S
C1881 C1879 1.419 . S
C1881 C1882 1.362 . S
C1882 H1874 0.930 . S
C1882 C1881 1.362 . S
C1882 C1885 1.409 . S
C1883 H1875 0.930 . S
C1883 C1884 1.355 . S
C1883 C1885 1.415 . S
C1884 C1883 1.355 . S
C1884 C1886 1.419 . S
C1885 C1880 1.425 . S
C1885 C1882 1.409 . S
C1885 C1883 1.415 . S
C1886 H1876 0.930 . S
C1886 C1884 1.419 . S
C1886 C1887 1.362 . S
C1887 H1877 0.930 . S
C1887 C1880 1.409 . S
C1887 C1886 1.362 . S
H1888 C1894 0.930 . S
H1889 C1897 0.930 . S
H1890 C1898 0.930 . S
H1891 C1899 0.930 . S
H1892 C1902 0.930 . S
H1893 C1903 0.930 . S
C1894 H1888 0.930 . S
C1894 C1895 1.355 . S
C1894 C1896 1.415 . S
C1895 C1894 1.355 . S
C1895 C1897 1.419 . S
C1896 C1894 1.415 . S
C1896 C1901 1.425 . S
C1896 C1903 1.409 . S
C1897 H1889 0.930 . S
C1897 C1895 1.419 . S
C1897 C1898 1.362 . S
C1898 H1890 0.930 . S
C1898 C1897 1.362 . S
C1898 C1901 1.409 . S
C1899 H1891 0.930 . S
C1899 C1900 1.355 . S
C1899 C1901 1.415 . S
C1900 C1899 1.355 . S
C1900 C1902 1.419 . S
C1901 C1896 1.425 . S
C1901 C1898 1.409 . S
C1901 C1899 1.415 . S
C1902 H1892 0.930 . S
C1902 C1900 1.419 . S
C1902 C1903 1.362 . S
C1903 H1893 0.930 . S
C1903 C1896 1.409 . S
C1903 C1902 1.362 . S
H1904 C1910 0.930 . S
H1905 C1913 0.930 . S
H1906 C1914 0.930 . S
H1907 C1915 0.930 . S
H1908 C1918 0.930 . S
H1909 C1919 0.930 . S
C1910 H1904 0.930 . S
C1910 C1911 1.355 . S
C1910 C1912 1.415 . S
C1911 C1910 1.355 . S
C1911 C1913 1.419 . S
C1912 C1910 1.415 . S
C1912 C1917 1.425 . S
C1912 C1919 1.409 . S
C1913 H1905 0.930 . S
C1913 C1911 1.419 . S
C1913 C1914 1.362 . S
C1914 H1906 0.930 . S
C1914 C1913 1.362 . S
C1914 C1917 1.409 . S
C1915 H1907 0.930 . S
C1915 C1916 1.355 . S
C1915 C1917 1.415 . S
C1916 C1915 1.355 . S
C1916 C1918 1.419 . S
C1917 C1912 1.425 . S
C1917 C1914 1.409 . S
C1917 C1915 1.415 . S
C1918 H1908 0.930 . S
C1918 C1916 1.419 . S
C1918 C1919 1.362 . S
C1919 H1909 0.930 . S
C1919 C1912 1.409 . S
C1919 C1918 1.362 . S
H1920 C1926 0.930 . S
H1921 C1929 0.930 . S
H1922 C1930 0.930 . S
H1923 C1931 0.930 . S
H1924 C1934 0.930 . S
H1925 C1935 0.930 . S
C1926 H1920 0.930 . S
C1926 C1927 1.355 . S
C1926 C1928 1.415 . S
C1927 C1926 1.355 . S
C1927 C1929 1.419 . S
C1928 C1926 1.415 . S
C1928 C1933 1.425 . S
C1928 C1935 1.409 . S
C1929 H1921 0.930 . S
C1929 C1927 1.419 . S
C1929 C1930 1.362 . S
C1930 H1922 0.930 . S
C1930 C1929 1.362 . S
C1930 C1933 1.409 . S
C1931 H1923 0.930 . S
C1931 C1932 1.355 . S
C1931 C1933 1.415 . S
C1932 C1931 1.355 . S
C1932 C1934 1.419 . S
C1933 C1928 1.425 . S
C1933 C1930 1.409 . S
C1933 C1931 1.415 . S
C1934 H1924 0.930 . S
C1934 C1932 1.419 . S
C1934 C1935 1.362 . S
C1935 H1925 0.930 . S
C1935 C1928 1.409 . S
C1935 C1934 1.362 . S
H1936 C1942 0.930 . S
H1937 C1945 0.930 . S
H1938 C1946 0.930 . S
H1939 C1947 0.930 . S
H1940 C1950 0.930 . S
H1941 C1951 0.930 . S
C1942 H1936 0.930 . S
C1942 C1943 1.355 . S
C1942 C1944 1.415 . S
C1943 C1942 1.355 . S
C1943 C1945 1.419 . S
C1944 C1942 1.415 . S
C1944 C1949 1.425 . S
C1944 C1951 1.409 . S
C1945 H1937 0.930 . S
C1945 C1943 1.419 . S
C1945 C1946 1.362 . S
C1946 H1938 0.930 . S
C1946 C1945 1.362 . S
C1946 C1949 1.409 . S
C1947 H1939 0.930 . S
C1947 C1948 1.355 . S
C1947 C1949 1.415 . S
C1948 C1947 1.355 . S
C1948 C1950 1.419 . S
C1949 C1944 1.425 . S
C1949 C1946 1.409 . S
C1949 C1947 1.415 . S
C1950 H1940 0.930 . S
C1950 C1948 1.419 . S
C1950 C1951 1.362 . S
C1951 H1941 0.930 . S
C1951 C1944 1.409 . S
C1951 C1950 1.362 . S
H1952 C1958 0.930 . S
H1953 C1961 0.930 . S
H1954 C1962 0.930 . S
H1955 C1963 0.930 . S
H1956 C1966 0.930 . S
H1957 C1967 0.930 . S
C1958 H1952 0.930 . S
C1958 C1959 1.355 . S
C1958 C1960 1.415 . S
C1959 C1958 1.355 . S
C1959 C1961 1.419 . S
C1960 C1958 1.415 . S
C1960 C1965 1.425 . S
C1960 C1967 1.409 . S
C1961 H1953 0.930 . S
C1961 C1959 1.419 . S
C1961 C1962 1.362 . S
C1962 H1954 0.930 . S
C1962 C1961 1.362 . S
C1962 C1965 1.409 . S
C1963 H1955 0.930 . S
C1963 C1964 1.355 . S
C1963 C1965 1.415 . S
C1964 C1963 1.355 . S
C1964 C1966 1.419 . S
C1965 C1960 1.425 . S
C1965 C1962 1.409 . S
C1965 C1963 1.415 . S
C1966 H1956 0.930 . S
C1966 C1964 1.419 . S
C1966 C1967 1.362 . S
C1967 H1957 0.930 . S
C1967 C1960 1.409 . S
C1967 C1966 1.362 . S
H1968 C1974 0.930 . S
H1969 C1977 0.930 1_556 S
H1970 C1978 0.930 . S
H1971 C1979 0.930 . S
H1972 C1982 0.930 . S
H1973 C1983 0.930 . S
C1974 H1968 0.930 . S
C1974 C1975 1.355 . S
C1974 C1976 1.415 1_556 S
C1975 C1974 1.355 . S
C1975 C1977 1.419 1_556 S
C1976 C1974 1.415 1_554 S
C1976 C1981 1.425 . S
C1976 C1983 1.409 . S
C1977 H1969 0.930 1_554 S
C1977 C1975 1.419 1_554 S
C1977 C1978 1.362 . S
C1978 H1970 0.930 . S
C1978 C1977 1.362 . S
C1978 C1981 1.409 . S
C1979 H1971 0.930 . S
C1979 C1980 1.355 . S
C1979 C1981 1.415 . S
C1980 C1979 1.355 . S
C1980 C1982 1.419 . S
C1981 C1976 1.425 . S
C1981 C1978 1.409 . S
C1981 C1979 1.415 . S
C1982 H1972 0.930 . S
C1982 C1980 1.419 . S
C1982 C1983 1.362 . S
C1983 H1973 0.930 . S
C1983 C1976 1.409 . S
C1983 C1982 1.362 . S
H1984 C1990 0.935 . S
H1985 C1993 0.930 1_556 S
H1986 C1994 0.930 . S
H1987 C1995 0.930 . S
H1988 C1998 0.930 . S
H1989 C1999 0.930 . S
C1990 H1984 0.935 . S
C1990 C1991 1.360 . S
C1990 C1992 1.403 1_556 S
C1991 C1990 1.360 . S
C1991 C1993 1.419 1_556 S
C1992 C1990 1.403 1_554 S
C1992 C1997 1.425 . S
C1992 C1999 1.409 . S
C1993 H1985 0.930 1_554 S
C1993 C1991 1.419 1_554 S
C1993 C1994 1.362 . S
C1994 H1986 0.930 . S
C1994 C1993 1.362 . S
C1994 C1997 1.409 . S
C1995 H1987 0.930 . S
C1995 C1996 1.355 . S
C1995 C1997 1.415 . S
C1996 C1995 1.355 . S
C1996 C1998 1.419 . S
C1997 C1992 1.425 . S
C1997 C1994 1.409 . S
C1997 C1995 1.415 . S
C1998 H1988 0.930 . S
C1998 C1996 1.419 . S
C1998 C1999 1.362 . S
C1999 H1989 0.930 . S
C1999 C1992 1.409 . S
C1999 C1998 1.362 . S
H2000 C2006 0.930 . S
H2001 C2009 0.930 . S
H2002 C2010 0.930 1_556 S
H2003 C2011 0.930 . S
H2004 C2014 0.930 . S
H2005 C2015 0.930 . S
C2006 H2000 0.930 . S
C2006 C2007 1.355 1_554 S
C2006 C2008 1.415 . S
C2007 C2006 1.355 1_556 S
C2007 C2009 1.419 . S
C2008 C2006 1.415 . S
C2008 C2013 1.425 . S
C2008 C2015 1.409 . S
C2009 H2001 0.930 . S
C2009 C2007 1.419 . S
C2009 C2010 1.362 1_556 S
C2010 H2002 0.930 1_554 S
C2010 C2009 1.362 1_554 S
C2010 C2013 1.409 . S
C2011 H2003 0.930 . S
C2011 C2012 1.355 . S
C2011 C2013 1.415 . S
C2012 C2011 1.355 . S
C2012 C2014 1.419 . S
C2013 C2008 1.425 . S
C2013 C2010 1.409 . S
C2013 C2011 1.415 . S
C2014 H2004 0.930 . S
C2014 C2012 1.419 . S
C2014 C2015 1.362 . S
C2015 H2005 0.930 . S
C2015 C2008 1.409 . S
C2015 C2014 1.362 . S
H2016 C2022 0.930 . S
H2017 C2025 0.930 . S
H2018 C2026 0.930 . S
H2019 C2027 0.930 . S
H2020 C2030 0.930 . S
H2021 C2031 0.930 . S
C2022 H2016 0.930 . S
C2022 C2023 1.355 . S
C2022 C2024 1.415 . S
C2023 C2022 1.355 . S
C2023 C2025 1.419 . S
C2024 C2022 1.415 . S
C2024 C2029 1.425 . S
C2024 C2031 1.409 1_556 S
C2025 H2017 0.930 . S
C2025 C2023 1.419 . S
C2025 C2026 1.362 . S
C2026 H2018 0.930 . S
C2026 C2025 1.362 . S
C2026 C2029 1.409 . S
C2027 H2019 0.930 . S
C2027 C2028 1.355 . S
C2027 C2029 1.415 1_554 S
C2028 C2027 1.355 . S
C2028 C2030 1.419 . S
C2029 C2024 1.425 . S
C2029 C2026 1.409 . S
C2029 C2027 1.415 1_556 S
C2030 H2020 0.930 . S
C2030 C2028 1.419 . S
C2030 C2031 1.362 . S
C2031 H2021 0.930 . S
C2031 C2024 1.409 1_554 S
C2031 C2030 1.362 . S
H2032 C2038 0.930 . S
H2033 C2041 0.930 . S
H2034 C2042 0.930 . S
H2035 C2043 0.930 . S
H2036 C2046 0.930 . S
H2037 C2047 0.930 . S
C2038 H2032 0.930 . S
C2038 C2039 1.355 . S
C2038 C2040 1.415 . S
C2039 C2038 1.355 . S
C2039 C2041 1.419 . S
C2040 C2038 1.415 . S
C2040 C2045 1.425 1_554 S
C2040 C2047 1.409 . S
C2041 H2033 0.930 . S
C2041 C2039 1.419 . S
C2041 C2042 1.362 1_554 S
C2042 H2034 0.930 . S
C2042 C2041 1.362 1_556 S
C2042 C2045 1.409 . S
C2043 H2035 0.930 . S
C2043 C2044 1.355 . S
C2043 C2045 1.415 . S
C2044 C2043 1.355 . S
C2044 C2046 1.419 . S
C2045 C2040 1.425 1_556 S
C2045 C2042 1.409 . S
C2045 C2043 1.415 . S
C2046 H2036 0.930 . S
C2046 C2044 1.419 . S
C2046 C2047 1.362 1_556 S
C2047 H2037 0.930 . S
C2047 C2040 1.409 . S
C2047 C2046 1.362 1_554 S
H2048 C2054 0.930 . S
H2049 C2057 0.930 . S
H2050 C2058 0.930 . S
H2051 C2059 0.930 . S
H2052 C2062 0.930 . S
H2053 C2063 0.930 . S
C2054 H2048 0.930 . S
C2054 C2055 1.355 . S
C2054 C2056 1.415 . S
C2055 C2054 1.355 . S
C2055 C2057 1.419 . S
C2056 C2054 1.415 . S
C2056 C2061 1.425 1_554 S
C2056 C2063 1.409 . S
C2057 H2049 0.930 . S
C2057 C2055 1.419 . S
C2057 C2058 1.362 1_554 S
C2058 H2050 0.930 . S
C2058 C2057 1.362 1_556 S
C2058 C2061 1.409 . S
C2059 H2051 0.930 . S
C2059 C2060 1.355 . S
C2059 C2061 1.415 . S
C2060 C2059 1.355 . S
C2060 C2062 1.419 . S
C2061 C2056 1.425 1_556 S
C2061 C2058 1.409 . S
C2061 C2059 1.415 . S
C2062 H2052 0.930 . S
C2062 C2060 1.419 . S
C2062 C2063 1.362 1_556 S
C2063 H2053 0.930 . S
C2063 C2056 1.409 . S
C2063 C2062 1.362 1_554 S
H2064 C2070 0.930 . S
H2065 C2073 0.930 . S
H2066 C2074 0.930 . S
H2067 C2075 0.930 . S
H2068 C2078 0.930 . S
H2069 C2079 0.930 . S
C2070 H2064 0.930 . S
C2070 C2071 1.355 . S
C2070 C2072 1.415 . S
C2071 C2070 1.355 . S
C2071 C2073 1.419 . S
C2072 C2070 1.415 . S
C2072 C2077 1.425 . S
C2072 C2079 1.409 . S
C2073 H2065 0.930 . S
C2073 C2071 1.419 . S
C2073 C2074 1.362 . S
C2074 H2066 0.930 . S
C2074 C2073 1.362 . S
C2074 C2077 1.409 . S
C2075 H2067 0.930 . S
C2075 C2076 1.355 . S
C2075 C2077 1.415 . S
C2076 C2075 1.355 . S
C2076 C2078 1.419 . S
C2077 C2072 1.425 . S
C2077 C2074 1.409 . S
C2077 C2075 1.415 . S
C2078 H2068 0.930 . S
C2078 C2076 1.419 . S
C2078 C2079 1.362 . S
C2079 H2069 0.930 . S
C2079 C2072 1.409 . S
C2079 C2078 1.362 . S
H2080 C2086 0.930 . S
H2081 C2089 0.930 . S
H2082 C2090 0.930 . S
H2083 C2091 0.930 . S
H2084 C2094 0.930 . S
H2085 C2095 0.930 . S
C2086 H2080 0.930 . S
C2086 C2087 1.355 . S
C2086 C2088 1.415 . S
C2087 C2086 1.355 . S
C2087 C2089 1.419 . S
C2088 C2086 1.415 . S
C2088 C2093 1.425 . S
C2088 C2095 1.409 . S
C2089 H2081 0.930 . S
C2089 C2087 1.419 . S
C2089 C2090 1.362 . S
C2090 H2082 0.930 . S
C2090 C2089 1.362 . S
C2090 C2093 1.409 . S
C2091 H2083 0.930 . S
C2091 C2092 1.355 . S
C2091 C2093 1.415 . S
C2092 C2091 1.355 . S
C2092 C2094 1.419 . S
C2093 C2088 1.425 . S
C2093 C2090 1.409 . S
C2093 C2091 1.415 . S
C2094 H2084 0.930 . S
C2094 C2092 1.419 . S
C2094 C2095 1.362 . S
C2095 H2085 0.930 . S
C2095 C2088 1.409 . S
C2095 C2094 1.362 . S
H2096 C2102 0.930 . S
H2097 C2105 0.930 . S
H2098 C2106 0.930 . S
H2099 C2107 0.930 . S
H2100 C2110 0.930 . S
H2101 C2111 0.930 . S
C2102 H2096 0.930 . S
C2102 C2103 1.355 . S
C2102 C2104 1.415 . S
C2103 C2102 1.355 . S
C2103 C2105 1.419 . S
C2104 C2102 1.415 . S
C2104 C2109 1.425 . S
C2104 C2111 1.409 . S
C2105 H2097 0.930 . S
C2105 C2103 1.419 . S
C2105 C2106 1.362 . S
C2106 H2098 0.930 . S
C2106 C2105 1.362 . S
C2106 C2109 1.409 . S
C2107 H2099 0.930 . S
C2107 C2108 1.355 . S
C2107 C2109 1.415 . S
C2108 C2107 1.355 . S
C2108 C2110 1.419 . S
C2109 C2104 1.425 . S
C2109 C2106 1.409 . S
C2109 C2107 1.415 . S
C2110 H2100 0.930 . S
C2110 C2108 1.419 . S
C2110 C2111 1.362 . S
C2111 H2101 0.930 . S
C2111 C2104 1.409 . S
C2111 C2110 1.362 . S
H2112 C2118 0.930 . S
H2113 C2121 0.930 . S
H2114 C2122 0.930 . S
H2115 C2123 0.930 . S
H2116 C2126 0.930 . S
H2117 C2127 0.930 . S
C2118 H2112 0.930 . S
C2118 C2119 1.355 . S
C2118 C2120 1.415 . S
C2119 C2118 1.355 . S
C2119 C2121 1.419 . S
C2120 C2118 1.415 . S
C2120 C2125 1.425 . S
C2120 C2127 1.409 . S
C2121 H2113 0.930 . S
C2121 C2119 1.419 . S
C2121 C2122 1.362 . S
C2122 H2114 0.930 . S
C2122 C2121 1.362 . S
C2122 C2125 1.409 . S
C2123 H2115 0.930 . S
C2123 C2124 1.355 . S
C2123 C2125 1.415 . S
C2124 C2123 1.355 . S
C2124 C2126 1.419 . S
C2125 C2120 1.425 . S
C2125 C2122 1.409 . S
C2125 C2123 1.415 . S
C2126 H2116 0.930 . S
C2126 C2124 1.419 . S
C2126 C2127 1.362 . S
C2127 H2117 0.930 . S
C2127 C2120 1.409 . S
C2127 C2126 1.362 . S
H2128 C2134 0.930 . S
H2129 C2137 0.930 . S
H2130 C2138 0.930 . S
H2131 C2139 0.930 . S
H2132 C2142 0.930 . S
H2133 C2143 0.930 . S
C2134 H2128 0.930 . S
C2134 C2135 1.355 . S
C2134 C2136 1.415 . S
C2135 C2134 1.355 . S
C2135 C2137 1.419 . S
C2136 C2134 1.415 . S
C2136 C2141 1.425 . S
C2136 C2143 1.409 . S
C2137 H2129 0.930 . S
C2137 C2135 1.419 . S
C2137 C2138 1.362 . S
C2138 H2130 0.930 . S
C2138 C2137 1.362 . S
C2138 C2141 1.409 . S
C2139 H2131 0.930 . S
C2139 C2140 1.355 . S
C2139 C2141 1.415 . S
C2140 C2139 1.355 . S
C2140 C2142 1.419 . S
C2141 C2136 1.425 . S
C2141 C2138 1.409 . S
C2141 C2139 1.415 . S
C2142 H2132 0.930 . S
C2142 C2140 1.419 . S
C2142 C2143 1.362 . S
C2143 H2133 0.930 . S
C2143 C2136 1.409 . S
C2143 C2142 1.362 . S
H2144 C2150 0.930 . S
H2145 C2153 0.930 . S
H2146 C2154 0.930 . S
H2147 C2155 0.930 . S
H2148 C2158 0.930 . S
H2149 C2159 0.930 . S
C2150 H2144 0.930 . S
C2150 C2151 1.355 . S
C2150 C2152 1.415 . S
C2151 C2150 1.355 . S
C2151 C2153 1.419 . S
C2152 C2150 1.415 . S
C2152 C2157 1.425 . S
C2152 C2159 1.409 . S
C2153 H2145 0.930 . S
C2153 C2151 1.419 . S
C2153 C2154 1.362 . S
C2154 H2146 0.930 . S
C2154 C2153 1.362 . S
C2154 C2157 1.409 . S
C2155 H2147 0.930 . S
C2155 C2156 1.355 . S
C2155 C2157 1.415 . S
C2156 C2155 1.355 . S
C2156 C2158 1.419 . S
C2157 C2152 1.425 . S
C2157 C2154 1.409 . S
C2157 C2155 1.415 . S
C2158 H2148 0.930 . S
C2158 C2156 1.419 . S
C2158 C2159 1.362 . S
C2159 H2149 0.930 . S
C2159 C2152 1.409 . S
C2159 C2158 1.362 . S
H2160 C2166 0.930 . S
H2161 C2169 0.930 . S
H2162 C2170 0.930 . S
H2163 C2171 0.930 . S
H2164 C2174 0.930 . S
H2165 C2175 0.930 . S
C2166 H2160 0.930 . S
C2166 C2167 1.355 . S
C2166 C2168 1.415 . S
C2167 C2166 1.355 . S
C2167 C2169 1.419 . S
C2168 C2166 1.415 . S
C2168 C2173 1.425 . S
C2168 C2175 1.409 . S
C2169 H2161 0.930 . S
C2169 C2167 1.419 . S
C2169 C2170 1.362 . S
C2170 H2162 0.930 . S
C2170 C2169 1.362 . S
C2170 C2173 1.409 . S
C2171 H2163 0.930 . S
C2171 C2172 1.355 . S
C2171 C2173 1.415 . S
C2172 C2171 1.355 . S
C2172 C2174 1.419 . S
C2173 C2168 1.425 . S
C2173 C2170 1.409 . S
C2173 C2171 1.415 . S
C2174 H2164 0.930 . S
C2174 C2172 1.419 . S
C2174 C2175 1.362 . S
C2175 H2165 0.930 . S
C2175 C2168 1.409 . S
C2175 C2174 1.362 . S
H2176 C2182 0.930 . S
H2177 C2185 0.930 . S
H2178 C2186 0.930 . S
H2179 C2187 0.930 . S
H2180 C2190 0.930 . S
H2181 C2191 0.930 . S
C2182 H2176 0.930 . S
C2182 C2183 1.355 . S
C2182 C2184 1.415 . S
C2183 C2182 1.355 . S
C2183 C2185 1.419 . S
C2184 C2182 1.415 . S
C2184 C2189 1.425 . S
C2184 C2191 1.409 . S
C2185 H2177 0.930 . S
C2185 C2183 1.419 . S
C2185 C2186 1.362 . S
C2186 H2178 0.930 . S
C2186 C2185 1.362 . S
C2186 C2189 1.409 . S
C2187 H2179 0.930 . S
C2187 C2188 1.355 . S
C2187 C2189 1.415 . S
C2188 C2187 1.355 . S
C2188 C2190 1.419 . S
C2189 C2184 1.425 . S
C2189 C2186 1.409 . S
C2189 C2187 1.415 . S
C2190 H2180 0.930 . S
C2190 C2188 1.419 . S
C2190 C2191 1.362 . S
C2191 H2181 0.930 . S
C2191 C2184 1.409 . S
C2191 C2190 1.362 . S
H2192 C2198 0.930 . S
H2193 C2201 0.930 . S
H2194 C2202 0.930 . S
H2195 C2203 0.930 . S
H2196 C2206 0.930 . S
H2197 C2207 0.930 . S
C2198 H2192 0.930 . S
C2198 C2199 1.355 . S
C2198 C2200 1.415 . S
C2199 C2198 1.355 . S
C2199 C2201 1.419 . S
C2200 C2198 1.415 . S
C2200 C2205 1.425 . S
C2200 C2207 1.409 . S
C2201 H2193 0.930 . S
C2201 C2199 1.419 . S
C2201 C2202 1.362 . S
C2202 H2194 0.930 . S
C2202 C2201 1.362 . S
C2202 C2205 1.409 . S
C2203 H2195 0.930 . S
C2203 C2204 1.355 . S
C2203 C2205 1.415 . S
C2204 C2203 1.355 . S
C2204 C2206 1.419 . S
C2205 C2200 1.425 . S
C2205 C2202 1.409 . S
C2205 C2203 1.415 . S
C2206 H2196 0.930 . S
C2206 C2204 1.419 . S
C2206 C2207 1.362 . S
C2207 H2197 0.930 . S
C2207 C2200 1.409 . S
C2207 C2206 1.362 . S
H2208 C2214 0.930 . S
H2209 C2217 0.930 . S
H2210 C2218 0.930 . S
H2211 C2219 0.930 . S
H2212 C2222 0.930 . S
H2213 C2223 0.930 . S
C2214 H2208 0.930 . S
C2214 C2215 1.355 . S
C2214 C2216 1.415 . S
C2215 C2214 1.355 . S
C2215 C2217 1.419 . S
C2216 C2214 1.415 . S
C2216 C2221 1.425 . S
C2216 C2223 1.409 . S
C2217 H2209 0.930 . S
C2217 C2215 1.419 . S
C2217 C2218 1.362 . S
C2218 H2210 0.930 . S
C2218 C2217 1.362 . S
C2218 C2221 1.409 . S
C2219 H2211 0.930 . S
C2219 C2220 1.355 . S
C2219 C2221 1.415 . S
C2220 C2219 1.355 . S
C2220 C2222 1.419 . S
C2221 C2216 1.425 . S
C2221 C2218 1.409 . S
C2221 C2219 1.415 . S
C2222 H2212 0.930 . S
C2222 C2220 1.419 . S
C2222 C2223 1.362 . S
C2223 H2213 0.930 . S
C2223 C2216 1.409 . S
C2223 C2222 1.362 . S
H2224 C2230 0.930 . S
H2225 C2233 0.930 . S
H2226 C2234 0.930 . S
H2227 C2235 0.930 . S
H2228 C2238 0.930 . S
H2229 C2239 0.930 . S
C2230 H2224 0.930 . S
C2230 C2231 1.355 . S
C2230 C2232 1.415 . S
C2231 C2230 1.355 . S
C2231 C2233 1.419 . S
C2232 C2230 1.415 . S
C2232 C2237 1.425 . S
C2232 C2239 1.409 . S
C2233 H2225 0.930 . S
C2233 C2231 1.419 . S
C2233 C2234 1.362 . S
C2234 H2226 0.930 . S
C2234 C2233 1.362 . S
C2234 C2237 1.409 . S
C2235 H2227 0.930 . S
C2235 C2236 1.355 . S
C2235 C2237 1.415 . S
C2236 C2235 1.355 . S
C2236 C2238 1.419 . S
C2237 C2232 1.425 . S
C2237 C2234 1.409 . S
C2237 C2235 1.415 . S
C2238 H2228 0.930 . S
C2238 C2236 1.419 . S
C2238 C2239 1.362 . S
C2239 H2229 0.930 . S
C2239 C2232 1.409 . S
C2239 C2238 1.362 . S
H2240 C2246 0.930 . S
H2241 C2249 0.930 . S
H2242 C2250 0.930 . S
H2243 C2251 0.930 . S
H2244 C2254 0.930 . S
H2245 C2255 0.930 . S
C2246 H2240 0.930 . S
C2246 C2247 1.355 . S
C2246 C2248 1.415 . S
C2247 C2246 1.355 . S
C2247 C2249 1.419 . S
C2248 C2246 1.415 . S
C2248 C2253 1.425 . S
C2248 C2255 1.409 . S
C2249 H2241 0.930 . S
C2249 C2247 1.419 . S
C2249 C2250 1.362 . S
C2250 H2242 0.930 . S
C2250 C2249 1.362 . S
C2250 C2253 1.409 . S
C2251 H2243 0.930 . S
C2251 C2252 1.355 . S
C2251 C2253 1.415 . S
C2252 C2251 1.355 . S
C2252 C2254 1.419 . S
C2253 C2248 1.425 . S
C2253 C2250 1.409 . S
C2253 C2251 1.415 . S
C2254 H2244 0.930 . S
C2254 C2252 1.419 . S
C2254 C2255 1.362 . S
C2255 H2245 0.930 . S
C2255 C2248 1.409 . S
C2255 C2254 1.362 . S
H2256 C2262 0.930 . S
H2257 C2265 0.930 . S
H2258 C2266 0.930 . S
H2259 C2267 0.930 . S
H2260 C2270 0.930 . S
H2261 C2271 0.930 . S
C2262 H2256 0.930 . S
C2262 C2263 1.355 . S
C2262 C2264 1.415 . S
C2263 C2262 1.355 . S
C2263 C2265 1.419 . S
C2264 C2262 1.415 . S
C2264 C2269 1.425 . S
C2264 C2271 1.409 . S
C2265 H2257 0.930 . S
C2265 C2263 1.419 . S
C2265 C2266 1.362 . S
C2266 H2258 0.930 . S
C2266 C2265 1.362 . S
C2266 C2269 1.409 . S
C2267 H2259 0.930 . S
C2267 C2268 1.355 . S
C2267 C2269 1.415 . S
C2268 C2267 1.355 . S
C2268 C2270 1.419 . S
C2269 C2264 1.425 . S
C2269 C2266 1.409 . S
C2269 C2267 1.415 . S
C2270 H2260 0.930 . S
C2270 C2268 1.419 . S
C2270 C2271 1.362 . S
C2271 H2261 0.930 . S
C2271 C2264 1.409 . S
C2271 C2270 1.362 . S
H2272 C2278 0.930 . S
H2273 C2281 0.930 . S
H2274 C2282 0.930 . S
H2275 C2283 0.930 . S
H2276 C2286 0.930 . S
H2277 C2287 0.930 . S
C2278 H2272 0.930 . S
C2278 C2279 1.355 . S
C2278 C2280 1.415 . S
C2279 C2278 1.355 . S
C2279 C2281 1.419 . S
C2280 C2278 1.415 . S
C2280 C2285 1.425 . S
C2280 C2287 1.409 . S
C2281 H2273 0.930 . S
C2281 C2279 1.419 . S
C2281 C2282 1.362 . S
C2282 H2274 0.930 . S
C2282 C2281 1.362 . S
C2282 C2285 1.409 . S
C2283 H2275 0.930 . S
C2283 C2284 1.355 . S
C2283 C2285 1.415 . S
C2284 C2283 1.355 . S
C2284 C2286 1.419 . S
C2285 C2280 1.425 . S
C2285 C2282 1.409 . S
C2285 C2283 1.415 . S
C2286 H2276 0.930 . S
C2286 C2284 1.419 . S
C2286 C2287 1.362 . S
C2287 H2277 0.930 . S
C2287 C2280 1.409 . S
C2287 C2286 1.362 . S
H2288 C2294 0.930 . S
H2289 C2297 0.930 . S
H2290 C2298 0.930 . S
H2291 C2299 0.930 . S
H2292 C2302 0.930 1_556 S
H2293 C2303 0.930 . S
C2294 H2288 0.930 . S
C2294 C2295 1.355 . S
C2294 C2296 1.415 . S
C2295 C2294 1.355 . S
C2295 C2297 1.419 . S
C2296 C2294 1.415 . S
C2296 C2301 1.425 . S
C2296 C2303 1.409 . S
C2297 H2289 0.930 . S
C2297 C2295 1.419 . S
C2297 C2298 1.362 . S
C2298 H2290 0.930 . S
C2298 C2297 1.362 . S
C2298 C2301 1.409 . S
C2299 H2291 0.930 . S
C2299 C2300 1.355 . S
C2299 C2301 1.415 . S
C2300 C2299 1.355 . S
C2300 C2302 1.419 . S
C2301 C2296 1.425 . S
C2301 C2298 1.409 . S
C2301 C2299 1.415 . S
C2302 H2292 0.930 1_554 S
C2302 C2300 1.419 . S
C2302 C2303 1.362 . S
C2303 H2293 0.930 . S
C2303 C2296 1.409 . S
C2303 C2302 1.362 . S
H2304 C2310 0.930 . S
H2305 C2313 0.930 . S
H2306 C2314 0.930 . S
H2307 C2315 0.930 . S
H2308 C2318 0.930 . S
H2309 C2319 0.930 . S
C2310 H2304 0.930 . S
C2310 C2311 1.355 . S
C2310 C2312 1.415 . S
C2311 C2310 1.355 . S
C2311 C2313 1.419 . S
C2312 C2310 1.415 . S
C2312 C2317 1.425 . S
C2312 C2319 1.409 . S
C2313 H2305 0.930 . S
C2313 C2311 1.419 . S
C2313 C2314 1.362 . S
C2314 H2306 0.930 . S
C2314 C2313 1.362 . S
C2314 C2317 1.409 . S
C2315 H2307 0.930 . S
C2315 C2316 1.355 . S
C2315 C2317 1.415 . S
C2316 C2315 1.355 . S
C2316 C2318 1.419 . S
C2317 C2312 1.425 . S
C2317 C2314 1.409 . S
C2317 C2315 1.415 . S
C2318 H2308 0.930 . S
C2318 C2316 1.419 . S
C2318 C2319 1.362 . S
C2319 H2309 0.930 . S
C2319 C2312 1.409 . S
C2319 C2318 1.362 . S
H2320 C2326 0.930 . S
H2321 C2329 0.930 . S
H2322 C2330 0.930 . S
H2323 C2331 0.930 . S
H2324 C2334 0.930 . S
H2325 C2335 0.930 . S
C2326 H2320 0.930 . S
C2326 C2327 1.355 . S
C2326 C2328 1.415 . S
C2327 C2326 1.355 . S
C2327 C2329 1.419 . S
C2328 C2326 1.415 . S
C2328 C2333 1.425 . S
C2328 C2335 1.409 . S
C2329 H2321 0.930 . S
C2329 C2327 1.419 . S
C2329 C2330 1.362 . S
C2330 H2322 0.930 . S
C2330 C2329 1.362 . S
C2330 C2333 1.409 . S
C2331 H2323 0.930 . S
C2331 C2332 1.355 . S
C2331 C2333 1.415 . S
C2332 C2331 1.355 . S
C2332 C2334 1.419 . S
C2333 C2328 1.425 . S
C2333 C2330 1.409 . S
C2333 C2331 1.415 . S
C2334 H2324 0.930 . S
C2334 C2332 1.419 . S
C2334 C2335 1.362 . S
C2335 H2325 0.930 . S
C2335 C2328 1.409 . S
C2335 C2334 1.362 . S
H2336 C2342 0.930 . S
H2337 C2345 0.930 . S
H2338 C2346 0.930 . S
H2339 C2347 0.930 . S
H2340 C2350 0.930 . S
H2341 C2351 0.930 . S
C2342 H2336 0.930 . S
C2342 C2343 1.355 . S
C2342 C2344 1.415 . S
C2343 C2342 1.355 . S
C2343 C2345 1.419 . S
C2344 C2342 1.415 . S
C2344 C2349 1.425 . S
C2344 C2351 1.409 . S
C2345 H2337 0.930 . S
C2345 C2343 1.419 . S
C2345 C2346 1.362 . S
C2346 H2338 0.930 . S
C2346 C2345 1.362 . S
C2346 C2349 1.409 . S
C2347 H2339 0.930 . S
C2347 C2348 1.355 . S
C2347 C2349 1.415 . S
C2348 C2347 1.355 . S
C2348 C2350 1.419 . S
C2349 C2344 1.425 . S
C2349 C2346 1.409 . S
C2349 C2347 1.415 . S
C2350 H2340 0.930 . S
C2350 C2348 1.419 . S
C2350 C2351 1.362 . S
C2351 H2341 0.930 . S
C2351 C2344 1.409 . S
C2351 C2350 1.362 . S
H2352 C2358 0.930 . S
H2353 C2361 0.930 . S
H2354 C2362 0.930 . S
H2355 C2363 0.930 . S
H2356 C2366 0.930 . S
H2357 C2367 0.930 . S
C2358 H2352 0.930 . S
C2358 C2359 1.355 . S
C2358 C2360 1.415 . S
C2359 C2358 1.355 . S
C2359 C2361 1.419 . S
C2360 C2358 1.415 . S
C2360 C2365 1.425 . S
C2360 C2367 1.409 . S
C2361 H2353 0.930 . S
C2361 C2359 1.419 . S
C2361 C2362 1.362 . S
C2362 H2354 0.930 . S
C2362 C2361 1.362 . S
C2362 C2365 1.409 . S
C2363 H2355 0.930 . S
C2363 C2364 1.355 . S
C2363 C2365 1.415 . S
C2364 C2363 1.355 . S
C2364 C2366 1.419 . S
C2365 C2360 1.425 . S
C2365 C2362 1.409 . S
C2365 C2363 1.415 . S
C2366 H2356 0.930 . S
C2366 C2364 1.419 . S
C2366 C2367 1.362 . S
C2367 H2357 0.930 . S
C2367 C2360 1.409 . S
C2367 C2366 1.362 . S
H2368 C2374 0.930 . S
H2369 C2377 0.930 . S
H2370 C2378 0.930 . S
H2371 C2379 0.930 . S
H2372 C2382 0.930 . S
H2373 C2383 0.930 . S
C2374 H2368 0.930 . S
C2374 C2375 1.355 . S
C2374 C2376 1.415 . S
C2375 C2374 1.355 . S
C2375 C2377 1.419 . S
C2376 C2374 1.415 . S
C2376 C2381 1.425 . S
C2376 C2383 1.409 . S
C2377 H2369 0.930 . S
C2377 C2375 1.419 . S
C2377 C2378 1.362 . S
C2378 H2370 0.930 . S
C2378 C2377 1.362 . S
C2378 C2381 1.409 . S
C2379 H2371 0.930 . S
C2379 C2380 1.355 . S
C2379 C2381 1.415 . S
C2380 C2379 1.355 . S
C2380 C2382 1.419 . S
C2381 C2376 1.425 . S
C2381 C2378 1.409 . S
C2381 C2379 1.415 . S
C2382 H2372 0.930 . S
C2382 C2380 1.419 . S
C2382 C2383 1.362 . S
C2383 H2373 0.930 . S
C2383 C2376 1.409 . S
C2383 C2382 1.362 . S
H2384 C2390 0.930 . S
H2385 C2393 0.930 . S
H2386 C2394 0.930 . S
H2387 C2395 0.930 . S
H2388 C2398 0.930 . S
H2389 C2399 0.930 . S
C2390 H2384 0.930 . S
C2390 C2391 1.355 . S
C2390 C2392 1.415 . S
C2391 C2390 1.355 . S
C2391 C2393 1.419 . S
C2392 C2390 1.415 . S
C2392 C2397 1.425 . S
C2392 C2399 1.409 . S
C2393 H2385 0.930 . S
C2393 C2391 1.419 . S
C2393 C2394 1.362 . S
C2394 H2386 0.930 . S
C2394 C2393 1.362 . S
C2394 C2397 1.409 . S
C2395 H2387 0.930 . S
C2395 C2396 1.355 . S
C2395 C2397 1.415 . S
C2396 C2395 1.355 . S
C2396 C2398 1.419 . S
C2397 C2392 1.425 . S
C2397 C2394 1.409 . S
C2397 C2395 1.415 . S
C2398 H2388 0.930 . S
C2398 C2396 1.419 . S
C2398 C2399 1.362 . S
C2399 H2389 0.930 . S
C2399 C2392 1.409 . S
C2399 C2398 1.362 . S
H2400 C2406 0.930 . S
H2401 C2409 0.930 . S
H2402 C2410 0.930 . S
H2403 C2411 0.930 . S
H2404 C2414 0.930 . S
H2405 C2415 0.930 . S
C2406 H2400 0.930 . S
C2406 C2407 1.355 . S
C2406 C2408 1.415 . S
C2407 C2406 1.355 . S
C2407 C2409 1.419 . S
C2408 C2406 1.415 . S
C2408 C2413 1.425 . S
C2408 C2415 1.409 . S
C2409 H2401 0.930 . S
C2409 C2407 1.419 . S
C2409 C2410 1.362 . S
C2410 H2402 0.930 . S
C2410 C2409 1.362 . S
C2410 C2413 1.409 . S
C2411 H2403 0.930 . S
C2411 C2412 1.355 . S
C2411 C2413 1.415 . S
C2412 C2411 1.355 . S
C2412 C2414 1.419 . S
C2413 C2408 1.425 . S
C2413 C2410 1.409 . S
C2413 C2411 1.415 . S
C2414 H2404 0.930 . S
C2414 C2412 1.419 . S
C2414 C2415 1.362 . S
C2415 H2405 0.930 . S
C2415 C2408 1.409 . S
C2415 C2414 1.362 . S
H2416 C2422 0.930 . S
H2417 C2425 0.930 . S
H2418 C2426 0.930 . S
H2419 C2427 0.930 . S
H2420 C2430 0.930 . S
H2421 C2431 0.930 . S
C2422 H2416 0.930 . S
C2422 C2423 1.355 . S
C2422 C2424 1.415 . S
C2423 C2422 1.355 . S
C2423 C2425 1.419 . S
C2424 C2422 1.415 . S
C2424 C2429 1.425 . S
C2424 C2431 1.409 . S
C2425 H2417 0.930 . S
C2425 C2423 1.419 . S
C2425 C2426 1.362 . S
C2426 H2418 0.930 . S
C2426 C2425 1.362 . S
C2426 C2429 1.409 . S
C2427 H2419 0.930 . S
C2427 C2428 1.355 . S
C2427 C2429 1.415 . S
C2428 C2427 1.355 . S
C2428 C2430 1.419 . S
C2429 C2424 1.425 . S
C2429 C2426 1.409 . S
C2429 C2427 1.415 . S
C2430 H2420 0.930 . S
C2430 C2428 1.419 . S
C2430 C2431 1.362 . S
C2431 H2421 0.930 . S
C2431 C2424 1.409 . S
C2431 C2430 1.362 . S
H2432 C2438 0.930 . S
H2433 C2441 0.930 . S
H2434 C2442 0.930 . S
H2435 C2443 0.930 . S
H2436 C2446 0.930 . S
H2437 C2447 0.930 . S
C2438 H2432 0.930 . S
C2438 C2439 1.355 . S
C2438 C2440 1.415 . S
C2439 C2438 1.355 . S
C2439 C2441 1.419 . S
C2440 C2438 1.415 . S
C2440 C2445 1.425 . S
C2440 C2447 1.409 . S
C2441 H2433 0.930 . S
C2441 C2439 1.419 . S
C2441 C2442 1.362 . S
C2442 H2434 0.930 . S
C2442 C2441 1.362 . S
C2442 C2445 1.409 . S
C2443 H2435 0.930 . S
C2443 C2444 1.355 . S
C2443 C2445 1.415 . S
C2444 C2443 1.355 . S
C2444 C2446 1.419 . S
C2445 C2440 1.425 . S
C2445 C2442 1.409 . S
C2445 C2443 1.415 . S
C2446 H2436 0.930 . S
C2446 C2444 1.419 . S
C2446 C2447 1.362 . S
C2447 H2437 0.930 . S
C2447 C2440 1.409 . S
C2447 C2446 1.362 . S
H2448 C2454 0.930 . S
H2449 C2457 0.930 . S
H2450 C2458 0.930 . S
H2451 C2459 0.930 . S
H2452 C2462 0.930 . S
H2453 C2463 0.930 . S
C2454 H2448 0.930 . S
C2454 C2455 1.355 . S
C2454 C2456 1.415 . S
C2455 C2454 1.355 . S
C2455 C2457 1.419 . S
C2456 C2454 1.415 . S
C2456 C2461 1.425 . S
C2456 C2463 1.409 . S
C2457 H2449 0.930 . S
C2457 C2455 1.419 . S
C2457 C2458 1.362 . S
C2458 H2450 0.930 . S
C2458 C2457 1.362 . S
C2458 C2461 1.409 . S
C2459 H2451 0.930 . S
C2459 C2460 1.355 . S
C2459 C2461 1.415 . S
C2460 C2459 1.355 . S
C2460 C2462 1.419 . S
C2461 C2456 1.425 . S
C2461 C2458 1.409 . S
C2461 C2459 1.415 . S
C2462 H2452 0.930 . S
C2462 C2460 1.419 . S
C2462 C2463 1.362 . S
C2463 H2453 0.930 . S
C2463 C2456 1.409 . S
C2463 C2462 1.362 . S
H2464 C2470 0.930 . S
H2465 C2473 0.930 . S
H2466 C2474 0.930 . S
H2467 C2475 0.930 . S
H2468 C2478 0.930 . S
H2469 C2479 0.930 . S
C2470 H2464 0.930 . S
C2470 C2471 1.355 . S
C2470 C2472 1.415 . S
C2471 C2470 1.355 . S
C2471 C2473 1.419 . S
C2472 C2470 1.415 . S
C2472 C2477 1.425 . S
C2472 C2479 1.409 . S
C2473 H2465 0.930 . S
C2473 C2471 1.419 . S
C2473 C2474 1.362 . S
C2474 H2466 0.930 . S
C2474 C2473 1.362 . S
C2474 C2477 1.409 . S
C2475 H2467 0.930 . S
C2475 C2476 1.355 . S
C2475 C2477 1.415 . S
C2476 C2475 1.355 . S
C2476 C2478 1.419 . S
C2477 C2472 1.425 . S
C2477 C2474 1.409 . S
C2477 C2475 1.415 . S
C2478 H2468 0.930 . S
C2478 C2476 1.419 . S
C2478 C2479 1.362 . S
C2479 H2469 0.930 . S
C2479 C2472 1.409 . S
C2479 C2478 1.362 . S
H2480 C2486 0.930 . S
H2481 C2489 0.930 . S
H2482 C2490 0.930 . S
H2483 C2491 0.930 . S
H2484 C2494 0.930 . S
H2485 C2495 0.930 . S
C2486 H2480 0.930 . S
C2486 C2487 1.355 . S
C2486 C2488 1.415 . S
C2487 C2486 1.355 . S
C2487 C2489 1.419 . S
C2488 C2486 1.415 . S
C2488 C2493 1.425 . S
C2488 C2495 1.409 . S
C2489 H2481 0.930 . S
C2489 C2487 1.419 . S
C2489 C2490 1.362 . S
C2490 H2482 0.930 . S
C2490 C2489 1.362 . S
C2490 C2493 1.409 . S
C2491 H2483 0.930 . S
C2491 C2492 1.355 . S
C2491 C2493 1.415 . S
C2492 C2491 1.355 . S
C2492 C2494 1.419 . S
C2493 C2488 1.425 . S
C2493 C2490 1.409 . S
C2493 C2491 1.415 . S
C2494 H2484 0.930 . S
C2494 C2492 1.419 . S
C2494 C2495 1.362 . S
C2495 H2485 0.930 . S
C2495 C2488 1.409 . S
C2495 C2494 1.362 . S
H2496 C2502 0.930 . S
H2497 C2505 0.930 . S
H2498 C2506 0.930 . S
H2499 C2507 0.930 . S
H2500 C2510 0.930 1_554 S
H2501 C2511 0.930 . S
C2502 H2496 0.930 . S
C2502 C2503 1.355 . S
C2502 C2504 1.415 . S
C2503 C2502 1.355 . S
C2503 C2505 1.419 . S
C2504 C2502 1.415 . S
C2504 C2509 1.425 . S
C2504 C2511 1.409 . S
C2505 H2497 0.930 . S
C2505 C2503 1.419 . S
C2505 C2506 1.362 . S
C2506 H2498 0.930 . S
C2506 C2505 1.362 . S
C2506 C2509 1.409 . S
C2507 H2499 0.930 . S
C2507 C2508 1.355 . S
C2507 C2509 1.415 . S
C2508 C2507 1.355 . S
C2508 C2510 1.419 . S
C2509 C2504 1.425 . S
C2509 C2506 1.409 . S
C2509 C2507 1.415 . S
C2510 H2500 0.930 1_556 S
C2510 C2508 1.419 . S
C2510 C2511 1.362 . S
C2511 H2501 0.930 . S
C2511 C2504 1.409 . S
C2511 C2510 1.362 . S
H2512 C2518 0.930 . S
H2513 C2521 0.930 . S
H2514 C2522 0.930 . S
H2515 C2523 0.930 . S
H2516 C2526 0.930 . S
H2517 C2527 0.930 . S
C2518 H2512 0.930 . S
C2518 C2519 1.355 . S
C2518 C2520 1.415 . S
C2519 C2518 1.355 . S
C2519 C2521 1.419 . S
C2520 C2518 1.415 . S
C2520 C2525 1.425 . S
C2520 C2527 1.409 . S
C2521 H2513 0.930 . S
C2521 C2519 1.419 . S
C2521 C2522 1.362 . S
C2522 H2514 0.930 . S
C2522 C2521 1.362 . S
C2522 C2525 1.409 . S
C2523 H2515 0.930 . S
C2523 C2524 1.355 . S
C2523 C2525 1.415 . S
C2524 C2523 1.355 . S
C2524 C2526 1.419 . S
C2525 C2520 1.425 . S
C2525 C2522 1.409 . S
C2525 C2523 1.415 . S
C2526 H2516 0.930 . S
C2526 C2524 1.419 . S
C2526 C2527 1.362 . S
C2527 H2517 0.930 . S
C2527 C2520 1.409 . S
C2527 C2526 1.362 . S
H2528 C2534 0.930 . S
H2529 C2537 0.930 . S
H2530 C2538 0.930 . S
H2531 C2539 0.930 . S
H2532 C2542 0.930 . S
H2533 C2543 0.930 . S
C2534 H2528 0.930 . S
C2534 C2535 1.355 . S
C2534 C2536 1.415 . S
C2535 C2534 1.355 . S
C2535 C2537 1.419 . S
C2536 C2534 1.415 . S
C2536 C2541 1.425 . S
C2536 C2543 1.409 . S
C2537 H2529 0.930 . S
C2537 C2535 1.419 . S
C2537 C2538 1.362 . S
C2538 H2530 0.930 . S
C2538 C2537 1.362 . S
C2538 C2541 1.409 . S
C2539 H2531 0.930 . S
C2539 C2540 1.355 . S
C2539 C2541 1.415 . S
C2540 C2539 1.355 . S
C2540 C2542 1.419 . S
C2541 C2536 1.425 . S
C2541 C2538 1.409 . S
C2541 C2539 1.415 . S
C2542 H2532 0.930 . S
C2542 C2540 1.419 . S
C2542 C2543 1.362 . S
C2543 H2533 0.930 . S
C2543 C2536 1.409 . S
C2543 C2542 1.362 . S
H2544 C2550 0.930 . S
H2545 C2553 0.930 . S
H2546 C2554 0.930 . S
H2547 C2555 0.930 . S
H2548 C2558 0.930 . S
H2549 C2559 0.930 . S
C2550 H2544 0.930 . S
C2550 C2551 1.355 . S
C2550 C2552 1.415 . S
C2551 C2550 1.355 . S
C2551 C2553 1.419 . S
C2552 C2550 1.415 . S
C2552 C2557 1.425 . S
C2552 C2559 1.409 . S
C2553 H2545 0.930 . S
C2553 C2551 1.419 . S
C2553 C2554 1.362 . S
C2554 H2546 0.930 . S
C2554 C2553 1.362 . S
C2554 C2557 1.409 . S
C2555 H2547 0.930 . S
C2555 C2556 1.355 . S
C2555 C2557 1.415 . S
C2556 C2555 1.355 . S
C2556 C2558 1.419 . S
C2557 C2552 1.425 . S
C2557 C2554 1.409 . S
C2557 C2555 1.415 . S
C2558 H2548 0.930 . S
C2558 C2556 1.419 . S
C2558 C2559 1.362 . S
C2559 H2549 0.930 . S
C2559 C2552 1.409 . S
C2559 C2558 1.362 . S
H2560 C2566 0.930 . S
H2561 C2569 0.930 . S
H2562 C2570 0.930 . S
H2563 C2571 0.930 . S
H2564 C2574 0.930 . S
H2565 C2575 0.930 . S
C2566 H2560 0.930 . S
C2566 C2567 1.355 . S
C2566 C2568 1.415 . S
C2567 C2566 1.355 . S
C2567 C2569 1.419 . S
C2568 C2566 1.415 . S
C2568 C2573 1.425 . S
C2568 C2575 1.409 . S
C2569 H2561 0.930 . S
C2569 C2567 1.419 . S
C2569 C2570 1.362 . S
C2570 H2562 0.930 . S
C2570 C2569 1.362 . S
C2570 C2573 1.409 . S
C2571 H2563 0.930 . S
C2571 C2572 1.355 . S
C2571 C2573 1.415 . S
C2572 C2571 1.355 . S
C2572 C2574 1.419 . S
C2573 C2568 1.425 . S
C2573 C2570 1.409 . S
C2573 C2571 1.415 . S
C2574 H2564 0.930 . S
C2574 C2572 1.419 . S
C2574 C2575 1.362 . S
C2575 H2565 0.930 . S
C2575 C2568 1.409 . S
C2575 C2574 1.362 . S
H2576 C2582 0.930 . S
H2577 C2585 0.930 . S
H2578 C2586 0.930 . S
H2579 C2587 0.930 . S
H2580 C2590 0.930 . S
H2581 C2591 0.930 . S
C2582 H2576 0.930 . S
C2582 C2583 1.355 . S
C2582 C2584 1.415 . S
C2583 C2582 1.355 . S
C2583 C2585 1.419 . S
C2584 C2582 1.415 . S
C2584 C2589 1.425 . S
C2584 C2591 1.409 . S
C2585 H2577 0.930 . S
C2585 C2583 1.419 . S
C2585 C2586 1.362 . S
C2586 H2578 0.930 . S
C2586 C2585 1.362 . S
C2586 C2589 1.409 . S
C2587 H2579 0.930 . S
C2587 C2588 1.355 . S
C2587 C2589 1.415 . S
C2588 C2587 1.355 . S
C2588 C2590 1.419 . S
C2589 C2584 1.425 . S
C2589 C2586 1.409 . S
C2589 C2587 1.415 . S
C2590 H2580 0.930 . S
C2590 C2588 1.419 . S
C2590 C2591 1.362 . S
C2591 H2581 0.930 . S
C2591 C2584 1.409 . S
C2591 C2590 1.362 . S
H2592 C2598 0.930 . S
H2593 C2601 0.930 . S
H2594 C2602 0.930 . S
H2595 C2603 0.930 . S
H2596 C2606 0.930 . S
H2597 C2607 0.930 . S
C2598 H2592 0.930 . S
C2598 C2599 1.355 . S
C2598 C2600 1.415 . S
C2599 C2598 1.355 . S
C2599 C2601 1.419 . S
C2600 C2598 1.415 . S
C2600 C2605 1.425 1_455 S
C2600 C2607 1.409 . S
C2601 H2593 0.930 . S
C2601 C2599 1.419 . S
C2601 C2602 1.362 1_455 S
C2602 H2594 0.930 . S
C2602 C2601 1.362 1_655 S
C2602 C2605 1.409 . S
C2603 H2595 0.930 . S
C2603 C2604 1.355 . S
C2603 C2605 1.415 . S
C2604 C2603 1.355 . S
C2604 C2606 1.419 . S
C2605 C2600 1.425 1_655 S
C2605 C2602 1.409 . S
C2605 C2603 1.415 . S
C2606 H2596 0.930 . S
C2606 C2604 1.419 . S
C2606 C2607 1.362 1_655 S
C2607 H2597 0.930 . S
C2607 C2600 1.409 . S
C2607 C2606 1.362 1_455 S
H2608 C2614 0.930 . S
H2609 C2617 0.930 . S
H2610 C2618 0.930 . S
H2611 C2619 0.930 . S
H2612 C2622 0.930 . S
H2613 C2623 0.930 . S
C2614 H2608 0.930 . S
C2614 C2615 1.355 . S
C2614 C2616 1.415 . S
C2615 C2614 1.355 . S
C2615 C2617 1.419 . S
C2616 C2614 1.415 . S
C2616 C2621 1.425 . S
C2616 C2623 1.409 . S
C2617 H2609 0.930 . S
C2617 C2615 1.419 . S
C2617 C2618 1.362 . S
C2618 H2610 0.930 . S
C2618 C2617 1.362 . S
C2618 C2621 1.409 . S
C2619 H2611 0.930 . S
C2619 C2620 1.355 . S
C2619 C2621 1.415 . S
C2620 C2619 1.355 . S
C2620 C2622 1.419 . S
C2621 C2616 1.425 . S
C2621 C2618 1.409 . S
C2621 C2619 1.415 . S
C2622 H2612 0.930 . S
C2622 C2620 1.419 . S
C2622 C2623 1.362 . S
C2623 H2613 0.930 . S
C2623 C2616 1.409 . S
C2623 C2622 1.362 . S
H2624 C2630 0.930 . S
H2625 C2633 0.930 . S
H2626 C2634 0.930 1_545 S
H2627 C2635 0.930 . S
H2628 C2638 0.930 . S
H2629 C2639 0.932 1_565 S
C2630 H2624 0.930 . S
C2630 C2631 1.355 . S
C2630 C2632 1.415 . S
C2631 C2630 1.355 . S
C2631 C2633 1.419 . S
C2632 C2630 1.415 . S
C2632 C2637 1.425 1_565 S
C2632 C2639 1.409 1_565 S
C2633 H2625 0.930 . S
C2633 C2631 1.419 . S
C2633 C2634 1.362 . S
C2634 H2626 0.930 1_565 S
C2634 C2633 1.362 . S
C2634 C2637 1.409 1_565 S
C2635 H2627 0.930 . S
C2635 C2636 1.355 . S
C2635 C2637 1.415 . S
C2636 C2635 1.355 . S
C2636 C2638 1.419 . S
C2637 C2632 1.425 1_545 S
C2637 C2634 1.409 1_545 S
C2637 C2635 1.415 . S
C2638 H2628 0.930 . S
C2638 C2636 1.419 . S
C2638 C2639 1.362 . S
C2639 H2629 0.932 1_545 S
C2639 C2632 1.409 1_545 S
C2639 C2638 1.362 . S
H2640 C2646 0.932 . S
H2641 C2649 0.930 . S
H2642 C2650 0.930 . S
H2643 C2651 0.930 . S
H2644 C2654 0.930 . S
H2645 C2655 0.930 . S
C2646 H2640 0.932 . S
C2646 C2647 1.355 . S
C2646 C2648 1.415 1_655 S
C2647 C2646 1.355 . S
C2647 C2649 1.419 . S
C2648 C2646 1.415 1_455 S
C2648 C2653 1.425 1_455 S
C2648 C2655 1.409 . S
C2649 H2641 0.930 . S
C2649 C2647 1.419 . S
C2649 C2650 1.362 . S
C2650 H2642 0.930 . S
C2650 C2649 1.362 . S
C2650 C2653 1.409 . S
C2651 H2643 0.930 . S
C2651 C2652 1.355 . S
C2651 C2653 1.415 1_455 S
C2652 C2651 1.355 . S
C2652 C2654 1.419 . S
C2653 C2648 1.425 1_655 S
C2653 C2650 1.409 . S
C2653 C2651 1.415 1_655 S
C2654 H2644 0.930 . S
C2654 C2652 1.419 . S
C2654 C2655 1.362 . S
C2655 H2645 0.930 . S
C2655 C2648 1.409 . S
C2655 C2654 1.362 . S
H2656 C2662 0.930 . S
H2657 C2665 0.930 . S
H2658 C2666 0.930 . S
H2659 C2667 0.930 . S
H2660 C2670 0.930 . S
H2661 C2671 0.930 . S
C2662 H2656 0.930 . S
C2662 C2663 1.355 . S
C2662 C2664 1.415 . S
C2663 C2662 1.355 . S
C2663 C2665 1.419 . S
C2664 C2662 1.415 . S
C2664 C2669 1.425 . S
C2664 C2671 1.409 . S
C2665 H2657 0.930 . S
C2665 C2663 1.419 . S
C2665 C2666 1.362 . S
C2666 H2658 0.930 . S
C2666 C2665 1.362 . S
C2666 C2669 1.409 . S
C2667 H2659 0.930 . S
C2667 C2668 1.355 . S
C2667 C2669 1.415 . S
C2668 C2667 1.355 . S
C2668 C2670 1.419 . S
C2669 C2664 1.425 . S
C2669 C2666 1.409 . S
C2669 C2667 1.415 . S
C2670 H2660 0.930 . S
C2670 C2668 1.419 . S
C2670 C2671 1.362 . S
C2671 H2661 0.930 . S
C2671 C2664 1.409 . S
C2671 C2670 1.362 . S
H2672 C2678 0.930 . S
H2673 C2681 0.930 . S
H2674 C2682 0.937 1_565 S
H2675 C2683 0.930 . S
H2676 C2686 0.930 . S
H2677 C2687 0.938 1_545 S
C2678 H2672 0.930 . S
C2678 C2679 1.355 . S
C2678 C2680 1.415 . S
C2679 C2678 1.355 . S
C2679 C2681 1.419 . S
C2680 C2678 1.415 . S
C2680 C2685 1.425 1_545 S
C2680 C2687 1.383 1_545 S
C2681 H2673 0.930 . S
C2681 C2679 1.419 . S
C2681 C2682 1.382 . S
C2682 H2674 0.937 1_545 S
C2682 C2681 1.382 . S
C2682 C2685 1.385 1_545 S
C2683 H2675 0.930 . S
C2683 C2684 1.355 . S
C2683 C2685 1.415 . S
C2684 C2683 1.355 . S
C2684 C2686 1.419 . S
C2685 C2680 1.425 1_565 S
C2685 C2682 1.385 1_565 S
C2685 C2683 1.415 . S
C2686 H2676 0.930 . S
C2686 C2684 1.419 . S
C2686 C2687 1.384 . S
C2687 H2677 0.938 1_565 S
C2687 C2680 1.383 1_565 S
C2687 C2686 1.384 . S
H2688 C2694 0.930 . S
H2689 C2697 0.930 . S
H2690 C2698 0.930 . S
H2691 C2699 0.930 . S
H2692 C2702 0.930 . S
H2693 C2703 0.930 . S
C2694 H2688 0.930 . S
C2694 C2695 1.355 . S
C2694 C2696 1.415 . S
C2695 C2694 1.355 . S
C2695 C2697 1.419 . S
C2696 C2694 1.415 . S
C2696 C2701 1.425 . S
C2696 C2703 1.409 . S
C2697 H2689 0.930 . S
C2697 C2695 1.419 . S
C2697 C2698 1.362 . S
C2698 H2690 0.930 . S
C2698 C2697 1.362 . S
C2698 C2701 1.409 . S
C2699 H2691 0.930 . S
C2699 C2700 1.355 . S
C2699 C2701 1.415 . S
C2700 C2699 1.355 . S
C2700 C2702 1.419 . S
C2701 C2696 1.425 . S
C2701 C2698 1.409 . S
C2701 C2699 1.415 . S
C2702 H2692 0.930 . S
C2702 C2700 1.419 . S
C2702 C2703 1.362 . S
C2703 H2693 0.930 . S
C2703 C2696 1.409 . S
C2703 C2702 1.362 . S
H2704 C2710 0.930 . S
H2705 C2713 0.930 . S
H2706 C2714 0.930 . S
H2707 C2715 0.930 . S
H2708 C2718 0.930 . S
H2709 C2719 0.930 . S
C2710 H2704 0.930 . S
C2710 C2711 1.355 . S
C2710 C2712 1.415 . S
C2711 C2710 1.355 . S
C2711 C2713 1.419 . S
C2712 C2710 1.415 . S
C2712 C2717 1.425 . S
C2712 C2719 1.409 . S
C2713 H2705 0.930 . S
C2713 C2711 1.419 . S
C2713 C2714 1.362 . S
C2714 H2706 0.930 . S
C2714 C2713 1.362 . S
C2714 C2717 1.409 . S
C2715 H2707 0.930 . S
C2715 C2716 1.355 . S
C2715 C2717 1.415 . S
C2716 C2715 1.355 . S
C2716 C2718 1.419 . S
C2717 C2712 1.425 . S
C2717 C2714 1.409 . S
C2717 C2715 1.415 . S
C2718 H2708 0.930 . S
C2718 C2716 1.419 . S
C2718 C2719 1.362 . S
C2719 H2709 0.930 . S
C2719 C2712 1.409 . S
C2719 C2718 1.362 . S
H2720 C2726 0.930 . S
H2721 C2729 0.930 . S
H2722 C2730 0.930 . S
H2723 C2731 0.930 . S
H2724 C2734 0.930 . S
H2725 C2735 0.930 . S
C2726 H2720 0.930 . S
C2726 C2727 1.355 . S
C2726 C2728 1.415 . S
C2727 C2726 1.355 . S
C2727 C2729 1.419 . S
C2728 C2726 1.415 . S
C2728 C2733 1.425 . S
C2728 C2735 1.409 . S
C2729 H2721 0.930 . S
C2729 C2727 1.419 . S
C2729 C2730 1.362 . S
C2730 H2722 0.930 . S
C2730 C2729 1.362 . S
C2730 C2733 1.409 . S
C2731 H2723 0.930 . S
C2731 C2732 1.355 . S
C2731 C2733 1.415 . S
C2732 C2731 1.355 . S
C2732 C2734 1.419 . S
C2733 C2728 1.425 . S
C2733 C2730 1.409 . S
C2733 C2731 1.415 . S
C2734 H2724 0.930 . S
C2734 C2732 1.419 . S
C2734 C2735 1.362 . S
C2735 H2725 0.930 . S
C2735 C2728 1.409 . S
C2735 C2734 1.362 . S
H2736 C2742 0.930 . S
H2737 C2745 0.930 . S
H2738 C2746 0.930 . S
H2739 C2747 0.930 . S
H2740 C2750 0.930 . S
H2741 C2751 0.930 . S
C2742 H2736 0.930 . S
C2742 C2743 1.355 . S
C2742 C2744 1.415 . S
C2743 C2742 1.355 . S
C2743 C2745 1.419 . S
C2744 C2742 1.415 . S
C2744 C2749 1.425 . S
C2744 C2751 1.409 . S
C2745 H2737 0.930 . S
C2745 C2743 1.419 . S
C2745 C2746 1.362 . S
C2746 H2738 0.930 . S
C2746 C2745 1.362 . S
C2746 C2749 1.409 . S
C2747 H2739 0.930 . S
C2747 C2748 1.355 . S
C2747 C2749 1.415 . S
C2748 C2747 1.355 . S
C2748 C2750 1.419 . S
C2749 C2744 1.425 . S
C2749 C2746 1.409 . S
C2749 C2747 1.415 . S
C2750 H2740 0.930 . S
C2750 C2748 1.419 . S
C2750 C2751 1.362 . S
C2751 H2741 0.930 . S
C2751 C2744 1.409 . S
C2751 C2750 1.362 . S
H2752 C2758 0.930 . S
H2753 C2761 0.930 . S
H2754 C2762 0.930 . S
H2755 C2763 0.930 . S
H2756 C2766 0.930 . S
H2757 C2767 0.930 . S
C2758 H2752 0.930 . S
C2758 C2759 1.355 . S
C2758 C2760 1.415 . S
C2759 C2758 1.355 . S
C2759 C2761 1.419 . S
C2760 C2758 1.415 . S
C2760 C2765 1.425 . S
C2760 C2767 1.409 . S
C2761 H2753 0.930 . S
C2761 C2759 1.419 . S
C2761 C2762 1.362 . S
C2762 H2754 0.930 . S
C2762 C2761 1.362 . S
C2762 C2765 1.409 . S
C2763 H2755 0.930 . S
C2763 C2764 1.355 . S
C2763 C2765 1.415 . S
C2764 C2763 1.355 . S
C2764 C2766 1.419 . S
C2765 C2760 1.425 . S
C2765 C2762 1.409 . S
C2765 C2763 1.415 . S
C2766 H2756 0.930 . S
C2766 C2764 1.419 . S
C2766 C2767 1.362 . S
C2767 H2757 0.930 . S
C2767 C2760 1.409 . S
C2767 C2766 1.362 . S
H2768 C2774 0.930 . S
H2769 C2777 0.930 . S
H2770 C2778 0.930 . S
H2771 C2779 0.930 . S
H2772 C2782 0.930 . S
H2773 C2783 0.930 . S
C2774 H2768 0.930 . S
C2774 C2775 1.355 . S
C2774 C2776 1.415 . S
C2775 C2774 1.355 . S
C2775 C2777 1.419 . S
C2776 C2774 1.415 . S
C2776 C2781 1.425 . S
C2776 C2783 1.409 . S
C2777 H2769 0.930 . S
C2777 C2775 1.419 . S
C2777 C2778 1.362 . S
C2778 H2770 0.930 . S
C2778 C2777 1.362 . S
C2778 C2781 1.409 . S
C2779 H2771 0.930 . S
C2779 C2780 1.355 . S
C2779 C2781 1.415 . S
C2780 C2779 1.355 . S
C2780 C2782 1.419 . S
C2781 C2776 1.425 . S
C2781 C2778 1.409 . S
C2781 C2779 1.415 . S
C2782 H2772 0.930 . S
C2782 C2780 1.419 . S
C2782 C2783 1.362 . S
C2783 H2773 0.930 . S
C2783 C2776 1.409 . S
C2783 C2782 1.362 . S
H2784 C2790 0.930 . S
H2785 C2793 0.930 . S
H2786 C2794 0.930 . S
H2787 C2795 0.930 . S
H2788 C2798 0.930 . S
H2789 C2799 0.930 . S
C2790 H2784 0.930 . S
C2790 C2791 1.355 . S
C2790 C2792 1.415 . S
C2791 C2790 1.355 . S
C2791 C2793 1.419 . S
C2792 C2790 1.415 . S
C2792 C2797 1.425 . S
C2792 C2799 1.409 . S
C2793 H2785 0.930 . S
C2793 C2791 1.419 . S
C2793 C2794 1.362 . S
C2794 H2786 0.930 . S
C2794 C2793 1.362 . S
C2794 C2797 1.409 . S
C2795 H2787 0.930 . S
C2795 C2796 1.355 . S
C2795 C2797 1.415 1_556 S
C2796 C2795 1.355 . S
C2796 C2798 1.419 1_556 S
C2797 C2792 1.425 . S
C2797 C2794 1.409 . S
C2797 C2795 1.415 1_554 S
C2798 H2788 0.930 . S
C2798 C2796 1.419 1_554 S
C2798 C2799 1.362 . S
C2799 H2789 0.930 . S
C2799 C2792 1.409 . S
C2799 C2798 1.362 . S
H2800 C2806 0.930 . S
H2801 C2809 0.930 . S
H2802 C2810 0.930 . S
H2803 C2811 0.930 . S
H2804 C2814 0.930 . S
H2805 C2815 0.930 . S
C2806 H2800 0.930 . S
C2806 C2807 1.355 . S
C2806 C2808 1.415 1_556 S
C2807 C2806 1.355 . S
C2807 C2809 1.419 1_556 S
C2808 C2806 1.415 1_554 S
C2808 C2813 1.425 . S
C2808 C2815 1.409 . S
C2809 H2801 0.930 . S
C2809 C2807 1.419 1_554 S
C2809 C2810 1.362 . S
C2810 H2802 0.930 . S
C2810 C2809 1.362 . S
C2810 C2813 1.409 . S
C2811 H2803 0.930 . S
C2811 C2812 1.355 . S
C2811 C2813 1.415 . S
C2812 C2811 1.355 . S
C2812 C2814 1.419 . S
C2813 C2808 1.425 . S
C2813 C2810 1.409 . S
C2813 C2811 1.415 . S
C2814 H2804 0.930 . S
C2814 C2812 1.419 . S
C2814 C2815 1.362 . S
C2815 H2805 0.930 . S
C2815 C2808 1.409 . S
C2815 C2814 1.362 . S
H2816 C2822 0.930 . S
H2817 C2825 0.930 . S
H2818 C2826 0.930 . S
H2819 C2827 0.930 . S
H2820 C2830 0.930 . S
H2821 C2831 0.930 . S
C2822 H2816 0.930 . S
C2822 C2823 1.355 . S
C2822 C2824 1.415 1_556 S
C2823 C2822 1.355 . S
C2823 C2825 1.419 1_556 S
C2824 C2822 1.415 1_554 S
C2824 C2829 1.425 . S
C2824 C2831 1.409 . S
C2825 H2817 0.930 . S
C2825 C2823 1.419 1_554 S
C2825 C2826 1.362 . S
C2826 H2818 0.930 . S
C2826 C2825 1.362 . S
C2826 C2829 1.409 . S
C2827 H2819 0.930 . S
C2827 C2828 1.355 . S
C2827 C2829 1.415 . S
C2828 C2827 1.355 . S
C2828 C2830 1.419 . S
C2829 C2824 1.425 . S
C2829 C2826 1.409 . S
C2829 C2827 1.415 . S
C2830 H2820 0.930 . S
C2830 C2828 1.419 . S
C2830 C2831 1.362 . S
C2831 H2821 0.930 . S
C2831 C2824 1.409 . S
C2831 C2830 1.362 . S
H2832 C2838 0.930 . S
H2833 C2841 0.930 . S
H2834 C2842 0.930 . S
H2835 C2843 0.930 . S
H2836 C2846 0.930 . S
H2837 C2847 0.930 . S
C2838 H2832 0.930 . S
C2838 C2839 1.355 . S
C2838 C2840 1.415 . S
C2839 C2838 1.355 . S
C2839 C2841 1.419 . S
C2840 C2838 1.415 . S
C2840 C2845 1.425 . S
C2840 C2847 1.409 . S
C2841 H2833 0.930 . S
C2841 C2839 1.419 . S
C2841 C2842 1.362 . S
C2842 H2834 0.930 . S
C2842 C2841 1.362 . S
C2842 C2845 1.409 . S
C2843 H2835 0.930 . S
C2843 C2844 1.355 . S
C2843 C2845 1.415 . S
C2844 C2843 1.355 . S
C2844 C2846 1.419 . S
C2845 C2840 1.425 . S
C2845 C2842 1.409 . S
C2845 C2843 1.415 . S
C2846 H2836 0.930 . S
C2846 C2844 1.419 . S
C2846 C2847 1.362 . S
C2847 H2837 0.930 . S
C2847 C2840 1.409 . S
C2847 C2846 1.362 . S
H2848 C2854 0.930 . S
H2849 C2857 0.930 . S
H2850 C2858 0.930 . S
H2851 C2859 0.930 . S
H2852 C2862 0.930 . S
H2853 C2863 0.930 . S
C2854 H2848 0.930 . S
C2854 C2855 1.355 . S
C2854 C2856 1.415 . S
C2855 C2854 1.355 . S
C2855 C2857 1.419 . S
C2856 C2854 1.415 . S
C2856 C2861 1.425 . S
C2856 C2863 1.409 . S
C2857 H2849 0.930 . S
C2857 C2855 1.419 . S
C2857 C2858 1.362 . S
C2858 H2850 0.930 . S
C2858 C2857 1.362 . S
C2858 C2861 1.409 . S
C2859 H2851 0.930 . S
C2859 C2860 1.355 . S
C2859 C2861 1.415 . S
C2860 C2859 1.355 . S
C2860 C2862 1.419 . S
C2861 C2856 1.425 . S
C2861 C2858 1.409 . S
C2861 C2859 1.415 . S
C2862 H2852 0.930 . S
C2862 C2860 1.419 . S
C2862 C2863 1.362 . S
C2863 H2853 0.930 . S
C2863 C2856 1.409 . S
C2863 C2862 1.362 . S
H2864 C2870 0.930 . S
H2865 C2873 0.930 . S
H2866 C2874 0.930 . S
H2867 C2875 0.930 . S
H2868 C2878 0.930 . S
H2869 C2879 0.930 . S
C2870 H2864 0.930 . S
C2870 C2871 1.355 . S
C2870 C2872 1.415 . S
C2871 C2870 1.355 . S
C2871 C2873 1.419 . S
C2872 C2870 1.415 . S
C2872 C2877 1.425 . S
C2872 C2879 1.409 . S
C2873 H2865 0.930 . S
C2873 C2871 1.419 . S
C2873 C2874 1.362 . S
C2874 H2866 0.930 . S
C2874 C2873 1.362 . S
C2874 C2877 1.409 . S
C2875 H2867 0.930 . S
C2875 C2876 1.355 . S
C2875 C2877 1.415 . S
C2876 C2875 1.355 . S
C2876 C2878 1.419 . S
C2877 C2872 1.425 . S
C2877 C2874 1.409 . S
C2877 C2875 1.415 . S
C2878 H2868 0.930 . S
C2878 C2876 1.419 . S
C2878 C2879 1.362 . S
C2879 H2869 0.930 . S
C2879 C2872 1.409 . S
C2879 C2878 1.362 . S
H2880 C2886 0.930 . S
H2881 C2889 0.930 . S
H2882 C2890 0.930 . S
H2883 C2891 0.930 . S
H2884 C2894 0.930 . S
H2885 C2895 0.930 . S
C2886 H2880 0.930 . S
C2886 C2887 1.355 . S
C2886 C2888 1.415 1_455 S
C2887 C2886 1.355 . S
C2887 C2889 1.419 . S
C2888 C2886 1.415 1_655 S
C2888 C2893 1.425 1_655 S
C2888 C2895 1.409 . S
C2889 H2881 0.930 . S
C2889 C2887 1.419 . S
C2889 C2890 1.362 . S
C2890 H2882 0.930 . S
C2890 C2889 1.362 . S
C2890 C2893 1.409 . S
C2891 H2883 0.930 . S
C2891 C2892 1.355 . S
C2891 C2893 1.415 1_655 S
C2892 C2891 1.355 . S
C2892 C2894 1.419 . S
C2893 C2888 1.425 1_455 S
C2893 C2890 1.409 . S
C2893 C2891 1.415 1_455 S
C2894 H2884 0.930 . S
C2894 C2892 1.419 . S
C2894 C2895 1.362 . S
C2895 H2885 0.930 . S
C2895 C2888 1.409 . S
C2895 C2894 1.362 . S
H2896 C2902 0.930 . S
H2897 C2905 0.930 . S
H2898 C2906 0.930 . S
H2899 C2907 0.930 . S
H2900 C2910 0.930 . S
H2901 C2911 0.930 . S
C2902 H2896 0.930 . S
C2902 C2903 1.355 . S
C2902 C2904 1.415 . S
C2903 C2902 1.355 . S
C2903 C2905 1.419 . S
C2904 C2902 1.415 . S
C2904 C2909 1.425 . S
C2904 C2911 1.409 . S
C2905 H2897 0.930 . S
C2905 C2903 1.419 . S
C2905 C2906 1.362 . S
C2906 H2898 0.930 . S
C2906 C2905 1.362 . S
C2906 C2909 1.409 . S
C2907 H2899 0.930 . S
C2907 C2908 1.355 . S
C2907 C2909 1.415 . S
C2908 C2907 1.355 . S
C2908 C2910 1.419 . S
C2909 C2904 1.425 . S
C2909 C2906 1.409 . S
C2909 C2907 1.415 . S
C2910 H2900 0.930 . S
C2910 C2908 1.419 . S
C2910 C2911 1.362 . S
C2911 H2901 0.930 . S
C2911 C2904 1.409 . S
C2911 C2910 1.362 . S
H2912 C2918 0.930 . S
H2913 C2921 0.930 . S
H2914 C2922 0.930 . S
H2915 C2923 0.930 . S
H2916 C2926 0.930 . S
H2917 C2927 0.930 . S
C2918 H2912 0.930 . S
C2918 C2919 1.355 . S
C2918 C2920 1.415 1_545 S
C2919 C2918 1.355 . S
C2919 C2921 1.419 . S
C2920 C2918 1.415 1_565 S
C2920 C2925 1.425 1_565 S
C2920 C2927 1.409 . S
C2921 H2913 0.930 . S
C2921 C2919 1.419 . S
C2921 C2922 1.362 . S
C2922 H2914 0.930 . S
C2922 C2921 1.362 . S
C2922 C2925 1.409 . S
C2923 H2915 0.930 . S
C2923 C2924 1.355 . S
C2923 C2925 1.415 1_565 S
C2924 C2923 1.355 . S
C2924 C2926 1.419 . S
C2925 C2920 1.425 1_545 S
C2925 C2922 1.409 . S
C2925 C2923 1.415 1_545 S
C2926 H2916 0.930 . S
C2926 C2924 1.419 . S
C2926 C2927 1.362 . S
C2927 H2917 0.930 . S
C2927 C2920 1.409 . S
C2927 C2926 1.362 . S
H2928 C2934 0.930 . S
H2929 C2937 0.930 . S
H2930 C2938 0.930 . S
H2931 C2939 0.930 . S
H2932 C2942 0.930 . S
H2933 C2943 0.930 . S
C2934 H2928 0.930 . S
C2934 C2935 1.355 . S
C2934 C2936 1.415 . S
C2935 C2934 1.355 . S
C2935 C2937 1.419 . S
C2936 C2934 1.415 . S
C2936 C2941 1.425 1_565 S
C2936 C2943 1.409 . S
C2937 H2929 0.930 . S
C2937 C2935 1.419 . S
C2937 C2938 1.362 1_565 S
C2938 H2930 0.930 . S
C2938 C2937 1.362 1_545 S
C2938 C2941 1.409 . S
C2939 H2931 0.930 . S
C2939 C2940 1.355 . S
C2939 C2941 1.415 . S
C2940 C2939 1.355 . S
C2940 C2942 1.419 . S
C2941 C2936 1.425 1_545 S
C2941 C2938 1.409 . S
C2941 C2939 1.415 . S
C2942 H2932 0.930 . S
C2942 C2940 1.419 . S
C2942 C2943 1.362 1_545 S
C2943 H2933 0.930 . S
C2943 C2936 1.409 . S
C2943 C2942 1.362 1_565 S
H2944 C2950 0.930 . S
H2945 C2953 0.930 . S
H2946 C2954 0.930 . S
H2947 C2955 0.930 . S
H2948 C2958 0.930 . S
H2949 C2959 0.930 . S
C2950 H2944 0.930 . S
C2950 C2951 1.355 . S
C2950 C2952 1.415 1_655 S
C2951 C2950 1.355 . S
C2951 C2953 1.419 . S
C2952 C2950 1.415 1_455 S
C2952 C2957 1.425 1_455 S
C2952 C2959 1.409 . S
C2953 H2945 0.930 . S
C2953 C2951 1.419 . S
C2953 C2954 1.362 . S
C2954 H2946 0.930 . S
C2954 C2953 1.362 . S
C2954 C2957 1.409 . S
C2955 H2947 0.930 . S
C2955 C2956 1.355 . S
C2955 C2957 1.415 1_455 S
C2956 C2955 1.355 . S
C2956 C2958 1.419 . S
C2957 C2952 1.425 1_655 S
C2957 C2954 1.409 . S
C2957 C2955 1.415 1_655 S
C2958 H2948 0.930 . S
C2958 C2956 1.419 . S
C2958 C2959 1.362 . S
C2959 H2949 0.930 . S
C2959 C2952 1.409 . S
C2959 C2958 1.362 . S
H2960 C2966 0.930 . S
H2961 C2969 0.930 . S
H2962 C2970 0.930 . S
H2963 C2971 0.930 . S
H2964 C2974 0.930 . S
H2965 C2975 0.930 . S
C2966 H2960 0.930 . S
C2966 C2967 1.355 . S
C2966 C2968 1.415 . S
C2967 C2966 1.355 . S
C2967 C2969 1.419 . S
C2968 C2966 1.415 . S
C2968 C2973 1.425 . S
C2968 C2975 1.409 . S
C2969 H2961 0.930 . S
C2969 C2967 1.419 . S
C2969 C2970 1.362 . S
C2970 H2962 0.930 . S
C2970 C2969 1.362 . S
C2970 C2973 1.409 . S
C2971 H2963 0.930 . S
C2971 C2972 1.355 . S
C2971 C2973 1.415 . S
C2972 C2971 1.355 . S
C2972 C2974 1.419 . S
C2973 C2968 1.425 . S
C2973 C2970 1.409 . S
C2973 C2971 1.415 . S
C2974 H2964 0.930 . S
C2974 C2972 1.419 . S
C2974 C2975 1.362 . S
C2975 H2965 0.930 . S
C2975 C2968 1.409 . S
C2975 C2974 1.362 . S
H2976 C2982 0.930 . S
H2977 C2985 0.930 . S
H2978 C2986 0.930 . S
H2979 C2987 0.930 . S
H2980 C2990 0.930 . S
H2981 C2991 0.930 . S
C2982 H2976 0.930 . S
C2982 C2983 1.355 . S
C2982 C2984 1.415 . S
C2983 C2982 1.355 . S
C2983 C2985 1.419 . S
C2984 C2982 1.415 . S
C2984 C2989 1.425 . S
C2984 C2991 1.409 . S
C2985 H2977 0.930 . S
C2985 C2983 1.419 . S
C2985 C2986 1.362 . S
C2986 H2978 0.930 . S
C2986 C2985 1.362 . S
C2986 C2989 1.409 . S
C2987 H2979 0.930 . S
C2987 C2988 1.355 . S
C2987 C2989 1.415 . S
C2988 C2987 1.355 . S
C2988 C2990 1.419 . S
C2989 C2984 1.425 . S
C2989 C2986 1.409 . S
C2989 C2987 1.415 . S
C2990 H2980 0.930 . S
C2990 C2988 1.419 . S
C2990 C2991 1.362 . S
C2991 H2981 0.930 . S
C2991 C2984 1.409 . S
C2991 C2990 1.362 . S
H2992 C2998 0.930 . S
H2993 C3001 0.930 . S
H2994 C3002 0.930 . S
H2995 C3003 0.930 . S
H2996 C3006 0.930 . S
H2997 C3007 0.930 . S
C2998 H2992 0.930 . S
C2998 C2999 1.355 . S
C2998 C3000 1.415 . S
C2999 C2998 1.355 . S
C2999 C3001 1.419 . S
C3000 C2998 1.415 . S
C3000 C3005 1.425 . S
C3000 C3007 1.409 . S
C3001 H2993 0.930 . S
C3001 C2999 1.419 . S
C3001 C3002 1.362 . S
C3002 H2994 0.930 . S
C3002 C3001 1.362 . S
C3002 C3005 1.409 . S
C3003 H2995 0.930 . S
C3003 C3004 1.355 . S
C3003 C3005 1.415 . S
C3004 C3003 1.355 . S
C3004 C3006 1.419 . S
C3005 C3000 1.425 . S
C3005 C3002 1.409 . S
C3005 C3003 1.415 . S
C3006 H2996 0.930 . S
C3006 C3004 1.419 . S
C3006 C3007 1.362 . S
C3007 H2997 0.930 . S
C3007 C3000 1.409 . S
C3007 C3006 1.362 . S
H3008 C3014 0.930 . S
H3009 C3017 0.930 . S
H3010 C3018 0.930 . S
H3011 C3019 0.930 . S
H3012 C3022 0.930 . S
H3013 C3023 0.930 . S
C3014 H3008 0.930 . S
C3014 C3015 1.355 . S
C3014 C3016 1.415 . S
C3015 C3014 1.355 . S
C3015 C3017 1.419 . S
C3016 C3014 1.415 . S
C3016 C3021 1.425 . S
C3016 C3023 1.409 . S
C3017 H3009 0.930 . S
C3017 C3015 1.419 . S
C3017 C3018 1.362 . S
C3018 H3010 0.930 . S
C3018 C3017 1.362 . S
C3018 C3021 1.409 . S
C3019 H3011 0.930 . S
C3019 C3020 1.355 . S
C3019 C3021 1.415 . S
C3020 C3019 1.355 . S
C3020 C3022 1.419 . S
C3021 C3016 1.425 . S
C3021 C3018 1.409 . S
C3021 C3019 1.415 . S
C3022 H3012 0.930 . S
C3022 C3020 1.419 . S
C3022 C3023 1.362 . S
C3023 H3013 0.930 . S
C3023 C3016 1.409 . S
C3023 C3022 1.362 . S
H3024 C3030 0.930 . S
H3025 C3033 0.930 . S
H3026 C3034 0.930 . S
H3027 C3035 0.930 . S
H3028 C3038 0.930 . S
H3029 C3039 0.930 . S
C3030 H3024 0.930 . S
C3030 C3031 1.355 1_556 S
C3030 C3032 1.415 . S
C3031 C3030 1.355 1_554 S
C3031 C3033 1.419 . S
C3032 C3030 1.415 . S
C3032 C3037 1.425 . S
C3032 C3039 1.409 . S
C3033 H3025 0.930 . S
C3033 C3031 1.419 . S
C3033 C3034 1.362 . S
C3034 H3026 0.930 . S
C3034 C3033 1.362 . S
C3034 C3037 1.409 1_554 S
C3035 H3027 0.930 . S
C3035 C3036 1.355 . S
C3035 C3037 1.415 . S
C3036 C3035 1.355 . S
C3036 C3038 1.419 . S
C3037 C3032 1.425 . S
C3037 C3034 1.409 1_556 S
C3037 C3035 1.415 . S
C3038 H3028 0.930 . S
C3038 C3036 1.419 . S
C3038 C3039 1.362 . S
C3039 H3029 0.930 . S
C3039 C3032 1.409 . S
C3039 C3038 1.362 . S
H3040 C3046 0.930 . S
H3041 C3049 0.930 . S
H3042 C3050 0.930 . S
H3043 C3051 0.930 . S
H3044 C3054 0.930 . S
H3045 C3055 0.930 1_554 S
C3046 H3040 0.930 . S
C3046 C3047 1.355 . S
C3046 C3048 1.415 1_554 S
C3047 C3046 1.355 . S
C3047 C3049 1.419 1_554 S
C3048 C3046 1.415 1_556 S
C3048 C3053 1.425 . S
C3048 C3055 1.409 . S
C3049 H3041 0.930 . S
C3049 C3047 1.419 1_556 S
C3049 C3050 1.362 . S
C3050 H3042 0.930 . S
C3050 C3049 1.362 . S
C3050 C3053 1.409 . S
C3051 H3043 0.930 . S
C3051 C3052 1.355 . S
C3051 C3053 1.415 . S
C3052 C3051 1.355 . S
C3052 C3054 1.419 . S
C3053 C3048 1.425 . S
C3053 C3050 1.409 . S
C3053 C3051 1.415 . S
C3054 H3044 0.930 . S
C3054 C3052 1.419 . S
C3054 C3055 1.362 . S
C3055 H3045 0.930 1_556 S
C3055 C3048 1.409 . S
C3055 C3054 1.362 . S
H3056 C3062 0.930 . S
H3057 C3065 0.930 . S
H3058 C3066 0.930 . S
H3059 C3067 0.930 . S
H3060 C3070 0.930 . S
H3061 C3071 0.930 1_554 S
C3062 H3056 0.930 . S
C3062 C3063 1.355 . S
C3062 C3064 1.415 1_554 S
C3063 C3062 1.355 . S
C3063 C3065 1.419 1_554 S
C3064 C3062 1.415 1_556 S
C3064 C3069 1.425 . S
C3064 C3071 1.409 . S
C3065 H3057 0.930 . S
C3065 C3063 1.419 1_556 S
C3065 C3066 1.362 . S
C3066 H3058 0.930 . S
C3066 C3065 1.362 . S
C3066 C3069 1.409 . S
C3067 H3059 0.930 . S
C3067 C3068 1.355 . S
C3067 C3069 1.415 . S
C3068 C3067 1.355 . S
C3068 C3070 1.419 . S
C3069 C3064 1.425 . S
C3069 C3066 1.409 . S
C3069 C3067 1.415 . S
C3070 H3060 0.930 . S
C3070 C3068 1.419 . S
C3070 C3071 1.362 . S
C3071 H3061 0.930 1_556 S
C3071 C3064 1.409 . S
C3071 C3070 1.362 . S
H3072 C3078 0.930 . S
H3073 C3081 0.930 . S
H3074 C3082 0.930 . S
H3075 C3083 0.930 . S
H3076 C3086 0.930 . S
H3077 C3087 0.930 . S
C3078 H3072 0.930 . S
C3078 C3079 1.355 . S
C3078 C3080 1.415 . S
C3079 C3078 1.355 . S
C3079 C3081 1.419 . S
C3080 C3078 1.415 . S
C3080 C3085 1.425 . S
C3080 C3087 1.409 . S
C3081 H3073 0.930 . S
C3081 C3079 1.419 . S
C3081 C3082 1.362 . S
C3082 H3074 0.930 . S
C3082 C3081 1.362 . S
C3082 C3085 1.409 . S
C3083 H3075 0.930 . S
C3083 C3084 1.355 . S
C3083 C3085 1.415 . S
C3084 C3083 1.355 . S
C3084 C3086 1.419 . S
C3085 C3080 1.425 . S
C3085 C3082 1.409 . S
C3085 C3083 1.415 . S
C3086 H3076 0.930 . S
C3086 C3084 1.419 . S
C3086 C3087 1.362 . S
C3087 H3077 0.930 . S
C3087 C3080 1.409 . S
C3087 C3086 1.362 . S
H3088 C3094 0.930 . S
H3089 C3097 0.930 . S
H3090 C3098 0.930 . S
H3091 C3099 0.930 . S
H3092 C3102 0.930 . S
H3093 C3103 0.930 . S
C3094 H3088 0.930 . S
C3094 C3095 1.355 . S
C3094 C3096 1.415 . S
C3095 C3094 1.355 . S
C3095 C3097 1.419 . S
C3096 C3094 1.415 . S
C3096 C3101 1.425 . S
C3096 C3103 1.409 . S
C3097 H3089 0.930 . S
C3097 C3095 1.419 . S
C3097 C3098 1.362 . S
C3098 H3090 0.930 . S
C3098 C3097 1.362 . S
C3098 C3101 1.409 . S
C3099 H3091 0.930 . S
C3099 C3100 1.355 . S
C3099 C3101 1.415 . S
C3100 C3099 1.355 . S
C3100 C3102 1.419 . S
C3101 C3096 1.425 . S
C3101 C3098 1.409 . S
C3101 C3099 1.415 . S
C3102 H3092 0.930 . S
C3102 C3100 1.419 . S
C3102 C3103 1.362 . S
C3103 H3093 0.930 . S
C3103 C3096 1.409 . S
C3103 C3102 1.362 . S
H3104 C3110 0.930 . S
H3105 C3113 0.930 . S
H3106 C3114 0.930 . S
H3107 C3115 0.930 . S
H3108 C3118 0.930 . S
H3109 C3119 0.930 . S
C3110 H3104 0.930 . S
C3110 C3111 1.355 . S
C3110 C3112 1.415 . S
C3111 C3110 1.355 . S
C3111 C3113 1.419 . S
C3112 C3110 1.415 . S
C3112 C3117 1.425 . S
C3112 C3119 1.409 . S
C3113 H3105 0.930 . S
C3113 C3111 1.419 . S
C3113 C3114 1.362 . S
C3114 H3106 0.930 . S
C3114 C3113 1.362 . S
C3114 C3117 1.409 . S
C3115 H3107 0.930 . S
C3115 C3116 1.355 . S
C3115 C3117 1.415 . S
C3116 C3115 1.355 . S
C3116 C3118 1.419 . S
C3117 C3112 1.425 . S
C3117 C3114 1.409 . S
C3117 C3115 1.415 . S
C3118 H3108 0.930 . S
C3118 C3116 1.419 . S
C3118 C3119 1.362 . S
C3119 H3109 0.930 . S
C3119 C3112 1.409 . S
C3119 C3118 1.362 . S
H3120 C3126 0.930 . S
H3121 C3129 0.930 . S
H3122 C3130 0.930 . S
H3123 C3131 0.930 . S
H3124 C3134 0.930 . S
H3125 C3135 0.930 . S
C3126 H3120 0.930 . S
C3126 C3127 1.355 . S
C3126 C3128 1.415 . S
C3127 C3126 1.355 . S
C3127 C3129 1.419 . S
C3128 C3126 1.415 . S
C3128 C3133 1.425 . S
C3128 C3135 1.409 . S
C3129 H3121 0.930 . S
C3129 C3127 1.419 . S
C3129 C3130 1.362 . S
C3130 H3122 0.930 . S
C3130 C3129 1.362 . S
C3130 C3133 1.409 . S
C3131 H3123 0.930 . S
C3131 C3132 1.355 . S
C3131 C3133 1.415 . S
C3132 C3131 1.355 . S
C3132 C3134 1.419 . S
C3133 C3128 1.425 . S
C3133 C3130 1.409 . S
C3133 C3131 1.415 . S
C3134 H3124 0.930 . S
C3134 C3132 1.419 . S
C3134 C3135 1.362 . S
C3135 H3125 0.930 . S
C3135 C3128 1.409 . S
C3135 C3134 1.362 . S
H3136 C3142 0.930 . S
H3137 C3145 0.930 . S
H3138 C3146 0.930 . S
H3139 C3147 0.930 . S
H3140 C3150 0.930 . S
H3141 C3151 0.930 . S
C3142 H3136 0.930 . S
C3142 C3143 1.355 . S
C3142 C3144 1.415 . S
C3143 C3142 1.355 . S
C3143 C3145 1.419 . S
C3144 C3142 1.415 . S
C3144 C3149 1.425 . S
C3144 C3151 1.409 . S
C3145 H3137 0.930 . S
C3145 C3143 1.419 . S
C3145 C3146 1.362 . S
C3146 H3138 0.930 . S
C3146 C3145 1.362 . S
C3146 C3149 1.409 . S
C3147 H3139 0.930 . S
C3147 C3148 1.355 . S
C3147 C3149 1.415 . S
C3148 C3147 1.355 . S
C3148 C3150 1.419 . S
C3149 C3144 1.425 . S
C3149 C3146 1.409 . S
C3149 C3147 1.415 . S
C3150 H3140 0.930 . S
C3150 C3148 1.419 . S
C3150 C3151 1.362 . S
C3151 H3141 0.930 . S
C3151 C3144 1.409 . S
C3151 C3150 1.362 . S
H3152 C3158 0.930 . S
H3153 C3161 0.930 . S
H3154 C3162 0.930 . S
H3155 C3163 0.930 . S
H3156 C3166 0.930 . S
H3157 C3167 0.930 . S
C3158 H3152 0.930 . S
C3158 C3159 1.355 . S
C3158 C3160 1.415 . S
C3159 C3158 1.355 . S
C3159 C3161 1.419 . S
C3160 C3158 1.415 . S
C3160 C3165 1.425 . S
C3160 C3167 1.409 . S
C3161 H3153 0.930 . S
C3161 C3159 1.419 . S
C3161 C3162 1.362 . S
C3162 H3154 0.930 . S
C3162 C3161 1.362 . S
C3162 C3165 1.409 . S
C3163 H3155 0.930 . S
C3163 C3164 1.355 . S
C3163 C3165 1.415 . S
C3164 C3163 1.355 . S
C3164 C3166 1.419 . S
C3165 C3160 1.425 . S
C3165 C3162 1.409 . S
C3165 C3163 1.415 . S
C3166 H3156 0.930 . S
C3166 C3164 1.419 . S
C3166 C3167 1.362 . S
C3167 H3157 0.930 . S
C3167 C3160 1.409 . S
C3167 C3166 1.362 . S
C1447 C609 2.206 . S
C1452 C9 2.183 . S
C1463 C649 2.166 . S
C1468 C49 2.192 . S
C1479 C89 2.201 . S
C1484 C689 2.177 . S
C1495 C129 2.176 . S
C1500 C969 2.155 . S
C1511 C169 2.184 . S
C1516 C1009 2.207 . S
C1527 C209 2.153 . S
C1532 C1049 2.152 . S
C1543 C1338 2.215 . S
C1548 C258 2.201 . S
C1559 C1378 2.171 . S
C1564 C298 2.152 . S
C1575 C338 2.209 . S
C1580 C1418 2.187 . S
C1591 C738 2.156 . S
C1596 C378 2.178 . S
C1607 C418 2.162 . S
C1612 C778 2.149 . S
C1623 C458 2.167 . S
C1628 C818 2.151 . S
C1639 C1089 2.165 . S
C1644 C489 2.150 . S
C1655 C529 2.149 . S
C1660 C1129 2.162 . S
C1671 C1169 2.201 . S
C1676 C569 2.176 . S
C1687 C1218 2.178 . S
C1692 C858 2.156 . S
C1703 C1258 2.151 . S
C1708 C898 2.155 . S
C1719 C938 2.182 . S
C1724 C1298 2.206 . S
C1735 C15 0.459 . S
C1740 C175 0.356 . S
C1751 C55 0.330 . S
C1756 C215 0.313 . S
C1767 C95 0.446 . S
C1772 C135 0.423 . S
C1783 C246 0.357 . S
C1788 C406 0.460 . S
C1799 C286 0.461 . S
C1804 C446 0.378 . S
C1815 C326 0.449 . S
C1820 C366 0.419 . S
C1831 C495 0.286 . S
C1836 C655 0.383 . S
C1847 C695 0.458 . S
C1852 C535 0.345 . S
C1863 C575 0.292 . S
C1868 C615 0.421 . S
C1879 C726 0.438 . S
C1884 C886 0.307 . S
C1895 C766 0.455 . S
C1900 C926 0.405 . S
C1911 C846 0.449 . S
C1916 C806 0.323 . S
C1927 C975 0.295 . S
C1932 C1135 0.356 . S
C1943 C1175 0.397 . S
C1948 C1015 0.458 . S
C1959 C1055 0.457 . S
C1964 C1095 0.402 . S
C1975 C1206 0.317 . S
C1980 C1366 0.446 . S
C1991 C1246 0.461 . S
C1996 C1406 0.370 . S
C2007 C1286 0.323 . S
C2012 C1326 0.320 . S
C2023 C415 1.649 . S
C2028 C19 1.676 . S
C2039 C59 1.718 . S
C2044 C455 1.652 . S
C2055 C99 1.718 . S
C2060 C375 1.653 . S
C2071 C139 1.708 . S
C2076 C335 1.669 . S
C2087 C179 1.692 . S
C2092 C255 1.668 . S
C2103 C295 1.607 . S
C2108 C219 1.671 . S
C2119 C250 1.718 . S
C2124 C166 1.653 . S
C2135 C206 1.635 . S
C2140 C290 1.719 . S
C2151 C330 1.716 . S
C2156 C126 1.661 . S
C2167 C370 1.698 . S
C2172 C86 1.594 . S
C2183 C6 1.626 . S
C2188 C410 1.670 . S
C2199 C46 1.667 . S
C2204 C450 1.710 . S
C2215 C895 1.602 . S
C2220 C499 1.707 . S
C2231 C935 1.671 . S
C2236 C539 1.704 . S
C2247 C855 1.602 . S
C2252 C579 1.673 . S
C2263 C815 1.639 . S
C2268 C619 1.672 1_554 S
C2279 C659 1.698 1_554 S
C2284 C735 1.670 . S
C2295 C775 1.597 . S
C2300 C699 1.675 1_554 S
C2311 C646 1.664 . S
C2316 C730 1.713 . S
C2327 C770 1.714 . S
C2332 C686 1.663 . S
C2343 C810 1.673 . S
C2348 C606 1.639 . S
C2359 C566 1.669 . S
C2364 C850 1.708 . S
C2375 C890 1.719 . S
C2380 C486 1.648 . S
C2391 C930 1.708 . S
C2396 C526 1.669 . S
C2407 C979 1.681 . S
C2412 C1375 1.658 . S
C2423 C1019 1.692 . S
C2428 C1415 1.668 . S
C2439 C1335 1.670 . S
C2444 C1059 1.697 . S
C2455 C1295 1.644 . S
C2460 C1099 1.719 . S
C2471 C1139 1.683 . S
C2476 C1215 1.591 . S
C2487 C1255 1.596 . S
C2492 C1179 1.677 . S
C2503 C1210 1.679 . S
C2508 C1126 1.654 1_556 S
C2519 C1166 1.659 1_556 S
C2524 C1250 1.683 . S
C2535 C1290 1.693 . S
C2540 C1086 1.668 1_556 S
C2551 C1330 1.716 . S
C2556 C1046 1.623 . S
C2567 C966 1.659 . S
C2572 C1370 1.683 . S
C2583 C1006 1.597 . S
C2588 C1410 1.676 . S
C2599 C10 3.310 . S
C2604 C170 3.315 . S
C2615 C210 3.319 . S
C2620 C50 3.326 . S
C2631 C90 3.312 . S
C2636 C130 3.319 . S
C2647 C259 3.323 1_556 S
C2652 C419 3.326 . S
C2663 C459 3.324 . S
C2668 C299 3.316 1_556 S
C2679 C339 3.315 1_556 S
C2684 C379 3.323 . S
C2695 C650 3.326 . S
C2700 C490 3.324 . S
C2711 C690 3.324 . S
C2716 C530 3.326 . S
C2727 C610 3.325 . S
C2732 C570 3.326 . S
C2743 C899 3.326 . S
C2748 C739 3.324 . S
C2759 C779 3.311 . S
C2764 C939 3.313 . S
C2775 C859 3.321 . S
C2780 C819 3.313 . S
C2791 C1130 3.326 . S
C2796 C970 3.323 . S
C2807 C1010 3.320 . S
C2812 C1170 3.326 . S
C2823 C1050 3.320 . S
C2828 C1090 3.326 . S
C2839 C1379 3.313 . S
C2844 C1219 3.311 . S
C2855 C1259 3.315 . S
C2860 C1419 3.310 . S
C2871 C1299 3.313 . S
C2876 C1339 3.311 . S
C2887 C18 0.871 . S
C2892 C249 0.871 . S
C2903 C58 0.953 . S
C2908 C289 0.953 . S
C2919 C329 1.059 . S
C2924 C98 1.059 . S
C2935 C369 0.864 . S
C2940 C138 0.864 . S
C2951 C178 1.018 . S
C2956 C409 1.018 . S
C2967 C218 1.046 . S
C2972 C449 1.046 . S
C2983 C729 0.933 . S
C2988 C498 0.933 . S
C2999 C538 0.922 . S
C3004 C769 0.923 . S
C3015 C809 0.938 . S
C3020 C578 0.938 . S
C3031 C849 1.053 . S
C3036 C618 1.053 . S
C3047 C889 0.919 . S
C3052 C658 0.919 . S
C3063 C929 0.889 . S
C3068 C698 0.889 . S
C3079 C1209 0.958 . S
C3084 C978 0.958 . S
C3095 C1018 1.053 . S
C3100 C1249 1.053 . S
C3111 C1289 0.863 . S
C3116 C1058 0.863 . S
C3127 C1329 0.911 . S
C3132 C1098 0.911 . S
C3143 C1369 0.981 . S
C3148 C1138 0.981 . S
C3159 C1178 1.059 . S
C3164 C1409 1.059 . S
