# Generated by pormake.
# Topology pcl, (4)-cn, num edge types: 1
# Building blocks:
#     Node 0, Type 0, BuildingBlock: AZAVOO_clean_sbu_0, # of connection points: 4
#     Node 1, Type 0, BuildingBlock: AZAVOO_clean_sbu_0, # of connection points: 4
#     Node 2, Type 0, BuildingBlock: AZAVOO_clean_sbu_0, # of connection points: 4
#     Node 3, Type 0, BuildingBlock: AZAVOO_clean_sbu_0, # of connection points: 4
#     Node 4, Type 0, BuildingBlock: AZAVOO_clean_sbu_0, # of connection points: 4
#     Node 5, Type 0, BuildingBlock: AZAVOO_clean_sbu_0, # of connection points: 4
#     Node 6, Type 0, BuildingBlock: AZAVOO_clean_sbu_0, # of connection points: 4
#     Node 7, Type 0, BuildingBlock: AZAVOO_clean_sbu_0, # of connection points: 4
#     Node 8, Type 0, BuildingBlock: AZAVOO_clean_sbu_0, # of connection points: 4
#     Node 9, Type 0, BuildingBlock: AZAVOO_clean_sbu_0, # of connection points: 4
#     Node 10, Type 0, BuildingBlock: AZAVOO_clean_sbu_0, # of connection points: 4
#     Node 11, Type 0, BuildingBlock: AZAVOO_clean_sbu_0, # of connection points: 4
#     Node 12, Type 0, BuildingBlock: AZAVOO_clean_sbu_0, # of connection points: 4
#     Node 13, Type 0, BuildingBlock: AZAVOO_clean_sbu_0, # of connection points: 4
#     Node 14, Type 0, BuildingBlock: AZAVOO_clean_sbu_0, # of connection points: 4
#     Node 15, Type 0, BuildingBlock: AZAVOO_clean_sbu_0, # of connection points: 4
#     Edge 16, Type (0, 0), BuildingBlock: EYOCIG_clean_linker_4, # of connection points: 2
#     Edge 17, Type (0, 0), BuildingBlock: EYOCIG_clean_linker_4, # of connection points: 2
#     Edge 18, Type (0, 0), BuildingBlock: EYOCIG_clean_linker_4, # of connection points: 2
#     Edge 19, Type (0, 0), BuildingBlock: EYOCIG_clean_linker_4, # of connection points: 2
#     Edge 20, Type (0, 0), BuildingBlock: EYOCIG_clean_linker_4, # of connection points: 2
#     Edge 21, Type (0, 0), BuildingBlock: EYOCIG_clean_linker_4, # of connection points: 2
#     Edge 22, Type (0, 0), BuildingBlock: EYOCIG_clean_linker_4, # of connection points: 2
#     Edge 23, Type (0, 0), BuildingBlock: EYOCIG_clean_linker_4, # of connection points: 2
#     Edge 24, Type (0, 0), BuildingBlock: EYOCIG_clean_linker_4, # of connection points: 2
#     Edge 25, Type (0, 0), BuildingBlock: EYOCIG_clean_linker_4, # of connection points: 2
#     Edge 26, Type (0, 0), BuildingBlock: EYOCIG_clean_linker_4, # of connection points: 2
#     Edge 27, Type (0, 0), BuildingBlock: EYOCIG_clean_linker_4, # of connection points: 2
#     Edge 28, Type (0, 0), BuildingBlock: EYOCIG_clean_linker_4, # of connection points: 2
#     Edge 29, Type (0, 0), BuildingBlock: EYOCIG_clean_linker_4, # of connection points: 2
#     Edge 30, Type (0, 0), BuildingBlock: EYOCIG_clean_linker_4, # of connection points: 2
#     Edge 31, Type (0, 0), BuildingBlock: EYOCIG_clean_linker_4, # of connection points: 2
#     Edge 32, Type (0, 0), BuildingBlock: EYOCIG_clean_linker_4, # of connection points: 2
#     Edge 33, Type (0, 0), BuildingBlock: EYOCIG_clean_linker_4, # of connection points: 2
#     Edge 34, Type (0, 0), BuildingBlock: EYOCIG_clean_linker_4, # of connection points: 2
#     Edge 35, Type (0, 0), BuildingBlock: EYOCIG_clean_linker_4, # of connection points: 2
#     Edge 36, Type (0, 0), BuildingBlock: EYOCIG_clean_linker_4, # of connection points: 2
#     Edge 37, Type (0, 0), BuildingBlock: EYOCIG_clean_linker_4, # of connection points: 2
#     Edge 38, Type (0, 0), BuildingBlock: EYOCIG_clean_linker_4, # of connection points: 2
#     Edge 39, Type (0, 0), BuildingBlock: EYOCIG_clean_linker_4, # of connection points: 2
#     Edge 40, Type (0, 0), BuildingBlock: EYOCIG_clean_linker_4, # of connection points: 2
#     Edge 41, Type (0, 0), BuildingBlock: EYOCIG_clean_linker_4, # of connection points: 2
#     Edge 42, Type (0, 0), BuildingBlock: EYOCIG_clean_linker_4, # of connection points: 2
#     Edge 43, Type (0, 0), BuildingBlock: EYOCIG_clean_linker_4, # of connection points: 2
#     Edge 44, Type (0, 0), BuildingBlock: EYOCIG_clean_linker_4, # of connection points: 2
#     Edge 45, Type (0, 0), BuildingBlock: EYOCIG_clean_linker_4, # of connection points: 2
#     Edge 46, Type (0, 0), BuildingBlock: EYOCIG_clean_linker_4, # of connection points: 2
#     Edge 47, Type (0, 0), BuildingBlock: EYOCIG_clean_linker_4, # of connection points: 2
# Relax obj value: 0.076
# Max RMSD: 0.074
# Mean RMSD: 0.072
data_MOF--net-pcl--node1-AZAVOO_clean_sbu_0--edge1-EYOCIG_clean_linker_4
_symmetry_space_group_name_H-M    P1
_symmetry_Int_Tables_number       1
_symmetry_cell_setting            triclinic
loop_
_symmetry_equiv_pos_as_xyz
'x, y, z'
_cell_length_a     31.031836
_cell_length_b     42.244296
_cell_length_c     37.323498
_cell_angle_alpha  89.963198
_cell_angle_beta   90.007349
_cell_angle_gamma 89.980456
loop_
_atom_site_label
_atom_site_type_symbol
_atom_site_fract_x
_atom_site_fract_y
_atom_site_fract_z
_atom_type_partial_charge
Mg0 Mg 0.20259 0.36521 0.06994 0.0
O1 O 0.12968 0.35849 0.0659 0.0
O2 O 0.11141 0.35779 0.00801 0.0
Mg3 Mg 0.17262 0.36617 0.9749 0.0
C4 C 0.10175 0.35599 0.04111 0.0
C5 C 0.22099 0.3585 0.1535 0.0
O6 O 0.25592 0.37469 0.14601 0.0
O7 O 0.2143 0.31414 0.05152 0.0
O8 O 0.19969 0.31791 -0.0072 0.0
O9 O 0.19458 0.41812 0.0695 0.0
O10 O 0.20453 0.3897 0.02058 0.0
C11 C 0.21244 0.30226 0.02009 0.0
C12 C 0.19766 0.41688 0.03498 0.0
O13 O 0.19543 0.35038 0.12862 0.0
Mg14 Mg 0.78463 0.60107 0.57003 0.0
O15 O 0.85761 0.60739 0.56692 0.0
O16 O 0.87689 0.60841 0.50928 0.0
Mg17 Mg 0.81619 0.60058 0.47538 0.0
C18 C 0.88598 0.60993 0.5425 0.0
C19 C 0.76563 0.60763 0.6537 0.0
O20 O 0.73077 0.59134 0.64627 0.0
O21 O 0.77384 0.65235 0.55184 0.0
O22 O 0.78943 0.64893 0.4933 0.0
O23 O 0.79213 0.5481 0.56936 0.0
O24 O 0.78322 0.57678 0.52046 0.0
C25 C 0.77643 0.66447 0.52056 0.0
C26 C 0.78962 0.54949 0.53482 0.0
O27 O 0.79121 0.6157 0.62882 0.0
Mg28 Mg 0.20309 0.6011 0.90022 0.0
O29 O 0.13008 0.6077 0.90343 0.0
O30 O 0.11099 0.60839 0.96115 0.0
Mg31 Mg 0.17164 0.60014 -0.00505 0.0
C32 C 0.10181 0.61019 0.92795 0.0
C33 C 0.22336 0.6074 0.81701 0.0
O34 O 0.25815 0.59132 0.8253 0.0
O35 O 0.21402 0.65227 0.91868 0.0
O36 O 0.19848 0.6485 0.97723 0.0
O37 O 0.19539 0.54818 0.9006 0.0
O38 O 0.20428 0.57665 0.94962 0.0
C39 C 0.21147 0.66418 0.95005 0.0
C40 C 0.19785 0.54944 0.93515 0.0
O41 O 0.19714 0.61567 0.84135 0.0
Mg42 Mg 0.78425 0.36512 0.40021 0.0
O43 O 0.85729 0.35904 0.4033 0.0
O44 O 0.87651 0.3582 0.46098 0.0
Mg45 Mg 0.81575 0.36571 0.49485 0.0
C46 C 0.88565 0.35672 0.42777 0.0
C47 C 0.76451 0.35854 0.31683 0.0
O48 O 0.72964 0.37468 0.32469 0.0
O49 O 0.77368 0.31381 0.41838 0.0
O50 O 0.78921 0.31726 0.47692 0.0
O51 O 0.7916 0.41807 0.40069 0.0
O52 O 0.78287 0.38949 0.4497 0.0
C53 C 0.77629 0.30169 0.44965 0.0
C54 C 0.78923 0.41675 0.43525 0.0
O55 O 0.79053 0.3505 0.34142 0.0
Mg56 Mg 0.79276 0.61046 0.89685 0.0
O57 O 0.86569 0.61557 0.90042 0.0
O58 O 0.88442 0.66062 0.87327 0.0
Mg59 Mg 0.82284 0.68349 0.8511 0.0
C60 C 0.89391 0.6355 0.89043 0.0
C61 C 0.77359 0.54867 0.93762 0.0
O62 O 0.74053 0.54885 0.91573 0.0
O63 O 0.78226 0.64836 0.93948 0.0
O64 O 0.7969 0.69237 0.90817 0.0
O65 O 0.79942 0.58544 0.84463 0.0
O66 O 0.78996 0.63722 0.84966 0.0
C67 C 0.78436 0.67842 0.93669 0.0
C68 C 0.79613 0.61291 0.82956 0.0
O69 O 0.79957 0.57174 0.9381 0.0
Mg70 Mg 0.19513 0.35567 0.39678 0.0
O71 O 0.12212 0.35144 0.40026 0.0
O72 O 0.10237 0.30698 0.37245 0.0
Mg73 Mg 0.16337 0.28352 0.35005 0.0
C74 C 0.09345 0.33201 0.38993 0.0
C75 C 0.21457 0.41735 0.43772 0.0
O76 O 0.24711 0.41754 0.4153 0.0
O77 O 0.20487 0.3171 0.43887 0.0
O78 O 0.18924 0.27366 0.40694 0.0
O79 O 0.18889 0.38129 0.34482 0.0
O80 O 0.19729 0.32937 0.34929 0.0
C81 C 0.20215 0.2871 0.43563 0.0
C82 C 0.19154 0.35391 0.32947 0.0
O83 O 0.18899 0.39405 0.43852 0.0
Mg84 Mg 0.79238 0.35556 0.07344 0.0
O85 O 0.86534 0.35081 0.06945 0.0
O86 O 0.88477 0.30606 0.09687 0.0
Mg87 Mg 0.82369 0.28324 0.12007 0.0
C88 C 0.89386 0.33106 0.07935 0.0
C89 C 0.77341 0.41704 0.03147 0.0
O90 O 0.74109 0.41802 0.05408 0.0
O91 O 0.7817 0.31708 0.0316 0.0
O92 O 0.7969 0.2735 0.0635 0.0
O93 O 0.79905 0.38111 0.12543 0.0
O94 O 0.79005 0.32927 0.12098 0.0
C95 C 0.7839 0.28707 0.03489 0.0
C96 C 0.79587 0.35376 0.14082 0.0
O97 O 0.79871 0.39356 0.03125 0.0
Mg98 Mg 0.19519 0.61047 0.57322 0.0
O99 O 0.12215 0.61515 0.57025 0.0
O100 O 0.10312 0.65963 0.5984 0.0
Mg101 Mg 0.1646 0.68243 0.62084 0.0
C102 C 0.09377 0.63475 0.58078 0.0
C103 C 0.21366 0.54916 0.53115 0.0
O104 O 0.24592 0.5482 0.55383 0.0
O105 O 0.20488 0.6493 0.5315 0.0
O106 O 0.19013 0.69262 0.56394 0.0
O107 O 0.18951 0.58451 0.62509 0.0
O108 O 0.19822 0.6364 0.62096 0.0
C109 C 0.20259 0.67928 0.53504 0.0
C110 C 0.19275 0.61175 0.64066 0.0
O111 O 0.1884 0.57267 0.53084 0.0
Mg112 Mg 0.70243 0.86512 0.06992 0.0
O113 O 0.62958 0.85836 0.06571 0.0
O114 O 0.6116 0.85704 0.00777 0.0
Mg115 Mg 0.67303 0.8648 0.97478 0.0
C116 C 0.60177 0.85567 0.04085 0.0
C117 C 0.7208 0.85869 0.15363 0.0
O118 O 0.7562 0.87432 0.14613 0.0
O119 O 0.71437 0.81378 0.05246 0.0
O120 O 0.69994 0.81676 -0.00632 0.0
O121 O 0.69409 0.91797 0.06873 0.0
O122 O 0.70448 0.8891 0.0202 0.0
C123 C 0.71259 0.80146 0.02126 0.0
C124 C 0.69723 0.91639 0.03423 0.0
O125 O 0.695 0.85094 0.12878 0.0
Mg126 Mg 0.28458 0.10046 0.57004 0.0
O127 O 0.35751 0.10728 0.56691 0.0
O128 O 0.37665 0.1081 0.50922 0.0
Mg129 Mg 0.31599 0.10008 0.47534 0.0
C130 C 0.38582 0.10972 0.54243 0.0
C131 C 0.26433 0.10733 0.65332 0.0
O132 O 0.2293 0.09144 0.64535 0.0
O133 O 0.2726 0.15158 0.55169 0.0
O134 O 0.2882 0.14815 0.49315 0.0
O135 O 0.29322 0.04761 0.56946 0.0
O136 O 0.28365 0.07621 0.52057 0.0
C137 C 0.2748 0.16361 0.52034 0.0
C138 C 0.29073 0.04903 0.53491 0.0
O139 O 0.29061 0.11512 0.62884 0.0
Mg140 Mg 0.70273 0.10084 0.90001 0.0
O141 O 0.62987 0.10766 0.90331 0.0
O142 O 0.61069 0.10801 0.96099 0.0
Mg143 Mg 0.67137 0.09941 -0.00532 0.0
C144 C 0.60157 0.11004 0.9278 0.0
C145 C 0.72138 0.10757 0.81653 0.0
O146 O 0.7558 0.09074 0.8239 0.0
O147 O 0.71422 0.15178 0.91891 0.0
O148 O 0.69861 0.1478 0.97742 0.0
O149 O 0.69446 0.04797 0.8999 0.0
O150 O 0.70391 0.076 0.94918 0.0
C151 C 0.71178 0.16356 0.95035 0.0
C152 C 0.69705 0.04895 0.93446 0.0
O153 O 0.69617 0.11609 0.84147 0.0
Mg154 Mg 0.28522 0.86554 0.39983 0.0
O155 O 0.35797 0.85832 0.40417 0.0
O156 O 0.37602 0.85816 0.46212 0.0
Mg157 Mg 0.31475 0.86698 0.49494 0.0
C158 C 0.38578 0.85598 0.42907 0.0
C159 C 0.26685 0.8588 0.31651 0.0
O160 O 0.23211 0.87519 0.32411 0.0
O161 O 0.27271 0.81468 0.41875 0.0
O162 O 0.28731 0.81873 0.47742 0.0
O163 O 0.29427 0.91832 0.39956 0.0
O164 O 0.28353 0.89044 0.44884 0.0
C165 C 0.27442 0.80299 0.45028 0.0
C166 C 0.29113 0.91739 0.4341 0.0
O167 O 0.29233 0.85039 0.34133 0.0
Mg168 Mg 0.29249 0.11049 0.89671 0.0
O169 O 0.36548 0.11533 0.89996 0.0
O170 O 0.38434 0.16006 0.87223 0.0
Mg171 Mg 0.32285 0.18285 0.84976 0.0
C172 C 0.39377 0.13509 0.88969 0.0
C173 C 0.27383 0.04896 0.9379 0.0
O174 O 0.24116 0.04869 0.9156 0.0
O175 O 0.28244 0.14892 0.93874 0.0
O176 O 0.29701 0.19252 0.90665 0.0
O177 O 0.29851 0.08491 0.84475 0.0
O178 O 0.28948 0.13677 0.84924 0.0
C179 C 0.28453 0.17894 0.93542 0.0
C180 C 0.29517 0.11226 0.82939 0.0
O181 O 0.29938 0.07227 0.93852 0.0
Mg182 Mg 0.69505 0.85597 0.39671 0.0
O183 O 0.62221 0.85097 0.40124 0.0
O184 O 0.6029 0.80606 0.37416 0.0
Mg185 Mg 0.66397 0.78323 0.35104 0.0
C186 C 0.59377 0.8311 0.39155 0.0
C187 C 0.71475 0.91757 0.43747 0.0
O188 O 0.74749 0.91754 0.41525 0.0
O189 O 0.70642 0.81788 0.43898 0.0
O190 O 0.69116 0.77403 0.40764 0.0
O191 O 0.68744 0.88124 0.34472 0.0
O192 O 0.697 0.82944 0.34941 0.0
C193 C 0.70432 0.78784 0.43604 0.0
C194 C 0.69052 0.85384 0.3295 0.0
O195 O 0.68892 0.89443 0.43819 0.0
Mg196 Mg 0.2924 0.85605 0.07328 0.0
O197 O 0.36524 0.8511 0.06882 0.0
O198 O 0.38478 0.80654 0.09659 0.0
Mg199 Mg 0.32375 0.78387 0.12004 0.0
C200 C 0.39378 0.83142 0.07882 0.0
C201 C 0.27343 0.91732 0.0314 0.0
O202 O 0.24144 0.91838 0.05433 0.0
O203 O 0.28102 0.81748 0.03173 0.0
O204 O 0.29654 0.77394 0.0636 0.0
O205 O 0.30009 0.88191 0.12492 0.0
O206 O 0.29056 0.83007 0.12099 0.0
C207 C 0.28325 0.78748 0.03505 0.0
C208 C 0.29705 0.85466 0.14054 0.0
O209 O 0.29853 0.89374 0.03086 0.0
Mg210 Mg 0.69531 0.11024 0.57345 0.0
O211 O 0.62237 0.11478 0.56963 0.0
O212 O 0.60284 0.15951 0.59698 0.0
Mg213 Mg 0.66399 0.18276 0.61942 0.0
C214 C 0.59379 0.13439 0.57971 0.0
C215 C 0.71446 0.04889 0.5315 0.0
O216 O 0.74698 0.04802 0.55393 0.0
O217 O 0.70602 0.14845 0.53125 0.0
O218 O 0.69062 0.19221 0.56266 0.0
O219 O 0.68833 0.08484 0.62547 0.0
O220 O 0.69747 0.13668 0.62084 0.0
C221 C 0.70371 0.17847 0.5342 0.0
C222 C 0.69124 0.11224 0.64072 0.0
O223 O 0.68894 0.07223 0.53146 0.0
C224 C 0.01987 0.34733 0.05768 0.0
C225 C 0.05744 0.35129 0.05078 0.0
C226 C 0.9757 0.34241 0.06484 0.0
C227 C 0.93818 0.33761 0.07123 0.0
C228 C 0.96761 0.61837 0.55995 0.0
C229 C 0.93011 0.6145 0.55275 0.0
C230 C 0.01176 0.62332 0.56711 0.0
C231 C 0.04933 0.62822 0.57315 0.0
C232 C 0.97595 0.62412 0.904 0.0
C233 C 0.93837 0.629 0.898 0.0
C234 C 0.02013 0.61906 0.91094 0.0
C235 C 0.05766 0.615 0.9179 0.0
C236 C 0.01162 0.34402 0.40354 0.0
C237 C 0.04915 0.33895 0.39758 0.0
C238 C 0.96743 0.34889 0.41054 0.0
C239 C 0.92986 0.35247 0.41761 0.0
C240 C 0.47558 0.84281 0.06433 0.0
C241 C 0.43807 0.83801 0.0707 0.0
C242 C 0.51977 0.8476 0.05726 0.0
C243 C 0.5574 0.85129 0.05043 0.0
C244 C 0.51187 0.12245 0.56636 0.0
C245 C 0.54945 0.12748 0.5722 0.0
C246 C 0.46764 0.11762 0.55953 0.0
C247 C 0.43004 0.11401 0.55255 0.0
C248 C 0.51995 0.11886 0.91057 0.0
C249 C 0.55744 0.11483 0.91768 0.0
C250 C 0.47579 0.12381 0.90346 0.0
C251 C 0.43821 0.12863 0.89738 0.0
C252 C 0.46772 0.84727 0.41286 0.0
C253 C 0.43012 0.85125 0.41959 0.0
C254 C 0.51192 0.84241 0.40589 0.0
C255 C 0.54945 0.83765 0.39959 0.0
C256 C 0.19994 0.35054 0.22149 0.0
C257 C 0.20854 0.35375 0.19019 0.0
C258 C 0.1931 0.34987 0.25889 0.0
C259 C 0.19245 0.3513 0.29115 0.0
C260 C 0.78664 0.61615 0.72163 0.0
C261 C 0.77796 0.61264 0.69038 0.0
C262 C 0.79374 0.61712 0.759 0.0
C263 C 0.79474 0.61577 0.79126 0.0
C264 C 0.20347 0.61479 0.74865 0.0
C265 C 0.21176 0.61175 0.78005 0.0
C266 C 0.19626 0.61542 0.71126 0.0
C267 C 0.19471 0.61409 0.67901 0.0
C268 C 0.79242 0.34976 0.21138 0.0
C269 C 0.79394 0.35119 0.17914 0.0
C270 C 0.78501 0.35051 0.24872 0.0
C271 C 0.77645 0.35385 0.28002 0.0
C272 C 0.69244 0.8498 0.25894 0.0
C273 C 0.69164 0.85116 0.29119 0.0
C274 C 0.69954 0.85065 0.22158 0.0
C275 C 0.70834 0.85396 0.19032 0.0
C276 C 0.29174 0.11622 0.75884 0.0
C277 C 0.29324 0.11484 0.79108 0.0
C278 C 0.28448 0.11541 0.72149 0.0
C279 C 0.27607 0.11204 0.69017 0.0
C280 C 0.69998 0.11573 0.74865 0.0
C281 C 0.70879 0.11243 0.7799 0.0
C282 C 0.69291 0.11642 0.71128 0.0
C283 C 0.69221 0.11494 0.67904 0.0
C284 C 0.29524 0.85088 0.21114 0.0
C285 C 0.29602 0.85231 0.17888 0.0
C286 C 0.28814 0.85139 0.2485 0.0
C287 C 0.27937 0.85437 0.2798 0.0
C288 C 0.25632 0.21876 0.98437 0.0
C289 C 0.26859 0.19873 0.96374 0.0
C290 C 0.24098 0.24554 0.0031 0.0
C291 C 0.22867 0.27089 0.01389 0.0
C292 C 0.74871 0.72148 0.50372 0.0
C293 C 0.76062 0.69599 0.51443 0.0
C294 C 0.73344 0.74833 0.48501 0.0
C295 C 0.72082 0.76827 0.46437 0.0
C296 C 0.2543 0.74777 -0.01373 0.0
C297 C 0.26686 0.76768 0.00692 0.0
C298 C 0.23911 0.72105 0.96735 0.0
C299 C 0.22724 0.69565 0.95639 0.0
C300 C 0.73285 0.21796 0.48519 0.0
C301 C 0.72021 0.19807 0.50588 0.0
C302 C 0.74833 0.24474 0.46648 0.0
C303 C 0.76037 0.27021 0.45579 0.0
C304 C 0.7411 0.74455 0.00502 0.0
C305 C 0.72882 0.76999 0.01562 0.0
C306 C 0.75632 0.71775 -0.01377 0.0
C307 C 0.76848 0.69786 0.96536 0.0
C308 C 0.24552 0.22017 0.50322 0.0
C309 C 0.25812 0.19487 0.51404 0.0
C310 C 0.2301 0.24699 0.48451 0.0
C311 C 0.21799 0.26713 0.4639 0.0
C312 C 0.75514 0.24721 -0.01377 0.0
C313 C 0.76761 0.26727 0.00673 0.0
C314 C 0.73986 0.22035 0.96762 0.0
C315 C 0.72778 0.19495 0.95682 0.0
C316 C 0.23037 0.71951 0.48626 0.0
C317 C 0.2183 0.69932 0.50682 0.0
C318 C 0.24562 0.74637 0.46758 0.0
C319 C 0.25805 0.77168 0.45672 0.0
C320 C 0.19221 0.49725 0.97463 0.0
C321 C 0.1948 0.52111 0.95673 0.0
C322 C 0.19219 0.46904 -0.00457 0.0
C323 C 0.1947 0.44519 0.01336 0.0
C324 C 0.79506 0.49731 0.49528 0.0
C325 C 0.79255 0.5212 0.51314 0.0
C326 C 0.79497 0.46901 0.47461 0.0
C327 C 0.79233 0.44508 0.45682 0.0
C328 C 0.78787 0.46786 -0.00711 0.0
C329 C 0.78288 0.444 0.00983 0.0
C330 C 0.78788 0.49674 0.97434 0.0
C331 C 0.78286 0.52101 0.95817 0.0
C332 C 0.19992 0.46924 0.4744 0.0
C333 C 0.20512 0.44497 0.45827 0.0
C334 C 0.19958 0.4982 0.49276 0.0
C335 C 0.2043 0.52216 0.50956 0.0
C336 C 0.69104 -0.00351 0.97347 0.0
C337 C 0.6938 0.02046 0.95576 0.0
C338 C 0.69111 0.96824 -0.00579 0.0
C339 C 0.69394 0.94449 0.01227 0.0
C340 C 0.29767 0.96939 0.47366 0.0
C341 C 0.29473 0.94578 0.45543 0.0
C342 C 0.29754 -0.00274 0.49497 0.0
C343 C 0.29443 0.02088 0.51317 0.0
C344 C 0.28822 0.96829 -0.00678 0.0
C345 C 0.28303 0.94436 0.00998 0.0
C346 C 0.28838 -0.00279 0.97482 0.0
C347 C 0.28333 0.02146 0.95862 0.0
C348 C 0.70014 -0.0018 0.4928 0.0
C349 C 0.70508 0.02199 0.50982 0.0
C350 C 0.7003 0.96941 0.47419 0.0
C351 C 0.70548 0.94519 0.458 0.0
loop_
_geom_bond_atom_site_label_1
_geom_bond_atom_site_label_2
_geom_bond_distance
_geom_bond_site_symmetry_2
_ccdc_geom_bond_type
Mg0 O1 2.028 . S
Mg0 O7 1.986 . S
Mg0 O9 2.114 . S
Mg0 O10 2.251 . S
Mg0 O13 2.010 . S
O1 Mg0 2.028 . S
O1 C4 1.250 . S
O2 Mg3 2.028 1_554 S
O2 C4 1.248 . S
Mg3 O2 2.028 1_556 S
Mg3 O8 2.032 1_556 S
Mg3 O10 2.079 1_556 S
C4 O1 1.250 . S
C4 O2 1.248 . S
C5 O6 1.264 . S
C5 O13 1.249 . S
O6 C5 1.264 . S
O7 Mg0 1.986 . S
O7 C11 1.246 . S
O8 Mg3 2.032 1_554 S
O8 C11 1.259 . S
O9 Mg0 2.114 . S
O9 C12 1.252 . S
O10 Mg0 2.251 . S
O10 Mg3 2.079 1_554 S
O10 C12 1.273 . S
C11 O7 1.246 . S
C11 O8 1.259 . S
C12 O9 1.252 . S
C12 O10 1.273 . S
O13 Mg0 2.010 . S
O13 C5 1.249 . S
Mg14 O15 2.028 . S
Mg14 O21 1.986 . S
Mg14 O23 2.114 . S
Mg14 O24 2.251 . S
Mg14 O27 2.010 . S
O15 Mg14 2.028 . S
O15 C18 1.250 . S
O16 Mg17 2.028 . S
O16 C18 1.248 . S
Mg17 O16 2.028 . S
Mg17 O22 2.032 . S
Mg17 O24 2.079 . S
C18 O15 1.250 . S
C18 O16 1.248 . S
C19 O20 1.264 . S
C19 O27 1.249 . S
O20 C19 1.264 . S
O21 Mg14 1.986 . S
O21 C25 1.246 . S
O22 Mg17 2.032 . S
O22 C25 1.259 . S
O23 Mg14 2.114 . S
O23 C26 1.252 . S
O24 Mg14 2.251 . S
O24 Mg17 2.079 . S
O24 C26 1.273 . S
C25 O21 1.246 . S
C25 O22 1.259 . S
C26 O23 1.252 . S
C26 O24 1.273 . S
O27 Mg14 2.010 . S
O27 C19 1.249 . S
Mg28 O29 2.028 . S
Mg28 O35 1.986 . S
Mg28 O37 2.114 . S
Mg28 O38 2.251 . S
Mg28 O41 2.010 . S
O29 Mg28 2.028 . S
O29 C32 1.250 . S
O30 Mg31 2.028 1_556 S
O30 C32 1.248 . S
Mg31 O30 2.028 1_554 S
Mg31 O36 2.032 1_554 S
Mg31 O38 2.079 1_554 S
C32 O29 1.250 . S
C32 O30 1.248 . S
C33 O34 1.264 . S
C33 O41 1.249 . S
O34 C33 1.264 . S
O35 Mg28 1.986 . S
O35 C39 1.246 . S
O36 Mg31 2.032 1_556 S
O36 C39 1.259 . S
O37 Mg28 2.114 . S
O37 C40 1.252 . S
O38 Mg28 2.251 . S
O38 Mg31 2.079 1_556 S
O38 C40 1.273 . S
C39 O35 1.246 . S
C39 O36 1.259 . S
C40 O37 1.252 . S
C40 O38 1.273 . S
O41 Mg28 2.010 . S
O41 C33 1.249 . S
Mg42 O43 2.028 . S
Mg42 O49 1.986 . S
Mg42 O51 2.114 . S
Mg42 O52 2.251 . S
Mg42 O55 2.010 . S
O43 Mg42 2.028 . S
O43 C46 1.250 . S
O44 Mg45 2.028 . S
O44 C46 1.248 . S
Mg45 O44 2.028 . S
Mg45 O50 2.032 . S
Mg45 O52 2.079 . S
C46 O43 1.250 . S
C46 O44 1.248 . S
C47 O48 1.264 . S
C47 O55 1.249 . S
O48 C47 1.264 . S
O49 Mg42 1.986 . S
O49 C53 1.246 . S
O50 Mg45 2.032 . S
O50 C53 1.259 . S
O51 Mg42 2.114 . S
O51 C54 1.252 . S
O52 Mg42 2.251 . S
O52 Mg45 2.079 . S
O52 C54 1.273 . S
C53 O49 1.246 . S
C53 O50 1.259 . S
C54 O51 1.252 . S
C54 O52 1.273 . S
O55 Mg42 2.010 . S
O55 C47 1.249 . S
Mg56 O57 2.028 . S
Mg56 O63 1.986 . S
Mg56 O65 2.114 . S
Mg56 O66 2.251 . S
Mg56 O69 2.010 . S
O57 Mg56 2.028 . S
O57 C60 1.250 . S
O58 Mg59 2.028 . S
O58 C60 1.248 . S
Mg59 O58 2.028 . S
Mg59 O64 2.032 . S
Mg59 O66 2.079 . S
C60 O57 1.250 . S
C60 O58 1.248 . S
C61 O62 1.264 . S
C61 O69 1.249 . S
O62 C61 1.264 . S
O63 Mg56 1.986 . S
O63 C67 1.246 . S
O64 Mg59 2.032 . S
O64 C67 1.259 . S
O65 Mg56 2.114 . S
O65 C68 1.252 . S
O66 Mg56 2.251 . S
O66 Mg59 2.079 . S
O66 C68 1.273 . S
C67 O63 1.246 . S
C67 O64 1.259 . S
C68 O65 1.252 . S
C68 O66 1.273 . S
O69 Mg56 2.010 . S
O69 C61 1.249 . S
Mg70 O71 2.028 . S
Mg70 O77 1.986 . S
Mg70 O79 2.114 . S
Mg70 O80 2.251 . S
Mg70 O83 2.010 . S
O71 Mg70 2.028 . S
O71 C74 1.250 . S
O72 Mg73 2.028 . S
O72 C74 1.248 . S
Mg73 O72 2.028 . S
Mg73 O78 2.032 . S
Mg73 O80 2.079 . S
C74 O71 1.250 . S
C74 O72 1.248 . S
C75 O76 1.264 . S
C75 O83 1.249 . S
O76 C75 1.264 . S
O77 Mg70 1.986 . S
O77 C81 1.246 . S
O78 Mg73 2.032 . S
O78 C81 1.259 . S
O79 Mg70 2.114 . S
O79 C82 1.252 . S
O80 Mg70 2.251 . S
O80 Mg73 2.079 . S
O80 C82 1.273 . S
C81 O77 1.246 . S
C81 O78 1.259 . S
C82 O79 1.252 . S
C82 O80 1.273 . S
O83 Mg70 2.010 . S
O83 C75 1.249 . S
Mg84 O85 2.028 . S
Mg84 O91 1.986 . S
Mg84 O93 2.114 . S
Mg84 O94 2.251 . S
Mg84 O97 2.010 . S
O85 Mg84 2.028 . S
O85 C88 1.250 . S
O86 Mg87 2.028 . S
O86 C88 1.248 . S
Mg87 O86 2.028 . S
Mg87 O92 2.032 . S
Mg87 O94 2.079 . S
C88 O85 1.250 . S
C88 O86 1.248 . S
C89 O90 1.264 . S
C89 O97 1.249 . S
O90 C89 1.264 . S
O91 Mg84 1.986 . S
O91 C95 1.246 . S
O92 Mg87 2.032 . S
O92 C95 1.259 . S
O93 Mg84 2.114 . S
O93 C96 1.252 . S
O94 Mg84 2.251 . S
O94 Mg87 2.079 . S
O94 C96 1.273 . S
C95 O91 1.246 . S
C95 O92 1.259 . S
C96 O93 1.252 . S
C96 O94 1.273 . S
O97 Mg84 2.010 . S
O97 C89 1.249 . S
Mg98 O99 2.028 . S
Mg98 O105 1.986 . S
Mg98 O107 2.114 . S
Mg98 O108 2.251 . S
Mg98 O111 2.010 . S
O99 Mg98 2.028 . S
O99 C102 1.250 . S
O100 Mg101 2.028 . S
O100 C102 1.248 . S
Mg101 O100 2.028 . S
Mg101 O106 2.032 . S
Mg101 O108 2.079 . S
C102 O99 1.250 . S
C102 O100 1.248 . S
C103 O104 1.264 . S
C103 O111 1.249 . S
O104 C103 1.264 . S
O105 Mg98 1.986 . S
O105 C109 1.246 . S
O106 Mg101 2.032 . S
O106 C109 1.259 . S
O107 Mg98 2.114 . S
O107 C110 1.252 . S
O108 Mg98 2.251 . S
O108 Mg101 2.079 . S
O108 C110 1.273 . S
C109 O105 1.246 . S
C109 O106 1.259 . S
C110 O107 1.252 . S
C110 O108 1.273 . S
O111 Mg98 2.010 . S
O111 C103 1.249 . S
Mg112 O113 2.028 . S
Mg112 O119 1.986 . S
Mg112 O121 2.114 . S
Mg112 O122 2.251 . S
Mg112 O125 2.010 . S
O113 Mg112 2.028 . S
O113 C116 1.250 . S
O114 Mg115 2.028 1_554 S
O114 C116 1.248 . S
Mg115 O114 2.028 1_556 S
Mg115 O120 2.032 1_556 S
Mg115 O122 2.079 1_556 S
C116 O113 1.250 . S
C116 O114 1.248 . S
C117 O118 1.264 . S
C117 O125 1.249 . S
O118 C117 1.264 . S
O119 Mg112 1.986 . S
O119 C123 1.246 . S
O120 Mg115 2.032 1_554 S
O120 C123 1.259 . S
O121 Mg112 2.114 . S
O121 C124 1.252 . S
O122 Mg112 2.251 . S
O122 Mg115 2.079 1_554 S
O122 C124 1.273 . S
C123 O119 1.246 . S
C123 O120 1.259 . S
C124 O121 1.252 . S
C124 O122 1.273 . S
O125 Mg112 2.010 . S
O125 C117 1.249 . S
Mg126 O127 2.028 . S
Mg126 O133 1.986 . S
Mg126 O135 2.114 . S
Mg126 O136 2.251 . S
Mg126 O139 2.010 . S
O127 Mg126 2.028 . S
O127 C130 1.250 . S
O128 Mg129 2.028 . S
O128 C130 1.248 . S
Mg129 O128 2.028 . S
Mg129 O134 2.032 . S
Mg129 O136 2.079 . S
C130 O127 1.250 . S
C130 O128 1.248 . S
C131 O132 1.264 . S
C131 O139 1.249 . S
O132 C131 1.264 . S
O133 Mg126 1.986 . S
O133 C137 1.246 . S
O134 Mg129 2.032 . S
O134 C137 1.259 . S
O135 Mg126 2.114 . S
O135 C138 1.252 . S
O136 Mg126 2.251 . S
O136 Mg129 2.079 . S
O136 C138 1.273 . S
C137 O133 1.246 . S
C137 O134 1.259 . S
C138 O135 1.252 . S
C138 O136 1.273 . S
O139 Mg126 2.010 . S
O139 C131 1.249 . S
Mg140 O141 2.028 . S
Mg140 O147 1.986 . S
Mg140 O149 2.114 . S
Mg140 O150 2.251 . S
Mg140 O153 2.010 . S
O141 Mg140 2.028 . S
O141 C144 1.250 . S
O142 Mg143 2.028 1_556 S
O142 C144 1.248 . S
Mg143 O142 2.028 1_554 S
Mg143 O148 2.032 1_554 S
Mg143 O150 2.079 1_554 S
C144 O141 1.250 . S
C144 O142 1.248 . S
C145 O146 1.264 . S
C145 O153 1.249 . S
O146 C145 1.264 . S
O147 Mg140 1.986 . S
O147 C151 1.246 . S
O148 Mg143 2.032 1_556 S
O148 C151 1.259 . S
O149 Mg140 2.114 . S
O149 C152 1.252 . S
O150 Mg140 2.251 . S
O150 Mg143 2.079 1_556 S
O150 C152 1.273 . S
C151 O147 1.246 . S
C151 O148 1.259 . S
C152 O149 1.252 . S
C152 O150 1.273 . S
O153 Mg140 2.010 . S
O153 C145 1.249 . S
Mg154 O155 2.028 . S
Mg154 O161 1.986 . S
Mg154 O163 2.114 . S
Mg154 O164 2.251 . S
Mg154 O167 2.010 . S
O155 Mg154 2.028 . S
O155 C158 1.250 . S
O156 Mg157 2.028 . S
O156 C158 1.248 . S
Mg157 O156 2.028 . S
Mg157 O162 2.032 . S
Mg157 O164 2.079 . S
C158 O155 1.250 . S
C158 O156 1.248 . S
C159 O160 1.264 . S
C159 O167 1.249 . S
O160 C159 1.264 . S
O161 Mg154 1.986 . S
O161 C165 1.246 . S
O162 Mg157 2.032 . S
O162 C165 1.259 . S
O163 Mg154 2.114 . S
O163 C166 1.252 . S
O164 Mg154 2.251 . S
O164 Mg157 2.079 . S
O164 C166 1.273 . S
C165 O161 1.246 . S
C165 O162 1.259 . S
C166 O163 1.252 . S
C166 O164 1.273 . S
O167 Mg154 2.010 . S
O167 C159 1.249 . S
Mg168 O169 2.028 . S
Mg168 O175 1.986 . S
Mg168 O177 2.114 . S
Mg168 O178 2.251 . S
Mg168 O181 2.010 . S
O169 Mg168 2.028 . S
O169 C172 1.250 . S
O170 Mg171 2.028 . S
O170 C172 1.248 . S
Mg171 O170 2.028 . S
Mg171 O176 2.032 . S
Mg171 O178 2.079 . S
C172 O169 1.250 . S
C172 O170 1.248 . S
C173 O174 1.264 . S
C173 O181 1.249 . S
O174 C173 1.264 . S
O175 Mg168 1.986 . S
O175 C179 1.246 . S
O176 Mg171 2.032 . S
O176 C179 1.259 . S
O177 Mg168 2.114 . S
O177 C180 1.252 . S
O178 Mg168 2.251 . S
O178 Mg171 2.079 . S
O178 C180 1.273 . S
C179 O175 1.246 . S
C179 O176 1.259 . S
C180 O177 1.252 . S
C180 O178 1.273 . S
O181 Mg168 2.010 . S
O181 C173 1.249 . S
Mg182 O183 2.028 . S
Mg182 O189 1.986 . S
Mg182 O191 2.114 . S
Mg182 O192 2.251 . S
Mg182 O195 2.010 . S
O183 Mg182 2.028 . S
O183 C186 1.250 . S
O184 Mg185 2.028 . S
O184 C186 1.248 . S
Mg185 O184 2.028 . S
Mg185 O190 2.032 . S
Mg185 O192 2.079 . S
C186 O183 1.250 . S
C186 O184 1.248 . S
C187 O188 1.264 . S
C187 O195 1.249 . S
O188 C187 1.264 . S
O189 Mg182 1.986 . S
O189 C193 1.246 . S
O190 Mg185 2.032 . S
O190 C193 1.259 . S
O191 Mg182 2.114 . S
O191 C194 1.252 . S
O192 Mg182 2.251 . S
O192 Mg185 2.079 . S
O192 C194 1.273 . S
C193 O189 1.246 . S
C193 O190 1.259 . S
C194 O191 1.252 . S
C194 O192 1.273 . S
O195 Mg182 2.010 . S
O195 C187 1.249 . S
Mg196 O197 2.028 . S
Mg196 O203 1.986 . S
Mg196 O205 2.114 . S
Mg196 O206 2.251 . S
Mg196 O209 2.010 . S
O197 Mg196 2.028 . S
O197 C200 1.250 . S
O198 Mg199 2.028 . S
O198 C200 1.248 . S
Mg199 O198 2.028 . S
Mg199 O204 2.032 . S
Mg199 O206 2.079 . S
C200 O197 1.250 . S
C200 O198 1.248 . S
C201 O202 1.264 . S
C201 O209 1.249 . S
O202 C201 1.264 . S
O203 Mg196 1.986 . S
O203 C207 1.246 . S
O204 Mg199 2.032 . S
O204 C207 1.259 . S
O205 Mg196 2.114 . S
O205 C208 1.252 . S
O206 Mg196 2.251 . S
O206 Mg199 2.079 . S
O206 C208 1.273 . S
C207 O203 1.246 . S
C207 O204 1.259 . S
C208 O205 1.252 . S
C208 O206 1.273 . S
O209 Mg196 2.010 . S
O209 C201 1.249 . S
Mg210 O211 2.028 . S
Mg210 O217 1.986 . S
Mg210 O219 2.114 . S
Mg210 O220 2.251 . S
Mg210 O223 2.010 . S
O211 Mg210 2.028 . S
O211 C214 1.250 . S
O212 Mg213 2.028 . S
O212 C214 1.248 . S
Mg213 O212 2.028 . S
Mg213 O218 2.032 . S
Mg213 O220 2.079 . S
C214 O211 1.250 . S
C214 O212 1.248 . S
C215 O216 1.264 . S
C215 O223 1.249 . S
O216 C215 1.264 . S
O217 Mg210 1.986 . S
O217 C221 1.246 . S
O218 Mg213 2.032 . S
O218 C221 1.259 . S
O219 Mg210 2.114 . S
O219 C222 1.252 . S
O220 Mg210 2.251 . S
O220 Mg213 2.079 . S
O220 C222 1.273 . S
C221 O217 1.246 . S
C221 O218 1.259 . S
C222 O219 1.252 . S
C222 O220 1.273 . S
O223 Mg210 2.010 . S
O223 C215 1.249 . S
C224 C225 1.170 . S
C224 C226 1.380 1_455 S
C225 C224 1.170 . S
C226 C224 1.380 1_655 S
C226 C227 1.170 . S
C227 C226 1.170 . S
C228 C229 1.170 . S
C228 C230 1.380 1_655 S
C229 C228 1.170 . S
C230 C228 1.380 1_455 S
C230 C231 1.170 . S
C231 C230 1.170 . S
C232 C233 1.170 . S
C232 C234 1.380 1_655 S
C233 C232 1.170 . S
C234 C232 1.380 1_455 S
C234 C235 1.170 . S
C235 C234 1.170 . S
C236 C237 1.170 . S
C236 C238 1.380 1_455 S
C237 C236 1.170 . S
C238 C236 1.380 1_655 S
C238 C239 1.170 . S
C239 C238 1.170 . S
C240 C241 1.170 . S
C240 C242 1.380 . S
C241 C240 1.170 . S
C242 C240 1.380 . S
C242 C243 1.170 . S
C243 C242 1.170 . S
C244 C245 1.170 . S
C244 C246 1.380 . S
C245 C244 1.170 . S
C246 C244 1.380 . S
C246 C247 1.170 . S
C247 C246 1.170 . S
C248 C249 1.170 . S
C248 C250 1.380 . S
C249 C248 1.170 . S
C250 C248 1.380 . S
C250 C251 1.170 . S
C251 C250 1.170 . S
C252 C253 1.170 . S
C252 C254 1.380 . S
C253 C252 1.170 . S
C254 C252 1.380 . S
C254 C255 1.170 . S
C255 C254 1.170 . S
C256 C257 1.170 . S
C256 C258 1.380 . S
C257 C256 1.170 . S
C258 C256 1.380 . S
C258 C259 1.170 . S
C259 C258 1.170 . S
C260 C261 1.170 . S
C260 C262 1.380 . S
C261 C260 1.170 . S
C262 C260 1.380 . S
C262 C263 1.170 . S
C263 C262 1.170 . S
C264 C265 1.170 . S
C264 C266 1.380 . S
C265 C264 1.170 . S
C266 C264 1.380 . S
C266 C267 1.170 . S
C267 C266 1.170 . S
C268 C269 1.170 . S
C268 C270 1.380 . S
C269 C268 1.170 . S
C270 C268 1.380 . S
C270 C271 1.170 . S
C271 C270 1.170 . S
C272 C273 1.170 . S
C272 C274 1.380 . S
C273 C272 1.170 . S
C274 C272 1.380 . S
C274 C275 1.170 . S
C275 C274 1.170 . S
C276 C277 1.170 . S
C276 C278 1.380 . S
C277 C276 1.170 . S
C278 C276 1.380 . S
C278 C279 1.170 . S
C279 C278 1.170 . S
C280 C281 1.170 . S
C280 C282 1.380 . S
C281 C280 1.170 . S
C282 C280 1.380 . S
C282 C283 1.170 . S
C283 C282 1.170 . S
C284 C285 1.170 . S
C284 C286 1.380 . S
C285 C284 1.170 . S
C286 C284 1.380 . S
C286 C287 1.170 . S
C287 C286 1.170 . S
C288 C289 1.170 . S
C288 C290 1.380 1_556 S
C289 C288 1.170 . S
C290 C288 1.380 1_554 S
C290 C291 1.170 . S
C291 C290 1.170 . S
C292 C293 1.170 . S
C292 C294 1.380 . S
C293 C292 1.170 . S
C294 C292 1.380 . S
C294 C295 1.170 . S
C295 C294 1.170 . S
C296 C297 1.170 . S
C296 C298 1.380 1_554 S
C297 C296 1.170 . S
C298 C296 1.380 1_556 S
C298 C299 1.170 . S
C299 C298 1.170 . S
C300 C301 1.170 . S
C300 C302 1.380 . S
C301 C300 1.170 . S
C302 C300 1.380 . S
C302 C303 1.170 . S
C303 C302 1.170 . S
C304 C305 1.170 . S
C304 C306 1.380 1_554 S
C305 C304 1.170 . S
C306 C304 1.380 1_556 S
C306 C307 1.170 . S
C307 C306 1.170 . S
C308 C309 1.170 . S
C308 C310 1.380 . S
C309 C308 1.170 . S
C310 C308 1.380 . S
C310 C311 1.170 . S
C311 C310 1.170 . S
C312 C313 1.170 . S
C312 C314 1.380 1_554 S
C313 C312 1.170 . S
C314 C312 1.380 1_556 S
C314 C315 1.170 . S
C315 C314 1.170 . S
C316 C317 1.170 . S
C316 C318 1.380 . S
C317 C316 1.170 . S
C318 C316 1.380 . S
C318 C319 1.170 . S
C319 C318 1.170 . S
C320 C321 1.170 . S
C320 C322 1.380 1_556 S
C321 C320 1.170 . S
C322 C320 1.380 1_554 S
C322 C323 1.170 . S
C323 C322 1.170 . S
C324 C325 1.170 . S
C324 C326 1.380 . S
C325 C324 1.170 . S
C326 C324 1.380 . S
C326 C327 1.170 . S
C327 C326 1.170 . S
C328 C329 1.170 . S
C328 C330 1.380 1_554 S
C329 C328 1.170 . S
C330 C328 1.380 1_556 S
C330 C331 1.170 . S
C331 C330 1.170 . S
C332 C333 1.170 . S
C332 C334 1.380 . S
C333 C332 1.170 . S
C334 C332 1.380 . S
C334 C335 1.170 . S
C335 C334 1.170 . S
C336 C337 1.170 . S
C336 C338 1.380 1_546 S
C337 C336 1.170 . S
C338 C336 1.380 1_564 S
C338 C339 1.170 . S
C339 C338 1.170 . S
C340 C341 1.170 . S
C340 C342 1.380 1_565 S
C341 C340 1.170 . S
C342 C340 1.380 1_545 S
C342 C343 1.170 . S
C343 C342 1.170 . S
C344 C345 1.170 . S
C344 C346 1.380 1_564 S
C345 C344 1.170 . S
C346 C344 1.380 1_546 S
C346 C347 1.170 . S
C347 C346 1.170 . S
C348 C349 1.170 . S
C348 C350 1.380 1_545 S
C349 C348 1.170 . S
C350 C348 1.380 1_565 S
C350 C351 1.170 . S
C351 C350 1.170 . S
C225 C4 1.467 . S
C227 C88 1.482 . S
C229 C18 1.487 . S
C231 C102 1.461 . S
C233 C60 1.465 . S
C235 C32 1.484 . S
C237 C74 1.470 . S
C239 C46 1.478 . S
C241 C200 1.486 . S
C243 C116 1.461 . S
C245 C214 1.474 . S
C247 C130 1.473 . S
C249 C144 1.487 . S
C251 C172 1.462 . S
C253 C158 1.463 . S
C255 C186 1.485 . S
C257 C5 1.343 . S
C259 C82 1.455 . S
C261 C19 1.329 . S
C263 C68 1.458 . S
C265 C33 1.286 . S
C267 C110 1.467 . S
C269 C96 1.465 . S
C271 C47 1.294 . S
C273 C194 1.454 . S
C275 C117 1.346 . S
C277 C180 1.466 . S
C279 C131 1.289 . S
C281 C145 1.348 . S
C283 C222 1.454 . S
C285 C208 1.453 . S
C287 C159 1.351 . S
C289 C179 1.357 . S
C291 C11 1.352 . S
C293 C25 1.344 . S
C295 C193 1.382 . S
C297 C207 1.379 . S
C299 C39 1.340 . S
C301 C221 1.380 . S
C303 C53 1.350 . S
C305 C123 1.369 . S
C307 C67 1.367 . S
C309 C137 1.368 . S
C311 C81 1.347 . S
C313 C95 1.366 . S
C315 C151 1.344 . S
C317 C109 1.350 . S
C319 C165 1.362 . S
C321 C40 1.565 . S
C323 C12 1.564 . S
C325 C26 1.563 . S
C327 C54 1.565 . S
C329 C89 1.235 . S
C331 C61 1.245 . S
C333 C75 1.244 . S
C335 C103 1.235 . S
C337 C152 1.559 . S
C339 C124 1.557 . S
C341 C166 1.556 . S
C343 C138 1.553 . S
C345 C201 1.245 . S
C347 C173 1.251 . S
C349 C215 1.230 . S
C351 C187 1.240 . S
