# Generated by pormake.
# Topology snp, (6)-cn, num edge types: 1
# Building blocks:
#     Node 0, Type 0, BuildingBlock: FUNLAD_clean_sbu_0, # of connection points: 6
#     Node 1, Type 0, BuildingBlock: FUNLAD_clean_sbu_0, # of connection points: 6
#     Node 2, Type 0, BuildingBlock: FUNLAD_clean_sbu_0, # of connection points: 6
#     Node 3, Type 0, BuildingBlock: FUNLAD_clean_sbu_0, # of connection points: 6
#     Edge 4, Type (0, 0), BuildingBlock: XUDNAN_clean_linker_2, # of connection points: 2
#     Edge 5, Type (0, 0), BuildingBlock: XUDNAN_clean_linker_2, # of connection points: 2
#     Edge 6, Type (0, 0), BuildingBlock: XUDNAN_clean_linker_2, # of connection points: 2
#     Edge 7, Type (0, 0), BuildingBlock: XUDNAN_clean_linker_2, # of connection points: 2
#     Edge 8, Type (0, 0), BuildingBlock: XUDNAN_clean_linker_2, # of connection points: 2
#     Edge 9, Type (0, 0), BuildingBlock: XUDNAN_clean_linker_2, # of connection points: 2
#     Edge 10, Type (0, 0), BuildingBlock: XUDNAN_clean_linker_2, # of connection points: 2
#     Edge 11, Type (0, 0), BuildingBlock: XUDNAN_clean_linker_2, # of connection points: 2
#     Edge 12, Type (0, 0), BuildingBlock: XUDNAN_clean_linker_2, # of connection points: 2
#     Edge 13, Type (0, 0), BuildingBlock: XUDNAN_clean_linker_2, # of connection points: 2
#     Edge 14, Type (0, 0), BuildingBlock: XUDNAN_clean_linker_2, # of connection points: 2
#     Edge 15, Type (0, 0), BuildingBlock: XUDNAN_clean_linker_2, # of connection points: 2
# Relax obj value: 1.244
# Max RMSD: 0.253
# Mean RMSD: 0.253
data_MOF--net-snp--node1-FUNLAD_clean_sbu_0--edge1-XUDNAN_clean_linker_2
_symmetry_space_group_name_H-M    P1
_symmetry_Int_Tables_number       1
_symmetry_cell_setting            triclinic
loop_
_symmetry_equiv_pos_as_xyz
'x, y, z'
_cell_length_a     34.373681
_cell_length_b     33.948707
_cell_length_c     21.83971
_cell_angle_alpha  91.195534
_cell_angle_beta   90.157642
_cell_angle_gamma 89.63241
loop_
_atom_site_label
_atom_site_type_symbol
_atom_site_fract_x
_atom_site_fract_y
_atom_site_fract_z
_atom_type_partial_charge
C0 C 0.27115 1.01082 0.95727 0.0
N1 N 0.33932 0.09109 0.05677 0.0
C2 C 0.3567 0.10085 1.00331 0.0
C3 C 0.39676 0.10771 1.00097 0.0
C4 C 0.41975 0.1044 0.05406 0.0
C5 C 0.40097 0.09499 0.10899 0.0
C6 C 0.36059 0.08854 0.10937 0.0
Zn7 Zn 0.28181 0.07211 0.05157 0.0
C8 C 0.23018 0.12127 0.96798 0.0
N9 N 0.16603 1.02608 0.03797 0.0
C10 C 0.1686 0.98641 0.02611 0.0
C11 C 0.13789 0.04801 0.01103 0.0
C12 C 0.11833 0.03256 0.96003 0.0
C13 C 0.12861 0.99479 0.93726 0.0
C14 C 0.15107 0.97025 0.9737 0.0
Zn15 Zn 0.21964 0.05225 0.05029 0.0
O16 O 0.29875 0.03237 0.97679 0.0
C17 C 0.26655 1.00307 0.13313 0.0
O18 O 0.2377 1.01522 0.9798 0.0
H19 H 0.13569 0.07924 0.0214 0.0
H20 H 0.33973 0.10182 0.96161 0.0
H21 H 0.19072 0.96897 0.04803 0.0
O22 O 0.29475 1.02496 0.11752 0.0
O23 O 0.23304 1.00989 0.11193 0.0
H24 H 0.34651 0.08029 0.15139 0.0
O25 O 0.20211 0.08962 0.12174 0.0
O26 O 0.26257 0.11121 0.12685 0.0
O27 O 0.20588 0.09654 0.98758 0.0
O28 O 0.26567 0.11887 0.98557 0.0
C29 C 0.2274 0.11228 0.14632 0.0
H30 H 0.40976 0.11417 0.95724 0.0
H31 H 0.41731 0.09243 0.15119 0.0
H32 H 0.10079 0.05219 0.93276 0.0
H33 H 0.1595 0.94105 0.95754 0.0
C34 C 0.09381 0.2564 0.47916 0.0
N35 N 0.04903 0.36476 0.55489 0.0
C36 C 0.08504 0.38122 0.55436 0.0
C37 C 0.08935 0.42197 0.54747 0.0
C38 C 0.05633 0.44641 0.54123 0.0
C39 C 1.01954 0.42866 0.54311 0.0
C40 C 1.01655 0.38775 0.54968 0.0
Zn41 Zn 0.04268 0.3039 0.56254 0.0
C42 C 0.98286 0.27155 0.47288 0.0
N43 N 0.02461 0.17966 0.57707 0.0
C44 C 0.02177 0.15763 0.52444 0.0
C45 C 0.036 0.16283 0.63026 0.0
C46 C 0.05566 0.12677 0.62777 0.0
C47 C 0.06376 0.10988 0.5701 0.0
C48 C 0.03954 0.12055 0.52122 0.0
Zn49 Zn 0.03185 0.23932 0.57039 0.0
O50 O 0.0899 0.29204 0.49805 0.0
C51 C 0.09313 0.26797 0.66007 0.0
O52 O 0.07285 0.2299 0.502 0.0
H53 H 0.0364 0.18008 0.67245 0.0
H54 H 0.11056 0.36267 0.55883 0.0
H55 H 1.01185 0.17092 0.4826 0.0
O56 O 0.08362 0.30182 0.64003 0.0
O57 O 0.07656 0.23763 0.63783 0.0
H58 H 0.98812 0.3743 0.54989 0.0
O59 O 0.99041 0.24892 0.63546 0.0
O60 O 0.99449 0.31312 0.62565 0.0
O61 O 0.98884 0.24117 0.50431 0.0
O62 O 1.00187 0.30289 0.48554 0.0
C63 C 0.97798 0.28329 0.64834 0.0
H64 H 0.11835 0.43421 0.54709 0.0
H65 H 0.99326 0.44605 0.53783 0.0
H66 H 0.07262 0.11851 0.66701 0.0
H67 H 0.04339 0.10676 0.4764 0.0
C68 C 0.85219 0.16255 0.93392 0.0
N69 N 0.78842 0.08165 0.03028 0.0
C70 C 0.77103 0.08415 0.08636 0.0
C71 C 0.73016 0.08612 0.0912 0.0
C72 C 0.70716 0.08603 0.0378 0.0
C73 C 0.72586 0.08084 0.98117 0.0
C74 C 0.7664 0.07875 0.97841 0.0
Zn75 Zn 0.84722 0.09431 0.01566 0.0
C76 C 0.88249 0.05178 0.90635 0.0
N77 N 0.96522 0.12696 0.97322 0.0
C78 C 0.97021 0.15858 0.93629 0.0
C79 C 0.99045 0.09595 0.97038 0.0
C80 C 1.01681 0.09255 0.92235 0.0
C81 C 1.017 0.12114 0.87693 0.0
C82 C 0.99541 0.15576 0.88603 0.0
Zn83 Zn 0.90914 0.11248 0.99901 0.0
O84 O 0.82698 0.14205 0.96055 0.0
C85 C 0.87833 0.15694 0.10429 0.0
O86 O 0.88787 0.15457 0.94018 0.0
H87 H 0.98648 0.07085 0.99914 0.0
H88 H 0.78875 0.08716 0.12717 0.0
H89 H 0.95117 0.18393 0.94036 0.0
O90 O 0.84896 0.13461 0.09499 0.0
O91 O 0.90778 0.15421 0.06945 0.0
H92 H 0.78022 0.07781 0.93406 0.0
O93 O 0.92816 0.06972 0.06113 0.0
O94 O 0.8688 0.04715 0.07336 0.0
O95 O 0.91104 0.07123 0.92689 0.0
O96 O 0.84962 0.05518 0.93317 0.0
C97 C 0.90519 0.04552 0.0859 0.0
H98 H 0.7169 0.09038 0.13579 0.0
H99 H 0.70929 0.0805 0.93889 0.0
H100 H 0.03308 0.06532 0.91633 0.0
H101 H 0.99527 0.17855 0.85204 0.0
C102 C 0.15841 0.87148 0.43949 0.0
N103 N 0.14868 0.98841 0.47689 0.0
C104 C 0.19242 0.97129 0.48042 0.0
C105 C 0.22899 0.99184 0.43857 0.0
C106 C 0.21837 0.03128 0.39029 0.0
C107 C 0.17011 0.04954 0.38817 0.0
C108 C 0.13366 1.02415 0.43456 0.0
Zn109 Zn 0.11368 0.93939 0.50322 0.0
C110 C 0.05467 0.9165 0.40989 0.0
N111 N 0.0714 0.81962 0.53692 0.0
C112 C 0.09903 0.79502 0.56029 0.0
C113 C 0.03723 0.80452 0.51492 0.0
C114 C 0.03101 0.76338 0.51329 0.0
C115 C 0.06033 0.73778 0.53415 0.0
C116 C 0.09395 0.75432 0.55971 0.0
Zn117 Zn 0.09208 0.87679 0.51946 0.0
O118 O 0.15301 0.90741 0.4509 0.0
C119 C 0.15195 0.90401 0.61182 0.0
O120 O 0.13517 0.84686 0.46155 0.0
H121 H 1.01589 0.82394 0.4948 0.0
H122 H 0.19971 0.94631 0.50807 0.0
H123 H 0.12686 0.80619 0.57491 0.0
O124 O 0.14855 0.9347 0.58046 0.0
O125 O 0.13136 0.87408 0.59794 0.0
H126 H 0.09943 0.02761 0.43664 0.0
O127 O 0.04929 0.90824 0.57734 0.0
O128 O 0.07028 0.96852 0.55744 0.0
O129 O 0.05356 0.88447 0.43996 0.0
O130 O 0.07795 0.94367 0.42657 0.0
C131 C 0.04622 0.94583 0.58436 0.0
H132 H 0.25837 0.98061 0.44322 0.0
H133 H 0.14642 0.04037 0.40762 0.0
H134 H 1.00485 0.75168 0.49225 0.0
H135 H 0.11745 0.73564 0.57551 0.0
H136 H 0.08834 0.13619 0.83051 0.0
H137 H 0.98097 0.07592 0.79296 0.0
H138 H 1.01657 1.02375 0.73907 0.0
H139 H 0.14183 0.05986 0.67429 0.0
H140 H 0.18522 0.07835 0.71042 0.0
H141 H 0.14569 0.11126 0.69191 0.0
H142 H 0.1546 0.1316 0.81271 0.0
H143 H 0.18854 0.09184 0.82232 0.0
H144 H 0.14505 0.09493 0.86843 0.0
H145 H 0.05575 0.96969 0.76709 0.0
H146 H 0.07867 0.9482 0.86781 0.0
H147 H 0.17463 0.02815 0.85769 0.0
C148 C 0.07242 0.11396 0.80479 0.0
C149 C 0.03256 0.10931 0.81646 0.0
C150 C 1.0117 0.07993 0.78417 0.0
C151 C 0.03174 0.05007 0.75259 0.0
C152 C 0.07224 0.05096 0.75114 0.0
C153 C 0.09217 0.0846 0.77009 0.0
C154 C 0.13508 0.07537 0.77263 0.0
C155 C 0.15308 0.08152 0.7088 0.0
C156 C 0.15713 0.09976 0.82208 0.0
C157 C 0.13263 0.03161 0.7847 0.0
C158 C 0.09732 1.01679 0.76244 0.0
C159 C 0.08228 0.9818 0.78565 0.0
C160 C 0.09568 0.96913 0.84262 0.0
C161 C 0.12732 0.98833 0.87039 0.0
C162 C 0.14969 1.0143 0.83597 0.0
H163 H 0.28186 0.04122 0.46772 0.0
H164 H 0.23802 0.10529 0.32077 0.0
H165 H 0.20779 0.15173 0.39824 0.0
H166 H 0.17275 0.99131 0.33226 0.0
H167 H 0.1452 0.96483 0.3793 0.0
H168 H 0.1924 0.95468 0.37163 0.0
H169 H 0.22832 1.00978 0.56132 0.0
H170 H 0.1766 1.0105 0.57925 0.0
H171 H 0.20575 0.05235 0.59086 0.0
H172 H 0.17155 0.17587 0.50592 0.0
H173 H 0.10794 0.17277 0.55527 0.0
H174 H 0.1127 0.04546 0.54996 0.0
C175 C 0.26106 0.06242 0.45056 0.0
C176 C 0.25013 0.06095 0.38901 0.0
C177 C 0.23912 0.09882 0.36902 0.0
C178 C 0.22151 0.12477 0.41276 0.0
C179 C 0.21406 0.10941 0.47165 0.0
C180 C 0.22766 0.07158 0.48505 0.0
C181 C 0.19114 0.04035 0.48878 0.0
C182 C 0.1735 0.98141 0.38133 0.0
C183 C 0.20077 1.02706 0.55824 0.0
C184 C 0.16177 0.0757 0.50873 0.0
C185 C 0.17664 0.1127 0.49733 0.0
C186 C 0.15838 0.14761 0.51447 0.0
C187 C 0.12271 0.14551 0.54314 0.0
C188 C 0.1052 0.10875 0.55363 0.0
C189 C 0.1255 0.07357 0.53949 0.0
H190 H 0.64718 0.05166 0.10338 0.0
H191 H 0.67149 0.14378 0.97452 0.0
H192 H 0.60173 0.16064 0.97011 0.0
H193 H 0.55904 1.01936 0.03171 0.0
H194 H 0.53385 1.00946 0.10196 0.0
H195 H 0.58612 1.00618 0.09915 0.0
H196 H 0.59104 0.05615 0.18999 0.0
H197 H 0.53872 0.0596 0.19302 0.0
H198 H 0.56731 0.10348 0.18475 0.0
H199 H 0.52971 0.16651 0.97598 0.0
H200 H 0.459 0.15961 0.98908 0.0
H201 H 0.47873 0.06231 0.11161 0.0
C202 C 0.63773 0.07568 0.07496 0.0
C203 C 0.66486 0.09641 0.03919 0.0
C204 C 0.65129 0.12733 1.00193 0.0
C205 C 0.61169 0.13727 0.99934 0.0
C206 C 0.58563 0.11602 0.0342 0.0
C207 C 0.59789 0.0858 0.07127 0.0
C208 C 0.56314 0.06656 0.10146 0.0
C209 C 0.56038 1.02279 0.08241 0.0
C210 C 0.56518 0.07176 0.17147 0.0
C211 C 0.52963 0.09037 0.07489 0.0
C212 C 0.54349 0.11896 0.0367 0.0
C213 C 0.51849 0.1442 1.00576 0.0
C214 C 0.47824 0.13986 0.01323 0.0
C215 C 0.46293 0.11025 0.05102 0.0
C216 C 0.48927 0.08554 0.0829 0.0
H217 H 1.01281 0.50908 0.5896 0.0
H218 H 0.10909 0.482 0.46721 0.0
H219 H 0.11706 0.55275 0.44818 0.0
H220 H 0.97288 0.59113 0.50246 0.0
H221 H 0.96016 0.62008 0.56966 0.0
H222 H 0.9607 0.56705 0.5726 0.0
H223 H 1.00873 0.57027 0.66405 0.0
H224 H 1.00819 0.62327 0.66158 0.0
H225 H 0.05371 0.59675 0.65658 0.0
H226 H 0.11627 0.62596 0.44378 0.0
H227 H 0.10872 0.69788 0.45809 0.0
H228 H 1.01284 0.67997 0.58275 0.0
C229 C 0.03532 0.51801 0.55833 0.0
C230 C 0.06045 0.48965 0.53012 0.0
C231 C 0.08984 0.50288 0.49016 0.0
C232 C 0.09439 0.5431 0.4786 0.0
C233 C 0.06935 0.57014 0.50718 0.0
C234 C 0.04044 0.55831 0.54641 0.0
C235 C 1.01847 0.5939 0.57278 0.0
C236 C 0.9755 0.59298 0.5532 0.0
C237 C 0.02253 0.59617 0.64291 0.0
C238 C 0.03985 0.62753 0.54272 0.0
C239 C 0.06888 0.61289 0.50467 0.0
C240 C 0.09349 0.63773 0.47312 0.0
C241 C 0.08894 0.67855 0.48141 0.0
C242 C 0.06 0.69451 0.52094 0.0
C243 C 0.03473 0.66859 0.5514 0.0
H244 H 0.07982 0.19981 0.39397 0.0
H245 H 0.16637 0.28573 0.44954 0.0
H246 H 0.21082 0.25933 0.36839 0.0
H247 H 0.14022 0.12257 0.36844 0.0
H248 H 0.11718 0.10174 0.30091 0.0
H249 H 0.089 0.12957 0.35628 0.0
H250 H 0.06523 0.17934 0.2779 0.0
H251 H 0.08978 0.15089 0.21897 0.0
H252 H 0.09966 0.20275 0.22855 0.0
H253 H 0.24712 0.21875 0.284 0.0
H254 H 0.26963 0.17211 0.20236 0.0
H255 H 0.15713 0.11488 0.20439 0.0
C256 C 0.10796 0.21352 0.38865 0.0
C257 C 0.11981 0.24474 0.42796 0.0
C258 C 0.15673 0.26195 0.41949 0.0
C259 C 0.18209 0.24705 0.37367 0.0
C260 C 0.16957 0.21564 0.33619 0.0
C261 C 0.13299 0.19966 0.34285 0.0
C262 C 0.12621 0.16562 0.29854 0.0
C263 C 0.11767 0.12757 0.33299 0.0
C264 C 0.09328 0.17525 0.2533 0.0
C265 C 0.16521 0.16381 0.26677 0.0
C266 C 0.18988 0.19298 0.28847 0.0
C267 C 0.22777 0.19622 0.26623 0.0
C268 C 0.24038 0.16949 0.22002 0.0
C269 C 0.21515 0.13991 0.19655 0.0
C270 C 0.17719 0.13721 0.22081 0.0
H271 H 0.91635 0.23668 0.63742 0.0
H272 H 0.96145 0.33498 0.74403 0.0
H273 H 0.91015 0.32513 0.82163 0.0
H274 H 0.80836 0.24284 0.69371 0.0
H275 H 0.80701 0.18978 0.69415 0.0
H276 H 0.83487 0.2145 0.63673 0.0
H277 H 0.89636 0.17492 0.6681 0.0
H278 H 0.86874 0.15027 0.72453 0.0
H279 H 0.91206 0.17662 0.747 0.0
H280 H 0.87146 0.29211 0.89935 0.0
H281 H 0.85442 0.23889 0.96908 0.0
H282 H 0.83416 0.16029 0.81478 0.0
C283 C 0.91407 0.25725 0.67586 0.0
C284 C 0.94244 0.28651 0.68528 0.0
C285 C 0.93945 0.31276 0.73591 0.0
C286 C 0.91031 0.30731 0.77997 0.0
C287 C 0.88438 0.27592 0.77184 0.0
C288 C 0.88575 0.25162 0.72019 0.0
C289 C 0.8617 0.21486 0.72768 0.0
C290 C 0.82584 0.21557 0.68558 0.0
C291 C 0.8862 0.17704 0.71628 0.0
C292 C 0.85001 0.21989 0.79404 0.0
C293 C 0.86164 0.25621 0.81792 0.0
C294 C 0.86078 0.26443 0.88075 0.0
C295 C 0.85076 0.23412 0.92018 0.0
C296 C 0.84195 0.1962 0.89653 0.0
C297 C 0.83901 0.18977 0.83304 0.0
H298 H 0.06522 0.96969 0.32012 0.0
H299 H 0.98379 0.88212 0.3821 0.0
H300 H 0.93677 0.90295 0.30222 0.0
H301 H 0.99774 0.04453 0.29349 0.0
H302 H 0.02174 0.06263 0.22652 0.0
H303 H 0.04957 0.03831 0.28464 0.0
H304 H 0.07599 0.98814 0.20364 0.0
H305 H 0.0485 1.01255 0.14504 0.0
H306 H 0.04232 0.96053 0.1564 0.0
H307 H 0.89611 0.93923 0.22028 0.0
H308 H 0.86847 0.98335 0.14176 0.0
H309 H 0.97853 0.04489 0.13429 0.0
C310 C 0.03774 0.95436 0.31644 0.0
C311 C 0.02818 0.92421 0.35744 0.0
C312 C 0.99189 0.90502 0.35089 0.0
C313 C 0.96496 0.91685 0.30582 0.0
C314 C 0.975 0.94752 0.2672 0.0
C315 C 1.01088 0.96553 0.27173 0.0
C316 C 1.01467 0.99846 0.22651 0.0
C317 C 0.0213 0.03831 0.2598 0.0
C318 C 0.0473 0.98936 0.18015 0.0
C319 C 0.97501 0.99687 0.19631 0.0
C320 C 0.95236 0.9674 0.22012 0.0
C321 C 0.91389 0.96198 0.20087 0.0
C322 C 0.89837 0.98723 0.15629 0.0
C323 C 0.9213 1.01744 0.13123 0.0
C324 C 0.96019 1.02185 0.15165 0.0
H325 H 0.21095 0.95553 0.63107 0.0
H326 H 0.15536 0.85441 0.71022 0.0
H327 H 0.19706 0.86226 0.80231 0.0
H328 H 0.31069 0.93979 0.70512 0.0
H329 H 0.3171 0.99222 0.71463 0.0
H330 H 0.29041 0.97277 0.64963 0.0
H331 H 0.23142 1.01671 0.67889 0.0
H332 H 0.25795 0.0366 0.74284 0.0
H333 H 0.2114 1.01406 0.75456 0.0
H334 H 0.23417 0.88869 0.89146 0.0
H335 H 0.25736 0.9342 0.97252 0.0
H336 H 0.28839 1.0192 0.8367 0.0
C337 C 0.20813 0.93446 0.66714 0.0
C338 C 0.17981 0.90443 0.66364 0.0
C339 C 0.17704 0.87742 0.71176 0.0
C340 C 0.2008 0.88157 0.764 0.0
C341 C 0.22766 0.91236 0.76668 0.0
C342 C 0.23159 0.9382 0.71916 0.0
C343 C 0.25854 0.97192 0.73619 0.0
C344 C 0.29644 0.96898 0.6992 0.0
C345 C 0.23862 1.01217 0.72769 0.0
C346 C 0.26587 0.96346 0.80303 0.0
C347 C 0.2494 0.92788 0.81879 0.0
C348 C 0.24815 0.9159 0.8793 0.0
C349 C 0.26169 0.94183 0.92508 0.0
C350 C 0.27565 0.9796 0.91034 0.0
C351 C 0.27959 0.98975 0.84854 0.0
H352 H 0.91237 0.97812 0.88008 0.0
H353 H 0.87072 0.08508 0.79735 0.0
H354 H 0.90252 0.0655 0.70012 0.0
H355 H 0.99879 0.97627 0.82656 0.0
H356 H 1.00639 0.9249 0.80574 0.0
H357 H 0.97165 0.93861 0.86367 0.0
H358 H 0.91528 0.90498 0.80838 0.0
H359 H 0.9491 0.88694 0.75119 0.0
H360 H 0.90635 0.91407 0.72855 0.0
H361 H 0.95176 0.04309 0.6227 0.0
H362 H 1.00624 1.01392 0.56336 0.0
H363 H 1.0128 0.9174 0.68992 0.0
C364 C 0.90777 0.99595 0.84014 0.0
C365 C 0.8877 0.03239 0.84551 0.0
C366 C 0.88446 0.05632 0.79346 0.0
C367 C 0.9028 0.04554 0.73811 0.0
C368 C 0.9237 1.01017 0.73482 0.0
C369 C 0.9251 0.98494 0.78376 0.0
C370 C 0.95237 0.95039 0.76993 0.0
C371 C 0.98426 0.9474 0.81925 0.0
C372 C 0.9294 0.91181 0.76416 0.0
C373 C 0.96863 0.96191 0.70798 0.0
C374 C 0.95109 0.99619 0.68817 0.0
C375 C 0.96443 1.01534 0.63632 0.0
C376 C 0.99581 0.99882 0.60326 0.0
C377 C 1.01346 0.96306 0.62124 0.0
C378 C 0.99929 0.94425 0.67412 0.0
H379 H 0.22153 0.93873 0.13348 0.0
H380 H 0.31725 0.99373 0.2312 0.0
H381 H 0.30968 0.94544 0.31422 0.0
H382 H 0.16322 0.93552 0.25312 0.0
H383 H 0.1392 0.89019 0.23204 0.0
H384 H 0.16053 0.91951 0.17404 0.0
H385 H 0.20193 0.85937 0.13748 0.0
H386 H 0.18085 0.82987 0.19643 0.0
H387 H 0.23294 0.83443 0.19114 0.0
H388 H 0.2822 0.90181 0.39481 0.0
H389 H 0.23438 0.87652 0.46762 0.0
H390 H 0.15412 0.85289 0.31929 0.0
C391 C 0.24196 0.93977 0.17122 0.0
C392 C 0.2702 0.96979 0.17571 0.0
C393 C 0.29596 0.9705 0.22623 0.0
C394 C 0.29176 0.94312 0.27352 0.0
C395 C 0.262 0.91511 0.269 0.0
C396 C 0.23758 0.9134 0.21871 0.0
C397 C 0.20313 0.88676 0.22905 0.0
C398 C 0.1643 0.90935 0.22172 0.0
C399 C 0.20484 0.85045 0.18596 0.0
C400 C 0.21036 0.87541 0.29473 0.0
C401 C 0.24532 0.89067 0.31621 0.0
C402 C 0.25554 0.88871 0.37788 0.0
C403 C 0.22836 0.87365 0.41899 0.0
C404 C 0.19103 0.86167 0.39863 0.0
C405 C 0.18311 0.86001 0.33539 0.0
H406 H 0.1684 0.23884 0.6694 0.0
H407 H 0.0703 0.28159 0.77611 0.0
H408 H 0.10097 0.25648 0.86991 0.0
H409 H 0.18665 0.15653 0.73008 0.0
H410 H 0.23847 0.15457 0.74171 0.0
H411 H 0.21789 0.18499 0.68318 0.0
H412 H 0.24713 0.24822 0.72518 0.0
H413 H 0.27265 0.21955 0.78138 0.0
H414 H 0.24292 0.26095 0.80539 0.0
H415 H 0.13387 0.21577 0.94595 0.0
H416 H 0.17023 0.16639 1.00395 0.0
H417 H 0.25184 0.15174 0.85405 0.0
C418 C 0.15454 0.24467 0.71314 0.0
C419 C 0.11733 0.26312 0.71586 0.0
C420 C 0.09919 0.26872 0.77333 0.0
C421 C 0.11639 0.25436 0.82684 0.0
C422 C 0.15249 0.23543 0.82269 0.0
C423 C 0.17225 0.23181 0.76782 0.0
C424 C 0.21005 0.20852 0.77661 0.0
C425 C 0.21352 0.17404 0.73025 0.0
C426 C 0.24527 0.23594 0.77186 0.0
C427 C 0.20537 0.19487 0.84243 0.0
C428 C 0.17265 0.21231 0.86843 0.0
C429 C 0.16011 0.20283 0.92678 0.0
C430 C 0.18096 0.17456 0.95938 0.0
C431 C 0.21425 0.15561 0.9342 0.0
C432 C 0.22718 0.16654 0.87521 0.0
H433 H 0.87229 0.14161 0.22585 0.0
H434 H 0.89278 0.23492 0.09813 0.0
H435 H 0.91147 0.27976 0.18377 0.0
H436 H 0.84013 0.20546 0.36155 0.0
H437 H 0.86646 0.17482 0.41408 0.0
H438 H 0.8457 0.15345 0.34524 0.0
H439 H 0.91343 0.12537 0.31489 0.0
H440 H 0.93438 0.14684 0.38311 0.0
H441 H 0.95405 0.15843 0.30928 0.0
H442 H 0.93865 0.31055 0.28036 0.0
H443 H 0.97287 0.32365 0.37861 0.0
H444 H 0.93601 0.2097 0.44277 0.0
C445 C 0.87877 0.1721 0.21662 0.0
C446 C 0.87998 0.18539 0.15599 0.0
C447 C 0.8908 0.22471 0.1447 0.0
C448 C 0.90148 0.25032 0.19302 0.0
C449 C 0.9015 0.23602 0.25238 0.0
C450 C 0.89023 0.19782 0.26439 0.0
C451 C 0.8984 0.18778 0.33043 0.0
C452 C 0.8604 0.17993 0.36486 0.0
C453 C 0.92675 0.15255 0.33462 0.0
C454 C 0.91715 0.22567 0.353 0.0
C455 C 0.91813 0.25345 0.30779 0.0
C456 C 0.9373 0.28934 0.31659 0.0
C457 C 0.95665 0.2966 0.37254 0.0
C458 C 0.95699 0.26789 0.41858 0.0
C459 C 0.93599 0.23255 0.40889 0.0
loop_
_geom_bond_atom_site_label_1
_geom_bond_atom_site_label_2
_geom_bond_distance
_geom_bond_site_symmetry_2
_ccdc_geom_bond_type
C0 O16 1.251 . S
C0 O18 1.254 . S
N1 C2 1.333 1_554 S
N1 C6 1.307 . S
N1 Zn7 2.020 . S
C2 N1 1.333 1_556 S
C2 C3 1.379 . S
C2 H20 0.952 . S
C3 C2 1.379 . S
C3 C4 1.390 1_556 S
C3 H30 0.949 . S
C4 C3 1.390 1_554 S
C4 C5 1.357 . S
C5 C4 1.357 . S
C5 C6 1.370 . S
C5 H31 0.950 . S
C6 N1 1.307 . S
C6 C5 1.370 . S
C6 H24 0.948 . S
Zn7 N1 2.020 . S
Zn7 O16 2.039 1_554 S
Zn7 O22 2.034 . S
Zn7 O26 2.025 . S
Zn7 O28 2.024 1_554 S
C8 O27 1.246 . S
C8 O28 1.249 . S
N9 C10 1.307 1_554 S
N9 C11 1.333 . S
N9 Zn15 2.020 . S
C10 N9 1.307 1_556 S
C10 C14 1.370 . S
C10 H21 0.948 . S
C11 N9 1.333 . S
C11 C12 1.379 . S
C11 H19 0.952 . S
C12 C11 1.379 . S
C12 C13 1.390 . S
C12 H32 0.949 . S
C13 C12 1.390 . S
C13 C14 1.357 1_554 S
C14 C10 1.370 . S
C14 C13 1.357 1_556 S
C14 H33 0.950 . S
Zn15 N9 2.020 . S
Zn15 O18 2.025 1_554 S
Zn15 O23 2.024 . S
Zn15 O25 2.039 . S
Zn15 O27 2.034 1_554 S
O16 C0 1.251 . S
O16 Zn7 2.039 1_556 S
C17 O22 1.246 . S
C17 O23 1.249 . S
O18 C0 1.254 . S
O18 Zn15 2.025 1_556 S
H19 C11 0.952 . S
H20 C2 0.952 . S
H21 C10 0.948 . S
O22 Zn7 2.034 . S
O22 C17 1.246 . S
O23 Zn15 2.024 . S
O23 C17 1.249 . S
H24 C6 0.948 . S
O25 Zn15 2.039 . S
O25 C29 1.251 . S
O26 Zn7 2.025 . S
O26 C29 1.254 . S
O27 C8 1.246 . S
O27 Zn15 2.034 1_556 S
O28 Zn7 2.024 1_556 S
O28 C8 1.249 . S
C29 O25 1.251 . S
C29 O26 1.254 . S
H30 C3 0.949 . S
H31 C5 0.950 . S
H32 C12 0.949 . S
H33 C14 0.950 . S
C34 O50 1.251 . S
C34 O52 1.254 . S
N35 C36 1.333 . S
N35 C40 1.307 . S
N35 Zn41 2.020 . S
C36 N35 1.333 . S
C36 C37 1.379 . S
C36 H54 0.952 . S
C37 C36 1.379 . S
C37 C38 1.390 . S
C37 H64 0.949 . S
C38 C37 1.390 . S
C38 C39 1.357 . S
C39 C38 1.357 . S
C39 C40 1.370 . S
C39 H65 0.950 1_455 S
C40 N35 1.307 . S
C40 C39 1.370 . S
C40 H58 0.948 1_455 S
Zn41 N35 2.020 . S
Zn41 O50 2.039 . S
Zn41 O56 2.034 . S
Zn41 O60 2.025 1_455 S
Zn41 O62 2.024 1_455 S
C42 O61 1.243 1_655 S
C42 O62 1.249 . S
N43 C44 1.307 . S
N43 C45 1.333 . S
N43 Zn49 2.020 . S
C44 N43 1.307 . S
C44 C48 1.370 . S
C44 H55 0.948 . S
C45 N43 1.333 . S
C45 C46 1.379 . S
C45 H53 0.952 1_455 S
C46 C45 1.379 . S
C46 C47 1.390 . S
C46 H66 0.949 1_455 S
C47 C46 1.390 . S
C47 C48 1.357 . S
C48 C44 1.370 . S
C48 C47 1.357 . S
C48 H67 0.950 . S
Zn49 N43 2.020 . S
Zn49 O52 2.025 . S
Zn49 O57 2.024 . S
Zn49 O59 2.039 . S
Zn49 O61 2.039 . S
O50 C34 1.251 . S
O50 Zn41 2.039 . S
C51 O56 1.246 . S
C51 O57 1.249 . S
O52 C34 1.254 . S
O52 Zn49 2.025 . S
H53 C45 0.952 1_655 S
H54 C36 0.952 . S
H55 C44 0.948 . S
O56 Zn41 2.034 . S
O56 C51 1.246 . S
O57 Zn49 2.024 . S
O57 C51 1.249 . S
H58 C40 0.948 1_655 S
O59 Zn49 2.039 . S
O59 C63 1.251 1_455 S
O60 Zn41 2.025 1_655 S
O60 C63 1.254 . S
O61 C42 1.243 1_455 S
O61 Zn49 2.039 . S
O62 Zn41 2.024 1_655 S
O62 C42 1.249 . S
C63 O59 1.251 1_655 S
C63 O60 1.254 . S
H64 C37 0.949 . S
H65 C39 0.950 1_655 S
H66 C46 0.949 1_655 S
H67 C48 0.950 . S
C68 O84 1.251 . S
C68 O86 1.254 . S
N69 C70 1.333 1_554 S
N69 C74 1.307 . S
N69 Zn75 2.020 . S
C70 N69 1.333 1_556 S
C70 C71 1.379 . S
C70 H88 0.952 . S
C71 C70 1.379 . S
C71 C72 1.390 . S
C71 H98 0.949 . S
C72 C71 1.390 . S
C72 C73 1.356 1_556 S
C73 C72 1.356 1_554 S
C73 C74 1.370 . S
C73 H99 0.950 1_545 S
C74 N69 1.307 . S
C74 C73 1.370 . S
C74 H92 0.948 1_545 S
Zn75 N69 2.020 . S
Zn75 O84 2.039 1_554 S
Zn75 O90 2.034 . S
Zn75 O94 2.025 1_545 S
Zn75 O96 2.024 1_544 S
C76 O95 1.250 . S
C76 O96 1.249 . S
N77 C78 1.309 . S
N77 C79 1.329 1_556 S
N77 Zn83 2.019 1_556 S
C78 N77 1.309 . S
C78 C82 1.370 1_655 S
C78 H89 0.948 . S
C79 N77 1.329 1_554 S
C79 C80 1.379 1_655 S
C79 H87 0.952 1_545 S
C80 C79 1.379 1_455 S
C80 C81 1.390 . S
C80 H100 0.949 1_545 S
C81 C80 1.390 . S
C81 C82 1.357 1_554 S
C82 C78 1.370 1_455 S
C82 C81 1.357 1_556 S
C82 H101 0.950 . S
Zn83 N77 2.019 1_554 S
Zn83 O86 2.025 1_554 S
Zn83 O91 2.024 . S
Zn83 O93 2.039 . S
Zn83 O95 2.026 1_544 S
O84 C68 1.251 . S
O84 Zn75 2.039 1_556 S
C85 O90 1.246 . S
C85 O91 1.249 . S
O86 C68 1.254 . S
O86 Zn83 2.025 1_556 S
H87 C79 0.952 1_565 S
H88 C70 0.952 . S
H89 C78 0.948 . S
O90 Zn75 2.034 . S
O90 C85 1.246 . S
O91 Zn83 2.024 . S
O91 C85 1.249 . S
H92 C74 0.948 1_565 S
O93 Zn83 2.039 . S
O93 C97 1.251 1_545 S
O94 Zn75 2.025 1_565 S
O94 C97 1.254 . S
O95 C76 1.250 . S
O95 Zn83 2.026 1_566 S
O96 Zn75 2.024 1_566 S
O96 C76 1.249 . S
C97 O93 1.251 1_565 S
C97 O94 1.254 . S
H98 C71 0.949 . S
H99 C73 0.950 1_565 S
H100 C80 0.949 1_565 S
H101 C82 0.950 . S
C102 O118 1.251 . S
C102 O120 1.254 . S
N103 C104 1.333 . S
N103 C108 1.307 . S
N103 Zn109 2.020 . S
C104 N103 1.333 . S
C104 C105 1.379 1_565 S
C104 H122 0.952 . S
C105 C104 1.379 1_545 S
C105 C106 1.390 . S
C105 H132 0.949 . S
C106 C105 1.390 . S
C106 C107 1.357 . S
C107 C106 1.357 . S
C107 C108 1.370 1_545 S
C107 H133 0.950 . S
C108 N103 1.307 . S
C108 C107 1.370 1_565 S
C108 H126 0.948 . S
Zn109 N103 2.020 . S
Zn109 O118 2.039 . S
Zn109 O124 2.034 . S
Zn109 O128 2.025 . S
Zn109 O130 2.024 . S
C110 O129 1.246 . S
C110 O130 1.249 . S
N111 C112 1.307 . S
N111 C113 1.333 . S
N111 Zn117 2.020 . S
C112 N111 1.307 . S
C112 C116 1.370 . S
C112 H123 0.948 . S
C113 N111 1.333 . S
C113 C114 1.379 . S
C113 H121 0.952 . S
C114 C113 1.379 . S
C114 C115 1.390 . S
C114 H134 0.949 . S
C115 C114 1.390 . S
C115 C116 1.357 . S
C116 C112 1.370 . S
C116 C115 1.357 . S
C116 H135 0.950 . S
Zn117 N111 2.020 . S
Zn117 O120 2.025 . S
Zn117 O125 2.024 . S
Zn117 O127 2.039 . S
Zn117 O129 2.034 . S
O118 C102 1.251 . S
O118 Zn109 2.039 . S
C119 O124 1.246 . S
C119 O125 1.249 . S
O120 C102 1.254 . S
O120 Zn117 2.025 . S
H121 C113 0.952 . S
H122 C104 0.952 . S
H123 C112 0.948 . S
O124 Zn109 2.034 . S
O124 C119 1.246 . S
O125 Zn117 2.024 . S
O125 C119 1.249 . S
H126 C108 0.948 . S
O127 Zn117 2.039 . S
O127 C131 1.251 . S
O128 Zn109 2.025 . S
O128 C131 1.254 . S
O129 C110 1.246 . S
O129 Zn117 2.034 . S
O130 Zn109 2.024 . S
O130 C110 1.249 . S
C131 O127 1.251 . S
C131 O128 1.254 . S
H132 C105 0.949 . S
H133 C107 0.950 . S
H134 C114 0.949 . S
H135 C116 0.950 . S
H136 C148 0.930 . S
H137 C150 0.930 . S
H138 C151 0.930 . S
H139 C155 0.959 . S
H140 C155 0.959 . S
H141 C155 0.961 . S
H142 C156 0.960 . S
H143 C156 0.961 . S
H144 C156 0.959 . S
H145 C159 0.929 . S
H146 C160 0.931 . S
H147 C162 0.930 . S
C148 H136 0.930 . S
C148 C149 1.399 1_556 S
C148 C153 1.399 1_565 S
C149 C148 1.399 1_554 S
C149 C150 1.376 . S
C150 H137 0.930 . S
C150 C149 1.376 . S
C150 C151 1.388 1_565 S
C151 H138 0.930 . S
C151 C150 1.388 1_545 S
C151 C152 1.390 . S
C152 C151 1.390 . S
C152 C153 1.394 1_554 S
C152 C158 1.465 . S
C153 C148 1.399 1_545 S
C153 C152 1.394 1_556 S
C153 C154 1.516 . S
C154 C153 1.516 . S
C154 C155 1.502 . S
C154 C156 1.561 . S
C154 C157 1.526 . S
C155 H139 0.959 . S
C155 H140 0.959 . S
C155 H141 0.961 . S
C155 C154 1.502 . S
C156 H142 0.960 . S
C156 H143 0.961 . S
C156 H144 0.959 . S
C156 C154 1.561 . S
C157 C154 1.526 . S
C157 C158 1.396 1_556 S
C157 C162 1.390 . S
C158 C152 1.465 . S
C158 C157 1.396 1_554 S
C158 C159 1.399 . S
C159 H145 0.929 . S
C159 C158 1.399 . S
C159 C160 1.385 . S
C160 H146 0.931 . S
C160 C159 1.385 . S
C160 C161 1.389 . S
C161 C160 1.389 . S
C161 C162 1.387 1_554 S
C162 H147 0.930 . S
C162 C157 1.390 . S
C162 C161 1.387 1_556 S
H163 C175 0.930 1_565 S
H164 C177 0.930 . S
H165 C178 0.930 . S
H166 C182 0.959 . S
H167 C182 0.959 . S
H168 C182 0.961 . S
H169 C183 0.960 . S
H170 C183 0.961 . S
H171 C183 0.959 1_545 S
H172 C186 0.929 . S
H173 C187 0.931 . S
H174 C189 0.930 . S
C175 H163 0.930 1_545 S
C175 C176 1.399 . S
C175 C180 1.399 . S
C176 C175 1.399 . S
C176 C177 1.376 . S
C177 H164 0.930 . S
C177 C176 1.376 . S
C177 C178 1.388 . S
C178 H165 0.930 . S
C178 C177 1.388 . S
C178 C179 1.390 . S
C179 C178 1.390 . S
C179 C180 1.394 . S
C179 C185 1.465 . S
C180 C175 1.399 . S
C180 C179 1.394 . S
C180 C181 1.516 . S
C181 C180 1.516 . S
C181 C182 1.502 1_545 S
C181 C183 1.561 1_545 S
C181 C184 1.526 . S
C182 H166 0.959 . S
C182 H167 0.959 . S
C182 H168 0.961 . S
C182 C181 1.502 1_565 S
C183 H169 0.960 . S
C183 H170 0.961 . S
C183 H171 0.959 1_565 S
C183 C181 1.561 1_565 S
C184 C181 1.526 . S
C184 C185 1.396 . S
C184 C189 1.390 1_455 S
C185 C179 1.465 . S
C185 C184 1.396 . S
C185 C186 1.399 . S
C186 H172 0.929 . S
C186 C185 1.399 . S
C186 C187 1.385 1_455 S
C187 H173 0.931 . S
C187 C186 1.385 1_655 S
C187 C188 1.389 . S
C188 C187 1.389 . S
C188 C189 1.387 . S
C189 H174 0.930 . S
C189 C184 1.390 1_655 S
C189 C188 1.387 . S
H190 C202 0.930 . S
H191 C204 0.930 . S
H192 C205 0.930 . S
H193 C209 0.959 . S
H194 C209 0.959 . S
H195 C209 0.961 . S
H196 C210 0.960 . S
H197 C210 0.961 . S
H198 C210 0.959 . S
H199 C213 0.929 . S
H200 C214 0.931 . S
H201 C216 0.930 . S
C202 H190 0.930 . S
C202 C203 1.399 1_554 S
C202 C207 1.399 . S
C203 C202 1.399 1_556 S
C203 C204 1.376 . S
C204 H191 0.930 . S
C204 C203 1.376 . S
C204 C205 1.388 . S
C205 H192 0.930 . S
C205 C204 1.388 . S
C205 C206 1.390 . S
C206 C205 1.390 . S
C206 C207 1.394 1_556 S
C206 C212 1.465 . S
C207 C202 1.399 . S
C207 C206 1.394 1_554 S
C207 C208 1.516 . S
C208 C207 1.516 . S
C208 C209 1.502 . S
C208 C210 1.561 . S
C208 C211 1.526 . S
C209 H193 0.959 . S
C209 H194 0.959 . S
C209 H195 0.961 . S
C209 C208 1.502 . S
C210 H196 0.960 . S
C210 H197 0.961 . S
C210 H198 0.959 . S
C210 C208 1.561 . S
C211 C208 1.526 . S
C211 C212 1.396 1_554 S
C211 C216 1.390 . S
C212 C206 1.465 . S
C212 C211 1.396 1_556 S
C212 C213 1.399 . S
C213 H199 0.929 . S
C213 C212 1.399 . S
C213 C214 1.385 . S
C214 H200 0.931 . S
C214 C213 1.385 . S
C214 C215 1.389 . S
C215 C214 1.389 . S
C215 C216 1.387 1_556 S
C216 H201 0.930 . S
C216 C211 1.390 . S
C216 C215 1.387 1_554 S
H217 C229 0.930 . S
H218 C231 0.930 . S
H219 C232 0.930 . S
H220 C236 0.944 1_655 S
H221 C236 0.959 . S
H222 C236 0.961 . S
H223 C237 0.960 . S
H224 C237 0.961 . S
H225 C237 0.959 . S
H226 C240 0.929 . S
H227 C241 0.931 . S
H228 C243 0.930 . S
C229 H217 0.930 . S
C229 C230 1.399 . S
C229 C234 1.399 . S
C230 C229 1.399 . S
C230 C231 1.376 . S
C231 H218 0.930 . S
C231 C230 1.376 . S
C231 C232 1.388 . S
C232 H219 0.930 . S
C232 C231 1.388 . S
C232 C233 1.390 . S
C233 C232 1.390 . S
C233 C234 1.394 . S
C233 C239 1.465 . S
C234 C229 1.399 . S
C234 C233 1.394 . S
C234 C235 1.516 . S
C235 C234 1.516 . S
C235 C236 1.502 . S
C235 C237 1.561 . S
C235 C238 1.526 . S
C236 H220 0.944 1_455 S
C236 H221 0.959 . S
C236 H222 0.961 . S
C236 C235 1.502 . S
C237 H223 0.960 . S
C237 H224 0.961 . S
C237 H225 0.959 . S
C237 C235 1.561 . S
C238 C235 1.526 . S
C238 C239 1.396 . S
C238 C243 1.390 . S
C239 C233 1.465 . S
C239 C238 1.396 . S
C239 C240 1.399 . S
C240 H226 0.929 . S
C240 C239 1.399 . S
C240 C241 1.385 . S
C241 H227 0.931 . S
C241 C240 1.385 . S
C241 C242 1.389 . S
C242 C241 1.389 . S
C242 C243 1.387 . S
C243 H228 0.930 . S
C243 C238 1.390 . S
C243 C242 1.387 . S
H244 C256 0.930 . S
H245 C258 0.930 . S
H246 C259 0.930 . S
H247 C263 0.959 . S
H248 C263 0.959 . S
H249 C263 0.961 . S
H250 C264 0.960 . S
H251 C264 0.961 . S
H252 C264 0.959 . S
H253 C267 0.929 . S
H254 C268 0.931 . S
H255 C270 0.930 . S
C256 H244 0.930 . S
C256 C257 1.399 . S
C256 C261 1.399 . S
C257 C256 1.399 . S
C257 C258 1.376 . S
C258 H245 0.930 . S
C258 C257 1.376 . S
C258 C259 1.388 . S
C259 H246 0.930 . S
C259 C258 1.388 . S
C259 C260 1.390 . S
C260 C259 1.390 . S
C260 C261 1.394 . S
C260 C266 1.465 . S
C261 C256 1.399 . S
C261 C260 1.394 . S
C261 C262 1.516 . S
C262 C261 1.516 . S
C262 C263 1.502 . S
C262 C264 1.561 . S
C262 C265 1.526 . S
C263 H247 0.959 . S
C263 H248 0.959 . S
C263 H249 0.961 . S
C263 C262 1.502 . S
C264 H250 0.960 . S
C264 H251 0.961 . S
C264 H252 0.959 . S
C264 C262 1.561 . S
C265 C262 1.526 . S
C265 C266 1.396 . S
C265 C270 1.390 . S
C266 C260 1.465 . S
C266 C265 1.396 . S
C266 C267 1.399 . S
C267 H253 0.929 . S
C267 C266 1.399 . S
C267 C268 1.385 . S
C268 H254 0.931 . S
C268 C267 1.385 . S
C268 C269 1.389 . S
C269 C268 1.389 . S
C269 C270 1.387 . S
C270 H255 0.930 . S
C270 C265 1.390 . S
C270 C269 1.387 . S
H271 C283 0.930 . S
H272 C285 0.930 1_455 S
H273 C286 0.930 . S
H274 C290 0.959 . S
H275 C290 0.959 . S
H276 C290 0.961 . S
H277 C291 0.960 . S
H278 C291 0.961 . S
H279 C291 0.959 . S
H280 C294 0.929 . S
H281 C295 0.931 . S
H282 C297 0.930 . S
C283 H271 0.930 . S
C283 C284 1.399 . S
C283 C288 1.399 . S
C284 C283 1.399 . S
C284 C285 1.376 . S
C285 H272 0.930 1_655 S
C285 C284 1.376 . S
C285 C286 1.388 . S
C286 H273 0.930 . S
C286 C285 1.388 . S
C286 C287 1.390 . S
C287 C286 1.390 . S
C287 C288 1.394 . S
C287 C293 1.465 . S
C288 C283 1.399 . S
C288 C287 1.394 . S
C288 C289 1.516 . S
C289 C288 1.516 . S
C289 C290 1.502 . S
C289 C291 1.561 . S
C289 C292 1.526 . S
C290 H274 0.959 . S
C290 H275 0.959 . S
C290 H276 0.961 . S
C290 C289 1.502 . S
C291 H277 0.960 . S
C291 H278 0.961 . S
C291 H279 0.959 . S
C291 C289 1.561 . S
C292 C289 1.526 . S
C292 C293 1.396 . S
C292 C297 1.390 . S
C293 C287 1.465 . S
C293 C292 1.396 . S
C293 C294 1.399 . S
C294 H280 0.929 . S
C294 C293 1.399 . S
C294 C295 1.385 . S
C295 H281 0.931 . S
C295 C294 1.385 . S
C295 C296 1.389 . S
C296 C295 1.389 . S
C296 C297 1.387 . S
C297 H282 0.930 . S
C297 C292 1.390 . S
C297 C296 1.387 . S
H298 C310 0.930 . S
H299 C312 0.930 . S
H300 C313 0.930 . S
H301 C317 0.959 . S
H302 C317 0.959 . S
H303 C317 0.961 . S
H304 C318 0.960 . S
H305 C318 0.961 . S
H306 C318 0.959 . S
H307 C321 0.929 . S
H308 C322 0.931 . S
H309 C324 0.930 . S
C310 H298 0.930 . S
C310 C311 1.399 . S
C310 C315 1.399 . S
C311 C310 1.399 . S
C311 C312 1.376 1_655 S
C312 H299 0.930 . S
C312 C311 1.376 1_455 S
C312 C313 1.388 . S
C313 H300 0.930 . S
C313 C312 1.388 . S
C313 C314 1.390 1_455 S
C314 C313 1.390 1_655 S
C314 C315 1.394 . S
C314 C320 1.465 . S
C315 C310 1.399 . S
C315 C314 1.394 . S
C315 C316 1.516 . S
C316 C315 1.516 . S
C316 C317 1.502 . S
C316 C318 1.561 . S
C316 C319 1.526 . S
C317 H301 0.959 . S
C317 H302 0.959 . S
C317 H303 0.961 . S
C317 C316 1.502 . S
C318 H304 0.960 . S
C318 H305 0.961 . S
C318 H306 0.959 . S
C318 C316 1.561 . S
C319 C316 1.526 . S
C319 C320 1.396 . S
C319 C324 1.390 . S
C320 C314 1.465 . S
C320 C319 1.396 . S
C320 C321 1.399 . S
C321 H307 0.929 . S
C321 C320 1.399 . S
C321 C322 1.385 . S
C322 H308 0.931 . S
C322 C321 1.385 . S
C322 C323 1.389 . S
C323 C322 1.389 . S
C323 C324 1.387 . S
C324 H309 0.930 . S
C324 C319 1.390 . S
C324 C323 1.387 . S
H325 C337 0.930 . S
H326 C339 0.930 . S
H327 C340 0.930 . S
H328 C344 0.959 . S
H329 C344 0.959 . S
H330 C344 0.961 . S
H331 C345 0.960 . S
H332 C345 0.961 1_545 S
H333 C345 0.959 . S
H334 C348 0.929 . S
H335 C349 0.931 . S
H336 C351 0.930 . S
C337 H325 0.930 . S
C337 C338 1.399 . S
C337 C342 1.399 . S
C338 C337 1.399 . S
C338 C339 1.376 . S
C339 H326 0.930 . S
C339 C338 1.376 . S
C339 C340 1.388 . S
C340 H327 0.930 . S
C340 C339 1.388 . S
C340 C341 1.390 . S
C341 C340 1.390 . S
C341 C342 1.394 . S
C341 C347 1.465 . S
C342 C337 1.399 . S
C342 C341 1.394 . S
C342 C343 1.516 . S
C343 C342 1.516 . S
C343 C344 1.502 . S
C343 C345 1.561 . S
C343 C346 1.526 . S
C344 H328 0.959 . S
C344 H329 0.959 . S
C344 H330 0.961 . S
C344 C343 1.502 . S
C345 H331 0.960 . S
C345 H332 0.961 1_565 S
C345 H333 0.959 . S
C345 C343 1.561 . S
C346 C343 1.526 . S
C346 C347 1.396 . S
C346 C351 1.390 . S
C347 C341 1.465 . S
C347 C346 1.396 . S
C347 C348 1.399 . S
C348 H334 0.929 . S
C348 C347 1.399 . S
C348 C349 1.385 . S
C349 H335 0.931 . S
C349 C348 1.385 . S
C349 C350 1.389 . S
C350 C349 1.389 . S
C350 C351 1.387 . S
C351 H336 0.930 . S
C351 C346 1.390 . S
C351 C350 1.387 . S
H352 C364 0.930 . S
H353 C366 0.930 . S
H354 C367 0.930 . S
H355 C371 0.959 1_455 S
H356 C371 0.959 1_455 S
H357 C371 0.961 . S
H358 C372 0.960 . S
H359 C372 0.961 . S
H360 C372 0.959 . S
H361 C375 0.929 . S
H362 C376 0.931 . S
H363 C378 0.930 1_455 S
C364 H352 0.930 . S
C364 C365 1.399 . S
C364 C369 1.399 . S
C365 C364 1.399 . S
C365 C366 1.376 . S
C366 H353 0.930 . S
C366 C365 1.376 . S
C366 C367 1.388 . S
C367 H354 0.930 . S
C367 C366 1.388 . S
C367 C368 1.390 . S
C368 C367 1.390 . S
C368 C369 1.394 . S
C368 C374 1.465 . S
C369 C364 1.399 . S
C369 C368 1.394 . S
C369 C370 1.516 . S
C370 C369 1.516 . S
C370 C371 1.502 . S
C370 C372 1.561 . S
C370 C373 1.526 . S
C371 H355 0.959 1_655 S
C371 H356 0.959 1_655 S
C371 H357 0.961 . S
C371 C370 1.502 . S
C372 H358 0.960 . S
C372 H359 0.961 . S
C372 H360 0.959 . S
C372 C370 1.561 . S
C373 C370 1.526 . S
C373 C374 1.396 . S
C373 C378 1.390 . S
C374 C368 1.465 . S
C374 C373 1.396 . S
C374 C375 1.399 . S
C375 H361 0.929 . S
C375 C374 1.399 . S
C375 C376 1.385 . S
C376 H362 0.931 . S
C376 C375 1.385 . S
C376 C377 1.389 . S
C377 C376 1.389 . S
C377 C378 1.387 . S
C378 H363 0.930 1_655 S
C378 C373 1.390 . S
C378 C377 1.387 . S
H379 C391 0.930 1_545 S
H380 C393 0.930 . S
H381 C394 0.930 . S
H382 C398 0.959 . S
H383 C398 0.959 . S
H384 C398 0.961 1_545 S
H385 C399 0.960 . S
H386 C399 0.961 . S
H387 C399 0.959 . S
H388 C402 0.929 . S
H389 C403 0.931 . S
H390 C405 0.930 . S
C391 H379 0.930 1_565 S
C391 C392 1.399 . S
C391 C396 1.399 . S
C392 C391 1.399 . S
C392 C393 1.376 . S
C393 H380 0.930 . S
C393 C392 1.376 . S
C393 C394 1.388 . S
C394 H381 0.930 . S
C394 C393 1.388 . S
C394 C395 1.390 . S
C395 C394 1.390 . S
C395 C396 1.394 . S
C395 C401 1.465 . S
C396 C391 1.399 . S
C396 C395 1.394 . S
C396 C397 1.516 . S
C397 C396 1.516 . S
C397 C398 1.502 . S
C397 C399 1.561 . S
C397 C400 1.526 . S
C398 H382 0.959 . S
C398 H383 0.959 . S
C398 H384 0.961 1_565 S
C398 C397 1.502 . S
C399 H385 0.960 . S
C399 H386 0.961 . S
C399 H387 0.959 . S
C399 C397 1.561 . S
C400 C397 1.526 . S
C400 C401 1.396 . S
C400 C405 1.390 . S
C401 C395 1.465 . S
C401 C400 1.396 . S
C401 C402 1.399 . S
C402 H388 0.929 . S
C402 C401 1.399 . S
C402 C403 1.385 . S
C403 H389 0.931 . S
C403 C402 1.385 . S
C403 C404 1.389 . S
C404 C403 1.389 . S
C404 C405 1.387 . S
C405 H390 0.930 . S
C405 C400 1.390 . S
C405 C404 1.387 . S
H406 C418 0.930 . S
H407 C420 0.930 . S
H408 C421 0.930 . S
H409 C425 0.959 . S
H410 C425 0.959 . S
H411 C425 0.961 . S
H412 C426 0.960 . S
H413 C426 0.961 . S
H414 C426 0.959 . S
H415 C429 0.929 . S
H416 C430 0.931 . S
H417 C432 0.930 . S
C418 H406 0.930 . S
C418 C419 1.399 . S
C418 C423 1.399 . S
C419 C418 1.399 . S
C419 C420 1.376 . S
C420 H407 0.930 . S
C420 C419 1.376 . S
C420 C421 1.388 . S
C421 H408 0.930 . S
C421 C420 1.388 . S
C421 C422 1.390 . S
C422 C421 1.390 . S
C422 C423 1.394 . S
C422 C428 1.465 . S
C423 C418 1.399 . S
C423 C422 1.394 . S
C423 C424 1.516 . S
C424 C423 1.516 . S
C424 C425 1.502 . S
C424 C426 1.561 . S
C424 C427 1.526 . S
C425 H409 0.959 . S
C425 H410 0.959 . S
C425 H411 0.961 . S
C425 C424 1.502 . S
C426 H412 0.960 . S
C426 H413 0.961 . S
C426 H414 0.959 . S
C426 C424 1.561 . S
C427 C424 1.526 . S
C427 C428 1.396 . S
C427 C432 1.390 . S
C428 C422 1.465 . S
C428 C427 1.396 . S
C428 C429 1.399 . S
C429 H415 0.929 . S
C429 C428 1.399 . S
C429 C430 1.385 . S
C430 H416 0.931 . S
C430 C429 1.385 . S
C430 C431 1.389 . S
C431 C430 1.389 . S
C431 C432 1.387 . S
C432 H417 0.930 . S
C432 C427 1.390 . S
C432 C431 1.387 . S
H433 C445 0.930 . S
H434 C447 0.930 . S
H435 C448 0.930 . S
H436 C452 0.959 . S
H437 C452 0.959 . S
H438 C452 0.961 . S
H439 C453 0.960 . S
H440 C453 0.961 . S
H441 C453 0.959 . S
H442 C456 0.929 . S
H443 C457 0.931 . S
H444 C459 0.930 . S
C445 H433 0.930 . S
C445 C446 1.399 . S
C445 C450 1.399 . S
C446 C445 1.399 . S
C446 C447 1.376 . S
C447 H434 0.930 . S
C447 C446 1.376 . S
C447 C448 1.388 . S
C448 H435 0.930 . S
C448 C447 1.388 . S
C448 C449 1.390 . S
C449 C448 1.390 . S
C449 C450 1.394 . S
C449 C455 1.465 . S
C450 C445 1.399 . S
C450 C449 1.394 . S
C450 C451 1.516 . S
C451 C450 1.516 . S
C451 C452 1.502 . S
C451 C453 1.561 . S
C451 C454 1.526 . S
C452 H436 0.959 . S
C452 H437 0.959 . S
C452 H438 0.961 . S
C452 C451 1.502 . S
C453 H439 0.960 . S
C453 H440 0.961 . S
C453 H441 0.959 . S
C453 C451 1.561 . S
C454 C451 1.526 . S
C454 C455 1.396 . S
C454 C459 1.390 . S
C455 C449 1.465 . S
C455 C454 1.396 . S
C455 C456 1.399 . S
C456 H442 0.929 . S
C456 C455 1.399 . S
C456 C457 1.385 . S
C457 H443 0.931 . S
C457 C456 1.385 . S
C457 C458 1.389 . S
C458 C457 1.389 . S
C458 C459 1.387 . S
C459 H444 0.930 . S
C459 C454 1.390 . S
C459 C458 1.387 . S
C149 C81 2.782 1_565 S
C161 C13 2.827 . S
C176 C106 2.846 . S
C188 C47 2.774 1_655 S
C203 C72 1.118 . S
C215 C4 1.128 1_556 S
C230 C38 1.113 . S
C242 C115 1.115 . S
C257 C34 1.842 . S
C269 C29 1.867 . S
C284 C63 1.903 . S
C296 C68 1.892 . S
C311 C110 1.885 1_655 S
C323 C97 1.888 . S
C338 C119 1.895 . S
C350 C0 1.859 1_565 S
C365 C76 1.926 . S
C377 C131 1.885 1_655 S
C392 C17 1.929 1_565 S
C404 C102 1.943 . S
C419 C51 1.960 . S
C431 C8 1.936 . S
C446 C85 1.851 . S
C458 C42 1.910 . S
