# Generated by pormake.
# Topology smm, (6)-cn, num edge types: 1
# Building blocks:
#     Node 0, Type 0, BuildingBlock: INOVEN_clean_sbu_0, # of connection points: 6
#     Node 1, Type 0, BuildingBlock: INOVEN_clean_sbu_0, # of connection points: 6
#     Node 2, Type 0, BuildingBlock: INOVEN_clean_sbu_0, # of connection points: 6
#     Node 3, Type 0, BuildingBlock: INOVEN_clean_sbu_0, # of connection points: 6
#     Node 4, Type 0, BuildingBlock: INOVEN_clean_sbu_0, # of connection points: 6
#     Node 5, Type 0, BuildingBlock: INOVEN_clean_sbu_0, # of connection points: 6
#     Node 6, Type 0, BuildingBlock: INOVEN_clean_sbu_0, # of connection points: 6
#     Node 7, Type 0, BuildingBlock: INOVEN_clean_sbu_0, # of connection points: 6
#     Node 8, Type 0, BuildingBlock: INOVEN_clean_sbu_0, # of connection points: 6
#     Edge 9, Type (0, 0), BuildingBlock: TEMPAE_clean_linker_10, # of connection points: 2
#     Edge 10, Type (0, 0), BuildingBlock: TEMPAE_clean_linker_10, # of connection points: 2
#     Edge 11, Type (0, 0), BuildingBlock: TEMPAE_clean_linker_10, # of connection points: 2
#     Edge 12, Type (0, 0), BuildingBlock: TEMPAE_clean_linker_10, # of connection points: 2
#     Edge 13, Type (0, 0), BuildingBlock: TEMPAE_clean_linker_10, # of connection points: 2
#     Edge 14, Type (0, 0), BuildingBlock: TEMPAE_clean_linker_10, # of connection points: 2
#     Edge 15, Type (0, 0), BuildingBlock: TEMPAE_clean_linker_10, # of connection points: 2
#     Edge 16, Type (0, 0), BuildingBlock: TEMPAE_clean_linker_10, # of connection points: 2
#     Edge 17, Type (0, 0), BuildingBlock: TEMPAE_clean_linker_10, # of connection points: 2
#     Edge 18, Type (0, 0), BuildingBlock: TEMPAE_clean_linker_10, # of connection points: 2
#     Edge 19, Type (0, 0), BuildingBlock: TEMPAE_clean_linker_10, # of connection points: 2
#     Edge 20, Type (0, 0), BuildingBlock: TEMPAE_clean_linker_10, # of connection points: 2
#     Edge 21, Type (0, 0), BuildingBlock: TEMPAE_clean_linker_10, # of connection points: 2
#     Edge 22, Type (0, 0), BuildingBlock: TEMPAE_clean_linker_10, # of connection points: 2
#     Edge 23, Type (0, 0), BuildingBlock: TEMPAE_clean_linker_10, # of connection points: 2
#     Edge 24, Type (0, 0), BuildingBlock: TEMPAE_clean_linker_10, # of connection points: 2
#     Edge 25, Type (0, 0), BuildingBlock: TEMPAE_clean_linker_10, # of connection points: 2
#     Edge 26, Type (0, 0), BuildingBlock: TEMPAE_clean_linker_10, # of connection points: 2
#     Edge 27, Type (0, 0), BuildingBlock: TEMPAE_clean_linker_10, # of connection points: 2
#     Edge 28, Type (0, 0), BuildingBlock: TEMPAE_clean_linker_10, # of connection points: 2
#     Edge 29, Type (0, 0), BuildingBlock: TEMPAE_clean_linker_10, # of connection points: 2
#     Edge 30, Type (0, 0), BuildingBlock: TEMPAE_clean_linker_10, # of connection points: 2
#     Edge 31, Type (0, 0), BuildingBlock: TEMPAE_clean_linker_10, # of connection points: 2
#     Edge 32, Type (0, 0), BuildingBlock: TEMPAE_clean_linker_10, # of connection points: 2
#     Edge 33, Type (0, 0), BuildingBlock: TEMPAE_clean_linker_10, # of connection points: 2
#     Edge 34, Type (0, 0), BuildingBlock: TEMPAE_clean_linker_10, # of connection points: 2
#     Edge 35, Type (0, 0), BuildingBlock: TEMPAE_clean_linker_10, # of connection points: 2
# Relax obj value: 0.049
# Max RMSD: 0.127
# Mean RMSD: 0.127
data_MOF--net-smm--node1-INOVEN_clean_sbu_0--edge1-TEMPAE_clean_linker_10
_symmetry_space_group_name_H-M    P1
_symmetry_Int_Tables_number       1
_symmetry_cell_setting            triclinic
loop_
_symmetry_equiv_pos_as_xyz
'x, y, z'
_cell_length_a     71.287082
_cell_length_b     71.332548
_cell_length_c     14.385273
_cell_angle_alpha  90.033893
_cell_angle_beta   89.883661
_cell_angle_gamma 119.98112
loop_
_atom_site_label
_atom_site_type_symbol
_atom_site_fract_x
_atom_site_fract_y
_atom_site_fract_z
_atom_type_partial_charge
Gd0 Gd 0.06631 0.22443 0.98216 0.0
Gd1 Gd 1.02563 0.18138 0.03258 0.0
C2 C 1.02083 0.22351 0.02985 0.0
C3 C 0.0935 0.25955 0.89543 0.0
C4 C 0.09946 0.2824 0.87812 0.0
C5 C 0.10853 0.29824 0.94812 0.0
C6 C 0.09797 0.28891 0.78756 0.0
C7 C 0.1155 0.32674 0.83598 0.0
C8 C 0.10581 0.31076 0.76678 0.0
C9 C 0.11641 0.32013 0.9273 0.0
C10 C 0.06097 0.21579 0.1654 0.0
C11 C 0.07225 0.1832 0.00765 0.0
C12 C 0.99632 0.14429 0.09861 0.0
C13 C 0.98765 0.12088 0.08431 0.0
C14 C 0.96582 0.10649 0.10467 0.0
C15 C 1.00065 0.11263 0.05132 0.0
C16 C 0.97001 0.0757 0.06137 0.0
C17 C 0.99192 0.09024 0.04003 0.0
C18 C 0.95708 0.08419 0.09327 0.0
C19 C 1.03251 0.19094 0.85015 0.0
O20 O 0.03958 0.23324 -0.01554 0.0
O21 O 1.0137 0.2043 0.06891 0.0
O22 O 0.09706 0.25437 0.9783 0.0
O23 O 0.07558 0.24436 0.85777 0.0
O24 O 0.07981 0.22738 0.12658 0.0
O25 O 0.0461 0.21155 0.10794 0.0
O26 O 0.0524 0.17306 0.04291 0.0
O27 O 0.0804 0.2025 0.96823 0.0
O28 O 0.99255 0.15457 0.03264 0.0
O29 O 1.01586 0.15547 0.13305 0.0
O30 O 1.01342 0.18128 0.88719 0.0
O31 O 0.04655 0.19375 0.90913 0.0
H32 H 0.1101 0.29384 0.01853 0.0
H33 H 0.09121 0.27711 0.732 0.0
H34 H 0.1045 0.31516 0.69604 0.0
H35 H 0.12395 0.33195 0.98224 0.0
H36 H 0.95547 0.11253 0.12963 0.0
H37 H 1.01755 0.12346 0.0348 0.0
H38 H 1.00241 0.08431 0.01605 0.0
H39 H 0.94008 0.07358 0.10875 0.0
Gd40 Gd 0.85845 0.86563 0.97858 0.0
Gd41 Gd 0.90155 0.86759 0.02846 0.0
C42 C 0.85877 0.82088 0.02681 0.0
C43 C 0.824 0.8593 0.89096 0.0
C44 C 0.80095 0.84381 0.87276 0.0
C45 C 0.7911 0.82194 0.89884 0.0
C46 C 0.78867 0.85126 0.82647 0.0
C47 C 0.75683 0.81516 0.83072 0.0
C48 C 0.76689 0.83716 0.80575 0.0
C49 C 0.76917 0.80773 0.87816 0.0
C50 C 0.86774 0.86978 0.16086 0.0
C51 C 0.90031 0.91256 0.00312 0.0
C52 C 0.93838 0.8748 0.095 0.0
C53 C 0.96183 0.88986 0.0831 0.0
C54 C 0.97634 0.88256 0.10312 0.0
C55 C 0.96998 0.91122 0.05207 0.0
C56 C 1.00704 0.91786 0.06286 0.0
C57 C 0.99239 0.9251 0.04207 0.0
C58 C 0.99866 0.89636 0.09309 0.0
C59 C 0.89204 0.86513 0.84557 0.0
O60 O 0.84899 0.82999 0.98268 0.0
O61 O 0.87825 0.83278 0.06375 0.0
O62 O 0.82914 0.86776 0.97424 0.0
O63 O 0.8383 0.8549 0.85543 0.0
O64 O 0.8557 0.87653 0.12263 0.0
O65 O 0.87153 0.85861 0.1044 0.0
O66 O 0.91026 0.90276 0.03904 0.0
O67 O 0.88107 0.9015 0.96312 0.0
O68 O 0.9285 0.86153 0.02613 0.0
O69 O 0.92688 0.88256 0.132 0.0
O70 O 0.90197 0.85594 0.88219 0.0
O71 O 0.88906 0.87609 0.90563 0.0
H72 H 0.80035 0.81587 0.93459 0.0
H73 H 0.79597 0.8681 0.80604 0.0
H74 H 0.75786 0.84359 0.7709 0.0
H75 H 0.76199 0.79088 0.89801 0.0
H76 H 0.97038 0.8661 0.12655 0.0
H77 H 0.95906 0.91719 0.03591 0.0
H78 H 0.99824 0.94158 0.01939 0.0
H79 H 1.00936 0.89007 0.10813 0.0
Gd80 Gd 0.21732 1.01669 -0.01548 0.0
Gd81 Gd 0.21536 0.05778 0.03518 0.0
C82 C 0.26209 0.06163 0.03364 0.0
C83 C 0.22377 0.98859 0.89716 0.0
C84 C 0.23896 0.9805 0.88151 0.0
C85 C 0.23046 0.9588 0.85577 0.0
C86 C 0.26153 0.99394 0.88777 0.0
C87 C 0.26681 0.964 0.83938 0.0
C88 C 0.27535 0.98573 0.86713 0.0
C89 C 0.24418 0.95063 0.835 0.0
C90 C 0.21311 1.02179 0.16703 0.0
C91 C 0.17037 1.01172 0.00832 0.0
C92 C 0.20818 0.08733 0.10312 0.0
C93 C 0.19317 0.09574 0.09136 0.0
C94 C 0.17322 0.08376 0.0457 0.0
C95 C 0.19914 0.11637 0.12557 0.0
C96 C 0.16536 0.11311 0.06939 0.0
C97 C 0.18543 0.12497 0.11475 0.0
C98 C 0.15944 0.09237 0.0348 0.0
C99 C 0.21799 0.05089 0.85205 0.0
O100 O 0.25302 0.04284 -0.01119 0.0
O101 O 0.25014 0.06915 0.07093 0.0
O102 O 0.21426 0.98485 0.97845 0.0
O103 O 0.22898 1.00762 0.86306 0.0
O104 O 0.20644 1.00304 0.1287 0.0
O105 O 0.22429 0.03672 0.11057 0.0
O106 O 0.18015 0.03136 0.04533 0.0
O107 O 0.18149 1.00365 0.96769 0.0
O108 O 0.22154 0.09079 0.03428 0.0
O109 O 0.20023 0.06797 0.13911 0.0
O110 O 0.22709 0.06998 0.88901 0.0
O111 O 0.20698 0.03691 0.91189 0.0
H112 H 0.2131 0.94815 0.85069 0.0
H113 H 0.26845 1.01077 0.90743 0.0
H114 H 0.29269 0.9965 0.87088 0.0
H115 H 0.237 0.93375 0.81572 0.0
H116 H 0.16832 0.0678 0.0186 0.0
H117 H 0.21453 0.12592 0.16047 0.0
H118 H 0.19073 0.1411 0.14088 0.0
H119 H 0.14404 0.0827 0.00027 0.0
Gd120 Gd 0.73274 0.55796 0.31788 0.0
Gd121 Gd 0.69187 0.51511 0.3687 0.0
C122 C 0.68746 0.55748 0.36538 0.0
C123 C 0.76009 0.59298 0.23108 0.0
C124 C 0.76598 0.61579 0.21297 0.0
C125 C 0.77515 0.63177 0.28235 0.0
C126 C 0.76431 0.6221 0.12226 0.0
C127 C 0.78184 0.66002 0.16931 0.0
C128 C 0.77206 0.6439 0.10074 0.0
C129 C 0.78295 0.6536 0.26078 0.0
C130 C 0.72736 0.54926 0.5011 0.0
C131 C 0.73827 0.5165 0.34281 0.0
C132 C 0.66256 0.47821 0.43632 0.0
C133 C 0.65413 0.45482 0.42349 0.0
C134 C 0.66646 0.44688 0.38043 0.0
C135 C 0.63317 0.44017 0.45459 0.0
C136 C 0.63685 0.40971 0.40092 0.0
C137 C 0.6246 0.41788 0.44345 0.0
C138 C 0.65789 0.42452 0.36924 0.0
C139 C 0.69867 0.52457 0.18615 0.0
O140 O 0.70629 0.56714 0.32059 0.0
O141 O 0.68006 0.53818 0.40391 0.0
O142 O 0.7635 0.58791 0.31443 0.0
O143 O 0.74225 0.57773 0.19307 0.0
O144 O 0.74624 0.56055 0.46216 0.0
O145 O 0.71254 0.54525 0.44369 0.0
O146 O 0.71848 0.50655 0.37875 0.0
O147 O 0.74648 0.53576 0.30302 0.0
O148 O 0.65887 0.4882 0.3688 0.0
O149 O 0.68204 0.48958 0.47117 0.0
O150 O 0.67959 0.51491 0.22334 0.0
O151 O 0.71273 0.52732 0.24497 0.0
H152 H 0.77688 0.62753 0.35284 0.0
H153 H 0.75746 0.61019 0.06716 0.0
H154 H 0.77061 0.64815 0.02991 0.0
H155 H 0.79057 0.66554 0.31524 0.0
H156 H 0.68269 0.45795 0.35571 0.0
H157 H 0.62335 0.44598 0.48747 0.0
H158 H 0.60824 0.40705 0.46722 0.0
H159 H 0.66786 0.41882 0.33694 0.0
Gd160 Gd 0.52496 0.19973 0.31401 0.0
Gd161 Gd 0.56781 0.20159 0.36399 0.0
C162 C 0.52524 0.15489 0.36114 0.0
C163 C 0.49033 0.19316 0.22728 0.0
C164 C 0.46715 0.17768 0.2111 0.0
C165 C 0.45371 0.18584 0.18447 0.0
C166 C 0.45836 0.15517 0.21809 0.0
C167 C 0.42298 0.14927 0.16882 0.0
C168 C 0.43642 0.14108 0.19739 0.0
C169 C 0.43191 0.17184 0.1636 0.0
C170 C 0.53354 0.20286 0.4973 0.0
C171 C 0.56666 0.24662 0.33907 0.0
C172 C 0.60473 0.20893 0.43003 0.0
C173 C 0.62819 0.22359 0.41627 0.0
C174 C 0.64251 0.21613 0.43763 0.0
C175 C 0.63656 0.2448 0.38285 0.0
C176 C 0.67345 0.25101 0.39443 0.0
C177 C 0.65899 0.2584 0.37209 0.0
C178 C 0.66486 0.22964 0.42678 0.0
C179 C 0.55832 0.19902 0.18161 0.0
O180 O 0.5156 0.16406 0.31639 0.0
O181 O 0.54454 0.1668 0.39969 0.0
O182 O 0.49584 0.20223 0.30934 0.0
O183 O 0.50448 0.1885 0.19203 0.0
O184 O 0.52203 0.21022 0.45885 0.0
O185 O 0.53766 0.19219 0.4395 0.0
O186 O 0.57653 0.23675 0.37507 0.0
O187 O 0.54746 0.23561 0.29888 0.0
O188 O 0.59448 0.19508 0.36338 0.0
O189 O 0.5936 0.21732 0.46507 0.0
O190 O 0.56785 0.18947 0.21845 0.0
O191 O 0.55562 0.21033 0.24072 0.0
H192 H 0.46016 0.20314 0.17885 0.0
H193 H 0.46847 0.14852 0.23844 0.0
H194 H 0.43009 0.12379 0.20181 0.0
H195 H 0.422 0.17876 0.14368 0.0
H196 H 0.63638 0.19978 0.46296 0.0
H197 H 0.62579 0.25089 0.3656 0.0
H198 H 0.66501 0.27479 0.34776 0.0
H199 H 0.67541 0.22324 0.44306 0.0
Gd200 Gd 0.88399 0.35011 0.31671 0.0
Gd201 Gd 0.88159 0.39096 0.367 0.0
C202 C 0.92845 0.39531 0.36618 0.0
C203 C 0.89174 0.32286 0.22953 0.0
C204 C 0.90849 0.31672 0.21178 0.0
C205 C 0.91547 0.30788 0.28192 0.0
C206 C 0.91617 0.31784 0.12074 0.0
C207 C 0.93657 0.30041 0.16904 0.0
C208 C 0.93007 0.30987 0.09966 0.0
C209 C 0.92936 0.29985 0.2608 0.0
C210 C 0.87955 0.35506 0.49906 0.0
C211 C 0.83682 0.34452 0.3409 0.0
C212 C 0.87407 0.42038 0.43372 0.0
C213 C 0.85916 0.4289 0.42102 0.0
C214 C 0.86638 0.45058 0.44327 0.0
C215 C 0.83802 0.41595 0.38709 0.0
C216 C 0.83143 0.44638 0.3995 0.0
C217 C 0.82428 0.42462 0.37644 0.0
C218 C 0.85271 0.45924 0.43262 0.0
C219 C 0.88433 0.38405 0.18401 0.0
O220 O 0.91954 0.3766 0.32076 0.0
O221 O 0.91635 0.40259 0.40386 0.0
O222 O 0.88295 0.31926 0.31245 0.0
O223 O 0.89469 0.3409 0.19222 0.0
O224 O 0.87294 0.33633 0.46046 0.0
O225 O 0.89071 0.37009 0.44285 0.0
O226 O 0.84647 0.36428 0.37679 0.0
O227 O 0.84804 0.33643 0.30131 0.0
O228 O 0.88773 0.42397 0.36599 0.0
O229 O 0.86602 0.40098 0.46945 0.0
O230 O 0.8934 0.40315 0.22084 0.0
O231 O 0.87337 0.37008 0.24392 0.0
H232 H 0.90976 0.3066 0.35272 0.0
H233 H 0.91097 0.32444 0.06512 0.0
H234 H 0.93553 0.3109 0.02857 0.0
H235 H 0.93382 0.2925 0.3159 0.0
H236 H 0.88267 0.46088 0.46896 0.0
H237 H 0.83213 0.39917 0.3692 0.0
H238 H 0.80795 0.41419 0.35147 0.0
H239 H 0.85894 0.47613 0.44949 0.0
Gd240 Gd 0.40006 0.89206 0.65324 0.0
Gd241 Gd 0.35978 0.84885 0.70462 0.0
C242 C 0.35438 0.89061 0.70185 0.0
C243 C 0.42686 0.92711 0.56516 0.0
C244 C 0.43261 0.94986 0.54688 0.0
C245 C 0.4416 0.96586 0.61624 0.0
C246 C 0.43101 0.95611 0.45597 0.0
C247 C 0.44831 0.99403 0.50274 0.0
C248 C 0.43869 0.97788 0.4342 0.0
C249 C 0.44932 0.98767 0.59443 0.0
C250 C 0.39496 0.88367 0.83685 0.0
C251 C 0.40672 0.85136 0.68016 0.0
C252 C 0.33112 0.81145 0.7704 0.0
C253 C 0.32279 0.78808 0.7545 0.0
C254 C 0.31653 0.77873 0.66575 0.0
C255 C 0.32021 0.77469 0.83055 0.0
C256 C 0.30444 0.7428 0.73042 0.0
C257 C 0.31121 0.75235 0.81873 0.0
C258 C 0.30743 0.75634 0.6539 0.0
C259 C 0.36652 0.85814 0.52177 0.0
O260 O 0.37298 0.90038 0.6553 0.0
O261 O 0.34758 0.87153 0.74168 0.0
O262 O 0.43064 0.92218 0.64814 0.0
O263 O 0.40893 0.91176 0.52828 0.0
O264 O 0.41374 0.89544 0.79772 0.0
O265 O 0.38001 0.87914 0.77949 0.0
O266 O 0.38702 0.84123 0.7169 0.0
O267 O 0.41446 0.8704 0.63886 0.0
O268 O 0.32688 0.82197 0.70705 0.0
O269 O 0.35071 0.82273 0.80412 0.0
O270 O 0.34745 0.84838 0.55899 0.0
O271 O 0.38061 0.86122 0.58091 0.0
H272 H 0.44325 0.96166 0.6869 0.0
H273 H 0.4243 0.94418 0.4009 0.0
H274 H 0.43731 0.98209 0.36321 0.0
H275 H 0.45682 0.99964 0.64887 0.0
H276 H 0.31834 0.78865 0.60567 0.0
H277 H 0.32496 0.78152 0.89961 0.0
H278 H 0.30956 0.74255 0.879 0.0
H279 H 0.30226 0.74959 0.58504 0.0
Gd280 Gd 0.19132 0.53238 0.64858 0.0
Gd281 Gd 0.23459 0.53475 0.69837 0.0
C282 C 0.19209 0.48783 0.69711 0.0
C283 C 0.15672 0.52568 0.56142 0.0
C284 C 0.13349 0.51041 0.54571 0.0
C285 C 0.12029 0.51878 0.5181 0.0
C286 C 0.12441 0.48789 0.55397 0.0
C287 C 0.08923 0.48238 0.50385 0.0
C288 C 0.10242 0.47398 0.53346 0.0
C289 C 0.09845 0.50498 0.49745 0.0
C290 C 0.20058 0.53656 0.83095 0.0
C291 C 0.23286 0.57946 0.67239 0.0
C292 C 0.27183 0.54305 0.76402 0.0
C293 C 0.29518 0.55874 0.75025 0.0
C294 C 0.30505 0.56226 0.66231 0.0
C295 C 0.30806 0.56969 0.82734 0.0
C296 C 0.34047 0.58679 0.72979 0.0
C297 C 0.3304 0.58358 0.8173 0.0
C298 C 0.32742 0.5761 0.65226 0.0
C299 C 0.22506 0.53216 0.5155 0.0
O300 O 0.18216 0.49682 0.65322 0.0
O301 O 0.21159 0.49985 0.73378 0.0
O302 O 0.16235 0.53511 0.64275 0.0
O303 O 0.17067 0.52062 0.52727 0.0
O304 O 0.18833 0.54305 0.7928 0.0
O305 O 0.20454 0.52553 0.77443 0.0
O306 O 0.24288 0.56979 0.70892 0.0
O307 O 0.21371 0.56825 0.6319 0.0
O308 O 0.26175 0.52914 0.69723 0.0
O309 O 0.26004 0.55041 0.80168 0.0
O310 O 0.23516 0.52315 0.55216 0.0
O311 O 0.22195 0.54305 0.57547 0.0
H312 H 0.12697 0.5361 0.5115 0.0
H313 H 0.13433 0.48108 0.57511 0.0
H314 H 0.09586 0.45667 0.53881 0.0
H315 H 0.08874 0.51205 0.47671 0.0
H316 H 0.29557 0.55407 0.60139 0.0
H317 H 0.30085 0.56729 0.89584 0.0
H318 H 0.3398 0.5918 0.87832 0.0
H319 H 0.33457 0.57796 0.58398 0.0
Gd320 Gd 0.55085 0.68353 0.64878 0.0
Gd321 Gd 0.54919 0.72483 0.6989 0.0
C322 C 0.5958 0.72835 0.69721 0.0
C323 C 0.55689 0.65526 0.56056 0.0
C324 C 0.57224 0.64754 0.54209 0.0
C325 C 0.59418 0.65951 0.56718 0.0
C326 C 0.5646 0.62769 0.49652 0.0
C327 C 0.60064 0.63175 0.49947 0.0
C328 C 0.57858 0.61986 0.47551 0.0
C329 C 0.60827 0.65165 0.5462 0.0
C330 C 0.54668 0.68872 0.83109 0.0
C331 C 0.50402 0.67877 0.67392 0.0
C332 C 0.54233 0.7547 0.76541 0.0
C333 C 0.52765 0.76354 0.75297 0.0
C334 C 0.53556 0.78558 0.77012 0.0
C335 C 0.50605 0.75053 0.72446 0.0
C336 C 0.50041 0.78162 0.73228 0.0
C337 C 0.49255 0.75949 0.71425 0.0
C338 C 0.52215 0.79453 0.75985 0.0
C339 C 0.55163 0.71771 0.51597 0.0
O340 O 0.5866 0.70944 0.65328 0.0
O341 O 0.58399 0.7361 0.73395 0.0
O342 O 0.5484 0.65198 0.64389 0.0
O343 O 0.56148 0.67402 0.52532 0.0
O344 O 0.53987 0.66993 0.79278 0.0
O345 O 0.55794 0.70366 0.77468 0.0
O346 O 0.51391 0.69855 0.70965 0.0
O347 O 0.515 0.67048 0.63388 0.0
O348 O 0.55582 0.75801 0.69732 0.0
O349 O 0.53413 0.73535 0.80174 0.0
O350 O 0.56091 0.73683 0.55257 0.0
O351 O 0.54059 0.70382 0.57607 0.0
H352 H 0.60039 0.67491 0.60237 0.0
H353 H 0.54771 0.61818 0.47685 0.0
H354 H 0.57201 0.60432 0.44122 0.0
H355 H 0.62517 0.66129 0.56525 0.0
H356 H 0.55221 0.79592 0.79157 0.0
H357 H 0.4996 0.73347 0.71051 0.0
H358 H 0.47588 0.74902 0.69367 0.0
H359 H 0.5289 0.81167 0.77271 0.0
C360 C 0.12366 0.36469 0.87291 0.0
C361 C 0.12546 0.35023 0.81219 0.0
C362 C 0.13375 0.38696 0.85283 0.0
C363 C 0.14597 0.39508 0.76992 0.0
C364 C 0.14756 0.38055 0.70765 0.0
C365 C 0.13735 0.35838 0.72954 0.0
C366 C 0.1316 0.40187 0.92106 0.0
C367 C 0.16046 0.38849 0.61867 0.0
C368 C 0.15909 0.45082 0.68134 0.0
C369 C 0.18037 0.464 0.71323 0.0
C370 C 0.14769 0.4284 0.69915 0.0
C371 C 0.15778 0.41886 0.75002 0.0
C372 C 0.17929 0.43205 0.78181 0.0
C373 C 0.19029 0.45438 0.76306 0.0
C374 C 0.12481 0.41494 0.66384 0.0
C375 C 0.1907 0.42258 0.8362 0.0
H376 H 0.1143 0.35858 0.93631 0.0
H377 H 0.13918 0.34749 0.68273 0.0
H378 H 0.14781 0.41389 0.94793 0.0
H379 H 0.12484 0.41102 0.88575 0.0
H380 H 0.121 0.39297 0.98093 0.0
H381 H 0.15935 0.37503 0.57566 0.0
H382 H 0.15465 0.39764 0.57689 0.0
H383 H 0.17775 0.39974 0.63507 0.0
H384 H 0.15122 0.45802 0.64286 0.0
H385 H 0.2067 0.46432 0.78817 0.0
H386 H 0.11361 0.40682 0.72292 0.0
H387 H 0.12367 0.40205 0.61702 0.0
H388 H 0.11924 0.42478 0.62546 0.0
H389 H 0.18147 0.41479 0.90056 0.0
H390 H 0.20746 0.43498 0.85575 0.0
H391 H 0.1914 0.40984 0.79462 0.0
C392 C 0.72522 0.80204 0.72142 0.0
C393 C 0.73352 0.80033 0.80751 0.0
C394 C 0.70305 0.78945 0.70074 0.0
C395 C 0.68868 0.77463 0.76752 0.0
C396 C 0.69702 0.77227 0.85339 0.0
C397 C 0.71931 0.78512 0.87234 0.0
C398 C 0.69492 0.79246 0.60824 0.0
C399 C 0.68228 0.75663 0.92647 0.0
C400 C 0.62964 0.76052 0.75706 0.0
C401 C 0.61964 0.74022 0.71323 0.0
C402 C 0.652 0.77178 0.77527 0.0
C403 C 0.66482 0.76255 0.74943 0.0
C404 C 0.65487 0.74207 0.70508 0.0
C405 C 0.63245 0.73119 0.68729 0.0
C406 C 0.66191 0.79361 0.82218 0.0
C407 C 0.66792 0.73163 0.6766 0.0
H408 H 0.73609 0.81343 0.67009 0.0
H409 H 0.72548 0.78376 0.93926 0.0
H410 H 0.68568 0.77668 0.57211 0.0
H411 H 0.68368 0.79878 0.61948 0.0
H412 H 0.70829 0.80386 0.56209 0.0
H413 H 0.69142 0.75562 -0.01311 0.0
H414 H 0.67085 0.76181 0.9517 0.0
H415 H 0.67245 0.74023 0.89621 0.0
H416 H 0.61999 0.76772 0.77738 0.0
H417 H 0.62494 0.7155 0.65369 0.0
H418 H 0.67457 0.80613 0.77675 0.0
H419 H 0.66991 0.79332 0.8878 0.0
H420 H 0.64972 0.79851 0.83837 0.0
H421 H 0.68077 0.74222 0.62674 0.0
H422 H 0.65775 0.71553 0.64384 0.0
H423 H 0.6761 0.72963 0.7382 0.0
C424 C 0.29942 0.95981 0.86841 0.0
C425 C 0.28121 0.95511 0.8144 0.0
C426 C 0.31224 0.95037 0.84841 0.0
C427 C 0.30679 0.93592 0.77235 0.0
C428 C 0.28879 0.93161 0.71608 0.0
C429 C 0.27627 0.94122 0.73771 0.0
C430 C 0.33126 0.95538 0.91029 0.0
C431 C 0.28247 0.91644 0.63401 0.0
C432 C 0.34864 0.92234 0.67674 0.0
C433 C 0.34209 0.90216 0.71804 0.0
C434 C 0.3374 0.93357 0.69393 0.0
C435 C 0.3192 0.92447 0.75416 0.0
C436 C 0.31253 0.90411 0.79599 0.0
C437 C 0.32398 0.89322 0.77729 0.0
C438 C 0.34498 0.95517 0.64755 0.0
C439 C 0.29327 0.89381 0.86075 0.0
H440 H 0.3033 0.97038 0.92812 0.0
H441 H 0.26248 0.93779 0.69448 0.0
H442 H 0.32839 0.94042 0.9463 0.0
H443 H 0.34618 0.9612 0.86798 0.0
H444 H 0.33408 0.96781 0.96349 0.0
H445 H 0.26866 0.91556 0.5946 0.0
H446 H 0.29643 0.92175 0.58608 0.0
H447 H 0.27786 0.89993 0.65835 0.0
H448 H 0.36259 0.92943 0.6309 0.0
H449 H 0.31878 0.87769 0.80996 0.0
H450 H 0.34893 0.96784 0.70092 0.0
H451 H 0.33181 0.95444 0.6039 0.0
H452 H 0.35948 0.96013 0.60313 0.0
H453 H 0.29578 0.90482 0.91989 0.0
H454 H 0.29034 0.87807 0.88879 0.0
H455 H 0.2785 0.89113 0.8236 0.0
C456 C 0.38638 0.11642 0.19876 0.0
C457 C 0.39975 0.13457 0.14398 0.0
C458 C 0.36413 0.10341 0.17919 0.0
C459 C 0.35502 0.10859 0.10277 0.0
C460 C 0.36859 0.12648 0.04557 0.0
C461 C 0.39071 0.13921 0.06682 0.0
C462 C 0.35025 0.08453 0.24208 0.0
C463 C 0.35963 0.13254 0.96312 0.0
C464 C 0.29942 0.06674 0.00959 0.0
C465 C 0.28591 0.07358 0.05022 0.0
C466 C 0.32189 0.07784 0.02642 0.0
C467 C 0.33112 0.09617 0.08566 0.0
C468 C 0.31755 0.10306 0.12717 0.0
C469 C 0.29521 0.09176 0.10878 0.0
C470 C 0.33578 0.07003 0.98039 0.0
C471 C 0.32664 0.12244 0.19103 0.0
H472 H 0.39315 0.11278 0.25882 0.0
H473 H 0.40097 0.15294 0.023 0.0
H474 H 0.33825 0.0875 0.27856 0.0
H475 H 0.34104 0.06954 0.20054 0.0
H476 H 0.35998 0.08179 0.29493 0.0
H477 H 0.3725 0.14617 0.92258 0.0
H478 H 0.35087 0.11841 0.9163 0.0
H479 H 0.34779 0.13728 -0.01274 0.0
H480 H 0.29246 0.05273 0.96428 0.0
H481 H 0.285 0.09718 0.14104 0.0
H482 H 0.34473 0.06641 0.0338 0.0
H483 H 0.34802 0.08294 0.93501 0.0
H484 H 0.32611 0.05528 0.93774 0.0
H485 H 0.33526 0.12005 0.24992 0.0
H486 H 0.31388 0.12543 0.21949 0.0
H487 H 0.33863 0.13712 0.15295 0.0
C488 C 0.9459 0.2781 0.06329 0.0
C489 C 0.94999 0.29032 0.14504 0.0
C490 C 0.95779 0.2678 0.04119 0.0
C491 C 0.97417 0.26966 0.10232 0.0
C492 C 0.9786 0.28219 0.18432 0.0
C493 C 0.96648 0.29235 0.20465 0.0
C494 C 0.95248 0.25456 0.95323 0.0
C495 C 0.99595 0.28462 0.25131 0.0
C496 C 0.98931 0.22543 0.097 0.0
C497 C 1.00866 0.23519 0.04553 0.0
C498 C 0.97797 0.23645 0.11572 0.0
C499 C 0.9861 0.2578 0.08222 0.0
C500 C 1.00552 0.26771 0.02957 0.0
C501 C 1.01656 0.25631 0.01183 0.0
C502 C 0.95732 0.22524 0.17199 0.0
C503 C 1.01473 0.29043 -0.00757 0.0
H504 H 0.93299 0.2761 0.0174 0.0
H505 H 0.96999 0.30197 0.26732 0.0
H506 H 0.96726 0.26021 0.91013 0.0
H507 H 0.94656 0.23736 0.97091 0.0
H508 H 0.93993 0.25548 0.91101 0.0
H509 H 0.99786 0.29543 0.31057 0.0
H510 H 0.99192 0.26853 0.2792 0.0
H511 H 1.01171 0.29125 0.21463 0.0
H512 H 0.983 0.20915 0.12349 0.0
H513 H 1.03148 0.26404 0.97209 0.0
H514 H 0.9437 0.22437 0.13135 0.0
H515 H 0.95899 0.23468 0.23583 0.0
H516 H 0.95308 0.20856 0.19255 0.0
H517 H 1.00272 0.29137 0.94667 0.0
H518 H 1.02992 0.29582 0.95242 0.0
H519 H 1.01811 0.30186 0.05076 0.0
C520 C 0.8256 0.78397 0.01141 0.0
C521 C 0.84691 0.79706 0.04311 0.0
C522 C 0.81408 0.76157 0.02961 0.0
C523 C 0.82409 0.75196 0.08065 0.0
C524 C 0.84563 0.76506 0.11222 0.0
C525 C 0.85674 0.78737 0.0931 0.0
C526 C 0.79117 0.74819 -0.00544 0.0
C527 C 0.85695 0.75552 0.16678 0.0
C528 C 0.78997 0.698 0.20496 0.0
C529 C 0.79171 0.68345 0.14467 0.0
C530 C 0.80004 0.72024 0.18417 0.0
C531 C 0.81217 0.72821 0.10098 0.0
C532 C 0.81368 0.71357 0.03908 0.0
C533 C 0.8035 0.69144 0.06167 0.0
C534 C 0.79798 0.73527 0.25203 0.0
C535 C 0.8265 0.72135 0.94984 0.0
H536 H 0.8178 0.79122 0.97281 0.0
H537 H 0.87318 0.79725 0.11805 0.0
H538 H 0.78993 0.73525 0.94782 0.0
H539 H 0.77998 0.74015 0.05376 0.0
H540 H 0.78566 0.75808 0.95616 0.0
H541 H 0.87375 0.76787 0.18611 0.0
H542 H 0.84774 0.74783 0.23127 0.0
H543 H 0.85754 0.7427 0.12542 0.0
H544 H 0.78069 0.692 0.26862 0.0
H545 H 0.80527 0.68047 0.01518 0.0
H546 H 0.79132 0.74446 0.21643 0.0
H547 H 0.81421 0.74724 0.27885 0.0
H548 H 0.78735 0.72646 0.31196 0.0
H549 H 0.82075 0.73055 0.90802 0.0
H550 H 0.82525 0.70781 0.907 0.0
H551 H 0.84382 0.73253 0.9659 0.0
C552 C 0.0524 0.44996 0.53453 0.0
C553 C 0.06598 0.46789 0.47906 0.0
C554 C 1.03016 0.43713 0.51476 0.0
C555 C 1.02125 0.44227 0.43744 0.0
C556 C 0.03501 0.45995 0.37968 0.0
C557 C 0.05714 0.4725 0.40112 0.0
C558 C 1.01606 0.41845 0.57822 0.0
C559 C 1.02627 0.46594 0.29627 0.0
C560 C 0.96579 0.40039 0.3436 0.0
C561 C 0.95225 0.40734 0.383 0.0
C562 C 0.98823 0.41148 0.36102 0.0
C563 C 0.9974 0.42993 0.41954 0.0
C564 C 0.98382 0.43697 0.45964 0.0
C565 C 0.9615 0.42567 0.44074 0.0
C566 C 1.00214 0.4035 0.31655 0.0
C567 C 0.99287 0.45652 0.52258 0.0
H568 H 0.05903 0.44635 0.59519 0.0
H569 H 0.06755 0.48606 0.35681 0.0
H570 H 1.00404 0.4216 0.61337 0.0
H571 H 1.00687 0.40336 0.53728 0.0
H572 H 1.02562 0.41578 0.63215 0.0
H573 H 0.03926 0.47948 0.25574 0.0
H574 H 1.01755 0.45176 0.24975 0.0
H575 H 1.01444 0.47079 0.31932 0.0
H576 H 0.95887 0.38627 0.29897 0.0
H577 H 0.95126 0.43118 0.47197 0.0
H578 H 1.01081 0.39978 0.37094 0.0
H579 H 1.01461 0.41636 0.2717 0.0
H580 H 0.99253 0.38878 0.2737 0.0
H581 H 1.00131 0.4542 0.58238 0.0
H582 H 0.98011 0.45967 0.5497 0.0
H583 H 1.00501 0.47107 0.48426 0.0
C584 C 0.63066 0.62422 0.54022 0.0
C585 C 0.61535 0.62313 0.47595 0.0
C586 C 0.64344 0.6147 0.52098 0.0
C587 C 0.64089 0.60382 0.4354 0.0
C588 C 0.62593 0.60323 0.36919 0.0
C589 C 0.61342 0.6129 0.39014 0.0
C590 C 0.65922 0.61574 0.59342 0.0
C591 C 0.62273 0.59189 0.27701 0.0
C592 C 0.68433 0.59106 0.35394 0.0
C593 C 0.67544 0.56933 0.38084 0.0
C594 C 0.67338 0.60255 0.37167 0.0
C595 C 0.65297 0.59205 0.41692 0.0
C596 C 0.64386 0.57009 0.44356 0.0
C597 C 0.65519 0.55904 0.4254 0.0
C598 C 0.68369 0.62595 0.34237 0.0
C599 C 0.62209 0.55821 0.49138 0.0
H600 H 0.63218 0.63192 0.60693 0.0
H601 H 0.60196 0.61232 0.33923 0.0
H602 H 0.65412 0.5992 0.61892 0.0
H603 H 0.67559 0.6223 0.56247 0.0
H604 H 0.66032 0.62597 0.65377 0.0
H605 H 0.61119 0.59372 0.23137 0.0
H606 H 0.63843 0.59838 0.24004 0.0
H607 H 0.61647 0.57438 0.2888 0.0
H608 H 0.69999 0.59923 0.31979 0.0
H609 H 0.64811 0.54226 0.44644 0.0
H610 H 0.68588 0.63626 0.40381 0.0
H611 H 0.67291 0.62807 0.29328 0.0
H612 H 0.69969 0.63183 0.30845 0.0
H613 H 0.62249 0.56658 0.55698 0.0
H614 H 0.61725 0.54116 0.50782 0.0
H615 H 0.60948 0.55826 0.4465 0.0
C616 C 0.49217 0.11797 0.34411 0.0
C617 C 0.51339 0.13106 0.37685 0.0
C618 C 0.48064 0.09555 0.36199 0.0
C619 C 0.49054 0.08593 0.41371 0.0
C620 C 0.512 0.09903 0.4462 0.0
C621 C 0.52313 0.12135 0.42742 0.0
C622 C 0.45781 0.08218 0.32595 0.0
C623 C 0.5232 0.08947 0.50146 0.0
C624 C 0.45624 0.03198 0.53767 0.0
C625 C 0.45814 1.01744 0.47786 0.0
C626 C 0.46629 0.0542 0.51676 0.0
C627 C 0.47858 0.06218 0.43395 0.0
C628 C 0.48024 0.04756 0.37249 0.0
C629 C 0.47007 0.02544 0.39519 0.0
C630 C 0.46407 0.06921 0.58413 0.0
C631 C 0.49323 0.05536 0.28368 0.0
H632 H 0.48445 0.12524 0.30505 0.0
H633 H 0.53949 0.13123 0.45313 0.0
H634 H 0.45667 0.06922 0.27961 0.0
H635 H 0.44648 0.07416 0.38475 0.0
H636 H 0.45241 0.09207 0.28686 0.0
H637 H 0.53996 0.10182 0.52132 0.0
H638 H 0.51386 0.08178 0.56569 0.0
H639 H 0.52387 0.07665 0.46039 0.0
H640 H 0.44685 0.02597 0.60106 0.0
H641 H 0.47196 1.01448 0.34909 0.0
H642 H 0.45749 0.07842 0.54794 0.0
H643 H 0.48023 0.08118 0.61159 0.0
H644 H 0.4533 0.06039 0.64367 0.0
H645 H 0.48757 0.06457 0.24143 0.0
H646 H 0.49205 0.04182 0.24105 0.0
H647 H 0.51053 0.06652 0.30032 0.0
C648 C 0.13974 0.12013 0.97468 0.0
C649 C 0.15084 0.12248 0.05831 0.0
C650 C 0.1266 0.12951 0.96279 0.0
C651 C 0.12446 0.14158 0.03621 0.0
C652 C 0.13545 0.14383 0.12104 0.0
C653 C 0.14843 0.13426 0.13108 0.0
C654 C 0.11515 0.12669 0.8713 0.0
C655 C 0.13357 0.15647 0.20127 0.0
C656 C 0.1073 0.1833 -0.01579 0.0
C657 C 0.08545 0.17233 0.01138 0.0
C658 C 0.12009 0.1734 -0.00933 0.0
C659 C 0.11082 0.15193 0.02464 0.0
C660 C 0.08868 0.14063 0.05051 0.0
C661 C 0.07632 0.15096 0.04391 0.0
C662 C 0.14364 0.18607 0.96266 0.0
C663 C 0.07809 0.11768 0.08646 0.0
H664 H 0.14166 0.11129 0.91765 0.0
H665 H 0.15662 0.13589 0.19651 0.0
H666 H 0.09744 0.11914 0.88299 0.0
H667 H 0.12068 0.14273 0.83888 0.0
H668 H 0.11811 0.1165 0.82172 0.0
H669 H 0.14314 0.15673 0.2626 0.0
H670 H 0.13925 0.17339 0.17947 0.0
H671 H 0.11636 0.1493 0.22249 0.0
H672 H 0.11457 0.1998 0.95908 0.0
H673 H 0.05945 0.14224 0.06483 0.0
H674 H 0.14716 0.17708 0.90896 0.0
H675 H 0.15401 0.18809 0.02357 0.0
H676 H 0.14824 0.20235 0.93491 0.0
H677 H 0.08027 0.10719 0.03578 0.0
H678 H 0.06049 0.11078 0.09964 0.0
H679 H 0.08595 0.11722 0.15219 0.0
C680 C 0.93128 0.94862 0.05214 0.0
C681 C 0.91128 0.93663 0.0068 0.0
C682 C 0.94152 0.97129 0.059 0.0
C683 C 0.9316 0.98236 0.01958 0.0
C684 C 0.91159 0.97041 0.97247 0.0
C685 C 0.90168 0.94773 0.96672 0.0
C686 C 0.96283 0.98337 0.10985 0.0
C687 C 0.90048 0.98156 0.92926 0.0
C688 C 0.94599 0.03756 0.11776 0.0
C689 C 0.96058 0.0518 0.05112 0.0
C690 C 0.93651 1.01501 0.10833 0.0
C691 C 0.94175 1.00634 0.03049 0.0
C692 C 0.95662 1.02057 0.96336 0.0
C693 C 0.96585 0.04309 0.97445 0.0
C694 C 0.92082 1.00046 0.18176 0.0
C695 C 0.96265 1.012 0.87938 0.0
H696 H 0.93889 0.94029 0.08343 0.0
H697 H 0.88628 0.9387 0.93133 0.0
H698 H 0.97526 0.99604 0.06424 0.0
H699 H 0.96096 0.99166 0.17148 0.0
H700 H 0.96886 0.97249 0.13341 0.0
H701 H 0.88539 0.97008 0.89212 0.0
H702 H 0.89636 0.98988 -0.01603 0.0
H703 H 0.91155 0.99412 0.87943 0.0
H704 H 0.94208 0.04407 0.17809 0.0
H705 H 0.97689 0.05389 0.92201 0.0
H706 H 0.92679 0.99021 0.21305 0.0
H707 H 0.90488 0.98943 0.14973 0.0
H708 H 0.91843 1.00973 0.23808 0.0
H709 H 0.96948 1.00175 0.90172 0.0
H710 H 0.97469 0.02517 0.8342 0.0
H711 H 0.94798 1.00162 0.83767 0.0
C712 C 0.04514 0.9321 0.12004 0.0
C713 C 1.03097 0.93252 0.05347 0.0
C714 C 0.06771 0.94527 0.11115 0.0
C715 C 0.07647 0.95935 0.03388 0.0
C716 C 0.06229 0.96006 0.96688 0.0
C717 C 0.03975 0.94667 0.97746 0.0
C718 C 0.0822 0.94406 0.18447 0.0
C719 C 0.07096 0.97483 0.88347 0.0
C720 C 0.1342 1.00657 0.05701 0.0
C721 C 0.14628 0.99864 0.01141 0.0
C722 C 0.1115 0.99413 0.06348 0.0
C723 C 0.10049 0.97321 0.02333 0.0
C724 C 0.11252 0.96526 0.97585 0.0
C725 C 0.13522 0.97803 0.97056 0.0
C726 C 0.09934 1.00325 0.11474 0.0
C727 C 0.10143 0.94308 0.9318 0.0
H728 H 0.03857 0.92153 0.17985 0.0
H729 H 1.029 0.94698 0.92508 0.0
H730 H 0.09327 0.93918 0.15222 0.0
H731 H 0.09242 0.96023 0.21618 0.0
H732 H 0.07286 0.93233 0.2405 0.0
H733 H 0.05782 0.97377 0.83845 0.0
H734 H 0.08119 0.99185 0.90645 0.0
H735 H 0.08138 0.97061 0.84139 0.0
H736 H 0.14249 0.02246 0.08881 0.0
H737 H 0.14432 0.97172 0.93494 0.0
H738 H 0.09095 0.99298 0.17596 0.0
H739 H 0.08672 1.00309 0.06915 0.0
H740 H 0.11018 1.02009 0.13898 0.0
H741 H 0.09306 0.93055 -0.01392 0.0
H742 H 0.11298 0.93957 0.89436 0.0
H743 H 0.08891 0.94166 0.88208 0.0
C744 C 0.77226 0.51528 0.30801 0.0
C745 C 0.75133 0.50547 0.34621 0.0
C746 C 0.78496 0.50527 0.31344 0.0
C747 C 0.77659 0.48495 0.3583 0.0
C748 C 0.75537 0.47482 0.39572 0.0
C749 C 0.74302 0.48516 0.38922 0.0
C750 C 0.80748 0.51661 0.27236 0.0
C751 C 0.7458 0.45317 0.44408 0.0
C752 C 0.80337 0.45098 0.3118 0.0
C753 C 0.8169 0.45576 0.38955 0.0
C754 C 0.79011 0.46027 0.30078 0.0
C755 C 0.79034 0.47469 0.36914 0.0
C756 C 0.80379 0.47941 0.44814 0.0
C757 C 0.81683 0.46989 0.45742 0.0
C758 C 0.77602 0.45481 0.21551 0.0
C759 C 0.80446 0.4946 0.52294 0.0
H760 H 0.77886 0.53092 0.27441 0.0
H761 H 0.72687 0.47736 0.41887 0.0
H762 H 0.81958 0.52035 0.32808 0.0
H763 H 0.80926 0.50586 0.22175 0.0
H764 H 0.81131 0.53193 0.23667 0.0
H765 H 0.72877 0.44703 0.46617 0.0
H766 H 0.74632 0.44106 0.39737 0.0
H767 H 0.75557 0.45458 0.5064 0.0
H768 H 0.80345 0.44028 0.25846 0.0
H769 H 0.82692 0.47343 0.51852 0.0
H770 H 0.78061 0.46975 0.1752 0.0
H771 H 0.75882 0.4479 0.2363 0.0
H772 H 0.77742 0.44305 0.16951 0.0
H773 H 0.8096 0.51075 0.49258 0.0
H774 H 0.81573 0.49656 0.58018 0.0
H775 H 0.78803 0.48846 0.55267 0.0
C776 C 0.63065 0.37714 0.30758 0.0
C777 C 0.62755 0.38584 0.38996 0.0
C778 C 0.62135 0.35463 0.29572 0.0
C779 C 0.60861 0.3404 0.36788 0.0
C780 C 0.60562 0.34908 0.4515 0.0
C781 C 0.61513 0.37162 0.46156 0.0
C782 C 0.62496 0.34605 0.20554 0.0
C783 C 0.59225 0.33454 0.53038 0.0
C784 C 0.56707 0.28169 0.31271 0.0
C785 C 0.57769 0.27069 0.34274 0.0
C786 C 0.57706 0.30436 0.31913 0.0
C787 C 0.59825 0.31642 0.35612 0.0
C788 C 0.60921 0.30546 0.38491 0.0
C789 C 0.59881 0.28278 0.37816 0.0
C790 C 0.56477 0.31539 0.28785 0.0
C791 C 0.63184 0.31767 0.42423 0.0
H792 H 0.64 0.38792 0.25144 0.0
H793 H 0.61293 0.37814 0.52609 0.0
H794 H 0.63231 0.33582 0.21951 0.0
H795 H 0.60921 0.33565 0.17076 0.0
H796 H 0.63566 0.35923 0.15704 0.0
H797 H 0.59152 0.34382 0.59097 0.0
H798 H 0.5755 0.32339 0.50627 0.0
H799 H 0.59914 0.32441 0.55358 0.0
H800 H 0.55078 0.27257 0.28528 0.0
H801 H 0.60724 0.27453 0.40135 0.0
H802 H 0.57431 0.32793 0.23502 0.0
H803 H 0.56225 0.32372 0.34769 0.0
H804 H 0.54873 0.30382 0.25779 0.0
H805 H 0.64282 0.33037 0.3747 0.0
H806 H 0.63854 0.30689 0.43938 0.0
H807 H 0.63178 0.32594 0.48946 0.0
C808 C 0.7063 0.27929 0.30793 0.0
C809 C 0.6974 0.26544 0.3848 0.0
C810 C 0.72886 0.29255 0.29748 0.0
C811 C 0.74294 0.29201 0.36547 0.0
C812 C 0.73407 0.2782 0.44348 0.0
C813 C 0.71148 0.26516 0.45225 0.0
C814 C 0.73765 0.30704 0.21328 0.0
C815 C 0.74845 0.27717 0.51784 0.0
C816 C 0.80178 0.31059 0.30437 0.0
C817 C 0.81274 0.33134 0.34405 0.0
C818 C 0.77908 0.29778 0.30942 0.0
C819 C 0.76696 0.30585 0.35541 0.0
C820 C 0.77789 0.32688 0.39446 0.0
C821 C 0.80058 0.33934 0.38831 0.0
C822 C 0.76807 0.27548 0.26663 0.0
C823 C 0.76563 0.33612 0.44411 0.0
H824 H 0.69562 0.27948 0.25488 0.0
H825 H 0.70482 0.25482 0.51271 0.0
H826 H 0.74781 0.32414 0.23539 0.0
H827 H 0.74818 0.30272 0.17252 0.0
H828 H 0.72458 0.3058 0.16728 0.0
H829 H 0.73903 0.26556 0.57411 0.0
H830 H 0.75959 0.27225 0.4867 0.0
H831 H 0.7586 0.29341 0.54903 0.0
H832 H 0.81094 0.30422 0.2698 0.0
H833 H 0.8088 0.35533 0.41924 0.0
H834 H 0.75564 0.2739 0.21606 0.0
H835 H 0.75961 0.26311 0.32143 0.0
H836 H 0.77969 0.27186 0.23045 0.0
H837 H 0.75308 0.33581 0.39766 0.0
H838 H 0.77642 0.35303 0.46765 0.0
H839 H 0.75716 0.32601 0.50562 0.0
C840 C 0.48731 0.80655 0.78816 0.0
C841 C 0.48612 0.79131 0.72304 0.0
C842 C 0.47437 0.81621 0.77971 0.0
C843 C 0.45974 0.81051 0.70441 0.0
C844 C 0.45833 0.79505 0.6387 0.0
C845 C 0.4715 0.78564 0.64878 0.0
C846 C 0.47633 0.83252 0.85165 0.0
C847 C 0.44297 0.78852 0.55738 0.0
C848 C 0.41265 0.8211 0.73224 0.0
C849 C 0.42013 0.8407 0.68404 0.0
C850 C 0.42523 0.81101 0.73841 0.0
C851 C 0.44584 0.82064 0.69517 0.0
C852 C 0.45339 0.84027 0.64542 0.0
C853 C 0.44049 0.85008 0.6406 0.0
C854 C 0.41656 0.79013 0.79231 0.0
C855 C 0.47523 0.85106 0.59804 0.0
H856 H 0.49825 0.8108 0.84664 0.0
H857 H 0.47061 0.77409 0.59748 0.0
H858 H 0.48092 0.84819 0.81762 0.0
H859 H 0.46046 0.82687 0.88619 0.0
H860 H 0.48857 0.83532 0.90569 0.0
H861 H 0.44372 0.77622 0.51256 0.0
H862 H 0.42612 0.78184 0.58278 0.0
H863 H 0.44686 0.80293 0.5144 0.0
H864 H 0.39697 0.81366 0.76617 0.0
H865 H 0.44644 0.86516 0.60293 0.0
H866 H 0.42746 0.79239 0.85146 0.0
H867 H 0.41614 0.7773 0.74726 0.0
H868 H 0.4 0.78442 0.81993 0.0
H869 H 0.48818 0.85547 0.6504 0.0
H870 H 0.47849 0.86591 0.55972 0.0
H871 H 0.47622 0.83966 0.54846 0.0
C872 C 0.26382 0.61565 0.71982 0.0
C873 C 0.24366 0.60351 0.67591 0.0
C874 C 0.27397 0.63831 0.72631 0.0
C875 C 0.26379 0.64923 0.68799 0.0
C876 C 0.24358 0.63714 0.64254 0.0
C877 C 0.23376 0.61446 0.6371 0.0
C878 C 0.2955 0.65055 0.77541 0.0
C879 C 0.23219 0.64814 0.60055 0.0
C880 C 0.27926 0.70477 0.78568 0.0
C881 C 0.29395 0.7188 0.71879 0.0
C882 C 0.26931 0.68218 0.77631 0.0
C883 C 0.27402 0.67324 0.6978 0.0
C884 C 0.28868 0.68725 0.62957 0.0
C885 C 0.29848 0.70981 0.64094 0.0
C886 C 0.25378 0.66786 0.85069 0.0
C887 C 0.29413 0.6784 0.54482 0.0
H888 H 0.27167 0.60743 0.75009 0.0
H889 H 0.21822 0.60531 0.60291 0.0
H890 H 0.30774 0.663 0.72843 0.0
H891 H 0.29394 0.65913 0.83668 0.0
H892 H 0.30159 0.63975 0.7992 0.0
H893 H 0.21688 0.63653 0.56522 0.0
H894 H 0.22842 0.65666 0.65562 0.0
H895 H 0.24295 0.66053 0.54942 0.0
H896 H 0.27529 0.71146 0.84523 0.0
H897 H 0.30998 0.72044 0.58934 0.0
H898 H 0.25964 0.65744 0.88129 0.0
H899 H 0.23766 0.65698 0.81976 0.0
H900 H 0.25181 0.67732 0.9074 0.0
H901 H 0.30163 0.66869 0.56638 0.0
H902 H 0.30545 0.6914 0.49706 0.0
H903 H 0.27913 0.66743 0.50614 0.0
C904 C 0.46882 0.64481 0.63994 0.0
C905 C 0.47993 0.66574 0.67783 0.0
C906 C 0.44612 0.63212 0.64576 0.0
C907 C 0.43415 0.64048 0.69065 0.0
C908 C 0.44522 0.66168 0.728 0.0
C909 C 0.46792 0.67403 0.72118 0.0
C910 C 0.43496 0.60963 0.60474 0.0
C911 C 0.43312 0.67124 0.7764 0.0
C912 C 0.37358 0.61435 0.64228 0.0
C913 C 0.36449 0.60079 0.71992 0.0
C914 C 0.39616 0.62732 0.63176 0.0
C915 C 0.4101 0.62685 0.70066 0.0
C916 C 0.40106 0.61329 0.77931 0.0
C917 C 0.37844 0.60043 0.78783 0.0
C918 C 0.40513 0.64153 0.54686 0.0
C919 C 0.4153 0.61228 0.8544 0.0
H920 H 0.47786 0.63822 0.60618 0.0
H921 H 0.47626 0.69015 0.75076 0.0
H922 H 0.42635 0.59751 0.66028 0.0
H923 H 0.42263 0.60798 0.55342 0.0
H924 H 0.4465 0.60571 0.56986 0.0
H925 H 0.44402 0.68821 0.79899 0.0
H926 H 0.42062 0.6709 0.72948 0.0
H927 H 0.42459 0.66137 0.83838 0.0
H928 H 0.36301 0.61501 0.58995 0.0
H929 H 0.37169 0.58978 0.84729 0.0
H930 H 0.41595 0.63728 0.50803 0.0
H931 H 0.41502 0.65872 0.56815 0.0
H932 H 0.39216 0.63996 0.49929 0.0
H933 H 0.42608 0.60679 0.82438 0.0
H934 H 0.40576 0.60114 0.91179 0.0
H935 H 0.42582 0.62865 0.88388 0.0
C936 C 0.04893 0.18716 0.70493 0.0
C937 C 0.03691 0.19497 0.75071 0.0
C938 C 0.05297 0.19047 0.60929 0.0
C939 C 0.04568 0.20279 0.55995 0.0
C940 C 0.03411 0.21132 0.60709 0.0
C941 C 1.0294 0.20683 0.70192 0.0
C942 C 0.06458 0.18039 0.56075 0.0
C943 C 1.02691 0.22531 0.55764 0.0
C944 C 0.07336 0.22607 0.32893 0.0
C945 C 0.05732 0.21247 0.2661 0.0
C946 C 0.06958 0.22349 0.4251 0.0
C947 C 0.0497 0.20629 0.45856 0.0
C948 C 1.03365 0.19226 0.39507 0.0
C949 C 0.03746 0.19593 0.29949 0.0
C950 C 0.08667 0.23934 0.49075 0.0
C951 C 1.01257 0.17324 0.42794 0.0
H952 H 0.05464 0.17793 0.74359 0.0
H953 H 1.02033 0.21305 0.73855 0.0
H954 H 0.05435 0.16975 0.50361 0.0
H955 H 0.07983 0.19315 0.52899 0.0
H956 H 0.06853 0.17067 0.60882 0.0
H957 H 1.01946 0.23192 0.6059 0.0
H958 H 0.04094 0.23901 0.52255 0.0
H959 H 1.01494 0.21579 0.50305 0.0
H960 H 0.08861 0.2391 0.30288 0.0
H961 H 1.02497 0.18565 0.2508 0.0
H962 H 0.09264 0.23082 0.5357 0.0
H963 H 0.07958 0.24664 0.53714 0.0
H964 H 0.10069 0.25254 0.45328 0.0
H965 H 1.01586 0.16298 0.47556 0.0
H966 H 1.00247 0.16306 0.36937 0.0
H967 H 1.00311 0.17905 0.46757 0.0
C968 C 0.88151 0.87981 0.71123 0.0
C969 C 0.8874 0.86512 0.74593 0.0
C970 C 0.87781 0.88061 0.61604 0.0
C971 C 0.87973 0.86616 0.5546 0.0
C972 C 0.88521 0.85097 0.58971 0.0
C973 C 0.88915 0.85075 0.68513 0.0
C974 C 0.87223 0.89719 0.58106 0.0
C975 C 0.88707 0.83508 0.52639 0.0
C976 C 0.85283 0.85649 0.31827 0.0
C977 C 0.87061 0.86929 0.26127 0.0
C978 C 0.85556 0.85518 0.41418 0.0
C979 C 0.87651 0.86728 0.45326 0.0
C980 C 0.89445 0.88052 0.39549 0.0
C981 C 0.89127 0.88124 0.29971 0.0
C982 C 0.83612 0.84068 0.4734 0.0
C983 C 0.91697 0.89394 0.43481 0.0
H984 H 0.88017 0.89096 0.75833 0.0
H985 H 0.89359 0.83931 0.7122 0.0
H986 H 0.88469 0.90814 0.53053 0.0
H987 H 0.85651 0.88904 0.54394 0.0
H988 H 0.87119 0.90713 0.63817 0.0
H989 H 0.89058 0.82373 0.56523 0.0
H990 H 0.8718 0.82554 0.48698 0.0
H991 H 0.90018 0.84394 0.47483 0.0
H992 H 0.83688 0.84721 0.28747 0.0
H993 H 0.90487 0.89133 0.25496 0.0
H994 H 0.83393 0.8503 0.52854 0.0
H995 H 0.83875 0.82835 0.50859 0.0
H996 H 0.82097 0.83225 0.43204 0.0
H997 H 0.91704 0.90511 0.48872 0.0
H998 H 0.92908 0.90362 0.38052 0.0
H999 H 0.92207 0.88327 0.46895 0.0
C1000 C 0.23193 0.06265 0.69105 0.0
C1001 C 0.218 0.04632 0.75224 0.0
C1002 C 0.23166 0.05854 0.5955 0.0
C1003 C 0.21691 0.03769 0.5607 0.0
C1004 C 0.20292 1.02111 0.62253 0.0
C1005 C 0.20374 0.02561 0.71778 0.0
C1006 C 0.24703 0.07652 0.53171 0.0
C1007 C 0.18684 0.99875 0.58793 0.0
C1008 C 0.20118 0.0333 0.3065 0.0
C1009 C 0.21364 0.02519 0.26743 0.0
C1010 C 0.20196 0.03729 0.40226 0.0
C1011 C 0.21578 0.03332 0.45933 0.0
C1012 C 0.22843 0.02512 0.41956 0.0
C1013 C 0.22706 1.02098 0.32372 0.0
C1014 C 0.18799 0.04571 0.44231 0.0
C1015 C 0.24355 1.02096 0.478 0.0
H1016 H 0.24303 0.07865 0.71789 0.0
H1017 H 0.19294 1.01296 0.76516 0.0
H1018 H 0.25696 0.0713 0.49176 0.0
H1019 H 0.23773 0.08026 0.48064 0.0
H1020 H 0.25805 0.09156 0.57026 0.0
H1021 H 0.17723 0.98764 0.64531 0.0
H1022 H 0.17554 0.99976 0.53796 0.0
H1023 H 0.1954 0.99164 0.55027 0.0
H1024 H 0.19069 0.03631 0.26221 0.0
H1025 H 0.23675 1.01481 0.29239 0.0
H1026 H 0.1983 0.0616 0.47613 0.0
H1027 H 0.17712 0.03446 0.49663 0.0
H1028 H 0.17792 0.04765 0.38851 0.0
H1029 H 0.25556 0.03615 0.51281 0.0
H1030 H 0.25237 1.01472 0.43615 0.0
H1031 H 0.23431 1.00905 0.53343 0.0
C1032 C 0.74023 0.55809 0.66486 0.0
C1033 C 0.72367 0.54569 0.60177 0.0
C1034 C 0.73648 0.55537 0.76104 0.0
C1035 C 0.71596 0.53926 0.79422 0.0
C1036 C 0.69934 0.5264 0.73047 0.0
C1037 C 0.70326 0.53016 0.63496 0.0
C1038 C 0.75432 0.56993 0.82704 0.0
C1039 C 0.67748 0.50858 0.763 0.0
C1040 C 0.71326 0.51874 0.03971 0.0
C1041 C 0.70298 0.5283 0.08653 0.0
C1042 C 0.71732 0.52192 0.94399 0.0
C1043 C 0.71181 0.53579 0.89561 0.0
C1044 C 0.70197 0.54598 0.94377 0.0
C1045 C 0.69722 0.5417 0.03871 0.0
C1046 C 0.72708 0.51014 0.89441 0.0
C1047 C 0.69668 0.56153 0.89532 0.0
H1048 H 0.75595 0.57031 0.63907 0.0
H1049 H 0.69038 0.52078 0.58614 0.0
H1050 H 0.7485 0.57834 0.87388 0.0
H1051 H 0.7589 0.56017 0.8715 0.0
H1052 H 0.76901 0.58228 0.7899 0.0
H1053 H 0.66685 0.49914 0.7042 0.0
H1054 H 0.67951 0.49734 0.80967 0.0
H1055 H 0.66919 0.51556 0.80357 0.0
H1056 H 0.71763 0.50835 0.07767 0.0
H1057 H 0.6895 0.54925 0.07616 0.0
H1058 H 0.7428 0.52193 0.86258 0.0
H1059 H 0.71624 0.50018 0.83721 0.0
H1060 H 0.72977 0.49942 0.94182 0.0
H1061 H 0.71139 0.57454 0.86091 0.0
H1062 H 0.69027 0.56909 0.94408 0.0
H1063 H 0.68445 0.55297 0.84028 0.0
C1064 C 0.52375 0.20559 0.66119 0.0
C1065 C 0.53695 0.20258 0.5979 0.0
C1066 C 0.5264 0.20445 0.75727 0.0
C1067 C 0.54329 0.20121 0.79016 0.0
C1068 C 0.55694 0.19862 0.72621 0.0
C1069 C 0.55319 0.19874 0.63075 0.0
C1070 C 0.51095 0.20633 0.82343 0.0
C1071 C 0.57562 0.19596 0.75844 0.0
C1072 C 0.56279 0.21935 0.0363 0.0
C1073 C 0.55442 0.19949 0.08217 0.0
C1074 C 0.55957 0.22015 0.94067 0.0
C1075 C 0.54679 0.20061 0.89146 0.0
C1076 C 0.53774 0.18051 0.93867 0.0
C1077 C 0.54213 0.18018 0.03348 0.0
C1078 C 0.57022 0.24182 0.89203 0.0
C1079 C 0.52328 0.15943 0.88936 0.0
H1080 H 0.51097 0.20825 0.63559 0.0
H1081 H 0.56314 0.19606 0.58174 0.0
H1082 H 0.50331 0.19199 0.86989 0.0
H1083 H 0.51989 0.22079 0.86828 0.0
H1084 H 0.49799 0.20764 0.78642 0.0
H1085 H 0.58561 0.19571 0.69954 0.0
H1086 H 0.58618 0.20939 0.80595 0.0
H1087 H 0.56946 0.18065 0.79801 0.0
H1088 H 0.57236 0.23422 0.07489 0.0
H1089 H 0.53549 0.16489 0.07017 0.0
H1090 H 0.55775 0.24479 0.86063 0.0
H1091 H 0.58065 0.24183 0.8346 0.0
H1092 H 0.58028 0.25539 0.93996 0.0
H1093 H 0.5098 0.1602 0.85447 0.0
H1094 H 0.51632 0.14539 0.93766 0.0
H1095 H 0.53256 0.15661 0.83463 0.0
C1096 C 0.86829 0.36729 0.63836 0.0
C1097 C 0.88003 0.35836 0.59955 0.0
C1098 C 0.86908 0.37123 0.73415 0.0
C1099 C 0.88222 0.36636 0.79158 0.0
C1100 C 0.89413 0.35729 0.75215 0.0
C1101 C 0.89273 0.35321 0.65623 0.0
C1102 C 0.85584 0.38052 0.77388 0.0
C1103 C 0.90853 0.35219 0.811 0.0
C1104 C 0.89887 0.3955 0.02359 0.0
C1105 C 0.88438 0.37943 0.08433 0.0
C1106 C 0.89867 0.39132 0.92814 0.0
C1107 C 0.88338 0.3707 0.89296 0.0
C1108 C 0.86882 0.35438 0.95436 0.0
C1109 C 0.86962 0.35891 0.04955 0.0
C1110 C 0.91469 0.40899 0.86485 0.0
C1111 C 0.85212 0.33229 0.91931 0.0
H1112 H 0.8583 0.37095 0.59386 0.0
H1113 H 0.90187 0.34639 0.62515 0.0
H1114 H 0.84463 0.36951 0.82792 0.0
H1115 H 0.86664 0.39626 0.80794 0.0
H1116 H 0.84621 0.38305 0.71983 0.0
H1117 H 0.9168 0.34532 0.7694 0.0
H1118 H 0.92099 0.36712 0.84594 0.0
H1119 H 0.89886 0.34047 0.86634 0.0
H1120 H 0.91037 0.41134 0.05073 0.0
H1121 H 0.85838 0.34646 0.09661 0.0
H1122 H 0.90593 0.41339 0.81355 0.0
H1123 H 0.92412 0.40314 0.82515 0.0
H1124 H 0.92615 0.42379 0.90378 0.0
H1125 H 0.84125 0.33391 0.86886 0.0
H1126 H 0.84209 0.32136 0.9764 0.0
H1127 H 0.86018 0.32461 0.88209 0.0
C1128 C 0.36238 0.8732 0.3729 0.0
C1129 C 0.37094 0.86235 0.42232 0.0
C1130 C 0.36711 0.87788 0.27815 0.0
C1131 C 0.37979 0.87054 0.23164 0.0
C1132 C 0.38816 0.85924 0.2816 0.0
C1133 C 0.38407 0.85576 0.37717 0.0
C1134 C 0.35872 0.89081 0.22813 0.0
C1135 C 0.40097 0.85037 0.23375 0.0
C1136 C 0.37195 0.86314 0.97108 0.0
C1137 C 0.39137 0.88037 0.93763 0.0
C1138 C 0.36822 0.85943 0.06668 0.0
C1139 C 0.38378 0.8741 0.13018 0.0
C1140 C 0.40315 0.89202 0.09664 0.0
C1141 C 0.40696 0.89463 0.00045 0.0
C1142 C 0.34775 0.83966 0.09953 0.0
C1143 C 0.41964 0.90856 0.1622 0.0
H1144 H 0.35247 0.87849 0.40897 0.0
H1145 H 0.39059 0.84731 0.41624 0.0
H1146 H 0.37227 0.90492 0.19275 0.0
H1147 H 0.347 0.88073 0.17372 0.0
H1148 H 0.35058 0.89674 0.27606 0.0
H1149 H 0.4057 0.84134 0.28224 0.0
H1150 H 0.39123 0.83936 0.17656 0.0
H1151 H 0.41585 0.86373 0.20215 0.0
H1152 H 0.35977 0.85237 0.92241 0.0
H1153 H 0.42185 0.90818 0.97434 0.0
H1154 H 0.33746 0.84462 0.13815 0.0
H1155 H 0.35182 0.83012 0.14805 0.0
H1156 H 0.33815 0.82902 0.04102 0.0
H1157 H 0.41174 0.91509 0.20828 0.0
H1158 H 0.43319 0.92225 0.12465 0.0
H1159 H 0.42643 0.90086 0.20748 0.0
C1160 C 0.22412 0.54812 0.96974 0.0
C1161 C 0.20347 0.53608 0.93132 0.0
C1162 C 0.22733 0.5474 0.06547 0.0
C1163 C 0.20943 0.53406 0.12323 0.0
C1164 C 0.18848 0.52185 0.08418 0.0
C1165 C 0.18573 0.52316 -0.01169 0.0
C1166 C 0.24984 0.56094 0.10475 0.0
C1167 C 0.16909 0.50723 0.1434 0.0
C1168 C 0.22229 0.51777 0.35517 0.0
C1169 C 0.22038 0.53207 0.41588 0.0
C1170 C 0.21832 0.51793 0.25975 0.0
C1171 C 0.21267 0.53299 0.22456 0.0
C1172 C 0.2106 0.54737 0.28592 0.0
C1173 C 0.21432 0.54661 0.38111 0.0
C1174 C 0.22033 0.50211 0.19651 0.0
C1175 C 0.20485 0.56382 0.25083 0.0
H1176 H 0.23768 0.55831 0.925 0.0
H1177 H 0.16979 0.5138 0.95752 0.0
H1178 H 0.24985 0.57213 0.15838 0.0
H1179 H 0.25501 0.55036 0.13925 0.0
H1180 H 0.26194 0.57061 0.05039 0.0
H1181 H 0.15396 0.49869 0.10203 0.0
H1182 H 0.17186 0.49499 0.17864 0.0
H1183 H 0.16679 0.51679 0.19849 0.0
H1184 H 0.22686 0.50644 0.38231 0.0
H1185 H 0.21286 0.5577 0.42816 0.0
H1186 H 0.23343 0.51104 0.14498 0.0
H1187 H 0.20508 0.49248 0.15706 0.0
H1188 H 0.22394 0.49085 0.23543 0.0
H1189 H 0.21727 0.57481 0.2003 0.0
H1190 H 0.20371 0.57371 0.30789 0.0
H1191 H 0.18913 0.55556 0.2137 0.0
C1192 C 0.56618 0.72904 0.35561 0.0
C1193 C 0.55159 0.71304 0.41631 0.0
C1194 C 0.56593 0.72487 0.26015 0.0
C1195 C 0.55047 0.70432 0.22492 0.0
C1196 C 0.53578 0.68807 0.28627 0.0
C1197 C 0.53664 0.69259 0.3815 0.0
C1198 C 0.58207 0.74246 0.19692 0.0
C1199 C 0.5189 0.66607 0.25113 0.0
C1200 C 0.5356 0.70118 0.97018 0.0
C1201 C 0.5472 0.69208 0.93151 0.0
C1202 C 0.53635 0.70508 0.06599 0.0
C1203 C 0.5493 0.69999 0.12356 0.0
C1204 C 0.56106 0.69076 0.08425 0.0
C1205 C 0.5597 0.68671 -0.01167 0.0
C1206 C 0.52327 0.71457 0.10558 0.0
C1207 C 0.57527 0.68542 0.14325 0.0
H1208 H 0.57782 0.74482 0.38278 0.0
H1209 H 0.52533 0.6802 0.42856 0.0
H1210 H 0.59139 0.73646 0.15727 0.0
H1211 H 0.57343 0.74698 0.14556 0.0
H1212 H 0.59363 0.7572 0.23588 0.0
H1213 H 0.5088 0.65519 0.30818 0.0
H1214 H 0.50813 0.66786 0.20072 0.0
H1215 H 0.5268 0.65824 0.21384 0.0
H1216 H 0.52573 0.70499 0.92556 0.0
H1217 H 0.56872 0.67975 0.95735 0.0
H1218 H 0.53417 0.73026 0.13979 0.0
H1219 H 0.51196 0.7036 0.15948 0.0
H1220 H 0.51376 0.71725 0.05143 0.0
H1221 H 0.58779 0.70025 0.17855 0.0
H1222 H 0.58348 0.67846 0.1017 0.0
H1223 H 0.56546 0.67368 0.1983 0.0
loop_
_geom_bond_atom_site_label_1
_geom_bond_atom_site_label_2
_geom_bond_distance
_geom_bond_site_symmetry_2
_ccdc_geom_bond_type
Gd0 C3 2.818 1_554 S
Gd0 O20 2.377 . S
Gd0 O22 2.448 . S
Gd0 O23 2.506 1_554 S
Gd0 O24 2.435 . S
Gd0 O25 2.717 . S
Gd0 O27 2.395 . S
Gd0 O31 2.327 1_554 S
Gd1 C12 2.818 1_556 S
Gd1 O21 2.395 . S
Gd1 O25 2.327 1_656 S
Gd1 O26 2.377 1_655 S
Gd1 O28 2.448 . S
Gd1 O29 2.506 1_556 S
Gd1 O30 2.435 . S
Gd1 O31 2.717 1_655 S
C2 O20 1.240 1_655 S
C2 O21 1.240 1_554 S
C3 Gd0 2.818 1_556 S
C3 C4 1.510 . S
C3 O22 1.249 1_556 S
C3 O23 1.252 . S
C4 C3 1.510 . S
C4 C5 1.404 1_556 S
C4 C6 1.352 . S
C5 C4 1.404 1_554 S
C5 C9 1.389 . S
C5 H32 0.930 . S
C6 C4 1.352 . S
C6 C8 1.374 . S
C6 H33 0.931 . S
C7 C8 1.359 . S
C7 C9 1.364 1_556 S
C8 C6 1.374 . S
C8 C7 1.359 . S
C8 H34 0.931 . S
C9 C5 1.389 . S
C9 C7 1.364 1_554 S
C9 H35 0.931 . S
C10 O24 1.256 . S
C10 O25 1.257 . S
C11 O26 1.240 . S
C11 O27 1.240 1_556 S
C12 Gd1 2.818 1_554 S
C12 C13 1.510 . S
C12 O28 1.249 1_554 S
C12 O29 1.252 . S
C13 C12 1.510 . S
C13 C14 1.404 1_554 S
C13 C15 1.352 . S
C14 C13 1.404 1_556 S
C14 C18 1.389 . S
C14 H36 0.930 . S
C15 C13 1.352 . S
C15 C17 1.374 . S
C15 H37 0.931 . S
C16 C17 1.359 . S
C16 C18 1.364 1_554 S
C17 C15 1.374 . S
C17 C16 1.359 . S
C17 H38 0.931 . S
C18 C14 1.389 . S
C18 C16 1.364 1_556 S
C18 H39 0.931 . S
C19 O30 1.256 1_455 S
C19 O31 1.257 . S
O20 Gd0 2.377 . S
O20 C2 1.240 1_455 S
O21 Gd1 2.395 . S
O21 C2 1.240 1_556 S
O22 Gd0 2.448 . S
O22 C3 1.249 1_554 S
O23 Gd0 2.506 1_556 S
O23 C3 1.252 . S
O24 Gd0 2.435 . S
O24 C10 1.256 . S
O25 Gd0 2.717 . S
O25 Gd1 2.327 1_454 S
O25 C10 1.257 . S
O26 Gd1 2.377 1_455 S
O26 C11 1.240 . S
O27 Gd0 2.395 . S
O27 C11 1.240 1_554 S
O28 Gd1 2.448 . S
O28 C12 1.249 1_556 S
O29 Gd1 2.506 1_554 S
O29 C12 1.252 . S
O30 Gd1 2.435 . S
O30 C19 1.256 1_655 S
O31 Gd0 2.327 1_556 S
O31 Gd1 2.717 1_455 S
O31 C19 1.257 . S
H32 C5 0.930 . S
H33 C6 0.931 . S
H34 C8 0.931 . S
H35 C9 0.931 . S
H36 C14 0.930 . S
H37 C15 0.931 . S
H38 C17 0.931 . S
H39 C18 0.931 . S
Gd40 C43 2.818 1_554 S
Gd40 O60 2.377 . S
Gd40 O62 2.448 . S
Gd40 O63 2.506 1_554 S
Gd40 O64 2.435 . S
Gd40 O65 2.717 . S
Gd40 O67 2.395 . S
Gd40 O71 2.327 1_554 S
Gd41 C52 2.818 1_556 S
Gd41 O61 2.395 . S
Gd41 O65 2.327 1_556 S
Gd41 O66 2.377 . S
Gd41 O68 2.448 . S
Gd41 O69 2.506 1_556 S
Gd41 O70 2.435 . S
Gd41 O71 2.717 . S
C42 O60 1.240 . S
C42 O61 1.240 1_554 S
C43 Gd40 2.818 1_556 S
C43 C44 1.510 . S
C43 O62 1.249 1_556 S
C43 O63 1.252 . S
C44 C43 1.510 . S
C44 C45 1.404 1_556 S
C44 C46 1.352 . S
C45 C44 1.404 1_554 S
C45 C49 1.389 . S
C45 H72 0.930 . S
C46 C44 1.352 . S
C46 C48 1.374 . S
C46 H73 0.931 . S
C47 C48 1.359 . S
C47 C49 1.364 1_556 S
C48 C46 1.374 . S
C48 C47 1.359 . S
C48 H74 0.931 . S
C49 C45 1.389 . S
C49 C47 1.364 1_554 S
C49 H75 0.931 . S
C50 O64 1.256 . S
C50 O65 1.257 . S
C51 O66 1.240 . S
C51 O67 1.240 1_556 S
C52 Gd41 2.818 1_554 S
C52 C53 1.510 . S
C52 O68 1.249 1_554 S
C52 O69 1.252 . S
C53 C52 1.510 . S
C53 C54 1.404 1_554 S
C53 C55 1.352 . S
C54 C53 1.404 1_556 S
C54 C58 1.389 . S
C54 H76 0.930 . S
C55 C53 1.352 . S
C55 C57 1.374 . S
C55 H77 0.931 . S
C56 C57 1.359 . S
C56 C58 1.364 1_554 S
C57 C55 1.374 . S
C57 C56 1.359 . S
C57 H78 0.931 . S
C58 C54 1.389 . S
C58 C56 1.364 1_556 S
C58 H79 0.931 . S
C59 O70 1.256 . S
C59 O71 1.257 . S
O60 Gd40 2.377 . S
O60 C42 1.240 . S
O61 Gd41 2.395 . S
O61 C42 1.240 1_556 S
O62 Gd40 2.448 . S
O62 C43 1.249 1_554 S
O63 Gd40 2.506 1_556 S
O63 C43 1.252 . S
O64 Gd40 2.435 . S
O64 C50 1.256 . S
O65 Gd40 2.717 . S
O65 Gd41 2.327 1_554 S
O65 C50 1.257 . S
O66 Gd41 2.377 . S
O66 C51 1.240 . S
O67 Gd40 2.395 . S
O67 C51 1.240 1_554 S
O68 Gd41 2.448 . S
O68 C52 1.249 1_556 S
O69 Gd41 2.506 1_554 S
O69 C52 1.252 . S
O70 Gd41 2.435 . S
O70 C59 1.256 . S
O71 Gd40 2.327 1_556 S
O71 Gd41 2.717 . S
O71 C59 1.257 . S
H72 C45 0.930 . S
H73 C46 0.931 . S
H74 C48 0.931 . S
H75 C49 0.931 . S
H76 C54 0.930 . S
H77 C55 0.931 . S
H78 C57 0.931 . S
H79 C58 0.931 . S
Gd80 C83 2.818 1_554 S
Gd80 O100 2.377 1_565 S
Gd80 O102 2.448 . S
Gd80 O103 2.506 1_554 S
Gd80 O104 2.435 . S
Gd80 O105 2.717 1_565 S
Gd80 O107 2.395 . S
Gd80 O111 2.327 1_564 S
Gd81 C92 2.818 1_556 S
Gd81 O101 2.395 . S
Gd81 O105 2.327 1_556 S
Gd81 O106 2.377 . S
Gd81 O108 2.448 . S
Gd81 O109 2.506 1_556 S
Gd81 O110 2.435 . S
Gd81 O111 2.717 . S
C82 O100 1.240 . S
C82 O101 1.240 1_554 S
C83 Gd80 2.818 1_556 S
C83 C84 1.510 . S
C83 O102 1.249 1_556 S
C83 O103 1.252 . S
C84 C83 1.510 . S
C84 C85 1.404 1_556 S
C84 C86 1.352 . S
C85 C84 1.404 1_554 S
C85 C89 1.389 . S
C85 H112 0.930 . S
C86 C84 1.352 . S
C86 C88 1.374 . S
C86 H113 0.931 . S
C87 C88 1.359 . S
C87 C89 1.364 1_556 S
C88 C86 1.374 . S
C88 C87 1.359 . S
C88 H114 0.931 . S
C89 C85 1.389 . S
C89 C87 1.364 1_554 S
C89 H115 0.931 . S
C90 O104 1.256 1_545 S
C90 O105 1.257 . S
C91 O106 1.240 1_565 S
C91 O107 1.240 1_556 S
C92 Gd81 2.818 1_554 S
C92 C93 1.510 . S
C92 O108 1.249 1_554 S
C92 O109 1.252 . S
C93 C92 1.510 . S
C93 C94 1.404 1_554 S
C93 C95 1.352 . S
C94 C93 1.404 1_556 S
C94 C98 1.389 . S
C94 H116 0.930 . S
C95 C93 1.352 . S
C95 C97 1.374 . S
C95 H117 0.931 . S
C96 C97 1.359 . S
C96 C98 1.364 1_554 S
C97 C95 1.374 . S
C97 C96 1.359 . S
C97 H118 0.931 . S
C98 C94 1.389 . S
C98 C96 1.364 1_556 S
C98 H119 0.931 . S
C99 O110 1.256 . S
C99 O111 1.257 . S
O100 Gd80 2.377 1_545 S
O100 C82 1.240 . S
O101 Gd81 2.395 . S
O101 C82 1.240 1_556 S
O102 Gd80 2.448 . S
O102 C83 1.249 1_554 S
O103 Gd80 2.506 1_556 S
O103 C83 1.252 . S
O104 Gd80 2.435 . S
O104 C90 1.256 1_565 S
O105 Gd80 2.717 1_545 S
O105 Gd81 2.327 1_554 S
O105 C90 1.257 . S
O106 Gd81 2.377 . S
O106 C91 1.240 1_545 S
O107 Gd80 2.395 . S
O107 C91 1.240 1_554 S
O108 Gd81 2.448 . S
O108 C92 1.249 1_556 S
O109 Gd81 2.506 1_554 S
O109 C92 1.252 . S
O110 Gd81 2.435 . S
O110 C99 1.256 . S
O111 Gd80 2.327 1_546 S
O111 Gd81 2.717 . S
O111 C99 1.257 . S
H112 C85 0.930 . S
H113 C86 0.931 . S
H114 C88 0.931 . S
H115 C89 0.931 . S
H116 C94 0.930 . S
H117 C95 0.931 . S
H118 C97 0.931 . S
H119 C98 0.931 . S
Gd120 C123 2.818 . S
Gd120 O140 2.377 . S
Gd120 O142 2.448 . S
Gd120 O143 2.506 . S
Gd120 O144 2.435 . S
Gd120 O145 2.717 . S
Gd120 O147 2.395 . S
Gd120 O151 2.327 . S
Gd121 C132 2.818 . S
Gd121 O141 2.395 . S
Gd121 O145 2.327 . S
Gd121 O146 2.377 . S
Gd121 O148 2.448 . S
Gd121 O149 2.506 . S
Gd121 O150 2.435 . S
Gd121 O151 2.717 . S
C122 O140 1.240 . S
C122 O141 1.240 . S
C123 Gd120 2.818 . S
C123 C124 1.510 . S
C123 O142 1.249 . S
C123 O143 1.252 . S
C124 C123 1.510 . S
C124 C125 1.404 . S
C124 C126 1.352 . S
C125 C124 1.404 . S
C125 C129 1.389 . S
C125 H152 0.930 . S
C126 C124 1.352 . S
C126 C128 1.374 . S
C126 H153 0.931 . S
C127 C128 1.359 . S
C127 C129 1.364 . S
C128 C126 1.374 . S
C128 C127 1.359 . S
C128 H154 0.931 . S
C129 C125 1.389 . S
C129 C127 1.364 . S
C129 H155 0.931 . S
C130 O144 1.256 . S
C130 O145 1.257 . S
C131 O146 1.240 . S
C131 O147 1.240 . S
C132 Gd121 2.818 . S
C132 C133 1.510 . S
C132 O148 1.249 . S
C132 O149 1.252 . S
C133 C132 1.510 . S
C133 C134 1.404 . S
C133 C135 1.352 . S
C134 C133 1.404 . S
C134 C138 1.389 . S
C134 H156 0.930 . S
C135 C133 1.352 . S
C135 C137 1.374 . S
C135 H157 0.931 . S
C136 C137 1.359 . S
C136 C138 1.364 . S
C137 C135 1.374 . S
C137 C136 1.359 . S
C137 H158 0.931 . S
C138 C134 1.389 . S
C138 C136 1.364 . S
C138 H159 0.931 . S
C139 O150 1.256 . S
C139 O151 1.257 . S
O140 Gd120 2.377 . S
O140 C122 1.240 . S
O141 Gd121 2.395 . S
O141 C122 1.240 . S
O142 Gd120 2.448 . S
O142 C123 1.249 . S
O143 Gd120 2.506 . S
O143 C123 1.252 . S
O144 Gd120 2.435 . S
O144 C130 1.256 . S
O145 Gd120 2.717 . S
O145 Gd121 2.327 . S
O145 C130 1.257 . S
O146 Gd121 2.377 . S
O146 C131 1.240 . S
O147 Gd120 2.395 . S
O147 C131 1.240 . S
O148 Gd121 2.448 . S
O148 C132 1.249 . S
O149 Gd121 2.506 . S
O149 C132 1.252 . S
O150 Gd121 2.435 . S
O150 C139 1.256 . S
O151 Gd120 2.327 . S
O151 Gd121 2.717 . S
O151 C139 1.257 . S
H152 C125 0.930 . S
H153 C126 0.931 . S
H154 C128 0.931 . S
H155 C129 0.931 . S
H156 C134 0.930 . S
H157 C135 0.931 . S
H158 C137 0.931 . S
H159 C138 0.931 . S
Gd160 C163 2.818 . S
Gd160 O180 2.377 . S
Gd160 O182 2.448 . S
Gd160 O183 2.506 . S
Gd160 O184 2.435 . S
Gd160 O185 2.717 . S
Gd160 O187 2.395 . S
Gd160 O191 2.327 . S
Gd161 C172 2.818 . S
Gd161 O181 2.395 . S
Gd161 O185 2.327 . S
Gd161 O186 2.377 . S
Gd161 O188 2.448 . S
Gd161 O189 2.506 . S
Gd161 O190 2.435 . S
Gd161 O191 2.717 . S
C162 O180 1.240 . S
C162 O181 1.240 . S
C163 Gd160 2.818 . S
C163 C164 1.510 . S
C163 O182 1.249 . S
C163 O183 1.252 . S
C164 C163 1.510 . S
C164 C165 1.404 . S
C164 C166 1.352 . S
C165 C164 1.404 . S
C165 C169 1.389 . S
C165 H192 0.930 . S
C166 C164 1.352 . S
C166 C168 1.374 . S
C166 H193 0.931 . S
C167 C168 1.359 . S
C167 C169 1.364 . S
C168 C166 1.374 . S
C168 C167 1.359 . S
C168 H194 0.931 . S
C169 C165 1.389 . S
C169 C167 1.364 . S
C169 H195 0.931 . S
C170 O184 1.256 . S
C170 O185 1.257 . S
C171 O186 1.240 . S
C171 O187 1.240 . S
C172 Gd161 2.818 . S
C172 C173 1.510 . S
C172 O188 1.249 . S
C172 O189 1.252 . S
C173 C172 1.510 . S
C173 C174 1.404 . S
C173 C175 1.352 . S
C174 C173 1.404 . S
C174 C178 1.389 . S
C174 H196 0.930 . S
C175 C173 1.352 . S
C175 C177 1.374 . S
C175 H197 0.931 . S
C176 C177 1.359 . S
C176 C178 1.364 . S
C177 C175 1.374 . S
C177 C176 1.359 . S
C177 H198 0.931 . S
C178 C174 1.389 . S
C178 C176 1.364 . S
C178 H199 0.931 . S
C179 O190 1.256 . S
C179 O191 1.257 . S
O180 Gd160 2.377 . S
O180 C162 1.240 . S
O181 Gd161 2.395 . S
O181 C162 1.240 . S
O182 Gd160 2.448 . S
O182 C163 1.249 . S
O183 Gd160 2.506 . S
O183 C163 1.252 . S
O184 Gd160 2.435 . S
O184 C170 1.256 . S
O185 Gd160 2.717 . S
O185 Gd161 2.327 . S
O185 C170 1.257 . S
O186 Gd161 2.377 . S
O186 C171 1.240 . S
O187 Gd160 2.395 . S
O187 C171 1.240 . S
O188 Gd161 2.448 . S
O188 C172 1.249 . S
O189 Gd161 2.506 . S
O189 C172 1.252 . S
O190 Gd161 2.435 . S
O190 C179 1.256 . S
O191 Gd160 2.327 . S
O191 Gd161 2.717 . S
O191 C179 1.257 . S
H192 C165 0.930 . S
H193 C166 0.931 . S
H194 C168 0.931 . S
H195 C169 0.931 . S
H196 C174 0.930 . S
H197 C175 0.931 . S
H198 C177 0.931 . S
H199 C178 0.931 . S
Gd200 C203 2.818 . S
Gd200 O220 2.377 . S
Gd200 O222 2.448 . S
Gd200 O223 2.506 . S
Gd200 O224 2.435 . S
Gd200 O225 2.717 . S
Gd200 O227 2.395 . S
Gd200 O231 2.327 . S
Gd201 C212 2.818 . S
Gd201 O221 2.395 . S
Gd201 O225 2.327 . S
Gd201 O226 2.377 . S
Gd201 O228 2.448 . S
Gd201 O229 2.506 . S
Gd201 O230 2.435 . S
Gd201 O231 2.717 . S
C202 O220 1.240 . S
C202 O221 1.240 . S
C203 Gd200 2.818 . S
C203 C204 1.510 . S
C203 O222 1.249 . S
C203 O223 1.252 . S
C204 C203 1.510 . S
C204 C205 1.404 . S
C204 C206 1.352 . S
C205 C204 1.404 . S
C205 C209 1.389 . S
C205 H232 0.930 . S
C206 C204 1.352 . S
C206 C208 1.374 . S
C206 H233 0.931 . S
C207 C208 1.359 . S
C207 C209 1.364 . S
C208 C206 1.374 . S
C208 C207 1.359 . S
C208 H234 0.931 . S
C209 C205 1.389 . S
C209 C207 1.364 . S
C209 H235 0.931 . S
C210 O224 1.256 . S
C210 O225 1.257 . S
C211 O226 1.240 . S
C211 O227 1.240 . S
C212 Gd201 2.818 . S
C212 C213 1.510 . S
C212 O228 1.249 . S
C212 O229 1.252 . S
C213 C212 1.510 . S
C213 C214 1.404 . S
C213 C215 1.352 . S
C214 C213 1.404 . S
C214 C218 1.389 . S
C214 H236 0.930 . S
C215 C213 1.352 . S
C215 C217 1.374 . S
C215 H237 0.931 . S
C216 C217 1.359 . S
C216 C218 1.364 . S
C217 C215 1.374 . S
C217 C216 1.359 . S
C217 H238 0.931 . S
C218 C214 1.389 . S
C218 C216 1.364 . S
C218 H239 0.931 . S
C219 O230 1.256 . S
C219 O231 1.257 . S
O220 Gd200 2.377 . S
O220 C202 1.240 . S
O221 Gd201 2.395 . S
O221 C202 1.240 . S
O222 Gd200 2.448 . S
O222 C203 1.249 . S
O223 Gd200 2.506 . S
O223 C203 1.252 . S
O224 Gd200 2.435 . S
O224 C210 1.256 . S
O225 Gd200 2.717 . S
O225 Gd201 2.327 . S
O225 C210 1.257 . S
O226 Gd201 2.377 . S
O226 C211 1.240 . S
O227 Gd200 2.395 . S
O227 C211 1.240 . S
O228 Gd201 2.448 . S
O228 C212 1.249 . S
O229 Gd201 2.506 . S
O229 C212 1.252 . S
O230 Gd201 2.435 . S
O230 C219 1.256 . S
O231 Gd200 2.327 . S
O231 Gd201 2.717 . S
O231 C219 1.257 . S
H232 C205 0.930 . S
H233 C206 0.931 . S
H234 C208 0.931 . S
H235 C209 0.931 . S
H236 C214 0.930 . S
H237 C215 0.931 . S
H238 C217 0.931 . S
H239 C218 0.931 . S
Gd240 C243 2.818 . S
Gd240 O260 2.377 . S
Gd240 O262 2.448 . S
Gd240 O263 2.506 . S
Gd240 O264 2.435 . S
Gd240 O265 2.717 . S
Gd240 O267 2.395 . S
Gd240 O271 2.327 . S
Gd241 C252 2.818 . S
Gd241 O261 2.395 . S
Gd241 O265 2.327 . S
Gd241 O266 2.377 . S
Gd241 O268 2.448 . S
Gd241 O269 2.506 . S
Gd241 O270 2.435 . S
Gd241 O271 2.717 . S
C242 O260 1.240 . S
C242 O261 1.240 . S
C243 Gd240 2.818 . S
C243 C244 1.510 . S
C243 O262 1.249 . S
C243 O263 1.252 . S
C244 C243 1.510 . S
C244 C245 1.404 . S
C244 C246 1.352 . S
C245 C244 1.404 . S
C245 C249 1.389 . S
C245 H272 0.930 . S
C246 C244 1.352 . S
C246 C248 1.374 . S
C246 H273 0.931 . S
C247 C248 1.359 . S
C247 C249 1.364 . S
C248 C246 1.374 . S
C248 C247 1.359 . S
C248 H274 0.931 . S
C249 C245 1.389 . S
C249 C247 1.364 . S
C249 H275 0.931 . S
C250 O264 1.256 . S
C250 O265 1.257 . S
C251 O266 1.240 . S
C251 O267 1.240 . S
C252 Gd241 2.818 . S
C252 C253 1.510 . S
C252 O268 1.249 . S
C252 O269 1.252 . S
C253 C252 1.510 . S
C253 C254 1.404 . S
C253 C255 1.352 . S
C254 C253 1.404 . S
C254 C258 1.389 . S
C254 H276 0.930 . S
C255 C253 1.352 . S
C255 C257 1.374 . S
C255 H277 0.931 . S
C256 C257 1.359 . S
C256 C258 1.364 . S
C257 C255 1.374 . S
C257 C256 1.359 . S
C257 H278 0.931 . S
C258 C254 1.389 . S
C258 C256 1.364 . S
C258 H279 0.931 . S
C259 O270 1.256 . S
C259 O271 1.257 . S
O260 Gd240 2.377 . S
O260 C242 1.240 . S
O261 Gd241 2.395 . S
O261 C242 1.240 . S
O262 Gd240 2.448 . S
O262 C243 1.249 . S
O263 Gd240 2.506 . S
O263 C243 1.252 . S
O264 Gd240 2.435 . S
O264 C250 1.256 . S
O265 Gd240 2.717 . S
O265 Gd241 2.327 . S
O265 C250 1.257 . S
O266 Gd241 2.377 . S
O266 C251 1.240 . S
O267 Gd240 2.395 . S
O267 C251 1.240 . S
O268 Gd241 2.448 . S
O268 C252 1.249 . S
O269 Gd241 2.506 . S
O269 C252 1.252 . S
O270 Gd241 2.435 . S
O270 C259 1.256 . S
O271 Gd240 2.327 . S
O271 Gd241 2.717 . S
O271 C259 1.257 . S
H272 C245 0.930 . S
H273 C246 0.931 . S
H274 C248 0.931 . S
H275 C249 0.931 . S
H276 C254 0.930 . S
H277 C255 0.931 . S
H278 C257 0.931 . S
H279 C258 0.931 . S
Gd280 C283 2.818 . S
Gd280 O300 2.377 . S
Gd280 O302 2.448 . S
Gd280 O303 2.506 . S
Gd280 O304 2.435 . S
Gd280 O305 2.717 . S
Gd280 O307 2.395 . S
Gd280 O311 2.327 . S
Gd281 C292 2.818 . S
Gd281 O301 2.395 . S
Gd281 O305 2.327 . S
Gd281 O306 2.377 . S
Gd281 O308 2.448 . S
Gd281 O309 2.506 . S
Gd281 O310 2.435 . S
Gd281 O311 2.717 . S
C282 O300 1.240 . S
C282 O301 1.240 . S
C283 Gd280 2.818 . S
C283 C284 1.510 . S
C283 O302 1.249 . S
C283 O303 1.252 . S
C284 C283 1.510 . S
C284 C285 1.404 . S
C284 C286 1.352 . S
C285 C284 1.404 . S
C285 C289 1.389 . S
C285 H312 0.930 . S
C286 C284 1.352 . S
C286 C288 1.374 . S
C286 H313 0.931 . S
C287 C288 1.359 . S
C287 C289 1.364 . S
C288 C286 1.374 . S
C288 C287 1.359 . S
C288 H314 0.931 . S
C289 C285 1.389 . S
C289 C287 1.364 . S
C289 H315 0.931 . S
C290 O304 1.256 . S
C290 O305 1.257 . S
C291 O306 1.240 . S
C291 O307 1.240 . S
C292 Gd281 2.818 . S
C292 C293 1.510 . S
C292 O308 1.249 . S
C292 O309 1.252 . S
C293 C292 1.510 . S
C293 C294 1.404 . S
C293 C295 1.352 . S
C294 C293 1.404 . S
C294 C298 1.389 . S
C294 H316 0.930 . S
C295 C293 1.352 . S
C295 C297 1.374 . S
C295 H317 0.931 . S
C296 C297 1.359 . S
C296 C298 1.364 . S
C297 C295 1.374 . S
C297 C296 1.359 . S
C297 H318 0.931 . S
C298 C294 1.389 . S
C298 C296 1.364 . S
C298 H319 0.931 . S
C299 O310 1.256 . S
C299 O311 1.257 . S
O300 Gd280 2.377 . S
O300 C282 1.240 . S
O301 Gd281 2.395 . S
O301 C282 1.240 . S
O302 Gd280 2.448 . S
O302 C283 1.249 . S
O303 Gd280 2.506 . S
O303 C283 1.252 . S
O304 Gd280 2.435 . S
O304 C290 1.256 . S
O305 Gd280 2.717 . S
O305 Gd281 2.327 . S
O305 C290 1.257 . S
O306 Gd281 2.377 . S
O306 C291 1.240 . S
O307 Gd280 2.395 . S
O307 C291 1.240 . S
O308 Gd281 2.448 . S
O308 C292 1.249 . S
O309 Gd281 2.506 . S
O309 C292 1.252 . S
O310 Gd281 2.435 . S
O310 C299 1.256 . S
O311 Gd280 2.327 . S
O311 Gd281 2.717 . S
O311 C299 1.257 . S
H312 C285 0.930 . S
H313 C286 0.931 . S
H314 C288 0.931 . S
H315 C289 0.931 . S
H316 C294 0.930 . S
H317 C295 0.931 . S
H318 C297 0.931 . S
H319 C298 0.931 . S
Gd320 C323 2.818 . S
Gd320 O340 2.377 . S
Gd320 O342 2.448 . S
Gd320 O343 2.506 . S
Gd320 O344 2.435 . S
Gd320 O345 2.717 . S
Gd320 O347 2.395 . S
Gd320 O351 2.327 . S
Gd321 C332 2.818 . S
Gd321 O341 2.395 . S
Gd321 O345 2.327 . S
Gd321 O346 2.377 . S
Gd321 O348 2.448 . S
Gd321 O349 2.506 . S
Gd321 O350 2.435 . S
Gd321 O351 2.717 . S
C322 O340 1.240 . S
C322 O341 1.240 . S
C323 Gd320 2.818 . S
C323 C324 1.510 . S
C323 O342 1.249 . S
C323 O343 1.252 . S
C324 C323 1.510 . S
C324 C325 1.404 . S
C324 C326 1.352 . S
C325 C324 1.404 . S
C325 C329 1.389 . S
C325 H352 0.930 . S
C326 C324 1.352 . S
C326 C328 1.374 . S
C326 H353 0.931 . S
C327 C328 1.359 . S
C327 C329 1.364 . S
C328 C326 1.374 . S
C328 C327 1.359 . S
C328 H354 0.931 . S
C329 C325 1.389 . S
C329 C327 1.364 . S
C329 H355 0.931 . S
C330 O344 1.256 . S
C330 O345 1.257 . S
C331 O346 1.240 . S
C331 O347 1.240 . S
C332 Gd321 2.818 . S
C332 C333 1.510 . S
C332 O348 1.249 . S
C332 O349 1.252 . S
C333 C332 1.510 . S
C333 C334 1.404 . S
C333 C335 1.352 . S
C334 C333 1.404 . S
C334 C338 1.389 . S
C334 H356 0.930 . S
C335 C333 1.352 . S
C335 C337 1.374 . S
C335 H357 0.931 . S
C336 C337 1.359 . S
C336 C338 1.364 . S
C337 C335 1.374 . S
C337 C336 1.359 . S
C337 H358 0.931 . S
C338 C334 1.389 . S
C338 C336 1.364 . S
C338 H359 0.931 . S
C339 O350 1.256 . S
C339 O351 1.257 . S
O340 Gd320 2.377 . S
O340 C322 1.240 . S
O341 Gd321 2.395 . S
O341 C322 1.240 . S
O342 Gd320 2.448 . S
O342 C323 1.249 . S
O343 Gd320 2.506 . S
O343 C323 1.252 . S
O344 Gd320 2.435 . S
O344 C330 1.256 . S
O345 Gd320 2.717 . S
O345 Gd321 2.327 . S
O345 C330 1.257 . S
O346 Gd321 2.377 . S
O346 C331 1.240 . S
O347 Gd320 2.395 . S
O347 C331 1.240 . S
O348 Gd321 2.448 . S
O348 C332 1.249 . S
O349 Gd321 2.506 . S
O349 C332 1.252 . S
O350 Gd321 2.435 . S
O350 C339 1.256 . S
O351 Gd320 2.327 . S
O351 Gd321 2.717 . S
O351 C339 1.257 . S
H352 C325 0.930 . S
H353 C326 0.931 . S
H354 C328 0.931 . S
H355 C329 0.931 . S
H356 C334 0.930 . S
H357 C335 0.931 . S
H358 C337 0.931 . S
H359 C338 0.931 . S
C360 C361 1.391 . S
C360 C362 1.394 . S
C360 H376 0.931 1_556 S
C361 C360 1.391 . S
C361 C365 1.376 . S
C362 C360 1.394 . S
C362 C363 1.369 . S
C362 C366 1.531 . S
C363 C362 1.369 . S
C363 C364 1.410 . S
C363 C371 1.503 . S
C364 C363 1.410 . S
C364 C365 1.392 . S
C364 C367 1.511 . S
C365 C361 1.376 . S
C365 C364 1.392 . S
C365 H377 0.929 . S
C366 C362 1.531 . S
C366 H378 0.960 . S
C366 H379 0.962 1_556 S
C366 H380 0.960 1_556 S
C367 C364 1.511 . S
C367 H381 0.961 . S
C367 H382 0.961 . S
C367 H383 0.961 . S
C368 C369 1.370 . S
C368 C370 1.363 . S
C368 H384 0.931 . S
C369 C368 1.370 . S
C369 C373 1.408 . S
C370 C368 1.363 . S
C370 C371 1.370 . S
C370 C374 1.524 . S
C371 C363 1.503 . S
C371 C370 1.370 . S
C371 C372 1.403 . S
C372 C371 1.403 . S
C372 C373 1.404 . S
C372 C375 1.539 . S
C373 C369 1.408 . S
C373 C372 1.404 . S
C373 H385 0.930 . S
C374 C370 1.524 . S
C374 H386 0.956 . S
C374 H387 0.961 . S
C374 H388 0.961 . S
C375 C372 1.539 . S
C375 H389 0.958 . S
C375 H390 0.961 . S
C375 H391 0.960 . S
H376 C360 0.931 1_554 S
H377 C365 0.929 . S
H378 C366 0.960 . S
H379 C366 0.962 1_554 S
H380 C366 0.960 1_554 S
H381 C367 0.961 . S
H382 C367 0.961 . S
H383 C367 0.961 . S
H384 C368 0.931 . S
H385 C373 0.930 . S
H386 C374 0.956 . S
H387 C374 0.961 . S
H388 C374 0.961 . S
H389 C375 0.958 . S
H390 C375 0.961 . S
H391 C375 0.960 . S
C392 C393 1.391 . S
C392 C394 1.394 . S
C392 H408 0.931 . S
C393 C392 1.391 . S
C393 C397 1.376 . S
C394 C392 1.394 . S
C394 C395 1.369 . S
C394 C398 1.531 . S
C395 C394 1.369 . S
C395 C396 1.410 . S
C395 C403 1.503 . S
C396 C395 1.410 . S
C396 C397 1.392 . S
C396 C399 1.511 . S
C397 C393 1.376 . S
C397 C396 1.392 . S
C397 H409 0.929 1_556 S
C398 C394 1.531 . S
C398 H410 0.960 . S
C398 H411 0.962 . S
C398 H412 0.960 . S
C399 C396 1.511 . S
C399 H413 0.961 . S
C399 H414 0.961 . S
C399 H415 0.961 1_556 S
C400 C401 1.370 . S
C400 C402 1.363 . S
C400 H416 0.931 . S
C401 C400 1.370 . S
C401 C405 1.408 . S
C402 C400 1.363 . S
C402 C403 1.370 . S
C402 C406 1.524 . S
C403 C395 1.503 . S
C403 C402 1.370 . S
C403 C404 1.403 . S
C404 C403 1.403 . S
C404 C405 1.404 . S
C404 C407 1.539 . S
C405 C401 1.408 . S
C405 C404 1.404 . S
C405 H417 0.930 . S
C406 C402 1.524 . S
C406 H418 0.956 . S
C406 H419 0.961 . S
C406 H420 0.961 . S
C407 C404 1.539 . S
C407 H421 0.958 . S
C407 H422 0.961 . S
C407 H423 0.960 . S
H408 C392 0.931 . S
H409 C397 0.929 1_554 S
H410 C398 0.960 . S
H411 C398 0.962 . S
H412 C398 0.960 . S
H413 C399 0.961 . S
H414 C399 0.961 . S
H415 C399 0.961 1_554 S
H416 C400 0.931 . S
H417 C405 0.930 . S
H418 C406 0.956 . S
H419 C406 0.961 . S
H420 C406 0.961 . S
H421 C407 0.958 . S
H422 C407 0.961 . S
H423 C407 0.960 . S
C424 C425 1.391 . S
C424 C426 1.394 . S
C424 H440 0.931 . S
C425 C424 1.391 . S
C425 C429 1.376 . S
C426 C424 1.394 . S
C426 C427 1.369 . S
C426 C430 1.531 . S
C427 C426 1.369 . S
C427 C428 1.410 . S
C427 C435 1.503 . S
C428 C427 1.410 . S
C428 C429 1.392 . S
C428 C431 1.511 . S
C429 C425 1.376 . S
C429 C428 1.392 . S
C429 H441 0.929 . S
C430 C426 1.531 . S
C430 H442 0.960 . S
C430 H443 0.962 . S
C430 H444 0.960 . S
C431 C428 1.511 . S
C431 H445 0.961 . S
C431 H446 0.961 . S
C431 H447 0.961 . S
C432 C433 1.370 . S
C432 C434 1.363 . S
C432 H448 0.931 . S
C433 C432 1.370 . S
C433 C437 1.408 . S
C434 C432 1.363 . S
C434 C435 1.370 . S
C434 C438 1.524 . S
C435 C427 1.503 . S
C435 C434 1.370 . S
C435 C436 1.403 . S
C436 C435 1.403 . S
C436 C437 1.404 . S
C436 C439 1.539 . S
C437 C433 1.408 . S
C437 C436 1.404 . S
C437 H449 0.930 . S
C438 C434 1.524 . S
C438 H450 0.956 . S
C438 H451 0.961 . S
C438 H452 0.961 . S
C439 C436 1.539 . S
C439 H453 0.958 . S
C439 H454 0.961 . S
C439 H455 0.960 . S
H440 C424 0.931 . S
H441 C429 0.929 . S
H442 C430 0.960 . S
H443 C430 0.962 . S
H444 C430 0.960 . S
H445 C431 0.961 . S
H446 C431 0.961 . S
H447 C431 0.961 . S
H448 C432 0.931 . S
H449 C437 0.930 . S
H450 C438 0.956 . S
H451 C438 0.961 . S
H452 C438 0.961 . S
H453 C439 0.958 . S
H454 C439 0.961 . S
H455 C439 0.960 . S
C456 C457 1.391 . S
C456 C458 1.394 . S
C456 H472 0.931 . S
C457 C456 1.391 . S
C457 C461 1.376 . S
C458 C456 1.394 . S
C458 C459 1.369 . S
C458 C462 1.531 . S
C459 C458 1.369 . S
C459 C460 1.410 . S
C459 C467 1.503 . S
C460 C459 1.410 . S
C460 C461 1.392 . S
C460 C463 1.511 . S
C461 C457 1.376 . S
C461 C460 1.392 . S
C461 H473 0.929 . S
C462 C458 1.531 . S
C462 H474 0.960 . S
C462 H475 0.962 . S
C462 H476 0.960 . S
C463 C460 1.511 . S
C463 H477 0.961 . S
C463 H478 0.961 . S
C463 H479 0.961 . S
C464 C465 1.370 1_556 S
C464 C466 1.363 1_556 S
C464 H480 0.931 . S
C465 C464 1.370 1_554 S
C465 C469 1.408 . S
C466 C464 1.363 1_554 S
C466 C467 1.370 . S
C466 C470 1.524 1_554 S
C467 C459 1.503 . S
C467 C466 1.370 . S
C467 C468 1.403 . S
C468 C467 1.403 . S
C468 C469 1.404 . S
C468 C471 1.539 . S
C469 C465 1.408 . S
C469 C468 1.404 . S
C469 H481 0.930 . S
C470 C466 1.524 1_556 S
C470 H482 0.956 . S
C470 H483 0.961 1_556 S
C470 H484 0.961 . S
C471 C468 1.539 . S
C471 H485 0.958 . S
C471 H486 0.961 . S
C471 H487 0.960 . S
H472 C456 0.931 . S
H473 C461 0.929 . S
H474 C462 0.960 . S
H475 C462 0.962 . S
H476 C462 0.960 . S
H477 C463 0.961 . S
H478 C463 0.961 . S
H479 C463 0.961 . S
H480 C464 0.931 . S
H481 C469 0.930 . S
H482 C470 0.956 . S
H483 C470 0.961 1_554 S
H484 C470 0.961 . S
H485 C471 0.958 . S
H486 C471 0.961 . S
H487 C471 0.960 . S
C488 C489 1.391 . S
C488 C490 1.394 . S
C488 H504 0.931 . S
C489 C488 1.391 . S
C489 C493 1.376 . S
C490 C488 1.394 . S
C490 C491 1.369 . S
C490 C494 1.531 . S
C491 C490 1.369 . S
C491 C492 1.410 . S
C491 C499 1.503 . S
C492 C491 1.410 . S
C492 C493 1.392 . S
C492 C495 1.511 . S
C493 C489 1.376 . S
C493 C492 1.392 . S
C493 H505 0.929 . S
C494 C490 1.531 . S
C494 H506 0.960 1_554 S
C494 H507 0.962 . S
C494 H508 0.960 1_554 S
C495 C492 1.511 . S
C495 H509 0.961 . S
C495 H510 0.961 . S
C495 H511 0.961 . S
C496 C497 1.370 . S
C496 C498 1.363 . S
C496 H512 0.931 . S
C497 C496 1.370 . S
C497 C501 1.408 . S
C498 C496 1.363 . S
C498 C499 1.370 . S
C498 C502 1.524 . S
C499 C491 1.503 . S
C499 C498 1.370 . S
C499 C500 1.403 . S
C500 C499 1.403 . S
C500 C501 1.404 . S
C500 C503 1.539 . S
C501 C497 1.408 . S
C501 C500 1.404 . S
C501 H513 0.930 1_654 S
C502 C498 1.524 . S
C502 H514 0.956 . S
C502 H515 0.961 . S
C502 H516 0.961 . S
C503 C500 1.539 . S
C503 H517 0.958 1_554 S
C503 H518 0.961 1_655 S
C503 H519 0.960 . S
H504 C488 0.931 . S
H505 C493 0.929 . S
H506 C494 0.960 1_556 S
H507 C494 0.962 . S
H508 C494 0.960 1_556 S
H509 C495 0.961 . S
H510 C495 0.961 . S
H511 C495 0.961 . S
H512 C496 0.931 . S
H513 C501 0.930 1_456 S
H514 C502 0.956 . S
H515 C502 0.961 . S
H516 C502 0.961 . S
H517 C503 0.958 1_556 S
H518 C503 0.961 1_455 S
H519 C503 0.960 . S
C520 C521 1.391 . S
C520 C522 1.394 . S
C520 H536 0.931 . S
C521 C520 1.391 . S
C521 C525 1.376 . S
C522 C520 1.394 . S
C522 C523 1.369 . S
C522 C526 1.531 . S
C523 C522 1.369 . S
C523 C524 1.410 . S
C523 C531 1.503 . S
C524 C523 1.410 . S
C524 C525 1.392 . S
C524 C527 1.511 . S
C525 C521 1.376 . S
C525 C524 1.392 . S
C525 H537 0.929 . S
C526 C522 1.531 . S
C526 H538 0.960 . S
C526 H539 0.962 . S
C526 H540 0.960 . S
C527 C524 1.511 . S
C527 H541 0.961 . S
C527 H542 0.961 . S
C527 H543 0.961 . S
C528 C529 1.370 . S
C528 C530 1.363 . S
C528 H544 0.931 . S
C529 C528 1.370 . S
C529 C533 1.408 . S
C530 C528 1.363 . S
C530 C531 1.370 . S
C530 C534 1.524 . S
C531 C523 1.503 . S
C531 C530 1.370 . S
C531 C532 1.403 . S
C532 C531 1.403 . S
C532 C533 1.404 . S
C532 C535 1.539 1_554 S
C533 C529 1.408 . S
C533 C532 1.404 . S
C533 H545 0.930 . S
C534 C530 1.524 . S
C534 H546 0.956 . S
C534 H547 0.961 . S
C534 H548 0.961 . S
C535 C532 1.539 1_556 S
C535 H549 0.958 . S
C535 H550 0.961 . S
C535 H551 0.960 . S
H536 C520 0.931 . S
H537 C525 0.929 . S
H538 C526 0.960 . S
H539 C526 0.962 . S
H540 C526 0.960 . S
H541 C527 0.961 . S
H542 C527 0.961 . S
H543 C527 0.961 . S
H544 C528 0.931 . S
H545 C533 0.930 . S
H546 C534 0.956 . S
H547 C534 0.961 . S
H548 C534 0.961 . S
H549 C535 0.958 . S
H550 C535 0.961 . S
H551 C535 0.960 . S
C552 C553 1.391 . S
C552 C554 1.394 1_455 S
C552 H568 0.931 . S
C553 C552 1.391 . S
C553 C557 1.376 . S
C554 C552 1.394 1_655 S
C554 C555 1.369 . S
C554 C558 1.531 . S
C555 C554 1.369 . S
C555 C556 1.410 . S
C555 C563 1.503 . S
C556 C555 1.410 . S
C556 C557 1.392 1_655 S
C556 C559 1.511 . S
C557 C553 1.376 . S
C557 C556 1.392 1_455 S
C557 H569 0.929 . S
C558 C554 1.531 . S
C558 H570 0.960 . S
C558 H571 0.962 . S
C558 H572 0.960 . S
C559 C556 1.511 . S
C559 H573 0.961 . S
C559 H574 0.961 . S
C559 H575 0.961 . S
C560 C561 1.370 . S
C560 C562 1.363 . S
C560 H576 0.931 . S
C561 C560 1.370 . S
C561 C565 1.408 . S
C562 C560 1.363 . S
C562 C563 1.370 . S
C562 C566 1.524 . S
C563 C555 1.503 . S
C563 C562 1.370 . S
C563 C564 1.403 . S
C564 C563 1.403 . S
C564 C565 1.404 . S
C564 C567 1.539 . S
C565 C561 1.408 . S
C565 C564 1.404 . S
C565 H577 0.930 . S
C566 C562 1.524 . S
C566 H578 0.956 . S
C566 H579 0.961 . S
C566 H580 0.961 . S
C567 C564 1.539 . S
C567 H581 0.958 . S
C567 H582 0.961 . S
C567 H583 0.960 . S
H568 C552 0.931 . S
H569 C557 0.929 . S
H570 C558 0.960 . S
H571 C558 0.962 . S
H572 C558 0.960 . S
H573 C559 0.961 . S
H574 C559 0.961 . S
H575 C559 0.961 . S
H576 C560 0.931 . S
H577 C565 0.930 . S
H578 C566 0.956 . S
H579 C566 0.961 . S
H580 C566 0.961 . S
H581 C567 0.958 . S
H582 C567 0.961 . S
H583 C567 0.960 . S
C584 C585 1.391 . S
C584 C586 1.394 . S
C584 H600 0.931 . S
C585 C584 1.391 . S
C585 C589 1.376 . S
C586 C584 1.394 . S
C586 C587 1.369 . S
C586 C590 1.531 . S
C587 C586 1.369 . S
C587 C588 1.410 . S
C587 C595 1.503 . S
C588 C587 1.410 . S
C588 C589 1.392 . S
C588 C591 1.511 . S
C589 C585 1.376 . S
C589 C588 1.392 . S
C589 H601 0.929 . S
C590 C586 1.531 . S
C590 H602 0.960 . S
C590 H603 0.962 . S
C590 H604 0.960 . S
C591 C588 1.511 . S
C591 H605 0.961 . S
C591 H606 0.961 . S
C591 H607 0.961 . S
C592 C593 1.370 . S
C592 C594 1.363 . S
C592 H608 0.931 . S
C593 C592 1.370 . S
C593 C597 1.408 . S
C594 C592 1.363 . S
C594 C595 1.370 . S
C594 C598 1.524 . S
C595 C587 1.503 . S
C595 C594 1.370 . S
C595 C596 1.403 . S
C596 C595 1.403 . S
C596 C597 1.404 . S
C596 C599 1.539 . S
C597 C593 1.408 . S
C597 C596 1.404 . S
C597 H609 0.930 . S
C598 C594 1.524 . S
C598 H610 0.956 . S
C598 H611 0.961 . S
C598 H612 0.961 . S
C599 C596 1.539 . S
C599 H613 0.958 . S
C599 H614 0.961 . S
C599 H615 0.960 . S
H600 C584 0.931 . S
H601 C589 0.929 . S
H602 C590 0.960 . S
H603 C590 0.962 . S
H604 C590 0.960 . S
H605 C591 0.961 . S
H606 C591 0.961 . S
H607 C591 0.961 . S
H608 C592 0.931 . S
H609 C597 0.930 . S
H610 C598 0.956 . S
H611 C598 0.961 . S
H612 C598 0.961 . S
H613 C599 0.958 . S
H614 C599 0.961 . S
H615 C599 0.960 . S
C616 C617 1.391 . S
C616 C618 1.394 . S
C616 H632 0.931 . S
C617 C616 1.391 . S
C617 C621 1.376 . S
C618 C616 1.394 . S
C618 C619 1.369 . S
C618 C622 1.531 . S
C619 C618 1.369 . S
C619 C620 1.410 . S
C619 C627 1.503 . S
C620 C619 1.410 . S
C620 C621 1.392 . S
C620 C623 1.511 . S
C621 C617 1.376 . S
C621 C620 1.392 . S
C621 H633 0.929 . S
C622 C618 1.531 . S
C622 H634 0.960 . S
C622 H635 0.962 . S
C622 H636 0.960 . S
C623 C620 1.511 . S
C623 H637 0.961 . S
C623 H638 0.961 . S
C623 H639 0.961 . S
C624 C625 1.370 . S
C624 C626 1.363 . S
C624 H640 0.931 . S
C625 C624 1.370 . S
C625 C629 1.408 . S
C626 C624 1.363 . S
C626 C627 1.370 . S
C626 C630 1.524 . S
C627 C619 1.503 . S
C627 C626 1.370 . S
C627 C628 1.403 . S
C628 C627 1.403 . S
C628 C629 1.404 . S
C628 C631 1.539 . S
C629 C625 1.408 . S
C629 C628 1.404 . S
C629 H641 0.930 1_545 S
C630 C626 1.524 . S
C630 H642 0.956 . S
C630 H643 0.961 . S
C630 H644 0.961 . S
C631 C628 1.539 . S
C631 H645 0.958 . S
C631 H646 0.961 . S
C631 H647 0.960 . S
H632 C616 0.931 . S
H633 C621 0.929 . S
H634 C622 0.960 . S
H635 C622 0.962 . S
H636 C622 0.960 . S
H637 C623 0.961 . S
H638 C623 0.961 . S
H639 C623 0.961 . S
H640 C624 0.931 . S
H641 C629 0.930 1_565 S
H642 C630 0.956 . S
H643 C630 0.961 . S
H644 C630 0.961 . S
H645 C631 0.958 . S
H646 C631 0.961 . S
H647 C631 0.960 . S
C648 C649 1.394 . S
C648 C650 1.393 1_554 S
C648 H664 0.929 1_554 S
C649 C648 1.394 . S
C649 C653 1.376 . S
C650 C648 1.393 1_556 S
C650 C651 1.369 1_556 S
C650 C654 1.531 . S
C651 C650 1.369 1_554 S
C651 C652 1.410 . S
C651 C659 1.503 . S
C652 C651 1.410 . S
C652 C653 1.392 . S
C652 C655 1.511 . S
C653 C649 1.376 . S
C653 C652 1.392 . S
C653 H665 0.929 . S
C654 C650 1.531 . S
C654 H666 0.960 . S
C654 H667 0.962 . S
C654 H668 0.960 . S
C655 C652 1.511 . S
C655 H669 0.961 . S
C655 H670 0.961 . S
C655 H671 0.961 . S
C656 C657 1.370 . S
C656 C658 1.363 . S
C656 H672 0.931 . S
C657 C656 1.370 . S
C657 C661 1.408 1_554 S
C658 C656 1.363 . S
C658 C659 1.370 . S
C658 C662 1.524 . S
C659 C651 1.503 . S
C659 C658 1.370 . S
C659 C660 1.403 1_554 S
C660 C659 1.403 1_556 S
C660 C661 1.404 . S
C660 C663 1.539 . S
C661 C657 1.408 1_556 S
C661 C660 1.404 . S
C661 H673 0.930 . S
C662 C658 1.524 . S
C662 H674 0.956 . S
C662 H675 0.961 . S
C662 H676 0.961 . S
C663 C660 1.539 . S
C663 H677 0.958 . S
C663 H678 0.961 . S
C663 H679 0.960 . S
H664 C648 0.929 1_556 S
H665 C653 0.929 . S
H666 C654 0.960 . S
H667 C654 0.962 . S
H668 C654 0.960 . S
H669 C655 0.961 . S
H670 C655 0.961 . S
H671 C655 0.961 . S
H672 C656 0.931 . S
H673 C661 0.930 . S
H674 C662 0.956 . S
H675 C662 0.961 . S
H676 C662 0.961 . S
H677 C663 0.958 . S
H678 C663 0.961 . S
H679 C663 0.960 . S
C680 C681 1.391 . S
C680 C682 1.394 . S
C680 H696 0.931 . S
C681 C680 1.391 . S
C681 C685 1.376 1_554 S
C682 C680 1.394 . S
C682 C683 1.369 . S
C682 C686 1.531 . S
C683 C682 1.369 . S
C683 C684 1.410 1_554 S
C683 C691 1.503 . S
C684 C683 1.410 1_556 S
C684 C685 1.392 . S
C684 C687 1.511 . S
C685 C681 1.376 1_556 S
C685 C684 1.392 . S
C685 H697 0.929 . S
C686 C682 1.531 . S
C686 H698 0.960 . S
C686 H699 0.962 . S
C686 H700 0.960 . S
C687 C684 1.511 . S
C687 H701 0.961 . S
C687 H702 0.961 . S
C687 H703 0.961 . S
C688 C689 1.370 . S
C688 C690 1.363 1_545 S
C688 H704 0.931 . S
C689 C688 1.370 . S
C689 C693 1.408 . S
C690 C688 1.363 1_565 S
C690 C691 1.370 . S
C690 C694 1.524 1_554 S
C691 C683 1.503 . S
C691 C690 1.370 . S
C691 C692 1.403 . S
C692 C691 1.403 . S
C692 C693 1.404 1_565 S
C692 C695 1.539 . S
C693 C689 1.408 . S
C693 C692 1.404 1_545 S
C693 H705 0.930 . S
C694 C690 1.524 1_556 S
C694 H706 0.956 1_556 S
C694 H707 0.961 . S
C694 H708 0.961 . S
C695 C692 1.539 . S
C695 H709 0.958 . S
C695 H710 0.961 . S
C695 H711 0.960 . S
H696 C680 0.931 . S
H697 C685 0.929 . S
H698 C686 0.960 . S
H699 C686 0.962 . S
H700 C686 0.960 . S
H701 C687 0.961 . S
H702 C687 0.961 . S
H703 C687 0.961 . S
H704 C688 0.931 . S
H705 C693 0.930 . S
H706 C694 0.956 1_554 S
H707 C694 0.961 . S
H708 C694 0.961 . S
H709 C695 0.958 . S
H710 C695 0.961 . S
H711 C695 0.960 . S
C712 C713 1.391 . S
C712 C714 1.394 . S
C712 H728 0.931 . S
C713 C712 1.391 . S
C713 C717 1.376 . S
C714 C712 1.394 . S
C714 C715 1.369 . S
C714 C718 1.531 . S
C715 C714 1.369 . S
C715 C716 1.410 . S
C715 C723 1.503 . S
C716 C715 1.410 . S
C716 C717 1.392 . S
C716 C719 1.511 1_554 S
C717 C713 1.376 . S
C717 C716 1.392 . S
C717 H729 0.929 . S
C718 C714 1.531 . S
C718 H730 0.960 . S
C718 H731 0.962 . S
C718 H732 0.960 . S
C719 C716 1.511 1_556 S
C719 H733 0.960 1_556 S
C719 H734 0.961 1_556 S
C719 H735 0.961 . S
C720 C721 1.370 . S
C720 C722 1.363 . S
C720 H736 0.931 . S
C721 C720 1.370 . S
C721 C725 1.408 1_554 S
C722 C720 1.363 . S
C722 C723 1.370 . S
C722 C726 1.524 . S
C723 C715 1.503 . S
C723 C722 1.370 . S
C723 C724 1.403 1_554 S
C724 C723 1.403 1_556 S
C724 C725 1.404 . S
C724 C727 1.539 . S
C725 C721 1.408 1_556 S
C725 C724 1.404 . S
C725 H737 0.930 . S
C726 C722 1.524 . S
C726 H738 0.956 . S
C726 H739 0.961 . S
C726 H740 0.961 . S
C727 C724 1.539 . S
C727 H741 0.958 . S
C727 H742 0.961 . S
C727 H743 0.960 . S
H728 C712 0.931 . S
H729 C717 0.929 . S
H730 C718 0.960 . S
H731 C718 0.962 . S
H732 C718 0.960 . S
H733 C719 0.960 1_554 S
H734 C719 0.961 1_554 S
H735 C719 0.961 . S
H736 C720 0.931 . S
H737 C725 0.930 . S
H738 C726 0.956 . S
H739 C726 0.961 . S
H740 C726 0.961 . S
H741 C727 0.958 . S
H742 C727 0.961 . S
H743 C727 0.960 . S
C744 C745 1.391 . S
C744 C746 1.394 . S
C744 H760 0.931 . S
C745 C744 1.391 . S
C745 C749 1.376 . S
C746 C744 1.394 . S
C746 C747 1.369 . S
C746 C750 1.531 . S
C747 C746 1.369 . S
C747 C748 1.410 . S
C747 C755 1.503 . S
C748 C747 1.410 . S
C748 C749 1.392 . S
C748 C751 1.511 . S
C749 C745 1.376 . S
C749 C748 1.392 . S
C749 H761 0.929 . S
C750 C746 1.531 . S
C750 H762 0.960 . S
C750 H763 0.962 . S
C750 H764 0.960 . S
C751 C748 1.511 . S
C751 H765 0.961 . S
C751 H766 0.961 . S
C751 H767 0.961 . S
C752 C753 1.370 . S
C752 C754 1.363 . S
C752 H768 0.931 . S
C753 C752 1.370 . S
C753 C757 1.408 . S
C754 C752 1.363 . S
C754 C755 1.370 . S
C754 C758 1.524 . S
C755 C747 1.503 . S
C755 C754 1.370 . S
C755 C756 1.403 . S
C756 C755 1.403 . S
C756 C757 1.404 . S
C756 C759 1.539 . S
C757 C753 1.408 . S
C757 C756 1.404 . S
C757 H769 0.930 . S
C758 C754 1.524 . S
C758 H770 0.956 . S
C758 H771 0.961 . S
C758 H772 0.961 . S
C759 C756 1.539 . S
C759 H773 0.958 . S
C759 H774 0.961 . S
C759 H775 0.960 . S
H760 C744 0.931 . S
H761 C749 0.929 . S
H762 C750 0.960 . S
H763 C750 0.962 . S
H764 C750 0.960 . S
H765 C751 0.961 . S
H766 C751 0.961 . S
H767 C751 0.961 . S
H768 C752 0.931 . S
H769 C757 0.930 . S
H770 C758 0.956 . S
H771 C758 0.961 . S
H772 C758 0.961 . S
H773 C759 0.958 . S
H774 C759 0.961 . S
H775 C759 0.960 . S
C776 C777 1.391 . S
C776 C778 1.394 . S
C776 H792 0.931 . S
C777 C776 1.391 . S
C777 C781 1.376 . S
C778 C776 1.394 . S
C778 C779 1.369 . S
C778 C782 1.531 . S
C779 C778 1.369 . S
C779 C780 1.410 . S
C779 C787 1.503 . S
C780 C779 1.410 . S
C780 C781 1.392 . S
C780 C783 1.511 . S
C781 C777 1.376 . S
C781 C780 1.392 . S
C781 H793 0.929 . S
C782 C778 1.531 . S
C782 H794 0.960 . S
C782 H795 0.962 . S
C782 H796 0.960 . S
C783 C780 1.511 . S
C783 H797 0.961 . S
C783 H798 0.961 . S
C783 H799 0.961 . S
C784 C785 1.370 . S
C784 C786 1.363 . S
C784 H800 0.931 . S
C785 C784 1.370 . S
C785 C789 1.408 . S
C786 C784 1.363 . S
C786 C787 1.370 . S
C786 C790 1.524 . S
C787 C779 1.503 . S
C787 C786 1.370 . S
C787 C788 1.403 . S
C788 C787 1.403 . S
C788 C789 1.404 . S
C788 C791 1.539 . S
C789 C785 1.408 . S
C789 C788 1.404 . S
C789 H801 0.930 . S
C790 C786 1.524 . S
C790 H802 0.956 . S
C790 H803 0.961 . S
C790 H804 0.961 . S
C791 C788 1.539 . S
C791 H805 0.958 . S
C791 H806 0.961 . S
C791 H807 0.960 . S
H792 C776 0.931 . S
H793 C781 0.929 . S
H794 C782 0.960 . S
H795 C782 0.962 . S
H796 C782 0.960 . S
H797 C783 0.961 . S
H798 C783 0.961 . S
H799 C783 0.961 . S
H800 C784 0.931 . S
H801 C789 0.930 . S
H802 C790 0.956 . S
H803 C790 0.961 . S
H804 C790 0.961 . S
H805 C791 0.958 . S
H806 C791 0.961 . S
H807 C791 0.960 . S
C808 C809 1.391 . S
C808 C810 1.394 . S
C808 H824 0.931 . S
C809 C808 1.391 . S
C809 C813 1.376 . S
C810 C808 1.394 . S
C810 C811 1.369 . S
C810 C814 1.531 . S
C811 C810 1.369 . S
C811 C812 1.410 . S
C811 C819 1.503 . S
C812 C811 1.410 . S
C812 C813 1.392 . S
C812 C815 1.511 . S
C813 C809 1.376 . S
C813 C812 1.392 . S
C813 H825 0.929 . S
C814 C810 1.531 . S
C814 H826 0.960 . S
C814 H827 0.962 . S
C814 H828 0.960 . S
C815 C812 1.511 . S
C815 H829 0.961 . S
C815 H830 0.961 . S
C815 H831 0.961 . S
C816 C817 1.370 . S
C816 C818 1.363 . S
C816 H832 0.931 . S
C817 C816 1.370 . S
C817 C821 1.408 . S
C818 C816 1.363 . S
C818 C819 1.370 . S
C818 C822 1.524 . S
C819 C811 1.503 . S
C819 C818 1.370 . S
C819 C820 1.403 . S
C820 C819 1.403 . S
C820 C821 1.404 . S
C820 C823 1.539 . S
C821 C817 1.408 . S
C821 C820 1.404 . S
C821 H833 0.930 . S
C822 C818 1.524 . S
C822 H834 0.956 . S
C822 H835 0.961 . S
C822 H836 0.961 . S
C823 C820 1.539 . S
C823 H837 0.958 . S
C823 H838 0.961 . S
C823 H839 0.960 . S
H824 C808 0.931 . S
H825 C813 0.929 . S
H826 C814 0.960 . S
H827 C814 0.962 . S
H828 C814 0.960 . S
H829 C815 0.961 . S
H830 C815 0.961 . S
H831 C815 0.961 . S
H832 C816 0.931 . S
H833 C821 0.930 . S
H834 C822 0.956 . S
H835 C822 0.961 . S
H836 C822 0.961 . S
H837 C823 0.958 . S
H838 C823 0.961 . S
H839 C823 0.960 . S
C840 C841 1.391 . S
C840 C842 1.394 . S
C840 H856 0.931 . S
C841 C840 1.391 . S
C841 C845 1.376 . S
C842 C840 1.394 . S
C842 C843 1.369 . S
C842 C846 1.531 . S
C843 C842 1.369 . S
C843 C844 1.410 . S
C843 C851 1.503 . S
C844 C843 1.410 . S
C844 C845 1.392 . S
C844 C847 1.511 . S
C845 C841 1.376 . S
C845 C844 1.392 . S
C845 H857 0.929 . S
C846 C842 1.531 . S
C846 H858 0.960 . S
C846 H859 0.962 . S
C846 H860 0.960 . S
C847 C844 1.511 . S
C847 H861 0.961 . S
C847 H862 0.961 . S
C847 H863 0.961 . S
C848 C849 1.370 . S
C848 C850 1.363 . S
C848 H864 0.931 . S
C849 C848 1.370 . S
C849 C853 1.408 . S
C850 C848 1.363 . S
C850 C851 1.370 . S
C850 C854 1.524 . S
C851 C843 1.503 . S
C851 C850 1.370 . S
C851 C852 1.403 . S
C852 C851 1.403 . S
C852 C853 1.404 . S
C852 C855 1.539 . S
C853 C849 1.408 . S
C853 C852 1.404 . S
C853 H865 0.930 . S
C854 C850 1.524 . S
C854 H866 0.956 . S
C854 H867 0.961 . S
C854 H868 0.961 . S
C855 C852 1.539 . S
C855 H869 0.958 . S
C855 H870 0.961 . S
C855 H871 0.960 . S
H856 C840 0.931 . S
H857 C845 0.929 . S
H858 C846 0.960 . S
H859 C846 0.962 . S
H860 C846 0.960 . S
H861 C847 0.961 . S
H862 C847 0.961 . S
H863 C847 0.961 . S
H864 C848 0.931 . S
H865 C853 0.930 . S
H866 C854 0.956 . S
H867 C854 0.961 . S
H868 C854 0.961 . S
H869 C855 0.958 . S
H870 C855 0.961 . S
H871 C855 0.960 . S
C872 C873 1.391 . S
C872 C874 1.394 . S
C872 H888 0.931 . S
C873 C872 1.391 . S
C873 C877 1.376 . S
C874 C872 1.394 . S
C874 C875 1.369 . S
C874 C878 1.531 . S
C875 C874 1.369 . S
C875 C876 1.410 . S
C875 C883 1.503 . S
C876 C875 1.410 . S
C876 C877 1.392 . S
C876 C879 1.511 . S
C877 C873 1.376 . S
C877 C876 1.392 . S
C877 H889 0.929 . S
C878 C874 1.531 . S
C878 H890 0.960 . S
C878 H891 0.962 . S
C878 H892 0.960 . S
C879 C876 1.511 . S
C879 H893 0.961 . S
C879 H894 0.961 . S
C879 H895 0.961 . S
C880 C881 1.370 . S
C880 C882 1.363 . S
C880 H896 0.931 . S
C881 C880 1.370 . S
C881 C885 1.408 . S
C882 C880 1.363 . S
C882 C883 1.370 . S
C882 C886 1.524 . S
C883 C875 1.503 . S
C883 C882 1.370 . S
C883 C884 1.403 . S
C884 C883 1.403 . S
C884 C885 1.404 . S
C884 C887 1.539 . S
C885 C881 1.408 . S
C885 C884 1.404 . S
C885 H897 0.930 . S
C886 C882 1.524 . S
C886 H898 0.956 . S
C886 H899 0.961 . S
C886 H900 0.961 . S
C887 C884 1.539 . S
C887 H901 0.958 . S
C887 H902 0.961 . S
C887 H903 0.960 . S
H888 C872 0.931 . S
H889 C877 0.929 . S
H890 C878 0.960 . S
H891 C878 0.962 . S
H892 C878 0.960 . S
H893 C879 0.961 . S
H894 C879 0.961 . S
H895 C879 0.961 . S
H896 C880 0.931 . S
H897 C885 0.930 . S
H898 C886 0.956 . S
H899 C886 0.961 . S
H900 C886 0.961 . S
H901 C887 0.958 . S
H902 C887 0.961 . S
H903 C887 0.960 . S
C904 C905 1.391 . S
C904 C906 1.394 . S
C904 H920 0.931 . S
C905 C904 1.391 . S
C905 C909 1.376 . S
C906 C904 1.394 . S
C906 C907 1.369 . S
C906 C910 1.531 . S
C907 C906 1.369 . S
C907 C908 1.410 . S
C907 C915 1.503 . S
C908 C907 1.410 . S
C908 C909 1.392 . S
C908 C911 1.511 . S
C909 C905 1.376 . S
C909 C908 1.392 . S
C909 H921 0.929 . S
C910 C906 1.531 . S
C910 H922 0.960 . S
C910 H923 0.962 . S
C910 H924 0.960 . S
C911 C908 1.511 . S
C911 H925 0.961 . S
C911 H926 0.961 . S
C911 H927 0.961 . S
C912 C913 1.370 . S
C912 C914 1.363 . S
C912 H928 0.931 . S
C913 C912 1.370 . S
C913 C917 1.408 . S
C914 C912 1.363 . S
C914 C915 1.370 . S
C914 C918 1.524 . S
C915 C907 1.503 . S
C915 C914 1.370 . S
C915 C916 1.403 . S
C916 C915 1.403 . S
C916 C917 1.404 . S
C916 C919 1.539 . S
C917 C913 1.408 . S
C917 C916 1.404 . S
C917 H929 0.930 . S
C918 C914 1.524 . S
C918 H930 0.956 . S
C918 H931 0.961 . S
C918 H932 0.961 . S
C919 C916 1.539 . S
C919 H933 0.958 . S
C919 H934 0.961 . S
C919 H935 0.960 . S
H920 C904 0.931 . S
H921 C909 0.929 . S
H922 C910 0.960 . S
H923 C910 0.962 . S
H924 C910 0.960 . S
H925 C911 0.961 . S
H926 C911 0.961 . S
H927 C911 0.961 . S
H928 C912 0.931 . S
H929 C917 0.930 . S
H930 C918 0.956 . S
H931 C918 0.961 . S
H932 C918 0.961 . S
H933 C919 0.958 . S
H934 C919 0.961 . S
H935 C919 0.960 . S
C936 C937 1.391 . S
C936 C938 1.394 . S
C936 H952 0.931 . S
C937 C936 1.391 . S
C937 C941 1.354 1_455 S
C938 C936 1.394 . S
C938 C939 1.369 . S
C938 C942 1.531 . S
C939 C938 1.369 . S
C939 C940 1.410 1_455 S
C939 C947 1.503 . S
C940 C939 1.410 1_655 S
C940 C941 1.392 . S
C940 C943 1.511 . S
C941 C937 1.354 1_655 S
C941 C940 1.392 . S
C941 H953 0.952 . S
C942 C938 1.531 . S
C942 H954 0.960 . S
C942 H955 0.962 . S
C942 H956 0.960 . S
C943 C940 1.511 . S
C943 H957 0.961 . S
C943 H958 0.961 . S
C943 H959 0.961 . S
C944 C945 1.370 . S
C944 C946 1.363 . S
C944 H960 0.931 . S
C945 C944 1.370 . S
C945 C949 1.408 1_455 S
C946 C944 1.363 . S
C946 C947 1.370 . S
C946 C950 1.524 . S
C947 C939 1.503 . S
C947 C946 1.370 . S
C947 C948 1.403 1_455 S
C948 C947 1.403 1_655 S
C948 C949 1.404 . S
C948 C951 1.539 . S
C949 C945 1.408 1_655 S
C949 C948 1.404 . S
C949 H961 0.930 . S
C950 C946 1.524 . S
C950 H962 0.956 . S
C950 H963 0.961 . S
C950 H964 0.961 . S
C951 C948 1.539 . S
C951 H965 0.958 . S
C951 H966 0.961 . S
C951 H967 0.960 . S
H952 C936 0.931 . S
H953 C941 0.952 . S
H954 C942 0.960 . S
H955 C942 0.962 . S
H956 C942 0.960 . S
H957 C943 0.961 . S
H958 C943 0.961 . S
H959 C943 0.961 . S
H960 C944 0.931 . S
H961 C949 0.930 . S
H962 C950 0.956 . S
H963 C950 0.961 . S
H964 C950 0.961 . S
H965 C951 0.958 . S
H966 C951 0.961 . S
H967 C951 0.960 . S
C968 C969 1.391 . S
C968 C970 1.394 . S
C968 H984 0.931 . S
C969 C968 1.391 . S
C969 C973 1.376 . S
C970 C968 1.394 . S
C970 C971 1.369 . S
C970 C974 1.531 . S
C971 C970 1.369 . S
C971 C972 1.410 . S
C971 C979 1.503 . S
C972 C971 1.410 . S
C972 C973 1.392 . S
C972 C975 1.511 . S
C973 C969 1.376 . S
C973 C972 1.392 . S
C973 H985 0.929 . S
C974 C970 1.531 . S
C974 H986 0.960 . S
C974 H987 0.962 . S
C974 H988 0.960 . S
C975 C972 1.511 . S
C975 H989 0.961 . S
C975 H990 0.961 . S
C975 H991 0.961 . S
C976 C977 1.370 . S
C976 C978 1.363 . S
C976 H992 0.931 . S
C977 C976 1.370 . S
C977 C981 1.408 . S
C978 C976 1.363 . S
C978 C979 1.370 . S
C978 C982 1.524 . S
C979 C971 1.503 . S
C979 C978 1.370 . S
C979 C980 1.403 . S
C980 C979 1.403 . S
C980 C981 1.404 . S
C980 C983 1.539 . S
C981 C977 1.408 . S
C981 C980 1.404 . S
C981 H993 0.930 . S
C982 C978 1.524 . S
C982 H994 0.956 . S
C982 H995 0.961 . S
C982 H996 0.961 . S
C983 C980 1.539 . S
C983 H997 0.958 . S
C983 H998 0.961 . S
C983 H999 0.960 . S
H984 C968 0.931 . S
H985 C973 0.929 . S
H986 C974 0.960 . S
H987 C974 0.962 . S
H988 C974 0.960 . S
H989 C975 0.961 . S
H990 C975 0.961 . S
H991 C975 0.961 . S
H992 C976 0.931 . S
H993 C981 0.930 . S
H994 C982 0.956 . S
H995 C982 0.961 . S
H996 C982 0.961 . S
H997 C983 0.958 . S
H998 C983 0.961 . S
H999 C983 0.960 . S
C1000 C1001 1.391 . S
C1000 C1002 1.394 . S
C1000 H1016 0.931 . S
C1001 C1000 1.391 . S
C1001 C1005 1.376 1_545 S
C1002 C1000 1.394 . S
C1002 C1003 1.369 . S
C1002 C1006 1.531 . S
C1003 C1002 1.369 . S
C1003 C1004 1.410 1_545 S
C1003 C1011 1.503 . S
C1004 C1003 1.410 1_565 S
C1004 C1005 1.392 . S
C1004 C1007 1.511 . S
C1005 C1001 1.376 1_565 S
C1005 C1004 1.392 . S
C1005 H1017 0.929 . S
C1006 C1002 1.531 . S
C1006 H1018 0.960 . S
C1006 H1019 0.962 . S
C1006 H1020 0.960 . S
C1007 C1004 1.511 . S
C1007 H1021 0.961 . S
C1007 H1022 0.961 . S
C1007 H1023 0.961 . S
C1008 C1009 1.370 . S
C1008 C1010 1.363 . S
C1008 H1024 0.931 . S
C1009 C1008 1.370 . S
C1009 C1013 1.408 . S
C1010 C1008 1.363 . S
C1010 C1011 1.370 . S
C1010 C1014 1.524 . S
C1011 C1003 1.503 . S
C1011 C1010 1.370 . S
C1011 C1012 1.403 . S
C1012 C1011 1.403 . S
C1012 C1013 1.404 . S
C1012 C1015 1.539 . S
C1013 C1009 1.408 . S
C1013 C1012 1.404 . S
C1013 H1025 0.930 . S
C1014 C1010 1.524 . S
C1014 H1026 0.956 . S
C1014 H1027 0.961 1_545 S
C1014 H1028 0.961 . S
C1015 C1012 1.539 . S
C1015 H1029 0.958 . S
C1015 H1030 0.961 . S
C1015 H1031 0.960 . S
H1016 C1000 0.931 . S
H1017 C1005 0.929 . S
H1018 C1006 0.960 . S
H1019 C1006 0.962 . S
H1020 C1006 0.960 . S
H1021 C1007 0.961 . S
H1022 C1007 0.961 . S
H1023 C1007 0.961 . S
H1024 C1008 0.931 . S
H1025 C1013 0.930 . S
H1026 C1014 0.956 . S
H1027 C1014 0.961 1_565 S
H1028 C1014 0.961 . S
H1029 C1015 0.958 . S
H1030 C1015 0.961 . S
H1031 C1015 0.960 . S
C1032 C1033 1.391 . S
C1032 C1034 1.394 . S
C1032 H1048 0.931 . S
C1033 C1032 1.391 . S
C1033 C1037 1.376 . S
C1034 C1032 1.394 . S
C1034 C1035 1.369 . S
C1034 C1038 1.531 . S
C1035 C1034 1.369 . S
C1035 C1036 1.410 . S
C1035 C1043 1.503 . S
C1036 C1035 1.410 . S
C1036 C1037 1.392 . S
C1036 C1039 1.511 . S
C1037 C1033 1.376 . S
C1037 C1036 1.392 . S
C1037 H1049 0.929 . S
C1038 C1034 1.531 . S
C1038 H1050 0.960 . S
C1038 H1051 0.962 . S
C1038 H1052 0.960 . S
C1039 C1036 1.511 . S
C1039 H1053 0.961 . S
C1039 H1054 0.961 . S
C1039 H1055 0.961 . S
C1040 C1041 1.370 . S
C1040 C1042 1.363 1_554 S
C1040 H1056 0.931 . S
C1041 C1040 1.370 . S
C1041 C1045 1.408 . S
C1042 C1040 1.363 1_556 S
C1042 C1043 1.370 . S
C1042 C1046 1.524 . S
C1043 C1035 1.503 . S
C1043 C1042 1.370 . S
C1043 C1044 1.403 . S
C1044 C1043 1.403 . S
C1044 C1045 1.404 1_556 S
C1044 C1047 1.539 . S
C1045 C1041 1.408 . S
C1045 C1044 1.404 1_554 S
C1045 H1057 0.930 . S
C1046 C1042 1.524 . S
C1046 H1058 0.956 . S
C1046 H1059 0.961 . S
C1046 H1060 0.961 . S
C1047 C1044 1.539 . S
C1047 H1061 0.958 . S
C1047 H1062 0.961 . S
C1047 H1063 0.960 . S
H1048 C1032 0.931 . S
H1049 C1037 0.929 . S
H1050 C1038 0.960 . S
H1051 C1038 0.962 . S
H1052 C1038 0.960 . S
H1053 C1039 0.961 . S
H1054 C1039 0.961 . S
H1055 C1039 0.961 . S
H1056 C1040 0.931 . S
H1057 C1045 0.930 . S
H1058 C1046 0.956 . S
H1059 C1046 0.961 . S
H1060 C1046 0.961 . S
H1061 C1047 0.958 . S
H1062 C1047 0.961 . S
H1063 C1047 0.960 . S
C1064 C1065 1.391 . S
C1064 C1066 1.394 . S
C1064 H1080 0.931 . S
C1065 C1064 1.391 . S
C1065 C1069 1.376 . S
C1066 C1064 1.394 . S
C1066 C1067 1.369 . S
C1066 C1070 1.531 . S
C1067 C1066 1.369 . S
C1067 C1068 1.410 . S
C1067 C1075 1.503 . S
C1068 C1067 1.410 . S
C1068 C1069 1.392 . S
C1068 C1071 1.511 . S
C1069 C1065 1.376 . S
C1069 C1068 1.392 . S
C1069 H1081 0.929 . S
C1070 C1066 1.531 . S
C1070 H1082 0.960 . S
C1070 H1083 0.962 . S
C1070 H1084 0.960 . S
C1071 C1068 1.511 . S
C1071 H1085 0.961 . S
C1071 H1086 0.961 . S
C1071 H1087 0.961 . S
C1072 C1073 1.370 . S
C1072 C1074 1.363 1_554 S
C1072 H1088 0.931 . S
C1073 C1072 1.370 . S
C1073 C1077 1.408 . S
C1074 C1072 1.363 1_556 S
C1074 C1075 1.370 . S
C1074 C1078 1.524 . S
C1075 C1067 1.503 . S
C1075 C1074 1.370 . S
C1075 C1076 1.403 . S
C1076 C1075 1.403 . S
C1076 C1077 1.404 1_556 S
C1076 C1079 1.539 . S
C1077 C1073 1.408 . S
C1077 C1076 1.404 1_554 S
C1077 H1089 0.930 . S
C1078 C1074 1.524 . S
C1078 H1090 0.956 . S
C1078 H1091 0.961 . S
C1078 H1092 0.961 . S
C1079 C1076 1.539 . S
C1079 H1093 0.958 . S
C1079 H1094 0.961 . S
C1079 H1095 0.960 . S
H1080 C1064 0.931 . S
H1081 C1069 0.929 . S
H1082 C1070 0.960 . S
H1083 C1070 0.962 . S
H1084 C1070 0.960 . S
H1085 C1071 0.961 . S
H1086 C1071 0.961 . S
H1087 C1071 0.961 . S
H1088 C1072 0.931 . S
H1089 C1077 0.930 . S
H1090 C1078 0.956 . S
H1091 C1078 0.961 . S
H1092 C1078 0.961 . S
H1093 C1079 0.958 . S
H1094 C1079 0.961 . S
H1095 C1079 0.960 . S
C1096 C1097 1.391 . S
C1096 C1098 1.394 . S
C1096 H1112 0.931 . S
C1097 C1096 1.391 . S
C1097 C1101 1.376 . S
C1098 C1096 1.394 . S
C1098 C1099 1.369 . S
C1098 C1102 1.531 . S
C1099 C1098 1.369 . S
C1099 C1100 1.410 . S
C1099 C1107 1.503 . S
C1100 C1099 1.410 . S
C1100 C1101 1.392 . S
C1100 C1103 1.511 . S
C1101 C1097 1.376 . S
C1101 C1100 1.392 . S
C1101 H1113 0.929 . S
C1102 C1098 1.531 . S
C1102 H1114 0.960 . S
C1102 H1115 0.962 . S
C1102 H1116 0.960 . S
C1103 C1100 1.511 . S
C1103 H1117 0.961 . S
C1103 H1118 0.961 . S
C1103 H1119 0.961 . S
C1104 C1105 1.370 . S
C1104 C1106 1.363 1_554 S
C1104 H1120 0.931 . S
C1105 C1104 1.370 . S
C1105 C1109 1.408 . S
C1106 C1104 1.363 1_556 S
C1106 C1107 1.370 . S
C1106 C1110 1.524 . S
C1107 C1099 1.503 . S
C1107 C1106 1.370 . S
C1107 C1108 1.403 . S
C1108 C1107 1.403 . S
C1108 C1109 1.404 1_556 S
C1108 C1111 1.539 . S
C1109 C1105 1.408 . S
C1109 C1108 1.404 1_554 S
C1109 H1121 0.930 . S
C1110 C1106 1.524 . S
C1110 H1122 0.956 . S
C1110 H1123 0.961 . S
C1110 H1124 0.961 . S
C1111 C1108 1.539 . S
C1111 H1125 0.958 . S
C1111 H1126 0.961 . S
C1111 H1127 0.960 . S
H1112 C1096 0.931 . S
H1113 C1101 0.929 . S
H1114 C1102 0.960 . S
H1115 C1102 0.962 . S
H1116 C1102 0.960 . S
H1117 C1103 0.961 . S
H1118 C1103 0.961 . S
H1119 C1103 0.961 . S
H1120 C1104 0.931 . S
H1121 C1109 0.930 . S
H1122 C1110 0.956 . S
H1123 C1110 0.961 . S
H1124 C1110 0.961 . S
H1125 C1111 0.958 . S
H1126 C1111 0.961 . S
H1127 C1111 0.960 . S
C1128 C1129 1.391 . S
C1128 C1130 1.394 . S
C1128 H1144 0.931 . S
C1129 C1128 1.391 . S
C1129 C1133 1.376 . S
C1130 C1128 1.394 . S
C1130 C1131 1.369 . S
C1130 C1134 1.531 . S
C1131 C1130 1.369 . S
C1131 C1132 1.410 . S
C1131 C1139 1.503 . S
C1132 C1131 1.410 . S
C1132 C1133 1.392 . S
C1132 C1135 1.511 . S
C1133 C1129 1.376 . S
C1133 C1132 1.392 . S
C1133 H1145 0.929 . S
C1134 C1130 1.531 . S
C1134 H1146 0.960 . S
C1134 H1147 0.962 . S
C1134 H1148 0.960 . S
C1135 C1132 1.511 . S
C1135 H1149 0.961 . S
C1135 H1150 0.961 . S
C1135 H1151 0.961 . S
C1136 C1137 1.370 . S
C1136 C1138 1.363 1_556 S
C1136 H1152 0.931 . S
C1137 C1136 1.370 . S
C1137 C1141 1.408 . S
C1138 C1136 1.363 1_554 S
C1138 C1139 1.370 . S
C1138 C1142 1.524 . S
C1139 C1131 1.503 . S
C1139 C1138 1.370 . S
C1139 C1140 1.403 . S
C1140 C1139 1.403 . S
C1140 C1141 1.404 1_554 S
C1140 C1143 1.539 . S
C1141 C1137 1.408 . S
C1141 C1140 1.404 1_556 S
C1141 H1153 0.930 . S
C1142 C1138 1.524 . S
C1142 H1154 0.956 . S
C1142 H1155 0.961 . S
C1142 H1156 0.961 . S
C1143 C1140 1.539 . S
C1143 H1157 0.958 . S
C1143 H1158 0.961 . S
C1143 H1159 0.960 . S
H1144 C1128 0.931 . S
H1145 C1133 0.929 . S
H1146 C1134 0.960 . S
H1147 C1134 0.962 . S
H1148 C1134 0.960 . S
H1149 C1135 0.961 . S
H1150 C1135 0.961 . S
H1151 C1135 0.961 . S
H1152 C1136 0.931 . S
H1153 C1141 0.930 . S
H1154 C1142 0.956 . S
H1155 C1142 0.961 . S
H1156 C1142 0.961 . S
H1157 C1143 0.958 . S
H1158 C1143 0.961 . S
H1159 C1143 0.960 . S
C1160 C1161 1.391 . S
C1160 C1162 1.394 1_556 S
C1160 H1176 0.931 . S
C1161 C1160 1.391 . S
C1161 C1165 1.376 . S
C1162 C1160 1.394 1_554 S
C1162 C1163 1.369 . S
C1162 C1166 1.531 . S
C1163 C1162 1.369 . S
C1163 C1164 1.410 . S
C1163 C1171 1.503 . S
C1164 C1163 1.410 . S
C1164 C1165 1.392 1_554 S
C1164 C1167 1.511 . S
C1165 C1161 1.376 . S
C1165 C1164 1.392 1_556 S
C1165 H1177 0.929 . S
C1166 C1162 1.531 . S
C1166 H1178 0.960 . S
C1166 H1179 0.962 . S
C1166 H1180 0.960 . S
C1167 C1164 1.511 . S
C1167 H1181 0.961 . S
C1167 H1182 0.961 . S
C1167 H1183 0.961 . S
C1168 C1169 1.370 . S
C1168 C1170 1.363 . S
C1168 H1184 0.931 . S
C1169 C1168 1.370 . S
C1169 C1173 1.408 . S
C1170 C1168 1.363 . S
C1170 C1171 1.370 . S
C1170 C1174 1.524 . S
C1171 C1163 1.503 . S
C1171 C1170 1.370 . S
C1171 C1172 1.403 . S
C1172 C1171 1.403 . S
C1172 C1173 1.404 . S
C1172 C1175 1.539 . S
C1173 C1169 1.408 . S
C1173 C1172 1.404 . S
C1173 H1185 0.930 . S
C1174 C1170 1.524 . S
C1174 H1186 0.956 . S
C1174 H1187 0.961 . S
C1174 H1188 0.961 . S
C1175 C1172 1.539 . S
C1175 H1189 0.958 . S
C1175 H1190 0.961 . S
C1175 H1191 0.960 . S
H1176 C1160 0.931 . S
H1177 C1165 0.929 . S
H1178 C1166 0.960 . S
H1179 C1166 0.962 . S
H1180 C1166 0.960 . S
H1181 C1167 0.961 . S
H1182 C1167 0.961 . S
H1183 C1167 0.961 . S
H1184 C1168 0.931 . S
H1185 C1173 0.930 . S
H1186 C1174 0.956 . S
H1187 C1174 0.961 . S
H1188 C1174 0.961 . S
H1189 C1175 0.958 . S
H1190 C1175 0.961 . S
H1191 C1175 0.960 . S
C1192 C1193 1.391 . S
C1192 C1194 1.394 . S
C1192 H1208 0.931 . S
C1193 C1192 1.391 . S
C1193 C1197 1.376 . S
C1194 C1192 1.394 . S
C1194 C1195 1.369 . S
C1194 C1198 1.531 . S
C1195 C1194 1.369 . S
C1195 C1196 1.410 . S
C1195 C1203 1.503 . S
C1196 C1195 1.410 . S
C1196 C1197 1.392 . S
C1196 C1199 1.511 . S
C1197 C1193 1.376 . S
C1197 C1196 1.392 . S
C1197 H1209 0.929 . S
C1198 C1194 1.531 . S
C1198 H1210 0.960 . S
C1198 H1211 0.962 . S
C1198 H1212 0.960 . S
C1199 C1196 1.511 . S
C1199 H1213 0.961 . S
C1199 H1214 0.961 . S
C1199 H1215 0.961 . S
C1200 C1201 1.370 . S
C1200 C1202 1.363 1_556 S
C1200 H1216 0.931 . S
C1201 C1200 1.370 . S
C1201 C1205 1.408 . S
C1202 C1200 1.363 1_554 S
C1202 C1203 1.370 . S
C1202 C1206 1.524 . S
C1203 C1195 1.503 . S
C1203 C1202 1.370 . S
C1203 C1204 1.403 . S
C1204 C1203 1.403 . S
C1204 C1205 1.404 1_554 S
C1204 C1207 1.539 . S
C1205 C1201 1.408 . S
C1205 C1204 1.404 1_556 S
C1205 H1217 0.930 . S
C1206 C1202 1.524 . S
C1206 H1218 0.956 . S
C1206 H1219 0.961 . S
C1206 H1220 0.961 . S
C1207 C1204 1.539 . S
C1207 H1221 0.958 . S
C1207 H1222 0.961 . S
C1207 H1223 0.960 . S
H1208 C1192 0.931 . S
H1209 C1197 0.929 . S
H1210 C1198 0.960 . S
H1211 C1198 0.962 . S
H1212 C1198 0.960 . S
H1213 C1199 0.961 . S
H1214 C1199 0.961 . S
H1215 C1199 0.961 . S
H1216 C1200 0.931 . S
H1217 C1205 0.930 . S
H1218 C1206 0.956 . S
H1219 C1206 0.961 . S
H1220 C1206 0.961 . S
H1221 C1207 0.958 . S
H1222 C1207 0.961 . S
H1223 C1207 0.960 . S
C361 C7 1.883 . S
C369 C282 1.871 . S
C393 C47 1.914 . S
C401 C322 1.859 . S
C425 C87 1.914 . S
C433 C242 1.855 . S
C457 C167 1.916 . S
C465 C82 1.857 . S
C489 C207 1.897 . S
C497 C2 1.870 . S
C521 C42 1.886 . S
C529 C127 1.894 . S
C553 C287 1.912 . S
C561 C202 1.856 . S
C585 C327 1.880 . S
C593 C122 1.873 . S
C617 C162 1.885 . S
C625 C247 1.894 1_545 S
C649 C96 1.700 . S
C657 C11 1.714 1_554 S
C681 C51 1.715 1_554 S
C689 C16 1.712 . S
C713 C56 1.694 1_455 S
C721 C91 1.713 1_554 S
C745 C131 1.705 . S
C753 C216 1.704 . S
C777 C136 1.703 . S
C785 C171 1.715 . S
C809 C176 1.709 . S
C817 C211 1.715 . S
C841 C336 1.698 . S
C849 C251 1.713 . S
C873 C291 1.706 . S
C881 C256 1.703 . S
C905 C331 1.713 . S
C913 C296 1.711 . S
C937 C19 0.944 . S
C945 C10 1.001 . S
C969 C59 0.949 . S
C977 C50 1.002 . S
C1001 C99 1.015 . S
C1009 C90 0.972 . S
C1033 C130 0.946 . S
C1041 C139 1.001 . S
C1065 C170 0.950 . S
C1073 C179 0.998 . S
C1097 C210 0.956 . S
C1105 C219 1.000 . S
C1129 C259 1.023 . S
C1137 C250 0.971 . S
C1161 C290 0.976 . S
C1169 C299 0.993 . S
C1193 C339 1.012 . S
C1201 C330 0.973 . S
