# Generated by pormake.
# Topology uof, (4)-cn, num edge types: 1
# Building blocks:
#     Node 0, Type 0, BuildingBlock: KUFVIS_clean_sbu_0, # of connection points: 4
#     Node 1, Type 0, BuildingBlock: KUFVIS_clean_sbu_0, # of connection points: 4
#     Node 2, Type 0, BuildingBlock: KUFVIS_clean_sbu_0, # of connection points: 4
#     Node 3, Type 0, BuildingBlock: KUFVIS_clean_sbu_0, # of connection points: 4
#     Node 4, Type 0, BuildingBlock: KUFVIS_clean_sbu_0, # of connection points: 4
#     Node 5, Type 0, BuildingBlock: KUFVIS_clean_sbu_0, # of connection points: 4
#     Node 6, Type 0, BuildingBlock: KUFVIS_clean_sbu_0, # of connection points: 4
#     Node 7, Type 0, BuildingBlock: KUFVIS_clean_sbu_0, # of connection points: 4
#     Node 8, Type 0, BuildingBlock: KUFVIS_clean_sbu_0, # of connection points: 4
#     Node 9, Type 0, BuildingBlock: KUFVIS_clean_sbu_0, # of connection points: 4
#     Node 10, Type 0, BuildingBlock: KUFVIS_clean_sbu_0, # of connection points: 4
#     Node 11, Type 0, BuildingBlock: KUFVIS_clean_sbu_0, # of connection points: 4
#     Edge 12, Type (0, 0), BuildingBlock: EZIPEK_clean_linker_0, # of connection points: 2
#     Edge 13, Type (0, 0), BuildingBlock: EZIPEK_clean_linker_0, # of connection points: 2
#     Edge 14, Type (0, 0), BuildingBlock: EZIPEK_clean_linker_0, # of connection points: 2
#     Edge 15, Type (0, 0), BuildingBlock: EZIPEK_clean_linker_0, # of connection points: 2
#     Edge 16, Type (0, 0), BuildingBlock: EZIPEK_clean_linker_0, # of connection points: 2
#     Edge 17, Type (0, 0), BuildingBlock: EZIPEK_clean_linker_0, # of connection points: 2
#     Edge 18, Type (0, 0), BuildingBlock: EZIPEK_clean_linker_0, # of connection points: 2
#     Edge 19, Type (0, 0), BuildingBlock: EZIPEK_clean_linker_0, # of connection points: 2
#     Edge 20, Type (0, 0), BuildingBlock: EZIPEK_clean_linker_0, # of connection points: 2
#     Edge 21, Type (0, 0), BuildingBlock: EZIPEK_clean_linker_0, # of connection points: 2
#     Edge 22, Type (0, 0), BuildingBlock: EZIPEK_clean_linker_0, # of connection points: 2
#     Edge 23, Type (0, 0), BuildingBlock: EZIPEK_clean_linker_0, # of connection points: 2
#     Edge 24, Type (0, 0), BuildingBlock: EZIPEK_clean_linker_0, # of connection points: 2
#     Edge 25, Type (0, 0), BuildingBlock: EZIPEK_clean_linker_0, # of connection points: 2
#     Edge 26, Type (0, 0), BuildingBlock: EZIPEK_clean_linker_0, # of connection points: 2
#     Edge 27, Type (0, 0), BuildingBlock: EZIPEK_clean_linker_0, # of connection points: 2
#     Edge 28, Type (0, 0), BuildingBlock: EZIPEK_clean_linker_0, # of connection points: 2
#     Edge 29, Type (0, 0), BuildingBlock: EZIPEK_clean_linker_0, # of connection points: 2
#     Edge 30, Type (0, 0), BuildingBlock: EZIPEK_clean_linker_0, # of connection points: 2
#     Edge 31, Type (0, 0), BuildingBlock: EZIPEK_clean_linker_0, # of connection points: 2
#     Edge 32, Type (0, 0), BuildingBlock: EZIPEK_clean_linker_0, # of connection points: 2
#     Edge 33, Type (0, 0), BuildingBlock: EZIPEK_clean_linker_0, # of connection points: 2
#     Edge 34, Type (0, 0), BuildingBlock: EZIPEK_clean_linker_0, # of connection points: 2
#     Edge 35, Type (0, 0), BuildingBlock: EZIPEK_clean_linker_0, # of connection points: 2
# Relax obj value: 0.170
# Max RMSD: 0.138
# Mean RMSD: 0.138
data_MOF--net-uof--node1-KUFVIS_clean_sbu_0--edge1-EZIPEK_clean_linker_0
_symmetry_space_group_name_H-M    P1
_symmetry_Int_Tables_number       1
_symmetry_cell_setting            triclinic
loop_
_symmetry_equiv_pos_as_xyz
'x, y, z'
_cell_length_a     24.100905
_cell_length_b     24.101201
_cell_length_c     46.056157
_cell_angle_alpha  89.972045
_cell_angle_beta   90.026271
_cell_angle_gamma 120.21261
loop_
_atom_site_label
_atom_site_type_symbol
_atom_site_fract_x
_atom_site_fract_y
_atom_site_fract_z
_atom_type_partial_charge
Mn0 Mn 0.22799 0.29633 0.20726 0.0
Mn1 Mn 0.33962 0.25855 0.23167 0.0
C2 C 0.24272 0.2237 0.18134 0.0
C3 C 0.1205 0.27094 0.19485 0.0
C4 C 0.37407 0.39069 0.21171 0.0
O5 O 0.22773 0.30744 0.25209 0.0
O6 O 0.29352 0.26806 0.26385 0.0
C7 C 0.27598 0.13916 0.26518 0.0
N8 N 0.30499 0.16975 0.23999 0.0
C9 C 0.30252 0.07549 0.22167 0.0
C10 C 0.27084 0.04258 0.24708 0.0
C11 C 0.25783 0.07463 0.26898 0.0
C12 C 0.31937 0.13997 0.21908 0.0
H13 H 0.26754 0.16406 0.2825 0.0
C14 C 0.25453 0.28731 0.2704 0.0
O15 O 0.16818 0.32968 0.1956 0.0
O16 O 0.13294 0.22895 0.20582 0.0
N17 N 0.38867 0.2509 0.20051 0.0
C18 C 0.44652 0.3108 0.18452 0.0
C19 C 0.48561 0.30978 0.15378 0.0
C20 C 0.46724 0.23861 0.13781 0.0
C21 C 0.37475 0.14398 0.16927 0.0
C22 C 0.35597 0.17732 0.19653 0.0
H23 H 0.46397 0.35792 0.19339 0.0
O24 O 0.23185 0.26487 0.16828 0.0
O25 O 0.2609 0.23697 0.20829 0.0
O26 O 0.31921 0.37908 0.20229 0.0
O27 O 0.38172 0.34937 0.22504 0.0
C28 C 0.3498 0.07619 0.17406 0.0
C29 C 0.31721 0.04496 0.19958 0.0
H30 H 0.25674 0.9926 0.25012 0.0
H31 H 0.23433 0.04983 0.28881 0.0
H32 H 0.52343 0.35437 0.14484 0.0
H33 H 0.49458 0.23901 0.11878 0.0
H34 H 0.35688 0.04539 0.15941 0.0
H35 H 0.30261 0.99468 0.20202 0.0
Mn36 Mn 0.93714 0.23076 0.54232 0.0
Mn37 Mn 0.08692 0.34255 0.56687 0.0
C38 C 0.02495 0.24568 0.51645 0.0
C39 C 0.85418 0.12155 0.53124 0.0
C40 C 0.98938 0.37623 0.5461 0.0
O41 O 0.92525 0.23157 0.58704 0.0
O42 O 0.03072 0.29668 0.59888 0.0
C43 C 0.14128 0.2785 0.60083 0.0
N44 N 0.14083 0.30802 0.57563 0.0
C45 C 0.23381 0.30661 0.55823 0.0
C46 C 0.23379 0.27435 0.58362 0.0
C47 C 0.18756 0.26054 0.60507 0.0
C48 C 0.18612 0.32312 0.55515 0.0
H49 H 0.1071 0.26947 0.61785 0.0
C50 C 0.97218 0.2582 0.60539 0.0
O51 O 0.84364 0.16931 0.53096 0.0
O52 O 0.90971 0.13646 0.54186 0.0
N53 N 0.14461 0.3918 0.53601 0.0
C54 C 0.14331 0.44984 0.51989 0.0
C55 C 0.18604 0.4903 0.48988 0.0
C56 C 0.24022 0.47293 0.47479 0.0
C57 C 0.24063 0.38053 0.50598 0.0
C58 C 0.18643 0.3601 0.53258 0.0
H59 H 0.11292 0.4667 0.5283 0.0
O60 O 0.97245 0.23358 0.50338 0.0
O61 O 0.02968 0.26412 0.54335 0.0
O62 O 0.94593 0.32138 0.53667 0.0
O63 O 0.03819 0.38415 0.55973 0.0
C64 C 0.28313 0.35552 0.51118 0.0
C65 C 0.28028 0.32211 0.53662 0.0
H66 H 0.26961 0.2604 0.587 0.0
H67 H 0.18788 0.23659 0.6249 0.0
H68 H 0.17987 0.52822 0.48078 0.0
H69 H 0.26838 0.5011 0.45613 0.0
H70 H 0.32171 0.36285 0.4969 0.0
H71 H 0.3158 0.30752 0.53939 0.0
Mn72 Mn 0.71172 0.93845 0.87306 0.0
Mn73 Mn 0.74898 0.08667 0.89942 0.0
C74 C 0.78539 0.02813 0.84827 0.0
C75 C 0.73693 0.85674 0.8602 0.0
C76 C 0.61779 0.98994 0.87769 0.0
O77 O 0.69847 0.92397 0.91769 0.0
O78 O 0.73792 0.02864 0.93061 0.0
C79 C 0.86691 0.13971 0.93391 0.0
N80 N 0.83749 0.14043 0.90873 0.0
C81 C 0.93265 0.23448 0.89225 0.0
C82 C 0.96436 0.23334 0.91763 0.0
C83 C 0.93127 0.18598 0.93861 0.0
C84 C 0.8683 0.1868 0.88873 0.0
H85 H 0.84122 0.10461 0.95057 0.0
C86 C 0.71815 0.96995 0.9365 0.0
O87 O 0.67832 0.84569 0.86052 0.0
O88 O 0.77878 0.91085 0.87168 0.0
N89 N 0.75821 0.14611 0.86933 0.0
C90 C 0.69908 0.14555 0.85335 0.0
C91 C 0.70211 0.18974 0.8238 0.0
C92 C 0.77424 0.24468 0.80915 0.0
C93 C 0.86657 0.24363 0.84014 0.0
C94 C 0.83203 0.18814 0.86622 0.0
H95 H 0.65149 0.11461 0.8615 0.0
O96 O 0.74519 0.97641 0.83456 0.0
O97 O 0.77099 0.03108 0.87523 0.0
O98 O 0.62957 0.94722 0.86781 0.0
O99 O 0.6585 0.03809 0.89182 0.0
C100 C 0.93427 0.28594 0.84567 0.0
C101 C 0.9643 0.28198 0.87107 0.0
H102 H 0.01422 0.26912 0.92135 0.0
H103 H 0.95512 0.18542 0.95843 0.0
H104 H 0.65812 0.18396 0.81473 0.0
H105 H 0.77472 0.27374 0.7908 0.0
H106 H 0.96601 0.32529 0.83178 0.0
H107 H 0.01455 0.31745 0.87415 0.0
Mn108 Mn 0.7742 0.702 0.20574 0.0
Mn109 Mn 0.65267 0.72842 0.22742 0.0
C110 C 0.75353 0.77021 0.17897 0.0
C111 C 0.88597 0.73927 0.19411 0.0
C112 C 0.62905 0.60055 0.2061 0.0
O113 O 0.77382 0.69133 0.25056 0.0
O114 O 0.69562 0.71558 0.25984 0.0
C115 C 0.71071 0.84271 0.26463 0.0
N116 N 0.68442 0.81551 0.23851 0.0
C117 C 0.68937 0.91233 0.2222 0.0
C118 C 0.71862 0.94187 0.24854 0.0
C119 C 0.72893 0.90679 0.26992 0.0
C120 C 0.67267 0.84822 0.21806 0.0
H121 H 0.71694 0.81546 0.28154 0.0
C122 C 0.73861 0.70293 0.26789 0.0
O123 O 0.84226 0.67877 0.19391 0.0
O124 O 0.86681 0.77522 0.20587 0.0
N125 N 0.60652 0.7399 0.19625 0.0
C126 C 0.5499 0.68195 0.17869 0.0
C127 C 0.51189 0.68724 0.14843 0.0
C128 C 0.53056 0.76048 0.13471 0.0
C129 C 0.62047 0.85039 0.16818 0.0
C130 C 0.63855 0.81392 0.19436 0.0
H131 H 0.53305 0.6337 0.18606 0.0
O132 O 0.76871 0.73169 0.16647 0.0
O133 O 0.7344 0.75579 0.2057 0.0
O134 O 0.68689 0.61494 0.20033 0.0
O135 O 0.61493 0.63952 0.21728 0.0
C136 C 0.64574 0.91767 0.17448 0.0
C137 C 0.67683 0.94577 0.2007 0.0
H138 H 0.73269 0.99147 0.25275 0.0
H139 H 0.75039 0.92889 0.29049 0.0
H140 H 0.47485 0.64394 0.13822 0.0
H141 H 0.5041 0.76237 0.1158 0.0
H142 H 0.64007 0.95042 0.16051 0.0
H143 H 0.69167 0.99582 0.20428 0.0
Mn144 Mn 0.08005 0.77435 0.53874 0.0
Mn145 Mn 0.9302 0.65071 0.55857 0.0
C146 C 0.99235 0.75511 0.51188 0.0
C147 C 0.15907 0.88427 0.52756 0.0
C148 C 0.03638 0.62956 0.53865 0.0
O149 O 0.08688 0.77289 0.58379 0.0
O150 O 0.98414 0.69204 0.59191 0.0
C151 C 0.86971 0.7029 0.59626 0.0
N152 N 0.8734 0.68029 0.56961 0.0
C153 C 0.78082 0.68341 0.55303 0.0
C154 C 0.77735 0.70848 0.58005 0.0
C155 C 0.82182 0.71803 0.60178 0.0
C156 C 0.82989 0.66927 0.54875 0.0
H157 H 0.90234 0.70824 0.61346 0.0
C158 C 0.03916 0.73602 0.60057 0.0
O159 O 0.17339 0.83912 0.52882 0.0
O160 O 0.1026 0.86809 0.53741 0.0
N161 N 0.87475 0.6068 0.52618 0.0
C162 C 0.87894 0.5531 0.50789 0.0
C163 C 0.84087 0.5178 0.47622 0.0
C164 C 0.78446 0.53786 0.46104 0.0
C165 C 0.78085 0.62338 0.49737 0.0
C166 C 0.83254 0.63815 0.52441 0.0
H167 H 0.90988 0.53623 0.51566 0.0
O168 O 0.04604 0.76969 0.49921 0.0
O169 O 0.9864 0.73433 0.53831 0.0
O170 O 0.08012 0.68771 0.53387 0.0
O171 O 0.9821 0.61424 0.54875 0.0
C172 C 0.7378 0.64725 0.50379 0.0
C173 C 0.73679 0.67316 0.53089 0.0
H174 H 0.7403 0.72029 0.58439 0.0
H175 H 0.81886 0.73644 0.6228 0.0
H176 H 0.80997 0.52194 0.46472 0.0
H177 H 0.75361 0.51811 0.43876 0.0
H178 H 0.701 0.64355 0.48924 0.0
H179 H 0.70049 0.68639 0.53452 0.0
Mn180 Mn 0.31268 0.08529 0.87116 0.0
Mn181 Mn 0.28212 0.93532 0.89228 0.0
C182 C 0.24178 0.99748 0.8447 0.0
C183 C 0.2836 0.16523 0.85995 0.0
C184 C 0.41161 0.039 0.87212 0.0
O185 O 0.32253 0.09369 0.91617 0.0
O186 O 0.29455 0.9897 0.92537 0.0
C187 C 0.16704 0.87678 0.92877 0.0
N188 N 0.19469 0.87945 0.90257 0.0
C189 C 0.09843 0.78774 0.8854 0.0
C190 C 0.06845 0.78547 0.91186 0.0
C191 C 0.10302 0.82992 0.9337 0.0
C192 C 0.16258 0.8358 0.88168 0.0
H193 H 0.1939 0.90961 0.94601 0.0
C194 C 0.30877 0.04597 0.93343 0.0
O195 O 0.34295 0.17867 0.86073 0.0
O196 O 0.24273 0.10929 0.87021 0.0
N197 N 0.27113 0.87965 0.86012 0.0
C198 C 0.32962 0.8837 0.84236 0.0
C199 C 0.32766 0.84562 0.81087 0.0
C200 C 0.25138 0.78934 0.79525 0.0
C201 C 0.16101 0.78588 0.83074 0.0
C202 C 0.19736 0.83762 0.85784 0.0
H203 H 0.37735 0.9143 0.85046 0.0
O204 O 0.28166 0.05071 0.83184 0.0
O205 O 0.25661 0.99193 0.87122 0.0
O206 O 0.39826 0.08276 0.86585 0.0
O207 O 0.37165 0.98622 0.88337 0.0
C208 C 0.09361 0.74294 0.83678 0.0
C209 C 0.06531 0.74322 0.86333 0.0
H210 H 0.01882 0.74923 0.91575 0.0
H211 H 0.08054 0.82781 0.95433 0.0
H212 H 0.29282 0.81478 0.7992 0.0
H213 H 0.24083 0.7585 0.77301 0.0
H214 H 0.0609 0.70561 0.82228 0.0
H215 H 0.01526 0.70732 0.8666 0.0
Mn216 Mn 0.71212 0.77941 0.44344 0.0
Mn217 Mn 0.74672 0.66624 0.418 0.0
C218 C 0.78283 0.76045 0.46938 0.0
C219 C 0.74502 0.88944 0.45616 0.0
C220 C 0.61602 0.63382 0.43967 0.0
O221 O 0.69898 0.78044 0.39891 0.0
O222 O 0.73587 0.71312 0.38663 0.0
C223 C 0.86484 0.73174 0.38357 0.0
N224 N 0.83516 0.70103 0.40864 0.0
C225 C 0.93043 0.7033 0.42538 0.0
C226 C 0.96239 0.73677 0.40013 0.0
C227 C 0.92938 0.75075 0.37907 0.0
C228 C 0.86596 0.68591 0.42876 0.0
H229 H 0.83925 0.74092 0.36685 0.0
C230 C 0.71744 0.75281 0.38036 0.0
O231 O 0.68522 0.84387 0.45671 0.0
O232 O 0.78242 0.87323 0.44348 0.0
N233 N 0.75575 0.6158 0.44798 0.0
C234 C 0.69645 0.55648 0.46367 0.0
C235 C 0.69922 0.51454 0.49296 0.0
C236 C 0.77123 0.53179 0.50766 0.0
C237 C 0.86385 0.62657 0.47716 0.0
C238 C 0.82955 0.64797 0.45121 0.0
H239 H 0.64886 0.54005 0.45553 0.0
O240 O 0.74342 0.77385 0.48222 0.0
O241 O 0.76961 0.74387 0.44225 0.0
O242 O 0.62828 0.68916 0.44884 0.0
O243 O 0.65648 0.62513 0.4261 0.0
C244 C 0.93162 0.65256 0.47175 0.0
C245 C 0.96193 0.68742 0.44655 0.0
H246 H 0.01237 0.75149 0.39654 0.0
H247 H 0.95342 0.77562 0.35934 0.0
H248 H 0.65514 0.47586 0.50187 0.0
H249 H 0.77153 0.50273 0.52583 0.0
H250 H 0.96324 0.64483 0.48559 0.0
H251 H 0.01226 0.70274 0.44357 0.0
Mn252 Mn 0.93772 0.71373 0.77716 0.0
Mn253 Mn 0.08612 0.75186 0.75095 0.0
C254 C 0.02693 0.78783 0.80203 0.0
C255 C 0.85558 0.73836 0.78989 0.0
C256 C 0.98972 0.62038 0.77251 0.0
O257 O 0.92357 0.70009 0.73254 0.0
O258 O 0.02845 0.74098 0.7195 0.0
C259 C 0.13969 0.8702 0.71677 0.0
N260 N 0.14 0.84049 0.74193 0.0
C261 C 0.2339 0.93542 0.75873 0.0
C262 C 0.23317 0.96741 0.73337 0.0
C263 C 0.1861 0.93459 0.71225 0.0
C264 C 0.1861 0.87105 0.76208 0.0
H265 H 0.10482 0.84472 0.7 0.0
C266 C 0.96951 0.72038 0.71367 0.0
O267 O 0.84483 0.67985 0.78961 0.0
O268 O 0.90959 0.78036 0.77838 0.0
N269 N 0.14502 0.76077 0.7813 0.0
C270 C 0.1441 0.70147 0.79728 0.0
C271 C 0.1877 0.70415 0.827 0.0
C272 C 0.24244 0.7761 0.84185 0.0
C273 C 0.24212 0.8688 0.81086 0.0
C274 C 0.18706 0.83454 0.78458 0.0
H275 H 0.11346 0.654 0.78897 0.0
O276 O 0.97528 0.74725 0.81568 0.0
O277 O 0.0302 0.77357 0.77506 0.0
O278 O 0.94706 0.63202 0.78256 0.0
O279 O 0.03756 0.66118 0.75823 0.0
C280 C 0.28464 0.9365 0.80545 0.0
C281 C 0.28112 0.96679 0.78005 0.0
H282 H 0.26906 0.01729 0.72978 0.0
H283 H 0.18587 0.95868 0.69245 0.0
H284 H 0.18173 0.66005 0.83603 0.0
H285 H 0.27115 0.77634 0.8603 0.0
H286 H 0.3238 0.96806 0.81947 0.0
H287 H 0.31671 0.01705 0.77709 0.0
Mn288 Mn 0.22897 0.92966 0.10852 0.0
Mn289 Mn 0.34552 0.08076 0.08737 0.0
C290 C 0.24421 0.01571 0.1356 0.0
C291 C 0.11842 0.84828 0.11878 0.0
C292 C 0.3745 0.97901 0.10662 0.0
O293 O 0.23115 0.92191 0.06354 0.0
O294 O 0.30245 0.02747 0.05401 0.0
C295 C 0.28678 0.13967 0.05279 0.0
N296 N 0.31292 0.13623 0.07853 0.0
C297 C 0.3097 0.22743 0.09706 0.0
C298 C 0.28076 0.23041 0.07109 0.0
C299 C 0.26958 0.18658 0.04881 0.0
C300 C 0.32555 0.17921 0.09984 0.0
H301 H 0.27994 0.10743 0.03518 0.0
C302 C 0.26198 0.97029 0.04619 0.0
O303 O 0.16497 0.83591 0.11857 0.0
O304 O 0.13517 0.90477 0.10882 0.0
N305 N 0.39149 0.13523 0.11973 0.0
C306 C 0.44706 0.13152 0.13686 0.0
C307 C 0.48355 0.17001 0.16838 0.0
C308 C 0.46485 0.22281 0.18399 0.0
C309 C 0.37645 0.22772 0.15071 0.0
C310 C 0.35952 0.17673 0.12309 0.0
H311 H 0.46442 0.10158 0.12835 0.0
O312 O 0.23124 0.96226 0.14802 0.0
O313 O 0.26447 0.02248 0.10897 0.0
O314 O 0.3182 0.93479 0.11414 0.0
O315 O 0.38521 0.03056 0.09479 0.0
C316 C 0.35279 0.27134 0.14557 0.0
C317 C 0.32278 0.27161 0.1195 0.0
H318 H 0.26745 0.26675 0.06791 0.0
H319 H 0.24828 0.18927 0.02855 0.0
H320 H 0.51991 0.16217 0.17807 0.0
H321 H 0.49049 0.24865 0.20357 0.0
H322 H 0.35889 0.30854 0.16045 0.0
H323 H 0.309 0.30778 0.11688 0.0
Mn324 Mn 0.30799 0.23265 0.4461 0.0
Mn325 Mn 0.27795 0.35197 0.42456 0.0
C326 C 0.23787 0.25009 0.47262 0.0
C327 C 0.27863 0.12355 0.45776 0.0
C328 C 0.40754 0.3783 0.44444 0.0
O329 O 0.317 0.23316 0.40105 0.0
O330 O 0.28921 0.30904 0.39162 0.0
C331 C 0.16196 0.29444 0.38863 0.0
N332 N 0.19036 0.32011 0.41465 0.0
C333 C 0.09476 0.31569 0.43227 0.0
C334 C 0.06403 0.28737 0.40598 0.0
C335 C 0.09788 0.27707 0.384 0.0
C336 C 0.15894 0.33205 0.43566 0.0
H337 H 0.18825 0.28804 0.3713 0.0
C338 C 0.30303 0.26674 0.38369 0.0
O339 O 0.33804 0.16964 0.45671 0.0
O340 O 0.23776 0.13837 0.44749 0.0
N341 N 0.26813 0.39766 0.45655 0.0
C342 C 0.32723 0.45282 0.4739 0.0
C343 C 0.32632 0.48972 0.50532 0.0
C344 C 0.25056 0.46976 0.52136 0.0
C345 C 0.15901 0.38155 0.48651 0.0
C346 C 0.19445 0.36568 0.45926 0.0
H347 H 0.37472 0.46989 0.46555 0.0
O348 O 0.27784 0.23705 0.48543 0.0
O349 O 0.25224 0.26998 0.44599 0.0
O350 O 0.39389 0.32117 0.45105 0.0
O351 O 0.36767 0.39087 0.43308 0.0
C352 C 0.09144 0.35659 0.48087 0.0
C353 C 0.06234 0.32739 0.45449 0.0
H354 H 0.01435 0.27377 0.40233 0.0
H355 H 0.0748 0.25617 0.36352 0.0
H356 H 0.29187 0.48585 0.51717 0.0
H357 H 0.24076 0.49055 0.5436 0.0
H358 H 0.05921 0.3614 0.49553 0.0
H359 H 0.01223 0.31297 0.45149 0.0
Mn360 Mn 0.08378 0.31448 0.77997 0.0
Mn361 Mn 0.93395 0.28495 0.75896 0.0
C362 C 0.99583 0.2438 0.80634 0.0
C363 C 0.16344 0.285 0.79119 0.0
C364 C 0.03814 0.41396 0.77919 0.0
O365 O 0.09211 0.32406 0.73499 0.0
O366 O 0.98855 0.29775 0.72598 0.0
C367 C 0.876 0.17027 0.72216 0.0
N368 N 0.87808 0.19769 0.74834 0.0
C369 C 0.78597 0.10128 0.7651 0.0
C370 C 0.78418 0.07161 0.73862 0.0
C371 C 0.82927 0.1063 0.71703 0.0
C372 C 0.83406 0.16534 0.76905 0.0
H373 H 0.90916 0.19728 0.70505 0.0
C374 C 0.0445 0.31117 0.71782 0.0
O375 O 0.1771 0.3444 0.79035 0.0
O376 O 0.10737 0.24421 0.781 0.0
N377 N 0.87794 0.27352 0.791 0.0
C378 C 0.88193 0.33174 0.80897 0.0
C379 C 0.84357 0.32928 0.84045 0.0
C380 C 0.78704 0.25274 0.85579 0.0
C381 C 0.78376 0.16295 0.81997 0.0
C382 C 0.83574 0.19973 0.793 0.0
H383 H 0.91277 0.37961 0.80106 0.0
O384 O 0.04904 0.28352 0.81928 0.0
O385 O 0.99033 0.25897 0.7799 0.0
O386 O 0.08189 0.40038 0.78513 0.0
O387 O 0.98497 0.3742 0.76821 0.0
C388 C 0.74085 0.09565 0.81372 0.0
C389 C 0.74121 0.06782 0.78705 0.0
H390 H 0.74799 0.02204 0.73456 0.0
H391 H 0.82765 0.08403 0.6964 0.0
H392 H 0.81258 0.29425 0.85199 0.0
H393 H 0.756 0.24182 0.87799 0.0
H394 H 0.70348 0.06268 0.82814 0.0
H395 H 0.70535 0.01781 0.78362 0.0
Mn396 Mn 0.77385 0.07316 0.11175 0.0
Mn397 Mn 0.65508 0.92449 0.08805 0.0
C398 C 0.75421 0.98353 0.13738 0.0
C399 C 0.88263 0.15282 0.12431 0.0
C400 C 0.62862 0.02646 0.10939 0.0
O401 O 0.77523 0.08486 0.06688 0.0
O402 O 0.69969 0.98146 0.05615 0.0
C403 C 0.7137 0.86878 0.05133 0.0
N404 N 0.68713 0.86952 0.07736 0.0
C405 C 0.68926 0.77604 0.09334 0.0
C406 C 0.71844 0.77564 0.06702 0.0
C407 C 0.73043 0.82202 0.04588 0.0
C408 C 0.67371 0.82412 0.09759 0.0
H409 H 0.72102 0.90295 0.03456 0.0
C410 C 0.74219 0.03828 0.04894 0.0
O411 O 0.83661 0.16596 0.12337 0.0
O412 O 0.86797 0.09744 0.11359 0.0
N413 N 0.60735 0.8659 0.11889 0.0
C414 C 0.55089 0.86784 0.13586 0.0
C415 C 0.51148 0.82658 0.16628 0.0
C416 C 0.52997 0.76912 0.18147 0.0
C417 C 0.62087 0.76975 0.14733 0.0
C418 C 0.63897 0.82399 0.1211 0.0
H419 H 0.53462 0.89916 0.12795 0.0
O420 O 0.76745 0.03614 0.15069 0.0
O421 O 0.73589 0.97967 0.11057 0.0
O422 O 0.68548 0.06993 0.11651 0.0
O423 O 0.61631 0.97466 0.09735 0.0
C424 C 0.64613 0.72777 0.14118 0.0
C425 C 0.67626 0.72991 0.11484 0.0
H426 H 0.7315 0.73947 0.06274 0.0
H427 H 0.75199 0.8214 0.02536 0.0
H428 H 0.51433 0.79473 0.1776 0.0
H429 H 0.5073 0.73603 0.20298 0.0
H430 H 0.64068 0.68964 0.15533 0.0
H431 H 0.69055 0.69437 0.1113 0.0
C432 C 0.94072 0.19409 0.17311 0.0
C433 C 0.94379 0.19181 0.14213 0.0
C434 C 0.06274 0.25496 0.14601 0.0
C435 C 0.05963 0.24995 0.17701 0.0
N436 N 0.99425 0.20916 0.21979 0.0
N437 N 0.00907 0.21561 0.09939 0.0
C438 C 0.99811 0.21803 0.19039 0.0
C439 C 1.00529 0.22119 0.12875 0.0
N440 N 0.88282 0.17365 0.1863 0.0
N441 N 0.12069 0.29233 0.13279 0.0
H442 H 0.96869 0.1947 0.08598 0.0
H443 H 0.05165 0.22794 0.08854 0.0
H444 H 0.164 0.31583 0.14401 0.0
H445 H 0.1256 0.30405 0.11082 0.0
H446 H 0.87797 0.18082 0.20822 0.0
H447 H 0.83952 0.15357 0.17507 0.0
H448 H 0.95163 0.17897 0.23068 0.0
H449 H 0.0346 0.22912 0.23322 0.0
C450 C 0.83089 0.00953 0.51878 0.0
C451 C 0.81336 0.05715 0.51529 0.0
C452 C 0.7428 0.99015 0.47439 0.0
C453 C 0.77121 0.95048 0.4748 0.0
N454 N 0.85922 0.93945 0.49452 0.0
N455 N 0.74633 0.08883 0.4891 0.0
C456 C 0.82032 0.96533 0.49596 0.0
C457 C 0.76718 0.04619 0.49299 0.0
N458 N 0.85546 1.00414 0.54466 0.0
N459 N 0.69256 0.97477 0.45604 0.0
H460 H 0.7518 0.12256 0.50455 0.0
H461 H 0.72271 0.09026 0.47042 0.0
H462 H 0.67748 0.93864 0.44046 0.0
H463 H 0.66399 0.99578 0.4571 0.0
H464 H 0.8644 0.96688 0.54906 0.0
H465 H 0.85774 0.03097 0.56287 0.0
H466 H 0.89902 0.95464 0.50806 0.0
H467 H 0.85726 0.90861 0.47841 0.0
C468 C 0.78968 0.78751 0.85588 0.0
C469 C 0.75811 0.81718 0.84239 0.0
C470 C 0.7864 0.79115 0.79419 0.0
C471 C 0.81585 0.75936 0.80768 0.0
N472 N 0.83568 0.71824 0.85197 0.0
N473 N 0.71742 0.8375 0.7981 0.0
C474 C 0.81406 0.75451 0.83869 0.0
C475 C 0.75346 0.8156 0.81139 0.0
N476 N 0.79797 0.79226 0.88533 0.0
N477 N 0.79127 0.79954 0.76476 0.0
H478 H 0.69518 0.85856 0.80923 0.0
H479 H 0.7056 0.83085 0.77615 0.0
H480 H 0.81104 0.77902 0.75139 0.0
H481 H 0.77922 0.82968 0.7537 0.0
H482 H 0.82797 0.78003 0.89639 0.0
H483 H 0.77757 0.81216 0.89869 0.0
H484 H 0.82882 0.70627 0.87391 0.0
H485 H 0.85676 0.696 0.84086 0.0
C486 C 0.96455 0.81798 0.15575 0.0
C487 C 0.94815 0.76693 0.17606 0.0
C488 C 0.04206 0.76089 0.15666 0.0
C489 C 0.05399 0.80853 0.13497 0.0
N490 N 1.00323 0.85545 0.10724 0.0
N491 N 0.97088 0.68632 0.19366 0.0
C492 C 0.00794 0.82848 0.13252 0.0
C493 C 0.98667 0.7372 0.17565 0.0
N494 N 0.94125 0.85894 0.15847 0.0
N495 N 0.08319 0.73789 0.15958 0.0
H496 H 0.93631 0.67241 0.20992 0.0
H497 H 0.99039 0.65651 0.19187 0.0
H498 H 0.11558 0.74237 0.14361 0.0
H499 H 0.08454 0.71327 0.17791 0.0
H500 H 0.95717 0.89944 0.14533 0.0
H501 H 0.91291 0.8585 0.17545 0.0
H502 H 0.96702 0.86632 0.10354 0.0
H503 H 0.02927 0.85791 0.0887 0.0
C504 C 0.26138 0.06475 0.50642 0.0
C505 C 0.25643 0.06219 0.47542 0.0
C506 C 0.20126 0.94333 0.47899 0.0
C507 C 0.19809 0.94583 0.50996 0.0
N508 N 0.22054 0.0106 0.5528 0.0
N509 N 0.21534 0.99728 0.43251 0.0
C510 C 0.22697 0.00713 0.52349 0.0
C511 C 0.22459 1.00087 0.46188 0.0
N512 N 0.2996 0.12227 0.51981 0.0
N513 N 0.18262 0.88597 0.46566 0.0
H514 H 0.23448 0.03781 0.41921 0.0
H515 H 0.18535 0.95458 0.42162 0.0
H516 H 0.16378 0.84265 0.47681 0.0
H517 H 0.19037 0.88185 0.44372 0.0
H518 H 0.31098 0.12655 0.54181 0.0
H519 H 0.32415 0.16563 0.50867 0.0
H520 H 0.23281 0.05317 0.56364 0.0
H521 H 0.19889 0.97003 0.56609 0.0
C522 C 0.26609 0.20744 0.81158 0.0
C523 C 0.26131 0.20454 0.84258 0.0
C524 C 0.2057 0.26754 0.83955 0.0
C525 C 0.20272 0.26267 0.80855 0.0
N526 N 0.22544 0.22175 0.76538 0.0
N527 N 0.22039 0.22723 0.88577 0.0
C528 C 0.23175 0.23089 0.79474 0.0
C529 C 0.2294 0.23343 0.8564 0.0
N530 N 0.30399 0.18829 0.79795 0.0
N531 N 0.18639 0.30532 0.85317 0.0
H532 H 0.23985 0.20598 0.89889 0.0
H533 H 0.19034 0.23934 0.89687 0.0
H534 H 0.16703 0.32946 0.84223 0.0
H535 H 0.19399 0.31677 0.87515 0.0
H536 H 0.31536 0.19586 0.77596 0.0
H537 H 0.32829 0.16911 0.80889 0.0
H538 H 0.23769 0.19179 0.75428 0.0
H539 H 0.20396 0.24098 0.75226 0.0
C540 C 0.54341 0.50629 0.22987 0.0
C541 C 0.57204 0.53495 0.20322 0.0
C542 C 0.46504 0.47377 0.18002 0.0
C543 C 0.43599 0.45298 0.20786 0.0
N544 N 0.44844 0.46523 0.25962 0.0
N545 N 0.56022 0.5482 0.1524 0.0
C546 C 0.47586 0.47487 0.23285 0.0
C547 C 0.53278 0.51881 0.17801 0.0
N548 N 0.58163 0.51069 0.2526 0.0
N549 N 0.42874 0.44904 0.1556 0.0
H550 H 0.60988 0.57761 0.1503 0.0
H551 H 0.53391 0.5452 0.13392 0.0
H552 H 0.37905 0.4192 0.15636 0.0
H553 H 0.44824 0.45617 0.13483 0.0
H554 H 0.5636 0.48701 0.27228 0.0
H555 H 0.63135 0.53242 0.25015 0.0
H556 H 0.4748 0.48376 0.27867 0.0
H557 H 0.39895 0.44471 0.26191 0.0
C558 C 0.02324 0.53405 0.51115 0.0
C559 C 0.04613 0.57366 0.53622 0.0
C560 C 0.00785 0.47835 0.56642 0.0
C561 C 0.98964 0.43791 0.54166 0.0
N562 N 0.98766 0.42934 0.48943 0.0
N563 N 0.07965 0.58423 0.58568 0.0
C564 C 0.9992 0.46629 0.51359 0.0
C565 C 0.04546 0.54565 0.56309 0.0
N566 N 0.02266 0.56124 0.48526 0.0
N567 N 0.98907 0.45169 0.59331 0.0
H568 H 0.10831 0.63388 0.58302 0.0
H569 H 0.08474 0.56643 0.60553 0.0
H570 H 0.95904 0.40234 0.59583 0.0
H571 H 0.99727 0.47867 0.61216 0.0
H572 H 0.99975 0.53476 0.46675 0.0
H573 H 0.0436 0.61091 0.48298 0.0
H574 H 1.00094 0.44832 0.4686 0.0
H575 H 0.96692 0.37961 0.49046 0.0
C576 C 0.49369 0.02536 0.84395 0.0
C577 C 0.4767 0.04651 0.8695 0.0
C578 C 0.53294 0.00565 0.89866 0.0
C579 C 0.55596 0.98981 0.8735 0.0
N580 N 0.56345 0.99186 0.82126 0.0
N581 N 0.49931 0.07616 0.91939 0.0
C582 C 0.53754 1.00141 0.84574 0.0
C583 C 0.50348 0.04346 0.89619 0.0
N584 N 0.46625 0.02641 0.81822 0.0
N585 N 0.54006 0.98465 0.92512 0.0
H586 H 0.47961 0.10588 0.91717 0.0
H587 H 0.52166 0.07944 0.93922 0.0
H588 H 0.55924 0.9545 0.92697 0.0
H589 H 0.52073 0.99115 0.94419 0.0
H590 H 0.47005 1.00478 0.79934 0.0
H591 H 0.43762 0.0474 0.81639 0.0
H592 H 0.5581 0.00659 0.80071 0.0
H593 H 0.5925 0.97128 0.82183 0.0
C594 C 0.53506 0.54183 0.47128 0.0
C595 C 0.55343 0.57259 0.44367 0.0
C596 C 0.49924 0.46675 0.4204 0.0
C597 C 0.47276 0.43623 0.44704 0.0
N598 N 0.46332 0.44481 0.49849 0.0
N599 N 0.5371 0.56343 0.39208 0.0
C600 C 0.49054 0.47387 0.4728 0.0
C601 C 0.52962 0.53436 0.41833 0.0
N602 N 0.56164 0.57685 0.49585 0.0
N603 N 0.49415 0.43023 0.39689 0.0
H604 H 0.55715 0.61305 0.39058 0.0
H605 H 0.5173 0.53819 0.37289 0.0
H606 H 0.47413 0.38061 0.39886 0.0
H607 H 0.5161 0.4497 0.37703 0.0
H608 H 0.55631 0.55629 0.51629 0.0
H609 H 0.59118 0.62664 0.49541 0.0
H610 H 0.46779 0.46995 0.51756 0.0
H611 H 0.43429 0.39502 0.50013 0.0
C612 C 0.00711 0.53615 0.75189 0.0
C613 C 0.99015 0.55885 0.77686 0.0
C614 C 0.02436 0.4962 0.80692 0.0
C615 C 0.04635 0.47929 0.78163 0.0
N616 N 0.07772 0.50178 0.7319 0.0
N617 N 0.99014 0.5658 0.82911 0.0
C618 C 0.0445 0.50631 0.75482 0.0
C619 C 1.0006 0.54012 0.80478 0.0
N620 N 0.98735 0.5437 0.7252 0.0
N621 N 0.02439 0.46851 0.83274 0.0
H622 H 0.96961 0.59487 0.82834 0.0
H623 H 1.00413 0.56026 0.8498 0.0
H624 H 0.04519 0.43975 0.83483 0.0
H625 H 1.00207 0.47216 0.85141 0.0
H626 H 0.99452 0.52448 0.70625 0.0
H627 H 0.95759 0.56321 0.72294 0.0
H628 H 0.08194 0.52433 0.71203 0.0
H629 H 0.10671 0.48131 0.73434 0.0
C630 C 0.47146 0.98978 0.08448 0.0
C631 C 0.4343 0.97553 0.11007 0.0
C632 C 0.53386 0.01236 0.1385 0.0
C633 C 0.57057 0.03276 0.11247 0.0
N634 N 0.57458 0.05894 0.06217 0.0
N635 N 0.43133 0.97876 0.16223 0.0
C636 C 0.53903 0.02788 0.08602 0.0
C637 C 0.46584 0.98801 0.13745 0.0
N638 N 0.44129 0.96724 0.05853 0.0
N639 N 0.56381 0.01443 0.16393 0.0
H640 H 0.38145 0.95772 0.16198 0.0
H641 H 0.45229 0.99394 0.18262 0.0
H642 H 0.61365 0.03563 0.16525 0.0
H643 H 0.5393 0.99348 0.18312 0.0
H644 H 0.46572 0.9726 0.03912 0.0
H645 H 0.39167 0.93688 0.05759 0.0
H646 H 0.55431 0.0606 0.04243 0.0
H647 H 0.62427 0.08891 0.0637 0.0
C648 C 0.1966 0.08778 0.12805 0.0
C649 C 0.21281 0.05172 0.14686 0.0
C650 C 0.19385 0.10312 0.18807 0.0
C651 C 0.21234 0.15648 0.1696 0.0
N652 N 0.17225 0.17403 0.12438 0.0
N653 N 0.16848 0.99182 0.1913 0.0
C654 C 0.19518 0.14159 0.1399 0.0
C655 C 0.19297 0.04807 0.1762 0.0
N656 N 0.17736 0.06704 0.10032 0.0
N657 N 0.17202 0.10346 0.21536 0.0
H658 H 0.15539 0.94823 0.18129 0.0
H659 H 0.15485 0.98653 0.21298 0.0
H660 H 0.16519 0.14058 0.2226 0.0
H661 H 0.15715 0.06612 0.23018 0.0
H662 H 0.1705 0.02317 0.0929 0.0
H663 H 0.16464 0.09067 0.08518 0.0
H664 H 0.16081 0.16697 0.10243 0.0
H665 H 0.1578 0.20343 0.13427 0.0
C666 C 0.06189 0.20011 0.4752 0.0
C667 C 0.06265 0.21631 0.50494 0.0
C668 C 0.15189 0.19786 0.51244 0.0
C669 C 0.16959 0.21832 0.48324 0.0
N670 N 0.12076 0.18366 0.43622 0.0
N671 N 0.07337 0.17527 0.55082 0.0
C672 C 0.11797 0.20223 0.46392 0.0
C673 C 0.09688 0.19786 0.52375 0.0
N674 N 0.00721 0.17766 0.45906 0.0
N675 N 0.18296 0.17333 0.52788 0.0
H676 H 0.02889 0.16784 0.55764 0.0
H677 H 0.0953 0.1604 0.56589 0.0
H678 H 0.21374 0.1606 0.51808 0.0
H679 H 0.17361 0.15909 0.54947 0.0
H680 H 1.00412 0.16709 0.43705 0.0
H681 H 0.96257 0.163 0.46832 0.0
H682 H 0.15804 0.17689 0.4292 0.0
H683 H 0.08506 0.17117 0.42072 0.0
C684 C 0.96122 0.1561 0.84541 0.0
C685 C 0.95937 0.17508 0.81634 0.0
C686 C 0.86893 0.06828 0.80741 0.0
C687 C 0.85288 0.06689 0.83714 0.0
N688 N 0.90404 0.07557 0.88305 0.0
N689 N 0.94197 0.12517 0.76886 0.0
C690 C 0.90555 0.10038 0.85623 0.0
C691 C 0.92304 0.12423 0.79675 0.0
N692 N 0.01654 0.18681 0.8612 0.0
N693 N 0.83736 0.01566 0.78999 0.0
H694 H 0.98491 0.16177 0.76023 0.0
H695 H 0.98491 0.16177 0.76023 0.0
H696 H 0.80499 0.9702 0.79786 0.0
H697 H 0.84916 0.01639 0.76813 0.0
H698 H 0.02082 0.17652 0.88271 0.0
H699 H 0.06043 0.21861 0.85179 0.0
H700 H 0.94078 0.09674 0.89824 0.0
H701 H 0.86663 0.03074 0.88946 0.0
C702 C 0.80242 0.94599 0.1772 0.0
C703 C 0.78459 0.94591 0.14783 0.0
C704 C 0.80112 0.85587 0.13858 0.0
C705 C 0.78364 0.83824 0.16818 0.0
N706 N 0.82034 0.88655 0.2153 0.0
N707 N 0.82224 0.93568 0.10097 0.0
C708 C 0.80089 0.88976 0.18782 0.0
C709 C 0.80144 0.91172 0.12819 0.0
N710 N 0.82573 1.00034 0.19362 0.0
N711 N 0.82105 0.82297 0.12142 0.0
H712 H 0.83555 0.9139 0.08516 0.0
H713 H 0.83036 0.98074 0.09474 0.0
H714 H 0.83083 0.78836 0.12917 0.0
H715 H 0.83339 0.83305 0.09968 0.0
H716 H 0.83759 1.00328 0.21547 0.0
H717 H 0.83996 0.04502 0.18456 0.0
H718 H 0.83295 0.92175 0.23104 0.0
H719 H 0.8274 0.84933 0.22205 0.0
C720 C 0.86471 0.80165 0.51143 0.0
C721 C 0.84969 0.78835 0.48132 0.0
C722 C 0.95835 0.80906 0.4732 0.0
C723 C 0.95598 0.78726 0.50203 0.0
N724 N 0.94187 0.8186 0.54974 0.0
N725 N 0.90196 0.83281 0.43566 0.0
C726 C 0.92007 0.80123 0.52196 0.0
C727 C 0.90292 0.80893 0.46242 0.0
N728 N 0.82986 0.81826 0.52914 0.0
N729 N 0.01397 0.83459 0.45762 0.0
H730 H 0.86492 0.84039 0.42912 0.0
H731 H 0.9388 0.84865 0.42053 0.0
H732 H 0.0577 0.84687 0.46718 0.0
H733 H 0.01873 0.84977 0.43619 0.0
H734 H 0.83829 0.82763 0.55119 0.0
H735 H 0.79485 0.8279 0.52189 0.0
H736 H 0.9867 0.82657 0.55627 0.0
H737 H 0.91868 0.82943 0.56584 0.0
C738 C 0.12216 0.92541 0.85405 0.0
C739 C 0.17323 0.96087 0.83443 0.0
C740 C 0.09915 0.90797 0.79436 0.0
C741 C 0.06536 0.85529 0.81333 0.0
N742 N 0.01139 0.8391 0.85952 0.0
N743 N 0.18567 0.01888 0.78974 0.0
C744 C 0.06563 0.87115 0.84307 0.0
C745 C 0.15472 0.96331 0.80535 0.0
N746 N 0.12586 0.94711 0.88176 0.0
N747 N 0.07475 0.90675 0.76747 0.0
H748 H 0.21726 0.06263 0.79931 0.0
H749 H 0.17565 0.02351 0.76823 0.0
H750 H 0.02995 0.86945 0.76094 0.0
H751 H 0.09625 0.94357 0.75233 0.0
H752 H 0.16345 0.99141 0.88859 0.0
H753 H 0.09065 0.92392 0.89747 0.0
H754 H 0.00894 0.84678 0.88156 0.0
H755 H 0.96649 0.80922 0.85043 0.0
C756 C 0.23344 0.21242 0.34149 0.0
C757 C 0.29561 0.25745 0.35202 0.0
C758 C 0.30285 0.33427 0.31567 0.0
C759 C 0.24676 0.28713 0.30198 0.0
N760 N 0.15724 0.17956 0.30147 0.0
N761 N 0.39637 0.35255 0.3428 0.0
C762 C 0.21089 0.22575 0.31517 0.0
C763 C 0.33292 0.31507 0.33645 0.0
N764 N 0.19524 0.15866 0.35738 0.0
N765 N 0.32879 0.3967 0.3075 0.0
H766 H 0.4185 0.33645 0.35729 0.0
H767 H 0.42691 0.39444 0.33141 0.0
H768 H 0.30599 0.41027 0.29209 0.0
H769 H 0.36851 0.43412 0.31785 0.0
H770 H 0.1469 0.12762 0.35276 0.0
H771 H 0.21213 0.14685 0.37589 0.0
H772 H 0.13264 0.1316 0.30789 0.0
H773 H 0.13943 0.18986 0.2828 0.0
C774 C 0.97372 0.30765 0.6502 0.0
C775 C 0.96438 0.25112 0.63696 0.0
C776 C 0.02801 0.24034 0.67614 0.0
C777 C 0.04531 0.30278 0.68618 0.0
N778 N 0.04947 0.40247 0.67663 0.0
N779 N 0.98189 0.16169 0.63714 0.0
C780 C 0.02389 0.33896 0.67057 0.0
C781 C 0.99037 0.21609 0.65033 0.0
N782 N 0.93676 0.33279 0.6419 0.0
N783 N 0.04496 0.20342 0.69205 0.0
H784 H 0.95261 0.14283 0.61884 0.0
H785 H 1.00546 0.13745 0.64355 0.0
H786 H 0.07503 0.22154 0.71012 0.0
H787 H 0.02761 0.15494 0.68792 0.0
H788 H 0.9392 0.37276 0.65191 0.0
H789 H 0.89994 0.3092 0.62669 0.0
H790 H 0.03738 0.43226 0.66519 0.0
H791 H 0.08789 0.42545 0.69104 0.0
C792 C 0.79516 0.02284 0.00672 0.0
C793 C 0.75207 0.04212 0.01734 0.0
C794 C 0.67282 0.97256 0.98178 0.0
C795 C 0.71801 0.96102 0.96798 0.0
N796 N 0.82365 0.97482 0.96715 0.0
N797 N 0.65958 0.05179 0.00819 0.0
C798 C 0.77948 0.98512 0.98084 0.0
C799 C 0.69467 0.02337 0.00196 0.0
N800 N 0.84916 0.03795 0.02226 0.0
N801 N 0.60998 0.93764 0.97393 0.0
H802 H 0.6774 0.09062 0.02248 0.0
H803 H 0.61789 0.04149 -0.00305 0.0
H804 H 0.59462 0.90032 0.95886 0.0
H805 H 0.57392 0.94214 0.98423 0.0
H806 H 0.87893 0.01933 0.0177 0.0
H807 H 0.86239 0.06778 0.04046 0.0
H808 H 0.87174 0.99688 0.97325 0.0
H809 H 0.8115 0.94552 0.94878 0.0
C810 C 0.68953 0.67383 0.31492 0.0
C811 C 0.7476 0.71062 0.29956 0.0
C812 C 0.77872 0.79648 0.33576 0.0
C813 C 0.71724 0.76086 0.34883 0.0
N814 N 0.60768 0.67905 0.34324 0.0
N815 N 0.84701 0.81045 0.29426 0.0
C816 C 0.67017 0.70459 0.33525 0.0
C817 C 0.79268 0.77294 0.30992 0.0
N818 N 0.65149 0.61044 0.30852 0.0
N819 N 0.82452 0.8507 0.34924 0.0
H820 H 0.85932 0.79285 0.27617 0.0
H821 H 0.87814 0.85888 0.29863 0.0
H822 H 0.81369 0.86903 0.36757 0.0
H823 H 0.8726 0.87531 0.34305 0.0
H824 H 0.60924 0.58027 0.31974 0.0
H825 H 0.66709 0.58793 0.294 0.0
H826 H 0.57023 0.63915 0.33302 0.0
H827 H 0.59416 0.70243 0.35834 0.0
C828 C 0.02218 0.79095 0.64215 0.0
C829 C 0.03808 0.74476 0.63223 0.0
C830 C 0.96685 0.66981 0.66901 0.0
C831 C 0.95981 0.71837 0.68219 0.0
N832 N 0.9794 0.82612 0.68141 0.0
N833 N 0.03877 0.64727 0.64166 0.0
C834 C 0.98604 0.77903 0.66833 0.0
C835 C 0.01549 0.68693 0.648 0.0
N836 N 0.03911 0.84451 0.62591 0.0
N837 N 0.92912 0.60799 0.67792 0.0
H838 H 0.07605 0.66119 0.62676 0.0
H839 H 0.02608 0.60536 0.65325 0.0
H840 H 0.89363 0.59609 0.69366 0.0
H841 H 0.92957 0.56939 0.66794 0.0
H842 H 0.02245 0.8761 0.63004 0.0
H843 H 0.06835 0.85585 0.60761 0.0
H844 H 1.00347 0.87384 0.67464 0.0
H845 H 0.9512 0.81678 0.70001 0.0
C846 C 0.2186 0.99191 0.00217 0.0
C847 C 0.2551 0.96633 0.01445 0.0
C848 C 0.34083 0.02841 0.98019 0.0
C849 C 0.30249 0.04791 0.96517 0.0
N850 N 0.20147 0.04463 0.96089 0.0
N851 N 0.33838 0.94156 0.00758 0.0
C852 C 0.24039 0.02925 0.97615 0.0
C853 C 0.31161 0.97769 0.00042 0.0
N854 N 0.16503 0.98299 0.01633 0.0
N855 N 0.40432 0.05619 0.97367 0.0
H856 H 0.31509 0.90296 0.02194 0.0
H857 H 0.37865 0.94582 -0.00295 0.0
H858 H 0.42566 0.0952 0.95948 0.0
H859 H 0.43553 0.04532 0.98465 0.0
H860 H 0.14011 0.00629 0.01058 0.0
H861 H 0.14756 0.95373 0.03471 0.0
H862 H 0.15314 0.02633 0.96577 0.0
H863 H 0.21783 0.07421 0.9426 0.0
loop_
_geom_bond_atom_site_label_1
_geom_bond_atom_site_label_2
_geom_bond_distance
_geom_bond_site_symmetry_2
_ccdc_geom_bond_type
Mn0 O5 2.095 . S
Mn0 O15 2.162 . S
Mn0 O16 2.297 . S
Mn0 O24 2.385 . S
Mn0 O25 2.209 . S
Mn0 O26 2.094 . S
Mn1 O6 2.121 . S
Mn1 N8 2.257 . S
Mn1 N17 2.282 . S
Mn1 O25 2.215 . S
Mn1 O27 2.117 . S
C2 O24 1.234 . S
C2 O25 1.283 . S
C3 O15 1.281 . S
C3 O16 1.236 . S
C4 O26 1.240 . S
C4 O27 1.264 . S
O5 Mn0 2.095 . S
O5 C14 1.250 . S
O6 Mn1 2.121 . S
O6 C14 1.258 . S
C7 N8 1.326 . S
C7 C11 1.460 . S
C7 H13 0.929 . S
N8 Mn1 2.257 . S
N8 C7 1.326 . S
N8 C12 1.362 . S
C9 C10 1.258 . S
C9 C12 1.431 . S
C9 C29 1.449 . S
C10 C9 1.258 . S
C10 C11 1.477 . S
C10 H30 0.931 . S
C11 C7 1.460 . S
C11 C10 1.477 . S
C11 H31 0.930 . S
C12 N8 1.362 . S
C12 C9 1.431 . S
C12 C22 1.476 . S
H13 C7 0.929 . S
C14 O5 1.250 . S
C14 O6 1.258 . S
O15 Mn0 2.162 . S
O15 C3 1.281 . S
O16 Mn0 2.297 . S
O16 C3 1.236 . S
N17 Mn1 2.282 . S
N17 C18 1.328 . S
N17 C22 1.318 . S
C18 N17 1.328 . S
C18 C19 1.457 . S
C18 H23 0.929 . S
C19 C18 1.457 . S
C19 C20 1.291 . S
C19 H32 0.931 . S
C20 C19 1.291 . S
C20 C21 1.373 . S
C20 H33 0.929 . S
C21 C20 1.373 . S
C21 C22 1.396 . S
C21 C28 1.403 . S
C22 C12 1.476 . S
C22 N17 1.318 . S
C22 C21 1.396 . S
H23 C18 0.929 . S
O24 Mn0 2.385 . S
O24 C2 1.234 . S
O25 Mn0 2.209 . S
O25 Mn1 2.215 . S
O25 C2 1.283 . S
O26 Mn0 2.094 . S
O26 C4 1.240 . S
O27 Mn1 2.117 . S
O27 C4 1.264 . S
C28 C21 1.403 . S
C28 C29 1.399 . S
C28 H34 0.929 . S
C29 C9 1.449 . S
C29 C28 1.399 . S
C29 H35 0.930 . S
H30 C10 0.931 . S
H31 C11 0.930 . S
H32 C19 0.931 . S
H33 C20 0.929 . S
H34 C28 0.929 . S
H35 C29 0.930 . S
Mn36 O41 2.095 . S
Mn36 O51 2.162 . S
Mn36 O52 2.297 . S
Mn36 O60 2.385 1_655 S
Mn36 O61 2.209 1_655 S
Mn36 O62 2.094 . S
Mn37 O42 2.121 . S
Mn37 N44 2.257 . S
Mn37 N53 2.282 . S
Mn37 O61 2.215 . S
Mn37 O63 2.117 . S
C38 O60 1.234 . S
C38 O61 1.283 . S
C39 O51 1.281 . S
C39 O52 1.236 . S
C40 O62 1.240 . S
C40 O63 1.264 1_655 S
O41 Mn36 2.095 . S
O41 C50 1.250 . S
O42 Mn37 2.121 . S
O42 C50 1.258 1_455 S
C43 N44 1.326 . S
C43 C47 1.460 . S
C43 H49 0.929 . S
N44 Mn37 2.257 . S
N44 C43 1.326 . S
N44 C48 1.362 . S
C45 C46 1.258 . S
C45 C48 1.431 . S
C45 C65 1.449 . S
C46 C45 1.258 . S
C46 C47 1.477 . S
C46 H66 0.931 . S
C47 C43 1.460 . S
C47 C46 1.477 . S
C47 H67 0.930 . S
C48 N44 1.362 . S
C48 C45 1.431 . S
C48 C58 1.476 . S
H49 C43 0.929 . S
C50 O41 1.250 . S
C50 O42 1.258 1_655 S
O51 Mn36 2.162 . S
O51 C39 1.281 . S
O52 Mn36 2.297 . S
O52 C39 1.236 . S
N53 Mn37 2.282 . S
N53 C54 1.328 . S
N53 C58 1.318 . S
C54 N53 1.328 . S
C54 C55 1.457 . S
C54 H59 0.929 . S
C55 C54 1.457 . S
C55 C56 1.291 . S
C55 H68 0.931 . S
C56 C55 1.291 . S
C56 C57 1.373 . S
C56 H69 0.929 . S
C57 C56 1.373 . S
C57 C58 1.396 . S
C57 C64 1.403 . S
C58 C48 1.476 . S
C58 N53 1.318 . S
C58 C57 1.396 . S
H59 C54 0.929 . S
O60 Mn36 2.385 1_455 S
O60 C38 1.234 . S
O61 Mn36 2.209 1_455 S
O61 Mn37 2.215 . S
O61 C38 1.283 . S
O62 Mn36 2.094 . S
O62 C40 1.240 . S
O63 Mn37 2.117 . S
O63 C40 1.264 1_455 S
C64 C57 1.403 . S
C64 C65 1.399 . S
C64 H70 0.929 . S
C65 C45 1.449 . S
C65 C64 1.399 . S
C65 H71 0.930 . S
H66 C46 0.931 . S
H67 C47 0.930 . S
H68 C55 0.931 . S
H69 C56 0.929 . S
H70 C64 0.929 . S
H71 C65 0.930 . S
Mn72 O77 2.095 . S
Mn72 O87 2.162 . S
Mn72 O88 2.297 . S
Mn72 O96 2.385 1_565 S
Mn72 O97 2.209 1_565 S
Mn72 O98 2.094 . S
Mn73 O78 2.121 . S
Mn73 N80 2.257 . S
Mn73 N89 2.282 . S
Mn73 O97 2.215 . S
Mn73 O99 2.117 . S
C74 O96 1.234 . S
C74 O97 1.283 . S
C75 O87 1.281 . S
C75 O88 1.236 . S
C76 O98 1.240 . S
C76 O99 1.264 1_565 S
O77 Mn72 2.095 . S
O77 C86 1.250 . S
O78 Mn73 2.121 . S
O78 C86 1.258 1_545 S
C79 N80 1.326 . S
C79 C83 1.460 . S
C79 H85 0.929 . S
N80 Mn73 2.257 . S
N80 C79 1.326 . S
N80 C84 1.362 . S
C81 C82 1.258 . S
C81 C84 1.431 . S
C81 C101 1.449 . S
C82 C81 1.258 . S
C82 C83 1.477 . S
C82 H102 0.931 . S
C83 C79 1.460 . S
C83 C82 1.477 . S
C83 H103 0.930 . S
C84 N80 1.362 . S
C84 C81 1.431 . S
C84 C94 1.476 . S
H85 C79 0.929 . S
C86 O77 1.250 . S
C86 O78 1.258 1_565 S
O87 Mn72 2.162 . S
O87 C75 1.281 . S
O88 Mn72 2.297 . S
O88 C75 1.236 . S
N89 Mn73 2.282 . S
N89 C90 1.328 . S
N89 C94 1.318 . S
C90 N89 1.328 . S
C90 C91 1.457 . S
C90 H95 0.929 . S
C91 C90 1.457 . S
C91 C92 1.291 . S
C91 H104 0.931 . S
C92 C91 1.291 . S
C92 C93 1.373 . S
C92 H105 0.929 . S
C93 C92 1.373 . S
C93 C94 1.396 . S
C93 C100 1.403 . S
C94 C84 1.476 . S
C94 N89 1.318 . S
C94 C93 1.396 . S
H95 C90 0.929 . S
O96 Mn72 2.385 1_545 S
O96 C74 1.234 . S
O97 Mn72 2.209 1_545 S
O97 Mn73 2.215 . S
O97 C74 1.283 . S
O98 Mn72 2.094 . S
O98 C76 1.240 . S
O99 Mn73 2.117 . S
O99 C76 1.264 1_545 S
C100 C93 1.403 . S
C100 C101 1.399 . S
C100 H106 0.929 . S
C101 C81 1.449 . S
C101 C100 1.399 . S
C101 H107 0.930 . S
H102 C82 0.931 . S
H103 C83 0.930 . S
H104 C91 0.931 . S
H105 C92 0.929 . S
H106 C100 0.929 . S
H107 C101 0.930 . S
Mn108 O113 2.095 . S
Mn108 O123 2.162 . S
Mn108 O124 2.297 . S
Mn108 O132 2.385 . S
Mn108 O133 2.209 . S
Mn108 O134 2.094 . S
Mn109 O114 2.121 . S
Mn109 N116 2.257 . S
Mn109 N125 2.282 . S
Mn109 O133 2.215 . S
Mn109 O135 2.117 . S
C110 O132 1.234 . S
C110 O133 1.283 . S
C111 O123 1.281 . S
C111 O124 1.236 . S
C112 O134 1.240 . S
C112 O135 1.264 . S
O113 Mn108 2.095 . S
O113 C122 1.250 . S
O114 Mn109 2.121 . S
O114 C122 1.258 . S
C115 N116 1.326 . S
C115 C119 1.460 . S
C115 H121 0.929 . S
N116 Mn109 2.257 . S
N116 C115 1.326 . S
N116 C120 1.362 . S
C117 C118 1.258 . S
C117 C120 1.431 . S
C117 C137 1.449 . S
C118 C117 1.258 . S
C118 C119 1.477 . S
C118 H138 0.931 . S
C119 C115 1.460 . S
C119 C118 1.477 . S
C119 H139 0.930 . S
C120 N116 1.362 . S
C120 C117 1.431 . S
C120 C130 1.476 . S
H121 C115 0.929 . S
C122 O113 1.250 . S
C122 O114 1.258 . S
O123 Mn108 2.162 . S
O123 C111 1.281 . S
O124 Mn108 2.297 . S
O124 C111 1.236 . S
N125 Mn109 2.282 . S
N125 C126 1.328 . S
N125 C130 1.318 . S
C126 N125 1.328 . S
C126 C127 1.457 . S
C126 H131 0.929 . S
C127 C126 1.457 . S
C127 C128 1.291 . S
C127 H140 0.931 . S
C128 C127 1.291 . S
C128 C129 1.373 . S
C128 H141 0.929 . S
C129 C128 1.373 . S
C129 C130 1.396 . S
C129 C136 1.403 . S
C130 C120 1.476 . S
C130 N125 1.318 . S
C130 C129 1.396 . S
H131 C126 0.929 . S
O132 Mn108 2.385 . S
O132 C110 1.234 . S
O133 Mn108 2.209 . S
O133 Mn109 2.215 . S
O133 C110 1.283 . S
O134 Mn108 2.094 . S
O134 C112 1.240 . S
O135 Mn109 2.117 . S
O135 C112 1.264 . S
C136 C129 1.403 . S
C136 C137 1.399 . S
C136 H142 0.929 . S
C137 C117 1.449 . S
C137 C136 1.399 . S
C137 H143 0.930 . S
H138 C118 0.931 . S
H139 C119 0.930 . S
H140 C127 0.931 . S
H141 C128 0.929 . S
H142 C136 0.929 . S
H143 C137 0.930 . S
Mn144 O149 2.095 . S
Mn144 O159 2.162 . S
Mn144 O160 2.297 . S
Mn144 O168 2.385 1_455 S
Mn144 O169 2.209 1_455 S
Mn144 O170 2.094 . S
Mn145 O150 2.121 . S
Mn145 N152 2.257 . S
Mn145 N161 2.282 . S
Mn145 O169 2.215 . S
Mn145 O171 2.117 . S
C146 O168 1.234 . S
C146 O169 1.283 . S
C147 O159 1.281 . S
C147 O160 1.236 . S
C148 O170 1.240 . S
C148 O171 1.264 1_455 S
O149 Mn144 2.095 . S
O149 C158 1.250 . S
O150 Mn145 2.121 . S
O150 C158 1.258 1_655 S
C151 N152 1.326 . S
C151 C155 1.460 . S
C151 H157 0.929 . S
N152 Mn145 2.257 . S
N152 C151 1.326 . S
N152 C156 1.362 . S
C153 C154 1.258 . S
C153 C156 1.431 . S
C153 C173 1.449 . S
C154 C153 1.258 . S
C154 C155 1.477 . S
C154 H174 0.931 . S
C155 C151 1.460 . S
C155 C154 1.477 . S
C155 H175 0.930 . S
C156 N152 1.362 . S
C156 C153 1.431 . S
C156 C166 1.476 . S
H157 C151 0.929 . S
C158 O149 1.250 . S
C158 O150 1.258 1_455 S
O159 Mn144 2.162 . S
O159 C147 1.281 . S
O160 Mn144 2.297 . S
O160 C147 1.236 . S
N161 Mn145 2.282 . S
N161 C162 1.328 . S
N161 C166 1.318 . S
C162 N161 1.328 . S
C162 C163 1.457 . S
C162 H167 0.929 . S
C163 C162 1.457 . S
C163 C164 1.291 . S
C163 H176 0.931 . S
C164 C163 1.291 . S
C164 C165 1.373 . S
C164 H177 0.929 . S
C165 C164 1.373 . S
C165 C166 1.396 . S
C165 C172 1.403 . S
C166 C156 1.476 . S
C166 N161 1.318 . S
C166 C165 1.396 . S
H167 C162 0.929 . S
O168 Mn144 2.385 1_655 S
O168 C146 1.234 . S
O169 Mn144 2.209 1_655 S
O169 Mn145 2.215 . S
O169 C146 1.283 . S
O170 Mn144 2.094 . S
O170 C148 1.240 . S
O171 Mn145 2.117 . S
O171 C148 1.264 1_655 S
C172 C165 1.403 . S
C172 C173 1.399 . S
C172 H178 0.929 . S
C173 C153 1.449 . S
C173 C172 1.399 . S
C173 H179 0.930 . S
H174 C154 0.931 . S
H175 C155 0.930 . S
H176 C163 0.931 . S
H177 C164 0.929 . S
H178 C172 0.929 . S
H179 C173 0.930 . S
Mn180 O185 2.095 . S
Mn180 O195 2.162 . S
Mn180 O196 2.297 . S
Mn180 O204 2.385 1_545 S
Mn180 O205 2.209 1_545 S
Mn180 O206 2.094 . S
Mn181 O186 2.121 . S
Mn181 N188 2.257 . S
Mn181 N197 2.282 . S
Mn181 O205 2.215 . S
Mn181 O207 2.117 . S
C182 O204 1.234 . S
C182 O205 1.283 . S
C183 O195 1.281 . S
C183 O196 1.236 . S
C184 O206 1.240 . S
C184 O207 1.264 1_545 S
O185 Mn180 2.095 . S
O185 C194 1.250 . S
O186 Mn181 2.121 . S
O186 C194 1.258 1_565 S
C187 N188 1.326 . S
C187 C191 1.460 . S
C187 H193 0.929 . S
N188 Mn181 2.257 . S
N188 C187 1.326 . S
N188 C192 1.362 . S
C189 C190 1.258 . S
C189 C192 1.431 . S
C189 C209 1.449 . S
C190 C189 1.258 . S
C190 C191 1.477 . S
C190 H210 0.931 . S
C191 C187 1.460 . S
C191 C190 1.477 . S
C191 H211 0.930 . S
C192 N188 1.362 . S
C192 C189 1.431 . S
C192 C202 1.476 . S
H193 C187 0.929 . S
C194 O185 1.250 . S
C194 O186 1.258 1_545 S
O195 Mn180 2.162 . S
O195 C183 1.281 . S
O196 Mn180 2.297 . S
O196 C183 1.236 . S
N197 Mn181 2.282 . S
N197 C198 1.328 . S
N197 C202 1.318 . S
C198 N197 1.328 . S
C198 C199 1.457 . S
C198 H203 0.929 . S
C199 C198 1.457 . S
C199 C200 1.291 . S
C199 H212 0.931 . S
C200 C199 1.291 . S
C200 C201 1.373 . S
C200 H213 0.929 . S
C201 C200 1.373 . S
C201 C202 1.396 . S
C201 C208 1.403 . S
C202 C192 1.476 . S
C202 N197 1.318 . S
C202 C201 1.396 . S
H203 C198 0.929 . S
O204 Mn180 2.385 1_565 S
O204 C182 1.234 . S
O205 Mn180 2.209 1_565 S
O205 Mn181 2.215 . S
O205 C182 1.283 . S
O206 Mn180 2.094 . S
O206 C184 1.240 . S
O207 Mn181 2.117 . S
O207 C184 1.264 1_565 S
C208 C201 1.403 . S
C208 C209 1.399 . S
C208 H214 0.929 . S
C209 C189 1.449 . S
C209 C208 1.399 . S
C209 H215 0.930 . S
H210 C190 0.931 . S
H211 C191 0.930 . S
H212 C199 0.931 . S
H213 C200 0.929 . S
H214 C208 0.929 . S
H215 C209 0.930 . S
Mn216 O221 2.095 . S
Mn216 O231 2.162 . S
Mn216 O232 2.297 . S
Mn216 O240 2.385 . S
Mn216 O241 2.209 . S
Mn216 O242 2.094 . S
Mn217 O222 2.121 . S
Mn217 N224 2.257 . S
Mn217 N233 2.282 . S
Mn217 O241 2.215 . S
Mn217 O243 2.117 . S
C218 O240 1.234 . S
C218 O241 1.283 . S
C219 O231 1.281 . S
C219 O232 1.236 . S
C220 O242 1.240 . S
C220 O243 1.264 . S
O221 Mn216 2.095 . S
O221 C230 1.250 . S
O222 Mn217 2.121 . S
O222 C230 1.258 . S
C223 N224 1.326 . S
C223 C227 1.460 . S
C223 H229 0.929 . S
N224 Mn217 2.257 . S
N224 C223 1.326 . S
N224 C228 1.362 . S
C225 C226 1.258 . S
C225 C228 1.431 . S
C225 C245 1.449 . S
C226 C225 1.258 . S
C226 C227 1.477 . S
C226 H246 0.931 . S
C227 C223 1.460 . S
C227 C226 1.477 . S
C227 H247 0.930 . S
C228 N224 1.362 . S
C228 C225 1.431 . S
C228 C238 1.476 . S
H229 C223 0.929 . S
C230 O221 1.250 . S
C230 O222 1.258 . S
O231 Mn216 2.162 . S
O231 C219 1.281 . S
O232 Mn216 2.297 . S
O232 C219 1.236 . S
N233 Mn217 2.282 . S
N233 C234 1.328 . S
N233 C238 1.318 . S
C234 N233 1.328 . S
C234 C235 1.457 . S
C234 H239 0.929 . S
C235 C234 1.457 . S
C235 C236 1.291 . S
C235 H248 0.931 . S
C236 C235 1.291 . S
C236 C237 1.373 . S
C236 H249 0.929 . S
C237 C236 1.373 . S
C237 C238 1.396 . S
C237 C244 1.403 . S
C238 C228 1.476 . S
C238 N233 1.318 . S
C238 C237 1.396 . S
H239 C234 0.929 . S
O240 Mn216 2.385 . S
O240 C218 1.234 . S
O241 Mn216 2.209 . S
O241 Mn217 2.215 . S
O241 C218 1.283 . S
O242 Mn216 2.094 . S
O242 C220 1.240 . S
O243 Mn217 2.117 . S
O243 C220 1.264 . S
C244 C237 1.403 . S
C244 C245 1.399 . S
C244 H250 0.929 . S
C245 C225 1.449 . S
C245 C244 1.399 . S
C245 H251 0.930 . S
H246 C226 0.931 . S
H247 C227 0.930 . S
H248 C235 0.931 . S
H249 C236 0.929 . S
H250 C244 0.929 . S
H251 C245 0.930 . S
Mn252 O257 2.095 . S
Mn252 O267 2.162 . S
Mn252 O268 2.297 . S
Mn252 O276 2.385 1_655 S
Mn252 O277 2.209 1_655 S
Mn252 O278 2.094 . S
Mn253 O258 2.121 . S
Mn253 N260 2.257 . S
Mn253 N269 2.282 . S
Mn253 O277 2.215 . S
Mn253 O279 2.117 . S
C254 O276 1.234 . S
C254 O277 1.283 . S
C255 O267 1.281 . S
C255 O268 1.236 . S
C256 O278 1.240 . S
C256 O279 1.264 1_655 S
O257 Mn252 2.095 . S
O257 C266 1.250 . S
O258 Mn253 2.121 . S
O258 C266 1.258 1_455 S
C259 N260 1.326 . S
C259 C263 1.460 . S
C259 H265 0.929 . S
N260 Mn253 2.257 . S
N260 C259 1.326 . S
N260 C264 1.362 . S
C261 C262 1.258 . S
C261 C264 1.431 . S
C261 C281 1.449 . S
C262 C261 1.258 . S
C262 C263 1.477 . S
C262 H282 0.931 . S
C263 C259 1.460 . S
C263 C262 1.477 . S
C263 H283 0.930 . S
C264 N260 1.362 . S
C264 C261 1.431 . S
C264 C274 1.476 . S
H265 C259 0.929 . S
C266 O257 1.250 . S
C266 O258 1.258 1_655 S
O267 Mn252 2.162 . S
O267 C255 1.281 . S
O268 Mn252 2.297 . S
O268 C255 1.236 . S
N269 Mn253 2.282 . S
N269 C270 1.328 . S
N269 C274 1.318 . S
C270 N269 1.328 . S
C270 C271 1.457 . S
C270 H275 0.929 . S
C271 C270 1.457 . S
C271 C272 1.291 . S
C271 H284 0.931 . S
C272 C271 1.291 . S
C272 C273 1.373 . S
C272 H285 0.929 . S
C273 C272 1.373 . S
C273 C274 1.396 . S
C273 C280 1.403 . S
C274 C264 1.476 . S
C274 N269 1.318 . S
C274 C273 1.396 . S
H275 C270 0.929 . S
O276 Mn252 2.385 1_455 S
O276 C254 1.234 . S
O277 Mn252 2.209 1_455 S
O277 Mn253 2.215 . S
O277 C254 1.283 . S
O278 Mn252 2.094 . S
O278 C256 1.240 . S
O279 Mn253 2.117 . S
O279 C256 1.264 1_455 S
C280 C273 1.403 . S
C280 C281 1.399 . S
C280 H286 0.929 . S
C281 C261 1.449 . S
C281 C280 1.399 . S
C281 H287 0.930 . S
H282 C262 0.931 . S
H283 C263 0.930 . S
H284 C271 0.931 . S
H285 C272 0.929 . S
H286 C280 0.929 . S
H287 C281 0.930 . S
Mn288 O293 2.095 . S
Mn288 O303 2.162 . S
Mn288 O304 2.297 . S
Mn288 O312 2.385 1_565 S
Mn288 O313 2.209 1_565 S
Mn288 O314 2.094 . S
Mn289 O294 2.121 . S
Mn289 N296 2.257 . S
Mn289 N305 2.282 . S
Mn289 O313 2.215 . S
Mn289 O315 2.117 . S
C290 O312 1.234 . S
C290 O313 1.283 . S
C291 O303 1.281 . S
C291 O304 1.236 . S
C292 O314 1.240 . S
C292 O315 1.264 1_565 S
O293 Mn288 2.095 . S
O293 C302 1.250 . S
O294 Mn289 2.121 . S
O294 C302 1.258 1_545 S
C295 N296 1.326 . S
C295 C299 1.460 . S
C295 H301 0.929 . S
N296 Mn289 2.257 . S
N296 C295 1.326 . S
N296 C300 1.362 . S
C297 C298 1.258 . S
C297 C300 1.431 . S
C297 C317 1.449 . S
C298 C297 1.258 . S
C298 C299 1.477 . S
C298 H318 0.931 . S
C299 C295 1.460 . S
C299 C298 1.477 . S
C299 H319 0.930 . S
C300 N296 1.362 . S
C300 C297 1.431 . S
C300 C310 1.476 . S
H301 C295 0.929 . S
C302 O293 1.250 . S
C302 O294 1.258 1_565 S
O303 Mn288 2.162 . S
O303 C291 1.281 . S
O304 Mn288 2.297 . S
O304 C291 1.236 . S
N305 Mn289 2.282 . S
N305 C306 1.328 . S
N305 C310 1.318 . S
C306 N305 1.328 . S
C306 C307 1.457 . S
C306 H311 0.929 . S
C307 C306 1.457 . S
C307 C308 1.291 . S
C307 H320 0.931 . S
C308 C307 1.291 . S
C308 C309 1.373 . S
C308 H321 0.929 . S
C309 C308 1.373 . S
C309 C310 1.396 . S
C309 C316 1.403 . S
C310 C300 1.476 . S
C310 N305 1.318 . S
C310 C309 1.396 . S
H311 C306 0.929 . S
O312 Mn288 2.385 1_545 S
O312 C290 1.234 . S
O313 Mn288 2.209 1_545 S
O313 Mn289 2.215 . S
O313 C290 1.283 . S
O314 Mn288 2.094 . S
O314 C292 1.240 . S
O315 Mn289 2.117 . S
O315 C292 1.264 1_545 S
C316 C309 1.403 . S
C316 C317 1.399 . S
C316 H322 0.929 . S
C317 C297 1.449 . S
C317 C316 1.399 . S
C317 H323 0.930 . S
H318 C298 0.931 . S
H319 C299 0.930 . S
H320 C307 0.931 . S
H321 C308 0.929 . S
H322 C316 0.929 . S
H323 C317 0.930 . S
Mn324 O329 2.095 . S
Mn324 O339 2.162 . S
Mn324 O340 2.297 . S
Mn324 O348 2.385 . S
Mn324 O349 2.209 . S
Mn324 O350 2.094 . S
Mn325 O330 2.121 . S
Mn325 N332 2.257 . S
Mn325 N341 2.282 . S
Mn325 O349 2.215 . S
Mn325 O351 2.117 . S
C326 O348 1.234 . S
C326 O349 1.283 . S
C327 O339 1.281 . S
C327 O340 1.236 . S
C328 O350 1.240 . S
C328 O351 1.264 . S
O329 Mn324 2.095 . S
O329 C338 1.250 . S
O330 Mn325 2.121 . S
O330 C338 1.258 . S
C331 N332 1.326 . S
C331 C335 1.460 . S
C331 H337 0.929 . S
N332 Mn325 2.257 . S
N332 C331 1.326 . S
N332 C336 1.362 . S
C333 C334 1.258 . S
C333 C336 1.431 . S
C333 C353 1.449 . S
C334 C333 1.258 . S
C334 C335 1.477 . S
C334 H354 0.931 . S
C335 C331 1.460 . S
C335 C334 1.477 . S
C335 H355 0.930 . S
C336 N332 1.362 . S
C336 C333 1.431 . S
C336 C346 1.476 . S
H337 C331 0.929 . S
C338 O329 1.250 . S
C338 O330 1.258 . S
O339 Mn324 2.162 . S
O339 C327 1.281 . S
O340 Mn324 2.297 . S
O340 C327 1.236 . S
N341 Mn325 2.282 . S
N341 C342 1.328 . S
N341 C346 1.318 . S
C342 N341 1.328 . S
C342 C343 1.457 . S
C342 H347 0.929 . S
C343 C342 1.457 . S
C343 C344 1.291 . S
C343 H356 0.931 . S
C344 C343 1.291 . S
C344 C345 1.373 . S
C344 H357 0.929 . S
C345 C344 1.373 . S
C345 C346 1.396 . S
C345 C352 1.403 . S
C346 C336 1.476 . S
C346 N341 1.318 . S
C346 C345 1.396 . S
H347 C342 0.929 . S
O348 Mn324 2.385 . S
O348 C326 1.234 . S
O349 Mn324 2.209 . S
O349 Mn325 2.215 . S
O349 C326 1.283 . S
O350 Mn324 2.094 . S
O350 C328 1.240 . S
O351 Mn325 2.117 . S
O351 C328 1.264 . S
C352 C345 1.403 . S
C352 C353 1.399 . S
C352 H358 0.929 . S
C353 C333 1.449 . S
C353 C352 1.399 . S
C353 H359 0.930 . S
H354 C334 0.931 . S
H355 C335 0.930 . S
H356 C343 0.931 . S
H357 C344 0.929 . S
H358 C352 0.929 . S
H359 C353 0.930 . S
Mn360 O365 2.095 . S
Mn360 O375 2.162 . S
Mn360 O376 2.297 . S
Mn360 O384 2.385 1_455 S
Mn360 O385 2.209 1_455 S
Mn360 O386 2.094 . S
Mn361 O366 2.121 . S
Mn361 N368 2.257 . S
Mn361 N377 2.282 . S
Mn361 O385 2.215 . S
Mn361 O387 2.117 . S
C362 O384 1.234 . S
C362 O385 1.283 . S
C363 O375 1.281 . S
C363 O376 1.236 . S
C364 O386 1.240 . S
C364 O387 1.264 1_455 S
O365 Mn360 2.095 . S
O365 C374 1.250 . S
O366 Mn361 2.121 . S
O366 C374 1.258 1_655 S
C367 N368 1.326 . S
C367 C371 1.460 . S
C367 H373 0.929 . S
N368 Mn361 2.257 . S
N368 C367 1.326 . S
N368 C372 1.362 . S
C369 C370 1.258 . S
C369 C372 1.431 . S
C369 C389 1.449 . S
C370 C369 1.258 . S
C370 C371 1.477 . S
C370 H390 0.931 . S
C371 C367 1.460 . S
C371 C370 1.477 . S
C371 H391 0.930 . S
C372 N368 1.362 . S
C372 C369 1.431 . S
C372 C382 1.476 . S
H373 C367 0.929 . S
C374 O365 1.250 . S
C374 O366 1.258 1_455 S
O375 Mn360 2.162 . S
O375 C363 1.281 . S
O376 Mn360 2.297 . S
O376 C363 1.236 . S
N377 Mn361 2.282 . S
N377 C378 1.328 . S
N377 C382 1.318 . S
C378 N377 1.328 . S
C378 C379 1.457 . S
C378 H383 0.929 . S
C379 C378 1.457 . S
C379 C380 1.291 . S
C379 H392 0.931 . S
C380 C379 1.291 . S
C380 C381 1.373 . S
C380 H393 0.929 . S
C381 C380 1.373 . S
C381 C382 1.396 . S
C381 C388 1.403 . S
C382 C372 1.476 . S
C382 N377 1.318 . S
C382 C381 1.396 . S
H383 C378 0.929 . S
O384 Mn360 2.385 1_655 S
O384 C362 1.234 . S
O385 Mn360 2.209 1_655 S
O385 Mn361 2.215 . S
O385 C362 1.283 . S
O386 Mn360 2.094 . S
O386 C364 1.240 . S
O387 Mn361 2.117 . S
O387 C364 1.264 1_655 S
C388 C381 1.403 . S
C388 C389 1.399 . S
C388 H394 0.929 . S
C389 C369 1.449 . S
C389 C388 1.399 . S
C389 H395 0.930 . S
H390 C370 0.931 . S
H391 C371 0.930 . S
H392 C379 0.931 . S
H393 C380 0.929 . S
H394 C388 0.929 . S
H395 C389 0.930 . S
Mn396 O401 2.095 . S
Mn396 O411 2.162 . S
Mn396 O412 2.297 . S
Mn396 O420 2.385 1_545 S
Mn396 O421 2.209 1_545 S
Mn396 O422 2.094 . S
Mn397 O402 2.121 . S
Mn397 N404 2.257 . S
Mn397 N413 2.282 . S
Mn397 O421 2.215 . S
Mn397 O423 2.117 . S
C398 O420 1.234 . S
C398 O421 1.283 . S
C399 O411 1.281 . S
C399 O412 1.236 . S
C400 O422 1.240 . S
C400 O423 1.264 1_545 S
O401 Mn396 2.095 . S
O401 C410 1.250 . S
O402 Mn397 2.121 . S
O402 C410 1.258 1_565 S
C403 N404 1.326 . S
C403 C407 1.460 . S
C403 H409 0.929 . S
N404 Mn397 2.257 . S
N404 C403 1.326 . S
N404 C408 1.362 . S
C405 C406 1.258 . S
C405 C408 1.431 . S
C405 C425 1.449 . S
C406 C405 1.258 . S
C406 C407 1.477 . S
C406 H426 0.931 . S
C407 C403 1.460 . S
C407 C406 1.477 . S
C407 H427 0.930 . S
C408 N404 1.362 . S
C408 C405 1.431 . S
C408 C418 1.476 . S
H409 C403 0.929 . S
C410 O401 1.250 . S
C410 O402 1.258 1_545 S
O411 Mn396 2.162 . S
O411 C399 1.281 . S
O412 Mn396 2.297 . S
O412 C399 1.236 . S
N413 Mn397 2.282 . S
N413 C414 1.328 . S
N413 C418 1.318 . S
C414 N413 1.328 . S
C414 C415 1.457 . S
C414 H419 0.929 . S
C415 C414 1.457 . S
C415 C416 1.291 . S
C415 H428 0.931 . S
C416 C415 1.291 . S
C416 C417 1.373 . S
C416 H429 0.929 . S
C417 C416 1.373 . S
C417 C418 1.396 . S
C417 C424 1.403 . S
C418 C408 1.476 . S
C418 N413 1.318 . S
C418 C417 1.396 . S
H419 C414 0.929 . S
O420 Mn396 2.385 1_565 S
O420 C398 1.234 . S
O421 Mn396 2.209 1_565 S
O421 Mn397 2.215 . S
O421 C398 1.283 . S
O422 Mn396 2.094 . S
O422 C400 1.240 . S
O423 Mn397 2.117 . S
O423 C400 1.264 1_565 S
C424 C417 1.403 . S
C424 C425 1.399 . S
C424 H430 0.929 . S
C425 C405 1.449 . S
C425 C424 1.399 . S
C425 H431 0.930 . S
H426 C406 0.931 . S
H427 C407 0.930 . S
H428 C415 0.931 . S
H429 C416 0.929 . S
H430 C424 0.929 . S
H431 C425 0.930 . S
C432 C433 1.363 . S
C432 C438 1.379 1_655 S
C432 N440 1.356 . S
C433 C432 1.363 . S
C433 C439 1.363 . S
C434 C435 1.363 . S
C434 C439 1.379 1_455 S
C434 N441 1.356 . S
C435 C434 1.363 . S
C435 C438 1.363 . S
N436 C438 1.356 . S
N436 H448 0.984 1_455 S
N436 H449 0.985 . S
N437 C439 1.356 . S
N437 H442 0.984 . S
N437 H443 0.985 1_655 S
C438 C432 1.379 1_455 S
C438 C435 1.363 . S
C438 N436 1.356 . S
C439 C433 1.363 . S
C439 C434 1.379 1_655 S
C439 N437 1.356 . S
N440 C432 1.356 . S
N440 H446 0.984 . S
N440 H447 0.984 . S
N441 C434 1.356 . S
N441 H444 0.984 . S
N441 H445 0.985 . S
H442 N437 0.984 . S
H443 N437 0.985 1_455 S
H444 N441 0.984 . S
H445 N441 0.985 . S
H446 N440 0.984 . S
H447 N440 0.984 . S
H448 N436 0.984 1_655 S
H449 N436 0.985 . S
C450 C451 1.363 . S
C450 C456 1.379 1_545 S
C450 N458 1.356 . S
C451 C450 1.363 . S
C451 C457 1.363 . S
C452 C453 1.363 . S
C452 C457 1.379 1_565 S
C452 N459 1.356 . S
C453 C452 1.363 . S
C453 C456 1.363 . S
N454 C456 1.356 . S
N454 H466 0.984 . S
N454 H467 0.985 . S
N455 C457 1.356 . S
N455 H460 0.984 . S
N455 H461 0.985 . S
C456 C450 1.379 1_565 S
C456 C453 1.363 . S
C456 N454 1.356 . S
C457 C451 1.363 . S
C457 C452 1.379 1_545 S
C457 N455 1.356 . S
N458 C450 1.356 . S
N458 H464 0.984 . S
N458 H465 0.984 . S
N459 C452 1.356 . S
N459 H462 0.984 . S
N459 H463 0.985 . S
H460 N455 0.984 . S
H461 N455 0.985 . S
H462 N459 0.984 . S
H463 N459 0.985 . S
H464 N458 0.984 . S
H465 N458 0.984 . S
H466 N454 0.984 . S
H467 N454 0.985 . S
C468 C469 1.363 . S
C468 C474 1.379 . S
C468 N476 1.356 . S
C469 C468 1.363 . S
C469 C475 1.363 . S
C470 C471 1.363 . S
C470 C475 1.379 . S
C470 N477 1.356 . S
C471 C470 1.363 . S
C471 C474 1.363 . S
N472 C474 1.356 . S
N472 H484 0.984 . S
N472 H485 0.985 . S
N473 C475 1.356 . S
N473 H478 0.984 . S
N473 H479 0.985 . S
C474 C468 1.379 . S
C474 C471 1.363 . S
C474 N472 1.356 . S
C475 C469 1.363 . S
C475 C470 1.379 . S
C475 N473 1.356 . S
N476 C468 1.356 . S
N476 H482 0.984 . S
N476 H483 0.984 . S
N477 C470 1.356 . S
N477 H480 0.984 . S
N477 H481 0.985 . S
H478 N473 0.984 . S
H479 N473 0.985 . S
H480 N477 0.984 . S
H481 N477 0.985 . S
H482 N476 0.984 . S
H483 N476 0.984 . S
H484 N472 0.984 . S
H485 N472 0.985 . S
C486 C487 1.363 . S
C486 C492 1.379 1_655 S
C486 N494 1.356 . S
C487 C486 1.363 . S
C487 C493 1.363 . S
C488 C489 1.363 . S
C488 C493 1.379 1_455 S
C488 N495 1.356 . S
C489 C488 1.363 . S
C489 C492 1.363 . S
N490 C492 1.356 . S
N490 H502 0.984 . S
N490 H503 0.985 . S
N491 C493 1.356 . S
N491 H496 0.984 . S
N491 H497 0.985 . S
C492 C486 1.379 1_455 S
C492 C489 1.363 . S
C492 N490 1.356 . S
C493 C487 1.363 . S
C493 C488 1.379 1_655 S
C493 N491 1.356 . S
N494 C486 1.356 . S
N494 H500 0.984 . S
N494 H501 0.984 . S
N495 C488 1.356 . S
N495 H498 0.984 . S
N495 H499 0.985 . S
H496 N491 0.984 . S
H497 N491 0.985 . S
H498 N495 0.984 . S
H499 N495 0.985 . S
H500 N494 0.984 . S
H501 N494 0.984 . S
H502 N490 0.984 . S
H503 N490 0.985 . S
C504 C505 1.363 . S
C504 C510 1.379 1_545 S
C504 N512 1.356 . S
C505 C504 1.363 . S
C505 C511 1.363 . S
C506 C507 1.363 . S
C506 C511 1.379 1_565 S
C506 N513 1.356 . S
C507 C506 1.363 . S
C507 C510 1.363 . S
N508 C510 1.356 . S
N508 H520 0.984 . S
N508 H521 0.985 . S
N509 C511 1.356 . S
N509 H514 0.984 . S
N509 H515 0.985 . S
C510 C504 1.379 1_565 S
C510 C507 1.363 . S
C510 N508 1.356 . S
C511 C505 1.363 . S
C511 C506 1.379 1_545 S
C511 N509 1.356 . S
N512 C504 1.356 . S
N512 H518 0.984 . S
N512 H519 0.984 . S
N513 C506 1.356 . S
N513 H516 0.984 . S
N513 H517 0.985 . S
H514 N509 0.984 . S
H515 N509 0.985 . S
H516 N513 0.984 . S
H517 N513 0.985 . S
H518 N512 0.984 . S
H519 N512 0.984 . S
H520 N508 0.984 . S
H521 N508 0.985 . S
C522 C523 1.363 . S
C522 C528 1.379 . S
C522 N530 1.356 . S
C523 C522 1.363 . S
C523 C529 1.363 . S
C524 C525 1.363 . S
C524 C529 1.379 . S
C524 N531 1.356 . S
C525 C524 1.363 . S
C525 C528 1.363 . S
N526 C528 1.356 . S
N526 H538 0.984 . S
N526 H539 0.985 . S
N527 C529 1.356 . S
N527 H532 0.984 . S
N527 H533 0.985 . S
C528 C522 1.379 . S
C528 C525 1.363 . S
C528 N526 1.356 . S
C529 C523 1.363 . S
C529 C524 1.379 . S
C529 N527 1.356 . S
N530 C522 1.356 . S
N530 H536 0.984 . S
N530 H537 0.984 . S
N531 C524 1.356 . S
N531 H534 0.984 . S
N531 H535 0.985 . S
H532 N527 0.984 . S
H533 N527 0.985 . S
H534 N531 0.984 . S
H535 N531 0.985 . S
H536 N530 0.984 . S
H537 N530 0.984 . S
H538 N526 0.984 . S
H539 N526 0.985 . S
C540 C541 1.363 . S
C540 C546 1.379 . S
C540 N548 1.356 . S
C541 C540 1.363 . S
C541 C547 1.363 . S
C542 C543 1.363 . S
C542 C547 1.379 . S
C542 N549 1.356 . S
C543 C542 1.363 . S
C543 C546 1.363 . S
N544 C546 1.356 . S
N544 H556 0.984 . S
N544 H557 0.985 . S
N545 C547 1.356 . S
N545 H550 0.984 . S
N545 H551 0.985 . S
C546 C540 1.379 . S
C546 C543 1.363 . S
C546 N544 1.356 . S
C547 C541 1.363 . S
C547 C542 1.379 . S
C547 N545 1.356 . S
N548 C540 1.356 . S
N548 H554 0.984 . S
N548 H555 0.984 . S
N549 C542 1.356 . S
N549 H552 0.984 . S
N549 H553 0.985 . S
H550 N545 0.984 . S
H551 N545 0.985 . S
H552 N549 0.984 . S
H553 N549 0.985 . S
H554 N548 0.984 . S
H555 N548 0.984 . S
H556 N544 0.984 . S
H557 N544 0.985 . S
C558 C559 1.363 1_655 S
C558 C564 1.379 . S
C558 N566 1.356 . S
C559 C558 1.363 1_455 S
C559 C565 1.363 . S
C560 C561 1.363 1_455 S
C560 C565 1.379 . S
C560 N567 1.356 . S
C561 C560 1.363 1_655 S
C561 C564 1.363 . S
N562 C564 1.356 . S
N562 H574 0.984 . S
N562 H575 0.985 . S
N563 C565 1.356 . S
N563 H568 0.984 . S
N563 H569 0.985 . S
C564 C558 1.379 . S
C564 C561 1.363 . S
C564 N562 1.356 . S
C565 C559 1.363 . S
C565 C560 1.379 . S
C565 N563 1.356 . S
N566 C558 1.356 . S
N566 H572 0.984 . S
N566 H573 0.984 1_655 S
N567 C560 1.356 . S
N567 H570 0.984 1_455 S
N567 H571 0.985 . S
H568 N563 0.984 . S
H569 N563 0.985 . S
H570 N567 0.984 1_655 S
H571 N567 0.985 . S
H572 N566 0.984 . S
H573 N566 0.984 1_455 S
H574 N562 0.984 . S
H575 N562 0.985 . S
C576 C577 1.363 1_565 S
C576 C582 1.379 . S
C576 N584 1.356 . S
C577 C576 1.363 1_545 S
C577 C583 1.363 . S
C578 C579 1.363 1_545 S
C578 C583 1.379 . S
C578 N585 1.356 . S
C579 C578 1.363 1_565 S
C579 C582 1.363 . S
N580 C582 1.356 . S
N580 H592 0.984 . S
N580 H593 0.985 . S
N581 C583 1.356 . S
N581 H586 0.984 . S
N581 H587 0.985 . S
C582 C576 1.379 . S
C582 C579 1.363 . S
C582 N580 1.356 . S
C583 C577 1.363 . S
C583 C578 1.379 . S
C583 N581 1.356 . S
N584 C576 1.356 . S
N584 H590 0.984 . S
N584 H591 0.984 1_565 S
N585 C578 1.356 . S
N585 H588 0.984 1_545 S
N585 H589 0.985 . S
H586 N581 0.984 . S
H587 N581 0.985 . S
H588 N585 0.984 1_565 S
H589 N585 0.985 . S
H590 N584 0.984 . S
H591 N584 0.984 1_545 S
H592 N580 0.984 . S
H593 N580 0.985 . S
C594 C595 1.363 . S
C594 C600 1.379 . S
C594 N602 1.356 . S
C595 C594 1.363 . S
C595 C601 1.363 . S
C596 C597 1.363 . S
C596 C601 1.379 . S
C596 N603 1.356 . S
C597 C596 1.363 . S
C597 C600 1.363 . S
N598 C600 1.356 . S
N598 H610 0.984 . S
N598 H611 0.985 . S
N599 C601 1.356 . S
N599 H604 0.984 . S
N599 H605 0.985 . S
C600 C594 1.379 . S
C600 C597 1.363 . S
C600 N598 1.356 . S
C601 C595 1.363 . S
C601 C596 1.379 . S
C601 N599 1.356 . S
N602 C594 1.356 . S
N602 H608 0.984 . S
N602 H609 0.984 . S
N603 C596 1.356 . S
N603 H606 0.984 . S
N603 H607 0.985 . S
H604 N599 0.984 . S
H605 N599 0.985 . S
H606 N603 0.984 . S
H607 N603 0.985 . S
H608 N602 0.984 . S
H609 N602 0.984 . S
H610 N598 0.984 . S
H611 N598 0.985 . S
C612 C613 1.363 . S
C612 C618 1.379 . S
C612 N620 1.356 . S
C613 C612 1.363 . S
C613 C619 1.363 1_655 S
C614 C615 1.363 . S
C614 C619 1.379 . S
C614 N621 1.356 . S
C615 C614 1.363 . S
C615 C618 1.363 1_455 S
N616 C618 1.356 . S
N616 H628 0.984 . S
N616 H629 0.985 1_655 S
N617 C619 1.356 . S
N617 H622 0.984 1_455 S
N617 H623 0.985 . S
C618 C612 1.379 . S
C618 C615 1.363 1_655 S
C618 N616 1.356 . S
C619 C613 1.363 1_455 S
C619 C614 1.379 . S
C619 N617 1.356 . S
N620 C612 1.356 . S
N620 H626 0.984 . S
N620 H627 0.984 . S
N621 C614 1.356 . S
N621 H624 0.984 . S
N621 H625 0.985 . S
H622 N617 0.984 1_655 S
H623 N617 0.985 . S
H624 N621 0.984 . S
H625 N621 0.985 . S
H626 N620 0.984 . S
H627 N620 0.984 . S
H628 N616 0.984 . S
H629 N616 0.985 1_455 S
C630 C631 1.363 . S
C630 C636 1.379 . S
C630 N638 1.356 . S
C631 C630 1.363 . S
C631 C637 1.363 1_565 S
C632 C633 1.363 . S
C632 C637 1.379 . S
C632 N639 1.356 . S
C633 C632 1.363 . S
C633 C636 1.363 1_545 S
N634 C636 1.356 . S
N634 H646 0.984 . S
N634 H647 0.985 1_565 S
N635 C637 1.356 . S
N635 H640 0.984 1_545 S
N635 H641 0.985 . S
C636 C630 1.379 . S
C636 C633 1.363 1_565 S
C636 N634 1.356 . S
C637 C631 1.363 1_545 S
C637 C632 1.379 . S
C637 N635 1.356 . S
N638 C630 1.356 . S
N638 H644 0.984 . S
N638 H645 0.984 . S
N639 C632 1.356 . S
N639 H642 0.984 . S
N639 H643 0.985 . S
H640 N635 0.984 1_565 S
H641 N635 0.985 . S
H642 N639 0.984 . S
H643 N639 0.985 . S
H644 N638 0.984 . S
H645 N638 0.984 . S
H646 N634 0.984 . S
H647 N634 0.985 1_545 S
C648 C649 1.363 . S
C648 C654 1.379 . S
C648 N656 1.356 . S
C649 C648 1.363 . S
C649 C655 1.363 . S
C650 C651 1.363 . S
C650 C655 1.379 . S
C650 N657 1.356 . S
C651 C650 1.363 . S
C651 C654 1.363 . S
N652 C654 1.356 . S
N652 H664 0.984 . S
N652 H665 0.985 . S
N653 C655 1.356 . S
N653 H658 0.984 1_545 S
N653 H659 0.985 . S
C654 C648 1.379 . S
C654 C651 1.363 . S
C654 N652 1.356 . S
C655 C649 1.363 . S
C655 C650 1.379 . S
C655 N653 1.356 . S
N656 C648 1.356 . S
N656 H662 0.984 . S
N656 H663 0.984 . S
N657 C650 1.356 . S
N657 H660 0.984 . S
N657 H661 0.985 . S
H658 N653 0.984 1_565 S
H659 N653 0.985 . S
H660 N657 0.984 . S
H661 N657 0.985 . S
H662 N656 0.984 . S
H663 N656 0.984 . S
H664 N652 0.984 . S
H665 N652 0.985 . S
C666 C667 1.363 . S
C666 C672 1.379 . S
C666 N674 1.356 . S
C667 C666 1.363 . S
C667 C673 1.363 . S
C668 C669 1.363 . S
C668 C673 1.379 . S
C668 N675 1.356 . S
C669 C668 1.363 . S
C669 C672 1.363 . S
N670 C672 1.356 . S
N670 H682 0.984 . S
N670 H683 0.985 . S
N671 C673 1.356 . S
N671 H676 0.984 . S
N671 H677 0.985 . S
C672 C666 1.379 . S
C672 C669 1.363 . S
C672 N670 1.356 . S
C673 C667 1.363 . S
C673 C668 1.379 . S
C673 N671 1.356 . S
N674 C666 1.356 . S
N674 H680 0.984 . S
N674 H681 0.984 . S
N675 C668 1.356 . S
N675 H678 0.984 . S
N675 H679 0.985 . S
H676 N671 0.984 . S
H677 N671 0.985 . S
H678 N675 0.984 . S
H679 N675 0.985 . S
H680 N674 0.984 . S
H681 N674 0.984 . S
H682 N670 0.984 . S
H683 N670 0.985 . S
C684 C685 1.363 . S
C684 C690 1.379 . S
C684 N692 1.356 . S
C685 C684 1.363 . S
C685 C691 1.363 . S
C686 C687 1.363 . S
C686 C691 1.379 . S
C686 N693 1.356 . S
C687 C686 1.363 . S
C687 C690 1.363 . S
N688 C690 1.356 . S
N688 H700 0.984 . S
N688 H701 0.985 . S
N689 C691 1.356 . S
N689 H694 0.984 . S
N689 H695 0.985 . S
C690 C684 1.379 . S
C690 C687 1.363 . S
C690 N688 1.356 . S
C691 C685 1.363 . S
C691 C686 1.379 . S
C691 N689 1.356 . S
N692 C684 1.356 . S
N692 H698 0.984 . S
N692 H699 0.984 1_655 S
N693 C686 1.356 . S
N693 H696 0.984 . S
N693 H697 0.985 . S
H694 N689 0.984 . S
H695 N689 0.985 . S
H696 N693 0.984 . S
H697 N693 0.985 . S
H698 N692 0.984 . S
H699 N692 0.984 1_455 S
H700 N688 0.984 . S
H701 N688 0.985 . S
C702 C703 1.363 . S
C702 C708 1.379 . S
C702 N710 1.356 . S
C703 C702 1.363 . S
C703 C709 1.363 . S
C704 C705 1.363 . S
C704 C709 1.379 . S
C704 N711 1.356 . S
C705 C704 1.363 . S
C705 C708 1.363 . S
N706 C708 1.356 . S
N706 H718 0.984 . S
N706 H719 0.985 . S
N707 C709 1.356 . S
N707 H712 0.984 . S
N707 H713 0.985 . S
C708 C702 1.379 . S
C708 C705 1.363 . S
C708 N706 1.356 . S
C709 C703 1.363 . S
C709 C704 1.379 . S
C709 N707 1.356 . S
N710 C702 1.356 . S
N710 H716 0.985 1_565 S
N710 H717 0.984 1_565 S
N711 C704 1.356 . S
N711 H714 0.984 . S
N711 H715 0.985 . S
H712 N707 0.984 . S
H713 N707 0.985 . S
H714 N711 0.984 . S
H715 N711 0.985 . S
H716 N710 0.985 1_545 S
H717 N710 0.984 1_545 S
H718 N706 0.984 . S
H719 N706 0.985 . S
C720 C721 1.363 . S
C720 C726 1.379 . S
C720 N728 1.356 . S
C721 C720 1.363 . S
C721 C727 1.363 . S
C722 C723 1.363 . S
C722 C727 1.379 . S
C722 N729 1.356 . S
C723 C722 1.363 . S
C723 C726 1.363 . S
N724 C726 1.356 . S
N724 H736 0.984 . S
N724 H737 0.985 . S
N725 C727 1.356 . S
N725 H730 0.984 . S
N725 H731 0.985 . S
C726 C720 1.379 . S
C726 C723 1.363 . S
C726 N724 1.356 . S
C727 C721 1.363 . S
C727 C722 1.379 . S
C727 N725 1.356 . S
N728 C720 1.356 . S
N728 H734 0.984 . S
N728 H735 0.984 . S
N729 C722 1.356 . S
N729 H732 0.984 1_655 S
N729 H733 0.985 . S
H730 N725 0.984 . S
H731 N725 0.985 . S
H732 N729 0.984 1_455 S
H733 N729 0.985 . S
H734 N728 0.984 . S
H735 N728 0.984 . S
H736 N724 0.984 . S
H737 N724 0.985 . S
C738 C739 1.363 . S
C738 C744 1.379 . S
C738 N746 1.356 . S
C739 C738 1.363 . S
C739 C745 1.363 . S
C740 C741 1.363 . S
C740 C745 1.379 . S
C740 N747 1.356 . S
C741 C740 1.363 . S
C741 C744 1.363 . S
N742 C744 1.356 . S
N742 H754 0.984 . S
N742 H755 0.985 . S
N743 C745 1.356 . S
N743 H748 0.984 1_565 S
N743 H749 0.985 . S
C744 C738 1.379 . S
C744 C741 1.363 . S
C744 N742 1.356 . S
C745 C739 1.363 . S
C745 C740 1.379 . S
C745 N743 1.356 . S
N746 C738 1.356 . S
N746 H752 0.984 . S
N746 H753 0.984 . S
N747 C740 1.356 . S
N747 H750 0.984 . S
N747 H751 0.985 . S
H748 N743 0.984 1_545 S
H749 N743 0.985 . S
H750 N747 0.984 . S
H751 N747 0.985 . S
H752 N746 0.984 . S
H753 N746 0.984 . S
H754 N742 0.984 . S
H755 N742 0.985 . S
C756 C757 1.363 . S
C756 C762 1.379 . S
C756 N764 1.356 . S
C757 C756 1.363 . S
C757 C763 1.363 . S
C758 C759 1.363 . S
C758 C763 1.379 . S
C758 N765 1.356 . S
C759 C758 1.363 . S
C759 C762 1.363 . S
N760 C762 1.356 . S
N760 H772 0.984 . S
N760 H773 0.985 . S
N761 C763 1.356 . S
N761 H766 0.984 . S
N761 H767 0.985 . S
C762 C756 1.379 . S
C762 C759 1.363 . S
C762 N760 1.356 . S
C763 C757 1.363 . S
C763 C758 1.379 . S
C763 N761 1.356 . S
N764 C756 1.356 . S
N764 H770 0.984 . S
N764 H771 0.984 . S
N765 C758 1.356 . S
N765 H768 0.984 . S
N765 H769 0.985 . S
H766 N761 0.984 . S
H767 N761 0.985 . S
H768 N765 0.984 . S
H769 N765 0.985 . S
H770 N764 0.984 . S
H771 N764 0.984 . S
H772 N760 0.984 . S
H773 N760 0.985 . S
C774 C775 1.363 . S
C774 C780 1.379 1_655 S
C774 N782 1.356 . S
C775 C774 1.363 . S
C775 C781 1.363 . S
C776 C777 1.363 . S
C776 C781 1.379 1_455 S
C776 N783 1.356 . S
C777 C776 1.363 . S
C777 C780 1.363 . S
N778 C780 1.356 . S
N778 H790 0.984 . S
N778 H791 0.985 . S
N779 C781 1.356 . S
N779 H784 0.984 . S
N779 H785 0.985 . S
C780 C774 1.379 1_455 S
C780 C777 1.363 . S
C780 N778 1.356 . S
C781 C775 1.363 . S
C781 C776 1.379 1_655 S
C781 N779 1.356 . S
N782 C774 1.356 . S
N782 H788 0.984 . S
N782 H789 0.984 . S
N783 C776 1.356 . S
N783 H786 0.984 . S
N783 H787 0.985 . S
H784 N779 0.984 . S
H785 N779 0.985 . S
H786 N783 0.984 . S
H787 N783 0.985 . S
H788 N782 0.984 . S
H789 N782 0.984 . S
H790 N778 0.984 . S
H791 N778 0.985 . S
C792 C793 1.363 1_565 S
C792 C798 1.379 1_554 S
C792 N800 1.356 . S
C793 C792 1.363 1_545 S
C793 C799 1.363 . S
C794 C795 1.363 1_545 S
C794 C799 1.379 1_556 S
C794 N801 1.356 . S
C795 C794 1.363 1_565 S
C795 C798 1.363 . S
N796 C798 1.356 . S
N796 H808 0.984 . S
N796 H809 0.985 . S
N797 C799 1.356 . S
N797 H802 0.984 . S
N797 H803 0.985 . S
C798 C792 1.379 1_556 S
C798 C795 1.363 . S
C798 N796 1.356 . S
C799 C793 1.363 . S
C799 C794 1.379 1_554 S
C799 N797 1.356 . S
N800 C792 1.356 . S
N800 H806 0.984 . S
N800 H807 0.984 . S
N801 C794 1.356 . S
N801 H804 0.984 . S
N801 H805 0.985 . S
H802 N797 0.984 . S
H803 N797 0.985 . S
H804 N801 0.984 . S
H805 N801 0.985 . S
H806 N800 0.984 . S
H807 N800 0.984 . S
H808 N796 0.984 . S
H809 N796 0.985 . S
C810 C811 1.363 . S
C810 C816 1.379 . S
C810 N818 1.356 . S
C811 C810 1.363 . S
C811 C817 1.363 . S
C812 C813 1.363 . S
C812 C817 1.379 . S
C812 N819 1.356 . S
C813 C812 1.363 . S
C813 C816 1.363 . S
N814 C816 1.356 . S
N814 H826 0.984 . S
N814 H827 0.985 . S
N815 C817 1.356 . S
N815 H820 0.984 . S
N815 H821 0.985 . S
C816 C810 1.379 . S
C816 C813 1.363 . S
C816 N814 1.356 . S
C817 C811 1.363 . S
C817 C812 1.379 . S
C817 N815 1.356 . S
N818 C810 1.356 . S
N818 H824 0.984 . S
N818 H825 0.984 . S
N819 C812 1.356 . S
N819 H822 0.984 . S
N819 H823 0.985 . S
H820 N815 0.984 . S
H821 N815 0.985 . S
H822 N819 0.984 . S
H823 N819 0.985 . S
H824 N818 0.984 . S
H825 N818 0.984 . S
H826 N814 0.984 . S
H827 N814 0.985 . S
C828 C829 1.363 . S
C828 C834 1.379 . S
C828 N836 1.356 . S
C829 C828 1.363 . S
C829 C835 1.363 1_455 S
C830 C831 1.363 . S
C830 C835 1.379 . S
C830 N837 1.356 . S
C831 C830 1.363 . S
C831 C834 1.363 1_655 S
N832 C834 1.356 . S
N832 H844 0.984 . S
N832 H845 0.985 1_455 S
N833 C835 1.356 . S
N833 H838 0.984 1_655 S
N833 H839 0.985 . S
C834 C828 1.379 . S
C834 C831 1.363 1_455 S
C834 N832 1.356 . S
C835 C829 1.363 1_655 S
C835 C830 1.379 . S
C835 N833 1.356 . S
N836 C828 1.356 . S
N836 H842 0.984 . S
N836 H843 0.984 . S
N837 C830 1.356 . S
N837 H840 0.984 . S
N837 H841 0.985 . S
H838 N833 0.984 1_455 S
H839 N833 0.985 . S
H840 N837 0.984 . S
H841 N837 0.985 . S
H842 N836 0.984 . S
H843 N836 0.984 . S
H844 N832 0.984 . S
H845 N832 0.985 1_655 S
C846 C847 1.363 1_545 S
C846 C852 1.379 1_554 S
C846 N854 1.356 . S
C847 C846 1.363 1_565 S
C847 C853 1.363 . S
C848 C849 1.363 1_565 S
C848 C853 1.379 1_556 S
C848 N855 1.356 . S
C849 C848 1.363 1_545 S
C849 C852 1.363 . S
N850 C852 1.356 . S
N850 H862 0.984 . S
N850 H863 0.985 . S
N851 C853 1.356 . S
N851 H856 0.984 . S
N851 H857 0.985 . S
C852 C846 1.379 1_556 S
C852 C849 1.363 . S
C852 N850 1.356 . S
C853 C847 1.363 . S
C853 C848 1.379 1_554 S
C853 N851 1.356 . S
N854 C846 1.356 . S
N854 H860 0.984 . S
N854 H861 0.984 1_545 S
N855 C848 1.356 . S
N855 H858 0.984 1_565 S
N855 H859 0.985 . S
H856 N851 0.984 . S
H857 N851 0.985 . S
H858 N855 0.984 1_545 S
H859 N855 0.985 . S
H860 N854 0.984 . S
H861 N854 0.984 1_565 S
H862 N850 0.984 . S
H863 N850 0.985 . S
C433 C399 1.597 . S
C435 C3 1.597 . S
C451 C39 1.597 . S
C453 C219 1.597 . S
C469 C75 1.597 . S
C471 C255 1.597 . S
C487 C111 1.597 . S
C489 C291 1.597 . S
C505 C327 1.597 . S
C507 C147 1.597 . S
C523 C183 1.597 . S
C525 C363 1.597 . S
C541 C112 1.308 . S
C543 C4 1.308 . S
C559 C148 1.308 . S
C561 C40 1.308 . S
C577 C184 1.308 . S
C579 C76 1.308 . S
C595 C220 1.308 . S
C597 C328 1.308 . S
C613 C256 1.308 . S
C615 C364 1.308 . S
C631 C292 1.308 . S
C633 C400 1.308 . S
C649 C290 0.826 . S
C651 C2 0.826 . S
C667 C38 0.826 . S
C669 C326 0.826 . S
C685 C362 0.826 . S
C687 C74 0.826 . S
C703 C398 0.826 . S
C705 C110 0.826 . S
C721 C218 0.827 . S
C723 C146 0.827 . S
C739 C182 0.826 . S
C741 C254 0.826 . S
C757 C338 1.485 . S
C759 C14 1.485 . S
C775 C50 1.485 . S
C777 C374 1.485 . S
C793 C410 1.485 . S
C795 C86 1.485 . S
C811 C122 1.485 . S
C813 C230 1.485 . S
C829 C158 1.485 . S
C831 C266 1.485 . S
C847 C302 1.485 . S
C849 C194 1.485 . S
