# Generated by pormake.
# Topology sin, (3)-cn, num edge types: 1
# Building blocks:
#     Node 0, Type 0, BuildingBlock: OLANEW_clean_sbu_2, # of connection points: 3
#     Node 1, Type 0, BuildingBlock: OLANEW_clean_sbu_2, # of connection points: 3
#     Node 2, Type 0, BuildingBlock: OLANEW_clean_sbu_2, # of connection points: 3
#     Node 3, Type 0, BuildingBlock: OLANEW_clean_sbu_2, # of connection points: 3
#     Node 4, Type 0, BuildingBlock: OLANEW_clean_sbu_2, # of connection points: 3
#     Node 5, Type 0, BuildingBlock: OLANEW_clean_sbu_2, # of connection points: 3
#     Node 6, Type 0, BuildingBlock: OLANEW_clean_sbu_2, # of connection points: 3
#     Node 7, Type 0, BuildingBlock: OLANEW_clean_sbu_2, # of connection points: 3
#     Node 8, Type 0, BuildingBlock: OLANEW_clean_sbu_2, # of connection points: 3
#     Node 9, Type 0, BuildingBlock: OLANEW_clean_sbu_2, # of connection points: 3
#     Node 10, Type 0, BuildingBlock: OLANEW_clean_sbu_2, # of connection points: 3
#     Node 11, Type 0, BuildingBlock: OLANEW_clean_sbu_2, # of connection points: 3
#     Node 12, Type 0, BuildingBlock: OLANEW_clean_sbu_2, # of connection points: 3
#     Node 13, Type 0, BuildingBlock: OLANEW_clean_sbu_2, # of connection points: 3
#     Node 14, Type 0, BuildingBlock: OLANEW_clean_sbu_2, # of connection points: 3
#     Node 15, Type 0, BuildingBlock: OLANEW_clean_sbu_2, # of connection points: 3
#     Node 16, Type 0, BuildingBlock: OLANEW_clean_sbu_2, # of connection points: 3
#     Node 17, Type 0, BuildingBlock: OLANEW_clean_sbu_2, # of connection points: 3
#     Node 18, Type 0, BuildingBlock: OLANEW_clean_sbu_2, # of connection points: 3
#     Node 19, Type 0, BuildingBlock: OLANEW_clean_sbu_2, # of connection points: 3
#     Node 20, Type 0, BuildingBlock: OLANEW_clean_sbu_2, # of connection points: 3
#     Node 21, Type 0, BuildingBlock: OLANEW_clean_sbu_2, # of connection points: 3
#     Node 22, Type 0, BuildingBlock: OLANEW_clean_sbu_2, # of connection points: 3
#     Node 23, Type 0, BuildingBlock: OLANEW_clean_sbu_2, # of connection points: 3
#     Node 24, Type 0, BuildingBlock: OLANEW_clean_sbu_2, # of connection points: 3
#     Node 25, Type 0, BuildingBlock: OLANEW_clean_sbu_2, # of connection points: 3
#     Node 26, Type 0, BuildingBlock: OLANEW_clean_sbu_2, # of connection points: 3
#     Node 27, Type 0, BuildingBlock: OLANEW_clean_sbu_2, # of connection points: 3
#     Node 28, Type 0, BuildingBlock: OLANEW_clean_sbu_2, # of connection points: 3
#     Node 29, Type 0, BuildingBlock: OLANEW_clean_sbu_2, # of connection points: 3
#     Node 30, Type 0, BuildingBlock: OLANEW_clean_sbu_2, # of connection points: 3
#     Node 31, Type 0, BuildingBlock: OLANEW_clean_sbu_2, # of connection points: 3
#     Node 32, Type 0, BuildingBlock: OLANEW_clean_sbu_2, # of connection points: 3
#     Node 33, Type 0, BuildingBlock: OLANEW_clean_sbu_2, # of connection points: 3
#     Node 34, Type 0, BuildingBlock: OLANEW_clean_sbu_2, # of connection points: 3
#     Node 35, Type 0, BuildingBlock: OLANEW_clean_sbu_2, # of connection points: 3
#     Node 36, Type 0, BuildingBlock: OLANEW_clean_sbu_2, # of connection points: 3
#     Node 37, Type 0, BuildingBlock: OLANEW_clean_sbu_2, # of connection points: 3
#     Node 38, Type 0, BuildingBlock: OLANEW_clean_sbu_2, # of connection points: 3
#     Node 39, Type 0, BuildingBlock: OLANEW_clean_sbu_2, # of connection points: 3
#     Node 40, Type 0, BuildingBlock: OLANEW_clean_sbu_2, # of connection points: 3
#     Node 41, Type 0, BuildingBlock: OLANEW_clean_sbu_2, # of connection points: 3
#     Node 42, Type 0, BuildingBlock: OLANEW_clean_sbu_2, # of connection points: 3
#     Node 43, Type 0, BuildingBlock: OLANEW_clean_sbu_2, # of connection points: 3
#     Node 44, Type 0, BuildingBlock: OLANEW_clean_sbu_2, # of connection points: 3
#     Node 45, Type 0, BuildingBlock: OLANEW_clean_sbu_2, # of connection points: 3
#     Node 46, Type 0, BuildingBlock: OLANEW_clean_sbu_2, # of connection points: 3
#     Node 47, Type 0, BuildingBlock: OLANEW_clean_sbu_2, # of connection points: 3
#     Edge 48, Type (0, 0), None
#     Edge 49, Type (0, 0), None
#     Edge 50, Type (0, 0), None
#     Edge 51, Type (0, 0), None
#     Edge 52, Type (0, 0), None
#     Edge 53, Type (0, 0), None
#     Edge 54, Type (0, 0), None
#     Edge 55, Type (0, 0), None
#     Edge 56, Type (0, 0), None
#     Edge 57, Type (0, 0), None
#     Edge 58, Type (0, 0), None
#     Edge 59, Type (0, 0), None
#     Edge 60, Type (0, 0), None
#     Edge 61, Type (0, 0), None
#     Edge 62, Type (0, 0), None
#     Edge 63, Type (0, 0), None
#     Edge 64, Type (0, 0), None
#     Edge 65, Type (0, 0), None
#     Edge 66, Type (0, 0), None
#     Edge 67, Type (0, 0), None
#     Edge 68, Type (0, 0), None
#     Edge 69, Type (0, 0), None
#     Edge 70, Type (0, 0), None
#     Edge 71, Type (0, 0), None
#     Edge 72, Type (0, 0), None
#     Edge 73, Type (0, 0), None
#     Edge 74, Type (0, 0), None
#     Edge 75, Type (0, 0), None
#     Edge 76, Type (0, 0), None
#     Edge 77, Type (0, 0), None
#     Edge 78, Type (0, 0), None
#     Edge 79, Type (0, 0), None
#     Edge 80, Type (0, 0), None
#     Edge 81, Type (0, 0), None
#     Edge 82, Type (0, 0), None
#     Edge 83, Type (0, 0), None
#     Edge 84, Type (0, 0), None
#     Edge 85, Type (0, 0), None
#     Edge 86, Type (0, 0), None
#     Edge 87, Type (0, 0), None
#     Edge 88, Type (0, 0), None
#     Edge 89, Type (0, 0), None
#     Edge 90, Type (0, 0), None
#     Edge 91, Type (0, 0), None
#     Edge 92, Type (0, 0), None
#     Edge 93, Type (0, 0), None
#     Edge 94, Type (0, 0), None
#     Edge 95, Type (0, 0), None
#     Edge 96, Type (0, 0), None
#     Edge 97, Type (0, 0), None
#     Edge 98, Type (0, 0), None
#     Edge 99, Type (0, 0), None
#     Edge 100, Type (0, 0), None
#     Edge 101, Type (0, 0), None
#     Edge 102, Type (0, 0), None
#     Edge 103, Type (0, 0), None
#     Edge 104, Type (0, 0), None
#     Edge 105, Type (0, 0), None
#     Edge 106, Type (0, 0), None
#     Edge 107, Type (0, 0), None
#     Edge 108, Type (0, 0), None
#     Edge 109, Type (0, 0), None
#     Edge 110, Type (0, 0), None
#     Edge 111, Type (0, 0), None
#     Edge 112, Type (0, 0), None
#     Edge 113, Type (0, 0), None
#     Edge 114, Type (0, 0), None
#     Edge 115, Type (0, 0), None
#     Edge 116, Type (0, 0), None
#     Edge 117, Type (0, 0), None
#     Edge 118, Type (0, 0), None
#     Edge 119, Type (0, 0), None
# Relax obj value: 0.040
# Max RMSD: 0.115
# Mean RMSD: 0.062
data_MOF--net-sin--node1-OLANEW_clean_sbu_2--edge1-none
_symmetry_space_group_name_H-M    P1
_symmetry_Int_Tables_number       1
_symmetry_cell_setting            triclinic
loop_
_symmetry_equiv_pos_as_xyz
'x, y, z'
_cell_length_a     51.02408
_cell_length_b     51.023567
_cell_length_c     51.023316
_cell_angle_alpha  84.293147
_cell_angle_beta   84.293966
_cell_angle_gamma 84.293347
loop_
_atom_site_label
_atom_site_type_symbol
_atom_site_fract_x
_atom_site_fract_y
_atom_site_fract_z
_atom_type_partial_charge
O0 O 0.99592 0.42744 0.03031 0.0
Cd1 Cd 0.00731 0.47269 0.01847 0.0
O2 O 0.00432 0.43211 0.07089 0.0
Cd3 Cd 0.00586 0.41785 0.11289 0.0
O4 O 0.99293 0.40785 0.15459 0.0
C5 C 0.0051 0.39418 0.17263 0.0
O6 O 0.99302 0.39109 0.19654 0.0
C7 C 0.99634 0.41828 0.05435 0.0
C8 C 0.97463 0.5065 0.04975 0.0
O9 O 0.9677 0.50091 0.02765 0.0
O10 O 0.99713 0.49655 0.05693 0.0
O11 O 0.96844 0.6607 0.44119 0.0
Cd12 Cd 0.94943 0.70391 0.45391 0.0
O13 O 0.99206 0.67573 0.40533 0.0
Cd14 Cd 0.97517 0.71673 0.40309 0.0
O15 O 0.98311 0.74524 0.36927 0.0
C16 C 0.99142 0.76751 0.37122 0.0
O17 O 0.99262 0.77544 0.39475 0.0
C18 C 0.98547 0.65669 0.42177 0.0
C19 C 0.89548 0.71326 0.44869 0.0
O20 O 0.9122 0.72466 0.43209 0.0
O21 O 0.90415 0.6973 0.46752 0.0
O22 O 0.46249 0.62491 0.6156 0.0
Cd23 Cd 0.44606 0.59345 0.6512 0.0
O24 O 0.43473 0.65542 0.63319 0.0
Cd25 Cd 0.4164 0.69617 0.63587 0.0
O26 O 0.39866 0.73732 0.6321 0.0
C27 C 0.40145 0.74941 0.60915 0.0
O28 O 0.4144 0.73693 0.58984 0.0
C29 C 0.45307 0.64891 0.61558 0.0
C30 C 0.48577 0.55568 0.66761 0.0
O31 O 0.46967 0.55032 0.65159 0.0
O32 O 0.48324 0.57879 0.67583 0.0
O33 O 0.59126 0.27127 0.94163 0.0
Cd34 Cd 0.54925 0.29441 0.9578 0.0
O35 O 0.59192 0.29118 0.90125 0.0
Cd36 Cd 0.55057 0.30656 0.90743 0.0
O37 O 0.51516 0.28702 0.90363 0.0
C38 C 0.51159 0.28094 0.88077 0.0
O39 O 0.52731 0.28928 0.86033 0.0
C40 C 0.60291 0.27531 0.91857 0.0
C41 C 0.55518 0.34339 0.97504 0.0
O42 O 0.5576 0.32223 0.99069 0.0
O43 O 0.5501 0.3415 0.95124 0.0
O44 O 0.98578 0.61013 0.42966 0.0
Cd45 Cd 0.00076 0.56547 0.41826 0.0
O46 O 0.01643 0.62565 0.40061 0.0
Cd47 Cd 0.03686 0.65774 0.37782 0.0
O48 O 0.05276 0.68854 0.34923 0.0
C49 C 0.0401 0.69405 0.3289 0.0
O50 O 0.01921 0.68155 0.32685 0.0
C51 C 0.99663 0.62971 0.41741 0.0
C52 C 0.98412 0.5584 0.36929 0.0
O53 O 0.96915 0.55393 0.39062 0.0
O54 O 0.00708 0.56586 0.37101 0.0
O55 O 0.48186 0.66251 0.57812 0.0
Cd56 Cd 0.49746 0.69618 0.54416 0.0
O57 O 0.45773 0.69333 0.59922 0.0
Cd58 Cd 0.47848 0.72642 0.58002 0.0
O59 O 0.48717 0.75508 0.60607 0.0
C60 C 0.47309 0.77698 0.60658 0.0
O61 O 0.4566 0.78378 0.58837 0.0
C62 C 0.46437 0.66909 0.5964 0.0
C63 C 0.53567 0.67687 0.50631 0.0
O64 O 0.51113 0.67441 0.50488 0.0
O65 O 0.54228 0.68808 0.52574 0.0
O66 O 0.63538 0.25906 0.88627 0.0
Cd67 Cd 0.67135 0.22951 0.86695 0.0
O68 O 0.63552 0.23979 0.92687 0.0
Cd69 Cd 0.66143 0.20625 0.91325 0.0
O70 O 0.65529 0.17179 0.89321 0.0
C71 C 0.64243 0.15381 0.90604 0.0
O72 O 0.63588 0.15503 0.93147 0.0
C73 C 0.62657 0.25815 0.91052 0.0
C74 C 0.70502 0.25734 0.8305 0.0
O75 O 0.68395 0.24935 0.82353 0.0
O76 O 0.71033 0.25212 0.85459 0.0
O77 O 0.98525 0.37592 0.04619 0.0
Cd78 Cd 0.97306 0.33051 0.05492 0.0
O79 O 0.98158 0.38612 0.08753 0.0
Cd80 Cd 0.96822 0.34986 0.10827 0.0
O81 O 0.974 0.33381 0.14856 0.0
C82 C 0.98993 0.31341 0.15249 0.0
O83 O 0.9995 0.30013 0.13237 0.0
C84 C 0.98731 0.39215 0.06305 0.0
C85 C 0.91933 0.32537 0.06708 0.0
O86 O 0.93514 0.32275 0.08533 0.0
O87 O 0.92869 0.33081 0.04315 0.0
O88 O 0.03028 0.99598 0.42746 0.0
Cd89 Cd 0.01843 0.00736 0.47272 0.0
O90 O 0.07086 0.00436 0.43214 0.0
Cd91 Cd 0.11286 0.00589 0.4179 0.0
O92 O 0.15457 0.99296 0.40791 0.0
C93 C 0.17261 0.00513 0.39425 0.0
O94 O 0.19652 0.99306 0.39117 0.0
C95 C 0.05432 0.99639 0.41831 0.0
C96 C 0.04971 0.97466 0.50652 0.0
O97 O 0.02761 0.96774 0.50092 0.0
O98 O 0.05689 0.99716 0.49657 0.0
O99 O 0.2713 0.94173 0.59129 0.0
Cd100 Cd 0.29446 0.9579 0.54929 0.0
O101 O 0.2912 0.90134 0.59195 0.0
Cd102 Cd 0.30659 0.90753 0.5506 0.0
O103 O 0.28706 0.90373 0.51519 0.0
C104 C 0.28098 0.88087 0.51162 0.0
O105 O 0.28932 0.86043 0.52734 0.0
C106 C 0.27534 0.91867 0.60294 0.0
C107 C 0.34345 0.97511 0.55525 0.0
O108 O 0.32229 0.99077 0.55767 0.0
O109 O 0.34155 0.95132 0.55016 0.0
O110 O 0.33786 0.11172 0.81088 0.0
Cd111 Cd 0.3086 0.08378 0.83955 0.0
O112 O 0.33275 0.08929 0.77746 0.0
Cd113 Cd 0.32246 0.05433 0.80309 0.0
O114 O 0.35095 0.02003 0.79889 0.0
C115 C 0.34801 0.00615 0.78028 0.0
O116 O 0.32623 0.01055 0.76818 0.0
C117 C 0.34096 0.1091 0.78623 0.0
C118 C 0.32077 0.07328 0.89159 0.0
O119 O 0.32792 0.05634 0.87473 0.0
O120 O 0.30845 0.09533 0.88378 0.0
O121 O 0.31816 0.16323 0.15624 0.0
Cd122 Cd 0.33375 0.12714 0.1876 0.0
O123 O 0.34566 0.14519 0.12582 0.0
Cd124 Cd 0.36445 0.14209 0.08529 0.0
O125 O 0.38382 0.14483 0.04473 0.0
C126 C 0.38206 0.1677 0.03235 0.0
O127 O 0.36908 0.18741 0.0442 0.0
C128 C 0.32774 0.16322 0.1323 0.0
C129 C 0.29397 0.11217 0.22596 0.0
O130 O 0.3106 0.12787 0.23086 0.0
O131 O 0.29599 0.10362 0.20301 0.0
O132 O 0.20138 0.1187 0.29988 0.0
Cd133 Cd 0.23607 0.08515 0.28544 0.0
O134 O 0.18051 0.08787 0.32425 0.0
Cd135 Cd 0.20121 0.05488 0.30436 0.0
O136 O 0.17739 0.0247 0.29487 0.0
C137 C 0.17674 0.00353 0.31012 0.0
O138 O 0.19389 0.99852 0.32794 0.0
C139 C 0.18291 0.11211 0.31716 0.0
C140 C 0.27355 0.10356 0.24636 0.0
O141 O 0.27509 0.10691 0.27069 0.0
O142 O 0.25412 0.09193 0.24036 0.0
O143 O 0.13199 0.89594 0.52765 0.0
Cd144 Cd 0.09947 0.92291 0.55459 0.0
O145 O 0.12728 0.85903 0.5533 0.0
Cd146 Cd 0.10624 0.8808 0.5849 0.0
O147 O 0.12125 0.90401 0.61291 0.0
C148 C 0.13574 0.89172 0.62985 0.0
O149 O 0.13851 0.86575 0.63181 0.0
C150 C 0.13745 0.87114 0.53234 0.0
C151 C 0.06666 0.95698 0.52347 0.0
O152 O 0.08856 0.96407 0.52942 0.0
O153 O 0.06016 0.93389 0.53223 0.0
O154 O 0.4296 0.9858 0.61018 0.0
Cd155 Cd 0.41821 0.00078 0.56551 0.0
O156 O 0.40052 0.01644 0.6257 0.0
Cd157 Cd 0.37771 0.03685 0.65778 0.0
O158 O 0.34912 0.05273 0.6886 0.0
C159 C 0.3288 0.04006 0.69411 0.0
O160 O 0.32676 0.01917 0.68161 0.0
C161 C 0.41733 0.99665 0.62975 0.0
C162 C 0.36925 0.98415 0.55843 0.0
O163 O 0.39058 0.96917 0.55396 0.0
O164 O 0.37096 0.00711 0.56589 0.0
O165 O 0.37593 0.04624 0.98538 0.0
Cd166 Cd 0.33051 0.05498 0.97322 0.0
O167 O 0.38615 0.08758 0.98167 0.0
Cd168 Cd 0.34989 0.10832 0.96833 0.0
O169 O 0.33386 0.14861 0.97411 0.0
C170 C 0.31346 0.15256 0.99004 0.0
O171 O 0.30016 0.13244 0.99961 0.0
C172 C 0.39218 0.0631 0.98741 0.0
C173 C 0.32534 0.06709 0.91948 0.0
O174 O 0.32274 0.08536 0.93527 0.0
O175 O 0.33077 0.04316 0.92888 0.0
O176 O 0.42746 0.03035 0.996 0.0
Cd177 Cd 0.47272 0.01849 0.00736 0.0
O178 O 0.43214 0.07093 0.0044 0.0
Cd179 Cd 0.4179 0.11292 0.00594 0.0
O180 O 0.40791 0.15464 0.99303 0.0
C181 C 0.39424 0.17267 0.0052 0.0
O182 O 0.39116 0.19659 0.99314 0.0
C183 C 0.41831 0.05439 0.99642 0.0
C184 C 0.50652 0.04973 0.97462 0.0
O185 O 0.50091 0.02763 0.96772 0.0
O186 O 0.49659 0.05694 0.99712 0.0
O187 O 0.81075 0.33795 0.1118 0.0
Cd188 Cd 0.83939 0.30866 0.08386 0.0
O189 O 0.77731 0.33285 0.08939 0.0
Cd190 Cd 0.80293 0.32253 0.05443 0.0
O191 O 0.79874 0.35101 0.0201 0.0
C192 C 0.78012 0.34806 0.00624 0.0
O193 O 0.76801 0.3263 0.01065 0.0
C194 C 0.78611 0.34106 0.10919 0.0
C195 C 0.89143 0.32081 0.0733 0.0
O196 O 0.87456 0.32797 0.05638 0.0
O197 O 0.88364 0.3085 0.09536 0.0
O198 O 0.9417 0.5913 0.27135 0.0
Cd199 Cd 0.95787 0.5493 0.2945 0.0
O200 O 0.90131 0.59197 0.29125 0.0
Cd201 Cd 0.9075 0.55061 0.30664 0.0
O202 O 0.9037 0.5152 0.28711 0.0
C203 C 0.88084 0.51163 0.28103 0.0
O204 O 0.86041 0.52735 0.28937 0.0
C205 C 0.91864 0.60295 0.27539 0.0
C206 C 0.97508 0.55524 0.34349 0.0
O207 O 0.99074 0.55767 0.32233 0.0
O208 O 0.95129 0.55015 0.34159 0.0
O209 O 0.62488 0.61559 0.46251 0.0
Cd210 Cd 0.59342 0.6512 0.4461 0.0
O211 O 0.65539 0.63318 0.43476 0.0
Cd212 Cd 0.69614 0.63586 0.41643 0.0
O213 O 0.73729 0.63209 0.39868 0.0
C214 C 0.74937 0.60913 0.40147 0.0
O215 O 0.73689 0.58982 0.41441 0.0
C216 C 0.64887 0.61556 0.45309 0.0
C217 C 0.55568 0.66763 0.48582 0.0
O218 O 0.5503 0.65161 0.46972 0.0
O219 O 0.57879 0.67583 0.48328 0.0
O220 O 0.04617 0.98533 0.37594 0.0
Cd221 Cd 0.0549 0.97314 0.33052 0.0
O222 O 0.0875 0.98163 0.38615 0.0
Cd223 Cd 0.10825 0.96828 0.34989 0.0
O224 O 0.14854 0.97406 0.33386 0.0
C225 C 0.15249 0.98997 0.31345 0.0
O226 O 0.13238 0.99954 0.30013 0.0
C227 C 0.06302 0.98737 0.39218 0.0
C228 C 0.06704 0.91941 0.32537 0.0
O229 O 0.08529 0.93521 0.32276 0.0
O230 O 0.04311 0.92879 0.33081 0.0
O231 O 0.16716 0.83378 0.52336 0.0
Cd232 Cd 0.20532 0.80766 0.50302 0.0
O233 O 0.1718 0.87058 0.4975 0.0
Cd234 Cd 0.2112 0.85596 0.4815 0.0
O235 O 0.25044 0.85617 0.495 0.0
C236 C 0.26005 0.87827 0.49457 0.0
O237 O 0.2476 0.89959 0.48337 0.0
C238 C 0.15895 0.85749 0.51612 0.0
C239 C 0.19505 0.78563 0.4577 0.0
O240 O 0.1886 0.77448 0.48073 0.0
O241 O 0.20611 0.80729 0.45597 0.0
O242 O 0.89592 0.52765 0.13204 0.0
Cd243 Cd 0.92289 0.55458 0.09952 0.0
O244 O 0.85902 0.55331 0.12733 0.0
Cd245 Cd 0.88079 0.5849 0.1063 0.0
O246 O 0.90399 0.61291 0.12131 0.0
C247 C 0.8917 0.62986 0.1358 0.0
O248 O 0.86573 0.63181 0.13856 0.0
C249 C 0.87113 0.53234 0.1375 0.0
C250 C 0.95695 0.52345 0.06671 0.0
O251 O 0.96405 0.5294 0.0886 0.0
O252 O 0.93386 0.53222 0.06021 0.0
O253 O 0.57805 0.48184 0.66249 0.0
Cd254 Cd 0.54408 0.49743 0.69615 0.0
O255 O 0.59916 0.45771 0.69331 0.0
Cd256 Cd 0.57994 0.47845 0.7264 0.0
O257 O 0.60598 0.48716 0.75506 0.0
C258 C 0.6065 0.47307 0.77696 0.0
O259 O 0.5883 0.45658 0.78376 0.0
C260 C 0.59634 0.46436 0.66907 0.0
C261 C 0.50625 0.53566 0.67685 0.0
O262 O 0.50482 0.51113 0.67438 0.0
O263 O 0.52567 0.54226 0.68808 0.0
O264 O 0.40122 0.79772 0.73403 0.0
Cd265 Cd 0.44548 0.81275 0.73103 0.0
O266 O 0.39549 0.80016 0.6915 0.0
Cd267 Cd 0.43302 0.81389 0.67423 0.0
O268 O 0.45029 0.80754 0.63436 0.0
C269 C 0.46946 0.78999 0.6312 0.0
O270 O 0.48095 0.77887 0.65197 0.0
C271 C 0.3872 0.79471 0.71551 0.0
C272 C 0.44676 0.86707 0.71908 0.0
O273 O 0.45523 0.85101 0.70173 0.0
O274 O 0.43747 0.85763 0.74191 0.0
O275 O 0.52765 0.13195 0.89582 0.0
Cd276 Cd 0.55459 0.09945 0.9228 0.0
O277 O 0.5533 0.12725 0.85892 0.0
Cd278 Cd 0.5849 0.10623 0.88069 0.0
O279 O 0.6129 0.12124 0.9039 0.0
C280 C 0.62985 0.13573 0.89161 0.0
O281 O 0.63182 0.1385 0.86564 0.0
C282 C 0.53233 0.13741 0.87103 0.0
C283 C 0.52347 0.06667 0.95691 0.0
O284 O 0.52944 0.08857 0.96398 0.0
O285 O 0.53222 0.06015 0.93382 0.0
O286 O 0.11866 0.29982 0.2014 0.0
Cd287 Cd 0.08511 0.28537 0.23608 0.0
O288 O 0.08784 0.32419 0.18053 0.0
Cd289 Cd 0.05484 0.3043 0.20121 0.0
O290 O 0.02467 0.29483 0.17738 0.0
C291 C 0.00349 0.31006 0.17675 0.0
O292 O 0.99846 0.32786 0.19392 0.0
C293 C 0.11208 0.31711 0.18294 0.0
C294 C 0.10352 0.24629 0.27356 0.0
O295 O 0.10686 0.27062 0.27511 0.0
O296 O 0.0919 0.24029 0.25413 0.0
O297 O 0.14703 0.77731 0.36482 0.0
Cd298 Cd 0.18131 0.75092 0.38849 0.0
O299 O 0.12652 0.74314 0.35735 0.0
Cd300 Cd 0.09527 0.72612 0.33948 0.0
O301 O 0.06848 0.7265 0.30839 0.0
C302 C 0.04862 0.71353 0.30738 0.0
O303 O 0.0354 0.71766 0.28633 0.0
C304 C 0.12844 0.76799 0.3549 0.0
C305 C 0.19019 0.77371 0.43386 0.0
O306 O 0.20118 0.78169 0.4112 0.0
O307 O 0.17507 0.75494 0.43523 0.0
O308 O 0.52335 0.16712 0.83366 0.0
Cd309 Cd 0.50299 0.20527 0.80754 0.0
O310 O 0.49749 0.17176 0.87047 0.0
Cd311 Cd 0.48149 0.21116 0.85585 0.0
O312 O 0.49498 0.2504 0.85606 0.0
C313 C 0.49454 0.26001 0.87816 0.0
O314 O 0.48335 0.24755 0.89948 0.0
C315 C 0.51611 0.15891 0.85737 0.0
C316 C 0.45765 0.19501 0.78556 0.0
O317 O 0.48067 0.18854 0.77439 0.0
O318 O 0.45594 0.20607 0.8072 0.0
O319 O 0.15615 0.31812 0.16323 0.0
Cd320 Cd 0.18752 0.33373 0.12717 0.0
O321 O 0.12573 0.34562 0.14519 0.0
Cd322 Cd 0.0852 0.3644 0.14207 0.0
O323 O 0.04464 0.38377 0.14481 0.0
C324 C 0.03225 0.382 0.16767 0.0
O325 O 0.04409 0.36902 0.18738 0.0
C326 C 0.1322 0.32769 0.16322 0.0
C327 C 0.22591 0.29398 0.11222 0.0
O328 O 0.23079 0.31061 0.12793 0.0
O329 O 0.20298 0.29599 0.10365 0.0
O330 O 0.11173 0.81083 0.33793 0.0
Cd331 Cd 0.08378 0.83947 0.30866 0.0
O332 O 0.08931 0.77739 0.33284 0.0
Cd333 Cd 0.05435 0.803 0.32254 0.0
O334 O 0.02005 0.7988 0.35103 0.0
C335 C 0.00616 0.78021 0.34809 0.0
O336 O 0.01053 0.76811 0.32631 0.0
C337 C 0.10912 0.78618 0.34104 0.0
C338 C 0.07324 0.89151 0.32081 0.0
O339 O 0.05632 0.87465 0.32797 0.0
O340 O 0.0953 0.88372 0.30849 0.0
O341 O 0.34969 0.78608 0.74528 0.0
Cd342 Cd 0.30363 0.77634 0.75428 0.0
O343 O 0.34831 0.77811 0.70395 0.0
Cd344 Cd 0.36528 0.77709 0.66271 0.0
O345 O 0.37703 0.78977 0.62131 0.0
C346 C 0.39062 0.77697 0.60369 0.0
O347 O 0.39493 0.78879 0.5798 0.0
C348 C 0.36072 0.78564 0.72187 0.0
C349 C 0.27265 0.81157 0.72233 0.0
O350 O 0.27836 0.81774 0.74468 0.0
O351 O 0.28113 0.78864 0.71519 0.0
O352 O 0.73397 0.40127 0.79771 0.0
Cd353 Cd 0.73094 0.44553 0.81275 0.0
O354 O 0.69144 0.39551 0.80015 0.0
Cd355 Cd 0.67415 0.43304 0.81388 0.0
O356 O 0.63428 0.45029 0.80753 0.0
C357 C 0.63111 0.46946 0.78997 0.0
O358 O 0.65187 0.48096 0.77887 0.0
C359 C 0.71546 0.38724 0.7947 0.0
C360 C 0.71896 0.4468 0.86707 0.0
O361 O 0.70162 0.45526 0.85101 0.0
O362 O 0.7418 0.43752 0.85764 0.0
O363 O 0.77724 0.36484 0.14709 0.0
Cd364 Cd 0.75086 0.38853 0.18137 0.0
O365 O 0.74307 0.35737 0.12658 0.0
Cd366 Cd 0.72604 0.33949 0.09534 0.0
O367 O 0.72642 0.30838 0.06858 0.0
C368 C 0.71344 0.30735 0.04873 0.0
O369 O 0.71757 0.28629 0.03552 0.0
C370 C 0.76792 0.35492 0.1285 0.0
C371 C 0.77367 0.43389 0.19025 0.0
O372 O 0.78164 0.41122 0.20124 0.0
O373 O 0.75489 0.43527 0.17512 0.0
O374 O 0.88633 0.63541 0.25912 0.0
Cd375 Cd 0.86701 0.67137 0.22957 0.0
O376 O 0.92694 0.63556 0.23986 0.0
Cd377 Cd 0.91332 0.66146 0.20631 0.0
O378 O 0.89329 0.6553 0.17185 0.0
C379 C 0.90612 0.64245 0.15387 0.0
O380 O 0.93155 0.63591 0.15509 0.0
C381 C 0.91059 0.62661 0.25822 0.0
C382 C 0.83054 0.70504 0.25737 0.0
O383 O 0.82358 0.68396 0.24938 0.0
O384 O 0.85463 0.71035 0.25216 0.0
O385 O 0.66247 0.57809 0.48187 0.0
Cd386 Cd 0.69612 0.54412 0.49746 0.0
O387 O 0.69329 0.59919 0.45774 0.0
Cd388 Cd 0.72638 0.57998 0.47849 0.0
O389 O 0.75504 0.60601 0.48719 0.0
C390 C 0.77694 0.60653 0.47311 0.0
O391 O 0.78374 0.58833 0.45661 0.0
C392 C 0.66905 0.59637 0.46438 0.0
C393 C 0.67681 0.50627 0.53568 0.0
O394 O 0.67435 0.50485 0.51114 0.0
O395 O 0.68804 0.5257 0.54228 0.0
O396 O 0.61555 0.46248 0.62489 0.0
Cd397 Cd 0.65115 0.44607 0.59344 0.0
O398 O 0.63314 0.43473 0.65541 0.0
Cd399 Cd 0.63582 0.4164 0.69616 0.0
O400 O 0.63206 0.39865 0.7373 0.0
C401 C 0.60911 0.40143 0.74939 0.0
O402 O 0.5898 0.41438 0.73691 0.0
C403 C 0.61552 0.45306 0.64889 0.0
C404 C 0.66757 0.48578 0.55569 0.0
O405 O 0.65155 0.46969 0.55031 0.0
O406 O 0.67579 0.48324 0.5788 0.0
O407 O 0.6606 0.44112 0.96846 0.0
Cd408 Cd 0.70381 0.45386 0.94947 0.0
O409 O 0.67564 0.40528 0.99211 0.0
Cd410 Cd 0.71664 0.40306 0.97523 0.0
O411 O 0.74515 0.36924 0.98319 0.0
C412 C 0.76744 0.37119 0.99147 0.0
O413 O 0.7754 0.39471 0.99264 0.0
C414 C 0.6566 0.42171 0.9855 0.0
C415 C 0.71319 0.44865 0.89552 0.0
O416 O 0.72459 0.43205 0.91224 0.0
O417 O 0.69722 0.46747 0.90418 0.0
O418 O 0.83376 0.52337 0.16722 0.0
Cd419 Cd 0.80764 0.50303 0.20538 0.0
O420 O 0.87056 0.49749 0.17185 0.0
Cd421 Cd 0.85594 0.4815 0.21125 0.0
O422 O 0.85614 0.495 0.25049 0.0
C423 C 0.87824 0.49457 0.2601 0.0
O424 O 0.89957 0.48338 0.24765 0.0
C425 C 0.85747 0.51612 0.159 0.0
C426 C 0.78559 0.45773 0.19511 0.0
O427 O 0.77445 0.48076 0.18866 0.0
O428 O 0.80725 0.45599 0.20616 0.0
O429 O 0.78605 0.74527 0.34976 0.0
Cd430 Cd 0.77631 0.75428 0.3037 0.0
O431 O 0.77808 0.70394 0.34836 0.0
Cd432 Cd 0.77705 0.6627 0.36532 0.0
O433 O 0.78973 0.62129 0.37705 0.0
C434 C 0.77694 0.60367 0.39064 0.0
O435 O 0.78874 0.57978 0.39493 0.0
C436 C 0.78561 0.72186 0.36079 0.0
C437 C 0.81154 0.72234 0.27271 0.0
O438 O 0.81771 0.74469 0.27843 0.0
O439 O 0.78861 0.7152 0.28119 0.0
O440 O 0.79769 0.734 0.40129 0.0
Cd441 Cd 0.81271 0.73098 0.44556 0.0
O442 O 0.80013 0.69147 0.39554 0.0
Cd443 Cd 0.81386 0.67419 0.43307 0.0
O444 O 0.8075 0.63431 0.45032 0.0
C445 C 0.78995 0.63115 0.46949 0.0
O446 O 0.77884 0.65191 0.48099 0.0
C447 C 0.79468 0.71548 0.38726 0.0
C448 C 0.86703 0.71902 0.44684 0.0
O449 O 0.85098 0.70167 0.4553 0.0
O450 O 0.8576 0.74186 0.43755 0.0
O451 O 0.25907 0.88636 0.63539 0.0
Cd452 Cd 0.22951 0.86704 0.67135 0.0
O453 O 0.2398 0.92697 0.63554 0.0
Cd454 Cd 0.20626 0.91335 0.66144 0.0
O455 O 0.1718 0.89332 0.65529 0.0
C456 C 0.15382 0.90614 0.64244 0.0
O457 O 0.15503 0.93158 0.6359 0.0
C458 C 0.25817 0.91061 0.6266 0.0
C459 C 0.25731 0.83057 0.70502 0.0
O460 O 0.24932 0.82361 0.68395 0.0
O461 O 0.2521 0.85465 0.71033 0.0
O462 O 0.36473 0.147 0.77734 0.0
Cd463 Cd 0.3884 0.18128 0.75092 0.0
O464 O 0.35725 0.12648 0.74318 0.0
Cd465 Cd 0.33937 0.09522 0.72618 0.0
O466 O 0.30829 0.06842 0.72658 0.0
C467 C 0.30729 0.04857 0.7136 0.0
O468 O 0.28624 0.03533 0.71773 0.0
C469 C 0.35481 0.12841 0.76803 0.0
C470 C 0.43379 0.19015 0.77367 0.0
O471 O 0.41114 0.20115 0.78166 0.0
O472 O 0.43514 0.17502 0.75489 0.0
O473 O 0.29989 0.20143 0.11877 0.0
Cd474 Cd 0.28546 0.23613 0.08523 0.0
O475 O 0.32426 0.18056 0.08795 0.0
Cd476 Cd 0.30437 0.20127 0.05495 0.0
O477 O 0.29489 0.17745 0.02477 0.0
C478 C 0.31012 0.17681 0.0036 0.0
O479 O 0.32793 0.19397 0.99857 0.0
C480 C 0.31717 0.18296 0.11218 0.0
C481 C 0.24634 0.27357 0.10363 0.0
O482 O 0.27066 0.27514 0.107 0.0
O483 O 0.24037 0.25415 0.09198 0.0
O484 O 0.74525 0.34974 0.78606 0.0
Cd485 Cd 0.75428 0.30369 0.77631 0.0
O486 O 0.70392 0.34834 0.77809 0.0
Cd487 Cd 0.66268 0.36529 0.77707 0.0
O488 O 0.62128 0.37701 0.78975 0.0
C489 C 0.60365 0.3906 0.77695 0.0
O490 O 0.57976 0.39489 0.78877 0.0
C491 C 0.72184 0.36077 0.78562 0.0
C492 C 0.72233 0.27269 0.81152 0.0
O493 O 0.74467 0.2784 0.81769 0.0
O494 O 0.7152 0.28117 0.78859 0.0
O495 O 0.61004 0.42957 0.98578 0.0
Cd496 Cd 0.56538 0.41816 0.00075 0.0
O497 O 0.62556 0.40054 0.01646 0.0
Cd498 Cd 0.65765 0.37778 0.0369 0.0
O499 O 0.68845 0.34921 0.05283 0.0
C500 C 0.69396 0.32886 0.0402 0.0
O501 O 0.68146 0.3268 0.01931 0.0
C502 C 0.62961 0.41734 0.99665 0.0
C503 C 0.55833 0.36919 0.98408 0.0
O504 O 0.55385 0.39053 0.96912 0.0
O505 O 0.56578 0.3709 0.00705 0.0
O506 O 0.44112 0.96847 0.66075 0.0
Cd507 Cd 0.45383 0.94947 0.70396 0.0
O508 O 0.40523 0.99207 0.67577 0.0
Cd509 Cd 0.40299 0.97518 0.71677 0.0
O510 O 0.36918 0.98312 0.7453 0.0
C511 C 0.37114 0.99141 0.76758 0.0
O512 O 0.39466 0.99259 0.77552 0.0
C513 C 0.42169 0.98549 0.65674 0.0
C514 C 0.44862 0.89552 0.71332 0.0
O515 O 0.43201 0.91223 0.72472 0.0
O516 O 0.46745 0.90419 0.69737 0.0
O517 O 0.16319 0.15617 0.31816 0.0
Cd518 Cd 0.1271 0.18753 0.33375 0.0
O519 O 0.14515 0.12575 0.34566 0.0
Cd520 Cd 0.14204 0.08522 0.36444 0.0
O521 O 0.14478 0.04466 0.38382 0.0
C522 C 0.16764 0.03228 0.38207 0.0
O523 O 0.18736 0.04412 0.36909 0.0
C524 C 0.16318 0.13223 0.32774 0.0
C525 C 0.11213 0.22589 0.29398 0.0
O526 O 0.12783 0.23079 0.31061 0.0
O527 O 0.10358 0.20294 0.29599 0.0
loop_
_geom_bond_atom_site_label_1
_geom_bond_atom_site_label_2
_geom_bond_distance
_geom_bond_site_symmetry_2
_ccdc_geom_bond_type
O0 Cd1 2.291 1_655 S
O0 C7 1.259 1_655 S
Cd1 O0 2.291 1_455 S
Cd1 O9 2.381 1_455 S
Cd1 O10 2.378 1_455 S
O2 Cd3 2.385 . S
O2 C7 1.255 . S
Cd3 O2 2.385 . S
Cd3 O4 2.317 . S
O4 Cd3 2.317 . S
O4 C5 1.232 . S
C5 O4 1.232 . S
C5 O6 1.218 . S
O6 C5 1.218 . S
C7 O0 1.259 1_455 S
C7 O2 1.255 . S
C8 O9 1.258 . S
C8 O10 1.256 . S
O9 Cd1 2.381 1_655 S
O9 C8 1.258 . S
O10 Cd1 2.378 1_655 S
O10 C8 1.256 . S
O11 Cd12 2.300 . S
O11 C18 1.275 . S
Cd12 O11 2.300 . S
Cd12 O20 2.381 . S
Cd12 O21 2.378 . S
O13 Cd14 2.378 1_655 S
O13 C18 1.260 . S
Cd14 O13 2.378 1_455 S
Cd14 O15 2.317 1_455 S
O15 Cd14 2.317 1_655 S
O15 C16 1.232 1_655 S
C16 O15 1.232 1_455 S
C16 O17 1.218 . S
O17 C16 1.218 . S
C18 O11 1.275 . S
C18 O13 1.260 . S
C19 O20 1.258 . S
C19 O21 1.256 . S
O20 Cd12 2.381 . S
O20 C19 1.258 . S
O21 Cd12 2.378 . S
O21 C19 1.256 . S
O22 Cd23 2.300 . S
O22 C29 1.275 . S
Cd23 O22 2.300 . S
Cd23 O31 2.381 . S
Cd23 O32 2.378 . S
O24 Cd25 2.385 . S
O24 C29 1.255 . S
Cd25 O24 2.385 . S
Cd25 O26 2.317 . S
O26 Cd25 2.317 . S
O26 C27 1.232 . S
C27 O26 1.232 . S
C27 O28 1.218 . S
O28 C27 1.218 . S
C29 O22 1.275 . S
C29 O24 1.255 . S
C30 O31 1.258 . S
C30 O32 1.256 . S
O31 Cd23 2.381 . S
O31 C30 1.258 . S
O32 Cd23 2.378 . S
O32 C30 1.256 . S
O33 Cd34 2.300 . S
O33 C40 1.275 . S
Cd34 O33 2.300 . S
Cd34 O42 2.381 . S
Cd34 O43 2.378 . S
O35 Cd36 2.385 . S
O35 C40 1.255 . S
Cd36 O35 2.385 . S
Cd36 O37 2.317 . S
O37 Cd36 2.317 . S
O37 C38 1.232 . S
C38 O37 1.232 . S
C38 O39 1.218 . S
O39 C38 1.218 . S
C40 O33 1.275 . S
C40 O35 1.255 . S
C41 O42 1.258 . S
C41 O43 1.256 . S
O42 Cd34 2.381 . S
O42 C41 1.258 . S
O43 Cd34 2.378 . S
O43 C41 1.256 . S
O44 Cd45 2.300 1_655 S
O44 C51 1.275 1_655 S
Cd45 O44 2.300 1_455 S
Cd45 O53 2.381 1_455 S
Cd45 O54 2.378 . S
O46 Cd47 2.385 . S
O46 C51 1.255 . S
Cd47 O46 2.385 . S
Cd47 O48 2.317 . S
O48 Cd47 2.317 . S
O48 C49 1.232 . S
C49 O48 1.232 . S
C49 O50 1.218 . S
O50 C49 1.218 . S
C51 O44 1.275 1_455 S
C51 O46 1.255 . S
C52 O53 1.258 1_455 S
C52 O54 1.256 . S
O53 Cd45 2.381 1_655 S
O53 C52 1.258 1_655 S
O54 Cd45 2.378 . S
O54 C52 1.256 . S
O55 Cd56 2.300 . S
O55 C62 1.275 . S
Cd56 O55 2.300 . S
Cd56 O64 2.381 . S
Cd56 O65 2.378 . S
O57 Cd58 2.385 . S
O57 C62 1.255 . S
Cd58 O57 2.385 . S
Cd58 O59 2.317 . S
O59 Cd58 2.317 . S
O59 C60 1.232 . S
C60 O59 1.232 . S
C60 O61 1.218 . S
O61 C60 1.218 . S
C62 O55 1.275 . S
C62 O57 1.255 . S
C63 O64 1.258 . S
C63 O65 1.256 . S
O64 Cd56 2.381 . S
O64 C63 1.258 . S
O65 Cd56 2.378 . S
O65 C63 1.256 . S
O66 Cd67 2.300 . S
O66 C73 1.275 . S
Cd67 O66 2.300 . S
Cd67 O75 2.381 . S
Cd67 O76 2.378 . S
O68 Cd69 2.385 . S
O68 C73 1.255 . S
Cd69 O68 2.385 . S
Cd69 O70 2.317 . S
O70 Cd69 2.317 . S
O70 C71 1.232 . S
C71 O70 1.232 . S
C71 O72 1.218 . S
O72 C71 1.218 . S
C73 O66 1.275 . S
C73 O68 1.255 . S
C74 O75 1.258 . S
C74 O76 1.256 . S
O75 Cd67 2.381 . S
O75 C74 1.258 . S
O76 Cd67 2.378 . S
O76 C74 1.256 . S
O77 Cd78 2.300 . S
O77 C84 1.275 1_655 S
Cd78 O77 2.300 . S
Cd78 O86 2.381 . S
Cd78 O87 2.378 . S
O79 Cd80 2.385 . S
O79 C84 1.255 . S
Cd80 O79 2.385 . S
Cd80 O81 2.317 . S
O81 Cd80 2.317 . S
O81 C82 1.232 . S
C82 O81 1.232 . S
C82 O83 1.218 . S
O83 C82 1.218 . S
C84 O77 1.275 1_455 S
C84 O79 1.255 . S
C85 O86 1.258 . S
C85 O87 1.256 . S
O86 Cd78 2.381 . S
O86 C85 1.258 . S
O87 Cd78 2.378 . S
O87 C85 1.256 . S
O88 Cd89 2.291 1_565 S
O88 C95 1.259 1_565 S
Cd89 O88 2.291 1_545 S
Cd89 O97 2.381 1_545 S
Cd89 O98 2.378 1_545 S
O90 Cd91 2.385 . S
O90 C95 1.255 . S
Cd91 O90 2.385 . S
Cd91 O92 2.317 . S
O92 Cd91 2.317 . S
O92 C93 1.232 . S
C93 O92 1.232 . S
C93 O94 1.218 . S
O94 C93 1.218 . S
C95 O88 1.259 1_545 S
C95 O90 1.255 . S
C96 O97 1.258 . S
C96 O98 1.256 . S
O97 Cd89 2.381 1_565 S
O97 C96 1.258 . S
O98 Cd89 2.378 1_565 S
O98 C96 1.256 . S
O99 Cd100 2.300 . S
O99 C106 1.275 . S
Cd100 O99 2.300 . S
Cd100 O108 2.381 . S
Cd100 O109 2.378 . S
O101 Cd102 2.385 . S
O101 C106 1.255 . S
Cd102 O101 2.385 . S
Cd102 O103 2.317 . S
O103 Cd102 2.317 . S
O103 C104 1.232 . S
C104 O103 1.232 . S
C104 O105 1.218 . S
O105 C104 1.218 . S
C106 O99 1.275 . S
C106 O101 1.255 . S
C107 O108 1.258 . S
C107 O109 1.256 . S
O108 Cd100 2.381 . S
O108 C107 1.258 . S
O109 Cd100 2.378 . S
O109 C107 1.256 . S
O110 Cd111 2.300 . S
O110 C117 1.275 . S
Cd111 O110 2.300 . S
Cd111 O119 2.381 . S
Cd111 O120 2.378 . S
O112 Cd113 2.385 . S
O112 C117 1.255 . S
Cd113 O112 2.385 . S
Cd113 O114 2.317 . S
O114 Cd113 2.317 . S
O114 C115 1.232 . S
C115 O114 1.232 . S
C115 O116 1.218 . S
O116 C115 1.218 . S
C117 O110 1.275 . S
C117 O112 1.255 . S
C118 O119 1.258 . S
C118 O120 1.256 . S
O119 Cd111 2.381 . S
O119 C118 1.258 . S
O120 Cd111 2.378 . S
O120 C118 1.256 . S
O121 Cd122 2.300 . S
O121 C128 1.275 . S
Cd122 O121 2.300 . S
Cd122 O130 2.381 . S
Cd122 O131 2.378 . S
O123 Cd124 2.385 . S
O123 C128 1.255 . S
Cd124 O123 2.385 . S
Cd124 O125 2.317 . S
O125 Cd124 2.317 . S
O125 C126 1.232 . S
C126 O125 1.232 . S
C126 O127 1.218 . S
O127 C126 1.218 . S
C128 O121 1.275 . S
C128 O123 1.255 . S
C129 O130 1.258 . S
C129 O131 1.256 . S
O130 Cd122 2.381 . S
O130 C129 1.258 . S
O131 Cd122 2.378 . S
O131 C129 1.256 . S
O132 Cd133 2.300 . S
O132 C139 1.275 . S
Cd133 O132 2.300 . S
Cd133 O141 2.381 . S
Cd133 O142 2.378 . S
O134 Cd135 2.385 . S
O134 C139 1.255 . S
Cd135 O134 2.385 . S
Cd135 O136 2.317 . S
O136 Cd135 2.317 . S
O136 C137 1.232 . S
C137 O136 1.232 . S
C137 O138 1.218 . S
O138 C137 1.218 . S
C139 O132 1.275 . S
C139 O134 1.255 . S
C140 O141 1.258 . S
C140 O142 1.256 . S
O141 Cd133 2.381 . S
O141 C140 1.258 . S
O142 Cd133 2.378 . S
O142 C140 1.256 . S
O143 Cd144 2.300 . S
O143 C150 1.275 . S
Cd144 O143 2.300 . S
Cd144 O152 2.381 . S
Cd144 O153 2.378 . S
O145 Cd146 2.385 . S
O145 C150 1.255 . S
Cd146 O145 2.385 . S
Cd146 O147 2.317 . S
O147 Cd146 2.317 . S
O147 C148 1.232 . S
C148 O147 1.232 . S
C148 O149 1.218 . S
O149 C148 1.218 . S
C150 O143 1.275 . S
C150 O145 1.255 . S
C151 O152 1.258 . S
C151 O153 1.256 . S
O152 Cd144 2.381 . S
O152 C151 1.258 . S
O153 Cd144 2.378 . S
O153 C151 1.256 . S
O154 Cd155 2.300 1_565 S
O154 C161 1.275 1_565 S
Cd155 O154 2.300 1_545 S
Cd155 O163 2.381 1_545 S
Cd155 O164 2.378 . S
O156 Cd157 2.385 . S
O156 C161 1.255 . S
Cd157 O156 2.385 . S
Cd157 O158 2.317 . S
O158 Cd157 2.317 . S
O158 C159 1.232 . S
C159 O158 1.232 . S
C159 O160 1.218 . S
O160 C159 1.218 . S
C161 O154 1.275 1_545 S
C161 O156 1.255 . S
C162 O163 1.258 1_545 S
C162 O164 1.256 . S
O163 Cd155 2.381 1_565 S
O163 C162 1.258 1_565 S
O164 Cd155 2.378 . S
O164 C162 1.256 . S
O165 Cd166 2.300 . S
O165 C172 1.275 1_556 S
Cd166 O165 2.300 . S
Cd166 O174 2.381 . S
Cd166 O175 2.378 . S
O167 Cd168 2.385 . S
O167 C172 1.255 . S
Cd168 O167 2.385 . S
Cd168 O169 2.317 . S
O169 Cd168 2.317 . S
O169 C170 1.232 . S
C170 O169 1.232 . S
C170 O171 1.218 . S
O171 C170 1.218 . S
C172 O165 1.275 1_554 S
C172 O167 1.255 . S
C173 O174 1.258 . S
C173 O175 1.256 . S
O174 Cd166 2.381 . S
O174 C173 1.258 . S
O175 Cd166 2.378 . S
O175 C173 1.256 . S
O176 Cd177 2.291 1_556 S
O176 C183 1.259 1_556 S
Cd177 O176 2.291 1_554 S
Cd177 O185 2.381 1_554 S
Cd177 O186 2.378 1_554 S
O178 Cd179 2.385 . S
O178 C183 1.255 . S
Cd179 O178 2.385 . S
Cd179 O180 2.317 . S
O180 Cd179 2.317 . S
O180 C181 1.232 . S
C181 O180 1.232 . S
C181 O182 1.218 . S
O182 C181 1.218 . S
C183 O176 1.259 1_554 S
C183 O178 1.255 . S
C184 O185 1.258 . S
C184 O186 1.256 . S
O185 Cd177 2.381 1_556 S
O185 C184 1.258 . S
O186 Cd177 2.378 1_556 S
O186 C184 1.256 . S
O187 Cd188 2.300 . S
O187 C194 1.275 . S
Cd188 O187 2.300 . S
Cd188 O196 2.381 . S
Cd188 O197 2.378 . S
O189 Cd190 2.385 . S
O189 C194 1.255 . S
Cd190 O189 2.385 . S
Cd190 O191 2.317 . S
O191 Cd190 2.317 . S
O191 C192 1.232 . S
C192 O191 1.232 . S
C192 O193 1.218 . S
O193 C192 1.218 . S
C194 O187 1.275 . S
C194 O189 1.255 . S
C195 O196 1.258 . S
C195 O197 1.256 . S
O196 Cd188 2.381 . S
O196 C195 1.258 . S
O197 Cd188 2.378 . S
O197 C195 1.256 . S
O198 Cd199 2.300 . S
O198 C205 1.275 . S
Cd199 O198 2.300 . S
Cd199 O207 2.381 . S
Cd199 O208 2.378 . S
O200 Cd201 2.385 . S
O200 C205 1.255 . S
Cd201 O200 2.385 . S
Cd201 O202 2.317 . S
O202 Cd201 2.317 . S
O202 C203 1.232 . S
C203 O202 1.232 . S
C203 O204 1.218 . S
O204 C203 1.218 . S
C205 O198 1.275 . S
C205 O200 1.255 . S
C206 O207 1.258 . S
C206 O208 1.256 . S
O207 Cd199 2.381 . S
O207 C206 1.258 . S
O208 Cd199 2.378 . S
O208 C206 1.256 . S
O209 Cd210 2.300 . S
O209 C216 1.275 . S
Cd210 O209 2.300 . S
Cd210 O218 2.381 . S
Cd210 O219 2.378 . S
O211 Cd212 2.385 . S
O211 C216 1.255 . S
Cd212 O211 2.385 . S
Cd212 O213 2.317 . S
O213 Cd212 2.317 . S
O213 C214 1.232 . S
C214 O213 1.232 . S
C214 O215 1.218 . S
O215 C214 1.218 . S
C216 O209 1.275 . S
C216 O211 1.255 . S
C217 O218 1.258 . S
C217 O219 1.256 . S
O218 Cd210 2.381 . S
O218 C217 1.258 . S
O219 Cd210 2.378 . S
O219 C217 1.256 . S
O220 Cd221 2.300 . S
O220 C227 1.275 1_565 S
Cd221 O220 2.300 . S
Cd221 O229 2.381 . S
Cd221 O230 2.378 . S
O222 Cd223 2.385 . S
O222 C227 1.255 . S
Cd223 O222 2.385 . S
Cd223 O224 2.317 . S
O224 Cd223 2.317 . S
O224 C225 1.232 . S
C225 O224 1.232 . S
C225 O226 1.218 . S
O226 C225 1.218 . S
C227 O220 1.275 1_545 S
C227 O222 1.255 . S
C228 O229 1.258 . S
C228 O230 1.256 . S
O229 Cd221 2.381 . S
O229 C228 1.258 . S
O230 Cd221 2.378 . S
O230 C228 1.256 . S
O231 Cd232 2.300 . S
O231 C238 1.275 . S
Cd232 O231 2.300 . S
Cd232 O240 2.381 . S
Cd232 O241 2.378 . S
O233 Cd234 2.385 . S
O233 C238 1.255 . S
Cd234 O233 2.385 . S
Cd234 O235 2.317 . S
O235 Cd234 2.317 . S
O235 C236 1.232 . S
C236 O235 1.232 . S
C236 O237 1.218 . S
O237 C236 1.218 . S
C238 O231 1.275 . S
C238 O233 1.255 . S
C239 O240 1.258 . S
C239 O241 1.256 . S
O240 Cd232 2.381 . S
O240 C239 1.258 . S
O241 Cd232 2.378 . S
O241 C239 1.256 . S
O242 Cd243 2.300 . S
O242 C249 1.275 . S
Cd243 O242 2.300 . S
Cd243 O251 2.381 . S
Cd243 O252 2.378 . S
O244 Cd245 2.385 . S
O244 C249 1.255 . S
Cd245 O244 2.385 . S
Cd245 O246 2.317 . S
O246 Cd245 2.317 . S
O246 C247 1.232 . S
C247 O246 1.232 . S
C247 O248 1.218 . S
O248 C247 1.218 . S
C249 O242 1.275 . S
C249 O244 1.255 . S
C250 O251 1.258 . S
C250 O252 1.256 . S
O251 Cd243 2.381 . S
O251 C250 1.258 . S
O252 Cd243 2.378 . S
O252 C250 1.256 . S
O253 Cd254 2.300 . S
O253 C260 1.275 . S
Cd254 O253 2.300 . S
Cd254 O262 2.381 . S
Cd254 O263 2.378 . S
O255 Cd256 2.385 . S
O255 C260 1.255 . S
Cd256 O255 2.385 . S
Cd256 O257 2.317 . S
O257 Cd256 2.317 . S
O257 C258 1.232 . S
C258 O257 1.232 . S
C258 O259 1.218 . S
O259 C258 1.218 . S
C260 O253 1.275 . S
C260 O255 1.255 . S
C261 O262 1.258 . S
C261 O263 1.256 . S
O262 Cd254 2.381 . S
O262 C261 1.258 . S
O263 Cd254 2.378 . S
O263 C261 1.256 . S
O264 Cd265 2.300 . S
O264 C271 1.275 . S
Cd265 O264 2.300 . S
Cd265 O273 2.381 . S
Cd265 O274 2.378 . S
O266 Cd267 2.385 . S
O266 C271 1.255 . S
Cd267 O266 2.385 . S
Cd267 O268 2.317 . S
O268 Cd267 2.317 . S
O268 C269 1.232 . S
C269 O268 1.232 . S
C269 O270 1.218 . S
O270 C269 1.218 . S
C271 O264 1.275 . S
C271 O266 1.255 . S
C272 O273 1.258 . S
C272 O274 1.256 . S
O273 Cd265 2.381 . S
O273 C272 1.258 . S
O274 Cd265 2.378 . S
O274 C272 1.256 . S
O275 Cd276 2.300 . S
O275 C282 1.275 . S
Cd276 O275 2.300 . S
Cd276 O284 2.381 . S
Cd276 O285 2.378 . S
O277 Cd278 2.385 . S
O277 C282 1.255 . S
Cd278 O277 2.385 . S
Cd278 O279 2.317 . S
O279 Cd278 2.317 . S
O279 C280 1.232 . S
C280 O279 1.232 . S
C280 O281 1.218 . S
O281 C280 1.218 . S
C282 O275 1.275 . S
C282 O277 1.255 . S
C283 O284 1.258 . S
C283 O285 1.256 . S
O284 Cd276 2.381 . S
O284 C283 1.258 . S
O285 Cd276 2.378 . S
O285 C283 1.256 . S
O286 Cd287 2.300 . S
O286 C293 1.275 . S
Cd287 O286 2.300 . S
Cd287 O295 2.381 . S
Cd287 O296 2.378 . S
O288 Cd289 2.385 . S
O288 C293 1.255 . S
Cd289 O288 2.385 . S
Cd289 O290 2.317 . S
O290 Cd289 2.317 . S
O290 C291 1.232 . S
C291 O290 1.232 . S
C291 O292 1.218 . S
O292 C291 1.218 . S
C293 O286 1.275 . S
C293 O288 1.255 . S
C294 O295 1.258 . S
C294 O296 1.256 . S
O295 Cd287 2.381 . S
O295 C294 1.258 . S
O296 Cd287 2.378 . S
O296 C294 1.256 . S
O297 Cd298 2.300 . S
O297 C304 1.275 . S
Cd298 O297 2.300 . S
Cd298 O306 2.381 . S
Cd298 O307 2.378 . S
O299 Cd300 2.385 . S
O299 C304 1.255 . S
Cd300 O299 2.385 . S
Cd300 O301 2.317 . S
O301 Cd300 2.317 . S
O301 C302 1.232 . S
C302 O301 1.232 . S
C302 O303 1.218 . S
O303 C302 1.218 . S
C304 O297 1.275 . S
C304 O299 1.255 . S
C305 O306 1.258 . S
C305 O307 1.256 . S
O306 Cd298 2.381 . S
O306 C305 1.258 . S
O307 Cd298 2.378 . S
O307 C305 1.256 . S
O308 Cd309 2.300 . S
O308 C315 1.275 . S
Cd309 O308 2.300 . S
Cd309 O317 2.381 . S
Cd309 O318 2.378 . S
O310 Cd311 2.385 . S
O310 C315 1.255 . S
Cd311 O310 2.385 . S
Cd311 O312 2.317 . S
O312 Cd311 2.317 . S
O312 C313 1.232 . S
C313 O312 1.232 . S
C313 O314 1.218 . S
O314 C313 1.218 . S
C315 O308 1.275 . S
C315 O310 1.255 . S
C316 O317 1.258 . S
C316 O318 1.256 . S
O317 Cd309 2.381 . S
O317 C316 1.258 . S
O318 Cd309 2.378 . S
O318 C316 1.256 . S
O319 Cd320 2.300 . S
O319 C326 1.275 . S
Cd320 O319 2.300 . S
Cd320 O328 2.381 . S
Cd320 O329 2.378 . S
O321 Cd322 2.385 . S
O321 C326 1.255 . S
Cd322 O321 2.385 . S
Cd322 O323 2.317 . S
O323 Cd322 2.317 . S
O323 C324 1.232 . S
C324 O323 1.232 . S
C324 O325 1.218 . S
O325 C324 1.218 . S
C326 O319 1.275 . S
C326 O321 1.255 . S
C327 O328 1.258 . S
C327 O329 1.256 . S
O328 Cd320 2.381 . S
O328 C327 1.258 . S
O329 Cd320 2.378 . S
O329 C327 1.256 . S
O330 Cd331 2.300 . S
O330 C337 1.275 . S
Cd331 O330 2.300 . S
Cd331 O339 2.381 . S
Cd331 O340 2.378 . S
O332 Cd333 2.385 . S
O332 C337 1.255 . S
Cd333 O332 2.385 . S
Cd333 O334 2.317 . S
O334 Cd333 2.317 . S
O334 C335 1.232 . S
C335 O334 1.232 . S
C335 O336 1.218 . S
O336 C335 1.218 . S
C337 O330 1.275 . S
C337 O332 1.255 . S
C338 O339 1.258 . S
C338 O340 1.256 . S
O339 Cd331 2.381 . S
O339 C338 1.258 . S
O340 Cd331 2.378 . S
O340 C338 1.256 . S
O341 Cd342 2.300 . S
O341 C348 1.275 . S
Cd342 O341 2.300 . S
Cd342 O350 2.381 . S
Cd342 O351 2.378 . S
O343 Cd344 2.385 . S
O343 C348 1.255 . S
Cd344 O343 2.385 . S
Cd344 O345 2.317 . S
O345 Cd344 2.317 . S
O345 C346 1.232 . S
C346 O345 1.232 . S
C346 O347 1.218 . S
O347 C346 1.218 . S
C348 O341 1.275 . S
C348 O343 1.255 . S
C349 O350 1.258 . S
C349 O351 1.256 . S
O350 Cd342 2.381 . S
O350 C349 1.258 . S
O351 Cd342 2.378 . S
O351 C349 1.256 . S
O352 Cd353 2.300 . S
O352 C359 1.275 . S
Cd353 O352 2.300 . S
Cd353 O361 2.381 . S
Cd353 O362 2.378 . S
O354 Cd355 2.385 . S
O354 C359 1.255 . S
Cd355 O354 2.385 . S
Cd355 O356 2.317 . S
O356 Cd355 2.317 . S
O356 C357 1.232 . S
C357 O356 1.232 . S
C357 O358 1.218 . S
O358 C357 1.218 . S
C359 O352 1.275 . S
C359 O354 1.255 . S
C360 O361 1.258 . S
C360 O362 1.256 . S
O361 Cd353 2.381 . S
O361 C360 1.258 . S
O362 Cd353 2.378 . S
O362 C360 1.256 . S
O363 Cd364 2.300 . S
O363 C370 1.275 . S
Cd364 O363 2.300 . S
Cd364 O372 2.381 . S
Cd364 O373 2.378 . S
O365 Cd366 2.385 . S
O365 C370 1.255 . S
Cd366 O365 2.385 . S
Cd366 O367 2.317 . S
O367 Cd366 2.317 . S
O367 C368 1.232 . S
C368 O367 1.232 . S
C368 O369 1.218 . S
O369 C368 1.218 . S
C370 O363 1.275 . S
C370 O365 1.255 . S
C371 O372 1.258 . S
C371 O373 1.256 . S
O372 Cd364 2.381 . S
O372 C371 1.258 . S
O373 Cd364 2.378 . S
O373 C371 1.256 . S
O374 Cd375 2.300 . S
O374 C381 1.275 . S
Cd375 O374 2.300 . S
Cd375 O383 2.381 . S
Cd375 O384 2.378 . S
O376 Cd377 2.385 . S
O376 C381 1.255 . S
Cd377 O376 2.385 . S
Cd377 O378 2.317 . S
O378 Cd377 2.317 . S
O378 C379 1.232 . S
C379 O378 1.232 . S
C379 O380 1.218 . S
O380 C379 1.218 . S
C381 O374 1.275 . S
C381 O376 1.255 . S
C382 O383 1.258 . S
C382 O384 1.256 . S
O383 Cd375 2.381 . S
O383 C382 1.258 . S
O384 Cd375 2.378 . S
O384 C382 1.256 . S
O385 Cd386 2.300 . S
O385 C392 1.275 . S
Cd386 O385 2.300 . S
Cd386 O394 2.381 . S
Cd386 O395 2.378 . S
O387 Cd388 2.385 . S
O387 C392 1.255 . S
Cd388 O387 2.385 . S
Cd388 O389 2.317 . S
O389 Cd388 2.317 . S
O389 C390 1.232 . S
C390 O389 1.232 . S
C390 O391 1.218 . S
O391 C390 1.218 . S
C392 O385 1.275 . S
C392 O387 1.255 . S
C393 O394 1.258 . S
C393 O395 1.256 . S
O394 Cd386 2.381 . S
O394 C393 1.258 . S
O395 Cd386 2.378 . S
O395 C393 1.256 . S
O396 Cd397 2.300 . S
O396 C403 1.275 . S
Cd397 O396 2.300 . S
Cd397 O405 2.381 . S
Cd397 O406 2.378 . S
O398 Cd399 2.385 . S
O398 C403 1.255 . S
Cd399 O398 2.385 . S
Cd399 O400 2.317 . S
O400 Cd399 2.317 . S
O400 C401 1.232 . S
C401 O400 1.232 . S
C401 O402 1.218 . S
O402 C401 1.218 . S
C403 O396 1.275 . S
C403 O398 1.255 . S
C404 O405 1.258 . S
C404 O406 1.256 . S
O405 Cd397 2.381 . S
O405 C404 1.258 . S
O406 Cd397 2.378 . S
O406 C404 1.256 . S
O407 Cd408 2.300 . S
O407 C414 1.275 . S
Cd408 O407 2.300 . S
Cd408 O416 2.381 . S
Cd408 O417 2.378 . S
O409 Cd410 2.378 1_556 S
O409 C414 1.260 . S
Cd410 O409 2.378 1_554 S
Cd410 O411 2.317 1_554 S
O411 Cd410 2.317 1_556 S
O411 C412 1.232 1_556 S
C412 O411 1.232 1_554 S
C412 O413 1.218 . S
O413 C412 1.218 . S
C414 O407 1.275 . S
C414 O409 1.260 . S
C415 O416 1.258 . S
C415 O417 1.256 . S
O416 Cd408 2.381 . S
O416 C415 1.258 . S
O417 Cd408 2.378 . S
O417 C415 1.256 . S
O418 Cd419 2.300 . S
O418 C425 1.275 . S
Cd419 O418 2.300 . S
Cd419 O427 2.381 . S
Cd419 O428 2.378 . S
O420 Cd421 2.385 . S
O420 C425 1.255 . S
Cd421 O420 2.385 . S
Cd421 O422 2.317 . S
O422 Cd421 2.317 . S
O422 C423 1.232 . S
C423 O422 1.232 . S
C423 O424 1.218 . S
O424 C423 1.218 . S
C425 O418 1.275 . S
C425 O420 1.255 . S
C426 O427 1.258 . S
C426 O428 1.256 . S
O427 Cd419 2.381 . S
O427 C426 1.258 . S
O428 Cd419 2.378 . S
O428 C426 1.256 . S
O429 Cd430 2.300 . S
O429 C436 1.275 . S
Cd430 O429 2.300 . S
Cd430 O438 2.381 . S
Cd430 O439 2.378 . S
O431 Cd432 2.385 . S
O431 C436 1.255 . S
Cd432 O431 2.385 . S
Cd432 O433 2.317 . S
O433 Cd432 2.317 . S
O433 C434 1.232 . S
C434 O433 1.232 . S
C434 O435 1.218 . S
O435 C434 1.218 . S
C436 O429 1.275 . S
C436 O431 1.255 . S
C437 O438 1.258 . S
C437 O439 1.256 . S
O438 Cd430 2.381 . S
O438 C437 1.258 . S
O439 Cd430 2.378 . S
O439 C437 1.256 . S
O440 Cd441 2.300 . S
O440 C447 1.275 . S
Cd441 O440 2.300 . S
Cd441 O449 2.381 . S
Cd441 O450 2.378 . S
O442 Cd443 2.385 . S
O442 C447 1.255 . S
Cd443 O442 2.385 . S
Cd443 O444 2.317 . S
O444 Cd443 2.317 . S
O444 C445 1.232 . S
C445 O444 1.232 . S
C445 O446 1.218 . S
O446 C445 1.218 . S
C447 O440 1.275 . S
C447 O442 1.255 . S
C448 O449 1.258 . S
C448 O450 1.256 . S
O449 Cd441 2.381 . S
O449 C448 1.258 . S
O450 Cd441 2.378 . S
O450 C448 1.256 . S
O451 Cd452 2.300 . S
O451 C458 1.275 . S
Cd452 O451 2.300 . S
Cd452 O460 2.381 . S
Cd452 O461 2.378 . S
O453 Cd454 2.385 . S
O453 C458 1.255 . S
Cd454 O453 2.385 . S
Cd454 O455 2.317 . S
O455 Cd454 2.317 . S
O455 C456 1.232 . S
C456 O455 1.232 . S
C456 O457 1.218 . S
O457 C456 1.218 . S
C458 O451 1.275 . S
C458 O453 1.255 . S
C459 O460 1.258 . S
C459 O461 1.256 . S
O460 Cd452 2.381 . S
O460 C459 1.258 . S
O461 Cd452 2.378 . S
O461 C459 1.256 . S
O462 Cd463 2.300 . S
O462 C469 1.275 . S
Cd463 O462 2.300 . S
Cd463 O471 2.381 . S
Cd463 O472 2.378 . S
O464 Cd465 2.385 . S
O464 C469 1.255 . S
Cd465 O464 2.385 . S
Cd465 O466 2.317 . S
O466 Cd465 2.317 . S
O466 C467 1.232 . S
C467 O466 1.232 . S
C467 O468 1.218 . S
O468 C467 1.218 . S
C469 O462 1.275 . S
C469 O464 1.255 . S
C470 O471 1.258 . S
C470 O472 1.256 . S
O471 Cd463 2.381 . S
O471 C470 1.258 . S
O472 Cd463 2.378 . S
O472 C470 1.256 . S
O473 Cd474 2.300 . S
O473 C480 1.275 . S
Cd474 O473 2.300 . S
Cd474 O482 2.381 . S
Cd474 O483 2.378 . S
O475 Cd476 2.385 . S
O475 C480 1.255 . S
Cd476 O475 2.385 . S
Cd476 O477 2.317 . S
O477 Cd476 2.317 . S
O477 C478 1.232 . S
C478 O477 1.232 . S
C478 O479 1.218 . S
O479 C478 1.218 . S
C480 O473 1.275 . S
C480 O475 1.255 . S
C481 O482 1.258 . S
C481 O483 1.256 . S
O482 Cd474 2.381 . S
O482 C481 1.258 . S
O483 Cd474 2.378 . S
O483 C481 1.256 . S
O484 Cd485 2.300 . S
O484 C491 1.275 . S
Cd485 O484 2.300 . S
Cd485 O493 2.381 . S
Cd485 O494 2.378 . S
O486 Cd487 2.385 . S
O486 C491 1.255 . S
Cd487 O486 2.385 . S
Cd487 O488 2.317 . S
O488 Cd487 2.317 . S
O488 C489 1.232 . S
C489 O488 1.232 . S
C489 O490 1.218 . S
O490 C489 1.218 . S
C491 O484 1.275 . S
C491 O486 1.255 . S
C492 O493 1.258 . S
C492 O494 1.256 . S
O493 Cd485 2.381 . S
O493 C492 1.258 . S
O494 Cd485 2.378 . S
O494 C492 1.256 . S
O495 Cd496 2.300 1_556 S
O495 C502 1.275 1_556 S
Cd496 O495 2.300 1_554 S
Cd496 O504 2.381 1_554 S
Cd496 O505 2.378 . S
O497 Cd498 2.385 . S
O497 C502 1.255 . S
Cd498 O497 2.385 . S
Cd498 O499 2.317 . S
O499 Cd498 2.317 . S
O499 C500 1.232 . S
C500 O499 1.232 . S
C500 O501 1.218 . S
O501 C500 1.218 . S
C502 O495 1.275 1_554 S
C502 O497 1.255 . S
C503 O504 1.258 1_554 S
C503 O505 1.256 . S
O504 Cd496 2.381 1_556 S
O504 C503 1.258 1_556 S
O505 Cd496 2.378 . S
O505 C503 1.256 . S
O506 Cd507 2.300 . S
O506 C513 1.275 . S
Cd507 O506 2.300 . S
Cd507 O515 2.381 . S
Cd507 O516 2.378 . S
O508 Cd509 2.378 1_565 S
O508 C513 1.260 . S
Cd509 O508 2.378 1_545 S
Cd509 O510 2.317 1_545 S
O510 Cd509 2.317 1_565 S
O510 C511 1.232 1_565 S
C511 O510 1.232 1_545 S
C511 O512 1.218 . S
O512 C511 1.218 . S
C513 O506 1.275 . S
C513 O508 1.260 . S
C514 O515 1.258 . S
C514 O516 1.256 . S
O515 Cd507 2.381 . S
O515 C514 1.258 . S
O516 Cd507 2.378 . S
O516 C514 1.256 . S
O517 Cd518 2.300 . S
O517 C524 1.275 . S
Cd518 O517 2.300 . S
Cd518 O526 2.381 . S
Cd518 O527 2.378 . S
O519 Cd520 2.385 . S
O519 C524 1.255 . S
Cd520 O519 2.385 . S
Cd520 O521 2.317 . S
O521 Cd520 2.317 . S
O521 C522 1.232 . S
C522 O521 1.232 . S
C522 O523 1.218 . S
O523 C522 1.218 . S
C524 O517 1.275 . S
C524 O519 1.255 . S
C525 O526 1.258 . S
C525 O527 1.256 . S
O526 Cd518 2.381 . S
O526 C525 1.258 . S
O527 Cd518 2.378 . S
O527 C525 1.256 . S
C8 C250 1.978 . S
C448 C19 1.866 . S
C30 C261 1.728 . S
C41 C503 1.650 1_556 S
C206 C52 1.650 1_655 S
C63 C217 1.728 . S
C492 C74 1.978 . S
C195 C85 1.866 . S
C151 C96 1.978 . S
C162 C107 1.651 1_545 S
C118 C173 1.866 . S
C129 C140 1.728 . S
C283 C184 1.978 . S
C338 C228 1.866 . S
C305 C239 1.650 . S
C272 C514 1.866 . S
C294 C525 1.728 . S
C316 C470 1.650 . S
C327 C481 1.728 . S
C349 C459 1.978 . S
C415 C360 1.866 . S
C426 C371 1.650 . S
C437 C382 1.978 . S
C404 C393 1.728 . S
C7 C84 1.816 . S
C51 C18 1.751 1_455 S
C29 C62 1.671 . S
C40 C73 1.803 . S
C95 C227 1.816 . S
C106 C458 1.804 . S
C469 C117 1.751 . S
C480 C128 1.671 . S
C139 C524 1.671 . S
C150 C238 1.803 . S
C161 C513 1.751 1_545 S
C183 C172 1.816 . S
C370 C194 1.751 . S
C381 C205 1.803 . S
C392 C216 1.671 . S
C249 C425 1.803 . S
C403 C260 1.671 . S
C348 C271 1.816 . S
C282 C315 1.803 . S
C293 C326 1.671 . S
C337 C304 1.750 . S
C491 C359 1.816 . S
C414 C502 1.751 1_556 S
C447 C436 1.816 . S
C324 C5 0.902 . S
C335 C16 3.400 . S
C346 C27 0.903 . S
C313 C38 0.711 . S
C49 C302 0.967 . S
C60 C269 3.083 . S
C71 C280 1.744 . S
C291 C82 3.082 . S
C93 C522 0.902 . S
C104 C236 0.710 . S
C115 C511 3.400 . S
C181 C126 0.902 . S
C137 C225 3.082 . S
C456 C148 1.744 . S
C159 C467 0.967 . S
C478 C170 3.082 . S
C412 C192 3.400 . S
C423 C203 0.711 . S
C214 C434 0.903 . S
C247 C379 1.744 . S
C258 C357 3.083 . S
C368 C500 0.967 . S
C390 C445 3.083 . S
C401 C489 0.903 . S
