# Generated by pormake.
# Topology vbm, (6)-cn, num edge types: 1
# Building blocks:
#     Node 0, Type 0, BuildingBlock: GEDQOX_clean_sbu_0, # of connection points: 6
#     Node 1, Type 0, BuildingBlock: GEDQOX_clean_sbu_0, # of connection points: 6
#     Node 2, Type 0, BuildingBlock: GEDQOX_clean_sbu_0, # of connection points: 6
#     Node 3, Type 0, BuildingBlock: GEDQOX_clean_sbu_0, # of connection points: 6
#     Node 4, Type 0, BuildingBlock: GEDQOX_clean_sbu_0, # of connection points: 6
#     Node 5, Type 0, BuildingBlock: GEDQOX_clean_sbu_0, # of connection points: 6
#     Node 6, Type 0, BuildingBlock: GEDQOX_clean_sbu_0, # of connection points: 6
#     Node 7, Type 0, BuildingBlock: GEDQOX_clean_sbu_0, # of connection points: 6
#     Node 8, Type 0, BuildingBlock: GEDQOX_clean_sbu_0, # of connection points: 6
#     Node 9, Type 0, BuildingBlock: GEDQOX_clean_sbu_0, # of connection points: 6
#     Node 10, Type 0, BuildingBlock: GEDQOX_clean_sbu_0, # of connection points: 6
#     Node 11, Type 0, BuildingBlock: GEDQOX_clean_sbu_0, # of connection points: 6
#     Node 12, Type 0, BuildingBlock: GEDQOX_clean_sbu_0, # of connection points: 6
#     Node 13, Type 0, BuildingBlock: GEDQOX_clean_sbu_0, # of connection points: 6
#     Node 14, Type 0, BuildingBlock: GEDQOX_clean_sbu_0, # of connection points: 6
#     Node 15, Type 0, BuildingBlock: GEDQOX_clean_sbu_0, # of connection points: 6
#     Edge 16, Type (0, 0), BuildingBlock: UVAHIK_clean_linker_0, # of connection points: 2
#     Edge 17, Type (0, 0), BuildingBlock: UVAHIK_clean_linker_0, # of connection points: 2
#     Edge 18, Type (0, 0), BuildingBlock: UVAHIK_clean_linker_0, # of connection points: 2
#     Edge 19, Type (0, 0), BuildingBlock: UVAHIK_clean_linker_0, # of connection points: 2
#     Edge 20, Type (0, 0), BuildingBlock: UVAHIK_clean_linker_0, # of connection points: 2
#     Edge 21, Type (0, 0), BuildingBlock: UVAHIK_clean_linker_0, # of connection points: 2
#     Edge 22, Type (0, 0), BuildingBlock: UVAHIK_clean_linker_0, # of connection points: 2
#     Edge 23, Type (0, 0), BuildingBlock: UVAHIK_clean_linker_0, # of connection points: 2
#     Edge 24, Type (0, 0), BuildingBlock: UVAHIK_clean_linker_0, # of connection points: 2
#     Edge 25, Type (0, 0), BuildingBlock: UVAHIK_clean_linker_0, # of connection points: 2
#     Edge 26, Type (0, 0), BuildingBlock: UVAHIK_clean_linker_0, # of connection points: 2
#     Edge 27, Type (0, 0), BuildingBlock: UVAHIK_clean_linker_0, # of connection points: 2
#     Edge 28, Type (0, 0), BuildingBlock: UVAHIK_clean_linker_0, # of connection points: 2
#     Edge 29, Type (0, 0), BuildingBlock: UVAHIK_clean_linker_0, # of connection points: 2
#     Edge 30, Type (0, 0), BuildingBlock: UVAHIK_clean_linker_0, # of connection points: 2
#     Edge 31, Type (0, 0), BuildingBlock: UVAHIK_clean_linker_0, # of connection points: 2
#     Edge 32, Type (0, 0), BuildingBlock: UVAHIK_clean_linker_0, # of connection points: 2
#     Edge 33, Type (0, 0), BuildingBlock: UVAHIK_clean_linker_0, # of connection points: 2
#     Edge 34, Type (0, 0), BuildingBlock: UVAHIK_clean_linker_0, # of connection points: 2
#     Edge 35, Type (0, 0), BuildingBlock: UVAHIK_clean_linker_0, # of connection points: 2
#     Edge 36, Type (0, 0), BuildingBlock: UVAHIK_clean_linker_0, # of connection points: 2
#     Edge 37, Type (0, 0), BuildingBlock: UVAHIK_clean_linker_0, # of connection points: 2
#     Edge 38, Type (0, 0), BuildingBlock: UVAHIK_clean_linker_0, # of connection points: 2
#     Edge 39, Type (0, 0), BuildingBlock: UVAHIK_clean_linker_0, # of connection points: 2
#     Edge 40, Type (0, 0), BuildingBlock: UVAHIK_clean_linker_0, # of connection points: 2
#     Edge 41, Type (0, 0), BuildingBlock: UVAHIK_clean_linker_0, # of connection points: 2
#     Edge 42, Type (0, 0), BuildingBlock: UVAHIK_clean_linker_0, # of connection points: 2
#     Edge 43, Type (0, 0), BuildingBlock: UVAHIK_clean_linker_0, # of connection points: 2
#     Edge 44, Type (0, 0), BuildingBlock: UVAHIK_clean_linker_0, # of connection points: 2
#     Edge 45, Type (0, 0), BuildingBlock: UVAHIK_clean_linker_0, # of connection points: 2
#     Edge 46, Type (0, 0), BuildingBlock: UVAHIK_clean_linker_0, # of connection points: 2
#     Edge 47, Type (0, 0), BuildingBlock: UVAHIK_clean_linker_0, # of connection points: 2
#     Edge 48, Type (0, 0), BuildingBlock: UVAHIK_clean_linker_0, # of connection points: 2
#     Edge 49, Type (0, 0), BuildingBlock: UVAHIK_clean_linker_0, # of connection points: 2
#     Edge 50, Type (0, 0), BuildingBlock: UVAHIK_clean_linker_0, # of connection points: 2
#     Edge 51, Type (0, 0), BuildingBlock: UVAHIK_clean_linker_0, # of connection points: 2
#     Edge 52, Type (0, 0), BuildingBlock: UVAHIK_clean_linker_0, # of connection points: 2
#     Edge 53, Type (0, 0), BuildingBlock: UVAHIK_clean_linker_0, # of connection points: 2
#     Edge 54, Type (0, 0), BuildingBlock: UVAHIK_clean_linker_0, # of connection points: 2
#     Edge 55, Type (0, 0), BuildingBlock: UVAHIK_clean_linker_0, # of connection points: 2
#     Edge 56, Type (0, 0), BuildingBlock: UVAHIK_clean_linker_0, # of connection points: 2
#     Edge 57, Type (0, 0), BuildingBlock: UVAHIK_clean_linker_0, # of connection points: 2
#     Edge 58, Type (0, 0), BuildingBlock: UVAHIK_clean_linker_0, # of connection points: 2
#     Edge 59, Type (0, 0), BuildingBlock: UVAHIK_clean_linker_0, # of connection points: 2
#     Edge 60, Type (0, 0), BuildingBlock: UVAHIK_clean_linker_0, # of connection points: 2
#     Edge 61, Type (0, 0), BuildingBlock: UVAHIK_clean_linker_0, # of connection points: 2
#     Edge 62, Type (0, 0), BuildingBlock: UVAHIK_clean_linker_0, # of connection points: 2
#     Edge 63, Type (0, 0), BuildingBlock: UVAHIK_clean_linker_0, # of connection points: 2
# Relax obj value: 0.183
# Max RMSD: 0.201
# Mean RMSD: 0.201
data_MOF--net-vbm--node1-GEDQOX_clean_sbu_0--edge1-UVAHIK_clean_linker_0
_symmetry_space_group_name_H-M    P1
_symmetry_Int_Tables_number       1
_symmetry_cell_setting            triclinic
loop_
_symmetry_equiv_pos_as_xyz
'x, y, z'
_cell_length_a     121.72548
_cell_length_b     20.32049
_cell_length_c     76.719173
_cell_angle_alpha  90.151584
_cell_angle_beta   89.884154
_cell_angle_gamma 89.904944
loop_
_atom_site_label
_atom_site_type_symbol
_atom_site_fract_x
_atom_site_fract_y
_atom_site_fract_z
_atom_type_partial_charge
Nd0 Nd 0.12473 0.10289 0.12727 0.0
Nd1 Nd 0.14884 0.09365 0.12074 0.0
C2 C 0.10397 0.09843 0.13827 0.0
C3 C 0.0925 0.07574 0.13577 0.0
C4 C 0.08594 0.0646 0.15053 0.0
C5 C 0.07466 0.05248 0.14889 0.0
C6 C 0.0696 0.05099 0.13238 0.0
C7 C 0.07629 0.06009 0.11754 0.0
C8 C 0.0876 0.0725 0.11921 0.0
C9 C 0.13028 0.11442 0.09236 0.0
C10 C 0.13588 0.95637 0.12085 0.0
C11 C 0.16971 0.1012 0.11035 0.0
C12 C 0.1804 0.13601 0.11178 0.0
C13 C 0.18661 0.14684 0.09663 0.0
C14 C 0.19731 0.17197 0.09761 0.0
C15 C 0.20213 0.18693 0.11383 0.0
C16 C 0.19576 0.17772 0.129 0.0
C17 C 0.18503 0.15253 0.128 0.0
C18 C 0.14296 0.07677 0.1552 0.0
C19 C 0.13784 0.23974 0.12771 0.0
O20 O 0.11147 0.05678 0.14347 0.0
O21 O 0.10778 0.14223 0.12743 0.0
O22 O 0.12256 0.14741 0.1 0.0
O23 O 0.13451 0.07394 0.10284 0.0
O24 O 0.12791 0.98992 0.12864 0.0
O25 O 0.1442 0.9876 0.11351 0.0
O26 O 0.16162 0.12961 0.10204 0.0
O27 O 0.16638 0.06694 0.12373 0.0
O28 O 0.15045 0.04277 0.14727 0.0
O29 O 0.13904 0.12039 0.14527 0.0
O30 O 0.14575 0.20655 0.11974 0.0
O31 O 0.12959 0.20812 0.13503 0.0
H32 H 0.08948 0.06775 0.16345 0.0
H33 H 0.06985 0.04683 0.16067 0.0
H34 H 0.07278 0.0583 0.10459 0.0
H35 H 0.09246 0.08118 0.1076 0.0
H36 H 0.1833 0.13381 0.08398 0.0
H37 H 0.20195 0.17738 0.08564 0.0
H38 H 0.19908 0.18956 0.14171 0.0
H39 H 0.18046 0.14467 0.13994 0.0
Nd40 Nd 0.89506 0.9596 0.12698 0.0
Nd41 Nd 0.87094 0.96864 0.12053 0.0
C42 C 0.9158 0.96431 0.13794 0.0
C43 C 0.92734 0.9861 0.13553 0.0
C44 C 0.93358 1.00189 0.15032 0.0
C45 C 0.94493 1.01211 0.14901 0.0
C46 C 0.95036 1.00685 0.13285 0.0
C47 C 0.944 0.99395 0.11788 0.0
C48 C 0.93262 0.98336 0.11922 0.0
C49 C 0.88955 0.9478 0.09208 0.0
C50 C 0.88388 0.10596 0.1207 0.0
C51 C 0.85009 0.96082 0.11019 0.0
C52 C 0.8394 0.92601 0.11168 0.0
C53 C 0.83325 0.91429 0.09654 0.0
C54 C 0.82255 0.88913 0.09756 0.0
C55 C 0.81768 0.87504 0.11381 0.0
C56 C 0.824 0.88514 0.12897 0.0
C57 C 0.83472 0.91035 0.12793 0.0
C58 C 0.87677 0.98577 0.15498 0.0
C59 C 0.88195 0.82271 0.1274 0.0
O60 O 0.90831 1.0065 0.14303 0.0
O61 O 0.91198 0.91989 0.12725 0.0
O62 O 0.89729 0.91503 0.09964 0.0
O63 O 0.8853 0.98826 0.10262 0.0
O64 O 0.89184 0.07256 0.12847 0.0
O65 O 0.8756 0.07459 0.11334 0.0
O66 O 0.8582 0.93214 0.10188 0.0
O67 O 0.8534 0.99553 0.12352 0.0
O68 O 0.86928 1.01962 0.14712 0.0
O69 O 0.88072 0.94216 0.14499 0.0
O70 O 0.87405 0.85575 0.11945 0.0
O71 O 0.89019 0.85448 0.13471 0.0
H72 H 0.92973 1.00391 0.16306 0.0
H73 H 0.9495 1.02304 0.16077 0.0
H74 H 0.94789 0.98919 0.10523 0.0
H75 H 0.92803 0.9708 0.1076 0.0
H76 H 0.8366 0.92664 0.08387 0.0
H77 H 0.81796 0.883 0.0856 0.0
H78 H 0.82063 0.87399 0.1417 0.0
H79 H 0.83926 0.91891 0.13985 0.0
Nd80 Nd 0.12475 0.96083 0.36907 0.0
Nd81 Nd 0.14891 0.96974 0.37536 0.0
C82 C 0.10398 0.96561 0.35825 0.0
C83 C 0.0925 0.98831 0.36075 0.0
C84 C 0.08599 0.99981 0.346 0.0
C85 C 0.0747 1.01188 0.34763 0.0
C86 C 0.06958 1.01296 0.36412 0.0
C87 C 0.07622 1.00351 0.37897 0.0
C88 C 0.08754 0.99115 0.37731 0.0
C89 C 0.13043 0.94912 0.40389 0.0
C90 C 0.1359 0.10717 0.37547 0.0
C91 C 0.16979 0.96177 0.38553 0.0
C92 C 0.18053 0.92709 0.38406 0.0
C93 C 0.18597 0.9073 0.3993 0.0
C94 C 0.19677 0.88316 0.39863 0.0
C95 C 0.20246 0.87833 0.38266 0.0
C96 C 0.19684 0.89591 0.36731 0.0
C97 C 0.18603 0.92013 0.36799 0.0
C98 C 0.14298 0.98774 0.34104 0.0
C99 C 0.13791 0.82383 0.36839 0.0
O100 O 0.11148 1.00714 0.35298 0.0
O101 O 0.10781 0.92183 0.36909 0.0
O102 O 0.12265 0.91632 0.39641 0.0
O103 O 0.1346 0.98948 0.39334 0.0
O104 O 0.12792 0.0738 0.36776 0.0
O105 O 0.14423 0.07576 0.38272 0.0
O106 O 0.16172 0.93343 0.39392 0.0
O107 O 0.16643 0.99639 0.37225 0.0
O108 O 0.15046 1.02141 0.34897 0.0
O109 O 0.13907 0.94374 0.35088 0.0
O110 O 0.14584 0.85686 0.37626 0.0
O111 O 0.12962 0.85559 0.36122 0.0
H112 H 0.08958 0.99697 0.33308 0.0
H113 H 0.06993 1.0178 0.33584 0.0
H114 H 0.07266 1.00498 0.39191 0.0
H115 H 0.09235 0.98218 0.38892 0.0
H116 H 0.18198 0.91243 0.41187 0.0
H117 H 0.2007 0.86905 0.4107 0.0
H118 H 0.20094 0.89345 0.35478 0.0
H119 H 0.18211 0.93531 0.35599 0.0
Nd120 Nd 0.895 0.10142 0.36869 0.0
Nd121 Nd 0.87094 0.09272 0.37548 0.0
C122 C 0.91572 0.09623 0.35749 0.0
C123 C 0.92728 0.07505 0.36004 0.0
C124 C 0.93364 0.05936 0.34533 0.0
C125 C 0.945 0.04958 0.34675 0.0
C126 C 0.95031 0.05515 0.36298 0.0
C127 C 0.94384 0.06798 0.37786 0.0
C128 C 0.93245 0.07815 0.3764 0.0
C129 C 0.8896 0.1137 0.40367 0.0
C130 C 0.88388 0.95527 0.37521 0.0
C131 C 0.85011 0.10083 0.38604 0.0
C132 C 0.83942 0.13581 0.38458 0.0
C133 C 0.83319 0.1471 0.39971 0.0
C134 C 0.82249 0.17241 0.39869 0.0
C135 C 0.81769 0.18709 0.38246 0.0
C136 C 0.82409 0.17744 0.3673 0.0
C137 C 0.83481 0.15208 0.36834 0.0
C138 C 0.87665 0.07423 0.34101 0.0
C139 C 0.88187 0.23842 0.36826 0.0
O140 O 0.9083 0.05314 0.35287 0.0
O141 O 0.91185 0.1418 0.36783 0.0
O142 O 0.89731 0.14628 0.39596 0.0
O143 O 0.88534 0.07317 0.39322 0.0
O144 O 0.89178 0.98851 0.36723 0.0
O145 O 0.87565 0.98686 0.38276 0.0
O146 O 0.85821 0.12953 0.39424 0.0
O147 O 0.85341 0.06591 0.37271 0.0
O148 O 0.86923 0.04057 0.3491 0.0
O149 O 0.88061 0.11835 0.35078 0.0
O150 O 0.87401 0.2056 0.37638 0.0
O151 O 0.89008 0.2064 0.36084 0.0
H152 H 0.92988 0.05706 0.33255 0.0
H153 H 0.94966 0.0387 0.33506 0.0
H154 H 0.94764 0.07297 0.39055 0.0
H155 H 0.92776 0.09065 0.38796 0.0
H156 H 0.83649 0.13429 0.41237 0.0
H157 H 0.81784 0.17819 0.41064 0.0
H158 H 0.82078 0.18905 0.35459 0.0
H159 H 0.8394 0.14387 0.35642 0.0
Nd160 Nd 0.87077 0.96864 0.87533 0.0
Nd161 Nd 0.89479 0.95943 0.86867 0.0
C162 C 0.84991 0.96087 0.88578 0.0
C163 C 0.83922 0.92597 0.88434 0.0
C164 C 0.83299 0.91535 0.89948 0.0
C165 C 0.82229 0.89016 0.89848 0.0
C166 C 0.8175 0.8749 0.88226 0.0
C167 C 0.8239 0.8839 0.86711 0.0
C168 C 0.83462 0.90916 0.86813 0.0
C169 C 0.87649 0.98675 0.84085 0.0
C170 C 0.8817 0.82266 0.86805 0.0
C171 C 0.91557 0.96409 0.85772 0.0
C172 C 0.92712 0.98559 0.8602 0.0
C173 C 0.93341 1.00142 0.84546 0.0
C174 C 0.94477 1.01149 0.84681 0.0
C175 C 0.95014 1.00607 0.86297 0.0
C176 C 0.94373 0.99308 0.8779 0.0
C177 C 0.93235 0.98263 0.87651 0.0
C178 C 0.88928 0.94742 0.90362 0.0
C179 C 0.88368 0.10594 0.87518 0.0
O180 O 0.85802 0.93248 0.89405 0.0
O181 O 0.85322 0.99523 0.87241 0.0
O182 O 0.86907 1.02064 0.84899 0.0
O183 O 0.88046 0.94273 0.8506 0.0
O184 O 0.87384 0.85572 0.87617 0.0
O185 O 0.88992 0.85445 0.86069 0.0
O186 O 0.90812 1.00657 0.85279 0.0
O187 O 0.91169 0.91943 0.86825 0.0
O188 O 0.89693 0.91414 0.89589 0.0
O189 O 0.88512 0.98831 0.8932 0.0
O190 O 0.89161 0.0724 0.86728 0.0
O191 O 0.87541 0.07465 0.88264 0.0
H192 H 0.83627 0.9286 0.91213 0.0
H193 H 0.81764 0.88491 0.91044 0.0
H194 H 0.8206 0.87184 0.8544 0.0
H195 H 0.83922 0.91686 0.8562 0.0
H196 H 0.92961 1.00361 0.83272 0.0
H197 H 0.94938 1.02249 0.83508 0.0
H198 H 0.94757 0.9882 0.89054 0.0
H199 H 0.92771 0.97003 0.8881 0.0
Nd200 Nd 0.14866 0.09404 0.87531 0.0
Nd201 Nd 0.1246 0.10308 0.86901 0.0
C202 C 0.16952 0.10179 0.88563 0.0
C203 C 0.18021 0.13671 0.88431 0.0
C204 C 0.18645 0.14632 0.89946 0.0
C205 C 0.19714 0.17156 0.89854 0.0
C206 C 0.20193 0.1879 0.88238 0.0
C207 C 0.19552 0.17989 0.86722 0.0
C208 C 0.1848 0.15456 0.86816 0.0
C209 C 0.14285 0.07689 0.84083 0.0
C210 C 0.13767 0.23997 0.86846 0.0
C211 C 0.10381 0.09864 0.85829 0.0
C212 C 0.09233 0.07579 0.8607 0.0
C213 C 0.08585 0.0645 0.84589 0.0
C214 C 0.07457 0.05234 0.84744 0.0
C215 C 0.06942 0.05097 0.86391 0.0
C216 C 0.07603 0.06021 0.87881 0.0
C217 C 0.08735 0.07266 0.87722 0.0
C218 C 0.13024 0.11495 0.90389 0.0
C219 C 0.13575 0.95662 0.87518 0.0
O220 O 0.16141 0.12987 0.89405 0.0
O221 O 0.16622 0.06787 0.87214 0.0
O222 O 0.15032 0.04296 0.84873 0.0
O223 O 0.13888 0.12042 0.85083 0.0
O224 O 0.14557 0.20694 0.8764 0.0
O225 O 0.12942 0.20817 0.8612 0.0
O226 O 0.11133 0.05746 0.85277 0.0
O227 O 0.10762 0.14185 0.86934 0.0
O228 O 0.12257 0.14837 0.89632 0.0
O229 O 0.13437 0.0741 0.89334 0.0
O230 O 0.12776 0.99007 0.86752 0.0
O231 O 0.14407 0.98795 0.88245 0.0
H232 H 0.18316 0.13226 0.91205 0.0
H233 H 0.2018 0.176 0.9105 0.0
H234 H 0.19882 0.19279 0.85457 0.0
H235 H 0.1802 0.14764 0.85623 0.0
H236 H 0.08946 0.06758 0.83299 0.0
H237 H 0.06982 0.04659 0.83562 0.0
H238 H 0.07245 0.0585 0.89173 0.0
H239 H 0.09214 0.08147 0.88888 0.0
Nd240 Nd 0.87107 0.09466 0.62055 0.0
Nd241 Nd 0.8951 0.1034 0.62706 0.0
C242 C 0.85024 0.1027 0.61011 0.0
C243 C 0.83952 0.13743 0.6116 0.0
C244 C 0.83336 0.14887 0.59646 0.0
C245 C 0.82264 0.17395 0.59747 0.0
C246 C 0.81775 0.18826 0.61371 0.0
C247 C 0.82407 0.17842 0.62888 0.0
C248 C 0.83481 0.15327 0.62785 0.0
C249 C 0.87677 0.07782 0.65508 0.0
C250 C 0.88202 0.2405 0.62758 0.0
C251 C 0.91586 0.0987 0.63795 0.0
C252 C 0.92735 0.07596 0.63546 0.0
C253 C 0.93388 0.06519 0.65021 0.0
C254 C 0.94517 0.05307 0.64857 0.0
C255 C 0.95026 0.0512 0.63205 0.0
C256 C 0.94359 0.05994 0.61721 0.0
C257 C 0.93227 0.07236 0.61889 0.0
C258 C 0.88959 0.11504 0.59215 0.0
C259 C 0.88399 0.95707 0.62073 0.0
O260 O 0.85835 0.13149 0.60193 0.0
O261 O 0.85353 0.06783 0.62339 0.0
O262 O 0.86931 0.04402 0.64711 0.0
O263 O 0.88076 0.12114 0.64514 0.0
O264 O 0.87416 0.20751 0.61954 0.0
O265 O 0.89024 0.20862 0.63493 0.0
O266 O 0.90836 0.05718 0.6432 0.0
O267 O 0.91204 0.14242 0.62709 0.0
O268 O 0.89724 0.1483 0.5998 0.0
O269 O 0.88542 0.07437 0.60262 0.0
O270 O 0.89193 0.99049 0.62853 0.0
O271 O 0.87572 0.98848 0.61333 0.0
H272 H 0.83673 0.13637 0.58379 0.0
H273 H 0.81805 0.17986 0.5855 0.0
H274 H 0.82069 0.18974 0.64161 0.0
H275 H 0.83935 0.14492 0.63978 0.0
H276 H 0.93032 0.06863 0.66314 0.0
H277 H 0.94997 0.04772 0.66035 0.0
H278 H 0.94712 0.05785 0.60426 0.0
H279 H 0.92743 0.08076 0.60727 0.0
Nd280 Nd 0.14901 0.96953 0.62037 0.0
Nd281 Nd 0.12494 0.96084 0.62675 0.0
C282 C 0.16988 0.96144 0.61003 0.0
C283 C 0.18063 0.9269 0.61135 0.0
C284 C 0.18636 0.91085 0.59601 0.0
C285 C 0.19715 0.8869 0.59667 0.0
C286 C 0.20256 0.87848 0.61274 0.0
C287 C 0.19665 0.89225 0.62815 0.0
C288 C 0.18583 0.91634 0.62747 0.0
C289 C 0.14315 0.98793 0.65481 0.0
C290 C 0.13804 0.82384 0.62744 0.0
C291 C 0.10413 0.9658 0.63751 0.0
C292 C 0.09258 0.98741 0.63504 0.0
C293 C 0.0863 1.00388 0.64979 0.0
C294 C 0.07494 1.01394 0.64847 0.0
C295 C 0.06954 1.00784 0.63234 0.0
C296 C 0.07593 0.99425 0.61741 0.0
C297 C 0.08732 0.98382 0.61875 0.0
C298 C 0.13065 0.94863 0.59187 0.0
C299 C 0.13608 0.10707 0.62048 0.0
O300 O 0.1618 0.93302 0.60169 0.0
O301 O 0.16654 0.99601 0.6234 0.0
O302 O 0.15061 1.02151 0.6468 0.0
O303 O 0.1392 0.944 0.64496 0.0
O304 O 0.14595 0.85664 0.61944 0.0
O305 O 0.12978 0.85587 0.6347 0.0
O306 O 0.11156 1.00811 0.6426 0.0
O307 O 0.10803 0.92121 0.6269 0.0
O308 O 0.12293 0.91554 0.5994 0.0
O309 O 0.13474 0.9894 0.60241 0.0
O310 O 0.1281 0.07379 0.62825 0.0
O311 O 0.14438 0.07552 0.61311 0.0
H312 H 0.18258 0.91878 0.58341 0.0
H313 H 0.20132 0.87576 0.58453 0.0
H314 H 0.20053 0.8869 0.64076 0.0
H315 H 0.18168 0.92857 0.63955 0.0
H316 H 0.09013 1.00656 0.66251 0.0
H317 H 0.07034 1.02541 0.6602 0.0
H318 H 0.07207 0.98884 0.60478 0.0
H319 H 0.09194 0.97071 0.60717 0.0
Nd320 Nd 0.6247 0.60233 0.12688 0.0
Nd321 Nd 0.64889 0.59324 0.12071 0.0
C322 C 0.60389 0.59792 0.13763 0.0
C323 C 0.59243 0.57495 0.1352 0.0
C324 C 0.58589 0.56435 0.14999 0.0
C325 C 0.57461 0.55208 0.14838 0.0
C326 C 0.56954 0.5499 0.13189 0.0
C327 C 0.57623 0.55844 0.11701 0.0
C328 C 0.58754 0.571 0.11865 0.0
C329 C 0.63051 0.61361 0.09207 0.0
C330 C 0.63593 0.45588 0.12065 0.0
C331 C 0.6698 0.60105 0.11057 0.0
C332 C 0.68054 0.6355 0.11209 0.0
C333 C 0.68607 0.65484 0.09686 0.0
C334 C 0.69686 0.67882 0.09758 0.0
C335 C 0.70245 0.68394 0.11358 0.0
C336 C 0.69675 0.6668 0.12892 0.0
C337 C 0.68594 0.64272 0.12818 0.0
C338 C 0.64282 0.57652 0.15508 0.0
C339 C 0.63781 0.73928 0.12747 0.0
O340 O 0.61141 0.5568 0.14311 0.0
O341 O 0.60772 0.64107 0.12662 0.0
O342 O 0.62271 0.64659 0.09951 0.0
O343 O 0.63466 0.57332 0.10267 0.0
O344 O 0.62789 0.48938 0.12828 0.0
O345 O 0.64429 0.48714 0.11344 0.0
O346 O 0.66175 0.62972 0.10222 0.0
O347 O 0.66641 0.56622 0.1238 0.0
O348 O 0.65039 0.54272 0.14729 0.0
O349 O 0.63893 0.62 0.14507 0.0
O350 O 0.64578 0.70612 0.11965 0.0
O351 O 0.6295 0.70766 0.13463 0.0
H352 H 0.58943 0.56806 0.1629 0.0
H353 H 0.5698 0.54688 0.16018 0.0
H354 H 0.57272 0.55611 0.10407 0.0
H355 H 0.59239 0.57927 0.10701 0.0
H356 H 0.68215 0.6495 0.08427 0.0
H357 H 0.70086 0.69259 0.08552 0.0
H358 H 0.70078 0.66951 0.14147 0.0
H359 H 0.68196 0.62789 0.14018 0.0
Nd360 Nd 0.395 0.45908 0.12691 0.0
Nd361 Nd 0.37093 0.46808 0.12047 0.0
C362 C 0.41574 0.46392 0.13787 0.0
C363 C 0.42728 0.48553 0.13537 0.0
C364 C 0.43353 0.50198 0.1501 0.0
C365 C 0.44488 0.51209 0.14875 0.0
C366 C 0.45031 0.50605 0.1326 0.0
C367 C 0.44394 0.49247 0.11769 0.0
C368 C 0.43256 0.482 0.11907 0.0
C369 C 0.38953 0.44725 0.09197 0.0
C370 C 0.38384 0.60538 0.12061 0.0
C371 C 0.35007 0.45998 0.11017 0.0
C372 C 0.33931 0.4258 0.11177 0.0
C373 C 0.33384 0.4055 0.09659 0.0
C374 C 0.32305 0.38164 0.09735 0.0
C375 C 0.31739 0.37759 0.11335 0.0
C376 C 0.32304 0.39572 0.12865 0.0
C377 C 0.33385 0.41968 0.12787 0.0
C378 C 0.37672 0.48526 0.15497 0.0
C379 C 0.38192 0.32216 0.12734 0.0
O380 O 0.40827 0.5064 0.14284 0.0
O381 O 0.4119 0.41913 0.1273 0.0
O382 O 0.39725 0.41447 0.09959 0.0
O383 O 0.38527 0.48771 0.1025 0.0
O384 O 0.39177 0.572 0.12845 0.0
O385 O 0.37558 0.57395 0.11319 0.0
O386 O 0.35816 0.43049 0.10202 0.0
O387 O 0.35341 0.49581 0.12328 0.0
O388 O 0.36924 0.51908 0.14707 0.0
O389 O 0.38067 0.44163 0.14499 0.0
O390 O 0.37404 0.3552 0.11937 0.0
O391 O 0.39015 0.35396 0.13467 0.0
H392 H 0.42968 0.50462 0.16284 0.0
H393 H 0.44945 0.52356 0.16047 0.0
H394 H 0.44783 0.4871 0.10505 0.0
H395 H 0.42796 0.46892 0.10749 0.0
H396 H 0.33781 0.40997 0.08399 0.0
H397 H 0.31909 0.36709 0.08532 0.0
H398 H 0.31896 0.39385 0.1412 0.0
H399 H 0.3378 0.43526 0.13982 0.0
Nd400 Nd 0.62473 0.46157 0.36899 0.0
Nd401 Nd 0.64888 0.47041 0.37526 0.0
C402 C 0.60396 0.46636 0.35818 0.0
C403 C 0.59248 0.48907 0.36069 0.0
C404 C 0.58595 0.50012 0.34594 0.0
C405 C 0.57466 0.5122 0.34759 0.0
C406 C 0.56956 0.51375 0.36409 0.0
C407 C 0.57623 0.50475 0.37894 0.0
C408 C 0.58755 0.49237 0.37726 0.0
C409 C 0.63041 0.44987 0.40382 0.0
C410 C 0.63589 0.60788 0.37537 0.0
C411 C 0.66976 0.46239 0.38541 0.0
C412 C 0.6805 0.42766 0.38393 0.0
C413 C 0.68596 0.40806 0.39917 0.0
C414 C 0.69674 0.38387 0.39849 0.0
C415 C 0.70241 0.3788 0.38251 0.0
C416 C 0.69678 0.39618 0.36715 0.0
C417 C 0.68597 0.42045 0.36785 0.0
C418 C 0.64294 0.4884 0.34093 0.0
C419 C 0.63787 0.32453 0.3683 0.0
O420 O 0.61146 0.5079 0.35291 0.0
O421 O 0.60778 0.42259 0.36902 0.0
O422 O 0.62264 0.41705 0.39634 0.0
O423 O 0.63458 0.49022 0.39327 0.0
O424 O 0.6279 0.57453 0.36767 0.0
O425 O 0.64421 0.57645 0.38263 0.0
O426 O 0.66169 0.4341 0.39381 0.0
O427 O 0.6664 0.49699 0.37213 0.0
O428 O 0.65043 0.52209 0.34887 0.0
O429 O 0.63903 0.44442 0.35078 0.0
O430 O 0.64581 0.35753 0.37617 0.0
O431 O 0.62959 0.35633 0.36113 0.0
H432 H 0.58952 0.49691 0.33301 0.0
H433 H 0.56987 0.51776 0.33581 0.0
H434 H 0.57269 0.5066 0.39189 0.0
H435 H 0.59238 0.48375 0.38887 0.0
H436 H 0.68198 0.41338 0.41175 0.0
H437 H 0.7007 0.36992 0.41056 0.0
H438 H 0.70086 0.39353 0.35462 0.0
H439 H 0.68204 0.43547 0.35585 0.0
Nd440 Nd 0.39501 0.60129 0.36884 0.0
Nd441 Nd 0.371 0.59259 0.37571 0.0
C442 C 0.41572 0.59599 0.35757 0.0
C443 C 0.42728 0.57499 0.36016 0.0
C444 C 0.43363 0.55881 0.34548 0.0
C445 C 0.44499 0.54913 0.34692 0.0
C446 C 0.45031 0.55531 0.36312 0.0
C447 C 0.44384 0.56863 0.37798 0.0
C448 C 0.43245 0.57869 0.37651 0.0
C449 C 0.38971 0.61366 0.40388 0.0
C450 C 0.38392 0.45515 0.37542 0.0
C451 C 0.35018 0.60072 0.38632 0.0
C452 C 0.33948 0.63564 0.38485 0.0
C453 C 0.33324 0.64673 0.39998 0.0
C454 C 0.32254 0.67202 0.39896 0.0
C455 C 0.31776 0.68688 0.38273 0.0
C456 C 0.32416 0.67742 0.36758 0.0
C457 C 0.33489 0.65208 0.36863 0.0
C458 C 0.37664 0.57396 0.34119 0.0
C459 C 0.3819 0.73829 0.36844 0.0
O460 O 0.4083 0.55264 0.3531 0.0
O461 O 0.41184 0.6419 0.3678 0.0
O462 O 0.39739 0.64624 0.39609 0.0
O463 O 0.38541 0.57311 0.39347 0.0
O464 O 0.39179 0.48839 0.36738 0.0
O465 O 0.37571 0.48677 0.38303 0.0
O466 O 0.35829 0.62956 0.39447 0.0
O467 O 0.35347 0.56568 0.373 0.0
O468 O 0.36926 0.54026 0.34936 0.0
O469 O 0.38061 0.61816 0.35093 0.0
O470 O 0.37406 0.70547 0.37661 0.0
O471 O 0.39009 0.70626 0.36098 0.0
H472 H 0.42986 0.55604 0.33271 0.0
H473 H 0.44965 0.53786 0.33524 0.0
H474 H 0.44765 0.57409 0.39065 0.0
H475 H 0.42777 0.59157 0.38804 0.0
H476 H 0.33653 0.6338 0.41264 0.0
H477 H 0.31788 0.67765 0.41091 0.0
H478 H 0.32086 0.68917 0.35487 0.0
H479 H 0.33949 0.64402 0.35671 0.0
Nd480 Nd 0.37069 0.46683 0.87553 0.0
Nd481 Nd 0.39471 0.45867 0.86823 0.0
C482 C 0.35005 0.45772 0.88693 0.0
C483 C 0.33922 0.42457 0.88512 0.0
C484 C 0.33374 0.40283 0.90016 0.0
C485 C 0.32292 0.37953 0.89928 0.0
C486 C 0.31724 0.37748 0.8833 0.0
C487 C 0.32289 0.39711 0.86812 0.0
C488 C 0.33374 0.42051 0.86902 0.0
C489 C 0.37585 0.48362 0.84074 0.0
C490 C 0.38174 0.32134 0.86811 0.0
C491 C 0.41538 0.46388 0.85678 0.0
C492 C 0.42688 0.4858 0.85938 0.0
C493 C 0.43345 0.49759 0.84469 0.0
C494 C 0.44474 0.50931 0.8464 0.0
C495 C 0.44979 0.50974 0.86292 0.0
C496 C 0.44308 0.49989 0.87771 0.0
C497 C 0.43176 0.48789 0.87596 0.0
C498 C 0.38954 0.44743 0.90336 0.0
C499 C 0.38351 0.60461 0.87474 0.0
O500 O 0.35822 0.42545 0.89396 0.0
O501 O 0.35322 0.4969 0.87443 0.0
O502 O 0.36818 0.51526 0.84891 0.0
O503 O 0.38021 0.44111 0.85057 0.0
O504 O 0.37394 0.35419 0.87643 0.0
O505 O 0.38985 0.35334 0.86049 0.0
O506 O 0.40788 0.50669 0.85225 0.0
O507 O 0.41159 0.41847 0.86716 0.0
O508 O 0.39721 0.41455 0.89553 0.0
O509 O 0.38522 0.48767 0.89294 0.0
O510 O 0.39134 0.57125 0.86659 0.0
O511 O 0.3754 0.57312 0.88256 0.0
H512 H 0.33774 0.40566 0.91275 0.0
H513 H 0.31896 0.36377 0.9112 0.0
H514 H 0.3188 0.39679 0.8556 0.0
H515 H 0.3377 0.43721 0.85719 0.0
H516 H 0.42992 0.49534 0.83175 0.0
H517 H 0.44957 0.51555 0.83466 0.0
H518 H 0.44658 0.50085 0.89067 0.0
H519 H 0.42689 0.47867 0.88753 0.0
Nd520 Nd 0.64864 0.59281 0.87529 0.0
Nd521 Nd 0.62449 0.60169 0.86938 0.0
C522 C 0.66955 0.60094 0.8853 0.0
C523 C 0.68031 0.63527 0.88374 0.0
C524 C 0.68574 0.65584 0.89894 0.0
C525 C 0.69653 0.67973 0.89823 0.0
C526 C 0.70224 0.68355 0.88227 0.0
C527 C 0.69664 0.66515 0.86695 0.0
C528 C 0.68582 0.64116 0.86767 0.0
C529 C 0.6426 0.57586 0.8409 0.0
C530 C 0.63755 0.73867 0.86866 0.0
C531 C 0.60365 0.59728 0.85892 0.0
C532 C 0.59211 0.57512 0.86114 0.0
C533 C 0.58593 0.55992 0.84625 0.0
C534 C 0.57457 0.54958 0.8474 0.0
C535 C 0.56907 0.55411 0.86352 0.0
C536 C 0.57536 0.56641 0.87859 0.0
C537 C 0.58675 0.57714 0.8774 0.0
C538 C 0.63039 0.61344 0.90414 0.0
C539 C 0.63572 0.45534 0.87536 0.0
O540 O 0.66149 0.62979 0.89368 0.0
O541 O 0.66616 0.5658 0.87209 0.0
O542 O 0.65018 0.54219 0.84863 0.0
O543 O 0.63867 0.61919 0.85099 0.0
O544 O 0.64552 0.70568 0.87644 0.0
O545 O 0.62925 0.70685 0.86154 0.0
O546 O 0.61114 0.55613 0.85326 0.0
O547 O 0.6075 0.64029 0.86998 0.0
O548 O 0.62262 0.64669 0.89678 0.0
O549 O 0.63445 0.57277 0.89348 0.0
O550 O 0.62767 0.48873 0.86783 0.0
O551 O 0.64408 0.48672 0.88251 0.0
H552 H 0.68173 0.65154 0.91151 0.0
H553 H 0.70045 0.69448 0.91027 0.0
H554 H 0.70074 0.66682 0.85443 0.0
H555 H 0.68192 0.62534 0.85571 0.0
H556 H 0.58984 0.55849 0.83354 0.0
H557 H 0.57006 0.53914 0.83556 0.0
H558 H 0.57142 0.5706 0.89121 0.0
H559 H 0.59128 0.58926 0.88911 0.0
Nd560 Nd 0.37092 0.59364 0.62004 0.0
Nd561 Nd 0.39491 0.60117 0.62774 0.0
C562 C 0.35042 0.60338 0.60816 0.0
C563 C 0.33964 0.63713 0.61 0.0
C564 C 0.33363 0.65239 0.59495 0.0
C565 C 0.3229 0.67717 0.59616 0.0
C566 C 0.31786 0.68731 0.6125 0.0
C567 C 0.32403 0.67359 0.6276 0.0
C568 C 0.33479 0.64879 0.62637 0.0
C569 C 0.37573 0.57668 0.65491 0.0
C570 C 0.38192 0.73879 0.62769 0.0
C571 C 0.41547 0.59557 0.63951 0.0
C572 C 0.42702 0.57433 0.63684 0.0
C573 C 0.43359 0.56244 0.65149 0.0
C574 C 0.4449 0.5512 0.64973 0.0
C575 C 0.44997 0.55137 0.6332 0.0
C576 C 0.44327 0.56138 0.61844 0.0
C577 C 0.43193 0.57289 0.62024 0.0
C578 C 0.39003 0.61244 0.59253 0.0
C579 C 0.38372 0.45554 0.62116 0.0
O580 O 0.35867 0.6358 0.60142 0.0
O581 O 0.35344 0.5637 0.62063 0.0
O582 O 0.36804 0.54593 0.64665 0.0
O583 O 0.38024 0.61883 0.64515 0.0
O584 O 0.37419 0.70616 0.61924 0.0
O585 O 0.38996 0.70659 0.63542 0.0
O586 O 0.40801 0.55192 0.64355 0.0
O587 O 0.4117 0.64202 0.62945 0.0
O588 O 0.39768 0.64489 0.60042 0.0
O589 O 0.38561 0.57245 0.60292 0.0
O590 O 0.39148 0.48876 0.62944 0.0
O591 O 0.37569 0.48718 0.61316 0.0
H592 H 0.33713 0.64323 0.58217 0.0
H593 H 0.31842 0.68619 0.58422 0.0
H594 H 0.32053 0.68166 0.64042 0.0
H595 H 0.33922 0.63748 0.63822 0.0
H596 H 0.43003 0.5642 0.66445 0.0
H597 H 0.44972 0.54484 0.66145 0.0
H598 H 0.44679 0.56088 0.60547 0.0
H599 H 0.42705 0.58222 0.60871 0.0
Nd600 Nd 0.64878 0.47048 0.62046 0.0
Nd601 Nd 0.62469 0.46185 0.62667 0.0
C602 C 0.6697 0.46211 0.61031 0.0
C603 C 0.68045 0.42764 0.61185 0.0
C604 C 0.68599 0.40783 0.59663 0.0
C605 C 0.69678 0.38385 0.59737 0.0
C606 C 0.70239 0.37919 0.61337 0.0
C607 C 0.69668 0.39679 0.6287 0.0
C608 C 0.68586 0.42087 0.62795 0.0
C609 C 0.64283 0.48876 0.65487 0.0
C610 C 0.63778 0.32479 0.62741 0.0
C611 C 0.60386 0.46674 0.63733 0.0
C612 C 0.59231 0.48865 0.63503 0.0
C613 C 0.58606 0.50391 0.64989 0.0
C614 C 0.5747 0.51408 0.64868 0.0
C615 C 0.56927 0.50934 0.63253 0.0
C616 C 0.57564 0.49699 0.6175 0.0
C617 C 0.58703 0.48642 0.61874 0.0
C618 C 0.6305 0.44954 0.59183 0.0
C619 C 0.63585 0.60804 0.62041 0.0
O620 O 0.66165 0.43327 0.602 0.0
O621 O 0.6663 0.49738 0.62352 0.0
O622 O 0.65032 0.52234 0.64691 0.0
O623 O 0.63891 0.44488 0.64498 0.0
O624 O 0.64571 0.35761 0.61948 0.0
O625 O 0.6295 0.35681 0.63461 0.0
O626 O 0.61132 0.50846 0.64267 0.0
O627 O 0.60775 0.42288 0.62649 0.0
O628 O 0.62277 0.41642 0.59933 0.0
O629 O 0.63457 0.49036 0.60239 0.0
O630 O 0.62785 0.5748 0.62812 0.0
O631 O 0.64418 0.57646 0.61312 0.0
H632 H 0.68206 0.41281 0.58404 0.0
H633 H 0.70079 0.36972 0.58531 0.0
H634 H 0.70071 0.39444 0.64125 0.0
H635 H 0.68187 0.43607 0.63993 0.0
H636 H 0.58991 0.50552 0.66261 0.0
H637 H 0.57012 0.52456 0.66049 0.0
H638 H 0.57175 0.49264 0.60487 0.0
H639 H 0.59163 0.47425 0.60706 0.0
C640 C 0.21826 0.25205 0.10212 0.0
C641 C 0.21385 0.20977 0.11485 0.0
C642 C 0.22933 0.271 0.10261 0.0
C643 C 0.25647 0.22217 0.12112 0.0
H644 H 0.26497 0.39802 0.10713 0.0
C645 C 0.30142 0.3179 0.12753 0.0
C646 C 0.30554 0.35728 0.11393 0.0
C647 C 0.29028 0.30004 0.1281 0.0
C648 C 0.26278 0.34843 0.11091 0.0
H649 H 0.21784 0.15462 0.13817 0.0
H650 H 0.23702 0.18882 0.13926 0.0
H651 H 0.24562 0.36778 0.10746 0.0
H652 H 0.30094 0.40934 0.09038 0.0
H653 H 0.28169 0.37741 0.09121 0.0
H654 H 0.27366 0.20294 0.12456 0.0
C655 C 0.23193 0.20672 0.12872 0.0
C656 C 0.25164 0.331 0.11109 0.0
C657 C 0.22085 0.18777 0.12822 0.0
C658 C 0.29816 0.37825 0.10095 0.0
C659 C 0.28704 0.36062 0.10155 0.0
C660 C 0.26763 0.23966 0.12096 0.0
C661 C 0.23637 0.24836 0.11586 0.0
C662 C 0.24829 0.26748 0.11611 0.0
C663 C 0.2829 0.32135 0.11515 0.0
C664 C 0.27096 0.30296 0.11575 0.0
H665 H 0.21314 0.27075 0.09171 0.0
H666 H 0.23241 0.30253 0.09236 0.0
H667 H 0.25429 0.1725 0.12482 0.0
H668 H 0.30683 0.30033 0.1377 0.0
H669 H 0.28741 0.27025 0.13887 0.0
C670 C 0.79891 0.87497 0.12816 0.0
C671 C 0.80597 0.85219 0.11486 0.0
C672 C 0.78783 0.85599 0.12868 0.0
C673 C 0.76821 0.73054 0.11138 0.0
H674 H 0.74612 0.85941 0.12437 0.0
C675 C 0.72173 0.6825 0.10125 0.0
C676 C 0.7143 0.70432 0.11414 0.0
C677 C 0.73285 0.7002 0.10183 0.0
C678 C 0.75217 0.82247 0.12091 0.0
H679 H 0.80676 0.78982 0.0919 0.0
H680 H 0.78749 0.75796 0.0926 0.0
H681 H 0.76549 0.88993 0.12459 0.0
H682 H 0.71292 0.76283 0.13772 0.0
H683 H 0.73232 0.79302 0.13885 0.0
H684 H 0.75489 0.66323 0.1076 0.0
C685 C 0.79054 0.79013 0.10277 0.0
C686 C 0.76333 0.84 0.12105 0.0
C687 C 0.80161 0.80911 0.10224 0.0
C688 C 0.71836 0.74461 0.12762 0.0
C689 C 0.7295 0.76252 0.12817 0.0
C690 C 0.75706 0.71307 0.11122 0.0
C691 C 0.78344 0.81355 0.11593 0.0
C692 C 0.77153 0.7944 0.11621 0.0
C693 C 0.73693 0.74037 0.11531 0.0
C694 C 0.74886 0.75883 0.11589 0.0
H695 H 0.80188 0.90873 0.13802 0.0
H696 H 0.78271 0.87451 0.13916 0.0
H697 H 0.77424 0.69356 0.10789 0.0
H698 H 0.71899 0.65071 0.09078 0.0
H699 H 0.73824 0.68273 0.09156 0.0
C700 C 0.3016 0.7524 0.39437 0.0
C701 C 0.30604 0.70982 0.38166 0.0
C702 C 0.29052 0.77142 0.39383 0.0
C703 C 0.26344 0.72228 0.37526 0.0
H704 H 0.25484 0.89858 0.3891 0.0
C705 C 0.21846 0.81793 0.36863 0.0
C706 C 0.21431 0.85783 0.38217 0.0
C707 C 0.22961 0.8 0.36812 0.0
C708 C 0.25706 0.84887 0.38537 0.0
H709 H 0.30211 0.65424 0.35832 0.0
H710 H 0.28292 0.68855 0.35715 0.0
H711 H 0.27421 0.86825 0.38885 0.0
H712 H 0.21885 0.91071 0.40568 0.0
H713 H 0.23812 0.87862 0.40496 0.0
H714 H 0.24626 0.70299 0.37179 0.0
C715 C 0.28798 0.70663 0.36771 0.0
C716 C 0.26821 0.8314 0.38523 0.0
C717 C 0.29907 0.68761 0.36825 0.0
C718 C 0.22166 0.87922 0.39516 0.0
C719 C 0.23279 0.86149 0.39462 0.0
C720 C 0.25227 0.73981 0.37538 0.0
C721 C 0.28351 0.74855 0.38056 0.0
C722 C 0.27159 0.76771 0.38026 0.0
C723 C 0.23696 0.82173 0.38108 0.0
C724 C 0.2489 0.80328 0.38054 0.0
H725 H 0.30669 0.77124 0.4048 0.0
H726 H 0.28741 0.80318 0.40407 0.0
H727 H 0.26565 0.67248 0.37161 0.0
H728 H 0.21308 0.80003 0.35846 0.0
H729 H 0.23251 0.76981 0.3574 0.0
C730 C 0.80155 0.25281 0.39407 0.0
C731 C 0.80598 0.21004 0.38139 0.0
C732 C 0.79048 0.27186 0.39353 0.0
C733 C 0.76337 0.22249 0.37509 0.0
H734 H 0.7548 0.39906 0.38873 0.0
C735 C 0.7184 0.31814 0.36849 0.0
C736 C 0.71426 0.35827 0.382 0.0
C737 C 0.72954 0.30018 0.36796 0.0
C738 C 0.75701 0.34928 0.38506 0.0
H739 H 0.80202 0.15412 0.35811 0.0
H740 H 0.78284 0.18845 0.35696 0.0
H741 H 0.77417 0.36867 0.38846 0.0
H742 H 0.71884 0.41153 0.40542 0.0
H743 H 0.7381 0.37938 0.40468 0.0
H744 H 0.74619 0.20319 0.37169 0.0
C745 C 0.78791 0.20668 0.36749 0.0
C746 C 0.76816 0.33177 0.38491 0.0
C747 C 0.79899 0.18764 0.36802 0.0
C748 C 0.72163 0.37986 0.39494 0.0
C749 C 0.73276 0.36209 0.39438 0.0
C750 C 0.75221 0.24005 0.37522 0.0
C751 C 0.78345 0.2488 0.3803 0.0
C752 C 0.77153 0.26799 0.38001 0.0
C753 C 0.73691 0.32211 0.38087 0.0
C754 C 0.74885 0.30362 0.38031 0.0
H755 H 0.80666 0.27179 0.40447 0.0
H756 H 0.78738 0.30378 0.40375 0.0
H757 H 0.76558 0.17263 0.37149 0.0
H758 H 0.713 0.30009 0.35835 0.0
H759 H 0.73242 0.26981 0.35726 0.0
C760 C 0.72143 0.68326 0.89482 0.0
C761 C 0.71409 0.70392 0.88175 0.0
C762 C 0.73256 0.70095 0.89427 0.0
C763 C 0.75201 0.8216 0.8748 0.0
H764 H 0.774 0.69399 0.8887 0.0
C765 C 0.7988 0.87366 0.86777 0.0
C766 C 0.80578 0.85199 0.88122 0.0
C767 C 0.78772 0.85463 0.86724 0.0
C768 C 0.76799 0.73064 0.88496 0.0
H769 H 0.71287 0.76036 0.85788 0.0
H770 H 0.73228 0.79052 0.85682 0.0
H771 H 0.75465 0.66364 0.88895 0.0
H772 H 0.80644 0.79151 0.90445 0.0
H773 H 0.78718 0.75961 0.90374 0.0
H774 H 0.76535 0.88875 0.87092 0.0
C775 C 0.72939 0.76094 0.86761 0.0
C776 C 0.75685 0.71314 0.8851 0.0
C777 C 0.71825 0.74304 0.86812 0.0
C778 C 0.80135 0.80996 0.89399 0.0
C779 C 0.79028 0.79093 0.89346 0.0
C780 C 0.76317 0.83915 0.87469 0.0
C781 C 0.73673 0.73996 0.88065 0.0
C782 C 0.74867 0.75842 0.88011 0.0
C783 C 0.78326 0.81325 0.88014 0.0
C784 C 0.77134 0.79404 0.87985 0.0
H785 H 0.71863 0.65238 0.9054 0.0
H786 H 0.73788 0.6844 0.90468 0.0
H787 H 0.74599 0.85818 0.87109 0.0
H788 H 0.80183 0.9066 0.85779 0.0
H789 H 0.78266 0.87227 0.85664 0.0
C790 C 0.29803 0.37718 0.89588 0.0
C791 C 0.30537 0.35753 0.88264 0.0
C792 C 0.28689 0.35979 0.89522 0.0
C793 C 0.26741 0.24119 0.87494 0.0
H794 H 0.24546 0.36799 0.8898 0.0
C795 C 0.22062 0.19018 0.86777 0.0
C796 C 0.21364 0.21089 0.8814 0.0
C797 C 0.2317 0.20917 0.86731 0.0
C798 C 0.25146 0.33156 0.88578 0.0
H799 H 0.3066 0.30321 0.85834 0.0
H800 H 0.28717 0.27356 0.8571 0.0
H801 H 0.26482 0.39801 0.8902 0.0
H802 H 0.21298 0.26968 0.90503 0.0
H803 H 0.23225 0.30146 0.90443 0.0
H804 H 0.25405 0.17456 0.87064 0.0
C805 C 0.29007 0.30212 0.8681 0.0
C806 C 0.26261 0.34887 0.88601 0.0
C807 C 0.30122 0.31974 0.86872 0.0
C808 C 0.21808 0.25197 0.89442 0.0
C809 C 0.22915 0.27094 0.89396 0.0
C810 C 0.25625 0.22381 0.87474 0.0
C811 C 0.28272 0.32209 0.88132 0.0
C812 C 0.27078 0.30388 0.88068 0.0
C813 C 0.23617 0.24955 0.88045 0.0
C814 C 0.24809 0.26862 0.88024 0.0
H815 H 0.30083 0.40703 0.90669 0.0
H816 H 0.28156 0.37551 0.90577 0.0
H817 H 0.27343 0.20482 0.87095 0.0
H818 H 0.21759 0.15798 0.8576 0.0
H819 H 0.23676 0.19228 0.85657 0.0
C820 C 0.71834 0.31893 0.62744 0.0
C821 C 0.71425 0.3588 0.61393 0.0
C822 C 0.72949 0.30102 0.628 0.0
C823 C 0.75702 0.34995 0.611 0.0
H824 H 0.76556 0.17352 0.62451 0.0
C825 C 0.80163 0.25383 0.60212 0.0
C826 C 0.80602 0.21107 0.61475 0.0
C827 C 0.79055 0.27278 0.60262 0.0
C828 C 0.76336 0.22333 0.62093 0.0
H829 H 0.71891 0.41166 0.59052 0.0
H830 H 0.73817 0.37966 0.59133 0.0
H831 H 0.74617 0.20402 0.62428 0.0
H832 H 0.80196 0.15505 0.63791 0.0
H833 H 0.78276 0.18924 0.63903 0.0
H834 H 0.77419 0.36938 0.60766 0.0
C835 C 0.73279 0.36252 0.60161 0.0
C836 C 0.7522 0.24085 0.62078 0.0
C837 C 0.72166 0.3802 0.60102 0.0
C838 C 0.79897 0.18857 0.62805 0.0
C839 C 0.78788 0.20753 0.62855 0.0
C840 C 0.76818 0.33249 0.61118 0.0
C841 C 0.7369 0.32276 0.61512 0.0
C842 C 0.74884 0.30433 0.61571 0.0
C843 C 0.78346 0.24965 0.61579 0.0
C844 C 0.77153 0.26879 0.61605 0.0
H845 H 0.7129 0.30102 0.63756 0.0
H846 H 0.73233 0.27085 0.6387 0.0
H847 H 0.75482 0.39966 0.60734 0.0
H848 H 0.80678 0.27292 0.59178 0.0
H849 H 0.78749 0.30469 0.59244 0.0
C850 C 0.22197 0.88305 0.60106 0.0
C851 C 0.21442 0.85819 0.61331 0.0
C852 C 0.2331 0.86529 0.60165 0.0
C853 C 0.25228 0.73859 0.61894 0.0
H854 H 0.27441 0.87026 0.60897 0.0
C855 C 0.29896 0.68393 0.62634 0.0
C856 C 0.30613 0.7099 0.61368 0.0
C857 C 0.28786 0.70285 0.62695 0.0
C858 C 0.26836 0.83255 0.6116 0.0
H859 H 0.21281 0.79429 0.63576 0.0
H860 H 0.23223 0.76389 0.6369 0.0
H861 H 0.25505 0.90077 0.60875 0.0
H862 H 0.30712 0.77785 0.59198 0.0
H863 H 0.28783 0.80968 0.5928 0.0
H864 H 0.26559 0.67024 0.62166 0.0
C865 C 0.2295 0.79687 0.62672 0.0
C866 C 0.25721 0.85013 0.61148 0.0
C867 C 0.21836 0.81486 0.62617 0.0
C868 C 0.30188 0.75608 0.6018 0.0
C869 C 0.29079 0.77501 0.60241 0.0
C870 C 0.26344 0.72096 0.61903 0.0
C871 C 0.23705 0.82201 0.61449 0.0
C872 C 0.24899 0.80337 0.61506 0.0
C873 C 0.28358 0.74843 0.61493 0.0
C874 C 0.27166 0.76759 0.61527 0.0
H875 H 0.21933 0.91721 0.5911 0.0
H876 H 0.23859 0.88515 0.59187 0.0
H877 H 0.24621 0.70094 0.62154 0.0
H878 H 0.30185 0.64776 0.63561 0.0
H879 H 0.28265 0.68181 0.63692 0.0
C880 C 0.13768 0.94455 0.31138 0.0
C881 C 0.14033 0.99742 0.32238 0.0
C882 C 0.13651 0.95437 0.29333 0.0
C883 C 0.14327 0.07941 0.25861 0.0
H884 H 0.12613 0.96263 0.2294 0.0
C885 C 0.13666 0.12186 0.18421 0.0
C886 C 0.14048 0.069 0.17401 0.0
C887 C 0.13537 0.11466 0.20231 0.0
C888 C 0.13091 0.99578 0.23744 0.0
H889 H 0.14313 0.10243 0.32344 0.0
H890 H 0.14033 0.12065 0.29251 0.0
H891 H 0.12594 0.94799 0.26098 0.0
H892 H 0.14542 0.96656 0.17456 0.0
H893 H 0.14276 0.95342 0.20597 0.0
H894 H 0.14794 0.12806 0.23493 0.0
C895 C 0.13975 0.07079 0.29733 0.0
C896 C 0.13091 0.98709 0.25559 0.0
C897 C 0.14123 0.06059 0.31519 0.0
C898 C 0.14251 1.00824 0.18211 0.0
C899 C 0.14094 1.00057 0.20007 0.0
C900 C 0.14304 0.08898 0.24054 0.0
C901 C 0.13769 1.01767 0.28594 0.0
C902 C 0.1372 1.02832 0.26652 0.0
C903 C 0.13755 0.05396 0.21043 0.0
C904 C 0.13697 0.04687 0.22973 0.0
H905 H 0.137 0.89523 0.31659 0.0
H906 H 0.13505 0.91175 0.28518 0.0
H907 H 0.14849 0.11136 0.26625 0.0
H908 H 0.13505 0.16926 0.1783 0.0
H909 H 0.13273 0.1566 0.21001 0.0
C910 C 0.87813 1.00141 0.31499 0.0
C911 C 0.87918 0.06445 0.32228 0.0
C912 C 0.87958 0.99121 0.2971 0.0
C913 C 0.8887 0.07444 0.25551 0.0
H914 H 0.87143 0.93486 0.2346 0.0
C915 C 0.87717 0.0542 0.18201 0.0
C916 C 0.87921 0.99346 0.1738 0.0
C917 C 0.87869 0.06175 0.19998 0.0
C918 C 0.87639 0.97355 0.24027 0.0
H919 H 0.88275 0.16639 0.31666 0.0
H920 H 0.88465 0.14991 0.28522 0.0
H921 H 0.87083 0.95146 0.26594 0.0
H922 H 0.88459 0.89311 0.17791 0.0
H923 H 0.88684 0.90558 0.20964 0.0
H924 H 0.8936 0.09866 0.22935 0.0
C925 C 0.8831 0.10737 0.29329 0.0
C926 C 0.87613 0.98306 0.25836 0.0
C927 C 0.88195 0.11717 0.31136 0.0
C928 C 0.88299 0.9405 0.1839 0.0
C929 C 0.88423 0.94759 0.20202 0.0
C930 C 0.88873 0.06584 0.23734 0.0
C931 C 0.88178 0.04421 0.28579 0.0
C932 C 0.88229 0.03364 0.26636 0.0
C933 C 0.88204 1.00827 0.21024 0.0
C934 C 0.88258 1.01525 0.22955 0.0
H935 H 0.87615 0.95967 0.32317 0.0
H936 H 0.8789 0.94143 0.2922 0.0
H937 H 0.89374 0.11312 0.26097 0.0
H938 H 0.87429 0.09593 0.17453 0.0
H939 H 0.87688 0.10889 0.20597 0.0
C940 C 0.87713 1.00914 0.68196 0.0
C941 C 0.8792 0.0699 0.67388 0.0
C942 C 0.87866 1.00132 0.69991 0.0
C943 C 0.87643 0.08913 0.74041 0.0
H944 H 0.89366 0.9484 0.76075 0.0
C945 C 0.87809 0.05992 0.81504 0.0
C946 C 0.87908 0.99671 0.82217 0.0
C947 C 0.87958 0.07037 0.79718 0.0
C948 C 0.88865 0.98741 0.75539 0.0
H949 H 0.88463 0.17 0.67821 0.0
H950 H 0.88688 0.15708 0.70991 0.0
H951 H 0.89354 0.96337 0.72918 0.0
H952 H 0.88257 0.89469 0.8163 0.0
H953 H 0.88453 0.91162 0.7849 0.0
H954 H 0.87087 0.11107 0.76613 0.0
C955 C 0.88425 0.11526 0.7022 0.0
C956 C 0.88869 0.9963 0.73724 0.0
C957 C 0.883 0.12261 0.6841 0.0
C958 C 0.88182 0.94404 0.81112 0.0
C959 C 0.883 0.9541 0.79308 0.0
C960 C 0.87616 0.07935 0.75847 0.0
C961 C 0.88204 0.05456 0.71029 0.0
C962 C 0.88259 0.0473 0.72958 0.0
C963 C 0.88175 1.01745 0.78575 0.0
C964 C 0.88227 1.02834 0.76634 0.0
H965 H 0.87424 0.96759 0.67439 0.0
H966 H 0.87683 0.95418 0.7058 0.0
H967 H 0.87149 0.12815 0.73482 0.0
H968 H 0.87613 0.10162 0.82332 0.0
H969 H 0.87894 0.12027 0.79241 0.0
C970 C 0.14247 1.0084 0.81381 0.0
C971 C 0.14042 0.06916 0.82201 0.0
C972 C 0.14096 1.00077 0.79584 0.0
C973 C 0.14323 0.08894 0.75551 0.0
H974 H 0.12601 0.94877 0.73485 0.0
C975 C 0.14155 0.06077 0.6808 0.0
C976 C 0.14055 0.99769 0.67351 0.0
C977 C 0.14007 0.07098 0.69869 0.0
C978 C 0.13102 0.98762 0.7403 0.0
H979 H 0.13503 0.16946 0.81786 0.0
H980 H 0.1328 0.15685 0.78613 0.0
H981 H 0.12613 0.96337 0.76646 0.0
H982 H 0.13706 0.89567 0.67915 0.0
H983 H 0.13511 0.91218 0.71059 0.0
H984 H 0.14879 0.11109 0.72984 0.0
C985 C 0.13541 0.11489 0.79376 0.0
C986 C 0.13098 0.9963 0.75847 0.0
C987 C 0.13664 0.12206 0.81188 0.0
C988 C 0.13781 0.94492 0.68444 0.0
C989 C 0.13664 0.95474 0.70251 0.0
C990 C 0.1435 0.07937 0.73743 0.0
C991 C 0.13761 0.05418 0.78556 0.0
C992 C 0.13708 0.04711 0.76625 0.0
C993 C 0.13791 1.01795 0.71 0.0
C994 C 0.13739 1.02858 0.72943 0.0
H995 H 0.14535 0.96671 0.82131 0.0
H996 H 0.14279 0.95361 0.78987 0.0
H997 H 0.14817 0.1278 0.76118 0.0
H998 H 0.14351 0.10253 0.67262 0.0
H999 H 0.14072 0.1208 0.70358 0.0
C1000 C 0.64121 0.56123 0.31507 0.0
C1001 C 0.64029 0.4981 0.32228 0.0
C1002 C 0.63971 0.57142 0.29721 0.0
C1003 C 0.63073 0.48781 0.25553 0.0
H1004 H 0.64779 0.62839 0.23475 0.0
C1005 C 0.64226 0.5082 0.18202 0.0
C1006 C 0.64027 0.56895 0.17388 0.0
C1007 C 0.64068 0.50073 0.19999 0.0
C1008 C 0.64288 0.58943 0.24039 0.0
H1009 H 0.63688 0.39598 0.31652 0.0
H1010 H 0.63488 0.41248 0.28512 0.0
H1011 H 0.64839 0.61181 0.26607 0.0
H1012 H 0.63493 0.6694 0.17811 0.0
H1013 H 0.63259 0.65706 0.20983 0.0
H1014 H 0.62588 0.46333 0.22937 0.0
C1015 C 0.63638 0.45508 0.29325 0.0
C1016 C 0.64314 0.57992 0.25846 0.0
C1017 C 0.63758 0.44527 0.31129 0.0
C1018 C 0.63649 0.622 0.18404 0.0
C1019 C 0.63519 0.61498 0.20216 0.0
C1020 C 0.63069 0.49644 0.23738 0.0
C1021 C 0.63759 0.51834 0.28584 0.0
C1022 C 0.63706 0.52896 0.26642 0.0
C1023 C 0.63734 0.55429 0.21031 0.0
C1024 C 0.63677 0.54738 0.22962 0.0
H1025 H 0.64315 0.60304 0.3233 0.0
H1026 H 0.64031 0.62126 0.29239 0.0
H1027 H 0.62575 0.44882 0.26096 0.0
H1028 H 0.64515 0.4664 0.1745 0.0
H1029 H 0.64247 0.45358 0.20591 0.0
C1030 C 0.37798 0.50126 0.31511 0.0
C1031 C 0.3791 0.56423 0.32243 0.0
C1032 C 0.37938 0.49108 0.2972 0.0
C1033 C 0.38847 0.57428 0.25557 0.0
H1034 H 0.37122 0.43455 0.23469 0.0
C1035 C 0.37707 0.55372 0.182 0.0
C1036 C 0.37911 0.49292 0.17382 0.0
C1037 C 0.37854 0.56132 0.19999 0.0
C1038 C 0.37618 0.47329 0.24036 0.0
H1039 H 0.38271 0.66611 0.31679 0.0
H1040 H 0.38452 0.6497 0.28533 0.0
H1041 H 0.37062 0.45126 0.26604 0.0
H1042 H 0.38442 0.39251 0.178 0.0
H1043 H 0.38658 0.40507 0.20975 0.0
H1044 H 0.39336 0.59842 0.22941 0.0
C1045 C 0.38295 0.60716 0.2934 0.0
C1046 C 0.37592 0.48286 0.25845 0.0
C1047 C 0.38186 0.61693 0.31149 0.0
C1048 C 0.38282 0.43994 0.18397 0.0
C1049 C 0.38402 0.44709 0.2021 0.0
C1050 C 0.3885 0.56561 0.2374 0.0
C1051 C 0.38159 0.54406 0.28589 0.0
C1052 C 0.38207 0.53349 0.26644 0.0
C1053 C 0.38184 0.50784 0.2103 0.0
C1054 C 0.38236 0.51496 0.22961 0.0
H1055 H 0.376 0.45953 0.3233 0.0
H1056 H 0.37865 0.44133 0.2923 0.0
H1057 H 0.3935 0.61299 0.26101 0.0
H1058 H 0.37423 0.59547 0.17449 0.0
H1059 H 0.37674 0.60852 0.20595 0.0
C1060 C 0.3849 0.44967 0.81235 0.0
C1061 C 0.37807 0.49263 0.82184 0.0
C1062 C 0.38647 0.45856 0.79433 0.0
C1063 C 0.38201 0.46537 0.75484 0.0
H1064 H 0.38357 0.64153 0.73562 0.0
C1065 C 0.37186 0.51907 0.68293 0.0
C1066 C 0.3778 0.56738 0.67384 0.0
C1067 C 0.37346 0.50923 0.70077 0.0
C1068 C 0.38329 0.59192 0.74071 0.0
H1069 H 0.36774 0.57933 0.81994 0.0
H1070 H 0.37043 0.59463 0.78883 0.0
H1071 H 0.38387 0.62615 0.76714 0.0
H1072 H 0.39023 0.64281 0.67637 0.0
H1073 H 0.39308 0.62571 0.70776 0.0
H1074 H 0.38136 0.43114 0.72842 0.0
C1075 C 0.37466 0.55435 0.79515 0.0
C1076 C 0.38334 0.58309 0.75884 0.0
C1077 C 0.37304 0.5452 0.81302 0.0
C1078 C 0.3855 0.60543 0.68304 0.0
C1079 C 0.38709 0.5957 0.70102 0.0
C1080 C 0.38192 0.47422 0.73671 0.0
C1081 C 0.38133 0.51104 0.78548 0.0
C1082 C 0.38248 0.51978 0.76618 0.0
C1083 C 0.38107 0.54739 0.71013 0.0
C1084 C 0.38234 0.53771 0.72938 0.0
H1085 H 0.38891 0.40883 0.8188 0.0
H1086 H 0.39172 0.42447 0.78733 0.0
H1087 H 0.38129 0.41595 0.75995 0.0
H1088 H 0.36586 0.48884 0.67626 0.0
H1089 H 0.36852 0.47247 0.7073 0.0
C1090 C 0.64212 0.50769 0.81383 0.0
C1091 C 0.64009 0.56835 0.82209 0.0
C1092 C 0.64056 0.5003 0.79586 0.0
C1093 C 0.64281 0.58904 0.75562 0.0
H1094 H 0.62561 0.44899 0.73485 0.0
C1095 C 0.64118 0.56142 0.68089 0.0
C1096 C 0.6402 0.49838 0.67357 0.0
C1097 C 0.63968 0.57151 0.69877 0.0
C1098 C 0.63061 0.48781 0.74033 0.0
H1099 H 0.6347 0.66874 0.81807 0.0
H1100 H 0.63241 0.65655 0.78633 0.0
H1101 H 0.62572 0.46327 0.76647 0.0
H1102 H 0.6367 0.39632 0.67914 0.0
H1103 H 0.63472 0.41262 0.71058 0.0
H1104 H 0.64836 0.61146 0.72996 0.0
C1105 C 0.63502 0.61447 0.79392 0.0
C1106 C 0.63056 0.49632 0.7585 0.0
C1107 C 0.6363 0.6214 0.81204 0.0
C1108 C 0.63745 0.44555 0.68446 0.0
C1109 C 0.63625 0.45524 0.70253 0.0
C1110 C 0.64308 0.57964 0.73753 0.0
C1111 C 0.6372 0.55387 0.78564 0.0
C1112 C 0.63665 0.54706 0.76633 0.0
C1113 C 0.63751 0.5184 0.71005 0.0
C1114 C 0.63698 0.52889 0.7295 0.0
H1115 H 0.64501 0.46589 0.82128 0.0
H1116 H 0.64237 0.45321 0.78984 0.0
H1117 H 0.64773 0.62785 0.76131 0.0
H1118 H 0.64316 0.60324 0.67273 0.0
H1119 H 0.64032 0.6213 0.70369 0.0
C1120 C 0.12583 0.15891 0.93351 0.0
C1121 C 0.13168 0.11386 0.92311 0.0
C1122 C 0.1265 0.15662 0.95169 0.0
C1123 C 0.1429 0.09366 0.98888 0.0
H1124 H 0.11562 0.12169 0.01401 0.0
C1125 C 0.13855 0.06712 0.06476 0.0
C1126 C 0.13172 0.1134 0.07312 0.0
C1127 C 0.13922 0.0649 0.04645 0.0
C1128 C 0.12335 0.11446 0.00726 0.0
H1129 H 0.14312 0.03214 0.92367 0.0
H1130 H 0.14426 1.02774 0.95561 0.0
H1131 H 0.11561 0.12184 0.98236 0.0
H1132 H 0.1206 0.19515 0.06886 0.0
H1133 H 0.12185 0.19185 0.03724 0.0
H1134 H 0.15061 0.08644 0.01399 0.0
C1135 C 0.13917 0.0651 0.94964 0.0
C1136 C 0.12335 0.11454 0.98904 0.0
C1137 C 0.13849 0.06742 0.93134 0.0
C1138 C 0.12585 0.1584 0.06284 0.0
C1139 C 0.12651 0.15621 0.04466 0.0
C1140 C 0.14291 0.09359 0.00722 0.0
C1141 C 0.13303 0.10909 0.96006 0.0
C1142 C 0.13313 0.10518 0.97955 0.0
C1143 C 0.13306 0.10883 0.03615 0.0
C1144 C 0.13314 0.10504 0.01665 0.0
H1145 H 0.1206 0.19577 0.9276 0.0
H1146 H 0.12186 0.19229 0.95921 0.0
H1147 H 0.1506 0.08655 0.98204 0.0
H1148 H 0.1432 0.03189 0.07234 0.0
H1149 H 0.14433 1.02764 0.04037 0.0
C1150 C 0.8938 0.90344 0.9331 0.0
C1151 C 0.88789 0.9484 0.92286 0.0
C1152 C 0.89316 0.90563 0.95129 0.0
C1153 C 0.87679 0.96793 0.98877 0.0
H1154 H 0.90413 0.94061 0.01357 0.0
C1155 C 0.88122 0.9947 0.06461 0.0
C1156 C 0.8881 0.94869 0.07285 0.0
C1157 C 0.88053 0.99683 0.04632 0.0
C1158 C 0.89638 0.94763 0.00691 0.0
H1159 H 0.87639 1.02982 0.92369 0.0
H1160 H 0.87532 0.03403 0.95566 0.0
H1161 H 0.90408 0.94053 0.98191 0.0
H1162 H 0.8993 0.86732 0.06841 0.0
H1163 H 0.89802 0.87044 0.0368 0.0
H1164 H 0.86911 0.97488 0.01397 0.0
C1165 C 0.88042 0.99682 0.94955 0.0
C1166 C 0.89636 0.94759 0.98868 0.0
C1167 C 0.88107 0.99463 0.93125 0.0
C1168 C 0.89401 0.90386 0.06248 0.0
C1169 C 0.89333 0.90596 0.0443 0.0
C1170 C 0.87681 0.96795 0.00711 0.0
C1171 C 0.88661 0.95293 0.95982 0.0
C1172 C 0.88655 0.95672 0.97932 0.0
C1173 C 0.88672 0.95307 0.03591 0.0
C1174 C 0.8866 0.95679 0.01642 0.0
H1175 H 0.89904 0.86675 0.92706 0.0
H1176 H 0.89785 0.87004 0.95869 0.0
H1177 H 0.86907 0.97484 0.98202 0.0
H1178 H 0.87654 1.02979 0.07227 0.0
H1179 H 0.87538 0.03389 0.04033 0.0
C1180 C 0.13923 0.9947 0.43114 0.0
C1181 C 0.13225 0.94891 0.42303 0.0
C1182 C 0.14047 0.99513 0.44936 0.0
C1183 C 0.13617 0.89058 0.48866 0.0
H1184 H 0.13556 0.05613 0.51387 0.0
C1185 C 0.12686 0.90256 0.56225 0.0
C1186 C 0.13242 0.94851 0.5727 0.0
C1187 C 0.12808 0.90286 0.54412 0.0
C1188 C 0.13591 1.00946 0.50705 0.0
H1189 H 0.12122 0.86717 0.42765 0.0
H1190 H 0.12331 0.86795 0.45918 0.0
H1191 H 0.13553 0.05622 0.48201 0.0
H1192 H 0.14377 1.03046 0.5723 0.0
H1193 H 0.14595 1.03102 0.54048 0.0
H1194 H 0.13641 0.84369 0.51361 0.0
C1195 C 0.12794 0.90327 0.45159 0.0
C1196 C 0.13589 1.00951 0.48874 0.0
C1197 C 0.12667 0.90307 0.43348 0.0
C1198 C 0.13936 0.9945 0.56458 0.0
C1199 C 0.14055 0.99501 0.54635 0.0
C1200 C 0.1362 0.89052 0.50691 0.0
C1201 C 0.13481 0.9494 0.45984 0.0
C1202 C 0.13581 0.94999 0.4793 0.0
C1203 C 0.1349 0.94919 0.53586 0.0
C1204 C 0.13586 0.94988 0.51639 0.0
H1205 H 0.14365 1.03058 0.42343 0.0
H1206 H 0.1459 1.031 0.45523 0.0
H1207 H 0.13637 0.84379 0.48188 0.0
H1208 H 0.12145 0.8665 0.56809 0.0
H1209 H 0.12346 0.86746 0.53653 0.0
C1210 C 0.8941 0.15869 0.5626 0.0
C1211 C 0.8882 0.11394 0.57291 0.0
C1212 C 0.89346 0.15643 0.54442 0.0
C1213 C 0.87703 0.09447 0.50711 0.0
H1214 H 0.90435 0.12095 0.48205 0.0
C1215 C 0.88134 0.06723 0.43126 0.0
C1216 C 0.88822 0.11296 0.42291 0.0
C1217 C 0.88068 0.06522 0.44956 0.0
C1218 C 0.89661 0.11417 0.48878 0.0
H1219 H 0.87669 0.0328 0.5722 0.0
H1220 H 0.87559 1.02846 0.54025 0.0
H1221 H 0.90434 0.12113 0.51371 0.0
H1222 H 0.89946 0.19395 0.42719 0.0
H1223 H 0.89824 0.19104 0.45882 0.0
H1224 H 0.86932 0.08767 0.48199 0.0
C1225 C 0.88071 0.06556 0.5463 0.0
C1226 C 0.8966 0.11426 0.50701 0.0
C1227 C 0.88136 0.06783 0.5646 0.0
C1228 C 0.89417 0.15763 0.4332 0.0
C1229 C 0.89352 0.15566 0.45139 0.0
C1230 C 0.87703 0.09439 0.48878 0.0
C1231 C 0.88689 0.10926 0.53596 0.0
C1232 C 0.8868 0.10542 0.51647 0.0
C1233 C 0.88691 0.10883 0.45987 0.0
C1234 C 0.88681 0.10525 0.47937 0.0
H1235 H 0.89935 0.19529 0.56859 0.0
H1236 H 0.89814 0.19186 0.53697 0.0
H1237 H 0.86932 0.08779 0.51394 0.0
H1238 H 0.87663 0.03226 0.42367 0.0
H1239 H 0.87553 1.02838 0.45562 0.0
C1240 C 0.62684 0.65961 0.06248 0.0
C1241 C 0.63236 0.61353 0.07292 0.0
C1242 C 0.62811 0.65918 0.04435 0.0
C1243 C 0.63593 0.55224 0.0072 0.0
H1244 H 0.63661 0.71792 0.98228 0.0
C1245 C 0.63918 0.56701 0.93127 0.0
C1246 C 0.63226 0.61339 0.92327 0.0
C1247 C 0.64044 0.56638 0.94949 0.0
C1248 C 0.63635 0.67113 0.98899 0.0
H1249 H 0.64368 0.53118 0.07251 0.0
H1250 H 0.64593 0.53033 0.04069 0.0
H1251 H 0.63663 0.71794 0.01401 0.0
H1252 H 0.62137 0.69597 0.92808 0.0
H1253 H 0.62351 0.69484 0.9596 0.0
H1254 H 0.63548 0.50555 0.98208 0.0
C1255 C 0.64054 0.56659 0.04657 0.0
C1256 C 0.63636 0.67114 0.00724 0.0
C1257 C 0.6393 0.56726 0.0648 0.0
C1258 C 0.62678 0.65961 0.93382 0.0
C1259 C 0.62807 0.65921 0.95193 0.0
C1260 C 0.63591 0.55222 0.98889 0.0
C1261 C 0.63494 0.61257 0.03609 0.0
C1262 C 0.63594 0.61179 0.01663 0.0
C1263 C 0.63488 0.6125 0.96008 0.0
C1264 C 0.63591 0.61176 0.97953 0.0
H1265 H 0.62143 0.69589 0.06831 0.0
H1266 H 0.62353 0.6947 0.03677 0.0
H1267 H 0.63551 0.50558 0.01395 0.0
H1268 H 0.64353 0.53082 0.92348 0.0
H1269 H 0.64583 0.53005 0.95527 0.0
C1270 C 0.39435 0.40469 0.93288 0.0
C1271 C 0.38825 0.44865 0.92262 0.0
C1272 C 0.39375 0.40695 0.95107 0.0
C1273 C 0.3771 0.46733 0.98854 0.0
H1274 H 0.40444 0.44233 0.01349 0.0
C1275 C 0.38125 0.49404 0.06444 0.0
C1276 C 0.38818 0.44841 0.07272 0.0
C1277 C 0.38062 0.49635 0.04613 0.0
C1278 C 0.3967 0.44872 0.00678 0.0
H1279 H 0.37644 0.52846 0.92347 0.0
H1280 H 0.37541 0.53283 0.95543 0.0
H1281 H 0.40447 0.4424 0.98183 0.0
H1282 H 0.39957 0.36798 0.0683 0.0
H1283 H 0.39843 0.37147 0.03668 0.0
H1284 H 0.36935 0.47355 0.01369 0.0
C1285 C 0.38065 0.49631 0.94933 0.0
C1286 C 0.39671 0.44874 0.98855 0.0
C1287 C 0.38127 0.49403 0.93102 0.0
C1288 C 0.39423 0.4042 0.06235 0.0
C1289 C 0.39363 0.40651 0.04417 0.0
C1290 C 0.37708 0.46733 0.00687 0.0
C1291 C 0.38701 0.45333 0.95961 0.0
C1292 C 0.3869 0.45704 0.97913 0.0
C1293 C 0.38695 0.45318 0.03575 0.0
C1294 C 0.38687 0.457 0.01624 0.0
H1295 H 0.39973 0.36867 0.92683 0.0
H1296 H 0.39858 0.37205 0.95847 0.0
H1297 H 0.36938 0.47355 0.98175 0.0
H1298 H 0.37646 0.52866 0.07208 0.0
H1299 H 0.37542 0.53306 0.04012 0.0
C1300 C 0.63917 0.49562 0.43109 0.0
C1301 C 0.63221 0.44974 0.42297 0.0
C1302 C 0.64039 0.49611 0.44931 0.0
C1303 C 0.6361 0.39156 0.48862 0.0
H1304 H 0.63543 0.55713 0.51382 0.0
C1305 C 0.62676 0.40342 0.56221 0.0
C1306 C 0.63229 0.44946 0.57266 0.0
C1307 C 0.62798 0.40374 0.54407 0.0
C1308 C 0.6358 0.51045 0.50701 0.0
H1309 H 0.62121 0.36788 0.42758 0.0
H1310 H 0.62327 0.36876 0.45911 0.0
H1311 H 0.63541 0.55719 0.48195 0.0
H1312 H 0.6436 0.5316 0.57228 0.0
H1313 H 0.6458 0.5322 0.54046 0.0
H1314 H 0.63634 0.3447 0.51357 0.0
C1315 C 0.62789 0.40411 0.45153 0.0
C1316 C 0.63579 0.51049 0.48869 0.0
C1317 C 0.62664 0.40386 0.43341 0.0
C1318 C 0.63921 0.49556 0.56455 0.0
C1319 C 0.64041 0.4961 0.54632 0.0
C1320 C 0.63612 0.39153 0.50687 0.0
C1321 C 0.63474 0.45034 0.45979 0.0
C1322 C 0.63573 0.45096 0.47925 0.0
C1323 C 0.63479 0.45018 0.53582 0.0
C1324 C 0.63575 0.45089 0.51635 0.0
H1325 H 0.64359 0.53153 0.42338 0.0
H1326 H 0.64581 0.53205 0.45518 0.0
H1327 H 0.63632 0.34477 0.48184 0.0
H1328 H 0.62136 0.36727 0.56803 0.0
H1329 H 0.62338 0.36828 0.53648 0.0
C1330 C 0.39495 0.65525 0.56304 0.0
C1331 C 0.38877 0.61159 0.57327 0.0
C1332 C 0.39433 0.65341 0.54484 0.0
C1333 C 0.37754 0.59475 0.50746 0.0
H1334 H 0.40486 0.61868 0.48221 0.0
C1335 C 0.3815 0.56751 0.43156 0.0
C1336 C 0.38844 0.61274 0.42315 0.0
C1337 C 0.38093 0.56541 0.44987 0.0
C1338 C 0.39712 0.61262 0.489 0.0
H1339 H 0.37684 0.5327 0.5724 0.0
H1340 H 0.3758 0.529 0.54045 0.0
H1341 H 0.40495 0.61838 0.51387 0.0
H1342 H 0.39991 0.69265 0.42735 0.0
H1343 H 0.39886 0.68949 0.459 0.0
H1344 H 0.36974 0.58901 0.48239 0.0
C1345 C 0.3811 0.56501 0.54655 0.0
C1346 C 0.39717 0.61246 0.50723 0.0
C1347 C 0.38173 0.56689 0.56486 0.0
C1348 C 0.39456 0.65674 0.4334 0.0
C1349 C 0.39401 0.65462 0.4516 0.0
C1350 C 0.37749 0.59486 0.48913 0.0
C1351 C 0.38752 0.60773 0.53628 0.0
C1352 C 0.38737 0.60447 0.51677 0.0
C1353 C 0.38731 0.60837 0.46014 0.0
C1354 C 0.38727 0.60475 0.47965 0.0
H1355 H 0.40038 0.69075 0.5691 0.0
H1356 H 0.39921 0.6881 0.53746 0.0
H1357 H 0.36983 0.58882 0.51432 0.0
H1358 H 0.37666 0.53306 0.42401 0.0
H1359 H 0.37571 0.529 0.45597 0.0
C1360 C 0.96788 0.04535 0.11816 0.0
C1361 C 0.96263 1.01153 0.13183 0.0
C1362 C 0.9794 0.04899 0.11732 0.0
C1363 C 1.00471 0.96575 0.13305 0.0
H1364 H 0.01905 0.13042 0.1218 0.0
C1365 C 0.05157 1.00176 0.14246 0.0
C1366 C 0.05738 0.04257 0.13084 0.0
C1367 C 0.04009 0.99681 0.1417 0.0
C1368 C 0.01522 0.08365 0.1247 0.0
H1369 H 0.96552 0.95389 0.15514 0.0
H1370 H 0.98549 0.96051 0.15372 0.0
H1371 H 0.99904 0.12433 0.12196 0.0
H1372 H 0.05541 0.1098 0.10914 0.0
H1373 H 0.03551 0.09943 0.10743 0.0
H1374 H 0.02083 0.92471 0.13566 0.0
C1375 C 0.98072 0.98424 0.14362 0.0
C1376 C 1.0037 0.08025 0.12483 0.0
C1377 C 0.96924 0.98111 0.14454 0.0
C1378 C 0.05132 0.07726 0.11821 0.0
C1379 C 0.03983 0.07208 0.1174 0.0
C1380 C 0.01622 0.96898 0.13281 0.0
C1381 C 0.98599 1.01822 0.13001 0.0
C1382 C 0.99828 1.0214 0.12917 0.0
C1383 C 0.03401 0.03218 0.12923 0.0
C1384 C 0.02168 1.02814 0.12879 0.0
H1385 H 0.96308 0.06963 0.10819 0.0
H1386 H 0.98316 0.07518 0.10658 0.0
H1387 H 1.00085 0.91925 0.13615 0.0
H1388 H 0.05589 0.97347 0.15223 0.0
H1389 H 0.03598 0.96612 0.15119 0.0
C1390 C 0.96779 1.0171 0.37782 0.0
C1391 C 0.96258 0.05085 0.36412 0.0
C1392 C 0.97931 1.0137 0.37876 0.0
C1393 C 1.00462 0.09749 0.36328 0.0
H1394 H 0.01906 0.93284 0.37442 0.0
C1395 C 0.05155 0.06228 0.35406 0.0
C1396 C 0.05734 1.02127 0.36564 0.0
C1397 C 0.04006 0.06709 0.35478 0.0
C1398 C 0.0152 0.9796 0.37156 0.0
H1399 H 0.96554 0.10867 0.34086 0.0
H1400 H 0.9855 0.10249 0.34244 0.0
H1401 H 0.99904 0.93865 0.37416 0.0
H1402 H 0.05534 0.95356 0.38724 0.0
H1403 H 0.03543 0.96373 0.38888 0.0
H1404 H 0.02071 0.1388 0.36081 0.0
C1405 C 0.98071 0.07861 0.3525 0.0
C1406 C 1.00368 0.98283 0.37137 0.0
C1407 C 0.96922 0.0815 0.35148 0.0
C1408 C 0.05126 0.98626 0.3782 0.0
C1409 C 0.03976 0.99132 0.37898 0.0
C1410 C 0.01613 0.09442 0.36359 0.0
C1411 C 0.98593 0.04466 0.36614 0.0
C1412 C 0.99822 0.04167 0.36706 0.0
C1413 C 0.03396 1.0314 0.36718 0.0
C1414 C 0.02162 0.03527 0.36757 0.0
H1415 H 0.96296 0.99267 0.38774 0.0
H1416 H 0.98303 0.98751 0.38952 0.0
H1417 H 1.00072 0.14397 0.36021 0.0
H1418 H 0.05588 0.09081 0.34435 0.0
H1419 H 0.03596 0.09794 0.34532 0.0
C1420 C 0.05143 1.00171 0.85365 0.0
C1421 C 0.05718 0.04252 0.86536 0.0
C1422 C 0.03995 0.9967 0.85434 0.0
C1423 C 0.01498 0.08326 0.8714 0.0
H1424 H 1.00068 0.91887 0.85955 0.0
C1425 C 0.96762 0.04448 0.87777 0.0
C1426 C 0.96242 1.01076 0.86403 0.0
C1427 C 0.97914 0.0482 0.87864 0.0
C1428 C 1.00453 0.96537 0.86277 0.0
H1429 H 0.0551 0.1097 0.88716 0.0
H1430 H 0.0352 0.0992 0.88874 0.0
H1431 H 0.02066 0.92451 0.86011 0.0
H1432 H 0.96539 0.95335 0.84061 0.0
H1433 H 0.98535 0.9601 0.84207 0.0
H1434 H 0.99877 0.12376 0.87419 0.0
C1435 C 0.03956 0.0719 0.87876 0.0
C1436 C 0.01603 0.9687 0.86305 0.0
C1437 C 0.05105 0.07716 0.87802 0.0
C1438 C 0.96907 0.98049 0.85127 0.0
C1439 C 0.98055 0.9837 0.85222 0.0
C1440 C 1.00346 0.07976 0.87124 0.0
C1441 C 0.0338 0.032 0.86684 0.0
C1442 C 0.02147 1.02786 0.86721 0.0
C1443 C 0.98577 1.01761 0.8659 0.0
C1444 C 0.99806 1.02091 0.86676 0.0
H1445 H 0.0558 0.97346 0.84386 0.0
H1446 H 0.03589 0.96601 0.84477 0.0
H1447 H 0.01878 0.13003 0.87442 0.0
H1448 H 0.96278 0.06865 0.88778 0.0
H1449 H 0.98285 0.07434 0.88943 0.0
C1450 C 0.96831 1.00237 0.64219 0.0
C1451 C 0.9625 0.04279 0.6305 0.0
C1452 C 0.9798 0.99747 0.64142 0.0
C1453 C 1.00463 0.08387 0.62414 0.0
H1454 H 0.01911 0.92002 0.636 0.0
C1455 C 0.05201 0.04554 0.61757 0.0
C1456 C 0.05726 1.01237 0.63133 0.0
C1457 C 0.04049 0.04907 0.61675 0.0
C1458 C 0.01522 0.96636 0.63278 0.0
H1459 H 0.96445 0.10935 0.60864 0.0
H1460 H 0.98436 0.09901 0.60691 0.0
H1461 H 0.99913 0.92533 0.63554 0.0
H1462 H 0.05438 0.95575 0.65482 0.0
H1463 H 0.03442 0.96217 0.65344 0.0
H1464 H 0.0208 0.12453 0.62125 0.0
C1465 C 0.98005 0.07196 0.61695 0.0
C1466 C 1.00371 0.96952 0.63256 0.0
C1467 C 0.96855 0.07712 0.61777 0.0
C1468 C 0.05067 0.98247 0.64415 0.0
C1469 C 0.03918 0.98548 0.64325 0.0
C1470 C 0.01616 0.08055 0.62425 0.0
C1471 C 0.98588 0.03247 0.62885 0.0
C1472 C 0.99821 1.02848 0.6284 0.0
C1473 C 0.03391 1.01882 0.62955 0.0
C1474 C 0.02162 1.0219 0.62873 0.0
H1475 H 0.964 0.97436 0.65203 0.0
H1476 H 0.98391 0.9671 0.65097 0.0
H1477 H 1.00078 0.1305 0.62113 0.0
H1478 H 0.05681 0.06941 0.60752 0.0
H1479 H 0.03673 0.07477 0.60594 0.0
C1480 C 0.46783 0.54379 0.11777 0.0
C1481 C 0.46258 0.51064 0.13156 0.0
C1482 C 0.47934 0.54735 0.11691 0.0
C1483 C 0.50465 0.46478 0.13288 0.0
H1484 H 0.519 0.62888 0.12109 0.0
C1485 C 0.55152 0.50109 0.14212 0.0
C1486 C 0.55732 0.5414 0.13038 0.0
C1487 C 0.54004 0.49612 0.14139 0.0
C1488 C 0.51517 0.58226 0.12414 0.0
H1489 H 0.46547 0.45409 0.15505 0.0
H1490 H 0.48543 0.46059 0.15359 0.0
H1491 H 0.49898 0.62286 0.12129 0.0
H1492 H 0.55535 0.60768 0.10847 0.0
H1493 H 0.53545 0.59724 0.10681 0.0
H1494 H 0.52077 0.42382 0.1356 0.0
C1495 C 0.48067 0.48385 0.14341 0.0
C1496 C 0.50365 0.5789 0.12429 0.0
C1497 C 0.46918 0.4808 0.14436 0.0
C1498 C 0.55126 0.57554 0.11764 0.0
C1499 C 0.53977 0.57032 0.11685 0.0
C1500 C 0.51616 0.46797 0.13261 0.0
C1501 C 0.48593 0.51716 0.12969 0.0
C1502 C 0.49822 0.52027 0.12883 0.0
C1503 C 0.53395 0.53095 0.12881 0.0
C1504 C 0.52162 0.52692 0.1284 0.0
H1505 H 0.46302 0.56761 0.10772 0.0
H1506 H 0.4831 0.57302 0.10608 0.0
H1507 H 0.50078 0.41844 0.13613 0.0
H1508 H 0.55584 0.47323 0.15197 0.0
H1509 H 0.53593 0.46585 0.15098 0.0
C1510 C 0.4678 0.51785 0.37803 0.0
C1511 C 0.46258 0.55112 0.36426 0.0
C1512 C 0.47932 0.51455 0.37896 0.0
C1513 C 0.5046 0.59799 0.36328 0.0
H1514 H 0.51908 0.43375 0.37472 0.0
C1515 C 0.55152 0.56274 0.354 0.0
C1516 C 0.55733 0.52208 0.36564 0.0
C1517 C 0.54004 0.56753 0.35475 0.0
C1518 C 0.51521 0.48041 0.37177 0.0
H1519 H 0.46552 0.60819 0.34086 0.0
H1520 H 0.48548 0.60219 0.34244 0.0
H1521 H 0.49906 0.43944 0.37449 0.0
H1522 H 0.55537 0.455 0.38739 0.0
H1523 H 0.53546 0.46514 0.38908 0.0
H1524 H 0.52068 0.63932 0.36069 0.0
C1525 C 0.48069 0.57861 0.35255 0.0
C1526 C 0.50369 0.48357 0.3716 0.0
C1527 C 0.46921 0.58139 0.35154 0.0
C1528 C 0.55127 0.48742 0.3783 0.0
C1529 C 0.53977 0.49247 0.3791 0.0
C1530 C 0.51611 0.595 0.36357 0.0
C1531 C 0.48593 0.54514 0.36626 0.0
C1532 C 0.49822 0.54225 0.36718 0.0
C1533 C 0.53395 0.53218 0.36724 0.0
C1534 C 0.52162 0.536 0.36765 0.0
H1535 H 0.46298 0.49372 0.38801 0.0
H1536 H 0.48305 0.48874 0.38978 0.0
H1537 H 0.50069 0.64436 0.36012 0.0
H1538 H 0.55584 0.591 0.34422 0.0
H1539 H 0.53592 0.59808 0.34523 0.0
C1540 C 0.46785 0.55931 0.85308 0.0
C1541 C 0.46202 0.51794 0.86453 0.0
C1542 C 0.47933 0.56418 0.85391 0.0
C1543 C 0.50418 0.47658 0.87078 0.0
H1544 H 0.51857 0.64152 0.85994 0.0
C1545 C 0.55149 0.51486 0.87789 0.0
C1546 C 0.55679 0.54931 0.86439 0.0
C1547 C 0.53997 0.51111 0.8786 0.0
C1548 C 0.5147 0.59487 0.86287 0.0
H1549 H 0.46395 0.44959 0.886 0.0
H1550 H 0.48384 0.45983 0.88783 0.0
H1551 H 0.49859 0.63595 0.86025 0.0
H1552 H 0.55399 0.60795 0.84123 0.0
H1553 H 0.53402 0.60115 0.84242 0.0
H1554 H 0.52036 0.43586 0.87353 0.0
C1555 C 0.47955 0.48768 0.87794 0.0
C1556 C 0.50319 0.59158 0.86301 0.0
C1557 C 0.46806 0.48257 0.87706 0.0
C1558 C 0.55024 0.58024 0.8517 0.0
C1559 C 0.53875 0.577 0.8525 0.0
C1560 C 0.5157 0.48003 0.87076 0.0
C1561 C 0.48539 0.52818 0.86628 0.0
C1562 C 0.49772 0.53223 0.86681 0.0
C1563 C 0.53343 0.54239 0.86594 0.0
C1564 C 0.52113 0.53909 0.86664 0.0
H1565 H 0.46355 0.58812 0.84339 0.0
H1566 H 0.48346 0.59535 0.84454 0.0
H1567 H 0.50035 0.42967 0.87351 0.0
H1568 H 0.55625 0.49018 0.88784 0.0
H1569 H 0.53617 0.48441 0.88922 0.0
C1570 C 0.46808 0.502 0.64289 0.0
C1571 C 0.46221 0.54354 0.63154 0.0
C1572 C 0.47956 0.4974 0.64203 0.0
C1573 C 0.50433 0.58586 0.62523 0.0
H1574 H 0.51887 0.42092 0.63579 0.0
C1575 C 0.55171 0.54837 0.61811 0.0
C1576 C 0.557 0.51391 0.63161 0.0
C1577 C 0.54019 0.55195 0.61737 0.0
C1578 C 0.51496 0.46756 0.63294 0.0
H1579 H 0.46408 0.61249 0.6102 0.0
H1580 H 0.484 0.60274 0.60828 0.0
H1581 H 0.49889 0.42614 0.6355 0.0
H1582 H 0.55417 0.45506 0.65473 0.0
H1583 H 0.5342 0.46152 0.65348 0.0
H1584 H 0.52048 0.62692 0.62253 0.0
C1585 C 0.47972 0.57453 0.61813 0.0
C1586 C 0.50345 0.47066 0.63281 0.0
C1587 C 0.46822 0.57937 0.61906 0.0
C1588 C 0.55043 0.48277 0.64426 0.0
C1589 C 0.53894 0.48583 0.64343 0.0
C1590 C 0.51586 0.58261 0.62524 0.0
C1591 C 0.4856 0.53384 0.6297 0.0
C1592 C 0.49793 0.53001 0.62912 0.0
C1593 C 0.53364 0.52046 0.62999 0.0
C1594 C 0.52134 0.52355 0.62926 0.0
H1595 H 0.4638 0.47283 0.65254 0.0
H1596 H 0.48371 0.46608 0.65132 0.0
H1597 H 0.50046 0.63277 0.62259 0.0
H1598 H 0.55649 0.57319 0.60819 0.0
H1599 H 0.5364 0.57868 0.60676 0.0
C1600 C 0.14426 0.8464 0.11299 0.0
C1601 C 0.13571 0.88269 0.12083 0.0
C1602 C 0.14444 0.77735 0.1137 0.0
C1603 C 0.13294 0.63519 0.13855 0.0
H1604 H 0.1436 0.53349 0.09919 0.0
C1605 C 0.12946 0.3495 0.13584 0.0
C1606 C 0.13803 0.31343 0.12795 0.0
C1607 C 0.12927 0.41858 0.13522 0.0
C1608 C 0.14073 0.56095 0.11042 0.0
H1609 H 0.12053 0.87371 0.13545 0.0
H1610 H 0.12074 0.75364 0.1365 0.0
H1611 H 0.14288 0.6531 0.09732 0.0
H1612 H 0.15323 0.32283 0.11341 0.0
H1613 H 0.15299 0.44289 0.11252 0.0
H1614 H 0.13078 0.54301 0.15165 0.0
C1615 C 0.12743 0.77858 0.12998 0.0
C1616 C 0.1403 0.62992 0.10934 0.0
C1617 C 0.12726 0.84771 0.12925 0.0
C1618 C 0.14648 0.34865 0.11962 0.0
C1619 C 0.1463 0.41777 0.11899 0.0
C1620 C 0.13336 0.56621 0.13963 0.0
C1621 C 0.13606 0.74222 0.1223 0.0
C1622 C 0.1364 0.66827 0.12339 0.0
C1623 C 0.13765 0.45393 0.12667 0.0
C1624 C 0.13727 0.52787 0.12559 0.0
H1625 H 0.15096 0.87133 0.10645 0.0
H1626 H 0.1513 0.75159 0.10781 0.0
H1627 H 0.13006 0.66266 0.14978 0.0
H1628 H 0.12276 0.32437 0.1423 0.0
H1629 H 0.1224 0.44419 0.14111 0.0
C1630 C 0.87552 0.21577 0.11285 0.0
C1631 C 0.88405 0.17964 0.12069 0.0
C1632 C 0.87535 0.28483 0.11355 0.0
C1633 C 0.88681 0.42755 0.13834 0.0
H1634 H 0.87624 0.5283 0.09895 0.0
C1635 C 0.89032 0.71313 0.13551 0.0
C1636 C 0.88177 0.74904 0.12764 0.0
C1637 C 0.8905 0.64404 0.13492 0.0
C1638 C 0.87908 0.50111 0.11019 0.0
H1639 H 0.89921 0.18891 0.13529 0.0
H1640 H 0.899 0.30901 0.13631 0.0
H1641 H 0.87695 0.40864 0.09712 0.0
H1642 H 0.86659 0.73932 0.11313 0.0
H1643 H 0.86682 0.61924 0.11228 0.0
H1644 H 0.88895 0.52005 0.1514 0.0
C1645 C 0.89232 0.28393 0.12981 0.0
C1646 C 0.87951 0.43212 0.10913 0.0
C1647 C 0.89249 0.21479 0.1291 0.0
C1648 C 0.87332 0.71364 0.11934 0.0
C1649 C 0.87351 0.6445 0.11872 0.0
C1650 C 0.88639 0.49655 0.1394 0.0
C1651 C 0.88371 0.32014 0.12213 0.0
C1652 C 0.88337 0.39411 0.12319 0.0
C1653 C 0.88214 0.60851 0.1264 0.0
C1654 C 0.88251 0.53455 0.12534 0.0
H1655 H 0.86884 0.1907 0.10633 0.0
H1656 H 0.86849 0.31046 0.10766 0.0
H1657 H 0.88966 0.40035 0.14958 0.0
H1658 H 0.89701 0.7384 0.14196 0.0
H1659 H 0.89737 0.61856 0.14081 0.0
C1660 C 0.1443 0.21699 0.38325 0.0
C1661 C 0.13573 0.18086 0.37549 0.0
C1662 C 0.14447 0.28604 0.38251 0.0
C1663 C 0.13295 0.42838 0.35772 0.0
H1664 H 0.14372 0.53004 0.39692 0.0
C1665 C 0.12951 0.71421 0.36037 0.0
C1666 C 0.1381 0.75013 0.36815 0.0
C1667 C 0.12932 0.64513 0.36101 0.0
C1668 C 0.14081 0.50259 0.38573 0.0
H1669 H 0.12053 0.19015 0.36101 0.0
H1670 H 0.12076 0.31021 0.35993 0.0
H1671 H 0.14298 0.41046 0.39884 0.0
H1672 H 0.15333 0.74042 0.38251 0.0
H1673 H 0.15308 0.62037 0.38344 0.0
H1674 H 0.13077 0.52055 0.34462 0.0
C1675 C 0.12745 0.28514 0.36639 0.0
C1676 C 0.14038 0.43364 0.38684 0.0
C1677 C 0.12727 0.21602 0.36714 0.0
C1678 C 0.14657 0.71473 0.37638 0.0
C1679 C 0.14638 0.64561 0.37704 0.0
C1680 C 0.13338 0.49735 0.35661 0.0
C1681 C 0.13609 0.32134 0.37398 0.0
C1682 C 0.13644 0.39529 0.37286 0.0
C1683 C 0.13771 0.60962 0.36947 0.0
C1684 C 0.13733 0.53567 0.37059 0.0
H1685 H 0.151 0.19193 0.38972 0.0
H1686 H 0.15135 0.31165 0.38833 0.0
H1687 H 0.13005 0.40092 0.34653 0.0
H1688 H 0.1228 0.73946 0.35398 0.0
H1689 H 0.12243 0.61965 0.35521 0.0
C1690 C 0.89018 0.34779 0.35988 0.0
C1691 C 0.88169 0.31212 0.36799 0.0
C1692 C 0.89039 0.41688 0.36049 0.0
C1693 C 0.87282 0.56467 0.36938 0.0
H1694 H 0.90082 0.65263 0.37512 0.0
C1695 C 0.87557 0.8456 0.38326 0.0
C1696 C 0.88404 0.88157 0.37518 0.0
C1697 C 0.87536 0.77654 0.38248 0.0
C1698 C 0.89292 0.62914 0.37331 0.0
H1699 H 0.86666 0.32227 0.38298 0.0
H1700 H 0.86704 0.44226 0.38413 0.0
H1701 H 0.90018 0.53294 0.37329 0.0
H1702 H 0.89901 0.872 0.36003 0.0
H1703 H 0.89864 0.752 0.3586 0.0
H1704 H 0.86556 0.66087 0.36942 0.0
C1705 C 0.87351 0.41692 0.3771 0.0
C1706 C 0.89255 0.56012 0.37224 0.0
C1707 C 0.87331 0.34777 0.3765 0.0
C1708 C 0.89238 0.84624 0.36649 0.0
C1709 C 0.89218 0.77711 0.36573 0.0
C1710 C 0.87319 0.63367 0.37045 0.0
C1711 C 0.8821 0.45267 0.36922 0.0
C1712 C 0.88249 0.52666 0.37026 0.0
C1713 C 0.88362 0.74108 0.37361 0.0
C1714 C 0.88325 0.66713 0.37245 0.0
H1715 H 0.89678 0.32234 0.35317 0.0
H1716 H 0.89705 0.44226 0.354 0.0
H1717 H 0.86492 0.54119 0.36757 0.0
H1718 H 0.869 0.87078 0.3901 0.0
H1719 H 0.86873 0.75093 0.38896 0.0
C1720 C 0.87533 0.21598 0.88312 0.0
C1721 C 0.88384 0.17964 0.87516 0.0
C1722 C 0.87513 0.28502 0.88232 0.0
C1723 C 0.89274 0.43184 0.87329 0.0
H1724 H 0.86477 0.52021 0.8672 0.0
C1725 C 0.89006 0.71296 0.85976 0.0
C1726 C 0.88153 0.74896 0.86777 0.0
C1727 C 0.89026 0.64387 0.86037 0.0
C1728 C 0.87266 0.49662 0.86911 0.0
H1729 H 0.89889 0.18853 0.86018 0.0
H1730 H 0.89852 0.30849 0.85872 0.0
H1731 H 0.8654 0.40058 0.86911 0.0
H1732 H 0.86644 0.7394 0.88261 0.0
H1733 H 0.86682 0.61944 0.88377 0.0
H1734 H 0.9 0.52789 0.87331 0.0
C1735 C 0.89203 0.28369 0.86577 0.0
C1736 C 0.87302 0.42764 0.87022 0.0
C1737 C 0.89222 0.21458 0.86656 0.0
C1738 C 0.87312 0.71364 0.8762 0.0
C1739 C 0.87332 0.64451 0.87681 0.0
C1740 C 0.89238 0.50084 0.87219 0.0
C1741 C 0.88344 0.3201 0.87353 0.0
C1742 C 0.88307 0.39403 0.87235 0.0
C1743 C 0.88195 0.60842 0.86902 0.0
C1744 C 0.88233 0.53446 0.87008 0.0
H1745 H 0.86873 0.19109 0.88989 0.0
H1746 H 0.86847 0.31094 0.88872 0.0
H1747 H 0.90063 0.40823 0.8752 0.0
H1748 H 0.89668 0.73815 0.85311 0.0
H1749 H 0.89695 0.61822 0.85396 0.0
C1750 C 0.12929 0.34952 0.86037 0.0
C1751 C 0.13786 0.31363 0.86821 0.0
C1752 C 0.12911 0.41861 0.86097 0.0
C1753 C 0.14058 0.56152 0.88564 0.0
H1754 H 0.12991 0.6623 0.84631 0.0
C1755 C 0.14414 0.84682 0.88295 0.0
C1756 C 0.13558 0.88295 0.87519 0.0
C1757 C 0.14431 0.77777 0.88225 0.0
C1758 C 0.13279 0.63509 0.85753 0.0
H1759 H 0.15307 0.32335 0.88263 0.0
H1760 H 0.15284 0.44343 0.88348 0.0
H1761 H 0.13063 0.5426 0.84448 0.0
H1762 H 0.12038 0.87371 0.86071 0.0
H1763 H 0.12059 0.7536 0.85967 0.0
H1764 H 0.14273 0.65398 0.89869 0.0
C1765 C 0.14614 0.41817 0.87707 0.0
C1766 C 0.13321 0.56609 0.85647 0.0
C1767 C 0.14632 0.34903 0.87646 0.0
C1768 C 0.12712 0.84782 0.86684 0.0
C1769 C 0.12729 0.77868 0.86612 0.0
C1770 C 0.14015 0.63051 0.8867 0.0
C1771 C 0.13749 0.45414 0.86944 0.0
C1772 C 0.13712 0.5281 0.8705 0.0
C1773 C 0.13592 0.74247 0.87374 0.0
C1774 C 0.13626 0.66852 0.87266 0.0
H1775 H 0.12258 0.32424 0.85397 0.0
H1776 H 0.12223 0.44409 0.85512 0.0
H1777 H 0.14345 0.53433 0.89686 0.0
H1778 H 0.15084 0.87188 0.88942 0.0
H1779 H 0.15118 0.75212 0.88807 0.0
C1780 C 0.87565 0.84727 0.6128 0.0
C1781 C 0.88416 0.88339 0.62073 0.0
C1782 C 0.87546 0.77824 0.61356 0.0
C1783 C 0.89306 0.63104 0.62239 0.0
H1784 H 0.86509 0.54318 0.62858 0.0
C1785 C 0.89037 0.34999 0.63584 0.0
C1786 C 0.88185 0.31418 0.62784 0.0
C1787 C 0.89057 0.41906 0.63524 0.0
C1788 C 0.87298 0.56664 0.62665 0.0
H1789 H 0.8992 0.87413 0.63561 0.0
H1790 H 0.89884 0.75415 0.63702 0.0
H1791 H 0.86572 0.66282 0.62676 0.0
H1792 H 0.86679 0.32405 0.61303 0.0
H1793 H 0.86717 0.44403 0.6119 0.0
H1794 H 0.90032 0.53485 0.62226 0.0
C1795 C 0.89235 0.77913 0.63001 0.0
C1796 C 0.87334 0.63562 0.62559 0.0
C1797 C 0.89254 0.84824 0.62926 0.0
C1798 C 0.87346 0.34968 0.61943 0.0
C1799 C 0.87366 0.4188 0.61884 0.0
C1800 C 0.8927 0.56205 0.62345 0.0
C1801 C 0.88376 0.74295 0.62228 0.0
C1802 C 0.88339 0.66903 0.62342 0.0
C1803 C 0.88226 0.45468 0.62662 0.0
C1804 C 0.88265 0.52863 0.62559 0.0
H1805 H 0.86905 0.87232 0.60608 0.0
H1806 H 0.8688 0.7525 0.60718 0.0
H1807 H 0.90095 0.65452 0.62045 0.0
H1808 H 0.89698 0.32466 0.64247 0.0
H1809 H 0.89725 0.44456 0.64165 0.0
C1810 C 0.14446 0.21674 0.61262 0.0
C1811 C 0.13592 0.18076 0.62051 0.0
C1812 C 0.14465 0.28578 0.61341 0.0
C1813 C 0.12702 0.43317 0.6222 0.0
H1814 H 0.15497 0.5211 0.62853 0.0
C1815 C 0.12966 0.7145 0.63567 0.0
C1816 C 0.13822 0.75015 0.62772 0.0
C1817 C 0.12946 0.64541 0.63507 0.0
C1818 C 0.14709 0.49762 0.62656 0.0
H1819 H 0.12082 0.1903 0.63534 0.0
H1820 H 0.12118 0.31031 0.63679 0.0
H1821 H 0.15434 0.40142 0.62668 0.0
H1822 H 0.15336 0.73997 0.61301 0.0
H1823 H 0.15298 0.61997 0.61188 0.0
H1824 H 0.11977 0.52937 0.62206 0.0
C1825 C 0.1277 0.2852 0.6298 0.0
C1826 C 0.14673 0.42862 0.62548 0.0
C1827 C 0.1275 0.21607 0.62902 0.0
C1828 C 0.14666 0.71448 0.61937 0.0
C1829 C 0.14646 0.64533 0.61878 0.0
C1830 C 0.12739 0.50218 0.62327 0.0
C1831 C 0.13632 0.32123 0.6221 0.0
C1832 C 0.13669 0.39518 0.62327 0.0
C1833 C 0.13781 0.60961 0.6265 0.0
C1834 C 0.13743 0.53563 0.62546 0.0
H1835 H 0.15108 0.19156 0.60591 0.0
H1836 H 0.15134 0.31141 0.60706 0.0
H1837 H 0.11914 0.40968 0.62023 0.0
H1838 H 0.12302 0.73997 0.64225 0.0
H1839 H 0.12275 0.62005 0.64144 0.0
C1840 C 0.64647 0.84826 0.11949 0.0
C1841 C 0.63798 0.81296 0.12771 0.0
C1842 C 0.64628 0.91739 0.11888 0.0
C1843 C 0.62719 0.06105 0.12304 0.0
H1844 H 0.65413 0.16126 0.12701 0.0
C1845 C 0.62728 0.34718 0.12895 0.0
C1846 C 0.63577 0.38221 0.12062 0.0
C1847 C 0.62746 0.27806 0.12967 0.0
C1848 C 0.64652 0.1342 0.12565 0.0
H1849 H 0.62268 0.82381 0.14198 0.0
H1850 H 0.62243 0.9437 0.14114 0.0
H1851 H 0.65473 0.04159 0.12883 0.0
H1852 H 0.65104 0.37091 0.10632 0.0
H1853 H 0.65129 0.25108 0.10738 0.0
H1854 H 0.61898 0.15368 0.11986 0.0
C1855 C 0.62917 0.91804 0.13489 0.0
C1856 C 0.64687 0.06522 0.12671 0.0
C1857 C 0.62937 0.84897 0.1355 0.0
C1858 C 0.64436 0.34596 0.11287 0.0
C1859 C 0.64455 0.27692 0.11362 0.0
C1860 C 0.62684 0.13004 0.12199 0.0
C1861 C 0.63758 0.95346 0.12646 0.0
C1862 C 0.63721 1.02742 0.12542 0.0
C1863 C 0.63615 0.24176 0.12213 0.0
C1864 C 0.6365 0.16783 0.12326 0.0
H1865 H 0.65321 0.82248 0.11325 0.0
H1866 H 0.65285 0.94246 0.11209 0.0
H1867 H 0.61959 0.034 0.12167 0.0
H1868 H 0.62055 0.37316 0.13515 0.0
H1869 H 0.6209 0.25317 0.13652 0.0
C1870 C 0.37549 0.71519 0.11271 0.0
C1871 C 0.38401 0.67906 0.1206 0.0
C1872 C 0.37532 0.78426 0.11341 0.0
C1873 C 0.38674 0.92696 0.13827 0.0
H1874 H 0.37625 1.02777 0.09884 0.0
C1875 C 0.39028 0.21256 0.13548 0.0
C1876 C 0.38174 0.24848 0.12757 0.0
C1877 C 0.39046 0.14346 0.13487 0.0
C1878 C 0.37907 1.00056 0.11009 0.0
H1879 H 0.39914 0.68833 0.13527 0.0
H1880 H 0.39893 0.80842 0.13629 0.0
H1881 H 0.37696 0.90811 0.09701 0.0
H1882 H 0.36658 0.2388 0.113 0.0
H1883 H 0.36682 0.11873 0.11213 0.0
H1884 H 0.38887 1.01945 0.15134 0.0
C1885 C 0.39226 0.78335 0.12976 0.0
C1886 C 0.37949 0.93157 0.10903 0.0
C1887 C 0.39243 0.71421 0.12905 0.0
C1888 C 0.37331 0.2131 0.11923 0.0
C1889 C 0.37349 0.14396 0.11861 0.0
C1890 C 0.38633 0.99597 0.13933 0.0
C1891 C 0.38366 0.81956 0.12203 0.0
C1892 C 0.38333 0.89354 0.1231 0.0
C1893 C 0.38211 0.10795 0.12632 0.0
C1894 C 0.38248 0.03398 0.12526 0.0
H1895 H 0.36882 0.69012 0.10616 0.0
H1896 H 0.36848 0.8099 0.10749 0.0
H1897 H 0.38957 0.89974 0.14952 0.0
H1898 H 0.39696 0.23781 0.14196 0.0
H1899 H 0.39732 0.11796 0.14079 0.0
C1900 C 0.62948 0.21499 0.36021 0.0
C1901 C 0.63805 0.25083 0.36805 0.0
C1902 C 0.62927 0.14591 0.36084 0.0
C1903 C 0.64691 0.9983 0.36923 0.0
H1904 H 0.61896 0.91057 0.37586 0.0
C1905 C 0.64428 0.71768 0.38319 0.0
C1906 C 0.63572 0.68157 0.37539 0.0
C1907 C 0.64448 0.78672 0.38242 0.0
C1908 C 0.62684 0.934 0.3738 0.0
H1909 H 0.65321 0.241 0.38259 0.0
H1910 H 0.65283 0.12103 0.38378 0.0
H1911 H 0.61959 1.03023 0.37399 0.0
H1912 H 0.6206 0.69089 0.36072 0.0
H1913 H 0.62096 0.81086 0.35929 0.0
H1914 H 0.65415 0.90207 0.36905 0.0
C1915 C 0.6463 0.14623 0.37694 0.0
C1916 C 0.62721 1.00298 0.37271 0.0
C1917 C 0.6465 0.21536 0.37632 0.0
C1918 C 0.62729 0.71675 0.36697 0.0
C1919 C 0.62749 0.78587 0.36621 0.0
C1920 C 0.64654 0.92932 0.37032 0.0
C1921 C 0.63763 0.11031 0.36933 0.0
C1922 C 0.63725 0.03636 0.37041 0.0
C1923 C 0.63613 0.82203 0.37381 0.0
C1924 C 0.6365 0.89595 0.37264 0.0
H1925 H 0.62282 0.24029 0.35369 0.0
H1926 H 0.62255 0.1204 0.35456 0.0
H1927 H 0.65479 1.0217 0.36717 0.0
H1928 H 0.65092 0.69261 0.38982 0.0
H1929 H 0.65118 0.81244 0.38869 0.0
C1930 C 0.37336 0.84764 0.37674 0.0
C1931 C 0.38172 0.81199 0.36817 0.0
C1932 C 0.37357 0.91679 0.37735 0.0
C1933 C 0.39259 0.06001 0.37238 0.0
H1934 H 0.36559 0.16075 0.36975 0.0
C1935 C 0.3924 0.34613 0.36666 0.0
C1936 C 0.38408 0.38145 0.3754 0.0
C1937 C 0.3922 0.277 0.3659 0.0
C1938 C 0.37322 0.13355 0.37074 0.0
H1939 H 0.39677 0.82223 0.35327 0.0
H1940 H 0.39704 0.94216 0.35411 0.0
H1941 H 0.36495 0.04107 0.3679 0.0
H1942 H 0.36908 0.37066 0.39042 0.0
H1943 H 0.36881 0.2508 0.38928 0.0
H1944 H 0.40086 0.15251 0.37522 0.0
C1945 C 0.3904 0.91677 0.36063 0.0
C1946 C 0.37285 0.06455 0.36965 0.0
C1947 C 0.39019 0.84768 0.36002 0.0
C1948 C 0.37563 0.34548 0.38353 0.0
C1949 C 0.37542 0.27642 0.38275 0.0
C1950 C 0.39296 0.12902 0.37346 0.0
C1951 C 0.38214 0.95255 0.36942 0.0
C1952 C 0.38253 1.02654 0.37047 0.0
C1953 C 0.38366 0.24096 0.37383 0.0
C1954 C 0.38328 0.16701 0.37267 0.0
H1955 H 0.36672 0.82213 0.38326 0.0
H1956 H 0.36711 0.94211 0.38442 0.0
H1957 H 0.40022 0.03282 0.37338 0.0
H1958 H 0.39902 0.37189 0.36015 0.0
H1959 H 0.39864 0.25189 0.35873 0.0
C1960 C 0.37523 0.71466 0.88288 0.0
C1961 C 0.38365 0.6783 0.87469 0.0
C1962 C 0.37505 0.78372 0.88213 0.0
C1963 C 0.39266 0.93024 0.87278 0.0
H1964 H 0.3647 1.01938 0.86746 0.0
C1965 C 0.39001 0.21166 0.85956 0.0
C1966 C 0.38158 0.24765 0.86782 0.0
C1967 C 0.39019 0.14255 0.86011 0.0
C1968 C 0.37258 0.99556 0.86915 0.0
H1969 H 0.39854 0.68714 0.85933 0.0
H1970 H 0.3982 0.80707 0.85794 0.0
H1971 H 0.36526 0.89971 0.86926 0.0
H1972 H 0.36664 0.2381 0.88304 0.0
H1973 H 0.36699 0.11817 0.8841 0.0
H1974 H 0.39999 1.02611 0.87269 0.0
C1975 C 0.39178 0.78231 0.86515 0.0
C1976 C 0.37291 0.92657 0.8702 0.0
C1977 C 0.39195 0.7132 0.86589 0.0
C1978 C 0.37325 0.21234 0.87645 0.0
C1979 C 0.37343 0.14322 0.87699 0.0
C1980 C 0.39234 0.99925 0.87174 0.0
C1981 C 0.38328 0.81875 0.87316 0.0
C1982 C 0.38295 0.89269 0.87205 0.0
C1983 C 0.38195 0.10712 0.86894 0.0
C1984 C 0.38229 0.03314 0.86991 0.0
H1985 H 0.36869 0.68978 0.88981 0.0
H1986 H 0.36846 0.80968 0.88872 0.0
H1987 H 0.40055 0.90641 0.87448 0.0
H1988 H 0.39657 0.23686 0.85276 0.0
H1989 H 0.3968 0.11687 0.8535 0.0
C1990 C 0.64415 0.34556 0.88305 0.0
C1991 C 0.63555 0.38167 0.87537 0.0
C1992 C 0.64433 0.27651 0.88231 0.0
C1993 C 0.6266 0.12954 0.87412 0.0
H1994 H 0.65448 0.04084 0.86706 0.0
C1995 C 0.62911 0.84816 0.86066 0.0
C1996 C 0.63772 0.81234 0.86841 0.0
C1997 C 0.62892 0.91724 0.86126 0.0
C1998 C 0.64663 0.06455 0.86924 0.0
H1999 H 0.62033 0.37239 0.86097 0.0
H2000 H 0.62066 0.25236 0.8596 0.0
H2001 H 0.65389 0.16055 0.86884 0.0
H2002 H 0.65296 0.82217 0.88275 0.0
H2003 H 0.6526 0.94219 0.88388 0.0
H2004 H 0.61934 0.03353 0.87453 0.0
C2005 C 0.62724 0.27737 0.86639 0.0
C2006 C 0.64628 0.13356 0.87028 0.0
C2007 C 0.62706 0.34651 0.86712 0.0
C2008 C 0.64621 0.84781 0.87656 0.0
C2009 C 0.64602 0.91695 0.87714 0.0
C2010 C 0.62695 0.06052 0.87308 0.0
C2011 C 0.63592 0.24121 0.87387 0.0
C2012 C 0.63627 0.16726 0.87275 0.0
C2013 C 0.63733 0.95285 0.86961 0.0
C2014 C 0.63697 1.02681 0.87063 0.0
H2015 H 0.65084 0.37063 0.88956 0.0
H2016 H 0.65107 0.25078 0.88849 0.0
H2017 H 0.61875 0.15326 0.87631 0.0
H2018 H 0.62242 0.82284 0.85424 0.0
H2019 H 0.62217 0.94275 0.85505 0.0
C2020 C 0.39013 0.84838 0.63631 0.0
C2021 C 0.38175 0.81249 0.62799 0.0
C2022 C 0.3903 0.9175 0.63575 0.0
C2023 C 0.37931 0.06014 0.6105 0.0
H2024 H 0.38897 0.16166 0.65044 0.0
C2025 C 0.3755 0.34562 0.61294 0.0
C2026 C 0.38386 0.38186 0.62122 0.0
C2027 C 0.37534 0.27656 0.61366 0.0
C2028 C 0.38638 0.13424 0.63905 0.0
H2029 H 0.36686 0.82225 0.61274 0.0
H2030 H 0.36708 0.94223 0.61196 0.0
H2031 H 0.38835 0.04195 0.65218 0.0
H2032 H 0.39869 0.37276 0.63665 0.0
H2033 H 0.39849 0.25276 0.6377 0.0
H2034 H 0.37735 0.15236 0.59735 0.0
C2035 C 0.37364 0.91701 0.61872 0.0
C2036 C 0.38601 0.06523 0.64006 0.0
C2037 C 0.37346 0.84791 0.61929 0.0
C2038 C 0.39211 0.34681 0.63011 0.0
C2039 C 0.39194 0.27771 0.63084 0.0
C2040 C 0.37968 0.12912 0.60948 0.0
C2041 C 0.38211 0.95301 0.62683 0.0
C2042 C 0.38246 1.02697 0.62581 0.0
C2043 C 0.38352 0.24138 0.6227 0.0
C2044 C 0.38322 0.16741 0.62374 0.0
H2045 H 0.39669 0.82308 0.64307 0.0
H2046 H 0.39704 0.94302 0.642 0.0
H2047 H 0.37672 0.03274 0.59911 0.0
H2048 H 0.36897 0.37062 0.60605 0.0
H2049 H 0.36863 0.25082 0.60741 0.0
C2050 C 0.62724 0.71705 0.62885 0.0
C2051 C 0.63569 0.68173 0.62042 0.0
C2052 C 0.62743 0.78618 0.62961 0.0
C2053 C 0.64647 0.9296 0.62546 0.0
H2054 H 0.61952 1.03033 0.6218 0.0
C2055 C 0.64641 0.21546 0.61938 0.0
C2056 C 0.63795 0.2511 0.62767 0.0
C2057 C 0.64622 0.14632 0.61878 0.0
C2058 C 0.62713 1.00314 0.62308 0.0
H2059 H 0.65091 0.69252 0.60596 0.0
H2060 H 0.65116 0.81237 0.60709 0.0
H2061 H 0.61891 0.91063 0.61995 0.0
H2062 H 0.6227 0.24088 0.64207 0.0
H2063 H 0.62244 0.12097 0.64122 0.0
H2064 H 0.6547 1.02208 0.62859 0.0
C2065 C 0.64445 0.78675 0.61337 0.0
C2066 C 0.62678 0.93413 0.622 0.0
C2067 C 0.64425 0.7177 0.6126 0.0
C2068 C 0.62937 0.21544 0.63554 0.0
C2069 C 0.62917 0.14635 0.63492 0.0
C2070 C 0.64683 0.9986 0.62654 0.0
C2071 C 0.63608 0.82221 0.62199 0.0
C2072 C 0.63644 0.89615 0.62315 0.0
C2073 C 0.63755 0.11057 0.62642 0.0
C2074 C 0.63717 0.0366 0.62537 0.0
H2075 H 0.62053 0.69129 0.63511 0.0
H2076 H 0.62089 0.81129 0.63654 0.0
H2077 H 0.65408 0.90241 0.62673 0.0
H2078 H 0.65314 0.24096 0.61309 0.0
H2079 H 0.65277 0.12097 0.61193 0.0
loop_
_geom_bond_atom_site_label_1
_geom_bond_atom_site_label_2
_geom_bond_distance
_geom_bond_site_symmetry_2
_ccdc_geom_bond_type
Nd0 C2 2.836 . S
Nd0 O20 2.500 . S
Nd0 O21 2.492 . S
Nd0 O22 2.487 . S
Nd0 O23 2.682 . S
Nd0 O24 2.410 . S
Nd0 O29 2.414 . S
Nd0 O31 2.424 . S
Nd1 C11 2.836 . S
Nd1 O23 2.414 . S
Nd1 O25 2.424 1_545 S
Nd1 O26 2.500 . S
Nd1 O27 2.492 . S
Nd1 O28 2.487 . S
Nd1 O29 2.682 . S
Nd1 O30 2.410 . S
C2 Nd0 2.836 . S
C2 C3 1.498 . S
C2 O20 1.258 . S
C2 O21 1.239 . S
C3 C2 1.498 . S
C3 C4 1.366 1_545 S
C3 C8 1.407 . S
C4 C3 1.366 1_565 S
C4 C5 1.392 . S
C4 H32 0.930 . S
C5 C4 1.392 . S
C5 C6 1.398 . S
C5 H33 0.929 . S
C6 C5 1.398 . S
C6 C7 1.352 . S
C7 C6 1.352 . S
C7 C8 1.384 1_565 S
C7 H34 0.930 . S
C8 C3 1.407 . S
C8 C7 1.384 1_545 S
C8 H35 0.929 . S
C9 O22 1.241 . S
C9 O23 1.273 . S
C10 O24 1.251 1_565 S
C10 O25 1.268 . S
C11 Nd1 2.836 . S
C11 C12 1.498 . S
C11 O26 1.258 . S
C11 O27 1.239 . S
C12 C11 1.498 . S
C12 C13 1.366 . S
C12 C17 1.407 . S
C13 C12 1.366 . S
C13 C14 1.392 . S
C13 H36 0.930 . S
C14 C13 1.392 . S
C14 C15 1.398 . S
C14 H37 0.929 . S
C15 C14 1.398 . S
C15 C16 1.352 . S
C16 C15 1.352 . S
C16 C17 1.384 . S
C16 H38 0.930 . S
C17 C12 1.407 . S
C17 C16 1.384 . S
C17 H39 0.929 . S
C18 O28 1.241 . S
C18 O29 1.273 . S
C19 O30 1.251 . S
C19 O31 1.268 . S
O20 Nd0 2.500 . S
O20 C2 1.258 . S
O21 Nd0 2.492 . S
O21 C2 1.239 . S
O22 Nd0 2.487 . S
O22 C9 1.241 . S
O23 Nd0 2.682 . S
O23 Nd1 2.414 . S
O23 C9 1.273 . S
O24 Nd0 2.410 . S
O24 C10 1.251 1_545 S
O25 Nd1 2.424 1_565 S
O25 C10 1.268 . S
O26 Nd1 2.500 . S
O26 C11 1.258 . S
O27 Nd1 2.492 . S
O27 C11 1.239 . S
O28 Nd1 2.487 . S
O28 C18 1.241 . S
O29 Nd0 2.414 . S
O29 Nd1 2.682 . S
O29 C18 1.273 . S
O30 Nd1 2.410 . S
O30 C19 1.251 . S
O31 Nd0 2.424 . S
O31 C19 1.268 . S
H32 C4 0.930 . S
H33 C5 0.929 . S
H34 C7 0.930 . S
H35 C8 0.929 . S
H36 C13 0.930 . S
H37 C14 0.929 . S
H38 C16 0.930 . S
H39 C17 0.929 . S
Nd40 C42 2.836 . S
Nd40 O60 2.500 . S
Nd40 O61 2.492 . S
Nd40 O62 2.487 . S
Nd40 O63 2.682 . S
Nd40 O64 2.410 . S
Nd40 O69 2.414 . S
Nd40 O71 2.424 . S
Nd41 C51 2.836 . S
Nd41 O63 2.414 . S
Nd41 O65 2.424 1_565 S
Nd41 O66 2.500 . S
Nd41 O67 2.492 . S
Nd41 O68 2.487 . S
Nd41 O69 2.682 . S
Nd41 O70 2.410 . S
C42 Nd40 2.836 . S
C42 C43 1.498 . S
C42 O60 1.258 . S
C42 O61 1.239 . S
C43 C42 1.498 . S
C43 C44 1.366 1_565 S
C43 C48 1.407 . S
C44 C43 1.366 1_545 S
C44 C45 1.392 . S
C44 H72 0.930 . S
C45 C44 1.392 . S
C45 C46 1.398 . S
C45 H73 0.929 . S
C46 C45 1.398 . S
C46 C47 1.352 . S
C47 C46 1.352 . S
C47 C48 1.384 1_545 S
C47 H74 0.930 . S
C48 C43 1.407 . S
C48 C47 1.384 1_565 S
C48 H75 0.929 . S
C49 O62 1.241 . S
C49 O63 1.273 . S
C50 O64 1.251 1_545 S
C50 O65 1.268 . S
C51 Nd41 2.836 . S
C51 C52 1.498 . S
C51 O66 1.258 . S
C51 O67 1.239 . S
C52 C51 1.498 . S
C52 C53 1.366 . S
C52 C57 1.407 . S
C53 C52 1.366 . S
C53 C54 1.392 . S
C53 H76 0.930 . S
C54 C53 1.392 . S
C54 C55 1.398 . S
C54 H77 0.929 . S
C55 C54 1.398 . S
C55 C56 1.352 . S
C56 C55 1.352 . S
C56 C57 1.384 . S
C56 H78 0.930 . S
C57 C52 1.407 . S
C57 C56 1.384 . S
C57 H79 0.929 . S
C58 O68 1.241 . S
C58 O69 1.273 . S
C59 O70 1.251 . S
C59 O71 1.268 . S
O60 Nd40 2.500 . S
O60 C42 1.258 . S
O61 Nd40 2.492 . S
O61 C42 1.239 . S
O62 Nd40 2.487 . S
O62 C49 1.241 . S
O63 Nd40 2.682 . S
O63 Nd41 2.414 . S
O63 C49 1.273 . S
O64 Nd40 2.410 . S
O64 C50 1.251 1_565 S
O65 Nd41 2.424 1_545 S
O65 C50 1.268 . S
O66 Nd41 2.500 . S
O66 C51 1.258 . S
O67 Nd41 2.492 . S
O67 C51 1.239 . S
O68 Nd41 2.487 . S
O68 C58 1.241 . S
O69 Nd40 2.414 . S
O69 Nd41 2.682 . S
O69 C58 1.273 . S
O70 Nd41 2.410 . S
O70 C59 1.251 . S
O71 Nd40 2.424 . S
O71 C59 1.268 . S
H72 C44 0.930 . S
H73 C45 0.929 . S
H74 C47 0.930 . S
H75 C48 0.929 . S
H76 C53 0.930 . S
H77 C54 0.929 . S
H78 C56 0.930 . S
H79 C57 0.929 . S
Nd80 C82 2.836 . S
Nd80 O100 2.500 . S
Nd80 O101 2.492 . S
Nd80 O102 2.487 . S
Nd80 O103 2.682 . S
Nd80 O104 2.410 . S
Nd80 O109 2.414 . S
Nd80 O111 2.424 . S
Nd81 C91 2.836 . S
Nd81 O103 2.414 . S
Nd81 O105 2.424 1_565 S
Nd81 O106 2.500 . S
Nd81 O107 2.492 . S
Nd81 O108 2.487 . S
Nd81 O109 2.682 . S
Nd81 O110 2.410 . S
C82 Nd80 2.836 . S
C82 C83 1.498 . S
C82 O100 1.258 . S
C82 O101 1.239 . S
C83 C82 1.498 . S
C83 C84 1.366 1_565 S
C83 C88 1.407 . S
C84 C83 1.366 1_545 S
C84 C85 1.392 . S
C84 H112 0.930 . S
C85 C84 1.392 . S
C85 C86 1.398 . S
C85 H113 0.929 . S
C86 C85 1.398 . S
C86 C87 1.352 . S
C87 C86 1.352 . S
C87 C88 1.384 1_545 S
C87 H114 0.930 . S
C88 C83 1.407 . S
C88 C87 1.384 1_565 S
C88 H115 0.929 . S
C89 O102 1.241 . S
C89 O103 1.273 . S
C90 O104 1.251 1_545 S
C90 O105 1.268 . S
C91 Nd81 2.836 . S
C91 C92 1.498 . S
C91 O106 1.258 . S
C91 O107 1.239 . S
C92 C91 1.498 . S
C92 C93 1.366 . S
C92 C97 1.407 . S
C93 C92 1.366 . S
C93 C94 1.392 . S
C93 H116 0.930 . S
C94 C93 1.392 . S
C94 C95 1.398 . S
C94 H117 0.929 . S
C95 C94 1.398 . S
C95 C96 1.352 . S
C96 C95 1.352 . S
C96 C97 1.384 . S
C96 H118 0.930 . S
C97 C92 1.407 . S
C97 C96 1.384 . S
C97 H119 0.929 . S
C98 O108 1.241 . S
C98 O109 1.273 . S
C99 O110 1.251 . S
C99 O111 1.268 . S
O100 Nd80 2.500 . S
O100 C82 1.258 . S
O101 Nd80 2.492 . S
O101 C82 1.239 . S
O102 Nd80 2.487 . S
O102 C89 1.241 . S
O103 Nd80 2.682 . S
O103 Nd81 2.414 . S
O103 C89 1.273 . S
O104 Nd80 2.410 . S
O104 C90 1.251 1_565 S
O105 Nd81 2.424 1_545 S
O105 C90 1.268 . S
O106 Nd81 2.500 . S
O106 C91 1.258 . S
O107 Nd81 2.492 . S
O107 C91 1.239 . S
O108 Nd81 2.487 . S
O108 C98 1.241 . S
O109 Nd80 2.414 . S
O109 Nd81 2.682 . S
O109 C98 1.273 . S
O110 Nd81 2.410 . S
O110 C99 1.251 . S
O111 Nd80 2.424 . S
O111 C99 1.268 . S
H112 C84 0.930 . S
H113 C85 0.929 . S
H114 C87 0.930 . S
H115 C88 0.929 . S
H116 C93 0.930 . S
H117 C94 0.929 . S
H118 C96 0.930 . S
H119 C97 0.929 . S
Nd120 C122 2.836 . S
Nd120 O140 2.500 . S
Nd120 O141 2.492 . S
Nd120 O142 2.487 . S
Nd120 O143 2.682 . S
Nd120 O144 2.410 . S
Nd120 O149 2.414 . S
Nd120 O151 2.424 . S
Nd121 C131 2.836 . S
Nd121 O143 2.414 . S
Nd121 O145 2.424 1_545 S
Nd121 O146 2.500 . S
Nd121 O147 2.492 . S
Nd121 O148 2.487 . S
Nd121 O149 2.682 . S
Nd121 O150 2.410 . S
C122 Nd120 2.836 . S
C122 C123 1.498 . S
C122 O140 1.258 . S
C122 O141 1.239 . S
C123 C122 1.498 . S
C123 C124 1.366 1_545 S
C123 C128 1.407 . S
C124 C123 1.366 1_565 S
C124 C125 1.392 . S
C124 H152 0.930 . S
C125 C124 1.392 . S
C125 C126 1.398 . S
C125 H153 0.929 . S
C126 C125 1.398 . S
C126 C127 1.352 . S
C127 C126 1.352 . S
C127 C128 1.384 1_565 S
C127 H154 0.930 . S
C128 C123 1.407 . S
C128 C127 1.384 1_545 S
C128 H155 0.929 . S
C129 O142 1.241 . S
C129 O143 1.273 . S
C130 O144 1.251 1_565 S
C130 O145 1.268 . S
C131 Nd121 2.836 . S
C131 C132 1.498 . S
C131 O146 1.258 . S
C131 O147 1.239 . S
C132 C131 1.498 . S
C132 C133 1.366 . S
C132 C137 1.407 . S
C133 C132 1.366 . S
C133 C134 1.392 . S
C133 H156 0.930 . S
C134 C133 1.392 . S
C134 C135 1.398 . S
C134 H157 0.929 . S
C135 C134 1.398 . S
C135 C136 1.352 . S
C136 C135 1.352 . S
C136 C137 1.384 . S
C136 H158 0.930 . S
C137 C132 1.407 . S
C137 C136 1.384 . S
C137 H159 0.929 . S
C138 O148 1.241 . S
C138 O149 1.273 . S
C139 O150 1.251 . S
C139 O151 1.268 . S
O140 Nd120 2.500 . S
O140 C122 1.258 . S
O141 Nd120 2.492 . S
O141 C122 1.239 . S
O142 Nd120 2.487 . S
O142 C129 1.241 . S
O143 Nd120 2.682 . S
O143 Nd121 2.414 . S
O143 C129 1.273 . S
O144 Nd120 2.410 . S
O144 C130 1.251 1_545 S
O145 Nd121 2.424 1_565 S
O145 C130 1.268 . S
O146 Nd121 2.500 . S
O146 C131 1.258 . S
O147 Nd121 2.492 . S
O147 C131 1.239 . S
O148 Nd121 2.487 . S
O148 C138 1.241 . S
O149 Nd120 2.414 . S
O149 Nd121 2.682 . S
O149 C138 1.273 . S
O150 Nd121 2.410 . S
O150 C139 1.251 . S
O151 Nd120 2.424 . S
O151 C139 1.268 . S
H152 C124 0.930 . S
H153 C125 0.929 . S
H154 C127 0.930 . S
H155 C128 0.929 . S
H156 C133 0.930 . S
H157 C134 0.929 . S
H158 C136 0.930 . S
H159 C137 0.929 . S
Nd160 C162 2.836 . S
Nd160 O180 2.500 . S
Nd160 O181 2.492 . S
Nd160 O182 2.487 . S
Nd160 O183 2.682 . S
Nd160 O184 2.410 . S
Nd160 O189 2.414 . S
Nd160 O191 2.424 1_565 S
Nd161 C171 2.836 . S
Nd161 O183 2.414 . S
Nd161 O185 2.424 . S
Nd161 O186 2.500 . S
Nd161 O187 2.492 . S
Nd161 O188 2.487 . S
Nd161 O189 2.682 . S
Nd161 O190 2.410 . S
C162 Nd160 2.836 . S
C162 C163 1.498 . S
C162 O180 1.258 . S
C162 O181 1.239 . S
C163 C162 1.498 . S
C163 C164 1.366 . S
C163 C168 1.407 . S
C164 C163 1.366 . S
C164 C165 1.392 . S
C164 H192 0.930 . S
C165 C164 1.392 . S
C165 C166 1.398 . S
C165 H193 0.929 . S
C166 C165 1.398 . S
C166 C167 1.352 . S
C167 C166 1.352 . S
C167 C168 1.384 . S
C167 H194 0.930 . S
C168 C163 1.407 . S
C168 C167 1.384 . S
C168 H195 0.929 . S
C169 O182 1.241 . S
C169 O183 1.273 . S
C170 O184 1.251 . S
C170 O185 1.268 . S
C171 Nd161 2.836 . S
C171 C172 1.498 . S
C171 O186 1.258 . S
C171 O187 1.239 . S
C172 C171 1.498 . S
C172 C173 1.366 1_565 S
C172 C177 1.407 . S
C173 C172 1.366 1_545 S
C173 C174 1.392 . S
C173 H196 0.930 . S
C174 C173 1.392 . S
C174 C175 1.398 . S
C174 H197 0.929 . S
C175 C174 1.398 . S
C175 C176 1.352 . S
C176 C175 1.352 . S
C176 C177 1.384 1_545 S
C176 H198 0.930 . S
C177 C172 1.407 . S
C177 C176 1.384 1_565 S
C177 H199 0.929 . S
C178 O188 1.241 . S
C178 O189 1.273 . S
C179 O190 1.251 1_545 S
C179 O191 1.268 . S
O180 Nd160 2.500 . S
O180 C162 1.258 . S
O181 Nd160 2.492 . S
O181 C162 1.239 . S
O182 Nd160 2.487 . S
O182 C169 1.241 . S
O183 Nd160 2.682 . S
O183 Nd161 2.414 . S
O183 C169 1.273 . S
O184 Nd160 2.410 . S
O184 C170 1.251 . S
O185 Nd161 2.424 . S
O185 C170 1.268 . S
O186 Nd161 2.500 . S
O186 C171 1.258 . S
O187 Nd161 2.492 . S
O187 C171 1.239 . S
O188 Nd161 2.487 . S
O188 C178 1.241 . S
O189 Nd160 2.414 . S
O189 Nd161 2.682 . S
O189 C178 1.273 . S
O190 Nd161 2.410 . S
O190 C179 1.251 1_565 S
O191 Nd160 2.424 1_545 S
O191 C179 1.268 . S
H192 C164 0.930 . S
H193 C165 0.929 . S
H194 C167 0.930 . S
H195 C168 0.929 . S
H196 C173 0.930 . S
H197 C174 0.929 . S
H198 C176 0.930 . S
H199 C177 0.929 . S
Nd200 C202 2.836 . S
Nd200 O220 2.500 . S
Nd200 O221 2.492 . S
Nd200 O222 2.487 . S
Nd200 O223 2.682 . S
Nd200 O224 2.410 . S
Nd200 O229 2.414 . S
Nd200 O231 2.424 1_545 S
Nd201 C211 2.836 . S
Nd201 O223 2.414 . S
Nd201 O225 2.424 . S
Nd201 O226 2.500 . S
Nd201 O227 2.492 . S
Nd201 O228 2.487 . S
Nd201 O229 2.682 . S
Nd201 O230 2.410 . S
C202 Nd200 2.836 . S
C202 C203 1.498 . S
C202 O220 1.258 . S
C202 O221 1.239 . S
C203 C202 1.498 . S
C203 C204 1.366 . S
C203 C208 1.407 . S
C204 C203 1.366 . S
C204 C205 1.392 . S
C204 H232 0.930 . S
C205 C204 1.392 . S
C205 C206 1.398 . S
C205 H233 0.929 . S
C206 C205 1.398 . S
C206 C207 1.352 . S
C207 C206 1.352 . S
C207 C208 1.384 . S
C207 H234 0.930 . S
C208 C203 1.407 . S
C208 C207 1.384 . S
C208 H235 0.929 . S
C209 O222 1.241 . S
C209 O223 1.273 . S
C210 O224 1.251 . S
C210 O225 1.268 . S
C211 Nd201 2.836 . S
C211 C212 1.498 . S
C211 O226 1.258 . S
C211 O227 1.239 . S
C212 C211 1.498 . S
C212 C213 1.366 1_545 S
C212 C217 1.407 . S
C213 C212 1.366 1_565 S
C213 C214 1.392 . S
C213 H236 0.930 . S
C214 C213 1.392 . S
C214 C215 1.398 . S
C214 H237 0.929 . S
C215 C214 1.398 . S
C215 C216 1.352 . S
C216 C215 1.352 . S
C216 C217 1.384 1_565 S
C216 H238 0.930 . S
C217 C212 1.407 . S
C217 C216 1.384 1_545 S
C217 H239 0.929 . S
C218 O228 1.241 . S
C218 O229 1.273 . S
C219 O230 1.251 1_565 S
C219 O231 1.268 . S
O220 Nd200 2.500 . S
O220 C202 1.258 . S
O221 Nd200 2.492 . S
O221 C202 1.239 . S
O222 Nd200 2.487 . S
O222 C209 1.241 . S
O223 Nd200 2.682 . S
O223 Nd201 2.414 . S
O223 C209 1.273 . S
O224 Nd200 2.410 . S
O224 C210 1.251 . S
O225 Nd201 2.424 . S
O225 C210 1.268 . S
O226 Nd201 2.500 . S
O226 C211 1.258 . S
O227 Nd201 2.492 . S
O227 C211 1.239 . S
O228 Nd201 2.487 . S
O228 C218 1.241 . S
O229 Nd200 2.414 . S
O229 Nd201 2.682 . S
O229 C218 1.273 . S
O230 Nd201 2.410 . S
O230 C219 1.251 1_545 S
O231 Nd200 2.424 1_565 S
O231 C219 1.268 . S
H232 C204 0.930 . S
H233 C205 0.929 . S
H234 C207 0.930 . S
H235 C208 0.929 . S
H236 C213 0.930 . S
H237 C214 0.929 . S
H238 C216 0.930 . S
H239 C217 0.929 . S
Nd240 C242 2.836 . S
Nd240 O260 2.500 . S
Nd240 O261 2.492 . S
Nd240 O262 2.487 . S
Nd240 O263 2.682 . S
Nd240 O264 2.410 . S
Nd240 O269 2.414 . S
Nd240 O271 2.424 1_545 S
Nd241 C251 2.836 . S
Nd241 O263 2.414 . S
Nd241 O265 2.424 . S
Nd241 O266 2.500 . S
Nd241 O267 2.492 . S
Nd241 O268 2.487 . S
Nd241 O269 2.682 . S
Nd241 O270 2.410 . S
C242 Nd240 2.836 . S
C242 C243 1.498 . S
C242 O260 1.258 . S
C242 O261 1.239 . S
C243 C242 1.498 . S
C243 C244 1.366 . S
C243 C248 1.407 . S
C244 C243 1.366 . S
C244 C245 1.392 . S
C244 H272 0.930 . S
C245 C244 1.392 . S
C245 C246 1.398 . S
C245 H273 0.929 . S
C246 C245 1.398 . S
C246 C247 1.352 . S
C247 C246 1.352 . S
C247 C248 1.384 . S
C247 H274 0.930 . S
C248 C243 1.407 . S
C248 C247 1.384 . S
C248 H275 0.929 . S
C249 O262 1.241 . S
C249 O263 1.273 . S
C250 O264 1.251 . S
C250 O265 1.268 . S
C251 Nd241 2.836 . S
C251 C252 1.498 . S
C251 O266 1.258 . S
C251 O267 1.239 . S
C252 C251 1.498 . S
C252 C253 1.366 1_545 S
C252 C257 1.407 . S
C253 C252 1.366 1_565 S
C253 C254 1.392 . S
C253 H276 0.930 . S
C254 C253 1.392 . S
C254 C255 1.398 . S
C254 H277 0.929 . S
C255 C254 1.398 . S
C255 C256 1.352 . S
C256 C255 1.352 . S
C256 C257 1.384 1_565 S
C256 H278 0.930 . S
C257 C252 1.407 . S
C257 C256 1.384 1_545 S
C257 H279 0.929 . S
C258 O268 1.241 . S
C258 O269 1.273 . S
C259 O270 1.251 1_565 S
C259 O271 1.268 . S
O260 Nd240 2.500 . S
O260 C242 1.258 . S
O261 Nd240 2.492 . S
O261 C242 1.239 . S
O262 Nd240 2.487 . S
O262 C249 1.241 . S
O263 Nd240 2.682 . S
O263 Nd241 2.414 . S
O263 C249 1.273 . S
O264 Nd240 2.410 . S
O264 C250 1.251 . S
O265 Nd241 2.424 . S
O265 C250 1.268 . S
O266 Nd241 2.500 . S
O266 C251 1.258 . S
O267 Nd241 2.492 . S
O267 C251 1.239 . S
O268 Nd241 2.487 . S
O268 C258 1.241 . S
O269 Nd240 2.414 . S
O269 Nd241 2.682 . S
O269 C258 1.273 . S
O270 Nd241 2.410 . S
O270 C259 1.251 1_545 S
O271 Nd240 2.424 1_565 S
O271 C259 1.268 . S
H272 C244 0.930 . S
H273 C245 0.929 . S
H274 C247 0.930 . S
H275 C248 0.929 . S
H276 C253 0.930 . S
H277 C254 0.929 . S
H278 C256 0.930 . S
H279 C257 0.929 . S
Nd280 C282 2.836 . S
Nd280 O300 2.500 . S
Nd280 O301 2.492 . S
Nd280 O302 2.487 . S
Nd280 O303 2.682 . S
Nd280 O304 2.410 . S
Nd280 O309 2.414 . S
Nd280 O311 2.424 1_565 S
Nd281 C291 2.836 . S
Nd281 O303 2.414 . S
Nd281 O305 2.424 . S
Nd281 O306 2.500 . S
Nd281 O307 2.492 . S
Nd281 O308 2.487 . S
Nd281 O309 2.682 . S
Nd281 O310 2.410 . S
C282 Nd280 2.836 . S
C282 C283 1.498 . S
C282 O300 1.258 . S
C282 O301 1.239 . S
C283 C282 1.498 . S
C283 C284 1.366 . S
C283 C288 1.407 . S
C284 C283 1.366 . S
C284 C285 1.392 . S
C284 H312 0.930 . S
C285 C284 1.392 . S
C285 C286 1.398 . S
C285 H313 0.929 . S
C286 C285 1.398 . S
C286 C287 1.352 . S
C287 C286 1.352 . S
C287 C288 1.384 . S
C287 H314 0.930 . S
C288 C283 1.407 . S
C288 C287 1.384 . S
C288 H315 0.929 . S
C289 O302 1.241 . S
C289 O303 1.273 . S
C290 O304 1.251 . S
C290 O305 1.268 . S
C291 Nd281 2.836 . S
C291 C292 1.498 . S
C291 O306 1.258 . S
C291 O307 1.239 . S
C292 C291 1.498 . S
C292 C293 1.366 1_565 S
C292 C297 1.407 . S
C293 C292 1.366 1_545 S
C293 C294 1.392 . S
C293 H316 0.930 . S
C294 C293 1.392 . S
C294 C295 1.398 . S
C294 H317 0.929 . S
C295 C294 1.398 . S
C295 C296 1.352 . S
C296 C295 1.352 . S
C296 C297 1.384 1_545 S
C296 H318 0.930 . S
C297 C292 1.407 . S
C297 C296 1.384 1_565 S
C297 H319 0.929 . S
C298 O308 1.241 . S
C298 O309 1.273 . S
C299 O310 1.251 1_545 S
C299 O311 1.268 . S
O300 Nd280 2.500 . S
O300 C282 1.258 . S
O301 Nd280 2.492 . S
O301 C282 1.239 . S
O302 Nd280 2.487 . S
O302 C289 1.241 . S
O303 Nd280 2.682 . S
O303 Nd281 2.414 . S
O303 C289 1.273 . S
O304 Nd280 2.410 . S
O304 C290 1.251 . S
O305 Nd281 2.424 . S
O305 C290 1.268 . S
O306 Nd281 2.500 . S
O306 C291 1.258 . S
O307 Nd281 2.492 . S
O307 C291 1.239 . S
O308 Nd281 2.487 . S
O308 C298 1.241 . S
O309 Nd280 2.414 . S
O309 Nd281 2.682 . S
O309 C298 1.273 . S
O310 Nd281 2.410 . S
O310 C299 1.251 1_565 S
O311 Nd280 2.424 1_545 S
O311 C299 1.268 . S
H312 C284 0.930 . S
H313 C285 0.929 . S
H314 C287 0.930 . S
H315 C288 0.929 . S
H316 C293 0.930 . S
H317 C294 0.929 . S
H318 C296 0.930 . S
H319 C297 0.929 . S
Nd320 C322 2.836 . S
Nd320 O340 2.500 . S
Nd320 O341 2.492 . S
Nd320 O342 2.487 . S
Nd320 O343 2.682 . S
Nd320 O344 2.410 . S
Nd320 O349 2.414 . S
Nd320 O351 2.424 . S
Nd321 C331 2.836 . S
Nd321 O343 2.414 . S
Nd321 O345 2.424 . S
Nd321 O346 2.500 . S
Nd321 O347 2.492 . S
Nd321 O348 2.487 . S
Nd321 O349 2.682 . S
Nd321 O350 2.410 . S
C322 Nd320 2.836 . S
C322 C323 1.498 . S
C322 O340 1.258 . S
C322 O341 1.239 . S
C323 C322 1.498 . S
C323 C324 1.366 . S
C323 C328 1.407 . S
C324 C323 1.366 . S
C324 C325 1.392 . S
C324 H352 0.930 . S
C325 C324 1.392 . S
C325 C326 1.398 . S
C325 H353 0.929 . S
C326 C325 1.398 . S
C326 C327 1.352 . S
C327 C326 1.352 . S
C327 C328 1.384 . S
C327 H354 0.930 . S
C328 C323 1.407 . S
C328 C327 1.384 . S
C328 H355 0.929 . S
C329 O342 1.241 . S
C329 O343 1.273 . S
C330 O344 1.251 . S
C330 O345 1.268 . S
C331 Nd321 2.836 . S
C331 C332 1.498 . S
C331 O346 1.258 . S
C331 O347 1.239 . S
C332 C331 1.498 . S
C332 C333 1.366 . S
C332 C337 1.407 . S
C333 C332 1.366 . S
C333 C334 1.392 . S
C333 H356 0.930 . S
C334 C333 1.392 . S
C334 C335 1.398 . S
C334 H357 0.929 . S
C335 C334 1.398 . S
C335 C336 1.352 . S
C336 C335 1.352 . S
C336 C337 1.384 . S
C336 H358 0.930 . S
C337 C332 1.407 . S
C337 C336 1.384 . S
C337 H359 0.929 . S
C338 O348 1.241 . S
C338 O349 1.273 . S
C339 O350 1.251 . S
C339 O351 1.268 . S
O340 Nd320 2.500 . S
O340 C322 1.258 . S
O341 Nd320 2.492 . S
O341 C322 1.239 . S
O342 Nd320 2.487 . S
O342 C329 1.241 . S
O343 Nd320 2.682 . S
O343 Nd321 2.414 . S
O343 C329 1.273 . S
O344 Nd320 2.410 . S
O344 C330 1.251 . S
O345 Nd321 2.424 . S
O345 C330 1.268 . S
O346 Nd321 2.500 . S
O346 C331 1.258 . S
O347 Nd321 2.492 . S
O347 C331 1.239 . S
O348 Nd321 2.487 . S
O348 C338 1.241 . S
O349 Nd320 2.414 . S
O349 Nd321 2.682 . S
O349 C338 1.273 . S
O350 Nd321 2.410 . S
O350 C339 1.251 . S
O351 Nd320 2.424 . S
O351 C339 1.268 . S
H352 C324 0.930 . S
H353 C325 0.929 . S
H354 C327 0.930 . S
H355 C328 0.929 . S
H356 C333 0.930 . S
H357 C334 0.929 . S
H358 C336 0.930 . S
H359 C337 0.929 . S
Nd360 C362 2.836 . S
Nd360 O380 2.500 . S
Nd360 O381 2.492 . S
Nd360 O382 2.487 . S
Nd360 O383 2.682 . S
Nd360 O384 2.410 . S
Nd360 O389 2.414 . S
Nd360 O391 2.424 . S
Nd361 C371 2.836 . S
Nd361 O383 2.414 . S
Nd361 O385 2.424 . S
Nd361 O386 2.500 . S
Nd361 O387 2.492 . S
Nd361 O388 2.487 . S
Nd361 O389 2.682 . S
Nd361 O390 2.410 . S
C362 Nd360 2.836 . S
C362 C363 1.498 . S
C362 O380 1.258 . S
C362 O381 1.239 . S
C363 C362 1.498 . S
C363 C364 1.366 . S
C363 C368 1.407 . S
C364 C363 1.366 . S
C364 C365 1.392 . S
C364 H392 0.930 . S
C365 C364 1.392 . S
C365 C366 1.398 . S
C365 H393 0.929 . S
C366 C365 1.398 . S
C366 C367 1.352 . S
C367 C366 1.352 . S
C367 C368 1.384 . S
C367 H394 0.930 . S
C368 C363 1.407 . S
C368 C367 1.384 . S
C368 H395 0.929 . S
C369 O382 1.241 . S
C369 O383 1.273 . S
C370 O384 1.251 . S
C370 O385 1.268 . S
C371 Nd361 2.836 . S
C371 C372 1.498 . S
C371 O386 1.258 . S
C371 O387 1.239 . S
C372 C371 1.498 . S
C372 C373 1.366 . S
C372 C377 1.407 . S
C373 C372 1.366 . S
C373 C374 1.392 . S
C373 H396 0.930 . S
C374 C373 1.392 . S
C374 C375 1.398 . S
C374 H397 0.929 . S
C375 C374 1.398 . S
C375 C376 1.352 . S
C376 C375 1.352 . S
C376 C377 1.384 . S
C376 H398 0.930 . S
C377 C372 1.407 . S
C377 C376 1.384 . S
C377 H399 0.929 . S
C378 O388 1.241 . S
C378 O389 1.273 . S
C379 O390 1.251 . S
C379 O391 1.268 . S
O380 Nd360 2.500 . S
O380 C362 1.258 . S
O381 Nd360 2.492 . S
O381 C362 1.239 . S
O382 Nd360 2.487 . S
O382 C369 1.241 . S
O383 Nd360 2.682 . S
O383 Nd361 2.414 . S
O383 C369 1.273 . S
O384 Nd360 2.410 . S
O384 C370 1.251 . S
O385 Nd361 2.424 . S
O385 C370 1.268 . S
O386 Nd361 2.500 . S
O386 C371 1.258 . S
O387 Nd361 2.492 . S
O387 C371 1.239 . S
O388 Nd361 2.487 . S
O388 C378 1.241 . S
O389 Nd360 2.414 . S
O389 Nd361 2.682 . S
O389 C378 1.273 . S
O390 Nd361 2.410 . S
O390 C379 1.251 . S
O391 Nd360 2.424 . S
O391 C379 1.268 . S
H392 C364 0.930 . S
H393 C365 0.929 . S
H394 C367 0.930 . S
H395 C368 0.929 . S
H396 C373 0.930 . S
H397 C374 0.929 . S
H398 C376 0.930 . S
H399 C377 0.929 . S
Nd400 C402 2.836 . S
Nd400 O420 2.500 . S
Nd400 O421 2.492 . S
Nd400 O422 2.487 . S
Nd400 O423 2.682 . S
Nd400 O424 2.410 . S
Nd400 O429 2.414 . S
Nd400 O431 2.424 . S
Nd401 C411 2.836 . S
Nd401 O423 2.414 . S
Nd401 O425 2.424 . S
Nd401 O426 2.500 . S
Nd401 O427 2.492 . S
Nd401 O428 2.487 . S
Nd401 O429 2.682 . S
Nd401 O430 2.410 . S
C402 Nd400 2.836 . S
C402 C403 1.498 . S
C402 O420 1.258 . S
C402 O421 1.239 . S
C403 C402 1.498 . S
C403 C404 1.366 . S
C403 C408 1.407 . S
C404 C403 1.366 . S
C404 C405 1.392 . S
C404 H432 0.930 . S
C405 C404 1.392 . S
C405 C406 1.398 . S
C405 H433 0.929 . S
C406 C405 1.398 . S
C406 C407 1.352 . S
C407 C406 1.352 . S
C407 C408 1.384 . S
C407 H434 0.930 . S
C408 C403 1.407 . S
C408 C407 1.384 . S
C408 H435 0.929 . S
C409 O422 1.241 . S
C409 O423 1.273 . S
C410 O424 1.251 . S
C410 O425 1.268 . S
C411 Nd401 2.836 . S
C411 C412 1.498 . S
C411 O426 1.258 . S
C411 O427 1.239 . S
C412 C411 1.498 . S
C412 C413 1.366 . S
C412 C417 1.407 . S
C413 C412 1.366 . S
C413 C414 1.392 . S
C413 H436 0.930 . S
C414 C413 1.392 . S
C414 C415 1.398 . S
C414 H437 0.929 . S
C415 C414 1.398 . S
C415 C416 1.352 . S
C416 C415 1.352 . S
C416 C417 1.384 . S
C416 H438 0.930 . S
C417 C412 1.407 . S
C417 C416 1.384 . S
C417 H439 0.929 . S
C418 O428 1.241 . S
C418 O429 1.273 . S
C419 O430 1.251 . S
C419 O431 1.268 . S
O420 Nd400 2.500 . S
O420 C402 1.258 . S
O421 Nd400 2.492 . S
O421 C402 1.239 . S
O422 Nd400 2.487 . S
O422 C409 1.241 . S
O423 Nd400 2.682 . S
O423 Nd401 2.414 . S
O423 C409 1.273 . S
O424 Nd400 2.410 . S
O424 C410 1.251 . S
O425 Nd401 2.424 . S
O425 C410 1.268 . S
O426 Nd401 2.500 . S
O426 C411 1.258 . S
O427 Nd401 2.492 . S
O427 C411 1.239 . S
O428 Nd401 2.487 . S
O428 C418 1.241 . S
O429 Nd400 2.414 . S
O429 Nd401 2.682 . S
O429 C418 1.273 . S
O430 Nd401 2.410 . S
O430 C419 1.251 . S
O431 Nd400 2.424 . S
O431 C419 1.268 . S
H432 C404 0.930 . S
H433 C405 0.929 . S
H434 C407 0.930 . S
H435 C408 0.929 . S
H436 C413 0.930 . S
H437 C414 0.929 . S
H438 C416 0.930 . S
H439 C417 0.929 . S
Nd440 C442 2.836 . S
Nd440 O460 2.500 . S
Nd440 O461 2.492 . S
Nd440 O462 2.487 . S
Nd440 O463 2.682 . S
Nd440 O464 2.410 . S
Nd440 O469 2.414 . S
Nd440 O471 2.424 . S
Nd441 C451 2.836 . S
Nd441 O463 2.414 . S
Nd441 O465 2.424 . S
Nd441 O466 2.500 . S
Nd441 O467 2.492 . S
Nd441 O468 2.487 . S
Nd441 O469 2.682 . S
Nd441 O470 2.410 . S
C442 Nd440 2.836 . S
C442 C443 1.498 . S
C442 O460 1.258 . S
C442 O461 1.239 . S
C443 C442 1.498 . S
C443 C444 1.366 . S
C443 C448 1.407 . S
C444 C443 1.366 . S
C444 C445 1.392 . S
C444 H472 0.930 . S
C445 C444 1.392 . S
C445 C446 1.398 . S
C445 H473 0.929 . S
C446 C445 1.398 . S
C446 C447 1.352 . S
C447 C446 1.352 . S
C447 C448 1.384 . S
C447 H474 0.930 . S
C448 C443 1.407 . S
C448 C447 1.384 . S
C448 H475 0.929 . S
C449 O462 1.241 . S
C449 O463 1.273 . S
C450 O464 1.251 . S
C450 O465 1.268 . S
C451 Nd441 2.836 . S
C451 C452 1.498 . S
C451 O466 1.258 . S
C451 O467 1.239 . S
C452 C451 1.498 . S
C452 C453 1.366 . S
C452 C457 1.407 . S
C453 C452 1.366 . S
C453 C454 1.392 . S
C453 H476 0.930 . S
C454 C453 1.392 . S
C454 C455 1.398 . S
C454 H477 0.929 . S
C455 C454 1.398 . S
C455 C456 1.352 . S
C456 C455 1.352 . S
C456 C457 1.384 . S
C456 H478 0.930 . S
C457 C452 1.407 . S
C457 C456 1.384 . S
C457 H479 0.929 . S
C458 O468 1.241 . S
C458 O469 1.273 . S
C459 O470 1.251 . S
C459 O471 1.268 . S
O460 Nd440 2.500 . S
O460 C442 1.258 . S
O461 Nd440 2.492 . S
O461 C442 1.239 . S
O462 Nd440 2.487 . S
O462 C449 1.241 . S
O463 Nd440 2.682 . S
O463 Nd441 2.414 . S
O463 C449 1.273 . S
O464 Nd440 2.410 . S
O464 C450 1.251 . S
O465 Nd441 2.424 . S
O465 C450 1.268 . S
O466 Nd441 2.500 . S
O466 C451 1.258 . S
O467 Nd441 2.492 . S
O467 C451 1.239 . S
O468 Nd441 2.487 . S
O468 C458 1.241 . S
O469 Nd440 2.414 . S
O469 Nd441 2.682 . S
O469 C458 1.273 . S
O470 Nd441 2.410 . S
O470 C459 1.251 . S
O471 Nd440 2.424 . S
O471 C459 1.268 . S
H472 C444 0.930 . S
H473 C445 0.929 . S
H474 C447 0.930 . S
H475 C448 0.929 . S
H476 C453 0.930 . S
H477 C454 0.929 . S
H478 C456 0.930 . S
H479 C457 0.929 . S
Nd480 C482 2.836 . S
Nd480 O500 2.500 . S
Nd480 O501 2.492 . S
Nd480 O502 2.487 . S
Nd480 O503 2.682 . S
Nd480 O504 2.410 . S
Nd480 O509 2.414 . S
Nd480 O511 2.424 . S
Nd481 C491 2.836 . S
Nd481 O503 2.414 . S
Nd481 O505 2.424 . S
Nd481 O506 2.500 . S
Nd481 O507 2.492 . S
Nd481 O508 2.487 . S
Nd481 O509 2.682 . S
Nd481 O510 2.410 . S
C482 Nd480 2.836 . S
C482 C483 1.498 . S
C482 O500 1.258 . S
C482 O501 1.239 . S
C483 C482 1.498 . S
C483 C484 1.366 . S
C483 C488 1.407 . S
C484 C483 1.366 . S
C484 C485 1.392 . S
C484 H512 0.930 . S
C485 C484 1.392 . S
C485 C486 1.398 . S
C485 H513 0.929 . S
C486 C485 1.398 . S
C486 C487 1.352 . S
C487 C486 1.352 . S
C487 C488 1.384 . S
C487 H514 0.930 . S
C488 C483 1.407 . S
C488 C487 1.384 . S
C488 H515 0.929 . S
C489 O502 1.241 . S
C489 O503 1.273 . S
C490 O504 1.251 . S
C490 O505 1.268 . S
C491 Nd481 2.836 . S
C491 C492 1.498 . S
C491 O506 1.258 . S
C491 O507 1.239 . S
C492 C491 1.498 . S
C492 C493 1.366 . S
C492 C497 1.407 . S
C493 C492 1.366 . S
C493 C494 1.392 . S
C493 H516 0.930 . S
C494 C493 1.392 . S
C494 C495 1.398 . S
C494 H517 0.929 . S
C495 C494 1.398 . S
C495 C496 1.352 . S
C496 C495 1.352 . S
C496 C497 1.384 . S
C496 H518 0.930 . S
C497 C492 1.407 . S
C497 C496 1.384 . S
C497 H519 0.929 . S
C498 O508 1.241 . S
C498 O509 1.273 . S
C499 O510 1.251 . S
C499 O511 1.268 . S
O500 Nd480 2.500 . S
O500 C482 1.258 . S
O501 Nd480 2.492 . S
O501 C482 1.239 . S
O502 Nd480 2.487 . S
O502 C489 1.241 . S
O503 Nd480 2.682 . S
O503 Nd481 2.414 . S
O503 C489 1.273 . S
O504 Nd480 2.410 . S
O504 C490 1.251 . S
O505 Nd481 2.424 . S
O505 C490 1.268 . S
O506 Nd481 2.500 . S
O506 C491 1.258 . S
O507 Nd481 2.492 . S
O507 C491 1.239 . S
O508 Nd481 2.487 . S
O508 C498 1.241 . S
O509 Nd480 2.414 . S
O509 Nd481 2.682 . S
O509 C498 1.273 . S
O510 Nd481 2.410 . S
O510 C499 1.251 . S
O511 Nd480 2.424 . S
O511 C499 1.268 . S
H512 C484 0.930 . S
H513 C485 0.929 . S
H514 C487 0.930 . S
H515 C488 0.929 . S
H516 C493 0.930 . S
H517 C494 0.929 . S
H518 C496 0.930 . S
H519 C497 0.929 . S
Nd520 C522 2.836 . S
Nd520 O540 2.500 . S
Nd520 O541 2.492 . S
Nd520 O542 2.487 . S
Nd520 O543 2.682 . S
Nd520 O544 2.410 . S
Nd520 O549 2.414 . S
Nd520 O551 2.424 . S
Nd521 C531 2.836 . S
Nd521 O543 2.414 . S
Nd521 O545 2.424 . S
Nd521 O546 2.500 . S
Nd521 O547 2.492 . S
Nd521 O548 2.487 . S
Nd521 O549 2.682 . S
Nd521 O550 2.410 . S
C522 Nd520 2.836 . S
C522 C523 1.498 . S
C522 O540 1.258 . S
C522 O541 1.239 . S
C523 C522 1.498 . S
C523 C524 1.366 . S
C523 C528 1.407 . S
C524 C523 1.366 . S
C524 C525 1.392 . S
C524 H552 0.930 . S
C525 C524 1.392 . S
C525 C526 1.398 . S
C525 H553 0.929 . S
C526 C525 1.398 . S
C526 C527 1.352 . S
C527 C526 1.352 . S
C527 C528 1.384 . S
C527 H554 0.930 . S
C528 C523 1.407 . S
C528 C527 1.384 . S
C528 H555 0.929 . S
C529 O542 1.241 . S
C529 O543 1.273 . S
C530 O544 1.251 . S
C530 O545 1.268 . S
C531 Nd521 2.836 . S
C531 C532 1.498 . S
C531 O546 1.258 . S
C531 O547 1.239 . S
C532 C531 1.498 . S
C532 C533 1.366 . S
C532 C537 1.407 . S
C533 C532 1.366 . S
C533 C534 1.392 . S
C533 H556 0.930 . S
C534 C533 1.392 . S
C534 C535 1.398 . S
C534 H557 0.929 . S
C535 C534 1.398 . S
C535 C536 1.352 . S
C536 C535 1.352 . S
C536 C537 1.384 . S
C536 H558 0.930 . S
C537 C532 1.407 . S
C537 C536 1.384 . S
C537 H559 0.929 . S
C538 O548 1.241 . S
C538 O549 1.273 . S
C539 O550 1.251 . S
C539 O551 1.268 . S
O540 Nd520 2.500 . S
O540 C522 1.258 . S
O541 Nd520 2.492 . S
O541 C522 1.239 . S
O542 Nd520 2.487 . S
O542 C529 1.241 . S
O543 Nd520 2.682 . S
O543 Nd521 2.414 . S
O543 C529 1.273 . S
O544 Nd520 2.410 . S
O544 C530 1.251 . S
O545 Nd521 2.424 . S
O545 C530 1.268 . S
O546 Nd521 2.500 . S
O546 C531 1.258 . S
O547 Nd521 2.492 . S
O547 C531 1.239 . S
O548 Nd521 2.487 . S
O548 C538 1.241 . S
O549 Nd520 2.414 . S
O549 Nd521 2.682 . S
O549 C538 1.273 . S
O550 Nd521 2.410 . S
O550 C539 1.251 . S
O551 Nd520 2.424 . S
O551 C539 1.268 . S
H552 C524 0.930 . S
H553 C525 0.929 . S
H554 C527 0.930 . S
H555 C528 0.929 . S
H556 C533 0.930 . S
H557 C534 0.929 . S
H558 C536 0.930 . S
H559 C537 0.929 . S
Nd560 C562 2.836 . S
Nd560 O580 2.500 . S
Nd560 O581 2.492 . S
Nd560 O582 2.487 . S
Nd560 O583 2.682 . S
Nd560 O584 2.410 . S
Nd560 O589 2.414 . S
Nd560 O591 2.424 . S
Nd561 C571 2.836 . S
Nd561 O583 2.414 . S
Nd561 O585 2.424 . S
Nd561 O586 2.500 . S
Nd561 O587 2.492 . S
Nd561 O588 2.487 . S
Nd561 O589 2.682 . S
Nd561 O590 2.410 . S
C562 Nd560 2.836 . S
C562 C563 1.498 . S
C562 O580 1.258 . S
C562 O581 1.239 . S
C563 C562 1.498 . S
C563 C564 1.366 . S
C563 C568 1.407 . S
C564 C563 1.366 . S
C564 C565 1.392 . S
C564 H592 0.930 . S
C565 C564 1.392 . S
C565 C566 1.398 . S
C565 H593 0.929 . S
C566 C565 1.398 . S
C566 C567 1.352 . S
C567 C566 1.352 . S
C567 C568 1.384 . S
C567 H594 0.930 . S
C568 C563 1.407 . S
C568 C567 1.384 . S
C568 H595 0.929 . S
C569 O582 1.241 . S
C569 O583 1.273 . S
C570 O584 1.251 . S
C570 O585 1.268 . S
C571 Nd561 2.836 . S
C571 C572 1.498 . S
C571 O586 1.258 . S
C571 O587 1.239 . S
C572 C571 1.498 . S
C572 C573 1.366 . S
C572 C577 1.407 . S
C573 C572 1.366 . S
C573 C574 1.392 . S
C573 H596 0.930 . S
C574 C573 1.392 . S
C574 C575 1.398 . S
C574 H597 0.929 . S
C575 C574 1.398 . S
C575 C576 1.352 . S
C576 C575 1.352 . S
C576 C577 1.384 . S
C576 H598 0.930 . S
C577 C572 1.407 . S
C577 C576 1.384 . S
C577 H599 0.929 . S
C578 O588 1.241 . S
C578 O589 1.273 . S
C579 O590 1.251 . S
C579 O591 1.268 . S
O580 Nd560 2.500 . S
O580 C562 1.258 . S
O581 Nd560 2.492 . S
O581 C562 1.239 . S
O582 Nd560 2.487 . S
O582 C569 1.241 . S
O583 Nd560 2.682 . S
O583 Nd561 2.414 . S
O583 C569 1.273 . S
O584 Nd560 2.410 . S
O584 C570 1.251 . S
O585 Nd561 2.424 . S
O585 C570 1.268 . S
O586 Nd561 2.500 . S
O586 C571 1.258 . S
O587 Nd561 2.492 . S
O587 C571 1.239 . S
O588 Nd561 2.487 . S
O588 C578 1.241 . S
O589 Nd560 2.414 . S
O589 Nd561 2.682 . S
O589 C578 1.273 . S
O590 Nd561 2.410 . S
O590 C579 1.251 . S
O591 Nd560 2.424 . S
O591 C579 1.268 . S
H592 C564 0.930 . S
H593 C565 0.929 . S
H594 C567 0.930 . S
H595 C568 0.929 . S
H596 C573 0.930 . S
H597 C574 0.929 . S
H598 C576 0.930 . S
H599 C577 0.929 . S
Nd600 C602 2.836 . S
Nd600 O620 2.500 . S
Nd600 O621 2.492 . S
Nd600 O622 2.487 . S
Nd600 O623 2.682 . S
Nd600 O624 2.410 . S
Nd600 O629 2.414 . S
Nd600 O631 2.424 . S
Nd601 C611 2.836 . S
Nd601 O623 2.414 . S
Nd601 O625 2.424 . S
Nd601 O626 2.500 . S
Nd601 O627 2.492 . S
Nd601 O628 2.487 . S
Nd601 O629 2.682 . S
Nd601 O630 2.410 . S
C602 Nd600 2.836 . S
C602 C603 1.498 . S
C602 O620 1.258 . S
C602 O621 1.239 . S
C603 C602 1.498 . S
C603 C604 1.366 . S
C603 C608 1.407 . S
C604 C603 1.366 . S
C604 C605 1.392 . S
C604 H632 0.930 . S
C605 C604 1.392 . S
C605 C606 1.398 . S
C605 H633 0.929 . S
C606 C605 1.398 . S
C606 C607 1.352 . S
C607 C606 1.352 . S
C607 C608 1.384 . S
C607 H634 0.930 . S
C608 C603 1.407 . S
C608 C607 1.384 . S
C608 H635 0.929 . S
C609 O622 1.241 . S
C609 O623 1.273 . S
C610 O624 1.251 . S
C610 O625 1.268 . S
C611 Nd601 2.836 . S
C611 C612 1.498 . S
C611 O626 1.258 . S
C611 O627 1.239 . S
C612 C611 1.498 . S
C612 C613 1.366 . S
C612 C617 1.407 . S
C613 C612 1.366 . S
C613 C614 1.392 . S
C613 H636 0.930 . S
C614 C613 1.392 . S
C614 C615 1.398 . S
C614 H637 0.929 . S
C615 C614 1.398 . S
C615 C616 1.352 . S
C616 C615 1.352 . S
C616 C617 1.384 . S
C616 H638 0.930 . S
C617 C612 1.407 . S
C617 C616 1.384 . S
C617 H639 0.929 . S
C618 O628 1.241 . S
C618 O629 1.273 . S
C619 O630 1.251 . S
C619 O631 1.268 . S
O620 Nd600 2.500 . S
O620 C602 1.258 . S
O621 Nd600 2.492 . S
O621 C602 1.239 . S
O622 Nd600 2.487 . S
O622 C609 1.241 . S
O623 Nd600 2.682 . S
O623 Nd601 2.414 . S
O623 C609 1.273 . S
O624 Nd600 2.410 . S
O624 C610 1.251 . S
O625 Nd601 2.424 . S
O625 C610 1.268 . S
O626 Nd601 2.500 . S
O626 C611 1.258 . S
O627 Nd601 2.492 . S
O627 C611 1.239 . S
O628 Nd601 2.487 . S
O628 C618 1.241 . S
O629 Nd600 2.414 . S
O629 Nd601 2.682 . S
O629 C618 1.273 . S
O630 Nd601 2.410 . S
O630 C619 1.251 . S
O631 Nd600 2.424 . S
O631 C619 1.268 . S
H632 C604 0.930 . S
H633 C605 0.929 . S
H634 C607 0.930 . S
H635 C608 0.929 . S
H636 C613 0.930 . S
H637 C614 0.929 . S
H638 C616 0.930 . S
H639 C617 0.929 . S
C640 C641 1.349 . S
C640 C642 1.327 . S
C640 H665 0.950 . S
C641 C640 1.349 . S
C641 C657 1.349 . S
C642 C640 1.327 . S
C642 C661 1.429 . S
C642 H666 0.950 . S
C643 C660 1.574 . S
C643 C662 1.368 . S
C643 H667 0.949 . S
H644 C648 0.949 . S
C645 C646 1.349 . S
C645 C647 1.327 . S
C645 H668 0.950 . S
C646 C645 1.349 . S
C646 C658 1.349 . S
C647 C645 1.327 . S
C647 C663 1.429 . S
C647 H669 0.950 . S
C648 H644 0.949 . S
C648 C656 1.574 . S
C648 C664 1.368 . S
H649 C657 0.950 . S
H650 C655 0.950 . S
H651 C656 0.949 . S
H652 C658 0.950 . S
H653 C659 0.950 . S
H654 C660 0.949 . S
C655 H650 0.950 . S
C655 C657 1.327 . S
C655 C661 1.429 . S
C656 C648 1.574 . S
C656 H651 0.949 . S
C656 C662 1.368 . S
C657 C641 1.349 . S
C657 H649 0.950 . S
C657 C655 1.327 . S
C658 C646 1.349 . S
C658 H652 0.950 . S
C658 C659 1.327 . S
C659 H653 0.950 . S
C659 C658 1.327 . S
C659 C663 1.429 . S
C660 C643 1.574 . S
C660 H654 0.949 . S
C660 C664 1.368 . S
C661 C642 1.429 . S
C661 C655 1.429 . S
C661 C662 1.523 . S
C662 C643 1.368 . S
C662 C656 1.368 . S
C662 C661 1.523 . S
C663 C647 1.429 . S
C663 C659 1.429 . S
C663 C664 1.523 . S
C664 C648 1.368 . S
C664 C660 1.368 . S
C664 C663 1.523 . S
H665 C640 0.950 . S
H666 C642 0.950 . S
H667 C643 0.949 . S
H668 C645 0.950 . S
H669 C647 0.950 . S
C670 C671 1.349 . S
C670 C672 1.327 . S
C670 H695 0.950 . S
C671 C670 1.349 . S
C671 C687 1.349 . S
C672 C670 1.327 . S
C672 C691 1.429 . S
C672 H696 0.950 . S
C673 C690 1.574 . S
C673 C692 1.368 . S
C673 H697 0.949 . S
H674 C678 0.949 . S
C675 C676 1.349 . S
C675 C677 1.327 . S
C675 H698 0.950 . S
C676 C675 1.349 . S
C676 C688 1.349 . S
C677 C675 1.327 . S
C677 C693 1.429 . S
C677 H699 0.950 . S
C678 H674 0.949 . S
C678 C686 1.574 . S
C678 C694 1.368 . S
H679 C687 0.950 . S
H680 C685 0.950 . S
H681 C686 0.949 . S
H682 C688 0.950 . S
H683 C689 0.950 . S
H684 C690 0.949 . S
C685 H680 0.950 . S
C685 C687 1.327 . S
C685 C691 1.429 . S
C686 C678 1.574 . S
C686 H681 0.949 . S
C686 C692 1.368 . S
C687 C671 1.349 . S
C687 H679 0.950 . S
C687 C685 1.327 . S
C688 C676 1.349 . S
C688 H682 0.950 . S
C688 C689 1.327 . S
C689 H683 0.950 . S
C689 C688 1.327 . S
C689 C693 1.429 . S
C690 C673 1.574 . S
C690 H684 0.949 . S
C690 C694 1.368 . S
C691 C672 1.429 . S
C691 C685 1.429 . S
C691 C692 1.523 . S
C692 C673 1.368 . S
C692 C686 1.368 . S
C692 C691 1.523 . S
C693 C677 1.429 . S
C693 C689 1.429 . S
C693 C694 1.523 . S
C694 C678 1.368 . S
C694 C690 1.368 . S
C694 C693 1.523 . S
H695 C670 0.950 . S
H696 C672 0.950 . S
H697 C673 0.949 . S
H698 C675 0.950 . S
H699 C677 0.950 . S
C700 C701 1.349 . S
C700 C702 1.327 . S
C700 H725 0.950 . S
C701 C700 1.349 . S
C701 C717 1.349 . S
C702 C700 1.327 . S
C702 C721 1.429 . S
C702 H726 0.950 . S
C703 C720 1.574 . S
C703 C722 1.368 . S
C703 H727 0.949 . S
H704 C708 0.949 . S
C705 C706 1.349 . S
C705 C707 1.327 . S
C705 H728 0.950 . S
C706 C705 1.349 . S
C706 C718 1.349 . S
C707 C705 1.327 . S
C707 C723 1.429 . S
C707 H729 0.950 . S
C708 H704 0.949 . S
C708 C716 1.574 . S
C708 C724 1.368 . S
H709 C717 0.950 . S
H710 C715 0.950 . S
H711 C716 0.949 . S
H712 C718 0.950 . S
H713 C719 0.950 . S
H714 C720 0.949 . S
C715 H710 0.950 . S
C715 C717 1.327 . S
C715 C721 1.429 . S
C716 C708 1.574 . S
C716 H711 0.949 . S
C716 C722 1.368 . S
C717 C701 1.349 . S
C717 H709 0.950 . S
C717 C715 1.327 . S
C718 C706 1.349 . S
C718 H712 0.950 . S
C718 C719 1.327 . S
C719 H713 0.950 . S
C719 C718 1.327 . S
C719 C723 1.429 . S
C720 C703 1.574 . S
C720 H714 0.949 . S
C720 C724 1.368 . S
C721 C702 1.429 . S
C721 C715 1.429 . S
C721 C722 1.523 . S
C722 C703 1.368 . S
C722 C716 1.368 . S
C722 C721 1.523 . S
C723 C707 1.429 . S
C723 C719 1.429 . S
C723 C724 1.523 . S
C724 C708 1.368 . S
C724 C720 1.368 . S
C724 C723 1.523 . S
H725 C700 0.950 . S
H726 C702 0.950 . S
H727 C703 0.949 . S
H728 C705 0.950 . S
H729 C707 0.950 . S
C730 C731 1.349 . S
C730 C732 1.327 . S
C730 H755 0.950 . S
C731 C730 1.349 . S
C731 C747 1.349 . S
C732 C730 1.327 . S
C732 C751 1.429 . S
C732 H756 0.950 . S
C733 C750 1.574 . S
C733 C752 1.368 . S
C733 H757 0.949 . S
H734 C738 0.949 . S
C735 C736 1.349 . S
C735 C737 1.327 . S
C735 H758 0.950 . S
C736 C735 1.349 . S
C736 C748 1.349 . S
C737 C735 1.327 . S
C737 C753 1.429 . S
C737 H759 0.950 . S
C738 H734 0.949 . S
C738 C746 1.574 . S
C738 C754 1.368 . S
H739 C747 0.950 . S
H740 C745 0.950 . S
H741 C746 0.949 . S
H742 C748 0.950 . S
H743 C749 0.950 . S
H744 C750 0.949 . S
C745 H740 0.950 . S
C745 C747 1.327 . S
C745 C751 1.429 . S
C746 C738 1.574 . S
C746 H741 0.949 . S
C746 C752 1.368 . S
C747 C731 1.349 . S
C747 H739 0.950 . S
C747 C745 1.327 . S
C748 C736 1.349 . S
C748 H742 0.950 . S
C748 C749 1.327 . S
C749 H743 0.950 . S
C749 C748 1.327 . S
C749 C753 1.429 . S
C750 C733 1.574 . S
C750 H744 0.949 . S
C750 C754 1.368 . S
C751 C732 1.429 . S
C751 C745 1.429 . S
C751 C752 1.523 . S
C752 C733 1.368 . S
C752 C746 1.368 . S
C752 C751 1.523 . S
C753 C737 1.429 . S
C753 C749 1.429 . S
C753 C754 1.523 . S
C754 C738 1.368 . S
C754 C750 1.368 . S
C754 C753 1.523 . S
H755 C730 0.950 . S
H756 C732 0.950 . S
H757 C733 0.949 . S
H758 C735 0.950 . S
H759 C737 0.950 . S
C760 C761 1.349 . S
C760 C762 1.327 . S
C760 H785 0.950 . S
C761 C760 1.349 . S
C761 C777 1.349 . S
C762 C760 1.327 . S
C762 C781 1.429 . S
C762 H786 0.950 . S
C763 C780 1.574 . S
C763 C782 1.368 . S
C763 H787 0.949 . S
H764 C768 0.949 . S
C765 C766 1.349 . S
C765 C767 1.327 . S
C765 H788 0.950 . S
C766 C765 1.349 . S
C766 C778 1.349 . S
C767 C765 1.327 . S
C767 C783 1.429 . S
C767 H789 0.950 . S
C768 H764 0.949 . S
C768 C776 1.574 . S
C768 C784 1.368 . S
H769 C777 0.950 . S
H770 C775 0.950 . S
H771 C776 0.949 . S
H772 C778 0.950 . S
H773 C779 0.950 . S
H774 C780 0.949 . S
C775 H770 0.950 . S
C775 C777 1.327 . S
C775 C781 1.429 . S
C776 C768 1.574 . S
C776 H771 0.949 . S
C776 C782 1.368 . S
C777 C761 1.349 . S
C777 H769 0.950 . S
C777 C775 1.327 . S
C778 C766 1.349 . S
C778 H772 0.950 . S
C778 C779 1.327 . S
C779 H773 0.950 . S
C779 C778 1.327 . S
C779 C783 1.429 . S
C780 C763 1.574 . S
C780 H774 0.949 . S
C780 C784 1.368 . S
C781 C762 1.429 . S
C781 C775 1.429 . S
C781 C782 1.523 . S
C782 C763 1.368 . S
C782 C776 1.368 . S
C782 C781 1.523 . S
C783 C767 1.429 . S
C783 C779 1.429 . S
C783 C784 1.523 . S
C784 C768 1.368 . S
C784 C780 1.368 . S
C784 C783 1.523 . S
H785 C760 0.950 . S
H786 C762 0.950 . S
H787 C763 0.949 . S
H788 C765 0.950 . S
H789 C767 0.950 . S
C790 C791 1.349 . S
C790 C792 1.327 . S
C790 H815 0.950 . S
C791 C790 1.349 . S
C791 C807 1.349 . S
C792 C790 1.327 . S
C792 C811 1.429 . S
C792 H816 0.950 . S
C793 C810 1.574 . S
C793 C812 1.368 . S
C793 H817 0.949 . S
H794 C798 0.949 . S
C795 C796 1.349 . S
C795 C797 1.327 . S
C795 H818 0.950 . S
C796 C795 1.349 . S
C796 C808 1.349 . S
C797 C795 1.327 . S
C797 C813 1.429 . S
C797 H819 0.950 . S
C798 H794 0.949 . S
C798 C806 1.574 . S
C798 C814 1.368 . S
H799 C807 0.950 . S
H800 C805 0.950 . S
H801 C806 0.949 . S
H802 C808 0.950 . S
H803 C809 0.950 . S
H804 C810 0.949 . S
C805 H800 0.950 . S
C805 C807 1.327 . S
C805 C811 1.429 . S
C806 C798 1.574 . S
C806 H801 0.949 . S
C806 C812 1.368 . S
C807 C791 1.349 . S
C807 H799 0.950 . S
C807 C805 1.327 . S
C808 C796 1.349 . S
C808 H802 0.950 . S
C808 C809 1.327 . S
C809 H803 0.950 . S
C809 C808 1.327 . S
C809 C813 1.429 . S
C810 C793 1.574 . S
C810 H804 0.949 . S
C810 C814 1.368 . S
C811 C792 1.429 . S
C811 C805 1.429 . S
C811 C812 1.523 . S
C812 C793 1.368 . S
C812 C806 1.368 . S
C812 C811 1.523 . S
C813 C797 1.429 . S
C813 C809 1.429 . S
C813 C814 1.523 . S
C814 C798 1.368 . S
C814 C810 1.368 . S
C814 C813 1.523 . S
H815 C790 0.950 . S
H816 C792 0.950 . S
H817 C793 0.949 . S
H818 C795 0.950 . S
H819 C797 0.950 . S
C820 C821 1.349 . S
C820 C822 1.327 . S
C820 H845 0.950 . S
C821 C820 1.349 . S
C821 C837 1.349 . S
C822 C820 1.327 . S
C822 C841 1.429 . S
C822 H846 0.950 . S
C823 C840 1.574 . S
C823 C842 1.368 . S
C823 H847 0.949 . S
H824 C828 0.949 . S
C825 C826 1.349 . S
C825 C827 1.327 . S
C825 H848 0.950 . S
C826 C825 1.349 . S
C826 C838 1.349 . S
C827 C825 1.327 . S
C827 C843 1.429 . S
C827 H849 0.950 . S
C828 H824 0.949 . S
C828 C836 1.574 . S
C828 C844 1.368 . S
H829 C837 0.950 . S
H830 C835 0.950 . S
H831 C836 0.949 . S
H832 C838 0.950 . S
H833 C839 0.950 . S
H834 C840 0.949 . S
C835 H830 0.950 . S
C835 C837 1.327 . S
C835 C841 1.429 . S
C836 C828 1.574 . S
C836 H831 0.949 . S
C836 C842 1.368 . S
C837 C821 1.349 . S
C837 H829 0.950 . S
C837 C835 1.327 . S
C838 C826 1.349 . S
C838 H832 0.950 . S
C838 C839 1.327 . S
C839 H833 0.950 . S
C839 C838 1.327 . S
C839 C843 1.429 . S
C840 C823 1.574 . S
C840 H834 0.949 . S
C840 C844 1.368 . S
C841 C822 1.429 . S
C841 C835 1.429 . S
C841 C842 1.523 . S
C842 C823 1.368 . S
C842 C836 1.368 . S
C842 C841 1.523 . S
C843 C827 1.429 . S
C843 C839 1.429 . S
C843 C844 1.523 . S
C844 C828 1.368 . S
C844 C840 1.368 . S
C844 C843 1.523 . S
H845 C820 0.950 . S
H846 C822 0.950 . S
H847 C823 0.949 . S
H848 C825 0.950 . S
H849 C827 0.950 . S
C850 C851 1.349 . S
C850 C852 1.327 . S
C850 H875 0.950 . S
C851 C850 1.349 . S
C851 C867 1.349 . S
C852 C850 1.327 . S
C852 C871 1.429 . S
C852 H876 0.950 . S
C853 C870 1.574 . S
C853 C872 1.368 . S
C853 H877 0.949 . S
H854 C858 0.949 . S
C855 C856 1.349 . S
C855 C857 1.327 . S
C855 H878 0.950 . S
C856 C855 1.349 . S
C856 C868 1.349 . S
C857 C855 1.327 . S
C857 C873 1.429 . S
C857 H879 0.950 . S
C858 H854 0.949 . S
C858 C866 1.574 . S
C858 C874 1.368 . S
H859 C867 0.950 . S
H860 C865 0.950 . S
H861 C866 0.949 . S
H862 C868 0.950 . S
H863 C869 0.950 . S
H864 C870 0.949 . S
C865 H860 0.950 . S
C865 C867 1.327 . S
C865 C871 1.429 . S
C866 C858 1.574 . S
C866 H861 0.949 . S
C866 C872 1.368 . S
C867 C851 1.349 . S
C867 H859 0.950 . S
C867 C865 1.327 . S
C868 C856 1.349 . S
C868 H862 0.950 . S
C868 C869 1.327 . S
C869 H863 0.950 . S
C869 C868 1.327 . S
C869 C873 1.429 . S
C870 C853 1.574 . S
C870 H864 0.949 . S
C870 C874 1.368 . S
C871 C852 1.429 . S
C871 C865 1.429 . S
C871 C872 1.523 . S
C872 C853 1.368 . S
C872 C866 1.368 . S
C872 C871 1.523 . S
C873 C857 1.429 . S
C873 C869 1.429 . S
C873 C874 1.523 . S
C874 C858 1.368 . S
C874 C870 1.368 . S
C874 C873 1.523 . S
H875 C850 0.950 . S
H876 C852 0.950 . S
H877 C853 0.949 . S
H878 C855 0.950 . S
H879 C857 0.950 . S
C880 C881 1.349 . S
C880 C882 1.327 . S
C880 H905 0.950 . S
C881 C880 1.349 . S
C881 C897 1.349 . S
C882 C880 1.327 . S
C882 C901 1.429 . S
C882 H906 0.950 . S
C883 C900 1.574 . S
C883 C902 1.368 1_545 S
C883 H907 0.949 . S
H884 C888 0.949 . S
C885 C886 1.349 . S
C885 C887 1.327 . S
C885 H908 0.950 . S
C886 C885 1.349 . S
C886 C898 1.349 . S
C887 C885 1.327 . S
C887 C903 1.429 . S
C887 H909 0.950 . S
C888 H884 0.949 . S
C888 C896 1.574 . S
C888 C904 1.368 1_565 S
H889 C897 0.950 . S
H890 C895 0.950 1_545 S
H891 C896 0.949 . S
H892 C898 0.950 . S
H893 C899 0.950 1_565 S
H894 C900 0.949 . S
C895 H890 0.950 1_565 S
C895 C897 1.327 . S
C895 C901 1.429 . S
C896 C888 1.574 . S
C896 H891 0.949 . S
C896 C902 1.368 . S
C897 C881 1.349 . S
C897 H889 0.950 . S
C897 C895 1.327 . S
C898 C886 1.349 . S
C898 H892 0.950 . S
C898 C899 1.327 . S
C899 H893 0.950 1_545 S
C899 C898 1.327 . S
C899 C903 1.429 . S
C900 C883 1.574 . S
C900 H894 0.949 . S
C900 C904 1.368 . S
C901 C882 1.429 . S
C901 C895 1.429 . S
C901 C902 1.523 . S
C902 C883 1.368 1_565 S
C902 C896 1.368 . S
C902 C901 1.523 . S
C903 C887 1.429 . S
C903 C899 1.429 . S
C903 C904 1.523 . S
C904 C888 1.368 1_545 S
C904 C900 1.368 . S
C904 C903 1.523 . S
H905 C880 0.950 . S
H906 C882 0.950 . S
H907 C883 0.949 . S
H908 C885 0.950 . S
H909 C887 0.950 . S
C910 C911 1.349 . S
C910 C912 1.327 . S
C910 H935 0.950 . S
C911 C910 1.349 . S
C911 C927 1.349 . S
C912 C910 1.327 . S
C912 C931 1.429 . S
C912 H936 0.950 1_545 S
C913 C930 1.574 . S
C913 C932 1.368 . S
C913 H937 0.949 . S
H914 C918 0.949 . S
C915 C916 1.349 . S
C915 C917 1.327 . S
C915 H938 0.950 . S
C916 C915 1.349 . S
C916 C928 1.349 . S
C917 C915 1.327 . S
C917 C933 1.429 . S
C917 H939 0.950 1_565 S
C918 H914 0.949 . S
C918 C926 1.574 . S
C918 C934 1.368 . S
H919 C927 0.950 . S
H920 C925 0.950 . S
H921 C926 0.949 . S
H922 C928 0.950 . S
H923 C929 0.950 . S
H924 C930 0.949 . S
C925 H920 0.950 . S
C925 C927 1.327 . S
C925 C931 1.429 . S
C926 C918 1.574 . S
C926 H921 0.949 . S
C926 C932 1.368 1_565 S
C927 C911 1.349 . S
C927 H919 0.950 . S
C927 C925 1.327 . S
C928 C916 1.349 . S
C928 H922 0.950 . S
C928 C929 1.327 . S
C929 H923 0.950 . S
C929 C928 1.327 . S
C929 C933 1.429 . S
C930 C913 1.574 . S
C930 H924 0.949 . S
C930 C934 1.368 1_545 S
C931 C912 1.429 . S
C931 C925 1.429 . S
C931 C932 1.523 . S
C932 C913 1.368 . S
C932 C926 1.368 1_545 S
C932 C931 1.523 . S
C933 C917 1.429 . S
C933 C929 1.429 . S
C933 C934 1.523 . S
C934 C918 1.368 . S
C934 C930 1.368 1_565 S
C934 C933 1.523 . S
H935 C910 0.950 . S
H936 C912 0.950 1_565 S
H937 C913 0.949 . S
H938 C915 0.950 . S
H939 C917 0.950 1_545 S
C940 C941 1.349 . S
C940 C942 1.327 . S
C940 H965 0.950 . S
C941 C940 1.349 . S
C941 C957 1.349 . S
C942 C940 1.327 . S
C942 C961 1.429 . S
C942 H966 0.950 1_545 S
C943 C960 1.574 . S
C943 C962 1.368 . S
C943 H967 0.949 . S
H944 C948 0.949 . S
C945 C946 1.349 . S
C945 C947 1.327 . S
C945 H968 0.950 . S
C946 C945 1.349 . S
C946 C958 1.349 . S
C947 C945 1.327 . S
C947 C963 1.429 . S
C947 H969 0.950 1_565 S
C948 H944 0.949 . S
C948 C956 1.574 . S
C948 C964 1.368 . S
H949 C957 0.950 . S
H950 C955 0.950 . S
H951 C956 0.949 . S
H952 C958 0.950 . S
H953 C959 0.950 . S
H954 C960 0.949 . S
C955 H950 0.950 . S
C955 C957 1.327 . S
C955 C961 1.429 . S
C956 C948 1.574 . S
C956 H951 0.949 . S
C956 C962 1.368 1_565 S
C957 C941 1.349 . S
C957 H949 0.950 . S
C957 C955 1.327 . S
C958 C946 1.349 . S
C958 H952 0.950 . S
C958 C959 1.327 . S
C959 H953 0.950 . S
C959 C958 1.327 . S
C959 C963 1.429 . S
C960 C943 1.574 . S
C960 H954 0.949 . S
C960 C964 1.368 1_545 S
C961 C942 1.429 . S
C961 C955 1.429 . S
C961 C962 1.523 . S
C962 C943 1.368 . S
C962 C956 1.368 1_545 S
C962 C961 1.523 . S
C963 C947 1.429 . S
C963 C959 1.429 . S
C963 C964 1.523 . S
C964 C948 1.368 . S
C964 C960 1.368 1_565 S
C964 C963 1.523 . S
H965 C940 0.950 . S
H966 C942 0.950 1_565 S
H967 C943 0.949 . S
H968 C945 0.950 . S
H969 C947 0.950 1_545 S
C970 C971 1.349 . S
C970 C972 1.327 . S
C970 H995 0.950 . S
C971 C970 1.349 . S
C971 C987 1.349 . S
C972 C970 1.327 . S
C972 C991 1.429 . S
C972 H996 0.950 1_545 S
C973 C990 1.574 . S
C973 C992 1.368 . S
C973 H997 0.949 . S
H974 C978 0.949 . S
C975 C976 1.349 . S
C975 C977 1.327 . S
C975 H998 0.950 . S
C976 C975 1.349 . S
C976 C988 1.349 . S
C977 C975 1.327 . S
C977 C993 1.429 . S
C977 H999 0.950 1_565 S
C978 H974 0.949 . S
C978 C986 1.574 . S
C978 C994 1.368 . S
H979 C987 0.950 . S
H980 C985 0.950 . S
H981 C986 0.949 . S
H982 C988 0.950 . S
H983 C989 0.950 . S
H984 C990 0.949 . S
C985 H980 0.950 . S
C985 C987 1.327 . S
C985 C991 1.429 . S
C986 C978 1.574 . S
C986 H981 0.949 . S
C986 C992 1.368 1_565 S
C987 C971 1.349 . S
C987 H979 0.950 . S
C987 C985 1.327 . S
C988 C976 1.349 . S
C988 H982 0.950 . S
C988 C989 1.327 . S
C989 H983 0.950 . S
C989 C988 1.327 . S
C989 C993 1.429 . S
C990 C973 1.574 . S
C990 H984 0.949 . S
C990 C994 1.368 1_545 S
C991 C972 1.429 . S
C991 C985 1.429 . S
C991 C992 1.523 . S
C992 C973 1.368 . S
C992 C986 1.368 1_545 S
C992 C991 1.523 . S
C993 C977 1.429 . S
C993 C989 1.429 . S
C993 C994 1.523 . S
C994 C978 1.368 . S
C994 C990 1.368 1_565 S
C994 C993 1.523 . S
H995 C970 0.950 . S
H996 C972 0.950 1_565 S
H997 C973 0.949 . S
H998 C975 0.950 . S
H999 C977 0.950 1_545 S
C1000 C1001 1.349 . S
C1000 C1002 1.327 . S
C1000 H1025 0.950 . S
C1001 C1000 1.349 . S
C1001 C1017 1.349 . S
C1002 C1000 1.327 . S
C1002 C1021 1.429 . S
C1002 H1026 0.950 . S
C1003 C1020 1.574 . S
C1003 C1022 1.368 . S
C1003 H1027 0.949 . S
H1004 C1008 0.949 . S
C1005 C1006 1.349 . S
C1005 C1007 1.327 . S
C1005 H1028 0.950 . S
C1006 C1005 1.349 . S
C1006 C1018 1.349 . S
C1007 C1005 1.327 . S
C1007 C1023 1.429 . S
C1007 H1029 0.950 . S
C1008 H1004 0.949 . S
C1008 C1016 1.574 . S
C1008 C1024 1.368 . S
H1009 C1017 0.950 . S
H1010 C1015 0.950 . S
H1011 C1016 0.949 . S
H1012 C1018 0.950 . S
H1013 C1019 0.950 . S
H1014 C1020 0.949 . S
C1015 H1010 0.950 . S
C1015 C1017 1.327 . S
C1015 C1021 1.429 . S
C1016 C1008 1.574 . S
C1016 H1011 0.949 . S
C1016 C1022 1.368 . S
C1017 C1001 1.349 . S
C1017 H1009 0.950 . S
C1017 C1015 1.327 . S
C1018 C1006 1.349 . S
C1018 H1012 0.950 . S
C1018 C1019 1.327 . S
C1019 H1013 0.950 . S
C1019 C1018 1.327 . S
C1019 C1023 1.429 . S
C1020 C1003 1.574 . S
C1020 H1014 0.949 . S
C1020 C1024 1.368 . S
C1021 C1002 1.429 . S
C1021 C1015 1.429 . S
C1021 C1022 1.523 . S
C1022 C1003 1.368 . S
C1022 C1016 1.368 . S
C1022 C1021 1.523 . S
C1023 C1007 1.429 . S
C1023 C1019 1.429 . S
C1023 C1024 1.523 . S
C1024 C1008 1.368 . S
C1024 C1020 1.368 . S
C1024 C1023 1.523 . S
H1025 C1000 0.950 . S
H1026 C1002 0.950 . S
H1027 C1003 0.949 . S
H1028 C1005 0.950 . S
H1029 C1007 0.950 . S
C1030 C1031 1.349 . S
C1030 C1032 1.327 . S
C1030 H1055 0.950 . S
C1031 C1030 1.349 . S
C1031 C1047 1.349 . S
C1032 C1030 1.327 . S
C1032 C1051 1.429 . S
C1032 H1056 0.950 . S
C1033 C1050 1.574 . S
C1033 C1052 1.368 . S
C1033 H1057 0.949 . S
H1034 C1038 0.949 . S
C1035 C1036 1.349 . S
C1035 C1037 1.327 . S
C1035 H1058 0.950 . S
C1036 C1035 1.349 . S
C1036 C1048 1.349 . S
C1037 C1035 1.327 . S
C1037 C1053 1.429 . S
C1037 H1059 0.950 . S
C1038 H1034 0.949 . S
C1038 C1046 1.574 . S
C1038 C1054 1.368 . S
H1039 C1047 0.950 . S
H1040 C1045 0.950 . S
H1041 C1046 0.949 . S
H1042 C1048 0.950 . S
H1043 C1049 0.950 . S
H1044 C1050 0.949 . S
C1045 H1040 0.950 . S
C1045 C1047 1.327 . S
C1045 C1051 1.429 . S
C1046 C1038 1.574 . S
C1046 H1041 0.949 . S
C1046 C1052 1.368 . S
C1047 C1031 1.349 . S
C1047 H1039 0.950 . S
C1047 C1045 1.327 . S
C1048 C1036 1.349 . S
C1048 H1042 0.950 . S
C1048 C1049 1.327 . S
C1049 H1043 0.950 . S
C1049 C1048 1.327 . S
C1049 C1053 1.429 . S
C1050 C1033 1.574 . S
C1050 H1044 0.949 . S
C1050 C1054 1.368 . S
C1051 C1032 1.429 . S
C1051 C1045 1.429 . S
C1051 C1052 1.523 . S
C1052 C1033 1.368 . S
C1052 C1046 1.368 . S
C1052 C1051 1.523 . S
C1053 C1037 1.429 . S
C1053 C1049 1.429 . S
C1053 C1054 1.523 . S
C1054 C1038 1.368 . S
C1054 C1050 1.368 . S
C1054 C1053 1.523 . S
H1055 C1030 0.950 . S
H1056 C1032 0.950 . S
H1057 C1033 0.949 . S
H1058 C1035 0.950 . S
H1059 C1037 0.950 . S
C1060 C1061 1.349 . S
C1060 C1062 1.327 . S
C1060 H1085 0.950 . S
C1061 C1060 1.349 . S
C1061 C1077 1.349 . S
C1062 C1060 1.327 . S
C1062 C1081 1.429 . S
C1062 H1086 0.950 . S
C1063 C1080 1.574 . S
C1063 C1082 1.368 . S
C1063 H1087 0.949 . S
H1064 C1068 0.949 . S
C1065 C1066 1.349 . S
C1065 C1067 1.327 . S
C1065 H1088 0.950 . S
C1066 C1065 1.349 . S
C1066 C1078 1.349 . S
C1067 C1065 1.327 . S
C1067 C1083 1.429 . S
C1067 H1089 0.950 . S
C1068 H1064 0.949 . S
C1068 C1076 1.574 . S
C1068 C1084 1.368 . S
H1069 C1077 0.950 . S
H1070 C1075 0.950 . S
H1071 C1076 0.949 . S
H1072 C1078 0.950 . S
H1073 C1079 0.950 . S
H1074 C1080 0.949 . S
C1075 H1070 0.950 . S
C1075 C1077 1.327 . S
C1075 C1081 1.429 . S
C1076 C1068 1.574 . S
C1076 H1071 0.949 . S
C1076 C1082 1.368 . S
C1077 C1061 1.349 . S
C1077 H1069 0.950 . S
C1077 C1075 1.327 . S
C1078 C1066 1.349 . S
C1078 H1072 0.950 . S
C1078 C1079 1.327 . S
C1079 H1073 0.950 . S
C1079 C1078 1.327 . S
C1079 C1083 1.429 . S
C1080 C1063 1.574 . S
C1080 H1074 0.949 . S
C1080 C1084 1.368 . S
C1081 C1062 1.429 . S
C1081 C1075 1.429 . S
C1081 C1082 1.523 . S
C1082 C1063 1.368 . S
C1082 C1076 1.368 . S
C1082 C1081 1.523 . S
C1083 C1067 1.429 . S
C1083 C1079 1.429 . S
C1083 C1084 1.523 . S
C1084 C1068 1.368 . S
C1084 C1080 1.368 . S
C1084 C1083 1.523 . S
H1085 C1060 0.950 . S
H1086 C1062 0.950 . S
H1087 C1063 0.949 . S
H1088 C1065 0.950 . S
H1089 C1067 0.950 . S
C1090 C1091 1.349 . S
C1090 C1092 1.327 . S
C1090 H1115 0.950 . S
C1091 C1090 1.349 . S
C1091 C1107 1.349 . S
C1092 C1090 1.327 . S
C1092 C1111 1.429 . S
C1092 H1116 0.950 . S
C1093 C1110 1.574 . S
C1093 C1112 1.368 . S
C1093 H1117 0.949 . S
H1094 C1098 0.949 . S
C1095 C1096 1.349 . S
C1095 C1097 1.327 . S
C1095 H1118 0.950 . S
C1096 C1095 1.349 . S
C1096 C1108 1.349 . S
C1097 C1095 1.327 . S
C1097 C1113 1.429 . S
C1097 H1119 0.950 . S
C1098 H1094 0.949 . S
C1098 C1106 1.574 . S
C1098 C1114 1.368 . S
H1099 C1107 0.950 . S
H1100 C1105 0.950 . S
H1101 C1106 0.949 . S
H1102 C1108 0.950 . S
H1103 C1109 0.950 . S
H1104 C1110 0.949 . S
C1105 H1100 0.950 . S
C1105 C1107 1.327 . S
C1105 C1111 1.429 . S
C1106 C1098 1.574 . S
C1106 H1101 0.949 . S
C1106 C1112 1.368 . S
C1107 C1091 1.349 . S
C1107 H1099 0.950 . S
C1107 C1105 1.327 . S
C1108 C1096 1.349 . S
C1108 H1102 0.950 . S
C1108 C1109 1.327 . S
C1109 H1103 0.950 . S
C1109 C1108 1.327 . S
C1109 C1113 1.429 . S
C1110 C1093 1.574 . S
C1110 H1104 0.949 . S
C1110 C1114 1.368 . S
C1111 C1092 1.429 . S
C1111 C1105 1.429 . S
C1111 C1112 1.523 . S
C1112 C1093 1.368 . S
C1112 C1106 1.368 . S
C1112 C1111 1.523 . S
C1113 C1097 1.429 . S
C1113 C1109 1.429 . S
C1113 C1114 1.523 . S
C1114 C1098 1.368 . S
C1114 C1110 1.368 . S
C1114 C1113 1.523 . S
H1115 C1090 0.950 . S
H1116 C1092 0.950 . S
H1117 C1093 0.949 . S
H1118 C1095 0.950 . S
H1119 C1097 0.950 . S
C1120 C1121 1.349 . S
C1120 C1122 1.327 . S
C1120 H1145 0.950 . S
C1121 C1120 1.349 . S
C1121 C1137 1.349 . S
C1122 C1120 1.327 . S
C1122 C1141 1.429 . S
C1122 H1146 0.950 . S
C1123 C1140 1.574 1_556 S
C1123 C1142 1.368 . S
C1123 H1147 0.949 . S
H1124 C1128 0.949 . S
C1125 C1126 1.349 . S
C1125 C1127 1.327 . S
C1125 H1148 0.950 . S
C1126 C1125 1.349 . S
C1126 C1138 1.349 . S
C1127 C1125 1.327 . S
C1127 C1143 1.429 . S
C1127 H1149 0.950 . S
C1128 H1124 0.949 . S
C1128 C1136 1.574 1_554 S
C1128 C1144 1.368 . S
H1129 C1137 0.950 . S
H1130 C1135 0.950 . S
H1131 C1136 0.949 . S
H1132 C1138 0.950 . S
H1133 C1139 0.950 . S
H1134 C1140 0.949 . S
C1135 H1130 0.950 . S
C1135 C1137 1.327 . S
C1135 C1141 1.429 . S
C1136 C1128 1.574 1_556 S
C1136 H1131 0.949 . S
C1136 C1142 1.368 . S
C1137 C1121 1.349 . S
C1137 H1129 0.950 . S
C1137 C1135 1.327 . S
C1138 C1126 1.349 . S
C1138 H1132 0.950 . S
C1138 C1139 1.327 . S
C1139 H1133 0.950 . S
C1139 C1138 1.327 . S
C1139 C1143 1.429 . S
C1140 C1123 1.574 1_554 S
C1140 H1134 0.949 . S
C1140 C1144 1.368 . S
C1141 C1122 1.429 . S
C1141 C1135 1.429 . S
C1141 C1142 1.523 . S
C1142 C1123 1.368 . S
C1142 C1136 1.368 . S
C1142 C1141 1.523 . S
C1143 C1127 1.429 . S
C1143 C1139 1.429 . S
C1143 C1144 1.523 . S
C1144 C1128 1.368 . S
C1144 C1140 1.368 . S
C1144 C1143 1.523 . S
H1145 C1120 0.950 . S
H1146 C1122 0.950 . S
H1147 C1123 0.949 . S
H1148 C1125 0.950 . S
H1149 C1127 0.950 . S
C1150 C1151 1.349 . S
C1150 C1152 1.327 . S
C1150 H1175 0.950 . S
C1151 C1150 1.349 . S
C1151 C1167 1.349 . S
C1152 C1150 1.327 . S
C1152 C1171 1.429 . S
C1152 H1176 0.950 . S
C1153 C1170 1.574 1_556 S
C1153 C1172 1.368 . S
C1153 H1177 0.949 . S
H1154 C1158 0.949 . S
C1155 C1156 1.349 . S
C1155 C1157 1.327 . S
C1155 H1178 0.950 . S
C1156 C1155 1.349 . S
C1156 C1168 1.349 . S
C1157 C1155 1.327 . S
C1157 C1173 1.429 . S
C1157 H1179 0.950 . S
C1158 H1154 0.949 . S
C1158 C1166 1.574 1_554 S
C1158 C1174 1.368 . S
H1159 C1167 0.950 . S
H1160 C1165 0.950 . S
H1161 C1166 0.949 . S
H1162 C1168 0.950 . S
H1163 C1169 0.950 . S
H1164 C1170 0.949 . S
C1165 H1160 0.950 . S
C1165 C1167 1.327 . S
C1165 C1171 1.429 . S
C1166 C1158 1.574 1_556 S
C1166 H1161 0.949 . S
C1166 C1172 1.368 . S
C1167 C1151 1.349 . S
C1167 H1159 0.950 . S
C1167 C1165 1.327 . S
C1168 C1156 1.349 . S
C1168 H1162 0.950 . S
C1168 C1169 1.327 . S
C1169 H1163 0.950 . S
C1169 C1168 1.327 . S
C1169 C1173 1.429 . S
C1170 C1153 1.574 1_554 S
C1170 H1164 0.949 . S
C1170 C1174 1.368 . S
C1171 C1152 1.429 . S
C1171 C1165 1.429 . S
C1171 C1172 1.523 . S
C1172 C1153 1.368 . S
C1172 C1166 1.368 . S
C1172 C1171 1.523 . S
C1173 C1157 1.429 . S
C1173 C1169 1.429 . S
C1173 C1174 1.523 . S
C1174 C1158 1.368 . S
C1174 C1170 1.368 . S
C1174 C1173 1.523 . S
H1175 C1150 0.950 . S
H1176 C1152 0.950 . S
H1177 C1153 0.949 . S
H1178 C1155 0.950 . S
H1179 C1157 0.950 . S
C1180 C1181 1.349 . S
C1180 C1182 1.327 . S
C1180 H1205 0.950 . S
C1181 C1180 1.349 . S
C1181 C1197 1.349 . S
C1182 C1180 1.327 . S
C1182 C1201 1.429 . S
C1182 H1206 0.950 . S
C1183 C1200 1.574 . S
C1183 C1202 1.368 . S
C1183 H1207 0.949 . S
H1184 C1188 0.949 . S
C1185 C1186 1.349 . S
C1185 C1187 1.327 . S
C1185 H1208 0.950 . S
C1186 C1185 1.349 . S
C1186 C1198 1.349 . S
C1187 C1185 1.327 . S
C1187 C1203 1.429 . S
C1187 H1209 0.950 . S
C1188 H1184 0.949 . S
C1188 C1196 1.574 . S
C1188 C1204 1.368 . S
H1189 C1197 0.950 . S
H1190 C1195 0.950 . S
H1191 C1196 0.949 . S
H1192 C1198 0.950 . S
H1193 C1199 0.950 . S
H1194 C1200 0.949 . S
C1195 H1190 0.950 . S
C1195 C1197 1.327 . S
C1195 C1201 1.429 . S
C1196 C1188 1.574 . S
C1196 H1191 0.949 . S
C1196 C1202 1.368 . S
C1197 C1181 1.349 . S
C1197 H1189 0.950 . S
C1197 C1195 1.327 . S
C1198 C1186 1.349 . S
C1198 H1192 0.950 . S
C1198 C1199 1.327 . S
C1199 H1193 0.950 . S
C1199 C1198 1.327 . S
C1199 C1203 1.429 . S
C1200 C1183 1.574 . S
C1200 H1194 0.949 . S
C1200 C1204 1.368 . S
C1201 C1182 1.429 . S
C1201 C1195 1.429 . S
C1201 C1202 1.523 . S
C1202 C1183 1.368 . S
C1202 C1196 1.368 . S
C1202 C1201 1.523 . S
C1203 C1187 1.429 . S
C1203 C1199 1.429 . S
C1203 C1204 1.523 . S
C1204 C1188 1.368 . S
C1204 C1200 1.368 . S
C1204 C1203 1.523 . S
H1205 C1180 0.950 . S
H1206 C1182 0.950 . S
H1207 C1183 0.949 . S
H1208 C1185 0.950 . S
H1209 C1187 0.950 . S
C1210 C1211 1.349 . S
C1210 C1212 1.327 . S
C1210 H1235 0.950 . S
C1211 C1210 1.349 . S
C1211 C1227 1.349 . S
C1212 C1210 1.327 . S
C1212 C1231 1.429 . S
C1212 H1236 0.950 . S
C1213 C1230 1.574 . S
C1213 C1232 1.368 . S
C1213 H1237 0.949 . S
H1214 C1218 0.949 . S
C1215 C1216 1.349 . S
C1215 C1217 1.327 . S
C1215 H1238 0.950 . S
C1216 C1215 1.349 . S
C1216 C1228 1.349 . S
C1217 C1215 1.327 . S
C1217 C1233 1.429 . S
C1217 H1239 0.950 . S
C1218 H1214 0.949 . S
C1218 C1226 1.574 . S
C1218 C1234 1.368 . S
H1219 C1227 0.950 . S
H1220 C1225 0.950 . S
H1221 C1226 0.949 . S
H1222 C1228 0.950 . S
H1223 C1229 0.950 . S
H1224 C1230 0.949 . S
C1225 H1220 0.950 . S
C1225 C1227 1.327 . S
C1225 C1231 1.429 . S
C1226 C1218 1.574 . S
C1226 H1221 0.949 . S
C1226 C1232 1.368 . S
C1227 C1211 1.349 . S
C1227 H1219 0.950 . S
C1227 C1225 1.327 . S
C1228 C1216 1.349 . S
C1228 H1222 0.950 . S
C1228 C1229 1.327 . S
C1229 H1223 0.950 . S
C1229 C1228 1.327 . S
C1229 C1233 1.429 . S
C1230 C1213 1.574 . S
C1230 H1224 0.949 . S
C1230 C1234 1.368 . S
C1231 C1212 1.429 . S
C1231 C1225 1.429 . S
C1231 C1232 1.523 . S
C1232 C1213 1.368 . S
C1232 C1226 1.368 . S
C1232 C1231 1.523 . S
C1233 C1217 1.429 . S
C1233 C1229 1.429 . S
C1233 C1234 1.523 . S
C1234 C1218 1.368 . S
C1234 C1230 1.368 . S
C1234 C1233 1.523 . S
H1235 C1210 0.950 . S
H1236 C1212 0.950 . S
H1237 C1213 0.949 . S
H1238 C1215 0.950 . S
H1239 C1217 0.950 . S
C1240 C1241 1.349 . S
C1240 C1242 1.327 . S
C1240 H1265 0.950 . S
C1241 C1240 1.349 . S
C1241 C1257 1.349 . S
C1242 C1240 1.327 . S
C1242 C1261 1.429 . S
C1242 H1266 0.950 . S
C1243 C1260 1.574 1_554 S
C1243 C1262 1.368 . S
C1243 H1267 0.949 . S
H1244 C1248 0.949 . S
C1245 C1246 1.349 . S
C1245 C1247 1.327 . S
C1245 H1268 0.950 . S
C1246 C1245 1.349 . S
C1246 C1258 1.349 . S
C1247 C1245 1.327 . S
C1247 C1263 1.429 . S
C1247 H1269 0.950 . S
C1248 H1244 0.949 . S
C1248 C1256 1.574 1_556 S
C1248 C1264 1.368 . S
H1249 C1257 0.950 . S
H1250 C1255 0.950 . S
H1251 C1256 0.949 . S
H1252 C1258 0.950 . S
H1253 C1259 0.950 . S
H1254 C1260 0.949 . S
C1255 H1250 0.950 . S
C1255 C1257 1.327 . S
C1255 C1261 1.429 . S
C1256 C1248 1.574 1_554 S
C1256 H1251 0.949 . S
C1256 C1262 1.368 . S
C1257 C1241 1.349 . S
C1257 H1249 0.950 . S
C1257 C1255 1.327 . S
C1258 C1246 1.349 . S
C1258 H1252 0.950 . S
C1258 C1259 1.327 . S
C1259 H1253 0.950 . S
C1259 C1258 1.327 . S
C1259 C1263 1.429 . S
C1260 C1243 1.574 1_556 S
C1260 H1254 0.949 . S
C1260 C1264 1.368 . S
C1261 C1242 1.429 . S
C1261 C1255 1.429 . S
C1261 C1262 1.523 . S
C1262 C1243 1.368 . S
C1262 C1256 1.368 . S
C1262 C1261 1.523 . S
C1263 C1247 1.429 . S
C1263 C1259 1.429 . S
C1263 C1264 1.523 . S
C1264 C1248 1.368 . S
C1264 C1260 1.368 . S
C1264 C1263 1.523 . S
H1265 C1240 0.950 . S
H1266 C1242 0.950 . S
H1267 C1243 0.949 . S
H1268 C1245 0.950 . S
H1269 C1247 0.950 . S
C1270 C1271 1.349 . S
C1270 C1272 1.327 . S
C1270 H1295 0.950 . S
C1271 C1270 1.349 . S
C1271 C1287 1.349 . S
C1272 C1270 1.327 . S
C1272 C1291 1.429 . S
C1272 H1296 0.950 . S
C1273 C1290 1.574 1_556 S
C1273 C1292 1.368 . S
C1273 H1297 0.949 . S
H1274 C1278 0.949 . S
C1275 C1276 1.349 . S
C1275 C1277 1.327 . S
C1275 H1298 0.950 . S
C1276 C1275 1.349 . S
C1276 C1288 1.349 . S
C1277 C1275 1.327 . S
C1277 C1293 1.429 . S
C1277 H1299 0.950 . S
C1278 H1274 0.949 . S
C1278 C1286 1.574 1_554 S
C1278 C1294 1.368 . S
H1279 C1287 0.950 . S
H1280 C1285 0.950 . S
H1281 C1286 0.949 . S
H1282 C1288 0.950 . S
H1283 C1289 0.950 . S
H1284 C1290 0.949 . S
C1285 H1280 0.950 . S
C1285 C1287 1.327 . S
C1285 C1291 1.429 . S
C1286 C1278 1.574 1_556 S
C1286 H1281 0.949 . S
C1286 C1292 1.368 . S
C1287 C1271 1.349 . S
C1287 H1279 0.950 . S
C1287 C1285 1.327 . S
C1288 C1276 1.349 . S
C1288 H1282 0.950 . S
C1288 C1289 1.327 . S
C1289 H1283 0.950 . S
C1289 C1288 1.327 . S
C1289 C1293 1.429 . S
C1290 C1273 1.574 1_554 S
C1290 H1284 0.949 . S
C1290 C1294 1.368 . S
C1291 C1272 1.429 . S
C1291 C1285 1.429 . S
C1291 C1292 1.523 . S
C1292 C1273 1.368 . S
C1292 C1286 1.368 . S
C1292 C1291 1.523 . S
C1293 C1277 1.429 . S
C1293 C1289 1.429 . S
C1293 C1294 1.523 . S
C1294 C1278 1.368 . S
C1294 C1290 1.368 . S
C1294 C1293 1.523 . S
H1295 C1270 0.950 . S
H1296 C1272 0.950 . S
H1297 C1273 0.949 . S
H1298 C1275 0.950 . S
H1299 C1277 0.950 . S
C1300 C1301 1.349 . S
C1300 C1302 1.327 . S
C1300 H1325 0.950 . S
C1301 C1300 1.349 . S
C1301 C1317 1.349 . S
C1302 C1300 1.327 . S
C1302 C1321 1.429 . S
C1302 H1326 0.950 . S
C1303 C1320 1.574 . S
C1303 C1322 1.368 . S
C1303 H1327 0.949 . S
H1304 C1308 0.949 . S
C1305 C1306 1.349 . S
C1305 C1307 1.327 . S
C1305 H1328 0.950 . S
C1306 C1305 1.349 . S
C1306 C1318 1.349 . S
C1307 C1305 1.327 . S
C1307 C1323 1.429 . S
C1307 H1329 0.950 . S
C1308 H1304 0.949 . S
C1308 C1316 1.574 . S
C1308 C1324 1.368 . S
H1309 C1317 0.950 . S
H1310 C1315 0.950 . S
H1311 C1316 0.949 . S
H1312 C1318 0.950 . S
H1313 C1319 0.950 . S
H1314 C1320 0.949 . S
C1315 H1310 0.950 . S
C1315 C1317 1.327 . S
C1315 C1321 1.429 . S
C1316 C1308 1.574 . S
C1316 H1311 0.949 . S
C1316 C1322 1.368 . S
C1317 C1301 1.349 . S
C1317 H1309 0.950 . S
C1317 C1315 1.327 . S
C1318 C1306 1.349 . S
C1318 H1312 0.950 . S
C1318 C1319 1.327 . S
C1319 H1313 0.950 . S
C1319 C1318 1.327 . S
C1319 C1323 1.429 . S
C1320 C1303 1.574 . S
C1320 H1314 0.949 . S
C1320 C1324 1.368 . S
C1321 C1302 1.429 . S
C1321 C1315 1.429 . S
C1321 C1322 1.523 . S
C1322 C1303 1.368 . S
C1322 C1316 1.368 . S
C1322 C1321 1.523 . S
C1323 C1307 1.429 . S
C1323 C1319 1.429 . S
C1323 C1324 1.523 . S
C1324 C1308 1.368 . S
C1324 C1320 1.368 . S
C1324 C1323 1.523 . S
H1325 C1300 0.950 . S
H1326 C1302 0.950 . S
H1327 C1303 0.949 . S
H1328 C1305 0.950 . S
H1329 C1307 0.950 . S
C1330 C1331 1.349 . S
C1330 C1332 1.327 . S
C1330 H1355 0.950 . S
C1331 C1330 1.349 . S
C1331 C1347 1.349 . S
C1332 C1330 1.327 . S
C1332 C1351 1.429 . S
C1332 H1356 0.950 . S
C1333 C1350 1.574 . S
C1333 C1352 1.368 . S
C1333 H1357 0.949 . S
H1334 C1338 0.949 . S
C1335 C1336 1.349 . S
C1335 C1337 1.327 . S
C1335 H1358 0.950 . S
C1336 C1335 1.349 . S
C1336 C1348 1.349 . S
C1337 C1335 1.327 . S
C1337 C1353 1.429 . S
C1337 H1359 0.950 . S
C1338 H1334 0.949 . S
C1338 C1346 1.574 . S
C1338 C1354 1.368 . S
H1339 C1347 0.950 . S
H1340 C1345 0.950 . S
H1341 C1346 0.949 . S
H1342 C1348 0.950 . S
H1343 C1349 0.950 . S
H1344 C1350 0.949 . S
C1345 H1340 0.950 . S
C1345 C1347 1.327 . S
C1345 C1351 1.429 . S
C1346 C1338 1.574 . S
C1346 H1341 0.949 . S
C1346 C1352 1.368 . S
C1347 C1331 1.349 . S
C1347 H1339 0.950 . S
C1347 C1345 1.327 . S
C1348 C1336 1.349 . S
C1348 H1342 0.950 . S
C1348 C1349 1.327 . S
C1349 H1343 0.950 . S
C1349 C1348 1.327 . S
C1349 C1353 1.429 . S
C1350 C1333 1.574 . S
C1350 H1344 0.949 . S
C1350 C1354 1.368 . S
C1351 C1332 1.429 . S
C1351 C1345 1.429 . S
C1351 C1352 1.523 . S
C1352 C1333 1.368 . S
C1352 C1346 1.368 . S
C1352 C1351 1.523 . S
C1353 C1337 1.429 . S
C1353 C1349 1.429 . S
C1353 C1354 1.523 . S
C1354 C1338 1.368 . S
C1354 C1350 1.368 . S
C1354 C1353 1.523 . S
H1355 C1330 0.950 . S
H1356 C1332 0.950 . S
H1357 C1333 0.949 . S
H1358 C1335 0.950 . S
H1359 C1337 0.950 . S
C1360 C1361 1.349 . S
C1360 C1362 1.327 . S
C1360 H1385 0.950 . S
C1361 C1360 1.349 . S
C1361 C1377 1.349 . S
C1362 C1360 1.327 . S
C1362 C1381 1.429 . S
C1362 H1386 0.950 . S
C1363 C1380 1.574 1_655 S
C1363 C1382 1.368 1_565 S
C1363 H1387 0.949 . S
H1364 C1368 0.949 . S
C1365 C1366 1.349 . S
C1365 C1367 1.327 . S
C1365 H1388 0.950 . S
C1366 C1365 1.349 . S
C1366 C1378 1.349 . S
C1367 C1365 1.327 . S
C1367 C1383 1.429 . S
C1367 H1389 0.950 . S
C1368 H1364 0.949 . S
C1368 C1376 1.574 1_455 S
C1368 C1384 1.368 1_545 S
H1369 C1377 0.955 . S
H1370 C1375 0.950 1_565 S
H1371 C1376 0.949 . S
H1372 C1378 0.955 . S
H1373 C1379 0.950 1_545 S
H1374 C1380 0.949 . S
C1375 H1370 0.950 1_545 S
C1375 C1377 1.327 . S
C1375 C1381 1.429 . S
C1376 C1368 1.574 1_655 S
C1376 H1371 0.949 . S
C1376 C1382 1.368 . S
C1377 C1361 1.349 . S
C1377 H1369 0.955 . S
C1377 C1375 1.327 . S
C1378 C1366 1.349 . S
C1378 H1372 0.955 . S
C1378 C1379 1.327 . S
C1379 H1373 0.950 1_565 S
C1379 C1378 1.327 . S
C1379 C1383 1.429 . S
C1380 C1363 1.574 1_455 S
C1380 H1374 0.949 . S
C1380 C1384 1.368 . S
C1381 C1362 1.429 . S
C1381 C1375 1.429 . S
C1381 C1382 1.523 . S
C1382 C1363 1.368 1_545 S
C1382 C1376 1.368 . S
C1382 C1381 1.523 . S
C1383 C1367 1.429 . S
C1383 C1379 1.429 . S
C1383 C1384 1.523 . S
C1384 C1368 1.368 1_565 S
C1384 C1380 1.368 . S
C1384 C1383 1.523 . S
H1385 C1360 0.950 . S
H1386 C1362 0.950 . S
H1387 C1363 0.949 . S
H1388 C1365 0.950 . S
H1389 C1367 0.950 . S
C1390 C1391 1.349 . S
C1390 C1392 1.327 . S
C1390 H1415 0.950 . S
C1391 C1390 1.349 . S
C1391 C1407 1.349 . S
C1392 C1390 1.327 . S
C1392 C1411 1.429 . S
C1392 H1416 0.950 . S
C1393 C1410 1.574 1_655 S
C1393 C1412 1.368 1_545 S
C1393 H1417 0.949 . S
H1394 C1398 0.949 . S
C1395 C1396 1.349 . S
C1395 C1397 1.327 . S
C1395 H1418 0.950 . S
C1396 C1395 1.349 . S
C1396 C1408 1.349 . S
C1397 C1395 1.327 . S
C1397 C1413 1.429 . S
C1397 H1419 0.950 . S
C1398 H1394 0.949 . S
C1398 C1406 1.574 1_455 S
C1398 C1414 1.368 1_565 S
H1399 C1407 0.955 . S
H1400 C1405 0.950 1_545 S
H1401 C1406 0.949 . S
H1402 C1408 0.955 . S
H1403 C1409 0.950 1_565 S
H1404 C1410 0.949 . S
C1405 H1400 0.950 1_565 S
C1405 C1407 1.327 . S
C1405 C1411 1.429 . S
C1406 C1398 1.574 1_655 S
C1406 H1401 0.949 . S
C1406 C1412 1.368 . S
C1407 C1391 1.349 . S
C1407 H1399 0.955 . S
C1407 C1405 1.327 . S
C1408 C1396 1.349 . S
C1408 H1402 0.955 . S
C1408 C1409 1.327 . S
C1409 H1403 0.950 1_545 S
C1409 C1408 1.327 . S
C1409 C1413 1.429 . S
C1410 C1393 1.574 1_455 S
C1410 H1404 0.949 . S
C1410 C1414 1.368 . S
C1411 C1392 1.429 . S
C1411 C1405 1.429 . S
C1411 C1412 1.523 . S
C1412 C1393 1.368 1_565 S
C1412 C1406 1.368 . S
C1412 C1411 1.523 . S
C1413 C1397 1.429 . S
C1413 C1409 1.429 . S
C1413 C1414 1.523 . S
C1414 C1398 1.368 1_545 S
C1414 C1410 1.368 . S
C1414 C1413 1.523 . S
H1415 C1390 0.950 . S
H1416 C1392 0.950 . S
H1417 C1393 0.949 . S
H1418 C1395 0.950 . S
H1419 C1397 0.950 . S
C1420 C1421 1.349 . S
C1420 C1422 1.327 . S
C1420 H1445 0.950 . S
C1421 C1420 1.349 . S
C1421 C1437 1.349 . S
C1422 C1420 1.327 . S
C1422 C1441 1.429 . S
C1422 H1446 0.950 . S
C1423 C1440 1.574 1_455 S
C1423 C1442 1.368 1_545 S
C1423 H1447 0.949 . S
H1424 C1428 0.949 . S
C1425 C1426 1.349 . S
C1425 C1427 1.327 . S
C1425 H1448 0.950 . S
C1426 C1425 1.349 . S
C1426 C1438 1.349 . S
C1427 C1425 1.327 . S
C1427 C1443 1.429 . S
C1427 H1449 0.950 . S
C1428 H1424 0.949 . S
C1428 C1436 1.574 1_655 S
C1428 C1444 1.368 1_565 S
H1429 C1437 0.955 . S
H1430 C1435 0.950 1_545 S
H1431 C1436 0.949 . S
H1432 C1438 0.955 . S
H1433 C1439 0.950 1_565 S
H1434 C1440 0.949 . S
C1435 H1430 0.950 1_565 S
C1435 C1437 1.327 . S
C1435 C1441 1.429 . S
C1436 C1428 1.574 1_455 S
C1436 H1431 0.949 . S
C1436 C1442 1.368 . S
C1437 C1421 1.349 . S
C1437 H1429 0.955 . S
C1437 C1435 1.327 . S
C1438 C1426 1.349 . S
C1438 H1432 0.955 . S
C1438 C1439 1.327 . S
C1439 H1433 0.950 1_545 S
C1439 C1438 1.327 . S
C1439 C1443 1.429 . S
C1440 C1423 1.574 1_655 S
C1440 H1434 0.949 . S
C1440 C1444 1.368 . S
C1441 C1422 1.429 . S
C1441 C1435 1.429 . S
C1441 C1442 1.523 . S
C1442 C1423 1.368 1_565 S
C1442 C1436 1.368 . S
C1442 C1441 1.523 . S
C1443 C1427 1.429 . S
C1443 C1439 1.429 . S
C1443 C1444 1.523 . S
C1444 C1428 1.368 1_545 S
C1444 C1440 1.368 . S
C1444 C1443 1.523 . S
H1445 C1420 0.950 . S
H1446 C1422 0.950 . S
H1447 C1423 0.949 . S
H1448 C1425 0.950 . S
H1449 C1427 0.950 . S
C1450 C1451 1.349 . S
C1450 C1452 1.327 . S
C1450 H1475 0.950 . S
C1451 C1450 1.349 . S
C1451 C1467 1.349 . S
C1452 C1450 1.327 . S
C1452 C1471 1.429 . S
C1452 H1476 0.950 . S
C1453 C1470 1.574 1_655 S
C1453 C1472 1.368 1_545 S
C1453 H1477 0.949 . S
H1454 C1458 0.949 . S
C1455 C1456 1.349 . S
C1455 C1457 1.327 . S
C1455 H1478 0.950 . S
C1456 C1455 1.349 . S
C1456 C1468 1.349 . S
C1457 C1455 1.327 . S
C1457 C1473 1.429 . S
C1457 H1479 0.950 . S
C1458 H1454 0.949 . S
C1458 C1466 1.574 1_455 S
C1458 C1474 1.368 1_565 S
H1459 C1467 0.955 . S
H1460 C1465 0.950 1_545 S
H1461 C1466 0.949 . S
H1462 C1468 0.955 . S
H1463 C1469 0.950 1_565 S
H1464 C1470 0.949 . S
C1465 H1460 0.950 1_565 S
C1465 C1467 1.327 . S
C1465 C1471 1.429 . S
C1466 C1458 1.574 1_655 S
C1466 H1461 0.949 . S
C1466 C1472 1.368 . S
C1467 C1451 1.349 . S
C1467 H1459 0.955 . S
C1467 C1465 1.327 . S
C1468 C1456 1.349 . S
C1468 H1462 0.955 . S
C1468 C1469 1.327 . S
C1469 H1463 0.950 1_545 S
C1469 C1468 1.327 . S
C1469 C1473 1.429 . S
C1470 C1453 1.574 1_455 S
C1470 H1464 0.949 . S
C1470 C1474 1.368 . S
C1471 C1452 1.429 . S
C1471 C1465 1.429 . S
C1471 C1472 1.523 . S
C1472 C1453 1.368 1_565 S
C1472 C1466 1.368 . S
C1472 C1471 1.523 . S
C1473 C1457 1.429 . S
C1473 C1469 1.429 . S
C1473 C1474 1.523 . S
C1474 C1458 1.368 1_545 S
C1474 C1470 1.368 . S
C1474 C1473 1.523 . S
H1475 C1450 0.950 . S
H1476 C1452 0.950 . S
H1477 C1453 0.949 . S
H1478 C1455 0.950 . S
H1479 C1457 0.950 . S
C1480 C1481 1.349 . S
C1480 C1482 1.327 . S
C1480 H1505 0.950 . S
C1481 C1480 1.349 . S
C1481 C1497 1.349 . S
C1482 C1480 1.327 . S
C1482 C1501 1.429 . S
C1482 H1506 0.950 . S
C1483 C1500 1.574 . S
C1483 C1502 1.368 . S
C1483 H1507 0.949 . S
H1484 C1488 0.949 . S
C1485 C1486 1.349 . S
C1485 C1487 1.327 . S
C1485 H1508 0.950 . S
C1486 C1485 1.349 . S
C1486 C1498 1.349 . S
C1487 C1485 1.327 . S
C1487 C1503 1.429 . S
C1487 H1509 0.950 . S
C1488 H1484 0.949 . S
C1488 C1496 1.574 . S
C1488 C1504 1.368 . S
H1489 C1497 0.950 . S
H1490 C1495 0.950 . S
H1491 C1496 0.949 . S
H1492 C1498 0.950 . S
H1493 C1499 0.950 . S
H1494 C1500 0.949 . S
C1495 H1490 0.950 . S
C1495 C1497 1.327 . S
C1495 C1501 1.429 . S
C1496 C1488 1.574 . S
C1496 H1491 0.949 . S
C1496 C1502 1.368 . S
C1497 C1481 1.349 . S
C1497 H1489 0.950 . S
C1497 C1495 1.327 . S
C1498 C1486 1.349 . S
C1498 H1492 0.950 . S
C1498 C1499 1.327 . S
C1499 H1493 0.950 . S
C1499 C1498 1.327 . S
C1499 C1503 1.429 . S
C1500 C1483 1.574 . S
C1500 H1494 0.949 . S
C1500 C1504 1.368 . S
C1501 C1482 1.429 . S
C1501 C1495 1.429 . S
C1501 C1502 1.523 . S
C1502 C1483 1.368 . S
C1502 C1496 1.368 . S
C1502 C1501 1.523 . S
C1503 C1487 1.429 . S
C1503 C1499 1.429 . S
C1503 C1504 1.523 . S
C1504 C1488 1.368 . S
C1504 C1500 1.368 . S
C1504 C1503 1.523 . S
H1505 C1480 0.950 . S
H1506 C1482 0.950 . S
H1507 C1483 0.949 . S
H1508 C1485 0.950 . S
H1509 C1487 0.950 . S
C1510 C1511 1.349 . S
C1510 C1512 1.327 . S
C1510 H1535 0.950 . S
C1511 C1510 1.349 . S
C1511 C1527 1.349 . S
C1512 C1510 1.327 . S
C1512 C1531 1.429 . S
C1512 H1536 0.950 . S
C1513 C1530 1.574 . S
C1513 C1532 1.368 . S
C1513 H1537 0.949 . S
H1514 C1518 0.949 . S
C1515 C1516 1.349 . S
C1515 C1517 1.327 . S
C1515 H1538 0.950 . S
C1516 C1515 1.349 . S
C1516 C1528 1.349 . S
C1517 C1515 1.327 . S
C1517 C1533 1.429 . S
C1517 H1539 0.950 . S
C1518 H1514 0.949 . S
C1518 C1526 1.574 . S
C1518 C1534 1.368 . S
H1519 C1527 0.950 . S
H1520 C1525 0.950 . S
H1521 C1526 0.949 . S
H1522 C1528 0.950 . S
H1523 C1529 0.950 . S
H1524 C1530 0.949 . S
C1525 H1520 0.950 . S
C1525 C1527 1.327 . S
C1525 C1531 1.429 . S
C1526 C1518 1.574 . S
C1526 H1521 0.949 . S
C1526 C1532 1.368 . S
C1527 C1511 1.349 . S
C1527 H1519 0.950 . S
C1527 C1525 1.327 . S
C1528 C1516 1.349 . S
C1528 H1522 0.950 . S
C1528 C1529 1.327 . S
C1529 H1523 0.950 . S
C1529 C1528 1.327 . S
C1529 C1533 1.429 . S
C1530 C1513 1.574 . S
C1530 H1524 0.949 . S
C1530 C1534 1.368 . S
C1531 C1512 1.429 . S
C1531 C1525 1.429 . S
C1531 C1532 1.523 . S
C1532 C1513 1.368 . S
C1532 C1526 1.368 . S
C1532 C1531 1.523 . S
C1533 C1517 1.429 . S
C1533 C1529 1.429 . S
C1533 C1534 1.523 . S
C1534 C1518 1.368 . S
C1534 C1530 1.368 . S
C1534 C1533 1.523 . S
H1535 C1510 0.950 . S
H1536 C1512 0.950 . S
H1537 C1513 0.949 . S
H1538 C1515 0.950 . S
H1539 C1517 0.950 . S
C1540 C1541 1.349 . S
C1540 C1542 1.327 . S
C1540 H1565 0.950 . S
C1541 C1540 1.349 . S
C1541 C1557 1.349 . S
C1542 C1540 1.327 . S
C1542 C1561 1.429 . S
C1542 H1566 0.950 . S
C1543 C1560 1.574 . S
C1543 C1562 1.368 . S
C1543 H1567 0.949 . S
H1544 C1548 0.949 . S
C1545 C1546 1.349 . S
C1545 C1547 1.327 . S
C1545 H1568 0.950 . S
C1546 C1545 1.349 . S
C1546 C1558 1.349 . S
C1547 C1545 1.327 . S
C1547 C1563 1.429 . S
C1547 H1569 0.950 . S
C1548 H1544 0.949 . S
C1548 C1556 1.574 . S
C1548 C1564 1.368 . S
H1549 C1557 0.950 . S
H1550 C1555 0.950 . S
H1551 C1556 0.949 . S
H1552 C1558 0.950 . S
H1553 C1559 0.950 . S
H1554 C1560 0.949 . S
C1555 H1550 0.950 . S
C1555 C1557 1.327 . S
C1555 C1561 1.429 . S
C1556 C1548 1.574 . S
C1556 H1551 0.949 . S
C1556 C1562 1.368 . S
C1557 C1541 1.349 . S
C1557 H1549 0.950 . S
C1557 C1555 1.327 . S
C1558 C1546 1.349 . S
C1558 H1552 0.950 . S
C1558 C1559 1.327 . S
C1559 H1553 0.950 . S
C1559 C1558 1.327 . S
C1559 C1563 1.429 . S
C1560 C1543 1.574 . S
C1560 H1554 0.949 . S
C1560 C1564 1.368 . S
C1561 C1542 1.429 . S
C1561 C1555 1.429 . S
C1561 C1562 1.523 . S
C1562 C1543 1.368 . S
C1562 C1556 1.368 . S
C1562 C1561 1.523 . S
C1563 C1547 1.429 . S
C1563 C1559 1.429 . S
C1563 C1564 1.523 . S
C1564 C1548 1.368 . S
C1564 C1560 1.368 . S
C1564 C1563 1.523 . S
H1565 C1540 0.950 . S
H1566 C1542 0.950 . S
H1567 C1543 0.949 . S
H1568 C1545 0.950 . S
H1569 C1547 0.950 . S
C1570 C1571 1.349 . S
C1570 C1572 1.327 . S
C1570 H1595 0.950 . S
C1571 C1570 1.349 . S
C1571 C1587 1.349 . S
C1572 C1570 1.327 . S
C1572 C1591 1.429 . S
C1572 H1596 0.950 . S
C1573 C1590 1.574 . S
C1573 C1592 1.368 . S
C1573 H1597 0.949 . S
H1574 C1578 0.949 . S
C1575 C1576 1.349 . S
C1575 C1577 1.327 . S
C1575 H1598 0.950 . S
C1576 C1575 1.349 . S
C1576 C1588 1.349 . S
C1577 C1575 1.327 . S
C1577 C1593 1.429 . S
C1577 H1599 0.950 . S
C1578 H1574 0.949 . S
C1578 C1586 1.574 . S
C1578 C1594 1.368 . S
H1579 C1587 0.950 . S
H1580 C1585 0.950 . S
H1581 C1586 0.949 . S
H1582 C1588 0.950 . S
H1583 C1589 0.950 . S
H1584 C1590 0.949 . S
C1585 H1580 0.950 . S
C1585 C1587 1.327 . S
C1585 C1591 1.429 . S
C1586 C1578 1.574 . S
C1586 H1581 0.949 . S
C1586 C1592 1.368 . S
C1587 C1571 1.349 . S
C1587 H1579 0.950 . S
C1587 C1585 1.327 . S
C1588 C1576 1.349 . S
C1588 H1582 0.950 . S
C1588 C1589 1.327 . S
C1589 H1583 0.950 . S
C1589 C1588 1.327 . S
C1589 C1593 1.429 . S
C1590 C1573 1.574 . S
C1590 H1584 0.949 . S
C1590 C1594 1.368 . S
C1591 C1572 1.429 . S
C1591 C1585 1.429 . S
C1591 C1592 1.523 . S
C1592 C1573 1.368 . S
C1592 C1586 1.368 . S
C1592 C1591 1.523 . S
C1593 C1577 1.429 . S
C1593 C1589 1.429 . S
C1593 C1594 1.523 . S
C1594 C1578 1.368 . S
C1594 C1590 1.368 . S
C1594 C1593 1.523 . S
H1595 C1570 0.950 . S
H1596 C1572 0.950 . S
H1597 C1573 0.949 . S
H1598 C1575 0.950 . S
H1599 C1577 0.950 . S
C1600 C1601 1.349 . S
C1600 C1602 1.327 . S
C1600 H1625 0.950 . S
C1601 C1600 1.349 . S
C1601 C1617 1.349 . S
C1602 C1600 1.327 . S
C1602 C1621 1.429 . S
C1602 H1626 0.950 . S
C1603 C1620 1.574 . S
C1603 C1622 1.368 . S
C1603 H1627 0.949 . S
H1604 C1608 0.949 . S
C1605 C1606 1.349 . S
C1605 C1607 1.327 . S
C1605 H1628 0.950 . S
C1606 C1605 1.349 . S
C1606 C1618 1.349 . S
C1607 C1605 1.327 . S
C1607 C1623 1.429 . S
C1607 H1629 0.950 . S
C1608 H1604 0.949 . S
C1608 C1616 1.574 . S
C1608 C1624 1.368 . S
H1609 C1617 0.950 . S
H1610 C1615 0.950 . S
H1611 C1616 0.949 . S
H1612 C1618 0.950 . S
H1613 C1619 0.950 . S
H1614 C1620 0.949 . S
C1615 H1610 0.950 . S
C1615 C1617 1.327 . S
C1615 C1621 1.429 . S
C1616 C1608 1.574 . S
C1616 H1611 0.949 . S
C1616 C1622 1.368 . S
C1617 C1601 1.349 . S
C1617 H1609 0.950 . S
C1617 C1615 1.327 . S
C1618 C1606 1.349 . S
C1618 H1612 0.950 . S
C1618 C1619 1.327 . S
C1619 H1613 0.950 . S
C1619 C1618 1.327 . S
C1619 C1623 1.429 . S
C1620 C1603 1.574 . S
C1620 H1614 0.949 . S
C1620 C1624 1.368 . S
C1621 C1602 1.429 . S
C1621 C1615 1.429 . S
C1621 C1622 1.523 . S
C1622 C1603 1.368 . S
C1622 C1616 1.368 . S
C1622 C1621 1.523 . S
C1623 C1607 1.429 . S
C1623 C1619 1.429 . S
C1623 C1624 1.523 . S
C1624 C1608 1.368 . S
C1624 C1620 1.368 . S
C1624 C1623 1.523 . S
H1625 C1600 0.950 . S
H1626 C1602 0.950 . S
H1627 C1603 0.949 . S
H1628 C1605 0.950 . S
H1629 C1607 0.950 . S
C1630 C1631 1.349 . S
C1630 C1632 1.327 . S
C1630 H1655 0.950 . S
C1631 C1630 1.349 . S
C1631 C1647 1.349 . S
C1632 C1630 1.327 . S
C1632 C1651 1.429 . S
C1632 H1656 0.950 . S
C1633 C1650 1.574 . S
C1633 C1652 1.368 . S
C1633 H1657 0.949 . S
H1634 C1638 0.949 . S
C1635 C1636 1.349 . S
C1635 C1637 1.327 . S
C1635 H1658 0.950 . S
C1636 C1635 1.349 . S
C1636 C1648 1.349 . S
C1637 C1635 1.327 . S
C1637 C1653 1.429 . S
C1637 H1659 0.950 . S
C1638 H1634 0.949 . S
C1638 C1646 1.574 . S
C1638 C1654 1.368 . S
H1639 C1647 0.950 . S
H1640 C1645 0.950 . S
H1641 C1646 0.949 . S
H1642 C1648 0.950 . S
H1643 C1649 0.950 . S
H1644 C1650 0.949 . S
C1645 H1640 0.950 . S
C1645 C1647 1.327 . S
C1645 C1651 1.429 . S
C1646 C1638 1.574 . S
C1646 H1641 0.949 . S
C1646 C1652 1.368 . S
C1647 C1631 1.349 . S
C1647 H1639 0.950 . S
C1647 C1645 1.327 . S
C1648 C1636 1.349 . S
C1648 H1642 0.950 . S
C1648 C1649 1.327 . S
C1649 H1643 0.950 . S
C1649 C1648 1.327 . S
C1649 C1653 1.429 . S
C1650 C1633 1.574 . S
C1650 H1644 0.949 . S
C1650 C1654 1.368 . S
C1651 C1632 1.429 . S
C1651 C1645 1.429 . S
C1651 C1652 1.523 . S
C1652 C1633 1.368 . S
C1652 C1646 1.368 . S
C1652 C1651 1.523 . S
C1653 C1637 1.429 . S
C1653 C1649 1.429 . S
C1653 C1654 1.523 . S
C1654 C1638 1.368 . S
C1654 C1650 1.368 . S
C1654 C1653 1.523 . S
H1655 C1630 0.950 . S
H1656 C1632 0.950 . S
H1657 C1633 0.949 . S
H1658 C1635 0.950 . S
H1659 C1637 0.950 . S
C1660 C1661 1.349 . S
C1660 C1662 1.327 . S
C1660 H1685 0.950 . S
C1661 C1660 1.349 . S
C1661 C1677 1.349 . S
C1662 C1660 1.327 . S
C1662 C1681 1.429 . S
C1662 H1686 0.950 . S
C1663 C1680 1.574 . S
C1663 C1682 1.368 . S
C1663 H1687 0.949 . S
H1664 C1668 0.949 . S
C1665 C1666 1.349 . S
C1665 C1667 1.327 . S
C1665 H1688 0.950 . S
C1666 C1665 1.349 . S
C1666 C1678 1.349 . S
C1667 C1665 1.327 . S
C1667 C1683 1.429 . S
C1667 H1689 0.950 . S
C1668 H1664 0.949 . S
C1668 C1676 1.574 . S
C1668 C1684 1.368 . S
H1669 C1677 0.950 . S
H1670 C1675 0.950 . S
H1671 C1676 0.949 . S
H1672 C1678 0.950 . S
H1673 C1679 0.950 . S
H1674 C1680 0.949 . S
C1675 H1670 0.950 . S
C1675 C1677 1.327 . S
C1675 C1681 1.429 . S
C1676 C1668 1.574 . S
C1676 H1671 0.949 . S
C1676 C1682 1.368 . S
C1677 C1661 1.349 . S
C1677 H1669 0.950 . S
C1677 C1675 1.327 . S
C1678 C1666 1.349 . S
C1678 H1672 0.950 . S
C1678 C1679 1.327 . S
C1679 H1673 0.950 . S
C1679 C1678 1.327 . S
C1679 C1683 1.429 . S
C1680 C1663 1.574 . S
C1680 H1674 0.949 . S
C1680 C1684 1.368 . S
C1681 C1662 1.429 . S
C1681 C1675 1.429 . S
C1681 C1682 1.523 . S
C1682 C1663 1.368 . S
C1682 C1676 1.368 . S
C1682 C1681 1.523 . S
C1683 C1667 1.429 . S
C1683 C1679 1.429 . S
C1683 C1684 1.523 . S
C1684 C1668 1.368 . S
C1684 C1680 1.368 . S
C1684 C1683 1.523 . S
H1685 C1660 0.950 . S
H1686 C1662 0.950 . S
H1687 C1663 0.949 . S
H1688 C1665 0.950 . S
H1689 C1667 0.950 . S
C1690 C1691 1.349 . S
C1690 C1692 1.327 . S
C1690 H1715 0.950 . S
C1691 C1690 1.349 . S
C1691 C1707 1.349 . S
C1692 C1690 1.327 . S
C1692 C1711 1.429 . S
C1692 H1716 0.950 . S
C1693 C1710 1.574 . S
C1693 C1712 1.368 . S
C1693 H1717 0.949 . S
H1694 C1698 0.949 . S
C1695 C1696 1.349 . S
C1695 C1697 1.327 . S
C1695 H1718 0.950 . S
C1696 C1695 1.349 . S
C1696 C1708 1.349 . S
C1697 C1695 1.327 . S
C1697 C1713 1.429 . S
C1697 H1719 0.950 . S
C1698 H1694 0.949 . S
C1698 C1706 1.574 . S
C1698 C1714 1.368 . S
H1699 C1707 0.950 . S
H1700 C1705 0.950 . S
H1701 C1706 0.949 . S
H1702 C1708 0.950 . S
H1703 C1709 0.950 . S
H1704 C1710 0.949 . S
C1705 H1700 0.950 . S
C1705 C1707 1.327 . S
C1705 C1711 1.429 . S
C1706 C1698 1.574 . S
C1706 H1701 0.949 . S
C1706 C1712 1.368 . S
C1707 C1691 1.349 . S
C1707 H1699 0.950 . S
C1707 C1705 1.327 . S
C1708 C1696 1.349 . S
C1708 H1702 0.950 . S
C1708 C1709 1.327 . S
C1709 H1703 0.950 . S
C1709 C1708 1.327 . S
C1709 C1713 1.429 . S
C1710 C1693 1.574 . S
C1710 H1704 0.949 . S
C1710 C1714 1.368 . S
C1711 C1692 1.429 . S
C1711 C1705 1.429 . S
C1711 C1712 1.523 . S
C1712 C1693 1.368 . S
C1712 C1706 1.368 . S
C1712 C1711 1.523 . S
C1713 C1697 1.429 . S
C1713 C1709 1.429 . S
C1713 C1714 1.523 . S
C1714 C1698 1.368 . S
C1714 C1710 1.368 . S
C1714 C1713 1.523 . S
H1715 C1690 0.950 . S
H1716 C1692 0.950 . S
H1717 C1693 0.949 . S
H1718 C1695 0.950 . S
H1719 C1697 0.950 . S
C1720 C1721 1.349 . S
C1720 C1722 1.327 . S
C1720 H1745 0.950 . S
C1721 C1720 1.349 . S
C1721 C1737 1.349 . S
C1722 C1720 1.327 . S
C1722 C1741 1.429 . S
C1722 H1746 0.950 . S
C1723 C1740 1.574 . S
C1723 C1742 1.368 . S
C1723 H1747 0.949 . S
H1724 C1728 0.949 . S
C1725 C1726 1.349 . S
C1725 C1727 1.327 . S
C1725 H1748 0.950 . S
C1726 C1725 1.349 . S
C1726 C1738 1.349 . S
C1727 C1725 1.327 . S
C1727 C1743 1.429 . S
C1727 H1749 0.950 . S
C1728 H1724 0.949 . S
C1728 C1736 1.574 . S
C1728 C1744 1.368 . S
H1729 C1737 0.950 . S
H1730 C1735 0.950 . S
H1731 C1736 0.949 . S
H1732 C1738 0.950 . S
H1733 C1739 0.950 . S
H1734 C1740 0.949 . S
C1735 H1730 0.950 . S
C1735 C1737 1.327 . S
C1735 C1741 1.429 . S
C1736 C1728 1.574 . S
C1736 H1731 0.949 . S
C1736 C1742 1.368 . S
C1737 C1721 1.349 . S
C1737 H1729 0.950 . S
C1737 C1735 1.327 . S
C1738 C1726 1.349 . S
C1738 H1732 0.950 . S
C1738 C1739 1.327 . S
C1739 H1733 0.950 . S
C1739 C1738 1.327 . S
C1739 C1743 1.429 . S
C1740 C1723 1.574 . S
C1740 H1734 0.949 . S
C1740 C1744 1.368 . S
C1741 C1722 1.429 . S
C1741 C1735 1.429 . S
C1741 C1742 1.523 . S
C1742 C1723 1.368 . S
C1742 C1736 1.368 . S
C1742 C1741 1.523 . S
C1743 C1727 1.429 . S
C1743 C1739 1.429 . S
C1743 C1744 1.523 . S
C1744 C1728 1.368 . S
C1744 C1740 1.368 . S
C1744 C1743 1.523 . S
H1745 C1720 0.950 . S
H1746 C1722 0.950 . S
H1747 C1723 0.949 . S
H1748 C1725 0.950 . S
H1749 C1727 0.950 . S
C1750 C1751 1.349 . S
C1750 C1752 1.327 . S
C1750 H1775 0.950 . S
C1751 C1750 1.349 . S
C1751 C1767 1.349 . S
C1752 C1750 1.327 . S
C1752 C1771 1.429 . S
C1752 H1776 0.950 . S
C1753 C1770 1.574 . S
C1753 C1772 1.368 . S
C1753 H1777 0.949 . S
H1754 C1758 0.949 . S
C1755 C1756 1.349 . S
C1755 C1757 1.327 . S
C1755 H1778 0.950 . S
C1756 C1755 1.349 . S
C1756 C1768 1.349 . S
C1757 C1755 1.327 . S
C1757 C1773 1.429 . S
C1757 H1779 0.950 . S
C1758 H1754 0.949 . S
C1758 C1766 1.574 . S
C1758 C1774 1.368 . S
H1759 C1767 0.950 . S
H1760 C1765 0.950 . S
H1761 C1766 0.949 . S
H1762 C1768 0.950 . S
H1763 C1769 0.950 . S
H1764 C1770 0.949 . S
C1765 H1760 0.950 . S
C1765 C1767 1.327 . S
C1765 C1771 1.429 . S
C1766 C1758 1.574 . S
C1766 H1761 0.949 . S
C1766 C1772 1.368 . S
C1767 C1751 1.349 . S
C1767 H1759 0.950 . S
C1767 C1765 1.327 . S
C1768 C1756 1.349 . S
C1768 H1762 0.950 . S
C1768 C1769 1.327 . S
C1769 H1763 0.950 . S
C1769 C1768 1.327 . S
C1769 C1773 1.429 . S
C1770 C1753 1.574 . S
C1770 H1764 0.949 . S
C1770 C1774 1.368 . S
C1771 C1752 1.429 . S
C1771 C1765 1.429 . S
C1771 C1772 1.523 . S
C1772 C1753 1.368 . S
C1772 C1766 1.368 . S
C1772 C1771 1.523 . S
C1773 C1757 1.429 . S
C1773 C1769 1.429 . S
C1773 C1774 1.523 . S
C1774 C1758 1.368 . S
C1774 C1770 1.368 . S
C1774 C1773 1.523 . S
H1775 C1750 0.950 . S
H1776 C1752 0.950 . S
H1777 C1753 0.949 . S
H1778 C1755 0.950 . S
H1779 C1757 0.950 . S
C1780 C1781 1.349 . S
C1780 C1782 1.327 . S
C1780 H1805 0.950 . S
C1781 C1780 1.349 . S
C1781 C1797 1.349 . S
C1782 C1780 1.327 . S
C1782 C1801 1.429 . S
C1782 H1806 0.950 . S
C1783 C1800 1.574 . S
C1783 C1802 1.368 . S
C1783 H1807 0.949 . S
H1784 C1788 0.949 . S
C1785 C1786 1.349 . S
C1785 C1787 1.327 . S
C1785 H1808 0.950 . S
C1786 C1785 1.349 . S
C1786 C1798 1.349 . S
C1787 C1785 1.327 . S
C1787 C1803 1.429 . S
C1787 H1809 0.950 . S
C1788 H1784 0.949 . S
C1788 C1796 1.574 . S
C1788 C1804 1.368 . S
H1789 C1797 0.950 . S
H1790 C1795 0.950 . S
H1791 C1796 0.949 . S
H1792 C1798 0.950 . S
H1793 C1799 0.950 . S
H1794 C1800 0.949 . S
C1795 H1790 0.950 . S
C1795 C1797 1.327 . S
C1795 C1801 1.429 . S
C1796 C1788 1.574 . S
C1796 H1791 0.949 . S
C1796 C1802 1.368 . S
C1797 C1781 1.349 . S
C1797 H1789 0.950 . S
C1797 C1795 1.327 . S
C1798 C1786 1.349 . S
C1798 H1792 0.950 . S
C1798 C1799 1.327 . S
C1799 H1793 0.950 . S
C1799 C1798 1.327 . S
C1799 C1803 1.429 . S
C1800 C1783 1.574 . S
C1800 H1794 0.949 . S
C1800 C1804 1.368 . S
C1801 C1782 1.429 . S
C1801 C1795 1.429 . S
C1801 C1802 1.523 . S
C1802 C1783 1.368 . S
C1802 C1796 1.368 . S
C1802 C1801 1.523 . S
C1803 C1787 1.429 . S
C1803 C1799 1.429 . S
C1803 C1804 1.523 . S
C1804 C1788 1.368 . S
C1804 C1800 1.368 . S
C1804 C1803 1.523 . S
H1805 C1780 0.950 . S
H1806 C1782 0.950 . S
H1807 C1783 0.949 . S
H1808 C1785 0.950 . S
H1809 C1787 0.950 . S
C1810 C1811 1.349 . S
C1810 C1812 1.327 . S
C1810 H1835 0.950 . S
C1811 C1810 1.349 . S
C1811 C1827 1.349 . S
C1812 C1810 1.327 . S
C1812 C1831 1.429 . S
C1812 H1836 0.950 . S
C1813 C1830 1.574 . S
C1813 C1832 1.368 . S
C1813 H1837 0.949 . S
H1814 C1818 0.949 . S
C1815 C1816 1.349 . S
C1815 C1817 1.327 . S
C1815 H1838 0.950 . S
C1816 C1815 1.349 . S
C1816 C1828 1.349 . S
C1817 C1815 1.327 . S
C1817 C1833 1.429 . S
C1817 H1839 0.950 . S
C1818 H1814 0.949 . S
C1818 C1826 1.574 . S
C1818 C1834 1.368 . S
H1819 C1827 0.950 . S
H1820 C1825 0.950 . S
H1821 C1826 0.949 . S
H1822 C1828 0.950 . S
H1823 C1829 0.950 . S
H1824 C1830 0.949 . S
C1825 H1820 0.950 . S
C1825 C1827 1.327 . S
C1825 C1831 1.429 . S
C1826 C1818 1.574 . S
C1826 H1821 0.949 . S
C1826 C1832 1.368 . S
C1827 C1811 1.349 . S
C1827 H1819 0.950 . S
C1827 C1825 1.327 . S
C1828 C1816 1.349 . S
C1828 H1822 0.950 . S
C1828 C1829 1.327 . S
C1829 H1823 0.950 . S
C1829 C1828 1.327 . S
C1829 C1833 1.429 . S
C1830 C1813 1.574 . S
C1830 H1824 0.949 . S
C1830 C1834 1.368 . S
C1831 C1812 1.429 . S
C1831 C1825 1.429 . S
C1831 C1832 1.523 . S
C1832 C1813 1.368 . S
C1832 C1826 1.368 . S
C1832 C1831 1.523 . S
C1833 C1817 1.429 . S
C1833 C1829 1.429 . S
C1833 C1834 1.523 . S
C1834 C1818 1.368 . S
C1834 C1830 1.368 . S
C1834 C1833 1.523 . S
H1835 C1810 0.950 . S
H1836 C1812 0.950 . S
H1837 C1813 0.949 . S
H1838 C1815 0.950 . S
H1839 C1817 0.950 . S
C1840 C1841 1.349 . S
C1840 C1842 1.327 . S
C1840 H1865 0.950 . S
C1841 C1840 1.349 . S
C1841 C1857 1.349 . S
C1842 C1840 1.327 . S
C1842 C1861 1.429 . S
C1842 H1866 0.950 . S
C1843 C1860 1.574 . S
C1843 C1862 1.368 . S
C1843 H1867 0.949 . S
H1844 C1848 0.949 . S
C1845 C1846 1.349 . S
C1845 C1847 1.327 . S
C1845 H1868 0.950 . S
C1846 C1845 1.349 . S
C1846 C1858 1.349 . S
C1847 C1845 1.327 . S
C1847 C1863 1.429 . S
C1847 H1869 0.950 . S
C1848 H1844 0.949 . S
C1848 C1856 1.574 . S
C1848 C1864 1.368 . S
H1849 C1857 0.950 . S
H1850 C1855 0.950 . S
H1851 C1856 0.949 . S
H1852 C1858 0.950 . S
H1853 C1859 0.950 . S
H1854 C1860 0.949 . S
C1855 H1850 0.950 . S
C1855 C1857 1.327 . S
C1855 C1861 1.429 . S
C1856 C1848 1.574 . S
C1856 H1851 0.949 . S
C1856 C1862 1.368 . S
C1857 C1841 1.349 . S
C1857 H1849 0.950 . S
C1857 C1855 1.327 . S
C1858 C1846 1.349 . S
C1858 H1852 0.950 . S
C1858 C1859 1.327 . S
C1859 H1853 0.950 . S
C1859 C1858 1.327 . S
C1859 C1863 1.429 . S
C1860 C1843 1.574 . S
C1860 H1854 0.949 . S
C1860 C1864 1.368 . S
C1861 C1842 1.429 . S
C1861 C1855 1.429 . S
C1861 C1862 1.523 1_565 S
C1862 C1843 1.368 . S
C1862 C1856 1.368 . S
C1862 C1861 1.523 1_545 S
C1863 C1847 1.429 . S
C1863 C1859 1.429 . S
C1863 C1864 1.523 . S
C1864 C1848 1.368 . S
C1864 C1860 1.368 . S
C1864 C1863 1.523 . S
H1865 C1840 0.950 . S
H1866 C1842 0.950 . S
H1867 C1843 0.949 . S
H1868 C1845 0.950 . S
H1869 C1847 0.950 . S
C1870 C1871 1.349 . S
C1870 C1872 1.327 . S
C1870 H1895 0.950 . S
C1871 C1870 1.349 . S
C1871 C1887 1.349 . S
C1872 C1870 1.327 . S
C1872 C1891 1.429 . S
C1872 H1896 0.950 . S
C1873 C1890 1.574 . S
C1873 C1892 1.368 . S
C1873 H1897 0.949 . S
H1874 C1878 0.949 . S
C1875 C1876 1.349 . S
C1875 C1877 1.327 . S
C1875 H1898 0.950 . S
C1876 C1875 1.349 . S
C1876 C1888 1.349 . S
C1877 C1875 1.327 . S
C1877 C1893 1.429 . S
C1877 H1899 0.950 . S
C1878 H1874 0.949 . S
C1878 C1886 1.574 . S
C1878 C1894 1.368 . S
H1879 C1887 0.950 . S
H1880 C1885 0.950 . S
H1881 C1886 0.949 . S
H1882 C1888 0.950 . S
H1883 C1889 0.950 . S
H1884 C1890 0.949 . S
C1885 H1880 0.950 . S
C1885 C1887 1.327 . S
C1885 C1891 1.429 . S
C1886 C1878 1.574 . S
C1886 H1881 0.949 . S
C1886 C1892 1.368 . S
C1887 C1871 1.349 . S
C1887 H1879 0.950 . S
C1887 C1885 1.327 . S
C1888 C1876 1.349 . S
C1888 H1882 0.950 . S
C1888 C1889 1.327 . S
C1889 H1883 0.950 . S
C1889 C1888 1.327 . S
C1889 C1893 1.429 . S
C1890 C1873 1.574 . S
C1890 H1884 0.949 . S
C1890 C1894 1.368 . S
C1891 C1872 1.429 . S
C1891 C1885 1.429 . S
C1891 C1892 1.523 . S
C1892 C1873 1.368 . S
C1892 C1886 1.368 . S
C1892 C1891 1.523 . S
C1893 C1877 1.429 . S
C1893 C1889 1.429 . S
C1893 C1894 1.523 1_545 S
C1894 C1878 1.368 . S
C1894 C1890 1.368 . S
C1894 C1893 1.523 1_565 S
H1895 C1870 0.950 . S
H1896 C1872 0.950 . S
H1897 C1873 0.949 . S
H1898 C1875 0.950 . S
H1899 C1877 0.950 . S
C1900 C1901 1.349 . S
C1900 C1902 1.327 . S
C1900 H1925 0.950 . S
C1901 C1900 1.349 . S
C1901 C1917 1.349 . S
C1902 C1900 1.327 . S
C1902 C1921 1.429 . S
C1902 H1926 0.950 . S
C1903 C1920 1.574 . S
C1903 C1922 1.368 . S
C1903 H1927 0.949 . S
H1904 C1908 0.949 . S
C1905 C1906 1.349 . S
C1905 C1907 1.327 . S
C1905 H1928 0.950 . S
C1906 C1905 1.349 . S
C1906 C1918 1.349 . S
C1907 C1905 1.327 . S
C1907 C1923 1.429 . S
C1907 H1929 0.950 . S
C1908 H1904 0.949 . S
C1908 C1916 1.574 . S
C1908 C1924 1.368 . S
H1909 C1917 0.950 . S
H1910 C1915 0.950 . S
H1911 C1916 0.949 . S
H1912 C1918 0.950 . S
H1913 C1919 0.950 . S
H1914 C1920 0.949 . S
C1915 H1910 0.950 . S
C1915 C1917 1.327 . S
C1915 C1921 1.429 . S
C1916 C1908 1.574 . S
C1916 H1911 0.949 . S
C1916 C1922 1.368 . S
C1917 C1901 1.349 . S
C1917 H1909 0.950 . S
C1917 C1915 1.327 . S
C1918 C1906 1.349 . S
C1918 H1912 0.950 . S
C1918 C1919 1.327 . S
C1919 H1913 0.950 . S
C1919 C1918 1.327 . S
C1919 C1923 1.429 . S
C1920 C1903 1.574 . S
C1920 H1914 0.949 . S
C1920 C1924 1.368 . S
C1921 C1902 1.429 . S
C1921 C1915 1.429 . S
C1921 C1922 1.523 1_545 S
C1922 C1903 1.368 . S
C1922 C1916 1.368 . S
C1922 C1921 1.523 1_565 S
C1923 C1907 1.429 . S
C1923 C1919 1.429 . S
C1923 C1924 1.523 . S
C1924 C1908 1.368 . S
C1924 C1920 1.368 . S
C1924 C1923 1.523 . S
H1925 C1900 0.950 . S
H1926 C1902 0.950 . S
H1927 C1903 0.949 . S
H1928 C1905 0.950 . S
H1929 C1907 0.950 . S
C1930 C1931 1.349 . S
C1930 C1932 1.327 . S
C1930 H1955 0.950 . S
C1931 C1930 1.349 . S
C1931 C1947 1.349 . S
C1932 C1930 1.327 . S
C1932 C1951 1.429 . S
C1932 H1956 0.950 . S
C1933 C1950 1.574 . S
C1933 C1952 1.368 . S
C1933 H1957 0.949 . S
H1934 C1938 0.949 . S
C1935 C1936 1.349 . S
C1935 C1937 1.327 . S
C1935 H1958 0.950 . S
C1936 C1935 1.349 . S
C1936 C1948 1.349 . S
C1937 C1935 1.327 . S
C1937 C1953 1.429 . S
C1937 H1959 0.950 . S
C1938 H1934 0.949 . S
C1938 C1946 1.574 . S
C1938 C1954 1.368 . S
H1939 C1947 0.950 . S
H1940 C1945 0.950 . S
H1941 C1946 0.949 . S
H1942 C1948 0.950 . S
H1943 C1949 0.950 . S
H1944 C1950 0.949 . S
C1945 H1940 0.950 . S
C1945 C1947 1.327 . S
C1945 C1951 1.429 . S
C1946 C1938 1.574 . S
C1946 H1941 0.949 . S
C1946 C1952 1.368 . S
C1947 C1931 1.349 . S
C1947 H1939 0.950 . S
C1947 C1945 1.327 . S
C1948 C1936 1.349 . S
C1948 H1942 0.950 . S
C1948 C1949 1.327 . S
C1949 H1943 0.950 . S
C1949 C1948 1.327 . S
C1949 C1953 1.429 . S
C1950 C1933 1.574 . S
C1950 H1944 0.949 . S
C1950 C1954 1.368 . S
C1951 C1932 1.429 . S
C1951 C1945 1.429 . S
C1951 C1952 1.523 1_565 S
C1952 C1933 1.368 . S
C1952 C1946 1.368 . S
C1952 C1951 1.523 1_545 S
C1953 C1937 1.429 . S
C1953 C1949 1.429 . S
C1953 C1954 1.523 . S
C1954 C1938 1.368 . S
C1954 C1950 1.368 . S
C1954 C1953 1.523 . S
H1955 C1930 0.950 . S
H1956 C1932 0.950 . S
H1957 C1933 0.949 . S
H1958 C1935 0.950 . S
H1959 C1937 0.950 . S
C1960 C1961 1.349 . S
C1960 C1962 1.327 . S
C1960 H1985 0.950 . S
C1961 C1960 1.349 . S
C1961 C1977 1.349 . S
C1962 C1960 1.327 . S
C1962 C1981 1.429 . S
C1962 H1986 0.950 . S
C1963 C1980 1.574 . S
C1963 C1982 1.368 . S
C1963 H1987 0.949 . S
H1964 C1968 0.949 . S
C1965 C1966 1.349 . S
C1965 C1967 1.327 . S
C1965 H1988 0.950 . S
C1966 C1965 1.349 . S
C1966 C1978 1.349 . S
C1967 C1965 1.327 . S
C1967 C1983 1.429 . S
C1967 H1989 0.950 . S
C1968 H1964 0.949 . S
C1968 C1976 1.574 . S
C1968 C1984 1.368 . S
H1969 C1977 0.950 . S
H1970 C1975 0.950 . S
H1971 C1976 0.949 . S
H1972 C1978 0.950 . S
H1973 C1979 0.950 . S
H1974 C1980 0.949 . S
C1975 H1970 0.950 . S
C1975 C1977 1.327 . S
C1975 C1981 1.429 . S
C1976 C1968 1.574 . S
C1976 H1971 0.949 . S
C1976 C1982 1.368 . S
C1977 C1961 1.349 . S
C1977 H1969 0.950 . S
C1977 C1975 1.327 . S
C1978 C1966 1.349 . S
C1978 H1972 0.950 . S
C1978 C1979 1.327 . S
C1979 H1973 0.950 . S
C1979 C1978 1.327 . S
C1979 C1983 1.429 . S
C1980 C1963 1.574 . S
C1980 H1974 0.949 . S
C1980 C1984 1.368 . S
C1981 C1962 1.429 . S
C1981 C1975 1.429 . S
C1981 C1982 1.523 . S
C1982 C1963 1.368 . S
C1982 C1976 1.368 . S
C1982 C1981 1.523 . S
C1983 C1967 1.429 . S
C1983 C1979 1.429 . S
C1983 C1984 1.523 1_545 S
C1984 C1968 1.368 . S
C1984 C1980 1.368 . S
C1984 C1983 1.523 1_565 S
H1985 C1960 0.950 . S
H1986 C1962 0.950 . S
H1987 C1963 0.949 . S
H1988 C1965 0.950 . S
H1989 C1967 0.950 . S
C1990 C1991 1.349 . S
C1990 C1992 1.327 . S
C1990 H2015 0.950 . S
C1991 C1990 1.349 . S
C1991 C2007 1.349 . S
C1992 C1990 1.327 . S
C1992 C2011 1.429 . S
C1992 H2016 0.950 . S
C1993 C2010 1.574 . S
C1993 C2012 1.368 . S
C1993 H2017 0.949 . S
H1994 C1998 0.949 . S
C1995 C1996 1.349 . S
C1995 C1997 1.327 . S
C1995 H2018 0.950 . S
C1996 C1995 1.349 . S
C1996 C2008 1.349 . S
C1997 C1995 1.327 . S
C1997 C2013 1.429 . S
C1997 H2019 0.950 . S
C1998 H1994 0.949 . S
C1998 C2006 1.574 . S
C1998 C2014 1.368 . S
H1999 C2007 0.950 . S
H2000 C2005 0.950 . S
H2001 C2006 0.949 . S
H2002 C2008 0.950 . S
H2003 C2009 0.950 . S
H2004 C2010 0.949 . S
C2005 H2000 0.950 . S
C2005 C2007 1.327 . S
C2005 C2011 1.429 . S
C2006 C1998 1.574 . S
C2006 H2001 0.949 . S
C2006 C2012 1.368 . S
C2007 C1991 1.349 . S
C2007 H1999 0.950 . S
C2007 C2005 1.327 . S
C2008 C1996 1.349 . S
C2008 H2002 0.950 . S
C2008 C2009 1.327 . S
C2009 H2003 0.950 . S
C2009 C2008 1.327 . S
C2009 C2013 1.429 . S
C2010 C1993 1.574 . S
C2010 H2004 0.949 . S
C2010 C2014 1.368 . S
C2011 C1992 1.429 . S
C2011 C2005 1.429 . S
C2011 C2012 1.523 . S
C2012 C1993 1.368 . S
C2012 C2006 1.368 . S
C2012 C2011 1.523 . S
C2013 C1997 1.429 . S
C2013 C2009 1.429 . S
C2013 C2014 1.523 1_565 S
C2014 C1998 1.368 . S
C2014 C2010 1.368 . S
C2014 C2013 1.523 1_545 S
H2015 C1990 0.950 . S
H2016 C1992 0.950 . S
H2017 C1993 0.949 . S
H2018 C1995 0.950 . S
H2019 C1997 0.950 . S
C2020 C2021 1.349 . S
C2020 C2022 1.327 . S
C2020 H2045 0.950 . S
C2021 C2020 1.349 . S
C2021 C2037 1.349 . S
C2022 C2020 1.327 . S
C2022 C2041 1.429 . S
C2022 H2046 0.950 . S
C2023 C2040 1.574 . S
C2023 C2042 1.368 . S
C2023 H2047 0.949 . S
H2024 C2028 0.949 . S
C2025 C2026 1.349 . S
C2025 C2027 1.327 . S
C2025 H2048 0.950 . S
C2026 C2025 1.349 . S
C2026 C2038 1.349 . S
C2027 C2025 1.327 . S
C2027 C2043 1.429 . S
C2027 H2049 0.950 . S
C2028 H2024 0.949 . S
C2028 C2036 1.574 . S
C2028 C2044 1.368 . S
H2029 C2037 0.950 . S
H2030 C2035 0.950 . S
H2031 C2036 0.949 . S
H2032 C2038 0.950 . S
H2033 C2039 0.950 . S
H2034 C2040 0.949 . S
C2035 H2030 0.950 . S
C2035 C2037 1.327 . S
C2035 C2041 1.429 . S
C2036 C2028 1.574 . S
C2036 H2031 0.949 . S
C2036 C2042 1.368 . S
C2037 C2021 1.349 . S
C2037 H2029 0.950 . S
C2037 C2035 1.327 . S
C2038 C2026 1.349 . S
C2038 H2032 0.950 . S
C2038 C2039 1.327 . S
C2039 H2033 0.950 . S
C2039 C2038 1.327 . S
C2039 C2043 1.429 . S
C2040 C2023 1.574 . S
C2040 H2034 0.949 . S
C2040 C2044 1.368 . S
C2041 C2022 1.429 . S
C2041 C2035 1.429 . S
C2041 C2042 1.523 1_565 S
C2042 C2023 1.368 . S
C2042 C2036 1.368 . S
C2042 C2041 1.523 1_545 S
C2043 C2027 1.429 . S
C2043 C2039 1.429 . S
C2043 C2044 1.523 . S
C2044 C2028 1.368 . S
C2044 C2040 1.368 . S
C2044 C2043 1.523 . S
H2045 C2020 0.950 . S
H2046 C2022 0.950 . S
H2047 C2023 0.949 . S
H2048 C2025 0.950 . S
H2049 C2027 0.950 . S
C2050 C2051 1.349 . S
C2050 C2052 1.327 . S
C2050 H2075 0.950 . S
C2051 C2050 1.349 . S
C2051 C2067 1.349 . S
C2052 C2050 1.327 . S
C2052 C2071 1.429 . S
C2052 H2076 0.950 . S
C2053 C2070 1.574 . S
C2053 C2072 1.368 . S
C2053 H2077 0.949 . S
H2054 C2058 0.949 . S
C2055 C2056 1.349 . S
C2055 C2057 1.327 . S
C2055 H2078 0.950 . S
C2056 C2055 1.349 . S
C2056 C2068 1.349 . S
C2057 C2055 1.327 . S
C2057 C2073 1.429 . S
C2057 H2079 0.950 . S
C2058 H2054 0.949 . S
C2058 C2066 1.574 . S
C2058 C2074 1.368 . S
H2059 C2067 0.950 . S
H2060 C2065 0.950 . S
H2061 C2066 0.949 . S
H2062 C2068 0.950 . S
H2063 C2069 0.950 . S
H2064 C2070 0.949 . S
C2065 H2060 0.950 . S
C2065 C2067 1.327 . S
C2065 C2071 1.429 . S
C2066 C2058 1.574 . S
C2066 H2061 0.949 . S
C2066 C2072 1.368 . S
C2067 C2051 1.349 . S
C2067 H2059 0.950 . S
C2067 C2065 1.327 . S
C2068 C2056 1.349 . S
C2068 H2062 0.950 . S
C2068 C2069 1.327 . S
C2069 H2063 0.950 . S
C2069 C2068 1.327 . S
C2069 C2073 1.429 . S
C2070 C2053 1.574 . S
C2070 H2064 0.949 . S
C2070 C2074 1.368 . S
C2071 C2052 1.429 . S
C2071 C2065 1.429 . S
C2071 C2072 1.523 . S
C2072 C2053 1.368 . S
C2072 C2066 1.368 . S
C2072 C2071 1.523 . S
C2073 C2057 1.429 . S
C2073 C2069 1.429 . S
C2073 C2074 1.523 1_545 S
C2074 C2058 1.368 . S
C2074 C2070 1.368 . S
C2074 C2073 1.523 1_565 S
H2075 C2050 0.950 . S
H2076 C2052 0.950 . S
H2077 C2053 0.949 . S
H2078 C2055 0.950 . S
H2079 C2057 0.950 . S
C641 C15 1.899 . S
C646 C375 1.899 . S
C671 C55 1.899 . S
C676 C335 1.899 . S
C701 C455 1.899 . S
C706 C95 1.899 . S
C731 C135 1.899 . S
C736 C415 1.899 . S
C761 C526 1.899 . S
C766 C166 1.899 . S
C791 C486 1.899 . S
C796 C206 1.899 . S
C821 C606 1.899 . S
C826 C246 1.899 . S
C851 C286 1.899 . S
C856 C566 1.899 . S
C881 C98 1.513 . S
C886 C18 1.513 . S
C911 C138 1.513 . S
C916 C58 1.513 . S
C941 C249 1.513 . S
C946 C169 1.513 . S
C971 C209 1.513 . S
C976 C289 1.513 . S
C1001 C418 1.513 . S
C1006 C338 1.513 . S
C1031 C458 1.513 . S
C1036 C378 1.513 . S
C1061 C489 1.513 . S
C1066 C569 1.513 . S
C1091 C529 1.513 . S
C1096 C609 1.513 . S
C1121 C218 1.512 . S
C1126 C9 1.512 . S
C1151 C178 1.512 . S
C1156 C49 1.512 . S
C1181 C89 1.512 . S
C1186 C298 1.512 . S
C1211 C258 1.512 . S
C1216 C129 1.512 . S
C1241 C329 1.512 . S
C1246 C538 1.512 . S
C1271 C498 1.512 . S
C1276 C369 1.512 . S
C1301 C409 1.512 . S
C1306 C618 1.512 . S
C1331 C578 1.512 . S
C1336 C449 1.512 . S
C1361 C46 2.151 . S
C1366 C6 2.151 . S
C1391 C126 2.151 . S
C1396 C86 2.151 . S
C1421 C215 2.151 . S
C1426 C175 2.151 . S
C1451 C255 2.151 . S
C1456 C295 2.151 . S
C1481 C366 2.151 . S
C1486 C326 2.151 . S
C1511 C446 2.151 . S
C1516 C406 2.151 . S
C1541 C495 2.151 . S
C1546 C535 2.151 . S
C1571 C575 2.151 . S
C1576 C615 2.151 . S
C1601 C10 2.520 . S
C1606 C19 2.520 . S
C1631 C50 2.520 . S
C1636 C59 2.520 . S
C1661 C90 2.520 . S
C1666 C99 2.520 . S
C1691 C139 2.520 . S
C1696 C130 2.520 . S
C1721 C179 2.520 . S
C1726 C170 2.520 . S
C1751 C210 2.520 . S
C1756 C219 2.520 . S
C1781 C259 2.520 . S
C1786 C250 2.520 . S
C1811 C299 2.520 . S
C1816 C290 2.520 . S
C1841 C339 2.520 . S
C1846 C330 2.520 . S
C1871 C370 2.520 . S
C1876 C379 2.520 . S
C1901 C419 2.520 . S
C1906 C410 2.520 . S
C1931 C459 2.520 . S
C1936 C450 2.520 . S
C1961 C499 2.520 . S
C1966 C490 2.520 . S
C1991 C539 2.520 . S
C1996 C530 2.520 . S
C2021 C570 2.520 . S
C2026 C579 2.520 . S
C2051 C619 2.520 . S
C2056 C610 2.520 . S
