# Generated by pormake.
# Topology wne, (6)-cn, num edge types: 1
# Building blocks:
#     Node 0, Type 0, BuildingBlock: MIDCAF_clean_sbu_0, # of connection points: 6
#     Node 1, Type 0, BuildingBlock: MIDCAF_clean_sbu_0, # of connection points: 6
#     Node 2, Type 0, BuildingBlock: MIDCAF_clean_sbu_0, # of connection points: 6
#     Node 3, Type 0, BuildingBlock: MIDCAF_clean_sbu_0, # of connection points: 6
#     Node 4, Type 0, BuildingBlock: MIDCAF_clean_sbu_0, # of connection points: 6
#     Node 5, Type 0, BuildingBlock: MIDCAF_clean_sbu_0, # of connection points: 6
#     Node 6, Type 0, BuildingBlock: MIDCAF_clean_sbu_0, # of connection points: 6
#     Node 7, Type 0, BuildingBlock: MIDCAF_clean_sbu_0, # of connection points: 6
#     Node 8, Type 0, BuildingBlock: MIDCAF_clean_sbu_0, # of connection points: 6
#     Node 9, Type 0, BuildingBlock: MIDCAF_clean_sbu_0, # of connection points: 6
#     Node 10, Type 0, BuildingBlock: MIDCAF_clean_sbu_0, # of connection points: 6
#     Node 11, Type 0, BuildingBlock: MIDCAF_clean_sbu_0, # of connection points: 6
#     Node 12, Type 0, BuildingBlock: MIDCAF_clean_sbu_0, # of connection points: 6
#     Node 13, Type 0, BuildingBlock: MIDCAF_clean_sbu_0, # of connection points: 6
#     Node 14, Type 0, BuildingBlock: MIDCAF_clean_sbu_0, # of connection points: 6
#     Node 15, Type 0, BuildingBlock: MIDCAF_clean_sbu_0, # of connection points: 6
#     Node 16, Type 0, BuildingBlock: MIDCAF_clean_sbu_0, # of connection points: 6
#     Node 17, Type 0, BuildingBlock: MIDCAF_clean_sbu_0, # of connection points: 6
#     Node 18, Type 0, BuildingBlock: MIDCAF_clean_sbu_0, # of connection points: 6
#     Node 19, Type 0, BuildingBlock: MIDCAF_clean_sbu_0, # of connection points: 6
#     Node 20, Type 0, BuildingBlock: MIDCAF_clean_sbu_0, # of connection points: 6
#     Node 21, Type 0, BuildingBlock: MIDCAF_clean_sbu_0, # of connection points: 6
#     Node 22, Type 0, BuildingBlock: MIDCAF_clean_sbu_0, # of connection points: 6
#     Node 23, Type 0, BuildingBlock: MIDCAF_clean_sbu_0, # of connection points: 6
#     Node 24, Type 0, BuildingBlock: MIDCAF_clean_sbu_0, # of connection points: 6
#     Node 25, Type 0, BuildingBlock: MIDCAF_clean_sbu_0, # of connection points: 6
#     Node 26, Type 0, BuildingBlock: MIDCAF_clean_sbu_0, # of connection points: 6
#     Node 27, Type 0, BuildingBlock: MIDCAF_clean_sbu_0, # of connection points: 6
#     Node 28, Type 0, BuildingBlock: MIDCAF_clean_sbu_0, # of connection points: 6
#     Node 29, Type 0, BuildingBlock: MIDCAF_clean_sbu_0, # of connection points: 6
#     Node 30, Type 0, BuildingBlock: MIDCAF_clean_sbu_0, # of connection points: 6
#     Node 31, Type 0, BuildingBlock: MIDCAF_clean_sbu_0, # of connection points: 6
#     Node 32, Type 0, BuildingBlock: MIDCAF_clean_sbu_0, # of connection points: 6
#     Node 33, Type 0, BuildingBlock: MIDCAF_clean_sbu_0, # of connection points: 6
#     Node 34, Type 0, BuildingBlock: MIDCAF_clean_sbu_0, # of connection points: 6
#     Node 35, Type 0, BuildingBlock: MIDCAF_clean_sbu_0, # of connection points: 6
#     Edge 36, Type (0, 0), None
#     Edge 37, Type (0, 0), None
#     Edge 38, Type (0, 0), None
#     Edge 39, Type (0, 0), None
#     Edge 40, Type (0, 0), None
#     Edge 41, Type (0, 0), None
#     Edge 42, Type (0, 0), None
#     Edge 43, Type (0, 0), None
#     Edge 44, Type (0, 0), None
#     Edge 45, Type (0, 0), None
#     Edge 46, Type (0, 0), None
#     Edge 47, Type (0, 0), None
#     Edge 48, Type (0, 0), None
#     Edge 49, Type (0, 0), None
#     Edge 50, Type (0, 0), None
#     Edge 51, Type (0, 0), None
#     Edge 52, Type (0, 0), None
#     Edge 53, Type (0, 0), None
#     Edge 54, Type (0, 0), None
#     Edge 55, Type (0, 0), None
#     Edge 56, Type (0, 0), None
#     Edge 57, Type (0, 0), None
#     Edge 58, Type (0, 0), None
#     Edge 59, Type (0, 0), None
#     Edge 60, Type (0, 0), None
#     Edge 61, Type (0, 0), None
#     Edge 62, Type (0, 0), None
#     Edge 63, Type (0, 0), None
#     Edge 64, Type (0, 0), None
#     Edge 65, Type (0, 0), None
#     Edge 66, Type (0, 0), None
#     Edge 67, Type (0, 0), None
#     Edge 68, Type (0, 0), None
#     Edge 69, Type (0, 0), None
#     Edge 70, Type (0, 0), None
#     Edge 71, Type (0, 0), None
#     Edge 72, Type (0, 0), None
#     Edge 73, Type (0, 0), None
#     Edge 74, Type (0, 0), None
#     Edge 75, Type (0, 0), None
#     Edge 76, Type (0, 0), None
#     Edge 77, Type (0, 0), None
#     Edge 78, Type (0, 0), None
#     Edge 79, Type (0, 0), None
#     Edge 80, Type (0, 0), None
#     Edge 81, Type (0, 0), None
#     Edge 82, Type (0, 0), None
#     Edge 83, Type (0, 0), None
#     Edge 84, Type (0, 0), None
#     Edge 85, Type (0, 0), None
#     Edge 86, Type (0, 0), None
#     Edge 87, Type (0, 0), None
#     Edge 88, Type (0, 0), None
#     Edge 89, Type (0, 0), None
#     Edge 90, Type (0, 0), None
#     Edge 91, Type (0, 0), None
#     Edge 92, Type (0, 0), None
#     Edge 93, Type (0, 0), None
#     Edge 94, Type (0, 0), None
#     Edge 95, Type (0, 0), None
#     Edge 96, Type (0, 0), None
#     Edge 97, Type (0, 0), None
#     Edge 98, Type (0, 0), None
#     Edge 99, Type (0, 0), None
#     Edge 100, Type (0, 0), None
#     Edge 101, Type (0, 0), None
#     Edge 102, Type (0, 0), None
#     Edge 103, Type (0, 0), None
#     Edge 104, Type (0, 0), None
#     Edge 105, Type (0, 0), None
#     Edge 106, Type (0, 0), None
#     Edge 107, Type (0, 0), None
#     Edge 108, Type (0, 0), None
#     Edge 109, Type (0, 0), None
#     Edge 110, Type (0, 0), None
#     Edge 111, Type (0, 0), None
#     Edge 112, Type (0, 0), None
#     Edge 113, Type (0, 0), None
#     Edge 114, Type (0, 0), None
#     Edge 115, Type (0, 0), None
#     Edge 116, Type (0, 0), None
#     Edge 117, Type (0, 0), None
#     Edge 118, Type (0, 0), None
#     Edge 119, Type (0, 0), None
#     Edge 120, Type (0, 0), None
#     Edge 121, Type (0, 0), None
#     Edge 122, Type (0, 0), None
#     Edge 123, Type (0, 0), None
#     Edge 124, Type (0, 0), None
#     Edge 125, Type (0, 0), None
#     Edge 126, Type (0, 0), None
#     Edge 127, Type (0, 0), None
#     Edge 128, Type (0, 0), None
#     Edge 129, Type (0, 0), None
#     Edge 130, Type (0, 0), None
#     Edge 131, Type (0, 0), None
#     Edge 132, Type (0, 0), None
#     Edge 133, Type (0, 0), None
#     Edge 134, Type (0, 0), None
#     Edge 135, Type (0, 0), None
#     Edge 136, Type (0, 0), None
#     Edge 137, Type (0, 0), None
#     Edge 138, Type (0, 0), None
#     Edge 139, Type (0, 0), None
#     Edge 140, Type (0, 0), None
#     Edge 141, Type (0, 0), None
#     Edge 142, Type (0, 0), None
#     Edge 143, Type (0, 0), None
# Relax obj value: 0.205
# Max RMSD: 0.142
# Mean RMSD: 0.142
data_MOF--net-wne--node1-MIDCAF_clean_sbu_0--edge1-none
_symmetry_space_group_name_H-M    P1
_symmetry_Int_Tables_number       1
_symmetry_cell_setting            triclinic
loop_
_symmetry_equiv_pos_as_xyz
'x, y, z'
_cell_length_a     28.230778
_cell_length_b     28.235164
_cell_length_c     19.853122
_cell_angle_alpha  89.998832
_cell_angle_beta   89.997103
_cell_angle_gamma 120.00114
loop_
_atom_site_label
_atom_site_type_symbol
_atom_site_fract_x
_atom_site_fract_y
_atom_site_fract_z
_atom_type_partial_charge
Zn0 Zn 0.31696 0.1412 -0.02287 0.0
Zn1 Zn 0.12566 0.22201 0.11156 0.0
Zn2 Zn 0.2357 0.19225 0.03603 0.0
C3 C 0.18721 0.20565 0.19183 0.0
C4 C 0.11392 0.14715 0.01394 0.0
O5 O 0.28371 0.24819 0.9464 0.0
O6 O 0.34344 0.22544 -0.0268 0.0
C7 C 0.31832 0.15178 0.10192 0.0
O8 O 0.20135 0.20286 0.1309 0.0
O9 O 0.1498 0.21711 0.20295 0.0
O10 O 0.10118 0.14453 0.07509 0.0
O11 O 0.15317 0.1386 0.00012 0.0
O12 O 0.33779 0.12765 0.06765 0.0
O13 O 0.28682 0.16597 0.07424 0.0
O14 O 0.18575 0.11954 -0.02043 0.0
O15 O 0.23729 0.08091 0.96395 0.0
C16 C 0.19176 0.0791 0.96183 0.0
O17 O 0.26776 0.27841 0.03041 0.0
O18 O 0.20238 0.28738 0.08385 0.0
C19 C 0.32779 0.24774 0.93017 0.0
C20 C 0.25032 0.3076 0.05925 0.0
Zn21 Zn 0.86058 0.17611 -0.02298 0.0
Zn22 Zn 0.77976 0.904 0.11166 0.0
Zn23 Zn 0.80941 0.04379 0.03605 0.0
C24 C 0.79611 0.98192 0.1919 0.0
C25 C 0.85465 0.96716 0.01408 0.0
O26 O 0.75359 0.03591 0.94628 0.0
O27 O 0.77632 0.11837 -0.02696 0.0
C28 C 0.84975 0.16691 0.10167 0.0
O29 O 0.79886 0.99886 0.13098 0.0
O30 O 0.78461 0.93304 0.20301 0.0
O31 O 0.85725 0.95703 0.07523 0.0
O32 O 0.86312 0.01492 0.00027 0.0
O33 O 0.874 0.21053 0.06746 0.0
O34 O 0.83565 0.12124 0.07403 0.0
O35 O 0.88212 0.06652 -0.02038 0.0
O36 O 0.92087 0.15671 0.96407 0.0
C37 C 0.92261 0.11296 0.96192 0.0
O38 O 0.72322 0.98957 0.03037 0.0
O39 O 0.7144 0.91529 0.08382 0.0
C40 C 0.75405 0.08042 0.93001 0.0
C41 C 0.6941 0.94291 0.05918 0.0
Zn42 Zn 0.82579 0.68518 -0.02273 0.0
Zn43 Zn 0.09783 0.87603 0.11158 0.0
Zn44 Zn 0.95796 0.76608 0.03615 0.0
C45 C 0.01988 0.81461 0.19195 0.0
C46 C 0.03472 0.88788 0.01409 0.0
O47 O 0.96591 0.71818 0.94643 0.0
O48 O 0.88339 0.65839 -0.02699 0.0
C49 C 0.83496 0.68325 0.10185 0.0
O50 O 0.00291 0.80043 0.13104 0.0
O51 O 0.06879 0.85197 0.20301 0.0
O52 O 0.04498 0.90073 0.07519 0.0
O53 O 0.98687 0.84865 0.00046 0.0
O54 O 0.79132 0.66396 0.06769 0.0
O55 O 0.88062 0.71485 0.0742 0.0
O56 O 0.93531 0.81605 -0.02049 0.0
O57 O 0.84506 0.76487 0.96426 0.0
C58 C 0.88892 0.81024 0.96183 0.0
O59 O 0.01191 0.73386 0.03037 0.0
O60 O 0.0862 0.7992 0.08388 0.0
C61 C 0.92145 0.67409 0.9301 0.0
C62 C 0.05848 0.75125 0.05934 0.0
Zn63 Zn 0.22136 0.12428 0.32753 0.0
Zn64 Zn 0.14132 0.31704 0.46213 0.0
Zn65 Zn 0.19222 0.23503 0.40324 0.0
C66 C 0.0793 0.19146 0.47769 0.0
C67 C 0.1517 0.31719 0.33724 0.0
O68 O 0.27837 0.26655 0.4088 0.0
O69 O 0.28663 0.20058 0.35579 0.0
C70 C 0.14707 0.1132 0.42551 0.0
O71 O 0.11944 0.18515 0.45933 0.0
O72 O 0.08151 0.23721 0.47634 0.0
O73 O 0.12756 0.33693 0.37105 0.0
O74 O 0.16568 0.28581 0.36547 0.0
O75 O 0.14413 0.09998 0.36449 0.0
O76 O 0.13841 0.15244 0.43894 0.0
O77 O 0.20294 0.2007 0.30841 0.0
O78 O 0.21711 0.14916 0.23626 0.0
C79 C 0.20583 0.18669 0.24745 0.0
O80 O 0.24797 0.28378 0.49276 0.0
O81 O 0.22565 0.34369 0.46527 0.0
C82 C 0.30723 0.24853 0.38034 0.0
C83 C 0.24794 0.32817 0.50845 0.0
Zn84 Zn 0.87762 0.09748 0.3276 0.0
Zn85 Zn 0.68461 0.82448 0.46216 0.0
Zn86 Zn 0.76668 0.95733 0.40312 0.0
C87 C 0.81022 0.88807 0.47776 0.0
C88 C 0.68433 0.83469 0.33722 0.0
O89 O 0.73515 0.01196 0.40881 0.0
O90 O 0.8012 0.0862 0.35594 0.0
C91 C 0.88869 0.03403 0.4252 0.0
O92 O 0.81656 0.93447 0.45919 0.0
O93 O 0.76446 0.84452 0.4765 0.0
O94 O 0.66461 0.79085 0.37108 0.0
O95 O 0.71578 0.88007 0.36536 0.0
O96 O 0.90228 0.04474 0.36432 0.0
O97 O 0.84946 0.98599 0.43807 0.0
O98 O 0.80117 0.0026 0.30849 0.0
O99 O 0.85269 0.06832 0.23632 0.0
C100 C 0.81517 0.0195 0.24753 0.0
O101 O 0.71815 0.96446 0.49278 0.0
O102 O 0.65805 0.88226 0.46543 0.0
C103 C 0.75321 0.05886 0.38042 0.0
C104 C 0.67369 0.92012 0.50856 0.0
Zn105 Zn 0.90427 0.78062 0.3276 0.0
Zn106 Zn 0.17716 0.86036 0.46225 0.0
Zn107 Zn 0.04443 0.80966 0.40327 0.0
C108 C 0.11369 0.92246 0.47778 0.0
C109 C 0.16709 0.84982 0.33743 0.0
O110 O 0.98963 0.72357 0.40878 0.0
O111 O 0.91538 0.7154 0.35593 0.0
C112 C 0.96776 0.85503 0.42519 0.0
O113 O 0.06726 0.88238 0.45931 0.0
O114 O 0.15724 0.92025 0.47641 0.0
O115 O 0.2109 0.87393 0.37133 0.0
O116 O 0.12166 0.83589 0.36544 0.0
O117 O 0.95711 0.85797 0.36431 0.0
O118 O 0.01579 0.86382 0.4381 0.0
O119 O 0.9992 0.79892 0.30856 0.0
O120 O 0.93349 0.78474 0.23639 0.0
C121 C 0.98231 0.79605 0.2476 0.0
O122 O 0.03727 0.75407 0.49305 0.0
O123 O 0.11944 0.77605 0.46561 0.0
C124 C 0.94271 0.69476 0.38044 0.0
C125 C 0.08159 0.7539 0.50878 0.0
Zn126 Zn 0.68499 0.86091 0.96259 0.0
Zn127 Zn 0.87759 0.78078 0.82852 0.0
Zn128 Zn 0.76672 0.80951 0.90394 0.0
C129 C 0.81535 0.79615 0.74796 0.0
C130 C 0.88847 0.85474 0.92675 0.0
O131 O 0.71764 0.75348 -0.00677 0.0
O132 O 0.65835 0.77664 0.96572 0.0
C133 C 0.68476 0.85056 0.83786 0.0
O134 O 0.801 0.79909 0.80874 0.0
O135 O 0.85295 0.78489 0.7372 0.0
O136 O 0.90131 0.8578 0.86557 0.0
O137 O 0.849 0.86288 0.94091 0.0
O138 O 0.66502 0.8747 0.87163 0.0
O139 O 0.71604 0.83642 0.86619 0.0
O140 O 0.81633 0.88211 0.96048 0.0
O141 O 0.7648 0.92074 -0.02338 0.0
C142 C 0.81032 0.92249 -0.02147 0.0
O143 O 0.73515 0.72336 0.90935 0.0
O144 O 0.80127 0.71539 0.85627 0.0
C145 C 0.67354 0.7541 0.00894 0.0
C146 C 0.75327 0.69465 0.88072 0.0
Zn147 Zn 0.22113 0.09682 0.8284 0.0
Zn148 Zn 0.14075 0.82422 0.96255 0.0
Zn149 Zn 0.19243 0.95752 0.90382 0.0
C150 C 0.07928 0.88804 -0.02155 0.0
C151 C 0.15135 0.83464 0.83779 0.0
O152 O 0.27861 0.01199 0.90913 0.0
O153 O 0.28663 0.08607 0.85601 0.0
C154 C 0.1473 0.03394 0.92699 0.0
O155 O 0.11977 0.93439 0.96045 0.0
O156 O 0.08088 0.84419 -0.02348 0.0
O157 O 0.12708 0.79074 0.87151 0.0
O158 O 0.1655 0.88003 0.86609 0.0
O159 O 0.14424 0.04341 0.8657 0.0
O160 O 0.13934 0.98648 0.94159 0.0
O161 O 0.20278 0.00204 0.80853 0.0
O162 O 0.21692 0.06817 0.737 0.0
C163 C 0.20572 0.01933 0.74775 0.0
O164 O 0.24858 0.96451 -0.00704 0.0
O165 O 0.22506 0.88194 0.96569 0.0
C166 C 0.30734 0.05879 0.88045 0.0
C167 C 0.24777 0.91973 0.00881 0.0
Zn168 Zn 0.17762 0.31687 0.96248 0.0
Zn169 Zn 0.90489 0.12474 0.82861 0.0
Zn170 Zn 0.0442 0.23519 0.90392 0.0
C171 C 0.98237 0.18665 0.74789 0.0
C172 C 0.96774 0.11362 0.92705 0.0
O173 O 0.03744 0.28456 -0.00699 0.0
O174 O 0.12001 0.34356 0.96555 0.0
C175 C 0.16697 0.31669 0.83771 0.0
O176 O 0.99969 0.20104 0.80864 0.0
O177 O 0.93349 0.14908 0.73718 0.0
O178 O 0.95822 0.1011 0.86577 0.0
O179 O 0.01521 0.15312 0.94161 0.0
O180 O 0.21094 0.33643 0.87132 0.0
O181 O 0.12165 0.28556 0.86619 0.0
O182 O 0.0673 0.18564 0.96049 0.0
O183 O 0.1575 0.23701 -0.02347 0.0
C184 C 0.11367 0.19155 -0.02157 0.0
O185 O 0.98989 0.26708 0.90952 0.0
O186 O 0.91585 0.20107 0.85629 0.0
C187 C 0.08228 0.32853 0.00875 0.0
C188 C 0.94312 0.24905 0.88078 0.0
Zn189 Zn 0.86208 0.6858 0.47741 0.0
Zn190 Zn 0.78002 0.87551 0.61092 0.0
Zn191 Zn 0.80998 0.76616 0.53596 0.0
C192 C 0.79663 0.81463 0.69197 0.0
C193 C 0.85464 0.88749 0.51284 0.0
O194 O 0.75368 0.71787 0.44675 0.0
O195 O 0.77762 0.65889 0.47287 0.0
C196 C 0.85065 0.68384 0.60192 0.0
O197 O 0.7996 0.80021 0.63125 0.0
O198 O 0.78515 0.85209 0.70257 0.0
O199 O 0.85729 0.89977 0.57416 0.0
O200 O 0.86284 0.84815 0.49825 0.0
O201 O 0.87518 0.66464 0.56798 0.0
O202 O 0.8365 0.71527 0.57399 0.0
O203 O 0.88248 0.8158 0.47863 0.0
O204 O 0.92257 0.76548 0.46413 0.0
C205 C 0.9234 0.8105 0.46106 0.0
O206 O 0.72377 0.73331 0.52995 0.0
O207 O 0.71485 0.79853 0.58375 0.0
C208 C 0.75478 0.67421 0.43015 0.0
C209 C 0.69462 0.75056 0.5593 0.0
Zn210 Zn 0.31639 0.1766 0.47759 0.0
Zn211 Zn 0.12614 0.90464 0.61087 0.0
Zn212 Zn 0.23579 0.04403 0.53591 0.0
C213 C 0.18722 0.9821 0.6918 0.0
C214 C 0.11432 0.96745 0.5129 0.0
O215 O 0.28418 0.03615 0.44671 0.0
O216 O 0.34312 0.11898 0.47316 0.0
C217 C 0.31789 0.16699 0.6023 0.0
O218 O 0.20161 0.99944 0.63106 0.0
O219 O 0.14975 0.93318 0.70247 0.0
O220 O 0.10198 0.95776 0.5742 0.0
O221 O 0.15372 0.01498 0.49839 0.0
O222 O 0.3372 0.21071 0.5683 0.0
O223 O 0.28658 0.1214 0.57435 0.0
O224 O 0.18613 0.06692 0.47874 0.0
O225 O 0.23675 0.15729 0.46397 0.0
C226 C 0.19161 0.11319 0.4611 0.0
O227 O 0.2684 0.99042 0.52993 0.0
O228 O 0.20302 0.91626 0.58356 0.0
C229 C 0.32787 0.08094 0.43029 0.0
C230 C 0.251 0.94392 0.55909 0.0
Zn231 Zn 0.09698 0.22161 0.61089 0.0
Zn232 Zn 0.82506 0.13961 0.47769 0.0
Zn233 Zn 0.9577 0.19183 0.53605 0.0
C234 C 0.88846 0.07834 0.46111 0.0
C235 C 0.83477 0.15118 0.60229 0.0
O236 O 0.01125 0.27808 0.53005 0.0
O237 O 0.08546 0.28692 0.58362 0.0
C238 C 0.03425 0.14708 0.51274 0.0
O239 O 0.93468 0.11925 0.47876 0.0
O240 O 0.84426 0.07917 0.46414 0.0
O241 O 0.79098 0.12661 0.56846 0.0
O242 O 0.88029 0.16529 0.57422 0.0
O243 O 0.04384 0.14441 0.57406 0.0
O244 O 0.98674 0.13897 0.49811 0.0
O245 O 0.00223 0.20227 0.63119 0.0
O246 O 0.06851 0.21666 0.70256 0.0
C247 C 0.01959 0.20525 0.69191 0.0
O248 O 0.96574 0.24813 0.44691 0.0
O249 O 0.88274 0.22403 0.47295 0.0
C250 C 0.05777 0.30721 0.55916 0.0
C251 C 0.92092 0.2469 0.43025 0.0
Zn252 Zn 0.98412 0.4736 0.31017 0.0
Zn253 Zn 0.78851 0.55226 0.44059 0.0
Zn254 Zn 0.90137 0.52191 0.36901 0.0
C255 C 0.85242 0.53864 0.52315 0.0
C256 C 0.77867 0.47579 0.34858 0.0
O257 O 0.94847 0.5771 0.27833 0.0
O258 O 0.01079 0.55811 0.30606 0.0
C259 C 0.98606 0.48507 0.43449 0.0
O260 O 0.86662 0.5344 0.46274 0.0
O261 O 0.81495 0.55032 0.53262 0.0
O262 O 0.75879 0.47313 0.40621 0.0
O263 O 0.81681 0.46406 0.34505 0.0
O264 O 0.00601 0.46114 0.40072 0.0
O265 O 0.95365 0.49786 0.40673 0.0
O266 O 0.85064 0.44817 0.31487 0.0
O267 O 0.90441 0.41243 0.29738 0.0
C268 C 0.85795 0.40867 0.29663 0.0
O269 O 0.93276 0.60727 0.35806 0.0
O270 O 0.86522 0.61428 0.40813 0.0
C271 C 0.9941 0.57945 0.26302 0.0
C272 C 0.91338 0.63568 0.38403 0.0
Zn273 Zn 0.52883 0.5112 0.31121 0.0
Zn274 Zn 0.44966 0.23662 0.44025 0.0
Zn275 Zn 0.48016 0.37999 0.36937 0.0
C276 C 0.46317 0.31397 0.52305 0.0
C277 C 0.52607 0.30342 0.34835 0.0
O278 O 0.42493 0.37191 0.27904 0.0
O279 O 0.44418 0.45343 0.3063 0.0
C280 C 0.51703 0.50115 0.43561 0.0
O281 O 0.46752 0.33251 0.46271 0.0
O282 O 0.45153 0.26483 0.5324 0.0
O283 O 0.52879 0.28605 0.40586 0.0
O284 O 0.5379 0.35331 0.34502 0.0
O285 O 0.54106 0.54513 0.40205 0.0
O286 O 0.50421 0.45605 0.40759 0.0
O287 O 0.55384 0.40309 0.31492 0.0
O288 O 0.58997 0.49268 0.29768 0.0
C289 C 0.59343 0.44982 0.29657 0.0
O290 O 0.39477 0.32615 0.35826 0.0
O291 O 0.3877 0.25144 0.40791 0.0
C292 C 0.42266 0.41519 0.26352 0.0
C293 C 0.36632 0.27827 0.38397 0.0
Zn294 Zn 0.765 0.21306 0.44037 0.0
Zn295 Zn 0.49078 0.01838 0.31091 0.0
Zn296 Zn 0.62191 0.10065 0.36941 0.0
C297 C 0.55189 0.14424 0.29694 0.0
C298 C 0.50061 0.01567 0.43491 0.0
O299 O 0.67568 0.06896 0.35829 0.0
O300 O 0.75042 0.13643 0.40809 0.0
C301 C 0.69843 0.22299 0.34808 0.0
O302 O 0.59865 0.15122 0.31492 0.0
O303 O 0.50895 0.09801 0.29829 0.0
O304 O 0.4566 0.99598 0.40145 0.0
O305 O 0.5457 0.04823 0.40703 0.0
O306 O 0.71524 0.24231 0.40603 0.0
O307 O 0.64861 0.18489 0.34385 0.0
O308 O 0.66915 0.13517 0.46291 0.0
O309 O 0.73693 0.18676 0.53255 0.0
C310 C 0.68774 0.14932 0.52323 0.0
O311 O 0.6301 0.05362 0.27923 0.0
O312 O 0.54833 0.9911 0.30548 0.0
C313 C 0.72352 0.08826 0.3841 0.0
C314 C 0.58696 0.00811 0.26318 0.0
Zn315 Zn 0.88703 0.46032 0.66313 0.0
Zn316 Zn 0.79054 0.63515 0.7831 0.0
Zn317 Zn 0.85864 0.57344 0.73544 0.0
C318 C 0.73827 0.52092 0.80721 0.0
C319 C 0.82949 0.66196 0.66707 0.0
O320 O 0.94458 0.60339 0.74143 0.0
O321 O 0.95269 0.53673 0.68991 0.0
C322 C 0.81356 0.45157 0.76068 0.0
O323 O 0.78461 0.52361 0.79532 0.0
O324 O 0.72818 0.55779 0.7889 0.0
O325 O 0.79908 0.67561 0.69771 0.0
O326 O 0.84043 0.62794 0.69378 0.0
O327 O 0.81015 0.43822 0.69962 0.0
O328 O 0.80625 0.4917 0.77445 0.0
O329 O 0.86889 0.5374 0.64064 0.0
O330 O 0.88337 0.48422 0.57131 0.0
C331 C 0.87171 0.52175 0.5804 0.0
O332 O 0.91508 0.62851 0.81946 0.0
O333 O 0.8579 0.65841 0.84577 0.0
C334 C 0.97336 0.58494 0.71373 0.0
C335 C 0.90166 0.65733 0.85805 0.0
Zn336 Zn 0.54087 0.42631 0.66357 0.0
Zn337 Zn 0.36701 0.15566 0.78329 0.0
Zn338 Zn 0.42813 0.28562 0.73572 0.0
C339 C 0.48098 0.21755 0.80685 0.0
C340 C 0.33964 0.16778 0.66758 0.0
O341 O 0.39808 0.34157 0.74132 0.0
O342 O 0.46472 0.41635 0.68972 0.0
C343 C 0.54939 0.36206 0.76213 0.0
O344 O 0.47785 0.26104 0.79557 0.0
O345 O 0.44441 0.17062 0.78806 0.0
O346 O 0.3261 0.12373 0.69818 0.0
O347 O 0.37365 0.21275 0.69429 0.0
O348 O 0.56183 0.37091 0.70073 0.0
O349 O 0.50907 0.3151 0.77728 0.0
O350 O 0.46392 0.33135 0.64052 0.0
O351 O 0.51739 0.3992 0.57156 0.0
C352 C 0.47976 0.35002 0.5804 0.0
O353 O 0.37273 0.2869 0.81916 0.0
O354 O 0.3442 0.20019 0.84598 0.0
C355 C 0.4165 0.38878 0.71353 0.0
C356 C 0.34467 0.24475 0.85816 0.0
Zn357 Zn 0.57538 0.11496 0.66372 0.0
Zn358 Zn 0.84639 0.21183 0.78326 0.0
Zn359 Zn 0.71635 0.14311 0.73565 0.0
C360 C 0.78445 0.26394 0.807 0.0
C361 C 0.83413 0.17241 0.66743 0.0
O362 O 0.66046 0.0571 0.74176 0.0
O363 O 0.5857 0.04903 0.69024 0.0
C364 C 0.63987 0.18806 0.76182 0.0
O365 O 0.74093 0.2174 0.79545 0.0
O366 O 0.83143 0.27427 0.78843 0.0
O367 O 0.87823 0.20297 0.69795 0.0
O368 O 0.78918 0.16148 0.69418 0.0
O369 O 0.63057 0.19154 0.70055 0.0
O370 O 0.68701 0.19492 0.77641 0.0
O371 O 0.67034 0.13292 0.64071 0.0
O372 O 0.60248 0.11838 0.5717 0.0
C373 C 0.65169 0.13002 0.58058 0.0
O374 O 0.71494 0.08641 0.81911 0.0
O375 O 0.80175 0.14435 0.84583 0.0
C376 C 0.61321 0.02833 0.71405 0.0
C377 C 0.75711 0.10032 0.858 0.0
Zn378 Zn 0.36725 0.21191 0.28309 0.0
Zn379 Zn 0.54096 0.11504 0.164 0.0
Zn380 Zn 0.42843 0.14327 0.23578 0.0
C381 C 0.48016 0.13046 0.08043 0.0
C382 C 0.54985 0.18819 0.26216 0.0
O383 O 0.37302 0.08657 0.31939 0.0
O384 O 0.34423 0.14461 0.34582 0.0
C385 C 0.34003 0.17262 0.16727 0.0
O386 O 0.46417 0.13339 0.14044 0.0
O387 O 0.51769 0.11873 0.07188 0.0
O388 O 0.56269 0.19164 0.20091 0.0
O389 O 0.50954 0.19501 0.27674 0.0
O390 O 0.32648 0.20312 0.19784 0.0
O391 O 0.374 0.16165 0.19409 0.0
O392 O 0.47799 0.21744 0.29589 0.0
O393 O 0.44457 0.27445 0.28873 0.0
C394 C 0.48105 0.26398 0.30757 0.0
O395 O 0.39789 0.0573 0.24247 0.0
O396 O 0.46449 0.04942 0.19042 0.0
C397 C 0.3448 0.10061 0.3582 0.0
C398 C 0.41628 0.02863 0.21429 0.0
Zn399 Zn 0.79027 0.15561 0.2831 0.0
Zn400 Zn 0.88715 0.42649 0.16373 0.0
Zn401 Zn 0.85869 0.28562 0.23589 0.0
C402 C 0.87151 0.35011 0.08042 0.0
C403 C 0.81406 0.36242 0.26217 0.0
O404 O 0.9152 0.28651 0.31954 0.0
O405 O 0.85762 0.1995 0.34564 0.0
C406 C 0.82895 0.16781 0.16699 0.0
O407 O 0.86863 0.33129 0.14049 0.0
O408 O 0.88325 0.39936 0.07173 0.0
O409 O 0.81065 0.37142 0.20078 0.0
O410 O 0.80736 0.31543 0.27732 0.0
O411 O 0.79859 0.12377 0.19771 0.0
O412 O 0.84017 0.21285 0.19375 0.0
O413 O 0.78463 0.26136 0.29594 0.0
O414 O 0.72806 0.1708 0.28916 0.0
C415 C 0.73819 0.21775 0.30754 0.0
O416 O 0.94475 0.34121 0.24167 0.0
O417 O 0.95297 0.41588 0.18981 0.0
C418 C 0.90147 0.24417 0.35808 0.0
C419 C 0.97359 0.38828 0.21359 0.0
Zn420 Zn 0.8462 0.63478 0.28312 0.0
Zn421 Zn 0.57534 0.46082 0.1636 0.0
Zn422 Zn 0.71629 0.57332 0.23576 0.0
C423 C 0.65181 0.52166 0.08032 0.0
C424 C 0.63948 0.45189 0.2619 0.0
O425 O 0.71521 0.62885 0.31942 0.0
O426 O 0.80218 0.65818 0.3456 0.0
C427 C 0.83409 0.66142 0.16706 0.0
O428 O 0.67059 0.53755 0.14041 0.0
O429 O 0.60259 0.48406 0.0716 0.0
O430 O 0.63021 0.43914 0.20062 0.0
O431 O 0.68662 0.49211 0.27667 0.0
O432 O 0.87812 0.67503 0.19776 0.0
O433 O 0.78904 0.62758 0.19377 0.0
O434 O 0.74056 0.52364 0.29602 0.0
O435 O 0.8311 0.55741 0.28929 0.0
C436 C 0.78412 0.52076 0.30786 0.0
O437 O 0.66081 0.60385 0.2417 0.0
O438 O 0.58619 0.53734 0.18979 0.0
C439 C 0.75753 0.65742 0.358 0.0
C440 C 0.61375 0.58557 0.21355 0.0
Zn441 Zn 0.44984 0.21321 0.93965 0.0
Zn442 Zn 0.52909 0.01845 0.81025 0.0
Zn443 Zn 0.48019 0.10066 0.86855 0.0
C444 C 0.59387 0.14417 0.79658 0.0
C445 C 0.51674 0.01597 0.93421 0.0
O446 O 0.39483 0.06892 0.85733 0.0
O447 O 0.38789 0.13636 0.90768 0.0
C448 C 0.52611 0.223 0.84728 0.0
O449 O 0.55399 0.15112 0.81416 0.0
O450 O 0.59064 0.09799 0.7981 0.0
O451 O 0.54098 0.99626 0.90062 0.0
O452 O 0.50397 0.04839 0.90656 0.0
O453 O 0.52882 0.24272 0.90503 0.0
O454 O 0.53781 0.18489 0.8433 0.0
O455 O 0.4679 0.13521 0.96259 0.0
O456 O 0.45189 0.18719 0.03184 0.0
C457 C 0.46356 0.14967 0.02281 0.0
O458 O 0.42493 0.05356 0.778 0.0
O459 O 0.44452 0.99159 0.80539 0.0
C460 C 0.36645 0.08818 0.88368 0.0
C461 C 0.42299 0.00816 0.76247 0.0
Zn462 Zn 0.98309 0.51125 0.81097 0.0
Zn463 Zn 0.78856 0.237 0.93979 0.0
Zn464 Zn 0.90115 0.38004 0.86891 0.0
C465 C 0.8521 0.31422 0.0229 0.0
C466 C 0.77891 0.30357 0.84742 0.0
O467 O 0.94828 0.37184 0.77861 0.0
O468 O 0.01016 0.45364 0.8055 0.0
C469 C 0.98537 0.50109 0.93511 0.0
O470 O 0.86645 0.33293 0.96264 0.0
O471 O 0.81456 0.26506 0.03204 0.0
O472 O 0.75912 0.28653 0.90514 0.0
O473 O 0.81698 0.3534 0.8435 0.0
O474 O 0.00511 0.54509 0.90164 0.0
O475 O 0.95311 0.45598 0.9072 0.0
O476 O 0.85082 0.4033 0.81394 0.0
O477 O 0.90353 0.49314 0.79785 0.0
C478 C 0.85753 0.44996 0.79597 0.0
O479 O 0.93299 0.32646 0.85799 0.0
O480 O 0.86544 0.25186 0.90791 0.0
C481 C 0.99359 0.4153 0.76285 0.0
C482 C 0.91368 0.27872 0.88406 0.0
Zn483 Zn 0.76501 0.55201 0.93984 0.0
Zn484 Zn 0.49066 0.47316 0.81018 0.0
Zn485 Zn 0.6221 0.52179 0.86848 0.0
C486 C 0.55183 0.40834 0.7965 0.0
C487 C 0.50077 0.48455 0.93449 0.0
O488 O 0.67588 0.60718 0.8577 0.0
O489 O 0.75035 0.61414 0.90792 0.0
C490 C 0.69848 0.47577 0.84744 0.0
O491 O 0.59874 0.44797 0.81428 0.0
O492 O 0.50908 0.41197 0.79757 0.0
O493 O 0.45683 0.46072 0.90084 0.0
O494 O 0.54594 0.49754 0.90658 0.0
O495 O 0.71526 0.47305 0.90532 0.0
O496 O 0.6487 0.46414 0.84313 0.0
O497 O 0.669 0.5341 0.96253 0.0
O498 O 0.73689 0.55003 0.03195 0.0
C499 C 0.68772 0.5384 0.0228 0.0
O500 O 0.62999 0.57712 0.77792 0.0
O501 O 0.54854 0.55754 0.80587 0.0
C502 C 0.72357 0.63556 0.88395 0.0
C503 C 0.58645 0.57901 0.76269 0.0
Zn504 Zn 0.4589 0.88505 0.77233 0.0
Zn505 Zn 0.63634 0.79006 0.65678 0.0
Zn506 Zn 0.57316 0.8556 0.70373 0.0
C507 C 0.52142 0.73433 0.63466 0.0
C508 C 0.66338 0.82951 0.77251 0.0
O509 O 0.6036 0.94083 0.6914 0.0
O510 O 0.53561 0.94755 0.74103 0.0
C511 C 0.45077 0.80946 0.67971 0.0
O512 O 0.52286 0.78018 0.64574 0.0
O513 O 0.5597 0.72618 0.65227 0.0
O514 O 0.67761 0.79957 0.74189 0.0
O515 O 0.62867 0.83952 0.746 0.0
O516 O 0.43205 0.80644 0.73817 0.0
O517 O 0.48974 0.79907 0.67402 0.0
O518 O 0.53692 0.86717 0.79791 0.0
O519 O 0.48357 0.88303 0.86516 0.0
C520 C 0.52102 0.87103 0.85765 0.0
O521 O 0.62674 0.91214 0.61858 0.0
O522 O 0.65904 0.8568 0.59292 0.0
C523 C 0.58392 0.96912 0.71723 0.0
C524 C 0.65671 0.89988 0.58042 0.0
Zn525 Zn 0.21204 0.84622 0.65679 0.0
Zn526 Zn 0.11669 0.57413 0.77201 0.0
Zn527 Zn 0.1461 0.71776 0.70344 0.0
C528 C 0.1305 0.65008 0.85738 0.0
C529 C 0.19219 0.64152 0.6792 0.0
O530 O 0.08935 0.71483 0.61879 0.0
O531 O 0.14515 0.80233 0.59306 0.0
C532 C 0.17241 0.83403 0.77266 0.0
O533 O 0.13447 0.66997 0.79769 0.0
O534 O 0.1185 0.60063 0.8648 0.0
O535 O 0.19519 0.62622 0.7379 0.0
O536 O 0.2024 0.69078 0.67293 0.0
O537 O 0.20268 0.87797 0.74162 0.0
O538 O 0.16176 0.78884 0.74702 0.0
O539 O 0.22137 0.74292 0.64513 0.0
O540 O 0.27606 0.83364 0.65161 0.0
C541 C 0.26736 0.7871 0.63368 0.0
O542 O 0.06084 0.6629 0.69125 0.0
O543 O 0.05411 0.58814 0.74076 0.0
C544 C 0.10186 0.75708 0.58061 0.0
C545 C 0.03256 0.61489 0.71698 0.0
Zn546 Zn 0.15553 0.36608 0.65676 0.0
Zn547 Zn 0.42787 0.54324 0.77168 0.0
Zn548 Zn 0.28356 0.42833 0.70341 0.0
C549 C 0.35158 0.48108 0.85716 0.0
C550 C 0.36003 0.55093 0.67993 0.0
O551 O 0.28695 0.37515 0.61837 0.0
O552 O 0.19934 0.34304 0.59281 0.0
C553 C 0.16754 0.3383 0.77262 0.0
O554 O 0.33171 0.46503 0.79747 0.0
O555 O 0.40103 0.51858 0.86451 0.0
O556 O 0.3768 0.57106 0.7376 0.0
O557 O 0.31046 0.51211 0.676 0.0
O558 O 0.12363 0.32484 0.74151 0.0
O559 O 0.21284 0.37288 0.74731 0.0
O560 O 0.25875 0.47855 0.64503 0.0
O561 O 0.16807 0.44271 0.65123 0.0
C562 C 0.21467 0.48043 0.63325 0.0
O563 O 0.3384 0.39802 0.69078 0.0
O564 O 0.41297 0.46625 0.74024 0.0
C565 C 0.2447 0.34524 0.58027 0.0
C566 C 0.38641 0.41792 0.71654 0.0
Zn567 Zn 0.55111 0.78884 0.00036 0.0
Zn568 Zn 0.45867 0.97115 0.116 0.0
Zn569 Zn 0.5217 0.90531 0.06946 0.0
C570 C 0.40235 0.85435 0.13905 0.0
C571 C 0.49542 0.99459 -0.00093 0.0
O572 O 0.60693 0.9345 0.08038 0.0
O573 O 0.6131 0.8657 0.03226 0.0
C574 C 0.47594 0.78207 0.09118 0.0
O575 O 0.44719 0.85428 0.12668 0.0
O576 O 0.39588 0.89423 0.12427 0.0
O577 O 0.46599 0.0094 0.03001 0.0
O578 O 0.50606 0.96025 0.02523 0.0
O579 O 0.47198 0.76 0.03467 0.0
O580 O 0.46446 0.82049 0.09287 0.0
O581 O 0.53391 0.8683 -0.02374 0.0
O582 O 0.54964 0.81528 0.90825 0.0
C583 C 0.53793 0.85289 0.91629 0.0
O584 O 0.57681 0.95833 0.15559 0.0
O585 O 0.52615 0.99667 0.17802 0.0
C586 C 0.63494 0.91411 0.0557 0.0
C587 C 0.56758 0.99169 0.19127 0.0
Zn588 Zn 0.21202 0.76129 0.00102 0.0
Zn589 Zn 0.03214 0.48723 0.11613 0.0
Zn590 Zn 0.09632 0.61675 0.06955 0.0
C591 C 0.1476 0.54721 0.13854 0.0
C592 C 0.00679 0.50102 -3e-05 0.0
O593 O 0.06673 0.67243 0.08118 0.0
O594 O 0.13549 0.74715 0.03256 0.0
C595 C 0.21876 0.69325 0.09331 0.0
O596 O 0.14655 0.59176 0.12714 0.0
O597 O 0.10897 0.50076 0.12165 0.0
O598 O 0.99234 0.45673 0.03062 0.0
O599 O 0.04125 0.54588 0.0262 0.0
O600 O 0.23903 0.70976 0.03561 0.0
O601 O 0.18006 0.64365 0.09755 0.0
O602 O 0.13278 0.66519 -0.02407 0.0
O603 O 0.18614 0.73427 0.90852 0.0
C604 C 0.14841 0.68495 0.91615 0.0
O605 O 0.04244 0.61913 0.15428 0.0
O606 O 0.00881 0.53107 0.17878 0.0
C607 C 0.08711 0.72073 0.05609 0.0
C608 C 0.01145 0.57658 0.19142 0.0
Zn609 Zn 0.23985 0.45086 0.00066 0.0
Zn610 Zn 0.5144 0.54423 0.11589 0.0
Zn611 Zn 0.38518 0.47976 0.0694 0.0
C612 C 0.4542 0.60006 0.13816 0.0
C613 C 0.50079 0.50562 -0.00041 0.0
O614 O 0.32922 0.39459 0.08087 0.0
O615 O 0.25452 0.38878 0.03242 0.0
C616 C 0.30819 0.52577 0.0919 0.0
O617 O 0.40948 0.55472 0.12665 0.0
O618 O 0.5006 0.60732 0.12195 0.0
O619 O 0.54506 0.53525 0.03037 0.0
O620 O 0.4559 0.49527 0.02575 0.0
O621 O 0.29056 0.52978 0.03507 0.0
O622 O 0.35798 0.53698 0.09427 0.0
O623 O 0.33642 0.46791 -0.02418 0.0
O624 O 0.26736 0.45225 0.90836 0.0
C625 C 0.31671 0.46396 0.91601 0.0
O626 O 0.38287 0.4242 0.15513 0.0
O627 O 0.47133 0.47734 0.1788 0.0
C628 C 0.28088 0.36675 0.05593 0.0
C629 C 0.42548 0.43505 0.19179 0.0
Zn630 Zn 0.03184 0.54496 0.61579 0.0
Zn631 Zn 0.21159 0.4504 0.50115 0.0
Zn632 Zn 0.09648 0.47979 0.56945 0.0
C633 C 0.14858 0.46371 0.41602 0.0
C634 C 0.21891 0.52548 0.59352 0.0
O635 O 0.04222 0.42376 0.65438 0.0
O636 O 0.0077 0.47758 0.67809 0.0
C637 C 0.00736 0.50661 0.49952 0.0
O638 O 0.13279 0.46787 0.47568 0.0
O639 O 0.18613 0.45183 0.40861 0.0
O640 O 0.23862 0.52896 0.53555 0.0
O641 O 0.18016 0.5363 0.59842 0.0
O642 O 0.99266 0.53642 0.52962 0.0
O643 O 0.04169 0.49645 0.52674 0.0
O644 O 0.14662 0.55467 0.62768 0.0
O645 O 0.10882 0.60796 0.62309 0.0
C646 C 0.14749 0.60011 0.63974 0.0
O647 O 0.06633 0.39441 0.5812 0.0
O648 O 0.13492 0.38821 0.53248 0.0
C649 C 0.01071 0.43498 0.69104 0.0
C650 C 0.08654 0.36638 0.55597 0.0
Zn651 Zn 0.55078 0.76006 0.50206 0.0
Zn652 Zn 0.45512 0.48676 0.61616 0.0
Zn653 Zn 0.52212 0.61687 0.56971 0.0
C654 C 0.40057 0.54668 0.63966 0.0
C655 C 0.49532 0.5008 0.50059 0.0
O656 O 0.60752 0.67184 0.58187 0.0
O657 O 0.61349 0.74642 0.53288 0.0
C658 C 0.47637 0.69265 0.59583 0.0
O659 O 0.44665 0.59082 0.62816 0.0
O660 O 0.39153 0.50007 0.62146 0.0
O661 O 0.46511 0.4563 0.53052 0.0
O662 O 0.50537 0.54527 0.5277 0.0
O663 O 0.47285 0.70749 0.53705 0.0
O664 O 0.46624 0.64348 0.60273 0.0
O665 O 0.53376 0.66436 0.47553 0.0
O666 O 0.54967 0.73405 0.40913 0.0
C667 C 0.53805 0.68467 0.41609 0.0
O668 O 0.57904 0.61901 0.65336 0.0
O669 O 0.52259 0.5315 0.67859 0.0
C670 C 0.63544 0.71999 0.55635 0.0
C671 C 0.56618 0.57645 0.69111 0.0
Zn672 Zn 0.51495 0.96954 0.61608 0.0
Zn673 Zn 0.24066 0.79018 0.50142 0.0
Zn674 Zn 0.38495 0.90525 0.56955 0.0
C675 C 0.31674 0.85334 0.41626 0.0
C676 C 0.30843 0.78311 0.59422 0.0
O677 O 0.38305 0.95978 0.65384 0.0
O678 O 0.47115 0.99334 0.67816 0.0
C679 C 0.50095 0.99415 0.49975 0.0
O680 O 0.33667 0.86901 0.47593 0.0
O681 O 0.26738 0.81565 0.4088 0.0
O682 O 0.2926 0.76376 0.53601 0.0
O683 O 0.35789 0.8219 0.59972 0.0
O684 O 0.54545 0.00877 0.52984 0.0
O685 O 0.45644 0.9599 0.52696 0.0
O686 O 0.40996 0.85535 0.62799 0.0
O687 O 0.501 0.89256 0.62306 0.0
C688 C 0.4544 0.8542 0.64004 0.0
O689 O 0.32967 0.93539 0.58105 0.0
O690 O 0.25477 0.86674 0.53257 0.0
C691 C 0.4257 0.99085 0.6908 0.0
C692 C 0.28139 0.91514 0.55595 0.0
Zn693 Zn 0.21342 0.36736 0.15681 0.0
Zn694 Zn 0.11722 0.54241 0.27099 0.0
Zn695 Zn 0.14638 0.42867 0.20311 0.0
C696 C 0.131 0.48079 0.35707 0.0
C697 C 0.19242 0.55038 0.17755 0.0
O698 O 0.08912 0.37469 0.11915 0.0
O699 O 0.14633 0.34482 0.09306 0.0
C700 C 0.17293 0.33896 0.27219 0.0
O701 O 0.13503 0.46468 0.29755 0.0
O702 O 0.11917 0.5184 0.36415 0.0
O703 O 0.19548 0.56834 0.23645 0.0
O704 O 0.20237 0.51122 0.17061 0.0
O705 O 0.20364 0.32568 0.24143 0.0
O706 O 0.16224 0.37342 0.24647 0.0
O707 O 0.22181 0.47819 0.14418 0.0
O708 O 0.27792 0.44387 0.15153 0.0
C709 C 0.26815 0.48075 0.13246 0.0
O710 O 0.06103 0.39773 0.1904 0.0
O711 O 0.05452 0.46575 0.24019 0.0
C712 C 0.10258 0.34591 0.08056 0.0
C713 C 0.03283 0.41743 0.2165 0.0
Zn714 Zn 0.45965 0.57514 0.27061 0.0
Zn715 Zn 0.63424 0.84623 0.15669 0.0
Zn716 Zn 0.57311 0.71774 0.20293 0.0
C717 C 0.52098 0.78741 0.13204 0.0
C718 C 0.66257 0.83409 0.27214 0.0
O719 O 0.60423 0.6635 0.19029 0.0
O720 O 0.53623 0.58891 0.24005 0.0
C721 C 0.45151 0.64212 0.17681 0.0
O722 O 0.52374 0.74374 0.14388 0.0
O723 O 0.55766 0.83411 0.15118 0.0
O724 O 0.67581 0.87806 0.24136 0.0
O725 O 0.62822 0.7889 0.2464 0.0
O726 O 0.43427 0.62783 0.23609 0.0
O727 O 0.49083 0.69103 0.16896 0.0
O728 O 0.53736 0.67066 0.29755 0.0
O729 O 0.48355 0.6008 0.36377 0.0
C730 C 0.52113 0.65027 0.35694 0.0
O731 O 0.62748 0.71473 0.11936 0.0
O732 O 0.65694 0.8017 0.09315 0.0
C733 C 0.58457 0.61561 0.2164 0.0
C734 C 0.6561 0.75697 0.08073 0.0
Zn735 Zn 0.42672 0.8849 0.27149 0.0
Zn736 Zn 0.15554 0.78885 0.15669 0.0
Zn737 Zn 0.28423 0.85561 0.20305 0.0
C738 C 0.2144 0.73388 0.13326 0.0
C739 C 0.1678 0.82884 0.27233 0.0
O740 O 0.33865 0.94102 0.19105 0.0
O741 O 0.41336 0.94801 0.24102 0.0
C742 C 0.35998 0.80964 0.17738 0.0
O743 O 0.25842 0.78014 0.14443 0.0
O744 O 0.16785 0.72466 0.15196 0.0
O745 O 0.12388 0.79845 0.24125 0.0
O746 O 0.21309 0.83972 0.24678 0.0
O747 O 0.37377 0.80686 0.23697 0.0
O748 O 0.31117 0.8002 0.16874 0.0
O749 O 0.33129 0.86706 0.29783 0.0
O750 O 0.4009 0.88312 0.36454 0.0
C751 C 0.35144 0.87117 0.35737 0.0
O752 O 0.28705 0.91285 0.11921 0.0
O753 O 0.19992 0.85583 0.09311 0.0
C754 C 0.38647 0.96941 0.21728 0.0
C755 C 0.24481 0.89953 0.08067 0.0
loop_
_geom_bond_atom_site_label_1
_geom_bond_atom_site_label_2
_geom_bond_distance
_geom_bond_site_symmetry_2
_ccdc_geom_bond_type
Zn0 O6 1.920 1_554 S
Zn0 O12 1.898 . S
Zn0 O15 1.905 1_554 S
Zn1 O9 1.905 . S
Zn1 O10 1.898 . S
Zn1 O18 1.920 . S
Zn2 O5 2.080 1_554 S
Zn2 O8 2.114 . S
Zn2 O11 2.120 . S
Zn2 O13 2.120 . S
Zn2 O14 2.114 . S
Zn2 O17 2.080 . S
C3 O8 1.166 . S
C3 O9 1.182 . S
C4 O10 1.167 . S
C4 O11 1.299 . S
O5 Zn2 2.080 1_556 S
O5 C19 1.305 . S
O6 Zn0 1.920 1_556 S
O6 C19 1.234 . S
C7 O12 1.167 . S
C7 O13 1.299 . S
O8 Zn2 2.114 . S
O8 C3 1.166 . S
O9 Zn1 1.905 . S
O9 C3 1.182 . S
O10 Zn1 1.898 . S
O10 C4 1.167 . S
O11 Zn2 2.120 . S
O11 C4 1.299 . S
O12 Zn0 1.898 . S
O12 C7 1.167 . S
O13 Zn2 2.120 . S
O13 C7 1.299 . S
O14 Zn2 2.114 . S
O14 C16 1.166 . S
O15 Zn0 1.905 1_556 S
O15 C16 1.182 1_556 S
C16 O14 1.166 . S
C16 O15 1.182 1_554 S
O17 Zn2 2.080 . S
O17 C20 1.305 . S
O18 Zn1 1.920 . S
O18 C20 1.234 . S
C19 O5 1.305 . S
C19 O6 1.234 . S
C20 O17 1.305 . S
C20 O18 1.234 . S
Zn21 O27 1.920 1_554 S
Zn21 O33 1.898 . S
Zn21 O36 1.905 1_554 S
Zn22 O30 1.905 . S
Zn22 O31 1.898 . S
Zn22 O39 1.920 . S
Zn23 O26 2.080 1_554 S
Zn23 O29 2.114 . S
Zn23 O32 2.120 1_545 S
Zn23 O34 2.120 . S
Zn23 O35 2.114 . S
Zn23 O38 2.080 . S
C24 O29 1.166 1_565 S
C24 O30 1.182 . S
C25 O31 1.167 . S
C25 O32 1.299 . S
O26 Zn23 2.080 1_556 S
O26 C40 1.305 . S
O27 Zn21 1.920 1_556 S
O27 C40 1.234 . S
C28 O33 1.167 . S
C28 O34 1.299 . S
O29 Zn23 2.114 . S
O29 C24 1.166 1_545 S
O30 Zn22 1.905 . S
O30 C24 1.182 . S
O31 Zn22 1.898 . S
O31 C25 1.167 . S
O32 Zn23 2.120 1_565 S
O32 C25 1.299 . S
O33 Zn21 1.898 . S
O33 C28 1.167 . S
O34 Zn23 2.120 . S
O34 C28 1.299 . S
O35 Zn23 2.114 . S
O35 C37 1.166 . S
O36 Zn21 1.905 1_556 S
O36 C37 1.182 1_556 S
C37 O35 1.166 . S
C37 O36 1.182 1_554 S
O38 Zn23 2.080 . S
O38 C41 1.305 1_545 S
O39 Zn22 1.920 . S
O39 C41 1.234 . S
C40 O26 1.305 . S
C40 O27 1.234 . S
C41 O38 1.305 1_565 S
C41 O39 1.234 . S
Zn42 O48 1.920 1_554 S
Zn42 O54 1.898 . S
Zn42 O57 1.905 1_554 S
Zn43 O51 1.905 . S
Zn43 O52 1.898 . S
Zn43 O60 1.920 . S
Zn44 O47 2.080 1_554 S
Zn44 O50 2.114 . S
Zn44 O53 2.120 1_655 S
Zn44 O55 2.120 . S
Zn44 O56 2.114 . S
Zn44 O59 2.080 . S
C45 O50 1.166 1_455 S
C45 O51 1.182 . S
C46 O52 1.167 . S
C46 O53 1.299 . S
O47 Zn44 2.080 1_556 S
O47 C61 1.305 . S
O48 Zn42 1.920 1_556 S
O48 C61 1.234 . S
C49 O54 1.167 . S
C49 O55 1.299 . S
O50 Zn44 2.114 . S
O50 C45 1.166 1_655 S
O51 Zn43 1.905 . S
O51 C45 1.182 . S
O52 Zn43 1.898 . S
O52 C46 1.167 . S
O53 Zn44 2.120 1_455 S
O53 C46 1.299 . S
O54 Zn42 1.898 . S
O54 C49 1.167 . S
O55 Zn44 2.120 . S
O55 C49 1.299 . S
O56 Zn44 2.114 . S
O56 C58 1.166 . S
O57 Zn42 1.905 1_556 S
O57 C58 1.182 1_556 S
C58 O56 1.166 . S
C58 O57 1.182 1_554 S
O59 Zn44 2.080 . S
O59 C62 1.305 1_655 S
O60 Zn43 1.920 . S
O60 C62 1.234 . S
C61 O47 1.305 . S
C61 O48 1.234 . S
C62 O59 1.305 1_455 S
C62 O60 1.234 . S
Zn63 O69 1.920 . S
Zn63 O75 1.898 . S
Zn63 O78 1.905 . S
Zn64 O72 1.905 . S
Zn64 O73 1.898 . S
Zn64 O81 1.920 . S
Zn65 O68 2.080 . S
Zn65 O71 2.114 . S
Zn65 O74 2.120 . S
Zn65 O76 2.120 . S
Zn65 O77 2.114 . S
Zn65 O80 2.080 . S
C66 O71 1.166 . S
C66 O72 1.182 . S
C67 O73 1.167 . S
C67 O74 1.299 . S
O68 Zn65 2.080 . S
O68 C82 1.305 . S
O69 Zn63 1.920 . S
O69 C82 1.234 . S
C70 O75 1.167 . S
C70 O76 1.299 . S
O71 Zn65 2.114 . S
O71 C66 1.166 . S
O72 Zn64 1.905 . S
O72 C66 1.182 . S
O73 Zn64 1.898 . S
O73 C67 1.167 . S
O74 Zn65 2.120 . S
O74 C67 1.299 . S
O75 Zn63 1.898 . S
O75 C70 1.167 . S
O76 Zn65 2.120 . S
O76 C70 1.299 . S
O77 Zn65 2.114 . S
O77 C79 1.166 . S
O78 Zn63 1.905 . S
O78 C79 1.182 . S
C79 O77 1.166 . S
C79 O78 1.182 . S
O80 Zn65 2.080 . S
O80 C83 1.305 . S
O81 Zn64 1.920 . S
O81 C83 1.234 . S
C82 O68 1.305 . S
C82 O69 1.234 . S
C83 O80 1.305 . S
C83 O81 1.234 . S
Zn84 O90 1.920 . S
Zn84 O96 1.898 . S
Zn84 O99 1.905 . S
Zn85 O93 1.905 . S
Zn85 O94 1.898 . S
Zn85 O102 1.920 . S
Zn86 O89 2.080 . S
Zn86 O92 2.114 . S
Zn86 O95 2.120 . S
Zn86 O97 2.120 1_565 S
Zn86 O98 2.114 . S
Zn86 O101 2.080 . S
C87 O92 1.166 . S
C87 O93 1.182 . S
C88 O94 1.167 . S
C88 O95 1.299 . S
O89 Zn86 2.080 . S
O89 C103 1.305 1_565 S
O90 Zn84 1.920 . S
O90 C103 1.234 . S
C91 O96 1.167 . S
C91 O97 1.299 . S
O92 Zn86 2.114 . S
O92 C87 1.166 . S
O93 Zn85 1.905 . S
O93 C87 1.182 . S
O94 Zn85 1.898 . S
O94 C88 1.167 . S
O95 Zn86 2.120 . S
O95 C88 1.299 . S
O96 Zn84 1.898 . S
O96 C91 1.167 . S
O97 Zn86 2.120 1_545 S
O97 C91 1.299 . S
O98 Zn86 2.114 . S
O98 C100 1.166 1_565 S
O99 Zn84 1.905 . S
O99 C100 1.182 . S
C100 O98 1.166 1_545 S
C100 O99 1.182 . S
O101 Zn86 2.080 . S
O101 C104 1.305 . S
O102 Zn85 1.920 . S
O102 C104 1.234 . S
C103 O89 1.305 1_545 S
C103 O90 1.234 . S
C104 O101 1.305 . S
C104 O102 1.234 . S
Zn105 O111 1.920 . S
Zn105 O117 1.898 . S
Zn105 O120 1.905 . S
Zn106 O114 1.905 . S
Zn106 O115 1.898 . S
Zn106 O123 1.920 . S
Zn107 O110 2.080 . S
Zn107 O113 2.114 . S
Zn107 O116 2.120 . S
Zn107 O118 2.120 1_455 S
Zn107 O119 2.114 . S
Zn107 O122 2.080 . S
C108 O113 1.166 . S
C108 O114 1.182 . S
C109 O115 1.167 . S
C109 O116 1.299 . S
O110 Zn107 2.080 . S
O110 C124 1.305 1_455 S
O111 Zn105 1.920 . S
O111 C124 1.234 . S
C112 O117 1.167 . S
C112 O118 1.299 . S
O113 Zn107 2.114 . S
O113 C108 1.166 . S
O114 Zn106 1.905 . S
O114 C108 1.182 . S
O115 Zn106 1.898 . S
O115 C109 1.167 . S
O116 Zn107 2.120 . S
O116 C109 1.299 . S
O117 Zn105 1.898 . S
O117 C112 1.167 . S
O118 Zn107 2.120 1_655 S
O118 C112 1.299 . S
O119 Zn107 2.114 . S
O119 C121 1.166 1_455 S
O120 Zn105 1.905 . S
O120 C121 1.182 . S
C121 O119 1.166 1_655 S
C121 O120 1.182 . S
O122 Zn107 2.080 . S
O122 C125 1.305 . S
O123 Zn106 1.920 . S
O123 C125 1.234 . S
C124 O110 1.305 1_655 S
C124 O111 1.234 . S
C125 O122 1.305 . S
C125 O123 1.234 . S
Zn126 O132 1.920 1_556 S
Zn126 O138 1.898 . S
Zn126 O141 1.905 1_556 S
Zn127 O135 1.905 . S
Zn127 O136 1.898 . S
Zn127 O144 1.920 . S
Zn128 O131 2.080 1_556 S
Zn128 O134 2.114 . S
Zn128 O137 2.120 . S
Zn128 O139 2.120 . S
Zn128 O140 2.114 . S
Zn128 O143 2.080 . S
C129 O134 1.166 . S
C129 O135 1.182 . S
C130 O136 1.167 . S
C130 O137 1.299 . S
O131 Zn128 2.080 1_554 S
O131 C145 1.305 . S
O132 Zn126 1.920 1_554 S
O132 C145 1.234 . S
C133 O138 1.167 . S
C133 O139 1.299 . S
O134 Zn128 2.114 . S
O134 C129 1.166 . S
O135 Zn127 1.905 . S
O135 C129 1.182 . S
O136 Zn127 1.898 . S
O136 C130 1.167 . S
O137 Zn128 2.120 . S
O137 C130 1.299 . S
O138 Zn126 1.898 . S
O138 C133 1.167 . S
O139 Zn128 2.120 . S
O139 C133 1.299 . S
O140 Zn128 2.114 . S
O140 C142 1.166 . S
O141 Zn126 1.905 1_554 S
O141 C142 1.182 1_554 S
C142 O140 1.166 . S
C142 O141 1.182 1_556 S
O143 Zn128 2.080 . S
O143 C146 1.305 . S
O144 Zn127 1.920 . S
O144 C146 1.234 . S
C145 O131 1.305 . S
C145 O132 1.234 . S
C146 O143 1.305 . S
C146 O144 1.234 . S
Zn147 O153 1.920 . S
Zn147 O159 1.898 . S
Zn147 O162 1.905 . S
Zn148 O156 1.905 1_556 S
Zn148 O157 1.898 . S
Zn148 O165 1.920 1_556 S
Zn149 O152 2.080 . S
Zn149 O155 2.114 . S
Zn149 O158 2.120 . S
Zn149 O160 2.120 1_565 S
Zn149 O161 2.114 . S
Zn149 O164 2.080 1_556 S
C150 O155 1.166 . S
C150 O156 1.182 1_556 S
C151 O157 1.167 . S
C151 O158 1.299 . S
O152 Zn149 2.080 . S
O152 C166 1.305 1_565 S
O153 Zn147 1.920 . S
O153 C166 1.234 . S
C154 O159 1.167 . S
C154 O160 1.299 . S
O155 Zn149 2.114 . S
O155 C150 1.166 . S
O156 Zn148 1.905 1_554 S
O156 C150 1.182 1_554 S
O157 Zn148 1.898 . S
O157 C151 1.167 . S
O158 Zn149 2.120 . S
O158 C151 1.299 . S
O159 Zn147 1.898 . S
O159 C154 1.167 . S
O160 Zn149 2.120 1_545 S
O160 C154 1.299 . S
O161 Zn149 2.114 . S
O161 C163 1.166 1_565 S
O162 Zn147 1.905 . S
O162 C163 1.182 . S
C163 O161 1.166 1_545 S
C163 O162 1.182 . S
O164 Zn149 2.080 1_554 S
O164 C167 1.305 . S
O165 Zn148 1.920 1_554 S
O165 C167 1.234 . S
C166 O152 1.305 1_545 S
C166 O153 1.234 . S
C167 O164 1.305 . S
C167 O165 1.234 . S
Zn168 O174 1.920 1_556 S
Zn168 O180 1.898 . S
Zn168 O183 1.905 1_556 S
Zn169 O177 1.905 . S
Zn169 O178 1.898 . S
Zn169 O186 1.920 . S
Zn170 O173 2.080 1_556 S
Zn170 O176 2.114 . S
Zn170 O179 2.120 1_455 S
Zn170 O181 2.120 . S
Zn170 O182 2.114 . S
Zn170 O185 2.080 . S
C171 O176 1.166 1_655 S
C171 O177 1.182 . S
C172 O178 1.167 . S
C172 O179 1.299 . S
O173 Zn170 2.080 1_554 S
O173 C187 1.305 . S
O174 Zn168 1.920 1_554 S
O174 C187 1.234 . S
C175 O180 1.167 . S
C175 O181 1.299 . S
O176 Zn170 2.114 . S
O176 C171 1.166 1_455 S
O177 Zn169 1.905 . S
O177 C171 1.182 . S
O178 Zn169 1.898 . S
O178 C172 1.167 . S
O179 Zn170 2.120 1_655 S
O179 C172 1.299 . S
O180 Zn168 1.898 . S
O180 C175 1.167 . S
O181 Zn170 2.120 . S
O181 C175 1.299 . S
O182 Zn170 2.114 . S
O182 C184 1.166 . S
O183 Zn168 1.905 1_554 S
O183 C184 1.182 1_554 S
C184 O182 1.166 . S
C184 O183 1.182 1_556 S
O185 Zn170 2.080 . S
O185 C188 1.305 1_455 S
O186 Zn169 1.920 . S
O186 C188 1.234 . S
C187 O173 1.305 . S
C187 O174 1.234 . S
C188 O185 1.305 1_655 S
C188 O186 1.234 . S
Zn189 O195 1.920 . S
Zn189 O201 1.898 . S
Zn189 O204 1.905 . S
Zn190 O198 1.905 . S
Zn190 O199 1.898 . S
Zn190 O207 1.920 . S
Zn191 O194 2.080 . S
Zn191 O197 2.114 . S
Zn191 O200 2.120 . S
Zn191 O202 2.120 . S
Zn191 O203 2.114 . S
Zn191 O206 2.080 . S
C192 O197 1.166 . S
C192 O198 1.182 . S
C193 O199 1.167 . S
C193 O200 1.299 . S
O194 Zn191 2.080 . S
O194 C208 1.305 . S
O195 Zn189 1.920 . S
O195 C208 1.234 . S
C196 O201 1.167 . S
C196 O202 1.299 . S
O197 Zn191 2.114 . S
O197 C192 1.166 . S
O198 Zn190 1.905 . S
O198 C192 1.182 . S
O199 Zn190 1.898 . S
O199 C193 1.167 . S
O200 Zn191 2.120 . S
O200 C193 1.299 . S
O201 Zn189 1.898 . S
O201 C196 1.167 . S
O202 Zn191 2.120 . S
O202 C196 1.299 . S
O203 Zn191 2.114 . S
O203 C205 1.166 . S
O204 Zn189 1.905 . S
O204 C205 1.182 . S
C205 O203 1.166 . S
C205 O204 1.182 . S
O206 Zn191 2.080 . S
O206 C209 1.305 . S
O207 Zn190 1.920 . S
O207 C209 1.234 . S
C208 O194 1.305 . S
C208 O195 1.234 . S
C209 O206 1.305 . S
C209 O207 1.234 . S
Zn210 O216 1.920 . S
Zn210 O222 1.898 . S
Zn210 O225 1.905 . S
Zn211 O219 1.905 . S
Zn211 O220 1.898 . S
Zn211 O228 1.920 . S
Zn212 O215 2.080 . S
Zn212 O218 2.114 . S
Zn212 O221 2.120 1_545 S
Zn212 O223 2.120 . S
Zn212 O224 2.114 . S
Zn212 O227 2.080 . S
C213 O218 1.166 1_565 S
C213 O219 1.182 . S
C214 O220 1.167 . S
C214 O221 1.299 . S
O215 Zn212 2.080 . S
O215 C229 1.305 . S
O216 Zn210 1.920 . S
O216 C229 1.234 . S
C217 O222 1.167 . S
C217 O223 1.299 . S
O218 Zn212 2.114 . S
O218 C213 1.166 1_545 S
O219 Zn211 1.905 . S
O219 C213 1.182 . S
O220 Zn211 1.898 . S
O220 C214 1.167 . S
O221 Zn212 2.120 1_565 S
O221 C214 1.299 . S
O222 Zn210 1.898 . S
O222 C217 1.167 . S
O223 Zn212 2.120 . S
O223 C217 1.299 . S
O224 Zn212 2.114 . S
O224 C226 1.166 . S
O225 Zn210 1.905 . S
O225 C226 1.182 . S
C226 O224 1.166 . S
C226 O225 1.182 . S
O227 Zn212 2.080 . S
O227 C230 1.305 1_545 S
O228 Zn211 1.920 . S
O228 C230 1.234 . S
C229 O215 1.305 . S
C229 O216 1.234 . S
C230 O227 1.305 1_565 S
C230 O228 1.234 . S
Zn231 O237 1.920 . S
Zn231 O243 1.898 . S
Zn231 O246 1.905 . S
Zn232 O240 1.905 . S
Zn232 O241 1.898 . S
Zn232 O249 1.920 . S
Zn233 O236 2.080 . S
Zn233 O239 2.114 . S
Zn233 O242 2.120 . S
Zn233 O244 2.120 1_655 S
Zn233 O245 2.114 . S
Zn233 O248 2.080 . S
C234 O239 1.166 . S
C234 O240 1.182 . S
C235 O241 1.167 . S
C235 O242 1.299 . S
O236 Zn233 2.080 . S
O236 C250 1.305 1_655 S
O237 Zn231 1.920 . S
O237 C250 1.234 . S
C238 O243 1.167 . S
C238 O244 1.299 . S
O239 Zn233 2.114 . S
O239 C234 1.166 . S
O240 Zn232 1.905 . S
O240 C234 1.182 . S
O241 Zn232 1.898 . S
O241 C235 1.167 . S
O242 Zn233 2.120 . S
O242 C235 1.299 . S
O243 Zn231 1.898 . S
O243 C238 1.167 . S
O244 Zn233 2.120 1_455 S
O244 C238 1.299 . S
O245 Zn233 2.114 . S
O245 C247 1.166 1_655 S
O246 Zn231 1.905 . S
O246 C247 1.182 . S
C247 O245 1.166 1_455 S
C247 O246 1.182 . S
O248 Zn233 2.080 . S
O248 C251 1.305 . S
O249 Zn232 1.920 . S
O249 C251 1.234 . S
C250 O236 1.305 1_455 S
C250 O237 1.234 . S
C251 O248 1.305 . S
C251 O249 1.234 . S
Zn252 O258 1.920 1_655 S
Zn252 O264 1.898 . S
Zn252 O267 1.905 . S
Zn253 O261 1.905 . S
Zn253 O262 1.898 . S
Zn253 O270 1.920 . S
Zn254 O257 2.080 . S
Zn254 O260 2.114 . S
Zn254 O263 2.120 . S
Zn254 O265 2.120 . S
Zn254 O266 2.114 . S
Zn254 O269 2.080 . S
C255 O260 1.166 . S
C255 O261 1.182 . S
C256 O262 1.167 . S
C256 O263 1.299 . S
O257 Zn254 2.080 . S
O257 C271 1.305 . S
O258 Zn252 1.920 1_455 S
O258 C271 1.234 1_455 S
C259 O264 1.167 . S
C259 O265 1.299 . S
O260 Zn254 2.114 . S
O260 C255 1.166 . S
O261 Zn253 1.905 . S
O261 C255 1.182 . S
O262 Zn253 1.898 . S
O262 C256 1.167 . S
O263 Zn254 2.120 . S
O263 C256 1.299 . S
O264 Zn252 1.898 . S
O264 C259 1.167 . S
O265 Zn254 2.120 . S
O265 C259 1.299 . S
O266 Zn254 2.114 . S
O266 C268 1.166 . S
O267 Zn252 1.905 . S
O267 C268 1.182 . S
C268 O266 1.166 . S
C268 O267 1.182 . S
O269 Zn254 2.080 . S
O269 C272 1.305 . S
O270 Zn253 1.920 . S
O270 C272 1.234 . S
C271 O257 1.305 . S
C271 O258 1.234 1_655 S
C272 O269 1.305 . S
C272 O270 1.234 . S
Zn273 O279 1.920 . S
Zn273 O285 1.898 . S
Zn273 O288 1.905 . S
Zn274 O282 1.905 . S
Zn274 O283 1.898 . S
Zn274 O291 1.920 . S
Zn275 O278 2.080 . S
Zn275 O281 2.114 . S
Zn275 O284 2.120 . S
Zn275 O286 2.120 . S
Zn275 O287 2.114 . S
Zn275 O290 2.080 . S
C276 O281 1.166 . S
C276 O282 1.182 . S
C277 O283 1.167 . S
C277 O284 1.299 . S
O278 Zn275 2.080 . S
O278 C292 1.305 . S
O279 Zn273 1.920 . S
O279 C292 1.234 . S
C280 O285 1.167 . S
C280 O286 1.299 . S
O281 Zn275 2.114 . S
O281 C276 1.166 . S
O282 Zn274 1.905 . S
O282 C276 1.182 . S
O283 Zn274 1.898 . S
O283 C277 1.167 . S
O284 Zn275 2.120 . S
O284 C277 1.299 . S
O285 Zn273 1.898 . S
O285 C280 1.167 . S
O286 Zn275 2.120 . S
O286 C280 1.299 . S
O287 Zn275 2.114 . S
O287 C289 1.166 . S
O288 Zn273 1.905 . S
O288 C289 1.182 . S
C289 O287 1.166 . S
C289 O288 1.182 . S
O290 Zn275 2.080 . S
O290 C293 1.305 . S
O291 Zn274 1.920 . S
O291 C293 1.234 . S
C292 O278 1.305 . S
C292 O279 1.234 . S
C293 O290 1.305 . S
C293 O291 1.234 . S
Zn294 O300 1.920 . S
Zn294 O306 1.898 . S
Zn294 O309 1.905 . S
Zn295 O303 1.905 . S
Zn295 O304 1.898 . S
Zn295 O312 1.920 1_545 S
Zn296 O299 2.080 . S
Zn296 O302 2.114 . S
Zn296 O305 2.120 . S
Zn296 O307 2.120 . S
Zn296 O308 2.114 . S
Zn296 O311 2.080 . S
C297 O302 1.166 . S
C297 O303 1.182 . S
C298 O304 1.167 . S
C298 O305 1.299 . S
O299 Zn296 2.080 . S
O299 C313 1.305 . S
O300 Zn294 1.920 . S
O300 C313 1.234 . S
C301 O306 1.167 . S
C301 O307 1.299 . S
O302 Zn296 2.114 . S
O302 C297 1.166 . S
O303 Zn295 1.905 . S
O303 C297 1.182 . S
O304 Zn295 1.898 . S
O304 C298 1.167 . S
O305 Zn296 2.120 . S
O305 C298 1.299 . S
O306 Zn294 1.898 . S
O306 C301 1.167 . S
O307 Zn296 2.120 . S
O307 C301 1.299 . S
O308 Zn296 2.114 . S
O308 C310 1.166 . S
O309 Zn294 1.905 . S
O309 C310 1.182 . S
C310 O308 1.166 . S
C310 O309 1.182 . S
O311 Zn296 2.080 . S
O311 C314 1.305 . S
O312 Zn295 1.920 1_565 S
O312 C314 1.234 1_565 S
C313 O299 1.305 . S
C313 O300 1.234 . S
C314 O311 1.305 . S
C314 O312 1.234 1_545 S
Zn315 O321 1.920 . S
Zn315 O327 1.898 . S
Zn315 O330 1.905 . S
Zn316 O324 1.905 . S
Zn316 O325 1.898 . S
Zn316 O333 1.920 . S
Zn317 O320 2.080 . S
Zn317 O323 2.114 . S
Zn317 O326 2.120 . S
Zn317 O328 2.120 . S
Zn317 O329 2.114 . S
Zn317 O332 2.080 . S
C318 O323 1.166 . S
C318 O324 1.182 . S
C319 O325 1.167 . S
C319 O326 1.299 . S
O320 Zn317 2.080 . S
O320 C334 1.305 . S
O321 Zn315 1.920 . S
O321 C334 1.234 . S
C322 O327 1.167 . S
C322 O328 1.299 . S
O323 Zn317 2.114 . S
O323 C318 1.166 . S
O324 Zn316 1.905 . S
O324 C318 1.182 . S
O325 Zn316 1.898 . S
O325 C319 1.167 . S
O326 Zn317 2.120 . S
O326 C319 1.299 . S
O327 Zn315 1.898 . S
O327 C322 1.167 . S
O328 Zn317 2.120 . S
O328 C322 1.299 . S
O329 Zn317 2.114 . S
O329 C331 1.166 . S
O330 Zn315 1.905 . S
O330 C331 1.182 . S
C331 O329 1.166 . S
C331 O330 1.182 . S
O332 Zn317 2.080 . S
O332 C335 1.305 . S
O333 Zn316 1.920 . S
O333 C335 1.234 . S
C334 O320 1.305 . S
C334 O321 1.234 . S
C335 O332 1.305 . S
C335 O333 1.234 . S
Zn336 O342 1.920 . S
Zn336 O348 1.898 . S
Zn336 O351 1.905 . S
Zn337 O345 1.905 . S
Zn337 O346 1.898 . S
Zn337 O354 1.920 . S
Zn338 O341 2.080 . S
Zn338 O344 2.114 . S
Zn338 O347 2.120 . S
Zn338 O349 2.120 . S
Zn338 O350 2.114 . S
Zn338 O353 2.080 . S
C339 O344 1.166 . S
C339 O345 1.182 . S
C340 O346 1.167 . S
C340 O347 1.299 . S
O341 Zn338 2.080 . S
O341 C355 1.305 . S
O342 Zn336 1.920 . S
O342 C355 1.234 . S
C343 O348 1.167 . S
C343 O349 1.299 . S
O344 Zn338 2.114 . S
O344 C339 1.166 . S
O345 Zn337 1.905 . S
O345 C339 1.182 . S
O346 Zn337 1.898 . S
O346 C340 1.167 . S
O347 Zn338 2.120 . S
O347 C340 1.299 . S
O348 Zn336 1.898 . S
O348 C343 1.167 . S
O349 Zn338 2.120 . S
O349 C343 1.299 . S
O350 Zn338 2.114 . S
O350 C352 1.166 . S
O351 Zn336 1.905 . S
O351 C352 1.182 . S
C352 O350 1.166 . S
C352 O351 1.182 . S
O353 Zn338 2.080 . S
O353 C356 1.305 . S
O354 Zn337 1.920 . S
O354 C356 1.234 . S
C355 O341 1.305 . S
C355 O342 1.234 . S
C356 O353 1.305 . S
C356 O354 1.234 . S
Zn357 O363 1.920 . S
Zn357 O369 1.898 . S
Zn357 O372 1.905 . S
Zn358 O366 1.905 . S
Zn358 O367 1.898 . S
Zn358 O375 1.920 . S
Zn359 O362 2.080 . S
Zn359 O365 2.114 . S
Zn359 O368 2.120 . S
Zn359 O370 2.120 . S
Zn359 O371 2.114 . S
Zn359 O374 2.080 . S
C360 O365 1.166 . S
C360 O366 1.182 . S
C361 O367 1.167 . S
C361 O368 1.299 . S
O362 Zn359 2.080 . S
O362 C376 1.305 . S
O363 Zn357 1.920 . S
O363 C376 1.234 . S
C364 O369 1.167 . S
C364 O370 1.299 . S
O365 Zn359 2.114 . S
O365 C360 1.166 . S
O366 Zn358 1.905 . S
O366 C360 1.182 . S
O367 Zn358 1.898 . S
O367 C361 1.167 . S
O368 Zn359 2.120 . S
O368 C361 1.299 . S
O369 Zn357 1.898 . S
O369 C364 1.167 . S
O370 Zn359 2.120 . S
O370 C364 1.299 . S
O371 Zn359 2.114 . S
O371 C373 1.166 . S
O372 Zn357 1.905 . S
O372 C373 1.182 . S
C373 O371 1.166 . S
C373 O372 1.182 . S
O374 Zn359 2.080 . S
O374 C377 1.305 . S
O375 Zn358 1.920 . S
O375 C377 1.234 . S
C376 O362 1.305 . S
C376 O363 1.234 . S
C377 O374 1.305 . S
C377 O375 1.234 . S
Zn378 O384 1.920 . S
Zn378 O390 1.898 . S
Zn378 O393 1.905 . S
Zn379 O387 1.905 . S
Zn379 O388 1.898 . S
Zn379 O396 1.920 . S
Zn380 O383 2.080 . S
Zn380 O386 2.114 . S
Zn380 O389 2.120 . S
Zn380 O391 2.120 . S
Zn380 O392 2.114 . S
Zn380 O395 2.080 . S
C381 O386 1.166 . S
C381 O387 1.182 . S
C382 O388 1.167 . S
C382 O389 1.299 . S
O383 Zn380 2.080 . S
O383 C397 1.305 . S
O384 Zn378 1.920 . S
O384 C397 1.234 . S
C385 O390 1.167 . S
C385 O391 1.299 . S
O386 Zn380 2.114 . S
O386 C381 1.166 . S
O387 Zn379 1.905 . S
O387 C381 1.182 . S
O388 Zn379 1.898 . S
O388 C382 1.167 . S
O389 Zn380 2.120 . S
O389 C382 1.299 . S
O390 Zn378 1.898 . S
O390 C385 1.167 . S
O391 Zn380 2.120 . S
O391 C385 1.299 . S
O392 Zn380 2.114 . S
O392 C394 1.166 . S
O393 Zn378 1.905 . S
O393 C394 1.182 . S
C394 O392 1.166 . S
C394 O393 1.182 . S
O395 Zn380 2.080 . S
O395 C398 1.305 . S
O396 Zn379 1.920 . S
O396 C398 1.234 . S
C397 O383 1.305 . S
C397 O384 1.234 . S
C398 O395 1.305 . S
C398 O396 1.234 . S
Zn399 O405 1.920 . S
Zn399 O411 1.898 . S
Zn399 O414 1.905 . S
Zn400 O408 1.905 . S
Zn400 O409 1.898 . S
Zn400 O417 1.920 . S
Zn401 O404 2.080 . S
Zn401 O407 2.114 . S
Zn401 O410 2.120 . S
Zn401 O412 2.120 . S
Zn401 O413 2.114 . S
Zn401 O416 2.080 . S
C402 O407 1.166 . S
C402 O408 1.182 . S
C403 O409 1.167 . S
C403 O410 1.299 . S
O404 Zn401 2.080 . S
O404 C418 1.305 . S
O405 Zn399 1.920 . S
O405 C418 1.234 . S
C406 O411 1.167 . S
C406 O412 1.299 . S
O407 Zn401 2.114 . S
O407 C402 1.166 . S
O408 Zn400 1.905 . S
O408 C402 1.182 . S
O409 Zn400 1.898 . S
O409 C403 1.167 . S
O410 Zn401 2.120 . S
O410 C403 1.299 . S
O411 Zn399 1.898 . S
O411 C406 1.167 . S
O412 Zn401 2.120 . S
O412 C406 1.299 . S
O413 Zn401 2.114 . S
O413 C415 1.166 . S
O414 Zn399 1.905 . S
O414 C415 1.182 . S
C415 O413 1.166 . S
C415 O414 1.182 . S
O416 Zn401 2.080 . S
O416 C419 1.305 . S
O417 Zn400 1.920 . S
O417 C419 1.234 . S
C418 O404 1.305 . S
C418 O405 1.234 . S
C419 O416 1.305 . S
C419 O417 1.234 . S
Zn420 O426 1.920 . S
Zn420 O432 1.898 . S
Zn420 O435 1.905 . S
Zn421 O429 1.905 . S
Zn421 O430 1.898 . S
Zn421 O438 1.920 . S
Zn422 O425 2.080 . S
Zn422 O428 2.114 . S
Zn422 O431 2.120 . S
Zn422 O433 2.120 . S
Zn422 O434 2.114 . S
Zn422 O437 2.080 . S
C423 O428 1.166 . S
C423 O429 1.182 . S
C424 O430 1.167 . S
C424 O431 1.299 . S
O425 Zn422 2.080 . S
O425 C439 1.305 . S
O426 Zn420 1.920 . S
O426 C439 1.234 . S
C427 O432 1.167 . S
C427 O433 1.299 . S
O428 Zn422 2.114 . S
O428 C423 1.166 . S
O429 Zn421 1.905 . S
O429 C423 1.182 . S
O430 Zn421 1.898 . S
O430 C424 1.167 . S
O431 Zn422 2.120 . S
O431 C424 1.299 . S
O432 Zn420 1.898 . S
O432 C427 1.167 . S
O433 Zn422 2.120 . S
O433 C427 1.299 . S
O434 Zn422 2.114 . S
O434 C436 1.166 . S
O435 Zn420 1.905 . S
O435 C436 1.182 . S
C436 O434 1.166 . S
C436 O435 1.182 . S
O437 Zn422 2.080 . S
O437 C440 1.305 . S
O438 Zn421 1.920 . S
O438 C440 1.234 . S
C439 O425 1.305 . S
C439 O426 1.234 . S
C440 O437 1.305 . S
C440 O438 1.234 . S
Zn441 O447 1.920 . S
Zn441 O453 1.898 . S
Zn441 O456 1.905 1_556 S
Zn442 O450 1.905 . S
Zn442 O451 1.898 . S
Zn442 O459 1.920 1_545 S
Zn443 O446 2.080 . S
Zn443 O449 2.114 . S
Zn443 O452 2.120 . S
Zn443 O454 2.120 . S
Zn443 O455 2.105 1_556 S
Zn443 O458 2.080 . S
C444 O449 1.166 . S
C444 O450 1.182 . S
C445 O451 1.167 . S
C445 O452 1.299 . S
O446 Zn443 2.080 . S
O446 C460 1.305 . S
O447 Zn441 1.920 . S
O447 C460 1.234 . S
C448 O453 1.167 . S
C448 O454 1.299 . S
O449 Zn443 2.114 . S
O449 C444 1.166 . S
O450 Zn442 1.905 . S
O450 C444 1.182 . S
O451 Zn442 1.898 . S
O451 C445 1.167 . S
O452 Zn443 2.120 . S
O452 C445 1.299 . S
O453 Zn441 1.898 . S
O453 C448 1.167 . S
O454 Zn443 2.120 . S
O454 C448 1.299 . S
O455 Zn443 2.105 1_554 S
O455 C457 1.175 . S
O456 Zn441 1.905 1_554 S
O456 C457 1.182 . S
C457 O455 1.175 . S
C457 O456 1.182 . S
O458 Zn443 2.080 . S
O458 C461 1.305 . S
O459 Zn442 1.920 1_565 S
O459 C461 1.234 1_565 S
C460 O446 1.305 . S
C460 O447 1.234 . S
C461 O458 1.305 . S
C461 O459 1.234 1_545 S
Zn462 O468 1.920 1_655 S
Zn462 O474 1.898 . S
Zn462 O477 1.905 . S
Zn463 O471 1.905 1_556 S
Zn463 O472 1.898 . S
Zn463 O480 1.920 . S
Zn464 O467 2.080 . S
Zn464 O470 2.105 1_556 S
Zn464 O473 2.120 . S
Zn464 O475 2.120 . S
Zn464 O476 2.114 . S
Zn464 O479 2.080 . S
C465 O470 1.175 . S
C465 O471 1.182 . S
C466 O472 1.167 . S
C466 O473 1.299 . S
O467 Zn464 2.080 . S
O467 C481 1.305 . S
O468 Zn462 1.920 1_455 S
O468 C481 1.234 1_455 S
C469 O474 1.167 . S
C469 O475 1.299 . S
O470 Zn464 2.105 1_554 S
O470 C465 1.175 . S
O471 Zn463 1.905 1_554 S
O471 C465 1.182 . S
O472 Zn463 1.898 . S
O472 C466 1.167 . S
O473 Zn464 2.120 . S
O473 C466 1.299 . S
O474 Zn462 1.898 . S
O474 C469 1.167 . S
O475 Zn464 2.120 . S
O475 C469 1.299 . S
O476 Zn464 2.114 . S
O476 C478 1.166 . S
O477 Zn462 1.905 . S
O477 C478 1.182 . S
C478 O476 1.166 . S
C478 O477 1.182 . S
O479 Zn464 2.080 . S
O479 C482 1.305 . S
O480 Zn463 1.920 . S
O480 C482 1.234 . S
C481 O467 1.305 . S
C481 O468 1.234 1_655 S
C482 O479 1.305 . S
C482 O480 1.234 . S
Zn483 O489 1.920 . S
Zn483 O495 1.898 . S
Zn483 O498 1.905 1_556 S
Zn484 O492 1.905 . S
Zn484 O493 1.898 . S
Zn484 O501 1.920 . S
Zn485 O488 2.080 . S
Zn485 O491 2.114 . S
Zn485 O494 2.120 . S
Zn485 O496 2.120 . S
Zn485 O497 2.105 1_556 S
Zn485 O500 2.080 . S
C486 O491 1.166 . S
C486 O492 1.182 . S
C487 O493 1.167 . S
C487 O494 1.299 . S
O488 Zn485 2.080 . S
O488 C502 1.305 . S
O489 Zn483 1.920 . S
O489 C502 1.234 . S
C490 O495 1.167 . S
C490 O496 1.299 . S
O491 Zn485 2.114 . S
O491 C486 1.166 . S
O492 Zn484 1.905 . S
O492 C486 1.182 . S
O493 Zn484 1.898 . S
O493 C487 1.167 . S
O494 Zn485 2.120 . S
O494 C487 1.299 . S
O495 Zn483 1.898 . S
O495 C490 1.167 . S
O496 Zn485 2.120 . S
O496 C490 1.299 . S
O497 Zn485 2.105 1_554 S
O497 C499 1.175 . S
O498 Zn483 1.905 1_554 S
O498 C499 1.182 . S
C499 O497 1.175 . S
C499 O498 1.182 . S
O500 Zn485 2.080 . S
O500 C503 1.305 . S
O501 Zn484 1.920 . S
O501 C503 1.234 . S
C502 O488 1.305 . S
C502 O489 1.234 . S
C503 O500 1.305 . S
C503 O501 1.234 . S
Zn504 O510 1.920 . S
Zn504 O516 1.898 . S
Zn504 O519 1.905 . S
Zn505 O513 1.905 . S
Zn505 O514 1.898 . S
Zn505 O522 1.920 . S
Zn506 O509 2.080 . S
Zn506 O512 2.114 . S
Zn506 O515 2.120 . S
Zn506 O517 2.120 . S
Zn506 O518 2.114 . S
Zn506 O521 2.080 . S
C507 O512 1.166 . S
C507 O513 1.182 . S
C508 O514 1.167 . S
C508 O515 1.299 . S
O509 Zn506 2.080 . S
O509 C523 1.305 . S
O510 Zn504 1.920 . S
O510 C523 1.234 . S
C511 O516 1.167 . S
C511 O517 1.299 . S
O512 Zn506 2.114 . S
O512 C507 1.166 . S
O513 Zn505 1.905 . S
O513 C507 1.182 . S
O514 Zn505 1.898 . S
O514 C508 1.167 . S
O515 Zn506 2.120 . S
O515 C508 1.299 . S
O516 Zn504 1.898 . S
O516 C511 1.167 . S
O517 Zn506 2.120 . S
O517 C511 1.299 . S
O518 Zn506 2.114 . S
O518 C520 1.166 . S
O519 Zn504 1.905 . S
O519 C520 1.182 . S
C520 O518 1.166 . S
C520 O519 1.182 . S
O521 Zn506 2.080 . S
O521 C524 1.305 . S
O522 Zn505 1.920 . S
O522 C524 1.234 . S
C523 O509 1.305 . S
C523 O510 1.234 . S
C524 O521 1.305 . S
C524 O522 1.234 . S
Zn525 O531 1.920 . S
Zn525 O537 1.898 . S
Zn525 O540 1.905 . S
Zn526 O534 1.905 . S
Zn526 O535 1.898 . S
Zn526 O543 1.920 . S
Zn527 O530 2.080 . S
Zn527 O533 2.114 . S
Zn527 O536 2.120 . S
Zn527 O538 2.120 . S
Zn527 O539 2.114 . S
Zn527 O542 2.080 . S
C528 O533 1.166 . S
C528 O534 1.182 . S
C529 O535 1.167 . S
C529 O536 1.299 . S
O530 Zn527 2.080 . S
O530 C544 1.305 . S
O531 Zn525 1.920 . S
O531 C544 1.234 . S
C532 O537 1.167 . S
C532 O538 1.299 . S
O533 Zn527 2.114 . S
O533 C528 1.166 . S
O534 Zn526 1.905 . S
O534 C528 1.182 . S
O535 Zn526 1.898 . S
O535 C529 1.167 . S
O536 Zn527 2.120 . S
O536 C529 1.299 . S
O537 Zn525 1.898 . S
O537 C532 1.167 . S
O538 Zn527 2.120 . S
O538 C532 1.299 . S
O539 Zn527 2.114 . S
O539 C541 1.166 . S
O540 Zn525 1.905 . S
O540 C541 1.182 . S
C541 O539 1.166 . S
C541 O540 1.182 . S
O542 Zn527 2.080 . S
O542 C545 1.305 . S
O543 Zn526 1.920 . S
O543 C545 1.234 . S
C544 O530 1.305 . S
C544 O531 1.234 . S
C545 O542 1.305 . S
C545 O543 1.234 . S
Zn546 O552 1.920 . S
Zn546 O558 1.898 . S
Zn546 O561 1.905 . S
Zn547 O555 1.905 . S
Zn547 O556 1.898 . S
Zn547 O564 1.920 . S
Zn548 O551 2.080 . S
Zn548 O554 2.114 . S
Zn548 O557 2.120 . S
Zn548 O559 2.120 . S
Zn548 O560 2.114 . S
Zn548 O563 2.080 . S
C549 O554 1.166 . S
C549 O555 1.182 . S
C550 O556 1.167 . S
C550 O557 1.299 . S
O551 Zn548 2.080 . S
O551 C565 1.305 . S
O552 Zn546 1.920 . S
O552 C565 1.234 . S
C553 O558 1.167 . S
C553 O559 1.299 . S
O554 Zn548 2.114 . S
O554 C549 1.166 . S
O555 Zn547 1.905 . S
O555 C549 1.182 . S
O556 Zn547 1.898 . S
O556 C550 1.167 . S
O557 Zn548 2.120 . S
O557 C550 1.299 . S
O558 Zn546 1.898 . S
O558 C553 1.167 . S
O559 Zn548 2.120 . S
O559 C553 1.299 . S
O560 Zn548 2.114 . S
O560 C562 1.166 . S
O561 Zn546 1.905 . S
O561 C562 1.182 . S
C562 O560 1.166 . S
C562 O561 1.182 . S
O563 Zn548 2.080 . S
O563 C566 1.305 . S
O564 Zn547 1.920 . S
O564 C566 1.234 . S
C565 O551 1.305 . S
C565 O552 1.234 . S
C566 O563 1.305 . S
C566 O564 1.234 . S
Zn567 O573 1.920 . S
Zn567 O579 1.898 . S
Zn567 O582 1.905 1_554 S
Zn568 O576 1.905 . S
Zn568 O577 1.898 . S
Zn568 O585 1.920 1_565 S
Zn569 O572 2.080 . S
Zn569 O575 2.114 . S
Zn569 O578 2.120 . S
Zn569 O580 2.120 . S
Zn569 O581 2.105 1_554 S
Zn569 O584 2.080 . S
C570 O575 1.166 . S
C570 O576 1.182 . S
C571 O577 1.167 . S
C571 O578 1.299 . S
O572 Zn569 2.080 . S
O572 C586 1.305 . S
O573 Zn567 1.920 . S
O573 C586 1.234 . S
C574 O579 1.167 . S
C574 O580 1.299 . S
O575 Zn569 2.114 . S
O575 C570 1.166 . S
O576 Zn568 1.905 . S
O576 C570 1.182 . S
O577 Zn568 1.898 . S
O577 C571 1.167 . S
O578 Zn569 2.120 . S
O578 C571 1.299 . S
O579 Zn567 1.898 . S
O579 C574 1.167 . S
O580 Zn569 2.120 . S
O580 C574 1.299 . S
O581 Zn569 2.105 1_556 S
O581 C583 1.175 . S
O582 Zn567 1.905 1_556 S
O582 C583 1.182 . S
C583 O581 1.175 . S
C583 O582 1.182 . S
O584 Zn569 2.080 . S
O584 C587 1.305 . S
O585 Zn568 1.920 1_545 S
O585 C587 1.234 1_545 S
C586 O572 1.305 . S
C586 O573 1.234 . S
C587 O584 1.305 . S
C587 O585 1.234 1_565 S
Zn588 O594 1.920 . S
Zn588 O600 1.898 . S
Zn588 O603 1.905 1_554 S
Zn589 O597 1.905 . S
Zn589 O598 1.898 . S
Zn589 O606 1.920 1_455 S
Zn590 O593 2.080 . S
Zn590 O596 2.114 . S
Zn590 O599 2.120 . S
Zn590 O601 2.120 . S
Zn590 O602 2.105 1_554 S
Zn590 O605 2.080 . S
C591 O596 1.166 . S
C591 O597 1.182 . S
C592 O598 1.167 . S
C592 O599 1.299 . S
O593 Zn590 2.080 . S
O593 C607 1.305 . S
O594 Zn588 1.920 . S
O594 C607 1.234 . S
C595 O600 1.167 . S
C595 O601 1.299 . S
O596 Zn590 2.114 . S
O596 C591 1.166 . S
O597 Zn589 1.905 . S
O597 C591 1.182 . S
O598 Zn589 1.898 . S
O598 C592 1.167 . S
O599 Zn590 2.120 . S
O599 C592 1.299 . S
O600 Zn588 1.898 . S
O600 C595 1.167 . S
O601 Zn590 2.120 . S
O601 C595 1.299 . S
O602 Zn590 2.105 1_556 S
O602 C604 1.175 . S
O603 Zn588 1.905 1_556 S
O603 C604 1.182 . S
C604 O602 1.175 . S
C604 O603 1.182 . S
O605 Zn590 2.080 . S
O605 C608 1.305 . S
O606 Zn589 1.920 1_655 S
O606 C608 1.234 1_655 S
C607 O593 1.305 . S
C607 O594 1.234 . S
C608 O605 1.305 . S
C608 O606 1.234 1_455 S
Zn609 O615 1.920 . S
Zn609 O621 1.898 . S
Zn609 O624 1.905 1_554 S
Zn610 O618 1.905 . S
Zn610 O619 1.898 . S
Zn610 O627 1.920 . S
Zn611 O614 2.080 . S
Zn611 O617 2.114 . S
Zn611 O620 2.120 . S
Zn611 O622 2.120 . S
Zn611 O623 2.105 1_554 S
Zn611 O626 2.080 . S
C612 O617 1.166 . S
C612 O618 1.182 . S
C613 O619 1.167 . S
C613 O620 1.299 . S
O614 Zn611 2.080 . S
O614 C628 1.305 . S
O615 Zn609 1.920 . S
O615 C628 1.234 . S
C616 O621 1.167 . S
C616 O622 1.299 . S
O617 Zn611 2.114 . S
O617 C612 1.166 . S
O618 Zn610 1.905 . S
O618 C612 1.182 . S
O619 Zn610 1.898 . S
O619 C613 1.167 . S
O620 Zn611 2.120 . S
O620 C613 1.299 . S
O621 Zn609 1.898 . S
O621 C616 1.167 . S
O622 Zn611 2.120 . S
O622 C616 1.299 . S
O623 Zn611 2.105 1_556 S
O623 C625 1.175 . S
O624 Zn609 1.905 1_556 S
O624 C625 1.182 . S
C625 O623 1.175 . S
C625 O624 1.182 . S
O626 Zn611 2.080 . S
O626 C629 1.305 . S
O627 Zn610 1.920 . S
O627 C629 1.234 . S
C628 O614 1.305 . S
C628 O615 1.234 . S
C629 O626 1.305 . S
C629 O627 1.234 . S
Zn630 O636 1.920 1_455 S
Zn630 O642 1.898 . S
Zn630 O645 1.905 . S
Zn631 O639 1.905 . S
Zn631 O640 1.898 . S
Zn631 O648 1.920 . S
Zn632 O635 2.080 . S
Zn632 O638 2.114 . S
Zn632 O641 2.120 . S
Zn632 O643 2.120 . S
Zn632 O644 2.114 . S
Zn632 O647 2.080 . S
C633 O638 1.166 . S
C633 O639 1.182 . S
C634 O640 1.167 . S
C634 O641 1.299 . S
O635 Zn632 2.080 . S
O635 C649 1.305 . S
O636 Zn630 1.920 1_655 S
O636 C649 1.234 1_655 S
C637 O642 1.167 . S
C637 O643 1.299 . S
O638 Zn632 2.114 . S
O638 C633 1.166 . S
O639 Zn631 1.905 . S
O639 C633 1.182 . S
O640 Zn631 1.898 . S
O640 C634 1.167 . S
O641 Zn632 2.120 . S
O641 C634 1.299 . S
O642 Zn630 1.898 . S
O642 C637 1.167 . S
O643 Zn632 2.120 . S
O643 C637 1.299 . S
O644 Zn632 2.114 . S
O644 C646 1.166 . S
O645 Zn630 1.905 . S
O645 C646 1.182 . S
C646 O644 1.166 . S
C646 O645 1.182 . S
O647 Zn632 2.080 . S
O647 C650 1.305 . S
O648 Zn631 1.920 . S
O648 C650 1.234 . S
C649 O635 1.305 . S
C649 O636 1.234 1_455 S
C650 O647 1.305 . S
C650 O648 1.234 . S
Zn651 O657 1.920 . S
Zn651 O663 1.898 . S
Zn651 O666 1.905 . S
Zn652 O660 1.905 . S
Zn652 O661 1.898 . S
Zn652 O669 1.920 . S
Zn653 O656 2.080 . S
Zn653 O659 2.114 . S
Zn653 O662 2.120 . S
Zn653 O664 2.120 . S
Zn653 O665 2.114 . S
Zn653 O668 2.080 . S
C654 O659 1.166 . S
C654 O660 1.182 . S
C655 O661 1.167 . S
C655 O662 1.299 . S
O656 Zn653 2.080 . S
O656 C670 1.305 . S
O657 Zn651 1.920 . S
O657 C670 1.234 . S
C658 O663 1.167 . S
C658 O664 1.299 . S
O659 Zn653 2.114 . S
O659 C654 1.166 . S
O660 Zn652 1.905 . S
O660 C654 1.182 . S
O661 Zn652 1.898 . S
O661 C655 1.167 . S
O662 Zn653 2.120 . S
O662 C655 1.299 . S
O663 Zn651 1.898 . S
O663 C658 1.167 . S
O664 Zn653 2.120 . S
O664 C658 1.299 . S
O665 Zn653 2.114 . S
O665 C667 1.166 . S
O666 Zn651 1.905 . S
O666 C667 1.182 . S
C667 O665 1.166 . S
C667 O666 1.182 . S
O668 Zn653 2.080 . S
O668 C671 1.305 . S
O669 Zn652 1.920 . S
O669 C671 1.234 . S
C670 O656 1.305 . S
C670 O657 1.234 . S
C671 O668 1.305 . S
C671 O669 1.234 . S
Zn672 O678 1.920 1_565 S
Zn672 O684 1.898 . S
Zn672 O687 1.905 . S
Zn673 O681 1.905 . S
Zn673 O682 1.898 . S
Zn673 O690 1.920 . S
Zn674 O677 2.080 . S
Zn674 O680 2.114 . S
Zn674 O683 2.120 . S
Zn674 O685 2.120 . S
Zn674 O686 2.114 . S
Zn674 O689 2.080 . S
C675 O680 1.166 . S
C675 O681 1.182 . S
C676 O682 1.167 . S
C676 O683 1.299 . S
O677 Zn674 2.080 . S
O677 C691 1.305 . S
O678 Zn672 1.920 1_545 S
O678 C691 1.234 1_545 S
C679 O684 1.167 . S
C679 O685 1.299 . S
O680 Zn674 2.114 . S
O680 C675 1.166 . S
O681 Zn673 1.905 . S
O681 C675 1.182 . S
O682 Zn673 1.898 . S
O682 C676 1.167 . S
O683 Zn674 2.120 . S
O683 C676 1.299 . S
O684 Zn672 1.898 . S
O684 C679 1.167 . S
O685 Zn674 2.120 . S
O685 C679 1.299 . S
O686 Zn674 2.114 . S
O686 C688 1.166 . S
O687 Zn672 1.905 . S
O687 C688 1.182 . S
C688 O686 1.166 . S
C688 O687 1.182 . S
O689 Zn674 2.080 . S
O689 C692 1.305 . S
O690 Zn673 1.920 . S
O690 C692 1.234 . S
C691 O677 1.305 . S
C691 O678 1.234 1_565 S
C692 O689 1.305 . S
C692 O690 1.234 . S
Zn693 O699 1.920 . S
Zn693 O705 1.898 . S
Zn693 O708 1.905 . S
Zn694 O702 1.905 . S
Zn694 O703 1.898 . S
Zn694 O711 1.920 . S
Zn695 O698 2.080 . S
Zn695 O701 2.114 . S
Zn695 O704 2.120 . S
Zn695 O706 2.120 . S
Zn695 O707 2.114 . S
Zn695 O710 2.080 . S
C696 O701 1.166 . S
C696 O702 1.182 . S
C697 O703 1.167 . S
C697 O704 1.299 . S
O698 Zn695 2.080 . S
O698 C712 1.305 . S
O699 Zn693 1.920 . S
O699 C712 1.234 . S
C700 O705 1.167 . S
C700 O706 1.299 . S
O701 Zn695 2.114 . S
O701 C696 1.166 . S
O702 Zn694 1.905 . S
O702 C696 1.182 . S
O703 Zn694 1.898 . S
O703 C697 1.167 . S
O704 Zn695 2.120 . S
O704 C697 1.299 . S
O705 Zn693 1.898 . S
O705 C700 1.167 . S
O706 Zn695 2.120 . S
O706 C700 1.299 . S
O707 Zn695 2.114 . S
O707 C709 1.166 . S
O708 Zn693 1.905 . S
O708 C709 1.182 . S
C709 O707 1.166 . S
C709 O708 1.182 . S
O710 Zn695 2.080 . S
O710 C713 1.305 . S
O711 Zn694 1.920 . S
O711 C713 1.234 . S
C712 O698 1.305 . S
C712 O699 1.234 . S
C713 O710 1.305 . S
C713 O711 1.234 . S
Zn714 O720 1.920 . S
Zn714 O726 1.898 . S
Zn714 O729 1.905 . S
Zn715 O723 1.905 . S
Zn715 O724 1.898 . S
Zn715 O732 1.920 . S
Zn716 O719 2.080 . S
Zn716 O722 2.114 . S
Zn716 O725 2.120 . S
Zn716 O727 2.120 . S
Zn716 O728 2.114 . S
Zn716 O731 2.080 . S
C717 O722 1.166 . S
C717 O723 1.182 . S
C718 O724 1.167 . S
C718 O725 1.299 . S
O719 Zn716 2.080 . S
O719 C733 1.305 . S
O720 Zn714 1.920 . S
O720 C733 1.234 . S
C721 O726 1.167 . S
C721 O727 1.299 . S
O722 Zn716 2.114 . S
O722 C717 1.166 . S
O723 Zn715 1.905 . S
O723 C717 1.182 . S
O724 Zn715 1.898 . S
O724 C718 1.167 . S
O725 Zn716 2.120 . S
O725 C718 1.299 . S
O726 Zn714 1.898 . S
O726 C721 1.167 . S
O727 Zn716 2.120 . S
O727 C721 1.299 . S
O728 Zn716 2.114 . S
O728 C730 1.166 . S
O729 Zn714 1.905 . S
O729 C730 1.182 . S
C730 O728 1.166 . S
C730 O729 1.182 . S
O731 Zn716 2.080 . S
O731 C734 1.305 . S
O732 Zn715 1.920 . S
O732 C734 1.234 . S
C733 O719 1.305 . S
C733 O720 1.234 . S
C734 O731 1.305 . S
C734 O732 1.234 . S
Zn735 O741 1.920 . S
Zn735 O747 1.898 . S
Zn735 O750 1.905 . S
Zn736 O744 1.905 . S
Zn736 O745 1.898 . S
Zn736 O753 1.920 . S
Zn737 O740 2.080 . S
Zn737 O743 2.114 . S
Zn737 O746 2.120 . S
Zn737 O748 2.120 . S
Zn737 O749 2.114 . S
Zn737 O752 2.080 . S
C738 O743 1.166 . S
C738 O744 1.182 . S
C739 O745 1.167 . S
C739 O746 1.299 . S
O740 Zn737 2.080 . S
O740 C754 1.305 . S
O741 Zn735 1.920 . S
O741 C754 1.234 . S
C742 O747 1.167 . S
C742 O748 1.299 . S
O743 Zn737 2.114 . S
O743 C738 1.166 . S
O744 Zn736 1.905 . S
O744 C738 1.182 . S
O745 Zn736 1.898 . S
O745 C739 1.167 . S
O746 Zn737 2.120 . S
O746 C739 1.299 . S
O747 Zn735 1.898 . S
O747 C742 1.167 . S
O748 Zn737 2.120 . S
O748 C742 1.299 . S
O749 Zn737 2.114 . S
O749 C751 1.166 . S
O750 Zn735 1.905 . S
O750 C751 1.182 . S
C751 O749 1.166 . S
C751 O750 1.182 . S
O752 Zn737 2.080 . S
O752 C755 1.305 . S
O753 Zn736 1.920 . S
O753 C755 1.234 . S
C754 O740 1.305 . S
C754 O741 1.234 . S
C755 O752 1.305 . S
C755 O753 1.234 . S
C16 C154 0.737 1_554 S
C172 C37 0.736 1_556 S
C130 C58 0.736 1_556 S
C238 C66 0.737 . S
C87 C193 0.736 . S
C108 C214 0.736 . S
C25 C142 0.737 1_554 S
C150 C46 0.736 1_556 S
C4 C184 0.736 1_554 S
C112 C205 0.737 . S
C226 C70 0.736 . S
C234 C91 0.736 . S
C268 C403 0.737 . S
C424 C289 0.737 . S
C382 C297 0.736 . S
C318 C490 0.737 . S
C448 C339 0.736 . S
C360 C466 0.737 . S
C394 C277 0.737 . S
C301 C415 0.737 . S
C436 C256 0.736 . S
C364 C444 0.737 . S
C322 C478 0.736 . S
C486 C343 0.737 . S
C507 C658 0.737 . S
C541 C676 0.737 . S
C634 C562 0.736 . S
C742 C570 0.737 . S
C591 C697 0.736 . S
C721 C612 0.737 . S
C529 C646 0.737 . S
C654 C550 0.737 . S
C511 C688 0.736 . S
C709 C616 0.737 . S
C717 C574 0.736 . S
C738 C595 0.737 . S
C7 C385 1.427 . S
C28 C406 1.427 . S
C427 C49 1.427 . S
C700 C67 1.427 . S
C718 C88 1.427 . S
C739 C109 1.427 . S
C133 C508 1.427 . S
C532 C151 1.427 . S
C175 C553 1.427 . S
C196 C319 1.427 . S
C217 C340 1.427 . S
C235 C361 1.427 . S
C259 C637 1.427 1_655 S
C655 C280 1.427 . S
C298 C679 1.427 1_545 S
C571 C445 1.427 1_564 S
C469 C592 1.427 1_656 S
C613 C487 1.427 1_554 S
C19 C356 1.242 . S
C40 C377 1.242 . S
C335 C61 1.242 . S
C83 C565 1.242 . S
C524 C104 1.242 . S
C125 C544 1.242 . S
C734 C145 1.242 . S
C167 C755 1.242 . S
C712 C187 1.242 . S
C208 C439 1.242 . S
C229 C397 1.242 . S
C251 C418 1.242 . S
C608 C271 1.242 1_455 S
C292 C629 1.242 . S
C314 C587 1.242 1_545 S
C691 C461 1.242 1_565 S
C649 C481 1.242 1_455 S
C671 C503 1.242 . S
C79 C3 1.287 . S
C24 C100 1.287 1_565 S
C45 C121 1.287 1_455 S
C192 C129 1.287 . S
C163 C213 1.287 1_545 S
C247 C171 1.287 1_455 S
C331 C255 1.287 . S
C276 C352 1.287 . S
C310 C373 1.287 . S
C381 C457 1.287 . S
C402 C465 1.287 . S
C423 C499 1.287 . S
C520 C583 1.287 . S
C604 C528 1.287 . S
C625 C549 1.287 . S
C633 C696 1.287 . S
C730 C667 1.287 . S
C675 C751 1.287 . S
C20 C628 0.890 . S
C586 C41 0.890 . S
C62 C607 0.889 . S
C293 C82 0.890 . S
C103 C313 0.889 . S
C124 C272 0.890 . S
C502 C146 0.890 . S
C166 C460 0.890 . S
C482 C188 0.889 . S
C209 C670 0.890 . S
C692 C230 0.889 . S
C650 C250 0.890 . S
C334 C545 0.890 1_655 S
C355 C566 0.889 . S
C376 C523 0.890 1_545 S
C398 C754 0.890 1_545 S
C419 C713 0.890 1_655 S
C733 C440 0.889 . S
