# Generated by pormake.
# Topology cag, (4)-cn, num edge types: 1
# Building blocks:
#     Node 0, Type 0, BuildingBlock: AZAVOO_clean_sbu_0, # of connection points: 4
#     Node 1, Type 0, BuildingBlock: AZAVOO_clean_sbu_0, # of connection points: 4
#     Node 2, Type 0, BuildingBlock: AZAVOO_clean_sbu_0, # of connection points: 4
#     Node 3, Type 0, BuildingBlock: AZAVOO_clean_sbu_0, # of connection points: 4
#     Node 4, Type 0, BuildingBlock: AZAVOO_clean_sbu_0, # of connection points: 4
#     Node 5, Type 0, BuildingBlock: AZAVOO_clean_sbu_0, # of connection points: 4
#     Node 6, Type 0, BuildingBlock: AZAVOO_clean_sbu_0, # of connection points: 4
#     Node 7, Type 0, BuildingBlock: AZAVOO_clean_sbu_0, # of connection points: 4
#     Node 8, Type 0, BuildingBlock: AZAVOO_clean_sbu_0, # of connection points: 4
#     Node 9, Type 0, BuildingBlock: AZAVOO_clean_sbu_0, # of connection points: 4
#     Node 10, Type 0, BuildingBlock: AZAVOO_clean_sbu_0, # of connection points: 4
#     Node 11, Type 0, BuildingBlock: AZAVOO_clean_sbu_0, # of connection points: 4
#     Node 12, Type 0, BuildingBlock: AZAVOO_clean_sbu_0, # of connection points: 4
#     Node 13, Type 0, BuildingBlock: AZAVOO_clean_sbu_0, # of connection points: 4
#     Node 14, Type 0, BuildingBlock: AZAVOO_clean_sbu_0, # of connection points: 4
#     Node 15, Type 0, BuildingBlock: AZAVOO_clean_sbu_0, # of connection points: 4
#     Edge 16, Type (0, 0), BuildingBlock: ZUJKAS_clean_linker_0, # of connection points: 2
#     Edge 17, Type (0, 0), BuildingBlock: ZUJKAS_clean_linker_0, # of connection points: 2
#     Edge 18, Type (0, 0), BuildingBlock: ZUJKAS_clean_linker_0, # of connection points: 2
#     Edge 19, Type (0, 0), BuildingBlock: ZUJKAS_clean_linker_0, # of connection points: 2
#     Edge 20, Type (0, 0), BuildingBlock: ZUJKAS_clean_linker_0, # of connection points: 2
#     Edge 21, Type (0, 0), BuildingBlock: ZUJKAS_clean_linker_0, # of connection points: 2
#     Edge 22, Type (0, 0), BuildingBlock: ZUJKAS_clean_linker_0, # of connection points: 2
#     Edge 23, Type (0, 0), BuildingBlock: ZUJKAS_clean_linker_0, # of connection points: 2
#     Edge 24, Type (0, 0), BuildingBlock: ZUJKAS_clean_linker_0, # of connection points: 2
#     Edge 25, Type (0, 0), BuildingBlock: ZUJKAS_clean_linker_0, # of connection points: 2
#     Edge 26, Type (0, 0), BuildingBlock: ZUJKAS_clean_linker_0, # of connection points: 2
#     Edge 27, Type (0, 0), BuildingBlock: ZUJKAS_clean_linker_0, # of connection points: 2
#     Edge 28, Type (0, 0), BuildingBlock: ZUJKAS_clean_linker_0, # of connection points: 2
#     Edge 29, Type (0, 0), BuildingBlock: ZUJKAS_clean_linker_0, # of connection points: 2
#     Edge 30, Type (0, 0), BuildingBlock: ZUJKAS_clean_linker_0, # of connection points: 2
#     Edge 31, Type (0, 0), BuildingBlock: ZUJKAS_clean_linker_0, # of connection points: 2
#     Edge 32, Type (0, 0), BuildingBlock: ZUJKAS_clean_linker_0, # of connection points: 2
#     Edge 33, Type (0, 0), BuildingBlock: ZUJKAS_clean_linker_0, # of connection points: 2
#     Edge 34, Type (0, 0), BuildingBlock: ZUJKAS_clean_linker_0, # of connection points: 2
#     Edge 35, Type (0, 0), BuildingBlock: ZUJKAS_clean_linker_0, # of connection points: 2
#     Edge 36, Type (0, 0), BuildingBlock: ZUJKAS_clean_linker_0, # of connection points: 2
#     Edge 37, Type (0, 0), BuildingBlock: ZUJKAS_clean_linker_0, # of connection points: 2
#     Edge 38, Type (0, 0), BuildingBlock: ZUJKAS_clean_linker_0, # of connection points: 2
#     Edge 39, Type (0, 0), BuildingBlock: ZUJKAS_clean_linker_0, # of connection points: 2
#     Edge 40, Type (0, 0), BuildingBlock: ZUJKAS_clean_linker_0, # of connection points: 2
#     Edge 41, Type (0, 0), BuildingBlock: ZUJKAS_clean_linker_0, # of connection points: 2
#     Edge 42, Type (0, 0), BuildingBlock: ZUJKAS_clean_linker_0, # of connection points: 2
#     Edge 43, Type (0, 0), BuildingBlock: ZUJKAS_clean_linker_0, # of connection points: 2
#     Edge 44, Type (0, 0), BuildingBlock: ZUJKAS_clean_linker_0, # of connection points: 2
#     Edge 45, Type (0, 0), BuildingBlock: ZUJKAS_clean_linker_0, # of connection points: 2
#     Edge 46, Type (0, 0), BuildingBlock: ZUJKAS_clean_linker_0, # of connection points: 2
#     Edge 47, Type (0, 0), BuildingBlock: ZUJKAS_clean_linker_0, # of connection points: 2
# Relax obj value: 0.058
# Max RMSD: 0.100
# Mean RMSD: 0.096
data_MOF--net-cag--node1-AZAVOO_clean_sbu_0--edge1-ZUJKAS_clean_linker_0
_symmetry_space_group_name_H-M    P1
_symmetry_Int_Tables_number       1
_symmetry_cell_setting            triclinic
loop_
_symmetry_equiv_pos_as_xyz
'x, y, z'
_cell_length_a     57.512246
_cell_length_b     60.107786
_cell_length_c     55.720929
_cell_angle_alpha  89.983829
_cell_angle_beta   89.98213
_cell_angle_gamma 90.009073
loop_
_atom_site_label
_atom_site_type_symbol
_atom_site_fract_x
_atom_site_fract_y
_atom_site_fract_z
_atom_type_partial_charge
Mg0 Mg 0.34485 0.12364 0.11595 0.0
O1 O 0.33992 0.09522 0.08868 0.0
O2 O 0.30169 0.08954 0.08473 0.0
Mg3 Mg 0.28217 0.11394 0.10861 0.0
C4 C 0.32272 0.08484 0.07942 0.0
C5 C 0.39539 0.14115 0.1164 0.0
O6 O 0.38525 0.15458 0.1318 0.0
O7 O 0.33388 0.14938 0.0879 0.0
O8 O 0.29567 0.14252 0.08522 0.0
O9 O 0.34426 0.09949 0.14664 0.0
O10 O 0.3131 0.11572 0.13143 0.0
C11 C 0.31379 0.15347 0.07917 0.0
C12 C 0.32188 0.10166 0.14626 0.0
O13 O 0.38317 0.1265 0.10587 0.0
Mg14 Mg 0.15585 0.87704 0.61694 0.0
O15 O 0.16278 0.90544 0.59021 0.0
O16 O 0.20121 0.91107 0.58901 0.0
Mg17 Mg 0.21885 0.88711 0.61504 0.0
C18 C 0.1806 0.91568 0.58207 0.0
C19 C 0.10677 0.85675 0.60889 0.0
O20 O 0.11706 0.84044 0.62046 0.0
O21 O 0.16927 0.85165 0.58957 0.0
O22 O 0.20756 0.85818 0.59092 0.0
O23 O 0.15383 0.90104 0.64775 0.0
O24 O 0.18617 0.88512 0.63496 0.0
C25 C 0.19009 0.84729 0.58302 0.0
C26 C 0.17619 0.89902 0.64912 0.0
O27 O 0.11843 0.87408 0.6038 0.0
Mg28 Mg 0.3467 0.87154 0.87058 0.0
O29 O 0.34109 0.90011 0.89747 0.0
O30 O 0.30284 0.90611 0.90026 0.0
Mg31 Mg 0.28403 0.88156 0.876 0.0
C32 C 0.32374 0.91065 0.90619 0.0
C33 C 0.39853 0.86023 0.86675 0.0
O34 O 0.38997 0.85226 0.84665 0.0
O35 O 0.33497 0.84612 0.89866 0.0
O36 O 0.29679 0.85337 0.9004 0.0
O37 O 0.34707 0.89558 0.83999 0.0
O38 O 0.3154 0.87911 0.85364 0.0
C39 C 0.31467 0.84239 0.90705 0.0
C40 C 0.32472 0.89313 0.83905 0.0
O41 O 0.38472 0.86909 0.88178 0.0
Mg42 Mg 0.15561 0.12661 0.37071 0.0
O43 O 0.16266 0.09702 0.39584 0.0
O44 O 0.20094 0.09064 0.39558 0.0
Mg45 Mg 0.21834 0.11572 0.37071 0.0
C46 C 0.18044 0.08605 0.40285 0.0
C47 C 0.10578 0.14491 0.37703 0.0
O48 O 0.11503 0.1597 0.3625 0.0
O49 O 0.16981 0.15079 0.39893 0.0
O50 O 0.2079 0.14362 0.39651 0.0
O51 O 0.15256 0.10373 0.33919 0.0
O52 O 0.18544 0.11912 0.35105 0.0
C53 C 0.19082 0.15449 0.4053 0.0
C54 C 0.17483 0.10579 0.33666 0.0
O55 O 0.11848 0.1292 0.38485 0.0
Mg56 Mg 0.6956 0.85487 0.91239 0.0
O57 O 0.70262 0.88612 0.93475 0.0
O58 O 0.7408 0.8882 0.94164 0.0
Mg59 Mg 0.75827 0.85848 0.92335 0.0
C60 C 0.72022 0.89588 0.9439 0.0
C61 C 0.64716 0.85719 0.88866 0.0
O62 O 0.65801 0.84291 0.87475 0.0
O63 O 0.70948 0.87255 0.87905 0.0
O64 O 0.7477 0.87265 0.88659 0.0
O65 O 0.69337 0.83399 0.94559 0.0
O66 O 0.72565 0.83967 0.92502 0.0
C67 C 0.7304 0.87707 0.87298 0.0
C68 C 0.7155 0.83073 0.94317 0.0
O69 O 0.65833 0.86624 0.90575 0.0
Mg70 Mg 0.80625 0.14681 0.41162 0.0
O71 O 0.79942 0.11473 0.43295 0.0
O72 O 0.76092 0.11157 0.43718 0.0
Mg73 Mg 0.74323 0.14147 0.41975 0.0
C74 C 0.78152 0.10426 0.44051 0.0
C75 C 0.85693 0.15215 0.39679 0.0
O76 O 0.84727 0.17118 0.39087 0.0
O77 O 0.79407 0.12965 0.37724 0.0
O78 O 0.75557 0.12884 0.38299 0.0
O79 O 0.80689 0.16715 0.44523 0.0
O80 O 0.77532 0.16071 0.42387 0.0
C81 C 0.77351 0.12505 0.37006 0.0
C82 C 0.78469 0.16965 0.44247 0.0
O83 O 0.84416 0.13698 0.40573 0.0
Mg84 Mg 0.69456 0.15379 0.08118 0.0
O85 O 0.70142 0.12197 0.05957 0.0
O86 O 0.73982 0.1192 0.05413 0.0
Mg87 Mg 0.75744 0.14911 0.07181 0.0
C88 C 0.71919 0.11177 0.05133 0.0
C89 C 0.64425 0.15682 0.09914 0.0
O90 O 0.65374 0.17512 0.10754 0.0
O91 O 0.70754 0.1364 0.11498 0.0
O92 O 0.746 0.13623 0.10891 0.0
O93 O 0.6929 0.17423 0.04776 0.0
O94 O 0.72508 0.16816 0.06828 0.0
C95 C 0.72823 0.13211 0.12198 0.0
C96 C 0.71515 0.17693 0.04988 0.0
O97 O 0.65697 0.1432 0.08764 0.0
Mg98 Mg 0.80635 0.84859 0.58358 0.0
O99 O 0.79922 0.88022 0.56174 0.0
O100 O 0.76068 0.88392 0.55874 0.0
Mg101 Mg 0.74319 0.85457 0.57761 0.0
C102 C 0.78129 0.8908 0.5545 0.0
C103 C 0.85804 0.84265 0.59408 0.0
O104 O 0.8491 0.82294 0.59846 0.0
O105 O 0.79555 0.86668 0.61785 0.0
O106 O 0.75686 0.86756 0.61375 0.0
O107 O 0.80562 0.82774 0.55035 0.0
O108 O 0.77485 0.8348 0.57273 0.0
C109 C 0.77531 0.87146 0.62584 0.0
C110 C 0.78348 0.82561 0.55389 0.0
O111 O 0.84449 0.85831 0.58778 0.0
Mg112 Mg 0.84278 0.62421 0.11864 0.0
O113 O 0.83462 0.59621 0.09188 0.0
O114 O 0.79617 0.59038 0.09198 0.0
Mg115 Mg 0.77952 0.61713 0.11537 0.0
C116 C 0.81665 0.58557 0.08487 0.0
C117 C 0.89346 0.64001 0.11459 0.0
O118 O 0.8842 0.65497 0.12889 0.0
O119 O 0.83172 0.65022 0.09099 0.0
O120 O 0.79325 0.64414 0.0898 0.0
O121 O 0.84188 0.5997 0.14916 0.0
O122 O 0.81162 0.61892 0.13633 0.0
C123 C 0.81146 0.65446 0.08277 0.0
C124 C 0.81989 0.60413 0.15061 0.0
O125 O 0.88055 0.62472 0.10621 0.0
Mg126 Mg 0.66329 0.37848 0.61604 0.0
O127 O 0.67048 0.40606 0.58836 0.0
O128 O 0.70902 0.41051 0.58619 0.0
Mg129 Mg 0.72647 0.3864 0.6121 0.0
C130 C 0.68844 0.41563 0.57961 0.0
C131 C 0.61008 0.37863 0.62034 0.0
O132 O 0.61706 0.3821 0.64247 0.0
O133 O 0.67496 0.35196 0.58902 0.0
O134 O 0.71342 0.35747 0.58908 0.0
O135 O 0.66317 0.40346 0.64597 0.0
O136 O 0.69446 0.38572 0.63349 0.0
C137 C 0.69544 0.34689 0.58196 0.0
C138 C 0.68538 0.40034 0.64751 0.0
O139 O 0.62532 0.37626 0.60398 0.0
Mg140 Mg 0.84868 0.37644 0.8718 0.0
O141 O 0.83976 0.40439 0.89841 0.0
O142 O 0.8016 0.41137 0.89512 0.0
Mg143 Mg 0.78582 0.38712 0.8681 0.0
C144 C 0.82154 0.41527 0.90429 0.0
C145 C 0.89804 0.35781 0.87923 0.0
O146 O 0.88925 0.34389 0.86348 0.0
O147 O 0.83299 0.35096 0.89776 0.0
O148 O 0.79508 0.35782 0.89276 0.0
O149 O 0.85322 0.40099 0.84162 0.0
O150 O 0.81996 0.38496 0.85136 0.0
C151 C 0.81163 0.34664 0.90218 0.0
C152 C 0.83102 0.39915 0.83846 0.0
O153 O 0.88512 0.37311 0.88758 0.0
Mg154 Mg 0.65218 0.62812 0.37212 0.0
O155 O 0.66255 0.59963 0.39731 0.0
O156 O 0.70115 0.59563 0.39573 0.0
Mg157 Mg 0.71564 0.62209 0.37035 0.0
C158 C 0.68124 0.58983 0.40374 0.0
C159 C 0.59913 0.62877 0.37169 0.0
O160 O 0.6048 0.63031 0.3489 0.0
O161 O 0.66488 0.65364 0.39986 0.0
O162 O 0.70334 0.64887 0.39662 0.0
O163 O 0.65125 0.60408 0.34111 0.0
O164 O 0.68207 0.62346 0.35203 0.0
C165 C 0.68573 0.6586 0.40584 0.0
C166 C 0.67305 0.6087 0.33823 0.0
O167 O 0.61529 0.62772 0.38721 0.0
Mg168 Mg 0.19736 0.35246 0.90944 0.0
O169 O 0.20567 0.38379 0.93134 0.0
O170 O 0.24415 0.38506 0.9366 0.0
Mg171 Mg 0.26048 0.35492 0.91814 0.0
C172 C 0.22387 0.39321 0.93968 0.0
C173 C 0.14664 0.34966 0.89427 0.0
O174 O 0.15573 0.33076 0.88704 0.0
O175 O 0.21047 0.36959 0.87532 0.0
O176 O 0.24887 0.36902 0.88178 0.0
O177 O 0.19576 0.33219 0.94305 0.0
O178 O 0.22753 0.33694 0.92137 0.0
C179 C 0.23132 0.37369 0.86863 0.0
C180 C 0.21778 0.32866 0.94011 0.0
O181 O 0.1599 0.36399 0.90399 0.0
Mg182 Mg 0.3035 0.64751 0.41247 0.0
O183 O 0.29701 0.61593 0.43462 0.0
O184 O 0.25871 0.61283 0.44029 0.0
Mg185 Mg 0.24073 0.64261 0.42282 0.0
C186 C 0.2794 0.60558 0.44301 0.0
C187 C 0.3547 0.63366 0.42314 0.0
O188 O 0.34659 0.63573 0.44507 0.0
O189 O 0.29006 0.62983 0.37891 0.0
O190 O 0.25174 0.62927 0.3859 0.0
O191 O 0.30517 0.66849 0.44568 0.0
O192 O 0.27305 0.66183 0.42532 0.0
C193 C 0.26927 0.62519 0.37248 0.0
C194 C 0.28292 0.67106 0.44346 0.0
O195 O 0.341 0.63673 0.40553 0.0
Mg196 Mg 0.19252 0.64862 0.08121 0.0
O197 O 0.202 0.61674 0.06092 0.0
O198 O 0.24072 0.61537 0.05809 0.0
Mg199 Mg 0.25594 0.64649 0.07581 0.0
C200 C 0.22064 0.60706 0.05415 0.0
C201 C 0.14197 0.65011 0.0973 0.0
O202 O 0.15111 0.66832 0.10632 0.0
O203 O 0.20427 0.6326 0.11633 0.0
O204 O 0.24296 0.63381 0.11237 0.0
O205 O 0.19211 0.66791 0.04691 0.0
O206 O 0.22301 0.66401 0.07004 0.0
C207 C 0.22473 0.62925 0.12456 0.0
C208 C 0.21397 0.67173 0.05066 0.0
O209 O 0.15509 0.63682 0.08584 0.0
Mg210 Mg 0.31243 0.34792 0.57943 0.0
O211 O 0.30396 0.3795 0.55795 0.0
O212 O 0.26531 0.38149 0.55457 0.0
Mg213 Mg 0.24903 0.35123 0.57288 0.0
C214 C 0.28559 0.38935 0.55066 0.0
C215 C 0.36564 0.3451 0.57916 0.0
O216 O 0.3591 0.32542 0.57142 0.0
O217 O 0.30037 0.36512 0.61389 0.0
O218 O 0.26174 0.36441 0.60923 0.0
O219 O 0.31273 0.32735 0.54582 0.0
O220 O 0.28166 0.33297 0.56817 0.0
C221 C 0.27982 0.36896 0.62164 0.0
C222 C 0.29071 0.32427 0.54929 0.0
O223 O 0.35008 0.35934 0.58437 0.0
H224 H 0.33092 0.19546 0.08439 0.0
H225 H 0.31776 0.22879 0.06283 0.0
H226 H 0.27644 0.1876 0.01587 0.0
H227 H 0.2884 0.15457 0.03831 0.0
H228 H 0.31834 0.24558 0.01945 0.0
H229 H 0.22712 0.22672 0.04255 0.0
H230 H 0.25109 0.21117 0.05487 0.0
H231 H 0.23955 0.20433 0.02569 0.0
C232 C 0.31935 0.19359 0.06918 0.0
C233 C 0.31043 0.17259 0.06308 0.0
C234 C 0.31177 0.2126 0.05695 0.0
C235 C 0.29544 0.21077 0.03829 0.0
C236 C 0.28828 0.18952 0.03084 0.0
H237 H 0.25759 0.30606 0.93098 0.0
H238 H 0.27763 0.27994 0.95717 0.0
C239 C 0.29533 0.17065 0.04343 0.0
C240 C 0.285 0.23094 0.02729 0.0
H241 H 0.23288 0.25354 0.01131 0.0
C242 C 0.29965 0.24747 0.01789 0.0
C243 C 0.26059 0.23389 0.02602 0.0
C244 C 0.24372 0.2182 0.03809 0.0
C245 C 0.29056 0.26629 0.00622 0.0
C246 C 0.26618 0.26814 0.003 0.0
C247 C 0.25157 0.25209 0.01339 0.0
C248 C 0.25535 0.28574 0.98792 0.0
C249 C 0.30724 0.28402 -0.00221 0.0
C250 C 0.23566 0.2974 -0.00389 0.0
C251 C 0.22361 0.31177 0.98078 0.0
C252 C 0.23131 0.31506 0.95714 0.0
C253 C 0.25144 0.30406 0.94923 0.0
C254 C 0.2631 0.28926 0.96432 0.0
H255 H 0.32284 0.28475 0.00953 0.0
H256 H 0.31331 0.2799 0.97941 0.0
H257 H 0.29898 0.30071 -0.0025 0.0
H258 H 0.22925 0.29494 0.0142 0.0
H259 H 0.20815 0.32009 0.98731 0.0
H260 H 0.29823 0.69195 0.48419 0.0
H261 H 0.27677 0.71876 0.50879 0.0
H262 H 0.21578 0.7088 0.46511 0.0
H263 H 0.23705 0.68223 0.44035 0.0
H264 H 0.22955 0.75339 0.46957 0.0
H265 H 0.22376 0.71211 0.55846 0.0
H266 H 0.25247 0.71237 0.54572 0.0
H267 H 0.22972 0.69701 0.5311 0.0
C268 C 0.28012 0.69514 0.48011 0.0
C269 C 0.26935 0.68494 0.46033 0.0
C270 C 0.26785 0.71038 0.49425 0.0
C271 C 0.24463 0.71558 0.48888 0.0
C272 C 0.23364 0.70489 0.46963 0.0
H273 H 0.16222 0.81123 0.57339 0.0
H274 H 0.17231 0.77844 0.54914 0.0
C275 C 0.24584 0.68964 0.45555 0.0
C276 C 0.23257 0.73375 0.50177 0.0
H277 H 0.21572 0.75118 0.55743 0.0
C278 C 0.22623 0.75279 0.48872 0.0
C279 C 0.22808 0.73283 0.5267 0.0
C280 C 0.23365 0.71241 0.54133 0.0
C281 C 0.21648 0.77135 0.50015 0.0
C282 C 0.21307 0.77085 0.52524 0.0
C283 C 0.21842 0.75147 0.53817 0.0
C284 C 0.20606 0.79097 0.53863 0.0
C285 C 0.21034 0.79158 0.48543 0.0
C286 C 0.22167 0.80877 0.54052 0.0
C287 C 0.21608 0.82731 0.55437 0.0
C288 C 0.19469 0.82848 0.56656 0.0
C289 C 0.17875 0.81087 0.5641 0.0
C290 C 0.18451 0.79212 0.55038 0.0
H291 H 0.20875 0.78752 0.46605 0.0
H292 H 0.19374 0.79902 0.49171 0.0
H293 H 0.22422 0.80426 0.4875 0.0
H294 H 0.23846 0.80807 0.53173 0.0
H295 H 0.22872 0.84061 0.55582 0.0
H296 H 0.29054 0.8441 0.9486 0.0
H297 H 0.27842 0.81276 0.97359 0.0
H298 H 0.31588 0.76779 0.92712 0.0
H299 H 0.32929 0.79946 0.90308 0.0
H300 H 0.25107 0.78204 0.96016 0.0
H301 H 0.33226 0.74088 0.98962 0.0
H302 H 0.33219 0.76807 0.97594 0.0
H303 H 0.33074 0.74341 0.95761 0.0
C304 C 0.29676 0.82757 0.94425 0.0
C305 C 0.31095 0.82409 0.92414 0.0
C306 C 0.28975 0.80965 0.95841 0.0
C307 C 0.29627 0.78782 0.95237 0.0
C308 C 0.31109 0.78444 0.93261 0.0
H309 H 0.20536 0.68058 0.00329 0.0
H310 H 0.22669 0.70634 0.97725 0.0
C311 C 0.31868 0.80251 0.91881 0.0
C312 C 0.28553 0.76877 0.96531 0.0
H313 H 0.29716 0.72024 0.99485 0.0
C314 C 0.26123 0.76862 0.96789 0.0
C315 C 0.2987 0.75124 0.97546 0.0
C316 C 0.32492 0.75099 0.97475 0.0
C317 C 0.24975 0.7518 0.98065 0.0
C318 C 0.2628 0.73385 0.9901 0.0
C319 C 0.2871 0.73381 0.98731 0.0
C320 C 0.25173 0.71588 0.00443 0.0
C321 C 0.22388 0.75406 0.98466 0.0
C322 C 0.25966 0.71146 0.02777 0.0
C323 C 0.24797 0.69624 0.04235 0.0
C324 C 0.22791 0.68538 0.034 0.0
C325 C 0.22058 0.68898 0.01028 0.0
C326 C 0.23265 0.70383 -0.00452 0.0
H327 H 0.21799 0.77156 0.9825 0.0
H328 H 0.21447 0.74386 0.97121 0.0
H329 H 0.21885 0.74832 0.00287 0.0
H330 H 0.2744 0.72042 0.03507 0.0
H331 H 0.25404 0.69378 0.06056 0.0
H332 H 0.30393 0.30512 0.5068 0.0
H333 H 0.2813 0.27927 0.48211 0.0
H334 H 0.22287 0.28653 0.52998 0.0
H335 H 0.24533 0.31209 0.55483 0.0
H336 H 0.23612 0.24244 0.52192 0.0
H337 H 0.22575 0.28831 0.43617 0.0
H338 H 0.25513 0.28733 0.44709 0.0
H339 H 0.23333 0.30194 0.46399 0.0
C340 C 0.28614 0.30151 0.51183 0.0
C341 C 0.27643 0.31071 0.53274 0.0
C342 C 0.27319 0.28684 0.49764 0.0
C343 C 0.25033 0.28119 0.5041 0.0
C344 C 0.24042 0.2908 0.5246 0.0
H345 H 0.16381 0.19049 0.4176 0.0
H346 H 0.17511 0.22199 0.44323 0.0
C347 C 0.2533 0.30548 0.53874 0.0
C348 C 0.23756 0.26371 0.49082 0.0
H349 H 0.21771 0.24924 0.43524 0.0
C350 C 0.23181 0.24404 0.50305 0.0
C351 C 0.23175 0.26594 0.46629 0.0
C352 C 0.23659 0.2871 0.45262 0.0
C353 C 0.22134 0.22613 0.4911 0.0
C354 C 0.21664 0.22792 0.46629 0.0
C355 C 0.22141 0.24793 0.45428 0.0
C356 C 0.2089 0.20851 0.45211 0.0
C357 C 0.2158 0.20523 0.50496 0.0
C358 C 0.22413 0.1906 0.44882 0.0
C359 C 0.21785 0.17278 0.4342 0.0
C360 C 0.19614 0.17247 0.42259 0.0
C361 C 0.18059 0.19018 0.42642 0.0
C362 C 0.18703 0.2082 0.44093 0.0
H363 H 0.21483 0.20843 0.52457 0.0
H364 H 0.19905 0.19792 0.49891 0.0
H365 H 0.2297 0.19277 0.50178 0.0
H366 H 0.24118 0.19066 0.45711 0.0
H367 H 0.23022 0.15939 0.4317 0.0
H368 H 0.78801 0.65357 0.04072 0.0
H369 H 0.77643 0.68547 0.01626 0.0
H370 H 0.81318 0.72933 0.06454 0.0
H371 H 0.82615 0.69714 0.08792 0.0
H372 H 0.74903 0.71588 0.02916 0.0
H373 H 0.83095 0.75786 0.0037 0.0
H374 H 0.83057 0.7304 0.01671 0.0
H375 H 0.8287 0.7547 0.03558 0.0
C376 C 0.79424 0.66999 0.04554 0.0
C377 C 0.80814 0.673 0.06593 0.0
C378 C 0.78751 0.68823 0.0317 0.0
C379 C 0.794 0.70992 0.03839 0.0
C380 C 0.80847 0.71282 0.0585 0.0
H381 H 0.70449 0.8191 0.98935 0.0
H382 H 0.72464 0.79191 0.01471 0.0
C383 C 0.81581 0.69444 0.07193 0.0
C384 C 0.78362 0.72933 0.02573 0.0
H385 H 0.79607 0.77906 -0.001 0.0
C386 C 0.75941 0.72958 0.02237 0.0
C387 C 0.79706 0.74725 0.01679 0.0
C388 C 0.82327 0.74744 0.01816 0.0
C389 C 0.7483 0.74691 0.01006 0.0
C390 C 0.7616 0.76528 0.00196 0.0
C391 C 0.7858 0.76518 0.00552 0.0
C392 C 0.75098 0.7839 0.98824 0.0
C393 C 0.72258 0.74476 0.00506 0.0
C394 C 0.75999 0.78965 0.96566 0.0
C395 C 0.74902 0.80572 0.95158 0.0
C396 C 0.72856 0.81611 0.95962 0.0
C397 C 0.72006 0.8111 0.98261 0.0
C398 C 0.73144 0.79542 -0.00301 0.0
H399 H 0.71674 0.72716 0.00597 0.0
H400 H 0.7127 0.7542 0.01879 0.0
H401 H 0.71808 0.7514 0.98706 0.0
H402 H 0.77508 0.78115 0.95851 0.0
H403 H 0.75598 0.80924 0.93392 0.0
H404 H 0.73846 0.17977 0.4393 0.0
H405 H 0.71675 0.20645 0.46358 0.0
H406 H 0.77753 0.21789 0.50714 0.0
H407 H 0.79939 0.19094 0.48312 0.0
H408 H 0.73351 0.21553 0.53317 0.0
H409 H 0.73207 0.27368 0.45535 0.0
H410 H 0.72078 0.24621 0.45016 0.0
H411 H 0.75114 0.24987 0.45652 0.0
C412 C 0.74714 0.18759 0.45433 0.0
C413 C 0.77073 0.18332 0.45919 0.0
C414 C 0.7347 0.20292 0.4681 0.0
C415 C 0.74566 0.21433 0.48688 0.0
C416 C 0.76881 0.20925 0.49264 0.0
H417 H 0.73371 0.33814 0.55496 0.0
H418 H 0.74189 0.30502 0.53129 0.0
C419 C 0.78127 0.19389 0.47888 0.0
C420 C 0.73368 0.23279 0.49934 0.0
H421 H 0.71524 0.28626 0.49126 0.0
C422 C 0.72919 0.2309 0.52401 0.0
C423 C 0.72827 0.25284 0.48726 0.0
C424 C 0.73341 0.25598 0.4609 0.0
C425 C 0.71991 0.24881 0.53707 0.0
C426 C 0.71495 0.26898 0.52506 0.0
C427 C 0.71885 0.27064 0.50029 0.0
C428 C 0.70872 0.2894 0.53836 0.0
C429 C 0.7165 0.24647 0.56379 0.0
C430 C 0.68708 0.29176 0.54974 0.0
C431 C 0.68224 0.31086 0.56329 0.0
C432 C 0.69908 0.3277 0.56574 0.0
C433 C 0.72042 0.32543 0.55364 0.0
C434 C 0.72513 0.30653 0.54004 0.0
H435 H 0.72338 0.23045 0.57075 0.0
H436 H 0.72527 0.26035 0.57335 0.0
H437 H 0.69767 0.24739 0.56804 0.0
H438 H 0.67413 0.27875 0.5484 0.0
H439 H 0.66565 0.31211 0.57241 0.0
H440 H 0.76818 0.33096 0.91205 0.0
H441 H 0.75748 0.29898 0.93643 0.0
H442 H 0.82968 0.28672 0.95229 0.0
H443 H 0.84082 0.31893 0.92766 0.0
H444 H 0.77582 0.25241 0.92925 0.0
H445 H 0.79312 0.28993 0.01902 0.0
H446 H 0.78779 0.30691 0.99285 0.0
H447 H 0.81488 0.29246 -0.00411 0.0
C448 C 0.78191 0.32162 0.92075 0.0
C449 C 0.80542 0.3276 0.91788 0.0
C450 C 0.77569 0.30327 0.93462 0.0
C451 C 0.79277 0.29058 0.94612 0.0
C452 C 0.81627 0.29645 0.94358 0.0
H453 H 0.7618 0.18585 0.0502 0.0
H454 H 0.78321 0.21065 0.02343 0.0
C455 C 0.82257 0.31483 0.92952 0.0
C456 C 0.78559 0.27115 0.96058 0.0
H457 H 0.77585 0.25457 0.01824 0.0
C458 C 0.77607 0.25269 0.94872 0.0
C459 C 0.78608 0.27162 0.98591 0.0
C460 C 0.79591 0.29127 -0.00066 0.0
C461 C 0.76647 0.23484 0.96158 0.0
C462 C 0.76587 0.2358 0.98694 0.0
C463 C 0.77625 0.25389 -0.00121 0.0
C464 C 0.75339 0.21896 0.00154 0.0
C465 C 0.75697 0.21521 0.94785 0.0
C466 C 0.72952 0.21525 -0.00197 0.0
C467 C 0.71725 0.2009 0.01318 0.0
C468 C 0.72857 0.19019 0.03231 0.0
C469 C 0.75257 0.19364 0.03552 0.0
C470 C 0.76484 0.2079 0.02029 0.0
H471 H 0.76553 0.21353 0.93006 0.0
H472 H 0.75935 0.19946 0.95798 0.0
H473 H 0.73811 0.21771 0.9447 0.0
H474 H 0.72017 0.22404 0.98408 0.0
H475 H 0.69876 0.19876 0.01034 0.0
H476 H 0.73761 0.81499 0.55947 0.0
H477 H 0.7144 0.78972 0.53484 0.0
H478 H 0.77256 0.78065 0.48701 0.0
H479 H 0.79594 0.80608 0.51145 0.0
H480 H 0.72612 0.78592 0.46429 0.0
H481 H 0.73019 0.7215 0.53611 0.0
H482 H 0.72018 0.74873 0.54465 0.0
H483 H 0.74977 0.74496 0.5353 0.0
C484 C 0.74538 0.80795 0.54349 0.0
C485 C 0.76868 0.81246 0.53747 0.0
C486 C 0.7321 0.79344 0.52951 0.0
C487 C 0.74188 0.78319 0.50931 0.0
C488 C 0.76475 0.78843 0.50259 0.0
H489 H 0.72567 0.66583 0.43061 0.0
H490 H 0.7351 0.69695 0.45674 0.0
C491 C 0.77808 0.8029 0.5166 0.0
C492 C 0.72894 0.76582 0.49611 0.0
H493 H 0.71126 0.71175 0.50031 0.0
C494 C 0.72253 0.76979 0.47221 0.0
C495 C 0.72446 0.74481 0.50656 0.0
C496 C 0.73159 0.73954 0.53201 0.0
C497 C 0.71226 0.75301 0.45822 0.0
C498 C 0.70831 0.73184 0.46852 0.0
C499 C 0.7141 0.7281 0.49262 0.0
C500 C 0.70135 0.71255 0.45372 0.0
C501 C 0.70678 0.75761 0.43222 0.0
C502 C 0.679 0.71079 0.44375 0.0
C503 C 0.67344 0.69282 0.42876 0.0
C504 C 0.69025 0.67654 0.42344 0.0
C505 C 0.71235 0.67815 0.43412 0.0
C506 C 0.71779 0.69591 0.44913 0.0
H507 H 0.71295 0.77427 0.42639 0.0
H508 H 0.71492 0.74477 0.4206 0.0
H509 H 0.68769 0.75675 0.42944 0.0
H510 H 0.66603 0.72341 0.44733 0.0
H511 H 0.65627 0.69203 0.4208 0.0
H512 H 0.36472 0.06939 0.06257 0.0
H513 H 0.37125 0.03893 0.03408 0.0
H514 H 0.29723 0.02887 0.02843 0.0
H515 H 0.29047 0.05893 0.05684 0.0
H516 H 0.32382 0.98944 0.03678 0.0
H517 H 0.358 0.03997 0.96065 0.0
H518 H 0.3716 0.04351 0.98948 0.0
H519 H 0.34208 0.05228 0.98522 0.0
C520 C 0.34983 0.06074 0.05522 0.0
C521 C 0.32707 0.06666 0.06201 0.0
C522 C 0.35361 0.04342 0.03887 0.0
C523 C 0.3347 0.03183 0.02904 0.0
C524 C 0.31204 0.03765 0.03581 0.0
H525 H 0.29101 0.93407 0.93108 0.0
H526 H 0.29723 0.96244 0.96159 0.0
C527 C 0.30824 0.05489 0.05206 0.0
C528 C 0.33813 0.01327 0.01198 0.0
H529 H 0.35272 0.00166 0.9539 0.0
C530 C 0.33042 0.99204 0.01875 0.0
C531 C 0.34688 0.01673 0.98855 0.0
C532 C 0.35502 0.03934 0.98034 0.0
C533 C 0.33041 0.97432 0.00242 0.0
C534 C 0.33802 0.97804 0.97864 0.0
C535 C 0.34685 0.99896 0.97217 0.0
C536 C 0.33476 0.96104 0.95979 0.0
C537 C 0.32176 0.95185 0.01058 0.0
C538 C 0.35387 0.95125 0.94827 0.0
C539 C 0.35041 0.93492 0.9307 0.0
C540 C 0.32774 0.92834 0.92426 0.0
C541 C 0.3087 0.93862 0.9356 0.0
C542 C 0.3122 0.95479 0.95315 0.0
H543 H 0.32275 0.95008 0.0304 0.0
H544 H 0.30329 0.94991 0.00519 0.0
H545 H 0.33192 0.93823 0.00213 0.0
H546 H 0.37142 0.95603 0.95308 0.0
H547 H 0.36545 0.92742 0.92227 0.0
H548 H 0.21445 0.93862 0.55812 0.0
H549 H 0.20952 0.9667 0.52695 0.0
H550 H 0.13504 0.96046 0.53246 0.0
H551 H 0.1397 0.93224 0.56385 0.0
H552 H 0.18395 0.96026 0.48185 0.0
H553 H 0.14925 0.02891 0.53874 0.0
H554 H 0.1652 0.00577 0.55126 0.0
H555 H 0.1358 0.00197 0.54138 0.0
C556 C 0.19697 0.94323 0.55287 0.0
C557 C 0.17746 0.93316 0.56357 0.0
C558 C 0.19422 0.95927 0.535 0.0
C559 C 0.17195 0.96571 0.52757 0.0
C560 C 0.15238 0.95585 0.53818 0.0
H561 H 0.13986 0.0707 0.42302 0.0
H562 H 0.1354 0.04033 0.45201 0.0
C563 C 0.1551 0.93968 0.55605 0.0
C564 C 0.16948 0.98241 0.50827 0.0
H565 H 0.15489 0.03657 0.49774 0.0
C566 C 0.17742 0.9769 0.48524 0.0
C567 C 0.16077 0.00399 0.51278 0.0
C568 C 0.15235 0.01071 0.53738 0.0
C569 C 0.17737 0.9926 0.46663 0.0
C570 C 0.16964 0.0145 0.47138 0.0
C571 C 0.16086 0.01977 0.49419 0.0
C572 C 0.17208 0.03251 0.45343 0.0
C573 C 0.1857 0.98561 0.44208 0.0
C574 C 0.1942 0.03833 0.44491 0.0
C575 C 0.19683 0.05557 0.42839 0.0
C576 C 0.17738 0.06754 0.42016 0.0
C577 C 0.1552 0.06179 0.42889 0.0
C578 C 0.1526 0.04446 0.44546 0.0
H579 H 0.18395 0.96736 0.43946 0.0
H580 H 0.17588 0.99426 0.42768 0.0
H581 H 0.20438 0.98991 0.44019 0.0
H582 H 0.20953 0.02966 0.45127 0.0
H583 H 0.2142 0.05959 0.42222 0.0
H584 H 0.75144 0.91809 0.97217 0.0
H585 H 0.74659 0.95447 0.99114 0.0
H586 H 0.67686 0.95881 0.9632 0.0
H587 H 0.68141 0.92232 0.94421 0.0
H588 H 0.70868 0.9971 0.95407 0.0
H589 H 0.70328 0.97154 0.04981 0.0
H590 H 0.7263 0.95902 0.03261 0.0
H591 H 0.69659 0.95285 0.02536 0.0
C592 C 0.73498 0.92665 0.9702 0.0
C593 C 0.71682 0.91727 0.95665 0.0
C594 C 0.73222 0.94739 0.98115 0.0
C595 C 0.71132 0.95917 0.97868 0.0
C596 C 0.69308 0.94986 0.96538 0.0
H597 H 0.68038 0.08528 0.05084 0.0
H598 H 0.67614 0.04855 0.03224 0.0
C599 C 0.69572 0.929 0.9546 0.0
C600 C 0.70909 0.98173 0.98897 0.0
H601 H 0.70879 0.0101 0.04203 0.0
C602 C 0.70845 -2e-05 0.97329 0.0
C603 C 0.70864 0.98533 0.01402 0.0
C604 C 0.70855 0.96618 0.03152 0.0
C605 C 0.70829 0.02186 0.98207 0.0
C606 C 0.70879 0.02546 0.00712 0.0
C607 C 0.70851 0.00721 0.02281 0.0
C608 C 0.71085 0.04805 0.01735 0.0
C609 C 0.70788 0.04101 0.96459 0.0
C610 C 0.73178 0.05981 0.01508 0.0
C611 C 0.73435 0.08067 0.0258 0.0
C612 C 0.71596 0.0902 0.0389 0.0
C613 C 0.69484 0.07848 0.04078 0.0
C614 C 0.69238 0.05749 0.03024 0.0
H615 H 0.70283 0.03557 0.94626 0.0
H616 H 0.69559 0.05409 0.97072 0.0
H617 H 0.72547 0.04855 0.96361 0.0
H618 H 0.74629 0.05266 0.00537 0.0
H619 H 0.75083 0.08922 0.02396 0.0
H620 H 0.82227 0.08271 0.45181 0.0
H621 H 0.82659 0.04572 0.46987 0.0
H622 H 0.75206 0.03957 0.47456 0.0
H623 H 0.74747 0.07627 0.45661 0.0
H624 H 0.80821 0.02932 0.51558 0.0
H625 H 0.77381 0.98348 0.43683 0.0
H626 H 0.78417 0.0118 0.43495 0.0
H627 H 0.75567 0.00604 0.44666 0.0
C628 C 0.80679 0.07352 0.45675 0.0
C629 C 0.7845 0.08245 0.4526 0.0
C630 C 0.80932 0.05241 0.46705 0.0
C631 C 0.78963 0.03984 0.47314 0.0
C632 C 0.76745 0.04889 0.46957 0.0
H633 H 0.7474 0.91797 0.53646 0.0
H634 H 0.75224 0.95365 0.51626 0.0
C635 C 0.76489 0.06995 0.4594 0.0
C636 C 0.79199 0.01723 0.48333 0.0
H637 H 0.77634 0.96323 0.47356 0.0
C638 C 0.80158 0.01477 0.50632 0.0
C639 C 0.78338 0.99835 0.47109 0.0
C640 C 0.77386 -7e-05 0.44592 0.0
C641 C 0.80166 0.99402 0.51795 0.0
C642 C 0.79223 0.97529 0.50603 0.0
C643 C 0.78346 0.97765 0.48268 0.0
C644 C 0.78982 0.95342 0.51802 0.0
C645 C 0.8108 0.99251 0.54328 0.0
C646 C 0.80939 0.9413 0.52542 0.0
C647 C 0.8067 0.92082 0.53706 0.0
C648 C 0.78437 0.91208 0.54139 0.0
C649 C 0.76485 0.92416 0.53352 0.0
C650 C 0.76757 0.94458 0.52193 0.0
H651 H 0.81318 0.00919 0.55152 0.0
H652 H 0.79882 0.98265 0.55473 0.0
H653 H 0.82791 0.98399 0.54313 0.0
H654 H 0.82673 0.94766 0.52217 0.0
H655 H 0.82212 0.91194 0.54277 0.0
H656 H 0.84781 0.41488 0.94497 0.0
H657 H 0.84809 0.44275 0.97707 0.0
H658 H 0.80093 0.48366 0.93599 0.0
H659 H 0.79936 0.45512 0.90481 0.0
H660 H 0.86092 0.48306 0.98126 0.0
H661 H 0.76612 0.48223 -0.00335 0.0
H662 H 0.78012 0.46246 0.97715 0.0
H663 H 0.77231 0.48973 0.96623 0.0
C664 C 0.83749 0.42984 0.94291 0.0
C665 C 0.82332 0.43279 0.92266 0.0
C666 C 0.83765 0.44575 0.96122 0.0
C667 C 0.82398 0.46507 0.95934 0.0
C668 C 0.81084 0.46852 0.93841 0.0
H669 H 0.84515 0.58393 0.04591 0.0
H670 H 0.8477 0.55424 0.01599 0.0
C671 C 0.81012 0.45232 0.92048 0.0
C672 C 0.82353 0.48163 0.97916 0.0
H673 H 0.78688 0.513 0.01337 0.0
C674 C 0.84472 0.48943 0.98848 0.0
C675 C 0.80243 0.4896 0.98906 0.0
C676 C 0.77901 0.48035 0.98193 0.0
C677 C 0.84539 0.50525 0.00701 0.0
C678 C 0.82429 0.5144 0.01567 0.0
C679 C 0.80312 0.50629 0.00661 0.0
C680 C 0.82351 0.53226 0.03415 0.0
C681 C 0.86873 0.51144 0.01743 0.0
C682 C 0.80841 0.53031 0.0539 0.0
C683 C 0.80622 0.54766 0.07039 0.0
C684 C 0.81952 0.56708 0.06781 0.0
C685 C 0.83497 0.56894 0.04842 0.0
C686 C 0.8366 0.55187 0.03146 0.0
H687 H 0.88147 0.49768 0.01531 0.0
H688 H 0.87573 0.52608 0.00769 0.0
H689 H 0.86741 0.51559 0.0368 0.0
H690 H 0.79809 0.51541 0.05644 0.0
H691 H 0.79424 0.54584 0.08527 0.0
H692 H 0.64775 0.43335 0.56217 0.0
H693 H 0.64344 0.46191 0.53107 0.0
H694 H 0.71798 0.46596 0.52413 0.0
H695 H 0.72255 0.43751 0.55493 0.0
H696 H 0.66249 0.50629 0.53106 0.0
H697 H 0.69475 0.45572 0.45472 0.0
H698 H 0.68521 0.4435 0.48266 0.0
H699 H 0.71364 0.45575 0.48038 0.0
C700 C 0.66324 0.44026 0.55398 0.0
C701 C 0.6855 0.43304 0.56101 0.0
C702 C 0.66072 0.45657 0.53624 0.0
C703 C 0.68038 0.46574 0.52509 0.0
C704 C 0.70258 0.45876 0.53222 0.0
H705 H 0.71717 0.56575 0.42277 0.0
H706 H 0.71497 0.53562 0.45204 0.0
C707 C 0.70513 0.44257 0.54995 0.0
C708 C 0.67794 0.48305 0.50639 0.0
H709 H 0.69177 0.49481 0.4482 0.0
C710 C 0.6686 0.50376 0.51285 0.0
C711 C 0.68596 0.4796 0.4827 0.0
C712 C 0.69527 0.45738 0.47457 0.0
C713 C 0.66798 0.52149 0.49644 0.0
C714 C 0.67654 0.51819 0.4729 0.0
C715 C 0.6853 0.49729 0.4663 0.0
C716 C 0.67748 0.53646 0.4551 0.0
C717 C 0.65906 0.54382 0.50471 0.0
C718 C 0.65708 0.54674 0.44692 0.0
C719 C 0.65825 0.56406 0.43019 0.0
C720 C 0.67986 0.57128 0.42123 0.0
C721 C 0.70023 0.56068 0.42928 0.0
C722 C 0.69903 0.54343 0.44601 0.0
H723 H 0.65804 0.54488 0.52459 0.0
H724 H 0.67039 0.55746 0.49806 0.0
H725 H 0.64134 0.54649 0.4974 0.0
H726 H 0.64025 0.54131 0.45337 0.0
H727 H 0.6422 0.57174 0.42429 0.0
H728 H 0.25636 0.58016 0.03959 0.0
H729 H 0.25369 0.5436 0.02073 0.0
H730 H 0.17886 0.54747 0.02249 0.0
H731 H 0.18125 0.58419 0.04129 0.0
H732 H 0.23029 0.50525 0.04034 0.0
H733 H 0.19462 0.53115 0.95177 0.0
H734 H 0.2086 0.5505 0.97194 0.0
H735 H 0.17953 0.54115 0.97791 0.0
C736 C 0.23929 0.57337 0.03585 0.0
C737 C 0.21901 0.58519 0.04194 0.0
C738 C 0.23783 0.55244 0.0251 0.0
C739 C 0.2161 0.54297 0.02005 0.0
C740 C 0.1958 0.55467 0.02595 0.0
H741 H 0.1839 0.41632 0.95 0.0
H742 H 0.1805 0.45197 0.97095 0.0
C743 C 0.19722 0.57562 0.03678 0.0
C744 C 0.21486 0.52052 0.00924 0.0
H745 H 0.19988 0.4927 0.95813 0.0
C746 C 0.22358 0.50246 0.0224 0.0
C747 C 0.2059 0.51698 0.98593 0.0
C748 C 0.19675 0.53594 0.9709 0.0
C749 C 0.2238 0.48091 0.01276 0.0
C750 C 0.21553 0.47745 0.98915 0.0
C751 C 0.20625 0.49542 0.97621 0.0
C752 C 0.21745 0.45556 0.97712 0.0
C753 C 0.23277 0.46202 0.02802 0.0
C754 C 0.23936 0.44589 0.97347 0.0
C755 C 0.24138 0.42555 0.96159 0.0
C756 C 0.22152 0.41451 0.95289 0.0
C757 C 0.19956 0.4243 0.95651 0.0
C758 C 0.19757 0.44468 0.96845 0.0
H759 H 0.23171 0.46603 0.04745 0.0
H760 H 0.22288 0.44647 0.02462 0.0
H761 H 0.2513 0.45894 0.02358 0.0
H762 H 0.25497 0.45425 0.97954 0.0
H763 H 0.25859 0.41862 0.95901 0.0
H764 H 0.24607 0.57742 0.4604 0.0
H765 H 0.25156 0.54066 0.47805 0.0
H766 H 0.32583 0.5474 0.47067 0.0
H767 H 0.32063 0.58438 0.45297 0.0
H768 H 0.27578 0.50412 0.45408 0.0
H769 H 0.31493 0.52747 0.542 0.0
H770 H 0.29836 0.54695 0.52418 0.0
H771 H 0.32734 0.53959 0.51537 0.0
C772 C 0.26363 0.57126 0.4627 0.0
C773 C 0.28291 0.58391 0.45522 0.0
C774 C 0.2667 0.55021 0.47276 0.0
C775 C 0.28908 0.54141 0.47575 0.0
C776 C 0.30843 0.55404 0.46873 0.0
H777 H 0.3254 0.4126 0.53987 0.0
H778 H 0.32837 0.44883 0.51995 0.0
C779 C 0.30539 0.57513 0.45856 0.0
C780 C 0.29186 0.5186 0.48527 0.0
H781 H 0.30925 0.48929 0.53456 0.0
C782 C 0.28322 0.50083 0.47162 0.0
C783 C 0.30181 0.51442 0.50801 0.0
C784 C 0.31106 0.53305 0.52341 0.0
C785 C 0.28385 0.47895 0.48031 0.0
C786 C 0.29287 0.47484 0.50351 0.0
C787 C 0.30228 0.49252 0.51682 0.0
C788 C 0.29129 0.4526 0.51485 0.0
C789 C 0.27479 0.46044 0.46459 0.0
C790 C 0.26946 0.44284 0.51874 0.0
C791 C 0.26768 0.42219 0.53003 0.0
C792 C 0.28772 0.4109 0.53788 0.0
C793 C 0.30961 0.42076 0.53398 0.0
C794 C 0.31136 0.44148 0.52264 0.0
H795 H 0.27543 0.46507 0.44529 0.0
H796 H 0.28492 0.4449 0.46722 0.0
H797 H 0.25638 0.45703 0.46928 0.0
H798 H 0.25372 0.45137 0.51335 0.0
H799 H 0.25052 0.41522 0.53284 0.0
H800 H 0.61801 0.12304 0.08001 0.0
H801 H 0.57558 0.11914 0.08124 0.0
H802 H 0.57071 0.1784 0.12452 0.0
H803 H 0.6129 0.18261 0.12317 0.0
H804 H 0.54471 0.11518 0.12016 0.0
H805 H 0.5275 0.19203 0.06804 0.0
H806 H 0.55592 0.17936 0.06957 0.0
H807 H 0.54562 0.19648 0.09382 0.0
C808 C 0.60791 0.13519 0.08988 0.0
C809 C 0.61883 0.15326 0.10131 0.0
C810 C 0.58368 0.13294 0.09054 0.0
C811 C 0.56999 0.14875 0.10254 0.0
C812 C 0.58091 0.16632 0.11467 0.0
H813 H 0.42592 0.17131 0.13514 0.0
H814 H 0.46817 0.17212 0.13055 0.0
C815 C 0.60507 0.16861 0.11399 0.0
C816 C 0.54426 0.14699 0.10242 0.0
H817 H 0.49492 0.1754 0.08744 0.0
C818 C 0.53379 0.12822 0.11281 0.0
C819 C 0.53009 0.16401 0.09272 0.0
C820 C 0.54032 0.18401 0.0802 0.0
C821 C 0.50949 0.1264 0.11454 0.0
C822 C 0.49536 0.14368 0.10534 0.0
C823 C 0.50582 0.16223 0.09455 0.0
C824 C 0.46968 0.14321 0.1075 0.0
C825 C 0.49912 0.10638 0.1269 0.0
C826 C 0.45649 0.12691 0.09568 0.0
C827 C 0.43229 0.12642 0.0982 0.0
C828 C 0.42086 0.14226 0.11259 0.0
C829 C 0.43414 0.15882 0.124 0.0
C830 C 0.4583 0.15932 0.1214 0.0
H831 H 0.51234 0.09693 0.13726 0.0
H832 H 0.48494 0.11147 0.13927 0.0
H833 H 0.49158 0.09508 0.11322 0.0
H834 H 0.46493 0.11456 0.08452 0.0
H835 H 0.42258 0.1135 0.08911 0.0
H836 H 0.89085 0.81266 0.60823 0.0
H837 H 0.933 0.81729 0.60859 0.0
H838 H 0.92542 0.88437 0.58229 0.0
H839 H 0.88304 0.88001 0.5822 0.0
H840 H 0.96171 0.82675 0.56974 0.0
H841 H 0.96877 0.89213 0.63993 0.0
H842 H 0.94259 0.87611 0.63541 0.0
H843 H 0.94962 0.8986 0.61544 0.0
C844 C 0.89808 0.82849 0.6027 0.0
C845 C 0.88355 0.84599 0.59525 0.0
C846 C 0.9222 0.83107 0.60287 0.0
C847 C 0.93234 0.85123 0.59569 0.0
C848 C 0.91794 0.86881 0.58832 0.0
H849 H 0.07911 0.88932 0.58963 0.0
H850 H 0.03688 0.88838 0.58406 0.0
C851 C 0.89373 0.86625 0.58819 0.0
C852 C 0.95804 0.8534 0.59529 0.0
H853 H 0.00354 0.8814 0.62056 0.0
C854 C 0.97086 0.83873 0.58081 0.0
C855 C 0.96992 0.86911 0.60967 0.0
C856 C 0.9571 0.88479 0.62616 0.0
C857 C 0.99526 0.83925 0.58043 0.0
C858 C 0.00715 0.85462 0.59519 0.0
C859 C 0.99435 0.86964 0.60925 0.0
C860 C 0.03285 0.85472 0.59716 0.0
C861 C 0.0081 0.82339 0.56416 0.0
C862 C 0.04456 0.8361 0.60635 0.0
C863 C 0.06865 0.83657 0.60957 0.0
C864 C 0.08151 0.85573 0.60377 0.0
C865 C 0.06976 0.87427 0.59422 0.0
C866 C 0.04562 0.87379 0.59107 0.0
H867 H 0.99681 0.81723 0.54941 0.0
H868 H 0.02369 0.83144 0.55621 0.0
H869 H 0.01395 0.80879 0.57476 0.0
H870 H 0.03498 0.82135 0.61157 0.0
H871 H 0.07711 0.82204 0.61705 0.0
H872 H 0.43203 0.8412 0.83882 0.0
H873 H 0.47412 0.84276 0.84427 0.0
H874 H 0.46492 0.88129 0.90885 0.0
H875 H 0.42267 0.87952 0.90376 0.0
H876 H 0.50173 0.88052 0.84565 0.0
H877 H 0.50956 0.83242 0.93047 0.0
H878 H 0.48347 0.83223 0.91246 0.0
H879 H 0.48974 0.85548 0.93166 0.0
C880 C 0.43891 0.84984 0.85433 0.0
C881 C 0.42397 0.86019 0.87089 0.0
C882 C 0.46299 0.85074 0.85737 0.0
C883 C 0.47266 0.86195 0.87707 0.0
C884 C 0.45782 0.87219 0.89376 0.0
H885 H 0.61818 0.88146 0.91768 0.0
H886 H 0.57583 0.88483 0.91467 0.0
C887 C 0.43368 0.87124 0.89077 0.0
C888 C 0.49829 0.86352 0.8795 0.0
H889 H 0.54392 0.84894 0.91542 0.0
C890 C 0.51096 0.87363 0.86092 0.0
C891 C 0.51027 0.85463 0.89949 0.0
C892 C 0.49764 0.8429 0.91959 0.0
C893 C 0.53531 0.875 0.86172 0.0
C894 C 0.54731 0.86575 0.88148 0.0
C895 C 0.53464 0.85605 0.90031 0.0
C896 C 0.57305 0.86498 0.88243 0.0
C897 C 0.54798 0.88645 0.84147 0.0
C898 C 0.5855 0.85275 0.86526 0.0
C899 C 0.60965 0.85077 0.86692 0.0
C900 C 0.62183 0.86092 0.88586 0.0
C901 C 0.60935 0.8735 0.90282 0.0
C902 C 0.58515 0.8754 0.90118 0.0
H903 H 0.53634 0.89786 0.83138 0.0
H904 H 0.56307 0.89609 0.84828 0.0
H905 H 0.55456 0.87372 0.82875 0.0
H906 H 0.57646 0.84424 0.85089 0.0
H907 H 0.61869 0.8409 0.8536 0.0
H908 H 0.07431 0.17653 0.36355 0.0
H909 H 0.03215 0.17574 0.36881 0.0
H910 H 0.0376 0.11324 0.40641 0.0
H911 H 0.07989 0.11404 0.40156 0.0
H912 H 0.0026 0.14323 0.35108 0.0
H913 H 0.99497 0.14935 0.45029 0.0
H914 H 0.02148 0.156 0.43448 0.0
H915 H 0.0136 0.12748 0.43969 0.0
C916 C 0.06661 0.16275 0.37323 0.0
C917 C 0.08049 0.14535 0.38213 0.0
C918 C 0.04249 0.16231 0.37618 0.0
C919 C 0.03174 0.14453 0.38816 0.0
C920 C 0.04555 0.12732 0.39749 0.0
H921 H 0.88367 0.11693 0.41185 0.0
H922 H 0.9261 0.1133 0.4092 0.0
C923 C 0.06973 0.12777 0.3946 0.0
C924 C 0.006 0.1435 0.38957 0.0
H925 H 0.96018 0.14307 0.42862 0.0
C926 C 0.99333 0.1432 0.36804 0.0
C927 C 0.99395 0.14325 0.41172 0.0
C928 C 0.00663 0.14422 0.43539 0.0
C929 C 0.96894 0.14282 0.36803 0.0
C930 C 0.95688 0.14307 0.39014 0.0
C931 C 0.9695 0.14285 0.4117 0.0
C932 C 0.93119 0.14482 0.3912 0.0
C933 C 0.95627 0.14208 0.34433 0.0
C934 C 0.92006 0.16378 0.38208 0.0
C935 C 0.89593 0.16591 0.38357 0.0
C936 C 0.88239 0.14914 0.39431 0.0
C937 C 0.89358 0.13009 0.40337 0.0
C938 C 0.9178 0.12801 0.40194 0.0
H939 H 0.96762 0.13577 0.32969 0.0
H940 H 0.94057 0.13138 0.34548 0.0
H941 H 0.95063 0.15914 0.33944 0.0
H942 H 0.9301 0.17712 0.37411 0.0
H943 H 0.88793 0.18085 0.37651 0.0
H944 H 0.1099 0.67574 0.12038 0.0
H945 H 0.06775 0.67124 0.12078 0.0
H946 H 0.07401 0.6119 0.0778 0.0
H947 H 0.11642 0.61614 0.07745 0.0
H948 H 0.03889 0.67051 0.07966 0.0
H949 H 0.03076 0.5928 0.13335 0.0
H950 H 0.05697 0.60935 0.13312 0.0
H951 H 0.05019 0.59171 0.10809 0.0
C952 C 0.1024 0.66158 0.1112 0.0
C953 C 0.11656 0.64629 0.09888 0.0
C954 C 0.07828 0.65906 0.11142 0.0
C955 C 0.06777 0.64117 0.09946 0.0
C956 C 0.0818 0.62565 0.08744 0.0
H957 H 0.91908 0.6097 0.08893 0.0
H958 H 0.96129 0.60952 0.08272 0.0
C959 C 0.10602 0.62815 0.0872 0.0
C960 C 0.04206 0.63954 0.09882 0.0
H961 H 0.99608 0.60845 0.11834 0.0
C962 C 0.02952 0.6569 0.08804 0.0
C963 C 0.02992 0.62167 0.10958 0.0
C964 C 0.04255 0.60286 0.12187 0.0
C965 C 0.00513 0.65705 0.08801 0.0
C966 C 0.99296 0.63957 0.09946 0.0
C967 C 0.00548 0.62185 0.10961 0.0
C968 C 0.96734 0.64004 0.10231 0.0
C969 C 0.9926 0.67593 0.07572 0.0
C970 C 0.95681 0.6572 0.11547 0.0
C971 C 0.93278 0.65737 0.11904 0.0
C972 C 0.91877 0.64029 0.10963 0.0
C973 C 0.92935 0.62315 0.09633 0.0
C974 C 0.95346 0.62299 0.09281 0.0
H975 H 0.00377 0.6841 0.06204 0.0
H976 H 0.97643 0.67003 0.06689 0.0
H977 H 0.98779 0.68865 0.08927 0.0
H978 H 0.96725 0.67029 0.12336 0.0
H979 H 0.92524 0.67076 0.12946 0.0
H980 H 0.58914 0.36968 0.57707 0.0
H981 H 0.54742 0.36595 0.56903 0.0
H982 H 0.53244 0.38053 0.64322 0.0
H983 H 0.57394 0.38399 0.65148 0.0
H984 H 0.50959 0.34333 0.62675 0.0
H985 H 0.49729 0.41426 0.56418 0.0
H986 H 0.52 0.39529 0.5557 0.0
H987 H 0.52283 0.41133 0.58276 0.0
C988 C 0.57695 0.37224 0.59163 0.0
C989 C 0.58489 0.37712 0.61492 0.0
C990 C 0.55311 0.37025 0.58697 0.0
C991 C 0.53681 0.37324 0.60547 0.0
C992 C 0.54471 0.37824 0.62866 0.0
H993 H 0.38571 0.38367 0.59569 0.0
H994 H 0.42725 0.39096 0.60195 0.0
C995 C 0.56847 0.3802 0.63333 0.0
C996 C 0.51157 0.37007 0.60111 0.0
H997 H 0.46534 0.38948 0.56876 0.0
C998 C 0.49991 0.35346 0.61411 0.0
C999 C 0.49891 0.38348 0.58483 0.0
C1000 C 0.5103 0.40224 0.5712 0.0
C1001 C 0.47603 0.34966 0.61104 0.0
C1002 C 0.46351 0.3626 0.59422 0.0
C1003 C 0.47504 0.37948 0.5815 0.0
C1004 C 0.43848 0.3586 0.58952 0.0
C1005 C 0.46433 0.332 0.62605 0.0
C1006 C 0.43112 0.33818 0.58006 0.0
C1007 C 0.40749 0.33395 0.57651 0.0
C1008 C 0.39071 0.35013 0.58224 0.0
C1009 C 0.39817 0.37082 0.59119 0.0
C1010 C 0.42188 0.37504 0.59473 0.0
H1011 H 0.4748 0.32765 0.64214 0.0
H1012 H 0.44683 0.33753 0.63199 0.0
H1013 H 0.46219 0.3167 0.61513 0.0
H1014 H 0.44367 0.32542 0.57552 0.0
H1015 H 0.4024 0.3179 0.56941 0.0
H1016 H 0.11454 0.32262 0.87323 0.0
H1017 H 0.07232 0.32647 0.87359 0.0
H1018 H 0.07848 0.38771 0.91336 0.0
H1019 H 0.12094 0.38416 0.91283 0.0
H1020 H 0.04411 0.32804 0.9143 0.0
H1021 H 0.03385 0.40436 0.85883 0.0
H1022 H 0.06052 0.38853 0.85948 0.0
H1023 H 0.05331 0.40675 0.88392 0.0
C1024 C 0.10699 0.33706 0.88184 0.0
C1025 C 0.12115 0.3531 0.89299 0.0
C1026 C 0.08282 0.3392 0.88208 0.0
C1027 C 0.07225 0.35743 0.89336 0.0
C1028 C 0.08628 0.37369 0.90421 0.0
H1029 H 0.92344 0.38767 0.90569 0.0
H1030 H 0.96562 0.38784 0.91203 0.0
C1031 C 0.11055 0.37159 0.90395 0.0
C1032 C 0.04651 0.35873 0.89449 0.0
H1033 H 0.99971 0.3889 0.87539 0.0
C1034 C 0.0344 0.34139 0.90587 0.0
C1035 C 0.03389 0.37624 0.88363 0.0
C1036 C 0.04597 0.39497 0.87059 0.0
C1037 C 0.01001 0.34092 0.90639 0.0
C1038 C 0.99738 0.35807 0.89493 0.0
C1039 C 0.00946 0.37577 0.88417 0.0
C1040 C 0.97171 0.35725 0.89259 0.0
C1041 C 0.99795 0.32205 0.91921 0.0
C1042 C 0.96119 0.33997 0.87962 0.0
C1043 C 0.93716 0.33982 0.87595 0.0
C1044 C 0.92316 0.35702 0.88509 0.0
C1045 C 0.9337 0.37412 0.89849 0.0
C1046 C 0.9578 0.37429 0.90207 0.0
H1047 H 0.00952 0.3141 0.93269 0.0
H1048 H 0.98193 0.3279 0.92838 0.0
H1049 H 0.99294 0.30916 0.90592 0.0
H1050 H 0.97165 0.32686 0.87178 0.0
H1051 H 0.92965 0.32644 0.86549 0.0
H1052 H 0.56119 0.63072 0.34243 0.0
H1053 H 0.52025 0.62934 0.35384 0.0
H1054 H 0.53967 0.62324 0.42829 0.0
H1055 H 0.58086 0.62486 0.41705 0.0
H1056 H 0.49641 0.5954 0.37853 0.0
H1057 H 0.49363 0.67564 0.42816 0.0
H1058 H 0.51724 0.66837 0.4083 0.0
H1059 H 0.51559 0.65632 0.43775 0.0
C1060 C 0.55682 0.62916 0.36126 0.0
C1061 C 0.57432 0.62801 0.37885 0.0
C1062 C 0.53339 0.62833 0.36774 0.0
C1063 C 0.52692 0.62643 0.39191 0.0
C1064 C 0.5443 0.62509 0.40955 0.0
H1065 H 0.38869 0.62776 0.45687 0.0
H1066 H 0.43053 0.62385 0.45018 0.0
C1067 C 0.56782 0.62593 0.40309 0.0
C1068 C 0.50194 0.62566 0.39841 0.0
H1069 H 0.45919 0.65437 0.42754 0.0
C1070 C 0.48826 0.60825 0.38931 0.0
C1071 C 0.4914 0.64241 0.41254 0.0
C1072 C 0.50512 0.66187 0.42214 0.0
C1073 C 0.46427 0.60718 0.39387 0.0
C1074 C 0.45363 0.62419 0.40754 0.0
C1075 C 0.4674 0.64135 0.41707 0.0
C1076 C 0.42813 0.62501 0.41146 0.0
C1077 C 0.45058 0.58775 0.38416 0.0
C1078 C 0.41289 0.62693 0.3919 0.0
C1079 C 0.38895 0.62914 0.39564 0.0
C1080 C 0.37982 0.62965 0.41905 0.0
C1081 C 0.39512 0.62741 0.4386 0.0
C1082 C 0.41905 0.6252 0.43483 0.0
H1083 H 0.46197 0.57325 0.38036 0.0
H1084 H 0.4368 0.58253 0.39695 0.0
H1085 H 0.44211 0.59273 0.36709 0.0
H1086 H 0.41955 0.62729 0.37372 0.0
H1087 H 0.37769 0.63094 0.38018 0.0
H1088 H 0.27979 0.08265 0.13698 0.0
H1089 H 0.25137 0.06988 0.16665 0.0
H1090 H 0.30114 0.08163 0.22318 0.0
H1091 H 0.32989 0.09351 0.1934 0.0
H1092 H 0.27324 0.04635 0.23357 0.0
H1093 H 0.21979 0.11851 0.2037 0.0
H1094 H 0.22524 0.09795 0.18108 0.0
H1095 H 0.24896 0.11403 0.19301 0.0
C1096 C 0.28474 0.08214 0.1557 0.0
C1097 C 0.30676 0.08953 0.16307 0.0
C1098 C 0.26851 0.07487 0.17262 0.0
C1099 C 0.27386 0.07555 0.19718 0.0
C1100 C 0.29656 0.08114 0.20433 0.0
H1101 H 0.2219 0.10197 0.33126 0.0
H1102 H 0.24293 0.08737 0.29699 0.0
C1103 C 0.31297 0.08793 0.18734 0.0
C1104 C 0.2554 0.07311 0.21558 0.0
H1105 H 0.20686 0.09894 0.23722 0.0
C1106 C 0.2585 0.0576 0.23417 0.0
C1107 C 0.23614 0.08782 0.21635 0.0
C1108 C 0.23235 0.10564 0.19762 0.0
C1109 C 0.2435 0.05714 0.25405 0.0
C1110 C 0.22501 0.07256 0.25531 0.0
C1111 C 0.22099 0.08703 0.23604 0.0
C1112 C 0.21216 0.07679 0.27782 0.0
C1113 C 0.248 0.04072 0.27396 0.0
C1114 C 0.1878 0.07554 0.27856 0.0
C1115 C 0.17561 0.08382 0.29839 0.0
C1116 C 0.18761 0.09391 0.31751 0.0
C1117 C 0.21204 0.09427 0.31703 0.0
C1118 C 0.22417 0.08574 0.29745 0.0
H1119 H 0.25752 0.02588 0.26728 0.0
H1120 H 0.25888 0.04877 0.28793 0.0
H1121 H 0.23149 0.03523 0.28245 0.0
H1122 H 0.17822 0.06898 0.26339 0.0
H1123 H 0.15678 0.08335 0.29817 0.0
H1124 H 0.33974 0.91882 0.80155 0.0
H1125 H 0.31618 0.93336 0.76842 0.0
H1126 H 0.25412 0.90885 0.80285 0.0
H1127 H 0.27732 0.89407 0.83558 0.0
H1128 H 0.28927 0.90232 0.74174 0.0
H1129 H 0.23396 0.97044 0.77657 0.0
H1130 H 0.26102 0.96234 0.79062 0.0
H1131 H 0.23498 0.94649 0.79583 0.0
C1132 C 0.32102 0.91704 0.80237 0.0
C1133 C 0.31043 0.90519 0.82121 0.0
C1134 C 0.3076 0.92543 0.78347 0.0
C1135 C 0.2834 0.92246 0.78339 0.0
C1136 C 0.27271 0.91179 0.80284 0.0
H1137 H 0.16637 0.90454 0.69632 0.0
H1138 H 0.1938 0.91605 0.72758 0.0
C1139 C 0.28608 0.90319 0.82153 0.0
C1140 C 0.26969 0.92671 0.76142 0.0
H1141 H 0.21994 0.95141 0.74135 0.0
C1142 C 0.27443 0.91347 0.74133 0.0
C1143 C 0.25025 0.94106 0.7612 0.0
C1144 C 0.24482 0.95605 0.78215 0.0
C1145 C 0.25932 0.91293 0.72163 0.0
C1146 C 0.23933 0.92674 0.72167 0.0
C1147 C 0.23527 0.94091 0.74129 0.0
C1148 C 0.22133 0.92475 0.70274 0.0
C1149 C 0.26408 0.89632 0.70188 0.0
C1150 C 0.22719 0.92709 0.67841 0.0
C1151 C 0.21177 0.92 0.66065 0.0
C1152 C 0.18999 0.91123 0.66695 0.0
C1153 C 0.18311 0.91126 0.69109 0.0
C1154 C 0.19877 0.91782 0.70892 0.0
H1155 H 0.277 0.88355 0.7074 0.0
H1156 H 0.24788 0.88764 0.6964 0.0
H1157 H 0.27122 0.90514 0.68601 0.0
H1158 H 0.2442 0.93313 0.67322 0.0
H1159 H 0.2172 0.92059 0.64206 0.0
H1160 H 0.77195 0.8919 0.85539 0.0
H1161 H 0.7816 0.90023 0.81374 0.0
H1162 H 0.71005 0.88998 0.79348 0.0
H1163 H 0.7001 0.8817 0.83522 0.0
H1164 H 0.77492 0.8676 0.77889 0.0
H1165 H 0.7289 0.94541 0.75431 0.0
H1166 H 0.73477 0.93767 0.78507 0.0
H1167 H 0.71098 0.92514 0.76914 0.0
C1168 C 0.7581 0.89185 0.84221 0.0
C1169 C 0.73527 0.88585 0.84863 0.0
C1170 C 0.76368 0.8967 0.81841 0.0
C1171 C 0.74654 0.89584 0.80057 0.0
C1172 C 0.72347 0.89112 0.80706 0.0
H1173 H 0.73495 0.87892 0.65037 0.0
H1174 H 0.7305 0.88826 0.69259 0.0
C1175 C 0.71784 0.88626 0.83092 0.0
C1176 C 0.75337 0.89664 0.77498 0.0
H1177 H 0.74279 0.92297 0.72183 0.0
C1178 C 0.76823 0.87992 0.76644 0.0
C1179 C 0.74447 0.91266 0.75886 0.0
C1180 C 0.72905 0.93137 0.7673 0.0
C1181 C 0.77358 0.87809 0.74199 0.0
C1182 C 0.7643 0.89383 0.7257 0.0
C1183 C 0.75 0.911 0.73436 0.0
C1184 C 0.76738 0.89132 0.69943 0.0
C1185 C 0.78807 0.85858 0.73372 0.0
C1186 C 0.78961 0.89072 0.68901 0.0
C1187 C 0.79229 0.88505 0.6648 0.0
C1188 C 0.77273 0.88021 0.65057 0.0
C1189 C 0.75044 0.88234 0.66077 0.0
C1190 C 0.74782 0.88778 0.68494 0.0
H1191 H 0.7894 0.84546 0.7477 0.0
H1192 H 0.78062 0.85102 0.71724 0.0
H1193 H 0.80592 0.86439 0.72954 0.0
H1194 H 0.80492 0.89392 0.69977 0.0
H1195 H 0.80969 0.88386 0.65745 0.0
H1196 H 0.73332 0.10885 0.35075 0.0
H1197 H 0.7252 0.10147 0.30858 0.0
H1198 H 0.79661 0.11576 0.29074 0.0
H1199 H 0.80504 0.12309 0.33306 0.0
H1200 H 0.73133 0.13578 0.27516 0.0
H1201 H 0.78138 0.0606 0.24914 0.0
H1202 H 0.77424 0.06703 0.27996 0.0
H1203 H 0.79773 0.08125 0.26525 0.0
C1204 C 0.74748 0.11 0.33799 0.0
C1205 C 0.76979 0.11685 0.34527 0.0
C1206 C 0.74278 0.10569 0.31388 0.0
C1207 C 0.7603 0.10797 0.29658 0.0
C1208 C 0.78293 0.11354 0.30389 0.0
H1209 H 0.76967 0.12698 0.14531 0.0
H1210 H 0.7758 0.11804 0.18747 0.0
C1211 C 0.78768 0.11784 0.32808 0.0
C1212 C 0.75412 0.10768 0.27081 0.0
H1213 H 0.76602 0.08266 0.21722 0.0
C1214 C 0.73865 0.12398 0.26251 0.0
C1215 C 0.76387 0.09237 0.25443 0.0
C1216 C 0.78009 0.07418 0.2626 0.0
C1217 C 0.73326 0.12596 0.23809 0.0
C1218 C 0.74316 0.11078 0.22157 0.0
C1219 C 0.75832 0.09416 0.22994 0.0
C1220 C 0.73934 0.11312 0.1954 0.0
C1221 C 0.7179 0.14495 0.23012 0.0
C1222 C 0.71684 0.11253 0.18563 0.0
C1223 C 0.71319 0.11793 0.16151 0.0
C1224 C 0.73205 0.1237 0.14667 0.0
C1225 C 0.7547 0.12279 0.1562 0.0
C1226 C 0.75828 0.1176 0.18033 0.0
H1227 H 0.71634 0.158 0.24415 0.0
H1228 H 0.72473 0.15278 0.2135 0.0
H1229 H 0.70019 0.13853 0.22632 0.0
H1230 H 0.70203 0.10858 0.19685 0.0
H1231 H 0.69556 0.11817 0.15468 0.0
H1232 H 0.71382 0.6235 0.32041 0.0
H1233 H 0.73767 0.60694 0.28935 0.0
H1234 H 0.69025 0.55142 0.2845 0.0
H1235 H 0.66538 0.56876 0.3152 0.0
H1236 H 0.76107 0.56935 0.28604 0.0
H1237 H 0.69194 0.57018 0.21588 0.0
H1238 H 0.6878 0.58354 0.24449 0.0
H1239 H 0.68683 0.55372 0.24226 0.0
C1240 C 0.70842 0.60772 0.31285 0.0
C1241 C 0.68764 0.5975 0.3201 0.0
C1242 C 0.72217 0.59818 0.29511 0.0
C1243 C 0.71573 0.57799 0.28436 0.0
C1244 C 0.69534 0.56724 0.29213 0.0
H1245 H 0.82713 0.56525 0.17584 0.0
H1246 H 0.80153 0.54912 0.20666 0.0
C1247 C 0.68121 0.5771 0.30971 0.0
C1248 C 0.7302 0.56951 0.26425 0.0
H1249 H 0.73016 0.56596 0.20317 0.0
C1250 C 0.75434 0.56813 0.2679 0.0
C1251 C 0.7213 0.56748 0.24068 0.0
C1252 C 0.69559 0.56889 0.23542 0.0
C1253 C 0.76994 0.56795 0.24854 0.0
C1254 C 0.76104 0.56803 0.22485 0.0
C1255 C 0.7369 0.56623 0.22135 0.0
C1256 C 0.7755 0.57509 0.20408 0.0
C1257 C 0.79562 0.57 0.25373 0.0
C1258 C 0.76888 0.59431 0.19152 0.0
C1259 C 0.78304 0.6031 0.17368 0.0
C1260 C 0.80442 0.59311 0.16811 0.0
C1261 C 0.81085 0.57343 0.18002 0.0
C1262 C 0.7963 0.56429 0.19769 0.0
H1263 H 0.79919 0.5729 0.27307 0.0
H1264 H 0.80455 0.55441 0.2484 0.0
H1265 H 0.80332 0.58394 0.24334 0.0
H1266 H 0.75302 0.60308 0.19612 0.0
H1267 H 0.77757 0.61831 0.16489 0.0
H1268 H 0.6706 0.4266 0.68467 0.0
H1269 H 0.69417 0.4406 0.71808 0.0
H1270 H 0.75592 0.4145 0.68445 0.0
H1271 H 0.73273 0.40032 0.65149 0.0
H1272 H 0.71931 0.40934 0.74529 0.0
H1273 H 0.77829 0.47475 0.71105 0.0
H1274 H 0.75134 0.46747 0.69629 0.0
H1275 H 0.77697 0.4508 0.69186 0.0
C1276 C 0.68928 0.42439 0.68408 0.0
C1277 C 0.69975 0.41224 0.6654 0.0
C1278 C 0.70271 0.43246 0.70314 0.0
C1279 C 0.72683 0.42888 0.70354 0.0
C1280 C 0.73743 0.41795 0.68422 0.0
H1281 H 0.8416 0.40397 0.79132 0.0
H1282 H 0.81521 0.41729 0.75989 0.0
C1283 C 0.72404 0.40967 0.66539 0.0
C1284 C 0.74041 0.43264 0.72571 0.0
H1285 H 0.79147 0.45457 0.74609 0.0
C1286 C 0.73476 0.4197 0.74579 0.0
C1287 C 0.76067 0.44595 0.72608 0.0
C1288 C 0.76709 0.4607 0.70522 0.0
C1289 C 0.74971 0.41834 0.76558 0.0
C1290 C 0.77053 0.43098 0.76563 0.0
C1291 C 0.77552 0.44494 0.74607 0.0
C1292 C 0.78832 0.42791 0.7846 0.0
C1293 C 0.74384 0.40204 0.78534 0.0
C1294 C 0.78256 0.4307 0.8089 0.0
C1295 C 0.79735 0.42261 0.82674 0.0
C1296 C 0.81844 0.41237 0.82054 0.0
C1297 C 0.8254 0.41186 0.79644 0.0
C1298 C 0.81033 0.41945 0.77853 0.0
H1299 H 0.7301 0.39009 0.77983 0.0
H1300 H 0.75943 0.39239 0.79081 0.0
H1301 H 0.73733 0.41127 0.80121 0.0
H1302 H 0.766 0.43783 0.81401 0.0
H1303 H 0.79188 0.42353 0.84531 0.0
H1304 H 0.31311 0.38181 0.65431 0.0
H1305 H 0.30704 0.39139 0.69658 0.0
H1306 H 0.23298 0.38409 0.68735 0.0
H1307 H 0.23872 0.37522 0.6452 0.0
H1308 H 0.24359 0.41887 0.71709 0.0
H1309 H 0.29148 0.34236 0.74384 0.0
H1310 H 0.30803 0.36171 0.72622 0.0
H1311 H 0.28335 0.34788 0.71318 0.0
C1312 C 0.29552 0.38253 0.6612 0.0
C1313 C 0.27645 0.37737 0.64641 0.0
C1314 C 0.29209 0.38792 0.68538 0.0
C1315 C 0.26959 0.38794 0.69521 0.0
C1316 C 0.2505 0.38406 0.68018 0.0
H1317 H 0.20086 0.37696 0.83079 0.0
H1318 H 0.21064 0.38503 0.78891 0.0
C1319 C 0.25386 0.37889 0.65604 0.0
C1320 C 0.26578 0.39025 0.7214 0.0
H1321 H 0.27602 0.36424 0.77479 0.0
C1322 C 0.25083 0.40705 0.72977 0.0
C1323 C 0.27508 0.37468 0.73786 0.0
C1324 C 0.29021 0.35551 0.72988 0.0
C1325 C 0.24479 0.40856 0.75415 0.0
C1326 C 0.25383 0.39279 0.77045 0.0
C1327 C 0.26922 0.37637 0.7622 0.0
C1328 C 0.2469 0.39207 0.79601 0.0
C1329 C 0.22875 0.4269 0.76229 0.0
C1330 C 0.26395 0.39371 0.81387 0.0
C1331 C 0.25848 0.38899 0.83772 0.0
C1332 C 0.23584 0.38237 0.84418 0.0
C1333 C 0.21844 0.38203 0.82645 0.0
C1334 C 0.22397 0.38675 0.80251 0.0
H1335 H 0.22812 0.44077 0.74911 0.0
H1336 H 0.2109 0.42013 0.76427 0.0
H1337 H 0.23427 0.43359 0.77998 0.0
H1338 H 0.28175 0.39774 0.80919 0.0
H1339 H 0.27228 0.38964 0.85092 0.0
H1340 H 0.22825 0.60964 0.35438 0.0
H1341 H 0.21916 0.60143 0.31258 0.0
H1342 H 0.29058 0.61356 0.29301 0.0
H1343 H 0.29998 0.62168 0.33491 0.0
H1344 H 0.22503 0.63423 0.27798 0.0
H1345 H 0.2738 0.55799 0.25339 0.0
H1346 H 0.26759 0.56547 0.28415 0.0
H1347 H 0.29101 0.57875 0.26829 0.0
C1348 C 0.24219 0.61013 0.34132 0.0
C1349 C 0.26482 0.61659 0.34798 0.0
C1350 C 0.23694 0.60536 0.31743 0.0
C1351 C 0.2542 0.60677 0.29974 0.0
C1352 C 0.27709 0.61199 0.30646 0.0
H1353 H 0.26538 0.62419 0.14926 0.0
H1354 H 0.27028 0.61548 0.19161 0.0
C1355 C 0.2824 0.61675 0.33042 0.0
C1356 C 0.24761 0.60591 0.27409 0.0
H1357 H 0.25934 0.58011 0.2209 0.0
C1358 C 0.23222 0.62218 0.26552 0.0
C1359 C 0.25715 0.59025 0.25796 0.0
C1360 C 0.27315 0.57198 0.2664 0.0
C1361 C 0.22689 0.62389 0.24106 0.0
C1362 C 0.23679 0.6085 0.22478 0.0
C1363 C 0.25168 0.5918 0.23344 0.0
C1364 C 0.23358 0.61088 0.19852 0.0
C1365 C 0.2117 0.6429 0.23277 0.0
C1366 C 0.21133 0.61047 0.18813 0.0
C1367 C 0.20839 0.61574 0.16386 0.0
C1368 C 0.22771 0.62122 0.14952 0.0
C1369 C 0.25007 0.62024 0.15974 0.0
C1370 C 0.25295 0.61516 0.18398 0.0
H1371 H 0.20985 0.65595 0.24676 0.0
H1372 H 0.2189 0.65071 0.21631 0.0
H1373 H 0.19409 0.63648 0.22855 0.0
H1374 H 0.1962 0.60671 0.19895 0.0
H1375 H 0.19096 0.61606 0.15651 0.0
loop_
_geom_bond_atom_site_label_1
_geom_bond_atom_site_label_2
_geom_bond_distance
_geom_bond_site_symmetry_2
_ccdc_geom_bond_type
Mg0 O1 2.028 . S
Mg0 O7 1.986 . S
Mg0 O9 2.114 . S
Mg0 O10 2.251 . S
Mg0 O13 2.010 . S
O1 Mg0 2.028 . S
O1 C4 1.250 . S
O2 Mg3 2.028 . S
O2 C4 1.248 . S
Mg3 O2 2.028 . S
Mg3 O8 2.032 . S
Mg3 O10 2.079 . S
C4 O1 1.250 . S
C4 O2 1.248 . S
C5 O6 1.264 . S
C5 O13 1.249 . S
O6 C5 1.264 . S
O7 Mg0 1.986 . S
O7 C11 1.246 . S
O8 Mg3 2.032 . S
O8 C11 1.259 . S
O9 Mg0 2.114 . S
O9 C12 1.252 . S
O10 Mg0 2.251 . S
O10 Mg3 2.079 . S
O10 C12 1.273 . S
C11 O7 1.246 . S
C11 O8 1.259 . S
C12 O9 1.252 . S
C12 O10 1.273 . S
O13 Mg0 2.010 . S
O13 C5 1.249 . S
Mg14 O15 2.028 . S
Mg14 O21 1.986 . S
Mg14 O23 2.114 . S
Mg14 O24 2.251 . S
Mg14 O27 2.010 . S
O15 Mg14 2.028 . S
O15 C18 1.250 . S
O16 Mg17 2.028 . S
O16 C18 1.248 . S
Mg17 O16 2.028 . S
Mg17 O22 2.032 . S
Mg17 O24 2.079 . S
C18 O15 1.250 . S
C18 O16 1.248 . S
C19 O20 1.264 . S
C19 O27 1.249 . S
O20 C19 1.264 . S
O21 Mg14 1.986 . S
O21 C25 1.246 . S
O22 Mg17 2.032 . S
O22 C25 1.259 . S
O23 Mg14 2.114 . S
O23 C26 1.252 . S
O24 Mg14 2.251 . S
O24 Mg17 2.079 . S
O24 C26 1.273 . S
C25 O21 1.246 . S
C25 O22 1.259 . S
C26 O23 1.252 . S
C26 O24 1.273 . S
O27 Mg14 2.010 . S
O27 C19 1.249 . S
Mg28 O29 2.028 . S
Mg28 O35 1.986 . S
Mg28 O37 2.114 . S
Mg28 O38 2.251 . S
Mg28 O41 2.010 . S
O29 Mg28 2.028 . S
O29 C32 1.250 . S
O30 Mg31 2.028 . S
O30 C32 1.248 . S
Mg31 O30 2.028 . S
Mg31 O36 2.032 . S
Mg31 O38 2.079 . S
C32 O29 1.250 . S
C32 O30 1.248 . S
C33 O34 1.264 . S
C33 O41 1.249 . S
O34 C33 1.264 . S
O35 Mg28 1.986 . S
O35 C39 1.246 . S
O36 Mg31 2.032 . S
O36 C39 1.259 . S
O37 Mg28 2.114 . S
O37 C40 1.252 . S
O38 Mg28 2.251 . S
O38 Mg31 2.079 . S
O38 C40 1.273 . S
C39 O35 1.246 . S
C39 O36 1.259 . S
C40 O37 1.252 . S
C40 O38 1.273 . S
O41 Mg28 2.010 . S
O41 C33 1.249 . S
Mg42 O43 2.028 . S
Mg42 O49 1.986 . S
Mg42 O51 2.114 . S
Mg42 O52 2.251 . S
Mg42 O55 2.010 . S
O43 Mg42 2.028 . S
O43 C46 1.250 . S
O44 Mg45 2.028 . S
O44 C46 1.248 . S
Mg45 O44 2.028 . S
Mg45 O50 2.032 . S
Mg45 O52 2.079 . S
C46 O43 1.250 . S
C46 O44 1.248 . S
C47 O48 1.264 . S
C47 O55 1.249 . S
O48 C47 1.264 . S
O49 Mg42 1.986 . S
O49 C53 1.246 . S
O50 Mg45 2.032 . S
O50 C53 1.259 . S
O51 Mg42 2.114 . S
O51 C54 1.252 . S
O52 Mg42 2.251 . S
O52 Mg45 2.079 . S
O52 C54 1.273 . S
C53 O49 1.246 . S
C53 O50 1.259 . S
C54 O51 1.252 . S
C54 O52 1.273 . S
O55 Mg42 2.010 . S
O55 C47 1.249 . S
Mg56 O57 2.028 . S
Mg56 O63 1.986 . S
Mg56 O65 2.114 . S
Mg56 O66 2.251 . S
Mg56 O69 2.010 . S
O57 Mg56 2.028 . S
O57 C60 1.250 . S
O58 Mg59 2.028 . S
O58 C60 1.248 . S
Mg59 O58 2.028 . S
Mg59 O64 2.032 . S
Mg59 O66 2.079 . S
C60 O57 1.250 . S
C60 O58 1.248 . S
C61 O62 1.264 . S
C61 O69 1.249 . S
O62 C61 1.264 . S
O63 Mg56 1.986 . S
O63 C67 1.246 . S
O64 Mg59 2.032 . S
O64 C67 1.259 . S
O65 Mg56 2.114 . S
O65 C68 1.252 . S
O66 Mg56 2.251 . S
O66 Mg59 2.079 . S
O66 C68 1.273 . S
C67 O63 1.246 . S
C67 O64 1.259 . S
C68 O65 1.252 . S
C68 O66 1.273 . S
O69 Mg56 2.010 . S
O69 C61 1.249 . S
Mg70 O71 2.028 . S
Mg70 O77 1.986 . S
Mg70 O79 2.114 . S
Mg70 O80 2.251 . S
Mg70 O83 2.010 . S
O71 Mg70 2.028 . S
O71 C74 1.250 . S
O72 Mg73 2.028 . S
O72 C74 1.248 . S
Mg73 O72 2.028 . S
Mg73 O78 2.032 . S
Mg73 O80 2.079 . S
C74 O71 1.250 . S
C74 O72 1.248 . S
C75 O76 1.264 . S
C75 O83 1.249 . S
O76 C75 1.264 . S
O77 Mg70 1.986 . S
O77 C81 1.246 . S
O78 Mg73 2.032 . S
O78 C81 1.259 . S
O79 Mg70 2.114 . S
O79 C82 1.252 . S
O80 Mg70 2.251 . S
O80 Mg73 2.079 . S
O80 C82 1.273 . S
C81 O77 1.246 . S
C81 O78 1.259 . S
C82 O79 1.252 . S
C82 O80 1.273 . S
O83 Mg70 2.010 . S
O83 C75 1.249 . S
Mg84 O85 2.028 . S
Mg84 O91 1.986 . S
Mg84 O93 2.114 . S
Mg84 O94 2.251 . S
Mg84 O97 2.010 . S
O85 Mg84 2.028 . S
O85 C88 1.250 . S
O86 Mg87 2.028 . S
O86 C88 1.248 . S
Mg87 O86 2.028 . S
Mg87 O92 2.032 . S
Mg87 O94 2.079 . S
C88 O85 1.250 . S
C88 O86 1.248 . S
C89 O90 1.264 . S
C89 O97 1.249 . S
O90 C89 1.264 . S
O91 Mg84 1.986 . S
O91 C95 1.246 . S
O92 Mg87 2.032 . S
O92 C95 1.259 . S
O93 Mg84 2.114 . S
O93 C96 1.252 . S
O94 Mg84 2.251 . S
O94 Mg87 2.079 . S
O94 C96 1.273 . S
C95 O91 1.246 . S
C95 O92 1.259 . S
C96 O93 1.252 . S
C96 O94 1.273 . S
O97 Mg84 2.010 . S
O97 C89 1.249 . S
Mg98 O99 2.028 . S
Mg98 O105 1.986 . S
Mg98 O107 2.114 . S
Mg98 O108 2.251 . S
Mg98 O111 2.010 . S
O99 Mg98 2.028 . S
O99 C102 1.250 . S
O100 Mg101 2.028 . S
O100 C102 1.248 . S
Mg101 O100 2.028 . S
Mg101 O106 2.032 . S
Mg101 O108 2.079 . S
C102 O99 1.250 . S
C102 O100 1.248 . S
C103 O104 1.264 . S
C103 O111 1.249 . S
O104 C103 1.264 . S
O105 Mg98 1.986 . S
O105 C109 1.246 . S
O106 Mg101 2.032 . S
O106 C109 1.259 . S
O107 Mg98 2.114 . S
O107 C110 1.252 . S
O108 Mg98 2.251 . S
O108 Mg101 2.079 . S
O108 C110 1.273 . S
C109 O105 1.246 . S
C109 O106 1.259 . S
C110 O107 1.252 . S
C110 O108 1.273 . S
O111 Mg98 2.010 . S
O111 C103 1.249 . S
Mg112 O113 2.028 . S
Mg112 O119 1.986 . S
Mg112 O121 2.114 . S
Mg112 O122 2.251 . S
Mg112 O125 2.010 . S
O113 Mg112 2.028 . S
O113 C116 1.250 . S
O114 Mg115 2.028 . S
O114 C116 1.248 . S
Mg115 O114 2.028 . S
Mg115 O120 2.032 . S
Mg115 O122 2.079 . S
C116 O113 1.250 . S
C116 O114 1.248 . S
C117 O118 1.264 . S
C117 O125 1.249 . S
O118 C117 1.264 . S
O119 Mg112 1.986 . S
O119 C123 1.246 . S
O120 Mg115 2.032 . S
O120 C123 1.259 . S
O121 Mg112 2.114 . S
O121 C124 1.252 . S
O122 Mg112 2.251 . S
O122 Mg115 2.079 . S
O122 C124 1.273 . S
C123 O119 1.246 . S
C123 O120 1.259 . S
C124 O121 1.252 . S
C124 O122 1.273 . S
O125 Mg112 2.010 . S
O125 C117 1.249 . S
Mg126 O127 2.028 . S
Mg126 O133 1.986 . S
Mg126 O135 2.114 . S
Mg126 O136 2.251 . S
Mg126 O139 2.010 . S
O127 Mg126 2.028 . S
O127 C130 1.250 . S
O128 Mg129 2.028 . S
O128 C130 1.248 . S
Mg129 O128 2.028 . S
Mg129 O134 2.032 . S
Mg129 O136 2.079 . S
C130 O127 1.250 . S
C130 O128 1.248 . S
C131 O132 1.264 . S
C131 O139 1.249 . S
O132 C131 1.264 . S
O133 Mg126 1.986 . S
O133 C137 1.246 . S
O134 Mg129 2.032 . S
O134 C137 1.259 . S
O135 Mg126 2.114 . S
O135 C138 1.252 . S
O136 Mg126 2.251 . S
O136 Mg129 2.079 . S
O136 C138 1.273 . S
C137 O133 1.246 . S
C137 O134 1.259 . S
C138 O135 1.252 . S
C138 O136 1.273 . S
O139 Mg126 2.010 . S
O139 C131 1.249 . S
Mg140 O141 2.028 . S
Mg140 O147 1.986 . S
Mg140 O149 2.114 . S
Mg140 O150 2.251 . S
Mg140 O153 2.010 . S
O141 Mg140 2.028 . S
O141 C144 1.250 . S
O142 Mg143 2.028 . S
O142 C144 1.248 . S
Mg143 O142 2.028 . S
Mg143 O148 2.032 . S
Mg143 O150 2.079 . S
C144 O141 1.250 . S
C144 O142 1.248 . S
C145 O146 1.264 . S
C145 O153 1.249 . S
O146 C145 1.264 . S
O147 Mg140 1.986 . S
O147 C151 1.246 . S
O148 Mg143 2.032 . S
O148 C151 1.259 . S
O149 Mg140 2.114 . S
O149 C152 1.252 . S
O150 Mg140 2.251 . S
O150 Mg143 2.079 . S
O150 C152 1.273 . S
C151 O147 1.246 . S
C151 O148 1.259 . S
C152 O149 1.252 . S
C152 O150 1.273 . S
O153 Mg140 2.010 . S
O153 C145 1.249 . S
Mg154 O155 2.028 . S
Mg154 O161 1.986 . S
Mg154 O163 2.114 . S
Mg154 O164 2.251 . S
Mg154 O167 2.010 . S
O155 Mg154 2.028 . S
O155 C158 1.250 . S
O156 Mg157 2.028 . S
O156 C158 1.248 . S
Mg157 O156 2.028 . S
Mg157 O162 2.032 . S
Mg157 O164 2.079 . S
C158 O155 1.250 . S
C158 O156 1.248 . S
C159 O160 1.264 . S
C159 O167 1.249 . S
O160 C159 1.264 . S
O161 Mg154 1.986 . S
O161 C165 1.246 . S
O162 Mg157 2.032 . S
O162 C165 1.259 . S
O163 Mg154 2.114 . S
O163 C166 1.252 . S
O164 Mg154 2.251 . S
O164 Mg157 2.079 . S
O164 C166 1.273 . S
C165 O161 1.246 . S
C165 O162 1.259 . S
C166 O163 1.252 . S
C166 O164 1.273 . S
O167 Mg154 2.010 . S
O167 C159 1.249 . S
Mg168 O169 2.028 . S
Mg168 O175 1.986 . S
Mg168 O177 2.114 . S
Mg168 O178 2.251 . S
Mg168 O181 2.010 . S
O169 Mg168 2.028 . S
O169 C172 1.250 . S
O170 Mg171 2.028 . S
O170 C172 1.248 . S
Mg171 O170 2.028 . S
Mg171 O176 2.032 . S
Mg171 O178 2.079 . S
C172 O169 1.250 . S
C172 O170 1.248 . S
C173 O174 1.264 . S
C173 O181 1.249 . S
O174 C173 1.264 . S
O175 Mg168 1.986 . S
O175 C179 1.246 . S
O176 Mg171 2.032 . S
O176 C179 1.259 . S
O177 Mg168 2.114 . S
O177 C180 1.252 . S
O178 Mg168 2.251 . S
O178 Mg171 2.079 . S
O178 C180 1.273 . S
C179 O175 1.246 . S
C179 O176 1.259 . S
C180 O177 1.252 . S
C180 O178 1.273 . S
O181 Mg168 2.010 . S
O181 C173 1.249 . S
Mg182 O183 2.028 . S
Mg182 O189 1.986 . S
Mg182 O191 2.114 . S
Mg182 O192 2.251 . S
Mg182 O195 2.010 . S
O183 Mg182 2.028 . S
O183 C186 1.250 . S
O184 Mg185 2.028 . S
O184 C186 1.248 . S
Mg185 O184 2.028 . S
Mg185 O190 2.032 . S
Mg185 O192 2.079 . S
C186 O183 1.250 . S
C186 O184 1.248 . S
C187 O188 1.264 . S
C187 O195 1.249 . S
O188 C187 1.264 . S
O189 Mg182 1.986 . S
O189 C193 1.246 . S
O190 Mg185 2.032 . S
O190 C193 1.259 . S
O191 Mg182 2.114 . S
O191 C194 1.252 . S
O192 Mg182 2.251 . S
O192 Mg185 2.079 . S
O192 C194 1.273 . S
C193 O189 1.246 . S
C193 O190 1.259 . S
C194 O191 1.252 . S
C194 O192 1.273 . S
O195 Mg182 2.010 . S
O195 C187 1.249 . S
Mg196 O197 2.028 . S
Mg196 O203 1.986 . S
Mg196 O205 2.114 . S
Mg196 O206 2.251 . S
Mg196 O209 2.010 . S
O197 Mg196 2.028 . S
O197 C200 1.250 . S
O198 Mg199 2.028 . S
O198 C200 1.248 . S
Mg199 O198 2.028 . S
Mg199 O204 2.032 . S
Mg199 O206 2.079 . S
C200 O197 1.250 . S
C200 O198 1.248 . S
C201 O202 1.264 . S
C201 O209 1.249 . S
O202 C201 1.264 . S
O203 Mg196 1.986 . S
O203 C207 1.246 . S
O204 Mg199 2.032 . S
O204 C207 1.259 . S
O205 Mg196 2.114 . S
O205 C208 1.252 . S
O206 Mg196 2.251 . S
O206 Mg199 2.079 . S
O206 C208 1.273 . S
C207 O203 1.246 . S
C207 O204 1.259 . S
C208 O205 1.252 . S
C208 O206 1.273 . S
O209 Mg196 2.010 . S
O209 C201 1.249 . S
Mg210 O211 2.028 . S
Mg210 O217 1.986 . S
Mg210 O219 2.114 . S
Mg210 O220 2.251 . S
Mg210 O223 2.010 . S
O211 Mg210 2.028 . S
O211 C214 1.250 . S
O212 Mg213 2.028 . S
O212 C214 1.248 . S
Mg213 O212 2.028 . S
Mg213 O218 2.032 . S
Mg213 O220 2.079 . S
C214 O211 1.250 . S
C214 O212 1.248 . S
C215 O216 1.264 . S
C215 O223 1.249 . S
O216 C215 1.264 . S
O217 Mg210 1.986 . S
O217 C221 1.246 . S
O218 Mg213 2.032 . S
O218 C221 1.259 . S
O219 Mg210 2.114 . S
O219 C222 1.252 . S
O220 Mg210 2.251 . S
O220 Mg213 2.079 . S
O220 C222 1.273 . S
C221 O217 1.246 . S
C221 O218 1.259 . S
C222 O219 1.252 . S
C222 O220 1.273 . S
O223 Mg210 2.010 . S
O223 C215 1.249 . S
H224 C232 0.929 . S
H225 C234 0.930 . S
H226 C236 0.893 1_556 S
H227 C239 0.929 . S
H228 C242 0.930 . S
H229 C244 0.960 1_556 S
H230 C244 0.960 . S
H231 C244 0.958 1_556 S
C232 H224 0.929 . S
C232 C233 1.377 . S
C232 C234 1.384 . S
C233 C232 1.377 . S
C233 C239 1.390 . S
C234 H225 0.930 . S
C234 C232 1.384 . S
C234 C235 1.372 . S
C235 C234 1.372 . S
C235 C236 1.400 . S
C235 C240 1.490 . S
C236 H226 0.893 1_554 S
C236 C235 1.400 . S
C236 C239 1.386 . S
H237 C253 0.930 . S
H238 C254 0.931 . S
C239 H227 0.929 . S
C239 C233 1.390 . S
C239 C236 1.386 . S
C240 C235 1.490 . S
C240 C242 1.395 . S
C240 C243 1.403 . S
H241 C247 0.930 . S
C242 H228 0.930 . S
C242 C240 1.395 . S
C242 C245 1.403 1_554 S
C243 C240 1.403 . S
C243 C244 1.524 . S
C243 C247 1.400 1_554 S
C244 H229 0.960 1_554 S
C244 H230 0.960 . S
C244 H231 0.958 1_554 S
C244 C243 1.524 . S
C245 C242 1.403 1_556 S
C245 C246 1.392 . S
C245 C249 1.495 . S
C246 C245 1.392 . S
C246 C247 1.385 . S
C246 C248 1.478 . S
C247 H241 0.930 . S
C247 C243 1.400 1_556 S
C247 C246 1.385 . S
C248 C246 1.478 . S
C248 C250 1.381 . S
C248 C254 1.383 . S
C249 C245 1.495 . S
C249 H255 0.959 1_556 S
C249 H256 0.961 . S
C249 H257 0.960 1_556 S
C250 C248 1.381 . S
C250 C251 1.394 . S
C250 H258 0.930 1_556 S
C251 C250 1.394 . S
C251 C252 1.383 . S
C251 H259 0.929 . S
C252 C251 1.383 . S
C252 C253 1.377 . S
C253 H237 0.930 . S
C253 C252 1.377 . S
C253 C254 1.379 . S
C254 H238 0.931 . S
C254 C248 1.383 . S
C254 C253 1.379 . S
H255 C249 0.959 1_554 S
H256 C249 0.961 . S
H257 C249 0.960 1_554 S
H258 C250 0.930 1_554 S
H259 C251 0.929 . S
H260 C268 0.929 . S
H261 C270 0.930 . S
H262 C272 0.930 . S
H263 C275 0.929 . S
H264 C278 0.930 . S
H265 C280 0.960 . S
H266 C280 0.960 . S
H267 C280 0.960 . S
C268 H260 0.929 . S
C268 C269 1.377 . S
C268 C270 1.384 . S
C269 C268 1.377 . S
C269 C275 1.390 . S
C270 H261 0.930 . S
C270 C268 1.384 . S
C270 C271 1.372 . S
C271 C270 1.372 . S
C271 C272 1.400 . S
C271 C276 1.490 . S
C272 H262 0.930 . S
C272 C271 1.400 . S
C272 C275 1.386 . S
H273 C289 0.930 . S
H274 C290 0.931 . S
C275 H263 0.929 . S
C275 C269 1.390 . S
C275 C272 1.386 . S
C276 C271 1.490 . S
C276 C278 1.395 . S
C276 C279 1.403 . S
H277 C283 0.930 . S
C278 H264 0.930 . S
C278 C276 1.395 . S
C278 C281 1.403 . S
C279 C276 1.403 . S
C279 C280 1.524 . S
C279 C283 1.400 . S
C280 H265 0.960 . S
C280 H266 0.960 . S
C280 H267 0.960 . S
C280 C279 1.524 . S
C281 C278 1.403 . S
C281 C282 1.392 . S
C281 C285 1.495 . S
C282 C281 1.392 . S
C282 C283 1.385 . S
C282 C284 1.478 . S
C283 H277 0.930 . S
C283 C279 1.400 . S
C283 C282 1.385 . S
C284 C282 1.478 . S
C284 C286 1.381 . S
C284 C290 1.383 . S
C285 C281 1.495 . S
C285 H291 0.959 . S
C285 H292 0.961 . S
C285 H293 0.960 . S
C286 C284 1.381 . S
C286 C287 1.394 . S
C286 H294 0.930 . S
C287 C286 1.394 . S
C287 C288 1.383 . S
C287 H295 0.929 . S
C288 C287 1.383 . S
C288 C289 1.377 . S
C289 H273 0.930 . S
C289 C288 1.377 . S
C289 C290 1.379 . S
C290 H274 0.931 . S
C290 C284 1.383 . S
C290 C289 1.379 . S
H291 C285 0.959 . S
H292 C285 0.961 . S
H293 C285 0.960 . S
H294 C286 0.930 . S
H295 C287 0.929 . S
H296 C304 0.929 . S
H297 C306 0.930 1_554 S
H298 C308 0.930 . S
H299 C311 0.929 . S
H300 C314 0.929 1_556 S
H301 C316 0.960 . S
H302 C316 0.960 . S
H303 C316 0.960 . S
C304 H296 0.929 . S
C304 C305 1.377 . S
C304 C306 1.384 . S
C305 C304 1.377 . S
C305 C311 1.390 . S
C306 H297 0.930 1_556 S
C306 C304 1.384 . S
C306 C307 1.372 . S
C307 C306 1.372 . S
C307 C308 1.400 . S
C307 C312 1.490 . S
C308 H298 0.930 . S
C308 C307 1.400 . S
C308 C311 1.386 . S
H309 C325 0.930 . S
H310 C326 0.931 1_556 S
C311 H299 0.929 . S
C311 C305 1.390 . S
C311 C308 1.386 . S
C312 C307 1.490 . S
C312 C314 1.390 1_556 S
C312 C315 1.403 . S
H313 C319 0.930 . S
C314 H300 0.929 1_554 S
C314 C312 1.390 1_554 S
C314 C317 1.409 . S
C315 C312 1.403 . S
C315 C316 1.524 . S
C315 C319 1.400 1_556 S
C316 H301 0.960 . S
C316 H302 0.960 . S
C316 H303 0.960 . S
C316 C315 1.524 . S
C317 C314 1.409 . S
C317 C318 1.392 . S
C317 C321 1.495 . S
C318 C317 1.392 . S
C318 C319 1.385 . S
C318 C320 1.478 . S
C319 H313 0.930 . S
C319 C315 1.400 1_554 S
C319 C318 1.385 . S
C320 C318 1.478 . S
C320 C322 1.381 . S
C320 C326 1.383 . S
C321 C317 1.495 . S
C321 H327 0.959 . S
C321 H328 0.961 . S
C321 H329 0.960 . S
C322 C320 1.381 . S
C322 C323 1.394 . S
C322 H330 0.930 . S
C323 C322 1.394 . S
C323 C324 1.383 . S
C323 H331 0.929 . S
C324 C323 1.383 . S
C324 C325 1.377 . S
C325 H309 0.930 . S
C325 C324 1.377 . S
C325 C326 1.379 . S
C326 H310 0.931 1_554 S
C326 C320 1.383 . S
C326 C325 1.379 . S
H327 C321 0.959 . S
H328 C321 0.961 . S
H329 C321 0.960 . S
H330 C322 0.930 . S
H331 C323 0.929 . S
H332 C340 0.929 . S
H333 C342 0.930 . S
H334 C344 0.930 . S
H335 C347 0.929 . S
H336 C350 0.930 . S
H337 C352 0.960 . S
H338 C352 0.960 . S
H339 C352 0.960 . S
C340 H332 0.929 . S
C340 C341 1.377 . S
C340 C342 1.384 . S
C341 C340 1.377 . S
C341 C347 1.390 . S
C342 H333 0.930 . S
C342 C340 1.384 . S
C342 C343 1.372 . S
C343 C342 1.372 . S
C343 C344 1.400 . S
C343 C348 1.490 . S
C344 H334 0.930 . S
C344 C343 1.400 . S
C344 C347 1.386 . S
H345 C361 0.930 . S
H346 C362 0.931 . S
C347 H335 0.929 . S
C347 C341 1.390 . S
C347 C344 1.386 . S
C348 C343 1.490 . S
C348 C350 1.395 . S
C348 C351 1.403 . S
H349 C355 0.930 . S
C350 H336 0.930 . S
C350 C348 1.395 . S
C350 C353 1.403 . S
C351 C348 1.403 . S
C351 C352 1.524 . S
C351 C355 1.400 . S
C352 H337 0.960 . S
C352 H338 0.960 . S
C352 H339 0.960 . S
C352 C351 1.524 . S
C353 C350 1.403 . S
C353 C354 1.392 . S
C353 C357 1.495 . S
C354 C353 1.392 . S
C354 C355 1.385 . S
C354 C356 1.478 . S
C355 H349 0.930 . S
C355 C351 1.400 . S
C355 C354 1.385 . S
C356 C354 1.478 . S
C356 C358 1.381 . S
C356 C362 1.383 . S
C357 C353 1.495 . S
C357 H363 0.959 . S
C357 H364 0.961 . S
C357 H365 0.960 . S
C358 C356 1.381 . S
C358 C359 1.394 . S
C358 H366 0.930 . S
C359 C358 1.394 . S
C359 C360 1.383 . S
C359 H367 0.929 . S
C360 C359 1.383 . S
C360 C361 1.377 . S
C361 H345 0.930 . S
C361 C360 1.377 . S
C361 C362 1.379 . S
C362 H346 0.931 . S
C362 C356 1.383 . S
C362 C361 1.379 . S
H363 C357 0.959 . S
H364 C357 0.961 . S
H365 C357 0.960 . S
H366 C358 0.930 . S
H367 C359 0.929 . S
H368 C376 0.929 . S
H369 C378 0.930 1_556 S
H370 C380 0.930 . S
H371 C383 0.929 . S
H372 C386 0.932 . S
H373 C388 0.960 . S
H374 C388 0.960 . S
H375 C388 0.960 . S
C376 H368 0.929 . S
C376 C377 1.377 . S
C376 C378 1.384 . S
C377 C376 1.377 . S
C377 C383 1.390 . S
C378 H369 0.930 1_554 S
C378 C376 1.384 . S
C378 C379 1.372 . S
C379 C378 1.372 . S
C379 C380 1.400 . S
C379 C384 1.490 . S
C380 H370 0.930 . S
C380 C379 1.400 . S
C380 C383 1.386 . S
H381 C397 0.930 . S
H382 C398 0.931 1_554 S
C383 H371 0.929 . S
C383 C377 1.390 . S
C383 C380 1.386 . S
C384 C379 1.490 . S
C384 C386 1.401 . S
C384 C387 1.403 . S
H385 C391 0.930 . S
C386 H372 0.932 . S
C386 C384 1.401 . S
C386 C389 1.395 1_554 S
C387 C384 1.403 . S
C387 C388 1.524 . S
C387 C391 1.400 1_554 S
C388 H373 0.960 . S
C388 H374 0.960 . S
C388 H375 0.960 . S
C388 C387 1.524 . S
C389 C386 1.395 1_556 S
C389 C390 1.392 . S
C389 C393 1.495 . S
C390 C389 1.392 . S
C390 C391 1.385 . S
C390 C392 1.478 . S
C391 H385 0.930 . S
C391 C387 1.400 1_556 S
C391 C390 1.385 . S
C392 C390 1.478 . S
C392 C394 1.381 . S
C392 C398 1.383 . S
C393 C389 1.495 . S
C393 H399 0.959 . S
C393 H400 0.961 . S
C393 H401 0.960 . S
C394 C392 1.381 . S
C394 C395 1.394 . S
C394 H402 0.930 . S
C395 C394 1.394 . S
C395 C396 1.383 . S
C395 H403 0.929 . S
C396 C395 1.383 . S
C396 C397 1.377 . S
C397 H381 0.930 . S
C397 C396 1.377 . S
C397 C398 1.379 . S
C398 H382 0.931 1_556 S
C398 C392 1.383 . S
C398 C397 1.379 . S
H399 C393 0.959 . S
H400 C393 0.961 . S
H401 C393 0.960 . S
H402 C394 0.930 . S
H403 C395 0.929 . S
H404 C412 0.929 . S
H405 C414 0.930 . S
H406 C416 0.930 . S
H407 C419 0.929 . S
H408 C422 0.930 . S
H409 C424 0.960 . S
H410 C424 0.960 . S
H411 C424 0.960 . S
C412 H404 0.929 . S
C412 C413 1.377 . S
C412 C414 1.384 . S
C413 C412 1.377 . S
C413 C419 1.390 . S
C414 H405 0.930 . S
C414 C412 1.384 . S
C414 C415 1.372 . S
C415 C414 1.372 . S
C415 C416 1.400 . S
C415 C420 1.490 . S
C416 H406 0.930 . S
C416 C415 1.400 . S
C416 C419 1.386 . S
H417 C433 0.930 . S
H418 C434 0.931 . S
C419 H407 0.929 . S
C419 C413 1.390 . S
C419 C416 1.386 . S
C420 C415 1.490 . S
C420 C422 1.395 . S
C420 C423 1.403 . S
H421 C427 0.930 . S
C422 H408 0.930 . S
C422 C420 1.395 . S
C422 C425 1.403 . S
C423 C420 1.403 . S
C423 C424 1.524 . S
C423 C427 1.400 . S
C424 H409 0.960 . S
C424 H410 0.960 . S
C424 H411 0.960 . S
C424 C423 1.524 . S
C425 C422 1.403 . S
C425 C426 1.392 . S
C425 C429 1.495 . S
C426 C425 1.392 . S
C426 C427 1.385 . S
C426 C428 1.478 . S
C427 H421 0.930 . S
C427 C423 1.400 . S
C427 C426 1.385 . S
C428 C426 1.478 . S
C428 C430 1.381 . S
C428 C434 1.383 . S
C429 C425 1.495 . S
C429 H435 0.959 . S
C429 H436 0.961 . S
C429 H437 0.960 . S
C430 C428 1.381 . S
C430 C431 1.394 . S
C430 H438 0.930 . S
C431 C430 1.394 . S
C431 C432 1.383 . S
C431 H439 0.929 . S
C432 C431 1.383 . S
C432 C433 1.377 . S
C433 H417 0.930 . S
C433 C432 1.377 . S
C433 C434 1.379 . S
C434 H418 0.931 . S
C434 C428 1.383 . S
C434 C433 1.379 . S
H435 C429 0.959 . S
H436 C429 0.961 . S
H437 C429 0.960 . S
H438 C430 0.930 . S
H439 C431 0.929 . S
H440 C448 0.929 . S
H441 C450 0.930 . S
H442 C452 0.930 . S
H443 C455 0.929 . S
H444 C458 0.930 . S
H445 C460 0.960 1_554 S
H446 C460 0.960 1_554 S
H447 C460 0.960 . S
C448 H440 0.929 . S
C448 C449 1.377 . S
C448 C450 1.384 . S
C449 C448 1.377 . S
C449 C455 1.390 . S
C450 H441 0.930 . S
C450 C448 1.384 . S
C450 C451 1.372 . S
C451 C450 1.372 . S
C451 C452 1.400 . S
C451 C456 1.490 . S
C452 H442 0.930 . S
C452 C451 1.400 . S
C452 C455 1.386 . S
H453 C469 0.930 . S
H454 C470 0.931 . S
C455 H443 0.929 . S
C455 C449 1.390 . S
C455 C452 1.386 . S
C456 C451 1.490 . S
C456 C458 1.395 . S
C456 C459 1.420 . S
H457 C463 0.930 . S
C458 H444 0.930 . S
C458 C456 1.395 . S
C458 C461 1.403 1_556 S
C459 C456 1.420 . S
C459 C460 1.525 . S
C459 C463 1.381 1_556 S
C460 H445 0.960 1_556 S
C460 H446 0.960 1_556 S
C460 H447 0.960 . S
C460 C459 1.525 . S
C461 C458 1.403 1_554 S
C461 C462 1.392 . S
C461 C465 1.495 . S
C462 C461 1.392 . S
C462 C463 1.385 . S
C462 C464 1.478 . S
C463 H457 0.930 . S
C463 C459 1.381 1_554 S
C463 C462 1.385 . S
C464 C462 1.478 . S
C464 C466 1.381 . S
C464 C470 1.383 . S
C465 C461 1.495 . S
C465 H471 0.959 1_554 S
C465 H472 0.961 1_554 S
C465 H473 0.960 . S
C466 C464 1.381 . S
C466 C467 1.394 . S
C466 H474 0.930 . S
C467 C466 1.394 . S
C467 C468 1.383 . S
C467 H475 0.929 . S
C468 C467 1.383 . S
C468 C469 1.377 . S
C469 H453 0.930 . S
C469 C468 1.377 . S
C469 C470 1.379 . S
C470 H454 0.931 . S
C470 C464 1.383 . S
C470 C469 1.379 . S
H471 C465 0.959 1_556 S
H472 C465 0.961 1_556 S
H473 C465 0.960 . S
H474 C466 0.930 . S
H475 C467 0.929 . S
H476 C484 0.929 . S
H477 C486 0.930 . S
H478 C488 0.930 . S
H479 C491 0.929 . S
H480 C494 0.930 . S
H481 C496 0.960 . S
H482 C496 0.960 . S
H483 C496 0.960 . S
C484 H476 0.929 . S
C484 C485 1.377 . S
C484 C486 1.384 . S
C485 C484 1.377 . S
C485 C491 1.390 . S
C486 H477 0.930 . S
C486 C484 1.384 . S
C486 C487 1.372 . S
C487 C486 1.372 . S
C487 C488 1.400 . S
C487 C492 1.490 . S
C488 H478 0.930 . S
C488 C487 1.400 . S
C488 C491 1.386 . S
H489 C505 0.930 . S
H490 C506 0.931 . S
C491 H479 0.929 . S
C491 C485 1.390 . S
C491 C488 1.386 . S
C492 C487 1.490 . S
C492 C494 1.395 . S
C492 C495 1.403 . S
H493 C499 0.930 . S
C494 H480 0.930 . S
C494 C492 1.395 . S
C494 C497 1.403 . S
C495 C492 1.403 . S
C495 C496 1.524 . S
C495 C499 1.400 . S
C496 H481 0.960 . S
C496 H482 0.960 . S
C496 H483 0.960 . S
C496 C495 1.524 . S
C497 C494 1.403 . S
C497 C498 1.392 . S
C497 C501 1.495 . S
C498 C497 1.392 . S
C498 C499 1.385 . S
C498 C500 1.478 . S
C499 H493 0.930 . S
C499 C495 1.400 . S
C499 C498 1.385 . S
C500 C498 1.478 . S
C500 C502 1.381 . S
C500 C506 1.383 . S
C501 C497 1.495 . S
C501 H507 0.959 . S
C501 H508 0.961 . S
C501 H509 0.960 . S
C502 C500 1.381 . S
C502 C503 1.394 . S
C502 H510 0.930 . S
C503 C502 1.394 . S
C503 C504 1.383 . S
C503 H511 0.929 . S
C504 C503 1.383 . S
C504 C505 1.377 . S
C505 H489 0.930 . S
C505 C504 1.377 . S
C505 C506 1.379 . S
C506 H490 0.931 . S
C506 C500 1.383 . S
C506 C505 1.379 . S
H507 C501 0.959 . S
H508 C501 0.961 . S
H509 C501 0.960 . S
H510 C502 0.930 . S
H511 C503 0.929 . S
H512 C520 0.929 . S
H513 C522 0.930 . S
H514 C524 0.930 . S
H515 C527 0.929 . S
H516 C530 0.938 . S
H517 C532 0.960 . S
H518 C532 0.943 1_554 S
H519 C532 0.960 . S
C520 H512 0.929 . S
C520 C521 1.377 . S
C520 C522 1.384 . S
C521 C520 1.377 . S
C521 C527 1.390 . S
C522 H513 0.930 . S
C522 C520 1.384 . S
C522 C523 1.372 . S
C523 C522 1.372 . S
C523 C524 1.400 . S
C523 C528 1.490 . S
C524 H514 0.930 . S
C524 C523 1.400 . S
C524 C527 1.386 . S
H525 C541 0.930 . S
H526 C542 0.931 . S
C527 H515 0.929 . S
C527 C521 1.390 . S
C527 C524 1.386 . S
C528 C523 1.490 . S
C528 C530 1.434 . S
C528 C531 1.403 1_554 S
H529 C535 0.930 . S
C530 H516 0.938 . S
C530 C528 1.434 . S
C530 C533 1.359 1_545 S
C531 C528 1.403 1_556 S
C531 C532 1.524 . S
C531 C535 1.400 1_545 S
C532 H517 0.960 . S
C532 H518 0.943 1_556 S
C532 H519 0.960 . S
C532 C531 1.524 . S
C533 C530 1.359 1_565 S
C533 C534 1.392 1_554 S
C533 C537 1.495 . S
C534 C533 1.392 1_556 S
C534 C535 1.385 . S
C534 C536 1.478 . S
C535 H529 0.930 . S
C535 C531 1.400 1_565 S
C535 C534 1.385 . S
C536 C534 1.478 . S
C536 C538 1.381 . S
C536 C542 1.383 . S
C537 C533 1.495 . S
C537 H543 0.959 . S
C537 H544 0.961 . S
C537 H545 0.960 . S
C538 C536 1.381 . S
C538 C539 1.394 . S
C538 H546 0.930 . S
C539 C538 1.394 . S
C539 C540 1.383 . S
C539 H547 0.929 . S
C540 C539 1.383 . S
C540 C541 1.377 . S
C541 H525 0.930 . S
C541 C540 1.377 . S
C541 C542 1.379 . S
C542 H526 0.931 . S
C542 C536 1.383 . S
C542 C541 1.379 . S
H543 C537 0.959 . S
H544 C537 0.961 . S
H545 C537 0.960 . S
H546 C538 0.930 . S
H547 C539 0.929 . S
H548 C556 0.929 . S
H549 C558 0.930 . S
H550 C560 0.930 . S
H551 C563 0.929 . S
H552 C566 0.930 . S
H553 C568 0.960 . S
H554 C568 0.960 . S
H555 C568 0.960 1_565 S
C556 H548 0.929 . S
C556 C557 1.377 . S
C556 C558 1.384 . S
C557 C556 1.377 . S
C557 C563 1.390 . S
C558 H549 0.930 . S
C558 C556 1.384 . S
C558 C559 1.372 . S
C559 C558 1.372 . S
C559 C560 1.400 . S
C559 C564 1.490 . S
C560 H550 0.930 . S
C560 C559 1.400 . S
C560 C563 1.386 . S
H561 C577 0.930 . S
H562 C578 0.931 . S
C563 H551 0.929 . S
C563 C557 1.390 . S
C563 C560 1.386 . S
C564 C559 1.490 . S
C564 C566 1.395 . S
C564 C567 1.384 1_565 S
H565 C571 0.930 . S
C566 H552 0.930 . S
C566 C564 1.395 . S
C566 C569 1.403 . S
C567 C564 1.384 1_545 S
C567 C568 1.526 . S
C567 C571 1.417 . S
C568 H553 0.960 . S
C568 H554 0.960 . S
C568 H555 0.960 1_545 S
C568 C567 1.526 . S
C569 C566 1.403 . S
C569 C570 1.392 1_565 S
C569 C573 1.495 . S
C570 C569 1.392 1_545 S
C570 C571 1.385 . S
C570 C572 1.478 . S
C571 H565 0.930 . S
C571 C567 1.417 . S
C571 C570 1.385 . S
C572 C570 1.478 . S
C572 C574 1.381 . S
C572 C578 1.383 . S
C573 C569 1.495 . S
C573 H579 0.959 . S
C573 H580 0.961 . S
C573 H581 0.960 1_565 S
C574 C572 1.381 . S
C574 C575 1.394 . S
C574 H582 0.930 . S
C575 C574 1.394 . S
C575 C576 1.383 . S
C575 H583 0.929 . S
C576 C575 1.383 . S
C576 C577 1.377 . S
C577 H561 0.930 . S
C577 C576 1.377 . S
C577 C578 1.379 . S
C578 H562 0.931 . S
C578 C572 1.383 . S
C578 C577 1.379 . S
H579 C573 0.959 . S
H580 C573 0.961 . S
H581 C573 0.960 1_545 S
H582 C574 0.930 . S
H583 C575 0.929 . S
H584 C592 0.929 . S
H585 C594 0.930 . S
H586 C596 0.930 . S
H587 C599 0.929 . S
H588 C602 0.930 . S
H589 C604 0.960 . S
H590 C604 0.960 . S
H591 C604 0.960 . S
C592 H584 0.929 . S
C592 C593 1.377 . S
C592 C594 1.384 . S
C593 C592 1.377 . S
C593 C599 1.390 . S
C594 H585 0.930 . S
C594 C592 1.384 . S
C594 C595 1.372 . S
C595 C594 1.372 . S
C595 C596 1.400 . S
C595 C600 1.490 . S
C596 H586 0.930 . S
C596 C595 1.400 . S
C596 C599 1.386 . S
H597 C613 0.930 . S
H598 C614 0.931 . S
C599 H587 0.929 . S
C599 C593 1.390 . S
C599 C596 1.386 . S
C600 C595 1.490 . S
C600 C602 1.395 1_565 S
C600 C603 1.403 1_556 S
H601 C607 0.930 . S
C602 H588 0.930 . S
C602 C600 1.395 1_545 S
C602 C605 1.403 . S
C603 C600 1.403 1_554 S
C603 C604 1.524 . S
C603 C607 1.400 1_565 S
C604 H589 0.960 . S
C604 H590 0.960 . S
C604 H591 0.960 . S
C604 C603 1.524 . S
C605 C602 1.403 . S
C605 C606 1.392 1_556 S
C605 C609 1.495 . S
C606 C605 1.392 1_554 S
C606 C607 1.385 . S
C606 C608 1.478 . S
C607 H601 0.930 . S
C607 C603 1.400 1_545 S
C607 C606 1.385 . S
C608 C606 1.478 . S
C608 C610 1.381 . S
C608 C614 1.383 . S
C609 C605 1.495 . S
C609 H615 0.959 . S
C609 H616 0.961 . S
C609 H617 0.960 . S
C610 C608 1.381 . S
C610 C611 1.394 . S
C610 H618 0.930 . S
C611 C610 1.394 . S
C611 C612 1.383 . S
C611 H619 0.929 . S
C612 C611 1.383 . S
C612 C613 1.377 . S
C613 H597 0.930 . S
C613 C612 1.377 . S
C613 C614 1.379 . S
C614 H598 0.931 . S
C614 C608 1.383 . S
C614 C613 1.379 . S
H615 C609 0.959 . S
H616 C609 0.961 . S
H617 C609 0.960 . S
H618 C610 0.930 . S
H619 C611 0.929 . S
H620 C628 0.929 . S
H621 C630 0.930 . S
H622 C632 0.930 . S
H623 C635 0.929 . S
H624 C638 0.930 . S
H625 C640 0.960 . S
H626 C640 0.960 . S
H627 C640 0.960 1_545 S
C628 H620 0.929 . S
C628 C629 1.377 . S
C628 C630 1.384 . S
C629 C628 1.377 . S
C629 C635 1.390 . S
C630 H621 0.930 . S
C630 C628 1.384 . S
C630 C631 1.372 . S
C631 C630 1.372 . S
C631 C632 1.400 . S
C631 C636 1.490 . S
C632 H622 0.930 . S
C632 C631 1.400 . S
C632 C635 1.386 . S
H633 C649 0.930 . S
H634 C650 0.931 . S
C635 H623 0.929 . S
C635 C629 1.390 . S
C635 C632 1.386 . S
C636 C631 1.490 . S
C636 C638 1.395 . S
C636 C639 1.377 1_545 S
H637 C643 0.930 . S
C638 H624 0.930 . S
C638 C636 1.395 . S
C638 C641 1.403 . S
C639 C636 1.377 1_565 S
C639 C640 1.527 . S
C639 C643 1.423 . S
C640 H625 0.960 . S
C640 H626 0.960 . S
C640 H627 0.960 1_565 S
C640 C639 1.527 . S
C641 C638 1.403 . S
C641 C642 1.392 1_545 S
C641 C645 1.495 . S
C642 C641 1.392 1_565 S
C642 C643 1.385 . S
C642 C644 1.478 . S
C643 H637 0.930 . S
C643 C639 1.423 . S
C643 C642 1.385 . S
C644 C642 1.478 . S
C644 C646 1.381 . S
C644 C650 1.383 . S
C645 C641 1.495 . S
C645 H651 0.959 . S
C645 H652 0.961 . S
C645 H653 0.960 1_545 S
C646 C644 1.381 . S
C646 C647 1.394 . S
C646 H654 0.930 . S
C647 C646 1.394 . S
C647 C648 1.383 . S
C647 H655 0.929 . S
C648 C647 1.383 . S
C648 C649 1.377 . S
C649 H633 0.930 . S
C649 C648 1.377 . S
C649 C650 1.379 . S
C650 H634 0.931 . S
C650 C644 1.383 . S
C650 C649 1.379 . S
H651 C645 0.959 . S
H652 C645 0.961 . S
H653 C645 0.960 1_565 S
H654 C646 0.930 . S
H655 C647 0.929 . S
H656 C664 0.929 . S
H657 C666 0.930 . S
H658 C668 0.930 . S
H659 C671 0.929 . S
H660 C674 0.930 . S
H661 C676 0.960 . S
H662 C676 0.960 . S
H663 C676 0.960 . S
C664 H656 0.929 . S
C664 C665 1.377 . S
C664 C666 1.384 . S
C665 C664 1.377 . S
C665 C671 1.390 . S
C666 H657 0.930 . S
C666 C664 1.384 . S
C666 C667 1.372 . S
C667 C666 1.372 . S
C667 C668 1.400 . S
C667 C672 1.490 . S
C668 H658 0.930 . S
C668 C667 1.400 . S
C668 C671 1.386 . S
H669 C685 0.930 . S
H670 C686 0.931 . S
C671 H659 0.929 . S
C671 C665 1.390 . S
C671 C668 1.386 . S
C672 C667 1.490 . S
C672 C674 1.395 1_556 S
C672 C675 1.403 . S
H673 C679 0.930 . S
C674 H660 0.930 . S
C674 C672 1.395 1_554 S
C674 C677 1.403 . S
C675 C672 1.403 . S
C675 C676 1.524 . S
C675 C679 1.400 1_556 S
C676 H661 0.960 . S
C676 H662 0.960 . S
C676 H663 0.960 . S
C676 C675 1.524 . S
C677 C674 1.403 . S
C677 C678 1.392 . S
C677 C681 1.495 . S
C678 C677 1.392 . S
C678 C679 1.385 . S
C678 C680 1.478 . S
C679 H673 0.930 . S
C679 C675 1.400 1_554 S
C679 C678 1.385 . S
C680 C678 1.478 . S
C680 C682 1.381 . S
C680 C686 1.383 . S
C681 C677 1.495 . S
C681 H687 0.959 . S
C681 H688 0.961 . S
C681 H689 0.960 . S
C682 C680 1.381 . S
C682 C683 1.394 . S
C682 H690 0.930 . S
C683 C682 1.394 . S
C683 C684 1.383 . S
C683 H691 0.929 . S
C684 C683 1.383 . S
C684 C685 1.377 . S
C685 H669 0.930 . S
C685 C684 1.377 . S
C685 C686 1.379 . S
C686 H670 0.931 . S
C686 C680 1.383 . S
C686 C685 1.379 . S
H687 C681 0.959 . S
H688 C681 0.961 . S
H689 C681 0.960 . S
H690 C682 0.930 . S
H691 C683 0.929 . S
H692 C700 0.929 . S
H693 C702 0.930 . S
H694 C704 0.930 . S
H695 C707 0.929 . S
H696 C710 0.930 . S
H697 C712 0.960 . S
H698 C712 0.960 . S
H699 C712 0.960 . S
C700 H692 0.929 . S
C700 C701 1.377 . S
C700 C702 1.384 . S
C701 C700 1.377 . S
C701 C707 1.390 . S
C702 H693 0.930 . S
C702 C700 1.384 . S
C702 C703 1.372 . S
C703 C702 1.372 . S
C703 C704 1.400 . S
C703 C708 1.490 . S
C704 H694 0.930 . S
C704 C703 1.400 . S
C704 C707 1.386 . S
H705 C721 0.930 . S
H706 C722 0.931 . S
C707 H695 0.929 . S
C707 C701 1.390 . S
C707 C704 1.386 . S
C708 C703 1.490 . S
C708 C710 1.395 . S
C708 C711 1.403 . S
H709 C715 0.930 . S
C710 H696 0.930 . S
C710 C708 1.395 . S
C710 C713 1.403 . S
C711 C708 1.403 . S
C711 C712 1.524 . S
C711 C715 1.400 . S
C712 H697 0.960 . S
C712 H698 0.960 . S
C712 H699 0.960 . S
C712 C711 1.524 . S
C713 C710 1.403 . S
C713 C714 1.392 . S
C713 C717 1.495 . S
C714 C713 1.392 . S
C714 C715 1.385 . S
C714 C716 1.478 . S
C715 H709 0.930 . S
C715 C711 1.400 . S
C715 C714 1.385 . S
C716 C714 1.478 . S
C716 C718 1.381 . S
C716 C722 1.383 . S
C717 C713 1.495 . S
C717 H723 0.959 . S
C717 H724 0.961 . S
C717 H725 0.960 . S
C718 C716 1.381 . S
C718 C719 1.394 . S
C718 H726 0.930 . S
C719 C718 1.394 . S
C719 C720 1.383 . S
C719 H727 0.929 . S
C720 C719 1.383 . S
C720 C721 1.377 . S
C721 H705 0.930 . S
C721 C720 1.377 . S
C721 C722 1.379 . S
C722 H706 0.931 . S
C722 C716 1.383 . S
C722 C721 1.379 . S
H723 C717 0.959 . S
H724 C717 0.961 . S
H725 C717 0.960 . S
H726 C718 0.930 . S
H727 C719 0.929 . S
H728 C736 0.929 . S
H729 C738 0.930 . S
H730 C740 0.930 . S
H731 C743 0.929 . S
H732 C746 0.930 . S
H733 C748 0.960 . S
H734 C748 0.960 . S
H735 C748 0.960 . S
C736 H728 0.929 . S
C736 C737 1.377 . S
C736 C738 1.384 . S
C737 C736 1.377 . S
C737 C743 1.390 . S
C738 H729 0.930 . S
C738 C736 1.384 . S
C738 C739 1.372 . S
C739 C738 1.372 . S
C739 C740 1.400 . S
C739 C744 1.490 . S
C740 H730 0.930 . S
C740 C739 1.400 . S
C740 C743 1.386 . S
H741 C757 0.930 . S
H742 C758 0.931 . S
C743 H731 0.929 . S
C743 C737 1.390 . S
C743 C740 1.386 . S
C744 C739 1.490 . S
C744 C746 1.395 . S
C744 C747 1.403 . S
H745 C751 0.930 . S
C746 H732 0.930 . S
C746 C744 1.395 . S
C746 C749 1.403 1_554 S
C747 C744 1.403 . S
C747 C748 1.524 . S
C747 C751 1.400 1_554 S
C748 H733 0.960 . S
C748 H734 0.960 . S
C748 H735 0.960 . S
C748 C747 1.524 . S
C749 C746 1.403 1_556 S
C749 C750 1.392 . S
C749 C753 1.495 . S
C750 C749 1.392 . S
C750 C751 1.385 . S
C750 C752 1.478 . S
C751 H745 0.930 . S
C751 C747 1.400 1_556 S
C751 C750 1.385 . S
C752 C750 1.478 . S
C752 C754 1.381 . S
C752 C758 1.383 . S
C753 C749 1.495 . S
C753 H759 0.959 . S
C753 H760 0.961 . S
C753 H761 0.960 . S
C754 C752 1.381 . S
C754 C755 1.394 . S
C754 H762 0.930 . S
C755 C754 1.394 . S
C755 C756 1.383 . S
C755 H763 0.929 . S
C756 C755 1.383 . S
C756 C757 1.377 . S
C757 H741 0.930 . S
C757 C756 1.377 . S
C757 C758 1.379 . S
C758 H742 0.931 . S
C758 C752 1.383 . S
C758 C757 1.379 . S
H759 C753 0.959 . S
H760 C753 0.961 . S
H761 C753 0.960 . S
H762 C754 0.930 . S
H763 C755 0.929 . S
H764 C772 0.929 . S
H765 C774 0.930 . S
H766 C776 0.930 . S
H767 C779 0.929 . S
H768 C782 0.930 . S
H769 C784 0.960 . S
H770 C784 0.960 . S
H771 C784 0.960 . S
C772 H764 0.929 . S
C772 C773 1.377 . S
C772 C774 1.384 . S
C773 C772 1.377 . S
C773 C779 1.390 . S
C774 H765 0.930 . S
C774 C772 1.384 . S
C774 C775 1.372 . S
C775 C774 1.372 . S
C775 C776 1.400 . S
C775 C780 1.490 . S
C776 H766 0.930 . S
C776 C775 1.400 . S
C776 C779 1.386 . S
H777 C793 0.930 . S
H778 C794 0.931 . S
C779 H767 0.929 . S
C779 C773 1.390 . S
C779 C776 1.386 . S
C780 C775 1.490 . S
C780 C782 1.395 . S
C780 C783 1.403 . S
H781 C787 0.930 . S
C782 H768 0.930 . S
C782 C780 1.395 . S
C782 C785 1.403 . S
C783 C780 1.403 . S
C783 C784 1.524 . S
C783 C787 1.400 . S
C784 H769 0.960 . S
C784 H770 0.960 . S
C784 H771 0.960 . S
C784 C783 1.524 . S
C785 C782 1.403 . S
C785 C786 1.392 . S
C785 C789 1.495 . S
C786 C785 1.392 . S
C786 C787 1.385 . S
C786 C788 1.478 . S
C787 H781 0.930 . S
C787 C783 1.400 . S
C787 C786 1.385 . S
C788 C786 1.478 . S
C788 C790 1.381 . S
C788 C794 1.383 . S
C789 C785 1.495 . S
C789 H795 0.959 . S
C789 H796 0.961 . S
C789 H797 0.960 . S
C790 C788 1.381 . S
C790 C791 1.394 . S
C790 H798 0.930 . S
C791 C790 1.394 . S
C791 C792 1.383 . S
C791 H799 0.929 . S
C792 C791 1.383 . S
C792 C793 1.377 . S
C793 H777 0.930 . S
C793 C792 1.377 . S
C793 C794 1.379 . S
C794 H778 0.931 . S
C794 C788 1.383 . S
C794 C793 1.379 . S
H795 C789 0.959 . S
H796 C789 0.961 . S
H797 C789 0.960 . S
H798 C790 0.930 . S
H799 C791 0.929 . S
H800 C808 0.929 . S
H801 C810 0.930 . S
H802 C812 0.930 . S
H803 C815 0.929 . S
H804 C818 0.930 . S
H805 C820 0.960 . S
H806 C820 0.960 . S
H807 C820 0.960 . S
C808 H800 0.929 . S
C808 C809 1.377 . S
C808 C810 1.384 . S
C809 C808 1.377 . S
C809 C815 1.390 . S
C810 H801 0.930 . S
C810 C808 1.384 . S
C810 C811 1.372 . S
C811 C810 1.372 . S
C811 C812 1.400 . S
C811 C816 1.490 . S
C812 H802 0.930 . S
C812 C811 1.400 . S
C812 C815 1.386 . S
H813 C829 0.930 . S
H814 C830 0.931 . S
C815 H803 0.929 . S
C815 C809 1.390 . S
C815 C812 1.386 . S
C816 C811 1.490 . S
C816 C818 1.395 . S
C816 C819 1.403 . S
H817 C823 0.930 . S
C818 H804 0.930 . S
C818 C816 1.395 . S
C818 C821 1.403 . S
C819 C816 1.403 . S
C819 C820 1.524 . S
C819 C823 1.400 . S
C820 H805 0.960 . S
C820 H806 0.960 . S
C820 H807 0.960 . S
C820 C819 1.524 . S
C821 C818 1.403 . S
C821 C822 1.392 . S
C821 C825 1.495 . S
C822 C821 1.392 . S
C822 C823 1.385 . S
C822 C824 1.478 . S
C823 H817 0.930 . S
C823 C819 1.400 . S
C823 C822 1.385 . S
C824 C822 1.478 . S
C824 C826 1.381 . S
C824 C830 1.383 . S
C825 C821 1.495 . S
C825 H831 0.959 . S
C825 H832 0.961 . S
C825 H833 0.960 . S
C826 C824 1.381 . S
C826 C827 1.394 . S
C826 H834 0.930 . S
C827 C826 1.394 . S
C827 C828 1.383 . S
C827 H835 0.929 . S
C828 C827 1.383 . S
C828 C829 1.377 . S
C829 H813 0.930 . S
C829 C828 1.377 . S
C829 C830 1.379 . S
C830 H814 0.931 . S
C830 C824 1.383 . S
C830 C829 1.379 . S
H831 C825 0.959 . S
H832 C825 0.961 . S
H833 C825 0.960 . S
H834 C826 0.930 . S
H835 C827 0.929 . S
H836 C844 0.929 . S
H837 C846 0.930 . S
H838 C848 0.930 . S
H839 C851 0.929 . S
H840 C854 0.930 . S
H841 C856 0.960 . S
H842 C856 0.960 . S
H843 C856 0.960 . S
C844 H836 0.929 . S
C844 C845 1.377 . S
C844 C846 1.384 . S
C845 C844 1.377 . S
C845 C851 1.390 . S
C846 H837 0.930 . S
C846 C844 1.384 . S
C846 C847 1.372 . S
C847 C846 1.372 . S
C847 C848 1.400 . S
C847 C852 1.490 . S
C848 H838 0.930 . S
C848 C847 1.400 . S
C848 C851 1.386 . S
H849 C865 0.930 . S
H850 C866 0.931 . S
C851 H839 0.929 . S
C851 C845 1.390 . S
C851 C848 1.386 . S
C852 C847 1.490 . S
C852 C854 1.395 . S
C852 C855 1.403 . S
H853 C859 0.930 . S
C854 H840 0.930 . S
C854 C852 1.395 . S
C854 C857 1.403 1_655 S
C855 C852 1.403 . S
C855 C856 1.524 . S
C855 C859 1.400 1_655 S
C856 H841 0.960 . S
C856 H842 0.960 . S
C856 H843 0.960 . S
C856 C855 1.524 . S
C857 C854 1.403 1_455 S
C857 C858 1.392 . S
C857 C861 1.495 . S
C858 C857 1.392 . S
C858 C859 1.385 . S
C858 C860 1.478 . S
C859 H853 0.930 . S
C859 C855 1.400 1_455 S
C859 C858 1.385 . S
C860 C858 1.478 . S
C860 C862 1.381 . S
C860 C866 1.383 . S
C861 C857 1.495 . S
C861 H867 0.959 . S
C861 H868 0.961 . S
C861 H869 0.960 . S
C862 C860 1.381 . S
C862 C863 1.394 . S
C862 H870 0.930 . S
C863 C862 1.394 . S
C863 C864 1.383 . S
C863 H871 0.929 . S
C864 C863 1.383 . S
C864 C865 1.377 . S
C865 H849 0.930 . S
C865 C864 1.377 . S
C865 C866 1.379 . S
C866 H850 0.931 . S
C866 C860 1.383 . S
C866 C865 1.379 . S
H867 C861 0.959 . S
H868 C861 0.961 . S
H869 C861 0.960 . S
H870 C862 0.930 . S
H871 C863 0.929 . S
H872 C880 0.929 . S
H873 C882 0.930 . S
H874 C884 0.930 . S
H875 C887 0.929 . S
H876 C890 0.930 . S
H877 C892 0.960 . S
H878 C892 0.960 . S
H879 C892 0.960 . S
C880 H872 0.929 . S
C880 C881 1.377 . S
C880 C882 1.384 . S
C881 C880 1.377 . S
C881 C887 1.390 . S
C882 H873 0.930 . S
C882 C880 1.384 . S
C882 C883 1.372 . S
C883 C882 1.372 . S
C883 C884 1.400 . S
C883 C888 1.490 . S
C884 H874 0.930 . S
C884 C883 1.400 . S
C884 C887 1.386 . S
H885 C901 0.930 . S
H886 C902 0.931 . S
C887 H875 0.929 . S
C887 C881 1.390 . S
C887 C884 1.386 . S
C888 C883 1.490 . S
C888 C890 1.395 . S
C888 C891 1.403 . S
H889 C895 0.930 . S
C890 H876 0.930 . S
C890 C888 1.395 . S
C890 C893 1.403 . S
C891 C888 1.403 . S
C891 C892 1.524 . S
C891 C895 1.400 . S
C892 H877 0.960 . S
C892 H878 0.960 . S
C892 H879 0.960 . S
C892 C891 1.524 . S
C893 C890 1.403 . S
C893 C894 1.392 . S
C893 C897 1.495 . S
C894 C893 1.392 . S
C894 C895 1.385 . S
C894 C896 1.478 . S
C895 H889 0.930 . S
C895 C891 1.400 . S
C895 C894 1.385 . S
C896 C894 1.478 . S
C896 C898 1.381 . S
C896 C902 1.383 . S
C897 C893 1.495 . S
C897 H903 0.959 . S
C897 H904 0.961 . S
C897 H905 0.960 . S
C898 C896 1.381 . S
C898 C899 1.394 . S
C898 H906 0.930 . S
C899 C898 1.394 . S
C899 C900 1.383 . S
C899 H907 0.929 . S
C900 C899 1.383 . S
C900 C901 1.377 . S
C901 H885 0.930 . S
C901 C900 1.377 . S
C901 C902 1.379 . S
C902 H886 0.931 . S
C902 C896 1.383 . S
C902 C901 1.379 . S
H903 C897 0.959 . S
H904 C897 0.961 . S
H905 C897 0.960 . S
H906 C898 0.930 . S
H907 C899 0.929 . S
H908 C916 0.929 . S
H909 C918 0.930 . S
H910 C920 0.930 . S
H911 C923 0.929 . S
H912 C926 0.930 . S
H913 C928 0.960 . S
H914 C928 0.960 . S
H915 C928 0.960 . S
C916 H908 0.929 . S
C916 C917 1.377 . S
C916 C918 1.384 . S
C917 C916 1.377 . S
C917 C923 1.390 . S
C918 H909 0.930 . S
C918 C916 1.384 . S
C918 C919 1.372 . S
C919 C918 1.372 . S
C919 C920 1.400 . S
C919 C924 1.490 . S
C920 H910 0.930 . S
C920 C919 1.400 . S
C920 C923 1.386 . S
H921 C937 0.930 . S
H922 C938 0.931 . S
C923 H911 0.929 . S
C923 C917 1.390 . S
C923 C920 1.386 . S
C924 C919 1.490 . S
C924 C926 1.395 . S
C924 C927 1.403 . S
H925 C931 0.930 . S
C926 H912 0.930 . S
C926 C924 1.395 . S
C926 C929 1.403 1_455 S
C927 C924 1.403 . S
C927 C928 1.524 . S
C927 C931 1.400 1_455 S
C928 H913 0.960 . S
C928 H914 0.960 . S
C928 H915 0.960 . S
C928 C927 1.524 . S
C929 C926 1.403 1_655 S
C929 C930 1.392 . S
C929 C933 1.495 . S
C930 C929 1.392 . S
C930 C931 1.385 . S
C930 C932 1.478 . S
C931 H925 0.930 . S
C931 C927 1.400 1_655 S
C931 C930 1.385 . S
C932 C930 1.478 . S
C932 C934 1.381 . S
C932 C938 1.383 . S
C933 C929 1.495 . S
C933 H939 0.959 . S
C933 H940 0.961 . S
C933 H941 0.960 . S
C934 C932 1.381 . S
C934 C935 1.394 . S
C934 H942 0.930 . S
C935 C934 1.394 . S
C935 C936 1.383 . S
C935 H943 0.929 . S
C936 C935 1.383 . S
C936 C937 1.377 . S
C937 H921 0.930 . S
C937 C936 1.377 . S
C937 C938 1.379 . S
C938 H922 0.931 . S
C938 C932 1.383 . S
C938 C937 1.379 . S
H939 C933 0.959 . S
H940 C933 0.961 . S
H941 C933 0.960 . S
H942 C934 0.930 . S
H943 C935 0.929 . S
H944 C952 0.929 . S
H945 C954 0.930 . S
H946 C956 0.930 . S
H947 C959 0.929 . S
H948 C962 0.930 . S
H949 C964 0.960 . S
H950 C964 0.960 . S
H951 C964 0.960 . S
C952 H944 0.929 . S
C952 C953 1.377 . S
C952 C954 1.384 . S
C953 C952 1.377 . S
C953 C959 1.390 . S
C954 H945 0.930 . S
C954 C952 1.384 . S
C954 C955 1.372 . S
C955 C954 1.372 . S
C955 C956 1.400 . S
C955 C960 1.490 . S
C956 H946 0.930 . S
C956 C955 1.400 . S
C956 C959 1.386 . S
H957 C973 0.930 . S
H958 C974 0.931 . S
C959 H947 0.929 . S
C959 C953 1.390 . S
C959 C956 1.386 . S
C960 C955 1.490 . S
C960 C962 1.395 . S
C960 C963 1.403 . S
H961 C967 0.930 . S
C962 H948 0.930 . S
C962 C960 1.395 . S
C962 C965 1.403 1_455 S
C963 C960 1.403 . S
C963 C964 1.524 . S
C963 C967 1.400 1_455 S
C964 H949 0.960 . S
C964 H950 0.960 . S
C964 H951 0.960 . S
C964 C963 1.524 . S
C965 C962 1.403 1_655 S
C965 C966 1.392 . S
C965 C969 1.495 . S
C966 C965 1.392 . S
C966 C967 1.385 . S
C966 C968 1.478 . S
C967 H961 0.930 . S
C967 C963 1.400 1_655 S
C967 C966 1.385 . S
C968 C966 1.478 . S
C968 C970 1.381 . S
C968 C974 1.383 . S
C969 C965 1.495 . S
C969 H975 0.959 . S
C969 H976 0.961 . S
C969 H977 0.960 . S
C970 C968 1.381 . S
C970 C971 1.394 . S
C970 H978 0.930 . S
C971 C970 1.394 . S
C971 C972 1.383 . S
C971 H979 0.929 . S
C972 C971 1.383 . S
C972 C973 1.377 . S
C973 H957 0.930 . S
C973 C972 1.377 . S
C973 C974 1.379 . S
C974 H958 0.931 . S
C974 C968 1.383 . S
C974 C973 1.379 . S
H975 C969 0.959 . S
H976 C969 0.961 . S
H977 C969 0.960 . S
H978 C970 0.930 . S
H979 C971 0.929 . S
H980 C988 0.929 . S
H981 C990 0.930 . S
H982 C992 0.930 . S
H983 C995 0.929 . S
H984 C998 0.930 . S
H985 C1000 0.960 . S
H986 C1000 0.960 . S
H987 C1000 0.960 . S
C988 H980 0.929 . S
C988 C989 1.377 . S
C988 C990 1.384 . S
C989 C988 1.377 . S
C989 C995 1.390 . S
C990 H981 0.930 . S
C990 C988 1.384 . S
C990 C991 1.372 . S
C991 C990 1.372 . S
C991 C992 1.400 . S
C991 C996 1.490 . S
C992 H982 0.930 . S
C992 C991 1.400 . S
C992 C995 1.386 . S
H993 C1009 0.930 . S
H994 C1010 0.931 . S
C995 H983 0.929 . S
C995 C989 1.390 . S
C995 C992 1.386 . S
C996 C991 1.490 . S
C996 C998 1.395 . S
C996 C999 1.403 . S
H997 C1003 0.930 . S
C998 H984 0.930 . S
C998 C996 1.395 . S
C998 C1001 1.403 . S
C999 C996 1.403 . S
C999 C1000 1.524 . S
C999 C1003 1.400 . S
C1000 H985 0.960 . S
C1000 H986 0.960 . S
C1000 H987 0.960 . S
C1000 C999 1.524 . S
C1001 C998 1.403 . S
C1001 C1002 1.392 . S
C1001 C1005 1.495 . S
C1002 C1001 1.392 . S
C1002 C1003 1.385 . S
C1002 C1004 1.478 . S
C1003 H997 0.930 . S
C1003 C999 1.400 . S
C1003 C1002 1.385 . S
C1004 C1002 1.478 . S
C1004 C1006 1.381 . S
C1004 C1010 1.383 . S
C1005 C1001 1.495 . S
C1005 H1011 0.959 . S
C1005 H1012 0.961 . S
C1005 H1013 0.960 . S
C1006 C1004 1.381 . S
C1006 C1007 1.394 . S
C1006 H1014 0.930 . S
C1007 C1006 1.394 . S
C1007 C1008 1.383 . S
C1007 H1015 0.929 . S
C1008 C1007 1.383 . S
C1008 C1009 1.377 . S
C1009 H993 0.930 . S
C1009 C1008 1.377 . S
C1009 C1010 1.379 . S
C1010 H994 0.931 . S
C1010 C1004 1.383 . S
C1010 C1009 1.379 . S
H1011 C1005 0.959 . S
H1012 C1005 0.961 . S
H1013 C1005 0.960 . S
H1014 C1006 0.930 . S
H1015 C1007 0.929 . S
H1016 C1024 0.929 . S
H1017 C1026 0.930 . S
H1018 C1028 0.930 . S
H1019 C1031 0.929 . S
H1020 C1034 0.930 . S
H1021 C1036 0.960 . S
H1022 C1036 0.960 . S
H1023 C1036 0.960 . S
C1024 H1016 0.929 . S
C1024 C1025 1.377 . S
C1024 C1026 1.384 . S
C1025 C1024 1.377 . S
C1025 C1031 1.390 . S
C1026 H1017 0.930 . S
C1026 C1024 1.384 . S
C1026 C1027 1.372 . S
C1027 C1026 1.372 . S
C1027 C1028 1.400 . S
C1027 C1032 1.490 . S
C1028 H1018 0.930 . S
C1028 C1027 1.400 . S
C1028 C1031 1.386 . S
H1029 C1045 0.930 . S
H1030 C1046 0.931 . S
C1031 H1019 0.929 . S
C1031 C1025 1.390 . S
C1031 C1028 1.386 . S
C1032 C1027 1.490 . S
C1032 C1034 1.395 . S
C1032 C1035 1.403 . S
H1033 C1039 0.930 . S
C1034 H1020 0.930 . S
C1034 C1032 1.395 . S
C1034 C1037 1.403 1_455 S
C1035 C1032 1.403 . S
C1035 C1036 1.524 . S
C1035 C1039 1.400 1_455 S
C1036 H1021 0.960 . S
C1036 H1022 0.960 . S
C1036 H1023 0.960 . S
C1036 C1035 1.524 . S
C1037 C1034 1.403 1_655 S
C1037 C1038 1.392 . S
C1037 C1041 1.495 . S
C1038 C1037 1.392 . S
C1038 C1039 1.385 . S
C1038 C1040 1.478 . S
C1039 H1033 0.930 . S
C1039 C1035 1.400 1_655 S
C1039 C1038 1.385 . S
C1040 C1038 1.478 . S
C1040 C1042 1.381 . S
C1040 C1046 1.383 . S
C1041 C1037 1.495 . S
C1041 H1047 0.959 . S
C1041 H1048 0.961 . S
C1041 H1049 0.960 . S
C1042 C1040 1.381 . S
C1042 C1043 1.394 . S
C1042 H1050 0.930 . S
C1043 C1042 1.394 . S
C1043 C1044 1.383 . S
C1043 H1051 0.929 . S
C1044 C1043 1.383 . S
C1044 C1045 1.377 . S
C1045 H1029 0.930 . S
C1045 C1044 1.377 . S
C1045 C1046 1.379 . S
C1046 H1030 0.931 . S
C1046 C1040 1.383 . S
C1046 C1045 1.379 . S
H1047 C1041 0.959 . S
H1048 C1041 0.961 . S
H1049 C1041 0.960 . S
H1050 C1042 0.930 . S
H1051 C1043 0.929 . S
H1052 C1060 0.929 . S
H1053 C1062 0.930 . S
H1054 C1064 0.930 . S
H1055 C1067 0.929 . S
H1056 C1070 0.930 . S
H1057 C1072 0.960 . S
H1058 C1072 0.960 . S
H1059 C1072 0.960 . S
C1060 H1052 0.929 . S
C1060 C1061 1.377 . S
C1060 C1062 1.384 . S
C1061 C1060 1.377 . S
C1061 C1067 1.390 . S
C1062 H1053 0.930 . S
C1062 C1060 1.384 . S
C1062 C1063 1.372 . S
C1063 C1062 1.372 . S
C1063 C1064 1.400 . S
C1063 C1068 1.490 . S
C1064 H1054 0.930 . S
C1064 C1063 1.400 . S
C1064 C1067 1.386 . S
H1065 C1081 0.930 . S
H1066 C1082 0.931 . S
C1067 H1055 0.929 . S
C1067 C1061 1.390 . S
C1067 C1064 1.386 . S
C1068 C1063 1.490 . S
C1068 C1070 1.395 . S
C1068 C1071 1.403 . S
H1069 C1075 0.930 . S
C1070 H1056 0.930 . S
C1070 C1068 1.395 . S
C1070 C1073 1.403 . S
C1071 C1068 1.403 . S
C1071 C1072 1.524 . S
C1071 C1075 1.400 . S
C1072 H1057 0.960 . S
C1072 H1058 0.960 . S
C1072 H1059 0.960 . S
C1072 C1071 1.524 . S
C1073 C1070 1.403 . S
C1073 C1074 1.392 . S
C1073 C1077 1.495 . S
C1074 C1073 1.392 . S
C1074 C1075 1.385 . S
C1074 C1076 1.478 . S
C1075 H1069 0.930 . S
C1075 C1071 1.400 . S
C1075 C1074 1.385 . S
C1076 C1074 1.478 . S
C1076 C1078 1.381 . S
C1076 C1082 1.383 . S
C1077 C1073 1.495 . S
C1077 H1083 0.959 . S
C1077 H1084 0.961 . S
C1077 H1085 0.960 . S
C1078 C1076 1.381 . S
C1078 C1079 1.394 . S
C1078 H1086 0.930 . S
C1079 C1078 1.394 . S
C1079 C1080 1.383 . S
C1079 H1087 0.929 . S
C1080 C1079 1.383 . S
C1080 C1081 1.377 . S
C1081 H1065 0.930 . S
C1081 C1080 1.377 . S
C1081 C1082 1.379 . S
C1082 H1066 0.931 . S
C1082 C1076 1.383 . S
C1082 C1081 1.379 . S
H1083 C1077 0.959 . S
H1084 C1077 0.961 . S
H1085 C1077 0.960 . S
H1086 C1078 0.930 . S
H1087 C1079 0.929 . S
H1088 C1096 0.929 . S
H1089 C1098 0.930 . S
H1090 C1100 0.930 . S
H1091 C1103 0.929 . S
H1092 C1106 0.930 . S
H1093 C1108 0.960 . S
H1094 C1108 0.960 . S
H1095 C1108 0.960 . S
C1096 H1088 0.929 . S
C1096 C1097 1.377 . S
C1096 C1098 1.384 . S
C1097 C1096 1.377 . S
C1097 C1103 1.390 . S
C1098 H1089 0.930 . S
C1098 C1096 1.384 . S
C1098 C1099 1.372 . S
C1099 C1098 1.372 . S
C1099 C1100 1.400 . S
C1099 C1104 1.490 . S
C1100 H1090 0.930 . S
C1100 C1099 1.400 . S
C1100 C1103 1.386 . S
H1101 C1117 0.930 . S
H1102 C1118 0.931 . S
C1103 H1091 0.929 . S
C1103 C1097 1.390 . S
C1103 C1100 1.386 . S
C1104 C1099 1.490 . S
C1104 C1106 1.395 . S
C1104 C1107 1.403 . S
H1105 C1111 0.930 . S
C1106 H1092 0.930 . S
C1106 C1104 1.395 . S
C1106 C1109 1.403 . S
C1107 C1104 1.403 . S
C1107 C1108 1.524 . S
C1107 C1111 1.400 . S
C1108 H1093 0.960 . S
C1108 H1094 0.960 . S
C1108 H1095 0.960 . S
C1108 C1107 1.524 . S
C1109 C1106 1.403 . S
C1109 C1110 1.392 . S
C1109 C1113 1.495 . S
C1110 C1109 1.392 . S
C1110 C1111 1.385 . S
C1110 C1112 1.478 . S
C1111 H1105 0.930 . S
C1111 C1107 1.400 . S
C1111 C1110 1.385 . S
C1112 C1110 1.478 . S
C1112 C1114 1.381 . S
C1112 C1118 1.383 . S
C1113 C1109 1.495 . S
C1113 H1119 0.959 . S
C1113 H1120 0.961 . S
C1113 H1121 0.960 . S
C1114 C1112 1.381 . S
C1114 C1115 1.394 . S
C1114 H1122 0.930 . S
C1115 C1114 1.394 . S
C1115 C1116 1.383 . S
C1115 H1123 0.929 . S
C1116 C1115 1.383 . S
C1116 C1117 1.377 . S
C1117 H1101 0.930 . S
C1117 C1116 1.377 . S
C1117 C1118 1.379 . S
C1118 H1102 0.931 . S
C1118 C1112 1.383 . S
C1118 C1117 1.379 . S
H1119 C1113 0.959 . S
H1120 C1113 0.961 . S
H1121 C1113 0.960 . S
H1122 C1114 0.930 . S
H1123 C1115 0.929 . S
H1124 C1132 0.929 . S
H1125 C1134 0.930 . S
H1126 C1136 0.930 . S
H1127 C1139 0.929 . S
H1128 C1142 0.930 . S
H1129 C1144 0.960 . S
H1130 C1144 0.960 . S
H1131 C1144 0.960 . S
C1132 H1124 0.929 . S
C1132 C1133 1.377 . S
C1132 C1134 1.384 . S
C1133 C1132 1.377 . S
C1133 C1139 1.390 . S
C1134 H1125 0.930 . S
C1134 C1132 1.384 . S
C1134 C1135 1.372 . S
C1135 C1134 1.372 . S
C1135 C1136 1.400 . S
C1135 C1140 1.490 . S
C1136 H1126 0.930 . S
C1136 C1135 1.400 . S
C1136 C1139 1.386 . S
H1137 C1153 0.930 . S
H1138 C1154 0.931 . S
C1139 H1127 0.929 . S
C1139 C1133 1.390 . S
C1139 C1136 1.386 . S
C1140 C1135 1.490 . S
C1140 C1142 1.395 . S
C1140 C1143 1.403 . S
H1141 C1147 0.930 . S
C1142 H1128 0.930 . S
C1142 C1140 1.395 . S
C1142 C1145 1.403 . S
C1143 C1140 1.403 . S
C1143 C1144 1.524 . S
C1143 C1147 1.400 . S
C1144 H1129 0.960 . S
C1144 H1130 0.960 . S
C1144 H1131 0.960 . S
C1144 C1143 1.524 . S
C1145 C1142 1.403 . S
C1145 C1146 1.392 . S
C1145 C1149 1.495 . S
C1146 C1145 1.392 . S
C1146 C1147 1.385 . S
C1146 C1148 1.478 . S
C1147 H1141 0.930 . S
C1147 C1143 1.400 . S
C1147 C1146 1.385 . S
C1148 C1146 1.478 . S
C1148 C1150 1.381 . S
C1148 C1154 1.383 . S
C1149 C1145 1.495 . S
C1149 H1155 0.959 . S
C1149 H1156 0.961 . S
C1149 H1157 0.960 . S
C1150 C1148 1.381 . S
C1150 C1151 1.394 . S
C1150 H1158 0.930 . S
C1151 C1150 1.394 . S
C1151 C1152 1.383 . S
C1151 H1159 0.929 . S
C1152 C1151 1.383 . S
C1152 C1153 1.377 . S
C1153 H1137 0.930 . S
C1153 C1152 1.377 . S
C1153 C1154 1.379 . S
C1154 H1138 0.931 . S
C1154 C1148 1.383 . S
C1154 C1153 1.379 . S
H1155 C1149 0.959 . S
H1156 C1149 0.961 . S
H1157 C1149 0.960 . S
H1158 C1150 0.930 . S
H1159 C1151 0.929 . S
H1160 C1168 0.929 . S
H1161 C1170 0.930 . S
H1162 C1172 0.930 . S
H1163 C1175 0.929 . S
H1164 C1178 0.930 . S
H1165 C1180 0.960 . S
H1166 C1180 0.960 . S
H1167 C1180 0.960 . S
C1168 H1160 0.929 . S
C1168 C1169 1.377 . S
C1168 C1170 1.384 . S
C1169 C1168 1.377 . S
C1169 C1175 1.390 . S
C1170 H1161 0.930 . S
C1170 C1168 1.384 . S
C1170 C1171 1.372 . S
C1171 C1170 1.372 . S
C1171 C1172 1.400 . S
C1171 C1176 1.490 . S
C1172 H1162 0.930 . S
C1172 C1171 1.400 . S
C1172 C1175 1.386 . S
H1173 C1189 0.930 . S
H1174 C1190 0.931 . S
C1175 H1163 0.929 . S
C1175 C1169 1.390 . S
C1175 C1172 1.386 . S
C1176 C1171 1.490 . S
C1176 C1178 1.395 . S
C1176 C1179 1.403 . S
H1177 C1183 0.930 . S
C1178 H1164 0.930 . S
C1178 C1176 1.395 . S
C1178 C1181 1.403 . S
C1179 C1176 1.403 . S
C1179 C1180 1.524 . S
C1179 C1183 1.400 . S
C1180 H1165 0.960 . S
C1180 H1166 0.960 . S
C1180 H1167 0.960 . S
C1180 C1179 1.524 . S
C1181 C1178 1.403 . S
C1181 C1182 1.392 . S
C1181 C1185 1.495 . S
C1182 C1181 1.392 . S
C1182 C1183 1.385 . S
C1182 C1184 1.478 . S
C1183 H1177 0.930 . S
C1183 C1179 1.400 . S
C1183 C1182 1.385 . S
C1184 C1182 1.478 . S
C1184 C1186 1.381 . S
C1184 C1190 1.383 . S
C1185 C1181 1.495 . S
C1185 H1191 0.959 . S
C1185 H1192 0.961 . S
C1185 H1193 0.960 . S
C1186 C1184 1.381 . S
C1186 C1187 1.394 . S
C1186 H1194 0.930 . S
C1187 C1186 1.394 . S
C1187 C1188 1.383 . S
C1187 H1195 0.929 . S
C1188 C1187 1.383 . S
C1188 C1189 1.377 . S
C1189 H1173 0.930 . S
C1189 C1188 1.377 . S
C1189 C1190 1.379 . S
C1190 H1174 0.931 . S
C1190 C1184 1.383 . S
C1190 C1189 1.379 . S
H1191 C1185 0.959 . S
H1192 C1185 0.961 . S
H1193 C1185 0.960 . S
H1194 C1186 0.930 . S
H1195 C1187 0.929 . S
H1196 C1204 0.929 . S
H1197 C1206 0.930 . S
H1198 C1208 0.930 . S
H1199 C1211 0.929 . S
H1200 C1214 0.930 . S
H1201 C1216 0.960 . S
H1202 C1216 0.960 . S
H1203 C1216 0.960 . S
C1204 H1196 0.929 . S
C1204 C1205 1.377 . S
C1204 C1206 1.384 . S
C1205 C1204 1.377 . S
C1205 C1211 1.390 . S
C1206 H1197 0.930 . S
C1206 C1204 1.384 . S
C1206 C1207 1.372 . S
C1207 C1206 1.372 . S
C1207 C1208 1.400 . S
C1207 C1212 1.490 . S
C1208 H1198 0.930 . S
C1208 C1207 1.400 . S
C1208 C1211 1.386 . S
H1209 C1225 0.930 . S
H1210 C1226 0.931 . S
C1211 H1199 0.929 . S
C1211 C1205 1.390 . S
C1211 C1208 1.386 . S
C1212 C1207 1.490 . S
C1212 C1214 1.395 . S
C1212 C1215 1.403 . S
H1213 C1219 0.930 . S
C1214 H1200 0.930 . S
C1214 C1212 1.395 . S
C1214 C1217 1.403 . S
C1215 C1212 1.403 . S
C1215 C1216 1.524 . S
C1215 C1219 1.400 . S
C1216 H1201 0.960 . S
C1216 H1202 0.960 . S
C1216 H1203 0.960 . S
C1216 C1215 1.524 . S
C1217 C1214 1.403 . S
C1217 C1218 1.392 . S
C1217 C1221 1.495 . S
C1218 C1217 1.392 . S
C1218 C1219 1.385 . S
C1218 C1220 1.478 . S
C1219 H1213 0.930 . S
C1219 C1215 1.400 . S
C1219 C1218 1.385 . S
C1220 C1218 1.478 . S
C1220 C1222 1.381 . S
C1220 C1226 1.383 . S
C1221 C1217 1.495 . S
C1221 H1227 0.959 . S
C1221 H1228 0.961 . S
C1221 H1229 0.960 . S
C1222 C1220 1.381 . S
C1222 C1223 1.394 . S
C1222 H1230 0.930 . S
C1223 C1222 1.394 . S
C1223 C1224 1.383 . S
C1223 H1231 0.929 . S
C1224 C1223 1.383 . S
C1224 C1225 1.377 . S
C1225 H1209 0.930 . S
C1225 C1224 1.377 . S
C1225 C1226 1.379 . S
C1226 H1210 0.931 . S
C1226 C1220 1.383 . S
C1226 C1225 1.379 . S
H1227 C1221 0.959 . S
H1228 C1221 0.961 . S
H1229 C1221 0.960 . S
H1230 C1222 0.930 . S
H1231 C1223 0.929 . S
H1232 C1240 0.929 . S
H1233 C1242 0.930 . S
H1234 C1244 0.930 . S
H1235 C1247 0.929 . S
H1236 C1250 0.930 . S
H1237 C1252 0.960 . S
H1238 C1252 0.960 . S
H1239 C1252 0.960 . S
C1240 H1232 0.929 . S
C1240 C1241 1.377 . S
C1240 C1242 1.384 . S
C1241 C1240 1.377 . S
C1241 C1247 1.390 . S
C1242 H1233 0.930 . S
C1242 C1240 1.384 . S
C1242 C1243 1.372 . S
C1243 C1242 1.372 . S
C1243 C1244 1.400 . S
C1243 C1248 1.490 . S
C1244 H1234 0.930 . S
C1244 C1243 1.400 . S
C1244 C1247 1.386 . S
H1245 C1261 0.930 . S
H1246 C1262 0.931 . S
C1247 H1235 0.929 . S
C1247 C1241 1.390 . S
C1247 C1244 1.386 . S
C1248 C1243 1.490 . S
C1248 C1250 1.395 . S
C1248 C1251 1.403 . S
H1249 C1255 0.930 . S
C1250 H1236 0.930 . S
C1250 C1248 1.395 . S
C1250 C1253 1.403 . S
C1251 C1248 1.403 . S
C1251 C1252 1.524 . S
C1251 C1255 1.400 . S
C1252 H1237 0.960 . S
C1252 H1238 0.960 . S
C1252 H1239 0.960 . S
C1252 C1251 1.524 . S
C1253 C1250 1.403 . S
C1253 C1254 1.392 . S
C1253 C1257 1.495 . S
C1254 C1253 1.392 . S
C1254 C1255 1.385 . S
C1254 C1256 1.478 . S
C1255 H1249 0.930 . S
C1255 C1251 1.400 . S
C1255 C1254 1.385 . S
C1256 C1254 1.478 . S
C1256 C1258 1.381 . S
C1256 C1262 1.383 . S
C1257 C1253 1.495 . S
C1257 H1263 0.959 . S
C1257 H1264 0.961 . S
C1257 H1265 0.960 . S
C1258 C1256 1.381 . S
C1258 C1259 1.394 . S
C1258 H1266 0.930 . S
C1259 C1258 1.394 . S
C1259 C1260 1.383 . S
C1259 H1267 0.929 . S
C1260 C1259 1.383 . S
C1260 C1261 1.377 . S
C1261 H1245 0.930 . S
C1261 C1260 1.377 . S
C1261 C1262 1.379 . S
C1262 H1246 0.931 . S
C1262 C1256 1.383 . S
C1262 C1261 1.379 . S
H1263 C1257 0.959 . S
H1264 C1257 0.961 . S
H1265 C1257 0.960 . S
H1266 C1258 0.930 . S
H1267 C1259 0.929 . S
H1268 C1276 0.929 . S
H1269 C1278 0.930 . S
H1270 C1280 0.930 . S
H1271 C1283 0.929 . S
H1272 C1286 0.930 . S
H1273 C1288 0.960 . S
H1274 C1288 0.960 . S
H1275 C1288 0.960 . S
C1276 H1268 0.929 . S
C1276 C1277 1.377 . S
C1276 C1278 1.384 . S
C1277 C1276 1.377 . S
C1277 C1283 1.390 . S
C1278 H1269 0.930 . S
C1278 C1276 1.384 . S
C1278 C1279 1.372 . S
C1279 C1278 1.372 . S
C1279 C1280 1.400 . S
C1279 C1284 1.490 . S
C1280 H1270 0.930 . S
C1280 C1279 1.400 . S
C1280 C1283 1.386 . S
H1281 C1297 0.930 . S
H1282 C1298 0.931 . S
C1283 H1271 0.929 . S
C1283 C1277 1.390 . S
C1283 C1280 1.386 . S
C1284 C1279 1.490 . S
C1284 C1286 1.395 . S
C1284 C1287 1.403 . S
H1285 C1291 0.930 . S
C1286 H1272 0.930 . S
C1286 C1284 1.395 . S
C1286 C1289 1.403 . S
C1287 C1284 1.403 . S
C1287 C1288 1.524 . S
C1287 C1291 1.400 . S
C1288 H1273 0.960 . S
C1288 H1274 0.960 . S
C1288 H1275 0.960 . S
C1288 C1287 1.524 . S
C1289 C1286 1.403 . S
C1289 C1290 1.392 . S
C1289 C1293 1.495 . S
C1290 C1289 1.392 . S
C1290 C1291 1.385 . S
C1290 C1292 1.478 . S
C1291 H1285 0.930 . S
C1291 C1287 1.400 . S
C1291 C1290 1.385 . S
C1292 C1290 1.478 . S
C1292 C1294 1.381 . S
C1292 C1298 1.383 . S
C1293 C1289 1.495 . S
C1293 H1299 0.959 . S
C1293 H1300 0.961 . S
C1293 H1301 0.960 . S
C1294 C1292 1.381 . S
C1294 C1295 1.394 . S
C1294 H1302 0.930 . S
C1295 C1294 1.394 . S
C1295 C1296 1.383 . S
C1295 H1303 0.929 . S
C1296 C1295 1.383 . S
C1296 C1297 1.377 . S
C1297 H1281 0.930 . S
C1297 C1296 1.377 . S
C1297 C1298 1.379 . S
C1298 H1282 0.931 . S
C1298 C1292 1.383 . S
C1298 C1297 1.379 . S
H1299 C1293 0.959 . S
H1300 C1293 0.961 . S
H1301 C1293 0.960 . S
H1302 C1294 0.930 . S
H1303 C1295 0.929 . S
H1304 C1312 0.929 . S
H1305 C1314 0.930 . S
H1306 C1316 0.930 . S
H1307 C1319 0.929 . S
H1308 C1322 0.930 . S
H1309 C1324 0.960 . S
H1310 C1324 0.960 . S
H1311 C1324 0.960 . S
C1312 H1304 0.929 . S
C1312 C1313 1.377 . S
C1312 C1314 1.384 . S
C1313 C1312 1.377 . S
C1313 C1319 1.390 . S
C1314 H1305 0.930 . S
C1314 C1312 1.384 . S
C1314 C1315 1.372 . S
C1315 C1314 1.372 . S
C1315 C1316 1.400 . S
C1315 C1320 1.490 . S
C1316 H1306 0.930 . S
C1316 C1315 1.400 . S
C1316 C1319 1.386 . S
H1317 C1333 0.930 . S
H1318 C1334 0.931 . S
C1319 H1307 0.929 . S
C1319 C1313 1.390 . S
C1319 C1316 1.386 . S
C1320 C1315 1.490 . S
C1320 C1322 1.395 . S
C1320 C1323 1.403 . S
H1321 C1327 0.930 . S
C1322 H1308 0.930 . S
C1322 C1320 1.395 . S
C1322 C1325 1.403 . S
C1323 C1320 1.403 . S
C1323 C1324 1.524 . S
C1323 C1327 1.400 . S
C1324 H1309 0.960 . S
C1324 H1310 0.960 . S
C1324 H1311 0.960 . S
C1324 C1323 1.524 . S
C1325 C1322 1.403 . S
C1325 C1326 1.392 . S
C1325 C1329 1.495 . S
C1326 C1325 1.392 . S
C1326 C1327 1.385 . S
C1326 C1328 1.478 . S
C1327 H1321 0.930 . S
C1327 C1323 1.400 . S
C1327 C1326 1.385 . S
C1328 C1326 1.478 . S
C1328 C1330 1.381 . S
C1328 C1334 1.383 . S
C1329 C1325 1.495 . S
C1329 H1335 0.959 . S
C1329 H1336 0.961 . S
C1329 H1337 0.960 . S
C1330 C1328 1.381 . S
C1330 C1331 1.394 . S
C1330 H1338 0.930 . S
C1331 C1330 1.394 . S
C1331 C1332 1.383 . S
C1331 H1339 0.929 . S
C1332 C1331 1.383 . S
C1332 C1333 1.377 . S
C1333 H1317 0.930 . S
C1333 C1332 1.377 . S
C1333 C1334 1.379 . S
C1334 H1318 0.931 . S
C1334 C1328 1.383 . S
C1334 C1333 1.379 . S
H1335 C1329 0.959 . S
H1336 C1329 0.961 . S
H1337 C1329 0.960 . S
H1338 C1330 0.930 . S
H1339 C1331 0.929 . S
H1340 C1348 0.929 . S
H1341 C1350 0.930 . S
H1342 C1352 0.930 . S
H1343 C1355 0.929 . S
H1344 C1358 0.930 . S
H1345 C1360 0.960 . S
H1346 C1360 0.960 . S
H1347 C1360 0.960 . S
C1348 H1340 0.929 . S
C1348 C1349 1.377 . S
C1348 C1350 1.384 . S
C1349 C1348 1.377 . S
C1349 C1355 1.390 . S
C1350 H1341 0.930 . S
C1350 C1348 1.384 . S
C1350 C1351 1.372 . S
C1351 C1350 1.372 . S
C1351 C1352 1.400 . S
C1351 C1356 1.490 . S
C1352 H1342 0.930 . S
C1352 C1351 1.400 . S
C1352 C1355 1.386 . S
H1353 C1369 0.930 . S
H1354 C1370 0.931 . S
C1355 H1343 0.929 . S
C1355 C1349 1.390 . S
C1355 C1352 1.386 . S
C1356 C1351 1.490 . S
C1356 C1358 1.395 . S
C1356 C1359 1.403 . S
H1357 C1363 0.930 . S
C1358 H1344 0.930 . S
C1358 C1356 1.395 . S
C1358 C1361 1.403 . S
C1359 C1356 1.403 . S
C1359 C1360 1.524 . S
C1359 C1363 1.400 . S
C1360 H1345 0.960 . S
C1360 H1346 0.960 . S
C1360 H1347 0.960 . S
C1360 C1359 1.524 . S
C1361 C1358 1.403 . S
C1361 C1362 1.392 . S
C1361 C1365 1.495 . S
C1362 C1361 1.392 . S
C1362 C1363 1.385 . S
C1362 C1364 1.478 . S
C1363 H1357 0.930 . S
C1363 C1359 1.400 . S
C1363 C1362 1.385 . S
C1364 C1362 1.478 . S
C1364 C1366 1.381 . S
C1364 C1370 1.383 . S
C1365 C1361 1.495 . S
C1365 H1371 0.959 . S
C1365 H1372 0.961 . S
C1365 H1373 0.960 . S
C1366 C1364 1.381 . S
C1366 C1367 1.394 . S
C1366 H1374 0.930 . S
C1367 C1366 1.394 . S
C1367 C1368 1.383 . S
C1367 H1375 0.929 . S
C1368 C1367 1.383 . S
C1368 C1369 1.377 . S
C1369 H1353 0.930 . S
C1369 C1368 1.377 . S
C1369 C1370 1.379 . S
C1370 H1354 0.931 . S
C1370 C1364 1.383 . S
C1370 C1369 1.379 . S
H1371 C1365 0.959 . S
H1372 C1365 0.961 . S
H1373 C1365 0.960 . S
H1374 C1366 0.930 . S
H1375 C1367 0.929 . S
C233 C11 1.332 . S
C252 C180 1.353 . S
C269 C194 1.352 . S
C288 C25 1.327 . S
C305 C39 1.338 . S
C324 C208 1.345 . S
C341 C222 1.353 . S
C360 C53 1.314 . S
C377 C123 1.337 . S
C396 C68 1.345 . S
C413 C82 1.352 . S
C432 C137 1.340 . S
C449 C151 1.336 . S
C468 C96 1.346 . S
C485 C110 1.351 . S
C504 C165 1.350 . S
C521 C4 1.437 . S
C540 C32 1.417 . S
C557 C18 1.433 . S
C576 C46 1.428 . S
C593 C60 1.354 . S
C612 C88 1.351 . S
C629 C74 1.360 . S
C648 C102 1.365 . S
C665 C144 1.431 . S
C684 C116 1.446 . S
C701 C130 1.434 . S
C720 C158 1.439 . S
C737 C200 1.358 . S
C756 C172 1.339 . S
C773 C186 1.357 . S
C792 C214 1.338 . S
C809 C89 1.313 . S
C828 C5 1.316 . S
C845 C103 1.297 . S
C864 C19 1.306 . S
C881 C33 1.297 . S
C900 C61 1.325 . S
C917 C47 1.304 . S
C936 C75 1.272 . S
C953 C201 1.302 . S
C972 C117 1.276 . S
C989 C131 1.311 . S
C1008 C215 1.254 . S
C1025 C173 1.300 . S
C1044 C145 1.286 . S
C1061 C159 1.297 . S
C1080 C187 1.341 . S
C1097 C12 1.388 . S
C1116 C54 1.391 . S
C1133 C40 1.388 . S
C1152 C26 1.385 . S
C1169 C67 1.259 . S
C1188 C109 1.271 . S
C1205 C81 1.257 . S
C1224 C95 1.262 . S
C1241 C166 1.386 . S
C1260 C124 1.377 . S
C1277 C138 1.387 . S
C1296 C152 1.380 . S
C1313 C221 1.263 . S
C1332 C179 1.269 . S
C1349 C193 1.257 . S
C1368 C207 1.264 . S
