# Generated by pormake.
# Topology dia, (4)-cn, num edge types: 1
# Building blocks:
#     Node 0, Type 0, BuildingBlock: CEKHIL_clean_sbu_0, # of connection points: 4
#     Node 1, Type 0, BuildingBlock: CEKHIL_clean_sbu_0, # of connection points: 4
#     Node 2, Type 0, BuildingBlock: CEKHIL_clean_sbu_0, # of connection points: 4
#     Node 3, Type 0, BuildingBlock: CEKHIL_clean_sbu_0, # of connection points: 4
#     Node 4, Type 0, BuildingBlock: CEKHIL_clean_sbu_0, # of connection points: 4
#     Node 5, Type 0, BuildingBlock: CEKHIL_clean_sbu_0, # of connection points: 4
#     Node 6, Type 0, BuildingBlock: CEKHIL_clean_sbu_0, # of connection points: 4
#     Node 7, Type 0, BuildingBlock: CEKHIL_clean_sbu_0, # of connection points: 4
#     Edge 8, Type (0, 0), BuildingBlock: MIFKUJ_clean_linker_0, # of connection points: 2
#     Edge 9, Type (0, 0), BuildingBlock: MIFKUJ_clean_linker_0, # of connection points: 2
#     Edge 10, Type (0, 0), BuildingBlock: MIFKUJ_clean_linker_0, # of connection points: 2
#     Edge 11, Type (0, 0), BuildingBlock: MIFKUJ_clean_linker_0, # of connection points: 2
#     Edge 12, Type (0, 0), BuildingBlock: MIFKUJ_clean_linker_0, # of connection points: 2
#     Edge 13, Type (0, 0), BuildingBlock: MIFKUJ_clean_linker_0, # of connection points: 2
#     Edge 14, Type (0, 0), BuildingBlock: MIFKUJ_clean_linker_0, # of connection points: 2
#     Edge 15, Type (0, 0), BuildingBlock: MIFKUJ_clean_linker_0, # of connection points: 2
#     Edge 16, Type (0, 0), BuildingBlock: MIFKUJ_clean_linker_0, # of connection points: 2
#     Edge 17, Type (0, 0), BuildingBlock: MIFKUJ_clean_linker_0, # of connection points: 2
#     Edge 18, Type (0, 0), BuildingBlock: MIFKUJ_clean_linker_0, # of connection points: 2
#     Edge 19, Type (0, 0), BuildingBlock: MIFKUJ_clean_linker_0, # of connection points: 2
#     Edge 20, Type (0, 0), BuildingBlock: MIFKUJ_clean_linker_0, # of connection points: 2
#     Edge 21, Type (0, 0), BuildingBlock: MIFKUJ_clean_linker_0, # of connection points: 2
#     Edge 22, Type (0, 0), BuildingBlock: MIFKUJ_clean_linker_0, # of connection points: 2
#     Edge 23, Type (0, 0), BuildingBlock: MIFKUJ_clean_linker_0, # of connection points: 2
# Relax obj value: 0.001
# Max RMSD: 0.019
# Mean RMSD: 0.019
data_MOF--net-dia--node1-CEKHIL_clean_sbu_0--edge1-MIFKUJ_clean_linker_0
_symmetry_space_group_name_H-M    P1
_symmetry_Int_Tables_number       1
_symmetry_cell_setting            triclinic
loop_
_symmetry_equiv_pos_as_xyz
'x, y, z'
_cell_length_a     50.053749
_cell_length_b     50.064848
_cell_length_c     32.451393
_cell_angle_alpha  90.270148
_cell_angle_beta   90.159287
_cell_angle_gamma 91.788457
loop_
_atom_site_label
_atom_site_type_symbol
_atom_site_fract_x
_atom_site_fract_y
_atom_site_fract_z
_atom_type_partial_charge
Co0 Co 0.12925 0.1372 0.62691 0.0
O1 O 0.10163 0.16277 0.61946 0.0
O2 O 0.10741 0.13986 0.67649 0.0
C3 C 0.16217 0.16394 0.60046 0.0
O4 O 0.15673 0.10995 0.64631 0.0
Co5 Co 0.16009 0.11555 0.55123 0.0
O6 O 0.18461 0.10202 0.59365 0.0
C7 C 0.10439 0.09675 0.56685 0.0
C8 C 0.09419 0.15792 0.65695 0.0
C9 C 0.17809 0.09962 0.63142 0.0
O10 O 0.10479 0.10796 0.60283 0.0
O11 O 0.12354 0.0995 0.54104 0.0
O12 O 0.1553 0.16641 0.63886 0.0
O13 O 0.148 0.14691 0.5793 0.0
Co14 Co 0.87089 0.37704 0.86827 0.0
O15 O 0.84297 0.40234 0.8758 0.0
O16 O 0.86592 0.39788 0.81832 0.0
C17 C 0.84759 0.34236 0.89667 0.0
O18 O 0.90013 0.35186 0.84833 0.0
Co19 Co 0.89684 0.34984 0.94375 0.0
O20 O 0.91474 0.32784 0.90202 0.0
C21 C 0.91187 0.40571 0.9238 0.0
C22 C 0.84702 0.40979 0.83809 0.0
C23 C 0.91453 0.33332 0.86373 0.0
O24 O 0.89836 0.40429 0.88995 0.0
O25 O 0.91241 0.3869 0.95027 0.0
O26 O 0.84398 0.34847 0.8582 0.0
O27 O 0.8636 0.35823 0.91701 0.0
Co28 Co 0.62785 0.14002 0.12795 0.0
O29 O 0.60135 0.1668 0.12014 0.0
O30 O 0.60603 0.1436 0.17722 0.0
C31 C 0.66218 0.16499 0.10194 0.0
O32 O 0.65373 0.11148 0.14769 0.0
Co33 Co 0.65819 0.11641 0.05319 0.0
O34 O 0.68285 0.10381 0.09645 0.0
C35 C 0.60132 0.10129 0.06742 0.0
C36 C 0.59356 0.16212 0.15754 0.0
C37 C 0.67541 0.10135 0.13379 0.0
O38 O 0.60238 0.11187 0.10374 0.0
O39 O 0.62063 0.10312 0.04164 0.0
O40 O 0.65506 0.16807 0.14012 0.0
O41 O 0.64737 0.14856 0.08061 0.0
Co42 Co 0.86719 0.87921 0.36449 0.0
O43 O 0.83945 0.90485 0.36887 0.0
O44 O 0.86438 0.89983 0.31364 0.0
C45 C 0.84214 0.8452 0.39106 0.0
O46 O 0.89699 0.85357 0.34865 0.0
Co47 Co 0.8888 0.853 0.44387 0.0
O48 O 0.90857 0.83036 0.40491 0.0
C49 C 0.90214 0.90941 0.42631 0.0
C50 C 0.84492 0.91209 0.33153 0.0
C51 C 0.91039 0.83515 0.36644 0.0
O52 O 0.89392 0.90621 0.38884 0.0
O53 O 0.89899 0.8915 0.45404 0.0
O54 O 0.84044 0.85073 0.35208 0.0
O55 O 0.85729 0.86116 0.41261 0.0
Co56 Co 0.12913 0.63979 0.13366 0.0
O57 O 0.10117 0.66521 0.1273 0.0
O58 O 0.10897 0.64327 0.18469 0.0
C59 C 0.16146 0.66589 0.10434 0.0
O60 O 0.15711 0.61267 0.15203 0.0
Co61 Co 0.15762 0.61677 0.05662 0.0
O62 O 0.18332 0.60385 0.09772 0.0
C63 C 0.10339 0.59652 0.0788 0.0
C64 C 0.09501 0.6609 0.1655 0.0
C65 C 0.17785 0.60187 0.13594 0.0
O66 O 0.10396 0.61018 0.11264 0.0
O67 O 0.12198 0.59778 0.0518 0.0
O68 O 0.15539 0.66908 0.14291 0.0
O69 O 0.14665 0.64869 0.08442 0.0
Co70 Co 0.36986 0.38043 0.37031 0.0
O71 O 0.34372 0.40754 0.37806 0.0
O72 O 0.36618 0.40174 0.3205 0.0
C73 C 0.34418 0.34711 0.39794 0.0
O74 O 0.39764 0.35351 0.35047 0.0
Co75 Co 0.39315 0.35068 0.44572 0.0
O76 O 0.40732 0.32652 0.40336 0.0
C77 C 0.41296 0.40546 0.42611 0.0
C78 C 0.34808 0.41479 0.34035 0.0
C79 C 0.40919 0.33289 0.36549 0.0
O80 O 0.3989 0.40573 0.39275 0.0
O81 O 0.41224 0.38617 0.45185 0.0
O82 O 0.34119 0.3537 0.35956 0.0
O83 O 0.36107 0.3618 0.41862 0.0
Co84 Co 0.36836 0.8785 0.86906 0.0
O85 O 0.34089 0.90428 0.87617 0.0
O86 O 0.36503 0.90046 0.81983 0.0
C87 C 0.34357 0.84372 0.89431 0.0
O88 O 0.39769 0.85311 0.8502 0.0
Co89 Co 0.39109 0.84973 0.94576 0.0
O90 O 0.41043 0.82854 0.90448 0.0
C91 C 0.40506 0.90653 0.93116 0.0
C92 C 0.34596 0.91244 0.83913 0.0
C93 C 0.4115 0.83436 0.8663 0.0
O94 O 0.39566 0.90468 0.89414 0.0
O95 O 0.40253 0.88768 0.95751 0.0
O96 O 0.34111 0.85061 0.85594 0.0
O97 O 0.35927 0.85897 0.91615 0.0
Co98 Co 0.63112 0.63928 0.63466 0.0
O99 O 0.603 0.66438 0.62639 0.0
O100 O 0.61039 0.64335 0.68481 0.0
C101 C 0.66374 0.66494 0.6055 0.0
O102 O 0.65887 0.61268 0.65538 0.0
Co103 Co 0.66131 0.61462 0.56065 0.0
O104 O 0.68725 0.60456 0.60348 0.0
C105 C 0.60664 0.59476 0.58104 0.0
C106 C 0.5965 0.66054 0.6646 0.0
C107 C 0.68067 0.60285 0.64128 0.0
O108 O 0.60645 0.60927 0.61397 0.0
O109 O 0.62591 0.59514 0.55516 0.0
O110 O 0.65696 0.66889 0.6436 0.0
O111 O 0.64946 0.64723 0.58567 0.0
H112 H 0.30946 0.31072 0.3615 0.0
H113 H 0.28099 0.277 0.39587 0.0
H114 H 0.31391 0.30159 0.51362 0.0
H115 H 0.34296 0.33457 0.47939 0.0
H116 H 0.30744 0.24981 0.51284 0.0
H117 H 0.25246 0.32318 0.47833 0.0
H118 H 0.23233 0.35639 0.43279 0.0
H119 H 0.1954 0.29328 0.36052 0.0
H120 H 0.21562 0.25968 0.40533 0.0
H121 H 0.19773 0.1995 0.63743 0.0
H122 H 0.23131 0.22848 0.60314 0.0
H123 H 0.20804 0.19471 0.48544 0.0
H124 H 0.17484 0.16569 0.51923 0.0
H125 H 0.20974 0.25064 0.48687 0.0
H126 H 0.2646 0.17736 0.52561 0.0
H127 H 0.28387 0.14562 0.57447 0.0
H128 H 0.31997 0.21086 0.64313 0.0
H129 H 0.30056 0.24303 0.59501 0.0
C130 C 0.31078 0.30873 0.39466 0.0
C131 C 0.32828 0.32541 0.41777 0.0
C132 C 0.29441 0.28956 0.41431 0.0
C133 C 0.29492 0.28708 0.45748 0.0
C134 C 0.31308 0.30313 0.48036 0.0
C135 C 0.32963 0.32205 0.46071 0.0
C136 C 0.27596 0.26848 0.47903 0.0
C137 C 0.28605 0.25021 0.50745 0.0
C138 C 0.24805 0.26877 0.47184 0.0
C139 C 0.23578 0.28892 0.44492 0.0
C140 C 0.24021 0.31639 0.45254 0.0
C141 C 0.22876 0.33528 0.42689 0.0
C142 C 0.21266 0.32695 0.39371 0.0
C143 C 0.20792 0.2997 0.38619 0.0
C144 C 0.21935 0.28073 0.41172 0.0
C145 C 0.19999 0.19812 0.60431 0.0
C146 C 0.18365 0.18037 0.58103 0.0
C147 C 0.21916 0.21463 0.5848 0.0
C148 C 0.22211 0.21369 0.54176 0.0
C149 C 0.20602 0.19576 0.51864 0.0
C150 C 0.18712 0.17914 0.53808 0.0
C151 C 0.24126 0.232 0.52038 0.0
C152 C 0.23115 0.25026 0.49212 0.0
C153 C 0.26905 0.23193 0.52817 0.0
C154 C 0.28089 0.21261 0.55695 0.0
C155 C 0.27646 0.18495 0.55133 0.0
C156 C 0.28744 0.16688 0.57885 0.0
C157 C 0.30308 0.17622 0.61194 0.0
C158 C 0.30782 0.20366 0.61751 0.0
C159 C 0.29685 0.22182 0.59011 0.0
H160 H 0.31157 0.1622 0.63322 0.0
H161 H 0.20381 0.34161 0.37389 0.0
H162 H 0.73355 0.59411 0.63062 0.0
H163 H 0.7614 0.56312 0.66755 0.0
H164 H 0.69592 0.54363 0.74922 0.0
H165 H 0.66781 0.57528 0.7125 0.0
H166 H 0.74382 0.54574 0.79047 0.0
H167 H 0.70969 0.50297 0.66748 0.0
H168 H 0.70064 0.4992 0.5929 0.0
H169 H 0.78487 0.50387 0.56806 0.0
H170 H 0.79441 0.50803 0.64248 0.0
H171 H 0.79846 0.42602 0.86398 0.0
H172 H 0.77025 0.45949 0.83345 0.0
H173 H 0.82952 0.47463 0.73938 0.0
H174 H 0.8573 0.43993 0.76887 0.0
H175 H 0.78351 0.47469 0.70528 0.0
H176 H 0.81816 0.5181 0.82754 0.0
H177 H 0.82768 0.52267 0.9019 0.0
H178 H 0.74365 0.51771 0.92815 0.0
H179 H 0.73363 0.51277 0.85398 0.0
C180 C 0.72506 0.58349 0.65673 0.0
C181 C 0.69828 0.587 0.66827 0.0
C182 C 0.74104 0.56564 0.67775 0.0
C183 C 0.73062 0.55044 0.71054 0.0
C184 C 0.70437 0.55495 0.72378 0.0
C185 C 0.68833 0.57311 0.70286 0.0
C186 C 0.74692 0.52916 0.72948 0.0
C187 C 0.75221 0.52998 0.77197 0.0
C188 C 0.75843 0.50888 0.70528 0.0
C189 C 0.75275 0.50602 0.66054 0.0
C190 C 0.72627 0.50334 0.6461 0.0
C191 C 0.72106 0.50112 0.60386 0.0
C192 C 0.74217 0.50134 0.57576 0.0
C193 C 0.76854 0.50371 0.58986 0.0
C194 C 0.77386 0.50598 0.63207 0.0
C195 C 0.80556 0.43651 0.83682 0.0
C196 C 0.83025 0.43041 0.81901 0.0
C197 C 0.78943 0.45587 0.8195 0.0
C198 C 0.79788 0.47027 0.78456 0.0
C199 C 0.82248 0.464 0.76644 0.0
C200 C 0.83842 0.44418 0.78334 0.0
C201 C 0.7808 0.49133 0.7664 0.0
C202 C 0.77524 0.49043 0.72395 0.0
C203 C 0.76918 0.51161 0.79066 0.0
C204 C 0.77516 0.51484 0.83523 0.0
C205 C 0.80172 0.51783 0.84919 0.0
C206 C 0.8072 0.52051 0.8913 0.0
C207 C 0.78629 0.52043 0.91974 0.0
C208 C 0.75983 0.51775 0.9061 0.0
C209 C 0.75424 0.51504 0.86403 0.0
H210 H 0.79058 0.52248 0.95233 0.0
H211 H 0.73809 0.49964 0.54306 0.0
H212 H 0.56345 0.07622 0.11614 0.0
H213 H 0.52603 0.04688 0.09323 0.0
H214 H 0.54707 0.06193 0.96651 0.0
H215 H 0.58447 0.09094 0.98896 0.0
H216 H 0.49118 0.06118 0.98073 0.0
H217 H 0.56815 0.00816 0.00649 0.0
H218 H 0.60549 0.9917 0.04802 0.0
H219 H 0.55008 0.9617 0.13872 0.0
H220 H 0.51241 0.97836 0.09799 0.0
H221 H 0.42901 0.94559 0.88289 0.0
H222 H 0.45863 0.98266 0.90622 0.0
H223 H 0.44532 0.95948 0.03257 0.0
H224 H 0.41634 0.92244 0.00971 0.0
H225 H 0.4966 0.96566 0.01889 0.0
H226 H 0.41901 0.01666 0.99153 0.0
H227 H 0.38171 0.03311 0.94993 0.0
H228 H 0.43737 0.06669 0.86251 0.0
H229 H 0.47504 0.05013 0.90334 0.0
C230 C 0.55988 0.07354 0.08342 0.0
C231 C 0.5771 0.08565 0.05439 0.0
C232 C 0.53854 0.05677 0.07038 0.0
C233 C 0.53392 0.05214 0.02816 0.0
C234 C 0.55027 0.06526 0.99919 0.0
C235 C 0.57176 0.08167 0.01215 0.0
C236 C 0.51342 0.0321 0.01404 0.0
C237 C 0.49237 0.04025 0.98881 0.0
C238 C 0.51491 0.00489 0.02496 0.0
C239 C 0.5375 0.9948 0.04946 0.0
C240 C 0.56395 0.99828 0.03549 0.0
C241 C 0.58517 0.98887 0.05884 0.0
C242 C 0.58017 0.97574 0.09606 0.0
C243 C 0.55393 0.97193 0.10994 0.0
C244 C 0.53263 0.98134 0.08673 0.0
C245 C 0.43213 0.94865 0.91563 0.0
C246 C 0.42052 0.93087 0.94436 0.0
C247 C 0.44902 0.96988 0.92896 0.0
C248 C 0.45424 0.97386 0.97122 0.0
C249 C 0.44179 0.95672 0.99984 0.0
C250 C 0.42518 0.93552 0.98663 0.0
C251 C 0.47393 0.99466 0.9859 0.0
C252 C 0.49508 0.98661 0.01104 0.0
C253 C 0.47242 0.02191 0.9749 0.0
C254 C 0.44984 0.03192 0.9503 0.0
C255 C 0.4233 0.02736 0.96326 0.0
C256 C 0.40209 0.03674 0.93986 0.0
C257 C 0.40717 0.05089 0.90356 0.0
C258 C 0.43348 0.05571 0.89062 0.0
C259 C 0.45476 0.04635 0.9139 0.0
H260 H 0.39073 0.05821 0.88556 0.0
H261 H 0.59662 0.96846 0.11408 0.0
H262 H 0.95221 0.8074 0.39604 0.0
H263 H 0.98239 0.7789 0.35864 0.0
H264 H 0.94208 0.79637 0.24482 0.0
H265 H 0.9115 0.8254 0.28238 0.0
H266 H 0.9514 0.74132 0.25524 0.0
H267 H 1.00139 0.82361 0.25999 0.0
H268 H 0.02138 0.86435 0.29182 0.0
H269 H 0.06938 0.81651 0.37065 0.0
H270 H 0.04935 0.77543 0.33974 0.0
H271 H 0.05477 0.6876 0.12888 0.0
H272 H 0.02245 0.71669 0.16134 0.0
H273 H 0.05603 0.70008 0.28061 0.0
H274 H 0.08822 0.67039 0.24826 0.0
H275 H 0.04979 0.75589 0.26393 0.0
H276 H 0.99829 0.67361 0.2601 0.0
H277 H 0.97804 0.63312 0.22788 0.0
H278 H 0.93298 0.68161 0.14585 0.0
H279 H 0.9533 0.72244 0.17719 0.0
C280 C 0.94966 0.80534 0.36301 0.0
C281 C 0.92929 0.81877 0.34228 0.0
C282 C 0.96709 0.78904 0.34161 0.0
C283 C 0.96467 0.78553 0.29885 0.0
C284 C 0.94437 0.7988 0.27784 0.0
C285 C 0.927 0.8155 0.29929 0.0
C286 C 0.98331 0.76766 0.27681 0.0
C287 C 0.97289 0.74478 0.25647 0.0
C288 C 0.01143 0.77177 0.27919 0.0
C289 C 0.02365 0.79641 0.29781 0.0
C290 C 0.01603 0.82175 0.28438 0.0
C291 C 0.0274 0.84492 0.30221 0.0
C292 C 0.04658 0.84302 0.33334 0.0
C293 C 0.05448 0.81794 0.34659 0.0
C294 C 0.04314 0.79471 0.32889 0.0
C295 C 0.05511 0.68988 0.16209 0.0
C296 C 0.07405 0.67661 0.18601 0.0
C297 C 0.03659 0.70653 0.1806 0.0
C298 C 0.03678 0.71062 0.22342 0.0
C299 C 0.05551 0.69724 0.2475 0.0
C300 C 0.07378 0.68015 0.22903 0.0
C301 C 0.01788 0.72946 0.24271 0.0
C302 C 0.02829 0.75252 0.26252 0.0
C303 C 0.98978 0.72557 0.23965 0.0
C304 C 0.97756 0.70108 0.22067 0.0
C305 C 0.98428 0.67565 0.2349 0.0
C306 C 0.97274 0.65264 0.21686 0.0
C307 C 0.95431 0.65479 0.18474 0.0
C308 C 0.94731 0.67997 0.17067 0.0
C309 C 0.95882 0.70306 0.18858 0.0
H310 H 0.94538 0.63695 0.17084 0.0
H311 H 0.05535 0.86098 0.34712 0.0
H312 H 0.35086 0.93477 0.76184 0.0
H313 H 0.32288 0.9689 0.73113 0.0
H314 H 0.27682 0.97236 0.84302 0.0
H315 H 0.3044 0.93833 0.87361 0.0
H316 H 0.24432 0.97052 0.77796 0.0
H317 H 0.32198 0.022 0.81838 0.0
H318 H 0.37012 0.0337 0.82232 0.0
H319 H 0.3728 0.04322 0.69097 0.0
H320 H 0.32474 0.03108 0.68612 0.0
H321 H 0.17138 0.08435 0.71298 0.0
H322 H 0.2002 0.05545 0.75355 0.0
H323 H 0.25315 0.04851 0.6497 0.0
H324 H 0.22523 0.07751 0.60976 0.0
H325 H 0.28184 0.05404 0.71655 0.0
H326 H 0.20476 0.99881 0.67637 0.0
H327 H 0.15664 0.98673 0.67297 0.0
H328 H 0.15304 0.98462 0.80511 0.0
H329 H 0.20109 0.99701 0.80928 0.0
C330 C 0.33486 0.94291 0.77993 0.0
C331 C 0.32995 0.93379 0.82021 0.0
C332 C 0.3189 0.9625 0.7624 0.0
C333 C 0.29775 0.97341 0.78481 0.0
C334 C 0.29291 0.9643 0.82501 0.0
C335 C 0.30884 0.94485 0.84252 0.0
C336 C 0.28033 0.99394 0.76631 0.0
C337 C 0.25253 0.98896 0.76505 0.0
C338 C 0.2909 0.01794 0.74905 0.0
C339 C 0.31979 0.02537 0.75185 0.0
C340 C 0.33287 0.02638 0.79028 0.0
C341 C 0.36014 0.03313 0.7927 0.0
C342 C 0.37452 0.03917 0.75692 0.0
C343 C 0.36164 0.03851 0.71865 0.0
C344 C 0.33438 0.0317 0.71605 0.0
C345 C 0.18926 0.07681 0.69892 0.0
C346 C 0.19572 0.08323 0.65787 0.0
C347 C 0.20568 0.06015 0.7221 0.0
C348 C 0.22879 0.04942 0.7046 0.0
C349 C 0.23553 0.05642 0.66408 0.0
C350 C 0.21932 0.07302 0.64111 0.0
C351 C 0.24586 0.0304 0.7275 0.0
C352 C 0.27361 0.03567 0.72967 0.0
C353 C 0.23525 0.00668 0.74565 0.0
C354 C 0.20642 0.99912 0.74314 0.0
C355 C 0.19365 0.99595 0.70469 0.0
C356 C 0.1664 0.98902 0.70263 0.0
C357 C 0.15177 0.98499 0.7388 0.0
C358 C 0.16438 0.9878 0.77712 0.0
C359 C 0.19162 0.99476 0.77936 0.0
H360 H 0.13068 0.97963 0.73714 0.0
H361 H 0.39563 0.04441 0.75886 0.0
H362 H 0.96556 0.40839 0.92673 0.0
H363 H 0.99385 0.44461 0.95537 0.0
H364 H 0.92425 0.49196 0.974 0.0
H365 H 0.89597 0.45584 0.94348 0.0
H366 H 0.96653 0.52359 0.95384 0.0
H367 H 0.94947 0.45596 0.05336 0.0
H368 H 0.94611 0.41011 0.08068 0.0
H369 H 0.03046 0.40163 0.06355 0.0
H370 H 0.03427 0.4473 0.03553 0.0
H371 H 0.05021 0.60268 0.0966 0.0
H372 H 0.0124 0.57337 0.07385 0.0
H373 H 0.06766 0.51961 0.01826 0.0
H374 H 0.10509 0.54878 0.03989 0.0
H375 H 0.02585 0.4944 0.06679 0.0
H376 H 0.03992 0.56097 0.9586 0.0
H377 H 0.0422 0.6072 0.93263 0.0
H378 H 0.96122 0.61833 0.9709 0.0
H379 H 0.95862 0.57224 0.99763 0.0
C380 C 0.95647 0.42685 0.93588 0.0
C381 C 0.92876 0.42954 0.93284 0.0
C382 C 0.97254 0.44742 0.95264 0.0
C383 C 0.96108 0.47071 0.96798 0.0
C384 C 0.9335 0.4741 0.96267 0.0
C385 C 0.9174 0.45358 0.94513 0.0
C386 C 0.97788 0.49049 0.99162 0.0
C387 C 0.9791 0.51731 0.97907 0.0
C388 C 0.99422 0.48242 0.0248 0.0
C389 C 0.99211 0.45503 0.04212 0.0
C390 C 0.96728 0.44427 0.05521 0.0
C391 C 0.9653 0.41831 0.07084 0.0
C392 C 0.98805 0.40296 0.0738 0.0
C393 C 0.01285 0.41356 0.06124 0.0
C394 C 0.01494 0.43949 0.04553 0.0
C395 C 0.05418 0.58442 0.07999 0.0
C396 C 0.08052 0.578 0.06986 0.0
C397 C 0.03264 0.56783 0.06685 0.0
C398 C 0.03731 0.54443 0.04422 0.0
C399 C 0.06365 0.53757 0.03565 0.0
C400 C 0.08499 0.55429 0.04795 0.0
C401 C 0.01511 0.52711 0.02804 0.0
C402 C 0.01285 0.50074 0.04212 0.0
C403 C 0.99764 0.5357 0.99678 0.0
C404 C 0.9992 0.56332 0.9806 0.0
C405 C 0.0227 0.57337 0.96184 0.0
C406 C 0.02403 0.59952 0.9469 0.0
C407 C 1.0019 0.61573 0.95025 0.0
C408 C 0.97837 0.60578 0.96842 0.0
C409 C 0.97696 0.57965 0.98346 0.0
H410 H 1.00296 0.63597 0.93865 0.0
H411 H 0.98647 0.38286 0.08589 0.0
H412 H 0.44293 0.2947 0.3914 0.0
H413 H 0.47254 0.26763 0.35099 0.0
H414 H 0.44575 0.30509 0.23963 0.0
H415 H 0.4156 0.33288 0.28038 0.0
H416 H 0.44963 0.24793 0.23349 0.0
H417 H 0.50439 0.32309 0.27275 0.0
H418 H 0.52398 0.3573 0.31966 0.0
H419 H 0.55962 0.29612 0.39184 0.0
H420 H 0.53987 0.26147 0.34572 0.0
H421 H 0.55905 0.19505 0.11904 0.0
H422 H 0.52634 0.22414 0.15037 0.0
H423 H 0.54768 0.19557 0.2708 0.0
H424 H 0.58043 0.16615 0.23951 0.0
H425 H 0.54649 0.25108 0.26697 0.0
H426 H 0.48956 0.17594 0.22895 0.0
H427 H 0.46983 0.14199 0.1817 0.0
H428 H 0.43857 0.20383 0.10589 0.0
H429 H 0.45847 0.2382 0.15241 0.0
C430 C 0.44307 0.29735 0.3583 0.0
C431 C 0.42673 0.31619 0.33929 0.0
C432 C 0.46022 0.28179 0.3352 0.0
C433 C 0.46163 0.28443 0.2923 0.0
C434 C 0.44505 0.30276 0.27277 0.0
C435 C 0.42789 0.31869 0.2961 0.0
C436 C 0.48078 0.26798 0.26876 0.0
C437 C 0.47088 0.24898 0.24015 0.0
C438 C 0.50848 0.26891 0.27807 0.0
C439 C 0.52044 0.28965 0.30594 0.0
C440 C 0.5162 0.3169 0.29883 0.0
C441 C 0.52737 0.33638 0.32525 0.0
C442 C 0.54298 0.32888 0.35877 0.0
C443 C 0.5475 0.30189 0.36588 0.0
C444 C 0.53634 0.28232 0.33958 0.0
C445 C 0.55665 0.19474 0.15219 0.0
C446 C 0.57237 0.17821 0.17677 0.0
C447 C 0.53785 0.21137 0.17006 0.0
C448 C 0.53443 0.21204 0.21297 0.0
C449 C 0.54995 0.19541 0.23762 0.0
C450 C 0.56857 0.17849 0.21969 0.0
C451 C 0.51532 0.23073 0.23213 0.0
C452 C 0.52528 0.25016 0.25998 0.0
C453 C 0.48775 0.23026 0.22192 0.0
C454 C 0.47577 0.20965 0.1939 0.0
C455 C 0.4787 0.18232 0.20199 0.0
C456 C 0.46744 0.16299 0.17539 0.0
C457 C 0.45303 0.17075 0.14074 0.0
C458 C 0.44979 0.19785 0.1327 0.0
C459 C 0.46104 0.21726 0.15919 0.0
H460 H 0.44432 0.15576 0.1202 0.0
H461 H 0.55163 0.344 0.37917 0.0
H462 H 0.8159 0.85014 0.46276 0.0
H463 H 0.7877 0.81681 0.49752 0.0
H464 H 0.80339 0.7598 0.40092 0.0
H465 H 0.83005 0.79425 0.36423 0.0
H466 H 0.75482 0.75377 0.42148 0.0
H467 H 0.83501 0.76021 0.50317 0.0
H468 H 0.87087 0.78372 0.54261 0.0
H469 H 0.81293 0.81362 0.62705 0.0
H470 H 0.7767 0.79056 0.58786 0.0
H471 H 0.69313 0.65014 0.53913 0.0
H472 H 0.72715 0.67692 0.50273 0.0
H473 H 0.71623 0.74194 0.58834 0.0
H474 H 0.68339 0.71452 0.62622 0.0
H475 H 0.76605 0.73964 0.57165 0.0
H476 H 0.68591 0.73666 0.48591 0.0
H477 H 0.64994 0.71363 0.446 0.0
H478 H 0.70834 0.677 0.36925 0.0
H479 H 0.74464 0.69961 0.40899 0.0
C480 C 0.8133 0.83046 0.44898 0.0
C481 C 0.82525 0.82456 0.41112 0.0
C482 C 0.79738 0.8113 0.46907 0.0
C483 C 0.79411 0.78536 0.45275 0.0
C484 C 0.80579 0.77956 0.41442 0.0
C485 C 0.82102 0.79915 0.3935 0.0
C486 C 0.77797 0.7647 0.4754 0.0
C487 C 0.75765 0.75036 0.45417 0.0
C488 C 0.78126 0.76039 0.51828 0.0
C489 C 0.80313 0.77373 0.54245 0.0
C490 C 0.82992 0.77184 0.53009 0.0
C491 C 0.85031 0.7851 0.5524 0.0
C492 C 0.84418 0.80017 0.58729 0.0
C493 C 0.81765 0.80192 0.60005 0.0
C494 C 0.79719 0.78872 0.57785 0.0
C495 C 0.69821 0.67006 0.55035 0.0
C496 C 0.68556 0.68036 0.58531 0.0
C497 C 0.71751 0.68545 0.52934 0.0
C498 C 0.72381 0.71178 0.54203 0.0
C499 C 0.7117 0.72174 0.57776 0.0
C500 C 0.69291 0.70609 0.5994 0.0
C501 C 0.74256 0.72924 0.51791 0.0
C502 C 0.76344 0.74289 0.53887 0.0
C503 C 0.73982 0.73287 0.47482 0.0
C504 C 0.71796 0.71963 0.45063 0.0
C505 C 0.69106 0.72361 0.46063 0.0
C506 C 0.67062 0.71064 0.43803 0.0
C507 C 0.67686 0.69382 0.40517 0.0
C508 C 0.70354 0.69001 0.39473 0.0
C509 C 0.72404 0.70292 0.41724 0.0
H510 H 0.66101 0.68377 0.38776 0.0
H511 H 0.85998 0.81047 0.60446 0.0
H512 H 0.17417 0.58841 0.21879 0.0
H513 H 0.20288 0.55808 0.25717 0.0
H514 H 0.25037 0.54661 0.14829 0.0
H515 H 0.22235 0.57651 0.11019 0.0
H516 H 0.23652 0.49924 0.18375 0.0
H517 H 0.2737 0.58515 0.22673 0.0
H518 H 0.27212 0.63017 0.25763 0.0
H519 H 0.2457 0.59612 0.37226 0.0
H520 H 0.24678 0.55089 0.34184 0.0
H521 H 0.34932 0.43272 0.26019 0.0
H522 H 0.32058 0.46581 0.2286 0.0
H523 H 0.28135 0.47739 0.3452 0.0
H524 H 0.31017 0.44481 0.37694 0.0
H525 H 0.28878 0.52415 0.30895 0.0
H526 H 0.25219 0.43875 0.26835 0.0
H527 H 0.25237 0.39332 0.23868 0.0
H528 H 0.27546 0.4256 0.12124 0.0
H529 H 0.27578 0.47123 0.15037 0.0
C530 C 0.19085 0.57959 0.20316 0.0
C531 C 0.19572 0.58497 0.16123 0.0
C532 C 0.20728 0.56226 0.22514 0.0
C533 C 0.22881 0.54995 0.20559 0.0
C534 C 0.23384 0.55564 0.16405 0.0
C535 C 0.21769 0.57293 0.1423 0.0
C536 C 0.246 0.53064 0.22746 0.0
C537 C 0.24814 0.5048 0.21091 0.0
C538 C 0.26065 0.53753 0.26356 0.0
C539 C 0.26002 0.56468 0.28187 0.0
C540 C 0.26732 0.58728 0.25842 0.0
C541 C 0.26657 0.61283 0.27586 0.0
C542 C 0.25873 0.61601 0.31684 0.0
C543 C 0.25171 0.59363 0.3405 0.0
C544 C 0.25241 0.56804 0.32318 0.0
C545 C 0.33472 0.44246 0.27914 0.0
C546 C 0.33202 0.43598 0.32106 0.0
C547 C 0.31816 0.4613 0.26101 0.0
C548 C 0.29844 0.47393 0.28433 0.0
C549 C 0.2963 0.46799 0.32644 0.0
C550 C 0.31281 0.44923 0.34454 0.0
C551 C 0.27965 0.49285 0.26482 0.0
C552 C 0.27712 0.51855 0.28186 0.0
C553 C 0.26443 0.48578 0.22931 0.0
C554 C 0.26428 0.45838 0.21166 0.0
C555 C 0.25752 0.43614 0.23628 0.0
C556 C 0.2575 0.41036 0.21955 0.0
C557 C 0.264 0.40657 0.17813 0.0
C558 C 0.27047 0.42857 0.15334 0.0
C559 C 0.27056 0.4544 0.16993 0.0
H560 H 0.26395 0.3866 0.16523 0.0
H561 H 0.25816 0.63581 0.3303 0.0
H562 H 0.81938 0.3005 0.86107 0.0
H563 H 0.79158 0.26649 0.89607 0.0
H564 H 0.81266 0.30206 0.01365 0.0
H565 H 0.84142 0.33505 0.97902 0.0
H566 H 0.80992 0.25147 0.02305 0.0
H567 H 0.75195 0.31451 0.96 0.0
H568 H 0.73327 0.34053 0.90297 0.0
H569 H 0.70981 0.26787 0.83997 0.0
H570 H 0.72865 0.24142 0.89642 0.0
H571 H 0.69501 0.20376 0.13708 0.0
H572 H 0.73007 0.23074 0.1027 0.0
H573 H 0.71556 0.18666 0.98988 0.0
H574 H 0.68057 0.15993 0.02372 0.0
H575 H 0.71554 0.24001 0.97768 0.0
H576 H 0.77158 0.17743 0.04642 0.0
H577 H 0.78863 0.1533 0.10661 0.0
H578 H 0.81391 0.22771 0.16283 0.0
H579 H 0.79665 0.25233 0.10323 0.0
C580 C 0.81826 0.30082 0.89439 0.0
C581 C 0.83238 0.32052 0.91729 0.0
C582 C 0.80226 0.2815 0.91439 0.0
C583 C 0.79947 0.28204 0.95754 0.0
C584 C 0.81436 0.30119 0.9804 0.0
C585 C 0.83076 0.32012 0.96052 0.0
C586 C 0.78036 0.26346 0.97892 0.0
C587 C 0.78923 0.24917 0.01331 0.0
C588 C 0.75337 0.26013 0.96611 0.0
C589 C 0.74196 0.276 0.93221 0.0
C590 C 0.74296 0.30409 0.93385 0.0
C591 C 0.73233 0.31891 0.90165 0.0
C592 C 0.72043 0.30586 0.86782 0.0
C593 C 0.71907 0.27796 0.86616 0.0
C594 C 0.72971 0.26304 0.89826 0.0
C595 C 0.69955 0.19965 0.1051 0.0
C596 C 0.68497 0.17982 0.08306 0.0
C597 C 0.71961 0.21501 0.08553 0.0
C598 C 0.72545 0.21065 0.04372 0.0
C599 C 0.71134 0.19041 0.02209 0.0
C600 C 0.69137 0.17511 0.04155 0.0
C601 C 0.74513 0.22808 0.02165 0.0
C602 C 0.7363 0.24221 0.98722 0.0
C603 C 0.77197 0.23155 0.03485 0.0
C604 C 0.78261 0.21673 0.0705 0.0
C605 C 0.7806 0.18866 0.07174 0.0
C606 C 0.79033 0.17489 0.10574 0.0
C607 C 0.80229 0.18896 0.13856 0.0
C608 C 0.80462 0.21684 0.1374 0.0
C609 C 0.79489 0.23071 0.1035 0.0
H610 H 0.8098 0.17827 0.16486 0.0
H611 H 0.71221 0.31737 0.84292 0.0
H612 H 0.80179 0.93682 0.36272 0.0
H613 H 0.77388 0.96951 0.33 0.0
H614 H 0.82337 0.96779 0.22146 0.0
H615 H 0.85128 0.93421 0.25402 0.0
H616 H 0.78225 0.01827 0.30488 0.0
H617 H 0.78586 0.98205 0.13737 0.0
H618 H 0.79312 0.94073 0.0977 0.0
H619 H 0.76217 0.89368 0.19812 0.0
H620 H 0.75456 0.93473 0.23823 0.0
H621 H 0.72905 0.10586 0.14568 0.0
H622 H 0.75774 0.07481 0.18229 0.0
H623 H 0.68829 0.02675 0.21566 0.0
H624 H 0.65936 0.05846 0.18048 0.0
H625 H 0.73889 1.00159 0.16914 0.0
H626 H 0.70726 0.04935 0.28883 0.0
H627 H 0.6987 0.08976 0.32981 0.0
H628 H 0.78239 0.11137 0.32817 0.0
H629 H 0.79137 0.07129 0.28648 0.0
C630 C 0.80687 0.94332 0.33186 0.0
C631 C 0.82882 0.93275 0.31098 0.0
C632 C 0.79085 0.96218 0.31318 0.0
C633 C 0.79623 0.97112 0.27305 0.0
C634 C 0.81844 0.96096 0.25221 0.0
C635 C 0.8345 0.94185 0.27091 0.0
C636 C 0.7783 0.99087 0.25356 0.0
C637 C 0.77286 0.01453 0.27515 0.0
C638 C 0.76578 0.9862 0.21483 0.0
C639 C 0.76986 0.96142 0.19086 0.0
C640 C 0.78052 0.96288 0.15088 0.0
C641 C 0.78472 0.93951 0.12836 0.0
C642 C 0.77817 0.91459 0.14542 0.0
C643 C 0.76732 0.91299 0.185 0.0
C644 C 0.76309 0.93629 0.20766 0.0
C645 C 0.71989 0.08897 0.16163 0.0
C646 C 0.69199 0.0847 0.16073 0.0
C647 C 0.73628 0.07121 0.18232 0.0
C648 C 0.72515 0.04844 0.20153 0.0
C649 C 0.69725 0.04425 0.20108 0.0
C650 C 0.68075 0.06246 0.18135 0.0
C651 C 0.74286 0.02862 0.22068 0.0
C652 C 0.74839 0.00518 0.19883 0.0
C653 C 0.75527 0.03334 0.2593 0.0
C654 C 0.74992 0.05756 0.28399 0.0
C655 C 0.72378 0.06292 0.29668 0.0
C656 C 0.71887 0.08571 0.32017 0.0
C657 C 0.73997 0.10319 0.33143 0.0
C658 C 0.76605 0.09787 0.3193 0.0
C659 C 0.77106 0.07511 0.29575 0.0
H660 H 0.73613 0.1208 0.34969 0.0
H661 H 0.78146 0.89653 0.12795 0.0
H662 H 0.93704 0.93923 0.37916 0.0
H663 H 0.96832 0.97468 0.40359 0.0
H664 H 0.9334 0.96998 0.52474 0.0
H665 H 0.90256 0.93428 0.50086 0.0
H666 H 0.94773 0.02433 0.49608 0.0
H667 H 0.98383 0.93676 0.51467 0.0
H668 H 0.99612 0.89186 0.49132 0.0
H669 H 0.04922 0.9268 0.4014 0.0
H670 H 0.03689 0.97196 0.42383 0.0
H671 H 0.05843 0.08357 0.61046 0.0
H672 H 0.02081 0.05444 0.58754 0.0
H673 H 0.05996 0.04247 0.47096 0.0
H674 H 0.09735 0.07084 0.4934 0.0
H675 H 0.04196 0.9964 0.49988 0.0
H676 H 0.00703 0.0838 0.48058 0.0
H677 H 0.99436 0.12906 0.5016 0.0
H678 H 0.93934 0.09558 0.59008 0.0
H679 H 0.95198 0.05008 0.56996 0.0
C680 C 0.93564 0.94623 0.4107 0.0
C681 C 0.91755 0.93391 0.43821 0.0
C682 C 0.95353 0.96638 0.42464 0.0
C683 C 0.95321 0.97477 0.46603 0.0
C684 C 0.93391 0.9638 0.49272 0.0
C685 C 0.91642 0.94335 0.47906 0.0
C686 C 0.9747 0.99282 0.4826 0.0
C687 C 0.96832 0.01823 0.4973 0.0
C688 C 1.00152 0.98483 0.48382 0.0
C689 C 0.0092 0.95772 0.47059 0.0
C690 C 0.99794 0.93487 0.48967 0.0
C691 C 0.00495 0.90937 0.47665 0.0
C692 C 0.02337 0.90647 0.44479 0.0
C693 C 0.0349 0.92908 0.42601 0.0
C694 C 0.02792 0.95463 0.43887 0.0
C695 C 0.05898 0.07474 0.57995 0.0
C696 C 0.08104 0.07958 0.55394 0.0
C697 C 0.03742 0.05819 0.56683 0.0
C698 C 0.03751 0.04634 0.52741 0.0
C699 C 0.05944 0.05126 0.50152 0.0
C700 C 0.08086 0.06763 0.51451 0.0
C701 C 0.01524 0.02832 0.51285 0.0
C702 C 0.02143 1.00269 0.49871 0.0
C703 C 0.98832 0.03625 0.51195 0.0
C704 C 0.98069 0.06355 0.52411 0.0
C705 C 0.99241 0.08609 0.50478 0.0
C706 C 0.9852 0.11178 0.51648 0.0
C707 C 0.96612 0.11519 0.54725 0.0
C708 C 0.95416 0.0929 0.56631 0.0
C709 C 0.96133 0.06716 0.55476 0.0
H710 H 0.96055 0.1351 0.55626 0.0
H711 H 0.02877 0.88672 0.43474 0.0
H712 H 0.9051 0.31308 0.78561 0.0
H713 H 0.93369 0.28272 0.74653 0.0
H714 H 0.99297 0.28835 0.84304 0.0
H715 H 0.96443 0.31781 0.88235 0.0
H716 H 0.01417 0.29277 0.76018 0.0
H717 H 0.95505 0.23694 0.84443 0.0
H718 H 0.91081 0.22045 0.86819 0.0
H719 H 0.8905 0.19552 0.74493 0.0
H720 H 0.93452 0.21224 0.72035 0.0
H721 H 0.07524 0.15553 0.73676 0.0
H722 H 0.04245 0.18473 0.76889 0.0
H723 H 0.03249 0.22539 0.6534 0.0
H724 H 0.06483 0.19647 0.62117 0.0
H725 H 0.98561 0.19741 0.74381 0.0
H726 H 0.03705 0.28539 0.6722 0.0
H727 H 0.08193 0.3008 0.6491 0.0
H728 H 0.11767 0.26014 0.7506 0.0
H729 H 0.07299 0.24431 0.77391 0.0
C730 C 0.92439 0.30808 0.79808 0.0
C731 C 0.93251 0.31778 0.83704 0.0
C732 C 0.94063 0.29066 0.7759 0.0
C733 C 0.96545 0.28319 0.79197 0.0
C734 C 0.97397 0.29381 0.83001 0.0
C735 C 0.95758 0.31062 0.85247 0.0
C736 C 0.98237 0.26355 0.77041 0.0
C737 C 0.00775 0.27201 0.75637 0.0
C738 C 0.97428 0.23633 0.76568 0.0
C739 C 0.94793 0.22611 0.78049 0.0
C740 C 0.94106 0.22816 0.82234 0.0
C741 C 0.91604 0.21873 0.83597 0.0
C742 C 0.89782 0.20702 0.80807 0.0
C743 C 0.90461 0.20464 0.7665 0.0
C744 C 0.9296 0.21408 0.75271 0.0
C745 C 0.06579 0.17046 0.71811 0.0
C746 C 0.07279 0.17368 0.67641 0.0
C747 C 0.04702 0.18709 0.73649 0.0
C748 C 0.0351 0.20732 0.71357 0.0
C749 C 0.04151 0.21003 0.67174 0.0
C750 C 0.06006 0.19341 0.65337 0.0
C751 C 0.01722 0.22676 0.73358 0.0
C752 C 0.99178 0.21827 0.74728 0.0
C753 C 0.02513 0.25397 0.73805 0.0
C754 C 0.05184 0.26381 0.72476 0.0
C755 C 0.05453 0.27991 0.68963 0.0
C756 C 0.07989 0.2886 0.67642 0.0
C757 C 0.10264 0.28147 0.69839 0.0
C758 C 0.10005 0.2656 0.73357 0.0
C759 C 0.07474 0.2567 0.7467 0.0
H760 H 0.12225 0.28825 0.68816 0.0
H761 H 0.87846 0.19973 0.81867 0.0
H762 H 0.59287 0.67603 0.74522 0.0
H763 H 0.56031 0.70555 0.77587 0.0
H764 H 0.51896 0.70932 0.65919 0.0
H765 H 0.55274 0.68136 0.62792 0.0
H766 H 0.51916 0.75542 0.68848 0.0
H767 H 0.4956 0.67105 0.75029 0.0
H768 H 0.50341 0.62947 0.78839 0.0
H769 H 0.52956 0.67521 0.8941 0.0
H770 H 0.5222 0.71705 0.85648 0.0
H771 H 0.40699 0.81967 0.78419 0.0
H772 H 0.436 0.7895 0.74596 0.0
H773 H 0.48728 0.78427 0.85256 0.0
H774 H 0.45806 0.81324 0.89085 0.0
H775 H 0.4782 0.73694 0.82463 0.0
H776 H 0.50318 0.82154 0.75946 0.0
H777 H 0.49404 0.86242 0.72034 0.0
H778 H 0.46277 0.81483 0.61979 0.0
H779 H 0.47148 0.77368 0.6585 0.0
C780 C 0.57666 0.68295 0.72628 0.0
C781 C 0.57525 0.67621 0.68426 0.0
C782 C 0.55787 0.69977 0.74387 0.0
C783 C 0.53657 0.70942 0.72027 0.0
C784 C 0.53504 0.70231 0.6783 0.0
C785 C 0.55429 0.68615 0.66044 0.0
C786 C 0.51644 0.72753 0.73889 0.0
C787 C 0.50994 0.75107 0.718 0.0
C788 C 0.50436 0.72233 0.77764 0.0
C789 C 0.50852 0.69717 0.80045 0.0
C790 C 0.50313 0.67223 0.78159 0.0
C791 C 0.50747 0.64862 0.80312 0.0
C792 C 0.51702 0.6497 0.84362 0.0
C793 C 0.52217 0.6744 0.86273 0.0
C794 C 0.51788 0.69806 0.84135 0.0
C795 C 0.42464 0.8123 0.79915 0.0
C796 C 0.43011 0.81875 0.84062 0.0
C797 C 0.44128 0.79506 0.77729 0.0
C798 C 0.46403 0.78449 0.79622 0.0
C799 C 0.46983 0.79179 0.83718 0.0
C800 C 0.45308 0.8085 0.85908 0.0
C801 C 0.48148 0.76505 0.77472 0.0
C802 C 0.48736 0.74116 0.79501 0.0
C803 C 0.49274 0.76983 0.73533 0.0
C804 C 0.48774 0.79457 0.71203 0.0
C805 C 0.49422 0.81982 0.72911 0.0
C806 C 0.48914 0.84303 0.70699 0.0
C807 C 0.47777 0.84123 0.66765 0.0
C808 C 0.47154 0.8162 0.65028 0.0
C809 C 0.47657 0.79294 0.67227 0.0
H810 H 0.47383 0.85921 0.6506 0.0
H811 H 0.5204 0.6314 0.8602 0.0
H812 H 0.18181 0.65766 0.02772 0.0
H813 H 0.21532 0.68517 0.99152 0.0
H814 H 0.22335 0.73694 0.09775 0.0
H815 H 0.18981 0.70937 0.13433 0.0
H816 H 0.21628 0.76478 0.02614 0.0
H817 H 0.27204 0.69632 0.07541 0.0
H818 H 0.28605 0.65022 0.08728 0.0
H819 H 0.29173 0.63732 0.95673 0.0
H820 H 0.2773 0.68325 0.94404 0.0
H821 H 0.33764 0.83396 0.97595 0.0
H822 H 0.30816 0.80066 0.00864 0.0
H823 H 0.28407 0.7702 0.88932 0.0
H824 H 0.31319 0.80419 0.85596 0.0
H825 H 0.29951 0.73086 0.96482 0.0
H826 H 0.24103 0.79997 0.91718 0.0
H827 H 0.22849 0.84681 0.90797 0.0
H828 H 0.22965 0.85864 0.03912 0.0
H829 H 0.24264 0.81194 0.04904 0.0
C830 C 0.19089 0.67475 0.04356 0.0
C831 C 0.18318 0.6814 0.08386 0.0
C832 C 0.2101 0.6904 0.02286 0.0
C833 C 0.22188 0.71304 0.04199 0.0
C834 C 0.21448 0.71953 0.08245 0.0
C835 C 0.19542 0.70372 0.10335 0.0
C836 C 0.24099 0.73057 0.01902 0.0
C837 C 0.23458 0.75737 0.01309 0.0
C838 C 0.26463 0.72079 0.0013 0.0
C839 C 0.27328 0.69314 0.00876 0.0
C840 C 0.27601 0.68358 0.0492 0.0
C841 C 0.28408 0.65749 0.05609 0.0
C842 C 0.28969 0.64082 0.02278 0.0
C843 C 0.28731 0.65024 0.98251 0.0
C844 C 0.2792 0.67631 0.97545 0.0
C845 C 0.32631 0.82004 0.95653 0.0
C846 C 0.32761 0.82176 0.91334 0.0
C847 C 0.3095 0.80103 0.97532 0.0
C848 C 0.294 0.7831 0.95134 0.0
C849 C 0.296 0.78392 0.90823 0.0
C850 C 0.31253 0.80333 0.88928 0.0
C851 C 0.27457 0.7648 0.97187 0.0
C852 C 0.28103 0.73803 0.97757 0.0
C853 C 0.25102 0.77455 0.9896 0.0
C854 C 0.24313 0.80258 0.9838 0.0
C855 C 0.23891 0.81265 0.94402 0.0
C856 C 0.23165 0.83915 0.93868 0.0
C857 C 0.22836 0.85572 0.97293 0.0
C858 C 0.23226 0.8458 0.01261 0.0
C859 C 0.23955 0.81931 0.01811 0.0
H860 H 0.22272 0.87623 0.96874 0.0
H861 H 0.29596 0.62064 0.02817 0.0
H862 H 0.46395 0.40261 0.452 0.0
H863 H 0.4928 0.43867 0.47917 0.0
H864 H 0.43187 0.49538 0.453 0.0
H865 H 0.40326 0.45909 0.42365 0.0
H866 H 0.47938 0.51814 0.44071 0.0
H867 H 0.44009 0.47014 0.55158 0.0
H868 H 0.42586 0.43073 0.59219 0.0
H869 H 0.5078 0.41015 0.60897 0.0
H870 H 0.52253 0.44922 0.56795 0.0
H871 H 0.55339 0.60471 0.58893 0.0
H872 H 0.51555 0.5762 0.56413 0.0
H873 H 0.57042 0.51588 0.52735 0.0
H874 H 0.6081 0.54448 0.55052 0.0
H875 H 0.51884 0.50037 0.57807 0.0
H876 H 0.55504 0.54648 0.45534 0.0
H877 H 0.56722 0.58748 0.41698 0.0
H878 H 0.48681 0.61407 0.42817 0.0
H879 H 0.47429 0.57337 0.46719 0.0
C880 C 0.4569 0.42285 0.4514 0.0
C881 C 0.43137 0.42813 0.43609 0.0
C882 C 0.47329 0.44343 0.46727 0.0
C883 C 0.46416 0.46963 0.46954 0.0
C884 C 0.43921 0.47527 0.45204 0.0
C885 C 0.42294 0.45461 0.43519 0.0
C886 C 0.48055 0.49056 0.4915 0.0
C887 C 0.48754 0.51443 0.47108 0.0
C888 C 0.49111 0.48599 0.5314 0.0
C889 C 0.4824 0.46256 0.55648 0.0
C890 C 0.45508 0.45714 0.56374 0.0
C891 C 0.44692 0.43486 0.58685 0.0
C892 C 0.46591 0.41793 0.60311 0.0
C893 C 0.49311 0.42328 0.59637 0.0
C894 C 0.50138 0.44552 0.57323 0.0
C895 C 0.55723 0.5852 0.57605 0.0
C896 C 0.58357 0.57671 0.57157 0.0
C897 C 0.53571 0.56907 0.56174 0.0
C898 C 0.54034 0.54408 0.54379 0.0
C899 C 0.56653 0.53515 0.54105 0.0
C900 C 0.58798 0.55147 0.55428 0.0
C901 C 0.51822 0.52719 0.52662 0.0
C902 C 0.51016 0.50416 0.54807 0.0
C903 C 0.50632 0.53279 0.4882 0.0
C904 C 0.51385 0.55712 0.46466 0.0
C905 C 0.54005 0.56122 0.45003 0.0
C906 C 0.54699 0.58436 0.42807 0.0
C907 C 0.52783 0.60342 0.42028 0.0
C908 C 0.50165 0.59933 0.43432 0.0
C909 C 0.49462 0.57623 0.45634 0.0
H910 H 0.53323 0.62132 0.40325 0.0
H911 H 0.45956 0.40069 0.62098 0.0
loop_
_geom_bond_atom_site_label_1
_geom_bond_atom_site_label_2
_geom_bond_distance
_geom_bond_site_symmetry_2
_ccdc_geom_bond_type
Co0 O1 2.216 . S
Co0 O2 2.091 . S
Co0 O4 2.004 . S
Co0 O10 2.021 . S
Co0 O12 2.137 . S
Co0 O13 2.244 . S
O1 Co0 2.216 . S
O1 C8 1.247 . S
O2 Co0 2.091 . S
O2 C8 1.261 . S
C3 O12 1.247 . S
C3 O13 1.272 . S
O4 Co0 2.004 . S
O4 C9 1.259 . S
Co5 O6 2.061 . S
Co5 O11 2.052 . S
Co5 O13 2.135 . S
O6 Co5 2.061 . S
O6 C9 1.235 . S
C7 O10 1.238 . S
C7 O11 1.241 . S
C8 O1 1.247 . S
C8 O2 1.261 . S
C9 O4 1.259 . S
C9 O6 1.235 . S
O10 Co0 2.021 . S
O10 C7 1.238 . S
O11 Co5 2.052 . S
O11 C7 1.241 . S
O12 Co0 2.137 . S
O12 C3 1.247 . S
O13 Co0 2.244 . S
O13 C3 1.272 . S
O13 Co5 2.135 . S
Co14 O15 2.216 . S
Co14 O16 2.091 . S
Co14 O18 2.004 . S
Co14 O24 2.021 . S
Co14 O26 2.137 . S
Co14 O27 2.244 . S
O15 Co14 2.216 . S
O15 C22 1.247 . S
O16 Co14 2.091 . S
O16 C22 1.261 . S
C17 O26 1.247 . S
C17 O27 1.272 . S
O18 Co14 2.004 . S
O18 C23 1.259 . S
Co19 O20 2.061 . S
Co19 O25 2.052 . S
Co19 O27 2.135 . S
O20 Co19 2.061 . S
O20 C23 1.235 . S
C21 O24 1.238 . S
C21 O25 1.241 . S
C22 O15 1.247 . S
C22 O16 1.261 . S
C23 O18 1.259 . S
C23 O20 1.235 . S
O24 Co14 2.021 . S
O24 C21 1.238 . S
O25 Co19 2.052 . S
O25 C21 1.241 . S
O26 Co14 2.137 . S
O26 C17 1.247 . S
O27 Co14 2.244 . S
O27 C17 1.272 . S
O27 Co19 2.135 . S
Co28 O29 2.216 . S
Co28 O30 2.091 . S
Co28 O32 2.004 . S
Co28 O38 2.021 . S
Co28 O40 2.137 . S
Co28 O41 2.244 . S
O29 Co28 2.216 . S
O29 C36 1.247 . S
O30 Co28 2.091 . S
O30 C36 1.261 . S
C31 O40 1.247 . S
C31 O41 1.272 . S
O32 Co28 2.004 . S
O32 C37 1.259 . S
Co33 O34 2.061 . S
Co33 O39 2.052 . S
Co33 O41 2.135 . S
O34 Co33 2.061 . S
O34 C37 1.235 . S
C35 O38 1.238 . S
C35 O39 1.241 . S
C36 O29 1.247 . S
C36 O30 1.261 . S
C37 O32 1.259 . S
C37 O34 1.235 . S
O38 Co28 2.021 . S
O38 C35 1.238 . S
O39 Co33 2.052 . S
O39 C35 1.241 . S
O40 Co28 2.137 . S
O40 C31 1.247 . S
O41 Co28 2.244 . S
O41 C31 1.272 . S
O41 Co33 2.135 . S
Co42 O43 2.216 . S
Co42 O44 2.091 . S
Co42 O46 2.004 . S
Co42 O52 2.021 . S
Co42 O54 2.137 . S
Co42 O55 2.244 . S
O43 Co42 2.216 . S
O43 C50 1.247 . S
O44 Co42 2.091 . S
O44 C50 1.261 . S
C45 O54 1.247 . S
C45 O55 1.272 . S
O46 Co42 2.004 . S
O46 C51 1.259 . S
Co47 O48 2.061 . S
Co47 O53 2.052 . S
Co47 O55 2.135 . S
O48 Co47 2.061 . S
O48 C51 1.235 . S
C49 O52 1.238 . S
C49 O53 1.241 . S
C50 O43 1.247 . S
C50 O44 1.261 . S
C51 O46 1.259 . S
C51 O48 1.235 . S
O52 Co42 2.021 . S
O52 C49 1.238 . S
O53 Co47 2.052 . S
O53 C49 1.241 . S
O54 Co42 2.137 . S
O54 C45 1.247 . S
O55 Co42 2.244 . S
O55 C45 1.272 . S
O55 Co47 2.135 . S
Co56 O57 2.216 . S
Co56 O58 2.091 . S
Co56 O60 2.004 . S
Co56 O66 2.021 . S
Co56 O68 2.137 . S
Co56 O69 2.244 . S
O57 Co56 2.216 . S
O57 C64 1.247 . S
O58 Co56 2.091 . S
O58 C64 1.261 . S
C59 O68 1.247 . S
C59 O69 1.272 . S
O60 Co56 2.004 . S
O60 C65 1.259 . S
Co61 O62 2.061 . S
Co61 O67 2.052 . S
Co61 O69 2.135 . S
O62 Co61 2.061 . S
O62 C65 1.235 . S
C63 O66 1.238 . S
C63 O67 1.241 . S
C64 O57 1.247 . S
C64 O58 1.261 . S
C65 O60 1.259 . S
C65 O62 1.235 . S
O66 Co56 2.021 . S
O66 C63 1.238 . S
O67 Co61 2.052 . S
O67 C63 1.241 . S
O68 Co56 2.137 . S
O68 C59 1.247 . S
O69 Co56 2.244 . S
O69 C59 1.272 . S
O69 Co61 2.135 . S
Co70 O71 2.216 . S
Co70 O72 2.091 . S
Co70 O74 2.004 . S
Co70 O80 2.021 . S
Co70 O82 2.137 . S
Co70 O83 2.244 . S
O71 Co70 2.216 . S
O71 C78 1.247 . S
O72 Co70 2.091 . S
O72 C78 1.261 . S
C73 O82 1.247 . S
C73 O83 1.272 . S
O74 Co70 2.004 . S
O74 C79 1.259 . S
Co75 O76 2.061 . S
Co75 O81 2.052 . S
Co75 O83 2.135 . S
O76 Co75 2.061 . S
O76 C79 1.235 . S
C77 O80 1.238 . S
C77 O81 1.241 . S
C78 O71 1.247 . S
C78 O72 1.261 . S
C79 O74 1.259 . S
C79 O76 1.235 . S
O80 Co70 2.021 . S
O80 C77 1.238 . S
O81 Co75 2.052 . S
O81 C77 1.241 . S
O82 Co70 2.137 . S
O82 C73 1.247 . S
O83 Co70 2.244 . S
O83 C73 1.272 . S
O83 Co75 2.135 . S
Co84 O85 2.216 . S
Co84 O86 2.091 . S
Co84 O88 2.004 . S
Co84 O94 2.021 . S
Co84 O96 2.137 . S
Co84 O97 2.244 . S
O85 Co84 2.216 . S
O85 C92 1.247 . S
O86 Co84 2.091 . S
O86 C92 1.261 . S
C87 O96 1.247 . S
C87 O97 1.272 . S
O88 Co84 2.004 . S
O88 C93 1.259 . S
Co89 O90 2.061 . S
Co89 O95 2.052 . S
Co89 O97 2.135 . S
O90 Co89 2.061 . S
O90 C93 1.235 . S
C91 O94 1.238 . S
C91 O95 1.241 . S
C92 O85 1.247 . S
C92 O86 1.261 . S
C93 O88 1.259 . S
C93 O90 1.235 . S
O94 Co84 2.021 . S
O94 C91 1.238 . S
O95 Co89 2.052 . S
O95 C91 1.241 . S
O96 Co84 2.137 . S
O96 C87 1.247 . S
O97 Co84 2.244 . S
O97 C87 1.272 . S
O97 Co89 2.135 . S
Co98 O99 2.216 . S
Co98 O100 2.091 . S
Co98 O102 2.004 . S
Co98 O108 2.021 . S
Co98 O110 2.137 . S
Co98 O111 2.244 . S
O99 Co98 2.216 . S
O99 C106 1.247 . S
O100 Co98 2.091 . S
O100 C106 1.261 . S
C101 O110 1.247 . S
C101 O111 1.272 . S
O102 Co98 2.004 . S
O102 C107 1.259 . S
Co103 O104 2.061 . S
Co103 O109 2.052 . S
Co103 O111 2.135 . S
O104 Co103 2.061 . S
O104 C107 1.235 . S
C105 O108 1.238 . S
C105 O109 1.241 . S
C106 O99 1.247 . S
C106 O100 1.261 . S
C107 O102 1.259 . S
C107 O104 1.235 . S
O108 Co98 2.021 . S
O108 C105 1.238 . S
O109 Co103 2.052 . S
O109 C105 1.241 . S
O110 Co98 2.137 . S
O110 C101 1.247 . S
O111 Co98 2.244 . S
O111 C101 1.272 . S
O111 Co103 2.135 . S
H112 C130 0.951 . S
H113 C132 0.951 . S
H114 C134 0.950 . S
H115 C135 0.950 . S
H116 C137 0.950 . S
H117 C140 0.950 . S
H118 C141 0.950 . S
H119 C143 0.950 . S
H120 C144 0.950 . S
H121 C145 0.951 . S
H122 C147 0.951 . S
H123 C149 0.950 . S
H124 C150 0.950 . S
H125 C152 0.950 . S
H126 C155 0.950 . S
H127 C156 0.950 . S
H128 C158 0.950 . S
H129 C159 0.950 . S
C130 H112 0.951 . S
C130 C131 1.366 . S
C130 C132 1.388 . S
C131 C130 1.366 . S
C131 C135 1.385 . S
C132 H113 0.951 . S
C132 C130 1.388 . S
C132 C133 1.366 . S
C133 C132 1.366 . S
C133 C134 1.414 . S
C133 C136 1.499 . S
C134 H114 0.950 . S
C134 C133 1.414 . S
C134 C135 1.374 . S
C135 H115 0.950 . S
C135 C131 1.385 . S
C135 C134 1.374 . S
C136 C133 1.499 . S
C136 C137 1.373 . S
C136 C138 1.389 . S
C137 H116 0.950 . S
C137 C136 1.373 . S
C137 C153 1.377 . S
C138 C136 1.389 . S
C138 C139 1.524 . S
C138 C152 1.377 . S
C139 C138 1.524 . S
C139 C140 1.397 . S
C139 C144 1.363 . S
C140 H117 0.950 . S
C140 C139 1.397 . S
C140 C141 1.334 . S
C141 H118 0.950 . S
C141 C140 1.334 . S
C141 C142 1.287 . S
C142 C141 1.287 . S
C142 C143 1.524 . S
C142 H161 0.913 . S
C143 H119 0.950 . S
C143 C142 1.524 . S
C143 C144 1.415 . S
C144 H120 0.950 . S
C144 C139 1.363 . S
C144 C143 1.415 . S
C145 H121 0.951 . S
C145 C146 1.366 . S
C145 C147 1.388 . S
C146 C145 1.366 . S
C146 C150 1.385 . S
C147 H122 0.951 . S
C147 C145 1.388 . S
C147 C148 1.366 . S
C148 C147 1.366 . S
C148 C149 1.414 . S
C148 C151 1.499 . S
C149 H123 0.950 . S
C149 C148 1.414 . S
C149 C150 1.374 . S
C150 H124 0.950 . S
C150 C146 1.385 . S
C150 C149 1.374 . S
C151 C148 1.499 . S
C151 C152 1.373 . S
C151 C153 1.389 . S
C152 H125 0.950 . S
C152 C138 1.377 . S
C152 C151 1.373 . S
C153 C137 1.377 . S
C153 C151 1.389 . S
C153 C154 1.524 . S
C154 C153 1.524 . S
C154 C155 1.397 . S
C154 C159 1.363 . S
C155 H126 0.950 . S
C155 C154 1.397 . S
C155 C156 1.334 . S
C156 H127 0.950 . S
C156 C155 1.334 . S
C156 C157 1.287 . S
C157 C156 1.287 . S
C157 C158 1.524 . S
C157 H160 0.999 . S
C158 H128 0.950 . S
C158 C157 1.524 . S
C158 C159 1.415 . S
C159 H129 0.950 . S
C159 C154 1.363 . S
C159 C158 1.415 . S
H160 C157 0.999 . S
H161 C142 0.913 . S
H162 C180 0.951 . S
H163 C182 0.951 . S
H164 C184 0.950 . S
H165 C185 0.950 . S
H166 C187 0.950 . S
H167 C190 0.950 . S
H168 C191 0.950 . S
H169 C193 0.950 . S
H170 C194 0.950 . S
H171 C195 0.951 . S
H172 C197 0.951 . S
H173 C199 0.950 . S
H174 C200 0.950 . S
H175 C202 0.950 . S
H176 C205 0.950 . S
H177 C206 0.950 . S
H178 C208 0.950 . S
H179 C209 0.950 . S
C180 H162 0.951 . S
C180 C181 1.366 . S
C180 C182 1.388 . S
C181 C180 1.366 . S
C181 C185 1.385 . S
C182 H163 0.951 . S
C182 C180 1.388 . S
C182 C183 1.366 . S
C183 C182 1.366 . S
C183 C184 1.414 . S
C183 C186 1.499 . S
C184 H164 0.950 . S
C184 C183 1.414 . S
C184 C185 1.374 . S
C185 H165 0.950 . S
C185 C181 1.385 . S
C185 C184 1.374 . S
C186 C183 1.499 . S
C186 C187 1.373 . S
C186 C188 1.389 . S
C187 H166 0.950 . S
C187 C186 1.373 . S
C187 C203 1.377 . S
C188 C186 1.389 . S
C188 C189 1.524 . S
C188 C202 1.377 . S
C189 C188 1.524 . S
C189 C190 1.397 . S
C189 C194 1.363 . S
C190 H167 0.950 . S
C190 C189 1.397 . S
C190 C191 1.334 . S
C191 H168 0.950 . S
C191 C190 1.334 . S
C191 C192 1.287 . S
C192 C191 1.287 . S
C192 C193 1.524 . S
C192 H211 0.913 . S
C193 H169 0.950 . S
C193 C192 1.524 . S
C193 C194 1.415 . S
C194 H170 0.950 . S
C194 C189 1.363 . S
C194 C193 1.415 . S
C195 H171 0.951 . S
C195 C196 1.366 . S
C195 C197 1.388 . S
C196 C195 1.366 . S
C196 C200 1.385 . S
C197 H172 0.951 . S
C197 C195 1.388 . S
C197 C198 1.366 . S
C198 C197 1.366 . S
C198 C199 1.414 . S
C198 C201 1.499 . S
C199 H173 0.950 . S
C199 C198 1.414 . S
C199 C200 1.374 . S
C200 H174 0.950 . S
C200 C196 1.385 . S
C200 C199 1.374 . S
C201 C198 1.499 . S
C201 C202 1.373 . S
C201 C203 1.389 . S
C202 H175 0.950 . S
C202 C188 1.377 . S
C202 C201 1.373 . S
C203 C187 1.377 . S
C203 C201 1.389 . S
C203 C204 1.524 . S
C204 C203 1.524 . S
C204 C205 1.397 . S
C204 C209 1.363 . S
C205 H176 0.950 . S
C205 C204 1.397 . S
C205 C206 1.334 . S
C206 H177 0.950 . S
C206 C205 1.334 . S
C206 C207 1.287 . S
C207 C206 1.287 . S
C207 C208 1.524 . S
C207 H210 0.999 . S
C208 H178 0.950 . S
C208 C207 1.524 . S
C208 C209 1.415 . S
C209 H179 0.950 . S
C209 C204 1.363 . S
C209 C208 1.415 . S
H210 C207 0.999 . S
H211 C192 0.913 . S
H212 C230 0.951 . S
H213 C232 0.951 . S
H214 C234 0.950 1_556 S
H215 C235 0.950 . S
H216 C237 0.950 . S
H217 C240 0.966 . S
H218 C241 0.950 . S
H219 C243 0.950 . S
H220 C244 0.950 . S
H221 C245 0.951 . S
H222 C247 0.951 . S
H223 C249 0.950 1_554 S
H224 C250 0.950 . S
H225 C252 0.950 . S
H226 C255 0.965 . S
H227 C256 0.950 . S
H228 C258 0.950 . S
H229 C259 0.950 . S
C230 H212 0.951 . S
C230 C231 1.366 . S
C230 C232 1.388 . S
C231 C230 1.366 . S
C231 C235 1.385 . S
C232 H213 0.951 . S
C232 C230 1.388 . S
C232 C233 1.366 . S
C233 C232 1.366 . S
C233 C234 1.414 . S
C233 C236 1.499 . S
C234 H214 0.950 1_554 S
C234 C233 1.414 . S
C234 C235 1.374 . S
C235 H215 0.950 . S
C235 C231 1.385 . S
C235 C234 1.374 . S
C236 C233 1.499 . S
C236 C237 1.373 1_554 S
C236 C238 1.389 1_545 S
C237 H216 0.950 . S
C237 C236 1.373 1_556 S
C237 C253 1.377 . S
C238 C236 1.389 1_565 S
C238 C239 1.524 . S
C238 C252 1.377 . S
C239 C238 1.524 . S
C239 C240 1.397 . S
C239 C244 1.363 . S
C240 H217 0.966 . S
C240 C239 1.397 . S
C240 C241 1.334 . S
C241 H218 0.950 . S
C241 C240 1.334 . S
C241 C242 1.287 . S
C242 C241 1.287 . S
C242 C243 1.524 . S
C242 H261 0.913 . S
C243 H219 0.950 . S
C243 C242 1.524 . S
C243 C244 1.415 . S
C244 H220 0.950 . S
C244 C239 1.363 . S
C244 C243 1.415 . S
C245 H221 0.951 . S
C245 C246 1.366 . S
C245 C247 1.388 . S
C246 C245 1.366 . S
C246 C250 1.385 . S
C247 H222 0.951 . S
C247 C245 1.388 . S
C247 C248 1.366 . S
C248 C247 1.366 . S
C248 C249 1.414 . S
C248 C251 1.499 . S
C249 H223 0.950 1_556 S
C249 C248 1.414 . S
C249 C250 1.374 . S
C250 H224 0.950 . S
C250 C246 1.385 . S
C250 C249 1.374 . S
C251 C248 1.499 . S
C251 C252 1.373 1_556 S
C251 C253 1.389 1_565 S
C252 H225 0.950 . S
C252 C238 1.377 . S
C252 C251 1.373 1_554 S
C253 C237 1.377 . S
C253 C251 1.389 1_545 S
C253 C254 1.524 . S
C254 C253 1.524 . S
C254 C255 1.397 . S
C254 C259 1.363 . S
C255 H226 0.965 . S
C255 C254 1.397 . S
C255 C256 1.334 . S
C256 H227 0.950 . S
C256 C255 1.334 . S
C256 C257 1.287 . S
C257 C256 1.287 . S
C257 C258 1.524 . S
C257 H260 0.999 . S
C258 H228 0.950 . S
C258 C257 1.524 . S
C258 C259 1.415 . S
C259 H229 0.950 . S
C259 C254 1.363 . S
C259 C258 1.415 . S
H260 C257 0.999 . S
H261 C242 0.913 . S
H262 C280 0.951 . S
H263 C282 0.951 . S
H264 C284 0.950 . S
H265 C285 0.950 . S
H266 C287 0.950 . S
H267 C290 0.950 1_655 S
H268 C291 0.950 . S
H269 C293 0.950 . S
H270 C294 0.950 . S
H271 C295 0.951 . S
H272 C297 0.951 . S
H273 C299 0.950 . S
H274 C300 0.950 . S
H275 C302 0.950 . S
H276 C305 0.950 1_455 S
H277 C306 0.950 . S
H278 C308 0.950 . S
H279 C309 0.950 . S
C280 H262 0.951 . S
C280 C281 1.366 . S
C280 C282 1.388 . S
C281 C280 1.366 . S
C281 C285 1.385 . S
C282 H263 0.951 . S
C282 C280 1.388 . S
C282 C283 1.366 . S
C283 C282 1.366 . S
C283 C284 1.414 . S
C283 C286 1.499 . S
C284 H264 0.950 . S
C284 C283 1.414 . S
C284 C285 1.374 . S
C285 H265 0.950 . S
C285 C281 1.385 . S
C285 C284 1.374 . S
C286 C283 1.499 . S
C286 C287 1.373 . S
C286 C288 1.389 1_655 S
C287 H266 0.950 . S
C287 C286 1.373 . S
C287 C303 1.377 . S
C288 C286 1.389 1_455 S
C288 C289 1.524 . S
C288 C302 1.377 . S
C289 C288 1.524 . S
C289 C290 1.397 . S
C289 C294 1.363 . S
C290 H267 0.950 1_455 S
C290 C289 1.397 . S
C290 C291 1.334 . S
C291 H268 0.950 . S
C291 C290 1.334 . S
C291 C292 1.287 . S
C292 C291 1.287 . S
C292 C293 1.524 . S
C292 H311 0.913 . S
C293 H269 0.950 . S
C293 C292 1.524 . S
C293 C294 1.415 . S
C294 H270 0.950 . S
C294 C289 1.363 . S
C294 C293 1.415 . S
C295 H271 0.951 . S
C295 C296 1.366 . S
C295 C297 1.388 . S
C296 C295 1.366 . S
C296 C300 1.385 . S
C297 H272 0.951 . S
C297 C295 1.388 . S
C297 C298 1.366 . S
C298 C297 1.366 . S
C298 C299 1.414 . S
C298 C301 1.499 . S
C299 H273 0.950 . S
C299 C298 1.414 . S
C299 C300 1.374 . S
C300 H274 0.950 . S
C300 C296 1.385 . S
C300 C299 1.374 . S
C301 C298 1.499 . S
C301 C302 1.373 . S
C301 C303 1.389 1_455 S
C302 H275 0.950 . S
C302 C288 1.377 . S
C302 C301 1.373 . S
C303 C287 1.377 . S
C303 C301 1.389 1_655 S
C303 C304 1.524 . S
C304 C303 1.524 . S
C304 C305 1.397 . S
C304 C309 1.363 . S
C305 H276 0.950 1_655 S
C305 C304 1.397 . S
C305 C306 1.334 . S
C306 H277 0.950 . S
C306 C305 1.334 . S
C306 C307 1.287 . S
C307 C306 1.287 . S
C307 C308 1.524 . S
C307 H310 0.999 . S
C308 H278 0.950 . S
C308 C307 1.524 . S
C308 C309 1.415 . S
C309 H279 0.950 . S
C309 C304 1.363 . S
C309 C308 1.415 . S
H310 C307 0.999 . S
H311 C292 0.913 . S
H312 C330 0.951 . S
H313 C332 0.951 . S
H314 C334 0.950 . S
H315 C335 0.950 . S
H316 C337 0.950 . S
H317 C340 0.950 . S
H318 C341 0.950 . S
H319 C343 0.950 . S
H320 C344 0.950 . S
H321 C345 0.951 . S
H322 C347 0.951 . S
H323 C349 0.950 . S
H324 C350 0.950 . S
H325 C352 0.950 . S
H326 C355 0.950 . S
H327 C356 0.950 . S
H328 C358 0.950 . S
H329 C359 0.950 . S
C330 H312 0.951 . S
C330 C331 1.366 . S
C330 C332 1.388 . S
C331 C330 1.366 . S
C331 C335 1.385 . S
C332 H313 0.951 . S
C332 C330 1.388 . S
C332 C333 1.366 . S
C333 C332 1.366 . S
C333 C334 1.414 . S
C333 C336 1.499 . S
C334 H314 0.950 . S
C334 C333 1.414 . S
C334 C335 1.374 . S
C335 H315 0.950 . S
C335 C331 1.385 . S
C335 C334 1.374 . S
C336 C333 1.499 . S
C336 C337 1.373 . S
C336 C338 1.389 1_565 S
C337 H316 0.950 . S
C337 C336 1.373 . S
C337 C353 1.377 . S
C338 C336 1.389 1_545 S
C338 C339 1.524 . S
C338 C352 1.377 . S
C339 C338 1.524 . S
C339 C340 1.397 . S
C339 C344 1.363 . S
C340 H317 0.950 . S
C340 C339 1.397 . S
C340 C341 1.334 . S
C341 H318 0.950 . S
C341 C340 1.334 . S
C341 C342 1.287 . S
C342 C341 1.287 . S
C342 C343 1.524 . S
C342 H361 0.913 . S
C343 H319 0.950 . S
C343 C342 1.524 . S
C343 C344 1.415 . S
C344 H320 0.950 . S
C344 C339 1.363 . S
C344 C343 1.415 . S
C345 H321 0.951 . S
C345 C346 1.366 . S
C345 C347 1.388 . S
C346 C345 1.366 . S
C346 C350 1.385 . S
C347 H322 0.951 . S
C347 C345 1.388 . S
C347 C348 1.366 . S
C348 C347 1.366 . S
C348 C349 1.414 . S
C348 C351 1.499 . S
C349 H323 0.950 . S
C349 C348 1.414 . S
C349 C350 1.374 . S
C350 H324 0.950 . S
C350 C346 1.385 . S
C350 C349 1.374 . S
C351 C348 1.499 . S
C351 C352 1.373 . S
C351 C353 1.389 1_545 S
C352 H325 0.950 . S
C352 C338 1.377 . S
C352 C351 1.373 . S
C353 C337 1.377 . S
C353 C351 1.389 1_565 S
C353 C354 1.524 . S
C354 C353 1.524 . S
C354 C355 1.397 . S
C354 C359 1.363 . S
C355 H326 0.950 . S
C355 C354 1.397 . S
C355 C356 1.334 . S
C356 H327 0.950 . S
C356 C355 1.334 . S
C356 C357 1.287 . S
C357 C356 1.287 . S
C357 C358 1.524 . S
C357 H360 0.999 . S
C358 H328 0.950 . S
C358 C357 1.524 . S
C358 C359 1.415 . S
C359 H329 0.950 . S
C359 C354 1.363 . S
C359 C358 1.415 . S
H360 C357 0.999 . S
H361 C342 0.913 . S
H362 C380 0.951 . S
H363 C382 0.951 . S
H364 C384 0.950 . S
H365 C385 0.950 . S
H366 C387 0.950 . S
H367 C390 0.950 . S
H368 C391 0.950 . S
H369 C393 0.950 . S
H370 C394 0.950 . S
H371 C395 0.951 . S
H372 C397 0.951 . S
H373 C399 0.950 . S
H374 C400 0.950 . S
H375 C402 0.950 . S
H376 C405 0.950 . S
H377 C406 0.950 . S
H378 C408 0.950 . S
H379 C409 0.950 . S
C380 H362 0.951 . S
C380 C381 1.366 . S
C380 C382 1.388 . S
C381 C380 1.366 . S
C381 C385 1.385 . S
C382 H363 0.951 . S
C382 C380 1.388 . S
C382 C383 1.366 . S
C383 C382 1.366 . S
C383 C384 1.414 . S
C383 C386 1.499 . S
C384 H364 0.950 . S
C384 C383 1.414 . S
C384 C385 1.374 . S
C385 H365 0.950 . S
C385 C381 1.385 . S
C385 C384 1.374 . S
C386 C383 1.499 . S
C386 C387 1.373 . S
C386 C388 1.391 1_656 S
C387 H366 0.950 . S
C387 C386 1.373 . S
C387 C403 1.374 . S
C388 C386 1.391 1_454 S
C388 C389 1.524 . S
C388 C402 1.375 . S
C389 C388 1.524 . S
C389 C390 1.385 1_455 S
C389 C394 1.375 . S
C390 H367 0.950 . S
C390 C389 1.385 1_655 S
C390 C391 1.334 . S
C391 H368 0.950 . S
C391 C390 1.334 . S
C391 C392 1.287 . S
C392 C391 1.287 . S
C392 C393 1.524 1_655 S
C392 H411 0.913 . S
C393 H369 0.950 . S
C393 C392 1.524 1_455 S
C393 C394 1.415 . S
C394 H370 0.950 . S
C394 C389 1.375 . S
C394 C393 1.415 . S
C395 H371 0.951 . S
C395 C396 1.366 . S
C395 C397 1.388 . S
C396 C395 1.366 . S
C396 C400 1.385 . S
C397 H372 0.951 . S
C397 C395 1.388 . S
C397 C398 1.366 . S
C398 C397 1.366 . S
C398 C399 1.414 . S
C398 C401 1.499 . S
C399 H373 0.950 . S
C399 C398 1.414 . S
C399 C400 1.374 . S
C400 H374 0.950 . S
C400 C396 1.385 . S
C400 C399 1.374 . S
C401 C398 1.499 . S
C401 C402 1.373 . S
C401 C403 1.392 1_454 S
C402 H375 0.950 . S
C402 C388 1.375 . S
C402 C401 1.373 . S
C403 C387 1.374 . S
C403 C401 1.392 1_656 S
C403 C404 1.524 . S
C404 C403 1.524 . S
C404 C405 1.385 1_655 S
C404 C409 1.375 . S
C405 H376 0.950 . S
C405 C404 1.385 1_455 S
C405 C406 1.334 . S
C406 H377 0.950 . S
C406 C405 1.334 . S
C406 C407 1.287 . S
C407 C406 1.287 . S
C407 C408 1.524 1_455 S
C407 H410 0.999 . S
C408 H378 0.950 . S
C408 C407 1.524 1_655 S
C408 C409 1.415 . S
C409 H379 0.950 . S
C409 C404 1.375 . S
C409 C408 1.415 . S
H410 C407 0.999 . S
H411 C392 0.913 . S
H412 C430 0.951 . S
H413 C432 0.951 . S
H414 C434 0.950 . S
H415 C435 0.950 . S
H416 C437 0.950 . S
H417 C440 0.950 . S
H418 C441 0.950 . S
H419 C443 0.950 . S
H420 C444 0.950 . S
H421 C445 0.951 . S
H422 C447 0.951 . S
H423 C449 0.950 . S
H424 C450 0.950 . S
H425 C452 0.950 . S
H426 C455 0.950 . S
H427 C456 0.950 . S
H428 C458 0.950 . S
H429 C459 0.950 . S
C430 H412 0.951 . S
C430 C431 1.366 . S
C430 C432 1.388 . S
C431 C430 1.366 . S
C431 C435 1.385 . S
C432 H413 0.951 . S
C432 C430 1.388 . S
C432 C433 1.366 . S
C433 C432 1.366 . S
C433 C434 1.414 . S
C433 C436 1.499 . S
C434 H414 0.950 . S
C434 C433 1.414 . S
C434 C435 1.374 . S
C435 H415 0.950 . S
C435 C431 1.385 . S
C435 C434 1.374 . S
C436 C433 1.499 . S
C436 C437 1.373 . S
C436 C438 1.389 . S
C437 H416 0.950 . S
C437 C436 1.373 . S
C437 C453 1.377 . S
C438 C436 1.389 . S
C438 C439 1.524 . S
C438 C452 1.377 . S
C439 C438 1.524 . S
C439 C440 1.397 . S
C439 C444 1.363 . S
C440 H417 0.950 . S
C440 C439 1.397 . S
C440 C441 1.334 . S
C441 H418 0.950 . S
C441 C440 1.334 . S
C441 C442 1.287 . S
C442 C441 1.287 . S
C442 C443 1.524 . S
C442 H461 0.913 . S
C443 H419 0.950 . S
C443 C442 1.524 . S
C443 C444 1.415 . S
C444 H420 0.950 . S
C444 C439 1.363 . S
C444 C443 1.415 . S
C445 H421 0.951 . S
C445 C446 1.366 . S
C445 C447 1.388 . S
C446 C445 1.366 . S
C446 C450 1.385 . S
C447 H422 0.951 . S
C447 C445 1.388 . S
C447 C448 1.366 . S
C448 C447 1.366 . S
C448 C449 1.414 . S
C448 C451 1.499 . S
C449 H423 0.950 . S
C449 C448 1.414 . S
C449 C450 1.374 . S
C450 H424 0.950 . S
C450 C446 1.385 . S
C450 C449 1.374 . S
C451 C448 1.499 . S
C451 C452 1.373 . S
C451 C453 1.389 . S
C452 H425 0.950 . S
C452 C438 1.377 . S
C452 C451 1.373 . S
C453 C437 1.377 . S
C453 C451 1.389 . S
C453 C454 1.524 . S
C454 C453 1.524 . S
C454 C455 1.397 . S
C454 C459 1.363 . S
C455 H426 0.950 . S
C455 C454 1.397 . S
C455 C456 1.334 . S
C456 H427 0.950 . S
C456 C455 1.334 . S
C456 C457 1.287 . S
C457 C456 1.287 . S
C457 C458 1.524 . S
C457 H460 0.999 . S
C458 H428 0.950 . S
C458 C457 1.524 . S
C458 C459 1.415 . S
C459 H429 0.950 . S
C459 C454 1.363 . S
C459 C458 1.415 . S
H460 C457 0.999 . S
H461 C442 0.913 . S
H462 C480 0.951 . S
H463 C482 0.951 . S
H464 C484 0.950 . S
H465 C485 0.950 . S
H466 C487 0.950 . S
H467 C490 0.950 . S
H468 C491 0.950 . S
H469 C493 0.950 . S
H470 C494 0.950 . S
H471 C495 0.951 . S
H472 C497 0.951 . S
H473 C499 0.950 . S
H474 C500 0.950 . S
H475 C502 0.950 . S
H476 C505 0.950 . S
H477 C506 0.950 . S
H478 C508 0.950 . S
H479 C509 0.950 . S
C480 H462 0.951 . S
C480 C481 1.366 . S
C480 C482 1.388 . S
C481 C480 1.366 . S
C481 C485 1.385 . S
C482 H463 0.951 . S
C482 C480 1.388 . S
C482 C483 1.366 . S
C483 C482 1.366 . S
C483 C484 1.414 . S
C483 C486 1.499 . S
C484 H464 0.950 . S
C484 C483 1.414 . S
C484 C485 1.374 . S
C485 H465 0.950 . S
C485 C481 1.385 . S
C485 C484 1.374 . S
C486 C483 1.499 . S
C486 C487 1.373 . S
C486 C488 1.389 . S
C487 H466 0.950 . S
C487 C486 1.373 . S
C487 C503 1.377 . S
C488 C486 1.389 . S
C488 C489 1.524 . S
C488 C502 1.377 . S
C489 C488 1.524 . S
C489 C490 1.397 . S
C489 C494 1.363 . S
C490 H467 0.950 . S
C490 C489 1.397 . S
C490 C491 1.334 . S
C491 H468 0.950 . S
C491 C490 1.334 . S
C491 C492 1.287 . S
C492 C491 1.287 . S
C492 C493 1.524 . S
C492 H511 0.913 . S
C493 H469 0.950 . S
C493 C492 1.524 . S
C493 C494 1.415 . S
C494 H470 0.950 . S
C494 C489 1.363 . S
C494 C493 1.415 . S
C495 H471 0.951 . S
C495 C496 1.366 . S
C495 C497 1.388 . S
C496 C495 1.366 . S
C496 C500 1.385 . S
C497 H472 0.951 . S
C497 C495 1.388 . S
C497 C498 1.366 . S
C498 C497 1.366 . S
C498 C499 1.414 . S
C498 C501 1.499 . S
C499 H473 0.950 . S
C499 C498 1.414 . S
C499 C500 1.374 . S
C500 H474 0.950 . S
C500 C496 1.385 . S
C500 C499 1.374 . S
C501 C498 1.499 . S
C501 C502 1.373 . S
C501 C503 1.389 . S
C502 H475 0.950 . S
C502 C488 1.377 . S
C502 C501 1.373 . S
C503 C487 1.377 . S
C503 C501 1.389 . S
C503 C504 1.524 . S
C504 C503 1.524 . S
C504 C505 1.397 . S
C504 C509 1.363 . S
C505 H476 0.950 . S
C505 C504 1.397 . S
C505 C506 1.334 . S
C506 H477 0.950 . S
C506 C505 1.334 . S
C506 C507 1.287 . S
C507 C506 1.287 . S
C507 C508 1.524 . S
C507 H510 0.999 . S
C508 H478 0.950 . S
C508 C507 1.524 . S
C508 C509 1.415 . S
C509 H479 0.950 . S
C509 C504 1.363 . S
C509 C508 1.415 . S
H510 C507 0.999 . S
H511 C492 0.913 . S
H512 C530 0.951 . S
H513 C532 0.951 . S
H514 C534 0.950 . S
H515 C535 0.950 . S
H516 C537 0.950 . S
H517 C540 0.950 . S
H518 C541 0.950 . S
H519 C543 0.950 . S
H520 C544 0.950 . S
H521 C545 0.951 . S
H522 C547 0.951 . S
H523 C549 0.950 . S
H524 C550 0.950 . S
H525 C552 0.950 . S
H526 C555 0.950 . S
H527 C556 0.950 . S
H528 C558 0.950 . S
H529 C559 0.950 . S
C530 H512 0.951 . S
C530 C531 1.366 . S
C530 C532 1.388 . S
C531 C530 1.366 . S
C531 C535 1.385 . S
C532 H513 0.951 . S
C532 C530 1.388 . S
C532 C533 1.366 . S
C533 C532 1.366 . S
C533 C534 1.414 . S
C533 C536 1.499 . S
C534 H514 0.950 . S
C534 C533 1.414 . S
C534 C535 1.374 . S
C535 H515 0.950 . S
C535 C531 1.385 . S
C535 C534 1.374 . S
C536 C533 1.499 . S
C536 C537 1.373 . S
C536 C538 1.389 . S
C537 H516 0.950 . S
C537 C536 1.373 . S
C537 C553 1.377 . S
C538 C536 1.389 . S
C538 C539 1.524 . S
C538 C552 1.377 . S
C539 C538 1.524 . S
C539 C540 1.397 . S
C539 C544 1.363 . S
C540 H517 0.950 . S
C540 C539 1.397 . S
C540 C541 1.334 . S
C541 H518 0.950 . S
C541 C540 1.334 . S
C541 C542 1.287 . S
C542 C541 1.287 . S
C542 C543 1.524 . S
C542 H561 0.913 . S
C543 H519 0.950 . S
C543 C542 1.524 . S
C543 C544 1.415 . S
C544 H520 0.950 . S
C544 C539 1.363 . S
C544 C543 1.415 . S
C545 H521 0.951 . S
C545 C546 1.366 . S
C545 C547 1.388 . S
C546 C545 1.366 . S
C546 C550 1.385 . S
C547 H522 0.951 . S
C547 C545 1.388 . S
C547 C548 1.366 . S
C548 C547 1.366 . S
C548 C549 1.414 . S
C548 C551 1.499 . S
C549 H523 0.950 . S
C549 C548 1.414 . S
C549 C550 1.374 . S
C550 H524 0.950 . S
C550 C546 1.385 . S
C550 C549 1.374 . S
C551 C548 1.499 . S
C551 C552 1.373 . S
C551 C553 1.389 . S
C552 H525 0.950 . S
C552 C538 1.377 . S
C552 C551 1.373 . S
C553 C537 1.377 . S
C553 C551 1.389 . S
C553 C554 1.524 . S
C554 C553 1.524 . S
C554 C555 1.397 . S
C554 C559 1.363 . S
C555 H526 0.950 . S
C555 C554 1.397 . S
C555 C556 1.334 . S
C556 H527 0.950 . S
C556 C555 1.334 . S
C556 C557 1.287 . S
C557 C556 1.287 . S
C557 C558 1.524 . S
C557 H560 0.999 . S
C558 H528 0.950 . S
C558 C557 1.524 . S
C558 C559 1.415 . S
C559 H529 0.950 . S
C559 C554 1.363 . S
C559 C558 1.415 . S
H560 C557 0.999 . S
H561 C542 0.913 . S
H562 C580 0.951 . S
H563 C582 0.951 . S
H564 C584 0.950 1_554 S
H565 C585 0.950 . S
H566 C587 0.950 . S
H567 C590 0.950 . S
H568 C591 0.950 . S
H569 C593 0.950 . S
H570 C594 0.950 . S
H571 C595 0.951 . S
H572 C597 0.951 . S
H573 C599 0.950 1_556 S
H574 C600 0.950 . S
H575 C602 0.950 . S
H576 C605 0.950 . S
H577 C606 0.950 . S
H578 C608 0.950 . S
H579 C609 0.950 . S
C580 H562 0.951 . S
C580 C581 1.366 . S
C580 C582 1.388 . S
C581 C580 1.366 . S
C581 C585 1.385 . S
C582 H563 0.951 . S
C582 C580 1.388 . S
C582 C583 1.366 . S
C583 C582 1.366 . S
C583 C584 1.414 . S
C583 C586 1.499 . S
C584 H564 0.950 1_556 S
C584 C583 1.414 . S
C584 C585 1.374 . S
C585 H565 0.950 . S
C585 C581 1.385 . S
C585 C584 1.374 . S
C586 C583 1.499 . S
C586 C587 1.373 1_556 S
C586 C588 1.389 . S
C587 H566 0.950 . S
C587 C586 1.373 1_554 S
C587 C603 1.377 . S
C588 C586 1.389 . S
C588 C589 1.524 . S
C588 C602 1.377 . S
C589 C588 1.524 . S
C589 C590 1.397 . S
C589 C594 1.363 . S
C590 H567 0.950 . S
C590 C589 1.397 . S
C590 C591 1.334 . S
C591 H568 0.950 . S
C591 C590 1.334 . S
C591 C592 1.287 . S
C592 C591 1.287 . S
C592 C593 1.524 . S
C592 H611 0.913 . S
C593 H569 0.950 . S
C593 C592 1.524 . S
C593 C594 1.415 . S
C594 H570 0.950 . S
C594 C589 1.363 . S
C594 C593 1.415 . S
C595 H571 0.951 . S
C595 C596 1.366 . S
C595 C597 1.388 . S
C596 C595 1.366 . S
C596 C600 1.385 . S
C597 H572 0.951 . S
C597 C595 1.388 . S
C597 C598 1.366 . S
C598 C597 1.366 . S
C598 C599 1.414 . S
C598 C601 1.499 . S
C599 H573 0.950 1_554 S
C599 C598 1.414 . S
C599 C600 1.374 . S
C600 H574 0.950 . S
C600 C596 1.385 . S
C600 C599 1.374 . S
C601 C598 1.499 . S
C601 C602 1.373 1_554 S
C601 C603 1.389 . S
C602 H575 0.950 . S
C602 C588 1.377 . S
C602 C601 1.373 1_556 S
C603 C587 1.377 . S
C603 C601 1.389 . S
C603 C604 1.524 . S
C604 C603 1.524 . S
C604 C605 1.397 . S
C604 C609 1.363 . S
C605 H576 0.950 . S
C605 C604 1.397 . S
C605 C606 1.334 . S
C606 H577 0.950 . S
C606 C605 1.334 . S
C606 C607 1.287 . S
C607 C606 1.287 . S
C607 C608 1.524 . S
C607 H610 0.999 . S
C608 H578 0.950 . S
C608 C607 1.524 . S
C608 C609 1.415 . S
C609 H579 0.950 . S
C609 C604 1.363 . S
C609 C608 1.415 . S
H610 C607 0.999 . S
H611 C592 0.913 . S
H612 C630 0.951 . S
H613 C632 0.951 . S
H614 C634 0.950 . S
H615 C635 0.950 . S
H616 C637 0.950 . S
H617 C640 0.950 . S
H618 C641 0.950 . S
H619 C643 0.950 . S
H620 C644 0.950 . S
H621 C645 0.951 . S
H622 C647 0.951 . S
H623 C649 0.950 . S
H624 C650 0.950 . S
H625 C652 0.950 . S
H626 C655 0.950 . S
H627 C656 0.950 . S
H628 C658 0.950 . S
H629 C659 0.950 . S
C630 H612 0.951 . S
C630 C631 1.366 . S
C630 C632 1.388 . S
C631 C630 1.366 . S
C631 C635 1.385 . S
C632 H613 0.951 . S
C632 C630 1.388 . S
C632 C633 1.366 . S
C633 C632 1.366 . S
C633 C634 1.414 . S
C633 C636 1.499 . S
C634 H614 0.950 . S
C634 C633 1.414 . S
C634 C635 1.374 . S
C635 H615 0.950 . S
C635 C631 1.385 . S
C635 C634 1.374 . S
C636 C633 1.499 . S
C636 C637 1.373 1_565 S
C636 C638 1.389 . S
C637 H616 0.950 . S
C637 C636 1.373 1_545 S
C637 C653 1.377 . S
C638 C636 1.389 . S
C638 C639 1.524 . S
C638 C652 1.377 . S
C639 C638 1.524 . S
C639 C640 1.397 . S
C639 C644 1.363 . S
C640 H617 0.950 . S
C640 C639 1.397 . S
C640 C641 1.334 . S
C641 H618 0.950 . S
C641 C640 1.334 . S
C641 C642 1.287 . S
C642 C641 1.287 . S
C642 C643 1.524 . S
C642 H661 0.913 . S
C643 H619 0.950 . S
C643 C642 1.524 . S
C643 C644 1.415 . S
C644 H620 0.950 . S
C644 C639 1.363 . S
C644 C643 1.415 . S
C645 H621 0.951 . S
C645 C646 1.366 . S
C645 C647 1.388 . S
C646 C645 1.366 . S
C646 C650 1.385 . S
C647 H622 0.951 . S
C647 C645 1.388 . S
C647 C648 1.366 . S
C648 C647 1.366 . S
C648 C649 1.414 . S
C648 C651 1.499 . S
C649 H623 0.950 . S
C649 C648 1.414 . S
C649 C650 1.374 . S
C650 H624 0.950 . S
C650 C646 1.385 . S
C650 C649 1.374 . S
C651 C648 1.499 . S
C651 C652 1.373 1_545 S
C651 C653 1.389 . S
C652 H625 0.950 . S
C652 C638 1.377 . S
C652 C651 1.373 1_565 S
C653 C637 1.377 . S
C653 C651 1.389 . S
C653 C654 1.524 . S
C654 C653 1.524 . S
C654 C655 1.397 . S
C654 C659 1.363 . S
C655 H626 0.950 . S
C655 C654 1.397 . S
C655 C656 1.334 . S
C656 H627 0.950 . S
C656 C655 1.334 . S
C656 C657 1.287 . S
C657 C656 1.287 . S
C657 C658 1.524 . S
C657 H660 0.999 . S
C658 H628 0.950 . S
C658 C657 1.524 . S
C658 C659 1.415 . S
C659 H629 0.950 . S
C659 C654 1.363 . S
C659 C658 1.415 . S
H660 C657 0.999 . S
H661 C642 0.913 . S
H662 C680 0.951 . S
H663 C682 0.951 . S
H664 C684 0.950 . S
H665 C685 0.950 . S
H666 C687 0.950 . S
H667 C690 0.950 1_655 S
H668 C691 0.950 1_655 S
H669 C693 0.950 . S
H670 C694 0.950 . S
H671 C695 0.951 . S
H672 C697 0.951 . S
H673 C699 0.950 . S
H674 C700 0.950 . S
H675 C702 0.950 . S
H676 C705 0.950 1_455 S
H677 C706 0.950 1_455 S
H678 C708 0.950 . S
H679 C709 0.950 . S
C680 H662 0.951 . S
C680 C681 1.366 . S
C680 C682 1.388 . S
C681 C680 1.366 . S
C681 C685 1.385 . S
C682 H663 0.951 . S
C682 C680 1.388 . S
C682 C683 1.366 . S
C683 C682 1.366 . S
C683 C684 1.414 . S
C683 C686 1.499 . S
C684 H664 0.950 . S
C684 C683 1.414 . S
C684 C685 1.374 . S
C685 H665 0.950 . S
C685 C681 1.385 . S
C685 C684 1.374 . S
C686 C683 1.499 . S
C686 C687 1.373 1_565 S
C686 C688 1.389 1_655 S
C687 H666 0.950 . S
C687 C686 1.373 1_545 S
C687 C703 1.377 . S
C688 C686 1.389 1_455 S
C688 C689 1.524 . S
C688 C702 1.377 . S
C689 C688 1.524 . S
C689 C690 1.397 . S
C689 C694 1.363 . S
C690 H667 0.950 1_455 S
C690 C689 1.397 . S
C690 C691 1.334 . S
C691 H668 0.950 1_455 S
C691 C690 1.334 . S
C691 C692 1.287 . S
C692 C691 1.287 . S
C692 C693 1.524 . S
C692 H711 0.913 . S
C693 H669 0.950 . S
C693 C692 1.524 . S
C693 C694 1.415 . S
C694 H670 0.950 . S
C694 C689 1.363 . S
C694 C693 1.415 . S
C695 H671 0.951 . S
C695 C696 1.366 . S
C695 C697 1.388 . S
C696 C695 1.366 . S
C696 C700 1.385 . S
C697 H672 0.951 . S
C697 C695 1.388 . S
C697 C698 1.366 . S
C698 C697 1.366 . S
C698 C699 1.414 . S
C698 C701 1.499 . S
C699 H673 0.950 . S
C699 C698 1.414 . S
C699 C700 1.374 . S
C700 H674 0.950 . S
C700 C696 1.385 . S
C700 C699 1.374 . S
C701 C698 1.499 . S
C701 C702 1.373 1_545 S
C701 C703 1.389 1_455 S
C702 H675 0.950 . S
C702 C688 1.377 . S
C702 C701 1.373 1_565 S
C703 C687 1.377 . S
C703 C701 1.389 1_655 S
C703 C704 1.524 . S
C704 C703 1.524 . S
C704 C705 1.397 . S
C704 C709 1.363 . S
C705 H676 0.950 1_655 S
C705 C704 1.397 . S
C705 C706 1.334 . S
C706 H677 0.950 1_655 S
C706 C705 1.334 . S
C706 C707 1.287 . S
C707 C706 1.287 . S
C707 C708 1.524 . S
C707 H710 0.999 . S
C708 H678 0.950 . S
C708 C707 1.524 . S
C708 C709 1.415 . S
C709 H679 0.950 . S
C709 C704 1.363 . S
C709 C708 1.415 . S
H710 C707 0.999 . S
H711 C692 0.913 . S
H712 C730 0.951 . S
H713 C732 0.951 . S
H714 C734 0.950 . S
H715 C735 0.950 . S
H716 C737 0.950 . S
H717 C740 0.950 . S
H718 C741 0.950 . S
H719 C743 0.950 . S
H720 C744 0.950 . S
H721 C745 0.951 . S
H722 C747 0.951 . S
H723 C749 0.950 . S
H724 C750 0.950 . S
H725 C752 0.950 . S
H726 C755 0.950 . S
H727 C756 0.950 . S
H728 C758 0.950 . S
H729 C759 0.950 . S
C730 H712 0.951 . S
C730 C731 1.366 . S
C730 C732 1.388 . S
C731 C730 1.366 . S
C731 C735 1.385 . S
C732 H713 0.951 . S
C732 C730 1.388 . S
C732 C733 1.366 . S
C733 C732 1.366 . S
C733 C734 1.414 . S
C733 C736 1.499 . S
C734 H714 0.950 . S
C734 C733 1.414 . S
C734 C735 1.374 . S
C735 H715 0.950 . S
C735 C731 1.385 . S
C735 C734 1.374 . S
C736 C733 1.499 . S
C736 C737 1.373 1_655 S
C736 C738 1.389 . S
C737 H716 0.950 . S
C737 C736 1.373 1_455 S
C737 C753 1.377 . S
C738 C736 1.389 . S
C738 C739 1.524 . S
C738 C752 1.377 . S
C739 C738 1.524 . S
C739 C740 1.397 . S
C739 C744 1.363 . S
C740 H717 0.950 . S
C740 C739 1.397 . S
C740 C741 1.334 . S
C741 H718 0.950 . S
C741 C740 1.334 . S
C741 C742 1.287 . S
C742 C741 1.287 . S
C742 C743 1.524 . S
C742 H761 0.913 . S
C743 H719 0.950 . S
C743 C742 1.524 . S
C743 C744 1.415 . S
C744 H720 0.950 . S
C744 C739 1.363 . S
C744 C743 1.415 . S
C745 H721 0.951 . S
C745 C746 1.366 . S
C745 C747 1.388 . S
C746 C745 1.366 . S
C746 C750 1.385 . S
C747 H722 0.951 . S
C747 C745 1.388 . S
C747 C748 1.366 . S
C748 C747 1.366 . S
C748 C749 1.414 . S
C748 C751 1.499 . S
C749 H723 0.950 . S
C749 C748 1.414 . S
C749 C750 1.374 . S
C750 H724 0.950 . S
C750 C746 1.385 . S
C750 C749 1.374 . S
C751 C748 1.499 . S
C751 C752 1.373 1_455 S
C751 C753 1.389 . S
C752 H725 0.950 . S
C752 C738 1.377 . S
C752 C751 1.373 1_655 S
C753 C737 1.377 . S
C753 C751 1.389 . S
C753 C754 1.524 . S
C754 C753 1.524 . S
C754 C755 1.397 . S
C754 C759 1.363 . S
C755 H726 0.950 . S
C755 C754 1.397 . S
C755 C756 1.334 . S
C756 H727 0.950 . S
C756 C755 1.334 . S
C756 C757 1.287 . S
C757 C756 1.287 . S
C757 C758 1.524 . S
C757 H760 0.999 . S
C758 H728 0.950 . S
C758 C757 1.524 . S
C758 C759 1.415 . S
C759 H729 0.950 . S
C759 C754 1.363 . S
C759 C758 1.415 . S
H760 C757 0.999 . S
H761 C742 0.913 . S
H762 C780 0.951 . S
H763 C782 0.951 . S
H764 C784 0.950 . S
H765 C785 0.950 . S
H766 C787 0.950 . S
H767 C790 0.950 . S
H768 C791 0.950 . S
H769 C793 0.950 . S
H770 C794 0.950 . S
H771 C795 0.951 . S
H772 C797 0.951 . S
H773 C799 0.950 . S
H774 C800 0.950 . S
H775 C802 0.950 . S
H776 C805 0.950 . S
H777 C806 0.950 . S
H778 C808 0.950 . S
H779 C809 0.950 . S
C780 H762 0.951 . S
C780 C781 1.366 . S
C780 C782 1.388 . S
C781 C780 1.366 . S
C781 C785 1.385 . S
C782 H763 0.951 . S
C782 C780 1.388 . S
C782 C783 1.366 . S
C783 C782 1.366 . S
C783 C784 1.414 . S
C783 C786 1.499 . S
C784 H764 0.950 . S
C784 C783 1.414 . S
C784 C785 1.374 . S
C785 H765 0.950 . S
C785 C781 1.385 . S
C785 C784 1.374 . S
C786 C783 1.499 . S
C786 C787 1.373 . S
C786 C788 1.389 . S
C787 H766 0.950 . S
C787 C786 1.373 . S
C787 C803 1.377 . S
C788 C786 1.389 . S
C788 C789 1.524 . S
C788 C802 1.377 . S
C789 C788 1.524 . S
C789 C790 1.397 . S
C789 C794 1.363 . S
C790 H767 0.950 . S
C790 C789 1.397 . S
C790 C791 1.334 . S
C791 H768 0.950 . S
C791 C790 1.334 . S
C791 C792 1.287 . S
C792 C791 1.287 . S
C792 C793 1.524 . S
C792 H811 0.913 . S
C793 H769 0.950 . S
C793 C792 1.524 . S
C793 C794 1.415 . S
C794 H770 0.950 . S
C794 C789 1.363 . S
C794 C793 1.415 . S
C795 H771 0.951 . S
C795 C796 1.366 . S
C795 C797 1.388 . S
C796 C795 1.366 . S
C796 C800 1.385 . S
C797 H772 0.951 . S
C797 C795 1.388 . S
C797 C798 1.366 . S
C798 C797 1.366 . S
C798 C799 1.414 . S
C798 C801 1.499 . S
C799 H773 0.950 . S
C799 C798 1.414 . S
C799 C800 1.374 . S
C800 H774 0.950 . S
C800 C796 1.385 . S
C800 C799 1.374 . S
C801 C798 1.499 . S
C801 C802 1.373 . S
C801 C803 1.389 . S
C802 H775 0.950 . S
C802 C788 1.377 . S
C802 C801 1.373 . S
C803 C787 1.377 . S
C803 C801 1.389 . S
C803 C804 1.524 . S
C804 C803 1.524 . S
C804 C805 1.397 . S
C804 C809 1.363 . S
C805 H776 0.950 . S
C805 C804 1.397 . S
C805 C806 1.334 . S
C806 H777 0.950 . S
C806 C805 1.334 . S
C806 C807 1.287 . S
C807 C806 1.287 . S
C807 C808 1.524 . S
C807 H810 0.999 . S
C808 H778 0.950 . S
C808 C807 1.524 . S
C808 C809 1.415 . S
C809 H779 0.950 . S
C809 C804 1.363 . S
C809 C808 1.415 . S
H810 C807 0.999 . S
H811 C792 0.913 . S
H812 C830 0.951 . S
H813 C832 0.951 . S
H814 C834 0.950 . S
H815 C835 0.950 . S
H816 C837 0.950 . S
H817 C840 0.950 . S
H818 C841 0.950 . S
H819 C843 0.950 . S
H820 C844 0.950 1_556 S
H821 C845 0.951 . S
H822 C847 0.951 . S
H823 C849 0.950 . S
H824 C850 0.950 . S
H825 C852 0.950 . S
H826 C855 0.950 . S
H827 C856 0.950 . S
H828 C858 0.950 . S
H829 C859 0.950 1_554 S
C830 H812 0.951 . S
C830 C831 1.366 . S
C830 C832 1.388 . S
C831 C830 1.366 . S
C831 C835 1.385 . S
C832 H813 0.951 . S
C832 C830 1.388 . S
C832 C833 1.366 . S
C833 C832 1.366 . S
C833 C834 1.414 . S
C833 C836 1.499 . S
C834 H814 0.950 . S
C834 C833 1.414 . S
C834 C835 1.374 . S
C835 H815 0.950 . S
C835 C831 1.385 . S
C835 C834 1.374 . S
C836 C833 1.499 . S
C836 C837 1.373 . S
C836 C838 1.389 . S
C837 H816 0.950 . S
C837 C836 1.373 . S
C837 C853 1.377 1_554 S
C838 C836 1.389 . S
C838 C839 1.524 . S
C838 C852 1.377 1_554 S
C839 C838 1.524 . S
C839 C840 1.397 . S
C839 C844 1.363 . S
C840 H817 0.950 . S
C840 C839 1.397 . S
C840 C841 1.334 . S
C841 H818 0.950 . S
C841 C840 1.334 . S
C841 C842 1.287 . S
C842 C841 1.287 . S
C842 C843 1.524 . S
C842 H861 0.913 . S
C843 H819 0.950 . S
C843 C842 1.524 . S
C843 C844 1.415 . S
C844 H820 0.950 1_554 S
C844 C839 1.363 . S
C844 C843 1.415 . S
C845 H821 0.951 . S
C845 C846 1.366 . S
C845 C847 1.388 . S
C846 C845 1.366 . S
C846 C850 1.385 . S
C847 H822 0.951 . S
C847 C845 1.388 . S
C847 C848 1.366 . S
C848 C847 1.366 . S
C848 C849 1.414 . S
C848 C851 1.499 . S
C849 H823 0.950 . S
C849 C848 1.414 . S
C849 C850 1.374 . S
C850 H824 0.950 . S
C850 C846 1.385 . S
C850 C849 1.374 . S
C851 C848 1.499 . S
C851 C852 1.373 . S
C851 C853 1.389 . S
C852 H825 0.950 . S
C852 C838 1.377 1_556 S
C852 C851 1.373 . S
C853 C837 1.377 1_556 S
C853 C851 1.389 . S
C853 C854 1.524 . S
C854 C853 1.524 . S
C854 C855 1.397 . S
C854 C859 1.363 . S
C855 H826 0.950 . S
C855 C854 1.397 . S
C855 C856 1.334 . S
C856 H827 0.950 . S
C856 C855 1.334 . S
C856 C857 1.287 . S
C857 C856 1.287 . S
C857 C858 1.524 . S
C857 H860 0.999 . S
C858 H828 0.950 . S
C858 C857 1.524 . S
C858 C859 1.415 . S
C859 H829 0.950 1_556 S
C859 C854 1.363 . S
C859 C858 1.415 . S
H860 C857 0.999 . S
H861 C842 0.913 . S
H862 C880 0.951 . S
H863 C882 0.951 . S
H864 C884 0.950 . S
H865 C885 0.950 . S
H866 C887 0.950 . S
H867 C890 0.950 . S
H868 C891 0.950 . S
H869 C893 0.950 . S
H870 C894 0.950 . S
H871 C895 0.951 . S
H872 C897 0.951 . S
H873 C899 0.950 . S
H874 C900 0.950 . S
H875 C902 0.950 . S
H876 C905 0.950 . S
H877 C906 0.950 . S
H878 C908 0.950 . S
H879 C909 0.950 . S
C880 H862 0.951 . S
C880 C881 1.366 . S
C880 C882 1.388 . S
C881 C880 1.366 . S
C881 C885 1.385 . S
C882 H863 0.951 . S
C882 C880 1.388 . S
C882 C883 1.366 . S
C883 C882 1.366 . S
C883 C884 1.414 . S
C883 C886 1.499 . S
C884 H864 0.950 . S
C884 C883 1.414 . S
C884 C885 1.374 . S
C885 H865 0.950 . S
C885 C881 1.385 . S
C885 C884 1.374 . S
C886 C883 1.499 . S
C886 C887 1.373 . S
C886 C888 1.389 . S
C887 H866 0.950 . S
C887 C886 1.373 . S
C887 C903 1.377 . S
C888 C886 1.389 . S
C888 C889 1.524 . S
C888 C902 1.377 . S
C889 C888 1.524 . S
C889 C890 1.397 . S
C889 C894 1.363 . S
C890 H867 0.950 . S
C890 C889 1.397 . S
C890 C891 1.334 . S
C891 H868 0.950 . S
C891 C890 1.334 . S
C891 C892 1.287 . S
C892 C891 1.287 . S
C892 C893 1.524 . S
C892 H911 0.913 . S
C893 H869 0.950 . S
C893 C892 1.524 . S
C893 C894 1.415 . S
C894 H870 0.950 . S
C894 C889 1.363 . S
C894 C893 1.415 . S
C895 H871 0.951 . S
C895 C896 1.366 . S
C895 C897 1.388 . S
C896 C895 1.366 . S
C896 C900 1.385 . S
C897 H872 0.951 . S
C897 C895 1.388 . S
C897 C898 1.366 . S
C898 C897 1.366 . S
C898 C899 1.414 . S
C898 C901 1.499 . S
C899 H873 0.950 . S
C899 C898 1.414 . S
C899 C900 1.374 . S
C900 H874 0.950 . S
C900 C896 1.385 . S
C900 C899 1.374 . S
C901 C898 1.499 . S
C901 C902 1.373 . S
C901 C903 1.389 . S
C902 H875 0.950 . S
C902 C888 1.377 . S
C902 C901 1.373 . S
C903 C887 1.377 . S
C903 C901 1.389 . S
C903 C904 1.524 . S
C904 C903 1.524 . S
C904 C905 1.397 . S
C904 C909 1.363 . S
C905 H876 0.950 . S
C905 C904 1.397 . S
C905 C906 1.334 . S
C906 H877 0.950 . S
C906 C905 1.334 . S
C906 C907 1.287 . S
C907 C906 1.287 . S
C907 C908 1.524 . S
C907 H910 0.999 . S
C908 H878 0.950 . S
C908 C907 1.524 . S
C908 C909 1.415 . S
C909 H879 0.950 . S
C909 C904 1.363 . S
C909 C908 1.415 . S
H910 C907 0.999 . S
H911 C892 0.913 . S
C131 C73 1.498 . S
C146 C3 1.498 . S
C181 C107 1.486 . S
C196 C22 1.499 . S
C231 C35 1.473 . S
C246 C91 1.472 . S
C281 C51 1.486 . S
C296 C64 1.499 . S
C331 C92 1.499 . S
C346 C9 1.486 . S
C381 C21 1.473 . S
C396 C63 1.473 . S
C431 C79 1.486 . S
C446 C36 1.499 . S
C481 C45 1.498 . S
C496 C101 1.498 . S
C531 C65 1.486 . S
C546 C78 1.499 . S
C581 C17 1.498 . S
C596 C31 1.498 . S
C631 C50 1.499 . S
C646 C37 1.485 . S
C681 C49 1.473 . S
C696 C7 1.472 . S
C731 C23 1.486 . S
C746 C8 1.499 . S
C781 C106 1.499 . S
C796 C93 1.485 . S
C831 C59 1.498 . S
C846 C87 1.498 . S
C881 C77 1.473 . S
C896 C105 1.473 . S
