# Generated by pormake.
# Topology wjs, (5)-cn, num edge types: 1
# Building blocks:
#     Node 0, Type 0, BuildingBlock: BEQFEK_clean_sbu_0, # of connection points: 5
#     Node 1, Type 0, BuildingBlock: BEQFEK_clean_sbu_0, # of connection points: 5
#     Node 2, Type 0, BuildingBlock: BEQFEK_clean_sbu_0, # of connection points: 5
#     Node 3, Type 0, BuildingBlock: BEQFEK_clean_sbu_0, # of connection points: 5
#     Node 4, Type 0, BuildingBlock: BEQFEK_clean_sbu_0, # of connection points: 5
#     Node 5, Type 0, BuildingBlock: BEQFEK_clean_sbu_0, # of connection points: 5
#     Node 6, Type 0, BuildingBlock: BEQFEK_clean_sbu_0, # of connection points: 5
#     Node 7, Type 0, BuildingBlock: BEQFEK_clean_sbu_0, # of connection points: 5
#     Node 8, Type 0, BuildingBlock: BEQFEK_clean_sbu_0, # of connection points: 5
#     Node 9, Type 0, BuildingBlock: BEQFEK_clean_sbu_0, # of connection points: 5
#     Node 10, Type 0, BuildingBlock: BEQFEK_clean_sbu_0, # of connection points: 5
#     Node 11, Type 0, BuildingBlock: BEQFEK_clean_sbu_0, # of connection points: 5
#     Edge 12, Type (0, 0), BuildingBlock: XUDNAN_clean_linker_2, # of connection points: 2
#     Edge 13, Type (0, 0), BuildingBlock: XUDNAN_clean_linker_2, # of connection points: 2
#     Edge 14, Type (0, 0), BuildingBlock: XUDNAN_clean_linker_2, # of connection points: 2
#     Edge 15, Type (0, 0), BuildingBlock: XUDNAN_clean_linker_2, # of connection points: 2
#     Edge 16, Type (0, 0), BuildingBlock: XUDNAN_clean_linker_2, # of connection points: 2
#     Edge 17, Type (0, 0), BuildingBlock: XUDNAN_clean_linker_2, # of connection points: 2
#     Edge 18, Type (0, 0), BuildingBlock: XUDNAN_clean_linker_2, # of connection points: 2
#     Edge 19, Type (0, 0), BuildingBlock: XUDNAN_clean_linker_2, # of connection points: 2
#     Edge 20, Type (0, 0), BuildingBlock: XUDNAN_clean_linker_2, # of connection points: 2
#     Edge 21, Type (0, 0), BuildingBlock: XUDNAN_clean_linker_2, # of connection points: 2
#     Edge 22, Type (0, 0), BuildingBlock: XUDNAN_clean_linker_2, # of connection points: 2
#     Edge 23, Type (0, 0), BuildingBlock: XUDNAN_clean_linker_2, # of connection points: 2
#     Edge 24, Type (0, 0), BuildingBlock: XUDNAN_clean_linker_2, # of connection points: 2
#     Edge 25, Type (0, 0), BuildingBlock: XUDNAN_clean_linker_2, # of connection points: 2
#     Edge 26, Type (0, 0), BuildingBlock: XUDNAN_clean_linker_2, # of connection points: 2
#     Edge 27, Type (0, 0), BuildingBlock: XUDNAN_clean_linker_2, # of connection points: 2
#     Edge 28, Type (0, 0), BuildingBlock: XUDNAN_clean_linker_2, # of connection points: 2
#     Edge 29, Type (0, 0), BuildingBlock: XUDNAN_clean_linker_2, # of connection points: 2
#     Edge 30, Type (0, 0), BuildingBlock: XUDNAN_clean_linker_2, # of connection points: 2
#     Edge 31, Type (0, 0), BuildingBlock: XUDNAN_clean_linker_2, # of connection points: 2
#     Edge 32, Type (0, 0), BuildingBlock: XUDNAN_clean_linker_2, # of connection points: 2
#     Edge 33, Type (0, 0), BuildingBlock: XUDNAN_clean_linker_2, # of connection points: 2
#     Edge 34, Type (0, 0), BuildingBlock: XUDNAN_clean_linker_2, # of connection points: 2
#     Edge 35, Type (0, 0), BuildingBlock: XUDNAN_clean_linker_2, # of connection points: 2
#     Edge 36, Type (0, 0), BuildingBlock: XUDNAN_clean_linker_2, # of connection points: 2
#     Edge 37, Type (0, 0), BuildingBlock: XUDNAN_clean_linker_2, # of connection points: 2
#     Edge 38, Type (0, 0), BuildingBlock: XUDNAN_clean_linker_2, # of connection points: 2
#     Edge 39, Type (0, 0), BuildingBlock: XUDNAN_clean_linker_2, # of connection points: 2
#     Edge 40, Type (0, 0), BuildingBlock: XUDNAN_clean_linker_2, # of connection points: 2
#     Edge 41, Type (0, 0), BuildingBlock: XUDNAN_clean_linker_2, # of connection points: 2
# Relax obj value: 0.267
# Max RMSD: 0.222
# Mean RMSD: 0.222
data_MOF--net-wjs--node1-BEQFEK_clean_sbu_0--edge1-XUDNAN_clean_linker_2
_symmetry_space_group_name_H-M    P1
_symmetry_Int_Tables_number       1
_symmetry_cell_setting            triclinic
loop_
_symmetry_equiv_pos_as_xyz
'x, y, z'
_cell_length_a     30.152617
_cell_length_b     30.130848
_cell_length_c     75.734533
_cell_angle_alpha  90.036181
_cell_angle_beta   89.974181
_cell_angle_gamma 119.98415
loop_
_atom_site_label
_atom_site_type_symbol
_atom_site_fract_x
_atom_site_fract_y
_atom_site_fract_z
_atom_type_partial_charge
Co0 Co 0.22023 0.29996 0.00955 0.0
Co1 Co 0.20583 0.3955 0.00598 0.0
C2 C 0.21463 0.33602 0.9746 0.0
O3 O 0.21423 0.30083 0.98399 0.0
O4 O 0.21321 0.37399 0.98147 0.0
C5 C 0.27061 0.24372 0.01759 0.0
O6 O 0.30903 0.28109 0.00904 0.0
C7 C 0.13777 0.43154 0.99442 0.0
C8 C 0.16395 0.50319 0.00946 0.0
C9 C 0.12682 0.47032 0.99766 0.0
N10 N 0.17936 0.44097 0.00381 0.0
N11 N 0.1952 0.48411 0.01267 0.0
C12 C 0.10653 0.38356 0.984 0.0
H13 H 0.11283 0.35243 0.98889 0.0
H14 H 0.06521 0.37134 0.98475 0.0
H15 H 0.11859 0.39098 0.96996 0.0
C16 C 0.13192 0.26494 0.03266 0.0
N17 N 0.16425 0.29817 0.02069 0.0
N18 N 0.16014 0.33953 0.02059 0.0
C19 C 0.12599 0.33458 0.03309 0.0
C20 C 0.10724 0.2871 0.04125 0.0
C21 C 0.12817 0.21469 0.0369 0.0
H22 H 0.13092 0.19614 0.02462 0.0
H23 H 0.09156 0.18871 0.0437 0.0
H24 H 0.16034 0.22157 0.04571 0.0
O25 O 0.28429 0.3619 0.01678 0.0
O26 O 0.27586 0.43094 0.01626 0.0
H27 H 0.09842 0.36967 0.05189 0.0
H28 H 0.09423 0.38311 0.02894 0.0
C29 C 0.11794 0.37751 0.03891 0.0
H30 H 0.15538 0.41345 0.03978 0.0
H31 H 0.22622 0.49959 0.02134 0.0
O32 O 0.22776 0.24221 0.01801 0.0
C33 C 0.30264 0.40973 0.01923 0.0
Co34 Co 0.91827 0.24464 0.1896 0.0
Co35 Co 0.82621 0.22714 0.16561 0.0
C36 C 0.91354 0.22137 0.15067 0.0
O37 O 0.93492 0.23132 0.16574 0.0
O38 O 0.87015 0.21785 0.14844 0.0
C39 C 0.97396 0.20263 0.20372 0.0
O40 O 0.94579 0.16765 0.19199 0.0
C41 C 0.73709 0.16599 0.14386 0.0
C42 C 0.68684 0.19754 0.15023 0.0
C43 C 0.68831 0.15819 0.14125 0.0
N44 N 0.76321 0.20781 0.154 0.0
N45 N 0.73347 0.22739 0.15738 0.0
C46 C 0.75639 0.13054 0.13888 0.0
H47 H 0.78115 0.12945 0.14951 0.0
H48 H 0.72441 0.09122 0.13622 0.0
H49 H 0.77997 0.14528 0.12675 0.0
C50 C 0.83473 0.16284 0.21051 0.0
N51 N 0.8516 0.19447 0.19647 0.0
N52 N 0.81264 0.18465 0.18612 0.0
C53 C 0.7698 0.14488 0.19309 0.0
C54 C 0.78267 0.12985 0.20864 0.0
C55 C 0.86806 0.16316 0.22524 0.0
H56 H 0.90024 0.20247 0.22752 0.0
H57 H 0.88304 0.13738 0.22176 0.0
H58 H 0.84669 0.14899 0.23777 0.0
O59 O 0.92491 0.31282 0.18995 0.0
O60 O 0.86223 0.3022 0.17172 0.0
H61 H 0.70891 0.1535 0.18231 0.0
H62 H 0.68767 0.09602 0.19514 0.0
C63 C 0.71699 0.12247 0.18562 0.0
H64 H 0.71404 0.10067 0.17348 0.0
H65 H 0.74373 0.25884 0.16561 0.0
O66 O 0.96965 0.24233 0.20521 0.0
C67 C 0.90027 0.33043 0.18169 0.0
Co68 Co 0.69528 0.92606 0.34738 0.0
Co69 Co 0.61137 0.81734 0.3344 0.0
C70 C 0.68177 0.90317 0.30952 0.0
O71 O 0.7062 0.9334 0.32215 0.0
O72 O 0.64559 0.85747 0.31233 0.0
C73 C 0.79194 0.0171 0.35768 0.0
O74 O 0.81563 0.00437 0.34591 0.0
C75 C 0.5855 0.71566 0.32159 0.0
C76 C 0.50149 0.67188 0.32477 0.0
C77 C 0.54301 0.66709 0.31955 0.0
N78 N 0.56973 0.74716 0.32793 0.0
N79 N 0.51944 0.72086 0.32971 0.0
C80 C 0.64001 0.733 0.31695 0.0
H81 H 0.6611 0.77475 0.31418 0.0
H82 H 0.65897 0.7259 0.32826 0.0
H83 H 0.64198 0.71159 0.30532 0.0
C84 C 0.72335 0.86511 0.36986 0.0
N85 N 0.69651 0.86861 0.35632 0.0
N86 N 0.65834 0.82276 0.35247 0.0
C87 C 0.6583 0.78885 0.36419 0.0
C88 C 0.69971 0.81476 0.37556 0.0
C89 C 0.76842 0.90996 0.37827 0.0
H90 H 0.79689 0.93227 0.36795 0.0
H91 H 0.7873 0.89774 0.38816 0.0
H92 H 0.75588 0.93482 0.38478 0.0
O93 O 0.62854 0.92058 0.35169 0.0
O94 O 0.56675 0.84421 0.34299 0.0
H95 H 0.61245 0.72196 0.38028 0.0
H96 H 0.62142 0.7092 0.3578 0.0
C97 C 0.61496 0.73515 0.36644 0.0
H98 H 0.57825 0.7326 0.36263 0.0
H99 H 0.49747 0.73618 0.33449 0.0
O100 O 0.74396 0.98943 0.35981 0.0
C101 C 0.58128 0.88842 0.3495 0.0
Co102 Co 0.77592 0.68152 0.52145 0.0
Co103 Co 0.7968 0.60879 0.49751 0.0
C104 C 0.79266 0.70022 0.48309 0.0
O105 O 0.78588 0.71282 0.49842 0.0
O106 O 0.79762 0.661 0.48065 0.0
C107 C 0.79062 0.77357 0.53802 0.0
O108 O 0.8243 0.79679 0.52538 0.0
C109 C 0.86925 0.58979 0.47792 0.0
C110 C 0.83202 0.50545 0.47869 0.0
C111 C 0.87707 0.54916 0.47383 0.0
N112 N 0.82267 0.57086 0.48532 0.0
N113 N 0.80018 0.52036 0.48541 0.0
C114 C 0.90484 0.64576 0.47479 0.0
H115 H 0.92651 0.66401 0.48702 0.0
H116 H 0.93222 0.65185 0.464 0.0
H117 H 0.88267 0.66479 0.47133 0.0
C118 C 0.86406 0.69069 0.54081 0.0
N119 N 0.83069 0.67187 0.52735 0.0
N120 N 0.83866 0.6394 0.51817 0.0
C121 C 0.87686 0.63539 0.52605 0.0
C122 C 0.89435 0.66819 0.54047 0.0
C123 C 0.86767 0.73072 0.55341 0.0
H124 H 0.83104 0.71585 0.56071 0.0
H125 H 0.87442 0.76493 0.54583 0.0
H126 H 0.89953 0.74298 0.56295 0.0
O127 O 0.7112 0.61636 0.52064 0.0
O128 O 0.72298 0.56234 0.50406 0.0
H129 H 0.85962 0.56169 0.51602 0.0
H130 H 0.90775 0.58693 0.53313 0.0
C131 C 0.89259 0.59696 0.52137 0.0
H132 H 0.92351 0.61349 0.51138 0.0
H133 H 0.7642 0.49622 0.49087 0.0
O134 O 0.76656 0.72497 0.53885 0.0
C135 C 0.69402 0.5727 0.5134 0.0
Co136 Co 0.07716 0.77529 0.68399 0.0
Co137 Co 0.18605 0.79677 0.67306 0.0
C138 C 0.10241 0.77988 0.64661 0.0
O139 O 0.07119 0.77594 0.65862 0.0
O140 O 0.14741 0.78866 0.65034 0.0
C141 C 0.97301 0.7236 0.69598 0.0
O142 O 0.96844 0.68509 0.68644 0.0
C143 C 0.28783 0.87546 0.66217 0.0
C144 C 0.33303 0.83631 0.66377 0.0
C145 C 0.33686 0.88319 0.66006 0.0
N146 N 0.2567 0.82662 0.66713 0.0
N147 N 0.28385 0.80326 0.66798 0.0
C148 C 0.26993 0.91287 0.6587 0.0
H149 H 0.22824 0.89232 0.65585 0.0
H150 H 0.27682 0.93716 0.67052 0.0
H151 H 0.29141 0.93828 0.64747 0.0
C152 C 0.13582 0.86585 0.70536 0.0
N153 N 0.1339 0.83463 0.69239 0.0
N154 N 0.17952 0.84017 0.69002 0.0
C155 C 0.21153 0.87329 0.7023 0.0
C156 C 0.18469 0.89068 0.71239 0.0
C157 C 0.09007 0.86676 0.71255 0.0
H158 H 0.06361 0.86251 0.70167 0.0
H159 H 0.1017 0.90307 0.71974 0.0
H160 H 0.06986 0.83444 0.7219 0.0
O161 O 0.08204 0.71452 0.69013 0.0
O162 O 0.15859 0.72638 0.68295 0.0
H163 H 0.27072 0.88549 0.72094 0.0
H164 H 0.29304 0.91565 0.69989 0.0
C165 C 0.26326 0.88051 0.70652 0.0
H166 H 0.26635 0.84729 0.70184 0.0
H167 H 0.26898 0.76503 0.67164 0.0
O168 O 0.01501 0.76581 0.69586 0.0
C169 C 0.11372 0.69835 0.68926 0.0
Co170 Co 0.31911 0.09145 0.86072 0.0
Co171 Co 0.39039 0.18138 0.83512 0.0
C172 C 0.29845 0.0895 0.82165 0.0
O173 O 0.28779 0.07075 0.83713 0.0
O174 O 0.33732 0.13321 0.81875 0.0
C175 C 0.22354 0.03989 0.87602 0.0
O176 O 0.21809 0.06961 0.86459 0.0
C177 C 0.41459 0.26605 0.811 0.0
C178 C 0.49423 0.32205 0.81824 0.0
C179 C 0.45308 0.31636 0.80828 0.0
N180 N 0.43162 0.24386 0.8225 0.0
N181 N 0.47977 0.27712 0.82639 0.0
C182 C 0.36213 0.23922 0.80299 0.0
H183 H 0.33261 0.22323 0.8135 0.0
H184 H 0.35548 0.26483 0.79424 0.0
H185 H 0.35791 0.20646 0.795 0.0
C186 C 0.32062 0.17631 0.88037 0.0
N187 N 0.33529 0.15855 0.86658 0.0
N188 N 0.36089 0.19591 0.85527 0.0
C189 C 0.3609 0.23835 0.8612 0.0
C190 C 0.33492 0.22706 0.87724 0.0
C191 C 0.29771 0.14678 0.89703 0.0
H192 H 0.30957 0.11773 0.89902 0.0
H193 H 0.25539 0.12714 0.89625 0.0
H194 H 0.30997 0.17293 0.90859 0.0
O195 O 0.38046 0.08532 0.86034 0.0
O196 O 0.43198 0.14786 0.842 0.0
H197 H 0.42316 0.30443 0.84923 0.0
H198 H 0.37303 0.31526 0.85737 0.0
C199 C 0.38125 0.28713 0.85097 0.0
H200 H 0.36289 0.27846 0.83786 0.0
H201 H 0.5016 0.27029 0.8355 0.0
O202 O 0.26658 0.04192 0.87714 0.0
C203 C 0.4224 0.10948 0.85184 0.0
Co204 Co 0.66644 0.74493 0.80087 0.0
Co205 Co 0.57878 0.76555 0.81247 0.0
C206 C 0.65028 0.75184 0.83809 0.0
O207 O 0.6798 0.75079 0.8263 0.0
O208 O 0.61106 0.75547 0.83416 0.0
C209 C 0.75891 0.74201 0.7895 0.0
O210 O 0.78494 0.77229 0.80266 0.0
C211 C 0.55956 0.84385 0.827 0.0
C212 C 0.47627 0.81081 0.82347 0.0
C213 C 0.52011 0.85442 0.82918 0.0
N214 N 0.54015 0.79665 0.82004 0.0
N215 N 0.49022 0.77686 0.81811 0.0
C216 C 0.61458 0.87713 0.83207 0.0
H217 H 0.63337 0.85379 0.83374 0.0
H218 H 0.63526 0.9058 0.82159 0.0
H219 H 0.61756 0.89815 0.84446 0.0
C220 C 0.6988 0.83888 0.78039 0.0
N221 N 0.66705 0.80288 0.79184 0.0
N222 N 0.62838 0.80994 0.79549 0.0
C223 C 0.63364 0.85015 0.78593 0.0
C224 C 0.67876 0.87009 0.7763 0.0
C225 C 0.74785 0.84367 0.77387 0.0
H226 H 0.76934 0.84036 0.78517 0.0
H227 H 0.77224 0.88083 0.76716 0.0
H228 H 0.73913 0.81198 0.76451 0.0
O229 O 0.59945 0.68399 0.79674 0.0
O230 O 0.53384 0.69542 0.80254 0.0
H231 H 0.55527 0.83302 0.78759 0.0
H232 H 0.59277 0.87785 0.77041 0.0
C233 C 0.59358 0.86539 0.78414 0.0
H234 H 0.60292 0.89832 0.79293 0.0
H235 H 0.4659 0.74071 0.81277 0.0
O236 O 0.7123 0.72898 0.78728 0.0
C237 C 0.55151 0.66716 0.79716 0.0
Co238 Co 0.90625 0.68744 0.96766 0.0
Co239 Co 0.80746 0.61136 0.98879 0.0
C240 C 0.89288 0.69684 0.00714 0.0
O241 O 0.91808 0.70994 0.99274 0.0
O242 O 0.84715 0.65959 0.00769 0.0
C243 C 0.96317 0.78725 0.95558 0.0
O244 O 0.92961 0.79047 0.96578 0.0
C245 C 0.71186 0.57186 0.00909 0.0
C246 C 0.66353 0.49661 0.99648 0.0
C247 C 0.66227 0.5304 0.00863 0.0
N248 N 0.74048 0.56358 0.99735 0.0
N249 N 0.71162 0.51799 0.99016 0.0
C250 C 0.73217 0.61868 0.02047 0.0
H251 H 0.74476 0.65313 0.0121 0.0
H252 H 0.70341 0.61579 0.03023 0.0
H253 H 0.76618 0.62349 0.02774 0.0
C254 C 0.82909 0.68899 0.94422 0.0
N255 N 0.84217 0.67419 0.95916 0.0
N256 N 0.80102 0.6463 0.96868 0.0
C257 C 0.76058 0.64523 0.96058 0.0
C258 C 0.77688 0.67191 0.94467 0.0
C259 C 0.86481 0.71309 0.92893 0.0
H260 H 0.89535 0.70281 0.92916 0.0
H261 H 0.88282 0.75536 0.92978 0.0
H262 H 0.84393 0.70025 0.9162 0.0
O263 O 0.91113 0.62546 0.96597 0.0
O264 O 0.84469 0.57292 0.98284 0.0
H265 H 0.68815 0.57987 0.96689 0.0
H266 H 0.68517 0.6373 0.96236 0.0
C267 C 0.70821 0.62209 0.96852 0.0
H268 H 0.71141 0.63116 0.98275 0.0
H269 H 0.72404 0.50266 0.98026 0.0
O270 O 0.96139 0.74437 0.9541 0.0
C271 C 0.88394 0.5825 0.97356 0.0
Co272 Co 0.27357 0.93644 0.12589 0.0
Co273 Co 0.24115 0.82718 0.14086 0.0
C274 C 0.25287 0.91399 0.16418 0.0
O275 O 0.26455 0.94511 0.15129 0.0
O276 O 0.24286 0.86793 0.16184 0.0
C277 C 0.27423 0.02935 0.1139 0.0
O278 O 0.2406 0.02139 0.12631 0.0
C279 C 0.16937 0.72941 0.15761 0.0
C280 C 0.19165 0.67679 0.1454 0.0
C281 C 0.15585 0.67825 0.15649 0.0
N282 N 0.21097 0.75688 0.14749 0.0
N283 N 0.22466 0.72532 0.14049 0.0
C284 C 0.14008 0.75118 0.16647 0.0
H285 H 0.14638 0.78628 0.15951 0.0
H286 H 0.09855 0.72263 0.16684 0.0
H287 H 0.15396 0.76165 0.18024 0.0
C288 C 0.1812 0.87626 0.10409 0.0
N289 N 0.21502 0.8796 0.11638 0.0
N290 N 0.20159 0.83343 0.12223 0.0
C291 C 0.15852 0.79915 0.11374 0.0
C292 C 0.1442 0.82526 0.10209 0.0
C293 C 0.18236 0.92147 0.09541 0.0
H294 H 0.17862 0.94556 0.10568 0.0
H295 H 0.15079 0.91019 0.08582 0.0
H296 H 0.21951 0.94459 0.08855 0.0
O297 O 0.33358 0.9284 0.12313 0.0
O298 O 0.31378 0.8521 0.13382 0.0
H299 H 0.10494 0.72186 0.10526 0.0
H300 H 0.11073 0.73189 0.12878 0.0
C301 C 0.13223 0.74231 0.11616 0.0
H302 H 0.16093 0.72965 0.11657 0.0
H303 H 0.25503 0.73658 0.13169 0.0
O304 O 0.29136 0.99876 0.11218 0.0
C305 C 0.34542 0.89446 0.12662 0.0
Co306 Co 0.30311 0.22062 0.30136 0.0
Co307 Co 0.38995 0.20271 0.3161 0.0
C308 C 0.30894 0.20314 0.33947 0.0
O309 O 0.28565 0.20919 0.32655 0.0
O310 O 0.34917 0.20027 0.33708 0.0
C311 C 0.20114 0.19096 0.29352 0.0
O312 O 0.19343 0.1571 0.30582 0.0
C313 C 0.41665 0.13016 0.33079 0.0
C314 C 0.50072 0.16971 0.328 0.0
C315 C 0.45872 0.12387 0.33333 0.0
N316 N 0.43289 0.17698 0.32394 0.0
N317 N 0.48327 0.20072 0.32248 0.0
C318 C 0.36185 0.09291 0.33519 0.0
H319 H 0.34263 0.06825 0.3236 0.0
H320 H 0.35932 0.06807 0.34641 0.0
H321 H 0.34103 0.11335 0.33852 0.0
C322 C 0.28922 0.13707 0.27712 0.0
N323 N 0.31171 0.16807 0.29111 0.0
N324 N 0.34928 0.16158 0.29684 0.0
C325 C 0.35233 0.12671 0.28644 0.0
C326 C 0.31399 0.10965 0.27383 0.0
C327 C 0.24488 0.13377 0.26709 0.0
H328 H 0.25349 0.17268 0.26311 0.0
H329 H 0.21073 0.11682 0.27576 0.0
H330 H 0.23538 0.10926 0.2552 0.0
O331 O 0.36696 0.28757 0.29915 0.0
O332 O 0.43024 0.27623 0.30897 0.0
H333 H 0.43114 0.14897 0.29107 0.0
H334 H 0.40073 0.10248 0.27366 0.0
C335 C 0.39499 0.11484 0.28686 0.0
H336 H 0.38539 0.08307 0.29623 0.0
H337 H 0.50556 0.23754 0.31735 0.0
O338 O 0.24676 0.22416 0.28943 0.0
C339 C 0.41425 0.30501 0.30263 0.0
Co340 Co 0.07999 0.3133 0.47018 0.0
Co341 Co 0.18797 0.40084 0.48201 0.0
C342 C 0.10317 0.32912 0.50753 0.0
O343 O 0.0728 0.2999 0.49565 0.0
O344 O 0.1461 0.36829 0.50369 0.0
C345 C 0.98964 0.21678 0.45919 0.0
O346 O 0.00061 0.19269 0.47134 0.0
C347 C 0.28671 0.42192 0.49581 0.0
C348 C 0.335 0.50563 0.49258 0.0
C349 C 0.33638 0.46222 0.49781 0.0
N350 N 0.25763 0.44048 0.48939 0.0
N351 N 0.28658 0.49066 0.48766 0.0
C352 C 0.26651 0.36682 0.50049 0.0
H353 H 0.22466 0.34743 0.50293 0.0
H354 H 0.27325 0.34681 0.48943 0.0
H355 H 0.28652 0.36374 0.51232 0.0
C356 C 0.1431 0.28362 0.44875 0.0
N357 N 0.13797 0.31357 0.46084 0.0
N358 N 0.18337 0.35247 0.4647 0.0
C359 C 0.21878 0.34943 0.45463 0.0
C360 C 0.19444 0.30531 0.44445 0.0
C361 C 0.09967 0.23479 0.44169 0.0
H362 H 0.07785 0.20983 0.45288 0.0
H363 H 0.113 0.21353 0.43334 0.0
H364 H 0.07381 0.24341 0.43385 0.0
O365 O 0.08453 0.3804 0.46609 0.0
O366 O 0.16196 0.44499 0.47242 0.0
H367 H 0.2863 0.39346 0.43884 0.0
H368 H 0.29829 0.383 0.46113 0.0
C369 C 0.27332 0.3913 0.45269 0.0
H370 H 0.27767 0.42879 0.45649 0.0
H371 H 0.27361 0.51445 0.48269 0.0
O372 O 0.01779 0.26478 0.4572 0.0
C373 C 0.1163 0.4283 0.46696 0.0
Co374 Co 0.77556 0.09299 0.63927 0.0
Co375 Co 0.80223 0.19641 0.65771 0.0
C376 C 0.79946 0.11057 0.678 0.0
O377 O 0.78931 0.08321 0.66415 0.0
O378 O 0.80593 0.15559 0.67734 0.0
C379 C 0.80097 0.0217 0.62383 0.0
O380 O 0.84696 0.05255 0.63012 0.0
C381 C 0.867 0.29156 0.67705 0.0
C382 C 0.84088 0.343 0.66657 0.0
C383 C 0.87718 0.34184 0.67748 0.0
N384 N 0.82736 0.26467 0.66606 0.0
N385 N 0.81127 0.29541 0.66011 0.0
C386 C 0.89392 0.26887 0.68695 0.0
H387 H 0.90505 0.2474 0.67777 0.0
H388 H 0.92794 0.29831 0.69417 0.0
H389 H 0.86695 0.24094 0.69669 0.0
C390 C 0.85408 0.16422 0.61402 0.0
N391 N 0.82746 0.15437 0.6292 0.0
N392 N 0.84229 0.19749 0.63778 0.0
C393 C 0.88156 0.23586 0.62888 0.0
C394 C 0.89012 0.21619 0.61338 0.0
C395 C 0.83993 0.12619 0.59931 0.0
H396 H 0.79887 0.09659 0.60015 0.0
H397 H 0.86335 0.10731 0.60022 0.0
H398 H 0.84722 0.14543 0.58628 0.0
O399 O 0.71089 0.09252 0.63877 0.0
O400 O 0.72716 0.16545 0.65158 0.0
H401 H 0.88976 0.30936 0.6343 0.0
H402 H 0.94931 0.31161 0.62871 0.0
C403 C 0.91224 0.28957 0.63568 0.0
H404 H 0.92097 0.2887 0.64977 0.0
H405 H 0.78151 0.28442 0.65107 0.0
O406 O 0.76556 0.03227 0.6261 0.0
C407 C 0.69606 0.12292 0.64417 0.0
H408 H 0.20458 0.17642 0.04208 0.0
H409 H 0.35745 0.23634 0.02055 0.0
H410 H 0.37568 0.18865 0.04325 0.0
H411 H 0.24182 0.18984 0.08684 0.0
H412 H 0.18518 0.13255 0.09405 0.0
H413 H 0.18231 0.16714 0.07511 0.0
H414 H 0.14732 0.08515 0.05594 0.0
H415 H 0.14928 0.05003 0.07488 0.0
H416 H 0.18226 0.05107 0.05489 0.0
H417 H 0.37725 0.1354 0.06868 0.0
H418 H 0.36189 0.07991 0.09468 0.0
H419 H 0.21062 0.06159 0.10084 0.0
C420 C 0.24173 0.17922 0.04196 0.0
C421 C 0.27956 0.21011 0.0295 0.0
C422 C 0.32775 0.21267 0.02989 0.0
C423 C 0.33852 0.18592 0.04278 0.0
C424 C 0.30085 0.15728 0.05524 0.0
C425 C 0.2534 0.15373 0.05489 0.0
C426 C 0.22032 0.12241 0.07021 0.0
C427 C 0.20662 0.15494 0.08226 0.0
C428 C 0.17195 0.07431 0.06358 0.0
C429 C 0.25657 0.10877 0.07927 0.0
C430 C 0.30268 0.1289 0.07035 0.0
C431 C 0.34147 0.11976 0.07583 0.0
C432 C 0.33249 0.08842 0.09062 0.0
C433 C 0.28545 0.06733 0.09987 0.0
C434 C 0.24739 0.0783 0.09426 0.0
H435 H 0.19366 0.26403 0.27439 0.0
H436 H 0.11341 0.10163 0.28667 0.0
H437 H 0.0467 0.08723 0.26488 0.0
H438 H 0.07711 0.27305 0.26886 0.0
H439 H 0.10448 0.31931 0.25128 0.0
H440 H 0.14518 0.31693 0.26821 0.0
H441 H 0.20015 0.30591 0.24419 0.0
H442 H 0.15928 0.30759 0.22719 0.0
H443 H 0.16981 0.25384 0.22863 0.0
H444 H 0.99429 0.0891 0.23975 0.0
H445 H 0.95108 0.10875 0.21589 0.0
H446 H 0.06039 0.27092 0.22167 0.0
C447 C 0.16162 0.22561 0.27263 0.0
C448 C 0.15855 0.18389 0.28214 0.0
C449 C 0.11616 0.13414 0.27959 0.0
C450 C 0.07831 0.12554 0.26717 0.0
C451 C 0.08296 0.16729 0.25774 0.0
C452 C 0.12281 0.21652 0.26059 0.0
C453 C 0.11815 0.2547 0.24886 0.0
C454 C 0.11078 0.29327 0.25997 0.0
C455 C 0.16461 0.28211 0.23648 0.0
C456 C 0.07004 0.21902 0.23871 0.0
C457 C 0.0508 0.16871 0.2439 0.0
C458 C 0.00841 0.1284 0.23576 0.0
C459 C 0.98442 0.13991 0.22215 0.0
C460 C 0.0023 0.19133 0.21709 0.0
C461 C 0.0457 0.23134 0.22547 0.0
H462 H 0.98018 0.13688 0.43952 0.0
H463 H 0.91638 0.23626 0.44737 0.0
H464 H 0.85995 0.19734 0.42145 0.0
H465 H 0.98621 0.14794 0.39279 0.0
H466 H 0.97086 0.08283 0.38873 0.0
H467 H 0.00246 0.11444 0.40892 0.0
H468 H 0.93027 0.04142 0.42728 0.0
H469 H 0.89893 0.00914 0.40715 0.0
H470 H 0.8646 0.02416 0.42335 0.0
H471 H 0.81037 0.14727 0.39507 0.0
H472 H 0.77129 0.08974 0.36941 0.0
H473 H 0.87401 0.02968 0.37676 0.0
C474 C 0.95321 0.14924 0.43602 0.0
C475 C 0.95124 0.18837 0.44557 0.0
C476 C 0.91735 0.20548 0.44029 0.0
C477 C 0.88552 0.18386 0.42559 0.0
C478 C 0.88913 0.14612 0.41613 0.0
C479 C 0.92218 0.12902 0.42108 0.0
C480 C 0.92078 0.09025 0.40801 0.0
C481 C 0.97319 0.11007 0.39909 0.0
C482 C 0.90254 0.03816 0.41699 0.0
C483 C 0.88137 0.08785 0.39506 0.0
C484 C 0.86336 0.12012 0.40009 0.0
C485 C 0.82462 0.12238 0.39084 0.0
C486 C 0.80288 0.0899 0.37628 0.0
C487 C 0.82074 0.05661 0.37096 0.0
C488 C 0.86102 0.05617 0.38027 0.0
H489 H 0.85892 0.87031 0.54948 0.0
H490 H 0.70489 0.74351 0.55782 0.0
H491 H 0.69136 0.79286 0.58116 0.0
H492 H 0.88604 0.90377 0.5956 0.0
H493 H 0.92316 0.97169 0.59148 0.0
H494 H 0.92041 0.92699 0.5751 0.0
H495 H 0.88845 0.96772 0.55185 0.0
H496 H 0.89125 0.01261 0.56814 0.0
H497 H 0.83233 0.97248 0.5565 0.0
H498 H 0.69301 0.85734 0.60233 0.0
H499 H 0.71183 0.93101 0.62159 0.0
H500 H 0.86698 0.01316 0.60123 0.0
C501 C 0.82228 0.85315 0.55617 0.0
C502 C 0.78272 0.8034 0.5518 0.0
C503 C 0.7356 0.78168 0.561 0.0
C504 C 0.72756 0.80938 0.57424 0.0
C505 C 0.76736 0.85832 0.57828 0.0
C506 C 0.81398 0.87987 0.56966 0.0
C507 C 0.85084 0.9326 0.5769 0.0
C508 C 0.89789 0.9338 0.58527 0.0
C509 C 0.86663 0.97377 0.56249 0.0
C510 C 0.81739 0.93756 0.59076 0.0
C511 C 0.76925 0.89444 0.59122 0.0
C512 C 0.73075 0.89104 0.60227 0.0
C513 C 0.74172 0.93297 0.61311 0.0
C514 C 0.79096 0.97716 0.613 0.0
C515 C 0.82936 0.97927 0.6018 0.0
H516 H 0.98099 0.7864 0.72324 0.0
H517 H 0.87356 0.64431 0.69725 0.0
H518 H 0.80749 0.63145 0.71931 0.0
H519 H 0.9421 0.74074 0.76752 0.0
H520 H 0.95165 0.80129 0.77549 0.0
H521 H 0.98973 0.79967 0.75743 0.0
H522 H 0.96093 0.85139 0.73797 0.0
H523 H 0.92313 0.85362 0.75598 0.0
H524 H 0.89353 0.82815 0.7349 0.0
H525 H 0.75294 0.63627 0.74364 0.0
H526 H 0.71387 0.65746 0.76853 0.0
H527 H 0.85964 0.79368 0.77951 0.0
C528 C 0.94363 0.75264 0.72208 0.0
C529 C 0.93234 0.71649 0.70846 0.0
C530 C 0.88294 0.67259 0.70755 0.0
C531 C 0.84531 0.66492 0.72003 0.0
C532 C 0.85812 0.70114 0.73342 0.0
C533 C 0.90619 0.744 0.73455 0.0
C534 C 0.91072 0.7769 0.7503 0.0
C535 C 0.95094 0.77979 0.76346 0.0
C536 C 0.92277 0.83068 0.74443 0.0
C537 C 0.85724 0.74637 0.75776 0.0
C538 C 0.82747 0.70282 0.74782 0.0
C539 C 0.776 0.66992 0.75161 0.0
C540 C 0.75421 0.68229 0.76575 0.0
C541 C 0.78399 0.72691 0.77601 0.0
C542 C 0.83633 0.75882 0.77211 0.0
H543 H 0.20436 0.95149 0.89293 0.0
H544 H 0.14863 0.05851 0.88707 0.0
H545 H 0.07808 0.00716 0.90777 0.0
H546 H 0.08048 0.83878 0.89364 0.0
H547 H 0.09765 0.80551 0.90957 0.0
H548 H 0.14575 0.85229 0.89514 0.0
H549 H 0.20063 0.90183 0.92227 0.0
H550 H 0.15266 0.85518 0.93679 0.0
H551 H 0.17288 0.92214 0.93931 0.0
H552 H 0.01399 0.94486 0.92895 0.0
H553 H 0.95648 0.87202 0.94789 0.0
H554 H 0.05055 0.80241 0.93887 0.0
C555 C 0.17745 0.96419 0.89614 0.0
C556 C 0.18185 0.00892 0.88848 0.0
C557 C 0.14567 0.02414 0.89275 0.0
C558 C 0.10567 0.99542 0.90455 0.0
C559 C 0.10211 0.9513 0.91179 0.0
C560 C 0.13668 0.93542 0.90766 0.0
C561 C 0.1225 0.88509 0.91662 0.0
C562 C 0.1109 0.84293 0.90293 0.0
C563 C 0.16468 0.89147 0.92952 0.0
C564 C 0.07452 0.87519 0.92637 0.0
C565 C 0.06388 0.91422 0.92356 0.0
C566 C 0.02183 0.914 0.93125 0.0
C567 C 0.9895 0.87254 0.94202 0.0
C568 C 0.99906 0.8316 0.94482 0.0
C569 C 0.04222 0.8331 0.9369 0.0
H570 H 0.57866 0.44477 0.021 0.0
H571 H 0.63655 0.60569 0.01019 0.0
H572 H 0.55213 0.59521 0.01738 0.0
H573 H 0.46489 0.40139 2e-05 0.0
H574 H 0.42672 0.34999 0.01511 0.0
H575 H 0.49395 0.37244 0.01294 0.0
H576 H 0.50581 0.38977 0.04664 0.0
H577 H 0.43829 0.36721 0.04885 0.0
H578 H 0.48453 0.43006 0.05676 0.0
H579 H 0.45815 0.56421 0.02067 0.0
H580 H 0.36355 0.515 0.01925 0.0
H581 H 0.36717 0.37454 0.02814 0.0
C582 C 0.57395 0.47812 0.02082 0.0
C583 C 0.61468 0.52641 0.01573 0.0
C584 C 0.60669 0.56887 0.01491 0.0
C585 C 0.55863 0.56317 0.01883 0.0
C586 C 0.51893 0.51479 0.02356 0.0
C587 C 0.52624 0.47303 0.0247 0.0
C588 C 0.4762 0.42404 0.02795 0.0
C589 C 0.46479 0.38471 0.01312 0.0
C590 C 0.47622 0.40146 0.04614 0.0
C591 C 0.43934 0.44433 0.02753 0.0
C592 C 0.46462 0.49685 0.02532 0.0
C593 C 0.43798 0.52321 0.0228 0.0
C594 C 0.3842 0.49496 0.02203 0.0
C595 C 0.35782 0.4409 0.02359 0.0
C596 C 0.38599 0.41584 0.02701 0.0
H597 H 0.92992 0.39083 0.15283 0.0
H598 H 0.92634 0.39503 0.20989 0.0
H599 H 0.98245 0.48937 0.20926 0.0
H600 H 0.05736 0.47088 0.14978 0.0
H601 H 0.05712 0.50271 0.12967 0.0
H602 H 0.00605 0.43881 0.13405 0.0
H603 H 0.93918 0.46825 0.13059 0.0
H604 H 0.99009 0.53235 0.12588 0.0
H605 H 0.94554 0.52144 0.14349 0.0
H606 H 0.04788 0.58123 0.20253 0.0
H607 H 0.12085 0.66093 0.19052 0.0
H608 H 0.0881 0.59391 0.13819 0.0
C609 C 0.93888 0.41212 0.16509 0.0
C610 C 0.92256 0.38636 0.18138 0.0
C611 C 0.93744 0.41464 0.1973 0.0
C612 C 0.96929 0.4681 0.19704 0.0
C613 C 0.98656 0.49238 0.18075 0.0
C614 C 0.97189 0.4652 0.16505 0.0
C615 C 0.00229 0.49839 0.1496 0.0
C616 C 0.03248 0.47638 0.14024 0.0
C617 C 0.96717 0.50553 0.13663 0.0
C618 C 0.03762 0.54787 0.15911 0.0
C619 C 0.027 0.54425 0.17698 0.0
C620 C 0.05609 0.58467 0.18853 0.0
C621 C 0.09739 0.62968 0.18164 0.0
C622 C 0.10976 0.63316 0.1635 0.0
C623 C 0.07921 0.59197 0.15213 0.0
H624 H 0.53159 0.11916 0.35306 0.0
H625 H 0.39105 0.02388 0.3243 0.0
H626 H 0.3985 0.9478 0.33078 0.0
H627 H 0.5973 0.06341 0.33656 0.0
H628 H 0.63204 0.06803 0.35649 0.0
H629 H 0.61002 0.1126 0.35261 0.0
H630 H 0.56161 0.08721 0.38253 0.0
H631 H 0.58334 0.04212 0.38641 0.0
H632 H 0.51586 0.0209 0.3869 0.0
H633 H 0.42852 0.88476 0.3362 0.0
H634 H 0.48047 0.84247 0.33885 0.0
H635 H 0.60049 0.97842 0.36453 0.0
C636 C 0.50164 0.082 0.34859 0.0
C637 C 0.4599 0.07725 0.33869 0.0
C638 C 0.42219 0.02826 0.33258 0.0
C639 C 0.42627 0.98474 0.33611 0.0
C640 C 0.46816 0.99075 0.34583 0.0
C641 C 0.50508 0.03823 0.35205 0.0
C642 C 0.54935 0.03568 0.36035 0.0
C643 C 0.60013 0.07204 0.35093 0.0
C644 C 0.55271 0.04715 0.38023 0.0
C645 C 0.53288 0.98003 0.357 0.0
C646 C 0.48551 0.95436 0.34893 0.0
C647 C 0.46514 0.90411 0.34287 0.0
C648 C 0.49485 0.88027 0.34448 0.0
C649 C 0.54454 0.90702 0.35192 0.0
C650 C 0.56248 0.95663 0.35893 0.0
H651 H 0.4148 0.52881 0.51869 0.0
H652 H 0.36518 0.39425 0.48593 0.0
H653 H 0.44888 0.39946 0.49018 0.0
H654 H 0.53637 0.59729 0.5025 0.0
H655 H 0.56692 0.62589 0.52317 0.0
H656 H 0.50066 0.60627 0.51986 0.0
H657 H 0.4764 0.5493 0.54787 0.0
H658 H 0.54287 0.56884 0.55125 0.0
H659 H 0.49574 0.50173 0.5497 0.0
H660 H 0.54327 0.42858 0.49399 0.0
H661 H 0.63749 0.47748 0.49769 0.0
H662 H 0.62283 0.58971 0.52931 0.0
C663 C 0.42113 0.49961 0.51286 0.0
C664 C 0.38325 0.46055 0.50231 0.0
C665 C 0.39308 0.42356 0.49453 0.0
C666 C 0.44069 0.42641 0.4968 0.0
C667 C 0.4777 0.466 0.50709 0.0
C668 C 0.46805 0.50148 0.51521 0.0
C669 C 0.5152 0.54268 0.52441 0.0
C670 C 0.53068 0.59615 0.51704 0.0
C671 C 0.50705 0.54048 0.5445 0.0
C672 C 0.55359 0.52639 0.51948 0.0
C673 C 0.53139 0.48183 0.50964 0.0
C674 C 0.56082 0.46281 0.50206 0.0
C675 C 0.61436 0.4908 0.50423 0.0
C676 C 0.63778 0.53731 0.51389 0.0
C677 C 0.60643 0.55397 0.52206 0.0
H678 H 0.87982 0.42147 0.69516 0.0
H679 H 0.9773 0.36776 0.67331 0.0
H680 H 0.05361 0.45152 0.67978 0.0
H681 H 0.94017 0.53852 0.6766 0.0
H682 H 0.93335 0.57312 0.69484 0.0
H683 H 0.88842 0.50614 0.69216 0.0
H684 H 0.90849 0.48879 0.72388 0.0
H685 H 0.9538 0.5561 0.72659 0.0
H686 H 0.97373 0.50945 0.73003 0.0
H687 H 0.1167 0.54566 0.68304 0.0
H688 H 0.15964 0.64032 0.6828 0.0
H689 H 0.02147 0.63155 0.70374 0.0
C690 C 0.91747 0.42687 0.69243 0.0
C691 C 0.92294 0.38784 0.68429 0.0
C692 C 0.9725 0.39655 0.68023 0.0
C693 C 0.01605 0.44414 0.68377 0.0
C694 C 0.00937 0.48239 0.69152 0.0
C695 C 0.96124 0.47396 0.69603 0.0
C696 C 0.96352 0.52276 0.70224 0.0
C697 C 0.92939 0.53589 0.69077 0.0
C698 C 0.94904 0.51904 0.72185 0.0
C699 C 0.01979 0.56054 0.69945 0.0
C700 C 0.04597 0.53662 0.69358 0.0
C701 C 0.09696 0.5647 0.68808 0.0
C702 C 0.12113 0.61852 0.68801 0.0
C703 C 0.09406 0.64349 0.69328 0.0
C704 C 0.04356 0.61384 0.69979 0.0
H705 H 0.4552 0.86645 0.85097 0.0
H706 H 0.58951 0.95159 0.81819 0.0
H707 H 0.5874 0.03118 0.82408 0.0
H708 H 0.38968 0.92568 0.83698 0.0
H709 H 0.36255 0.92622 0.85814 0.0
H710 H 0.37957 0.87821 0.85341 0.0
H711 H 0.43753 0.90547 0.8812 0.0
H712 H 0.42067 0.9538 0.886 0.0
H713 H 0.48701 0.97142 0.88382 0.0
H714 H 0.56171 0.09842 0.82976 0.0
H715 H 0.51631 0.14649 0.83539 0.0
H716 H 0.40227 0.01801 0.8659 0.0
C717 C 0.48494 0.90217 0.84544 0.0
C718 C 0.52309 0.90313 0.83444 0.0
C719 C 0.56086 0.95027 0.82711 0.0
C720 C 0.55977 0.99566 0.83031 0.0
C721 C 0.52115 0.99336 0.84108 0.0
C722 C 0.48486 0.94784 0.84874 0.0
C723 C 0.44521 0.95456 0.85875 0.0
C724 C 0.39109 0.9191 0.85137 0.0
C725 C 0.44779 0.9458 0.87862 0.0
C726 C 0.46335 0.01029 0.85483 0.0
C727 C 0.50743 0.03235 0.84476 0.0
C728 C 0.5279 0.08193 0.83801 0.0
C729 C 0.50188 0.10902 0.84129 0.0
C730 C 0.45594 0.08643 0.85124 0.0
C731 C 0.43776 0.03707 0.85853 0.0
H732 H 0.52339 0.39697 0.789 0.0
H733 H 0.37479 0.33623 0.81378 0.0
H734 H 0.37582 0.41703 0.80783 0.0
H735 H 0.57697 0.51355 0.80712 0.0
H736 H 0.61428 0.54951 0.78832 0.0
H737 H 0.59639 0.4834 0.79066 0.0
H738 H 0.55352 0.46364 0.75979 0.0
H739 H 0.57148 0.53009 0.75736 0.0
H740 H 0.5054 0.48078 0.75505 0.0
H741 H 0.40143 0.51011 0.80511 0.0
H742 H 0.44911 0.60503 0.80541 0.0
H743 H 0.57878 0.60397 0.78102 0.0
C744 C 0.49017 0.40004 0.79244 0.0
C745 C 0.44845 0.35981 0.80137 0.0
C746 C 0.40637 0.36572 0.80633 0.0
C747 C 0.40671 0.41174 0.80308 0.0
C748 C 0.44914 0.45135 0.79466 0.0
C749 C 0.48977 0.44557 0.78913 0.0
C750 C 0.53345 0.49558 0.78235 0.0
C751 C 0.58314 0.51142 0.79274 0.0
C752 C 0.54141 0.49231 0.76245 0.0
C753 C 0.51255 0.53105 0.78606 0.0
C754 C 0.46351 0.50491 0.79284 0.0
C755 C 0.43926 0.53085 0.79933 0.0
C756 C 0.46655 0.5848 0.79943 0.0
C757 C 0.51761 0.61199 0.79321 0.0
C758 C 0.53963 0.58443 0.78574 0.0
H759 H 0.9147 0.5528 0.00242 0.0
H760 H 0.90499 0.53962 0.94548 0.0
H761 H 0.9585 0.49849 0.9459 0.0
H762 H 0.04231 0.59487 0.0042 0.0
H763 H 0.04189 0.56349 0.0245 0.0
H764 H 0.99292 0.57962 0.02041 0.0
H765 H 0.92249 0.48498 0.02499 0.0
H766 H 0.97127 0.46855 0.02944 0.0
H767 H 0.92456 0.43529 0.01237 0.0
H768 H 0.02158 0.46923 0.95224 0.0
H769 H 0.09143 0.45688 0.96373 0.0
H770 H 0.06583 0.4964 0.01632 0.0
C771 C 0.92179 0.53877 0.99017 0.0
C772 C 0.90436 0.54734 0.97396 0.0
C773 C 0.91684 0.5317 0.95802 0.0
C774 C 0.94728 0.50853 0.95817 0.0
C775 C 0.96559 0.50226 0.97435 0.0
C776 C 0.9533 0.51696 0.99008 0.0
C777 C 0.98389 0.51335 0.00532 0.0
C778 C 0.01722 0.56596 0.01411 0.0
C779 C 0.94843 0.47314 0.01882 0.0
C780 C 0.01635 0.49578 0.99566 0.0
C781 C 0.00439 0.48844 0.97788 0.0
C782 C 0.03069 0.47408 0.96617 0.0
C783 C 0.07021 0.46707 0.97281 0.0
C784 C 0.08351 0.47522 0.99091 0.0
C785 C 0.05619 0.48974 0.00243 0.0
H786 H 0.41073 0.92309 0.15369 0.0
H787 H 0.40172 0.90996 0.09683 0.0
H788 H 0.4955 0.96737 0.09474 0.0
H789 H 0.48383 0.04817 0.15399 0.0
H790 H 0.52241 0.05489 0.17307 0.0
H791 H 0.45964 0.99986 0.171 0.0
H792 H 0.49663 0.939 0.17394 0.0
H793 H 0.55976 0.99391 0.17658 0.0
H794 H 0.54801 0.94725 0.15964 0.0
H795 H 0.58609 0.03913 0.09853 0.0
H796 H 0.66476 0.11846 0.1079 0.0
H797 H 0.61135 0.09047 0.162 0.0
C798 C 0.42928 0.92961 0.14094 0.0
C799 C 0.39988 0.91058 0.12546 0.0
C800 C 0.42429 0.92265 0.10882 0.0
C801 C 0.47743 0.95549 0.10754 0.0
C802 C 0.50519 0.97639 0.12304 0.0
C803 C 0.48193 0.96349 0.13948 0.0
C804 C 0.51747 0.99819 0.15378 0.0
C805 C 0.49444 0.02695 0.16351 0.0
C806 C 0.5313 0.96777 0.16675 0.0
C807 C 0.56321 0.03425 0.14275 0.0
C808 C 0.55619 0.02027 0.12514 0.0
C809 C 0.59228 0.0499 0.11232 0.0
C810 C 0.63651 0.09492 0.11768 0.0
C811 C 0.64323 0.11023 0.13556 0.0
C812 C 0.60654 0.07931 0.14822 0.0
H813 H 0.46583 0.58835 0.30157 0.0
H814 H 0.61157 0.63405 0.32674 0.0
H815 H 0.60072 0.54885 0.32058 0.0
H816 H 0.40154 0.46828 0.31974 0.0
H817 H 0.36255 0.43677 0.30069 0.0
H818 H 0.38628 0.50391 0.30416 0.0
H819 H 0.42851 0.5239 0.27317 0.0
H820 H 0.40484 0.45657 0.26961 0.0
H821 H 0.47231 0.50178 0.26753 0.0
H822 H 0.56803 0.45463 0.31544 0.0
H823 H 0.51571 0.36049 0.3125 0.0
H824 H 0.39149 0.37694 0.29074 0.0
C825 C 0.49612 0.58088 0.30536 0.0
C826 C 0.54022 0.61846 0.31417 0.0
C827 C 0.57843 0.60681 0.31932 0.0
C828 C 0.5724 0.55822 0.31599 0.0
C829 C 0.52806 0.52178 0.30744 0.0
C830 C 0.4907 0.53273 0.30211 0.0
C831 C 0.44432 0.4857 0.29483 0.0
C832 C 0.39585 0.47292 0.3055 0.0
C833 C 0.43709 0.4924 0.27511 0.0
C834 C 0.46039 0.44602 0.29759 0.0
C835 C 0.50911 0.46756 0.30461 0.0
C836 C 0.53021 0.43749 0.30965 0.0
C837 C 0.5002 0.38399 0.30791 0.0
C838 C 0.44947 0.36114 0.30134 0.0
C839 C 0.43026 0.39299 0.29564 0.0
H840 H 0.88539 0.47649 0.45523 0.0
H841 H 0.97658 0.62004 0.48299 0.0
H842 H 0.0533 0.61244 0.47878 0.0
H843 H 0.93748 0.41339 0.47556 0.0
H844 H 0.93601 0.37575 0.45682 0.0
H845 H 0.89119 0.39836 0.45819 0.0
H846 H 0.9217 0.44267 0.42774 0.0
H847 H 0.96675 0.42001 0.42627 0.0
H848 H 0.98871 0.48746 0.4242 0.0
H849 H 0.11712 0.58203 0.47613 0.0
H850 H 0.1598 0.53007 0.47626 0.0
H851 H 0.02673 0.40577 0.45079 0.0
C852 C 0.92189 0.50727 0.45984 0.0
C853 C 0.92501 0.54976 0.46886 0.0
C854 C 0.97321 0.58834 0.47527 0.0
C855 C 0.0172 0.58411 0.47308 0.0
C856 C 0.01254 0.5411 0.46445 0.0
C857 C 0.96602 0.50345 0.45784 0.0
C858 C 0.96941 0.45783 0.45125 0.0
C859 C 0.9313 0.40847 0.46105 0.0
C860 C 0.96117 0.45165 0.43117 0.0
C861 C 0.02427 0.47446 0.45602 0.0
C862 C 0.04902 0.52306 0.46326 0.0
C863 C 0.09847 0.54437 0.47015 0.0
C864 C 0.12252 0.51462 0.47014 0.0
C865 C 0.09672 0.46388 0.46351 0.0
C866 C 0.04774 0.44457 0.45583 0.0
H867 H 0.41388 0.894 0.63867 0.0
H868 H 0.36929 0.97958 0.67324 0.0
H869 H 0.45397 0.05696 0.669 0.0
H870 H 0.53583 0.94291 0.65418 0.0
H871 H 0.56497 0.9451 0.63317 0.0
H872 H 0.49844 0.89971 0.63669 0.0
H873 H 0.47454 0.93543 0.6094 0.0
H874 H 0.54128 0.9812 0.60583 0.0
H875 H 0.49565 0.00287 0.6082 0.0
H876 H 0.54855 0.1209 0.66459 0.0
H877 H 0.64254 0.16399 0.66046 0.0
H878 H 0.62288 0.03708 0.62775 0.0
C879 C 0.42156 0.92945 0.64496 0.0
C880 C 0.3848 0.93116 0.65598 0.0
C881 C 0.39635 0.97785 0.66429 0.0
C882 C 0.44449 0.02197 0.66202 0.0
C883 C 0.4803 0.01887 0.6512 0.0
C884 C 0.46904 0.97382 0.64264 0.0
C885 C 0.51517 0.97888 0.63296 0.0
C886 C 0.52943 0.93934 0.63966 0.0
C887 C 0.5061 0.97434 0.61291 0.0
C888 C 0.55489 0.03287 0.63813 0.0
C889 C 0.53417 0.05579 0.64845 0.0
C890 C 0.56496 0.10377 0.65619 0.0
C891 C 0.61834 0.12807 0.65375 0.0
C892 C 0.64023 0.1041 0.64374 0.0
C893 C 0.60757 0.05683 0.63535 0.0
H894 H 0.24185 0.19703 0.89188 0.0
H895 H 0.39509 0.32773 0.88746 0.0
H896 H 0.37035 0.37746 0.90705 0.0
H897 H 0.16833 0.26411 0.89975 0.0
H898 H 0.12955 0.21869 0.91649 0.0
H899 H 0.15392 0.19849 0.89831 0.0
H900 H 0.19631 0.16483 0.92025 0.0
H901 H 0.17156 0.18422 0.9384 0.0
H902 H 0.23935 0.20749 0.93686 0.0
H903 H 0.332 0.40945 0.9296 0.0
H904 H 0.29199 0.4154 0.95731 0.0
H905 H 0.17 0.25853 0.95068 0.0
C906 C 0.27013 0.2363 0.89487 0.0
C907 C 0.3201 0.25888 0.88787 0.0
C908 C 0.356 0.3103 0.89215 0.0
C909 C 0.34226 0.33875 0.90329 0.0
C910 C 0.29283 0.3148 0.91031 0.0
C911 C 0.25771 0.26427 0.90651 0.0
C912 C 0.21116 0.24388 0.91834 0.0
C913 C 0.16288 0.23052 0.90757 0.0
C914 C 0.20424 0.19741 0.9291 0.0
C915 C 0.2264 0.29018 0.92993 0.0
C916 C 0.27247 0.33147 0.92454 0.0
C917 C 0.29566 0.37763 0.9338 0.0
C918 C 0.2725 0.38082 0.94944 0.0
C919 C 0.22777 0.33754 0.95588 0.0
C920 C 0.20364 0.29233 0.94575 0.0
H921 H 0.01493 0.2767 0.05143 0.0
H922 H 0.14391 0.26402 0.07034 0.0
H923 H 0.1025 0.23547 0.09934 0.0
H924 H 0.99864 0.32984 0.09119 0.0
H925 H 0.92975 0.29732 0.08996 0.0
H926 H 0.96704 0.31177 0.07004 0.0
H927 H 0.91677 0.21576 0.06128 0.0
H928 H 0.87967 0.20098 0.0813 0.0
H929 H 0.91456 0.16834 0.07632 0.0
H930 H 0.05096 0.21336 0.12645 0.0
H931 H 0.99455 0.20505 0.15126 0.0
H932 H 0.89876 0.23372 0.11564 0.0
C933 C 0.03396 0.2674 0.06169 0.0
C934 C 0.08183 0.27112 0.05859 0.0
C935 C 0.1064 0.25973 0.07232 0.0
C936 C 0.0833 0.24367 0.08884 0.0
C937 C 0.03582 0.23967 0.09147 0.0
C938 C 0.0115 0.25163 0.0784 0.0
C939 C 0.96245 0.24771 0.08526 0.0
C940 C 0.96463 0.29975 0.08405 0.0
C941 C 0.91559 0.20569 0.07546 0.0
C942 C 0.9637 0.23266 0.10428 0.0
C943 C 0.00609 0.22764 0.10745 0.0
C944 C 0.01734 0.21672 0.12415 0.0
C945 C 0.9851 0.21212 0.13815 0.0
C946 C 0.94225 0.21859 0.13536 0.0
C947 C 0.93079 0.22778 0.11811 0.0
H948 H 0.71533 0.00227 0.3018 0.0
H949 H 0.66391 0.85452 0.27709 0.0
H950 H 0.67447 0.8949 0.24756 0.0
H951 H 0.65104 0.04449 0.27161 0.0
H952 H 0.7019 0.1103 0.27249 0.0
H953 H 0.68926 0.0691 0.29131 0.0
H954 H 0.78355 0.08888 0.29115 0.0
H955 H 0.79657 0.13078 0.27259 0.0
H956 H 0.80994 0.07889 0.27117 0.0
H957 H 0.69869 0.95522 0.22076 0.0
H958 H 0.73495 0.02851 0.19983 0.0
H959 H 0.76092 0.1326 0.24307 0.0
C960 C 0.70661 0.97821 0.29021 0.0
C961 C 0.68977 0.92546 0.29166 0.0
C962 C 0.67744 0.89519 0.27619 0.0
C963 C 0.68301 0.91774 0.25944 0.0
C964 C 0.69951 0.97009 0.25856 0.0
C965 C 0.71068 0.99963 0.27363 0.0
C966 C 0.72827 0.05493 0.26947 0.0
C967 C 0.69034 0.0706 0.27664 0.0
C968 C 0.7828 0.09043 0.27651 0.0
C969 C 0.72716 0.05273 0.24959 0.0
C970 C 0.71031 0.00356 0.24343 0.0
C971 C 0.71097 0.99358 0.22546 0.0
C972 C 0.73125 0.0352 0.21367 0.0
C973 C 0.75037 0.08568 0.22001 0.0
C974 C 0.74609 0.0941 0.238 0.0
H975 H 0.72173 0.73878 0.38419 0.0
H976 H 0.694 0.85527 0.40657 0.0
H977 H 0.72144 0.84222 0.43576 0.0
H978 H 0.67456 0.65415 0.42344 0.0
H979 H 0.72102 0.63353 0.42111 0.0
H980 H 0.69844 0.65144 0.40188 0.0
H981 H 0.79222 0.71726 0.39366 0.0
H982 H 0.81499 0.70044 0.4131 0.0
H983 H 0.83188 0.76612 0.40936 0.0
H984 H 0.75917 0.82406 0.46126 0.0
H985 H 0.78672 0.78717 0.48464 0.0
H986 H 0.78405 0.67582 0.44742 0.0
C987 C 0.72066 0.76065 0.39537 0.0
C988 C 0.70693 0.79878 0.39321 0.0
C989 C 0.70538 0.82658 0.40803 0.0
C990 C 0.72107 0.81962 0.42459 0.0
C991 C 0.73695 0.78375 0.4262 0.0
C992 C 0.73537 0.75343 0.41223 0.0
C993 C 0.75269 0.71624 0.41807 0.0
C994 C 0.70907 0.66054 0.41601 0.0
C995 C 0.80081 0.7256 0.40794 0.0
C996 C 0.76467 0.73105 0.43738 0.0
C997 C 0.75611 0.77077 0.44156 0.0
C998 C 0.76524 0.79235 0.4583 0.0
C999 C 0.78117 0.77115 0.47148 0.0
C1000 C 0.78696 0.72806 0.46797 0.0
C1001 C 0.78 0.7087 0.45053 0.0
H1002 H 0.88116 0.65459 0.57562 0.0
H1003 H 0.9959 0.70154 0.53462 0.0
H1004 H 0.06413 0.7322 0.55749 0.0
H1005 H 0.94701 0.76203 0.60099 0.0
H1006 H 0.92619 0.73029 0.62203 0.0
H1007 H 0.88665 0.7032 0.60282 0.0
H1008 H 0.886 0.6176 0.6075 0.0
H1009 H 0.9245 0.64393 0.62704 0.0
H1010 H 0.94584 0.61819 0.60964 0.0
H1011 H 0.11992 0.76597 0.58552 0.0
H1012 H 0.15656 0.79572 0.61546 0.0
H1013 H 0.00277 0.73131 0.63665 0.0
C1014 C 0.92059 0.66991 0.57153 0.0
C1015 C 0.93373 0.67584 0.55354 0.0
C1016 C 0.98546 0.69644 0.54846 0.0
C1017 C 0.02428 0.71414 0.56134 0.0
C1018 C 0.01024 0.71057 0.57908 0.0
C1019 C 0.95941 0.68836 0.58411 0.0
C1020 C 0.95389 0.69316 0.60369 0.0
C1021 C 0.92686 0.72401 0.6076 0.0
C1022 C 0.92593 0.64006 0.61248 0.0
C1023 C 0.00952 0.72247 0.60896 0.0
C1024 C 0.04173 0.73173 0.59475 0.0
C1025 C 0.09492 0.75866 0.59673 0.0
C1026 C 0.11541 0.77569 0.61373 0.0
C1027 C 0.08263 0.76644 0.62837 0.0
C1028 C 0.02913 0.73979 0.62576 0.0
H1029 H 0.25964 0.98721 0.72229 0.0
H1030 H 0.13766 0.84307 0.74264 0.0
H1031 H 0.14904 0.88125 0.77225 0.0
H1032 H 0.34017 0.01905 0.7615 0.0
H1033 H 0.36273 0.08674 0.75996 0.0
H1034 H 0.3445 0.04803 0.74027 0.0
H1035 H 0.2809 0.07932 0.73254 0.0
H1036 H 0.29821 0.1173 0.75241 0.0
H1037 H 0.23217 0.07035 0.74826 0.0
H1038 H 0.17085 0.93442 0.79906 0.0
H1039 H 0.21071 0.99662 0.82321 0.0
H1040 H 0.32123 0.10668 0.78623 0.0
C1041 C 0.23588 0.96386 0.73309 0.0
C1042 C 0.19718 0.91269 0.73028 0.0
C1043 C 0.16682 0.88275 0.74459 0.0
C1044 C 0.17293 0.90405 0.7614 0.0
C1045 C 0.21006 0.95515 0.76369 0.0
C1046 C 0.24178 0.98453 0.75009 0.0
C1047 C 0.27988 0.03799 0.75647 0.0
C1048 C 0.33509 0.04855 0.75443 0.0
C1049 C 0.27231 0.07863 0.74684 0.0
C1050 C 0.2645 0.03377 0.77573 0.0
C1051 C 0.22371 0.98581 0.77949 0.0
C1052 C 0.20296 0.97213 0.79635 0.0
C1053 C 0.22579 0.00785 0.80996 0.0
C1054 C 0.2692 0.05651 0.80665 0.0
C1055 C 0.28786 0.07 0.78918 0.0
H1056 H 0.73438 0.80095 0.85955 0.0
H1057 H 0.57987 0.67174 0.8569 0.0
H1058 H 0.59299 0.63921 0.88524 0.0
H1059 H 0.79443 0.73914 0.87709 0.0
H1060 H 0.83614 0.78919 0.89208 0.0
H1061 H 0.81366 0.805 0.87237 0.0
H1062 H 0.77625 0.85068 0.89105 0.0
H1063 H 0.79939 0.83575 0.91083 0.0
H1064 H 0.73261 0.8166 0.90884 0.0
H1065 H 0.62906 0.61276 0.91022 0.0
H1066 H 0.67976 0.60193 0.93355 0.0
H1067 H 0.80462 0.75613 0.92364 0.0
C1068 C 0.70304 0.76664 0.86526 0.0
C1069 C 0.6561 0.73876 0.85626 0.0
C1070 C 0.61584 0.69375 0.86385 0.0
C1071 C 0.62302 0.67493 0.87984 0.0
C1072 C 0.67016 0.70256 0.88828 0.0
C1073 C 0.70893 0.74833 0.88158 0.0
C1074 C 0.75591 0.77024 0.89328 0.0
C1075 C 0.80278 0.77622 0.88309 0.0
C1076 C 0.76666 0.82135 0.90149 0.0
C1077 C 0.73827 0.72848 0.9071 0.0
C1078 C 0.68895 0.68952 0.90385 0.0
C1079 C 0.66688 0.64396 0.91342 0.0
C1080 C 0.69587 0.63833 0.92678 0.0
C1081 C 0.74577 0.67864 0.93084 0.0
C1082 C 0.76669 0.7245 0.92094 0.0
H1083 H 0.99413 0.76806 0.01136 0.0
H1084 H 0.8534 0.67695 0.04078 0.0
H1085 H 0.90215 0.70401 0.06865 0.0
H1086 H 0.06916 0.73594 0.03621 0.0
H1087 H 0.12647 0.79786 0.03532 0.0
H1088 H 0.08012 0.77818 0.01782 0.0
H1089 H 0.0724 0.8593 0.02244 0.0
H1090 H 0.11953 0.87986 0.03978 0.0
H1091 H 0.0578 0.87343 0.0441 0.0
H1092 H 0.96761 0.7326 0.09302 0.0
H1093 H 0.04455 0.76627 0.11213 0.0
H1094 H 0.14161 0.8365 0.06655 0.0
C1095 C 0.97319 0.75489 0.02365 0.0
C1096 C 0.91984 0.72042 0.02384 0.0
C1097 C 0.89419 0.70355 0.04026 0.0
C1098 C 0.92157 0.71864 0.05618 0.0
C1099 C 0.97446 0.75083 0.05544 0.0
C1100 C -0.00011 0.76934 0.03961 0.0
C1101 C 0.05722 0.80047 0.04226 0.0
C1102 C 0.08483 0.77666 0.03232 0.0
C1103 C 0.07795 0.8566 0.03683 0.0
C1104 C 0.0602 0.79547 0.06201 0.0
C1105 C 0.01208 0.76701 0.06942 0.0
C1106 C 0.00542 0.75553 0.0874 0.0
C1107 C 0.04913 0.77436 0.0981 0.0
C1108 C 0.0985 0.80406 0.09072 0.0
C1109 C 0.10404 0.81439 0.07247 0.0
H1110 H 0.27532 0.01038 0.17452 0.0
H1111 H 0.23622 0.86066 0.19516 0.0
H1112 H 0.24774 0.89448 0.22552 0.0
H1113 H 0.37292 0.08364 0.20541 0.0
H1114 H 0.35723 0.13388 0.20721 0.0
H1115 H 0.34356 0.09745 0.1871 0.0
H1116 H 0.24817 0.07297 0.18916 0.0
H1117 H 0.26162 0.10972 0.20921 0.0
H1118 H 0.21255 0.04312 0.20898 0.0
H1119 H 0.26838 0.94608 0.25365 0.0
H1120 H 0.29017 0.01039 0.27744 0.0
H1121 H 0.31486 0.12536 0.23833 0.0
C1122 C 0.26856 0.98443 0.1854 0.0
C1123 C 0.2549 0.93283 0.18241 0.0
C1124 C 0.24665 0.90033 0.19707 0.0
C1125 C 0.25322 0.91921 0.21438 0.0
C1126 C 0.26778 0.97054 0.21682 0.0
C1127 C 0.27483 0.00255 0.20273 0.0
C1128 C 0.29101 0.05634 0.20889 0.0
C1129 C 0.34435 0.0951 0.20173 0.0
C1130 C 0.25094 0.0714 0.20376 0.0
C1131 C 0.29224 0.04968 0.22864 0.0
C1132 C 0.27893 0.99997 0.23297 0.0
C1133 C 0.2784 0.98498 0.25043 0.0
C1134 C 0.29097 0.02161 0.26381 0.0
C1135 C 0.30336 0.07221 0.2596 0.0
C1136 C 0.30465 0.08653 0.24181 0.0
H1137 H 0.16563 0.2807 0.41014 0.0
H1138 H 0.27546 0.28993 0.44894 0.0
H1139 H 0.31225 0.25648 0.42687 0.0
H1140 H 0.14391 0.16297 0.38895 0.0
H1141 H 0.13878 0.18427 0.3672 0.0
H1142 H 0.12017 0.20686 0.38629 0.0
H1143 H 0.18287 0.30094 0.37718 0.0
H1144 H 0.2012 0.27862 0.35801 0.0
H1145 H 0.24935 0.32108 0.37342 0.0
H1146 H 0.33772 0.22385 0.40024 0.0
H1147 H 0.35548 0.20252 0.37056 0.0
H1148 H 0.22756 0.21394 0.3495 0.0
C1149 C 0.19705 0.27507 0.414 0.0
C1150 C 0.2175 0.28708 0.43119 0.0
C1151 C 0.25941 0.28068 0.43576 0.0
C1152 C 0.28015 0.26137 0.42339 0.0
C1153 C 0.2584 0.24884 0.40658 0.0
C1154 C 0.218 0.2558 0.40185 0.0
C1155 C 0.20312 0.24184 0.38274 0.0
C1156 C 0.14824 0.19627 0.38121 0.0
C1157 C 0.20955 0.28839 0.37222 0.0
C1158 C 0.24214 0.22687 0.3773 0.0
C1159 C 0.27324 0.23048 0.39128 0.0
C1160 C 0.31343 0.22061 0.38922 0.0
C1161 C 0.3231 0.20836 0.37231 0.0
C1162 C 0.29296 0.20657 0.35767 0.0
C1163 C 0.25115 0.21462 0.3604 0.0
H1164 H 0.94359 0.18288 0.5931 0.0
H1165 H 0.91847 0.31165 0.60015 0.0
H1166 H 0.98142 0.3587 0.57677 0.0
H1167 H 0.07615 0.2496 0.57912 0.0
H1168 H 0.06635 0.20405 0.56198 0.0
H1169 H 0.02661 0.18356 0.58144 0.0
H1170 H 0.9452 0.1479 0.56199 0.0
H1171 H 0.98459 0.16764 0.54249 0.0
H1172 H 0.93947 0.18941 0.54616 0.0
H1173 H 0.04687 0.39176 0.55272 0.0
H1174 H 0.09511 0.40202 0.5252 0.0
H1175 H 0.06359 0.24545 0.52961 0.0
C1176 C 0.95107 0.22088 0.58974 0.0
C1177 C 0.92733 0.24422 0.599 0.0
C1178 C 0.93813 0.29393 0.59398 0.0
C1179 C 0.97354 0.32083 0.58058 0.0
C1180 C 0.99639 0.29675 0.57183 0.0
C1181 C 0.98436 0.24728 0.57581 0.0
C1182 C 0.00835 0.22743 0.56269 0.0
C1183 C 0.04664 0.21547 0.57186 0.0
C1184 C 0.96694 0.18032 0.55274 0.0
C1185 C 0.03551 0.2735 0.55063 0.0
C1186 C 0.02955 0.31364 0.55657 0.0
C1187 C 0.05165 0.36059 0.54788 0.0
C1188 C 0.07922 0.36618 0.53238 0.0
C1189 C 0.08304 0.32459 0.52548 0.0
C1190 C 0.06137 0.27782 0.53478 0.0
H1191 H 0.78306 0.01412 0.68484 0.0
H1192 H 0.80389 0.1521 0.71062 0.0
H1193 H 0.77914 0.10636 0.73905 0.0
H1194 H 0.67355 0.92908 0.70679 0.0
H1195 H 0.68863 0.87848 0.70887 0.0
H1196 H 0.71513 0.92345 0.69095 0.0
H1197 H 0.807 0.94701 0.7003 0.0
H1198 H 0.78078 0.90131 0.71809 0.0
H1199 H 0.8277 0.9671 0.72268 0.0
H1200 H 0.74002 0.04249 0.76368 0.0
H1201 H 0.69979 0.96713 0.78359 0.0
H1202 H 0.70604 0.87186 0.74191 0.0
C1203 C 0.78392 0.03524 0.69654 0.0
C1204 C 0.79543 0.08674 0.69545 0.0
C1205 C 0.79552 0.11273 0.71108 0.0
C1206 C 0.7813 0.08702 0.72731 0.0
C1207 C 0.7678 0.03558 0.72774 0.0
C1208 C 0.77006 0.01025 0.71285 0.0
C1209 C 0.75101 0.95425 0.71664 0.0
C1210 C 0.70431 0.91929 0.70513 0.0
C1211 C 0.79421 0.94169 0.71429 0.0
C1212 C 0.73621 0.95173 0.73585 0.0
C1213 C 0.74621 0.99902 0.74203 0.0
C1214 C 0.73292 0.00548 0.7591 0.0
C1215 C 0.70975 0.96259 0.77023 0.0
C1216 C 0.70053 0.91429 0.76422 0.0
C1217 C 0.7136 0.90877 0.74682 0.0
loop_
_geom_bond_atom_site_label_1
_geom_bond_atom_site_label_2
_geom_bond_distance
_geom_bond_site_symmetry_2
_ccdc_geom_bond_type
Co0 O3 1.970 . S
Co0 N17 1.989 . S
Co0 O25 1.967 . S
Co0 O32 1.920 . S
Co1 O4 1.966 1_554 S
Co1 N10 2.022 . S
Co1 N18 1.993 . S
Co1 O26 1.941 . S
C2 O3 1.258 1_556 S
C2 O4 1.263 . S
O3 Co0 1.970 . S
O3 C2 1.258 1_554 S
O4 Co1 1.966 1_556 S
O4 C2 1.263 . S
C5 O6 1.235 . S
C5 O32 1.289 . S
O6 C5 1.235 . S
C7 C9 1.400 . S
C7 N10 1.351 1_556 S
C7 C12 1.501 . S
C8 C9 1.387 1_554 S
C8 N11 1.341 . S
C9 C7 1.400 . S
C9 C8 1.387 1_556 S
N10 Co1 2.022 . S
N10 C7 1.351 1_554 S
N10 N11 1.365 . S
N11 C8 1.341 . S
N11 N10 1.365 . S
N11 H31 0.862 . S
C12 C7 1.501 . S
C12 H13 0.961 . S
C12 H14 0.961 . S
C12 H15 0.960 . S
H13 C12 0.961 . S
H14 C12 0.961 . S
H15 C12 0.960 . S
C16 N17 1.342 . S
C16 C20 1.401 . S
C16 C21 1.499 . S
N17 Co0 1.989 . S
N17 C16 1.342 . S
N17 N18 1.388 . S
N18 Co1 1.993 . S
N18 N17 1.388 . S
N18 C19 1.346 . S
C19 N18 1.346 . S
C19 C20 1.396 . S
C19 C29 1.510 . S
C20 C16 1.401 . S
C20 C19 1.396 . S
C21 C16 1.499 . S
C21 H22 0.959 . S
C21 H23 0.960 . S
C21 H24 0.961 . S
H22 C21 0.959 . S
H23 C21 0.960 . S
H24 C21 0.961 . S
O25 Co0 1.967 . S
O25 C33 1.258 . S
O26 Co1 1.941 . S
O26 C33 1.266 . S
H27 C29 0.959 . S
H28 C29 0.961 . S
C29 C19 1.510 . S
C29 H27 0.959 . S
C29 H28 0.961 . S
C29 H30 0.960 . S
H30 C29 0.960 . S
H31 N11 0.862 . S
O32 Co0 1.920 . S
O32 C5 1.289 . S
C33 O25 1.258 . S
C33 O26 1.266 . S
Co34 O37 1.970 . S
Co34 N51 1.989 . S
Co34 O59 1.967 . S
Co34 O66 1.920 . S
Co35 O38 1.966 . S
Co35 N44 2.022 . S
Co35 N52 1.993 . S
Co35 O60 1.941 . S
C36 O37 1.258 . S
C36 O38 1.263 . S
O37 Co34 1.970 . S
O37 C36 1.258 . S
O38 Co35 1.966 . S
O38 C36 1.263 . S
C39 O40 1.235 . S
C39 O66 1.289 . S
O40 C39 1.235 . S
C41 C43 1.400 . S
C41 N44 1.351 . S
C41 C46 1.501 . S
C42 C43 1.387 . S
C42 N45 1.341 . S
C43 C41 1.400 . S
C43 C42 1.387 . S
N44 Co35 2.022 . S
N44 C41 1.351 . S
N44 N45 1.365 . S
N45 C42 1.341 . S
N45 N44 1.365 . S
N45 H65 0.862 . S
C46 C41 1.501 . S
C46 H47 0.961 . S
C46 H48 0.961 . S
C46 H49 0.960 . S
H47 C46 0.961 . S
H48 C46 0.961 . S
H49 C46 0.960 . S
C50 N51 1.342 . S
C50 C54 1.401 . S
C50 C55 1.499 . S
N51 Co34 1.989 . S
N51 C50 1.342 . S
N51 N52 1.388 . S
N52 Co35 1.993 . S
N52 N51 1.388 . S
N52 C53 1.346 . S
C53 N52 1.346 . S
C53 C54 1.396 . S
C53 C63 1.510 . S
C54 C50 1.401 . S
C54 C53 1.396 . S
C55 C50 1.499 . S
C55 H56 0.959 . S
C55 H57 0.960 . S
C55 H58 0.961 . S
H56 C55 0.959 . S
H57 C55 0.960 . S
H58 C55 0.961 . S
O59 Co34 1.967 . S
O59 C67 1.258 . S
O60 Co35 1.941 . S
O60 C67 1.266 . S
H61 C63 0.959 . S
H62 C63 0.961 . S
C63 C53 1.510 . S
C63 H61 0.959 . S
C63 H62 0.961 . S
C63 H64 0.960 . S
H64 C63 0.960 . S
H65 N45 0.862 . S
O66 Co34 1.920 . S
O66 C39 1.289 . S
C67 O59 1.258 . S
C67 O60 1.266 . S
Co68 O71 1.970 . S
Co68 N85 1.989 . S
Co68 O93 1.967 . S
Co68 O100 1.920 . S
Co69 O72 1.966 . S
Co69 N78 2.022 . S
Co69 N86 1.993 . S
Co69 O94 1.941 . S
C70 O71 1.258 . S
C70 O72 1.263 . S
O71 Co68 1.970 . S
O71 C70 1.258 . S
O72 Co69 1.966 . S
O72 C70 1.263 . S
C73 O74 1.235 . S
C73 O100 1.289 . S
O74 C73 1.235 . S
C75 C77 1.400 . S
C75 N78 1.351 . S
C75 C80 1.501 . S
C76 C77 1.387 . S
C76 N79 1.341 . S
C77 C75 1.400 . S
C77 C76 1.387 . S
N78 Co69 2.022 . S
N78 C75 1.351 . S
N78 N79 1.365 . S
N79 C76 1.341 . S
N79 N78 1.365 . S
N79 H99 0.862 . S
C80 C75 1.501 . S
C80 H81 0.961 . S
C80 H82 0.961 . S
C80 H83 0.960 . S
H81 C80 0.961 . S
H82 C80 0.961 . S
H83 C80 0.960 . S
C84 N85 1.342 . S
C84 C88 1.401 . S
C84 C89 1.499 . S
N85 Co68 1.989 . S
N85 C84 1.342 . S
N85 N86 1.388 . S
N86 Co69 1.993 . S
N86 N85 1.388 . S
N86 C87 1.346 . S
C87 N86 1.346 . S
C87 C88 1.396 . S
C87 C97 1.510 . S
C88 C84 1.401 . S
C88 C87 1.396 . S
C89 C84 1.499 . S
C89 H90 0.959 . S
C89 H91 0.960 . S
C89 H92 0.961 . S
H90 C89 0.959 . S
H91 C89 0.960 . S
H92 C89 0.961 . S
O93 Co68 1.967 . S
O93 C101 1.258 . S
O94 Co69 1.941 . S
O94 C101 1.266 . S
H95 C97 0.959 . S
H96 C97 0.961 . S
C97 C87 1.510 . S
C97 H95 0.959 . S
C97 H96 0.961 . S
C97 H98 0.960 . S
H98 C97 0.960 . S
H99 N79 0.862 . S
O100 Co68 1.920 . S
O100 C73 1.289 . S
C101 O93 1.258 . S
C101 O94 1.266 . S
Co102 O105 1.970 . S
Co102 N119 1.989 . S
Co102 O127 1.967 . S
Co102 O134 1.920 . S
Co103 O106 1.966 . S
Co103 N112 2.022 . S
Co103 N120 1.993 . S
Co103 O128 1.941 . S
C104 O105 1.258 . S
C104 O106 1.263 . S
O105 Co102 1.970 . S
O105 C104 1.258 . S
O106 Co103 1.966 . S
O106 C104 1.263 . S
C107 O108 1.235 . S
C107 O134 1.289 . S
O108 C107 1.235 . S
C109 C111 1.400 . S
C109 N112 1.351 . S
C109 C114 1.501 . S
C110 C111 1.387 . S
C110 N113 1.341 . S
C111 C109 1.400 . S
C111 C110 1.387 . S
N112 Co103 2.022 . S
N112 C109 1.351 . S
N112 N113 1.365 . S
N113 C110 1.341 . S
N113 N112 1.365 . S
N113 H133 0.862 . S
C114 C109 1.501 . S
C114 H115 0.961 . S
C114 H116 0.961 . S
C114 H117 0.960 . S
H115 C114 0.961 . S
H116 C114 0.961 . S
H117 C114 0.960 . S
C118 N119 1.342 . S
C118 C122 1.401 . S
C118 C123 1.499 . S
N119 Co102 1.989 . S
N119 C118 1.342 . S
N119 N120 1.388 . S
N120 Co103 1.993 . S
N120 N119 1.388 . S
N120 C121 1.346 . S
C121 N120 1.346 . S
C121 C122 1.396 . S
C121 C131 1.510 . S
C122 C118 1.401 . S
C122 C121 1.396 . S
C123 C118 1.499 . S
C123 H124 0.959 . S
C123 H125 0.960 . S
C123 H126 0.961 . S
H124 C123 0.959 . S
H125 C123 0.960 . S
H126 C123 0.961 . S
O127 Co102 1.967 . S
O127 C135 1.258 . S
O128 Co103 1.941 . S
O128 C135 1.266 . S
H129 C131 0.959 . S
H130 C131 0.961 . S
C131 C121 1.510 . S
C131 H129 0.959 . S
C131 H130 0.961 . S
C131 H132 0.960 . S
H132 C131 0.960 . S
H133 N113 0.862 . S
O134 Co102 1.920 . S
O134 C107 1.289 . S
C135 O127 1.258 . S
C135 O128 1.266 . S
Co136 O139 1.970 . S
Co136 N153 1.989 . S
Co136 O161 1.967 . S
Co136 O168 1.920 . S
Co137 O140 1.966 . S
Co137 N146 2.022 . S
Co137 N154 1.993 . S
Co137 O162 1.941 . S
C138 O139 1.258 . S
C138 O140 1.263 . S
O139 Co136 1.970 . S
O139 C138 1.258 . S
O140 Co137 1.966 . S
O140 C138 1.263 . S
C141 O142 1.235 . S
C141 O168 1.289 . S
O142 C141 1.235 . S
C143 C145 1.400 . S
C143 N146 1.351 . S
C143 C148 1.501 . S
C144 C145 1.387 . S
C144 N147 1.341 . S
C145 C143 1.400 . S
C145 C144 1.387 . S
N146 Co137 2.022 . S
N146 C143 1.351 . S
N146 N147 1.365 . S
N147 C144 1.341 . S
N147 N146 1.365 . S
N147 H167 0.862 . S
C148 C143 1.501 . S
C148 H149 0.961 . S
C148 H150 0.961 . S
C148 H151 0.960 . S
H149 C148 0.961 . S
H150 C148 0.961 . S
H151 C148 0.960 . S
C152 N153 1.342 . S
C152 C156 1.401 . S
C152 C157 1.499 . S
N153 Co136 1.989 . S
N153 C152 1.342 . S
N153 N154 1.388 . S
N154 Co137 1.993 . S
N154 N153 1.388 . S
N154 C155 1.346 . S
C155 N154 1.346 . S
C155 C156 1.396 . S
C155 C165 1.510 . S
C156 C152 1.401 . S
C156 C155 1.396 . S
C157 C152 1.499 . S
C157 H158 0.959 . S
C157 H159 0.960 . S
C157 H160 0.961 . S
H158 C157 0.959 . S
H159 C157 0.960 . S
H160 C157 0.961 . S
O161 Co136 1.967 . S
O161 C169 1.258 . S
O162 Co137 1.941 . S
O162 C169 1.266 . S
H163 C165 0.959 . S
H164 C165 0.961 . S
C165 C155 1.510 . S
C165 H163 0.959 . S
C165 H164 0.961 . S
C165 H166 0.960 . S
H166 C165 0.960 . S
H167 N147 0.862 . S
O168 Co136 1.920 . S
O168 C141 1.289 . S
C169 O161 1.258 . S
C169 O162 1.266 . S
Co170 O173 1.970 . S
Co170 N187 1.989 . S
Co170 O195 1.967 . S
Co170 O202 1.920 . S
Co171 O174 1.966 . S
Co171 N180 2.022 . S
Co171 N188 1.993 . S
Co171 O196 1.941 . S
C172 O173 1.258 . S
C172 O174 1.263 . S
O173 Co170 1.970 . S
O173 C172 1.258 . S
O174 Co171 1.966 . S
O174 C172 1.263 . S
C175 O176 1.235 . S
C175 O202 1.289 . S
O176 C175 1.235 . S
C177 C179 1.400 . S
C177 N180 1.351 . S
C177 C182 1.501 . S
C178 C179 1.387 . S
C178 N181 1.341 . S
C179 C177 1.400 . S
C179 C178 1.387 . S
N180 Co171 2.022 . S
N180 C177 1.351 . S
N180 N181 1.365 . S
N181 C178 1.341 . S
N181 N180 1.365 . S
N181 H201 0.862 . S
C182 C177 1.501 . S
C182 H183 0.961 . S
C182 H184 0.961 . S
C182 H185 0.960 . S
H183 C182 0.961 . S
H184 C182 0.961 . S
H185 C182 0.960 . S
C186 N187 1.342 . S
C186 C190 1.401 . S
C186 C191 1.499 . S
N187 Co170 1.989 . S
N187 C186 1.342 . S
N187 N188 1.388 . S
N188 Co171 1.993 . S
N188 N187 1.388 . S
N188 C189 1.346 . S
C189 N188 1.346 . S
C189 C190 1.396 . S
C189 C199 1.510 . S
C190 C186 1.401 . S
C190 C189 1.396 . S
C191 C186 1.499 . S
C191 H192 0.959 . S
C191 H193 0.960 . S
C191 H194 0.961 . S
H192 C191 0.959 . S
H193 C191 0.960 . S
H194 C191 0.961 . S
O195 Co170 1.967 . S
O195 C203 1.258 . S
O196 Co171 1.941 . S
O196 C203 1.266 . S
H197 C199 0.959 . S
H198 C199 0.961 . S
C199 C189 1.510 . S
C199 H197 0.959 . S
C199 H198 0.961 . S
C199 H200 0.960 . S
H200 C199 0.960 . S
H201 N181 0.862 . S
O202 Co170 1.920 . S
O202 C175 1.289 . S
C203 O195 1.258 . S
C203 O196 1.266 . S
Co204 O207 1.970 . S
Co204 N221 1.989 . S
Co204 O229 1.967 . S
Co204 O236 1.920 . S
Co205 O208 1.966 . S
Co205 N214 2.022 . S
Co205 N222 1.993 . S
Co205 O230 1.941 . S
C206 O207 1.258 . S
C206 O208 1.263 . S
O207 Co204 1.970 . S
O207 C206 1.258 . S
O208 Co205 1.966 . S
O208 C206 1.263 . S
C209 O210 1.235 . S
C209 O236 1.289 . S
O210 C209 1.235 . S
C211 C213 1.400 . S
C211 N214 1.351 . S
C211 C216 1.501 . S
C212 C213 1.387 . S
C212 N215 1.341 . S
C213 C211 1.400 . S
C213 C212 1.387 . S
N214 Co205 2.022 . S
N214 C211 1.351 . S
N214 N215 1.365 . S
N215 C212 1.341 . S
N215 N214 1.365 . S
N215 H235 0.862 . S
C216 C211 1.501 . S
C216 H217 0.961 . S
C216 H218 0.961 . S
C216 H219 0.960 . S
H217 C216 0.961 . S
H218 C216 0.961 . S
H219 C216 0.960 . S
C220 N221 1.342 . S
C220 C224 1.401 . S
C220 C225 1.499 . S
N221 Co204 1.989 . S
N221 C220 1.342 . S
N221 N222 1.388 . S
N222 Co205 1.993 . S
N222 N221 1.388 . S
N222 C223 1.346 . S
C223 N222 1.346 . S
C223 C224 1.396 . S
C223 C233 1.510 . S
C224 C220 1.401 . S
C224 C223 1.396 . S
C225 C220 1.499 . S
C225 H226 0.959 . S
C225 H227 0.960 . S
C225 H228 0.961 . S
H226 C225 0.959 . S
H227 C225 0.960 . S
H228 C225 0.961 . S
O229 Co204 1.967 . S
O229 C237 1.258 . S
O230 Co205 1.941 . S
O230 C237 1.266 . S
H231 C233 0.959 . S
H232 C233 0.961 . S
C233 C223 1.510 . S
C233 H231 0.959 . S
C233 H232 0.961 . S
C233 H234 0.960 . S
H234 C233 0.960 . S
H235 N215 0.862 . S
O236 Co204 1.920 . S
O236 C209 1.289 . S
C237 O229 1.258 . S
C237 O230 1.266 . S
Co238 O241 1.970 . S
Co238 N255 1.989 . S
Co238 O263 1.967 . S
Co238 O270 1.920 . S
Co239 O242 1.966 . S
Co239 N248 2.022 . S
Co239 N256 1.993 . S
Co239 O264 1.941 . S
C240 O241 1.258 . S
C240 O242 1.263 . S
O241 Co238 1.970 . S
O241 C240 1.258 . S
O242 Co239 1.966 . S
O242 C240 1.263 . S
C243 O244 1.235 . S
C243 O270 1.289 . S
O244 C243 1.235 . S
C245 C247 1.400 . S
C245 N248 1.351 . S
C245 C250 1.501 1_556 S
C246 C247 1.387 . S
C246 N249 1.341 . S
C247 C245 1.400 . S
C247 C246 1.387 . S
N248 Co239 2.022 . S
N248 C245 1.351 . S
N248 N249 1.365 . S
N249 C246 1.341 . S
N249 N248 1.365 . S
N249 H269 0.862 . S
C250 C245 1.501 1_554 S
C250 H251 0.961 . S
C250 H252 0.961 . S
C250 H253 0.960 . S
H251 C250 0.961 . S
H252 C250 0.961 . S
H253 C250 0.960 . S
C254 N255 1.342 . S
C254 C258 1.401 . S
C254 C259 1.499 . S
N255 Co238 1.989 . S
N255 C254 1.342 . S
N255 N256 1.388 . S
N256 Co239 1.993 . S
N256 N255 1.388 . S
N256 C257 1.346 . S
C257 N256 1.346 . S
C257 C258 1.396 . S
C257 C267 1.510 . S
C258 C254 1.401 . S
C258 C257 1.396 . S
C259 C254 1.499 . S
C259 H260 0.959 . S
C259 H261 0.960 . S
C259 H262 0.961 . S
H260 C259 0.959 . S
H261 C259 0.960 . S
H262 C259 0.961 . S
O263 Co238 1.967 . S
O263 C271 1.258 . S
O264 Co239 1.941 . S
O264 C271 1.266 . S
H265 C267 0.959 . S
H266 C267 0.961 . S
C267 C257 1.510 . S
C267 H265 0.959 . S
C267 H266 0.961 . S
C267 H268 0.960 . S
H268 C267 0.960 . S
H269 N249 0.862 . S
O270 Co238 1.920 . S
O270 C243 1.289 . S
C271 O263 1.258 . S
C271 O264 1.266 . S
Co272 O275 1.970 . S
Co272 N289 1.989 . S
Co272 O297 1.967 . S
Co272 O304 1.920 . S
Co273 O276 1.966 . S
Co273 N282 2.022 . S
Co273 N290 1.993 . S
Co273 O298 1.941 . S
C274 O275 1.258 . S
C274 O276 1.263 . S
O275 Co272 1.970 . S
O275 C274 1.258 . S
O276 Co273 1.966 . S
O276 C274 1.263 . S
C277 O278 1.235 . S
C277 O304 1.289 . S
O278 C277 1.235 . S
C279 C281 1.400 . S
C279 N282 1.351 . S
C279 C284 1.501 . S
C280 C281 1.387 . S
C280 N283 1.341 . S
C281 C279 1.400 . S
C281 C280 1.387 . S
N282 Co273 2.022 . S
N282 C279 1.351 . S
N282 N283 1.365 . S
N283 C280 1.341 . S
N283 N282 1.365 . S
N283 H303 0.862 . S
C284 C279 1.501 . S
C284 H285 0.961 . S
C284 H286 0.961 . S
C284 H287 0.960 . S
H285 C284 0.961 . S
H286 C284 0.961 . S
H287 C284 0.960 . S
C288 N289 1.342 . S
C288 C292 1.401 . S
C288 C293 1.499 . S
N289 Co272 1.989 . S
N289 C288 1.342 . S
N289 N290 1.388 . S
N290 Co273 1.993 . S
N290 N289 1.388 . S
N290 C291 1.346 . S
C291 N290 1.346 . S
C291 C292 1.396 . S
C291 C301 1.510 . S
C292 C288 1.401 . S
C292 C291 1.396 . S
C293 C288 1.499 . S
C293 H294 0.959 . S
C293 H295 0.960 . S
C293 H296 0.961 . S
H294 C293 0.959 . S
H295 C293 0.960 . S
H296 C293 0.961 . S
O297 Co272 1.967 . S
O297 C305 1.258 . S
O298 Co273 1.941 . S
O298 C305 1.266 . S
H299 C301 0.959 . S
H300 C301 0.961 . S
C301 C291 1.510 . S
C301 H299 0.959 . S
C301 H300 0.961 . S
C301 H302 0.960 . S
H302 C301 0.960 . S
H303 N283 0.862 . S
O304 Co272 1.920 . S
O304 C277 1.289 . S
C305 O297 1.258 . S
C305 O298 1.266 . S
Co306 O309 1.970 . S
Co306 N323 1.989 . S
Co306 O331 1.967 . S
Co306 O338 1.920 . S
Co307 O310 1.966 . S
Co307 N316 2.022 . S
Co307 N324 1.993 . S
Co307 O332 1.941 . S
C308 O309 1.258 . S
C308 O310 1.263 . S
O309 Co306 1.970 . S
O309 C308 1.258 . S
O310 Co307 1.966 . S
O310 C308 1.263 . S
C311 O312 1.235 . S
C311 O338 1.289 . S
O312 C311 1.235 . S
C313 C315 1.400 . S
C313 N316 1.351 . S
C313 C318 1.501 . S
C314 C315 1.387 . S
C314 N317 1.341 . S
C315 C313 1.400 . S
C315 C314 1.387 . S
N316 Co307 2.022 . S
N316 C313 1.351 . S
N316 N317 1.365 . S
N317 C314 1.341 . S
N317 N316 1.365 . S
N317 H337 0.862 . S
C318 C313 1.501 . S
C318 H319 0.961 . S
C318 H320 0.961 . S
C318 H321 0.960 . S
H319 C318 0.961 . S
H320 C318 0.961 . S
H321 C318 0.960 . S
C322 N323 1.342 . S
C322 C326 1.401 . S
C322 C327 1.499 . S
N323 Co306 1.989 . S
N323 C322 1.342 . S
N323 N324 1.388 . S
N324 Co307 1.993 . S
N324 N323 1.388 . S
N324 C325 1.346 . S
C325 N324 1.346 . S
C325 C326 1.396 . S
C325 C335 1.510 . S
C326 C322 1.401 . S
C326 C325 1.396 . S
C327 C322 1.499 . S
C327 H328 0.959 . S
C327 H329 0.960 . S
C327 H330 0.961 . S
H328 C327 0.959 . S
H329 C327 0.960 . S
H330 C327 0.961 . S
O331 Co306 1.967 . S
O331 C339 1.258 . S
O332 Co307 1.941 . S
O332 C339 1.266 . S
H333 C335 0.959 . S
H334 C335 0.961 . S
C335 C325 1.510 . S
C335 H333 0.959 . S
C335 H334 0.961 . S
C335 H336 0.960 . S
H336 C335 0.960 . S
H337 N317 0.862 . S
O338 Co306 1.920 . S
O338 C311 1.289 . S
C339 O331 1.258 . S
C339 O332 1.266 . S
Co340 O343 1.970 . S
Co340 N357 1.989 . S
Co340 O365 1.967 . S
Co340 O372 1.920 . S
Co341 O344 1.966 . S
Co341 N350 2.022 . S
Co341 N358 1.993 . S
Co341 O366 1.941 . S
C342 O343 1.258 . S
C342 O344 1.263 . S
O343 Co340 1.970 . S
O343 C342 1.258 . S
O344 Co341 1.966 . S
O344 C342 1.263 . S
C345 O346 1.235 . S
C345 O372 1.289 . S
O346 C345 1.235 . S
C347 C349 1.400 . S
C347 N350 1.351 . S
C347 C352 1.501 . S
C348 C349 1.387 . S
C348 N351 1.341 . S
C349 C347 1.400 . S
C349 C348 1.387 . S
N350 Co341 2.022 . S
N350 C347 1.351 . S
N350 N351 1.365 . S
N351 C348 1.341 . S
N351 N350 1.365 . S
N351 H371 0.862 . S
C352 C347 1.501 . S
C352 H353 0.961 . S
C352 H354 0.961 . S
C352 H355 0.960 . S
H353 C352 0.961 . S
H354 C352 0.961 . S
H355 C352 0.960 . S
C356 N357 1.342 . S
C356 C360 1.401 . S
C356 C361 1.499 . S
N357 Co340 1.989 . S
N357 C356 1.342 . S
N357 N358 1.388 . S
N358 Co341 1.993 . S
N358 N357 1.388 . S
N358 C359 1.346 . S
C359 N358 1.346 . S
C359 C360 1.396 . S
C359 C369 1.510 . S
C360 C356 1.401 . S
C360 C359 1.396 . S
C361 C356 1.499 . S
C361 H362 0.959 . S
C361 H363 0.960 . S
C361 H364 0.961 . S
H362 C361 0.959 . S
H363 C361 0.960 . S
H364 C361 0.961 . S
O365 Co340 1.967 . S
O365 C373 1.258 . S
O366 Co341 1.941 . S
O366 C373 1.266 . S
H367 C369 0.959 . S
H368 C369 0.961 . S
C369 C359 1.510 . S
C369 H367 0.959 . S
C369 H368 0.961 . S
C369 H370 0.960 . S
H370 C369 0.960 . S
H371 N351 0.862 . S
O372 Co340 1.920 . S
O372 C345 1.289 . S
C373 O365 1.258 . S
C373 O366 1.266 . S
Co374 O377 1.970 . S
Co374 N391 1.989 . S
Co374 O399 1.967 . S
Co374 O406 1.920 . S
Co375 O378 1.966 . S
Co375 N384 2.022 . S
Co375 N392 1.993 . S
Co375 O400 1.941 . S
C376 O377 1.258 . S
C376 O378 1.263 . S
O377 Co374 1.970 . S
O377 C376 1.258 . S
O378 Co375 1.966 . S
O378 C376 1.263 . S
C379 O380 1.235 . S
C379 O406 1.289 . S
O380 C379 1.235 . S
C381 C383 1.400 . S
C381 N384 1.351 . S
C381 C386 1.501 . S
C382 C383 1.387 . S
C382 N385 1.341 . S
C383 C381 1.400 . S
C383 C382 1.387 . S
N384 Co375 2.022 . S
N384 C381 1.351 . S
N384 N385 1.365 . S
N385 C382 1.341 . S
N385 N384 1.365 . S
N385 H405 0.862 . S
C386 C381 1.501 . S
C386 H387 0.961 . S
C386 H388 0.961 . S
C386 H389 0.960 . S
H387 C386 0.961 . S
H388 C386 0.961 . S
H389 C386 0.960 . S
C390 N391 1.342 . S
C390 C394 1.401 . S
C390 C395 1.499 . S
N391 Co374 1.989 . S
N391 C390 1.342 . S
N391 N392 1.388 . S
N392 Co375 1.993 . S
N392 N391 1.388 . S
N392 C393 1.346 . S
C393 N392 1.346 . S
C393 C394 1.396 . S
C393 C403 1.510 . S
C394 C390 1.401 . S
C394 C393 1.396 . S
C395 C390 1.499 . S
C395 H396 0.959 . S
C395 H397 0.960 . S
C395 H398 0.961 . S
H396 C395 0.959 . S
H397 C395 0.960 . S
H398 C395 0.961 . S
O399 Co374 1.967 . S
O399 C407 1.258 . S
O400 Co375 1.941 . S
O400 C407 1.266 . S
H401 C403 0.959 . S
H402 C403 0.961 . S
C403 C393 1.510 . S
C403 H401 0.959 . S
C403 H402 0.961 . S
C403 H404 0.960 . S
H404 C403 0.960 . S
H405 N385 0.862 . S
O406 Co374 1.920 . S
O406 C379 1.289 . S
C407 O399 1.258 . S
C407 O400 1.266 . S
H408 C420 0.930 . S
H409 C422 0.930 . S
H410 C423 0.930 . S
H411 C427 0.959 . S
H412 C427 0.959 . S
H413 C427 0.961 . S
H414 C428 0.960 . S
H415 C428 0.961 . S
H416 C428 0.959 . S
H417 C431 0.929 . S
H418 C432 0.931 . S
H419 C434 0.930 . S
C420 H408 0.930 . S
C420 C421 1.399 . S
C420 C425 1.399 . S
C421 C420 1.399 . S
C421 C422 1.376 . S
C422 H409 0.930 . S
C422 C421 1.376 . S
C422 C423 1.388 . S
C423 H410 0.930 . S
C423 C422 1.388 . S
C423 C424 1.390 . S
C424 C423 1.390 . S
C424 C425 1.394 . S
C424 C430 1.465 . S
C425 C420 1.399 . S
C425 C424 1.394 . S
C425 C426 1.516 . S
C426 C425 1.516 . S
C426 C427 1.502 . S
C426 C428 1.561 . S
C426 C429 1.526 . S
C427 H411 0.959 . S
C427 H412 0.959 . S
C427 H413 0.961 . S
C427 C426 1.502 . S
C428 H414 0.960 . S
C428 H415 0.961 . S
C428 H416 0.959 . S
C428 C426 1.561 . S
C429 C426 1.526 . S
C429 C430 1.396 . S
C429 C434 1.390 . S
C430 C424 1.465 . S
C430 C429 1.396 . S
C430 C431 1.399 . S
C431 H417 0.929 . S
C431 C430 1.399 . S
C431 C432 1.385 1_545 S
C432 H418 0.931 . S
C432 C431 1.385 1_565 S
C432 C433 1.389 1_565 S
C433 C432 1.389 1_545 S
C433 C434 1.387 . S
C434 H419 0.930 . S
C434 C429 1.390 . S
C434 C433 1.387 . S
H435 C447 0.930 . S
H436 C449 0.930 . S
H437 C450 0.930 . S
H438 C454 0.959 . S
H439 C454 0.959 . S
H440 C454 0.961 . S
H441 C455 0.960 . S
H442 C455 0.961 . S
H443 C455 0.959 . S
H444 C458 0.929 . S
H445 C459 0.931 1_655 S
H446 C461 0.930 . S
C447 H435 0.930 . S
C447 C448 1.399 . S
C447 C452 1.399 . S
C448 C447 1.399 . S
C448 C449 1.376 . S
C449 H436 0.930 . S
C449 C448 1.376 . S
C449 C450 1.388 . S
C450 H437 0.930 . S
C450 C449 1.388 . S
C450 C451 1.390 . S
C451 C450 1.390 . S
C451 C452 1.394 . S
C451 C457 1.465 . S
C452 C447 1.399 . S
C452 C451 1.394 . S
C452 C453 1.516 . S
C453 C452 1.516 . S
C453 C454 1.502 . S
C453 C455 1.561 . S
C453 C456 1.526 . S
C454 H438 0.959 . S
C454 H439 0.959 . S
C454 H440 0.961 . S
C454 C453 1.502 . S
C455 H441 0.960 . S
C455 H442 0.961 . S
C455 H443 0.959 . S
C455 C453 1.561 . S
C456 C453 1.526 . S
C456 C457 1.396 . S
C456 C461 1.390 . S
C457 C451 1.465 . S
C457 C456 1.396 . S
C457 C458 1.399 . S
C458 H444 0.929 . S
C458 C457 1.399 . S
C458 C459 1.385 . S
C459 H445 0.931 1_455 S
C459 C458 1.385 . S
C459 C460 1.389 . S
C460 C459 1.389 . S
C460 C461 1.387 . S
C461 H446 0.930 . S
C461 C456 1.390 . S
C461 C460 1.387 . S
H462 C474 0.930 . S
H463 C476 0.930 . S
H464 C477 0.930 . S
H465 C481 0.959 . S
H466 C481 0.959 . S
H467 C481 0.961 . S
H468 C482 0.960 . S
H469 C482 0.961 1_565 S
H470 C482 0.959 . S
H471 C485 0.929 . S
H472 C486 0.931 . S
H473 C488 0.930 1_565 S
C474 H462 0.930 . S
C474 C475 1.399 . S
C474 C479 1.399 . S
C475 C474 1.399 . S
C475 C476 1.376 . S
C476 H463 0.930 . S
C476 C475 1.376 . S
C476 C477 1.388 . S
C477 H464 0.930 . S
C477 C476 1.388 . S
C477 C478 1.390 . S
C478 C477 1.390 . S
C478 C479 1.394 . S
C478 C484 1.465 . S
C479 C474 1.399 . S
C479 C478 1.394 . S
C479 C480 1.516 . S
C480 C479 1.516 . S
C480 C481 1.502 . S
C480 C482 1.561 . S
C480 C483 1.526 . S
C481 H465 0.959 . S
C481 H466 0.959 . S
C481 H467 0.961 . S
C481 C480 1.502 . S
C482 H468 0.960 . S
C482 H469 0.961 1_545 S
C482 H470 0.959 . S
C482 C480 1.561 . S
C483 C480 1.526 . S
C483 C484 1.396 . S
C483 C488 1.390 . S
C484 C478 1.465 . S
C484 C483 1.396 . S
C484 C485 1.399 . S
C485 H471 0.929 . S
C485 C484 1.399 . S
C485 C486 1.385 . S
C486 H472 0.931 . S
C486 C485 1.385 . S
C486 C487 1.389 . S
C487 C486 1.389 . S
C487 C488 1.387 . S
C488 H473 0.930 1_545 S
C488 C483 1.390 . S
C488 C487 1.387 . S
H489 C501 0.930 . S
H490 C503 0.930 . S
H491 C504 0.930 . S
H492 C508 0.959 . S
H493 C508 0.959 . S
H494 C508 0.961 . S
H495 C509 0.960 . S
H496 C509 0.961 1_545 S
H497 C509 0.959 . S
H498 C512 0.929 . S
H499 C513 0.931 . S
H500 C515 0.930 1_545 S
C501 H489 0.930 . S
C501 C502 1.399 . S
C501 C506 1.399 . S
C502 C501 1.399 . S
C502 C503 1.376 . S
C503 H490 0.930 . S
C503 C502 1.376 . S
C503 C504 1.388 . S
C504 H491 0.930 . S
C504 C503 1.388 . S
C504 C505 1.390 . S
C505 C504 1.390 . S
C505 C506 1.394 . S
C505 C511 1.465 . S
C506 C501 1.399 . S
C506 C505 1.394 . S
C506 C507 1.516 . S
C507 C506 1.516 . S
C507 C508 1.502 . S
C507 C509 1.561 . S
C507 C510 1.526 . S
C508 H492 0.959 . S
C508 H493 0.959 . S
C508 H494 0.961 . S
C508 C507 1.502 . S
C509 H495 0.960 . S
C509 H496 0.961 1_565 S
C509 H497 0.959 . S
C509 C507 1.561 . S
C510 C507 1.526 . S
C510 C511 1.396 . S
C510 C515 1.390 . S
C511 C505 1.465 . S
C511 C510 1.396 . S
C511 C512 1.399 . S
C512 H498 0.929 . S
C512 C511 1.399 . S
C512 C513 1.385 . S
C513 H499 0.931 . S
C513 C512 1.385 . S
C513 C514 1.389 . S
C514 C513 1.389 . S
C514 C515 1.387 . S
C515 H500 0.930 1_565 S
C515 C510 1.390 . S
C515 C514 1.387 . S
H516 C528 0.930 1_455 S
H517 C530 0.930 . S
H518 C531 0.930 . S
H519 C535 0.959 . S
H520 C535 0.959 . S
H521 C535 0.961 . S
H522 C536 0.960 1_455 S
H523 C536 0.961 . S
H524 C536 0.959 . S
H525 C539 0.929 . S
H526 C540 0.931 . S
H527 C542 0.930 . S
C528 H516 0.930 1_655 S
C528 C529 1.399 . S
C528 C533 1.399 . S
C529 C528 1.399 . S
C529 C530 1.376 . S
C530 H517 0.930 . S
C530 C529 1.376 . S
C530 C531 1.388 . S
C531 H518 0.930 . S
C531 C530 1.388 . S
C531 C532 1.390 . S
C532 C531 1.390 . S
C532 C533 1.394 . S
C532 C538 1.465 . S
C533 C528 1.399 . S
C533 C532 1.394 . S
C533 C534 1.516 . S
C534 C533 1.516 . S
C534 C535 1.502 . S
C534 C536 1.561 . S
C534 C537 1.526 . S
C535 H519 0.959 . S
C535 H520 0.959 . S
C535 H521 0.961 . S
C535 C534 1.502 . S
C536 H522 0.960 1_655 S
C536 H523 0.961 . S
C536 H524 0.959 . S
C536 C534 1.561 . S
C537 C534 1.526 . S
C537 C538 1.396 . S
C537 C542 1.390 . S
C538 C532 1.465 . S
C538 C537 1.396 . S
C538 C539 1.399 . S
C539 H525 0.929 . S
C539 C538 1.399 . S
C539 C540 1.385 . S
C540 H526 0.931 . S
C540 C539 1.385 . S
C540 C541 1.389 . S
C541 C540 1.389 . S
C541 C542 1.387 . S
C542 H527 0.930 . S
C542 C537 1.390 . S
C542 C541 1.387 . S
H543 C555 0.930 . S
H544 C557 0.930 . S
H545 C558 0.930 . S
H546 C562 0.959 . S
H547 C562 0.959 . S
H548 C562 0.961 . S
H549 C563 0.960 . S
H550 C563 0.961 . S
H551 C563 0.959 . S
H552 C566 0.929 1_655 S
H553 C567 0.931 . S
H554 C569 0.930 . S
C555 H543 0.930 . S
C555 C556 1.399 . S
C555 C560 1.399 . S
C556 C555 1.399 . S
C556 C557 1.376 . S
C557 H544 0.930 . S
C557 C556 1.376 . S
C557 C558 1.388 . S
C558 H545 0.930 . S
C558 C557 1.388 . S
C558 C559 1.390 . S
C559 C558 1.390 . S
C559 C560 1.394 . S
C559 C565 1.465 . S
C560 C555 1.399 . S
C560 C559 1.394 . S
C560 C561 1.516 . S
C561 C560 1.516 . S
C561 C562 1.502 . S
C561 C563 1.561 . S
C561 C564 1.526 . S
C562 H546 0.959 . S
C562 H547 0.959 . S
C562 H548 0.961 . S
C562 C561 1.502 . S
C563 H549 0.960 . S
C563 H550 0.961 . S
C563 H551 0.959 . S
C563 C561 1.561 . S
C564 C561 1.526 . S
C564 C565 1.396 . S
C564 C569 1.390 . S
C565 C559 1.465 . S
C565 C564 1.396 . S
C565 C566 1.399 . S
C566 H552 0.929 1_455 S
C566 C565 1.399 . S
C566 C567 1.385 1_455 S
C567 H553 0.931 . S
C567 C566 1.385 1_655 S
C567 C568 1.389 1_655 S
C568 C567 1.389 1_455 S
C568 C569 1.387 . S
C569 H554 0.930 . S
C569 C564 1.390 . S
C569 C568 1.387 . S
H570 C582 0.930 . S
H571 C584 0.930 . S
H572 C585 0.930 . S
H573 C589 0.959 . S
H574 C589 0.959 . S
H575 C589 0.961 . S
H576 C590 0.960 . S
H577 C590 0.961 . S
H578 C590 0.959 . S
H579 C593 0.929 . S
H580 C594 0.959 . S
H581 C596 0.930 . S
C582 H570 0.930 . S
C582 C583 1.437 . S
C582 C587 1.399 . S
C583 C582 1.437 . S
C583 C584 1.339 1_554 S
C584 H571 0.930 . S
C584 C583 1.339 1_556 S
C584 C585 1.388 . S
C585 H572 0.930 . S
C585 C584 1.388 . S
C585 C586 1.372 1_556 S
C586 C585 1.372 1_554 S
C586 C587 1.412 . S
C586 C592 1.469 . S
C587 C582 1.399 . S
C587 C586 1.412 . S
C587 C588 1.516 . S
C588 C587 1.516 . S
C588 C589 1.502 . S
C588 C590 1.561 . S
C588 C591 1.526 . S
C589 H573 0.959 . S
C589 H574 0.959 . S
C589 H575 0.961 . S
C589 C588 1.502 . S
C590 H576 0.960 . S
C590 H577 0.961 . S
C590 H578 0.959 . S
C590 C588 1.561 . S
C591 C588 1.526 . S
C591 C592 1.396 . S
C591 C596 1.390 . S
C592 C586 1.469 . S
C592 C591 1.396 . S
C592 C593 1.399 1_554 S
C593 H579 0.929 . S
C593 C592 1.399 1_556 S
C593 C594 1.403 . S
C594 H580 0.959 . S
C594 C593 1.403 . S
C594 C595 1.345 1_556 S
C595 C594 1.345 1_554 S
C595 C596 1.387 . S
C596 H581 0.930 . S
C596 C591 1.390 . S
C596 C595 1.387 . S
H597 C609 0.930 . S
H598 C611 0.930 . S
H599 C612 0.930 . S
H600 C616 0.959 . S
H601 C616 0.959 . S
H602 C616 0.961 . S
H603 C617 0.960 . S
H604 C617 0.961 . S
H605 C617 0.959 . S
H606 C620 0.929 1_655 S
H607 C621 0.931 . S
H608 C623 0.930 . S
C609 H597 0.930 . S
C609 C610 1.399 . S
C609 C614 1.399 . S
C610 C609 1.399 . S
C610 C611 1.376 . S
C611 H598 0.930 . S
C611 C610 1.376 . S
C611 C612 1.388 . S
C612 H599 0.930 . S
C612 C611 1.388 . S
C612 C613 1.390 . S
C613 C612 1.390 . S
C613 C614 1.394 . S
C613 C619 1.465 . S
C614 C609 1.399 . S
C614 C613 1.394 . S
C614 C615 1.516 1_655 S
C615 C614 1.516 1_455 S
C615 C616 1.502 . S
C615 C617 1.561 1_455 S
C615 C618 1.526 . S
C616 H600 0.959 . S
C616 H601 0.959 . S
C616 H602 0.961 . S
C616 C615 1.502 . S
C617 H603 0.960 . S
C617 H604 0.961 . S
C617 H605 0.959 . S
C617 C615 1.561 1_655 S
C618 C615 1.526 . S
C618 C619 1.396 1_455 S
C618 C623 1.390 . S
C619 C613 1.465 . S
C619 C618 1.396 1_655 S
C619 C620 1.399 1_655 S
C620 H606 0.929 1_455 S
C620 C619 1.399 1_455 S
C620 C621 1.385 . S
C621 H607 0.931 . S
C621 C620 1.385 . S
C621 C622 1.389 . S
C622 C621 1.389 . S
C622 C623 1.387 . S
C623 H608 0.930 . S
C623 C618 1.390 . S
C623 C622 1.387 . S
H624 C636 0.930 . S
H625 C638 0.930 . S
H626 C639 0.930 . S
H627 C643 0.959 . S
H628 C643 0.959 . S
H629 C643 0.961 . S
H630 C644 0.960 . S
H631 C644 0.961 . S
H632 C644 0.959 1_565 S
H633 C647 0.929 . S
H634 C648 0.931 . S
H635 C650 0.930 . S
C636 H624 0.930 . S
C636 C637 1.399 . S
C636 C641 1.399 . S
C637 C636 1.399 . S
C637 C638 1.376 . S
C638 H625 0.930 . S
C638 C637 1.376 . S
C638 C639 1.388 1_545 S
C639 H626 0.930 . S
C639 C638 1.388 1_565 S
C639 C640 1.390 . S
C640 C639 1.390 . S
C640 C641 1.394 1_565 S
C640 C646 1.465 . S
C641 C636 1.399 . S
C641 C640 1.394 1_545 S
C641 C642 1.516 . S
C642 C641 1.516 . S
C642 C643 1.502 . S
C642 C644 1.561 . S
C642 C645 1.526 1_545 S
C643 H627 0.959 . S
C643 H628 0.959 . S
C643 H629 0.961 . S
C643 C642 1.502 . S
C644 H630 0.960 . S
C644 H631 0.961 . S
C644 H632 0.959 1_545 S
C644 C642 1.561 . S
C645 C642 1.526 1_565 S
C645 C646 1.396 . S
C645 C650 1.390 . S
C646 C640 1.465 . S
C646 C645 1.396 . S
C646 C647 1.399 . S
C647 H633 0.929 . S
C647 C646 1.399 . S
C647 C648 1.385 . S
C648 H634 0.931 . S
C648 C647 1.385 . S
C648 C649 1.389 . S
C649 C648 1.389 . S
C649 C650 1.387 . S
C650 H635 0.930 . S
C650 C645 1.390 . S
C650 C649 1.387 . S
H651 C663 0.930 . S
H652 C665 0.930 . S
H653 C666 0.930 . S
H654 C670 0.959 . S
H655 C670 0.959 . S
H656 C670 0.961 . S
H657 C671 0.960 . S
H658 C671 0.961 . S
H659 C671 0.959 . S
H660 C674 0.929 . S
H661 C675 0.931 . S
H662 C677 0.930 . S
C663 H651 0.930 . S
C663 C664 1.399 . S
C663 C668 1.399 . S
C664 C663 1.399 . S
C664 C665 1.376 . S
C665 H652 0.930 . S
C665 C664 1.376 . S
C665 C666 1.388 . S
C666 H653 0.930 . S
C666 C665 1.388 . S
C666 C667 1.390 . S
C667 C666 1.390 . S
C667 C668 1.394 . S
C667 C673 1.465 . S
C668 C663 1.399 . S
C668 C667 1.394 . S
C668 C669 1.516 . S
C669 C668 1.516 . S
C669 C670 1.502 . S
C669 C671 1.561 . S
C669 C672 1.526 . S
C670 H654 0.959 . S
C670 H655 0.959 . S
C670 H656 0.961 . S
C670 C669 1.502 . S
C671 H657 0.960 . S
C671 H658 0.961 . S
C671 H659 0.959 . S
C671 C669 1.561 . S
C672 C669 1.526 . S
C672 C673 1.396 . S
C672 C677 1.390 . S
C673 C667 1.465 . S
C673 C672 1.396 . S
C673 C674 1.399 . S
C674 H660 0.929 . S
C674 C673 1.399 . S
C674 C675 1.385 . S
C675 H661 0.931 . S
C675 C674 1.385 . S
C675 C676 1.389 . S
C676 C675 1.389 . S
C676 C677 1.387 . S
C677 H662 0.930 . S
C677 C672 1.390 . S
C677 C676 1.387 . S
H678 C690 0.930 . S
H679 C692 0.930 . S
H680 C693 0.930 . S
H681 C697 0.959 . S
H682 C697 0.959 1_455 S
H683 C697 0.961 . S
H684 C698 0.960 . S
H685 C698 0.961 . S
H686 C698 0.959 . S
H687 C701 0.929 . S
H688 C702 0.931 . S
H689 C704 0.930 . S
C690 H678 0.930 . S
C690 C691 1.399 . S
C690 C695 1.399 . S
C691 C690 1.399 . S
C691 C692 1.376 . S
C692 H679 0.930 . S
C692 C691 1.376 . S
C692 C693 1.388 . S
C693 H680 0.930 . S
C693 C692 1.388 . S
C693 C694 1.390 . S
C694 C693 1.390 . S
C694 C695 1.394 . S
C694 C700 1.465 1_655 S
C695 C690 1.399 . S
C695 C694 1.394 . S
C695 C696 1.516 1_655 S
C696 C695 1.516 1_455 S
C696 C697 1.502 1_455 S
C696 C698 1.561 . S
C696 C699 1.526 . S
C697 H681 0.959 . S
C697 H682 0.959 1_655 S
C697 H683 0.961 . S
C697 C696 1.502 1_655 S
C698 H684 0.960 . S
C698 H685 0.961 . S
C698 H686 0.959 . S
C698 C696 1.561 . S
C699 C696 1.526 . S
C699 C700 1.396 . S
C699 C704 1.390 . S
C700 C694 1.465 1_455 S
C700 C699 1.396 . S
C700 C701 1.399 . S
C701 H687 0.929 . S
C701 C700 1.399 . S
C701 C702 1.385 . S
C702 H688 0.931 . S
C702 C701 1.385 . S
C702 C703 1.389 . S
C703 C702 1.389 . S
C703 C704 1.387 . S
C704 H689 0.930 . S
C704 C699 1.390 . S
C704 C703 1.387 . S
H705 C717 0.930 . S
H706 C719 0.930 . S
H707 C720 0.930 . S
H708 C724 0.959 . S
H709 C724 0.959 . S
H710 C724 0.961 . S
H711 C725 0.960 1_565 S
H712 C725 0.961 . S
H713 C725 0.959 . S
H714 C728 0.929 . S
H715 C729 0.931 . S
H716 C731 0.930 . S
C717 H705 0.930 . S
C717 C718 1.399 . S
C717 C722 1.399 . S
C718 C717 1.399 . S
C718 C719 1.376 . S
C719 H706 0.930 . S
C719 C718 1.376 . S
C719 C720 1.388 1_565 S
C720 H707 0.930 . S
C720 C719 1.388 1_545 S
C720 C721 1.390 . S
C721 C720 1.390 . S
C721 C722 1.394 1_545 S
C721 C727 1.465 . S
C722 C717 1.399 . S
C722 C721 1.394 1_565 S
C722 C723 1.516 . S
C723 C722 1.516 . S
C723 C724 1.502 . S
C723 C725 1.561 1_565 S
C723 C726 1.526 1_565 S
C724 H708 0.959 . S
C724 H709 0.959 . S
C724 H710 0.961 . S
C724 C723 1.502 . S
C725 H711 0.960 1_545 S
C725 H712 0.961 . S
C725 H713 0.959 . S
C725 C723 1.561 1_545 S
C726 C723 1.526 1_545 S
C726 C727 1.396 . S
C726 C731 1.390 . S
C727 C721 1.465 . S
C727 C726 1.396 . S
C727 C728 1.399 . S
C728 H714 0.929 . S
C728 C727 1.399 . S
C728 C729 1.385 . S
C729 H715 0.931 . S
C729 C728 1.385 . S
C729 C730 1.389 . S
C730 C729 1.389 . S
C730 C731 1.387 . S
C731 H716 0.930 . S
C731 C726 1.390 . S
C731 C730 1.387 . S
H732 C744 0.930 . S
H733 C746 0.930 . S
H734 C747 0.930 . S
H735 C751 0.959 . S
H736 C751 0.959 . S
H737 C751 0.961 . S
H738 C752 0.960 . S
H739 C752 0.961 . S
H740 C752 0.959 . S
H741 C755 0.929 . S
H742 C756 0.931 . S
H743 C758 0.930 . S
C744 H732 0.930 . S
C744 C745 1.399 . S
C744 C749 1.399 . S
C745 C744 1.399 . S
C745 C746 1.376 . S
C746 H733 0.930 . S
C746 C745 1.376 . S
C746 C747 1.388 . S
C747 H734 0.930 . S
C747 C746 1.388 . S
C747 C748 1.390 . S
C748 C747 1.390 . S
C748 C749 1.394 . S
C748 C754 1.465 . S
C749 C744 1.399 . S
C749 C748 1.394 . S
C749 C750 1.516 . S
C750 C749 1.516 . S
C750 C751 1.502 . S
C750 C752 1.561 . S
C750 C753 1.526 . S
C751 H735 0.959 . S
C751 H736 0.959 . S
C751 H737 0.961 . S
C751 C750 1.502 . S
C752 H738 0.960 . S
C752 H739 0.961 . S
C752 H740 0.959 . S
C752 C750 1.561 . S
C753 C750 1.526 . S
C753 C754 1.396 . S
C753 C758 1.390 . S
C754 C748 1.465 . S
C754 C753 1.396 . S
C754 C755 1.399 . S
C755 H741 0.929 . S
C755 C754 1.399 . S
C755 C756 1.385 . S
C756 H742 0.931 . S
C756 C755 1.385 . S
C756 C757 1.389 . S
C757 C756 1.389 . S
C757 C758 1.387 . S
C758 H743 0.930 . S
C758 C753 1.390 . S
C758 C757 1.387 . S
H759 C771 0.930 . S
H760 C773 0.930 . S
H761 C774 0.930 . S
H762 C778 0.959 1_556 S
H763 C778 0.959 . S
H764 C778 0.961 . S
H765 C779 0.960 . S
H766 C779 0.961 . S
H767 C779 0.959 . S
H768 C782 0.929 1_655 S
H769 C783 0.931 . S
H770 C785 0.930 1_554 S
C771 H759 0.930 . S
C771 C772 1.399 . S
C771 C776 1.399 . S
C772 C771 1.399 . S
C772 C773 1.376 . S
C773 H760 0.930 . S
C773 C772 1.376 . S
C773 C774 1.388 . S
C774 H761 0.930 . S
C774 C773 1.388 . S
C774 C775 1.390 . S
C775 C774 1.390 . S
C775 C776 1.394 . S
C775 C781 1.465 . S
C776 C771 1.399 . S
C776 C775 1.394 . S
C776 C777 1.516 . S
C777 C776 1.516 . S
C777 C778 1.502 1_656 S
C777 C779 1.561 1_556 S
C777 C780 1.526 1_655 S
C778 H762 0.959 1_554 S
C778 H763 0.959 . S
C778 H764 0.961 . S
C778 C777 1.502 1_454 S
C779 H765 0.960 . S
C779 H766 0.961 . S
C779 H767 0.959 . S
C779 C777 1.561 1_554 S
C780 C777 1.526 1_455 S
C780 C781 1.396 1_455 S
C780 C785 1.390 . S
C781 C775 1.465 . S
C781 C780 1.396 1_655 S
C781 C782 1.399 1_655 S
C782 H768 0.929 1_455 S
C782 C781 1.399 1_455 S
C782 C783 1.385 . S
C783 H769 0.931 . S
C783 C782 1.385 . S
C783 C784 1.389 . S
C784 C783 1.389 . S
C784 C785 1.387 . S
C785 H770 0.930 1_556 S
C785 C780 1.390 . S
C785 C784 1.387 . S
H786 C798 0.930 . S
H787 C800 0.930 . S
H788 C801 0.930 . S
H789 C805 0.959 . S
H790 C805 0.959 . S
H791 C805 0.961 . S
H792 C806 0.960 . S
H793 C806 0.961 . S
H794 C806 0.959 . S
H795 C809 0.929 1_565 S
H796 C810 0.931 . S
H797 C812 0.930 . S
C798 H786 0.930 . S
C798 C799 1.399 . S
C798 C803 1.399 . S
C799 C798 1.399 . S
C799 C800 1.376 . S
C800 H787 0.930 . S
C800 C799 1.376 . S
C800 C801 1.388 . S
C801 H788 0.930 . S
C801 C800 1.388 . S
C801 C802 1.390 . S
C802 C801 1.390 . S
C802 C803 1.394 . S
C802 C808 1.465 . S
C803 C798 1.399 . S
C803 C802 1.394 . S
C803 C804 1.516 . S
C804 C803 1.516 . S
C804 C805 1.502 1_565 S
C804 C806 1.561 . S
C804 C807 1.526 1_565 S
C805 H789 0.959 . S
C805 H790 0.959 . S
C805 H791 0.961 . S
C805 C804 1.502 1_545 S
C806 H792 0.960 . S
C806 H793 0.961 . S
C806 H794 0.959 . S
C806 C804 1.561 . S
C807 C804 1.526 1_545 S
C807 C808 1.396 1_545 S
C807 C812 1.390 . S
C808 C802 1.465 . S
C808 C807 1.396 1_565 S
C808 C809 1.399 1_565 S
C809 H795 0.929 1_545 S
C809 C808 1.399 1_545 S
C809 C810 1.385 . S
C810 H796 0.931 . S
C810 C809 1.385 . S
C810 C811 1.389 . S
C811 C810 1.389 . S
C811 C812 1.387 . S
C812 H797 0.930 . S
C812 C807 1.390 . S
C812 C811 1.387 . S
H813 C825 0.930 . S
H814 C827 0.930 . S
H815 C828 0.930 . S
H816 C832 0.959 . S
H817 C832 0.959 . S
H818 C832 0.961 . S
H819 C833 0.960 . S
H820 C833 0.961 . S
H821 C833 0.959 . S
H822 C836 0.929 . S
H823 C837 0.931 . S
H824 C839 0.930 . S
C825 H813 0.930 . S
C825 C826 1.399 . S
C825 C830 1.399 . S
C826 C825 1.399 . S
C826 C827 1.376 . S
C827 H814 0.930 . S
C827 C826 1.376 . S
C827 C828 1.388 . S
C828 H815 0.930 . S
C828 C827 1.388 . S
C828 C829 1.390 . S
C829 C828 1.390 . S
C829 C830 1.394 . S
C829 C835 1.465 . S
C830 C825 1.399 . S
C830 C829 1.394 . S
C830 C831 1.516 . S
C831 C830 1.516 . S
C831 C832 1.502 . S
C831 C833 1.561 . S
C831 C834 1.526 . S
C832 H816 0.959 . S
C832 H817 0.959 . S
C832 H818 0.961 . S
C832 C831 1.502 . S
C833 H819 0.960 . S
C833 H820 0.961 . S
C833 H821 0.959 . S
C833 C831 1.561 . S
C834 C831 1.526 . S
C834 C835 1.396 . S
C834 C839 1.390 . S
C835 C829 1.465 . S
C835 C834 1.396 . S
C835 C836 1.399 . S
C836 H822 0.929 . S
C836 C835 1.399 . S
C836 C837 1.385 . S
C837 H823 0.931 . S
C837 C836 1.385 . S
C837 C838 1.389 . S
C838 C837 1.389 . S
C838 C839 1.387 . S
C839 H824 0.930 . S
C839 C834 1.390 . S
C839 C838 1.387 . S
H840 C852 0.930 . S
H841 C854 0.930 . S
H842 C855 0.930 . S
H843 C859 0.959 1_655 S
H844 C859 0.959 . S
H845 C859 0.961 1_655 S
H846 C860 0.960 . S
H847 C860 0.961 . S
H848 C860 0.959 . S
H849 C863 0.929 . S
H850 C864 0.931 . S
H851 C866 0.930 . S
C852 H840 0.930 . S
C852 C853 1.399 . S
C852 C857 1.399 . S
C853 C852 1.399 . S
C853 C854 1.376 . S
C854 H841 0.930 . S
C854 C853 1.376 . S
C854 C855 1.388 . S
C855 H842 0.930 . S
C855 C854 1.388 . S
C855 C856 1.390 . S
C856 C855 1.390 . S
C856 C857 1.394 . S
C856 C862 1.465 1_655 S
C857 C852 1.399 . S
C857 C856 1.394 . S
C857 C858 1.516 1_655 S
C858 C857 1.516 1_455 S
C858 C859 1.502 . S
C858 C860 1.561 . S
C858 C861 1.526 . S
C859 H843 0.959 1_455 S
C859 H844 0.959 . S
C859 H845 0.961 1_455 S
C859 C858 1.502 . S
C860 H846 0.960 . S
C860 H847 0.961 . S
C860 H848 0.959 . S
C860 C858 1.561 . S
C861 C858 1.526 . S
C861 C862 1.396 . S
C861 C866 1.390 . S
C862 C856 1.465 1_455 S
C862 C861 1.396 . S
C862 C863 1.399 . S
C863 H849 0.929 . S
C863 C862 1.399 . S
C863 C864 1.385 . S
C864 H850 0.931 . S
C864 C863 1.385 . S
C864 C865 1.389 . S
C865 C864 1.389 . S
C865 C866 1.387 . S
C866 H851 0.930 . S
C866 C861 1.390 . S
C866 C865 1.387 . S
H867 C879 0.930 . S
H868 C881 0.930 . S
H869 C882 0.930 1_545 S
H870 C886 0.959 . S
H871 C886 0.959 . S
H872 C886 0.961 . S
H873 C887 0.960 . S
H874 C887 0.961 . S
H875 C887 0.959 . S
H876 C890 0.929 . S
H877 C891 0.931 . S
H878 C893 0.930 . S
C879 H867 0.930 . S
C879 C880 1.399 . S
C879 C884 1.399 . S
C880 C879 1.399 . S
C880 C881 1.376 . S
C881 H868 0.930 . S
C881 C880 1.376 . S
C881 C882 1.388 . S
C882 H869 0.930 1_565 S
C882 C881 1.388 . S
C882 C883 1.390 1_565 S
C883 C882 1.390 1_545 S
C883 C884 1.394 1_545 S
C883 C889 1.465 . S
C884 C879 1.399 . S
C884 C883 1.394 1_565 S
C884 C885 1.516 1_565 S
C885 C884 1.516 1_545 S
C885 C886 1.494 1_545 S
C885 C887 1.568 . S
C885 C888 1.527 . S
C886 H870 0.959 . S
C886 H871 0.959 . S
C886 H872 0.961 . S
C886 C885 1.494 1_565 S
C887 H873 0.960 . S
C887 H874 0.961 . S
C887 H875 0.959 . S
C887 C885 1.568 . S
C888 C885 1.527 . S
C888 C889 1.396 . S
C888 C893 1.390 . S
C889 C883 1.465 . S
C889 C888 1.396 . S
C889 C890 1.399 . S
C890 H876 0.929 . S
C890 C889 1.399 . S
C890 C891 1.385 . S
C891 H877 0.931 . S
C891 C890 1.385 . S
C891 C892 1.389 . S
C892 C891 1.389 . S
C892 C893 1.387 . S
C893 H878 0.930 . S
C893 C888 1.390 . S
C893 C892 1.387 . S
H894 C906 0.930 . S
H895 C908 0.930 . S
H896 C909 0.930 . S
H897 C913 0.959 . S
H898 C913 0.959 . S
H899 C913 0.961 . S
H900 C914 0.960 . S
H901 C914 0.961 . S
H902 C914 0.959 . S
H903 C917 0.929 . S
H904 C918 0.931 . S
H905 C920 0.930 . S
C906 H894 0.930 . S
C906 C907 1.399 . S
C906 C911 1.399 . S
C907 C906 1.399 . S
C907 C908 1.376 . S
C908 H895 0.930 . S
C908 C907 1.376 . S
C908 C909 1.388 . S
C909 H896 0.930 . S
C909 C908 1.388 . S
C909 C910 1.390 . S
C910 C909 1.390 . S
C910 C911 1.394 . S
C910 C916 1.465 . S
C911 C906 1.399 . S
C911 C910 1.394 . S
C911 C912 1.516 . S
C912 C911 1.516 . S
C912 C913 1.502 . S
C912 C914 1.561 . S
C912 C915 1.526 . S
C913 H897 0.959 . S
C913 H898 0.959 . S
C913 H899 0.961 . S
C913 C912 1.502 . S
C914 H900 0.960 . S
C914 H901 0.961 . S
C914 H902 0.959 . S
C914 C912 1.561 . S
C915 C912 1.526 . S
C915 C916 1.396 . S
C915 C920 1.390 . S
C916 C910 1.465 . S
C916 C915 1.396 . S
C916 C917 1.399 . S
C917 H903 0.929 . S
C917 C916 1.399 . S
C917 C918 1.385 . S
C918 H904 0.931 . S
C918 C917 1.385 . S
C918 C919 1.389 . S
C919 C918 1.389 . S
C919 C920 1.387 . S
C920 H905 0.930 . S
C920 C915 1.390 . S
C920 C919 1.387 . S
H921 C933 0.930 . S
H922 C935 0.930 . S
H923 C936 0.930 . S
H924 C940 0.959 . S
H925 C940 0.959 . S
H926 C940 0.961 . S
H927 C941 0.960 . S
H928 C941 0.961 . S
H929 C941 0.959 . S
H930 C944 0.929 1_455 S
H931 C945 0.931 . S
H932 C947 0.930 . S
C933 H921 0.930 . S
C933 C934 1.399 . S
C933 C938 1.399 . S
C934 C933 1.399 . S
C934 C935 1.376 . S
C935 H922 0.930 . S
C935 C934 1.376 . S
C935 C936 1.388 . S
C936 H923 0.930 . S
C936 C935 1.388 . S
C936 C937 1.390 . S
C937 C936 1.390 . S
C937 C938 1.394 . S
C937 C943 1.465 1_455 S
C938 C933 1.399 . S
C938 C937 1.394 . S
C938 C939 1.516 1_455 S
C939 C938 1.516 1_655 S
C939 C940 1.502 . S
C939 C941 1.561 . S
C939 C942 1.526 . S
C940 H924 0.959 . S
C940 H925 0.959 . S
C940 H926 0.961 . S
C940 C939 1.502 . S
C941 H927 0.960 . S
C941 H928 0.961 . S
C941 H929 0.959 . S
C941 C939 1.561 . S
C942 C939 1.526 . S
C942 C943 1.396 . S
C942 C947 1.390 . S
C943 C937 1.465 1_655 S
C943 C942 1.396 . S
C943 C944 1.399 . S
C944 H930 0.929 1_655 S
C944 C943 1.399 . S
C944 C945 1.385 . S
C945 H931 0.931 . S
C945 C944 1.385 . S
C945 C946 1.389 . S
C946 C945 1.389 . S
C946 C947 1.387 . S
C947 H932 0.930 . S
C947 C942 1.390 . S
C947 C946 1.387 . S
H948 C960 0.930 . S
H949 C962 0.930 . S
H950 C963 0.930 . S
H951 C967 0.959 1_565 S
H952 C967 0.959 . S
H953 C967 0.961 . S
H954 C968 0.960 . S
H955 C968 0.961 . S
H956 C968 0.959 . S
H957 C971 0.929 . S
H958 C972 0.931 . S
H959 C974 0.930 . S
C960 H948 0.930 . S
C960 C961 1.399 . S
C960 C965 1.399 . S
C961 C960 1.399 . S
C961 C962 1.376 . S
C962 H949 0.930 . S
C962 C961 1.376 . S
C962 C963 1.388 . S
C963 H950 0.930 . S
C963 C962 1.388 . S
C963 C964 1.390 . S
C964 C963 1.390 . S
C964 C965 1.394 . S
C964 C970 1.465 . S
C965 C960 1.399 . S
C965 C964 1.394 . S
C965 C966 1.516 1_565 S
C966 C965 1.516 1_545 S
C966 C967 1.502 . S
C966 C968 1.561 . S
C966 C969 1.526 . S
C967 H951 0.959 1_545 S
C967 H952 0.959 . S
C967 H953 0.961 . S
C967 C966 1.502 . S
C968 H954 0.960 . S
C968 H955 0.961 . S
C968 H956 0.959 . S
C968 C966 1.561 . S
C969 C966 1.526 . S
C969 C970 1.396 1_545 S
C969 C974 1.390 . S
C970 C964 1.465 . S
C970 C969 1.396 1_565 S
C970 C971 1.399 . S
C971 H957 0.929 . S
C971 C970 1.399 . S
C971 C972 1.385 1_565 S
C972 H958 0.931 . S
C972 C971 1.385 1_545 S
C972 C973 1.389 . S
C973 C972 1.389 . S
C973 C974 1.387 . S
C974 H959 0.930 . S
C974 C969 1.390 . S
C974 C973 1.387 . S
H975 C987 0.930 . S
H976 C989 0.930 . S
H977 C990 0.930 . S
H978 C994 0.959 . S
H979 C994 0.959 . S
H980 C994 0.961 . S
H981 C995 0.960 . S
H982 C995 0.961 . S
H983 C995 0.959 . S
H984 C998 0.929 . S
H985 C999 0.931 . S
H986 C1001 0.930 . S
C987 H975 0.930 . S
C987 C988 1.399 . S
C987 C992 1.399 . S
C988 C987 1.399 . S
C988 C989 1.376 . S
C989 H976 0.930 . S
C989 C988 1.376 . S
C989 C990 1.388 . S
C990 H977 0.930 . S
C990 C989 1.388 . S
C990 C991 1.390 . S
C991 C990 1.390 . S
C991 C992 1.394 . S
C991 C997 1.465 . S
C992 C987 1.399 . S
C992 C991 1.394 . S
C992 C993 1.516 . S
C993 C992 1.516 . S
C993 C994 1.502 . S
C993 C995 1.561 . S
C993 C996 1.526 . S
C994 H978 0.959 . S
C994 H979 0.959 . S
C994 H980 0.961 . S
C994 C993 1.502 . S
C995 H981 0.960 . S
C995 H982 0.961 . S
C995 H983 0.959 . S
C995 C993 1.561 . S
C996 C993 1.526 . S
C996 C997 1.396 . S
C996 C1001 1.390 . S
C997 C991 1.465 . S
C997 C996 1.396 . S
C997 C998 1.399 . S
C998 H984 0.929 . S
C998 C997 1.399 . S
C998 C999 1.385 . S
C999 H985 0.931 . S
C999 C998 1.385 . S
C999 C1000 1.389 . S
C1000 C999 1.389 . S
C1000 C1001 1.387 . S
C1001 H986 0.930 . S
C1001 C996 1.390 . S
C1001 C1000 1.387 . S
H1002 C1014 0.930 . S
H1003 C1016 0.930 . S
H1004 C1017 0.930 . S
H1005 C1021 0.959 . S
H1006 C1021 0.959 . S
H1007 C1021 0.961 . S
H1008 C1022 0.960 . S
H1009 C1022 0.961 . S
H1010 C1022 0.959 . S
H1011 C1025 0.929 . S
H1012 C1026 0.931 . S
H1013 C1028 0.930 . S
C1014 H1002 0.930 . S
C1014 C1015 1.399 . S
C1014 C1019 1.399 . S
C1015 C1014 1.399 . S
C1015 C1016 1.376 . S
C1016 H1003 0.930 . S
C1016 C1015 1.376 . S
C1016 C1017 1.388 1_655 S
C1017 H1004 0.930 . S
C1017 C1016 1.388 1_455 S
C1017 C1018 1.390 . S
C1018 C1017 1.390 . S
C1018 C1019 1.394 1_455 S
C1018 C1024 1.465 . S
C1019 C1014 1.399 . S
C1019 C1018 1.394 1_655 S
C1019 C1020 1.516 . S
C1020 C1019 1.516 . S
C1020 C1021 1.502 . S
C1020 C1022 1.561 . S
C1020 C1023 1.526 1_655 S
C1021 H1005 0.959 . S
C1021 H1006 0.959 . S
C1021 H1007 0.961 . S
C1021 C1020 1.502 . S
C1022 H1008 0.960 . S
C1022 H1009 0.961 . S
C1022 H1010 0.959 . S
C1022 C1020 1.561 . S
C1023 C1020 1.526 1_455 S
C1023 C1024 1.396 . S
C1023 C1028 1.390 . S
C1024 C1018 1.465 . S
C1024 C1023 1.396 . S
C1024 C1025 1.399 . S
C1025 H1011 0.929 . S
C1025 C1024 1.399 . S
C1025 C1026 1.385 . S
C1026 H1012 0.931 . S
C1026 C1025 1.385 . S
C1026 C1027 1.389 . S
C1027 C1026 1.389 . S
C1027 C1028 1.387 . S
C1028 H1013 0.930 . S
C1028 C1023 1.390 . S
C1028 C1027 1.387 . S
H1029 C1041 0.930 . S
H1030 C1043 0.930 . S
H1031 C1044 0.930 . S
H1032 C1048 0.959 . S
H1033 C1048 0.959 . S
H1034 C1048 0.961 . S
H1035 C1049 0.960 . S
H1036 C1049 0.961 . S
H1037 C1049 0.959 . S
H1038 C1052 0.929 1_565 S
H1039 C1053 0.931 . S
H1040 C1055 0.930 . S
C1041 H1029 0.930 . S
C1041 C1042 1.399 . S
C1041 C1046 1.399 . S
C1042 C1041 1.399 . S
C1042 C1043 1.376 . S
C1043 H1030 0.930 . S
C1043 C1042 1.376 . S
C1043 C1044 1.388 . S
C1044 H1031 0.930 . S
C1044 C1043 1.388 . S
C1044 C1045 1.390 . S
C1045 C1044 1.390 . S
C1045 C1046 1.394 . S
C1045 C1051 1.465 1_565 S
C1046 C1041 1.399 . S
C1046 C1045 1.394 . S
C1046 C1047 1.516 1_565 S
C1047 C1046 1.516 1_545 S
C1047 C1048 1.502 . S
C1047 C1049 1.561 . S
C1047 C1050 1.526 . S
C1048 H1032 0.959 . S
C1048 H1033 0.959 . S
C1048 H1034 0.961 . S
C1048 C1047 1.502 . S
C1049 H1035 0.960 . S
C1049 H1036 0.961 . S
C1049 H1037 0.959 . S
C1049 C1047 1.561 . S
C1050 C1047 1.526 . S
C1050 C1051 1.396 . S
C1050 C1055 1.390 . S
C1051 C1045 1.465 1_545 S
C1051 C1050 1.396 . S
C1051 C1052 1.399 . S
C1052 H1038 0.929 1_545 S
C1052 C1051 1.399 . S
C1052 C1053 1.385 . S
C1053 H1039 0.931 . S
C1053 C1052 1.385 . S
C1053 C1054 1.389 . S
C1054 C1053 1.389 . S
C1054 C1055 1.387 . S
C1055 H1040 0.930 . S
C1055 C1050 1.390 . S
C1055 C1054 1.387 . S
H1056 C1068 0.930 . S
H1057 C1070 0.930 . S
H1058 C1071 0.930 . S
H1059 C1075 0.959 . S
H1060 C1075 0.959 . S
H1061 C1075 0.961 . S
H1062 C1076 0.960 . S
H1063 C1076 0.961 . S
H1064 C1076 0.959 . S
H1065 C1079 0.929 . S
H1066 C1080 0.931 . S
H1067 C1082 0.930 . S
C1068 H1056 0.930 . S
C1068 C1069 1.399 . S
C1068 C1073 1.399 . S
C1069 C1068 1.399 . S
C1069 C1070 1.376 . S
C1070 H1057 0.930 . S
C1070 C1069 1.376 . S
C1070 C1071 1.388 . S
C1071 H1058 0.930 . S
C1071 C1070 1.388 . S
C1071 C1072 1.390 . S
C1072 C1071 1.390 . S
C1072 C1073 1.394 . S
C1072 C1078 1.465 . S
C1073 C1068 1.399 . S
C1073 C1072 1.394 . S
C1073 C1074 1.516 . S
C1074 C1073 1.516 . S
C1074 C1075 1.502 . S
C1074 C1076 1.561 . S
C1074 C1077 1.526 . S
C1075 H1059 0.959 . S
C1075 H1060 0.959 . S
C1075 H1061 0.961 . S
C1075 C1074 1.502 . S
C1076 H1062 0.960 . S
C1076 H1063 0.961 . S
C1076 H1064 0.959 . S
C1076 C1074 1.561 . S
C1077 C1074 1.526 . S
C1077 C1078 1.396 . S
C1077 C1082 1.390 . S
C1078 C1072 1.465 . S
C1078 C1077 1.396 . S
C1078 C1079 1.399 . S
C1079 H1065 0.929 . S
C1079 C1078 1.399 . S
C1079 C1080 1.385 . S
C1080 H1066 0.931 . S
C1080 C1079 1.385 . S
C1080 C1081 1.389 . S
C1081 C1080 1.389 . S
C1081 C1082 1.387 . S
C1082 H1067 0.930 . S
C1082 C1077 1.390 . S
C1082 C1081 1.387 . S
H1083 C1095 0.930 . S
H1084 C1097 0.930 . S
H1085 C1098 0.930 . S
H1086 C1102 0.959 . S
H1087 C1102 0.959 . S
H1088 C1102 0.961 . S
H1089 C1103 0.960 . S
H1090 C1103 0.961 . S
H1091 C1103 0.959 . S
H1092 C1106 0.929 . S
H1093 C1107 0.931 . S
H1094 C1109 0.930 . S
C1095 H1083 0.930 . S
C1095 C1096 1.399 . S
C1095 C1100 1.399 . S
C1096 C1095 1.399 . S
C1096 C1097 1.376 . S
C1097 H1084 0.930 . S
C1097 C1096 1.376 . S
C1097 C1098 1.388 . S
C1098 H1085 0.930 . S
C1098 C1097 1.388 . S
C1098 C1099 1.390 . S
C1099 C1098 1.390 . S
C1099 C1100 1.394 . S
C1099 C1105 1.465 . S
C1100 C1095 1.399 . S
C1100 C1099 1.394 . S
C1100 C1101 1.516 1_655 S
C1101 C1100 1.516 1_455 S
C1101 C1102 1.502 . S
C1101 C1103 1.561 . S
C1101 C1104 1.526 . S
C1102 H1086 0.959 . S
C1102 H1087 0.959 . S
C1102 H1088 0.961 . S
C1102 C1101 1.502 . S
C1103 H1089 0.960 . S
C1103 H1090 0.961 . S
C1103 H1091 0.959 . S
C1103 C1101 1.561 . S
C1104 C1101 1.526 . S
C1104 C1105 1.396 1_455 S
C1104 C1109 1.390 . S
C1105 C1099 1.465 . S
C1105 C1104 1.396 1_655 S
C1105 C1106 1.399 . S
C1106 H1092 0.929 . S
C1106 C1105 1.399 . S
C1106 C1107 1.385 1_655 S
C1107 H1093 0.931 . S
C1107 C1106 1.385 1_455 S
C1107 C1108 1.389 . S
C1108 C1107 1.389 . S
C1108 C1109 1.387 . S
C1109 H1094 0.930 . S
C1109 C1104 1.390 . S
C1109 C1108 1.387 . S
H1110 C1122 0.930 . S
H1111 C1124 0.930 . S
H1112 C1125 0.930 . S
H1113 C1129 0.959 . S
H1114 C1129 0.959 . S
H1115 C1129 0.961 . S
H1116 C1130 0.960 1_565 S
H1117 C1130 0.961 . S
H1118 C1130 0.959 . S
H1119 C1133 0.929 . S
H1120 C1134 0.931 . S
H1121 C1136 0.930 . S
C1122 H1110 0.930 . S
C1122 C1123 1.399 . S
C1122 C1127 1.399 . S
C1123 C1122 1.399 . S
C1123 C1124 1.376 . S
C1124 H1111 0.930 . S
C1124 C1123 1.376 . S
C1124 C1125 1.388 . S
C1125 H1112 0.930 . S
C1125 C1124 1.388 . S
C1125 C1126 1.390 . S
C1126 C1125 1.390 . S
C1126 C1127 1.394 . S
C1126 C1132 1.465 1_565 S
C1127 C1122 1.399 . S
C1127 C1126 1.394 . S
C1127 C1128 1.516 . S
C1128 C1127 1.516 . S
C1128 C1129 1.502 . S
C1128 C1130 1.561 1_565 S
C1128 C1131 1.526 1_565 S
C1129 H1113 0.959 . S
C1129 H1114 0.959 . S
C1129 H1115 0.961 . S
C1129 C1128 1.502 . S
C1130 H1116 0.960 1_545 S
C1130 H1117 0.961 . S
C1130 H1118 0.959 . S
C1130 C1128 1.561 1_545 S
C1131 C1128 1.526 1_545 S
C1131 C1132 1.396 . S
C1131 C1136 1.390 . S
C1132 C1126 1.465 1_545 S
C1132 C1131 1.396 . S
C1132 C1133 1.399 . S
C1133 H1119 0.929 . S
C1133 C1132 1.399 . S
C1133 C1134 1.385 . S
C1134 H1120 0.931 . S
C1134 C1133 1.385 . S
C1134 C1135 1.389 . S
C1135 C1134 1.389 . S
C1135 C1136 1.387 . S
C1136 H1121 0.930 . S
C1136 C1131 1.390 . S
C1136 C1135 1.387 . S
H1137 C1149 0.930 . S
H1138 C1151 0.930 . S
H1139 C1152 0.930 . S
H1140 C1156 0.959 . S
H1141 C1156 0.959 . S
H1142 C1156 0.961 . S
H1143 C1157 0.960 . S
H1144 C1157 0.961 . S
H1145 C1157 0.959 . S
H1146 C1160 0.929 . S
H1147 C1161 0.931 . S
H1148 C1163 0.930 . S
C1149 H1137 0.930 . S
C1149 C1150 1.399 . S
C1149 C1154 1.399 . S
C1150 C1149 1.399 . S
C1150 C1151 1.376 . S
C1151 H1138 0.930 . S
C1151 C1150 1.376 . S
C1151 C1152 1.388 . S
C1152 H1139 0.930 . S
C1152 C1151 1.388 . S
C1152 C1153 1.390 . S
C1153 C1152 1.390 . S
C1153 C1154 1.394 . S
C1153 C1159 1.465 . S
C1154 C1149 1.399 . S
C1154 C1153 1.394 . S
C1154 C1155 1.516 . S
C1155 C1154 1.516 . S
C1155 C1156 1.502 . S
C1155 C1157 1.561 . S
C1155 C1158 1.526 . S
C1156 H1140 0.959 . S
C1156 H1141 0.959 . S
C1156 H1142 0.961 . S
C1156 C1155 1.502 . S
C1157 H1143 0.960 . S
C1157 H1144 0.961 . S
C1157 H1145 0.959 . S
C1157 C1155 1.561 . S
C1158 C1155 1.526 . S
C1158 C1159 1.396 . S
C1158 C1163 1.390 . S
C1159 C1153 1.465 . S
C1159 C1158 1.396 . S
C1159 C1160 1.399 . S
C1160 H1146 0.929 . S
C1160 C1159 1.399 . S
C1160 C1161 1.385 . S
C1161 H1147 0.931 . S
C1161 C1160 1.385 . S
C1161 C1162 1.389 . S
C1162 C1161 1.389 . S
C1162 C1163 1.387 . S
C1163 H1148 0.930 . S
C1163 C1158 1.390 . S
C1163 C1162 1.387 . S
H1164 C1176 0.930 . S
H1165 C1178 0.930 . S
H1166 C1179 0.930 1_455 S
H1167 C1183 0.959 1_455 S
H1168 C1183 0.959 . S
H1169 C1183 0.961 . S
H1170 C1184 0.960 . S
H1171 C1184 0.961 . S
H1172 C1184 0.959 . S
H1173 C1187 0.929 . S
H1174 C1188 0.931 . S
H1175 C1190 0.930 . S
C1176 H1164 0.930 . S
C1176 C1177 1.399 . S
C1176 C1181 1.399 . S
C1177 C1176 1.399 . S
C1177 C1178 1.376 . S
C1178 H1165 0.930 . S
C1178 C1177 1.376 . S
C1178 C1179 1.388 . S
C1179 H1166 0.930 1_655 S
C1179 C1178 1.388 . S
C1179 C1180 1.390 1_655 S
C1180 C1179 1.390 1_455 S
C1180 C1181 1.394 1_455 S
C1180 C1186 1.465 . S
C1181 C1176 1.399 . S
C1181 C1180 1.394 1_655 S
C1181 C1182 1.516 . S
C1182 C1181 1.516 . S
C1182 C1183 1.502 . S
C1182 C1184 1.561 . S
C1182 C1185 1.526 1_655 S
C1183 H1167 0.959 1_655 S
C1183 H1168 0.959 . S
C1183 H1169 0.961 . S
C1183 C1182 1.502 . S
C1184 H1170 0.960 . S
C1184 H1171 0.961 . S
C1184 H1172 0.959 . S
C1184 C1182 1.561 . S
C1185 C1182 1.526 1_455 S
C1185 C1186 1.396 . S
C1185 C1190 1.390 . S
C1186 C1180 1.465 . S
C1186 C1185 1.396 . S
C1186 C1187 1.399 . S
C1187 H1173 0.929 . S
C1187 C1186 1.399 . S
C1187 C1188 1.385 . S
C1188 H1174 0.931 . S
C1188 C1187 1.385 . S
C1188 C1189 1.389 . S
C1189 C1188 1.389 . S
C1189 C1190 1.387 . S
C1190 H1175 0.930 . S
C1190 C1185 1.390 . S
C1190 C1189 1.387 . S
H1191 C1203 0.930 . S
H1192 C1205 0.930 . S
H1193 C1206 0.930 . S
H1194 C1210 0.959 . S
H1195 C1210 0.959 . S
H1196 C1210 0.961 . S
H1197 C1211 0.960 . S
H1198 C1211 0.961 . S
H1199 C1211 0.959 . S
H1200 C1214 0.929 . S
H1201 C1215 0.931 . S
H1202 C1217 0.930 . S
C1203 H1191 0.930 . S
C1203 C1204 1.399 . S
C1203 C1208 1.399 . S
C1204 C1203 1.399 . S
C1204 C1205 1.376 . S
C1205 H1192 0.930 . S
C1205 C1204 1.376 . S
C1205 C1206 1.388 . S
C1206 H1193 0.930 . S
C1206 C1205 1.388 . S
C1206 C1207 1.390 . S
C1207 C1206 1.390 . S
C1207 C1208 1.394 . S
C1207 C1213 1.465 . S
C1208 C1203 1.399 . S
C1208 C1207 1.394 . S
C1208 C1209 1.516 1_545 S
C1209 C1208 1.516 1_565 S
C1209 C1210 1.502 . S
C1209 C1211 1.561 . S
C1209 C1212 1.526 . S
C1210 H1194 0.959 . S
C1210 H1195 0.959 . S
C1210 H1196 0.961 . S
C1210 C1209 1.502 . S
C1211 H1197 0.960 . S
C1211 H1198 0.961 . S
C1211 H1199 0.959 . S
C1211 C1209 1.561 . S
C1212 C1209 1.526 . S
C1212 C1213 1.396 1_565 S
C1212 C1217 1.390 . S
C1213 C1207 1.465 . S
C1213 C1212 1.396 1_545 S
C1213 C1214 1.399 . S
C1214 H1200 0.929 . S
C1214 C1213 1.399 . S
C1214 C1215 1.385 1_545 S
C1215 H1201 0.931 . S
C1215 C1214 1.385 1_565 S
C1215 C1216 1.389 . S
C1216 C1215 1.389 . S
C1216 C1217 1.387 . S
C1217 H1202 0.930 . S
C1217 C1212 1.390 . S
C1217 C1216 1.387 . S
C421 C5 0.831 . S
C433 C277 0.780 1_545 S
C448 C311 0.751 . S
C460 C39 0.765 1_455 S
C475 C345 0.865 1_655 S
C487 C73 0.868 1_545 S
C502 C107 0.871 . S
C514 C379 0.861 1_565 S
C529 C141 0.824 1_655 S
C541 C209 0.773 . S
C556 C175 0.780 1_565 S
C568 C243 0.751 1_455 S
C583 C247 1.490 1_554 S
C595 C33 1.528 . S
C610 C67 1.566 . S
C622 C281 1.548 . S
C637 C315 1.523 . S
C649 C101 1.542 . S
C664 C349 1.508 . S
C676 C135 1.532 . S
C691 C383 1.493 . S
C703 C169 1.523 . S
C718 C213 1.510 . S
C730 C203 1.533 . S
C745 C179 1.514 . S
C757 C237 1.536 . S
C772 C271 1.566 . S
C784 C9 1.548 . S
C799 C305 1.566 . S
C811 C43 1.547 . S
C826 C77 1.515 . S
C838 C339 1.537 . S
C853 C111 1.486 . S
C865 C373 1.520 . S
C880 C145 1.503 . S
C892 C407 1.529 . S
C907 C190 1.313 . S
C919 C2 1.229 . S
C934 C20 1.241 . S
C946 C36 1.274 . S
C961 C70 1.302 . S
C973 C54 1.241 . S
C988 C88 1.240 . S
C1000 C104 1.276 . S
C1015 C122 1.268 . S
C1027 C138 1.298 . S
C1042 C156 1.247 . S
C1054 C172 1.262 . S
C1069 C206 1.219 . S
C1081 C258 1.310 . S
C1096 C240 1.288 1_554 S
C1108 C292 1.282 . S
C1123 C274 1.269 . S
C1135 C326 1.244 . S
C1150 C360 1.293 . S
C1162 C308 1.276 . S
C1177 C394 1.309 . S
C1189 C342 1.248 . S
C1204 C376 1.305 . S
C1216 C224 1.254 . S
