# Generated by pormake.
# Topology wjg, (4)-cn, num edge types: 1
# Building blocks:
#     Node 0, Type 0, BuildingBlock: CEKHIL_clean_sbu_0, # of connection points: 4
#     Node 1, Type 0, BuildingBlock: CEKHIL_clean_sbu_0, # of connection points: 4
#     Node 2, Type 0, BuildingBlock: CEKHIL_clean_sbu_0, # of connection points: 4
#     Node 3, Type 0, BuildingBlock: CEKHIL_clean_sbu_0, # of connection points: 4
#     Node 4, Type 0, BuildingBlock: CEKHIL_clean_sbu_0, # of connection points: 4
#     Node 5, Type 0, BuildingBlock: CEKHIL_clean_sbu_0, # of connection points: 4
#     Node 6, Type 0, BuildingBlock: CEKHIL_clean_sbu_0, # of connection points: 4
#     Node 7, Type 0, BuildingBlock: CEKHIL_clean_sbu_0, # of connection points: 4
#     Node 8, Type 0, BuildingBlock: CEKHIL_clean_sbu_0, # of connection points: 4
#     Node 9, Type 0, BuildingBlock: CEKHIL_clean_sbu_0, # of connection points: 4
#     Node 10, Type 0, BuildingBlock: CEKHIL_clean_sbu_0, # of connection points: 4
#     Node 11, Type 0, BuildingBlock: CEKHIL_clean_sbu_0, # of connection points: 4
#     Edge 12, Type (0, 0), BuildingBlock: AJUNOK_clean_linker_0, # of connection points: 2
#     Edge 13, Type (0, 0), BuildingBlock: AJUNOK_clean_linker_0, # of connection points: 2
#     Edge 14, Type (0, 0), BuildingBlock: AJUNOK_clean_linker_0, # of connection points: 2
#     Edge 15, Type (0, 0), BuildingBlock: AJUNOK_clean_linker_0, # of connection points: 2
#     Edge 16, Type (0, 0), BuildingBlock: AJUNOK_clean_linker_0, # of connection points: 2
#     Edge 17, Type (0, 0), BuildingBlock: AJUNOK_clean_linker_0, # of connection points: 2
#     Edge 18, Type (0, 0), BuildingBlock: AJUNOK_clean_linker_0, # of connection points: 2
#     Edge 19, Type (0, 0), BuildingBlock: AJUNOK_clean_linker_0, # of connection points: 2
#     Edge 20, Type (0, 0), BuildingBlock: AJUNOK_clean_linker_0, # of connection points: 2
#     Edge 21, Type (0, 0), BuildingBlock: AJUNOK_clean_linker_0, # of connection points: 2
#     Edge 22, Type (0, 0), BuildingBlock: AJUNOK_clean_linker_0, # of connection points: 2
#     Edge 23, Type (0, 0), BuildingBlock: AJUNOK_clean_linker_0, # of connection points: 2
#     Edge 24, Type (0, 0), BuildingBlock: AJUNOK_clean_linker_0, # of connection points: 2
#     Edge 25, Type (0, 0), BuildingBlock: AJUNOK_clean_linker_0, # of connection points: 2
#     Edge 26, Type (0, 0), BuildingBlock: AJUNOK_clean_linker_0, # of connection points: 2
#     Edge 27, Type (0, 0), BuildingBlock: AJUNOK_clean_linker_0, # of connection points: 2
#     Edge 28, Type (0, 0), BuildingBlock: AJUNOK_clean_linker_0, # of connection points: 2
#     Edge 29, Type (0, 0), BuildingBlock: AJUNOK_clean_linker_0, # of connection points: 2
#     Edge 30, Type (0, 0), BuildingBlock: AJUNOK_clean_linker_0, # of connection points: 2
#     Edge 31, Type (0, 0), BuildingBlock: AJUNOK_clean_linker_0, # of connection points: 2
#     Edge 32, Type (0, 0), BuildingBlock: AJUNOK_clean_linker_0, # of connection points: 2
#     Edge 33, Type (0, 0), BuildingBlock: AJUNOK_clean_linker_0, # of connection points: 2
#     Edge 34, Type (0, 0), BuildingBlock: AJUNOK_clean_linker_0, # of connection points: 2
#     Edge 35, Type (0, 0), BuildingBlock: AJUNOK_clean_linker_0, # of connection points: 2
# Relax obj value: 0.325
# Max RMSD: 0.122
# Mean RMSD: 0.112
data_MOF--net-wjg--node1-CEKHIL_clean_sbu_0--edge1-AJUNOK_clean_linker_0
_symmetry_space_group_name_H-M    P1
_symmetry_Int_Tables_number       1
_symmetry_cell_setting            triclinic
loop_
_symmetry_equiv_pos_as_xyz
'x, y, z'
_cell_length_a     22.852019
_cell_length_b     22.720813
_cell_length_c     29.189184
_cell_angle_alpha  90.000031
_cell_angle_beta   90.084126
_cell_angle_gamma 120.22584
loop_
_atom_site_label
_atom_site_type_symbol
_atom_site_fract_x
_atom_site_fract_y
_atom_site_fract_z
_atom_type_partial_charge
Co0 Co 0.15671 0.39348 0.31905 0.0
O1 O 0.14326 0.39307 0.25457 0.0
O2 O 0.06463 0.37366 0.30584 0.0
C3 C 0.25681 0.49013 0.32105 0.0
O4 O 0.16113 0.39259 0.38981 0.0
Co5 Co 0.27977 0.37562 0.3436 0.0
O6 O 0.25675 0.39004 0.40657 0.0
C7 C 0.15303 0.25897 0.31318 0.0
C8 C 0.08239 0.37957 0.26276 0.0
C9 C 0.20455 0.39283 0.41884 0.0
O10 O 0.12334 0.29336 0.31883 0.0
O11 O 0.21763 0.28685 0.31223 0.0
O12 O 0.20107 0.49211 0.32025 0.0
O13 O 0.24972 0.43095 0.31356 0.0
Co14 Co 0.75437 0.15744 0.65454 0.0
O15 O 0.74231 0.14577 0.5898 0.0
O16 O 0.6847 0.06384 0.63982 0.0
C17 C 0.75347 0.2555 0.65753 0.0
O18 O 0.75889 0.15948 0.7254 0.0
Co19 Co 0.89176 0.2854 0.68165 0.0
O20 O 0.8509 0.26093 0.74366 0.0
C21 C 0.88868 0.16201 0.64993 0.0
C22 C 0.69642 0.0834 0.59703 0.0
C23 C 0.79845 0.20498 0.75513 0.0
O24 O 0.8242 0.12884 0.65373 0.0
O25 O 0.92351 0.22716 0.65131 0.0
O26 O 0.69694 0.19782 0.65642 0.0
O27 O 0.807 0.25155 0.65024 0.0
Co28 Co 0.58878 0.76833 0.98216 0.0
O29 O 0.58605 0.75384 0.91763 0.0
O30 O 0.60659 0.69463 0.96855 0.0
C31 C 0.49349 0.77263 0.98646 0.0
O32 O 0.59262 0.77448 0.05294 0.0
Co33 Co 0.60954 0.91087 1.00722 0.0
O34 O 0.59656 0.87364 0.07031 0.0
C35 C 0.72294 0.89922 0.97358 0.0
C36 C 0.59867 0.70556 0.92561 0.0
C37 C 0.5935 0.81807 0.08228 0.0
O38 O 0.68843 0.83488 0.97998 0.0
O39 O 0.69579 0.93665 0.97347 0.0
O40 O 0.49107 0.71438 0.98521 0.0
O41 O 0.55203 0.82488 0.97775 0.0
Co42 Co 0.8217 0.58754 0.3203 0.0
O43 O 0.83695 0.58515 0.25638 0.0
O44 O 0.91631 0.61498 0.30921 0.0
C45 C 0.72673 0.48608 0.32293 0.0
O46 O 0.8163 0.59267 0.3907 0.0
Co47 Co 0.68967 0.59084 0.34238 0.0
O48 O 0.71226 0.57711 0.40576 0.0
C49 C 0.81211 0.71534 0.31257 0.0
C50 C 0.89916 0.60476 0.26594 0.0
C51 C 0.76898 0.58476 0.41901 0.0
O52 O 0.84645 0.6853 0.31638 0.0
O53 O 0.74735 0.68397 0.31515 0.0
O54 O 0.78529 0.49002 0.32451 0.0
O55 O 0.72825 0.54229 0.31351 0.0
Co56 Co 0.21529 0.82802 0.65737 0.0
O57 O 0.22734 0.83894 0.59275 0.0
O58 O 0.28057 0.9229 0.64224 0.0
C59 C 0.22424 0.73463 0.66188 0.0
O60 O 0.20929 0.82626 0.72812 0.0
Co61 Co 0.08138 0.69385 0.68208 0.0
O62 O 0.11795 0.72344 0.74489 0.0
C63 C 0.07641 0.81374 0.65122 0.0
C64 C 0.26974 0.90251 0.59956 0.0
C65 C 0.1682 0.78066 0.75713 0.0
O66 O 0.14076 0.84985 0.65496 0.0
O67 O 0.04423 0.74856 0.65321 0.0
O68 O 0.27825 0.79436 0.66083 0.0
O69 O 0.16851 0.73386 0.65336 0.0
Co70 Co 0.38598 0.21813 0.98247 0.0
O71 O 0.3897 0.23473 0.91821 0.0
O72 O 0.3609 0.28687 0.96959 0.0
C73 C 0.4857 0.22286 0.98842 0.0
O74 O 0.37927 0.20824 0.05302 0.0
Co75 Co 0.37677 0.07929 1.00446 0.0
O76 O 0.38343 0.11253 0.06821 0.0
C77 C 0.25562 0.0817 0.97489 0.0
C78 C 0.37061 0.27821 0.92656 0.0
C79 C 0.37992 0.16429 0.08131 0.0
O80 O 0.28823 0.14657 0.97805 0.0
O81 O 0.28449 0.0459 0.97714 0.0
O82 O 0.48273 0.27832 0.98781 0.0
O83 O 0.42997 0.16819 0.97774 0.0
Co84 Co 0.59864 0.83109 0.38111 0.0
O85 O 0.60197 0.84479 0.44574 0.0
O86 O 0.62048 0.92433 0.39513 0.0
C87 C 0.50098 0.73156 0.38051 0.0
O88 O 0.59656 0.82619 0.31023 0.0
Co89 Co 0.61139 0.70467 0.35547 0.0
O90 O 0.59134 0.72623 0.29353 0.0
C91 C 0.72946 0.82978 0.38615 0.0
C92 C 0.61594 0.90632 0.43813 0.0
C93 C 0.59051 0.77979 0.2813 0.0
O94 O 0.69763 0.86189 0.37946 0.0
O95 O 0.69904 0.7647 0.38836 0.0
O96 O 0.50058 0.78842 0.38175 0.0
O97 O 0.55951 0.73739 0.38666 0.0
Co98 Co 0.74579 0.5938 0.71631 0.0
O99 O 0.72905 0.59248 0.78028 0.0
O100 O 0.67406 0.61509 0.7274 0.0
C101 C 0.74782 0.49634 0.7144 0.0
O102 O 0.75592 0.59724 0.64587 0.0
Co103 Co 0.88803 0.61114 0.69745 0.0
O104 O 0.85573 0.60119 0.63315 0.0
C105 C 0.87704 0.72554 0.72891 0.0
C106 C 0.68355 0.60822 0.77082 0.0
C107 C 0.80201 0.59931 0.61868 0.0
O108 O 0.81416 0.69343 0.71852 0.0
O109 O 0.91051 0.69475 0.73424 0.0
O110 O 0.69037 0.49502 0.7134 0.0
O111 O 0.79968 0.55502 0.72342 0.0
Co112 Co 0.15688 0.76957 0.05614 0.0
O113 O 0.14339 0.75599 0.12056 0.0
O114 O 0.06491 0.69629 0.06886 0.0
C115 C 0.25644 0.77337 0.05392 0.0
O116 O 0.16049 0.77507 0.98541 0.0
Co117 Co 0.28036 0.91086 0.03048 0.0
O118 O 0.25888 0.87097 0.96793 0.0
C119 C 0.15428 0.90084 0.06128 0.0
C120 C 0.08241 0.70804 0.11202 0.0
C121 C 0.20492 0.81659 0.95605 0.0
O122 O 0.12412 0.83619 0.05668 0.0
O123 O 0.21896 0.93812 0.06143 0.0
O124 O 0.20034 0.7153 0.05472 0.0
O125 O 0.25022 0.82589 0.06158 0.0
Co126 Co 0.37792 0.14996 0.38085 0.0
O127 O 0.37909 0.13917 0.44548 0.0
O128 O 0.34906 0.05524 0.3961 0.0
C129 C 0.48 0.24401 0.37731 0.0
O130 O 0.37429 0.15176 0.31004 0.0
Co131 Co 0.3774 0.28304 0.35469 0.0
O132 O 0.39079 0.25624 0.29252 0.0
C133 C 0.25325 0.16344 0.38724 0.0
C134 C 0.35924 0.07593 0.43873 0.0
C135 C 0.38317 0.19866 0.28063 0.0
O136 O 0.28126 0.12726 0.38289 0.0
O137 O 0.28631 0.2286 0.38474 0.0
O138 O 0.47472 0.18449 0.37803 0.0
O139 O 0.42454 0.24416 0.38498 0.0
Co140 Co 0.22356 0.39197 0.71675 0.0
O141 O 0.23795 0.39031 0.78085 0.0
O142 O 0.29164 0.36556 0.72834 0.0
C143 C 0.22869 0.49288 0.71701 0.0
O144 O 0.21608 0.39198 0.64611 0.0
Co145 Co 0.08738 0.38724 0.69493 0.0
O146 O 0.12546 0.40451 0.632 0.0
C147 C 0.08696 0.26364 0.72352 0.0
C148 C 0.28239 0.37314 0.77167 0.0
C149 C 0.17648 0.40066 0.61828 0.0
O150 O 0.151 0.29364 0.71741 0.0
O151 O 0.05398 0.29549 0.72388 0.0
O152 O 0.2839 0.49001 0.71578 0.0
O153 O 0.17416 0.43558 0.72432 0.0
Co154 Co 0.82165 0.21994 0.05297 0.0
O155 O 0.83754 0.23542 0.11713 0.0
O156 O 0.91568 0.29028 0.06454 0.0
C157 C 0.72508 0.22256 0.05206 0.0
O158 O 0.81494 0.21153 0.98233 0.0
Co159 Co 0.6916 0.08056 0.0316 0.0
O160 O 0.71502 0.11531 0.96793 0.0
C161 C 0.81716 0.08444 0.0579 0.0
C162 C 0.89916 0.28083 0.1079 0.0
C163 C 0.76935 0.16779 0.95436 0.0
O164 O 0.84939 0.1493 0.05421 0.0
O165 O 0.75234 0.04878 0.05787 0.0
O166 O 0.783 0.27865 0.05111 0.0
O167 O 0.72814 0.16833 0.06004 0.0
C168 C 0.32134 0.61086 0.34456 0.0
C169 C 0.32095 0.55002 0.33527 0.0
C170 C 0.37967 0.66847 0.35998 0.0
C171 C 0.44012 0.66774 0.36683 0.0
H172 H 0.27611 0.61433 0.34003 0.0
H173 H 0.37711 0.7141 0.36634 0.0
S174 S 0.46607 0.5209 0.3478 0.0
N175 N 0.38618 0.49216 0.33371 0.0
N176 N 0.49619 0.60075 0.36384 0.0
C177 C 0.44066 0.60714 0.35805 0.0
C178 C 0.38098 0.54822 0.34186 0.0
C179 C 0.69361 0.31689 0.67855 0.0
C180 C 0.75521 0.31872 0.67114 0.0
C181 C 0.69226 0.37455 0.69315 0.0
C182 C 0.75245 0.43633 0.70117 0.0
H183 H 0.64567 0.27048 0.6731 0.0
H184 H 0.64334 0.37042 0.69808 0.0
S185 S 0.9275 0.46826 0.68688 0.0
N186 N 0.87826 0.38769 0.67226 0.0
N187 N 0.87571 0.49602 0.70113 0.0
C188 C 0.81463 0.43903 0.69422 0.0
C189 C 0.81602 0.38023 0.67873 0.0
C190 C 0.37475 0.71582 1.01206 0.0
C191 C 0.43491 0.77692 1.00275 0.0
C192 C 0.31838 0.71599 0.02959 0.0
C193 C 0.31953 0.77727 0.03852 0.0
H194 H 0.37079 0.66691 1.00591 0.0
H195 H 0.27329 0.66721 0.03583 0.0
S196 S 0.46507 0.95175 0.02075 0.0
N197 N 0.49287 0.90084 1.00378 0.0
N198 N 0.38624 0.90118 0.03766 0.0
C199 C 0.37947 0.83912 0.02982 0.0
C200 C 0.43729 0.83894 1.01156 0.0
C201 C 0.54388 0.36614 0.35444 0.0
C202 C 0.54347 0.30544 0.36443 0.0
C203 C 0.60329 0.42428 0.34032 0.0
C204 C 0.66425 0.42366 0.33605 0.0
H205 H 0.49798 0.36876 0.35713 0.0
H206 H 0.60137 0.47 0.33297 0.0
S207 S 0.69004 0.27749 0.35904 0.0
N208 N 0.60916 0.24824 0.36973 0.0
N209 N 0.72075 0.35738 0.34316 0.0
C210 C 0.66453 0.36329 0.34613 0.0
C211 C 0.60411 0.30417 0.36039 0.0
C212 C 0.16593 0.61107 0.68079 0.0
C213 C 0.22639 0.67379 0.67629 0.0
C214 C 0.16683 0.55285 0.69516 0.0
C215 C 0.22826 0.55547 0.7052 0.0
H216 H 0.11752 0.60673 0.67311 0.0
H217 H 0.11915 0.50542 0.69769 0.0
S218 S 0.4004 0.70806 0.70072 0.0
N219 N 0.34925 0.73558 0.6843 0.0
N220 N 0.35084 0.62616 0.71131 0.0
C221 C 0.28899 0.61807 0.70151 0.0
C222 C 0.28809 0.67729 0.68698 0.0
C223 C 0.60508 0.16117 0.02463 0.0
C224 C 0.66248 0.22173 0.03922 0.0
C225 C 0.54775 0.16166 1.00802 0.0
C226 C 0.54618 0.22268 1.00567 0.0
H227 H 0.60494 0.11345 0.02499 0.0
H228 H 0.50475 0.11412 0.99663 0.0
S229 S 0.68195 0.39401 0.04346 0.0
N230 N 0.71283 0.34336 0.05302 0.0
N231 N 0.60589 0.34462 0.02166 0.0
C232 C 0.60274 0.2832 0.02141 0.0
C233 C 0.66071 0.28261 0.03829 0.0
C234 C 0.13451 0.14418 0.30521 0.0
C235 C 0.11659 0.18741 0.32775 0.0
C236 C 0.16574 0.11468 0.33007 0.0
C237 C 0.18084 0.13097 0.37679 0.0
H238 H 0.13858 0.14566 0.26819 0.0
H239 H 0.19186 0.09398 0.31083 0.0
S240 S 0.10142 0.20052 0.45276 0.0
N241 N 0.08023 0.21057 0.40039 0.0
N242 N 0.14582 0.16184 0.44673 0.0
C243 C 0.14277 0.15359 0.40054 0.0
C244 C 0.1075 0.17978 0.37547 0.0
C245 C 0.98655 0.14762 0.63999 0.0
C246 C 0.92556 0.12728 0.66324 0.0
C247 C 0.04764 0.17831 0.66453 0.0
C248 C 0.04713 0.19117 0.71171 0.0
H249 H -0.01138 0.1535 0.60308 0.0
H250 H 0.09419 0.20592 0.64513 0.0
S251 S 0.89907 0.1071 0.7883 0.0
N252 N 0.86707 0.08779 0.736 0.0
N253 N 0.98213 0.15233 0.78188 0.0
C254 C 0.9867 0.15121 0.73554 0.0
C255 C 0.92481 0.1165 0.71071 0.0
C256 C 0.83036 0.98427 0.06231 0.0
C257 C 0.85226 0.04857 0.04286 0.0
C258 C 0.80391 0.92672 0.03388 0.0
C259 C 0.79471 0.9339 0.98685 0.0
H260 H 0.82056 0.97677 0.09877 0.0
H261 H 0.77535 0.87729 0.05014 0.0
S262 S 0.88657 0.09273 0.92022 0.0
N263 N 0.89936 0.11749 0.97435 0.0
N264 N 0.84143 0.00864 0.92127 0.0
C265 C 0.83727 -0.00237 0.96719 0.0
C266 C 0.86823 0.05615 0.99589 0.0
C267 C 0.80579 0.86837 0.32295 0.0
C268 C 0.80021 0.86259 0.37103 0.0
C269 C 0.82555 0.82794 0.29873 0.0
C270 C 0.84668 0.78842 0.32284 0.0
H271 H 0.77828 0.88802 0.3042 0.0
H272 H 0.81245 0.81807 0.26275 0.0
S273 S 0.88818 0.80144 0.44621 0.0
N274 N 0.84877 0.84514 0.43984 0.0
N275 N 0.89453 0.77626 0.39427 0.0
C276 C 0.86576 0.80527 0.36894 0.0
C277 C 0.84139 0.84256 0.39358 0.0
C278 C 0.97542 0.8236 0.63981 0.0
C279 C 0.03684 0.84608 0.66311 0.0
C280 C 0.91567 0.80178 0.66479 0.0
C281 C 0.91707 0.79618 0.71286 0.0
H282 H 0.97155 0.8111 0.60369 0.0
H283 H 0.8682 0.77349 0.64636 0.0
S284 S 0.06807 0.88551 0.78669 0.0
N285 N 0.09836 0.8937 0.73424 0.0
N286 N 0.98476 0.84429 0.78125 0.0
C287 C 0.97882 0.83773 0.73497 0.0
C288 C 0.03993 0.86408 0.70954 0.0
C289 C 0.14136 0.9821 0.96898 0.0
C290 C 0.18387 0.04672 0.98804 0.0
C291 C 0.10464 0.92617 0.99804 0.0
C292 C 0.11755 0.93471 0.04556 0.0
H293 H 0.14652 0.97264 0.93324 0.0
H294 H 0.08274 0.87584 0.98292 0.0
S295 S 0.18507 0.09644 0.10882 0.0
N296 N 0.20312 0.11903 0.05455 0.0
N297 N 0.14233 0.01227 0.10911 0.0
C298 C 0.13921 -0.00045 0.06344 0.0
C299 C 0.1722 0.05691 0.03395 0.0
C300 C 0.92203 0.30037 0.19184 0.0
C301 C 0.94671 0.3158 0.14642 0.0
C302 C 0.96561 0.32485 0.22972 0.0
C303 C 0.03566 0.36574 0.22372 0.0
H304 H 0.86858 0.26683 0.19843 0.0
H305 H 0.94455 0.30864 0.2637 0.0
S306 S 0.12523 0.43044 0.11263 0.0
N307 N 0.045 0.38112 0.09812 0.0
N308 N 0.12729 0.42797 0.16912 0.0
C309 C 0.06063 0.38573 0.17869 0.0
C310 C 0.01612 0.36058 0.14008 0.0
C311 C 0.63964 0.96741 0.56156 0.0
C312 C 0.66487 0.03748 0.55722 0.0
C313 C 0.62175 0.92554 0.52271 0.0
C314 C 0.6282 0.95196 0.47792 0.0
H315 H 0.63691 0.94523 0.5949 0.0
H316 H 0.60481 0.87215 0.52802 0.0
S317 S 0.68162 0.13066 0.44867 0.0
N318 N 0.68787 0.13054 0.50504 0.0
N319 N 0.65452 0.05151 0.43221 0.0
C320 C 0.64909 0.02116 0.47334 0.0
C321 C 0.66732 0.06394 0.51293 0.0
C322 C 0.64443 0.63543 0.89249 0.0
C323 C 0.6085 0.6698 0.8865 0.0
C324 C 0.66483 0.61232 0.85464 0.0
C325 C 0.6502 0.62269 0.80925 0.0
H326 H 0.66001 0.62939 0.92641 0.0
H327 H 0.69497 0.58864 0.8612 0.0
S328 S 0.54678 0.69926 0.77556 0.0
N329 N 0.55085 0.70495 0.83199 0.0
N330 N 0.59027 0.66211 0.76103 0.0
C331 C 0.60982 0.65227 0.80296 0.0
C332 C 0.58878 0.67573 0.84154 0.0
C333 C 0.05959 0.69436 0.19608 0.0
C334 C 0.03612 0.67282 0.15089 0.0
C335 C 0.01614 0.66867 0.23385 0.0
C336 C 0.94751 0.62045 0.22789 0.0
H337 H 0.11159 0.73353 0.20244 0.0
H338 H 0.03569 0.6895 0.26749 0.0
S339 S 0.863 0.53847 0.11801 0.0
N340 N 0.94154 0.59433 0.10327 0.0
N341 N 0.85962 0.54529 0.17414 0.0
C342 C 0.92438 0.59469 0.18336 0.0
C343 C 0.9687 0.62107 0.14487 0.0
C344 C 0.29996 0.9609 0.47551 0.0
C345 C 0.34517 0.03101 0.47898 0.0
C346 C 0.27778 0.91999 0.51481 0.0
C347 C 0.29989 0.94751 0.55917 0.0
H348 H 0.27921 0.93789 0.44253 0.0
H349 H 0.24115 0.86644 0.51021 0.0
S350 S 0.42615 0.12688 0.58609 0.0
N351 N 0.4174 0.12539 0.52987 0.0
N352 N 0.37474 0.04813 0.60351 0.0
C353 C 0.34801 0.01686 0.56286 0.0
C354 C 0.3709 0.05863 0.52283 0.0
C355 C 0.36073 0.29088 0.84232 0.0
C356 C 0.35663 0.31111 0.88749 0.0
C357 C 0.34068 0.31433 0.80436 0.0
C358 C 0.31583 0.35896 0.81011 0.0
H359 H 0.37716 0.25443 0.8361 0.0
H360 H 0.3415 0.29468 0.7707 0.0
S361 S 0.30538 0.43622 0.92004 0.0
N362 N 0.33303 0.38437 0.93495 0.0
N363 N 0.29611 0.42943 0.86384 0.0
C364 C 0.31591 0.38334 0.85472 0.0
C365 C 0.33606 0.35917 0.89336 0.0
C366 C 0.22721 0.37122 0.49963 0.0
C367 C 0.19559 0.39549 0.46938 0.0
C368 C 0.22273 0.37481 0.54748 0.0
C369 C 0.18648 0.40296 0.56747 0.0
H370 H 0.25531 0.3483 0.48626 0.0
H371 H 0.24667 0.35397 0.56887 0.0
S372 S 0.0986 0.47867 0.50386 0.0
N373 N 0.12938 0.45147 0.46322 0.0
N374 N 0.12118 0.45926 0.55276 0.0
C375 C 0.15565 0.42873 0.53758 0.0
C376 C 0.15996 0.42458 0.48879 0.0
C377 C 0.81338 0.24142 0.8838 0.0
C378 C 0.778 0.17645 0.90361 0.0
C379 C 0.8175 0.24969 0.83592 0.0
C380 C 0.78678 0.19339 0.80557 0.0
H381 H 0.83709 0.28633 0.90536 0.0
H382 H 0.84538 0.30111 0.82261 0.0
S383 S 0.69294 0.01179 0.84014 0.0
N384 N 0.7145 0.05413 0.88902 0.0
N385 N 0.72256 0.07016 0.79947 0.0
C386 C 0.75186 0.12809 0.82499 0.0
C387 C 0.74761 0.11955 0.87375 0.0
C388 C 0.61326 0.85322 0.2112 0.0
C389 C 0.5859 0.78822 0.23079 0.0
C390 C 0.61596 0.86186 0.16337 0.0
C391 C 0.59147 0.80594 0.13278 0.0
H392 H 0.63447 0.89801 0.23287 0.0
H393 H 0.63843 0.91333 0.15027 0.0
S394 S 0.50915 0.62427 0.16642 0.0
N395 N 0.52946 0.66606 0.21551 0.0
N396 N 0.53545 0.683 0.12605 0.0
C397 C 0.56273 0.74059 0.15188 0.0
C398 C 0.55956 0.7316 0.20061 0.0
C399 C 0.72274 0.56013 0.49933 0.0
C400 C 0.77945 0.58726 0.4697 0.0
C401 C 0.72996 0.56571 0.54727 0.0
C402 C 0.79425 0.59857 0.56782 0.0
H403 H 0.67186 0.534 0.4854 0.0
H404 H 0.68483 0.54292 0.56831 0.0
S405 S 0.95929 0.68339 0.5062 0.0
N406 N 0.90213 0.65115 0.46495 0.0
N407 N 0.91617 0.66236 0.55458 0.0
C408 C 0.85149 0.62699 0.53864 0.0
C409 C 0.84403 0.62101 0.48984 0.0
C410 C 0.24983 0.83607 0.87534 0.0
C411 C 0.19394 0.80449 0.90561 0.0
C412 C 0.24158 0.8303 0.82743 0.0
C413 C 0.17704 0.79251 0.80764 0.0
H414 H 0.30083 0.86555 0.88878 0.0
H415 H 0.28613 0.85433 0.80586 0.0
S416 S 0.01349 0.70533 0.87093 0.0
N417 N 0.07153 0.73764 0.91163 0.0
N418 N 0.05555 0.72655 0.82211 0.0
C419 C 0.12058 0.76179 0.83744 0.0
C420 C 0.12908 0.76764 0.88617 0.0
C421 C 0.41119 0.24434 0.20018 0.0
C422 C 0.38294 0.18746 0.23006 0.0
C423 C 0.40822 0.2369 0.15225 0.0
C424 C 0.37725 0.1722 0.13191 0.0
H425 H 0.43625 0.29563 0.21389 0.0
H426 H 0.43177 0.28218 0.13108 0.0
S427 S 0.29054 0.00647 0.19375 0.0
N428 N 0.31964 0.06407 0.23501 0.0
N429 N 0.31416 0.04967 0.14528 0.0
C430 C 0.34783 0.11476 0.16122 0.0
C431 C 0.35079 0.12242 0.21006 0.0
loop_
_geom_bond_atom_site_label_1
_geom_bond_atom_site_label_2
_geom_bond_distance
_geom_bond_site_symmetry_2
_ccdc_geom_bond_type
Co0 O1 2.216 . S
Co0 O2 2.091 . S
Co0 O4 2.004 . S
Co0 O10 2.021 . S
Co0 O12 2.137 . S
Co0 O13 2.244 . S
O1 Co0 2.216 . S
O1 C8 1.247 . S
O2 Co0 2.091 . S
O2 C8 1.261 . S
C3 O12 1.247 . S
C3 O13 1.272 . S
O4 Co0 2.004 . S
O4 C9 1.259 . S
Co5 O6 2.061 . S
Co5 O11 2.052 . S
Co5 O13 2.135 . S
O6 Co5 2.061 . S
O6 C9 1.235 . S
C7 O10 1.238 . S
C7 O11 1.241 . S
C8 O1 1.247 . S
C8 O2 1.261 . S
C9 O4 1.259 . S
C9 O6 1.235 . S
O10 Co0 2.021 . S
O10 C7 1.238 . S
O11 Co5 2.052 . S
O11 C7 1.241 . S
O12 Co0 2.137 . S
O12 C3 1.247 . S
O13 Co0 2.244 . S
O13 C3 1.272 . S
O13 Co5 2.135 . S
Co14 O15 2.216 . S
Co14 O16 2.091 . S
Co14 O18 2.004 . S
Co14 O24 2.021 . S
Co14 O26 2.137 . S
Co14 O27 2.244 . S
O15 Co14 2.216 . S
O15 C22 1.247 . S
O16 Co14 2.091 . S
O16 C22 1.261 . S
C17 O26 1.247 . S
C17 O27 1.272 . S
O18 Co14 2.004 . S
O18 C23 1.259 . S
Co19 O20 2.061 . S
Co19 O25 2.052 . S
Co19 O27 2.135 . S
O20 Co19 2.061 . S
O20 C23 1.235 . S
C21 O24 1.238 . S
C21 O25 1.241 . S
C22 O15 1.247 . S
C22 O16 1.261 . S
C23 O18 1.259 . S
C23 O20 1.235 . S
O24 Co14 2.021 . S
O24 C21 1.238 . S
O25 Co19 2.052 . S
O25 C21 1.241 . S
O26 Co14 2.137 . S
O26 C17 1.247 . S
O27 Co14 2.244 . S
O27 C17 1.272 . S
O27 Co19 2.135 . S
Co28 O29 2.216 . S
Co28 O30 2.091 . S
Co28 O32 2.004 1_556 S
Co28 O38 2.021 . S
Co28 O40 2.137 . S
Co28 O41 2.244 1_556 S
O29 Co28 2.216 . S
O29 C36 1.247 . S
O30 Co28 2.091 . S
O30 C36 1.261 . S
C31 O40 1.247 . S
C31 O41 1.272 1_556 S
O32 Co28 2.004 1_554 S
O32 C37 1.259 . S
Co33 O34 2.061 . S
Co33 O39 2.052 . S
Co33 O41 2.133 . S
O34 Co33 2.061 . S
O34 C37 1.235 . S
C35 O38 1.238 . S
C35 O39 1.241 1_556 S
C36 O29 1.247 . S
C36 O30 1.261 . S
C37 O32 1.259 . S
C37 O34 1.235 . S
O38 Co28 2.021 . S
O38 C35 1.238 . S
O39 Co33 2.052 . S
O39 C35 1.241 1_554 S
O40 Co28 2.137 . S
O40 C31 1.247 . S
O41 Co28 2.244 1_554 S
O41 C31 1.272 1_554 S
O41 Co33 2.133 . S
Co42 O43 2.216 . S
Co42 O44 2.091 . S
Co42 O46 2.004 . S
Co42 O52 2.021 . S
Co42 O54 2.137 . S
Co42 O55 2.244 . S
O43 Co42 2.216 . S
O43 C50 1.247 . S
O44 Co42 2.091 . S
O44 C50 1.261 . S
C45 O54 1.247 . S
C45 O55 1.272 . S
O46 Co42 2.004 . S
O46 C51 1.259 . S
Co47 O48 2.061 . S
Co47 O53 2.052 . S
Co47 O55 2.135 . S
O48 Co47 2.061 . S
O48 C51 1.235 . S
C49 O52 1.238 . S
C49 O53 1.241 . S
C50 O43 1.247 . S
C50 O44 1.261 . S
C51 O46 1.259 . S
C51 O48 1.235 . S
O52 Co42 2.021 . S
O52 C49 1.238 . S
O53 Co47 2.052 . S
O53 C49 1.241 . S
O54 Co42 2.137 . S
O54 C45 1.247 . S
O55 Co42 2.244 . S
O55 C45 1.272 . S
O55 Co47 2.135 . S
Co56 O57 2.216 . S
Co56 O58 2.091 . S
Co56 O60 2.004 . S
Co56 O66 2.021 . S
Co56 O68 2.137 . S
Co56 O69 2.244 . S
O57 Co56 2.216 . S
O57 C64 1.247 . S
O58 Co56 2.091 . S
O58 C64 1.261 . S
C59 O68 1.247 . S
C59 O69 1.272 . S
O60 Co56 2.004 . S
O60 C65 1.259 . S
Co61 O62 2.061 . S
Co61 O67 2.052 . S
Co61 O69 2.135 . S
O62 Co61 2.061 . S
O62 C65 1.235 . S
C63 O66 1.238 . S
C63 O67 1.241 . S
C64 O57 1.247 . S
C64 O58 1.261 . S
C65 O60 1.259 . S
C65 O62 1.235 . S
O66 Co56 2.021 . S
O66 C63 1.238 . S
O67 Co61 2.052 . S
O67 C63 1.241 . S
O68 Co56 2.137 . S
O68 C59 1.247 . S
O69 Co56 2.244 . S
O69 C59 1.272 . S
O69 Co61 2.135 . S
Co70 O71 2.216 . S
Co70 O72 2.091 . S
Co70 O74 2.004 1_556 S
Co70 O80 2.021 . S
Co70 O82 2.137 . S
Co70 O83 2.244 1_556 S
O71 Co70 2.216 . S
O71 C78 1.247 . S
O72 Co70 2.091 . S
O72 C78 1.261 . S
C73 O82 1.247 . S
C73 O83 1.272 1_556 S
O74 Co70 2.004 1_554 S
O74 C79 1.259 . S
Co75 O76 2.061 . S
Co75 O81 2.052 . S
Co75 O83 2.133 . S
O76 Co75 2.061 . S
O76 C79 1.235 . S
C77 O80 1.238 . S
C77 O81 1.241 1_556 S
C78 O71 1.247 . S
C78 O72 1.261 . S
C79 O74 1.259 . S
C79 O76 1.235 . S
O80 Co70 2.021 . S
O80 C77 1.238 . S
O81 Co75 2.052 . S
O81 C77 1.241 1_554 S
O82 Co70 2.137 . S
O82 C73 1.247 . S
O83 Co70 2.244 1_554 S
O83 C73 1.272 1_554 S
O83 Co75 2.133 . S
Co84 O85 2.216 . S
Co84 O86 2.091 . S
Co84 O88 2.004 . S
Co84 O94 2.021 . S
Co84 O96 2.137 . S
Co84 O97 2.244 . S
O85 Co84 2.216 . S
O85 C92 1.247 . S
O86 Co84 2.091 . S
O86 C92 1.261 . S
C87 O96 1.247 . S
C87 O97 1.272 . S
O88 Co84 2.004 . S
O88 C93 1.259 . S
Co89 O90 2.061 . S
Co89 O95 2.052 . S
Co89 O97 2.135 . S
O90 Co89 2.061 . S
O90 C93 1.235 . S
C91 O94 1.238 . S
C91 O95 1.241 . S
C92 O85 1.247 . S
C92 O86 1.261 . S
C93 O88 1.259 . S
C93 O90 1.235 . S
O94 Co84 2.021 . S
O94 C91 1.238 . S
O95 Co89 2.052 . S
O95 C91 1.241 . S
O96 Co84 2.137 . S
O96 C87 1.247 . S
O97 Co84 2.244 . S
O97 C87 1.272 . S
O97 Co89 2.135 . S
Co98 O99 2.216 . S
Co98 O100 2.091 . S
Co98 O102 2.004 . S
Co98 O108 2.021 . S
Co98 O110 2.137 . S
Co98 O111 2.244 . S
O99 Co98 2.216 . S
O99 C106 1.247 . S
O100 Co98 2.091 . S
O100 C106 1.261 . S
C101 O110 1.247 . S
C101 O111 1.272 . S
O102 Co98 2.004 . S
O102 C107 1.259 . S
Co103 O104 2.061 . S
Co103 O109 2.052 . S
Co103 O111 2.135 . S
O104 Co103 2.061 . S
O104 C107 1.235 . S
C105 O108 1.238 . S
C105 O109 1.241 . S
C106 O99 1.247 . S
C106 O100 1.261 . S
C107 O102 1.259 . S
C107 O104 1.235 . S
O108 Co98 2.021 . S
O108 C105 1.238 . S
O109 Co103 2.052 . S
O109 C105 1.241 . S
O110 Co98 2.137 . S
O110 C101 1.247 . S
O111 Co98 2.244 . S
O111 C101 1.272 . S
O111 Co103 2.135 . S
Co112 O113 2.216 . S
Co112 O114 2.091 . S
Co112 O116 2.004 1_554 S
Co112 O122 2.021 . S
Co112 O124 2.137 . S
Co112 O125 2.244 1_554 S
O113 Co112 2.216 . S
O113 C120 1.247 . S
O114 Co112 2.091 . S
O114 C120 1.261 . S
C115 O124 1.247 . S
C115 O125 1.272 1_554 S
O116 Co112 2.004 1_556 S
O116 C121 1.259 . S
Co117 O118 2.061 . S
Co117 O123 2.052 . S
Co117 O125 2.133 . S
O118 Co117 2.061 . S
O118 C121 1.235 . S
C119 O122 1.238 . S
C119 O123 1.241 1_554 S
C120 O113 1.247 . S
C120 O114 1.261 . S
C121 O116 1.259 . S
C121 O118 1.235 . S
O122 Co112 2.021 . S
O122 C119 1.238 . S
O123 Co117 2.052 . S
O123 C119 1.241 1_556 S
O124 Co112 2.137 . S
O124 C115 1.247 . S
O125 Co112 2.244 1_556 S
O125 C115 1.272 1_556 S
O125 Co117 2.133 . S
Co126 O127 2.216 . S
Co126 O128 2.091 . S
Co126 O130 2.004 . S
Co126 O136 2.021 . S
Co126 O138 2.137 . S
Co126 O139 2.244 . S
O127 Co126 2.216 . S
O127 C134 1.247 . S
O128 Co126 2.091 . S
O128 C134 1.261 . S
C129 O138 1.247 . S
C129 O139 1.272 . S
O130 Co126 2.004 . S
O130 C135 1.259 . S
Co131 O132 2.061 . S
Co131 O137 2.052 . S
Co131 O139 2.135 . S
O132 Co131 2.061 . S
O132 C135 1.235 . S
C133 O136 1.238 . S
C133 O137 1.241 . S
C134 O127 1.247 . S
C134 O128 1.261 . S
C135 O130 1.259 . S
C135 O132 1.235 . S
O136 Co126 2.021 . S
O136 C133 1.238 . S
O137 Co131 2.052 . S
O137 C133 1.241 . S
O138 Co126 2.137 . S
O138 C129 1.247 . S
O139 Co126 2.244 . S
O139 C129 1.272 . S
O139 Co131 2.135 . S
Co140 O141 2.216 . S
Co140 O142 2.091 . S
Co140 O144 2.004 . S
Co140 O150 2.021 . S
Co140 O152 2.137 . S
Co140 O153 2.244 . S
O141 Co140 2.216 . S
O141 C148 1.247 . S
O142 Co140 2.091 . S
O142 C148 1.261 . S
C143 O152 1.247 . S
C143 O153 1.272 . S
O144 Co140 2.004 . S
O144 C149 1.259 . S
Co145 O146 2.061 . S
Co145 O151 2.052 . S
Co145 O153 2.135 . S
O146 Co145 2.061 . S
O146 C149 1.235 . S
C147 O150 1.238 . S
C147 O151 1.241 . S
C148 O141 1.247 . S
C148 O142 1.261 . S
C149 O144 1.259 . S
C149 O146 1.235 . S
O150 Co140 2.021 . S
O150 C147 1.238 . S
O151 Co145 2.052 . S
O151 C147 1.241 . S
O152 Co140 2.137 . S
O152 C143 1.247 . S
O153 Co140 2.244 . S
O153 C143 1.272 . S
O153 Co145 2.135 . S
Co154 O155 2.216 . S
Co154 O156 2.091 . S
Co154 O158 2.004 1_554 S
Co154 O164 2.021 . S
Co154 O166 2.137 . S
Co154 O167 2.244 1_554 S
O155 Co154 2.216 . S
O155 C162 1.247 . S
O156 Co154 2.091 . S
O156 C162 1.261 . S
C157 O166 1.247 . S
C157 O167 1.272 1_554 S
O158 Co154 2.004 1_556 S
O158 C163 1.259 . S
Co159 O160 2.061 . S
Co159 O165 2.052 . S
Co159 O167 2.133 . S
O160 Co159 2.061 . S
O160 C163 1.235 . S
C161 O164 1.238 . S
C161 O165 1.241 1_554 S
C162 O155 1.247 . S
C162 O156 1.261 . S
C163 O158 1.259 . S
C163 O160 1.235 . S
O164 Co154 2.021 . S
O164 C161 1.238 . S
O165 Co159 2.052 . S
O165 C161 1.241 1_556 S
O166 Co154 2.137 . S
O166 C157 1.247 . S
O167 Co154 2.244 1_556 S
O167 C157 1.272 1_556 S
O167 Co159 2.133 . S
C168 C169 1.369 . S
C168 C170 1.419 . S
C168 H172 0.930 . S
C169 C168 1.369 . S
C169 C178 1.429 . S
C170 C168 1.419 . S
C170 C171 1.363 . S
C170 H173 0.929 . S
C171 C170 1.363 . S
C171 C177 1.428 . S
H172 C168 0.930 . S
H173 C170 0.929 . S
S174 N175 1.613 . S
S174 N176 1.610 . S
N175 S174 1.613 . S
N175 C178 1.350 . S
N176 S174 1.610 . S
N176 C177 1.351 . S
C177 C171 1.428 . S
C177 N176 1.351 . S
C177 C178 1.434 . S
C178 C169 1.429 . S
C178 N175 1.350 . S
C178 C177 1.434 . S
C179 C180 1.369 . S
C179 C181 1.419 . S
C179 H183 0.930 . S
C180 C179 1.369 . S
C180 C189 1.429 . S
C181 C179 1.419 . S
C181 C182 1.363 . S
C181 H184 0.929 . S
C182 C181 1.363 . S
C182 C188 1.428 . S
H183 C179 0.930 . S
H184 C181 0.929 . S
S185 N186 1.613 . S
S185 N187 1.610 . S
N186 S185 1.613 . S
N186 C189 1.350 . S
N187 S185 1.610 . S
N187 C188 1.351 . S
C188 C182 1.428 . S
C188 N187 1.351 . S
C188 C189 1.434 . S
C189 C180 1.429 . S
C189 N186 1.350 . S
C189 C188 1.434 . S
C190 C191 1.369 . S
C190 C192 1.419 . S
C190 H194 0.930 . S
C191 C190 1.369 . S
C191 C200 1.429 1_556 S
C192 C190 1.419 . S
C192 C193 1.363 1_556 S
C192 H195 0.929 . S
C193 C192 1.363 1_554 S
C193 C199 1.428 . S
H194 C190 0.930 . S
H195 C192 0.929 . S
S196 N197 1.613 . S
S196 N198 1.610 . S
N197 S196 1.613 . S
N197 C200 1.350 . S
N198 S196 1.610 . S
N198 C199 1.351 . S
C199 C193 1.428 . S
C199 N198 1.351 . S
C199 C200 1.434 . S
C200 C191 1.429 1_554 S
C200 N197 1.350 . S
C200 C199 1.434 . S
C201 C202 1.369 . S
C201 C203 1.419 . S
C201 H205 0.930 . S
C202 C201 1.369 . S
C202 C211 1.429 . S
C203 C201 1.419 . S
C203 C204 1.363 . S
C203 H206 0.929 . S
C204 C203 1.363 . S
C204 C210 1.428 . S
H205 C201 0.930 . S
H206 C203 0.929 . S
S207 N208 1.613 . S
S207 N209 1.610 . S
N208 S207 1.613 . S
N208 C211 1.350 . S
N209 S207 1.610 . S
N209 C210 1.351 . S
C210 C204 1.428 . S
C210 N209 1.351 . S
C210 C211 1.434 . S
C211 C202 1.429 . S
C211 N208 1.350 . S
C211 C210 1.434 . S
C212 C213 1.369 . S
C212 C214 1.419 . S
C212 H216 0.930 . S
C213 C212 1.369 . S
C213 C222 1.429 . S
C214 C212 1.419 . S
C214 C215 1.363 . S
C214 H217 0.929 . S
C215 C214 1.363 . S
C215 C221 1.428 . S
H216 C212 0.930 . S
H217 C214 0.929 . S
S218 N219 1.613 . S
S218 N220 1.610 . S
N219 S218 1.613 . S
N219 C222 1.350 . S
N220 S218 1.610 . S
N220 C221 1.351 . S
C221 C215 1.428 . S
C221 N220 1.351 . S
C221 C222 1.434 . S
C222 C213 1.429 . S
C222 N219 1.350 . S
C222 C221 1.434 . S
C223 C224 1.369 . S
C223 C225 1.419 . S
C223 H227 0.930 . S
C224 C223 1.369 . S
C224 C233 1.429 1_554 S
C225 C223 1.419 . S
C225 C226 1.363 1_554 S
C225 H228 0.929 . S
C226 C225 1.363 1_556 S
C226 C232 1.428 . S
H227 C223 0.930 . S
H228 C225 0.929 . S
S229 N230 1.613 . S
S229 N231 1.610 . S
N230 S229 1.613 . S
N230 C233 1.350 . S
N231 S229 1.610 . S
N231 C232 1.351 . S
C232 C226 1.428 . S
C232 N231 1.351 . S
C232 C233 1.434 . S
C233 C224 1.429 1_556 S
C233 N230 1.350 . S
C233 C232 1.434 . S
C234 C235 1.369 . S
C234 C236 1.419 . S
C234 H238 0.930 . S
C235 C234 1.369 . S
C235 C244 1.429 . S
C236 C234 1.419 . S
C236 C237 1.363 . S
C236 H239 0.929 . S
C237 C236 1.363 . S
C237 C243 1.428 . S
H238 C234 0.930 . S
H239 C236 0.929 . S
S240 N241 1.613 . S
S240 N242 1.610 . S
N241 S240 1.613 . S
N241 C244 1.350 . S
N242 S240 1.610 . S
N242 C243 1.351 . S
C243 C237 1.428 . S
C243 N242 1.351 . S
C243 C244 1.434 . S
C244 C235 1.429 . S
C244 N241 1.350 . S
C244 C243 1.434 . S
C245 C246 1.369 . S
C245 C247 1.419 1_655 S
C245 H249 0.930 . S
C246 C245 1.369 . S
C246 C255 1.429 . S
C247 C245 1.419 1_455 S
C247 C248 1.363 . S
C247 H250 0.929 . S
C248 C247 1.363 . S
C248 C254 1.428 . S
H249 C245 0.930 . S
H250 C247 0.929 . S
S251 N252 1.613 1_455 S
S251 N253 1.610 . S
N252 S251 1.613 1_655 S
N252 C255 1.350 . S
N253 S251 1.610 . S
N253 C254 1.351 . S
C254 C248 1.428 . S
C254 N253 1.351 . S
C254 C255 1.434 1_455 S
C255 C246 1.429 . S
C255 N252 1.350 . S
C255 C254 1.434 1_655 S
C256 C257 1.369 . S
C256 C258 1.419 1_545 S
C256 H260 0.930 . S
C257 C256 1.369 . S
C257 C266 1.429 1_554 S
C258 C256 1.419 1_565 S
C258 C259 1.363 1_554 S
C258 H261 0.929 . S
C259 C258 1.363 1_556 S
C259 C265 1.428 . S
H260 C256 0.930 . S
H261 C258 0.929 . S
S262 N263 1.613 . S
S262 N264 1.610 1_545 S
N263 S262 1.613 . S
N263 C266 1.350 . S
N264 S262 1.610 1_565 S
N264 C265 1.351 . S
C265 C259 1.428 . S
C265 N264 1.351 . S
C265 C266 1.434 1_565 S
C266 C257 1.429 1_556 S
C266 N263 1.350 . S
C266 C265 1.434 1_545 S
C267 C268 1.369 . S
C267 C269 1.419 . S
C267 H271 0.930 . S
C268 C267 1.369 . S
C268 C277 1.429 . S
C269 C267 1.419 . S
C269 C270 1.363 . S
C269 H272 0.929 . S
C270 C269 1.363 . S
C270 C276 1.428 . S
H271 C267 0.930 . S
H272 C269 0.929 . S
S273 N274 1.613 . S
S273 N275 1.610 . S
N274 S273 1.613 . S
N274 C277 1.350 . S
N275 S273 1.610 . S
N275 C276 1.351 . S
C276 C270 1.428 . S
C276 N275 1.351 . S
C276 C277 1.434 . S
C277 C268 1.429 . S
C277 N274 1.350 . S
C277 C276 1.434 . S
C278 C279 1.369 . S
C278 C280 1.419 1_455 S
C278 H282 0.930 . S
C279 C278 1.369 . S
C279 C288 1.429 . S
C280 C278 1.419 1_655 S
C280 C281 1.363 . S
C280 H283 0.929 . S
C281 C280 1.363 . S
C281 C287 1.428 . S
H282 C278 0.930 . S
H283 C280 0.929 . S
S284 N285 1.613 1_655 S
S284 N286 1.610 . S
N285 S284 1.613 1_455 S
N285 C288 1.350 . S
N286 S284 1.610 . S
N286 C287 1.351 . S
C287 C281 1.428 . S
C287 N286 1.351 . S
C287 C288 1.434 1_655 S
C288 C279 1.429 . S
C288 N285 1.350 . S
C288 C287 1.434 1_455 S
C289 C290 1.369 . S
C289 C291 1.419 1_545 S
C289 H293 0.930 . S
C290 C289 1.369 . S
C290 C299 1.429 1_556 S
C291 C289 1.419 1_565 S
C291 C292 1.363 1_556 S
C291 H294 0.929 . S
C292 C291 1.363 1_554 S
C292 C298 1.428 . S
H293 C289 0.930 . S
H294 C291 0.929 . S
S295 N296 1.613 . S
S295 N297 1.610 1_545 S
N296 S295 1.613 . S
N296 C299 1.350 . S
N297 S295 1.610 1_565 S
N297 C298 1.351 . S
C298 C292 1.428 . S
C298 N297 1.351 . S
C298 C299 1.434 1_565 S
C299 C290 1.429 1_554 S
C299 N296 1.350 . S
C299 C298 1.434 1_545 S
C300 C301 1.369 . S
C300 C302 1.419 . S
C300 H304 0.930 . S
C301 C300 1.369 . S
C301 C310 1.429 1_655 S
C302 C300 1.419 . S
C302 C303 1.363 1_655 S
C302 H305 0.929 . S
C303 C302 1.363 1_455 S
C303 C309 1.428 . S
H304 C300 0.930 . S
H305 C302 0.929 . S
S306 N307 1.613 . S
S306 N308 1.610 . S
N307 S306 1.613 . S
N307 C310 1.350 . S
N308 S306 1.610 . S
N308 C309 1.351 . S
C309 C303 1.428 . S
C309 N308 1.351 . S
C309 C310 1.434 . S
C310 C301 1.429 1_455 S
C310 N307 1.350 . S
C310 C309 1.434 . S
C311 C312 1.369 1_565 S
C311 C313 1.419 . S
C311 H315 0.930 . S
C312 C311 1.369 1_545 S
C312 C321 1.429 . S
C313 C311 1.419 . S
C313 C314 1.363 . S
C313 H316 0.929 . S
C314 C313 1.363 . S
C314 C320 1.428 1_565 S
H315 C311 0.930 . S
H316 C313 0.929 . S
S317 N318 1.613 . S
S317 N319 1.610 . S
N318 S317 1.613 . S
N318 C321 1.350 . S
N319 S317 1.610 . S
N319 C320 1.351 . S
C320 C314 1.428 1_545 S
C320 N319 1.351 . S
C320 C321 1.434 . S
C321 C312 1.429 . S
C321 N318 1.350 . S
C321 C320 1.434 . S
C322 C323 1.369 . S
C322 C324 1.419 . S
C322 H326 0.930 . S
C323 C322 1.369 . S
C323 C332 1.429 . S
C324 C322 1.419 . S
C324 C325 1.363 . S
C324 H327 0.929 . S
C325 C324 1.363 . S
C325 C331 1.428 . S
H326 C322 0.930 . S
H327 C324 0.929 . S
S328 N329 1.613 . S
S328 N330 1.610 . S
N329 S328 1.613 . S
N329 C332 1.350 . S
N330 S328 1.610 . S
N330 C331 1.351 . S
C331 C325 1.428 . S
C331 N330 1.351 . S
C331 C332 1.434 . S
C332 C323 1.429 . S
C332 N329 1.350 . S
C332 C331 1.434 . S
C333 C334 1.369 . S
C333 C335 1.419 . S
C333 H337 0.930 . S
C334 C333 1.369 . S
C334 C343 1.429 1_455 S
C335 C333 1.419 . S
C335 C336 1.363 1_455 S
C335 H338 0.929 . S
C336 C335 1.363 1_655 S
C336 C342 1.428 . S
H337 C333 0.930 . S
H338 C335 0.929 . S
S339 N340 1.613 . S
S339 N341 1.610 . S
N340 S339 1.613 . S
N340 C343 1.350 . S
N341 S339 1.610 . S
N341 C342 1.351 . S
C342 C336 1.428 . S
C342 N341 1.351 . S
C342 C343 1.434 . S
C343 C334 1.429 1_655 S
C343 N340 1.350 . S
C343 C342 1.434 . S
C344 C345 1.369 1_565 S
C344 C346 1.419 . S
C344 H348 0.930 . S
C345 C344 1.369 1_545 S
C345 C354 1.429 . S
C346 C344 1.419 . S
C346 C347 1.363 . S
C346 H349 0.929 . S
C347 C346 1.363 . S
C347 C353 1.428 1_565 S
H348 C344 0.930 . S
H349 C346 0.929 . S
S350 N351 1.613 . S
S350 N352 1.610 . S
N351 S350 1.613 . S
N351 C354 1.350 . S
N352 S350 1.610 . S
N352 C353 1.351 . S
C353 C347 1.428 1_545 S
C353 N352 1.351 . S
C353 C354 1.434 . S
C354 C345 1.429 . S
C354 N351 1.350 . S
C354 C353 1.434 . S
C355 C356 1.369 . S
C355 C357 1.419 . S
C355 H359 0.930 . S
C356 C355 1.369 . S
C356 C365 1.429 . S
C357 C355 1.419 . S
C357 C358 1.363 . S
C357 H360 0.929 . S
C358 C357 1.363 . S
C358 C364 1.428 . S
H359 C355 0.930 . S
H360 C357 0.929 . S
S361 N362 1.613 . S
S361 N363 1.610 . S
N362 S361 1.613 . S
N362 C365 1.350 . S
N363 S361 1.610 . S
N363 C364 1.351 . S
C364 C358 1.428 . S
C364 N363 1.351 . S
C364 C365 1.434 . S
C365 C356 1.429 . S
C365 N362 1.350 . S
C365 C364 1.434 . S
C366 C367 1.369 . S
C366 C368 1.419 . S
C366 H370 0.930 . S
C367 C366 1.369 . S
C367 C376 1.429 . S
C368 C366 1.419 . S
C368 C369 1.363 . S
C368 H371 0.929 . S
C369 C368 1.363 . S
C369 C375 1.428 . S
H370 C366 0.930 . S
H371 C368 0.929 . S
S372 N373 1.613 . S
S372 N374 1.610 . S
N373 S372 1.613 . S
N373 C376 1.350 . S
N374 S372 1.610 . S
N374 C375 1.351 . S
C375 C369 1.428 . S
C375 N374 1.351 . S
C375 C376 1.434 . S
C376 C367 1.429 . S
C376 N373 1.350 . S
C376 C375 1.434 . S
C377 C378 1.369 . S
C377 C379 1.419 . S
C377 H381 0.930 . S
C378 C377 1.369 . S
C378 C387 1.429 . S
C379 C377 1.419 . S
C379 C380 1.363 . S
C379 H382 0.929 . S
C380 C379 1.363 . S
C380 C386 1.428 . S
H381 C377 0.930 . S
H382 C379 0.929 . S
S383 N384 1.613 . S
S383 N385 1.610 . S
N384 S383 1.613 . S
N384 C387 1.350 . S
N385 S383 1.610 . S
N385 C386 1.351 . S
C386 C380 1.428 . S
C386 N385 1.351 . S
C386 C387 1.434 . S
C387 C378 1.429 . S
C387 N384 1.350 . S
C387 C386 1.434 . S
C388 C389 1.369 . S
C388 C390 1.419 . S
C388 H392 0.930 . S
C389 C388 1.369 . S
C389 C398 1.429 . S
C390 C388 1.419 . S
C390 C391 1.363 . S
C390 H393 0.929 . S
C391 C390 1.363 . S
C391 C397 1.428 . S
H392 C388 0.930 . S
H393 C390 0.929 . S
S394 N395 1.613 . S
S394 N396 1.610 . S
N395 S394 1.613 . S
N395 C398 1.350 . S
N396 S394 1.610 . S
N396 C397 1.351 . S
C397 C391 1.428 . S
C397 N396 1.351 . S
C397 C398 1.434 . S
C398 C389 1.429 . S
C398 N395 1.350 . S
C398 C397 1.434 . S
C399 C400 1.369 . S
C399 C401 1.419 . S
C399 H403 0.930 . S
C400 C399 1.369 . S
C400 C409 1.429 . S
C401 C399 1.419 . S
C401 C402 1.363 . S
C401 H404 0.929 . S
C402 C401 1.363 . S
C402 C408 1.428 . S
H403 C399 0.930 . S
H404 C401 0.929 . S
S405 N406 1.613 . S
S405 N407 1.610 . S
N406 S405 1.613 . S
N406 C409 1.350 . S
N407 S405 1.610 . S
N407 C408 1.351 . S
C408 C402 1.428 . S
C408 N407 1.351 . S
C408 C409 1.434 . S
C409 C400 1.429 . S
C409 N406 1.350 . S
C409 C408 1.434 . S
C410 C411 1.369 . S
C410 C412 1.419 . S
C410 H414 0.930 . S
C411 C410 1.369 . S
C411 C420 1.429 . S
C412 C410 1.419 . S
C412 C413 1.363 . S
C412 H415 0.929 . S
C413 C412 1.363 . S
C413 C419 1.428 . S
H414 C410 0.930 . S
H415 C412 0.929 . S
S416 N417 1.613 . S
S416 N418 1.610 . S
N417 S416 1.613 . S
N417 C420 1.350 . S
N418 S416 1.610 . S
N418 C419 1.351 . S
C419 C413 1.428 . S
C419 N418 1.351 . S
C419 C420 1.434 . S
C420 C411 1.429 . S
C420 N417 1.350 . S
C420 C419 1.434 . S
C421 C422 1.369 . S
C421 C423 1.419 . S
C421 H425 0.930 . S
C422 C421 1.369 . S
C422 C431 1.429 . S
C423 C421 1.419 . S
C423 C424 1.363 . S
C423 H426 0.929 . S
C424 C423 1.363 . S
C424 C430 1.428 . S
H425 C421 0.930 . S
H426 C423 0.929 . S
S427 N428 1.613 . S
S427 N429 1.610 . S
N428 S427 1.613 . S
N428 C431 1.350 . S
N429 S427 1.610 . S
N429 C430 1.351 . S
C430 C424 1.428 . S
C430 N429 1.351 . S
C430 C431 1.434 . S
C431 C422 1.429 . S
C431 N428 1.350 . S
C431 C430 1.434 . S
C169 C3 1.614 . S
C171 C87 1.619 . S
C180 C17 1.619 . S
C182 C101 1.614 . S
C191 C31 1.559 . S
C193 C115 1.562 . S
C202 C129 1.620 . S
C204 C45 1.614 . S
C213 C59 1.622 . S
C215 C143 1.616 . S
C224 C157 1.562 . S
C226 C73 1.563 . S
C235 C7 1.178 . S
C237 C133 1.186 . S
C246 C21 1.174 . S
C248 C147 1.175 . S
C257 C161 1.143 . S
C259 C35 1.147 . S
C268 C91 1.187 . S
C270 C49 1.178 . S
C279 C63 1.176 . S
C281 C105 1.169 . S
C290 C77 1.140 . S
C292 C119 1.147 . S
C301 C162 1.720 . S
C303 C8 1.708 . S
C312 C22 1.844 . S
C314 C92 1.850 . S
C323 C36 1.716 . S
C325 C106 1.711 . S
C334 C120 1.721 . S
C336 C50 1.707 . S
C345 C134 1.844 . S
C347 C64 1.850 . S
C356 C78 1.719 . S
C358 C148 1.708 . S
C367 C9 1.216 . S
C369 C149 1.202 . S
C378 C163 1.294 . S
C380 C23 1.310 . S
C389 C93 1.294 . S
C391 C37 1.304 . S
C400 C51 1.220 . S
C402 C107 1.203 . S
C411 C121 1.307 . S
C413 C65 1.297 . S
C422 C135 1.305 . S
C424 C79 1.301 . S
