# Generated by pormake.
# Topology gis, (4)-cn, num edge types: 1
# Building blocks:
#     Node 0, Type 0, BuildingBlock: NAHDIM_clean_sbu_0, # of connection points: 4
#     Node 1, Type 0, BuildingBlock: NAHDIM_clean_sbu_0, # of connection points: 4
#     Node 2, Type 0, BuildingBlock: NAHDIM_clean_sbu_0, # of connection points: 4
#     Node 3, Type 0, BuildingBlock: NAHDIM_clean_sbu_0, # of connection points: 4
#     Node 4, Type 0, BuildingBlock: NAHDIM_clean_sbu_0, # of connection points: 4
#     Node 5, Type 0, BuildingBlock: NAHDIM_clean_sbu_0, # of connection points: 4
#     Node 6, Type 0, BuildingBlock: NAHDIM_clean_sbu_0, # of connection points: 4
#     Node 7, Type 0, BuildingBlock: NAHDIM_clean_sbu_0, # of connection points: 4
#     Node 8, Type 0, BuildingBlock: NAHDIM_clean_sbu_0, # of connection points: 4
#     Node 9, Type 0, BuildingBlock: NAHDIM_clean_sbu_0, # of connection points: 4
#     Node 10, Type 0, BuildingBlock: NAHDIM_clean_sbu_0, # of connection points: 4
#     Node 11, Type 0, BuildingBlock: NAHDIM_clean_sbu_0, # of connection points: 4
#     Node 12, Type 0, BuildingBlock: NAHDIM_clean_sbu_0, # of connection points: 4
#     Node 13, Type 0, BuildingBlock: NAHDIM_clean_sbu_0, # of connection points: 4
#     Node 14, Type 0, BuildingBlock: NAHDIM_clean_sbu_0, # of connection points: 4
#     Node 15, Type 0, BuildingBlock: NAHDIM_clean_sbu_0, # of connection points: 4
#     Edge 16, Type (0, 0), BuildingBlock: XUDNAN_clean_linker_2, # of connection points: 2
#     Edge 17, Type (0, 0), BuildingBlock: XUDNAN_clean_linker_2, # of connection points: 2
#     Edge 18, Type (0, 0), BuildingBlock: XUDNAN_clean_linker_2, # of connection points: 2
#     Edge 19, Type (0, 0), BuildingBlock: XUDNAN_clean_linker_2, # of connection points: 2
#     Edge 20, Type (0, 0), BuildingBlock: XUDNAN_clean_linker_2, # of connection points: 2
#     Edge 21, Type (0, 0), BuildingBlock: XUDNAN_clean_linker_2, # of connection points: 2
#     Edge 22, Type (0, 0), BuildingBlock: XUDNAN_clean_linker_2, # of connection points: 2
#     Edge 23, Type (0, 0), BuildingBlock: XUDNAN_clean_linker_2, # of connection points: 2
#     Edge 24, Type (0, 0), BuildingBlock: XUDNAN_clean_linker_2, # of connection points: 2
#     Edge 25, Type (0, 0), BuildingBlock: XUDNAN_clean_linker_2, # of connection points: 2
#     Edge 26, Type (0, 0), BuildingBlock: XUDNAN_clean_linker_2, # of connection points: 2
#     Edge 27, Type (0, 0), BuildingBlock: XUDNAN_clean_linker_2, # of connection points: 2
#     Edge 28, Type (0, 0), BuildingBlock: XUDNAN_clean_linker_2, # of connection points: 2
#     Edge 29, Type (0, 0), BuildingBlock: XUDNAN_clean_linker_2, # of connection points: 2
#     Edge 30, Type (0, 0), BuildingBlock: XUDNAN_clean_linker_2, # of connection points: 2
#     Edge 31, Type (0, 0), BuildingBlock: XUDNAN_clean_linker_2, # of connection points: 2
#     Edge 32, Type (0, 0), BuildingBlock: XUDNAN_clean_linker_2, # of connection points: 2
#     Edge 33, Type (0, 0), BuildingBlock: XUDNAN_clean_linker_2, # of connection points: 2
#     Edge 34, Type (0, 0), BuildingBlock: XUDNAN_clean_linker_2, # of connection points: 2
#     Edge 35, Type (0, 0), BuildingBlock: XUDNAN_clean_linker_2, # of connection points: 2
#     Edge 36, Type (0, 0), BuildingBlock: XUDNAN_clean_linker_2, # of connection points: 2
#     Edge 37, Type (0, 0), BuildingBlock: XUDNAN_clean_linker_2, # of connection points: 2
#     Edge 38, Type (0, 0), BuildingBlock: XUDNAN_clean_linker_2, # of connection points: 2
#     Edge 39, Type (0, 0), BuildingBlock: XUDNAN_clean_linker_2, # of connection points: 2
#     Edge 40, Type (0, 0), BuildingBlock: XUDNAN_clean_linker_2, # of connection points: 2
#     Edge 41, Type (0, 0), BuildingBlock: XUDNAN_clean_linker_2, # of connection points: 2
#     Edge 42, Type (0, 0), BuildingBlock: XUDNAN_clean_linker_2, # of connection points: 2
#     Edge 43, Type (0, 0), BuildingBlock: XUDNAN_clean_linker_2, # of connection points: 2
#     Edge 44, Type (0, 0), BuildingBlock: XUDNAN_clean_linker_2, # of connection points: 2
#     Edge 45, Type (0, 0), BuildingBlock: XUDNAN_clean_linker_2, # of connection points: 2
#     Edge 46, Type (0, 0), BuildingBlock: XUDNAN_clean_linker_2, # of connection points: 2
#     Edge 47, Type (0, 0), BuildingBlock: XUDNAN_clean_linker_2, # of connection points: 2
# Relax obj value: 0.161
# Max RMSD: 0.165
# Mean RMSD: 0.149
data_MOF--net-gis--node1-NAHDIM_clean_sbu_0--edge1-XUDNAN_clean_linker_2
_symmetry_space_group_name_H-M    P1
_symmetry_Int_Tables_number       1
_symmetry_cell_setting            triclinic
loop_
_symmetry_equiv_pos_as_xyz
'x, y, z'
_cell_length_a     48.806311
_cell_length_b     45.42002
_cell_length_c     46.985471
_cell_angle_alpha  91.488246
_cell_angle_beta   90.980148
_cell_angle_gamma 90.077147
loop_
_atom_site_label
_atom_site_type_symbol
_atom_site_fract_x
_atom_site_fract_y
_atom_site_fract_z
_atom_type_partial_charge
C0 C 0.20493 0.55223 0.16833 0.0
O1 O 0.19538 0.53014 0.1525 0.0
O2 O 0.18503 0.55834 0.09502 0.0
Zn3 Zn 0.17736 0.58793 0.12644 0.0
O4 O 0.18721 0.62894 0.1146 0.0
C5 C 0.12 0.58681 0.11444 0.0
O6 O 0.1291 0.59027 0.08859 0.0
O7 O 0.19959 0.57846 0.16127 0.0
C8 C 0.17326 0.65109 0.1228 0.0
O9 O 0.15203 0.64705 0.13907 0.0
C10 C 0.18752 0.56567 0.06928 0.0
O11 O 0.18645 0.59366 0.06299 0.0
O12 O 0.13714 0.58545 0.13503 0.0
C13 C 0.72973 0.90297 0.38205 0.0
O14 O 0.73521 0.8762 0.39039 0.0
O15 O 0.67769 0.90266 0.44963 0.0
Zn16 Zn 0.67734 0.89202 0.40784 0.0
O17 O 0.68303 0.84844 0.40195 0.0
C18 C 0.63592 0.93014 0.38591 0.0
O19 O 0.65547 0.9497 0.3904 0.0
O20 O 0.70654 0.91422 0.38754 0.0
C21 C 0.66479 0.8299 0.40839 0.0
O22 O 0.64177 0.83942 0.41941 0.0
C23 C 0.6874 0.92708 0.45901 0.0
O24 O 0.69856 0.94515 0.44113 0.0
O25 O 0.64054 0.90337 0.39159 0.0
C26 C 0.33607 0.44316 0.57748 0.0
O27 O 0.35789 0.45 0.59304 0.0
O28 O 0.31408 0.40371 0.64986 0.0
Zn29 Zn 0.33533 0.39411 0.61462 0.0
O30 O 0.37574 0.39913 0.62232 0.0
C31 C 0.30435 0.34113 0.60313 0.0
O32 O 0.28349 0.35897 0.60695 0.0
O33 O 0.32289 0.4198 0.58264 0.0
C34 C 0.38599 0.39674 0.64719 0.0
O35 O 0.36974 0.39142 0.66847 0.0
C36 C 0.30173 0.42791 0.65455 0.0
O37 O 0.30304 0.44881 0.63582 0.0
O38 O 0.32853 0.35152 0.60455 0.0
C39 C 0.8093 0.07738 0.9663 0.0
O40 O 0.8158 0.06371 0.94238 0.0
O41 O 0.76588 0.11443 0.90652 0.0
Zn42 Zn 0.80076 0.12425 0.92817 0.0
O43 O 0.83407 0.11217 0.90604 0.0
C44 C 0.79984 0.18417 0.91326 0.0
O45 O 0.79273 0.17175 0.88866 0.0
O46 O 0.80153 0.10404 0.96565 0.0
C47 C 0.85698 0.119 0.91764 0.0
O48 O 0.85719 0.13261 0.94268 0.0
C49 C 0.76558 0.09795 0.88425 0.0
O50 O 0.78865 0.08645 0.87525 0.0
O51 O 0.80362 0.168 0.93462 0.0
C52 C 0.18512 0.40134 0.81918 0.0
O53 O 0.19247 0.37764 0.83278 0.0
O54 O 0.1496 0.4184 0.89384 0.0
Zn55 Zn 0.13821 0.39997 0.85619 0.0
O56 O 0.14022 0.35578 0.85878 0.0
C57 C 0.0941 0.43488 0.83329 0.0
O58 O 0.11438 0.45183 0.82567 0.0
O59 O 0.16294 0.41425 0.82566 0.0
C60 C 0.15644 0.34379 0.87648 0.0
O61 O 0.17233 0.36054 0.89293 0.0
C62 C 0.15695 0.44518 0.8963 0.0
O63 O 0.1568 0.46156 0.87367 0.0
O64 O 0.0994 0.41155 0.84672 0.0
C65 C 0.84946 0.9582 0.22945 0.0
O66 O 0.84948 0.98157 0.21354 0.0
O67 O 0.85692 0.9582 0.1541 0.0
Zn68 Zn 0.87403 0.92895 0.18031 0.0
O69 O 0.86382 0.88786 0.16672 0.0
C70 C 0.93099 0.94251 0.19911 0.0
O71 O 0.92091 0.95165 0.22352 0.0
O72 O 0.85964 0.93429 0.21984 0.0
C73 C 0.88085 0.871 0.15422 0.0
O74 O 0.9056 0.8808 0.14926 0.0
C75 C 0.86025 0.95478 0.12747 0.0
O76 O 0.87459 0.93222 0.11802 0.0
O77 O 0.91493 0.93309 0.17935 0.0
C78 C 0.31982 0.57472 0.41678 0.0
O79 O 0.30055 0.57802 0.39727 0.0
O80 O 0.32991 0.58855 0.34373 0.0
Zn81 Zn 0.35462 0.60265 0.37582 0.0
O82 O 0.39307 0.59024 0.36746 0.0
C83 C 0.33328 0.66102 0.36853 0.0
O84 O 0.31178 0.64631 0.35872 0.0
O85 O 0.34375 0.58449 0.41244 0.0
C86 C 0.40277 0.59268 0.34272 0.0
O87 O 0.38717 0.60323 0.32234 0.0
C88 C 0.32734 0.56167 0.33601 0.0
O89 O 0.34128 0.54151 0.3496 0.0
O90 O 0.35375 0.64691 0.37818 0.0
C91 C 0.6229 0.07405 0.73702 0.0
O92 O 0.59882 0.0868 0.73496 0.0
O93 O 0.62845 0.03316 0.65029 0.0
Zn94 Zn 0.61437 0.06494 0.67685 0.0
O95 O 0.62234 0.10511 0.66192 0.0
C96 C 0.55901 0.04841 0.6611 0.0
O97 O 0.57119 0.03698 0.63869 0.0
O98 O 0.63332 0.06229 0.7149 0.0
C99 C 0.6176 0.11211 0.63629 0.0
O100 O 0.60732 0.09231 0.61822 0.0
C101 C 0.64935 0.03663 0.63496 0.0
O102 O 0.66301 0.06156 0.63687 0.0
O103 O 0.57343 0.06106 0.68062 0.0
C104 C 0.79634 0.45196 0.80434 0.0
O105 O 0.78904 0.46391 0.82881 0.0
O106 O 0.83818 0.47019 0.86498 0.0
Zn107 Zn 0.84369 0.43601 0.83744 0.0
O108 O 0.83511 0.39758 0.85555 0.0
C109 C 0.8948 0.45792 0.81678 0.0
O110 O 0.8799 0.48117 0.81109 0.0
O111 O 0.81952 0.4394 0.8026 0.0
C112 C 0.84698 0.38944 0.8783 0.0
O113 O 0.86521 0.40687 0.89093 0.0
C114 C 0.82458 0.46854 0.88771 0.0
O115 O 0.81215 0.4438 0.89353 0.0
O116 O 0.88339 0.43559 0.82723 0.0
C117 C 0.25361 0.05834 0.64415 0.0
O118 O 0.2473 0.08079 0.62825 0.0
O119 O 0.30266 0.04158 0.57825 0.0
Zn120 Zn 0.30486 0.06383 0.61574 0.0
O121 O 0.2961 0.10658 0.60937 0.0
C122 C 0.36076 0.0426 0.62518 0.0
O123 O 0.35458 0.02341 0.60466 0.0
O124 O 0.27732 0.04698 0.64234 0.0
C125 C 0.31469 0.12588 0.60669 0.0
O126 O 0.34053 0.11786 0.60786 0.0
C127 C 0.31726 0.04885 0.55742 0.0
O128 O 0.33412 0.07131 0.56052 0.0
O129 O 0.34278 0.06101 0.63342 0.0
C130 C 0.70432 0.55424 0.30915 0.0
O131 O 0.71522 0.57116 0.32944 0.0
O132 O 0.66408 0.53058 0.37832 0.0
Zn133 Zn 0.65809 0.558 0.34574 0.0
O134 O 0.66933 0.59941 0.35743 0.0
C135 C 0.59954 0.5517 0.35159 0.0
O136 O 0.60651 0.54369 0.37739 0.0
O137 O 0.67986 0.5452 0.31162 0.0
C138 C 0.65378 0.61646 0.37168 0.0
O139 O 0.62996 0.60662 0.37994 0.0
C140 C 0.68266 0.51101 0.37882 0.0
O141 O 0.69943 0.50833 0.35736 0.0
O142 O 0.61817 0.55835 0.33431 0.0
C143 C 0.17767 0.93886 0.0554 0.0
O144 O 0.19865 0.9211 0.05211 0.0
O145 O 0.2073 0.93687 0.13742 0.0
Zn146 Zn 0.1745 0.92064 0.11589 0.0
O147 O 0.14167 0.92741 0.14036 0.0
C148 C 0.1991 0.86347 0.10073 0.0
O149 O 0.22093 0.87874 0.09438 0.0
O150 O 0.16639 0.94145 0.0795 0.0
C151 C 0.1185 0.91972 0.12992 0.0
O152 O 0.11736 0.90745 0.10428 0.0
C153 C 0.23006 0.94518 0.1276 0.0
O154 O 0.234 0.94391 0.10002 0.0
O155 O 0.17787 0.87681 0.10951 0.0
C156 C 0.82054 0.55781 0.14229 0.0
O157 O 0.81692 0.54706 0.11627 0.0
O158 O 0.85086 0.5798 0.07825 0.0
Zn159 Zn 0.86181 0.59561 0.11733 0.0
O160 O 0.85549 0.63944 0.12008 0.0
C161 C 0.91907 0.58418 0.10636 0.0
O162 O 0.91086 0.586 0.0797 0.0
O163 O 0.83857 0.5776 0.14714 0.0
C164 C 0.87434 0.65814 0.11614 0.0
O165 O 0.8989 0.64886 0.10932 0.0
C166 C 0.85068 0.59593 0.05654 0.0
O167 O 0.85776 0.62376 0.05951 0.0
O168 O 0.90161 0.58703 0.12601 0.0
C169 C 0.12377 0.04005 0.79784 0.0
O170 O 0.1175 0.01895 0.8152 0.0
O171 O 0.10849 0.05564 0.87373 0.0
Zn172 Zn 0.09978 0.08098 0.84023 0.0
O173 O 0.11286 0.12258 0.84846 0.0
C174 C 0.04752 0.0928 0.85895 0.0
O175 O 0.06336 0.10178 0.88037 0.0
O176 O 0.11747 0.06651 0.80422 0.0
C177 C 0.13216 0.12905 0.86604 0.0
O178 O 0.14464 0.10792 0.87968 0.0
C179 C 0.13045 0.0421 0.88004 0.0
O180 O 0.15153 0.04334 0.86308 0.0
O181 O 0.05866 0.08218 0.83669 0.0
C182 C 0.66308 0.39464 0.55057 0.0
O183 O 0.67714 0.37215 0.56 0.0
O184 O 0.65634 0.40292 0.63344 0.0
Zn185 Zn 0.63326 0.38522 0.6015 0.0
O186 O 0.59365 0.39268 0.61058 0.0
C187 C 0.64189 0.3249 0.61872 0.0
O188 O 0.64395 0.33702 0.64436 0.0
O189 O 0.64292 0.40423 0.56483 0.0
C190 C 0.58635 0.39167 0.63639 0.0
O191 O 0.60492 0.3865 0.65619 0.0
C192 C 0.6815 0.39755 0.63823 0.0
O193 O 0.69448 0.37894 0.6214 0.0
O194 O 0.63817 0.34127 0.59748 0.0
C195 C 0.35033 0.95467 0.29357 0.0
O196 O 0.33481 0.95327 0.31604 0.0
O197 O 0.37259 0.95065 0.3666 0.0
Zn198 Zn 0.38856 0.92933 0.33242 0.0
O199 O 0.37571 0.88728 0.3323 0.0
C200 C 0.44197 0.95545 0.33381 0.0
O201 O 0.42757 0.97935 0.32927 0.0
O202 O 0.37522 0.9467 0.29564 0.0
C203 C 0.38596 0.86787 0.34827 0.0
O204 O 0.407 0.87477 0.36496 0.0
C205 C 0.35131 0.94064 0.37832 0.0
O206 O 0.33942 0.91687 0.36742 0.0
O207 O 0.42961 0.93095 0.3355 0.0
H208 H 0.16035 0.82569 0.12015 0.0
H209 H 0.23889 0.82757 0.0782 0.0
H210 H 0.24005 0.77312 0.07741 0.0
H211 H 0.17604 0.76673 0.16536 0.0
H212 H 0.14212 0.751 0.16335 0.0
H213 H 0.14675 0.78992 0.15895 0.0
H214 H 0.12132 0.78631 0.11009 0.0
H215 H 0.11655 0.74735 0.11436 0.0
H216 H 0.13313 0.76056 0.08316 0.0
H217 H 0.23304 0.71833 0.08252 0.0
H218 H 0.21904 0.66779 0.09414 0.0
H219 H 0.14561 0.70248 0.1336 0.0
C220 C 0.1777 0.81471 0.11051 0.0
C221 C 0.1995 0.8309 0.09912 0.0
C222 C 0.22194 0.81563 0.08701 0.0
C223 C 0.22275 0.78471 0.08642 0.0
C224 C 0.201 0.76946 0.09807 0.0
C225 C 0.17892 0.78398 0.10991 0.0
C226 C 0.15868 0.76261 0.12205 0.0
C227 C 0.15574 0.76788 0.15434 0.0
C228 C 0.13077 0.76431 0.10648 0.0
C229 C 0.17292 0.73375 0.11544 0.0
C230 C 0.1972 0.73811 0.10141 0.0
C231 C 0.21404 0.71466 0.09343 0.0
C232 C 0.2059 0.68604 0.10012 0.0
C233 C 0.18126 0.68117 0.11483 0.0
C234 C 0.16458 0.70543 0.12238 0.0
H235 H 0.47714 0.91064 0.34715 0.0
H236 H 0.47469 0.00432 0.33103 0.0
H237 H 0.5245 0.00765 0.34072 0.0
H238 H 0.52456 0.91491 0.40492 0.0
H239 H 0.54197 0.88117 0.39546 0.0
H240 H 0.50646 0.88583 0.38566 0.0
H241 H 0.51781 0.87484 0.33276 0.0
H242 H 0.55338 0.87008 0.34241 0.0
H243 H 0.54374 0.89629 0.31589 0.0
H244 H 0.57415 0.00117 0.35423 0.0
H245 H 0.62008 0.98534 0.3704 0.0
H246 H 0.58993 0.89588 0.37764 0.0
C247 C 0.48709 0.93182 0.34536 0.0
C248 C 0.47201 0.95722 0.33827 0.0
C249 C 0.48581 0.98455 0.33639 0.0
C250 C 0.51411 0.98666 0.34182 0.0
C251 C 0.52829 0.96124 0.34903 0.0
C252 C 0.51527 0.93433 0.35074 0.0
C253 C 0.53504 0.91053 0.35978 0.0
C254 C 0.52649 0.89735 0.38814 0.0
C255 C 0.53764 0.88652 0.33631 0.0
C256 C 0.56116 0.92835 0.36325 0.0
C257 C 0.55687 0.95751 0.35683 0.0
C258 C 0.57781 0.97835 0.35915 0.0
C259 C 0.60382 0.96914 0.36839 0.0
C260 C 0.60864 0.93936 0.37524 0.0
C261 C 0.58697 0.91876 0.37243 0.0
H262 H 0.34348 0.29805 0.60002 0.0
H263 H 0.2554 0.31144 0.59934 0.0
H264 H 0.24834 0.25754 0.59748 0.0
H265 H 0.34371 0.23275 0.55262 0.0
H266 H 0.37114 0.2156 0.57228 0.0
H267 H 0.3691 0.25516 0.57124 0.0
H268 H 0.36944 0.25816 0.62641 0.0
H269 H 0.37135 0.21866 0.62763 0.0
H270 H 0.3441 0.23801 0.64551 0.0
H271 H 0.25101 0.20219 0.59886 0.0
H272 H 0.26318 0.14969 0.6029 0.0
H273 H 0.34953 0.17292 0.60284 0.0
C274 C 0.32267 0.28971 0.59904 0.0
C275 C 0.29997 0.30898 0.59973 0.0
C276 C 0.27311 0.29712 0.59874 0.0
C277 C 0.26889 0.26653 0.59766 0.0
C278 C 0.29174 0.24818 0.59749 0.0
C279 C 0.31811 0.25933 0.59802 0.0
C280 C 0.33919 0.23495 0.599 0.0
C281 C 0.35682 0.2346 0.57219 0.0
C282 C 0.35706 0.23761 0.62626 0.0
C283 C 0.32057 0.20833 0.59944 0.0
C284 C 0.29328 0.21637 0.59837 0.0
C285 C 0.27231 0.19561 0.59946 0.0
C286 C 0.27944 0.16585 0.60181 0.0
C287 C 0.30731 0.15716 0.60313 0.0
C288 C 0.32804 0.17878 0.60172 0.0
H289 H 0.01891 0.11555 0.90368 0.0
H290 H 0.00801 0.07376 0.8201 0.0
H291 H 0.95765 0.07585 0.82565 0.0
H292 H 0.96434 0.07866 0.93738 0.0
H293 H 0.95477 0.11037 0.9588 0.0
H294 H 0.98971 0.10593 0.9478 0.0
H295 H 0.98825 0.15724 0.92487 0.0
H296 H 0.95332 0.16189 0.93587 0.0
H297 H 0.96181 0.16507 0.89889 0.0
H298 H 0.90815 0.08208 0.84122 0.0
H299 H 0.86419 0.09259 0.86494 0.0
H300 H 0.90877 0.13022 0.93794 0.0
C301 C 0.00602 0.10688 0.88644 0.0
C302 C 0.01739 0.09448 0.86145 0.0
C303 C -0.00028 0.08339 0.83944 0.0
C304 C 0.97112 0.08447 0.84242 0.0
C305 C 0.96063 0.09672 0.86748 0.0
C306 C 0.97761 0.10779 0.88904 0.0
C307 C 0.96144 0.11973 0.91393 0.0
C308 C 0.96796 0.10264 0.94107 0.0
C309 C 0.96651 0.15295 0.91865 0.0
C310 C 0.93262 0.1136 0.90312 0.0
C311 C 0.93247 0.10033 0.87631 0.0
C312 C 0.90806 0.09252 0.86219 0.0
C313 C 0.88321 0.09854 0.87584 0.0
C314 C 0.88304 0.11224 0.90328 0.0
C315 C 0.90814 0.11976 0.91696 0.0
H316 H 0.12532 0.30282 0.84653 0.0
H317 H 0.1896 0.31143 0.91129 0.0
H318 H 0.1908 0.25736 0.91528 0.0
H319 H 0.08952 0.2435 0.87807 0.0
H320 H 0.0809 0.22536 0.84453 0.0
H321 H 0.08549 0.26471 0.84636 0.0
H322 H 0.12217 0.26081 0.80719 0.0
H323 H 0.11767 0.22144 0.80522 0.0
H324 H 0.15124 0.23691 0.8121 0.0
H325 H 0.18467 0.20238 0.91255 0.0
H326 H 0.17149 0.15044 0.90342 0.0
H327 H 0.11111 0.178 0.84061 0.0
C328 C 0.13972 0.29337 0.86151 0.0
C329 C 0.15739 0.31137 0.87859 0.0
C330 C 0.17587 0.2981 0.89797 0.0
C331 C 0.17672 0.2674 0.90039 0.0
C332 C 0.15897 0.25032 0.88329 0.0
C333 C 0.14082 0.26282 0.86422 0.0
C334 C 0.12374 0.23956 0.84853 0.0
C335 C 0.0931 0.24353 0.85476 0.0
C336 C 0.12904 0.2397 0.81635 0.0
C337 C 0.13503 0.21203 0.86184 0.0
C338 C 0.15538 0.21869 0.88178 0.0
C339 C 0.16879 0.19687 0.89695 0.0
C340 C 0.16115 0.16744 0.89161 0.0
C341 C 0.14028 0.16013 0.8713 0.0
C342 C 0.12715 0.18283 0.85626 0.0
H343 H 0.95749 0.92115 0.15226 0.0
H344 H 0.97213 0.96266 0.23544 0.0
H345 H 0.0221 0.96103 0.2272 0.0
H346 H 0.01465 0.87192 0.15424 0.0
H347 H 0.02156 0.87501 0.11687 0.0
H348 H 0.98716 0.87972 0.12946 0.0
H349 H 0.98465 0.93101 0.10661 0.0
H350 H 0.01902 0.92646 0.0939 0.0
H351 H 0.01047 0.95825 0.11572 0.0
H352 H 0.07066 0.95484 0.20932 0.0
H353 H 0.11348 0.94485 0.1834 0.0
H354 H 0.066 0.90712 0.11244 0.0
C355 C 0.97111 0.92999 0.16881 0.0
C356 C 0.96089 0.9421 0.1945 0.0
C357 C 0.97951 0.9533 0.21558 0.0
C358 C 0.0079 0.95245 0.21109 0.0
C359 C 0.01723 0.94026 0.18549 0.0
C360 C -0.00066 0.92924 0.16474 0.0
C361 C 0.01439 0.91723 0.1391 0.0
C362 C 0.00912 0.884 0.13467 0.0
C363 C 0.00667 0.93426 0.11225 0.0
C364 C 0.04363 0.92332 0.14854 0.0
C365 C 0.04493 0.93658 0.17535 0.0
C366 C 0.06987 0.94443 0.18834 0.0
C367 C 0.09407 0.93866 0.17346 0.0
C368 C 0.0931 0.92519 0.1459 0.0
C369 C 0.06748 0.91739 0.13347 0.0
H370 H 0.37479 0.69819 0.38672 0.0
H371 H 0.29564 0.69679 0.34301 0.0
H372 H 0.30013 0.74985 0.3341 0.0
H373 H 0.36758 0.77151 0.42004 0.0
H374 H 0.40322 0.78051 0.41571 0.0
H375 H 0.39302 0.74277 0.42005 0.0
H376 H 0.41701 0.7281 0.373 0.0
H377 H 0.42707 0.76579 0.36838 0.0
H378 H 0.40766 0.74651 0.34073 0.0
H379 H 0.31458 0.802 0.32698 0.0
H380 H 0.3367 0.85071 0.32475 0.0
H381 H 0.40609 0.8185 0.37391 0.0
C382 C 0.35822 0.70909 0.3756 0.0
C383 C 0.33485 0.69331 0.36556 0.0
C384 C 0.3137 0.70841 0.35098 0.0
C385 C 0.31607 0.73854 0.34577 0.0
C386 C 0.33961 0.75329 0.35545 0.0
C387 C 0.36019 0.73918 0.37032 0.0
C388 C 0.38364 0.76 0.37788 0.0
C389 C 0.38705 0.76393 0.41035 0.0
C390 C 0.41042 0.74946 0.36417 0.0
C391 C 0.3732 0.78791 0.36453 0.0
C392 C 0.34778 0.78353 0.35169 0.0
C393 C 0.33437 0.80578 0.33718 0.0
C394 C 0.34718 0.83333 0.33592 0.0
C395 C 0.37311 0.83843 0.3492 0.0
C396 C 0.3862 0.81535 0.3637 0.0
H397 H 0.52254 0.02103 0.62414 0.0
H398 H 0.52704 0.07555 0.70138 0.0
H399 H 0.4765 0.07771 0.70214 0.0
H400 H 0.46736 0.05791 0.59176 0.0
H401 H 0.45166 0.02512 0.57638 0.0
H402 H 0.48808 0.02623 0.58299 0.0
H403 H 0.48464 0.97964 0.61345 0.0
H404 H 0.44817 0.97834 0.60687 0.0
H405 H 0.46146 0.97939 0.64291 0.0
H406 H 0.42565 0.07709 0.69235 0.0
H407 H 0.37818 0.07227 0.67365 0.0
H408 H 0.40703 0.01706 0.6036 0.0
C409 C 0.51293 0.03316 0.64141 0.0
C410 C 0.52876 0.04813 0.66271 0.0
C411 C 0.51535 0.06384 0.68487 0.0
C412 C 0.48665 0.06519 0.68549 0.0
C413 C 0.47168 0.05051 0.66394 0.0
C414 C 0.48435 0.0346 0.64245 0.0
C415 C 0.46361 0.02157 0.62134 0.0
C416 C 0.46794 0.03343 0.59135 0.0
C417 C 0.46453 0.98773 0.62115 0.0
C418 C 0.4373 0.03308 0.63403 0.0
C419 C 0.44238 0.04969 0.65862 0.0
C420 C 0.42139 0.06383 0.67331 0.0
C421 C 0.39452 0.06103 0.66249 0.0
C422 C 0.38889 0.04411 0.6373 0.0
C423 C 0.41061 0.02978 0.62313 0.0
H424 H 0.7904 0.22513 0.87262 0.0
H425 H 0.82349 0.21516 0.95818 0.0
H426 H 0.83733 0.26753 0.9596 0.0
H427 H 0.84228 0.2709 0.8481 0.0
H428 H 0.81981 0.29344 0.82702 0.0
H429 H 0.81064 0.25587 0.8336 0.0
H430 H 0.7645 0.2732 0.85477 0.0
H431 H 0.77346 0.31086 0.84809 0.0
H432 H 0.76457 0.30031 0.88348 0.0
H433 H 0.85102 0.31993 0.94994 0.0
H434 H 0.86127 0.36892 0.93089 0.0
H435 H 0.81813 0.3444 0.85222 0.0
C436 C 0.80022 0.23402 0.89183 0.0
C437 C 0.80586 0.21606 0.91529 0.0
C438 C 0.81884 0.22854 0.93998 0.0
C439 C 0.82682 0.25825 0.94098 0.0
C440 C 0.8214 0.2752 0.91723 0.0
C441 C 0.80813 0.2636 0.89324 0.0
C442 C 0.80548 0.28615 0.87024 0.0
C443 C 0.82045 0.27597 0.84315 0.0
C444 C 0.7752 0.29304 0.86378 0.0
C445 C 0.81982 0.31209 0.88479 0.0
C446 C 0.82884 0.30541 0.9119 0.0
C447 C 0.84376 0.32554 0.92888 0.0
C448 C 0.84957 0.35324 0.91784 0.0
C449 C 0.84038 0.36051 0.89015 0.0
C450 C 0.82518 0.33964 0.87359 0.0
H451 H 0.6229 0.66017 0.39651 0.0
H452 H 0.70234 0.64321 0.35926 0.0
H453 H 0.71453 0.69569 0.36642 0.0
H454 H 0.61178 0.72914 0.36506 0.0
H455 H 0.5953 0.74557 0.3956 0.0
H456 H 0.59346 0.70637 0.38922 0.0
H457 H 0.61389 0.69772 0.43959 0.0
H458 H 0.61571 0.73694 0.44617 0.0
H459 H 0.64607 0.71473 0.44994 0.0
H460 H 0.71726 0.75036 0.37565 0.0
H461 H 0.71041 0.80328 0.38641 0.0
H462 H 0.62907 0.78447 0.41741 0.0
C463 C 0.64299 0.66737 0.39014 0.0
C464 C 0.6617 0.64754 0.37739 0.0
C465 C 0.68768 0.65797 0.36912 0.0
C466 C 0.69481 0.68774 0.37312 0.0
C467 C 0.67576 0.70675 0.38545 0.0
C468 C 0.65041 0.69699 0.39391 0.0
C469 C 0.6333 0.72212 0.40571 0.0
C470 C 0.60691 0.72602 0.38782 0.0
C471 C 0.62687 0.7176 0.43723 0.0
C472 C 0.65286 0.74762 0.40226 0.0
C473 C 0.67729 0.73827 0.39067 0.0
C474 C 0.69828 0.75792 0.38489 0.0
C475 C 0.69417 0.78795 0.39105 0.0
C476 C 0.66921 0.79805 0.4028 0.0
C477 C 0.64842 0.77748 0.40857 0.0
H478 H 0.91073 0.70366 0.1115 0.0
H479 H 0.8258 0.68459 0.13021 0.0
H480 H 0.81745 0.73758 0.13926 0.0
H481 H 0.92077 0.75832 0.16517 0.0
H482 H 0.94238 0.78122 0.14423 0.0
H483 H 0.94115 0.7421 0.13724 0.0
H484 H 0.92774 0.75103 0.08454 0.0
H485 H 0.92897 0.79023 0.09138 0.0
H486 H 0.89829 0.77343 0.07645 0.0
H487 H 0.81911 0.79223 0.14912 0.0
H488 H 0.83066 0.84452 0.15887 0.0
H489 H 0.9144 0.8276 0.13335 0.0
C490 C 0.89028 0.71061 0.11718 0.0
C491 C 0.86891 0.68998 0.12011 0.0
C492 C 0.84249 0.70001 0.12779 0.0
C493 C 0.83753 0.73006 0.13293 0.0
C494 C 0.85915 0.74977 0.13016 0.0
C495 C 0.88497 0.74048 0.12236 0.0
C496 C 0.90496 0.76596 0.12199 0.0
C497 C 0.92871 0.76163 0.14344 0.0
C498 C 0.91561 0.77042 0.09179 0.0
C499 C 0.88646 0.79098 0.13129 0.0
C500 C 0.86008 0.78124 0.13574 0.0
C501 C 0.83964 0.80017 0.14546 0.0
C502 C 0.84641 0.82981 0.15098 0.0
C503 C 0.8734 0.84017 0.1468 0.0
C504 C 0.89352 0.82045 0.13654 0.0
H505 H 0.6473 0.28346 0.65984 0.0
H506 H 0.63463 0.29297 0.56884 0.0
H507 H 0.62962 0.23907 0.56295 0.0
H508 H 0.6857 0.21391 0.65527 0.0
H509 H 0.6701 0.19985 0.68666 0.0
H510 H 0.67492 0.23894 0.68329 0.0
H511 H 0.62306 0.24726 0.69134 0.0
H512 H 0.61806 0.20824 0.69457 0.0
H513 H 0.59839 0.22815 0.66858 0.0
H514 H 0.62222 0.18452 0.56756 0.0
H515 H 0.61458 0.13332 0.5822 0.0
H516 H 0.63268 0.15969 0.67002 0.0
C517 C 0.64389 0.27422 0.6386 0.0
C518 C 0.64136 0.29247 0.61481 0.0
C519 C 0.6367 0.27945 0.5874 0.0
C520 C 0.63383 0.24884 0.58382 0.0
C521 C 0.63589 0.23154 0.60781 0.0
C522 C 0.64105 0.24374 0.63463 0.0
C523 C 0.64123 0.22043 0.65709 0.0
C524 C 0.66969 0.21815 0.67141 0.0
C525 C 0.61885 0.22638 0.67918 0.0
C526 C 0.63474 0.19333 0.6388 0.0
C527 C 0.63187 0.20013 0.61042 0.0
C528 C 0.62472 0.17886 0.58968 0.0
C529 C 0.62034 0.14987 0.59822 0.0
C530 C 0.62312 0.14246 0.62722 0.0
C531 C 0.63062 0.16455 0.64764 0.0
H532 H 0.04761 0.40358 0.84444 0.0
H533 H 0.07566 0.48429 0.80675 0.0
H534 H 0.02767 0.49795 0.7961 0.0
H535 H 0.99121 0.38918 0.79463 0.0
H536 H 0.96914 0.37529 0.82158 0.0
H537 H 0.00575 0.3714 0.82523 0.0
H538 H 0.00456 0.39801 0.87468 0.0
H539 H 0.96797 0.4019 0.87122 0.0
H540 H 0.98915 0.43397 0.87787 0.0
H541 H 0.97638 0.50372 0.79145 0.0
H542 H 0.92585 0.50122 0.79344 0.0
H543 H 0.93187 0.41639 0.83361 0.0
C544 C 0.04373 0.42406 0.8338 0.0
C545 C 0.06541 0.44286 0.82642 0.0
C546 C 0.05939 0.4695 0.81258 0.0
C547 C 0.0322 0.47744 0.8064 0.0
C548 C 0.01131 0.45842 0.81407 0.0
C549 C 0.01678 0.43226 0.82742 0.0
C550 C 0.99065 0.41606 0.83409 0.0
C551 C 0.9891 0.38622 0.81791 0.0
C552 C 0.98793 0.41228 0.86638 0.0
C553 C 0.9696 0.43738 0.82277 0.0
C554 C 0.98189 0.46163 0.81119 0.0
C555 C 0.96653 0.48473 0.80027 0.0
C556 C 0.93785 0.48312 0.80151 0.0
C557 C 0.92489 0.45858 0.81357 0.0
C558 C 0.9411 0.43534 0.82401 0.0
H559 H 0.55507 0.54775 0.38602 0.0
H560 H 0.57812 0.56464 0.29909 0.0
H561 H 0.52965 0.57413 0.28653 0.0
H562 H 0.48923 0.51215 0.36901 0.0
H563 H 0.47276 0.52888 0.39942 0.0
H564 H 0.50894 0.52108 0.40088 0.0
H565 H 0.51894 0.57579 0.41443 0.0
H566 H 0.48285 0.58377 0.4129 0.0
H567 H 0.50624 0.60425 0.39166 0.0
H568 H 0.47908 0.58475 0.28424 0.0
H569 H 0.43024 0.59574 0.29245 0.0
H570 H 0.4407 0.5722 0.38097 0.0
C571 C 0.54991 0.55299 0.36422 0.0
C572 C 0.57037 0.55534 0.34351 0.0
C573 C 0.56278 0.56265 0.31531 0.0
C574 C 0.53531 0.56803 0.30796 0.0
C575 C 0.51571 0.56597 0.32902 0.0
C576 C 0.52265 0.55854 0.35656 0.0
C577 C 0.49794 0.55927 0.37556 0.0
C578 C 0.49186 0.52851 0.38688 0.0
C579 C 0.50173 0.58213 0.40007 0.0
C580 C 0.47607 0.56871 0.35452 0.0
C581 C 0.48666 0.57226 0.32775 0.0
C582 C 0.4705 0.58181 0.30507 0.0
C583 C 0.4428 0.58804 0.30995 0.0
C584 C 0.43163 0.5848 0.33733 0.0
C585 C 0.44855 0.57477 0.35975 0.0
H586 H 0.54213 0.39965 0.60046 0.0
H587 H 0.56465 0.39054 0.68963 0.0
H588 H 0.5159 0.39339 0.70238 0.0
H589 H 0.48546 0.45094 0.61179 0.0
H590 H 0.46476 0.43457 0.58344 0.0
H591 H 0.50159 0.43357 0.58149 0.0
H592 H 0.49991 0.37673 0.57515 0.0
H593 H 0.46313 0.37755 0.57712 0.0
H594 H 0.48273 0.35524 0.60121 0.0
H595 H 0.46463 0.39453 0.70521 0.0
H596 H 0.41441 0.39412 0.69784 0.0
H597 H 0.42546 0.40275 0.60691 0.0
C598 C 0.53686 0.39858 0.62271 0.0
C599 C 0.55723 0.39492 0.64405 0.0
C600 C 0.54942 0.39339 0.67289 0.0
C601 C 0.52178 0.39503 0.68037 0.0
C602 C 0.50221 0.39832 0.65879 0.0
C603 C 0.50938 0.40019 0.63056 0.0
C604 C 0.48429 0.40265 0.61138 0.0
C605 C 0.48402 0.43219 0.59613 0.0
C606 C 0.48241 0.37648 0.58996 0.0
C607 C 0.46189 0.40137 0.6332 0.0
C608 C 0.47265 0.39904 0.66043 0.0
C609 C 0.45594 0.39658 0.68401 0.0
C610 C 0.42745 0.39633 0.6796 0.0
C611 C 0.41599 0.39847 0.65182 0.0
C612 C 0.43355 0.40127 0.62843 0.0
H613 H 0.07862 0.58698 0.07445 0.0
H614 H 0.09404 0.58159 0.16546 0.0
H615 H 0.04418 0.57829 0.1733 0.0
H616 H 0.01923 0.63197 0.07874 0.0
H617 H 0.00187 0.61389 0.04895 0.0
H618 H 0.03874 0.61485 0.05061 0.0
H619 H 0.04009 0.55788 0.04572 0.0
H620 H 0.0032 0.55674 0.04411 0.0
H621 H 0.02156 0.53608 0.07053 0.0
H622 H 0.99244 0.57715 0.17115 0.0
H623 H 0.94295 0.57863 0.15925 0.0
H624 H 0.96197 0.58425 0.0696 0.0
C625 C 0.07158 0.58501 0.09605 0.0
C626 C 0.09023 0.58454 0.11935 0.0
C627 C 0.08012 0.58196 0.14727 0.0
C628 C 0.05185 0.58004 0.15193 0.0
C629 C 0.03404 0.58061 0.12845 0.0
C630 C 0.04353 0.583 0.10107 0.0
C631 C 0.02016 0.5837 0.07952 0.0
C632 C 0.02 0.61284 0.06353 0.0
C633 C 0.02133 0.55701 0.05875 0.0
C634 C 0.99598 0.58164 0.09907 0.0
C635 C 0.00437 0.57978 0.12721 0.0
C636 C 0.98563 0.57844 0.14918 0.0
C637 C 0.95757 0.57929 0.1422 0.0
C638 C 0.94857 0.58147 0.11349 0.0
C639 C 0.96814 0.58237 0.09173 0.0
H640 H 0.18513 0.5735 0.01165 0.0
H641 H 0.1905 0.50594 0.07523 0.0
H642 H 0.18651 0.46754 0.03727 0.0
H643 H 0.13478 0.53916 0.96914 0.0
H644 H 0.14839 0.55024 0.93564 0.0
H645 H 0.1548 0.57243 0.96733 0.0
H646 H 0.20713 0.56874 0.95947 0.0
H647 H 0.20089 0.54669 0.92757 0.0
H648 H 0.22283 0.533 0.95548 0.0
H649 H 0.17754 0.43677 0.99315 0.0
H650 H 0.16564 0.41561 0.94564 0.0
H651 H 0.16632 0.50324 0.9108 0.0
C652 C 0.18604 0.55064 0.01758 0.0
C653 C 0.1882 0.54273 0.04641 0.0
C654 C 0.18893 0.51254 0.05328 0.0
C655 C 0.18671 0.49056 0.03187 0.0
C656 C 0.18393 0.49913 0.00373 0.0
C657 C 0.18382 0.52843 0.9965 0.0
C658 C 0.17897 0.53179 0.96484 0.0
C659 C 0.15267 0.54944 0.95891 0.0
C660 C 0.20395 0.54588 0.95103 0.0
C661 C 0.17571 0.49983 0.9555 0.0
C662 C 0.17883 0.48134 0.97822 0.0
C663 C 0.17539 0.45098 0.97512 0.0
C664 C 0.16852 0.4392 0.94807 0.0
C665 C 0.16513 0.45777 0.92449 0.0
C666 C 0.16903 0.48844 0.92833 0.0
H667 H 0.7749 0.88061 0.35556 0.0
H668 H 0.728 0.96096 0.36754 0.0
H669 H 0.75791 0.98609 0.3339 0.0
H670 H 0.84285 0.91593 0.34573 0.0
H671 H 0.85222 0.88905 0.31873 0.0
H672 H 0.82986 0.87882 0.34698 0.0
H673 H 0.79346 0.8608 0.30963 0.0
H674 H 0.81562 0.871 0.28135 0.0
H675 H 0.7814 0.88574 0.28295 0.0
H676 H 0.78962 0.00078 0.29515 0.0
H677 H 0.81946 0.00325 0.25333 0.0
H678 H 0.84503 0.91303 0.26646 0.0
C679 C 0.77135 0.90371 0.35169 0.0
C680 C 0.74925 0.91889 0.36429 0.0
C681 C 0.74489 0.94892 0.35817 0.0
C682 C 0.76185 0.96342 0.33921 0.0
C683 C 0.78309 0.94761 0.32663 0.0
C684 C 0.78793 0.91842 0.33268 0.0
C685 C 0.81029 0.90553 0.31428 0.0
C686 C 0.83529 0.89683 0.33253 0.0
C687 C 0.79954 0.87923 0.29597 0.0
C688 C 0.81663 0.93172 0.29626 0.0
C689 C 0.8011 0.95594 0.304 0.0
C690 C 0.80219 0.98209 0.28915 0.0
C691 C 0.81918 0.98328 0.26541 0.0
C692 C 0.8346 0.95836 0.25662 0.0
C693 C 0.83368 0.93255 0.27273 0.0
H694 H 0.36448 0.48864 0.55493 0.0
H695 H 0.28746 0.44093 0.54736 0.0
H696 H 0.27305 0.47256 0.50779 0.0
H697 H 0.33767 0.5613 0.53787 0.0
H698 H 0.36745 0.57088 0.51789 0.0
H699 H 0.37066 0.54611 0.5471 0.0
H700 H 0.39255 0.50681 0.5136 0.0
H701 H 0.3895 0.53145 0.48437 0.0
H702 H 0.37452 0.49519 0.48143 0.0
H703 H 0.26807 0.50798 0.46758 0.0
H704 H 0.274 0.54233 0.42821 0.0
H705 H 0.35469 0.56589 0.46195 0.0
C706 C 0.34443 0.48505 0.54521 0.0
C707 C 0.32703 0.46242 0.55429 0.0
C708 C 0.30112 0.45817 0.54073 0.0
C709 C 0.29271 0.4761 0.51835 0.0
C710 C 0.31045 0.49813 0.50981 0.0
C711 C 0.33581 0.50257 0.52277 0.0
C712 C 0.35179 0.52643 0.50847 0.0
C713 C 0.3572 0.55274 0.52907 0.0
C714 C 0.37867 0.51423 0.49624 0.0
C715 C 0.33166 0.53437 0.48508 0.0
C716 C 0.30779 0.51811 0.48642 0.0
C717 C 0.2866 0.52098 0.46643 0.0
C718 C 0.29014 0.54058 0.44417 0.0
C719 C 0.3148 0.55679 0.44199 0.0
C720 C 0.33555 0.55391 0.46305 0.0
H721 H 0.67582 0.05625 0.74629 0.0
H722 H 0.60639 0.09663 0.78859 0.0
H723 H 0.63456 0.10367 0.83241 0.0
H724 H 0.70454 0.01898 0.80877 0.0
H725 H 0.73934 0.02609 0.79866 0.0
H726 H 0.71288 0.02151 0.77168 0.0
H727 H 0.72546 0.07223 0.75146 0.0
H728 H 0.75182 0.07704 0.7784 0.0
H729 H 0.72542 0.10446 0.77469 0.0
H730 H 0.67135 0.11022 0.87009 0.0
H731 H 0.71388 0.1153 0.89902 0.0
H732 H 0.75911 0.07056 0.83192 0.0
C733 C 0.66634 0.06607 0.76491 0.0
C734 C 0.63886 0.0758 0.76404 0.0
C735 C 0.62738 0.08892 0.78877 0.0
C736 C 0.6432 0.09297 0.81378 0.0
C737 C 0.67039 0.08366 0.81371 0.0
C738 C 0.68182 0.07033 0.78997 0.0
C739 C 0.71195 0.06397 0.79483 0.0
C740 C 0.71749 0.03065 0.79341 0.0
C741 C 0.72969 0.08042 0.77359 0.0
C742 C 0.71584 0.07638 0.82481 0.0
C743 C 0.69159 0.08743 0.83542 0.0
C744 C 0.69039 0.10133 0.86215 0.0
C745 C 0.71467 0.10417 0.87838 0.0
C746 C 0.7398 0.09323 0.86778 0.0
C747 C 0.7402 0.07889 0.84076 0.0
H748 H 0.81479 0.4665 0.94471 0.0
H749 H 0.83677 0.52615 0.87811 0.0
H750 H 0.84196 0.56663 0.91397 0.0
H751 H 0.77798 0.52025 0.99026 0.0
H752 H 0.79135 0.50476 0.02258 0.0
H753 H 0.78598 0.48155 0.99128 0.0
H754 H 0.83675 0.46503 0.99394 0.0
H755 H 0.84232 0.48827 0.02509 0.0
H756 H 0.86349 0.49248 0.9944 0.0
H757 H 0.84794 0.59955 0.95731 0.0
H758 H 0.85576 0.62217 0.0051 0.0
H759 H 0.83149 0.54038 0.04345 0.0
C760 C 0.82004 0.48825 0.93759 0.0
C761 C 0.82512 0.49332 0.90863 0.0
C762 C 0.83268 0.52188 0.90021 0.0
C763 C 0.83559 0.545 0.92039 0.0
C764 C 0.83097 0.53913 0.94887 0.0
C765 C 0.82338 0.51145 0.95748 0.0
C766 C 0.82194 0.5103 0.98959 0.0
C767 C 0.79256 0.50384 -0.00103 0.0
C768 C 0.84234 0.48769 0.00144 0.0
C769 C 0.83042 0.54149 -0.00228 0.0
C770 C 0.83517 0.55788 0.97393 0.0
C771 C 0.84407 0.58702 0.9761 0.0
C772 C 0.84848 0.59966 0.00334 0.0
C773 C 0.84426 0.58305 0.028 0.0
C774 C 0.83485 0.55368 0.02502 0.0
H775 H 0.13249 0.07614 0.75338 0.0
H776 H 0.15455 0.9908 0.78621 0.0
H777 H 0.188 0.98408 0.74762 0.0
H778 H 0.14008 0.05584 0.67692 0.0
H779 H 0.15366 0.09159 0.66905 0.0
H780 H 0.12942 0.0879 0.69725 0.0
H781 H 0.16372 0.11351 0.73264 0.0
H782 H 0.18812 0.11705 0.70469 0.0
H783 H 0.19773 0.09861 0.73686 0.0
H784 H 0.2232 0.98989 0.70928 0.0
H785 H 0.25493 0.00616 0.67227 0.0
H786 H 0.2083 0.08684 0.6639 0.0
C787 C 0.14394 0.05576 0.75214 0.0
C788 C 0.14095 0.03399 0.77278 0.0
C789 C 0.15639 0.00768 0.77049 0.0
C790 C 0.17546 0.0037 0.74869 0.0
C791 C 0.17846 0.02603 0.72915 0.0
C792 C 0.16279 0.05134 0.73043 0.0
C793 C 0.17083 0.0727 0.70785 0.0
C794 C 0.14708 0.07726 0.6865 0.0
C795 C 0.18069 0.10219 0.72133 0.0
C796 C 0.19411 0.05592 0.69423 0.0
C797 C 0.19819 0.029 0.70669 0.0
C798 C 0.21987 0.01066 0.699 0.0
C799 C 0.23784 0.02014 0.67808 0.0
C800 C 0.23392 0.04763 0.66506 0.0
C801 C 0.21156 0.06549 0.67309 0.0
H802 H 0.64965 0.50919 0.42537 0.0
H803 H 0.72049 0.46736 0.38701 0.0
H804 H 0.72346 0.43325 0.42703 0.0
H805 H 0.673 0.50466 0.49836 0.0
H806 H 0.63931 0.4972 0.5116 0.0
H807 H 0.64309 0.51858 0.48014 0.0
H808 H 0.61112 0.48227 0.45194 0.0
H809 H 0.60728 0.46076 0.48328 0.0
H810 H 0.61923 0.44355 0.4508 0.0
H811 H 0.71826 0.40326 0.4709 0.0
H812 H 0.70546 0.37977 0.51558 0.0
H813 H 0.63799 0.44132 0.52498 0.0
C814 C 0.66588 0.49296 0.4254 0.0
C815 C 0.68486 0.49097 0.40306 0.0
C816 C 0.70571 0.46932 0.40389 0.0
C817 C 0.70758 0.44984 0.42652 0.0
C818 C 0.68844 0.45233 0.44812 0.0
C819 C 0.66802 0.47336 0.44776 0.0
C820 C 0.64985 0.47123 0.47341 0.0
C821 C 0.65142 0.4996 0.49197 0.0
C822 C 0.62011 0.46402 0.4643 0.0
C823 C 0.6632 0.44564 0.48823 0.0
C824 C 0.68544 0.43506 0.47333 0.0
C825 C 0.70091 0.41138 0.48278 0.0
C826 C 0.69346 0.39818 0.50817 0.0
C827 C 0.67073 0.40869 0.52379 0.0
C828 C 0.65548 0.43276 0.51358 0.0
H829 H 0.29626 0.9636 0.28135 0.0
H830 H 0.3761 0.95908 0.24224 0.0
H831 H 0.35397 0.96284 0.19473 0.0
H832 H 0.2636 0.91758 0.23326 0.0
H833 H 0.23127 0.93672 0.23322 0.0
H834 H 0.25352 0.93921 0.26405 0.0
H835 H 0.25347 0.99618 0.26169 0.0
H836 H 0.23099 0.99389 0.23087 0.0
H837 H 0.26303 0.01349 0.22921 0.0
H838 H 0.32252 0.96072 0.15129 0.0
H839 H 0.28476 0.95208 0.11622 0.0
H840 H 0.22608 0.95694 0.18453 0.0
C841 C 0.30922 0.96424 0.2629 0.0
C842 C 0.33791 0.96119 0.26551 0.0
C843 C 0.35406 0.96156 0.24075 0.0
C844 C 0.34168 0.96376 0.21368 0.0
C845 C 0.31319 0.96575 0.21181 0.0
C846 C 0.29721 0.96621 0.23584 0.0
C847 C 0.26701 0.96536 0.2282 0.0
C848 C 0.25306 0.9381 0.2404 0.0
C849 C 0.25279 0.99394 0.23807 0.0
C850 C 0.26844 0.9632 0.19613 0.0
C851 C 0.29518 0.96402 0.18696 0.0
C852 C 0.30149 0.96051 0.15822 0.0
C853 C 0.27992 0.9556 0.13845 0.0
C854 C 0.2525 0.95382 0.14765 0.0
C855 C 0.24681 0.95827 0.1768 0.0
H856 H 0.68153 0.04293 0.58837 0.0
H857 H 0.63264 0.97913 0.63243 0.0
H858 H 0.64136 0.94218 0.59419 0.0
H859 H 0.65667 0.02453 0.52047 0.0
H860 H 0.68862 0.02991 0.50262 0.0
H861 H 0.68183 0.04999 0.53522 0.0
H862 H 0.7266 0.02977 0.55778 0.0
H863 H 0.73359 0.00964 0.52515 0.0
H864 H 0.73217 0.99055 0.55825 0.0
H865 H 0.65197 0.91369 0.54944 0.0
H866 H 0.66234 0.89623 0.50065 0.0
H867 H 0.7034 0.97906 0.48526 0.0
C868 C 0.67321 0.02097 0.59032 0.0
C869 C 0.65661 0.01379 0.61347 0.0
C870 C 0.64552 0.98504 0.61491 0.0
C871 C 0.65044 0.96388 0.59336 0.0
C872 C 0.66647 0.97184 0.57054 0.0
C873 C 0.6777 -0.00031 0.56886 0.0
C874 C 0.69208 0.00346 0.54089 0.0
C875 C 0.67901 0.02844 0.5238 0.0
C876 C 0.72295 0.00866 0.54582 0.0
C877 C 0.68658 0.97365 0.5268 0.0
C878 C 0.67214 0.95558 0.54442 0.0
C879 C 0.66354 0.92751 0.53556 0.0
C880 C 0.6695 0.91781 0.50778 0.0
C881 C 0.68371 0.93626 0.48913 0.0
C882 C 0.69269 0.96433 0.49904 0.0
H883 H 0.29635 0.38944 0.69792 0.0
H884 H 0.268 0.47417 0.66852 0.0
H885 H 0.23682 0.47807 0.70934 0.0
H886 H 0.23259 0.36325 0.71915 0.0
H887 H 0.24568 0.3447 0.74997 0.0
H888 H 0.26732 0.34976 0.71987 0.0
H889 H 0.30356 0.37612 0.75252 0.0
H890 H 0.28206 0.37102 0.7828 0.0
H891 H 0.29357 0.40742 0.7743 0.0
H892 H 0.20618 0.47072 0.75117 0.0
H893 H 0.17936 0.45342 0.79161 0.0
H894 H 0.22851 0.37387 0.79369 0.0
C895 C 0.28386 0.40903 0.70021 0.0
C896 C 0.2846 0.43152 0.68002 0.0
C897 C 0.26783 0.45671 0.68377 0.0
C898 C 0.25007 0.45912 0.70688 0.0
C899 C 0.24953 0.43628 0.72612 0.0
C900 C 0.26615 0.41183 0.72313 0.0
C901 C 0.26093 0.38979 0.74602 0.0
C902 C 0.25104 0.36013 0.73296 0.0
C903 C 0.28655 0.38587 0.76504 0.0
C904 C 0.23834 0.40537 0.76204 0.0
C905 C 0.23213 0.4322 0.75033 0.0
C906 C 0.21107 0.44991 0.76072 0.0
C907 C 0.19591 0.43985 0.78363 0.0
C908 C 0.20192 0.41235 0.79586 0.0
C909 C 0.22359 0.39511 0.78501 0.0
H910 H 0.83226 0.02347 0.97555 0.0
H911 H 0.79389 0.09771 0.01911 0.0
H912 H 0.80112 0.07351 0.06512 0.0
H913 H 0.80571 0.96636 0.02039 0.0
H914 H 0.83695 0.94527 0.01929 0.0
H915 H 0.82733 0.96775 0.98972 0.0
H916 H 0.87408 0.99483 0.99391 0.0
H917 H 0.88381 0.97251 0.02351 0.0
H918 H 0.88433 0.01209 0.02742 0.0
H919 H 0.81402 0.04189 0.10653 0.0
H920 H 0.83207 0.00551 0.14022 0.0
H921 H 0.86246 0.95255 0.06928 0.0
C922 C 0.82509 0.03454 0.9947 0.0
C923 C 0.81241 0.06243 0.99373 0.0
C924 C 0.80362 0.0763 0.01934 0.0
C925 C 0.80759 0.06272 0.04557 0.0
C926 C 0.82041 0.03533 0.04578 0.0
C927 C 0.82901 0.0214 0.02101 0.0
C928 C 0.84316 0.99257 0.02711 0.0
C929 C 0.82734 0.96645 0.01331 0.0
C930 C 0.87312 0.99305 0.01742 0.0
C931 C 0.84142 0.99258 0.05921 0.0
C932 C 0.82808 0.01732 0.06959 0.0
C933 C 0.8244 0.02236 0.09865 0.0
C934 C 0.83474 0.00158 0.11761 0.0
C935 C 0.84868 0.97619 0.10739 0.0
C936 C 0.85189 0.97169 0.07778 0.0
H937 H 0.22649 0.59338 0.20587 0.0
H938 H 0.22292 0.49913 0.18816 0.0
H939 H 0.25321 0.49083 0.22992 0.0
H940 H 0.29659 0.59657 0.22704 0.0
H941 H 0.29149 0.62431 0.25456 0.0
H942 H 0.26887 0.62254 0.2239 0.0
H943 H 0.22704 0.61837 0.25685 0.0
H944 H 0.24955 0.62017 0.28763 0.0
H945 H 0.22622 0.58961 0.28257 0.0
H946 H 0.28521 0.49326 0.2731 0.0
H947 H 0.31566 0.50623 0.3142 0.0
H948 H 0.29744 0.59879 0.30291 0.0
C949 C 0.23192 0.57094 0.21078 0.0
C950 C 0.22234 0.5469 0.19373 0.0
C951 C 0.22999 0.51791 0.20094 0.0
C952 C 0.24718 0.51297 0.22461 0.0
C953 C 0.25641 0.53725 0.24084 0.0
C954 C 0.24894 0.56564 0.23425 0.0
C955 C 0.26186 0.58803 0.25474 0.0
C956 C 0.28083 0.60909 0.23912 0.0
C957 C 0.23985 0.60504 0.27144 0.0
C958 C 0.27799 0.56784 0.27379 0.0
C959 C 0.27459 0.53862 0.26554 0.0
C960 C 0.28792 0.51607 0.27981 0.0
C961 C 0.30518 0.52364 0.30309 0.0
C962 C 0.30891 0.5535 0.31179 0.0
C963 C 0.295 0.57574 0.29689 0.0
H964 H 0.35193 0.05214 0.5123 0.0
H965 H 0.28081 0.0052 0.54214 0.0
H966 H 0.28045 0.97413 0.49827 0.0
H967 H 0.33251 0.05077 0.43689 0.0
H968 H 0.36719 0.04517 0.42535 0.0
H969 H 0.36079 0.06501 0.45827 0.0
H970 H 0.39224 0.02884 0.48532 0.0
H971 H 0.39868 0.00887 0.45253 0.0
H972 H 0.38535 0.98985 0.48252 0.0
H973 H 0.28894 0.94684 0.45239 0.0
H974 H 0.3061 0.92455 0.40775 0.0
H975 H 0.37204 0.9889 0.40796 0.0
C976 C 0.33607 0.03557 0.50947 0.0
C977 C 0.31633 0.03116 0.53059 0.0
C978 C 0.29613 0.00899 0.52623 0.0
C979 C 0.29571 0.99128 0.50136 0.0
C980 C 0.31563 0.99601 0.4811 0.0
C981 C 0.33543 0.0176 0.48485 0.0
C982 C 0.35522 0.01726 0.46036 0.0
C983 C 0.35383 0.04628 0.44426 0.0
C984 C 0.38461 0.01081 0.47082 0.0
C985 C 0.34363 0.99186 0.44244 0.0
C986 C 0.32069 0.98006 0.4547 0.0
C987 C 0.3068 0.95597 0.44248 0.0
C988 C 0.31674 0.94346 0.41714 0.0
C989 C 0.34041 0.95499 0.40433 0.0
C990 C 0.35384 0.97966 0.41714 0.0
H991 H 0.82238 0.57703 0.19791 0.0
H992 H 0.77695 0.51949 0.13882 0.0
H993 H 0.74398 0.5089 0.1766 0.0
H994 H 0.81134 0.53399 0.26217 0.0
H995 H 0.80809 0.56667 0.28444 0.0
H996 H 0.82957 0.56707 0.25364 0.0
H997 H 0.80261 0.61187 0.23474 0.0
H998 H 0.78099 0.61153 0.26534 0.0
H999 H 0.76593 0.60926 0.23005 0.0
H1000 H 0.71365 0.50847 0.21956 0.0
H1001 H 0.68887 0.51757 0.26436 0.0
H1002 H 0.75465 0.57524 0.2949 0.0
C1003 C 0.8058 0.56178 0.19297 0.0
C1004 C 0.80226 0.54906 0.1654 0.0
C1005 C 0.78013 0.52942 0.15982 0.0
C1006 C 0.76132 0.52325 0.18115 0.0
C1007 C 0.7651 0.5367 0.20794 0.0
C1008 C 0.78693 0.55538 0.21394 0.0
C1009 C 0.78557 0.56845 0.24382 0.0
C1010 C 0.8101 0.55843 0.26209 0.0
C1011 C 0.78365 0.60227 0.24344 0.0
C1012 C 0.75914 0.55484 0.25348 0.0
C1013 C 0.74774 0.53638 0.23262 0.0
C1014 C 0.72256 0.52257 0.23618 0.0
C1015 C 0.70862 0.52794 0.26166 0.0
C1016 C 0.71986 0.54705 0.28316 0.0
C1017 C 0.74561 0.5603 0.27902 0.0
H1018 H 0.20105 0.94846 0.00341 0.0
H1019 H 0.12787 0.96561 0.05248 0.0
H1020 H 0.1077 0.9923 0.01237 0.0
H1021 H 0.20291 0.0191 0.97074 0.0
H1022 H 0.2147 0.00488 0.93695 0.0
H1023 H 0.22329 0.98604 0.96915 0.0
H1024 H 0.20196 0.93794 0.94772 0.0
H1025 H 0.19326 0.95665 0.91546 0.0
H1026 H 0.167 0.93809 0.93471 0.0
H1027 H 0.09525 0.01698 0.96771 0.0
H1028 H 0.0919 0.04058 0.92129 0.0
H1029 H 0.17344 0.00905 0.90077 0.0
C1030 C 0.18075 0.95773 0.00563 0.0
C1031 C 0.16603 0.95491 0.03107 0.0
C1032 C 0.1396 0.96757 0.03326 0.0
C1033 C 0.12789 0.98269 0.01055 0.0
C1034 C 0.1429 0.98513 0.98583 0.0
C1035 C 0.16879 0.97321 0.98319 0.0
C1036 C 0.18074 0.97995 0.95448 0.0
C1037 C 0.20696 0.9986 0.95806 0.0
C1038 C 0.18605 0.95146 0.93707 0.0
C1039 C 0.1575 0.99754 0.94153 0.0
C1040 C 0.13585 2e-05 0.95998 0.0
C1041 C 0.11205 0.01524 0.95304 0.0
C1042 C 0.11037 0.02854 0.92656 0.0
C1043 C 0.13243 0.02672 0.90735 0.0
C1044 C 0.15625 0.01085 0.91496 0.0
H1045 H 0.73457 0.38919 0.65685 0.0
H1046 H 0.66008 0.43729 0.67645 0.0
H1047 H 0.68262 0.45918 0.7193 0.0
H1048 H 0.75187 0.37146 0.72747 0.0
H1049 H 0.7883 0.3758 0.72342 0.0
H1050 H 0.76706 0.36559 0.69307 0.0
H1051 H 0.78532 0.41037 0.66597 0.0
H1052 H 0.80664 0.42074 0.6963 0.0
H1053 H 0.78267 0.4468 0.68185 0.0
H1054 H 0.71204 0.47349 0.76146 0.0
H1055 H 0.74635 0.47882 0.80042 0.0
H1056 H 0.80184 0.42174 0.7534 0.0
C1057 C 0.72309 0.40458 0.66996 0.0
C1058 C 0.69558 0.41156 0.66323 0.0
C1059 C 0.6812 0.43162 0.6811 0.0
C1060 C 0.69384 0.44425 0.70548 0.0
C1061 C 0.72089 0.43672 0.71163 0.0
C1062 C 0.7354 0.41742 0.69439 0.0
C1063 C 0.76384 0.41203 0.70654 0.0
C1064 C 0.76799 0.37928 0.71301 0.0
C1065 C 0.78592 0.42315 0.68647 0.0
C1066 C 0.7628 0.43081 0.73361 0.0
C1067 C 0.73793 0.44506 0.736 0.0
C1068 C 0.7317 0.46268 0.75971 0.0
C1069 C 0.75132 0.46554 0.78175 0.0
C1070 C 0.77681 0.45079 0.77994 0.0
C1071 C 0.78266 0.43354 0.75532 0.0
loop_
_geom_bond_atom_site_label_1
_geom_bond_atom_site_label_2
_geom_bond_distance
_geom_bond_site_symmetry_2
_ccdc_geom_bond_type
C0 O1 1.160 . S
C0 O7 1.185 . S
O1 C0 1.160 . S
O2 Zn3 1.899 . S
O2 C10 1.284 . S
Zn3 O2 1.899 . S
Zn3 O4 2.032 . S
Zn3 O7 2.086 . S
Zn3 O12 1.977 . S
O4 Zn3 2.032 . S
O4 C8 1.278 . S
C5 O6 1.203 . S
C5 O12 1.267 . S
O6 C5 1.203 . S
O7 C0 1.185 . S
O7 Zn3 2.086 . S
C8 O4 1.278 . S
C8 O9 1.211 . S
O9 C8 1.211 . S
C10 O2 1.284 . S
C10 O11 1.273 . S
O11 C10 1.273 . S
O12 Zn3 1.977 . S
O12 C5 1.267 . S
C13 O14 1.160 . S
C13 O20 1.185 . S
O14 C13 1.160 . S
O15 Zn16 1.899 . S
O15 C23 1.284 . S
Zn16 O15 1.899 . S
Zn16 O17 2.032 . S
Zn16 O20 2.086 . S
Zn16 O25 1.977 . S
O17 Zn16 2.032 . S
O17 C21 1.278 . S
C18 O19 1.203 . S
C18 O25 1.267 . S
O19 C18 1.203 . S
O20 C13 1.185 . S
O20 Zn16 2.086 . S
C21 O17 1.278 . S
C21 O22 1.211 . S
O22 C21 1.211 . S
C23 O15 1.284 . S
C23 O24 1.273 . S
O24 C23 1.273 . S
O25 Zn16 1.977 . S
O25 C18 1.267 . S
C26 O27 1.160 . S
C26 O33 1.185 . S
O27 C26 1.160 . S
O28 Zn29 1.899 . S
O28 C36 1.284 . S
Zn29 O28 1.899 . S
Zn29 O30 2.032 . S
Zn29 O33 2.086 . S
Zn29 O38 1.977 . S
O30 Zn29 2.032 . S
O30 C34 1.278 . S
C31 O32 1.203 . S
C31 O38 1.267 . S
O32 C31 1.203 . S
O33 C26 1.185 . S
O33 Zn29 2.086 . S
C34 O30 1.278 . S
C34 O35 1.211 . S
O35 C34 1.211 . S
C36 O28 1.284 . S
C36 O37 1.273 . S
O37 C36 1.273 . S
O38 Zn29 1.977 . S
O38 C31 1.267 . S
C39 O40 1.160 . S
C39 O46 1.185 . S
O40 C39 1.160 . S
O41 Zn42 1.899 . S
O41 C49 1.284 . S
Zn42 O41 1.899 . S
Zn42 O43 2.032 . S
Zn42 O46 2.086 . S
Zn42 O51 1.977 . S
O43 Zn42 2.032 . S
O43 C47 1.278 . S
C44 O45 1.203 . S
C44 O51 1.267 . S
O45 C44 1.203 . S
O46 C39 1.185 . S
O46 Zn42 2.086 . S
C47 O43 1.278 . S
C47 O48 1.211 . S
O48 C47 1.211 . S
C49 O41 1.284 . S
C49 O50 1.273 . S
O50 C49 1.273 . S
O51 Zn42 1.977 . S
O51 C44 1.267 . S
C52 O53 1.160 . S
C52 O59 1.185 . S
O53 C52 1.160 . S
O54 Zn55 1.899 . S
O54 C62 1.284 . S
Zn55 O54 1.899 . S
Zn55 O56 2.032 . S
Zn55 O59 2.086 . S
Zn55 O64 1.977 . S
O56 Zn55 2.032 . S
O56 C60 1.278 . S
C57 O58 1.203 . S
C57 O64 1.267 . S
O58 C57 1.203 . S
O59 C52 1.185 . S
O59 Zn55 2.086 . S
C60 O56 1.278 . S
C60 O61 1.211 . S
O61 C60 1.211 . S
C62 O54 1.284 . S
C62 O63 1.273 . S
O63 C62 1.273 . S
O64 Zn55 1.977 . S
O64 C57 1.267 . S
C65 O66 1.160 . S
C65 O72 1.185 . S
O66 C65 1.160 . S
O67 Zn68 1.899 . S
O67 C75 1.284 . S
Zn68 O67 1.899 . S
Zn68 O69 2.032 . S
Zn68 O72 2.086 . S
Zn68 O77 1.977 . S
O69 Zn68 2.032 . S
O69 C73 1.278 . S
C70 O71 1.203 . S
C70 O77 1.267 . S
O71 C70 1.203 . S
O72 C65 1.185 . S
O72 Zn68 2.086 . S
C73 O69 1.278 . S
C73 O74 1.211 . S
O74 C73 1.211 . S
C75 O67 1.284 . S
C75 O76 1.273 . S
O76 C75 1.273 . S
O77 Zn68 1.977 . S
O77 C70 1.267 . S
C78 O79 1.160 . S
C78 O85 1.185 . S
O79 C78 1.160 . S
O80 Zn81 1.899 . S
O80 C88 1.284 . S
Zn81 O80 1.899 . S
Zn81 O82 2.032 . S
Zn81 O85 2.086 . S
Zn81 O90 1.977 . S
O82 Zn81 2.032 . S
O82 C86 1.278 . S
C83 O84 1.203 . S
C83 O90 1.267 . S
O84 C83 1.203 . S
O85 C78 1.185 . S
O85 Zn81 2.086 . S
C86 O82 1.278 . S
C86 O87 1.211 . S
O87 C86 1.211 . S
C88 O80 1.284 . S
C88 O89 1.273 . S
O89 C88 1.273 . S
O90 Zn81 1.977 . S
O90 C83 1.267 . S
C91 O92 1.160 . S
C91 O98 1.185 . S
O92 C91 1.160 . S
O93 Zn94 1.899 . S
O93 C101 1.284 . S
Zn94 O93 1.899 . S
Zn94 O95 2.032 . S
Zn94 O98 2.086 . S
Zn94 O103 1.977 . S
O95 Zn94 2.032 . S
O95 C99 1.278 . S
C96 O97 1.203 . S
C96 O103 1.267 . S
O97 C96 1.203 . S
O98 C91 1.185 . S
O98 Zn94 2.086 . S
C99 O95 1.278 . S
C99 O100 1.211 . S
O100 C99 1.211 . S
C101 O93 1.284 . S
C101 O102 1.273 . S
O102 C101 1.273 . S
O103 Zn94 1.977 . S
O103 C96 1.267 . S
C104 O105 1.160 . S
C104 O111 1.185 . S
O105 C104 1.160 . S
O106 Zn107 1.899 . S
O106 C114 1.284 . S
Zn107 O106 1.899 . S
Zn107 O108 2.032 . S
Zn107 O111 2.086 . S
Zn107 O116 1.977 . S
O108 Zn107 2.032 . S
O108 C112 1.278 . S
C109 O110 1.203 . S
C109 O116 1.267 . S
O110 C109 1.203 . S
O111 C104 1.185 . S
O111 Zn107 2.086 . S
C112 O108 1.278 . S
C112 O113 1.211 . S
O113 C112 1.211 . S
C114 O106 1.284 . S
C114 O115 1.273 . S
O115 C114 1.273 . S
O116 Zn107 1.977 . S
O116 C109 1.267 . S
C117 O118 1.160 . S
C117 O124 1.185 . S
O118 C117 1.160 . S
O119 Zn120 1.899 . S
O119 C127 1.284 . S
Zn120 O119 1.899 . S
Zn120 O121 2.032 . S
Zn120 O124 2.086 . S
Zn120 O129 1.977 . S
O121 Zn120 2.032 . S
O121 C125 1.278 . S
C122 O123 1.203 . S
C122 O129 1.267 . S
O123 C122 1.203 . S
O124 C117 1.185 . S
O124 Zn120 2.086 . S
C125 O121 1.278 . S
C125 O126 1.211 . S
O126 C125 1.211 . S
C127 O119 1.284 . S
C127 O128 1.273 . S
O128 C127 1.273 . S
O129 Zn120 1.977 . S
O129 C122 1.267 . S
C130 O131 1.160 . S
C130 O137 1.185 . S
O131 C130 1.160 . S
O132 Zn133 1.899 . S
O132 C140 1.284 . S
Zn133 O132 1.899 . S
Zn133 O134 2.032 . S
Zn133 O137 2.086 . S
Zn133 O142 1.977 . S
O134 Zn133 2.032 . S
O134 C138 1.278 . S
C135 O136 1.203 . S
C135 O142 1.267 . S
O136 C135 1.203 . S
O137 C130 1.185 . S
O137 Zn133 2.086 . S
C138 O134 1.278 . S
C138 O139 1.211 . S
O139 C138 1.211 . S
C140 O132 1.284 . S
C140 O141 1.273 . S
O141 C140 1.273 . S
O142 Zn133 1.977 . S
O142 C135 1.267 . S
C143 O144 1.160 . S
C143 O150 1.185 . S
O144 C143 1.160 . S
O145 Zn146 1.899 . S
O145 C153 1.284 . S
Zn146 O145 1.899 . S
Zn146 O147 2.032 . S
Zn146 O150 2.086 . S
Zn146 O155 1.977 . S
O147 Zn146 2.032 . S
O147 C151 1.278 . S
C148 O149 1.203 . S
C148 O155 1.267 . S
O149 C148 1.203 . S
O150 C143 1.185 . S
O150 Zn146 2.086 . S
C151 O147 1.278 . S
C151 O152 1.211 . S
O152 C151 1.211 . S
C153 O145 1.284 . S
C153 O154 1.273 . S
O154 C153 1.273 . S
O155 Zn146 1.977 . S
O155 C148 1.267 . S
C156 O157 1.160 . S
C156 O163 1.185 . S
O157 C156 1.160 . S
O158 Zn159 1.899 . S
O158 C166 1.284 . S
Zn159 O158 1.899 . S
Zn159 O160 2.032 . S
Zn159 O163 2.086 . S
Zn159 O168 1.977 . S
O160 Zn159 2.032 . S
O160 C164 1.278 . S
C161 O162 1.203 . S
C161 O168 1.267 . S
O162 C161 1.203 . S
O163 C156 1.185 . S
O163 Zn159 2.086 . S
C164 O160 1.278 . S
C164 O165 1.211 . S
O165 C164 1.211 . S
C166 O158 1.284 . S
C166 O167 1.273 . S
O167 C166 1.273 . S
O168 Zn159 1.977 . S
O168 C161 1.267 . S
C169 O170 1.160 . S
C169 O176 1.185 . S
O170 C169 1.160 . S
O171 Zn172 1.899 . S
O171 C179 1.284 . S
Zn172 O171 1.899 . S
Zn172 O173 2.032 . S
Zn172 O176 2.086 . S
Zn172 O181 1.977 . S
O173 Zn172 2.032 . S
O173 C177 1.278 . S
C174 O175 1.203 . S
C174 O181 1.267 . S
O175 C174 1.203 . S
O176 C169 1.185 . S
O176 Zn172 2.086 . S
C177 O173 1.278 . S
C177 O178 1.211 . S
O178 C177 1.211 . S
C179 O171 1.284 . S
C179 O180 1.273 . S
O180 C179 1.273 . S
O181 Zn172 1.977 . S
O181 C174 1.267 . S
C182 O183 1.160 . S
C182 O189 1.185 . S
O183 C182 1.160 . S
O184 Zn185 1.899 . S
O184 C192 1.284 . S
Zn185 O184 1.899 . S
Zn185 O186 2.032 . S
Zn185 O189 2.086 . S
Zn185 O194 1.977 . S
O186 Zn185 2.032 . S
O186 C190 1.278 . S
C187 O188 1.203 . S
C187 O194 1.267 . S
O188 C187 1.203 . S
O189 C182 1.185 . S
O189 Zn185 2.086 . S
C190 O186 1.278 . S
C190 O191 1.211 . S
O191 C190 1.211 . S
C192 O184 1.284 . S
C192 O193 1.273 . S
O193 C192 1.273 . S
O194 Zn185 1.977 . S
O194 C187 1.267 . S
C195 O196 1.160 . S
C195 O202 1.185 . S
O196 C195 1.160 . S
O197 Zn198 1.899 . S
O197 C205 1.284 . S
Zn198 O197 1.899 . S
Zn198 O199 2.032 . S
Zn198 O202 2.086 . S
Zn198 O207 1.977 . S
O199 Zn198 2.032 . S
O199 C203 1.278 . S
C200 O201 1.203 . S
C200 O207 1.267 . S
O201 C200 1.203 . S
O202 C195 1.185 . S
O202 Zn198 2.086 . S
C203 O199 1.278 . S
C203 O204 1.211 . S
O204 C203 1.211 . S
C205 O197 1.284 . S
C205 O206 1.273 . S
O206 C205 1.273 . S
O207 Zn198 1.977 . S
O207 C200 1.267 . S
H208 C220 0.930 . S
H209 C222 0.930 . S
H210 C223 0.930 . S
H211 C227 0.959 . S
H212 C227 0.959 . S
H213 C227 0.961 . S
H214 C228 0.960 . S
H215 C228 0.961 . S
H216 C228 0.959 . S
H217 C231 0.929 . S
H218 C232 0.931 . S
H219 C234 0.930 . S
C220 H208 0.930 . S
C220 C221 1.399 . S
C220 C225 1.399 . S
C221 C220 1.399 . S
C221 C222 1.376 . S
C222 H209 0.930 . S
C222 C221 1.376 . S
C222 C223 1.388 . S
C223 H210 0.930 . S
C223 C222 1.388 . S
C223 C224 1.390 . S
C224 C223 1.390 . S
C224 C225 1.394 . S
C224 C230 1.465 . S
C225 C220 1.399 . S
C225 C224 1.394 . S
C225 C226 1.516 . S
C226 C225 1.516 . S
C226 C227 1.502 . S
C226 C228 1.561 . S
C226 C229 1.526 . S
C227 H211 0.959 . S
C227 H212 0.959 . S
C227 H213 0.961 . S
C227 C226 1.502 . S
C228 H214 0.960 . S
C228 H215 0.961 . S
C228 H216 0.959 . S
C228 C226 1.561 . S
C229 C226 1.526 . S
C229 C230 1.396 . S
C229 C234 1.390 . S
C230 C224 1.465 . S
C230 C229 1.396 . S
C230 C231 1.399 . S
C231 H217 0.929 . S
C231 C230 1.399 . S
C231 C232 1.385 . S
C232 H218 0.931 . S
C232 C231 1.385 . S
C232 C233 1.389 . S
C233 C232 1.389 . S
C233 C234 1.387 . S
C234 H219 0.930 . S
C234 C229 1.390 . S
C234 C233 1.387 . S
H235 C247 0.930 . S
H236 C249 0.930 . S
H237 C250 0.930 . S
H238 C254 0.959 . S
H239 C254 0.959 . S
H240 C254 0.961 . S
H241 C255 0.949 1_545 S
H242 C255 0.961 1_545 S
H243 C255 0.959 . S
H244 C258 0.929 . S
H245 C259 0.931 . S
H246 C261 0.930 . S
C247 H235 0.930 . S
C247 C248 1.399 . S
C247 C252 1.399 . S
C248 C247 1.399 . S
C248 C249 1.376 . S
C249 H236 0.930 . S
C249 C248 1.376 . S
C249 C250 1.388 . S
C250 H237 0.930 . S
C250 C249 1.388 . S
C250 C251 1.390 . S
C251 C250 1.390 . S
C251 C252 1.394 . S
C251 C257 1.465 . S
C252 C247 1.399 . S
C252 C251 1.394 . S
C252 C253 1.516 . S
C253 C252 1.516 . S
C253 C254 1.502 . S
C253 C255 1.561 . S
C253 C256 1.526 . S
C254 H238 0.959 . S
C254 H239 0.959 . S
C254 H240 0.961 . S
C254 C253 1.502 . S
C255 H241 0.949 1_565 S
C255 H242 0.961 1_565 S
C255 H243 0.959 . S
C255 C253 1.561 . S
C256 C253 1.526 . S
C256 C257 1.396 . S
C256 C261 1.390 . S
C257 C251 1.465 . S
C257 C256 1.396 . S
C257 C258 1.399 . S
C258 H244 0.929 . S
C258 C257 1.399 . S
C258 C259 1.385 . S
C259 H245 0.931 . S
C259 C258 1.385 . S
C259 C260 1.389 . S
C260 C259 1.389 . S
C260 C261 1.387 . S
C261 H246 0.930 . S
C261 C256 1.390 . S
C261 C260 1.387 . S
H262 C274 0.930 . S
H263 C276 0.930 . S
H264 C277 0.930 . S
H265 C281 0.959 . S
H266 C281 0.959 . S
H267 C281 0.961 . S
H268 C282 0.960 . S
H269 C282 0.961 . S
H270 C282 0.959 . S
H271 C285 0.929 . S
H272 C286 0.931 . S
H273 C288 0.930 . S
C274 H262 0.930 . S
C274 C275 1.399 . S
C274 C279 1.399 . S
C275 C274 1.399 . S
C275 C276 1.376 . S
C276 H263 0.930 . S
C276 C275 1.376 . S
C276 C277 1.388 . S
C277 H264 0.930 . S
C277 C276 1.388 . S
C277 C278 1.390 . S
C278 C277 1.390 . S
C278 C279 1.394 . S
C278 C284 1.465 . S
C279 C274 1.399 . S
C279 C278 1.394 . S
C279 C280 1.516 . S
C280 C279 1.516 . S
C280 C281 1.502 . S
C280 C282 1.561 . S
C280 C283 1.526 . S
C281 H265 0.959 . S
C281 H266 0.959 . S
C281 H267 0.961 . S
C281 C280 1.502 . S
C282 H268 0.960 . S
C282 H269 0.961 . S
C282 H270 0.959 . S
C282 C280 1.561 . S
C283 C280 1.526 . S
C283 C284 1.396 . S
C283 C288 1.390 . S
C284 C278 1.465 . S
C284 C283 1.396 . S
C284 C285 1.399 . S
C285 H271 0.929 . S
C285 C284 1.399 . S
C285 C286 1.385 . S
C286 H272 0.931 . S
C286 C285 1.385 . S
C286 C287 1.389 . S
C287 C286 1.389 . S
C287 C288 1.387 . S
C288 H273 0.930 . S
C288 C283 1.390 . S
C288 C287 1.387 . S
H289 C301 0.930 . S
H290 C303 0.930 . S
H291 C304 0.930 . S
H292 C308 0.959 . S
H293 C308 0.959 . S
H294 C308 0.961 1_455 S
H295 C309 0.960 1_455 S
H296 C309 0.961 . S
H297 C309 0.959 . S
H298 C312 0.929 . S
H299 C313 0.931 . S
H300 C315 0.930 . S
C301 H289 0.930 . S
C301 C302 1.399 . S
C301 C306 1.399 . S
C302 C301 1.399 . S
C302 C303 1.376 . S
C303 H290 0.930 . S
C303 C302 1.376 . S
C303 C304 1.388 . S
C304 H291 0.930 . S
C304 C303 1.388 . S
C304 C305 1.390 . S
C305 C304 1.390 . S
C305 C306 1.394 . S
C305 C311 1.465 1_455 S
C306 C301 1.399 . S
C306 C305 1.394 . S
C306 C307 1.516 1_455 S
C307 C306 1.516 1_655 S
C307 C308 1.502 . S
C307 C309 1.561 . S
C307 C310 1.526 . S
C308 H292 0.959 . S
C308 H293 0.959 . S
C308 H294 0.961 1_655 S
C308 C307 1.502 . S
C309 H295 0.960 1_655 S
C309 H296 0.961 . S
C309 H297 0.959 . S
C309 C307 1.561 . S
C310 C307 1.526 . S
C310 C311 1.396 . S
C310 C315 1.390 . S
C311 C305 1.465 1_655 S
C311 C310 1.396 . S
C311 C312 1.399 . S
C312 H298 0.929 . S
C312 C311 1.399 . S
C312 C313 1.385 . S
C313 H299 0.931 . S
C313 C312 1.385 . S
C313 C314 1.389 . S
C314 C313 1.389 . S
C314 C315 1.387 . S
C315 H300 0.930 . S
C315 C310 1.390 . S
C315 C314 1.387 . S
H316 C328 0.930 . S
H317 C330 0.930 . S
H318 C331 0.930 . S
H319 C335 0.959 . S
H320 C335 0.959 . S
H321 C335 0.961 . S
H322 C336 0.960 . S
H323 C336 0.961 . S
H324 C336 0.959 . S
H325 C339 0.929 . S
H326 C340 0.931 . S
H327 C342 0.930 . S
C328 H316 0.930 . S
C328 C329 1.399 . S
C328 C333 1.399 . S
C329 C328 1.399 . S
C329 C330 1.376 . S
C330 H317 0.930 . S
C330 C329 1.376 . S
C330 C331 1.388 . S
C331 H318 0.930 . S
C331 C330 1.388 . S
C331 C332 1.390 . S
C332 C331 1.390 . S
C332 C333 1.394 . S
C332 C338 1.465 . S
C333 C328 1.399 . S
C333 C332 1.394 . S
C333 C334 1.516 . S
C334 C333 1.516 . S
C334 C335 1.502 . S
C334 C336 1.561 . S
C334 C337 1.526 . S
C335 H319 0.959 . S
C335 H320 0.959 . S
C335 H321 0.961 . S
C335 C334 1.502 . S
C336 H322 0.960 . S
C336 H323 0.961 . S
C336 H324 0.959 . S
C336 C334 1.561 . S
C337 C334 1.526 . S
C337 C338 1.396 . S
C337 C342 1.390 . S
C338 C332 1.465 . S
C338 C337 1.396 . S
C338 C339 1.399 . S
C339 H325 0.929 . S
C339 C338 1.399 . S
C339 C340 1.385 . S
C340 H326 0.931 . S
C340 C339 1.385 . S
C340 C341 1.389 . S
C341 C340 1.389 . S
C341 C342 1.387 . S
C342 H327 0.930 . S
C342 C337 1.390 . S
C342 C341 1.387 . S
H343 C355 0.930 . S
H344 C357 0.930 . S
H345 C358 0.930 . S
H346 C362 0.959 . S
H347 C362 0.959 . S
H348 C362 0.961 1_655 S
H349 C363 0.960 1_655 S
H350 C363 0.961 . S
H351 C363 0.959 . S
H352 C366 0.929 . S
H353 C367 0.931 . S
H354 C369 0.930 . S
C355 H343 0.930 . S
C355 C356 1.399 . S
C355 C360 1.399 . S
C356 C355 1.399 . S
C356 C357 1.376 . S
C357 H344 0.930 . S
C357 C356 1.376 . S
C357 C358 1.388 . S
C358 H345 0.930 . S
C358 C357 1.388 . S
C358 C359 1.390 . S
C359 C358 1.390 . S
C359 C360 1.394 . S
C359 C365 1.465 1_655 S
C360 C355 1.399 . S
C360 C359 1.394 . S
C360 C361 1.516 1_655 S
C361 C360 1.516 1_455 S
C361 C362 1.502 . S
C361 C363 1.561 . S
C361 C364 1.526 . S
C362 H346 0.959 . S
C362 H347 0.959 . S
C362 H348 0.961 1_455 S
C362 C361 1.502 . S
C363 H349 0.960 1_455 S
C363 H350 0.961 . S
C363 H351 0.959 . S
C363 C361 1.561 . S
C364 C361 1.526 . S
C364 C365 1.396 . S
C364 C369 1.390 . S
C365 C359 1.465 1_455 S
C365 C364 1.396 . S
C365 C366 1.399 . S
C366 H352 0.929 . S
C366 C365 1.399 . S
C366 C367 1.385 . S
C367 H353 0.931 . S
C367 C366 1.385 . S
C367 C368 1.389 . S
C368 C367 1.389 . S
C368 C369 1.387 . S
C369 H354 0.930 . S
C369 C364 1.390 . S
C369 C368 1.387 . S
H370 C382 0.930 . S
H371 C384 0.930 . S
H372 C385 0.930 . S
H373 C389 0.959 . S
H374 C389 0.959 . S
H375 C389 0.961 . S
H376 C390 0.960 . S
H377 C390 0.961 . S
H378 C390 0.959 . S
H379 C393 0.929 . S
H380 C394 0.931 . S
H381 C396 0.930 . S
C382 H370 0.930 . S
C382 C383 1.399 . S
C382 C387 1.399 . S
C383 C382 1.399 . S
C383 C384 1.376 . S
C384 H371 0.930 . S
C384 C383 1.376 . S
C384 C385 1.388 . S
C385 H372 0.930 . S
C385 C384 1.388 . S
C385 C386 1.390 . S
C386 C385 1.390 . S
C386 C387 1.394 . S
C386 C392 1.465 . S
C387 C382 1.399 . S
C387 C386 1.394 . S
C387 C388 1.516 . S
C388 C387 1.516 . S
C388 C389 1.502 . S
C388 C390 1.561 . S
C388 C391 1.526 . S
C389 H373 0.959 . S
C389 H374 0.959 . S
C389 H375 0.961 . S
C389 C388 1.502 . S
C390 H376 0.960 . S
C390 H377 0.961 . S
C390 H378 0.959 . S
C390 C388 1.561 . S
C391 C388 1.526 . S
C391 C392 1.396 . S
C391 C396 1.390 . S
C392 C386 1.465 . S
C392 C391 1.396 . S
C392 C393 1.399 . S
C393 H379 0.929 . S
C393 C392 1.399 . S
C393 C394 1.385 . S
C394 H380 0.931 . S
C394 C393 1.385 . S
C394 C395 1.389 . S
C395 C394 1.389 . S
C395 C396 1.387 . S
C396 H381 0.930 . S
C396 C391 1.390 . S
C396 C395 1.387 . S
H397 C409 0.930 . S
H398 C411 0.930 . S
H399 C412 0.930 . S
H400 C416 0.959 . S
H401 C416 0.959 1_565 S
H402 C416 0.961 1_565 S
H403 C417 0.960 . S
H404 C417 0.961 1_565 S
H405 C417 0.959 . S
H406 C420 0.929 . S
H407 C421 0.931 . S
H408 C423 0.930 . S
C409 H397 0.930 . S
C409 C410 1.399 . S
C409 C414 1.399 . S
C410 C409 1.399 . S
C410 C411 1.376 . S
C411 H398 0.930 . S
C411 C410 1.376 . S
C411 C412 1.388 . S
C412 H399 0.930 . S
C412 C411 1.388 . S
C412 C413 1.390 . S
C413 C412 1.390 . S
C413 C414 1.394 . S
C413 C419 1.465 . S
C414 C409 1.399 . S
C414 C413 1.394 . S
C414 C415 1.516 . S
C415 C414 1.516 . S
C415 C416 1.502 . S
C415 C417 1.561 . S
C415 C418 1.526 . S
C416 H400 0.959 . S
C416 H401 0.959 1_545 S
C416 H402 0.961 1_545 S
C416 C415 1.502 . S
C417 H403 0.960 . S
C417 H404 0.961 1_545 S
C417 H405 0.959 . S
C417 C415 1.561 . S
C418 C415 1.526 . S
C418 C419 1.396 . S
C418 C423 1.390 . S
C419 C413 1.465 . S
C419 C418 1.396 . S
C419 C420 1.399 . S
C420 H406 0.929 . S
C420 C419 1.399 . S
C420 C421 1.385 . S
C421 H407 0.931 . S
C421 C420 1.385 . S
C421 C422 1.389 . S
C422 C421 1.389 . S
C422 C423 1.387 . S
C423 H408 0.930 . S
C423 C418 1.390 . S
C423 C422 1.387 . S
H424 C436 0.930 . S
H425 C438 0.930 . S
H426 C439 0.930 . S
H427 C443 0.959 . S
H428 C443 0.959 . S
H429 C443 0.961 . S
H430 C444 0.960 . S
H431 C444 0.961 . S
H432 C444 0.959 . S
H433 C447 0.929 . S
H434 C448 0.931 . S
H435 C450 0.930 . S
C436 H424 0.930 . S
C436 C437 1.399 . S
C436 C441 1.399 . S
C437 C436 1.399 . S
C437 C438 1.376 . S
C438 H425 0.930 . S
C438 C437 1.376 . S
C438 C439 1.388 . S
C439 H426 0.930 . S
C439 C438 1.388 . S
C439 C440 1.390 . S
C440 C439 1.390 . S
C440 C441 1.394 . S
C440 C446 1.465 . S
C441 C436 1.399 . S
C441 C440 1.394 . S
C441 C442 1.516 . S
C442 C441 1.516 . S
C442 C443 1.502 . S
C442 C444 1.561 . S
C442 C445 1.526 . S
C443 H427 0.959 . S
C443 H428 0.959 . S
C443 H429 0.961 . S
C443 C442 1.502 . S
C444 H430 0.960 . S
C444 H431 0.961 . S
C444 H432 0.959 . S
C444 C442 1.561 . S
C445 C442 1.526 . S
C445 C446 1.396 . S
C445 C450 1.390 . S
C446 C440 1.465 . S
C446 C445 1.396 . S
C446 C447 1.399 . S
C447 H433 0.929 . S
C447 C446 1.399 . S
C447 C448 1.385 . S
C448 H434 0.931 . S
C448 C447 1.385 . S
C448 C449 1.389 . S
C449 C448 1.389 . S
C449 C450 1.387 . S
C450 H435 0.930 . S
C450 C445 1.390 . S
C450 C449 1.387 . S
H451 C463 0.930 . S
H452 C465 0.930 . S
H453 C466 0.930 . S
H454 C470 0.959 . S
H455 C470 0.959 . S
H456 C470 0.961 . S
H457 C471 0.960 . S
H458 C471 0.961 . S
H459 C471 0.959 . S
H460 C474 0.929 . S
H461 C475 0.931 . S
H462 C477 0.930 . S
C463 H451 0.930 . S
C463 C464 1.399 . S
C463 C468 1.399 . S
C464 C463 1.399 . S
C464 C465 1.376 . S
C465 H452 0.930 . S
C465 C464 1.376 . S
C465 C466 1.388 . S
C466 H453 0.930 . S
C466 C465 1.388 . S
C466 C467 1.390 . S
C467 C466 1.390 . S
C467 C468 1.394 . S
C467 C473 1.465 . S
C468 C463 1.399 . S
C468 C467 1.394 . S
C468 C469 1.516 . S
C469 C468 1.516 . S
C469 C470 1.502 . S
C469 C471 1.561 . S
C469 C472 1.526 . S
C470 H454 0.959 . S
C470 H455 0.959 . S
C470 H456 0.961 . S
C470 C469 1.502 . S
C471 H457 0.960 . S
C471 H458 0.961 . S
C471 H459 0.959 . S
C471 C469 1.561 . S
C472 C469 1.526 . S
C472 C473 1.396 . S
C472 C477 1.390 . S
C473 C467 1.465 . S
C473 C472 1.396 . S
C473 C474 1.399 . S
C474 H460 0.929 . S
C474 C473 1.399 . S
C474 C475 1.385 . S
C475 H461 0.931 . S
C475 C474 1.385 . S
C475 C476 1.389 . S
C476 C475 1.389 . S
C476 C477 1.387 . S
C477 H462 0.930 . S
C477 C472 1.390 . S
C477 C476 1.387 . S
H478 C490 0.930 . S
H479 C492 0.930 . S
H480 C493 0.930 . S
H481 C497 0.959 . S
H482 C497 0.959 . S
H483 C497 0.961 . S
H484 C498 0.960 . S
H485 C498 0.961 . S
H486 C498 0.959 . S
H487 C501 0.929 . S
H488 C502 0.931 . S
H489 C504 0.930 . S
C490 H478 0.930 . S
C490 C491 1.399 . S
C490 C495 1.399 . S
C491 C490 1.399 . S
C491 C492 1.376 . S
C492 H479 0.930 . S
C492 C491 1.376 . S
C492 C493 1.388 . S
C493 H480 0.930 . S
C493 C492 1.388 . S
C493 C494 1.390 . S
C494 C493 1.390 . S
C494 C495 1.394 . S
C494 C500 1.465 . S
C495 C490 1.399 . S
C495 C494 1.394 . S
C495 C496 1.516 . S
C496 C495 1.516 . S
C496 C497 1.502 . S
C496 C498 1.561 . S
C496 C499 1.526 . S
C497 H481 0.959 . S
C497 H482 0.959 . S
C497 H483 0.961 . S
C497 C496 1.502 . S
C498 H484 0.960 . S
C498 H485 0.961 . S
C498 H486 0.959 . S
C498 C496 1.561 . S
C499 C496 1.526 . S
C499 C500 1.396 . S
C499 C504 1.390 . S
C500 C494 1.465 . S
C500 C499 1.396 . S
C500 C501 1.399 . S
C501 H487 0.929 . S
C501 C500 1.399 . S
C501 C502 1.385 . S
C502 H488 0.931 . S
C502 C501 1.385 . S
C502 C503 1.389 . S
C503 C502 1.389 . S
C503 C504 1.387 . S
C504 H489 0.930 . S
C504 C499 1.390 . S
C504 C503 1.387 . S
H505 C517 0.930 . S
H506 C519 0.930 . S
H507 C520 0.930 . S
H508 C524 0.959 . S
H509 C524 0.959 . S
H510 C524 0.961 . S
H511 C525 0.960 . S
H512 C525 0.961 . S
H513 C525 0.959 . S
H514 C528 0.929 . S
H515 C529 0.931 . S
H516 C531 0.930 . S
C517 H505 0.930 . S
C517 C518 1.399 . S
C517 C522 1.399 . S
C518 C517 1.399 . S
C518 C519 1.376 . S
C519 H506 0.930 . S
C519 C518 1.376 . S
C519 C520 1.388 . S
C520 H507 0.930 . S
C520 C519 1.388 . S
C520 C521 1.390 . S
C521 C520 1.390 . S
C521 C522 1.394 . S
C521 C527 1.465 . S
C522 C517 1.399 . S
C522 C521 1.394 . S
C522 C523 1.516 . S
C523 C522 1.516 . S
C523 C524 1.502 . S
C523 C525 1.561 . S
C523 C526 1.526 . S
C524 H508 0.959 . S
C524 H509 0.959 . S
C524 H510 0.961 . S
C524 C523 1.502 . S
C525 H511 0.960 . S
C525 H512 0.961 . S
C525 H513 0.959 . S
C525 C523 1.561 . S
C526 C523 1.526 . S
C526 C527 1.396 . S
C526 C531 1.390 . S
C527 C521 1.465 . S
C527 C526 1.396 . S
C527 C528 1.399 . S
C528 H514 0.929 . S
C528 C527 1.399 . S
C528 C529 1.385 . S
C529 H515 0.931 . S
C529 C528 1.385 . S
C529 C530 1.389 . S
C530 C529 1.389 . S
C530 C531 1.387 . S
C531 H516 0.930 . S
C531 C526 1.390 . S
C531 C530 1.387 . S
H532 C544 0.930 . S
H533 C546 0.930 . S
H534 C547 0.930 . S
H535 C551 0.960 . S
H536 C551 0.959 1_655 S
H537 C551 0.961 . S
H538 C552 0.966 . S
H539 C552 0.955 1_655 S
H540 C552 0.958 1_655 S
H541 C555 0.929 . S
H542 C556 0.931 . S
H543 C558 0.930 . S
C544 H532 0.930 . S
C544 C545 1.399 . S
C544 C549 1.399 . S
C545 C544 1.399 . S
C545 C546 1.376 . S
C546 H533 0.930 . S
C546 C545 1.376 . S
C546 C547 1.388 . S
C547 H534 0.930 . S
C547 C546 1.388 . S
C547 C548 1.390 . S
C548 C547 1.390 . S
C548 C549 1.394 . S
C548 C554 1.465 1_455 S
C549 C544 1.399 . S
C549 C548 1.394 . S
C549 C550 1.516 . S
C550 C549 1.516 . S
C550 C551 1.502 . S
C550 C552 1.561 . S
C550 C553 1.526 1_455 S
C551 H535 0.960 . S
C551 H536 0.959 1_455 S
C551 H537 0.961 . S
C551 C550 1.502 . S
C552 H538 0.966 . S
C552 H539 0.955 1_455 S
C552 H540 0.958 1_455 S
C552 C550 1.561 . S
C553 C550 1.526 1_655 S
C553 C554 1.396 . S
C553 C558 1.390 . S
C554 C548 1.465 1_655 S
C554 C553 1.396 . S
C554 C555 1.399 . S
C555 H541 0.929 . S
C555 C554 1.399 . S
C555 C556 1.385 . S
C556 H542 0.931 . S
C556 C555 1.385 . S
C556 C557 1.389 . S
C557 C556 1.389 . S
C557 C558 1.387 . S
C558 H543 0.930 . S
C558 C553 1.390 . S
C558 C557 1.387 . S
H559 C571 0.930 . S
H560 C573 0.930 . S
H561 C574 0.930 . S
H562 C578 0.959 . S
H563 C578 0.959 . S
H564 C578 0.961 . S
H565 C579 0.960 . S
H566 C579 0.961 . S
H567 C579 0.959 . S
H568 C582 0.929 . S
H569 C583 0.931 . S
H570 C585 0.930 . S
C571 H559 0.930 . S
C571 C572 1.399 . S
C571 C576 1.399 . S
C572 C571 1.399 . S
C572 C573 1.376 . S
C573 H560 0.930 . S
C573 C572 1.376 . S
C573 C574 1.388 . S
C574 H561 0.930 . S
C574 C573 1.388 . S
C574 C575 1.390 . S
C575 C574 1.390 . S
C575 C576 1.394 . S
C575 C581 1.465 . S
C576 C571 1.399 . S
C576 C575 1.394 . S
C576 C577 1.516 . S
C577 C576 1.516 . S
C577 C578 1.502 . S
C577 C579 1.561 . S
C577 C580 1.526 . S
C578 H562 0.959 . S
C578 H563 0.959 . S
C578 H564 0.961 . S
C578 C577 1.502 . S
C579 H565 0.960 . S
C579 H566 0.961 . S
C579 H567 0.959 . S
C579 C577 1.561 . S
C580 C577 1.526 . S
C580 C581 1.396 . S
C580 C585 1.390 . S
C581 C575 1.465 . S
C581 C580 1.396 . S
C581 C582 1.399 . S
C582 H568 0.929 . S
C582 C581 1.399 . S
C582 C583 1.385 . S
C583 H569 0.931 . S
C583 C582 1.385 . S
C583 C584 1.389 . S
C584 C583 1.389 . S
C584 C585 1.387 . S
C585 H570 0.930 . S
C585 C580 1.390 . S
C585 C584 1.387 . S
H586 C598 0.930 . S
H587 C600 0.930 . S
H588 C601 0.930 . S
H589 C605 0.959 . S
H590 C605 0.959 . S
H591 C605 0.961 . S
H592 C606 0.960 . S
H593 C606 0.961 . S
H594 C606 0.959 . S
H595 C609 0.929 . S
H596 C610 0.931 . S
H597 C612 0.930 . S
C598 H586 0.930 . S
C598 C599 1.399 . S
C598 C603 1.399 . S
C599 C598 1.399 . S
C599 C600 1.376 . S
C600 H587 0.930 . S
C600 C599 1.376 . S
C600 C601 1.388 . S
C601 H588 0.930 . S
C601 C600 1.388 . S
C601 C602 1.390 . S
C602 C601 1.390 . S
C602 C603 1.394 . S
C602 C608 1.465 . S
C603 C598 1.399 . S
C603 C602 1.394 . S
C603 C604 1.516 . S
C604 C603 1.516 . S
C604 C605 1.502 . S
C604 C606 1.561 . S
C604 C607 1.526 . S
C605 H589 0.959 . S
C605 H590 0.959 . S
C605 H591 0.961 . S
C605 C604 1.502 . S
C606 H592 0.960 . S
C606 H593 0.961 . S
C606 H594 0.959 . S
C606 C604 1.561 . S
C607 C604 1.526 . S
C607 C608 1.396 . S
C607 C612 1.390 . S
C608 C602 1.465 . S
C608 C607 1.396 . S
C608 C609 1.399 . S
C609 H595 0.929 . S
C609 C608 1.399 . S
C609 C610 1.385 . S
C610 H596 0.931 . S
C610 C609 1.385 . S
C610 C611 1.389 . S
C611 C610 1.389 . S
C611 C612 1.387 . S
C612 H597 0.930 . S
C612 C607 1.390 . S
C612 C611 1.387 . S
H613 C625 0.930 . S
H614 C627 0.930 . S
H615 C628 0.930 . S
H616 C632 0.959 . S
H617 C632 0.959 1_655 S
H618 C632 0.961 . S
H619 C633 0.960 . S
H620 C633 0.961 1_655 S
H621 C633 0.958 1_655 S
H622 C636 0.929 . S
H623 C637 0.931 . S
H624 C639 0.930 . S
C625 H613 0.930 . S
C625 C626 1.399 . S
C625 C630 1.399 . S
C626 C625 1.399 . S
C626 C627 1.376 . S
C627 H614 0.930 . S
C627 C626 1.376 . S
C627 C628 1.388 . S
C628 H615 0.930 . S
C628 C627 1.388 . S
C628 C629 1.390 . S
C629 C628 1.390 . S
C629 C630 1.394 . S
C629 C635 1.465 1_455 S
C630 C625 1.399 . S
C630 C629 1.394 . S
C630 C631 1.516 . S
C631 C630 1.516 . S
C631 C632 1.502 . S
C631 C633 1.561 . S
C631 C634 1.526 1_455 S
C632 H616 0.959 . S
C632 H617 0.959 1_455 S
C632 H618 0.961 . S
C632 C631 1.502 . S
C633 H619 0.960 . S
C633 H620 0.961 1_455 S
C633 H621 0.958 1_455 S
C633 C631 1.561 . S
C634 C631 1.526 1_655 S
C634 C635 1.396 . S
C634 C639 1.390 . S
C635 C629 1.465 1_655 S
C635 C634 1.396 . S
C635 C636 1.399 . S
C636 H622 0.929 . S
C636 C635 1.399 . S
C636 C637 1.385 . S
C637 H623 0.931 . S
C637 C636 1.385 . S
C637 C638 1.389 . S
C638 C637 1.389 . S
C638 C639 1.387 . S
C639 H624 0.930 . S
C639 C634 1.390 . S
C639 C638 1.387 . S
H640 C652 0.930 . S
H641 C654 0.930 . S
H642 C655 0.930 . S
H643 C659 0.959 . S
H644 C659 0.959 . S
H645 C659 0.961 . S
H646 C660 0.960 . S
H647 C660 0.961 1_556 S
H648 C660 0.959 . S
H649 C663 0.929 . S
H650 C664 0.931 . S
H651 C666 0.930 . S
C652 H640 0.930 . S
C652 C653 1.399 . S
C652 C657 1.399 . S
C653 C652 1.399 . S
C653 C654 1.376 . S
C654 H641 0.930 . S
C654 C653 1.376 . S
C654 C655 1.388 . S
C655 H642 0.930 . S
C655 C654 1.388 . S
C655 C656 1.390 . S
C656 C655 1.390 . S
C656 C657 1.394 . S
C656 C662 1.465 1_554 S
C657 C652 1.399 . S
C657 C656 1.394 . S
C657 C658 1.516 1_554 S
C658 C657 1.516 1_556 S
C658 C659 1.502 . S
C658 C660 1.561 1_556 S
C658 C661 1.526 . S
C659 H643 0.959 . S
C659 H644 0.959 . S
C659 H645 0.961 . S
C659 C658 1.502 . S
C660 H646 0.960 . S
C660 H647 0.961 1_554 S
C660 H648 0.959 . S
C660 C658 1.561 1_554 S
C661 C658 1.526 . S
C661 C662 1.396 . S
C661 C666 1.390 . S
C662 C656 1.465 1_556 S
C662 C661 1.396 . S
C662 C663 1.399 . S
C663 H649 0.929 . S
C663 C662 1.399 . S
C663 C664 1.385 . S
C664 H650 0.931 . S
C664 C663 1.385 . S
C664 C665 1.389 . S
C665 C664 1.389 . S
C665 C666 1.387 . S
C666 H651 0.930 . S
C666 C661 1.390 . S
C666 C665 1.387 . S
H667 C679 0.930 . S
H668 C681 0.930 . S
H669 C682 0.930 . S
H670 C686 0.959 . S
H671 C686 0.959 . S
H672 C686 0.961 . S
H673 C687 0.960 . S
H674 C687 0.961 . S
H675 C687 0.959 . S
H676 C690 0.929 . S
H677 C691 0.931 . S
H678 C693 0.930 . S
C679 H667 0.930 . S
C679 C680 1.399 . S
C679 C684 1.399 . S
C680 C679 1.399 . S
C680 C681 1.376 . S
C681 H668 0.930 . S
C681 C680 1.376 . S
C681 C682 1.388 . S
C682 H669 0.930 . S
C682 C681 1.388 . S
C682 C683 1.390 . S
C683 C682 1.390 . S
C683 C684 1.394 . S
C683 C689 1.465 . S
C684 C679 1.399 . S
C684 C683 1.394 . S
C684 C685 1.516 . S
C685 C684 1.516 . S
C685 C686 1.502 . S
C685 C687 1.561 . S
C685 C688 1.526 . S
C686 H670 0.959 . S
C686 H671 0.959 . S
C686 H672 0.961 . S
C686 C685 1.502 . S
C687 H673 0.960 . S
C687 H674 0.961 . S
C687 H675 0.959 . S
C687 C685 1.561 . S
C688 C685 1.526 . S
C688 C689 1.396 . S
C688 C693 1.390 . S
C689 C683 1.465 . S
C689 C688 1.396 . S
C689 C690 1.399 . S
C690 H676 0.929 . S
C690 C689 1.399 . S
C690 C691 1.385 . S
C691 H677 0.931 . S
C691 C690 1.385 . S
C691 C692 1.389 . S
C692 C691 1.389 . S
C692 C693 1.387 . S
C693 H678 0.930 . S
C693 C688 1.390 . S
C693 C692 1.387 . S
H694 C706 0.930 . S
H695 C708 0.930 . S
H696 C709 0.930 . S
H697 C713 0.959 . S
H698 C713 0.959 . S
H699 C713 0.961 . S
H700 C714 0.960 . S
H701 C714 0.961 . S
H702 C714 0.959 . S
H703 C717 0.929 . S
H704 C718 0.931 . S
H705 C720 0.930 . S
C706 H694 0.930 . S
C706 C707 1.399 . S
C706 C711 1.399 . S
C707 C706 1.399 . S
C707 C708 1.376 . S
C708 H695 0.930 . S
C708 C707 1.376 . S
C708 C709 1.388 . S
C709 H696 0.930 . S
C709 C708 1.388 . S
C709 C710 1.390 . S
C710 C709 1.390 . S
C710 C711 1.394 . S
C710 C716 1.465 . S
C711 C706 1.399 . S
C711 C710 1.394 . S
C711 C712 1.516 . S
C712 C711 1.516 . S
C712 C713 1.502 . S
C712 C714 1.561 . S
C712 C715 1.526 . S
C713 H697 0.959 . S
C713 H698 0.959 . S
C713 H699 0.961 . S
C713 C712 1.502 . S
C714 H700 0.960 . S
C714 H701 0.961 . S
C714 H702 0.959 . S
C714 C712 1.561 . S
C715 C712 1.526 . S
C715 C716 1.396 . S
C715 C720 1.390 . S
C716 C710 1.465 . S
C716 C715 1.396 . S
C716 C717 1.399 . S
C717 H703 0.929 . S
C717 C716 1.399 . S
C717 C718 1.385 . S
C718 H704 0.931 . S
C718 C717 1.385 . S
C718 C719 1.389 . S
C719 C718 1.389 . S
C719 C720 1.387 . S
C720 H705 0.930 . S
C720 C715 1.390 . S
C720 C719 1.387 . S
H721 C733 0.930 . S
H722 C735 0.930 . S
H723 C736 0.930 . S
H724 C740 0.959 . S
H725 C740 0.959 . S
H726 C740 0.961 . S
H727 C741 0.960 . S
H728 C741 0.961 . S
H729 C741 0.959 . S
H730 C744 0.929 . S
H731 C745 0.931 . S
H732 C747 0.930 . S
C733 H721 0.930 . S
C733 C734 1.399 . S
C733 C738 1.399 . S
C734 C733 1.399 . S
C734 C735 1.376 . S
C735 H722 0.930 . S
C735 C734 1.376 . S
C735 C736 1.388 . S
C736 H723 0.930 . S
C736 C735 1.388 . S
C736 C737 1.390 . S
C737 C736 1.390 . S
C737 C738 1.394 . S
C737 C743 1.465 . S
C738 C733 1.399 . S
C738 C737 1.394 . S
C738 C739 1.516 . S
C739 C738 1.516 . S
C739 C740 1.502 . S
C739 C741 1.561 . S
C739 C742 1.526 . S
C740 H724 0.959 . S
C740 H725 0.959 . S
C740 H726 0.961 . S
C740 C739 1.502 . S
C741 H727 0.960 . S
C741 H728 0.961 . S
C741 H729 0.959 . S
C741 C739 1.561 . S
C742 C739 1.526 . S
C742 C743 1.396 . S
C742 C747 1.390 . S
C743 C737 1.465 . S
C743 C742 1.396 . S
C743 C744 1.399 . S
C744 H730 0.929 . S
C744 C743 1.399 . S
C744 C745 1.385 . S
C745 H731 0.931 . S
C745 C744 1.385 . S
C745 C746 1.389 . S
C746 C745 1.389 . S
C746 C747 1.387 . S
C747 H732 0.930 . S
C747 C742 1.390 . S
C747 C746 1.387 . S
H748 C760 0.930 . S
H749 C762 0.930 . S
H750 C763 0.930 . S
H751 C767 0.959 . S
H752 C767 0.959 . S
H753 C767 0.961 . S
H754 C768 0.960 . S
H755 C768 0.961 . S
H756 C768 0.959 . S
H757 C771 0.929 1_556 S
H758 C772 0.931 . S
H759 C774 0.930 . S
C760 H748 0.930 . S
C760 C761 1.399 . S
C760 C765 1.399 . S
C761 C760 1.399 . S
C761 C762 1.376 . S
C762 H749 0.930 . S
C762 C761 1.376 . S
C762 C763 1.388 . S
C763 H750 0.930 . S
C763 C762 1.388 . S
C763 C764 1.390 . S
C764 C763 1.390 . S
C764 C765 1.394 . S
C764 C770 1.436 1_556 S
C765 C760 1.399 . S
C765 C764 1.394 . S
C765 C766 1.516 1_556 S
C766 C765 1.516 1_554 S
C766 C767 1.502 . S
C766 C768 1.561 . S
C766 C769 1.526 . S
C767 H751 0.959 . S
C767 H752 0.959 . S
C767 H753 0.961 . S
C767 C766 1.502 . S
C768 H754 0.960 . S
C768 H755 0.961 . S
C768 H756 0.959 . S
C768 C766 1.561 . S
C769 C766 1.526 . S
C769 C770 1.422 . S
C769 C774 1.390 . S
C770 C764 1.436 1_554 S
C770 C769 1.422 . S
C770 C771 1.405 . S
C771 H757 0.929 1_554 S
C771 C770 1.405 . S
C771 C772 1.385 . S
C772 H758 0.931 . S
C772 C771 1.385 . S
C772 C773 1.389 . S
C773 C772 1.389 . S
C773 C774 1.387 . S
C774 H759 0.930 . S
C774 C769 1.390 . S
C774 C773 1.387 . S
H775 C787 0.930 . S
H776 C789 0.930 . S
H777 C790 0.930 . S
H778 C794 0.959 . S
H779 C794 0.959 . S
H780 C794 0.961 . S
H781 C795 0.960 . S
H782 C795 0.961 . S
H783 C795 0.959 . S
H784 C798 0.929 . S
H785 C799 0.931 . S
H786 C801 0.930 . S
C787 H775 0.930 . S
C787 C788 1.399 . S
C787 C792 1.399 . S
C788 C787 1.399 . S
C788 C789 1.376 . S
C789 H776 0.930 . S
C789 C788 1.376 . S
C789 C790 1.388 . S
C790 H777 0.930 . S
C790 C789 1.388 . S
C790 C791 1.390 . S
C791 C790 1.390 . S
C791 C792 1.394 . S
C791 C797 1.465 . S
C792 C787 1.399 . S
C792 C791 1.394 . S
C792 C793 1.516 . S
C793 C792 1.516 . S
C793 C794 1.502 . S
C793 C795 1.561 . S
C793 C796 1.526 . S
C794 H778 0.959 . S
C794 H779 0.959 . S
C794 H780 0.961 . S
C794 C793 1.502 . S
C795 H781 0.960 . S
C795 H782 0.961 . S
C795 H783 0.959 . S
C795 C793 1.561 . S
C796 C793 1.526 . S
C796 C797 1.396 . S
C796 C801 1.390 . S
C797 C791 1.465 . S
C797 C796 1.396 . S
C797 C798 1.399 . S
C798 H784 0.929 . S
C798 C797 1.399 . S
C798 C799 1.385 . S
C799 H785 0.931 . S
C799 C798 1.385 . S
C799 C800 1.389 . S
C800 C799 1.389 . S
C800 C801 1.387 . S
C801 H786 0.930 . S
C801 C796 1.390 . S
C801 C800 1.387 . S
H802 C814 0.930 . S
H803 C816 0.930 . S
H804 C817 0.930 . S
H805 C821 0.959 . S
H806 C821 0.959 . S
H807 C821 0.961 . S
H808 C822 0.960 . S
H809 C822 0.961 . S
H810 C822 0.959 . S
H811 C825 0.929 . S
H812 C826 0.931 . S
H813 C828 0.930 . S
C814 H802 0.930 . S
C814 C815 1.399 . S
C814 C819 1.399 . S
C815 C814 1.399 . S
C815 C816 1.376 . S
C816 H803 0.930 . S
C816 C815 1.376 . S
C816 C817 1.388 . S
C817 H804 0.930 . S
C817 C816 1.388 . S
C817 C818 1.390 . S
C818 C817 1.390 . S
C818 C819 1.394 . S
C818 C824 1.465 . S
C819 C814 1.399 . S
C819 C818 1.394 . S
C819 C820 1.516 . S
C820 C819 1.516 . S
C820 C821 1.502 . S
C820 C822 1.561 . S
C820 C823 1.526 . S
C821 H805 0.959 . S
C821 H806 0.959 . S
C821 H807 0.961 . S
C821 C820 1.502 . S
C822 H808 0.960 . S
C822 H809 0.961 . S
C822 H810 0.959 . S
C822 C820 1.561 . S
C823 C820 1.526 . S
C823 C824 1.396 . S
C823 C828 1.390 . S
C824 C818 1.465 . S
C824 C823 1.396 . S
C824 C825 1.399 . S
C825 H811 0.929 . S
C825 C824 1.399 . S
C825 C826 1.385 . S
C826 H812 0.931 . S
C826 C825 1.385 . S
C826 C827 1.389 . S
C827 C826 1.389 . S
C827 C828 1.387 . S
C828 H813 0.930 . S
C828 C823 1.390 . S
C828 C827 1.387 . S
H829 C841 0.930 . S
H830 C843 0.930 . S
H831 C844 0.930 . S
H832 C848 0.959 . S
H833 C848 0.959 . S
H834 C848 0.961 . S
H835 C849 0.960 . S
H836 C849 0.961 . S
H837 C849 0.959 . S
H838 C852 0.929 . S
H839 C853 0.931 . S
H840 C855 0.930 . S
C841 H829 0.930 . S
C841 C842 1.399 . S
C841 C846 1.399 . S
C842 C841 1.399 . S
C842 C843 1.376 . S
C843 H830 0.930 . S
C843 C842 1.376 . S
C843 C844 1.388 . S
C844 H831 0.930 . S
C844 C843 1.388 . S
C844 C845 1.390 . S
C845 C844 1.390 . S
C845 C846 1.394 . S
C845 C851 1.465 . S
C846 C841 1.399 . S
C846 C845 1.394 . S
C846 C847 1.516 . S
C847 C846 1.516 . S
C847 C848 1.502 . S
C847 C849 1.561 . S
C847 C850 1.526 . S
C848 H832 0.959 . S
C848 H833 0.959 . S
C848 H834 0.961 . S
C848 C847 1.502 . S
C849 H835 0.960 . S
C849 H836 0.961 . S
C849 H837 0.959 . S
C849 C847 1.561 . S
C850 C847 1.526 . S
C850 C851 1.396 . S
C850 C855 1.390 . S
C851 C845 1.465 . S
C851 C850 1.396 . S
C851 C852 1.399 . S
C852 H838 0.929 . S
C852 C851 1.399 . S
C852 C853 1.385 . S
C853 H839 0.931 . S
C853 C852 1.385 . S
C853 C854 1.389 . S
C854 C853 1.389 . S
C854 C855 1.387 . S
C855 H840 0.930 . S
C855 C850 1.390 . S
C855 C854 1.387 . S
H856 C868 0.930 . S
H857 C870 0.930 . S
H858 C871 0.930 . S
H859 C875 0.959 . S
H860 C875 0.959 1_565 S
H861 C875 0.961 . S
H862 C876 0.960 . S
H863 C876 0.961 . S
H864 C876 0.959 . S
H865 C879 0.929 . S
H866 C880 0.931 . S
H867 C882 0.930 . S
C868 H856 0.930 . S
C868 C869 1.399 . S
C868 C873 1.399 . S
C869 C868 1.399 . S
C869 C870 1.376 . S
C870 H857 0.930 . S
C870 C869 1.376 . S
C870 C871 1.388 . S
C871 H858 0.930 . S
C871 C870 1.388 . S
C871 C872 1.402 . S
C872 C871 1.402 . S
C872 C873 1.398 . S
C872 C878 1.450 1_545 S
C873 C868 1.399 . S
C873 C872 1.398 . S
C873 C874 1.516 1_545 S
C874 C873 1.516 1_565 S
C874 C875 1.502 1_565 S
C874 C876 1.561 . S
C874 C877 1.526 . S
C875 H859 0.959 . S
C875 H860 0.959 1_545 S
C875 H861 0.961 . S
C875 C874 1.502 1_545 S
C876 H862 0.960 . S
C876 H863 0.961 . S
C876 H864 0.959 . S
C876 C874 1.561 . S
C877 C874 1.526 . S
C877 C878 1.396 . S
C877 C882 1.390 . S
C878 C872 1.450 1_565 S
C878 C877 1.396 . S
C878 C879 1.399 . S
C879 H865 0.929 . S
C879 C878 1.399 . S
C879 C880 1.385 . S
C880 H866 0.931 . S
C880 C879 1.385 . S
C880 C881 1.389 . S
C881 C880 1.389 . S
C881 C882 1.387 . S
C882 H867 0.930 . S
C882 C877 1.390 . S
C882 C881 1.387 . S
H883 C895 0.930 . S
H884 C897 0.930 . S
H885 C898 0.930 . S
H886 C902 0.959 . S
H887 C902 0.959 . S
H888 C902 0.961 . S
H889 C903 0.960 . S
H890 C903 0.961 . S
H891 C903 0.959 . S
H892 C906 0.929 . S
H893 C907 0.931 . S
H894 C909 0.930 . S
C895 H883 0.930 . S
C895 C896 1.399 . S
C895 C900 1.399 . S
C896 C895 1.399 . S
C896 C897 1.376 . S
C897 H884 0.930 . S
C897 C896 1.376 . S
C897 C898 1.388 . S
C898 H885 0.930 . S
C898 C897 1.388 . S
C898 C899 1.390 . S
C899 C898 1.390 . S
C899 C900 1.394 . S
C899 C905 1.465 . S
C900 C895 1.399 . S
C900 C899 1.394 . S
C900 C901 1.516 . S
C901 C900 1.516 . S
C901 C902 1.502 . S
C901 C903 1.561 . S
C901 C904 1.526 . S
C902 H886 0.959 . S
C902 H887 0.959 . S
C902 H888 0.961 . S
C902 C901 1.502 . S
C903 H889 0.960 . S
C903 H890 0.961 . S
C903 H891 0.959 . S
C903 C901 1.561 . S
C904 C901 1.526 . S
C904 C905 1.396 . S
C904 C909 1.390 . S
C905 C899 1.465 . S
C905 C904 1.396 . S
C905 C906 1.399 . S
C906 H892 0.929 . S
C906 C905 1.399 . S
C906 C907 1.385 . S
C907 H893 0.931 . S
C907 C906 1.385 . S
C907 C908 1.389 . S
C908 C907 1.389 . S
C908 C909 1.387 . S
C909 H894 0.930 . S
C909 C904 1.390 . S
C909 C908 1.387 . S
H910 C922 0.930 . S
H911 C924 0.930 . S
H912 C925 0.930 1_554 S
H913 C929 0.959 1_554 S
H914 C929 0.959 1_554 S
H915 C929 0.961 . S
H916 C930 0.960 . S
H917 C930 0.961 . S
H918 C930 0.959 . S
H919 C933 0.929 . S
H920 C934 0.931 . S
H921 C936 0.930 . S
C922 H910 0.930 . S
C922 C923 1.399 . S
C922 C927 1.399 . S
C923 C922 1.399 . S
C923 C924 1.376 . S
C924 H911 0.930 . S
C924 C923 1.376 . S
C924 C925 1.388 . S
C925 H912 0.930 1_556 S
C925 C924 1.388 . S
C925 C926 1.390 1_556 S
C926 C925 1.390 1_554 S
C926 C927 1.394 1_554 S
C926 C932 1.465 1_545 S
C927 C922 1.399 . S
C927 C926 1.394 1_556 S
C927 C928 1.516 1_545 S
C928 C927 1.516 1_565 S
C928 C929 1.502 . S
C928 C930 1.561 . S
C928 C931 1.526 1_556 S
C929 H913 0.959 1_556 S
C929 H914 0.959 1_556 S
C929 H915 0.961 . S
C929 C928 1.502 . S
C930 H916 0.960 . S
C930 H917 0.961 . S
C930 H918 0.959 . S
C930 C928 1.561 . S
C931 C928 1.526 1_554 S
C931 C932 1.396 . S
C931 C936 1.390 . S
C932 C926 1.465 1_565 S
C932 C931 1.396 . S
C932 C933 1.399 1_565 S
C933 H919 0.929 . S
C933 C932 1.399 1_545 S
C933 C934 1.385 1_545 S
C934 H920 0.931 . S
C934 C933 1.385 1_565 S
C934 C935 1.389 . S
C935 C934 1.389 . S
C935 C936 1.387 . S
C936 H921 0.930 . S
C936 C931 1.390 . S
C936 C935 1.387 . S
H937 C949 0.930 . S
H938 C951 0.930 . S
H939 C952 0.930 . S
H940 C956 0.959 . S
H941 C956 0.959 . S
H942 C956 0.961 . S
H943 C957 0.960 . S
H944 C957 0.961 . S
H945 C957 0.959 . S
H946 C960 0.929 . S
H947 C961 0.931 . S
H948 C963 0.930 . S
C949 H937 0.930 . S
C949 C950 1.399 . S
C949 C954 1.399 . S
C950 C949 1.399 . S
C950 C951 1.376 . S
C951 H938 0.930 . S
C951 C950 1.376 . S
C951 C952 1.388 . S
C952 H939 0.930 . S
C952 C951 1.388 . S
C952 C953 1.390 . S
C953 C952 1.390 . S
C953 C954 1.394 . S
C953 C959 1.465 . S
C954 C949 1.399 . S
C954 C953 1.394 . S
C954 C955 1.516 . S
C955 C954 1.516 . S
C955 C956 1.502 . S
C955 C957 1.561 . S
C955 C958 1.526 . S
C956 H940 0.959 . S
C956 H941 0.959 . S
C956 H942 0.961 . S
C956 C955 1.502 . S
C957 H943 0.960 . S
C957 H944 0.961 . S
C957 H945 0.959 . S
C957 C955 1.561 . S
C958 C955 1.526 . S
C958 C959 1.396 . S
C958 C963 1.390 . S
C959 C953 1.465 . S
C959 C958 1.396 . S
C959 C960 1.399 . S
C960 H946 0.929 . S
C960 C959 1.399 . S
C960 C961 1.385 . S
C961 H947 0.931 . S
C961 C960 1.385 . S
C961 C962 1.389 . S
C962 C961 1.389 . S
C962 C963 1.387 . S
C963 H948 0.930 . S
C963 C958 1.390 . S
C963 C962 1.387 . S
H964 C976 0.930 . S
H965 C978 0.930 . S
H966 C979 0.930 . S
H967 C983 0.959 . S
H968 C983 0.959 . S
H969 C983 0.961 . S
H970 C984 0.960 . S
H971 C984 0.961 . S
H972 C984 0.959 . S
H973 C987 0.929 . S
H974 C988 0.931 . S
H975 C990 0.930 . S
C976 H964 0.930 . S
C976 C977 1.399 . S
C976 C981 1.399 . S
C977 C976 1.399 . S
C977 C978 1.376 . S
C978 H965 0.930 . S
C978 C977 1.376 . S
C978 C979 1.388 1_545 S
C979 H966 0.930 . S
C979 C978 1.388 1_565 S
C979 C980 1.383 1_565 S
C980 C979 1.383 1_545 S
C980 C981 1.419 . S
C980 C986 1.450 1_545 S
C981 C976 1.399 . S
C981 C980 1.419 . S
C981 C982 1.516 . S
C982 C981 1.516 . S
C982 C983 1.502 . S
C982 C984 1.561 . S
C982 C985 1.524 1_545 S
C983 H967 0.959 . S
C983 H968 0.959 . S
C983 H969 0.961 . S
C983 C982 1.502 . S
C984 H970 0.960 . S
C984 H971 0.961 . S
C984 H972 0.959 . S
C984 C982 1.561 . S
C985 C982 1.524 1_565 S
C985 C986 1.397 . S
C985 C990 1.390 . S
C986 C980 1.450 1_565 S
C986 C985 1.397 . S
C986 C987 1.399 . S
C987 H973 0.929 . S
C987 C986 1.399 . S
C987 C988 1.385 . S
C988 H974 0.931 . S
C988 C987 1.385 . S
C988 C989 1.389 . S
C989 C988 1.389 . S
C989 C990 1.387 . S
C990 H975 0.930 . S
C990 C985 1.390 . S
C990 C989 1.387 . S
H991 C1003 0.930 . S
H992 C1005 0.930 . S
H993 C1006 0.930 . S
H994 C1010 0.959 . S
H995 C1010 0.959 . S
H996 C1010 0.961 . S
H997 C1011 0.960 . S
H998 C1011 0.961 . S
H999 C1011 0.959 . S
H1000 C1014 0.929 . S
H1001 C1015 0.931 . S
H1002 C1017 0.930 . S
C1003 H991 0.930 . S
C1003 C1004 1.399 . S
C1003 C1008 1.399 . S
C1004 C1003 1.399 . S
C1004 C1005 1.376 . S
C1005 H992 0.930 . S
C1005 C1004 1.376 . S
C1005 C1006 1.388 . S
C1006 H993 0.930 . S
C1006 C1005 1.388 . S
C1006 C1007 1.390 . S
C1007 C1006 1.390 . S
C1007 C1008 1.394 . S
C1007 C1013 1.465 . S
C1008 C1003 1.399 . S
C1008 C1007 1.394 . S
C1008 C1009 1.516 . S
C1009 C1008 1.516 . S
C1009 C1010 1.502 . S
C1009 C1011 1.561 . S
C1009 C1012 1.526 . S
C1010 H994 0.959 . S
C1010 H995 0.959 . S
C1010 H996 0.961 . S
C1010 C1009 1.502 . S
C1011 H997 0.960 . S
C1011 H998 0.961 . S
C1011 H999 0.959 . S
C1011 C1009 1.561 . S
C1012 C1009 1.526 . S
C1012 C1013 1.396 . S
C1012 C1017 1.390 . S
C1013 C1007 1.465 . S
C1013 C1012 1.396 . S
C1013 C1014 1.399 . S
C1014 H1000 0.929 . S
C1014 C1013 1.399 . S
C1014 C1015 1.385 . S
C1015 H1001 0.931 . S
C1015 C1014 1.385 . S
C1015 C1016 1.389 . S
C1016 C1015 1.389 . S
C1016 C1017 1.387 . S
C1017 H1002 0.930 . S
C1017 C1012 1.390 . S
C1017 C1016 1.387 . S
H1018 C1030 0.930 . S
H1019 C1032 0.930 . S
H1020 C1033 0.930 . S
H1021 C1037 0.959 . S
H1022 C1037 0.959 1_556 S
H1023 C1037 0.961 . S
H1024 C1038 0.960 . S
H1025 C1038 0.961 . S
H1026 C1038 0.959 . S
H1027 C1041 0.929 . S
H1028 C1042 0.931 . S
H1029 C1044 0.930 . S
C1030 H1018 0.930 . S
C1030 C1031 1.399 . S
C1030 C1035 1.399 . S
C1031 C1030 1.399 . S
C1031 C1032 1.376 . S
C1032 H1019 0.930 . S
C1032 C1031 1.376 . S
C1032 C1033 1.388 . S
C1033 H1020 0.930 . S
C1033 C1032 1.388 . S
C1033 C1034 1.390 . S
C1034 C1033 1.390 . S
C1034 C1035 1.394 . S
C1034 C1040 1.465 1_564 S
C1035 C1030 1.399 . S
C1035 C1034 1.394 . S
C1035 C1036 1.516 1_564 S
C1036 C1035 1.516 1_546 S
C1036 C1037 1.502 1_556 S
C1036 C1038 1.561 1_545 S
C1036 C1039 1.526 . S
C1037 H1021 0.959 . S
C1037 H1022 0.959 1_554 S
C1037 H1023 0.961 . S
C1037 C1036 1.502 1_554 S
C1038 H1024 0.960 . S
C1038 H1025 0.961 . S
C1038 H1026 0.959 . S
C1038 C1036 1.561 1_565 S
C1039 C1036 1.526 . S
C1039 C1040 1.396 . S
C1039 C1044 1.390 . S
C1040 C1034 1.465 1_546 S
C1040 C1039 1.396 . S
C1040 C1041 1.399 . S
C1041 H1027 0.929 . S
C1041 C1040 1.399 . S
C1041 C1042 1.385 . S
C1042 H1028 0.931 . S
C1042 C1041 1.385 . S
C1042 C1043 1.389 . S
C1043 C1042 1.389 . S
C1043 C1044 1.387 . S
C1044 H1029 0.930 . S
C1044 C1039 1.390 . S
C1044 C1043 1.387 . S
H1045 C1057 0.930 . S
H1046 C1059 0.930 . S
H1047 C1060 0.930 . S
H1048 C1064 0.959 . S
H1049 C1064 0.959 . S
H1050 C1064 0.961 . S
H1051 C1065 0.960 . S
H1052 C1065 0.961 . S
H1053 C1065 0.959 . S
H1054 C1068 0.929 . S
H1055 C1069 0.931 . S
H1056 C1071 0.930 . S
C1057 H1045 0.930 . S
C1057 C1058 1.399 . S
C1057 C1062 1.399 . S
C1058 C1057 1.399 . S
C1058 C1059 1.376 . S
C1059 H1046 0.930 . S
C1059 C1058 1.376 . S
C1059 C1060 1.388 . S
C1060 H1047 0.930 . S
C1060 C1059 1.388 . S
C1060 C1061 1.390 . S
C1061 C1060 1.390 . S
C1061 C1062 1.394 . S
C1061 C1067 1.465 . S
C1062 C1057 1.399 . S
C1062 C1061 1.394 . S
C1062 C1063 1.516 . S
C1063 C1062 1.516 . S
C1063 C1064 1.502 . S
C1063 C1065 1.561 . S
C1063 C1066 1.526 . S
C1064 H1048 0.959 . S
C1064 H1049 0.959 . S
C1064 H1050 0.961 . S
C1064 C1063 1.502 . S
C1065 H1051 0.960 . S
C1065 H1052 0.961 . S
C1065 H1053 0.959 . S
C1065 C1063 1.561 . S
C1066 C1063 1.526 . S
C1066 C1067 1.396 . S
C1066 C1071 1.390 . S
C1067 C1061 1.465 . S
C1067 C1066 1.396 . S
C1067 C1068 1.399 . S
C1068 H1054 0.929 . S
C1068 C1067 1.399 . S
C1068 C1069 1.385 . S
C1069 H1055 0.931 . S
C1069 C1068 1.385 . S
C1069 C1070 1.389 . S
C1070 C1069 1.389 . S
C1070 C1071 1.387 . S
C1071 H1056 0.930 . S
C1071 C1066 1.390 . S
C1071 C1070 1.387 . S
C221 C148 1.381 . S
C233 C8 1.406 . S
C248 C200 1.300 . S
C260 C18 1.313 . S
C275 C31 1.332 . S
C287 C125 1.324 . S
C302 C174 1.371 . S
C314 C47 1.371 . S
C329 C60 1.449 . S
C341 C177 1.448 . S
C356 C70 1.305 . S
C368 C151 1.363 . S
C383 C83 1.310 . S
C395 C203 1.318 . S
C410 C96 1.333 . S
C422 C122 1.318 . S
C437 C44 1.443 . S
C449 C112 1.399 . S
C464 C138 1.431 . S
C476 C21 1.418 . S
C491 C164 1.431 . S
C503 C73 1.426 . S
C518 C187 1.429 . S
C530 C99 1.390 . S
C545 C57 1.371 . S
C557 C109 1.367 . S
C572 C135 1.324 . S
C584 C86 1.297 . S
C599 C190 1.354 . S
C611 C34 1.350 . S
C626 C5 1.391 . S
C638 C161 1.392 . S
C653 C10 1.171 . S
C665 C62 1.128 . S
C680 C13 1.169 . S
C692 C65 1.121 . S
C707 C26 1.161 . S
C719 C78 1.125 . S
C734 C91 1.137 . S
C746 C49 1.141 . S
C761 C114 1.156 . S
C773 C166 1.109 . S
C788 C169 1.053 . S
C800 C117 1.098 . S
C815 C140 1.264 . S
C827 C182 1.257 . S
C842 C195 1.110 . S
C854 C153 1.129 . S
C869 C101 1.115 . S
C881 C23 1.106 . S
C896 C36 1.223 . S
C908 C52 1.208 . S
C923 C39 1.210 . S
C935 C75 1.202 . S
C950 C0 1.067 . S
C962 C88 1.064 . S
C977 C127 1.107 . S
C989 C205 1.070 . S
C1004 C156 1.149 . S
C1016 C130 1.183 . S
C1031 C143 1.188 . S
C1043 C179 1.166 . S
C1058 C192 1.131 . S
C1070 C104 1.137 . S
