# Generated by pormake.
# Topology wjo, (5)-cn, num edge types: 1
# Building blocks:
#     Node 0, Type 0, BuildingBlock: XOMCOT_clean_sbu_0, # of connection points: 5
#     Node 1, Type 0, BuildingBlock: XOMCOT_clean_sbu_0, # of connection points: 5
#     Node 2, Type 0, BuildingBlock: XOMCOT_clean_sbu_0, # of connection points: 5
#     Node 3, Type 0, BuildingBlock: XOMCOT_clean_sbu_0, # of connection points: 5
#     Node 4, Type 0, BuildingBlock: XOMCOT_clean_sbu_0, # of connection points: 5
#     Node 5, Type 0, BuildingBlock: XOMCOT_clean_sbu_0, # of connection points: 5
#     Node 6, Type 0, BuildingBlock: XOMCOT_clean_sbu_0, # of connection points: 5
#     Node 7, Type 0, BuildingBlock: XOMCOT_clean_sbu_0, # of connection points: 5
#     Node 8, Type 0, BuildingBlock: XOMCOT_clean_sbu_0, # of connection points: 5
#     Node 9, Type 0, BuildingBlock: XOMCOT_clean_sbu_0, # of connection points: 5
#     Node 10, Type 0, BuildingBlock: XOMCOT_clean_sbu_0, # of connection points: 5
#     Node 11, Type 0, BuildingBlock: XOMCOT_clean_sbu_0, # of connection points: 5
#     Edge 12, Type (0, 0), BuildingBlock: OJICUG_clean_linker_0, # of connection points: 2
#     Edge 13, Type (0, 0), BuildingBlock: OJICUG_clean_linker_0, # of connection points: 2
#     Edge 14, Type (0, 0), BuildingBlock: OJICUG_clean_linker_0, # of connection points: 2
#     Edge 15, Type (0, 0), BuildingBlock: OJICUG_clean_linker_0, # of connection points: 2
#     Edge 16, Type (0, 0), BuildingBlock: OJICUG_clean_linker_0, # of connection points: 2
#     Edge 17, Type (0, 0), BuildingBlock: OJICUG_clean_linker_0, # of connection points: 2
#     Edge 18, Type (0, 0), BuildingBlock: OJICUG_clean_linker_0, # of connection points: 2
#     Edge 19, Type (0, 0), BuildingBlock: OJICUG_clean_linker_0, # of connection points: 2
#     Edge 20, Type (0, 0), BuildingBlock: OJICUG_clean_linker_0, # of connection points: 2
#     Edge 21, Type (0, 0), BuildingBlock: OJICUG_clean_linker_0, # of connection points: 2
#     Edge 22, Type (0, 0), BuildingBlock: OJICUG_clean_linker_0, # of connection points: 2
#     Edge 23, Type (0, 0), BuildingBlock: OJICUG_clean_linker_0, # of connection points: 2
#     Edge 24, Type (0, 0), BuildingBlock: OJICUG_clean_linker_0, # of connection points: 2
#     Edge 25, Type (0, 0), BuildingBlock: OJICUG_clean_linker_0, # of connection points: 2
#     Edge 26, Type (0, 0), BuildingBlock: OJICUG_clean_linker_0, # of connection points: 2
#     Edge 27, Type (0, 0), BuildingBlock: OJICUG_clean_linker_0, # of connection points: 2
#     Edge 28, Type (0, 0), BuildingBlock: OJICUG_clean_linker_0, # of connection points: 2
#     Edge 29, Type (0, 0), BuildingBlock: OJICUG_clean_linker_0, # of connection points: 2
#     Edge 30, Type (0, 0), BuildingBlock: OJICUG_clean_linker_0, # of connection points: 2
#     Edge 31, Type (0, 0), BuildingBlock: OJICUG_clean_linker_0, # of connection points: 2
#     Edge 32, Type (0, 0), BuildingBlock: OJICUG_clean_linker_0, # of connection points: 2
#     Edge 33, Type (0, 0), BuildingBlock: OJICUG_clean_linker_0, # of connection points: 2
#     Edge 34, Type (0, 0), BuildingBlock: OJICUG_clean_linker_0, # of connection points: 2
#     Edge 35, Type (0, 0), BuildingBlock: OJICUG_clean_linker_0, # of connection points: 2
#     Edge 36, Type (0, 0), BuildingBlock: OJICUG_clean_linker_0, # of connection points: 2
#     Edge 37, Type (0, 0), BuildingBlock: OJICUG_clean_linker_0, # of connection points: 2
#     Edge 38, Type (0, 0), BuildingBlock: OJICUG_clean_linker_0, # of connection points: 2
#     Edge 39, Type (0, 0), BuildingBlock: OJICUG_clean_linker_0, # of connection points: 2
#     Edge 40, Type (0, 0), BuildingBlock: OJICUG_clean_linker_0, # of connection points: 2
#     Edge 41, Type (0, 0), BuildingBlock: OJICUG_clean_linker_0, # of connection points: 2
# Relax obj value: 0.367
# Max RMSD: 0.211
# Mean RMSD: 0.211
data_MOF--net-wjo--node1-XOMCOT_clean_sbu_0--edge1-OJICUG_clean_linker_0
_symmetry_space_group_name_H-M    P1
_symmetry_Int_Tables_number       1
_symmetry_cell_setting            triclinic
loop_
_symmetry_equiv_pos_as_xyz
'x, y, z'
_cell_length_a     35.539127
_cell_length_b     35.469169
_cell_length_c     22.789746
_cell_angle_alpha  90.239713
_cell_angle_beta   89.711266
_cell_angle_gamma 120.04613
loop_
_atom_site_label
_atom_site_type_symbol
_atom_site_fract_x
_atom_site_fract_y
_atom_site_fract_z
_atom_type_partial_charge
Co0 Co 0.28089 0.36833 0.9898 0.0
C1 C 0.30422 0.31357 0.91626 0.0
C2 C 0.25411 0.32088 0.8757 0.0
C3 C 0.26553 0.29745 0.83845 0.0
N4 N 0.2783 0.33098 0.92478 0.0
N5 N 0.29731 0.29297 0.86383 0.0
H6 H 0.32891 0.31738 0.94694 0.0
H7 H 0.2304 0.33046 0.8664 0.0
C8 C 0.19458 0.36207 0.94441 0.0
O9 O 0.20957 0.38708 0.89786 0.0
N10 N 0.28472 0.40544 0.05427 0.0
C11 C 0.32086 0.44207 0.07137 0.0
C12 C 0.31224 0.45616 0.1232 0.0
C13 C 0.25497 0.39706 0.0964 0.0
N14 N 0.27093 0.42769 0.13889 0.0
C15 C 0.34702 0.42768 0.91503 0.0
C16 C 0.33066 0.49529 0.93406 0.0
C17 C 0.37245 0.50473 0.91727 0.0
C18 C 0.37952 0.47027 0.9037 0.0
C19 C 0.29873 0.45188 0.94469 0.0
N20 N 0.30849 0.41925 0.93949 0.0
H21 H 0.35518 0.40226 0.91166 0.0
H22 H 0.26879 0.44561 0.96557 0.0
H23 H 0.35182 0.45659 0.04875 0.0
H24 H 0.22296 0.36846 0.09695 0.0
O25 O 0.33245 0.37034 0.02181 0.0
O26 O 0.26416 0.32154 0.0439 0.0
O27 O 0.21945 0.35458 0.97628 0.0
C28 C 0.30524 0.33788 0.0547 0.0
H29 H 0.25134 0.28482 0.79592 0.0
H30 H 0.3352 0.4839 0.14886 0.0
H31 H 0.3242 0.52124 0.94512 0.0
H32 H 0.4114 0.47646 0.89018 0.0
Co33 Co 0.92885 0.2769 0.15411 0.0
C34 C 1.00514 0.29023 0.08243 0.0
C35 C 0.94651 0.26171 0.03208 0.0
C36 C 0.98084 0.27175 0.99465 0.0
N37 N 0.96161 0.2734 0.08729 0.0
N38 N 1.01768 0.28974 0.02637 0.0
H39 H 0.02769 0.30495 0.11832 0.0
H40 H 0.91331 0.24957 0.0189 0.0
C41 C 0.84926 0.18899 0.10887 0.0
O42 O 0.83916 0.2023 0.06093 0.0
N43 N 0.89707 0.28157 0.21991 0.0
C44 C 0.8965 0.31782 0.23656 0.0
C45 C 0.87424 0.30968 0.28868 0.0
C46 C 0.87622 0.25227 0.26261 0.0
N47 N 0.86176 0.26858 0.30498 0.0
C48 C 0.93487 0.34257 0.07907 0.0
C49 C 0.85033 0.32497 0.09484 0.0
C50 C 0.88158 0.36573 0.07267 0.0
C51 C 0.92368 0.37329 0.06194 0.0
C52 C 0.8627 0.2944 0.11002 0.0
N53 N 0.90516 0.30468 0.10527 0.0
H54 H 0.9686 0.35111 0.07655 0.0
H55 H 0.83937 0.26478 0.13195 0.0
H56 H 0.91234 0.34846 0.21322 0.0
H57 H 0.87285 0.22028 0.2635 0.0
O58 O 0.97954 0.32843 0.18481 0.0
O59 O 0.95931 0.25991 0.20672 0.0
O60 O 0.88068 0.21541 0.14121 0.0
C61 C 0.98459 0.30104 0.21741 0.0
H62 H 0.97897 0.26721 0.94753 0.0
H63 H 0.86932 0.33278 0.31396 0.0
H64 H 0.81743 0.31783 0.10357 0.0
H65 H 0.949 0.4044 0.04549 0.0
Co66 Co 0.67772 0.9208 0.31548 0.0
C67 C 0.73938 0.99816 0.24523 0.0
C68 C 0.71707 0.939 0.19653 0.0
C69 C 0.7407 0.97374 0.15932 0.0
N70 N 0.71586 0.95425 0.25048 0.0
N71 N 0.7546 1.01087 0.19008 0.0
H72 H 0.74312 0.0207 0.27984 0.0
H73 H 0.69964 0.90514 0.18382 0.0
C74 C 0.68188 0.83938 0.27222 0.0
O75 O 0.65429 0.82801 0.22857 0.0
N76 N 0.64011 0.88861 0.38044 0.0
C77 C 0.60525 0.89108 0.39873 0.0
C78 C 0.5896 0.86749 0.44947 0.0
C79 C 0.64585 0.86441 0.42092 0.0
N80 N 0.61519 0.85085 0.46347 0.0
C81 C 0.62222 0.92621 0.23134 0.0
C82 C 0.55008 0.84817 0.26236 0.0
C83 C 0.54401 0.88073 0.23656 0.0
C84 C 0.5811 0.91796 0.21517 0.0
C85 C 0.59229 0.85652 0.274 0.0
N86 N 0.62728 0.89697 0.26405 0.0
H87 H 0.64934 0.95835 0.2231 0.0
H88 H 0.5961 0.83283 0.29907 0.0
H89 H 0.59283 0.90978 0.37736 0.0
H90 H 0.67249 0.8579 0.42005 0.0
O91 O 0.67554 0.9711 0.34468 0.0
O92 O 0.7237 0.95159 0.3702 0.0
O93 O 0.69147 0.87295 0.30319 0.0
C94 C 0.70724 0.9766 0.37904 0.0
H95 H 0.74628 0.97184 0.11294 0.0
H96 H 0.56276 0.86461 0.47556 0.0
H97 H 0.52297 0.81825 0.27871 0.0
H98 H 0.57874 0.94287 0.19098 0.0
Co99 Co 0.76569 0.66107 0.48297 0.0
C100 C 0.75462 0.72306 0.40716 0.0
C101 C 0.77596 0.68591 0.35735 0.0
C102 C 0.76629 0.70985 0.31898 0.0
N103 N 0.76843 0.69393 0.41287 0.0
N104 N 0.75282 0.73314 0.35046 0.0
H105 H 0.74352 0.73488 0.44324 0.0
H106 H 0.78488 0.66203 0.34494 0.0
C107 C 0.85233 0.66744 0.43823 0.0
O108 O 0.83781 0.64343 0.39069 0.0
N109 N 0.76172 0.62807 0.55221 0.0
C110 C 0.72541 0.59284 0.57213 0.0
C111 C 0.73474 0.57999 0.62419 0.0
C112 C 0.79242 0.6368 0.59277 0.0
N113 N 0.77682 0.60769 0.63709 0.0
C114 C 0.69897 0.59612 0.41383 0.0
C115 C 0.71891 0.53159 0.43712 0.0
C116 C 0.6772 0.51987 0.41728 0.0
C117 C 0.66813 0.55274 0.4027 0.0
C118 C 0.74924 0.57568 0.44701 0.0
N119 N 0.73795 0.60691 0.43869 0.0
H120 H 0.68974 0.62067 0.40834 0.0
H121 H 0.77953 0.58396 0.46829 0.0
H122 H 0.69413 0.57797 0.55064 0.0
H123 H 0.82515 0.66411 0.59031 0.0
O124 O 0.71415 0.66115 0.51078 0.0
O125 O 0.78226 0.7111 0.53168 0.0
O126 O 0.82702 0.67388 0.47117 0.0
C127 C 0.74103 0.69532 0.54131 0.0
H128 H 0.76787 0.70921 0.27156 0.0
H129 H 0.71194 0.55325 0.6514 0.0
H130 H 0.72671 0.50684 0.44946 0.0
H131 H 0.63607 0.54471 0.3877 0.0
Co132 Co 0.11976 0.76246 0.64665 0.0
C133 C 0.0422 0.74317 0.57464 0.0
C134 C 0.10106 0.77232 0.52403 0.0
C135 C 0.0665 0.76023 0.48646 0.0
N136 N 0.08586 0.76155 0.57937 0.0
N137 N 0.02955 0.74192 0.5184 0.0
H138 H 1.01976 0.729 0.61095 0.0
H139 H 0.13482 0.78622 0.51149 0.0
C140 C 0.20849 0.84349 0.63854 0.0
O141 O 0.2265 0.8242 0.66629 0.0
N142 N 0.15228 0.76143 0.71409 0.0
C143 C 0.15441 0.72647 0.73279 0.0
C144 C 0.17165 0.73465 0.78836 0.0
C145 C 0.1674 0.79004 0.75919 0.0
N146 N 0.17991 0.7746 0.80443 0.0
C147 C 0.10637 0.68511 0.59335 0.0
C148 C 0.19245 0.70721 0.58213 0.0
C149 C 0.16025 0.66316 0.58313 0.0
C150 C 0.11667 0.65242 0.58495 0.0
C151 C 0.18057 0.73909 0.59099 0.0
N152 N 0.13821 0.72731 0.60199 0.0
H153 H 0.07259 0.6758 0.59851 0.0
H154 H 0.20573 0.77252 0.59172 0.0
H155 H 0.14212 0.69611 0.70915 0.0
H156 H 0.16787 0.8208 0.75967 0.0
O157 O 0.06938 0.71539 0.68364 0.0
O158 O 0.09169 0.7854 0.69689 0.0
O159 O 0.16917 0.82148 0.62024 0.0
C160 C 0.06553 0.74516 0.71207 0.0
H161 H 0.06836 0.76413 0.43926 0.0
H162 H 0.17708 0.71277 0.81534 0.0
H163 H 0.22648 0.71674 0.57861 0.0
H164 H 0.09079 0.61872 0.58375 0.0
Co165 Co 0.37154 0.10873 0.8297 0.0
C166 C 0.32258 0.03886 0.74336 0.0
C167 C 0.30357 0.08705 0.73757 0.0
C168 C 0.2779 0.05308 0.69997 0.0
N169 N 0.33266 0.07872 0.76374 0.0
N170 N 0.2903 0.02293 0.70345 0.0
H171 H 0.33669 0.02027 0.76018 0.0
H172 H 0.29899 0.11426 0.74743 0.0
C173 C 0.36898 0.18852 0.7808 0.0
O174 O 0.37699 0.18323 0.72597 0.0
N175 N 0.40857 0.13611 0.89643 0.0
C176 C 0.43997 0.12865 0.91629 0.0
C177 C 0.45391 0.14873 0.96995 0.0
C178 C 0.40356 0.16021 0.93801 0.0
N179 N 0.43105 0.16858 0.98296 0.0
C180 C 0.43006 0.103 0.74699 0.0
C181 C 0.50083 0.18176 0.77906 0.0
C182 C 0.5082 0.15044 0.75158 0.0
C183 C 0.47169 0.11264 0.73034 0.0
C184 C 0.45807 0.17196 0.79138 0.0
N185 N 0.42362 0.13128 0.78035 0.0
H186 H 0.40398 0.07099 0.73729 0.0
H187 H 0.45332 0.19504 0.81685 0.0
H188 H 0.45079 0.10869 0.89421 0.0
H189 H 0.37854 0.16905 0.93728 0.0
O190 O 0.36699 0.05477 0.85593 0.0
O191 O 0.32316 0.07967 0.88227 0.0
O192 O 0.36646 0.16224 0.82054 0.0
C193 C 0.33524 0.05099 0.8892 0.0
H194 H 0.25125 0.05019 0.67382 0.0
H195 H 0.47828 0.14823 -0.00228 0.0
H196 H 0.52747 0.212 0.79546 0.0
H197 H 0.47496 0.08852 0.70513 0.0
Co198 Co 0.66534 0.76321 0.8319 0.0
C199 C 0.72045 0.73725 0.89847 0.0
C200 C 0.72093 0.79228 0.93838 0.0
C201 C 0.74574 0.78071 0.97213 0.0
N202 N 0.70511 0.76503 0.89197 0.0
N203 N 0.74503 0.74585 0.94715 0.0
H204 H 0.71348 0.71081 0.86857 0.0
H205 H 0.71425 0.81819 0.94818 0.0
C206 C 0.65806 0.84444 0.84264 0.0
O207 O 0.61952 0.82447 0.81814 0.0
N208 N 0.62603 0.76 0.77095 0.0
C209 C 0.58577 0.72665 0.75951 0.0
C210 C 0.57303 0.73314 0.70527 0.0
C211 C 0.63765 0.78544 0.72284 0.0
N212 N 0.6059 0.76998 0.68229 0.0
C213 C 0.60925 0.68897 0.89766 0.0
C214 C 0.54403 0.70833 0.91731 0.0
C215 C 0.5348 0.66522 0.92391 0.0
C216 C 0.56881 0.6564 0.9171 0.0
C217 C 0.58568 0.74046 0.89907 0.0
N218 N 0.61656 0.72967 0.88498 0.0
H219 H 0.63351 0.68013 0.88775 0.0
H220 H 0.59157 0.77284 0.89303 0.0
H221 H 0.56784 0.6982 0.78678 0.0
H222 H 0.66915 0.81437 0.71735 0.0
O223 O 0.66525 0.71488 0.79259 0.0
O224 O 0.7115 0.78454 0.77429 0.0
O225 O 0.67651 0.82292 0.85843 0.0
C226 C 0.69654 0.7439 0.76025 0.0
H227 H 0.76189 0.79592 0.01283 0.0
H228 H 0.54291 0.71127 0.68318 0.0
H229 H 0.5189 0.71672 0.9238 0.0
H230 H 0.56337 0.62366 0.92184 0.0
Co231 Co 0.92315 0.66595 0.00189 0.0
C232 C 0.99815 0.71472 0.08102 0.0
C233 C 0.94755 0.72885 0.10105 0.0
C234 C 0.98216 0.75287 0.13828 0.0
N235 N 0.95763 0.70481 0.06515 0.0
N236 N 1.01376 0.74359 0.12576 0.0
H237 H 1.01673 0.7023 0.05902 0.0
H238 H 0.91751 0.72954 0.10016 0.0
C239 C 0.83198 0.65178 0.008 0.0
O240 O 0.81604 0.61285 0.98463 0.0
N241 N 0.89058 0.6276 0.93771 0.0
C242 C 0.88474 0.58775 0.92552 0.0
C243 C 0.8649 0.57448 0.87174 0.0
C244 C 0.87565 0.63859 0.89029 0.0
N245 N 0.85935 0.60658 0.84976 0.0
C246 C 0.94066 0.60547 0.05764 0.0
C247 C 0.85565 0.54203 0.07929 0.0
C248 C 0.88777 0.53019 0.07552 0.0
C249 C 0.93103 0.56307 0.06892 0.0
C250 C 0.86692 0.58544 0.06809 0.0
N251 N 0.90842 0.61548 0.05171 0.0
H252 H 0.97387 0.62897 0.04734 0.0
H253 H 0.84171 0.59364 0.06928 0.0
H254 H 0.8955 0.57001 0.95242 0.0
H255 H 0.87645 0.66935 0.8859 0.0
O256 O 0.9743 0.67089 0.96502 0.0
O257 O 0.94781 0.71438 0.94725 0.0
O258 O 0.8714 0.67242 0.02629 0.0
C259 C 0.97589 0.70233 0.93411 0.0
H260 H 0.9839 0.77533 0.17189 0.0
H261 H 0.85656 0.54422 0.84968 0.0
H262 H 0.82194 0.51761 0.08654 0.0
H263 H 0.95698 0.55544 0.06779 0.0
Co264 Co 0.27463 0.91159 0.17848 0.0
C265 C 0.29312 0.99028 0.24947 0.0
C266 C 0.26135 0.93159 0.30021 0.0
C267 C 0.27298 0.96663 0.33725 0.0
N268 N 0.27434 0.94636 0.24514 0.0
N269 N 0.29298 1.00349 0.30528 0.0
H270 H 0.3088 1.01247 0.21337 0.0
H271 H 0.24647 0.8978 0.31315 0.0
C272 C 0.1927 0.82254 0.18912 0.0
O273 O 0.21128 0.80337 0.16235 0.0
N274 N 0.27562 0.87867 0.11071 0.0
C275 C 0.31182 0.88135 0.08699 0.0
C276 C 0.30272 0.86456 0.03102 0.0
C277 C 0.24536 0.86138 0.068 0.0
N278 N 0.26096 0.85191 0.01965 0.0
C279 C 0.34439 0.92447 0.25291 0.0
C280 C 0.34131 0.84688 0.2277 0.0
C281 C 0.37968 0.881 0.2515 0.0
C282 C 0.37909 0.91878 0.26877 0.0
C283 C 0.30624 0.85308 0.21551 0.0
N284 N 0.30905 0.89261 0.22403 0.0
H285 H 0.34826 0.95635 0.25922 0.0
H286 H 0.27995 0.82765 0.19196 0.0
H287 H 0.3435 0.89728 0.10743 0.0
H288 H 0.21349 0.85823 0.07089 0.0
O289 O 0.32275 0.9616 0.14243 0.0
O290 O 0.25298 0.93969 0.12772 0.0
O291 O 0.21509 0.86261 0.20483 0.0
C292 C 0.29344 0.96521 0.11278 0.0
H293 H 0.26774 0.96515 0.38422 0.0
H294 H 0.32527 0.86303 0.00032 0.0
H295 H 0.33925 0.8168 0.2134 0.0
H296 H 0.40653 0.9455 0.29048 0.0
Co297 Co 0.37866 0.26972 0.34126 0.0
C298 C 0.31759 0.28594 0.41289 0.0
C299 C 0.34503 0.25476 0.46313 0.0
C300 C 0.32155 0.26609 0.50044 0.0
N301 N 0.34279 0.26735 0.40807 0.0
N302 N 0.30438 0.28576 0.46876 0.0
H303 H 0.311 0.30167 0.37711 0.0
H304 H 0.3646 0.24085 0.47623 0.0
C305 C 0.37082 0.18206 0.3858 0.0
O306 O 0.3962 0.19655 0.43193 0.0
N307 N 0.41456 0.27336 0.27531 0.0
C308 C 0.44847 0.31041 0.25429 0.0
C309 C 0.46161 0.30132 0.20195 0.0
C310 C 0.40755 0.24223 0.23585 0.0
N311 N 0.43594 0.25855 0.19088 0.0
C312 C 0.43915 0.33493 0.41699 0.0
C313 C 0.50583 0.31746 0.39756 0.0
C314 C 0.51574 0.35807 0.42098 0.0
C315 C 0.48137 0.36557 0.43352 0.0
C316 C 0.46273 0.28705 0.38295 0.0
N317 N 0.43052 0.29714 0.38971 0.0
H318 H 0.41408 0.34356 0.4208 0.0
H319 H 0.45621 0.25762 0.36013 0.0
H320 H 0.46153 0.34214 0.27453 0.0
H321 H 0.38076 0.20915 0.23794 0.0
O322 O 0.38049 0.32172 0.31086 0.0
O323 O 0.33128 0.2535 0.28861 0.0
O324 O 0.36423 0.20773 0.35416 0.0
C325 C 0.34787 0.29476 0.27812 0.0
H326 H 0.31825 0.26117 0.54745 0.0
H327 H 0.48717 0.3244 0.1734 0.0
H328 H 0.53143 0.31033 0.3874 0.0
H329 H 0.48747 0.3966 0.45092 0.0
Co330 Co 0.12487 0.37162 0.50577 0.0
C331 C 0.04768 0.31043 0.57673 0.0
C332 C 0.10643 0.33682 0.62656 0.0
C333 C 0.07173 0.3139 0.66406 0.0
N334 N 0.09145 0.33493 0.57167 0.0
N335 N 0.03485 0.29743 0.63261 0.0
H336 H 0.02529 0.30443 0.54123 0.0
H337 H 0.13998 0.35608 0.63957 0.0
C338 C 0.20481 0.36436 0.54995 0.0
O339 O 0.21555 0.38949 0.59655 0.0
N340 N 0.15729 0.40833 0.44076 0.0
C341 C 0.15794 0.44509 0.42406 0.0
C342 C 0.17942 0.45841 0.37131 0.0
C343 C 0.17734 0.39914 0.39759 0.0
N344 N 0.19128 0.42932 0.35472 0.0
C345 C 0.11842 0.43007 0.58309 0.0
C346 C 0.20218 0.49847 0.56691 0.0
C347 C 0.17042 0.50704 0.58975 0.0
C348 C 0.12878 0.47173 0.60079 0.0
C349 C 0.19061 0.45573 0.551 0.0
N350 N 0.14845 0.42278 0.55592 0.0
H351 H 0.08485 0.40443 0.58559 0.0
H352 H 0.21422 0.45023 0.52827 0.0
H353 H 0.14237 0.46017 0.44755 0.0
H354 H 0.18023 0.37023 0.39659 0.0
O355 O 0.07482 0.37339 0.47531 0.0
O356 O 0.09415 0.32462 0.45183 0.0
O357 O 0.17261 0.35771 0.51825 0.0
C358 C 0.0695 0.34117 0.44165 0.0
H359 H 0.07343 0.3106 0.71103 0.0
H360 H 0.18401 0.48606 0.34573 0.0
H361 H 0.23479 0.52481 0.55795 0.0
H362 H 0.10299 0.47664 0.6176 0.0
Co363 Co 0.77102 0.11955 0.6673 0.0
C364 C 0.74828 0.04049 0.7366 0.0
C365 C 0.80365 0.09584 0.77387 0.0
C366 C 0.79295 0.05984 0.80851 0.0
N367 N 0.77541 0.08368 0.72874 0.0
N368 N 0.75776 0.02533 0.78518 0.0
H369 H 0.72101 0.02045 0.70848 0.0
H370 H 0.82958 0.12857 0.78236 0.0
C371 C 0.85689 0.20015 0.71289 0.0
O372 O 0.84193 0.21081 0.75906 0.0
N373 N 0.76627 0.15362 0.60503 0.0
C374 C 0.72962 0.15257 0.58712 0.0
C375 C 0.73807 0.17497 0.53515 0.0
C376 C 0.79609 0.17553 0.56324 0.0
N377 N 0.77974 0.18898 0.52015 0.0
C378 C 0.70981 0.11133 0.75525 0.0
C379 C 0.71369 0.18915 0.72905 0.0
C380 C 0.67584 0.1559 0.75587 0.0
C381 C 0.67692 0.11879 0.77475 0.0
C382 C 0.74781 0.18159 0.71414 0.0
N383 N 0.74317 0.14119 0.72148 0.0
H384 H 0.70549 0.0795 0.7626 0.0
H385 H 0.77496 0.20615 0.68921 0.0
H386 H 0.69842 0.13492 0.60893 0.0
H387 H 0.82832 0.17962 0.56293 0.0
O388 O 0.71968 0.06988 0.63431 0.0
O389 O 0.78825 0.0915 0.61059 0.0
O390 O 0.83197 0.16745 0.68136 0.0
C391 C 0.74725 0.0658 0.60042 0.0
H392 H 0.80873 0.05943 0.84882 0.0
H393 H 0.71474 0.17835 0.50866 0.0
H394 H 0.71568 0.21915 0.71484 0.0
H395 H 0.65052 0.0934 0.79982 0.0
C396 C 0.20106 0.38909 0.2733 0.0
C397 C 0.21129 0.42878 0.30018 0.0
H398 H 0.21212 0.35767 0.20043 0.0
C399 C 0.24083 0.46802 0.27271 0.0
H400 H 0.17793 0.35838 0.29319 0.0
C401 C 0.26016 0.46762 0.21956 0.0
C402 C 0.25 0.42797 0.1927 0.0
H403 H 0.24938 0.49901 0.29275 0.0
H404 H 0.28287 0.49831 0.19922 0.0
C405 C 0.22013 0.38869 0.21988 0.0
C406 C 0.81055 0.25762 0.38504 0.0
C407 C 0.84059 0.24795 0.35886 0.0
H408 H 0.76755 0.24621 0.45747 0.0
C409 C 0.85038 0.21866 0.38658 0.0
H410 H 0.80228 0.27988 0.36424 0.0
C411 C 0.8307 0.1996 0.4398 0.0
C412 C 0.80062 0.20923 0.46596 0.0
H413 H 0.87377 0.21103 0.36763 0.0
H414 H 0.83856 0.17686 0.46003 0.0
C415 C 0.79054 0.23821 0.43799 0.0
C416 C 0.57233 0.80232 0.54471 0.0
C417 C 0.61253 0.82762 0.51634 0.0
H418 H 0.53877 0.76425 0.62006 0.0
C419 C 0.65023 0.83173 0.54205 0.0
H420 H 0.54265 0.79807 0.52553 0.0
C421 C 0.64795 0.81219 0.596 0.0
C422 C 0.6079 0.78803 0.62522 0.0
H423 H 0.6817 0.85117 0.5215 0.0
H424 H 0.6776 0.8162 0.61493 0.0
C425 C 0.57002 0.78264 0.59853 0.0
C426 C 0.83286 0.64635 0.71268 0.0
C427 C 0.7993 0.60734 0.68914 0.0
H428 H 0.87858 0.67664 0.7823 0.0
C429 C 0.787 0.56796 0.71819 0.0
H430 H 0.84285 0.67722 0.6915 0.0
C431 C 0.80723 0.56765 0.7703 0.0
C432 C 0.84003 0.60675 0.79461 0.0
H433 H 0.76163 0.53734 0.70067 0.0
H434 H 0.79646 0.53692 0.79232 0.0
C435 C 0.85295 0.64607 0.76501 0.0
C436 C 0.23546 0.83727 0.85956 0.0
C437 C 0.19809 0.79589 0.85902 0.0
H438 H 0.28559 0.8874 0.91243 0.0
C439 C 0.18028 0.77435 0.91219 0.0
H440 H 0.2496 0.85413 0.81877 0.0
C441 C 0.20001 0.79372 0.96536 0.0
C442 C 0.23851 0.83416 0.9657 0.0
H443 H 0.15136 0.74243 0.91232 0.0
H444 H 0.18631 0.77654 0.00609 0.0
C445 C 0.25596 0.85603 0.91262 0.0
C446 C 0.43305 0.17382 0.0905 0.0
C447 C 0.43322 0.1916 0.03557 0.0
H448 H 0.4328 0.18144 0.18401 0.0
C449 C 0.43449 0.23167 0.03236 0.0
H450 H 0.4316 0.14266 0.09353 0.0
C451 C 0.43622 0.25409 0.08355 0.0
C452 C 0.43544 0.23607 0.13849 0.0
H453 H 0.43455 0.24567 0.99019 0.0
H454 H 0.43724 0.28505 0.08045 0.0
C455 C 0.4335 0.19568 0.14179 0.0
C456 C 0.34356 0.25958 0.87758 0.0
C457 C 0.31907 0.27067 0.84051 0.0
H458 H 0.37979 0.22692 0.88701 0.0
C459 C 0.31551 0.25843 0.78077 0.0
H460 H 0.34742 0.26803 0.92362 0.0
C461 C 0.33401 0.23396 0.75975 0.0
C462 C 0.35643 0.22119 0.798 0.0
H463 H 0.29778 0.26696 0.75027 0.0
H464 H 0.32902 0.22338 0.71438 0.0
C465 C 0.36204 0.23549 0.85658 0.0
C466 C 0.11712 0.34564 0.92919 0.0
C467 C 0.14839 0.34291 0.96362 0.0
H468 H 0.05069 0.33053 0.92208 0.0
C469 C 0.13536 0.32174 0.01841 0.0
H470 H 0.12587 0.36156 0.88684 0.0
C471 C 0.09279 0.30467 0.03879 0.0
C472 C 0.06157 0.30737 0.00462 0.0
H473 H 0.15813 0.3184 0.04616 0.0
H474 H 0.08408 0.28877 0.08114 0.0
C475 C 0.07404 0.32771 0.94929 0.0
C476 C 0.83161 0.1313 0.18454 0.0
C477 C 0.82412 0.14262 0.1283 0.0
H478 H 0.81542 0.08105 0.24796 0.0
C479 C 0.79343 0.10927 0.09205 0.0
H480 H 0.85528 0.15565 0.2137 0.0
C481 C 0.77102 0.06583 0.11175 0.0
C482 C 0.77829 0.05505 0.16843 0.0
H483 H 0.78695 0.11664 0.04847 0.0
H484 H 0.74743 0.04081 0.08313 0.0
C485 C 0.80876 0.08836 0.20445 0.0
C486 C 0.74244 0.79652 0.3614 0.0
C487 C 0.73642 0.76038 0.32868 0.0
H488 H 0.73093 0.84974 0.36903 0.0
C489 C 0.71316 0.75076 0.27559 0.0
H490 H 0.76059 0.8051 0.402 0.0
C491 C 0.69544 0.77626 0.25653 0.0
C492 C 0.7012 0.81225 0.2898 0.0
H493 H 0.70769 0.72287 0.24958 0.0
H494 H 0.6771 0.76766 0.21607 0.0
C495 C 0.7254 0.82221 0.34213 0.0
C496 C 0.97308 0.70235 0.44227 0.0
C497 C 0.98556 0.72356 0.49711 0.0
H498 H 0.92117 0.66732 0.38066 0.0
C499 C 0.95426 0.72653 0.53126 0.0
H500 H 0.99652 0.69937 0.41507 0.0
C501 C 0.91161 0.70889 0.51137 0.0
C502 C 0.89854 0.68684 0.45712 0.0
H503 H 0.96295 0.74317 0.57318 0.0
H504 H 0.88889 0.7127 0.53899 0.0
C505 C 0.92991 0.68385 0.42266 0.0
C506 C 0.29539 0.95935 0.66946 0.0
C507 C 0.27088 0.98027 0.67643 0.0
H508 H 0.29507 0.90004 0.65082 0.0
C509 C 0.22663 0.95737 0.66089 0.0
H510 H 0.32978 0.97631 0.67928 0.0
C511 C 0.20675 0.91352 0.6434 0.0
C512 C 0.23072 0.89175 0.64134 0.0
H513 H 0.20677 0.97241 0.66557 0.0
H514 H 0.17205 0.89595 0.63552 0.0
C515 C 0.27556 0.91567 0.65248 0.0
C516 C 0.76607 0.65366 0.97396 0.0
C517 C 0.80695 0.67487 0.00152 0.0
H518 H 0.71448 0.65949 0.93531 0.0
C519 C 0.82551 0.71941 0.01519 0.0
H520 H 0.75054 0.61939 0.96288 0.0
C521 C 0.80458 0.7425 -0.00089 0.0
C522 C 0.76492 0.72164 0.96853 0.0
H523 H 0.857 0.73689 0.03612 0.0
H524 H 0.82034 0.77705 0.00832 0.0
C525 C 0.74548 0.67675 0.9575 0.0
C526 C 0.07727 0.73717 0.15384 0.0
C527 C 0.05637 0.76184 0.15179 0.0
H528 H 0.13617 0.73657 0.16937 0.0
C529 C 0.07896 0.80525 0.17173 0.0
H530 H 0.06044 0.70337 0.14022 0.0
C531 C 0.12269 0.82448 0.18883 0.0
C532 C 0.14448 0.80054 0.18652 0.0
H533 H 0.06369 0.82507 0.17077 0.0
H534 H 0.14006 0.85876 0.20015 0.0
C535 C 0.12065 0.75619 0.17112 0.0
C536 C 0.33271 0.06012 0.38162 0.0
C537 C 0.31214 0.04784 0.32648 0.0
H538 H 0.36804 0.11204 0.4435 0.0
C539 C 0.31065 0.07973 0.29207 0.0
H540 H 0.3346 0.03628 0.40905 0.0
C541 C 0.32897 0.12267 0.31211 0.0
C542 C 0.35041 0.1355 0.36668 0.0
H543 H 0.29463 0.07124 0.24985 0.0
H544 H 0.32629 0.14586 0.28432 0.0
C545 C 0.35202 0.10356 0.40127 0.0
C546 C 0.28715 0.32474 0.54613 0.0
C547 C 0.27943 0.30506 0.49024 0.0
H548 H 0.27033 0.35955 0.60881 0.0
C549 C 0.24705 0.30484 0.45514 0.0
H550 H 0.31214 0.32572 0.57411 0.0
C551 C 0.22287 0.32358 0.47516 0.0
C552 C 0.23082 0.34397 0.5306 0.0
H553 H 0.23995 0.28956 0.41228 0.0
H554 H 0.19791 0.3221 0.44667 0.0
C555 C 0.26336 0.34433 0.56591 0.0
C556 C 0.97896 0.28211 0.70955 0.0
C557 C 0.99073 0.27321 0.65418 0.0
H558 H 0.92731 0.2667 0.7716 0.0
C559 C 0.95853 0.24037 0.61949 0.0
H560 H 1.00317 0.30753 0.73712 0.0
C561 C 0.91569 0.21682 0.63934 0.0
C562 C 0.90331 0.2259 0.69417 0.0
H563 H 0.96667 0.23243 0.5771 0.0
H564 H 0.89224 0.19136 0.61114 0.0
C565 C 0.93554 0.25893 0.72916 0.0
C566 C 0.68733 0.95924 0.80348 0.0
C567 C 0.73278 0.98186 0.80851 0.0
H568 H 0.62811 0.89882 0.81235 0.0
C569 C 0.75314 0.96045 0.8333 0.0
H570 H 0.67069 0.97523 0.78589 0.0
C571 C 0.72864 0.91618 0.84851 0.0
C572 C 0.68333 0.89281 0.83972 0.0
H573 H 0.78815 0.97729 0.83786 0.0
H574 H 0.74546 0.8998 0.86416 0.0
C575 C 0.66292 0.91544 0.81916 0.0
C576 C 0.28852 0.28782 0.1389 0.0
C577 C 0.31843 0.32604 0.10961 0.0
H578 H 0.27383 0.24885 0.216 0.0
C579 C 0.35732 0.35554 0.1379 0.0
H580 H 0.25798 0.26478 0.11857 0.0
C581 C 0.36599 0.34683 0.19464 0.0
C582 C 0.336 0.30839 0.22362 0.0
H583 H 0.38048 0.38575 0.11685 0.0
H584 H 0.3966 0.36951 0.21508 0.0
C585 C 0.29726 0.27904 0.19511 0.0
C586 C 1.01916 0.28423 0.29965 0.0
C587 C 1.01007 0.31407 0.27203 0.0
H588 H 0.04364 0.2688 0.37567 0.0
C589 C 1.01854 0.35218 0.30212 0.0
H590 H 1.01235 0.25425 0.27789 0.0
C591 C 0.03562 0.36007 0.35908 0.0
C592 C 0.04466 0.33006 0.3865 0.0
H593 H 1.01081 0.37521 0.2824 0.0
H594 H 0.0427 0.39007 0.381 0.0
C595 C 0.03637 0.2922 0.35607 0.0
C596 C 0.68814 1.01192 0.46014 0.0
C597 C 0.71832 1.00276 0.43309 0.0
H598 H 0.67291 0.03793 0.53613 0.0
C599 C 0.75648 1.01233 0.46302 0.0
H600 H 0.65795 1.00388 0.43849 0.0
C601 C 0.7645 0.03076 0.51878 0.0
C602 C 0.73444 0.03984 0.54615 0.0
H603 H 0.78001 1.00504 0.4436 0.0
H604 H 0.79462 0.03836 0.5403 0.0
C605 C 0.6961 0.03025 0.5165 0.0
C606 C 0.75474 0.75094 0.618 0.0
C607 C 0.72682 0.71003 0.59288 0.0
H608 H 0.76722 0.79371 0.69122 0.0
C609 C 0.689 0.68049 0.62315 0.0
H610 H 0.7844 0.77411 0.59576 0.0
C611 C 0.67998 0.69113 0.67848 0.0
C612 C 0.70826 0.73175 0.70409 0.0
H613 H 0.66737 0.64842 0.60531 0.0
H614 H 0.65065 0.66758 0.70099 0.0
C615 C 0.74529 0.7619 0.6729 0.0
C616 C 0.02877 0.76297 0.79332 0.0
C617 C 0.0403 0.73424 0.76706 0.0
H618 H 0.9988 0.77532 0.86752 0.0
C619 C 0.03209 0.69645 0.79725 0.0
H620 H 0.03536 0.79264 0.77119 0.0
C621 C 1.0131 0.6876 0.85268 0.0
C622 C 1.00088 0.71576 0.87886 0.0
H623 H 0.0414 0.67411 0.77875 0.0
H624 H 1.00702 0.65793 0.87439 0.0
C625 C 1.00846 0.75339 0.84854 0.0
C626 C 0.3426 0.99691 0.02661 0.0
C627 C 0.30445 0.98853 0.05641 0.0
H628 H 0.38124 0.02141 0.9488 0.0
C629 C 0.27458 0.9972 0.02824 0.0
H630 H 0.36571 0.98949 0.04663 0.0
C631 C 0.28342 1.01531 0.97203 0.0
C632 C 0.32176 0.02404 0.94249 0.0
H633 H 0.24454 0.99023 0.04979 0.0
H634 H 0.26066 0.02326 0.95207 0.0
C635 C 0.35098 1.01414 0.96998 0.0
C636 C 0.45632 0.62376 0.89352 0.0
C637 C 0.48973 0.62831 0.93111 0.0
H638 H 0.39233 0.58051 0.85938 0.0
C639 C 0.48166 0.5938 0.96875 0.0
H640 H 0.46178 0.6497 0.86363 0.0
C641 C 0.44256 0.55447 0.9656 0.0
C642 C 0.41049 0.54879 0.92507 0.0
H643 H 0.50652 0.5965 -0.00139 0.0
H644 H 0.43797 0.52776 0.99341 0.0
C645 C 0.41681 0.5842 0.89065 0.0
C646 C 0.88984 0.43113 0.01988 0.0
C647 C 0.87314 0.40266 0.06786 0.0
H648 H 0.90698 0.49362 0.98497 0.0
C649 C 0.85514 0.41393 0.11541 0.0
H650 H 0.90351 0.4232 0.98243 0.0
C651 C 0.8571 0.45449 0.11684 0.0
C652 C 0.87721 0.48423 0.07084 0.0
H653 H 0.84241 0.39281 0.15329 0.0
H654 H 0.84553 0.46367 0.15534 0.0
C655 C 0.89192 0.47144 0.02142 0.0
C656 C 0.50034 0.91873 0.24205 0.0
C657 C 0.50118 0.87948 0.23937 0.0
H658 H 0.46322 0.95022 0.24486 0.0
C659 C 0.46124 0.84016 0.2436 0.0
H660 H 0.52986 0.95007 0.24161 0.0
C661 C 0.422 0.84034 0.24997 0.0
C662 C 0.42135 0.87982 0.25082 0.0
H663 H 0.45997 0.80907 0.24182 0.0
H664 H 0.3923 0.80935 0.25407 0.0
C665 C 0.46137 0.91888 0.24631 0.0
C666 C 0.57461 0.42317 0.47338 0.0
C667 C 0.5613 0.39486 0.42486 0.0
H668 H 0.62242 0.48486 0.50876 0.0
C669 C 0.58957 0.40575 0.37629 0.0
H670 H 0.55364 0.41569 0.51139 0.0
C671 C 0.6289 0.4455 0.37476 0.0
C672 C 0.64073 0.47463 0.42204 0.0
H673 H 0.57994 0.38493 0.33788 0.0
H674 H 0.64894 0.45444 0.33562 0.0
C675 C 0.61393 0.46263 0.47196 0.0
C676 C 0.19307 0.61931 0.54462 0.0
C677 C 0.17097 0.62805 0.58899 0.0
H678 H 0.21046 0.57366 0.51019 0.0
C679 C 0.15532 0.60048 0.638 0.0
H680 H 0.20546 0.64024 0.50652 0.0
C681 C 0.15879 0.56306 0.64075 0.0
C682 C 0.17752 0.55203 0.59416 0.0
H683 H 0.13876 0.60702 0.67321 0.0
H684 H 0.14464 0.54147 0.67795 0.0
C685 C 0.1962 0.58142 0.54708 0.0
C686 C 0.59412 0.11649 0.75463 0.0
C687 C 0.63367 0.15626 0.75688 0.0
H688 H 0.52547 0.08339 0.75468 0.0
C689 C 0.6317 0.19504 0.75613 0.0
H690 H 0.59318 0.08557 0.75273 0.0
C691 C 0.59144 0.19373 0.75323 0.0
C692 C 0.55202 0.1536 0.75165 0.0
H693 H 0.6611 0.22648 0.75786 0.0
H694 H 0.59141 0.2242 0.75193 0.0
C695 C 0.5544 0.1152 0.75344 0.0
loop_
_geom_bond_atom_site_label_1
_geom_bond_atom_site_label_2
_geom_bond_distance
_geom_bond_site_symmetry_2
_ccdc_geom_bond_type
Co0 N4 2.148 1_554 S
Co0 N10 2.128 . S
Co0 N20 2.194 1_554 S
Co0 O25 2.351 . S
Co0 O26 2.155 . S
Co0 O27 2.096 . S
C1 N4 1.301 . S
C1 N5 1.328 . S
C1 H6 0.930 . S
C2 C3 1.333 . S
C2 N4 1.317 . S
C2 H7 0.930 . S
C3 C2 1.333 . S
C3 N5 1.350 . S
C3 H29 0.931 . S
N4 Co0 2.148 1_556 S
N4 C1 1.301 . S
N4 C2 1.317 . S
N5 C1 1.328 . S
N5 C3 1.350 . S
H6 C1 0.930 . S
H7 C2 0.930 . S
C8 O9 1.224 . S
C8 O27 1.247 1_556 S
O9 C8 1.224 . S
N10 Co0 2.128 . S
N10 C11 1.355 . S
N10 C13 1.311 . S
C11 N10 1.355 . S
C11 C12 1.363 . S
C11 H23 0.929 . S
C12 C11 1.363 . S
C12 N14 1.375 . S
C12 H30 0.931 . S
C13 N10 1.311 . S
C13 N14 1.347 . S
C13 H24 0.929 . S
N14 C12 1.375 . S
N14 C13 1.347 . S
C15 C18 1.365 . S
C15 N20 1.328 . S
C15 H21 0.929 . S
C16 C17 1.362 . S
C16 C19 1.378 . S
C16 H31 0.929 . S
C17 C16 1.362 . S
C17 C18 1.366 . S
C18 C15 1.365 . S
C18 C17 1.366 . S
C18 H32 0.930 . S
C19 C16 1.378 . S
C19 N20 1.315 . S
C19 H22 0.930 . S
N20 Co0 2.194 1_556 S
N20 C15 1.328 . S
N20 C19 1.315 . S
H21 C15 0.929 . S
H22 C19 0.930 . S
H23 C11 0.929 . S
H24 C13 0.929 . S
O25 Co0 2.351 . S
O25 C28 1.244 . S
O26 Co0 2.155 . S
O26 C28 1.240 . S
O27 Co0 2.096 . S
O27 C8 1.247 1_554 S
C28 O25 1.244 . S
C28 O26 1.240 . S
H29 C3 0.931 . S
H30 C12 0.931 . S
H31 C16 0.929 . S
H32 C18 0.930 . S
Co33 N37 2.148 . S
Co33 N43 2.128 . S
Co33 N53 2.194 . S
Co33 O58 2.351 . S
Co33 O59 2.155 . S
Co33 O60 2.096 . S
C34 N37 1.301 . S
C34 N38 1.328 . S
C34 H39 0.930 . S
C35 C36 1.333 . S
C35 N37 1.317 . S
C35 H40 0.930 . S
C36 C35 1.333 . S
C36 N38 1.350 . S
C36 H62 0.931 1_554 S
N37 Co33 2.148 . S
N37 C34 1.301 . S
N37 C35 1.317 . S
N38 C34 1.328 . S
N38 C36 1.350 . S
H39 C34 0.930 . S
H40 C35 0.930 . S
C41 O42 1.224 . S
C41 O60 1.247 . S
O42 C41 1.224 . S
N43 Co33 2.128 . S
N43 C44 1.355 . S
N43 C46 1.311 . S
C44 N43 1.355 . S
C44 C45 1.363 . S
C44 H56 0.929 . S
C45 C44 1.363 . S
C45 N47 1.375 . S
C45 H63 0.931 . S
C46 N43 1.311 . S
C46 N47 1.347 . S
C46 H57 0.929 . S
N47 C45 1.375 . S
N47 C46 1.347 . S
C48 C51 1.365 . S
C48 N53 1.328 . S
C48 H54 0.929 . S
C49 C50 1.362 . S
C49 C52 1.378 . S
C49 H64 0.929 . S
C50 C49 1.362 . S
C50 C51 1.366 . S
C51 C48 1.365 . S
C51 C50 1.366 . S
C51 H65 0.930 . S
C52 C49 1.378 . S
C52 N53 1.315 . S
C52 H55 0.930 . S
N53 Co33 2.194 . S
N53 C48 1.328 . S
N53 C52 1.315 . S
H54 C48 0.929 . S
H55 C52 0.930 . S
H56 C44 0.929 . S
H57 C46 0.929 . S
O58 Co33 2.351 . S
O58 C61 1.244 . S
O59 Co33 2.155 . S
O59 C61 1.240 . S
O60 Co33 2.096 . S
O60 C41 1.247 . S
C61 O58 1.244 . S
C61 O59 1.240 . S
H62 C36 0.931 1_556 S
H63 C45 0.931 . S
H64 C49 0.929 . S
H65 C51 0.930 . S
Co66 N70 2.148 . S
Co66 N76 2.128 . S
Co66 N86 2.194 . S
Co66 O91 2.351 . S
Co66 O92 2.155 . S
Co66 O93 2.096 . S
C67 N70 1.301 . S
C67 N71 1.328 . S
C67 H72 0.930 . S
C68 C69 1.333 . S
C68 N70 1.317 . S
C68 H73 0.930 . S
C69 C68 1.333 . S
C69 N71 1.350 . S
C69 H95 0.931 . S
N70 Co66 2.148 . S
N70 C67 1.301 . S
N70 C68 1.317 . S
N71 C67 1.328 . S
N71 C69 1.350 . S
H72 C67 0.930 . S
H73 C68 0.930 . S
C74 O75 1.224 . S
C74 O93 1.247 . S
O75 C74 1.224 . S
N76 Co66 2.128 . S
N76 C77 1.355 . S
N76 C79 1.311 . S
C77 N76 1.355 . S
C77 C78 1.363 . S
C77 H89 0.929 . S
C78 C77 1.363 . S
C78 N80 1.375 . S
C78 H96 0.931 . S
C79 N76 1.311 . S
C79 N80 1.347 . S
C79 H90 0.929 . S
N80 C78 1.375 . S
N80 C79 1.347 . S
C81 C84 1.365 . S
C81 N86 1.328 . S
C81 H87 0.929 . S
C82 C83 1.362 . S
C82 C85 1.378 . S
C82 H97 0.929 . S
C83 C82 1.362 . S
C83 C84 1.366 . S
C84 C81 1.365 . S
C84 C83 1.366 . S
C84 H98 0.930 . S
C85 C82 1.378 . S
C85 N86 1.315 . S
C85 H88 0.930 . S
N86 Co66 2.194 . S
N86 C81 1.328 . S
N86 C85 1.315 . S
H87 C81 0.929 . S
H88 C85 0.930 . S
H89 C77 0.929 . S
H90 C79 0.929 . S
O91 Co66 2.351 . S
O91 C94 1.244 . S
O92 Co66 2.155 . S
O92 C94 1.240 . S
O93 Co66 2.096 . S
O93 C74 1.247 . S
C94 O91 1.244 . S
C94 O92 1.240 . S
H95 C69 0.931 . S
H96 C78 0.931 . S
H97 C82 0.929 . S
H98 C84 0.930 . S
Co99 N103 2.148 . S
Co99 N109 2.128 . S
Co99 N119 2.194 . S
Co99 O124 2.351 . S
Co99 O125 2.155 . S
Co99 O126 2.096 . S
C100 N103 1.301 . S
C100 N104 1.328 . S
C100 H105 0.930 . S
C101 C102 1.333 . S
C101 N103 1.317 . S
C101 H106 0.930 . S
C102 C101 1.333 . S
C102 N104 1.350 . S
C102 H128 0.931 . S
N103 Co99 2.148 . S
N103 C100 1.301 . S
N103 C101 1.317 . S
N104 C100 1.328 . S
N104 C102 1.350 . S
H105 C100 0.930 . S
H106 C101 0.930 . S
C107 O108 1.224 . S
C107 O126 1.247 . S
O108 C107 1.224 . S
N109 Co99 2.128 . S
N109 C110 1.355 . S
N109 C112 1.311 . S
C110 N109 1.355 . S
C110 C111 1.363 . S
C110 H122 0.929 . S
C111 C110 1.363 . S
C111 N113 1.375 . S
C111 H129 0.931 . S
C112 N109 1.311 . S
C112 N113 1.347 . S
C112 H123 0.929 . S
N113 C111 1.375 . S
N113 C112 1.347 . S
C114 C117 1.365 . S
C114 N119 1.328 . S
C114 H120 0.929 . S
C115 C116 1.362 . S
C115 C118 1.378 . S
C115 H130 0.929 . S
C116 C115 1.362 . S
C116 C117 1.366 . S
C117 C114 1.365 . S
C117 C116 1.366 . S
C117 H131 0.930 . S
C118 C115 1.378 . S
C118 N119 1.315 . S
C118 H121 0.930 . S
N119 Co99 2.194 . S
N119 C114 1.328 . S
N119 C118 1.315 . S
H120 C114 0.929 . S
H121 C118 0.930 . S
H122 C110 0.929 . S
H123 C112 0.929 . S
O124 Co99 2.351 . S
O124 C127 1.244 . S
O125 Co99 2.155 . S
O125 C127 1.240 . S
O126 Co99 2.096 . S
O126 C107 1.247 . S
C127 O124 1.244 . S
C127 O125 1.240 . S
H128 C102 0.931 . S
H129 C111 0.931 . S
H130 C115 0.929 . S
H131 C117 0.930 . S
Co132 N136 2.148 . S
Co132 N142 2.128 . S
Co132 N152 2.194 . S
Co132 O157 2.351 . S
Co132 O158 2.155 . S
Co132 O159 2.096 . S
C133 N136 1.301 . S
C133 N137 1.328 . S
C133 H138 0.930 . S
C134 C135 1.333 . S
C134 N136 1.317 . S
C134 H139 0.930 . S
C135 C134 1.333 . S
C135 N137 1.350 . S
C135 H161 0.931 . S
N136 Co132 2.148 . S
N136 C133 1.301 . S
N136 C134 1.317 . S
N137 C133 1.328 . S
N137 C135 1.350 . S
H138 C133 0.930 . S
H139 C134 0.930 . S
C140 O141 1.224 . S
C140 O159 1.247 . S
O141 C140 1.224 . S
N142 Co132 2.128 . S
N142 C143 1.355 . S
N142 C145 1.311 . S
C143 N142 1.355 . S
C143 C144 1.363 . S
C143 H155 0.929 . S
C144 C143 1.363 . S
C144 N146 1.375 . S
C144 H162 0.931 . S
C145 N142 1.311 . S
C145 N146 1.347 . S
C145 H156 0.929 . S
N146 C144 1.375 . S
N146 C145 1.347 . S
C147 C150 1.365 . S
C147 N152 1.328 . S
C147 H153 0.929 . S
C148 C149 1.362 . S
C148 C151 1.378 . S
C148 H163 0.929 . S
C149 C148 1.362 . S
C149 C150 1.366 . S
C150 C147 1.365 . S
C150 C149 1.366 . S
C150 H164 0.930 . S
C151 C148 1.378 . S
C151 N152 1.315 . S
C151 H154 0.930 . S
N152 Co132 2.194 . S
N152 C147 1.328 . S
N152 C151 1.315 . S
H153 C147 0.929 . S
H154 C151 0.930 . S
H155 C143 0.929 . S
H156 C145 0.929 . S
O157 Co132 2.351 . S
O157 C160 1.244 . S
O158 Co132 2.155 . S
O158 C160 1.240 . S
O159 Co132 2.096 . S
O159 C140 1.247 . S
C160 O157 1.244 . S
C160 O158 1.240 . S
H161 C135 0.931 . S
H162 C144 0.931 . S
H163 C148 0.929 . S
H164 C150 0.930 . S
Co165 N169 2.148 . S
Co165 N175 2.128 . S
Co165 N185 2.194 . S
Co165 O190 2.351 . S
Co165 O191 2.155 . S
Co165 O192 2.096 . S
C166 N169 1.301 . S
C166 N170 1.328 . S
C166 H171 0.930 . S
C167 C168 1.333 . S
C167 N169 1.317 . S
C167 H172 0.930 . S
C168 C167 1.333 . S
C168 N170 1.350 . S
C168 H194 0.931 . S
N169 Co165 2.148 . S
N169 C166 1.301 . S
N169 C167 1.317 . S
N170 C166 1.328 . S
N170 C168 1.350 . S
H171 C166 0.930 . S
H172 C167 0.930 . S
C173 O174 1.224 . S
C173 O192 1.247 . S
O174 C173 1.224 . S
N175 Co165 2.128 . S
N175 C176 1.355 . S
N175 C178 1.311 . S
C176 N175 1.355 . S
C176 C177 1.363 . S
C176 H188 0.929 . S
C177 C176 1.363 . S
C177 N179 1.375 . S
C177 H195 0.931 . S
C178 N175 1.311 . S
C178 N179 1.347 . S
C178 H189 0.929 . S
N179 C177 1.375 . S
N179 C178 1.347 . S
C180 C183 1.365 . S
C180 N185 1.328 . S
C180 H186 0.929 . S
C181 C182 1.362 . S
C181 C184 1.378 . S
C181 H196 0.929 . S
C182 C181 1.362 . S
C182 C183 1.366 . S
C183 C180 1.365 . S
C183 C182 1.366 . S
C183 H197 0.930 . S
C184 C181 1.378 . S
C184 N185 1.315 . S
C184 H187 0.930 . S
N185 Co165 2.194 . S
N185 C180 1.328 . S
N185 C184 1.315 . S
H186 C180 0.929 . S
H187 C184 0.930 . S
H188 C176 0.929 . S
H189 C178 0.929 . S
O190 Co165 2.351 . S
O190 C193 1.244 . S
O191 Co165 2.155 . S
O191 C193 1.240 . S
O192 Co165 2.096 . S
O192 C173 1.247 . S
C193 O190 1.244 . S
C193 O191 1.240 . S
H194 C168 0.931 . S
H195 C177 0.931 . S
H196 C181 0.929 . S
H197 C183 0.930 . S
Co198 N202 2.148 . S
Co198 N208 2.128 . S
Co198 N218 2.194 . S
Co198 O223 2.351 . S
Co198 O224 2.155 . S
Co198 O225 2.096 . S
C199 N202 1.301 . S
C199 N203 1.328 . S
C199 H204 0.930 . S
C200 C201 1.333 . S
C200 N202 1.317 . S
C200 H205 0.930 . S
C201 C200 1.333 . S
C201 N203 1.350 . S
C201 H227 0.931 1_556 S
N202 Co198 2.148 . S
N202 C199 1.301 . S
N202 C200 1.317 . S
N203 C199 1.328 . S
N203 C201 1.350 . S
H204 C199 0.930 . S
H205 C200 0.930 . S
C206 O207 1.224 . S
C206 O225 1.247 . S
O207 C206 1.224 . S
N208 Co198 2.128 . S
N208 C209 1.355 . S
N208 C211 1.311 . S
C209 N208 1.355 . S
C209 C210 1.363 . S
C209 H221 0.929 . S
C210 C209 1.363 . S
C210 N212 1.375 . S
C210 H228 0.931 . S
C211 N208 1.311 . S
C211 N212 1.347 . S
C211 H222 0.929 . S
N212 C210 1.375 . S
N212 C211 1.347 . S
C213 C216 1.365 . S
C213 N218 1.328 . S
C213 H219 0.929 . S
C214 C215 1.362 . S
C214 C217 1.378 . S
C214 H229 0.929 . S
C215 C214 1.362 . S
C215 C216 1.366 . S
C216 C213 1.365 . S
C216 C215 1.366 . S
C216 H230 0.930 . S
C217 C214 1.378 . S
C217 N218 1.315 . S
C217 H220 0.930 . S
N218 Co198 2.194 . S
N218 C213 1.328 . S
N218 C217 1.315 . S
H219 C213 0.929 . S
H220 C217 0.930 . S
H221 C209 0.929 . S
H222 C211 0.929 . S
O223 Co198 2.351 . S
O223 C226 1.244 . S
O224 Co198 2.155 . S
O224 C226 1.240 . S
O225 Co198 2.096 . S
O225 C206 1.247 . S
C226 O223 1.244 . S
C226 O224 1.240 . S
H227 C201 0.931 1_554 S
H228 C210 0.931 . S
H229 C214 0.929 . S
H230 C216 0.930 . S
Co231 N235 2.148 1_556 S
Co231 N241 2.128 . S
Co231 N251 2.194 1_556 S
Co231 O256 2.351 . S
Co231 O257 2.155 . S
Co231 O258 2.096 . S
C232 N235 1.301 . S
C232 N236 1.328 . S
C232 H237 0.930 . S
C233 C234 1.333 . S
C233 N235 1.317 . S
C233 H238 0.930 . S
C234 C233 1.333 . S
C234 N236 1.350 . S
C234 H260 0.931 . S
N235 Co231 2.148 1_554 S
N235 C232 1.301 . S
N235 C233 1.317 . S
N236 C232 1.328 . S
N236 C234 1.350 . S
H237 C232 0.930 . S
H238 C233 0.930 . S
C239 O240 1.224 . S
C239 O258 1.247 1_554 S
O240 C239 1.224 . S
N241 Co231 2.128 . S
N241 C242 1.355 . S
N241 C244 1.311 . S
C242 N241 1.355 . S
C242 C243 1.363 . S
C242 H254 0.929 . S
C243 C242 1.363 . S
C243 N245 1.375 . S
C243 H261 0.931 . S
C244 N241 1.311 . S
C244 N245 1.347 . S
C244 H255 0.929 . S
N245 C243 1.375 . S
N245 C244 1.347 . S
C246 C249 1.365 . S
C246 N251 1.328 . S
C246 H252 0.929 . S
C247 C248 1.362 . S
C247 C250 1.378 . S
C247 H262 0.929 . S
C248 C247 1.362 . S
C248 C249 1.366 . S
C249 C246 1.365 . S
C249 C248 1.366 . S
C249 H263 0.930 . S
C250 C247 1.378 . S
C250 N251 1.315 . S
C250 H253 0.930 . S
N251 Co231 2.194 1_554 S
N251 C246 1.328 . S
N251 C250 1.315 . S
H252 C246 0.929 . S
H253 C250 0.930 . S
H254 C242 0.929 . S
H255 C244 0.929 . S
O256 Co231 2.351 . S
O256 C259 1.244 . S
O257 Co231 2.155 . S
O257 C259 1.240 . S
O258 Co231 2.096 . S
O258 C239 1.247 1_556 S
C259 O256 1.244 . S
C259 O257 1.240 . S
H260 C234 0.931 . S
H261 C243 0.931 . S
H262 C247 0.929 . S
H263 C249 0.930 . S
Co264 N268 2.148 . S
Co264 N274 2.128 . S
Co264 N284 2.194 . S
Co264 O289 2.351 . S
Co264 O290 2.155 . S
Co264 O291 2.096 . S
C265 N268 1.301 . S
C265 N269 1.328 . S
C265 H270 0.930 . S
C266 C267 1.333 . S
C266 N268 1.317 . S
C266 H271 0.930 . S
C267 C266 1.333 . S
C267 N269 1.350 . S
C267 H293 0.931 . S
N268 Co264 2.148 . S
N268 C265 1.301 . S
N268 C266 1.317 . S
N269 C265 1.328 . S
N269 C267 1.350 . S
H270 C265 0.930 . S
H271 C266 0.930 . S
C272 O273 1.224 . S
C272 O291 1.247 . S
O273 C272 1.224 . S
N274 Co264 2.128 . S
N274 C275 1.355 . S
N274 C277 1.311 . S
C275 N274 1.355 . S
C275 C276 1.363 . S
C275 H287 0.929 . S
C276 C275 1.363 . S
C276 N278 1.375 . S
C276 H294 0.931 . S
C277 N274 1.311 . S
C277 N278 1.347 . S
C277 H288 0.929 . S
N278 C276 1.375 . S
N278 C277 1.347 . S
C279 C282 1.365 . S
C279 N284 1.328 . S
C279 H285 0.929 . S
C280 C281 1.362 . S
C280 C283 1.378 . S
C280 H295 0.929 . S
C281 C280 1.362 . S
C281 C282 1.366 . S
C282 C279 1.365 . S
C282 C281 1.366 . S
C282 H296 0.930 . S
C283 C280 1.378 . S
C283 N284 1.315 . S
C283 H286 0.930 . S
N284 Co264 2.194 . S
N284 C279 1.328 . S
N284 C283 1.315 . S
H285 C279 0.929 . S
H286 C283 0.930 . S
H287 C275 0.929 . S
H288 C277 0.929 . S
O289 Co264 2.351 . S
O289 C292 1.244 . S
O290 Co264 2.155 . S
O290 C292 1.240 . S
O291 Co264 2.096 . S
O291 C272 1.247 . S
C292 O289 1.244 . S
C292 O290 1.240 . S
H293 C267 0.931 . S
H294 C276 0.931 . S
H295 C280 0.929 . S
H296 C282 0.930 . S
Co297 N301 2.148 . S
Co297 N307 2.128 . S
Co297 N317 2.194 . S
Co297 O322 2.351 . S
Co297 O323 2.155 . S
Co297 O324 2.096 . S
C298 N301 1.301 . S
C298 N302 1.328 . S
C298 H303 0.930 . S
C299 C300 1.333 . S
C299 N301 1.317 . S
C299 H304 0.930 . S
C300 C299 1.333 . S
C300 N302 1.350 . S
C300 H326 0.931 . S
N301 Co297 2.148 . S
N301 C298 1.301 . S
N301 C299 1.317 . S
N302 C298 1.328 . S
N302 C300 1.350 . S
H303 C298 0.930 . S
H304 C299 0.930 . S
C305 O306 1.224 . S
C305 O324 1.247 . S
O306 C305 1.224 . S
N307 Co297 2.128 . S
N307 C308 1.355 . S
N307 C310 1.311 . S
C308 N307 1.355 . S
C308 C309 1.363 . S
C308 H320 0.929 . S
C309 C308 1.363 . S
C309 N311 1.375 . S
C309 H327 0.931 . S
C310 N307 1.311 . S
C310 N311 1.347 . S
C310 H321 0.929 . S
N311 C309 1.375 . S
N311 C310 1.347 . S
C312 C315 1.365 . S
C312 N317 1.328 . S
C312 H318 0.929 . S
C313 C314 1.362 . S
C313 C316 1.378 . S
C313 H328 0.929 . S
C314 C313 1.362 . S
C314 C315 1.366 . S
C315 C312 1.365 . S
C315 C314 1.366 . S
C315 H329 0.930 . S
C316 C313 1.378 . S
C316 N317 1.315 . S
C316 H319 0.930 . S
N317 Co297 2.194 . S
N317 C312 1.328 . S
N317 C316 1.315 . S
H318 C312 0.929 . S
H319 C316 0.930 . S
H320 C308 0.929 . S
H321 C310 0.929 . S
O322 Co297 2.351 . S
O322 C325 1.244 . S
O323 Co297 2.155 . S
O323 C325 1.240 . S
O324 Co297 2.096 . S
O324 C305 1.247 . S
C325 O322 1.244 . S
C325 O323 1.240 . S
H326 C300 0.931 . S
H327 C309 0.931 . S
H328 C313 0.929 . S
H329 C315 0.930 . S
Co330 N334 2.148 . S
Co330 N340 2.128 . S
Co330 N350 2.194 . S
Co330 O355 2.351 . S
Co330 O356 2.155 . S
Co330 O357 2.096 . S
C331 N334 1.301 . S
C331 N335 1.328 . S
C331 H336 0.930 . S
C332 C333 1.333 . S
C332 N334 1.317 . S
C332 H337 0.930 . S
C333 C332 1.333 . S
C333 N335 1.350 . S
C333 H359 0.931 . S
N334 Co330 2.148 . S
N334 C331 1.301 . S
N334 C332 1.317 . S
N335 C331 1.328 . S
N335 C333 1.350 . S
H336 C331 0.930 . S
H337 C332 0.930 . S
C338 O339 1.224 . S
C338 O357 1.247 . S
O339 C338 1.224 . S
N340 Co330 2.128 . S
N340 C341 1.355 . S
N340 C343 1.311 . S
C341 N340 1.355 . S
C341 C342 1.363 . S
C341 H353 0.929 . S
C342 C341 1.363 . S
C342 N344 1.375 . S
C342 H360 0.931 . S
C343 N340 1.311 . S
C343 N344 1.347 . S
C343 H354 0.929 . S
N344 C342 1.375 . S
N344 C343 1.347 . S
C345 C348 1.365 . S
C345 N350 1.328 . S
C345 H351 0.929 . S
C346 C347 1.362 . S
C346 C349 1.378 . S
C346 H361 0.929 . S
C347 C346 1.362 . S
C347 C348 1.366 . S
C348 C345 1.365 . S
C348 C347 1.366 . S
C348 H362 0.930 . S
C349 C346 1.378 . S
C349 N350 1.315 . S
C349 H352 0.930 . S
N350 Co330 2.194 . S
N350 C345 1.328 . S
N350 C349 1.315 . S
H351 C345 0.929 . S
H352 C349 0.930 . S
H353 C341 0.929 . S
H354 C343 0.929 . S
O355 Co330 2.351 . S
O355 C358 1.244 . S
O356 Co330 2.155 . S
O356 C358 1.240 . S
O357 Co330 2.096 . S
O357 C338 1.247 . S
C358 O355 1.244 . S
C358 O356 1.240 . S
H359 C333 0.931 . S
H360 C342 0.931 . S
H361 C346 0.929 . S
H362 C348 0.930 . S
Co363 N367 2.148 . S
Co363 N373 2.128 . S
Co363 N383 2.194 . S
Co363 O388 2.351 . S
Co363 O389 2.155 . S
Co363 O390 2.096 . S
C364 N367 1.301 . S
C364 N368 1.328 . S
C364 H369 0.930 . S
C365 C366 1.333 . S
C365 N367 1.317 . S
C365 H370 0.930 . S
C366 C365 1.333 . S
C366 N368 1.350 . S
C366 H392 0.931 . S
N367 Co363 2.148 . S
N367 C364 1.301 . S
N367 C365 1.317 . S
N368 C364 1.328 . S
N368 C366 1.350 . S
H369 C364 0.930 . S
H370 C365 0.930 . S
C371 O372 1.224 . S
C371 O390 1.247 . S
O372 C371 1.224 . S
N373 Co363 2.128 . S
N373 C374 1.355 . S
N373 C376 1.311 . S
C374 N373 1.355 . S
C374 C375 1.363 . S
C374 H386 0.929 . S
C375 C374 1.363 . S
C375 N377 1.375 . S
C375 H393 0.931 . S
C376 N373 1.311 . S
C376 N377 1.347 . S
C376 H387 0.929 . S
N377 C375 1.375 . S
N377 C376 1.347 . S
C378 C381 1.365 . S
C378 N383 1.328 . S
C378 H384 0.929 . S
C379 C380 1.362 . S
C379 C382 1.378 . S
C379 H394 0.929 . S
C380 C379 1.362 . S
C380 C381 1.366 . S
C381 C378 1.365 . S
C381 C380 1.366 . S
C381 H395 0.930 . S
C382 C379 1.378 . S
C382 N383 1.315 . S
C382 H385 0.930 . S
N383 Co363 2.194 . S
N383 C378 1.328 . S
N383 C382 1.315 . S
H384 C378 0.929 . S
H385 C382 0.930 . S
H386 C374 0.929 . S
H387 C376 0.929 . S
O388 Co363 2.351 . S
O388 C391 1.244 . S
O389 Co363 2.155 . S
O389 C391 1.240 . S
O390 Co363 2.096 . S
O390 C371 1.247 . S
C391 O388 1.244 . S
C391 O389 1.240 . S
H392 C366 0.931 . S
H393 C375 0.931 . S
H394 C379 0.929 . S
H395 C381 0.930 . S
C396 C397 1.387 . S
C396 H400 0.950 . S
C396 C405 1.390 . S
C397 C396 1.387 . S
C397 C399 1.387 . S
H398 C405 0.950 . S
C399 C397 1.387 . S
C399 C401 1.390 . S
C399 H403 0.950 . S
H400 C396 0.950 . S
C401 C399 1.390 . S
C401 C402 1.387 . S
C401 H404 0.950 . S
C402 C401 1.387 . S
C402 C405 1.387 . S
H403 C399 0.950 . S
H404 C401 0.950 . S
C405 C396 1.390 . S
C405 H398 0.950 . S
C405 C402 1.387 . S
C406 C407 1.387 . S
C406 H410 0.950 . S
C406 C415 1.390 . S
C407 C406 1.387 . S
C407 C409 1.387 . S
H408 C415 0.950 . S
C409 C407 1.387 . S
C409 C411 1.390 . S
C409 H413 0.950 . S
H410 C406 0.950 . S
C411 C409 1.390 . S
C411 C412 1.387 . S
C411 H414 0.950 . S
C412 C411 1.387 . S
C412 C415 1.387 . S
H413 C409 0.950 . S
H414 C411 0.950 . S
C415 C406 1.390 . S
C415 H408 0.950 . S
C415 C412 1.387 . S
C416 C417 1.387 . S
C416 H420 0.950 . S
C416 C425 1.390 . S
C417 C416 1.387 . S
C417 C419 1.387 . S
H418 C425 0.950 . S
C419 C417 1.387 . S
C419 C421 1.390 . S
C419 H423 0.950 . S
H420 C416 0.950 . S
C421 C419 1.390 . S
C421 C422 1.387 . S
C421 H424 0.950 . S
C422 C421 1.387 . S
C422 C425 1.387 . S
H423 C419 0.950 . S
H424 C421 0.950 . S
C425 C416 1.390 . S
C425 H418 0.950 . S
C425 C422 1.387 . S
C426 C427 1.387 . S
C426 H430 0.950 . S
C426 C435 1.390 . S
C427 C426 1.387 . S
C427 C429 1.387 . S
H428 C435 0.950 . S
C429 C427 1.387 . S
C429 C431 1.390 . S
C429 H433 0.950 . S
H430 C426 0.950 . S
C431 C429 1.390 . S
C431 C432 1.387 . S
C431 H434 0.950 . S
C432 C431 1.387 . S
C432 C435 1.387 . S
H433 C429 0.950 . S
H434 C431 0.950 . S
C435 C426 1.390 . S
C435 H428 0.950 . S
C435 C432 1.387 . S
C436 C437 1.387 . S
C436 H440 0.950 . S
C436 C445 1.390 . S
C437 C436 1.387 . S
C437 C439 1.387 . S
H438 C445 0.950 . S
C439 C437 1.387 . S
C439 C441 1.390 . S
C439 H443 0.950 . S
H440 C436 0.950 . S
C441 C439 1.390 . S
C441 C442 1.387 . S
C441 H444 0.950 . S
C442 C441 1.387 . S
C442 C445 1.387 . S
H443 C439 0.950 . S
H444 C441 0.950 . S
C445 C436 1.390 . S
C445 H438 0.950 . S
C445 C442 1.387 . S
C446 C447 1.387 . S
C446 H450 0.950 . S
C446 C455 1.390 . S
C447 C446 1.387 . S
C447 C449 1.387 . S
H448 C455 0.950 . S
C449 C447 1.387 . S
C449 C451 1.390 . S
C449 H453 0.950 . S
H450 C446 0.950 . S
C451 C449 1.390 . S
C451 C452 1.387 . S
C451 H454 0.950 . S
C452 C451 1.387 . S
C452 C455 1.387 . S
H453 C449 0.950 . S
H454 C451 0.950 . S
C455 C446 1.390 . S
C455 H448 0.950 . S
C455 C452 1.387 . S
C456 C457 1.387 . S
C456 H460 0.950 . S
C456 C465 1.390 . S
C457 C456 1.387 . S
C457 C459 1.387 . S
H458 C465 0.950 . S
C459 C457 1.387 . S
C459 C461 1.390 . S
C459 H463 0.950 . S
H460 C456 0.950 . S
C461 C459 1.390 . S
C461 C462 1.387 . S
C461 H464 0.950 . S
C462 C461 1.387 . S
C462 C465 1.387 . S
H463 C459 0.950 . S
H464 C461 0.950 . S
C465 C456 1.390 . S
C465 H458 0.950 . S
C465 C462 1.387 . S
C466 C467 1.387 . S
C466 H470 0.950 . S
C466 C475 1.390 . S
C467 C466 1.387 . S
C467 C469 1.387 1_556 S
H468 C475 0.950 . S
C469 C467 1.387 1_554 S
C469 C471 1.390 . S
C469 H473 0.950 . S
H470 C466 0.950 . S
C471 C469 1.390 . S
C471 C472 1.387 . S
C471 H474 0.950 . S
C472 C471 1.387 . S
C472 C475 1.387 1_554 S
H473 C469 0.950 . S
H474 C471 0.950 . S
C475 C466 1.390 . S
C475 H468 0.950 . S
C475 C472 1.387 1_556 S
C476 C477 1.387 . S
C476 H480 0.950 . S
C476 C485 1.390 . S
C477 C476 1.387 . S
C477 C479 1.387 . S
H478 C485 0.950 . S
C479 C477 1.387 . S
C479 C481 1.390 . S
C479 H483 0.950 . S
H480 C476 0.950 . S
C481 C479 1.390 . S
C481 C482 1.387 . S
C481 H484 0.950 . S
C482 C481 1.387 . S
C482 C485 1.387 . S
H483 C479 0.950 . S
H484 C481 0.950 . S
C485 C476 1.390 . S
C485 H478 0.950 . S
C485 C482 1.387 . S
C486 C487 1.387 . S
C486 H490 0.950 . S
C486 C495 1.390 . S
C487 C486 1.387 . S
C487 C489 1.387 . S
H488 C495 0.950 . S
C489 C487 1.387 . S
C489 C491 1.390 . S
C489 H493 0.950 . S
H490 C486 0.950 . S
C491 C489 1.390 . S
C491 C492 1.387 . S
C491 H494 0.950 . S
C492 C491 1.387 . S
C492 C495 1.387 . S
H493 C489 0.950 . S
H494 C491 0.950 . S
C495 C486 1.390 . S
C495 H488 0.950 . S
C495 C492 1.387 . S
C496 C497 1.387 . S
C496 H500 0.950 . S
C496 C505 1.390 . S
C497 C496 1.387 . S
C497 C499 1.387 . S
H498 C505 0.950 . S
C499 C497 1.387 . S
C499 C501 1.390 . S
C499 H503 0.950 . S
H500 C496 0.950 . S
C501 C499 1.390 . S
C501 C502 1.387 . S
C501 H504 0.950 . S
C502 C501 1.387 . S
C502 C505 1.387 . S
H503 C499 0.950 . S
H504 C501 0.950 . S
C505 C496 1.390 . S
C505 H498 0.950 . S
C505 C502 1.387 . S
C506 C507 1.387 . S
C506 H510 0.950 . S
C506 C515 1.390 . S
C507 C506 1.387 . S
C507 C509 1.387 . S
H508 C515 0.950 . S
C509 C507 1.387 . S
C509 C511 1.390 . S
C509 H513 0.950 . S
H510 C506 0.950 . S
C511 C509 1.390 . S
C511 C512 1.387 . S
C511 H514 0.950 . S
C512 C511 1.387 . S
C512 C515 1.387 . S
H513 C509 0.950 . S
H514 C511 0.950 . S
C515 C506 1.390 . S
C515 H508 0.950 . S
C515 C512 1.387 . S
C516 C517 1.387 . S
C516 H520 0.950 . S
C516 C525 1.390 . S
C517 C516 1.387 . S
C517 C519 1.387 1_554 S
H518 C525 0.950 . S
C519 C517 1.387 1_556 S
C519 C521 1.390 . S
C519 H523 0.950 . S
H520 C516 0.950 . S
C521 C519 1.390 . S
C521 C522 1.387 . S
C521 H524 0.950 . S
C522 C521 1.387 . S
C522 C525 1.387 1_556 S
H523 C519 0.950 . S
H524 C521 0.950 . S
C525 C516 1.390 . S
C525 H518 0.950 . S
C525 C522 1.387 1_554 S
C526 C527 1.387 . S
C526 H530 0.950 . S
C526 C535 1.390 . S
C527 C526 1.387 . S
C527 C529 1.387 . S
H528 C535 0.950 . S
C529 C527 1.387 . S
C529 C531 1.390 . S
C529 H533 0.950 . S
H530 C526 0.950 . S
C531 C529 1.390 . S
C531 C532 1.387 . S
C531 H534 0.950 . S
C532 C531 1.387 . S
C532 C535 1.387 . S
H533 C529 0.950 . S
H534 C531 0.950 . S
C535 C526 1.390 . S
C535 H528 0.950 . S
C535 C532 1.387 . S
C536 C537 1.387 . S
C536 H540 0.950 . S
C536 C545 1.390 . S
C537 C536 1.387 . S
C537 C539 1.387 . S
H538 C545 0.950 . S
C539 C537 1.387 . S
C539 C541 1.390 . S
C539 H543 0.950 . S
H540 C536 0.950 . S
C541 C539 1.390 . S
C541 C542 1.387 . S
C541 H544 0.950 . S
C542 C541 1.387 . S
C542 C545 1.387 . S
H543 C539 0.950 . S
H544 C541 0.950 . S
C545 C536 1.390 . S
C545 H538 0.950 . S
C545 C542 1.387 . S
C546 C547 1.387 . S
C546 H550 0.950 . S
C546 C555 1.390 . S
C547 C546 1.387 . S
C547 C549 1.387 . S
H548 C555 0.950 . S
C549 C547 1.387 . S
C549 C551 1.390 . S
C549 H553 0.950 . S
H550 C546 0.950 . S
C551 C549 1.390 . S
C551 C552 1.387 . S
C551 H554 0.950 . S
C552 C551 1.387 . S
C552 C555 1.387 . S
H553 C549 0.950 . S
H554 C551 0.950 . S
C555 C546 1.390 . S
C555 H548 0.950 . S
C555 C552 1.387 . S
C556 C557 1.387 . S
C556 H560 0.950 . S
C556 C565 1.390 . S
C557 C556 1.387 . S
C557 C559 1.387 . S
H558 C565 0.950 . S
C559 C557 1.387 . S
C559 C561 1.390 . S
C559 H563 0.950 . S
H560 C556 0.950 . S
C561 C559 1.390 . S
C561 C562 1.387 . S
C561 H564 0.950 . S
C562 C561 1.387 . S
C562 C565 1.387 . S
H563 C559 0.950 . S
H564 C561 0.950 . S
C565 C556 1.390 . S
C565 H558 0.950 . S
C565 C562 1.387 . S
C566 C567 1.387 . S
C566 H570 0.950 . S
C566 C575 1.390 . S
C567 C566 1.387 . S
C567 C569 1.387 . S
H568 C575 0.950 . S
C569 C567 1.387 . S
C569 C571 1.390 . S
C569 H573 0.950 . S
H570 C566 0.950 . S
C571 C569 1.390 . S
C571 C572 1.387 . S
C571 H574 0.950 . S
C572 C571 1.387 . S
C572 C575 1.387 . S
H573 C569 0.950 . S
H574 C571 0.950 . S
C575 C566 1.390 . S
C575 H568 0.950 . S
C575 C572 1.387 . S
C576 C577 1.387 . S
C576 H580 0.950 . S
C576 C585 1.390 . S
C577 C576 1.387 . S
C577 C579 1.387 . S
H578 C585 0.950 . S
C579 C577 1.387 . S
C579 C581 1.390 . S
C579 H583 0.950 . S
H580 C576 0.950 . S
C581 C579 1.390 . S
C581 C582 1.387 . S
C581 H584 0.950 . S
C582 C581 1.387 . S
C582 C585 1.387 . S
H583 C579 0.950 . S
H584 C581 0.950 . S
C585 C576 1.390 . S
C585 H578 0.950 . S
C585 C582 1.387 . S
C586 C587 1.387 . S
C586 H590 0.950 . S
C586 C595 1.390 . S
C587 C586 1.387 . S
C587 C589 1.387 1_655 S
H588 C595 0.950 . S
C589 C587 1.387 1_455 S
C589 C591 1.390 . S
C589 H593 0.950 . S
H590 C586 0.950 . S
C591 C589 1.390 . S
C591 C592 1.387 . S
C591 H594 0.950 . S
C592 C591 1.387 . S
C592 C595 1.387 1_455 S
H593 C589 0.950 . S
H594 C591 0.950 . S
C595 C586 1.390 . S
C595 H588 0.950 . S
C595 C592 1.387 1_655 S
C596 C597 1.387 . S
C596 H600 0.950 . S
C596 C605 1.390 1_565 S
C597 C596 1.387 . S
C597 C599 1.387 . S
H598 C605 0.950 . S
C599 C597 1.387 . S
C599 C601 1.390 1_565 S
C599 H603 0.950 . S
H600 C596 0.950 . S
C601 C599 1.390 1_545 S
C601 C602 1.387 . S
C601 H604 0.950 . S
C602 C601 1.387 . S
C602 C605 1.387 . S
H603 C599 0.950 . S
H604 C601 0.950 . S
C605 C596 1.390 1_545 S
C605 H598 0.950 . S
C605 C602 1.387 . S
C606 C607 1.387 . S
C606 H610 0.950 . S
C606 C615 1.390 . S
C607 C606 1.387 . S
C607 C609 1.387 . S
H608 C615 0.950 . S
C609 C607 1.387 . S
C609 C611 1.390 . S
C609 H613 0.950 . S
H610 C606 0.950 . S
C611 C609 1.390 . S
C611 C612 1.387 . S
C611 H614 0.950 . S
C612 C611 1.387 . S
C612 C615 1.387 . S
H613 C609 0.950 . S
H614 C611 0.950 . S
C615 C606 1.390 . S
C615 H608 0.950 . S
C615 C612 1.387 . S
C616 C617 1.387 . S
C616 H620 0.950 . S
C616 C625 1.390 1_455 S
C617 C616 1.387 . S
C617 C619 1.387 . S
H618 C625 0.950 . S
C619 C617 1.387 . S
C619 C621 1.390 1_455 S
C619 H623 0.950 . S
H620 C616 0.950 . S
C621 C619 1.390 1_655 S
C621 C622 1.387 . S
C621 H624 0.950 . S
C622 C621 1.387 . S
C622 C625 1.387 . S
H623 C619 0.950 . S
H624 C621 0.950 . S
C625 C616 1.390 1_655 S
C625 H618 0.950 . S
C625 C622 1.387 . S
C626 C627 1.387 . S
C626 H630 0.950 . S
C626 C635 1.390 1_564 S
C627 C626 1.387 . S
C627 C629 1.387 . S
H628 C635 0.950 . S
C629 C627 1.387 . S
C629 C631 1.390 1_564 S
C629 H633 0.950 . S
H630 C626 0.950 . S
C631 C629 1.390 1_546 S
C631 C632 1.387 . S
C631 H634 0.950 . S
C632 C631 1.387 . S
C632 C635 1.387 . S
H633 C629 0.950 . S
H634 C631 0.950 . S
C635 C626 1.390 1_546 S
C635 H628 0.950 . S
C635 C632 1.387 . S
C636 C637 1.387 . S
C636 H640 0.950 . S
C636 C645 1.390 . S
C637 C636 1.387 . S
C637 C639 1.387 . S
H638 C645 0.950 . S
C639 C637 1.387 . S
C639 C641 1.390 . S
C639 H643 0.950 1_556 S
H640 C636 0.950 . S
C641 C639 1.390 . S
C641 C642 1.387 . S
C641 H644 0.953 . S
C642 C641 1.387 . S
C642 C645 1.387 . S
H643 C639 0.950 1_554 S
H644 C641 0.953 . S
C645 C636 1.390 . S
C645 H638 0.950 . S
C645 C642 1.387 . S
C646 C647 1.387 . S
C646 H650 0.950 1_554 S
C646 C655 1.390 . S
C647 C646 1.387 . S
C647 C649 1.387 . S
H648 C655 0.950 . S
C649 C647 1.387 . S
C649 C651 1.390 . S
C649 H653 0.950 . S
H650 C646 0.950 1_556 S
C651 C649 1.390 . S
C651 C652 1.387 . S
C651 H654 0.950 . S
C652 C651 1.387 . S
C652 C655 1.387 . S
H653 C649 0.950 . S
H654 C651 0.950 . S
C655 C646 1.390 . S
C655 H648 0.950 . S
C655 C652 1.387 . S
C656 C657 1.387 . S
C656 H660 0.950 . S
C656 C665 1.390 . S
C657 C656 1.387 . S
C657 C659 1.387 . S
H658 C665 0.950 . S
C659 C657 1.387 . S
C659 C661 1.390 . S
C659 H663 0.950 . S
H660 C656 0.950 . S
C661 C659 1.390 . S
C661 C662 1.387 . S
C661 H664 0.950 . S
C662 C661 1.387 . S
C662 C665 1.387 . S
H663 C659 0.950 . S
H664 C661 0.950 . S
C665 C656 1.390 . S
C665 H658 0.950 . S
C665 C662 1.387 . S
C666 C667 1.387 . S
C666 H670 0.950 . S
C666 C675 1.390 . S
C667 C666 1.387 . S
C667 C669 1.387 . S
H668 C675 0.950 . S
C669 C667 1.387 . S
C669 C671 1.390 . S
C669 H673 0.950 . S
H670 C666 0.950 . S
C671 C669 1.390 . S
C671 C672 1.387 . S
C671 H674 0.950 . S
C672 C671 1.387 . S
C672 C675 1.387 . S
H673 C669 0.950 . S
H674 C671 0.950 . S
C675 C666 1.390 . S
C675 H668 0.950 . S
C675 C672 1.387 . S
C676 C677 1.387 . S
C676 H680 0.950 . S
C676 C685 1.390 . S
C677 C676 1.387 . S
C677 C679 1.387 . S
H678 C685 0.950 . S
C679 C677 1.387 . S
C679 C681 1.390 . S
C679 H683 0.950 . S
H680 C676 0.950 . S
C681 C679 1.390 . S
C681 C682 1.387 . S
C681 H684 0.950 . S
C682 C681 1.387 . S
C682 C685 1.387 . S
H683 C679 0.950 . S
H684 C681 0.950 . S
C685 C676 1.390 . S
C685 H678 0.950 . S
C685 C682 1.387 . S
C686 C687 1.387 . S
C686 H690 0.950 . S
C686 C695 1.390 . S
C687 C686 1.387 . S
C687 C689 1.387 . S
H688 C695 0.950 . S
C689 C687 1.387 . S
C689 C691 1.390 . S
C689 H693 0.950 . S
H690 C686 0.950 . S
C691 C689 1.390 . S
C691 C692 1.387 . S
C691 H694 0.950 . S
C692 C691 1.387 . S
C692 C695 1.387 . S
H693 C689 0.950 . S
H694 C691 0.950 . S
C695 C686 1.390 . S
C695 H688 0.950 . S
C695 C692 1.387 . S
C397 N344 1.247 . S
C402 N14 1.246 . S
C407 N47 1.279 . S
C412 N377 1.278 . S
C417 N80 1.279 . S
C422 N212 1.277 . S
C427 N113 1.247 . S
C432 N245 1.246 . S
C437 N146 1.278 . S
C442 N278 1.277 1_556 S
C447 N179 1.275 1_554 S
C452 N311 1.277 . S
C457 N5 1.718 . S
C462 C173 1.743 . S
C467 C8 1.757 . S
C472 N38 1.717 1_455 S
C477 C41 1.762 . S
C482 N71 1.727 1_545 S
C487 N104 1.726 . S
C492 C74 1.761 . S
C497 N137 1.748 1_655 S
C502 C107 1.780 . S
C507 N170 1.732 1_565 S
C512 C140 1.759 . S
C517 C239 1.756 . S
C522 N203 1.719 . S
C527 N236 1.718 1_455 S
C532 C272 1.743 . S
C537 N269 1.730 1_545 S
C542 C305 1.760 . S
C547 N302 1.747 . S
C552 C338 1.781 . S
C557 N335 1.724 1_655 S
C562 C371 1.760 . S
C567 N368 1.727 1_565 S
C572 C206 1.760 . S
C577 C28 1.075 . S
C582 C325 1.072 . S
C587 C61 1.120 . S
C592 C358 1.120 . S
C597 C94 1.112 . S
C602 C391 1.112 . S
C607 C127 1.119 . S
C612 C226 1.120 . S
C617 C160 1.073 . S
C622 C259 1.073 . S
C627 C292 1.103 . S
C632 C193 1.103 . S
C637 C215 1.557 . S
C642 C17 1.557 . S
C647 C50 1.555 . S
C652 C248 1.558 . S
C657 C83 1.571 . S
C662 C281 1.571 . S
C667 C314 1.589 . S
C672 C116 1.593 . S
C677 C149 1.590 . S
C682 C347 1.594 . S
C687 C380 1.571 . S
C692 C182 1.571 . S
