# Generated by pormake.
# Topology wng, (7)-cn, num edge types: 1
# Building blocks:
#     Node 0, Type 0, BuildingBlock: OLANEW_clean_sbu_0, # of connection points: 7
#     Node 1, Type 0, BuildingBlock: OLANEW_clean_sbu_0, # of connection points: 7
#     Node 2, Type 0, BuildingBlock: OLANEW_clean_sbu_0, # of connection points: 7
#     Node 3, Type 0, BuildingBlock: OLANEW_clean_sbu_0, # of connection points: 7
#     Node 4, Type 0, BuildingBlock: OLANEW_clean_sbu_0, # of connection points: 7
#     Node 5, Type 0, BuildingBlock: OLANEW_clean_sbu_0, # of connection points: 7
#     Node 6, Type 0, BuildingBlock: OLANEW_clean_sbu_0, # of connection points: 7
#     Node 7, Type 0, BuildingBlock: OLANEW_clean_sbu_0, # of connection points: 7
#     Node 8, Type 0, BuildingBlock: OLANEW_clean_sbu_0, # of connection points: 7
#     Node 9, Type 0, BuildingBlock: OLANEW_clean_sbu_0, # of connection points: 7
#     Node 10, Type 0, BuildingBlock: OLANEW_clean_sbu_0, # of connection points: 7
#     Node 11, Type 0, BuildingBlock: OLANEW_clean_sbu_0, # of connection points: 7
#     Node 12, Type 0, BuildingBlock: OLANEW_clean_sbu_0, # of connection points: 7
#     Node 13, Type 0, BuildingBlock: OLANEW_clean_sbu_0, # of connection points: 7
#     Node 14, Type 0, BuildingBlock: OLANEW_clean_sbu_0, # of connection points: 7
#     Node 15, Type 0, BuildingBlock: OLANEW_clean_sbu_0, # of connection points: 7
#     Node 16, Type 0, BuildingBlock: OLANEW_clean_sbu_0, # of connection points: 7
#     Node 17, Type 0, BuildingBlock: OLANEW_clean_sbu_0, # of connection points: 7
#     Edge 18, Type (0, 0), BuildingBlock: AJUNOK_clean_linker_0, # of connection points: 2
#     Edge 19, Type (0, 0), BuildingBlock: AJUNOK_clean_linker_0, # of connection points: 2
#     Edge 20, Type (0, 0), BuildingBlock: AJUNOK_clean_linker_0, # of connection points: 2
#     Edge 21, Type (0, 0), BuildingBlock: AJUNOK_clean_linker_0, # of connection points: 2
#     Edge 22, Type (0, 0), BuildingBlock: AJUNOK_clean_linker_0, # of connection points: 2
#     Edge 23, Type (0, 0), BuildingBlock: AJUNOK_clean_linker_0, # of connection points: 2
#     Edge 24, Type (0, 0), BuildingBlock: AJUNOK_clean_linker_0, # of connection points: 2
#     Edge 25, Type (0, 0), BuildingBlock: AJUNOK_clean_linker_0, # of connection points: 2
#     Edge 26, Type (0, 0), BuildingBlock: AJUNOK_clean_linker_0, # of connection points: 2
#     Edge 27, Type (0, 0), BuildingBlock: AJUNOK_clean_linker_0, # of connection points: 2
#     Edge 28, Type (0, 0), BuildingBlock: AJUNOK_clean_linker_0, # of connection points: 2
#     Edge 29, Type (0, 0), BuildingBlock: AJUNOK_clean_linker_0, # of connection points: 2
#     Edge 30, Type (0, 0), BuildingBlock: AJUNOK_clean_linker_0, # of connection points: 2
#     Edge 31, Type (0, 0), BuildingBlock: AJUNOK_clean_linker_0, # of connection points: 2
#     Edge 32, Type (0, 0), BuildingBlock: AJUNOK_clean_linker_0, # of connection points: 2
#     Edge 33, Type (0, 0), BuildingBlock: AJUNOK_clean_linker_0, # of connection points: 2
#     Edge 34, Type (0, 0), BuildingBlock: AJUNOK_clean_linker_0, # of connection points: 2
#     Edge 35, Type (0, 0), BuildingBlock: AJUNOK_clean_linker_0, # of connection points: 2
#     Edge 36, Type (0, 0), BuildingBlock: AJUNOK_clean_linker_0, # of connection points: 2
#     Edge 37, Type (0, 0), BuildingBlock: AJUNOK_clean_linker_0, # of connection points: 2
#     Edge 38, Type (0, 0), BuildingBlock: AJUNOK_clean_linker_0, # of connection points: 2
#     Edge 39, Type (0, 0), BuildingBlock: AJUNOK_clean_linker_0, # of connection points: 2
#     Edge 40, Type (0, 0), BuildingBlock: AJUNOK_clean_linker_0, # of connection points: 2
#     Edge 41, Type (0, 0), BuildingBlock: AJUNOK_clean_linker_0, # of connection points: 2
#     Edge 42, Type (0, 0), BuildingBlock: AJUNOK_clean_linker_0, # of connection points: 2
#     Edge 43, Type (0, 0), BuildingBlock: AJUNOK_clean_linker_0, # of connection points: 2
#     Edge 44, Type (0, 0), BuildingBlock: AJUNOK_clean_linker_0, # of connection points: 2
#     Edge 45, Type (0, 0), BuildingBlock: AJUNOK_clean_linker_0, # of connection points: 2
#     Edge 46, Type (0, 0), BuildingBlock: AJUNOK_clean_linker_0, # of connection points: 2
#     Edge 47, Type (0, 0), BuildingBlock: AJUNOK_clean_linker_0, # of connection points: 2
#     Edge 48, Type (0, 0), BuildingBlock: AJUNOK_clean_linker_0, # of connection points: 2
#     Edge 49, Type (0, 0), BuildingBlock: AJUNOK_clean_linker_0, # of connection points: 2
#     Edge 50, Type (0, 0), BuildingBlock: AJUNOK_clean_linker_0, # of connection points: 2
#     Edge 51, Type (0, 0), BuildingBlock: AJUNOK_clean_linker_0, # of connection points: 2
#     Edge 52, Type (0, 0), BuildingBlock: AJUNOK_clean_linker_0, # of connection points: 2
#     Edge 53, Type (0, 0), BuildingBlock: AJUNOK_clean_linker_0, # of connection points: 2
#     Edge 54, Type (0, 0), BuildingBlock: AJUNOK_clean_linker_0, # of connection points: 2
#     Edge 55, Type (0, 0), BuildingBlock: AJUNOK_clean_linker_0, # of connection points: 2
#     Edge 56, Type (0, 0), BuildingBlock: AJUNOK_clean_linker_0, # of connection points: 2
#     Edge 57, Type (0, 0), BuildingBlock: AJUNOK_clean_linker_0, # of connection points: 2
#     Edge 58, Type (0, 0), BuildingBlock: AJUNOK_clean_linker_0, # of connection points: 2
#     Edge 59, Type (0, 0), BuildingBlock: AJUNOK_clean_linker_0, # of connection points: 2
#     Edge 60, Type (0, 0), BuildingBlock: AJUNOK_clean_linker_0, # of connection points: 2
#     Edge 61, Type (0, 0), BuildingBlock: AJUNOK_clean_linker_0, # of connection points: 2
#     Edge 62, Type (0, 0), BuildingBlock: AJUNOK_clean_linker_0, # of connection points: 2
#     Edge 63, Type (0, 0), BuildingBlock: AJUNOK_clean_linker_0, # of connection points: 2
#     Edge 64, Type (0, 0), BuildingBlock: AJUNOK_clean_linker_0, # of connection points: 2
#     Edge 65, Type (0, 0), BuildingBlock: AJUNOK_clean_linker_0, # of connection points: 2
#     Edge 66, Type (0, 0), BuildingBlock: AJUNOK_clean_linker_0, # of connection points: 2
#     Edge 67, Type (0, 0), BuildingBlock: AJUNOK_clean_linker_0, # of connection points: 2
#     Edge 68, Type (0, 0), BuildingBlock: AJUNOK_clean_linker_0, # of connection points: 2
#     Edge 69, Type (0, 0), BuildingBlock: AJUNOK_clean_linker_0, # of connection points: 2
#     Edge 70, Type (0, 0), BuildingBlock: AJUNOK_clean_linker_0, # of connection points: 2
#     Edge 71, Type (0, 0), BuildingBlock: AJUNOK_clean_linker_0, # of connection points: 2
#     Edge 72, Type (0, 0), BuildingBlock: AJUNOK_clean_linker_0, # of connection points: 2
#     Edge 73, Type (0, 0), BuildingBlock: AJUNOK_clean_linker_0, # of connection points: 2
#     Edge 74, Type (0, 0), BuildingBlock: AJUNOK_clean_linker_0, # of connection points: 2
#     Edge 75, Type (0, 0), BuildingBlock: AJUNOK_clean_linker_0, # of connection points: 2
#     Edge 76, Type (0, 0), BuildingBlock: AJUNOK_clean_linker_0, # of connection points: 2
#     Edge 77, Type (0, 0), BuildingBlock: AJUNOK_clean_linker_0, # of connection points: 2
#     Edge 78, Type (0, 0), BuildingBlock: AJUNOK_clean_linker_0, # of connection points: 2
#     Edge 79, Type (0, 0), BuildingBlock: AJUNOK_clean_linker_0, # of connection points: 2
#     Edge 80, Type (0, 0), BuildingBlock: AJUNOK_clean_linker_0, # of connection points: 2
# Relax obj value: 0.209
# Max RMSD: 0.297
# Mean RMSD: 0.288
data_MOF--net-wng--node1-OLANEW_clean_sbu_0--edge1-AJUNOK_clean_linker_0
_symmetry_space_group_name_H-M    P1
_symmetry_Int_Tables_number       1
_symmetry_cell_setting            triclinic
loop_
_symmetry_equiv_pos_as_xyz
'x, y, z'
_cell_length_a     37.476183
_cell_length_b     37.434314
_cell_length_c     77.4014
_cell_angle_alpha  89.837055
_cell_angle_beta   90.140648
_cell_angle_gamma 119.94599
loop_
_atom_site_label
_atom_site_type_symbol
_atom_site_fract_x
_atom_site_fract_y
_atom_site_fract_z
_atom_type_partial_charge
Cd0 Cd 0.20279 0.47164 0.22601 0.0
C1 C 0.30008 0.51678 0.23798 0.0
C2 C 0.13854 0.2549 0.20448 0.0
O3 O 0.1509 0.24624 0.19001 0.0
Cd4 Cd 0.24549 0.51813 0.26931 0.0
C5 C 0.09464 0.24036 0.20788 0.0
C6 C 0.0171 0.22405 0.21933 0.0
C7 C 0.05248 0.24627 0.22942 0.0
N8 N 0.08832 0.25247 0.22319 0.0
C9 C 0.06067 0.21822 0.19702 0.0
C10 C 0.02156 0.21002 0.20294 0.0
Co11 Co 0.13407 0.2849 0.23619 0.0
C12 C 0.05669 0.26546 0.24657 0.0
O13 O 0.02543 0.26518 0.25437 0.0
C14 C 0.10704 0.31708 0.26651 0.0
C15 C 0.11781 0.35705 0.26162 0.0
C16 C 0.13547 0.38936 0.27344 0.0
C17 C 0.13608 0.38085 0.29076 0.0
C18 C 0.12177 0.34074 0.2965 0.0
C19 C 0.10853 0.30831 0.28428 0.0
C20 C 0.16215 0.43135 0.26736 0.0
C21 C 0.21004 0.30037 0.21497 0.0
C22 C 0.22954 0.32316 0.19969 0.0
C23 C 0.23469 0.2969 0.22771 0.0
C24 C 0.2774 0.31857 0.22645 0.0
C25 C 0.29647 0.34231 0.21191 0.0
C26 C 0.27302 0.34322 0.19794 0.0
N27 N 0.16559 0.27855 0.21721 0.0
N28 N 0.09595 0.28678 0.25304 0.0
N29 N 0.14414 0.33633 0.22519 0.0
C30 C 0.1204 0.33909 0.21113 0.0
C31 C 0.13531 0.34541 0.19417 0.0
C32 C 0.08041 0.33165 0.21413 0.0
C33 C 0.10964 0.34193 0.18019 0.0
H34 H 0.16655 0.35218 0.19193 0.0
C35 C 0.06844 0.33076 0.18341 0.0
C36 C 0.05358 0.32576 0.20039 0.0
C37 C 0.12539 0.34935 0.1622 0.0
H38 H 0.06949 0.32875 0.22721 0.0
H39 H 0.04806 0.32664 0.17271 0.0
C40 C 0.00988 0.31347 0.20376 0.0
O41 O 0.10057 0.34658 0.14895 0.0
O42 O 0.16093 0.35829 0.15925 0.0
O43 O 0.99749 0.3107 0.21858 0.0
O44 O 0.98336 0.30478 0.19047 0.0
H45 H 0.11022 0.35152 0.13712 0.0
H46 H 0.95477 0.29661 0.19239 0.0
N47 N 0.17935 0.31763 0.24931 0.0
C48 C 0.18814 0.29887 0.2619 0.0
C49 C 0.22289 0.32279 0.27212 0.0
C50 C 0.24641 0.36558 0.26857 0.0
C51 C 0.23507 0.38349 0.25503 0.0
C52 C 0.19997 0.35773 0.24537 0.0
N53 N 0.13139 0.23816 0.24907 0.0
C54 C 0.1608 0.2536 0.26183 0.0
O55 O 0.16565 0.22955 0.27285 0.0
C56 C 0.18108 0.3685 0.23094 0.0
O57 O 0.14181 0.45285 0.20924 0.0
O58 O 0.19951 0.47375 0.19553 0.0
C59 C 0.10501 0.19422 0.24607 0.0
C60 C 0.06171 0.17594 0.2465 0.0
C61 C 0.03625 0.13435 0.24221 0.0
C62 C 0.05378 0.10952 0.23976 0.0
C63 C 0.09615 0.1254 0.24158 0.0
C64 C 0.1221 0.1681 0.24413 0.0
O65 O 0.27698 0.5168 0.226 0.0
O66 O 0.28369 0.496 0.25151 0.0
O67 O 0.16956 0.4365 0.25138 0.0
O68 O 0.18491 0.45893 0.27809 0.0
O69 O 0.20176 0.40499 0.22245 0.0
C70 C 0.20421 0.56054 0.24332 0.0
O71 O 0.22306 0.56209 0.25716 0.0
O72 O 0.19547 0.53259 0.23209 0.0
C73 C 0.16143 0.46237 0.19507 0.0
H74 H 0.98728 0.21811 0.22379 0.0
H75 H 0.06415 0.20802 0.18439 0.0
H76 H 0.99478 0.19303 0.1948 0.0
H77 H 0.11565 0.36372 0.24826 0.0
H78 H 0.14955 0.40607 0.29997 0.0
H79 H 0.09937 0.27727 0.28844 0.0
H80 H 0.21118 0.32383 0.18902 0.0
H81 H 0.22106 0.27611 0.23842 0.0
H82 H 0.32973 0.35761 0.21106 0.0
H83 H 0.232 0.309 0.28226 0.0
H84 H 0.27354 0.38479 0.27621 0.0
H85 H 0.253 0.41609 0.2523 0.0
H86 H 0.04749 0.19306 0.25077 0.0
H87 H 0.03382 0.07678 0.2374 0.0
H88 H 0.15509 0.18072 0.24499 0.0
Cd89 Cd 0.53522 0.75692 0.22377 0.0
C90 C 0.4842 0.80589 0.23036 0.0
C91 C 0.74623 0.92144 0.20269 0.0
O92 O 0.75503 0.9447 0.18883 0.0
Cd93 Cd 0.49149 0.7637 0.26431 0.0
C94 C 0.7618 0.89245 0.20502 0.0
C95 C 0.7805 0.83133 0.21442 0.0
C96 C 0.75776 0.84237 0.22525 0.0
N97 N 0.7505 0.87217 0.22 0.0
C98 C 0.78453 0.88291 0.19349 0.0
C99 C 0.79404 0.85211 0.19839 0.0
Co100 Co 0.71842 0.88346 0.23414 0.0
C101 C 0.73977 0.82545 0.2424 0.0
O102 O 0.74149 0.79431 0.24941 0.0
C103 C 0.69061 0.8228 0.26407 0.0
C104 C 0.65085 0.79277 0.25977 0.0
C105 C 0.61894 0.77943 0.27169 0.0
C106 C 0.62794 0.78999 0.28891 0.0
C107 C 0.66833 0.81618 0.29418 0.0
C108 C 0.70026 0.83416 0.28167 0.0
C109 C 0.57732 0.76481 0.26535 0.0
C110 C 0.69989 0.94529 0.21452 0.0
C111 C 0.67993 0.94717 0.19896 0.0
C112 C 0.70004 0.96862 0.22862 0.0
C113 C 0.67647 0.98779 0.22861 0.0
C114 C 0.65496 0.98731 0.2139 0.0
C115 C 0.6593 0.97054 0.19835 0.0
N116 N 0.72231 0.92272 0.21584 0.0
N117 N 0.71912 0.84277 0.25006 0.0
N118 N 0.66686 0.84197 0.22355 0.0
C119 C 0.66322 0.81622 0.20909 0.0
C120 C 0.65632 0.8261 0.19242 0.0
C121 C 0.66834 0.78188 0.21148 0.0
C122 C 0.65529 0.80234 0.17813 0.0
H123 H 0.65235 0.85261 0.19064 0.0
C124 C 0.66112 0.76841 0.18079 0.0
C125 C 0.66794 0.7581 0.19743 0.0
C126 C 0.64856 0.81293 0.1604 0.0
H127 H 0.6734 0.77387 0.22426 0.0
H128 H 0.6606 0.75013 0.16987 0.0
C129 C 0.67554 0.7231 0.20009 0.0
O130 O 0.64556 0.78863 0.14694 0.0
O131 O 0.64534 0.84344 0.15785 0.0
O132 O 0.68233 0.71473 0.21458 0.0
O133 O 0.67537 0.70046 0.18649 0.0
H134 H 0.64059 0.79458 0.13529 0.0
H135 H 0.68046 0.67769 0.18793 0.0
N136 N 0.68595 0.89369 0.24851 0.0
C137 C 0.70508 0.91895 0.26172 0.0
C138 C 0.6811 0.92551 0.27373 0.0
C139 C 0.63784 0.90419 0.27133 0.0
C140 C 0.61949 0.87705 0.2572 0.0
C141 C 0.64539 0.87213 0.24568 0.0
N142 N 0.76538 0.92679 0.24695 0.0
C143 C 0.75045 0.93835 0.26073 0.0
O144 O 0.77492 0.96568 0.27212 0.0
C145 C 0.63431 0.84402 0.2307 0.0
O146 O 0.55456 0.71687 0.20556 0.0
O147 O 0.54261 0.76194 0.19328 0.0
C148 C 0.80908 0.94399 0.24373 0.0
C149 C 0.82727 0.91878 0.24409 0.0
C150 C 0.86871 0.93471 0.23956 0.0
C151 C 0.8933 0.97701 0.23683 0.0
C152 C 0.87744 0.0036 0.23862 0.0
C153 C 0.83501 0.98706 0.24159 0.0
O154 O 0.48423 0.77772 0.22138 0.0
O155 O 0.50713 0.81847 0.24356 0.0
O156 O 0.57211 0.76171 0.24916 0.0
O157 O 0.55153 0.7671 0.27514 0.0
O158 O 0.59681 0.82722 0.22304 0.0
C159 C 0.45029 0.67206 0.24281 0.0
O160 O 0.44976 0.69316 0.2555 0.0
O161 O 0.47715 0.6884 0.23095 0.0
C162 C 0.55149 0.7336 0.19175 0.0
H163 H 0.78748 0.80758 0.21812 0.0
H164 H 0.79427 0.89826 0.18111 0.0
H165 H 0.81159 0.84414 0.18973 0.0
H166 H 0.64384 0.78349 0.2465 0.0
H167 H 0.60317 0.77837 0.29832 0.0
H168 H 0.73148 0.85614 0.28549 0.0
H169 H 0.68154 0.93196 0.18737 0.0
H170 H 0.71961 0.9736 0.23953 0.0
H171 H 0.63728 0.00297 0.2144 0.0
H172 H 0.6951 0.94631 0.28451 0.0
H173 H 0.61853 0.90853 0.28047 0.0
H174 H 0.58642 0.86011 0.25558 0.0
H175 H 0.81014 0.88742 0.24841 0.0
H176 H 0.92594 0.98977 0.2343 0.0
H177 H 0.82237 0.00744 0.24253 0.0
Cd178 Cd 0.24646 0.80985 0.22584 0.0
C179 C 0.19813 0.70999 0.23836 0.0
C180 C 0.08475 0.86145 0.20248 0.0
O181 O 0.06305 0.849 0.18815 0.0
Cd182 Cd 0.25218 0.76957 0.26882 0.0
C183 C 0.11384 0.90552 0.20581 0.0
C184 C 0.17521 0.9834 0.21694 0.0
C185 C 0.16225 0.94822 0.22718 0.0
N186 N 0.13241 0.91223 0.22112 0.0
C187 C 0.12536 0.9393 0.19482 0.0
C188 C 0.15625 0.97862 0.2006 0.0
Co189 Co 0.1196 0.8668 0.23431 0.0
C190 C 0.17759 0.94442 0.24433 0.0
O191 O 0.20856 0.97593 0.25205 0.0
C192 C 0.1777 0.89477 0.26512 0.0
C193 C 0.20899 0.88661 0.26091 0.0
C194 C 0.22499 0.87106 0.27313 0.0
C195 C 0.21276 0.86753 0.29015 0.0
C196 C 0.184 0.87847 0.29525 0.0
C197 C 0.1654 0.89175 0.28269 0.0
C198 C 0.24579 0.84915 0.26752 0.0
C199 C 0.05837 0.78979 0.2132 0.0
C200 C 0.05838 0.76926 0.1976 0.0
C201 C 0.03253 0.76581 0.22661 0.0
C202 C 0.0124 0.72309 0.22601 0.0
C203 C 0.01475 0.7031 0.21135 0.0
C204 C 0.03468 0.72538 0.19633 0.0
N205 N 0.08184 0.83448 0.21521 0.0
N206 N 0.15912 0.90546 0.25119 0.0
N207 N 0.16171 0.85772 0.2237 0.0
C208 C 0.18824 0.88139 0.20968 0.0
C209 C 0.17795 0.86767 0.19261 0.0
C210 C 0.22325 0.91978 0.21289 0.0
C211 C 0.2019 0.8925 0.17876 0.0
H212 H 0.15082 0.83808 0.1902 0.0
C213 C 0.23675 0.93101 0.18226 0.0
C214 C 0.24756 0.94501 0.1993 0.0
C215 C 0.19031 0.87885 0.16061 0.0
H216 H 0.23122 0.9307 0.22596 0.0
H217 H 0.25527 0.95033 0.17168 0.0
C218 C 0.28354 0.9864 0.20288 0.0
O219 O 0.21465 0.90207 0.14749 0.0
O220 O 0.15883 0.84648 0.15741 0.0
O221 O 0.29258 0.99872 0.21775 0.0
O222 O 0.30637 0.0109 0.18973 0.0
H223 H 0.20793 0.89361 0.13557 0.0
H224 H 0.32979 0.03803 0.19178 0.0
N225 N 0.10778 0.82196 0.24767 0.0
C226 C 0.08119 0.81399 0.26053 0.0
C227 C 0.07297 0.78133 0.27171 0.0
C228 C 0.0941 0.75929 0.26892 0.0
C229 C 0.12276 0.77015 0.25524 0.0
C230 C 0.12934 0.80305 0.24456 0.0
N231 N 0.07546 0.86918 0.24696 0.0
C232 C 0.06241 0.84064 0.26007 0.0
O233 O 0.034 0.83629 0.27117 0.0
C234 C 0.15903 0.82217 0.2302 0.0
O235 O 0.28883 0.87208 0.20928 0.0
O236 O 0.24558 0.81715 0.19526 0.0
C237 C 0.05893 0.8965 0.24421 0.0
C238 C 0.08428 0.93965 0.24592 0.0
C239 C 0.0689 0.9662 0.24235 0.0
C240 C 0.02706 0.94949 0.23885 0.0
C241 C 1.00022 0.90688 0.23894 0.0
C242 C 0.01624 0.88019 0.24124 0.0
O243 O 0.2209 0.73586 0.22697 0.0
O244 O 0.19169 0.72291 0.25249 0.0
O245 O 0.24326 0.84006 0.25173 0.0
O246 O 0.25442 0.82965 0.27856 0.0
O247 O 0.17708 0.80277 0.22245 0.0
C248 C 0.33112 0.80292 0.24041 0.0
O249 O 0.31388 0.78674 0.25461 0.0
O250 O 0.31376 0.81386 0.22914 0.0
C251 C 0.2738 0.85474 0.19489 0.0
H252 H 0.19919 0.01333 0.22127 0.0
H253 H 0.11152 0.93553 0.18218 0.0
H254 H 0.1658 0.00526 0.19236 0.0
H255 H 0.21884 0.88937 0.24771 0.0
H256 H 0.22556 0.85573 0.29972 0.0
H257 H 0.14249 0.89981 0.28642 0.0
H258 H 0.07533 0.78721 0.18649 0.0
H259 H 0.0265 0.77988 0.2374 0.0
H260 H 0.99839 0.66973 0.21148 0.0
H261 H 0.05102 0.77296 0.28214 0.0
H262 H 0.08841 0.73395 0.27739 0.0
H263 H 0.13943 0.75382 0.25329 0.0
H264 H 0.11527 0.95276 0.2506 0.0
H265 H 0.01484 0.97011 0.2369 0.0
H266 H 0.99573 0.84713 0.24098 0.0
Cd267 Cd 0.47329 0.1951 0.76873 0.0
C268 C 0.51724 0.29367 0.75613 0.0
C269 C 0.25816 0.14046 0.79383 0.0
O270 O 0.24992 0.15374 0.80814 0.0
Cd271 Cd 0.51366 0.23286 0.72622 0.0
C272 C 0.2429 0.09622 0.79082 0.0
C273 C 0.22596 0.01781 0.78024 0.0
C274 C 0.24791 0.05257 0.76976 0.0
N275 N 0.25412 0.08882 0.77553 0.0
C276 C 0.22098 0.06292 0.80205 0.0
C277 C 0.2123 0.02331 0.79654 0.0
Co278 Co 0.28626 0.13366 0.76199 0.0
C279 C 0.26606 0.05561 0.75248 0.0
O280 O 0.26506 0.02374 0.74489 0.0
C281 C 0.31522 0.10467 0.7314 0.0
C282 C 0.35427 0.11097 0.73531 0.0
C283 C 0.38571 0.12704 0.72306 0.0
C284 C 0.3768 0.13188 0.70618 0.0
C285 C 0.33789 0.12458 0.70161 0.0
C286 C 0.30645 0.11119 0.71423 0.0
C287 C 0.42841 0.15021 0.72874 0.0
C288 C 0.30423 0.21141 0.78262 0.0
C289 C 0.3264 0.23179 0.79791 0.0
C290 C 0.30286 0.23561 0.76915 0.0
C291 C 0.32799 0.27814 0.76926 0.0
C292 C 0.35226 0.29783 0.78357 0.0
C293 C 0.34916 0.2757 0.79879 0.0
N294 N 0.28172 0.16674 0.78086 0.0
N295 N 0.28639 0.09435 0.7454 0.0
N296 N 0.33789 0.1427 0.7724 0.0
C297 C 0.34137 0.11925 0.78644 0.0
C298 C 0.347 0.13397 0.80342 0.0
C299 C 0.33677 0.08025 0.78337 0.0
C300 C 0.34707 0.10955 0.8173 0.0
H301 H 0.35047 0.16404 0.80576 0.0
C302 C 0.34197 0.07038 0.81393 0.0
C303 C 0.33645 0.05531 0.797 0.0
C304 C 0.35138 0.12417 0.83539 0.0
H305 H 0.33229 0.06851 0.77041 0.0
H306 H 0.34171 0.05131 0.82454 0.0
C307 C 0.32909 0.01308 0.79359 0.0
O308 O 0.35352 0.10132 0.84848 0.0
O309 O 0.35301 0.1569 0.83858 0.0
O310 O 0.32382 0.99985 0.77882 0.0
O311 O 0.32772 0.9888 0.80682 0.0
H312 H 0.35651 0.11031 0.86037 0.0
H313 H 0.32268 0.96112 0.80489 0.0
N314 N 0.31897 0.17794 0.74831 0.0
C315 C 0.30004 0.18594 0.73553 0.0
C316 C 0.32413 0.21845 0.72426 0.0
C317 C 0.36731 0.24032 0.72687 0.0
C318 C 0.38544 0.22945 0.74047 0.0
C319 C 0.35949 0.19672 0.75125 0.0
N320 N 0.23927 0.13147 0.74941 0.0
C321 C 0.2547 0.15969 0.73617 0.0
O322 O 0.23069 0.16378 0.72488 0.0
C323 C 0.37058 0.17789 0.7656 0.0
O324 O 0.45856 0.1337 0.78462 0.0
O325 O 0.46864 0.187 0.79947 0.0
C326 C 0.19525 0.10541 0.75243 0.0
C327 C 0.17688 0.06206 0.75271 0.0
C328 C 0.13512 0.03695 0.75672 0.0
C329 C 0.1102 0.05467 0.75817 0.0
C330 C 0.12613 0.0969 0.75562 0.0
C331 C 0.169 0.12266 0.75336 0.0
O332 O 0.51785 0.27004 0.76782 0.0
O333 O 0.49745 0.27803 0.74231 0.0
O334 O 0.4345 0.15958 0.74453 0.0
O335 O 0.45621 0.17054 0.71773 0.0
O336 O 0.40835 0.19759 0.77313 0.0
C337 C 0.56533 0.20317 0.75139 0.0
O338 O 0.56486 0.22009 0.73726 0.0
O339 O 0.53694 0.19319 0.76251 0.0
C340 C 0.46076 0.14983 0.79926 0.0
H341 H 0.21975 0.98765 0.7761 0.0
H342 H 0.21135 0.06725 0.81466 0.0
H343 H 0.19538 0.99701 0.80495 0.0
H344 H 0.36151 0.10735 0.7484 0.0
H345 H 0.40108 0.14377 0.69653 0.0
H346 H 0.27621 0.10605 0.71084 0.0
H347 H 0.32466 0.21365 0.80909 0.0
H348 H 0.28167 0.2219 0.75862 0.0
H349 H 0.37144 0.33102 0.78301 0.0
H350 H 0.31027 0.22684 0.7139 0.0
H351 H 0.38671 0.26554 0.71833 0.0
H352 H 0.4184 0.24571 0.74231 0.0
H353 H 0.19402 0.04742 0.74908 0.0
H354 H 0.07735 0.03487 0.76026 0.0
H355 H 0.18166 0.15558 0.75189 0.0
Cd356 Cd 0.80059 0.23248 0.77652 0.0
C357 C 0.71567 0.20174 0.76609 0.0
C358 C 0.86629 0.08228 0.79241 0.0
O359 O 0.85658 0.06103 0.80689 0.0
Cd360 Cd 0.75921 0.25801 0.72981 0.0
C361 C 0.90937 0.11343 0.78823 0.0
C362 C 0.98388 0.17839 0.77581 0.0
C363 C 0.94718 0.16363 0.76649 0.0
N364 N 0.913 0.13222 0.77315 0.0
C365 C 0.94485 0.12674 0.7983 0.0
C366 C 0.98243 0.15945 0.79187 0.0
Co367 Co 0.86535 0.11714 0.76139 0.0
C368 C 0.93977 0.1786 0.74985 0.0
O369 O 0.96887 0.21101 0.7418 0.0
C370 C 0.88458 0.17588 0.73132 0.0
C371 C 0.87075 0.20261 0.73671 0.0
C372 C 0.84813 0.21298 0.72553 0.0
C373 C 0.84029 0.19772 0.70891 0.0
C374 C 0.86066 0.17868 0.70212 0.0
C375 C 0.88164 0.16549 0.71348 0.0
C376 C 0.82873 0.23628 0.73111 0.0
C377 C 0.79282 0.05457 0.78389 0.0
C378 C 0.77501 0.05641 0.79995 0.0
C379 C 0.76638 0.028 0.77116 0.0
C380 C 0.72379 0.00802 0.77314 0.0
C381 C 0.70642 0.01214 0.78835 0.0
C382 C 0.73149 0.03452 0.80229 0.0
N383 N 0.83707 0.0779 0.78054 0.0
N384 N 0.89975 0.15877 0.74424 0.0
N385 N 0.85488 0.15653 0.77339 0.0
C386 C 0.87991 0.18373 0.78699 0.0
C387 C 0.86975 0.1726 0.80432 0.0
C388 C 0.91661 0.21998 0.78298 0.0
C389 C 0.8967 0.19659 0.81763 0.0
H390 H 0.84133 0.14474 0.80732 0.0
C391 C 0.93375 0.23241 0.81334 0.0
C392 C 0.94408 0.24427 0.79603 0.0
C393 C 0.88681 0.18398 0.83598 0.0
H394 H 0.92444 0.22882 0.76965 0.0
H395 H 0.95478 0.2509 0.8235 0.0
C396 C 0.98408 0.28123 0.79157 0.0
O397 O 0.91212 0.20815 0.84867 0.0
O398 O 0.85559 0.15186 0.83975 0.0
O399 O 0.9934 0.29106 0.77647 0.0
O400 O 0.01068 0.30402 0.80419 0.0
H401 H 0.90607 0.20077 0.86073 0.0
H402 H 0.03699 0.32804 0.80157 0.0
N403 N 0.81816 0.1029 0.74943 0.0
C404 C 0.80982 0.07695 0.73629 0.0
C405 C 0.77507 0.06699 0.72619 0.0
C406 C 0.75132 0.08567 0.73039 0.0
C407 C 0.76242 0.11348 0.74443 0.0
C408 C 0.79744 0.12182 0.75397 0.0
N409 N 0.86915 0.07523 0.74763 0.0
C410 C 0.83858 0.06065 0.73536 0.0
O411 O 0.83393 0.03257 0.72402 0.0
C412 C 0.81724 0.15099 0.76844 0.0
O413 O 0.86854 0.27155 0.78964 0.0
O414 O 0.81473 0.24227 0.80631 0.0
C415 C 0.89692 0.05904 0.74999 0.0
C416 C 0.94011 0.0849 0.74846 0.0
C417 C 0.9669 0.06958 0.75179 0.0
C418 C 0.95038 0.0276 0.75506 0.0
C419 C 0.90785 1.00056 0.75511 0.0
C420 C 0.88099 0.01634 0.75291 0.0
O421 O 0.72534 0.19538 0.78095 0.0
O422 O 0.74485 0.21964 0.75551 0.0
O423 O 0.81894 0.23504 0.74677 0.0
O424 O 0.81417 0.25027 0.71983 0.0
O425 O 0.79708 0.16567 0.77777 0.0
C426 C 0.80517 0.32808 0.76087 0.0
O427 O 0.79175 0.3201 0.74544 0.0
O428 O 0.80672 0.30157 0.77082 0.0
C429 C 0.8535 0.26451 0.80479 0.0
H430 H 0.01247 0.20374 0.77102 0.0
H431 H 0.94363 0.11292 0.81074 0.0
H432 H 0.01031 0.1704 0.79941 0.0
H433 H 0.87582 0.2139 0.74977 0.0
H434 H 0.82086 0.20402 0.70047 0.0
H435 H 0.89553 0.14816 0.70865 0.0
H436 H 0.79453 0.07396 0.81062 0.0
H437 H 0.77851 0.02147 0.75979 0.0
H438 H 0.67323 0.99502 0.78968 0.0
H439 H 0.76641 0.04555 0.71554 0.0
H440 H 0.72439 0.07867 0.72274 0.0
H441 H 0.74469 0.12827 0.74747 0.0
H442 H 0.95298 0.1163 0.74419 0.0
H443 H 0.97111 0.01551 0.75699 0.0
H444 H 0.848 0.99563 0.75335 0.0
Cd445 Cd 0.75605 0.53091 0.76861 0.0
C446 C 0.80423 0.4731 0.75864 0.0
C447 C 0.92168 0.74608 0.79367 0.0
O448 O 0.94452 0.7547 0.80765 0.0
Cd449 Cd 0.75397 0.48733 0.72755 0.0
C450 C 0.89323 0.76216 0.7911 0.0
C451 C 0.83346 0.78221 0.78115 0.0
C452 C 0.84437 0.75907 0.7705 0.0
N453 N 0.87338 0.751 0.77605 0.0
C454 C 0.88382 0.78531 0.80246 0.0
C455 C 0.85366 0.79545 0.79729 0.0
Co456 Co 0.88478 0.7187 0.76205 0.0
C457 C 0.82795 0.7412 0.7533 0.0
O458 O 0.79717 0.74318 0.74609 0.0
C459 C 0.82522 0.69165 0.73191 0.0
C460 C 0.79367 0.65259 0.73626 0.0
C461 C 0.77926 0.62052 0.72443 0.0
C462 C 0.791 0.62872 0.70727 0.0
C463 C 0.81964 0.6684 0.70198 0.0
C464 C 0.83789 0.70048 0.71441 0.0
C465 C 0.76228 0.57874 0.73083 0.0
C466 C 0.94478 0.69882 0.78236 0.0
C467 C 0.94473 0.67839 0.79804 0.0
C468 C 0.97 0.69962 0.76888 0.0
C469 C 0.99095 0.6777 0.76993 0.0
C470 C 0.9892 0.65621 0.78489 0.0
C471 C 0.96803 0.65795 0.79947 0.0
N472 N 0.92293 0.72185 0.78064 0.0
N473 N 0.84522 0.72029 0.74583 0.0
N474 N 0.84222 0.66692 0.77224 0.0
C475 C 0.81707 0.66377 0.78683 0.0
C476 C 0.82681 0.65607 0.8034 0.0
C477 C 0.78453 0.67177 0.78479 0.0
C478 C 0.80542 0.65817 0.81795 0.0
H479 H 0.85155 0.64929 0.80489 0.0
C480 C 0.77477 0.669 0.8157 0.0
C481 C 0.76374 0.67538 0.79912 0.0
C482 C 0.81502 0.64945 0.83554 0.0
H483 H 0.77606 0.67656 0.77206 0.0
H484 H 0.75905 0.67193 0.82686 0.0
C485 C 0.73106 0.68647 0.79679 0.0
O486 O 0.7933 0.65032 0.84929 0.0
O487 O 0.8424 0.64115 0.83771 0.0
O488 O 0.72173 0.69223 0.78232 0.0
O489 O 0.71154 0.69049 0.81066 0.0
H490 H 0.79883 0.64451 0.86087 0.0
H491 H 0.69018 0.69768 0.80942 0.0
N492 N 0.89531 0.68613 0.74785 0.0
C493 C 0.92201 0.70547 0.73508 0.0
C494 C 0.92936 0.68156 0.72332 0.0
C495 C 0.90732 0.63816 0.72546 0.0
C496 C 0.87862 0.6196 0.73909 0.0
C497 C 0.87294 0.64542 0.75038 0.0
N498 N 0.92906 0.76578 0.74963 0.0
C499 C 0.94171 0.75092 0.7362 0.0
O500 O 0.97001 0.7755 0.72515 0.0
C501 C 0.84347 0.63409 0.76486 0.0
O502 O 0.72123 0.54929 0.79038 0.0
O503 O 0.75615 0.52058 0.79881 0.0
C504 C 0.94576 0.80952 0.75273 0.0
C505 C 0.92053 0.82764 0.75158 0.0
C506 C 0.93575 0.869 0.75617 0.0
C507 C 0.97766 0.89364 0.75965 0.0
C508 C 0.00447 0.87789 0.75879 0.0
C509 C 0.98844 0.8355 0.75576 0.0
O510 O 0.78776 0.488 0.76836 0.0
O511 O 0.80205 0.47465 0.74235 0.0
O512 O 0.75021 0.57157 0.74636 0.0
O513 O 0.77064 0.55487 0.72246 0.0
O514 O 0.82447 0.59573 0.77189 0.0
C515 C 0.66704 0.44647 0.75029 0.0
O516 O 0.68422 0.44603 0.73627 0.0
O517 O 0.68708 0.47195 0.76224 0.0
C518 C 0.73275 0.5347 0.8026 0.0
H519 H 0.81021 0.78969 0.77723 0.0
H520 H 0.89881 0.79491 0.81491 0.0
H521 H 0.84577 0.81329 0.80583 0.0
H522 H 0.78382 0.64602 0.74949 0.0
H523 H 0.77833 0.60364 0.69799 0.0
H524 H 0.86131 0.73123 0.71062 0.0
H525 H 0.92804 0.67956 0.80921 0.0
H526 H 0.97568 0.71903 0.75782 0.0
H527 H 0.0073 0.64098 0.78553 0.0
H528 H 0.9513 0.6957 0.71291 0.0
H529 H 0.91232 0.61893 0.71652 0.0
H530 H 0.86121 0.58641 0.74054 0.0
H531 H 0.88969 0.81046 0.74671 0.0
H532 H 0.99002 0.92625 0.76221 0.0
H533 H 0.00892 0.8229 0.75556 0.0
Cd534 Cd 0.8787 0.78751 0.55305 0.0
C535 C 0.96365 0.8463 0.5614 0.0
C536 C 0.81773 0.57109 0.53675 0.0
O537 O 0.82934 0.5613 0.52236 0.0
Cd538 Cd 0.92382 0.84787 0.60032 0.0
C539 C 0.77399 0.5573 0.54037 0.0
C540 C 0.69754 0.54456 0.55171 0.0
C541 C 0.73336 0.56706 0.56151 0.0
N542 N 0.76854 0.57118 0.55541 0.0
C543 C 0.73951 0.53473 0.52982 0.0
C544 C 0.70093 0.52819 0.53571 0.0
Co545 Co 0.815 0.60466 0.56775 0.0
C546 C 0.73869 0.58813 0.5783 0.0
O547 O 0.70819 0.58935 0.58608 0.0
C548 C 0.79102 0.63966 0.59794 0.0
C549 C 0.80555 0.68044 0.59295 0.0
C550 C 0.826 0.71259 0.60461 0.0
C551 C 0.82667 0.70386 0.62195 0.0
C552 C 0.80829 0.66337 0.6279 0.0
C553 C 0.79168 0.63057 0.61575 0.0
C554 C 0.8516 0.75492 0.59853 0.0
C555 C 0.88989 0.61824 0.54634 0.0
C556 C 0.90833 0.64038 0.53085 0.0
C557 C 0.91571 0.6167 0.55906 0.0
C558 C 0.9584 0.63986 0.5575 0.0
C559 C 0.97641 0.66339 0.54275 0.0
C560 C 0.95188 0.66242 0.52885 0.0
N561 N 0.8455 0.59607 0.54901 0.0
N562 N 0.77818 0.60891 0.58453 0.0
N563 N 0.82405 0.65439 0.5558 0.0
C564 C 0.79815 0.65603 0.54243 0.0
C565 C 0.80673 0.65345 0.52504 0.0
C566 C 0.76174 0.65585 0.54677 0.0
C567 C 0.77852 0.64911 0.51204 0.0
H568 H 0.83474 0.65345 0.52178 0.0
C569 C 0.7419 0.64836 0.51666 0.0
C570 C 0.73313 0.65152 0.53402 0.0
C571 C 0.78647 0.64399 0.49369 0.0
H572 H 0.75479 0.65754 0.56014 0.0
H573 H 0.71989 0.64475 0.50674 0.0
C574 C 0.69341 0.64862 0.53888 0.0
O575 O 0.75878 0.63905 0.48136 0.0
O576 O 0.8181 0.64428 0.4896 0.0
O577 O 0.6855 0.65066 0.55404 0.0
O578 O 0.66551 0.64326 0.52659 0.0
H579 H 0.76339 0.63585 0.46931 0.0
H580 H 0.63935 0.64102 0.52948 0.0
N581 N 0.86109 0.63869 0.58013 0.0
C582 C 0.87042 0.62136 0.59313 0.0
C583 C 0.9053 0.64658 0.60306 0.0
C584 C 0.92828 0.68907 0.59878 0.0
C585 C 0.91637 0.7054 0.58481 0.0
C586 C 0.88126 0.67833 0.57543 0.0
N587 N 0.81287 0.55944 0.58147 0.0
C588 C 0.84303 0.57606 0.5939 0.0
O589 O 0.84863 0.55303 0.6052 0.0
C590 C 0.86118 0.68721 0.56083 0.0
O591 O 0.81218 0.76934 0.54035 0.0
O592 O 0.86058 0.7769 0.52292 0.0
C593 C 0.78683 0.51541 0.57872 0.0
C594 C 0.7435 0.497 0.57879 0.0
C595 C 0.71843 0.45573 0.57389 0.0
C596 C 0.73636 0.43131 0.57127 0.0
C597 C 0.77872 0.4473 0.57324 0.0
C598 C 0.80431 0.48974 0.57648 0.0
O599 O 0.95374 0.83111 0.54645 0.0
O600 O 0.936 0.83061 0.57278 0.0
O601 O 0.85811 0.76186 0.58244 0.0
O602 O 0.87171 0.78319 0.60948 0.0
O603 O 0.88057 0.72258 0.55162 0.0
C604 C 0.8734 0.87538 0.57312 0.0
O605 O 0.88597 0.87762 0.58859 0.0
O606 O 0.87278 0.84943 0.5622 0.0
C607 C 0.82405 0.76982 0.52497 0.0
H608 H 0.66817 0.54001 0.55611 0.0
H609 H 0.74222 0.52307 0.51741 0.0
H610 H 0.67377 0.51085 0.52781 0.0
H611 H 0.80344 0.68763 0.57969 0.0
H612 H 0.84234 0.72899 0.63108 0.0
H613 H 0.77938 0.59899 0.61998 0.0
H614 H 0.88918 0.63972 0.52024 0.0
H615 H 0.90305 0.59662 0.57006 0.0
H616 H 0.00965 0.67971 0.54168 0.0
H617 H 0.91477 0.63405 0.61357 0.0
H618 H 0.95536 0.70928 0.60626 0.0
H619 H 0.9337 0.73789 0.58163 0.0
H620 H 0.72907 0.51409 0.58293 0.0
H621 H 0.71671 0.39874 0.56845 0.0
H622 H 0.83733 0.50259 0.57735 0.0
Cd623 Cd 0.21313 0.07447 0.56436 0.0
C624 C 0.1581 0.12423 0.57616 0.0
C625 C 0.42676 0.24122 0.53591 0.0
O626 O 0.43461 0.26278 0.52157 0.0
Cd627 Cd 0.16611 0.06594 0.6068 0.0
C628 C 0.44277 0.21281 0.53886 0.0
C629 C 0.46063 0.15169 0.54921 0.0
C630 C 0.43903 0.1644 0.55989 0.0
N631 N 0.43214 0.19413 0.55419 0.0
C632 C 0.46435 0.20155 0.52744 0.0
C633 C 0.47346 0.17078 0.53282 0.0
Co634 Co 0.39958 0.20601 0.5678 0.0
C635 C 0.42101 0.1487 0.57712 0.0
O636 O 0.42234 0.11781 0.5846 0.0
C637 C 0.37345 0.14905 0.59877 0.0
C638 C 0.33355 0.11849 0.59497 0.0
C639 C 0.30271 0.10528 0.60727 0.0
C640 C 0.31232 0.11933 0.62402 0.0
C641 C 0.35306 0.14465 0.62899 0.0
C642 C 0.38437 0.16137 0.61622 0.0
C643 C 0.26004 0.08325 0.60196 0.0
C644 C 0.37947 0.26466 0.54677 0.0
C645 C 0.35786 0.26247 0.53122 0.0
C646 C 0.38091 0.29131 0.55976 0.0
C647 C 0.35832 0.31155 0.5584 0.0
C648 C 0.33538 0.30745 0.54361 0.0
C649 C 0.33639 0.28464 0.52949 0.0
N650 N 0.40269 0.24316 0.54883 0.0
N651 N 0.40126 0.1673 0.58448 0.0
N652 N 0.34813 0.16255 0.55779 0.0
C653 C 0.34521 0.13588 0.54383 0.0
C654 C 0.34415 0.14737 0.52669 0.0
C655 C 0.34766 0.10029 0.54714 0.0
C656 C 0.3468 0.12434 0.5129 0.0
H657 H 0.34259 0.17498 0.5242 0.0
C658 C 0.349 0.08866 0.5165 0.0
C659 C 0.34957 0.07644 0.5336 0.0
C660 C 0.34859 0.13803 0.49476 0.0
H661 H 0.34959 0.09168 0.56024 0.0
H662 H 0.35098 0.07073 0.50597 0.0
C663 C 0.35362 0.03964 0.53732 0.0
O664 O 0.35005 0.11506 0.48163 0.0
O665 O 0.34878 0.17012 0.49156 0.0
O666 O 0.35427 0.02913 0.55224 0.0
O667 O 0.35689 0.01764 0.52423 0.0
H668 H 0.35105 0.12328 0.46969 0.0
H669 H 0.35972 0.99369 0.52637 0.0
N670 N 0.36663 0.21702 0.58156 0.0
C671 C 0.38564 0.24482 0.59399 0.0
C672 C 0.36148 0.25309 0.60524 0.0
C673 C 0.31818 0.23081 0.60295 0.0
C674 C 0.29997 0.20095 0.5897 0.0
C675 C 0.32605 0.19444 0.57891 0.0
N676 N 0.44615 0.2512 0.57999 0.0
C677 C 0.43103 0.26463 0.59304 0.0
O678 O 0.45533 0.29361 0.6039 0.0
C679 C 0.31509 0.16387 0.5649 0.0
O680 O 0.22395 0.02675 0.54736 0.0
O681 O 0.22016 0.07509 0.53351 0.0
C682 C 0.48983 0.26722 0.57738 0.0
C683 C 0.50727 0.2417 0.57977 0.0
C684 C 0.5492 0.25672 0.57667 0.0
C685 C 0.57458 0.29831 0.57278 0.0
C686 C 0.55905 0.32533 0.57209 0.0
C687 C 0.51642 0.30972 0.57404 0.0
O688 O 0.17403 0.11109 0.56518 0.0
O689 O 0.15551 0.11469 0.59201 0.0
O690 O 0.25148 0.06707 0.58712 0.0
O691 O 0.23505 0.08961 0.61043 0.0
O692 O 0.27641 0.14279 0.55832 0.0
C693 C 0.11922 0.98928 0.57889 0.0
O694 O 0.12348 1.00034 0.59457 0.0
O695 O 0.14491 0.01168 0.56739 0.0
C696 C 0.22461 0.04367 0.53307 0.0
H697 H 0.46704 0.12775 0.55323 0.0
H698 H 0.47324 0.21537 0.51475 0.0
H699 H 0.48997 0.16136 0.52423 0.0
H700 H 0.32556 0.10761 0.58197 0.0
H701 H 0.28794 0.10849 0.63361 0.0
H702 H 0.41605 0.18258 0.61972 0.0
H703 H 0.35856 0.2447 0.52037 0.0
H704 H 0.40113 0.29844 0.57064 0.0
H705 H 0.31951 0.3249 0.54269 0.0
H706 H 0.37537 0.27595 0.61533 0.0
H707 H 0.29876 0.23655 0.61147 0.0
H708 H 0.26686 0.1834 0.58814 0.0
H709 H 0.48918 0.21099 0.58475 0.0
H710 H 0.6074 0.31024 0.57112 0.0
H711 H 0.5041 0.3304 0.57326 0.0
Cd712 Cd 0.92575 0.12964 0.5591 0.0
C713 C 0.87911 0.02777 0.56852 0.0
C714 C 0.77058 0.18889 0.53537 0.0
O715 O 0.7511 0.17781 0.52049 0.0
Cd716 Cd 0.93508 0.09002 0.59982 0.0
C717 C 0.79976 0.23245 0.53958 0.0
C718 C 0.86212 0.30821 0.55216 0.0
C719 C 0.84672 0.27203 0.56195 0.0
N720 N 0.81615 0.23726 0.55531 0.0
C721 C 0.81384 0.26729 0.529 0.0
C722 C 0.84513 0.30555 0.53554 0.0
Co723 Co 0.80162 0.19006 0.56755 0.0
C724 C 0.86004 0.26578 0.57916 0.0
O725 O 0.89084 0.29581 0.58761 0.0
C726 C 0.85598 0.21277 0.59915 0.0
C727 C 0.88752 0.20477 0.5953 0.0
C728 C 0.9006 0.18613 0.60738 0.0
C729 C 0.88579 0.18002 0.62411 0.0
C730 C 0.85531 0.18906 0.62867 0.0
C731 C 0.83979 0.20552 0.61613 0.0
C732 C 0.92075 0.16379 0.60154 0.0
C733 C 0.73935 0.11663 0.54563 0.0
C734 C 0.74382 0.09503 0.53143 0.0
C735 C 0.70617 0.09517 0.55687 0.0
C736 C 0.67937 0.05317 0.55489 0.0
C737 C 0.68445 0.03175 0.54137 0.0
C738 C 0.71616 0.05211 0.52915 0.0
N739 N 0.76566 0.16072 0.54785 0.0
N740 N 0.83983 0.22609 0.58525 0.0
N741 N 0.84443 0.18191 0.55697 0.0
C742 C 0.87169 0.20683 0.54338 0.0
C743 C 0.86171 0.19511 0.5261 0.0
C744 C 0.90666 0.24475 0.54722 0.0
C745 C 0.88528 0.22174 0.51264 0.0
H746 H 0.83494 0.16568 0.52323 0.0
C747 C 0.91954 0.26021 0.51674 0.0
C748 C 0.93042 0.27205 0.53402 0.0
C749 C 0.87398 0.2098 0.49431 0.0
H750 H 0.91467 0.25375 0.56052 0.0
H751 H 0.93766 0.28107 0.50646 0.0
C752 C 0.96562 0.31344 0.53825 0.0
O753 O 0.89704 0.23551 0.48148 0.0
O754 O 0.84397 0.17657 0.49068 0.0
O755 O 0.97467 0.32395 0.55331 0.0
O756 O 0.98761 0.34001 0.52548 0.0
H757 H 0.89045 0.22825 0.46944 0.0
H758 H 0.01045 0.36722 0.52795 0.0
N759 N 0.78799 0.14301 0.57969 0.0
C760 C 0.75886 0.13213 0.59165 0.0
C761 C 0.74763 0.09636 0.60128 0.0
C762 C 0.76822 0.07406 0.59783 0.0
C763 C 0.79928 0.08769 0.58503 0.0
C764 C 0.80885 0.12368 0.57592 0.0
N765 N 0.75644 0.19105 0.5801 0.0
C766 C 0.74135 0.15983 0.59214 0.0
O767 O 0.71233 0.15413 0.60316 0.0
C768 C 0.84032 0.14498 0.56237 0.0
O769 O 0.97612 0.19395 0.54654 0.0
O770 O 0.93182 0.14751 0.52903 0.0
C771 C 0.7398 0.21853 0.57787 0.0
C772 C 0.76562 0.26178 0.57853 0.0
C773 C 0.75005 0.28823 0.57517 0.0
C774 C 0.70767 0.27168 0.57348 0.0
C775 C 0.68067 0.22935 0.57519 0.0
C776 C 0.69666 0.20248 0.57659 0.0
O777 O 0.90011 0.05545 0.5574 0.0
O778 O 0.87674 0.03765 0.58398 0.0
O779 O 0.91988 0.15678 0.58557 0.0
O780 O 0.92852 0.14301 0.61223 0.0
O781 O 0.85858 0.12646 0.55409 0.0
C782 C 0.01624 0.13287 0.57373 0.0
O783 O 1.0019 0.11687 0.58833 0.0
O784 O 0.9943 0.13746 0.56244 0.0
C785 C 0.9638 0.18258 0.53119 0.0
H786 H 0.88662 0.33726 0.55702 0.0
H787 H 0.80179 0.26504 0.51608 0.0
H788 H 0.85664 0.33297 0.52762 0.0
H789 H 0.8996 0.20995 0.58235 0.0
H790 H 0.89721 0.16685 0.63365 0.0
H791 H 0.81593 0.21255 0.61948 0.0
H792 H 0.76799 0.11157 0.52209 0.0
H793 H 0.69953 0.11111 0.56678 0.0
H794 H 0.66158 0.99953 0.53997 0.0
H795 H 0.72371 0.08578 0.61098 0.0
H796 H 0.76011 0.04627 0.60506 0.0
H797 H 0.81527 0.07088 0.58249 0.0
H798 H 0.79709 0.27524 0.58247 0.0
H799 H 0.69535 0.29232 0.57189 0.0
H800 H 0.67572 0.16955 0.57727 0.0
Cd801 Cd 0.10863 0.54946 0.10676 0.0
C802 C 0.16189 0.65531 0.10393 0.0
C803 C 0.89707 0.49822 0.1241 0.0
O804 O 0.88898 0.51074 0.13867 0.0
Cd805 Cd 0.13695 0.59074 0.08179 0.0
C806 C 0.88232 0.45421 0.12079 0.0
C807 C 0.87045 0.37746 0.11043 0.0
C808 C 0.88814 0.41166 0.09939 0.0
N809 N 0.89248 0.44726 0.10514 0.0
C810 C 0.86455 0.42137 0.13252 0.0
C811 C 0.85878 0.38272 0.12719 0.0
Co812 Co 0.92647 0.49307 0.09238 0.0
C813 C 0.90753 0.41558 0.08232 0.0
O814 O 0.90855 0.38446 0.07499 0.0
C815 C 0.95824 0.46565 0.06209 0.0
C816 C 0.99722 0.47566 0.06748 0.0
C817 C 0.03122 0.49772 0.05684 0.0
C818 C 0.02553 0.50325 0.0396 0.0
C819 C 0.98582 0.48529 0.03277 0.0
C820 C 0.95133 0.46777 0.04416 0.0
C821 C 0.07099 0.52221 0.06504 0.0
C822 C 0.94275 0.56982 0.11371 0.0
C823 C 0.9649 0.5889 0.12915 0.0
C824 C 0.93993 0.59512 0.10106 0.0
C825 C 0.96176 0.63792 0.10264 0.0
C826 C 0.98539 0.65653 0.1173 0.0
C827 C 0.9859 0.63245 0.1311 0.0
N828 N 0.92071 0.52522 0.11136 0.0
N829 N 0.92747 0.45445 0.07537 0.0
N830 N 0.9767 0.50096 0.10376 0.0
C831 C 0.9778 0.47703 0.11812 0.0
C832 C 0.97973 0.49087 0.13506 0.0
C833 C 0.97273 0.43777 0.11536 0.0
C834 C 0.97293 0.46445 0.14917 0.0
H835 H 0.98514 0.52169 0.13713 0.0
C836 C 0.96418 0.42391 0.14603 0.0
C837 C 0.96525 0.41065 0.1292 0.0
C838 C 0.97432 0.47875 0.16715 0.0
H839 H 0.97251 0.42738 0.10237 0.0
H840 H 0.95727 0.40282 0.15676 0.0
C841 C 0.95725 0.36813 0.12606 0.0
O842 O 0.96815 0.45317 0.18059 0.0
O843 O 0.98128 0.51379 0.16994 0.0
O844 O 0.95784 0.35653 0.11136 0.0
O845 O 0.94909 0.34188 0.13943 0.0
H846 H 0.96915 0.46189 0.19242 0.0
H847 H 0.9437 0.31403 0.13766 0.0
N848 N 0.96093 0.53845 0.07962 0.0
C849 C 0.94337 0.54897 0.06713 0.0
C850 C 0.9685 0.58427 0.05738 0.0
C851 C 0.01114 0.60646 0.06129 0.0
C852 C 0.02775 0.59335 0.07471 0.0
C853 C 1.00082 0.55785 0.08393 0.0
N854 N 0.88136 0.49246 0.07927 0.0
C855 C 0.89798 0.52263 0.06683 0.0
O856 O 0.87497 0.52867 0.05569 0.0
C857 C 0.00994 0.53753 0.09837 0.0
O858 O 0.08956 0.4867 0.1224 0.0
O859 O 0.10333 0.54119 0.13723 0.0
C860 C 0.8374 0.4651 0.08126 0.0
C861 C 0.81997 0.42206 0.07932 0.0
C862 C 0.7776 0.39544 0.08143 0.0
C863 C 0.75203 0.41201 0.08409 0.0
C864 C 0.76779 0.45462 0.08431 0.0
C865 C 0.81068 0.48132 0.08345 0.0
O866 O 0.16044 0.62357 0.11069 0.0
O867 O 0.13792 0.65071 0.09152 0.0
O868 O 0.07304 0.51558 0.08099 0.0
O869 O 0.09704 0.5561 0.05828 0.0
O870 O 0.04587 0.55671 0.10733 0.0
C871 C 0.20071 0.56464 0.09199 0.0
O872 O 0.20163 0.59386 0.08335 0.0
O873 O 0.16849 0.54029 0.10037 0.0
C874 C 0.09556 0.50413 0.13697 0.0
H875 H 0.86706 0.34818 0.10653 0.0
H876 H 0.85692 0.42569 0.14553 0.0
H877 H 0.84596 0.35705 0.13614 0.0
H878 H 1.00147 0.47029 0.08076 0.0
H879 H 0.05216 0.51901 0.0312 0.0
H880 H 0.92034 0.45535 0.03922 0.0
H881 H 0.96511 0.57021 0.13977 0.0
H882 H 0.91947 0.58201 0.09024 0.0
H883 H 1.00073 0.68978 0.11837 0.0
H884 H 0.95572 0.59479 0.04736 0.0
H885 H 0.03124 0.63397 0.054 0.0
H886 H 0.06029 0.61025 0.07768 0.0
H887 H 0.83844 0.40914 0.07524 0.0
H888 H 0.719 0.3914 0.08512 0.0
H889 H 0.82309 0.51436 0.08391 0.0
Cd890 Cd 0.45453 0.60626 0.10103 0.0
C891 C 0.35222 0.56123 0.09249 0.0
C892 C 0.5001 0.43956 0.12872 0.0
O893 O 0.48562 0.41749 0.14288 0.0
Cd894 Cd 0.41392 0.6075 0.06017 0.0
C895 C 0.54455 0.46831 0.12635 0.0
C896 C 0.6235 0.53129 0.11729 0.0
C897 C 0.59007 0.51807 0.106 0.0
N898 N 0.55341 0.48743 0.1111 0.0
C899 C 0.57649 0.48005 0.13835 0.0
C900 C 0.61635 0.51179 0.13363 0.0
Co901 Co 0.50955 0.47646 0.09715 0.0
C902 C 0.58845 0.53484 0.0889 0.0
O903 O 0.62091 0.56599 0.08176 0.0
C904 C 0.54159 0.53365 0.06627 0.0
C905 C 0.52952 0.5628 0.06888 0.0
C906 C 0.513 0.57485 0.05541 0.0
C907 C 0.51413 0.56229 0.0387 0.0
C908 C 0.52971 0.53607 0.03543 0.0
C909 C 0.54245 0.52034 0.04929 0.0
C910 C 0.48769 0.59325 0.05947 0.0
C911 C 0.43022 0.41704 0.11702 0.0
C912 C 0.41026 0.41912 0.13232 0.0
C913 C 0.40562 0.39113 0.1037 0.0
C914 C 0.36283 0.37134 0.10457 0.0
C915 C 0.34346 0.37498 0.11923 0.0
C916 C 0.36671 0.39698 0.13363 0.0
N917 N 0.47487 0.43808 0.1155 0.0
N918 N 0.55047 0.51655 0.08121 0.0
N919 N 0.50074 0.51902 0.10757 0.0
C920 C 0.52487 0.54589 0.12137 0.0
C921 C 0.51312 0.53463 0.13856 0.0
C922 C 0.5625 0.58146 0.11776 0.0
C923 C 0.5395 0.55769 0.15217 0.0
H924 H 0.48383 0.50738 0.14123 0.0
C925 C 0.57795 0.59227 0.1483 0.0
C926 C 0.58963 0.60455 0.13111 0.0
C927 C 0.52706 0.54603 0.17044 0.0
H928 H 0.57146 0.59037 0.10452 0.0
H929 H 0.59863 0.60992 0.15869 0.0
C930 C 0.63055 0.64076 0.12713 0.0
O931 O 0.55216 0.56915 0.1834 0.0
O932 O 0.49395 0.51568 0.1739 0.0
O933 O 0.64093 0.65107 0.11214 0.0
O934 O 0.65676 0.6624 0.14005 0.0
H935 H 0.54458 0.56232 0.1954 0.0
H936 H 0.68362 0.68596 0.13773 0.0
N937 N 0.46621 0.46643 0.0831 0.0
C938 C 0.45815 0.43965 0.07031 0.0
C939 C 0.42627 0.43222 0.05884 0.0
C940 C 0.40487 0.45408 0.06135 0.0
C941 C 0.41546 0.48258 0.07508 0.0
C942 C 0.44754 0.48833 0.08608 0.0
N943 N 0.51161 0.43204 0.08448 0.0
C944 C 0.48377 0.41978 0.07114 0.0
O945 O 0.47986 0.3919 0.05983 0.0
C946 C 0.46619 0.51761 0.10061 0.0
O947 O 0.51829 0.65923 0.11303 0.0
O948 O 0.4739 0.61371 0.13086 0.0
C949 C 0.53935 0.41585 0.08685 0.0
C950 C 0.5822 0.44178 0.08481 0.0
C951 C 0.60929 0.42661 0.08718 0.0
C952 C 0.59343 0.38461 0.09018 0.0
C953 C 0.55098 0.35723 0.09054 0.0
C954 C 0.52374 0.37292 0.08922 0.0
O955 O 0.38168 0.58399 0.10257 0.0
O956 O 0.35949 0.55324 0.0774 0.0
O957 O 0.48065 0.59621 0.07516 0.0
O958 O 0.46603 0.5973 0.04794 0.0
O959 O 0.44784 0.53755 0.10768 0.0
C960 C 0.44958 0.6923 0.08419 0.0
O961 O 0.43654 0.67654 0.06941 0.0
O962 O 0.45547 0.67228 0.09609 0.0
C963 C 0.50807 0.64655 0.12843 0.0
H964 H 0.65376 0.55613 0.11381 0.0
H965 H 0.5708 0.46603 0.15103 0.0
H966 H 0.64153 0.5217 0.14271 0.0
H967 H 0.52979 0.57354 0.08179 0.0
H968 H 0.50203 0.57222 0.02812 0.0
H969 H 0.55292 0.49855 0.04695 0.0
H970 H 0.42826 0.4363 0.1434 0.0
H971 H 0.41915 0.38427 0.09293 0.0
H972 H 0.31015 0.35764 0.11985 0.0
H973 H 0.41796 0.41025 0.04842 0.0
H974 H 0.38016 0.44901 0.05263 0.0
H975 H 0.39955 0.49977 0.07684 0.0
H976 H 0.59463 0.47303 0.08053 0.0
H977 H 0.61451 0.37271 0.0913 0.0
H978 H 0.49081 0.352 0.08964 0.0
Cd979 Cd 0.39856 0.89693 0.1024 0.0
C980 C 0.44441 0.84276 0.08956 0.0
C981 C 0.56118 0.10659 0.12556 0.0
O982 O 0.58165 0.11608 0.14023 0.0
Cd983 Cd 0.38443 0.84878 0.06202 0.0
C984 C 0.53195 0.12101 0.1214 0.0
C985 C 0.46968 0.13494 0.10903 0.0
C986 C 0.4841 0.11323 0.09935 0.0
N987 N 0.51452 0.10866 0.1059 0.0
C988 C 0.51885 0.14266 0.13188 0.0
C989 C 0.48754 0.14983 0.12546 0.0
Co990 Co 0.52819 0.07558 0.09367 0.0
C991 C 0.47028 0.09369 0.08219 0.0
O992 O 0.44009 0.09439 0.07378 0.0
C993 C 0.47015 0.04227 0.06249 0.0
C994 C 0.4303 0.01004 0.06553 0.0
C995 C 0.41086 0.97735 0.05405 0.0
C996 C 0.42693 0.9817 0.03759 0.0
C997 C 0.46869 0.00967 0.03457 0.0
C998 C 0.49021 0.04181 0.0469 0.0
C999 C 0.39 0.93568 0.0614 0.0
C1000 C 0.58924 0.06187 0.11623 0.0
C1001 C 0.58715 0.04061 0.13192 0.0
C1002 C 0.61831 0.06598 0.1039 0.0
C1003 C 0.641 0.04601 0.10586 0.0
C1004 C 0.63691 0.02307 0.12066 0.0
C1005 C 0.61162 0.02156 0.13427 0.0
N1006 N 0.56512 0.08224 0.11335 0.0
N1007 N 0.4893 0.07303 0.07597 0.0
N1008 N 0.48528 0.0252 0.10455 0.0
C1009 C 0.45979 0.02362 0.11879 0.0
C1010 C 0.47095 0.02086 0.13582 0.0
C1011 C 0.4256 0.0286 0.11587 0.0
C1012 C 0.44935 0.02489 0.14985 0.0
H1013 H 0.49714 0.01673 0.13804 0.0
C1014 C 0.41584 0.03102 0.1466 0.0
C1015 C 0.40378 0.03299 0.12962 0.0
C1016 C 0.46205 0.02359 0.16792 0.0
H1017 H 0.41684 0.03088 0.1029 0.0
H1018 H 0.39927 0.03451 0.15731 0.0
C1019 C 0.36946 0.04122 0.12624 0.0
O1020 O 0.44126 0.02792 0.18124 0.0
O1021 O 0.49132 0.01859 0.17087 0.0
O1022 O 0.35885 0.04266 0.11141 0.0
O1023 O 0.35 0.04765 0.13951 0.0
H1024 H 0.44892 0.02711 0.19312 0.0
H1025 H 0.32782 0.05338 0.13758 0.0
N1026 N 0.54093 0.04186 0.08151 0.0
C1027 C 0.56976 0.05988 0.0694 0.0
C1028 C 0.57991 0.03494 0.05954 0.0
C1029 C 0.55851 0.99197 0.06291 0.0
C1030 C 0.5276 0.97482 0.07579 0.0
C1031 C 0.519 1.00161 0.08507 0.0
N1032 N 0.573 0.12169 0.08085 0.0
C1033 C 0.58782 0.10524 0.06888 0.0
O1034 O 0.61613 0.12821 0.05752 0.0
C1035 C 0.48794 0.99193 0.09878 0.0
O1036 O 0.34783 0.90821 0.11653 0.0
O1037 O 0.39495 0.90852 0.133 0.0
C1038 C 0.58957 0.16599 0.08285 0.0
C1039 C 0.56376 0.18369 0.0829 0.0
C1040 C 0.57959 0.22566 0.08665 0.0
C1041 C 0.62209 0.25129 0.08754 0.0
C1042 C 0.64873 0.23593 0.08468 0.0
C1043 C 0.63273 0.19315 0.08335 0.0
O1044 O 0.42343 0.84709 0.10142 0.0
O1045 O 0.44798 0.86008 0.07503 0.0
O1046 O 0.3973 0.93258 0.07715 0.0
O1047 O 0.37881 0.9052 0.05141 0.0
O1048 O 0.46897 0.95502 0.10695 0.0
C1049 C 0.3133 0.80069 0.09131 0.0
O1050 O 0.3245 0.79819 0.07616 0.0
O1051 O 0.33486 0.83131 0.10097 0.0
C1052 C 0.36176 0.90974 0.13162 0.0
H1053 H 0.44534 0.13988 0.10422 0.0
H1054 H 0.53171 0.15308 0.14464 0.0
H1055 H 0.4768 0.16647 0.1333 0.0
H1056 H 0.41645 0.00738 0.07795 0.0
H1057 H 0.40862 0.95857 0.02806 0.0
H1058 H 0.52158 0.06561 0.04444 0.0
H1059 H 0.56761 0.03968 0.14238 0.0
H1060 H 0.62523 0.0863 0.09304 0.0
H1061 H 0.65611 0.00916 0.12199 0.0
H1062 H 0.60352 0.04801 0.04971 0.0
H1063 H 0.56581 0.97197 0.05551 0.0
H1064 H 0.51105 0.942 0.07827 0.0
H1065 H 0.53222 0.16619 0.07909 0.0
H1066 H 0.63469 0.28422 0.0893 0.0
H1067 H 0.6537 0.18129 0.0821 0.0
Cd1068 Cd 0.54379 0.10555 0.88961 0.0
C1069 C 0.64384 0.16313 0.89832 0.0
C1070 C 0.49754 0.89541 0.8722 0.0
O1071 O 0.50971 0.88587 0.8579 0.0
Cd1072 Cd 0.58815 0.15846 0.93042 0.0
C1073 C 0.45351 0.87994 0.87589 0.0
C1074 C 0.37588 0.86269 0.88766 0.0
C1075 C 0.41155 0.88632 0.89741 0.0
N1076 N 0.44732 0.89252 0.89112 0.0
C1077 C 0.41922 0.85627 0.86539 0.0
C1078 C 0.38003 0.84745 0.8715 0.0
Co1079 Co 0.49311 0.92638 0.90373 0.0
C1080 C 0.41597 0.90614 0.91444 0.0
O1081 O 0.38454 0.90548 0.92226 0.0
C1082 C 0.4658 0.95961 0.93383 0.0
C1083 C 0.46863 0.99617 0.92826 0.0
C1084 C 0.48157 0.0295 0.9393 0.0
C1085 C 0.48339 0.02383 0.95685 0.0
C1086 C 0.48359 0.98889 0.96335 0.0
C1087 C 0.47434 0.95585 0.95155 0.0
C1088 C 0.5064 0.07098 0.93218 0.0
C1089 C 0.56936 0.93961 0.88278 0.0
C1090 C 0.591 0.96168 0.86758 0.0
C1091 C 0.59185 0.93378 0.89582 0.0
C1092 C 0.63448 0.95294 0.89515 0.0
C1093 C 0.65573 0.97631 0.88086 0.0
C1094 C 0.63461 0.97906 0.86632 0.0
N1095 N 0.5248 0.9202 0.88463 0.0
N1096 N 0.45529 0.92796 0.92091 0.0
N1097 N 0.50049 0.97623 0.89229 0.0
C1098 C 0.47682 0.977 0.87774 0.0
C1099 C 0.49195 0.98083 0.86091 0.0
C1100 C 0.43702 0.97072 0.8802 0.0
C1101 C 0.4671 0.97701 0.84656 0.0
H1102 H 0.52266 0.98565 0.85907 0.0
C1103 C 0.42697 0.96986 0.84931 0.0
C1104 C 0.41159 0.96652 0.86611 0.0
C1105 C 0.4825 0.97958 0.82869 0.0
H1106 H 0.42509 0.96776 0.89308 0.0
H1107 H 0.40753 0.96659 0.83835 0.0
C1108 C 0.3686 0.95738 0.86894 0.0
O1109 O 0.45794 0.9748 0.81504 0.0
O1110 O 0.51746 0.98612 0.82618 0.0
O1111 O 0.35518 0.95407 0.8836 0.0
O1112 O 0.34387 0.95224 0.85532 0.0
H1113 H 0.46735 0.97652 0.80327 0.0
H1114 H 0.31572 0.94602 0.85689 0.0
N1115 N 0.53847 0.96081 0.91635 0.0
C1116 C 0.54825 0.94342 0.92918 0.0
C1117 C 0.58258 0.96891 0.93934 0.0
C1118 C 0.60435 0.0117 0.93554 0.0
C1119 C 0.5916 0.02814 0.9219 0.0
C1120 C 0.55703 1.00086 0.91229 0.0
N1121 N 0.49217 0.88108 0.91698 0.0
C1122 C 0.52167 0.8979 0.92967 0.0
O1123 O 0.52757 0.87498 0.94093 0.0
C1124 C 0.53653 0.00975 0.89784 0.0
O1125 O 0.47953 0.08782 0.87608 0.0
O1126 O 0.5278 0.09184 0.85931 0.0
C1127 C 0.46648 0.83696 0.91412 0.0
C1128 C 0.42304 0.81796 0.91395 0.0
C1129 C 0.39847 0.7771 0.90838 0.0
C1130 C 0.41699 0.75318 0.90579 0.0
C1131 C 0.45915 0.76927 0.90861 0.0
C1132 C 0.48433 0.81161 0.91212 0.0
O1133 O 0.61608 0.15854 0.88767 0.0
O1134 O 0.63319 0.14424 0.91265 0.0
O1135 O 0.51244 0.07408 0.91605 0.0
O1136 O 0.53065 0.09984 0.94209 0.0
O1137 O 0.55532 0.04572 0.8889 0.0
C1138 C 0.54405 0.19542 0.90304 0.0
O1139 O 0.56129 0.19784 0.91743 0.0
O1140 O 0.53734 0.16748 0.89215 0.0
C1141 C 0.49224 0.08785 0.86091 0.0
H1142 H 0.34601 0.85631 0.89225 0.0
H1143 H 0.42247 0.84533 0.85289 0.0
H1144 H 0.35298 0.82914 0.86367 0.0
H1145 H 0.46487 1.00018 0.91476 0.0
H1146 H 0.48864 0.04915 0.96521 0.0
H1147 H 0.47419 0.92825 0.95579 0.0
H1148 H 0.57405 0.96392 0.85669 0.0
H1149 H 0.57653 0.91299 0.90633 0.0
H1150 H 0.68894 0.99029 0.8808 0.0
H1151 H 0.59254 0.95637 0.94967 0.0
H1152 H 0.63108 0.03209 0.94316 0.0
H1153 H 0.60797 0.06083 0.91911 0.0
H1154 H 0.40806 0.83411 0.91854 0.0
H1155 H 0.39781 0.72069 0.90272 0.0
H1156 H 0.51727 0.82454 0.91352 0.0
Cd1157 Cd 0.89293 0.40063 0.89176 0.0
C1158 C 0.84453 0.45267 0.90642 0.0
C1159 C 0.10727 0.56191 0.87048 0.0
O1160 O 0.11618 0.58251 0.85584 0.0
Cd1161 Cd 0.86418 0.39076 0.91985 0.0
C1162 C 0.12298 0.53368 0.87457 0.0
C1163 C 0.1399 0.47333 0.88697 0.0
C1164 C 0.11804 0.48726 0.89684 0.0
N1165 N 0.11172 0.51657 0.89019 0.0
C1166 C 0.14483 0.52111 0.86394 0.0
C1167 C 0.15334 0.49066 0.87034 0.0
Co1168 Co 0.07783 0.52897 0.90254 0.0
C1169 C 0.09848 0.47262 0.91394 0.0
O1170 O 0.09923 0.44216 0.92212 0.0
C1171 C 0.04622 0.47087 0.93343 0.0
C1172 C 0.01034 0.43535 0.9287 0.0
C1173 C 0.97639 0.41718 0.93961 0.0
C1174 C 0.98028 0.43042 0.95649 0.0
C1175 C 0.01674 0.46416 0.96233 0.0
C1176 C 0.05001 0.48585 0.9506 0.0
C1177 C 0.93569 0.39614 0.93183 0.0
C1178 C 0.06293 0.58985 0.88045 0.0
C1179 C 0.04157 0.58878 0.86491 0.0
C1180 C 0.06764 0.61843 0.89315 0.0
C1181 C 0.04812 0.64158 0.89178 0.0
C1182 C 0.02548 0.63883 0.87711 0.0
C1183 C 0.02395 0.61465 0.863 0.0
N1184 N 0.08301 0.56537 0.88287 0.0
N1185 N 0.0772 0.49084 0.92021 0.0
N1186 N 0.02752 0.48526 0.89173 0.0
C1187 C 0.02642 0.45986 0.87755 0.0
C1188 C 0.0219 0.46991 0.86054 0.0
C1189 C 0.033 0.4266 0.88048 0.0
C1190 C 0.02518 0.44777 0.84652 0.0
H1191 H 0.01698 0.49568 0.8583 0.0
C1192 C 0.03235 0.4149 0.84978 0.0
C1193 C 0.03644 0.40416 0.86674 0.0
C1194 C 0.02209 0.45933 0.82845 0.0
H1195 H 0.0369 0.41873 0.89343 0.0
H1196 H 0.03513 0.39785 0.83908 0.0
C1197 C 0.04557 0.3704 0.87011 0.0
O1198 O 0.02568 0.43803 0.81514 0.0
O1199 O 0.01631 0.48814 0.82548 0.0
O1200 O 0.04908 0.36114 0.88493 0.0
O1201 O 0.0504 0.3499 0.85681 0.0
H1202 H 0.02373 0.44496 0.80325 0.0
H1203 H 0.05658 0.328 0.85874 0.0
N1204 N 0.0435 0.54046 0.91495 0.0
C1205 C 0.06116 0.56863 0.92736 0.0
C1206 C 0.03583 0.57779 0.93744 0.0
C1207 C 0.99292 0.5561 0.93402 0.0
C1208 C 0.97621 0.52595 0.92081 0.0
C1209 C 0.00331 0.51834 0.91126 0.0
N1210 N 0.12337 0.57456 0.91517 0.0
C1211 C 0.10672 0.58803 0.92757 0.0
O1212 O 0.12977 0.61747 0.9385 0.0
C1213 C 0.99393 0.48777 0.89731 0.0
O1214 O 0.90855 0.35215 0.87936 0.0
O1215 O 0.9042 0.39444 0.8613 0.0
C1216 C 0.16749 0.59109 0.91319 0.0
C1217 C 0.18499 0.56554 0.9155 0.0
C1218 C 0.2266 0.58011 0.91181 0.0
C1219 C 0.25211 0.62168 0.90809 0.0
C1220 C 0.23697 0.64901 0.90753 0.0
C1221 C 0.1943 0.63364 0.90971 0.0
O1222 O 0.8481 0.4337 0.8934 0.0
O1223 O 0.85982 0.45067 0.92073 0.0
O1224 O 0.93401 0.40273 0.91588 0.0
O1225 O 0.90386 0.38352 0.94108 0.0
O1226 O 0.95737 0.46972 0.88868 0.0
C1227 C 0.79532 0.317 0.90496 0.0
O1228 O 0.79917 0.33417 0.91939 0.0
O1229 O 0.824 0.33359 0.89376 0.0
C1230 C 0.90916 0.36356 0.86388 0.0
H1231 H 0.14579 0.44957 0.89175 0.0
H1232 H 0.15429 0.53364 0.85107 0.0
H1233 H 0.16996 0.48018 0.86235 0.0
H1234 H 0.00699 0.4246 0.91564 0.0
H1235 H 0.95361 0.41623 0.96494 0.0
H1236 H 0.07793 0.5131 0.95472 0.0
H1237 H 0.04009 0.56949 0.85424 0.0
H1238 H 0.08814 0.62469 0.90384 0.0
H1239 H 0.01175 0.65829 0.87627 0.0
H1240 H 0.04855 0.60098 0.94746 0.0
H1241 H 0.97264 0.56264 0.9416 0.0
H1242 H 0.94343 0.50914 0.91831 0.0
H1243 H 0.16708 0.53492 0.92052 0.0
H1244 H 0.28473 0.63318 0.90599 0.0
H1245 H 0.18208 0.65439 0.90875 0.0
Cd1246 Cd 0.60657 0.45346 0.89829 0.0
C1247 C 0.55812 0.34773 0.90793 0.0
C1248 C 0.4391 0.50098 0.86957 0.0
O1249 O 0.41731 0.48681 0.85533 0.0
Cd1250 Cd 0.61321 0.41257 0.94009 0.0
C1251 C 0.46786 0.54539 0.87211 0.0
C1252 C 0.53103 0.62407 0.88138 0.0
C1253 C 0.51755 0.59036 0.89256 0.0
N1254 N 0.48677 0.55385 0.88739 0.0
C1255 C 0.47995 0.57758 0.86018 0.0
C1256 C 0.51182 0.61729 0.86501 0.0
Co1257 Co 0.47578 0.50949 0.90112 0.0
C1258 C 0.53432 0.58818 0.90958 0.0
O1259 O 0.56575 0.62031 0.91675 0.0
C1260 C 0.53314 0.54032 0.93166 0.0
C1261 C 0.56324 0.52991 0.9285 0.0
C1262 C 0.57504 0.51181 0.94133 0.0
C1263 C 0.56044 0.50867 0.95805 0.0
C1264 C 0.53377 0.52328 0.962 0.0
C1265 C 0.51887 0.53832 0.94869 0.0
C1266 C 0.59594 0.48953 0.93644 0.0
C1267 C 0.41571 0.43077 0.88103 0.0
C1268 C 0.4188 0.41114 0.86586 0.0
C1269 C 0.38807 0.40608 0.89387 0.0
C1270 C 0.36692 0.36323 0.89255 0.0
C1271 C 0.37143 0.34404 0.87799 0.0
C1272 C 0.39595 0.36764 0.8641 0.0
N1273 N 0.4374 0.47541 0.8827 0.0
N1274 N 0.51574 0.54997 0.91712 0.0
N1275 N 0.51847 0.50103 0.89056 0.0
C1276 C 0.54444 0.52494 0.8765 0.0
C1277 C 0.53259 0.51219 0.85945 0.0
C1278 C 0.57866 0.56385 0.87967 0.0
C1279 C 0.55262 0.53933 0.84561 0.0
H1280 H 0.50685 0.4817 0.85709 0.0
C1281 C 0.58419 0.57971 0.84917 0.0
C1282 C 0.59816 0.59197 0.86614 0.0
C1283 C 0.54029 0.52604 0.82748 0.0
H1284 H 0.58867 0.57324 0.89278 0.0
H1285 H 0.59832 0.60149 0.83868 0.0
C1286 C 0.63212 0.63446 0.86978 0.0
O1287 O 0.56029 0.55224 0.81431 0.0
O1288 O 0.51224 0.49125 0.82432 0.0
O1289 O 0.64379 0.6452 0.88462 0.0
O1290 O 0.65023 0.66164 0.85673 0.0
H1291 H 0.55297 0.54416 0.80238 0.0
H1292 H 0.67233 0.68948 0.85882 0.0
N1293 N 0.46563 0.46551 0.91486 0.0
C1294 C 0.43817 0.45639 0.92744 0.0
C1295 C 0.4301 0.42358 0.9385 0.0
C1296 C 0.45205 0.40233 0.93582 0.0
C1297 C 0.48139 0.41412 0.92237 0.0
C1298 C 0.48777 0.44714 0.91179 0.0
N1299 N 0.43146 0.51119 0.91401 0.0
C1300 C 0.41863 0.48229 0.92698 0.0
O1301 O 0.39073 0.47791 0.93836 0.0
C1302 C 0.51772 0.46679 0.89756 0.0
O1303 O 0.63947 0.5103 0.87741 0.0
O1304 O 0.62898 0.44979 0.87034 0.0
C1305 C 0.41554 0.53926 0.91212 0.0
C1306 C 0.44181 0.58226 0.91365 0.0
C1307 C 0.42673 0.60946 0.91146 0.0
C1308 C 0.38447 0.59367 0.90964 0.0
C1309 C 0.35707 0.55117 0.90988 0.0
C1310 C 0.37259 0.52382 0.91059 0.0
O1311 O 0.56922 0.37794 0.89766 0.0
O1312 O 0.56914 0.35304 0.92365 0.0
O1313 O 0.61451 0.4981 0.92205 0.0
O1314 O 0.58662 0.45652 0.94444 0.0
O1315 O 0.53918 0.44971 0.89084 0.0
C1316 C 0.69755 0.45875 0.91648 0.0
O1317 O 0.68372 0.44453 0.93139 0.0
O1318 O 0.67454 0.46114 0.905 0.0
C1319 C 0.64439 0.48761 0.86664 0.0
H1320 H 0.55601 0.6542 0.88493 0.0
H1321 H 0.46615 0.57218 0.84747 0.0
H1322 H 0.52205 0.64265 0.85598 0.0
H1323 H 0.57466 0.53235 0.91555 0.0
H1324 H 0.57049 0.49547 0.96815 0.0
H1325 H 0.49696 0.54837 0.9515 0.0
H1326 H 0.4378 0.42951 0.85521 0.0
H1327 H 0.38104 0.41966 0.9046 0.0
H1328 H 0.35319 0.3108 0.87708 0.0
H1329 H 0.4076 0.41447 0.94875 0.0
H1330 H 0.44643 0.37685 0.94419 0.0
H1331 H 0.49862 0.39831 0.92048 0.0
H1332 H 0.47335 0.59488 0.91735 0.0
H1333 H 0.37262 0.6148 0.90858 0.0
H1334 H 0.3515 0.49087 0.91036 0.0
Cd1335 Cd 0.78952 0.87728 0.43864 0.0
C1336 C 0.83787 0.97337 0.42725 0.0
C1337 C 0.57796 0.81405 0.46233 0.0
O1338 O 0.56994 0.82462 0.47739 0.0
Cd1339 Cd 0.84081 0.92676 0.3935 0.0
C1340 C 0.56487 0.77085 0.45798 0.0
C1341 C 0.55447 0.69639 0.44519 0.0
C1342 C 0.57328 0.73263 0.43535 0.0
N1343 N 0.57593 0.76668 0.44207 0.0
C1344 C 0.54613 0.73596 0.46863 0.0
C1345 C 0.54059 0.69832 0.46197 0.0
Co1346 Co 0.60741 0.81449 0.43001 0.0
C1347 C 0.59254 0.7397 0.41807 0.0
O1348 O 0.59434 0.71034 0.40953 0.0
C1349 C 0.64048 0.79347 0.39819 0.0
C1350 C 0.68154 0.80658 0.40215 0.0
C1351 C 0.71199 0.82351 0.38949 0.0
C1352 C 0.70092 0.82359 0.37243 0.0
C1353 C 0.65992 0.80783 0.36774 0.0
C1354 C 0.62906 0.79328 0.38068 0.0
C1355 C 0.75535 0.84762 0.39433 0.0
C1356 C 0.61487 0.88612 0.45196 0.0
C1357 C 0.64535 0.91004 0.4645 0.0
C1358 C 0.59537 0.90391 0.44293 0.0
C1359 C 0.60549 0.94436 0.44611 0.0
C1360 C 0.63493 0.96775 0.45849 0.0
C1361 C 0.65547 0.95138 0.46819 0.0
N1362 N 0.59982 0.84254 0.44979 0.0
N1363 N 0.61118 0.77953 0.41215 0.0
N1364 N 0.6588 0.82416 0.44074 0.0
C1365 C 0.66264 0.79886 0.45381 0.0
C1366 C 0.66504 0.80936 0.47129 0.0
C1367 C 0.66167 0.76222 0.4492 0.0
C1368 C 0.66482 0.78274 0.48421 0.0
H1369 H 0.66622 0.83786 0.47476 0.0
C1370 C 0.66219 0.74532 0.47937 0.0
C1371 C 0.66036 0.73468 0.46188 0.0
C1372 C 0.66682 0.79358 0.50276 0.0
H1373 H 0.66076 0.75453 0.43572 0.0
H1374 H 0.66144 0.72438 0.48924 0.0
C1375 C 0.65575 0.69427 0.4569 0.0
O1376 O 0.66705 0.76798 0.51505 0.0
O1377 O 0.6687 0.82588 0.50704 0.0
O1378 O 0.65366 0.68482 0.44167 0.0
O1379 O 0.65322 0.6674 0.46919 0.0
H1380 H 0.66879 0.77463 0.52721 0.0
H1381 H 0.64983 0.64077 0.46624 0.0
N1382 N 0.63968 0.86235 0.41818 0.0
C1383 C 0.62063 0.8738 0.40681 0.0
C1384 C 0.64388 0.91134 0.39815 0.0
C1385 C 0.68638 0.93511 0.40208 0.0
C1386 C 0.70461 0.92125 0.41447 0.0
C1387 C 0.67946 0.88335 0.42253 0.0
N1388 N 0.56034 0.81251 0.41746 0.0
C1389 C 0.57593 0.84497 0.40597 0.0
O1390 O 0.55258 0.8501 0.39468 0.0
C1391 C 0.69041 0.86227 0.4359 0.0
O1392 O 0.77158 0.81041 0.45039 0.0
O1393 O 0.78081 0.85842 0.46859 0.0
C1394 C 0.51617 0.78407 0.41907 0.0
C1395 C 0.49964 0.74086 0.41865 0.0
C1396 C 0.4571 0.71373 0.41994 0.0
C1397 C 0.43044 0.72954 0.41952 0.0
C1398 C 0.44538 0.77181 0.41789 0.0
C1399 C 0.4881 0.79922 0.41877 0.0
O1400 O 0.83596 0.95171 0.44026 0.0
O1401 O 0.81463 0.95512 0.41449 0.0
O1402 O 0.7645 0.8562 0.41008 0.0
O1403 O 0.78216 0.86725 0.38282 0.0
O1404 O 0.72699 0.88133 0.44424 0.0
C1405 C 0.88222 0.88726 0.42307 0.0
O1406 O 0.88032 0.90342 0.40891 0.0
O1407 O 0.85477 0.87698 0.43466 0.0
C1408 C 0.77359 0.82188 0.46598 0.0
H1409 H 0.55127 0.6679 0.44027 0.0
H1410 H 0.53694 0.73778 0.48169 0.0
H1411 H 0.52636 0.67089 0.46994 0.0
H1412 H 0.69019 0.8051 0.41528 0.0
H1413 H 0.72454 0.83634 0.36251 0.0
H1414 H 0.5971 0.78155 0.37723 0.0
H1415 H 0.6605 0.89609 0.47124 0.0
H1416 H 0.57088 0.88595 0.43392 0.0
H1417 H 0.63985 0.99832 0.46087 0.0
H1418 H 0.62976 0.92229 0.38892 0.0
H1419 H 0.70506 0.96439 0.39567 0.0
H1420 H 0.73694 0.93957 0.41764 0.0
H1421 H 0.51867 0.72781 0.41603 0.0
H1422 H 0.39742 0.7084 0.41962 0.0
H1423 H 0.49938 0.83206 0.41833 0.0
Cd1424 Cd 0.12892 0.9233 0.44055 0.0
C1425 C 0.02935 0.87672 0.43439 0.0
C1426 C 0.18278 0.76357 0.45918 0.0
O1427 O 0.16989 0.74195 0.47352 0.0
Cd1428 Cd 0.07496 0.91585 0.39869 0.0
C1429 C 0.22685 0.79311 0.45616 0.0
C1430 C 0.30403 0.8577 0.44613 0.0
C1431 C 0.27014 0.84189 0.43498 0.0
N1432 N 0.23429 0.81092 0.44063 0.0
C1433 C 0.2595 0.80713 0.46794 0.0
C1434 C 0.29841 0.83981 0.46276 0.0
Co1435 Co 0.18915 0.79919 0.42747 0.0
C1436 C 0.26685 0.85791 0.4179 0.0
O1437 O 0.2983 0.88994 0.41067 0.0
C1438 C 0.21755 0.85965 0.39741 0.0
C1439 C 0.20698 0.88868 0.40254 0.0
C1440 C 0.18731 0.90216 0.39123 0.0
C1441 C 0.18557 0.89336 0.37387 0.0
C1442 C 0.2003 0.86836 0.36768 0.0
C1443 C 0.21517 0.84963 0.37954 0.0
C1444 C 0.15966 0.91532 0.39804 0.0
C1445 C 0.11156 0.73719 0.44792 0.0
C1446 C 0.0904 0.7364 0.46343 0.0
C1447 C 0.08792 0.71286 0.4341 0.0
C1448 C 0.04534 0.69477 0.43407 0.0
C1449 C 0.02497 0.6969 0.44863 0.0
C1450 C 0.04653 0.71362 0.46413 0.0
N1451 N 0.1563 0.76043 0.44621 0.0
N1452 N 0.22816 0.83972 0.41086 0.0
N1453 N 0.17994 0.84069 0.43872 0.0
C1454 C 0.20341 0.86638 0.45298 0.0
C1455 C 0.18936 0.85508 0.46995 0.0
C1456 C 0.24181 0.90165 0.45007 0.0
C1457 C 0.21398 0.87802 0.48402 0.0
H1458 H 0.15971 0.82783 0.47212 0.0
C1459 C 0.25261 0.913 0.48084 0.0
C1460 C 0.26686 0.925 0.46389 0.0
C1461 C 0.19986 0.86531 0.50205 0.0
H1462 H 0.25292 0.91053 0.43706 0.0
H1463 H 0.27178 0.93076 0.49159 0.0
C1464 C 0.30832 0.96118 0.46063 0.0
O1465 O 0.22377 0.88767 0.51543 0.0
O1466 O 0.16645 0.83479 0.50493 0.0
O1467 O 0.32103 0.97103 0.44585 0.0
O1468 O 0.33245 0.98331 0.47399 0.0
H1469 H 0.21504 0.88023 0.5273 0.0
H1470 H 0.3596 0.00686 0.47215 0.0
N1471 N 0.14466 0.78845 0.41414 0.0
C1472 C 0.13687 0.76267 0.40096 0.0
C1473 C 0.10415 0.75489 0.38993 0.0
C1474 C 0.08181 0.77551 0.39325 0.0
C1475 C 0.09228 0.80307 0.40734 0.0
C1476 C 0.12523 0.80923 0.41787 0.0
N1477 N 0.19146 0.75569 0.41436 0.0
C1478 C 0.16336 0.74363 0.40114 0.0
O1479 O 0.15898 0.71564 0.3898 0.0
C1480 C 0.14391 0.83767 0.43269 0.0
O1481 O 0.19243 0.97226 0.45437 0.0
O1482 O 0.14496 0.92591 0.47078 0.0
C1483 C 0.21932 0.73965 0.41656 0.0
C1484 C 0.26176 0.76467 0.4129 0.0
C1485 C 0.2886 0.74886 0.41452 0.0
C1486 C 0.27278 0.70763 0.41905 0.0
C1487 C 0.23083 0.68158 0.42208 0.0
C1488 C 0.20386 0.69759 0.42092 0.0
O1489 O 0.05641 0.90261 0.44454 0.0
O1490 O 0.04171 0.86509 0.42151 0.0
O1491 O 0.15779 0.91796 0.41426 0.0
O1492 O 0.13145 0.91316 0.38833 0.0
O1493 O 0.12378 0.854 0.44125 0.0
C1494 C 0.12798 0.00754 0.41999 0.0
O1495 O 0.10745 0.98704 0.40699 0.0
O1496 O 0.13647 0.9905 0.43233 0.0
C1497 C 0.18023 0.9579 0.46941 0.0
H1498 H 0.3335 0.88344 0.44235 0.0
H1499 H 0.25492 0.79439 0.48084 0.0
H1500 H 0.324 0.85174 0.47171 0.0
H1501 H 0.20982 0.89733 0.41589 0.0
H1502 H 0.17146 0.90524 0.36499 0.0
H1503 H 0.22471 0.82832 0.37506 0.0
H1504 H 0.10757 0.75197 0.47492 0.0
H1505 H 0.10211 0.70675 0.42338 0.0
H1506 H 0.99171 0.68213 0.44816 0.0
H1507 H 0.09588 0.73356 0.37926 0.0
H1508 H 0.05642 0.77015 0.38489 0.0
H1509 H 0.07563 0.81927 0.4097 0.0
H1510 H 0.2738 0.79567 0.40819 0.0
H1511 H 0.29362 0.69543 0.42015 0.0
H1512 H 0.17126 0.67768 0.42328 0.0
Cd1513 Cd 0.08176 0.20883 0.43734 0.0
C1514 C 0.13172 0.16216 0.42578 0.0
C1515 C 0.23922 0.42339 0.46252 0.0
O1516 O 0.26122 0.43148 0.47672 0.0
Cd1517 Cd 0.08098 0.16629 0.39346 0.0
C1518 C 0.20952 0.43798 0.45994 0.0
C1519 C 0.148 0.4554 0.4498 0.0
C1520 C 0.16041 0.43353 0.43911 0.0
N1521 N 0.19031 0.42686 0.44474 0.0
C1522 C 0.19857 0.45985 0.47135 0.0
C1523 C 0.16758 0.46871 0.46607 0.0
Co1524 Co 0.20381 0.3963 0.43067 0.0
C1525 C 0.14523 0.41623 0.4217 0.0
O1526 O 0.11434 0.41753 0.41425 0.0
C1527 C 0.14535 0.36803 0.40009 0.0
C1528 C 0.1168 0.32703 0.4037 0.0
C1529 C 0.10434 0.29679 0.39098 0.0
C1530 C 0.11591 0.30825 0.37401 0.0
C1531 C 0.14152 0.34941 0.36962 0.0
C1532 C 0.15719 0.37995 0.38271 0.0
C1533 C 0.08749 0.25374 0.39594 0.0
C1534 C 0.26631 0.38006 0.45039 0.0
C1535 C 0.26606 0.35734 0.46535 0.0
C1536 C 0.29294 0.38465 0.43687 0.0
C1537 C 0.31494 0.36383 0.43693 0.0
C1538 C 0.31311 0.34008 0.45108 0.0
C1539 C 0.29105 0.33854 0.466 0.0
N1540 N 0.24229 0.40084 0.44923 0.0
N1541 N 0.16338 0.39594 0.41444 0.0
N1542 N 0.16286 0.34366 0.44076 0.0
C1543 C 0.13557 0.33885 0.45474 0.0
C1544 C 0.14526 0.3337 0.4717 0.0
C1545 C 0.10082 0.34283 0.45167 0.0
C1546 C 0.12101 0.33352 0.48562 0.0
H1547 H 0.17222 0.33081 0.474 0.0
C1548 C 0.08672 0.33831 0.48229 0.0
C1549 C 0.07659 0.34338 0.46535 0.0
C1550 C 0.13185 0.3294 0.50368 0.0
H1551 H 0.09318 0.34677 0.43864 0.0
H1552 H 0.06819 0.33867 0.49294 0.0
C1553 C 0.04169 0.35072 0.462 0.0
O1554 O 0.10692 0.32672 0.51681 0.0
O1555 O 0.16322 0.32818 0.50679 0.0
O1556 O 0.03348 0.35601 0.44724 0.0
O1557 O 0.01907 0.35215 0.47527 0.0
H1558 H 0.11313 0.32361 0.52868 0.0
H1559 H 0.99642 0.35721 0.47338 0.0
N1560 N 0.21637 0.36531 0.41643 0.0
C1561 C 0.24215 0.38551 0.4035 0.0
C1562 C 0.25067 0.3627 0.3916 0.0
C1563 C 0.23069 0.31937 0.3938 0.0
C1564 C 0.20289 0.29982 0.40763 0.0
C1565 C 0.19598 0.32458 0.41905 0.0
N1566 N 0.24704 0.44467 0.41833 0.0
C1567 C 0.25981 0.43071 0.40459 0.0
O1568 O 0.28732 0.45598 0.39344 0.0
C1569 C 0.16657 0.31198 0.43362 0.0
O1570 O 0.03876 0.22639 0.45438 0.0
O1571 O 0.08183 0.2137 0.46806 0.0
C1572 C 0.26533 0.48829 0.42241 0.0
C1573 C 0.24112 0.50762 0.42317 0.0
C1574 C 0.25875 0.54946 0.42769 0.0
C1575 C 0.30149 0.57303 0.42948 0.0
C1576 C 0.32677 0.55607 0.42668 0.0
C1577 C 0.30872 0.51343 0.42369 0.0
O1578 O 0.10792 0.16111 0.43763 0.0
O1579 O 0.13833 0.18574 0.41298 0.0
O1580 O 0.08746 0.24583 0.41181 0.0
O1581 O 0.08289 0.22741 0.38461 0.0
O1582 O 0.14951 0.27383 0.4408 0.0
C1583 C 0.99479 0.12214 0.41816 0.0
O1584 O 0.0131 0.12218 0.40439 0.0
O1585 O 0.01344 0.14849 0.43007 0.0
C1586 C 0.05366 0.22307 0.46866 0.0
H1587 H 0.12416 0.46196 0.4458 0.0
H1588 H 0.21307 0.46949 0.48388 0.0
H1589 H 0.15857 0.48565 0.47462 0.0
H1590 H 0.10677 0.31797 0.41679 0.0
H1591 H 0.10503 0.28483 0.36401 0.0
H1592 H 0.17791 0.41198 0.37948 0.0
H1593 H 0.24801 0.35567 0.47653 0.0
H1594 H 0.29822 0.40565 0.42643 0.0
H1595 H 0.33131 0.32495 0.45073 0.0
H1596 H 0.27196 0.37762 0.38105 0.0
H1597 H 0.23657 0.30094 0.38475 0.0
H1598 H 0.18702 0.26669 0.4091 0.0
H1599 H 0.20927 0.4912 0.41948 0.0
H1600 H 0.31562 0.606 0.43167 0.0
H1601 H 0.3283 0.50015 0.42176 0.0
C1602 C 0.17887 0.60627 0.25388 0.0
C1603 C 0.19407 0.59319 0.2402 0.0
C1604 C 0.17659 0.64231 0.25255 0.0
C1605 C 0.19043 0.66715 0.23761 0.0
H1606 H 0.17036 0.58944 0.266 0.0
H1607 H 0.16648 0.65204 0.26379 0.0
S1608 S 0.22833 0.64322 0.19743 0.0
N1609 N 0.219 0.60487 0.21067 0.0
N1610 N 0.21569 0.67337 0.20814 0.0
C1611 C 0.20277 0.65258 0.22335 0.0
C1612 C 0.20442 0.6154 0.22466 0.0
C1613 C 0.39421 0.60846 0.25624 0.0
C1614 C 0.4167 0.62884 0.24135 0.0
C1615 C 0.35794 0.5705 0.25512 0.0
C1616 C 0.34244 0.55173 0.23903 0.0
H1617 H 0.40376 0.62269 0.26884 0.0
H1618 H 0.34068 0.55716 0.26688 0.0
S1619 S 0.39238 0.58916 0.19643 0.0
N1620 N 0.42329 0.62504 0.21019 0.0
N1621 N 0.35425 0.5537 0.20812 0.0
C1622 C 0.36588 0.57026 0.22416 0.0
C1623 C 0.4033 0.60879 0.22531 0.0
C1624 C 0.40309 0.83781 0.22869 0.0
C1625 C 0.36946 0.8034 0.23638 0.0
C1626 C 0.44078 0.83876 0.22646 0.0
C1627 C 0.4449 0.80493 0.23148 0.0
H1628 H 0.40067 0.86444 0.22498 0.0
H1629 H 0.46674 0.86598 0.22099 0.0
S1630 S 0.36504 0.70679 0.25089 0.0
N1631 N 0.34218 0.7343 0.24814 0.0
N1632 N 0.41235 0.73601 0.24364 0.0
C1633 C 0.41106 0.77008 0.23855 0.0
C1634 C 0.37335 0.76929 0.24105 0.0
C1635 C 0.63082 0.20727 0.74225 0.0
C1636 C 0.60069 0.19715 0.75507 0.0
C1637 C 0.66685 0.2064 0.74572 0.0
C1638 C 0.67462 0.196 0.7622 0.0
H1639 H 0.62717 0.21693 0.72948 0.0
H1640 H 0.68906 0.21493 0.73544 0.0
S1641 S 0.60261 0.1597 0.79936 0.0
N1642 N 0.57852 0.17082 0.78424 0.0
N1643 N 0.64699 0.16984 0.79079 0.0
C1644 C 0.64359 0.18285 0.77478 0.0
C1645 C 0.60651 0.18338 0.77122 0.0
C1646 C 0.84761 0.40319 0.75862 0.0
C1647 C 0.81631 0.36889 0.76729 0.0
C1648 C 0.8472 0.44027 0.75787 0.0
C1649 C 0.81545 0.4438 0.76579 0.0
H1650 H 0.86967 0.39989 0.75075 0.0
H1651 H 0.86908 0.46464 0.74952 0.0
S1652 S 0.72977 0.36421 0.79199 0.0
N1653 N 0.75589 0.34186 0.78557 0.0
N1654 N 0.75507 0.41177 0.78438 0.0
C1655 C 0.78709 0.41137 0.77633 0.0
C1656 C 0.78749 0.3736 0.777 0.0
C1657 C 0.61334 0.39191 0.76884 0.0
C1658 C 0.62425 0.4139 0.7532 0.0
C1659 C 0.57639 0.35435 0.77029 0.0
C1660 C 0.54912 0.33792 0.75618 0.0
H1661 H 0.63488 0.402 0.77954 0.0
H1662 H 0.57065 0.33683 0.78213 0.0
S1663 S 0.55992 0.38955 0.71383 0.0
N1664 N 0.60259 0.4207 0.72441 0.0
N1665 N 0.5325 0.35087 0.72714 0.0
C1666 C 0.55771 0.36235 0.74117 0.0
C1667 C 0.59559 0.40014 0.73966 0.0
C1668 C 0.83963 0.91642 0.57862 0.0
C1669 C 0.86351 0.90698 0.56765 0.0
C1670 C 0.84075 0.95419 0.5773 0.0
C1671 C 0.86661 0.98417 0.56524 0.0
H1672 H 0.82249 0.89584 0.58914 0.0
H1673 H 0.82415 0.96133 0.58685 0.0
S1674 S 0.9306 0.9714 0.53199 0.0
N1675 N 0.90946 0.92773 0.54299 0.0
N1676 N 0.91236 0.99937 0.54059 0.0
C1677 C 0.8872 0.97319 0.55299 0.0
C1678 C 0.88559 0.93437 0.55424 0.0
C1679 C 0.04011 0.88923 0.5578 0.0
C1680 C 0.0032 0.88379 0.56492 0.0
C1681 C 0.07814 0.92385 0.56211 0.0
C1682 C 0.07997 0.95343 0.57378 0.0
H1683 H 0.03964 0.86623 0.54919 0.0
H1684 H 0.10616 0.92701 0.55664 0.0
S1685 S 0.99163 0.9572 0.59321 0.0
N1686 N 0.9708 0.91408 0.58197 0.0
N1687 N 0.04177 0.97768 0.59069 0.0
C1688 C 0.04317 0.94911 0.58032 0.0
C1689 C 0.00483 0.91457 0.57573 0.0
C1690 C 0.08929 0.16708 0.58204 0.0
C1691 C 0.05863 0.14402 0.56984 0.0
C1692 C 0.12613 0.16636 0.5822 0.0
C1693 C 0.13268 0.14167 0.57044 0.0
H1694 H 0.08323 0.18265 0.59244 0.0
H1695 H 0.14726 0.18106 0.59286 0.0
S1696 S 0.06446 0.08178 0.53413 0.0
N1697 N 0.03938 0.10153 0.54411 0.0
N1698 N 0.10849 0.09914 0.5446 0.0
C1699 C 0.10456 0.12301 0.55679 0.0
C1700 C 0.06719 0.12419 0.55653 0.0
C1701 C 0.27641 0.5983 0.09439 0.0
C1702 C 0.23825 0.56168 0.09358 0.0
C1703 C 0.31308 0.59736 0.09529 0.0
C1704 C 0.31289 0.55977 0.09504 0.0
H1705 H 0.278 0.62802 0.09418 0.0
H1706 H 0.34194 0.62636 0.09534 0.0
S1707 S 0.22138 0.45525 0.09399 0.0
N1708 N 0.20224 0.48662 0.09373 0.0
N1709 N 0.272 0.48512 0.09455 0.0
C1710 C 0.27513 0.52286 0.09465 0.0
C1711 C 0.2375 0.52374 0.0942 0.0
C1712 C 0.47215 0.76381 0.07455 0.0
C1713 C 0.45586 0.73379 0.08761 0.0
C1714 C 0.47187 0.80089 0.07609 0.0
C1715 C 0.45429 0.80897 0.09058 0.0
H1716 H 0.48381 0.75794 0.06274 0.0
H1717 H 0.48325 0.82218 0.0653 0.0
S1718 S 0.41146 0.74155 0.12919 0.0
N1719 N 0.4254 0.71577 0.11621 0.0
N1720 N 0.4238 0.78509 0.11906 0.0
C1721 C 0.44054 0.78029 0.10431 0.0
C1722 C 0.44149 0.74272 0.10281 0.0
C1723 C 0.27458 0.73015 0.10264 0.0
C1724 C 0.27536 0.76665 0.09798 0.0
C1725 C 0.2374 0.69487 0.10658 0.0
C1726 C 0.19993 0.69499 0.10553 0.0
H1727 H 0.3026 0.7284 0.10246 0.0
H1728 H 0.23782 0.66655 0.10901 0.0
S1729 S 0.18695 0.78457 0.09543 0.0
N1730 N 0.23708 0.80263 0.09396 0.0
N1731 N 0.1664 0.7355 0.10089 0.0
C1732 C 0.2008 0.73213 0.10187 0.0
C1733 C 0.23884 0.76827 0.09815 0.0
C1734 C 0.56072 0.25966 0.88768 0.0
C1735 C 0.53444 0.22772 0.89885 0.0
C1736 C 0.56375 0.29844 0.88875 0.0
C1737 C 0.54081 0.30591 0.90112 0.0
H1738 H 0.58228 0.25613 0.87956 0.0
H1739 H 0.58778 0.32377 0.88146 0.0
S1740 S 0.46052 0.22917 0.93 0.0
N1741 N 0.47964 0.20343 0.92005 0.0
N1742 N 0.48551 0.27653 0.92213 0.0
C1743 C 0.51056 0.27264 0.91056 0.0
C1744 C 0.50742 0.23332 0.90945 0.0
C1745 C 0.75695 0.2435 0.89524 0.0
C1746 C 0.75678 0.2789 0.90119 0.0
C1747 C 0.72 0.20563 0.89391 0.0
C1748 C 0.68222 0.20281 0.89809 0.0
H1749 H 0.78581 0.24471 0.89237 0.0
H1750 H 0.721 0.17843 0.88992 0.0
S1751 S 0.66554 0.28721 0.91315 0.0
N1752 N 0.71588 0.30907 0.91065 0.0
N1753 N 0.64669 0.23846 0.90767 0.0
C1754 C 0.68177 0.23833 0.90341 0.0
C1755 C 0.71908 0.27636 0.90507 0.0
C1756 C 0.78316 0.45272 0.89366 0.0
C1757 C 0.81397 0.46683 0.90647 0.0
C1758 C 0.74655 0.45355 0.89634 0.0
C1759 C 0.73952 0.46809 0.91197 0.0
H1760 H 0.78569 0.43778 0.88213 0.0
H1761 H 0.72232 0.43959 0.88674 0.0
S1762 S 0.81409 0.51748 0.9477 0.0
N1763 N 0.83806 0.50326 0.93384 0.0
N1764 N 0.76864 0.50325 0.93904 0.0
C1765 C 0.77165 0.48618 0.92403 0.0
C1766 C 0.80914 0.48611 0.92119 0.0
C1767 C 0.91895 0.85437 0.43769 0.0
C1768 C 0.91943 0.88431 0.42644 0.0
C1769 C 0.95477 0.85176 0.44042 0.0
C1770 C 0.99183 0.8794 0.43216 0.0
H1771 H 0.89074 0.83253 0.44416 0.0
H1772 H 0.95346 0.82806 0.4489 0.0
S1773 S 0.01004 0.96528 0.40283 0.0
N1774 N 0.96081 0.94315 0.40776 0.0
N1775 N 0.02726 0.93859 0.41335 0.0
C1776 C 0.99267 0.90984 0.42138 0.0
C1777 C 0.95665 0.91224 0.41839 0.0
C1778 C 0.1383 0.10494 0.43904 0.0
C1779 C 0.13951 0.12735 0.42422 0.0
C1780 C 0.13789 0.06742 0.43768 0.0
C1781 C 0.13794 0.05081 0.42143 0.0
H1782 H 0.13586 0.11557 0.45176 0.0
H1783 H 0.13478 0.05013 0.44938 0.0
S1784 S 0.14654 0.09983 0.37875 0.0
N1785 N 0.14537 0.13225 0.39282 0.0
N1786 N 0.14395 0.06154 0.39033 0.0
C1787 C 0.1421 0.07427 0.40658 0.0
C1788 C 0.14309 0.11266 0.40795 0.0
C1789 C 0.93942 0.06989 0.43702 0.0
C1790 C 0.95198 0.08866 0.42075 0.0
C1791 C 0.90158 0.03355 0.43911 0.0
C1792 C 0.87466 0.01489 0.42505 0.0
H1793 H 0.95992 0.08205 0.44803 0.0
H1794 H 0.89408 0.01923 0.45176 0.0
S1795 S 0.89042 0.05681 0.38035 0.0
N1796 N 0.93279 0.08935 0.39079 0.0
N1797 N 0.86124 0.02145 0.39466 0.0
C1798 C 0.88556 0.03536 0.40895 0.0
C1799 C 0.92436 0.07211 0.40681 0.0
C1800 C 0.16901 0.49921 0.16787 0.0
C1801 C 0.14318 0.46775 0.17931 0.0
C1802 C 0.15261 0.51027 0.15414 0.0
C1803 C 0.11008 0.48957 0.15119 0.0
H1804 H 0.20198 0.51687 0.16997 0.0
H1805 H 0.17336 0.53559 0.14587 0.0
S1806 S 0.02971 0.4029 0.17631 0.0
N1807 N 0.07309 0.41528 0.18655 0.0
N1808 N 0.04271 0.43442 0.15958 0.0
C1809 C 0.08402 0.45671 0.16184 0.0
C1810 C 0.10053 0.44623 0.17628 0.0
C1811 C 0.53533 0.65507 0.15815 0.0
C1812 C 0.53017 0.67279 0.14309 0.0
C1813 C 0.54698 0.677 0.17364 0.0
C1814 C 0.55139 0.7165 0.17469 0.0
H1815 H 0.52764 0.6232 0.15824 0.0
H1816 H 0.54883 0.66139 0.18512 0.0
S1817 S 0.54121 0.77635 0.13856 0.0
N1818 N 0.53239 0.73262 0.1297 0.0
N1819 N 0.55123 0.77309 0.15909 0.0
C1820 C 0.54798 0.73525 0.15946 0.0
C1821 C 0.53792 0.71348 0.14356 0.0
C1822 C 0.33247 0.90907 0.17808 0.0
C1823 C 0.29209 0.87525 0.17837 0.0
C1824 C 0.35444 0.92238 0.16257 0.0
C1825 C 0.33611 0.90353 0.14686 0.0
H1826 H 0.34844 0.92316 0.19001 0.0
H1827 H 0.38659 0.94588 0.16301 0.0
S1828 S 0.22978 0.81681 0.14043 0.0
N1829 N 0.23378 0.82505 0.16146 0.0
N1830 N 0.27437 0.85175 0.13224 0.0
C1831 C 0.29459 0.87226 0.14678 0.0
C1832 C 0.27269 0.85773 0.16259 0.0
C1833 C 0.46538 0.09406 0.81479 0.0
C1834 C 0.45889 0.12797 0.81534 0.0
C1835 C 0.47298 0.07848 0.82993 0.0
C1836 C 0.47262 0.09521 0.84605 0.0
H1837 H 0.46783 0.08151 0.80254 0.0
H1838 H 0.48165 0.05501 0.82893 0.0
S1839 S 0.4536 0.18174 0.85462 0.0
N1840 N 0.45025 0.17621 0.83343 0.0
N1841 N 0.46246 0.14542 0.86192 0.0
C1842 C 0.46264 0.1267 0.8469 0.0
C1843 C 0.45626 0.14348 0.8315 0.0
C1844 C 0.90852 0.32788 0.81855 0.0
C1845 C 0.87823 0.28606 0.81992 0.0
C1846 C 0.92154 0.35304 0.83323 0.0
C1847 C 0.90589 0.3365 0.84961 0.0
H1848 H 0.9188 0.34216 0.80598 0.0
H1849 H 0.94152 0.38592 0.83162 0.0
S1850 S 0.83102 0.22739 0.86005 0.0
N1851 N 0.83616 0.22842 0.83887 0.0
N1852 N 0.86271 0.2749 0.86658 0.0
C1853 C 0.87949 0.29375 0.85128 0.0
C1854 C 0.86515 0.26862 0.83635 0.0
C1855 C 0.69018 0.48353 0.8451 0.0
C1856 C 0.66995 0.50402 0.85119 0.0
C1857 C 0.71259 0.49558 0.82984 0.0
C1858 C 0.71483 0.52803 0.81989 0.0
H1859 H 0.68829 0.45747 0.85207 0.0
H1860 H 0.72654 0.47791 0.82544 0.0
S1861 S 0.67175 0.59482 0.83119 0.0
N1862 N 0.65752 0.56134 0.84727 0.0
N1863 N 0.69786 0.58253 0.81768 0.0
C1864 C 0.69632 0.55001 0.82614 0.0
C1865 C 0.67438 0.53843 0.84207 0.0
C1866 C 0.95806 0.60581 0.82306 0.0
C1867 C 0.97892 0.64648 0.81645 0.0
C1868 C 0.97309 0.59447 0.83775 0.0
C1869 C 0.01 0.62322 0.84604 0.0
H1870 H 0.93025 0.58265 0.81677 0.0
H1871 H 0.95555 0.56337 0.84276 0.0
S1872 S 0.07747 0.73224 0.83286 0.0
N1873 N 0.03892 0.71448 0.81897 0.0
N1874 N 0.06752 0.69332 0.84585 0.0
C1875 C 0.03127 0.66342 0.83917 0.0
C1876 C 0.01572 0.67497 0.8246 0.0
C1877 C 0.3634 0.33615 0.81773 0.0
C1878 C 0.36558 0.29974 0.81542 0.0
C1879 C 0.37636 0.35933 0.83297 0.0
C1880 C 0.39117 0.34694 0.84705 0.0
H1881 H 0.34994 0.34642 0.80791 0.0
H1882 H 0.37241 0.386 0.83408 0.0
S1883 S 0.40715 0.25676 0.84799 0.0
N1884 N 0.38767 0.25473 0.82859 0.0
N1885 N 0.40983 0.29732 0.85766 0.0
C1886 C 0.39464 0.31134 0.84505 0.0
C1887 C 0.38225 0.28797 0.82924 0.0
C1888 C 0.68725 0.98263 0.84521 0.0
C1889 C 0.65911 0.99574 0.84985 0.0
C1890 C 0.71273 0.99809 0.83062 0.0
C1891 C 0.71127 0.0272 0.81964 0.0
H1892 H 0.68923 0.95938 0.85285 0.0
H1893 H 0.73251 0.98563 0.82744 0.0
S1894 S 0.64483 0.07373 0.82583 0.0
N1895 N 0.63299 0.04162 0.84235 0.0
N1896 N 0.67986 0.06951 0.81446 0.0
C1897 C 0.68362 0.04108 0.82401 0.0
C1898 C 0.65781 0.02562 0.83914 0.0
C1899 C 0.62167 0.95338 0.16909 0.0
C1900 C 0.64593 0.98234 0.18184 0.0
C1901 C 0.60827 0.96545 0.15412 0.0
C1902 C 0.61781 0.00674 0.15148 0.0
H1903 H 0.61305 0.9213 0.17066 0.0
H1904 H 0.59097 0.9425 0.14437 0.0
S1905 S 0.68379 0.09507 0.1798 0.0
N1906 N 0.68173 0.05499 0.18969 0.0
N1907 N 0.65494 0.07651 0.16236 0.0
C1908 C 0.64197 0.03567 0.16406 0.0
C1909 C 0.6564 0.02381 0.17896 0.0
C1910 C 0.97374 0.64455 0.16162 0.0
C1911 C 1.00189 0.65308 0.14819 0.0
C1912 C 0.98499 0.6684 0.17672 0.0
C1913 C 0.0254 0.70163 0.17953 0.0
H1914 H 0.94196 0.62042 0.16009 0.0
H1915 H 0.961 0.66112 0.18615 0.0
S1916 S 0.11207 0.7348 0.14859 0.0
N1917 N 0.07254 0.69635 0.13861 0.0
N1918 N 0.09446 0.74006 0.16743 0.0
C1919 C 0.05441 0.70987 0.1663 0.0
C1920 C 0.04255 0.68584 0.15063 0.0
C1921 C 0.33805 0.35128 0.15911 0.0
C1922 C 0.34519 0.38744 0.15061 0.0
C1923 C 0.31342 0.33699 0.17392 0.0
C1924 C 0.29461 0.35809 0.18099 0.0
H1925 H 0.35114 0.33338 0.15404 0.0
H1926 H 0.30922 0.30906 0.18002 0.0
S1927 S 0.30374 0.4549 0.16375 0.0
N1928 N 0.33128 0.4443 0.15021 0.0
N1929 N 0.28537 0.41775 0.17843 0.0
C1930 C 0.30136 0.39447 0.17266 0.0
C1931 C 0.32657 0.40907 0.15739 0.0
C1932 C 0.77699 0.79061 0.51176 0.0
C1933 C 0.80011 0.77065 0.51008 0.0
C1934 C 0.76537 0.80444 0.49717 0.0
C1935 C 0.77484 0.7971 0.48047 0.0
H1936 H 0.77156 0.79945 0.52438 0.0
H1937 H 0.75167 0.82366 0.49901 0.0
S1938 S 0.82926 0.74049 0.46924 0.0
N1939 N 0.82872 0.74077 0.49057 0.0
N1940 N 0.80422 0.7642 0.46305 0.0
C1941 C 0.79379 0.77307 0.47862 0.0
C1942 C 0.80706 0.76039 0.49348 0.0
C1943 C 0.20774 0.9812 0.51617 0.0
C1944 C 0.22404 0.0241 0.51661 0.0
C1945 C 0.19617 0.95993 0.50053 0.0
C1946 C 0.20227 0.98102 0.48484 0.0
H1947 H 0.20032 0.96344 0.52802 0.0
H1948 H 0.17974 0.92661 0.50082 0.0
S1949 S 0.24835 0.09387 0.47896 0.0
N1950 N 0.24862 0.08737 0.50005 0.0
N1951 N 0.22908 0.04743 0.47049 0.0
C1952 C 0.22227 0.0243 0.48498 0.0
C1953 C 0.23271 0.04588 0.50095 0.0
C1954 C 0.97177 0.20557 0.50077 0.0
C1955 C 0.98995 0.2045 0.51645 0.0
C1956 C 0.99425 0.21616 0.48541 0.0
C1957 C 0.03501 0.22388 0.48521 0.0
H1958 H 0.93929 0.19545 0.5002 0.0
H1959 H 0.97835 0.21456 0.47348 0.0
S1960 S 0.09707 0.22669 0.52316 0.0
N1961 N 0.05183 0.2152 0.53124 0.0
N1962 N 0.09354 0.23237 0.50218 0.0
C1963 C 0.05428 0.22518 0.50099 0.0
C1964 C 0.0318 0.21604 0.5167 0.0
C1965 C 0.34129 0.33483 0.48639 0.0
C1966 C 0.29986 0.32211 0.4823 0.0
C1967 C 0.35218 0.31996 0.50096 0.0
C1968 C 0.32231 0.29189 0.5124 0.0
H1969 H 0.36596 0.35732 0.47835 0.0
H1970 H 0.38456 0.33201 0.50372 0.0
S1971 S 0.20926 0.2467 0.50769 0.0
N1972 N 0.22843 0.27774 0.4908 0.0
N1973 N 0.24915 0.25087 0.51861 0.0
C1974 C 0.28064 0.27839 0.50858 0.0
C1975 C 0.26937 0.29327 0.49349 0.0
C1976 C 0.7182 0.04599 0.4967 0.0
C1977 C 0.71535 0.02878 0.51315 0.0
C1978 C 0.70359 0.02097 0.48187 0.0
C1979 C 0.68369 0.97731 0.48282 0.0
H1980 H 0.72866 0.07855 0.49536 0.0
H1981 H 0.70535 0.03609 0.46971 0.0
S1982 S 0.68376 0.91937 0.52201 0.0
N1983 N 0.70423 0.96751 0.52864 0.0
N1984 N 0.67292 0.91991 0.50136 0.0
C1985 C 0.6866 0.96063 0.49883 0.0
C1986 C 0.70316 0.98649 0.51381 0.0
C1987 C 0.00456 0.71858 0.50914 0.0
C1988 C 0.97229 0.67756 0.51166 0.0
C1989 C 0.02875 0.73067 0.49388 0.0
C1990 C 0.02209 0.70196 0.48072 0.0
H1991 H 0.01154 0.74126 0.51918 0.0
H1992 H 0.05279 0.76252 0.49243 0.0
S1993 S 0.94497 0.58983 0.48222 0.0
N1994 N 0.93686 0.60829 0.50017 0.0
N1995 N 0.98293 0.62971 0.47232 0.0
C1996 C 0.9905 0.66074 0.48346 0.0
C1997 C 0.96548 0.64892 0.49865 0.0
C1998 C 0.15437 0.33158 0.32308 0.0
C1999 C 0.12328 0.33693 0.31545 0.0
C2000 C 0.16461 0.34095 0.34064 0.0
C2001 C 0.14513 0.35736 0.35092 0.0
H2002 H 0.17137 0.32101 0.31536 0.0
H2003 H 0.18655 0.33366 0.34645 0.0
S2004 S 0.0634 0.37888 0.3368 0.0
N2005 N 0.07357 0.35988 0.31948 0.0
N2006 N 0.09447 0.37936 0.35206 0.0
C2007 C 0.11517 0.36402 0.34323 0.0
C2008 C 0.10352 0.35292 0.32572 0.0
C2009 C 0.66319 0.84535 0.32236 0.0
C2010 C 0.6739 0.81973 0.31306 0.0
C2011 C 0.65388 0.83895 0.34013 0.0
C2012 C 0.65298 0.8055 0.34891 0.0
H2013 H 0.66111 0.86981 0.31575 0.0
H2014 H 0.64862 0.86089 0.34716 0.0
S2015 S 0.67663 0.72869 0.33016 0.0
N2016 N 0.68246 0.75976 0.31389 0.0
N2017 N 0.66293 0.74642 0.34687 0.0
C2018 C 0.6623 0.77913 0.33952 0.0
C2019 C 0.6735 0.78671 0.32179 0.0
C2020 C 0.16413 0.83573 0.34014 0.0
C2021 C 0.19978 0.86593 0.34863 0.0
C2022 C 0.1551 0.84176 0.32302 0.0
C2023 C 0.18014 0.87914 0.31419 0.0
H2024 H 0.14265 0.80784 0.34693 0.0
H2025 H 0.1294 0.81654 0.3164 0.0
S2026 S 0.27553 0.96836 0.33102 0.0
N2027 N 0.25993 0.9342 0.34684 0.0
N2028 N 0.24113 0.94675 0.31546 0.0
C2029 C 0.21464 0.90994 0.32291 0.0
C2030 C 0.22522 0.90283 0.33973 0.0
C2031 C 0.34613 0.10673 0.65551 0.0
C2032 C 0.35908 0.14544 0.64781 0.0
C2033 C 0.33222 0.09856 0.67252 0.0
C2034 C 0.33332 0.12948 0.68305 0.0
H2035 H 0.3437 0.08145 0.64781 0.0
H2036 H 0.32315 0.06841 0.67787 0.0
S2037 S 0.3696 0.23768 0.66997 0.0
N2038 N 0.37293 0.21541 0.65209 0.0
N2039 N 0.35236 0.20167 0.68513 0.0
C2040 C 0.34816 0.16904 0.67586 0.0
C2041 C 0.36018 0.17677 0.65809 0.0
C2042 C 0.83246 0.14656 0.65548 0.0
C2043 C 0.84587 0.18505 0.64727 0.0
C2044 C 0.84001 0.14399 0.67316 0.0
C2045 C 0.86244 0.17992 0.68299 0.0
H2046 H 0.81793 0.11848 0.64792 0.0
H2047 H 0.82788 0.11398 0.67917 0.0
S2048 S 0.90172 0.2876 0.6678 0.0
N2049 N 0.87951 0.25901 0.65061 0.0
N2050 N 0.89648 0.25498 0.6833 0.0
C2051 C 0.87565 0.21839 0.67481 0.0
C2052 C 0.86615 0.2207 0.65721 0.0
C2053 C 0.79347 0.68084 0.65683 0.0
C2054 C 0.80817 0.65918 0.64697 0.0
C2055 C 0.80227 0.68845 0.67444 0.0
C2056 C 0.82523 0.6738 0.68311 0.0
H2057 H 0.77599 0.69326 0.65067 0.0
H2058 H 0.78903 0.70395 0.68153 0.0
S2059 S 0.86908 0.61346 0.66371 0.0
N2060 N 0.84687 0.62308 0.64727 0.0
N2061 N 0.86109 0.63485 0.68083 0.0
C2062 C 0.8396 0.65142 0.67355 0.0
C2063 C 0.83134 0.64441 0.65543 0.0
C2064 C 0.99565 0.50932 0.00205 0.0
C2065 C 0.98419 0.47702 0.01409 0.0
C2066 C 0.0101 0.50739 0.98544 0.0
C2067 C 0.01576 0.47423 0.98076 0.0
H2068 H 0.99448 0.53664 0.0057 0.0
H2069 H 0.01601 0.53137 0.97612 0.0
S2070 S 0.99297 0.38361 0.00802 0.0
N2071 N 0.97983 0.4114 0.02013 0.0
N2072 N 0.01004 0.40937 0.98973 0.0
C2073 C 0.00569 0.44269 0.99297 0.0
C2074 C 0.98882 0.44348 0.00929 0.0
C2075 C 0.56138 0.56187 0.0071 0.0
C2076 C 0.53309 0.52824 0.0171 0.0
C2077 C 0.55859 0.56123 0.98912 0.0
C2078 C 0.5275 0.52688 0.98046 0.0
H2079 H 0.58501 0.58957 0.01333 0.0
H2080 H 0.58175 0.58731 0.98187 0.0
S2081 S 0.446 0.43081 0.0006 0.0
N2082 N 0.47246 0.45997 0.01714 0.0
N2083 N 0.46858 0.45779 0.983 0.0
C2084 C 0.49927 0.49272 0.99021 0.0
C2085 C 0.50175 0.49363 0.00864 0.0
C2086 C 0.51372 0.03584 0.00797 0.0
C2087 C 0.4871 0.00279 0.01849 0.0
C2088 C 0.51856 0.02938 0.99045 0.0
C2089 C 0.49376 0.99041 0.98237 0.0
H2090 H 0.52824 0.06713 0.01278 0.0
H2091 H 0.53853 0.0563 0.9828 0.0
S2092 S 0.4372 0.89187 0.00636 0.0
N2093 N 0.45212 0.92776 0.02138 0.0
N2094 N 0.45392 0.91675 0.98785 0.0
C2095 C 0.47357 0.9564 0.99344 0.0
C2096 C 0.47187 0.96254 0.01162 0.0
C2097 C 0.11086 0.07492 0.22718 0.0
C2098 C 0.11012 0.0947 0.24249 0.0
C2099 C 0.10324 0.03413 0.22745 0.0
C2100 C 0.09447 0.01178 0.24302 0.0
H2101 H 0.11255 0.08925 0.2148 0.0
H2102 H 0.09972 0.01854 0.21525 0.0
S2103 S 0.09389 0.05128 0.28672 0.0
N2104 N 0.10456 0.09047 0.27373 0.0
N2105 N 0.08989 0.01379 0.27419 0.0
C2106 C 0.09801 0.03265 0.25851 0.0
C2107 C 0.10601 0.07421 0.25825 0.0
C2108 C 0.92581 0.06621 0.25488 0.0
C2109 C 0.90793 0.04826 0.23888 0.0
C2110 C 0.96675 0.09885 0.25588 0.0
C2111 C 0.99084 0.11452 0.2409 0.0
H2112 H 0.90994 0.05169 0.26677 0.0
H2113 H 0.98091 0.10867 0.26849 0.0
S2114 S 0.95622 0.08275 0.19587 0.0
N2115 N 0.91558 0.05232 0.20774 0.0
N2116 N 0.99234 0.11342 0.2096 0.0
C2117 C 0.97174 0.10007 0.2248 0.0
C2118 C 0.9302 0.06704 0.22379 0.0
C2119 C 0.94056 0.90086 0.22258 0.0
C2120 C 0.95562 0.89296 0.23793 0.0
C2121 C 0.90773 0.90883 0.22287 0.0
C2122 C 0.88886 0.90922 0.23852 0.0
H2123 H 0.95739 0.90581 0.21062 0.0
H2124 H 0.90005 0.91916 0.21107 0.0
S2125 S 0.91183 0.88291 0.28171 0.0
N2126 N 0.94521 0.87992 0.26874 0.0
N2127 N 0.88346 0.89497 0.26928 0.0
C2128 C 0.90017 0.8963 0.25357 0.0
C2129 C 0.9336 0.88809 0.25327 0.0
C2130 C 0.07469 0.11283 0.76836 0.0
C2131 C 0.09536 0.11065 0.75359 0.0
C2132 C 0.03402 0.10541 0.76732 0.0
C2133 C 0.01256 0.09537 0.7515 0.0
H2134 H 0.08824 0.11559 0.78101 0.0
H2135 H 0.01777 0.10299 0.77922 0.0
S2136 S 0.0544 0.09031 0.70889 0.0
N2137 N 0.09274 0.10204 0.72248 0.0
N2138 N 0.01638 0.08773 0.7206 0.0
C2139 C 0.0343 0.09728 0.73646 0.0
C2140 C 0.07574 0.10509 0.7375 0.0
C2141 C 0.91012 0.90896 0.7723 0.0
C2142 C 0.91002 0.88897 0.75689 0.0
C2143 C 0.9024 0.94198 0.77218 0.0
C2144 C 0.89404 0.956 0.75665 0.0
H2145 H 0.9208 0.90208 0.78421 0.0
H2146 H 0.90788 0.9597 0.78392 0.0
S2147 S 0.88119 0.90834 0.71354 0.0
N2148 N 0.89396 0.88097 0.72627 0.0
N2149 N 0.87917 0.94298 0.72606 0.0
C2150 C 0.8883 0.93269 0.74162 0.0
C2151 C 0.89636 0.8991 0.74173 0.0
C2152 C 0.07043 0.92561 0.74435 0.0
C2153 C 0.04901 0.90846 0.75987 0.0
C2154 C 0.10305 0.96666 0.74369 0.0
C2155 C 0.11516 0.99155 0.75854 0.0
H2156 H 0.05865 0.90908 0.73232 0.0
H2157 H 0.11562 0.98024 0.73121 0.0
S2158 S 0.07365 0.95902 0.8027 0.0
N2159 N 0.0461 0.91769 0.79072 0.0
N2160 N 0.10729 0.99454 0.78949 0.0
C2161 C 0.09737 0.97314 0.77442 0.0
C2162 C 0.06437 0.93154 0.77509 0.0
C2163 C 0.79334 0.39819 0.58884 0.0
C2164 C 0.79313 0.41692 0.57306 0.0
C2165 C 0.78489 0.35709 0.58943 0.0
C2166 C 0.77627 0.33369 0.57423 0.0
H2167 H 0.79481 0.41347 0.60091 0.0
H2168 H 0.78052 0.34225 0.6019 0.0
S2169 S 0.77884 0.37063 0.52959 0.0
N2170 N 0.78918 0.41074 0.54185 0.0
N2171 N 0.77356 0.33379 0.54294 0.0
C2172 C 0.78095 0.35367 0.55833 0.0
C2173 C 0.78948 0.39533 0.55773 0.0
C2174 C 0.64793 0.42448 0.58671 0.0
C2175 C 0.67305 0.43579 0.57195 0.0
C2176 C 0.60687 0.3919 0.58609 0.0
C2177 C 0.5899 0.36975 0.5707 0.0
H2178 H 0.66131 0.43762 0.59915 0.0
H2179 H 0.59013 0.38075 0.59812 0.0
S2180 S 0.64104 0.39221 0.52802 0.0
N2181 N 0.67634 0.42647 0.5411 0.0
N2182 N 0.59958 0.36523 0.54 0.0
C2183 C 0.61322 0.38426 0.55551 0.0
C2184 C 0.65479 0.41728 0.55612 0.0
C2185 C 0.57847 0.21675 0.56325 0.0
C2186 C 0.56906 0.2312 0.57837 0.0
C2187 C 0.61187 0.20949 0.5628 0.0
C2188 C 0.63659 0.21626 0.57748 0.0
H2189 H 0.56296 0.21557 0.55125 0.0
H2190 H 0.62116 0.20318 0.55046 0.0
S2191 S 0.62165 0.24933 0.62063 0.0
N2192 N 0.58443 0.24802 0.60867 0.0
N2193 N 0.64663 0.23383 0.60793 0.0
C2194 C 0.62448 0.22616 0.5931 0.0
C2195 C 0.59083 0.23385 0.59352 0.0
C2196 C 0.67237 0.45187 0.06946 0.0
C2197 C 0.65446 0.45259 0.08527 0.0
C2198 C 0.71316 0.45999 0.06873 0.0
C2199 C 0.73714 0.46859 0.08383 0.0
H2200 H 0.65343 0.44049 0.05796 0.0
H2201 H 0.72418 0.45433 0.05669 0.0
S2202 S 0.70684 0.48211 0.12773 0.0
N2203 N 0.66553 0.46904 0.11578 0.0
N2204 N 0.74218 0.48387 0.11446 0.0
C2205 C 0.72121 0.47441 0.09928 0.0
C2206 C 0.67971 0.46635 0.09999 0.0
C2207 C 0.54321 0.2601 0.07379 0.0
C2208 C 0.55381 0.24543 0.08856 0.0
C2209 C 0.53529 0.2931 0.07487 0.0
C2210 C 0.53783 0.31259 0.09076 0.0
H2211 H 0.5455 0.24914 0.06113 0.0
H2212 H 0.53199 0.30653 0.06298 0.0
S2213 S 0.55828 0.28157 0.13345 0.0
N2214 N 0.56125 0.24941 0.11974 0.0
N2215 N 0.54659 0.3113 0.12174 0.0
C2216 C 0.54388 0.29512 0.10578 0.0
C2217 C 0.55187 0.2616 0.10468 0.0
C2218 C 0.73308 0.33107 0.06531 0.0
C2219 C 0.7578 0.35006 0.07986 0.0
C2220 C 0.70093 0.29005 0.06602 0.0
C2221 C 0.69227 0.26685 0.08136 0.0
H2222 H 0.73568 0.34931 0.05398 0.0
H2223 H 0.67956 0.2782 0.05527 0.0
S2224 S 0.75262 0.2999 0.12181 0.0
N2225 N 0.77504 0.34086 0.10912 0.0
N2226 N 0.71483 0.26344 0.11034 0.0
C2227 C 0.71987 0.28377 0.09518 0.0
C2228 C 0.75256 0.32562 0.09448 0.0
C2229 C 0.46821 0.71872 0.92571 0.0
C2230 C 0.47329 0.73881 0.90973 0.0
C2231 C 0.45827 0.67723 0.92647 0.0
C2232 C 0.45371 0.65484 0.91129 0.0
H2233 H 0.46646 0.73332 0.93749 0.0
H2234 H 0.44975 0.66144 0.93882 0.0
S2235 S 0.47146 0.69552 0.8666 0.0
N2236 N 0.47909 0.73505 0.87869 0.0
N2237 N 0.46068 0.65724 0.88012 0.0
C2238 C 0.46381 0.67607 0.89547 0.0
C2239 C 0.47379 0.71818 0.8947 0.0
C2240 C 0.32732 0.7488 0.92062 0.0
C2241 C 0.35296 0.75689 0.90617 0.0
C2242 C 0.28566 0.71732 0.92017 0.0
C2243 C 0.26844 0.69317 0.90525 0.0
H2244 H 0.34051 0.76363 0.93283 0.0
H2245 H 0.26845 0.70851 0.93215 0.0
S2246 S 0.32087 0.70735 0.8632 0.0
N2247 N 0.35659 0.74254 0.87586 0.0
N2248 N 0.27873 0.68375 0.87506 0.0
C2249 C 0.29246 0.70482 0.89016 0.0
C2250 C 0.3347 0.73647 0.89063 0.0
C2251 C 0.29489 0.53912 0.926 0.0
C2252 C 0.31262 0.53784 0.91015 0.0
C2253 C 0.26185 0.54694 0.9266 0.0
C2254 C 0.24558 0.55358 0.91134 0.0
H2255 H 0.30973 0.53899 0.93802 0.0
H2256 H 0.25227 0.55245 0.93903 0.0
S2257 S 0.27752 0.54801 0.86665 0.0
N2258 N 0.30838 0.53914 0.87894 0.0
N2259 N 0.24651 0.55379 0.88002 0.0
C2260 C 0.26005 0.54775 0.89546 0.0
C2261 C 0.29356 0.53987 0.89486 0.0
C2262 C 0.35068 0.76301 0.39789 0.0
C2263 C 0.33374 0.77357 0.41181 0.0
C2264 C 0.3905 0.76857 0.39892 0.0
C2265 C 0.41468 0.78472 0.41392 0.0
H2266 H 0.33131 0.74579 0.38709 0.0
H2267 H 0.40051 0.75564 0.38878 0.0
S2268 S 0.38779 0.82523 0.4522 0.0
N2269 N 0.34659 0.80701 0.43971 0.0
N2270 N 0.42171 0.81782 0.44156 0.0
C2271 C 0.40028 0.80045 0.42684 0.0
C2272 C 0.35964 0.79475 0.4258 0.0
C2273 C 0.21652 0.57694 0.41389 0.0
C2274 C 0.23487 0.57151 0.42881 0.0
C2275 C 0.20837 0.60982 0.41264 0.0
C2276 C 0.21807 0.63806 0.42629 0.0
H2277 H 0.2127 0.55865 0.40248 0.0
H2278 H 0.199 0.61596 0.40024 0.0
S2279 S 0.2603 0.6332 0.46898 0.0
N2280 N 0.25708 0.5936 0.45827 0.0
N2281 N 0.24205 0.65513 0.45584 0.0
C2282 C 0.23174 0.6298 0.44191 0.0
C2283 C 0.24011 0.59661 0.44318 0.0
C2284 C 0.4281 0.64854 0.43679 0.0
C2285 C 0.43823 0.66825 0.42058 0.0
C2286 C 0.39496 0.608 0.43857 0.0
C2287 C 0.37121 0.58591 0.42418 0.0
H2288 H 0.44263 0.6661 0.44836 0.0
H2289 H 0.3849 0.5958 0.45146 0.0
S2290 S 0.38909 0.62197 0.37876 0.0
N2291 N 0.42513 0.6612 0.38977 0.0
N2292 N 0.36342 0.58503 0.39305 0.0
C2293 C 0.38437 0.60361 0.40773 0.0
C2294 C 0.41775 0.64488 0.40595 0.0
loop_
_geom_bond_atom_site_label_1
_geom_bond_atom_site_label_2
_geom_bond_distance
_geom_bond_site_symmetry_2
_ccdc_geom_bond_type
Cd0 O57 2.350 . S
Cd0 O58 2.277 . S
Cd0 O65 2.173 . S
Cd0 O67 2.263 . S
Cd0 O69 2.366 . S
Cd0 O72 2.329 . S
C1 O65 1.277 . S
C1 O66 1.230 . S
C2 O3 1.246 . S
C2 C5 1.481 . S
C2 N27 1.329 . S
O3 C2 1.246 . S
Cd4 O66 2.250 . S
Cd4 O68 2.308 . S
Cd4 O71 2.352 . S
C5 C2 1.481 . S
C5 N8 1.327 . S
C5 C9 1.407 . S
C6 C7 1.346 . S
C6 C10 1.390 . S
C6 H74 0.912 1_455 S
C7 C6 1.346 . S
C7 N8 1.342 . S
C7 C12 1.516 . S
N8 C5 1.327 . S
N8 C7 1.342 . S
N8 Co11 1.864 . S
C9 C5 1.407 . S
C9 C10 1.364 . S
C9 H75 0.930 . S
C10 C6 1.390 . S
C10 C9 1.364 . S
C10 H76 0.931 1_455 S
Co11 N8 1.864 . S
Co11 N27 1.955 . S
Co11 N28 1.958 . S
Co11 N29 1.953 . S
Co11 N47 1.869 . S
Co11 N53 1.974 . S
C12 C7 1.516 . S
C12 O13 1.238 . S
C12 N28 1.324 . S
O13 C12 1.238 . S
C14 C15 1.394 . S
C14 C19 1.395 . S
C14 N28 1.427 . S
C15 C14 1.394 . S
C15 C16 1.380 . S
C15 H77 0.929 . S
C16 C15 1.380 . S
C16 C17 1.384 . S
C16 C20 1.495 . S
C17 C16 1.384 . S
C17 C18 1.382 . S
C17 H78 0.930 . S
C18 C17 1.382 . S
C18 C19 1.398 . S
C19 C14 1.395 . S
C19 C18 1.398 . S
C19 H79 0.930 . S
C20 C16 1.495 . S
C20 O67 1.258 . S
C20 O68 1.274 . S
C21 C22 1.385 . S
C21 C23 1.381 . S
C21 N27 1.432 . S
C22 C21 1.385 . S
C22 C26 1.388 . S
C22 H80 0.929 . S
C23 C21 1.381 . S
C23 C24 1.371 . S
C23 H81 0.932 . S
C24 C23 1.371 . S
C24 C25 1.400 . S
C25 C24 1.400 . S
C25 C26 1.351 . S
C25 H82 0.930 . S
C26 C22 1.388 . S
C26 C25 1.351 . S
N27 C2 1.329 . S
N27 Co11 1.955 . S
N27 C21 1.432 . S
N28 Co11 1.958 . S
N28 C12 1.324 . S
N28 C14 1.427 . S
N29 Co11 1.953 . S
N29 C30 1.436 . S
N29 C56 1.316 . S
C30 N29 1.436 . S
C30 C31 1.421 . S
C30 C32 1.360 . S
C31 C30 1.421 . S
C31 C33 1.379 . S
C31 H34 0.929 . S
C32 C30 1.360 . S
C32 C36 1.393 . S
C32 H38 0.931 . S
C33 C31 1.379 . S
C33 C35 1.417 . S
C33 C37 1.505 . S
H34 C31 0.929 . S
C35 C33 1.417 . S
C35 C36 1.352 . S
C35 H39 0.929 . S
C36 C32 1.393 . S
C36 C35 1.352 . S
C36 C40 1.482 . S
C37 C33 1.505 . S
C37 O41 1.259 . S
C37 O42 1.229 . S
H38 C32 0.931 . S
H39 C35 0.929 . S
C40 C36 1.482 . S
C40 O43 1.207 1_455 S
C40 O44 1.289 1_455 S
O41 C37 1.259 . S
O41 H45 0.822 . S
O42 C37 1.229 . S
O43 C40 1.207 1_655 S
O44 C40 1.289 1_655 S
O44 H46 0.819 . S
H45 O41 0.822 . S
H46 O44 0.819 . S
N47 Co11 1.869 . S
N47 C48 1.330 . S
N47 C52 1.325 . S
C48 N47 1.330 . S
C48 C49 1.359 . S
C48 C54 1.504 . S
C49 C48 1.359 . S
C49 C50 1.366 . S
C49 H83 0.929 . S
C50 C49 1.366 . S
C50 C51 1.415 . S
C50 H84 0.932 . S
C51 C50 1.415 . S
C51 C52 1.366 . S
C51 H85 0.931 . S
C52 N47 1.325 . S
C52 C51 1.366 . S
C52 C56 1.516 . S
N53 Co11 1.974 . S
N53 C54 1.309 . S
N53 C59 1.423 . S
C54 C48 1.504 . S
C54 N53 1.309 . S
C54 O55 1.258 . S
O55 C54 1.258 . S
C56 N29 1.316 . S
C56 C52 1.516 . S
C56 O69 1.263 . S
O57 Cd0 2.350 . S
O57 C73 1.270 . S
O58 Cd0 2.277 . S
O58 C73 1.248 . S
C59 N53 1.423 . S
C59 C60 1.370 . S
C59 C64 1.403 . S
C60 C59 1.370 . S
C60 C61 1.389 . S
C60 H86 0.931 . S
C61 C60 1.389 . S
C61 C62 1.389 . S
C62 C61 1.389 . S
C62 C63 1.379 . S
C62 H87 0.929 . S
C63 C62 1.379 . S
C63 C64 1.405 . S
C64 C59 1.403 . S
C64 C63 1.405 . S
C64 H88 0.932 . S
O65 Cd0 2.173 . S
O65 C1 1.277 . S
O66 C1 1.230 . S
O66 Cd4 2.250 . S
O67 Cd0 2.263 . S
O67 C20 1.258 . S
O68 Cd4 2.308 . S
O68 C20 1.274 . S
O69 Cd0 2.366 . S
O69 C56 1.263 . S
C70 O71 1.235 . S
C70 O72 1.270 . S
O71 Cd4 2.352 . S
O71 C70 1.235 . S
O72 Cd0 2.329 . S
O72 C70 1.270 . S
C73 O57 1.270 . S
C73 O58 1.248 . S
H74 C6 0.912 1_655 S
H75 C9 0.930 . S
H76 C10 0.931 1_655 S
H77 C15 0.929 . S
H78 C17 0.930 . S
H79 C19 0.930 . S
H80 C22 0.929 . S
H81 C23 0.932 . S
H82 C25 0.930 . S
H83 C49 0.929 . S
H84 C50 0.932 . S
H85 C51 0.931 . S
H86 C60 0.931 . S
H87 C62 0.929 . S
H88 C64 0.932 . S
Cd89 O146 2.350 . S
Cd89 O147 2.277 . S
Cd89 O154 2.173 . S
Cd89 O156 2.263 . S
Cd89 O158 2.366 . S
Cd89 O161 2.329 . S
C90 O154 1.277 . S
C90 O155 1.230 . S
C91 O92 1.246 . S
C91 C94 1.481 . S
C91 N116 1.329 . S
O92 C91 1.246 . S
Cd93 O155 2.250 . S
Cd93 O157 2.308 . S
Cd93 O160 2.352 . S
C94 C91 1.481 . S
C94 N97 1.327 . S
C94 C98 1.407 . S
C95 C96 1.346 . S
C95 C99 1.390 . S
C95 H163 0.930 . S
C96 C95 1.346 . S
C96 N97 1.342 . S
C96 C101 1.516 . S
N97 C94 1.327 . S
N97 C96 1.342 . S
N97 Co100 1.864 . S
C98 C94 1.407 . S
C98 C99 1.364 . S
C98 H164 0.930 . S
C99 C95 1.390 . S
C99 C98 1.364 . S
C99 H165 0.931 . S
Co100 N97 1.864 . S
Co100 N116 1.955 . S
Co100 N117 1.958 . S
Co100 N118 1.953 . S
Co100 N136 1.869 . S
Co100 N142 1.974 . S
C101 C96 1.516 . S
C101 O102 1.238 . S
C101 N117 1.324 . S
O102 C101 1.238 . S
C103 C104 1.394 . S
C103 C108 1.395 . S
C103 N117 1.427 . S
C104 C103 1.394 . S
C104 C105 1.380 . S
C104 H166 0.929 . S
C105 C104 1.380 . S
C105 C106 1.384 . S
C105 C109 1.495 . S
C106 C105 1.384 . S
C106 C107 1.382 . S
C106 H167 0.930 . S
C107 C106 1.382 . S
C107 C108 1.398 . S
C108 C103 1.395 . S
C108 C107 1.398 . S
C108 H168 0.930 . S
C109 C105 1.495 . S
C109 O156 1.258 . S
C109 O157 1.274 . S
C110 C111 1.385 . S
C110 C112 1.381 . S
C110 N116 1.432 . S
C111 C110 1.385 . S
C111 C115 1.388 . S
C111 H169 0.929 . S
C112 C110 1.381 . S
C112 C113 1.371 . S
C112 H170 0.932 . S
C113 C112 1.371 . S
C113 C114 1.400 . S
C114 C113 1.400 . S
C114 C115 1.351 . S
C114 H171 0.930 . S
C115 C111 1.388 . S
C115 C114 1.351 . S
N116 C91 1.329 . S
N116 Co100 1.955 . S
N116 C110 1.432 . S
N117 Co100 1.958 . S
N117 C101 1.324 . S
N117 C103 1.427 . S
N118 Co100 1.953 . S
N118 C119 1.436 . S
N118 C145 1.316 . S
C119 N118 1.436 . S
C119 C120 1.421 . S
C119 C121 1.360 . S
C120 C119 1.421 . S
C120 C122 1.379 . S
C120 H123 0.929 . S
C121 C119 1.360 . S
C121 C125 1.393 . S
C121 H127 0.931 . S
C122 C120 1.379 . S
C122 C124 1.417 . S
C122 C126 1.505 . S
H123 C120 0.929 . S
C124 C122 1.417 . S
C124 C125 1.352 . S
C124 H128 0.929 . S
C125 C121 1.393 . S
C125 C124 1.352 . S
C125 C129 1.482 . S
C126 C122 1.505 . S
C126 O130 1.259 . S
C126 O131 1.229 . S
H127 C121 0.931 . S
H128 C124 0.929 . S
C129 C125 1.482 . S
C129 O132 1.207 . S
C129 O133 1.289 . S
O130 C126 1.259 . S
O130 H134 0.822 . S
O131 C126 1.229 . S
O132 C129 1.207 . S
O133 C129 1.289 . S
O133 H135 0.819 . S
H134 O130 0.822 . S
H135 O133 0.819 . S
N136 Co100 1.869 . S
N136 C137 1.330 . S
N136 C141 1.325 . S
C137 N136 1.330 . S
C137 C138 1.359 . S
C137 C143 1.504 . S
C138 C137 1.359 . S
C138 C139 1.366 . S
C138 H172 0.929 . S
C139 C138 1.366 . S
C139 C140 1.415 . S
C139 H173 0.932 . S
C140 C139 1.415 . S
C140 C141 1.366 . S
C140 H174 0.931 . S
C141 N136 1.325 . S
C141 C140 1.366 . S
C141 C145 1.516 . S
N142 Co100 1.974 . S
N142 C143 1.309 . S
N142 C148 1.423 . S
C143 C137 1.504 . S
C143 N142 1.309 . S
C143 O144 1.258 . S
O144 C143 1.258 . S
C145 N118 1.316 . S
C145 C141 1.516 . S
C145 O158 1.263 . S
O146 Cd89 2.350 . S
O146 C162 1.270 . S
O147 Cd89 2.277 . S
O147 C162 1.248 . S
C148 N142 1.423 . S
C148 C149 1.370 . S
C148 C153 1.403 . S
C149 C148 1.370 . S
C149 C150 1.389 . S
C149 H175 0.931 . S
C150 C149 1.389 . S
C150 C151 1.389 . S
C151 C150 1.389 . S
C151 C152 1.379 1_565 S
C151 H176 0.929 . S
C152 C151 1.379 1_545 S
C152 C153 1.405 1_545 S
C153 C148 1.403 . S
C153 C152 1.405 1_565 S
C153 H177 0.932 . S
O154 Cd89 2.173 . S
O154 C90 1.277 . S
O155 C90 1.230 . S
O155 Cd93 2.250 . S
O156 Cd89 2.263 . S
O156 C109 1.258 . S
O157 Cd93 2.308 . S
O157 C109 1.274 . S
O158 Cd89 2.366 . S
O158 C145 1.263 . S
C159 O160 1.235 . S
C159 O161 1.270 . S
O160 Cd93 2.352 . S
O160 C159 1.235 . S
O161 Cd89 2.329 . S
O161 C159 1.270 . S
C162 O146 1.270 . S
C162 O147 1.248 . S
H163 C95 0.930 . S
H164 C98 0.930 . S
H165 C99 0.931 . S
H166 C104 0.929 . S
H167 C106 0.930 . S
H168 C108 0.930 . S
H169 C111 0.929 . S
H170 C112 0.932 . S
H171 C114 0.930 . S
H172 C138 0.929 . S
H173 C139 0.932 . S
H174 C140 0.931 . S
H175 C149 0.931 . S
H176 C151 0.929 . S
H177 C153 0.932 . S
Cd178 O235 2.350 . S
Cd178 O236 2.277 . S
Cd178 O243 2.173 . S
Cd178 O245 2.263 . S
Cd178 O247 2.366 . S
Cd178 O250 2.329 . S
C179 O243 1.277 . S
C179 O244 1.230 . S
C180 O181 1.246 . S
C180 C183 1.481 . S
C180 N205 1.329 . S
O181 C180 1.246 . S
Cd182 O244 2.250 . S
Cd182 O246 2.308 . S
Cd182 O249 2.352 . S
C183 C180 1.481 . S
C183 N186 1.327 . S
C183 C187 1.407 . S
C184 C185 1.346 . S
C184 C188 1.390 . S
C184 H252 0.944 . S
C185 C184 1.346 . S
C185 N186 1.342 . S
C185 C190 1.516 . S
N186 C183 1.327 . S
N186 C185 1.342 . S
N186 Co189 1.864 . S
C187 C183 1.407 . S
C187 C188 1.364 . S
C187 H253 0.930 . S
C188 C184 1.390 . S
C188 C187 1.364 . S
C188 H254 0.931 1_565 S
Co189 N186 1.864 . S
Co189 N205 1.955 . S
Co189 N206 1.958 . S
Co189 N207 1.953 . S
Co189 N225 1.869 . S
Co189 N231 1.974 . S
C190 C185 1.516 . S
C190 O191 1.238 . S
C190 N206 1.324 . S
O191 C190 1.238 . S
C192 C193 1.394 . S
C192 C197 1.395 . S
C192 N206 1.427 . S
C193 C192 1.394 . S
C193 C194 1.380 . S
C193 H255 0.929 . S
C194 C193 1.380 . S
C194 C195 1.384 . S
C194 C198 1.495 . S
C195 C194 1.384 . S
C195 C196 1.382 . S
C195 H256 0.930 . S
C196 C195 1.382 . S
C196 C197 1.398 . S
C197 C192 1.395 . S
C197 C196 1.398 . S
C197 H257 0.930 . S
C198 C194 1.495 . S
C198 O245 1.258 . S
C198 O246 1.274 . S
C199 C200 1.385 . S
C199 C201 1.381 . S
C199 N205 1.432 . S
C200 C199 1.385 . S
C200 C204 1.388 . S
C200 H258 0.929 . S
C201 C199 1.381 . S
C201 C202 1.371 . S
C201 H259 0.932 . S
C202 C201 1.371 . S
C202 C203 1.400 . S
C203 C202 1.400 . S
C203 C204 1.351 . S
C203 H260 0.930 . S
C204 C200 1.388 . S
C204 C203 1.351 . S
N205 C180 1.329 . S
N205 Co189 1.955 . S
N205 C199 1.432 . S
N206 Co189 1.958 . S
N206 C190 1.324 . S
N206 C192 1.427 . S
N207 Co189 1.953 . S
N207 C208 1.436 . S
N207 C234 1.316 . S
C208 N207 1.436 . S
C208 C209 1.421 . S
C208 C210 1.360 . S
C209 C208 1.421 . S
C209 C211 1.379 . S
C209 H212 0.929 . S
C210 C208 1.360 . S
C210 C214 1.393 . S
C210 H216 0.931 . S
C211 C209 1.379 . S
C211 C213 1.417 . S
C211 C215 1.505 . S
H212 C209 0.929 . S
C213 C211 1.417 . S
C213 C214 1.352 . S
C213 H217 0.929 . S
C214 C210 1.393 . S
C214 C213 1.352 . S
C214 C218 1.482 . S
C215 C211 1.505 . S
C215 O219 1.259 . S
C215 O220 1.229 . S
H216 C210 0.931 . S
H217 C213 0.929 . S
C218 C214 1.482 . S
C218 O221 1.207 1_565 S
C218 O222 1.289 1_565 S
O219 C215 1.259 . S
O219 H223 0.822 . S
O220 C215 1.229 . S
O221 C218 1.207 1_545 S
O222 C218 1.289 1_545 S
O222 H224 0.819 . S
H223 O219 0.822 . S
H224 O222 0.819 . S
N225 Co189 1.869 . S
N225 C226 1.330 . S
N225 C230 1.325 . S
C226 N225 1.330 . S
C226 C227 1.359 . S
C226 C232 1.504 . S
C227 C226 1.359 . S
C227 C228 1.366 . S
C227 H261 0.929 . S
C228 C227 1.366 . S
C228 C229 1.415 . S
C228 H262 0.932 . S
C229 C228 1.415 . S
C229 C230 1.366 . S
C229 H263 0.931 . S
C230 N225 1.325 . S
C230 C229 1.366 . S
C230 C234 1.516 . S
N231 Co189 1.974 . S
N231 C232 1.309 . S
N231 C237 1.423 . S
C232 C226 1.504 . S
C232 N231 1.309 . S
C232 O233 1.258 . S
O233 C232 1.258 . S
C234 N207 1.316 . S
C234 C230 1.516 . S
C234 O247 1.263 . S
O235 Cd178 2.350 . S
O235 C251 1.270 . S
O236 Cd178 2.277 . S
O236 C251 1.248 . S
C237 N231 1.423 . S
C237 C238 1.370 . S
C237 C242 1.403 . S
C238 C237 1.370 . S
C238 C239 1.389 . S
C238 H264 0.931 . S
C239 C238 1.389 . S
C239 C240 1.389 . S
C240 C239 1.389 . S
C240 C241 1.379 1_455 S
C240 H265 0.929 . S
C241 C240 1.379 1_655 S
C241 C242 1.405 1_655 S
C242 C237 1.403 . S
C242 C241 1.405 1_455 S
C242 H266 0.932 . S
O243 Cd178 2.173 . S
O243 C179 1.277 . S
O244 C179 1.230 . S
O244 Cd182 2.250 . S
O245 Cd178 2.263 . S
O245 C198 1.258 . S
O246 Cd182 2.308 . S
O246 C198 1.274 . S
O247 Cd178 2.366 . S
O247 C234 1.263 . S
C248 O249 1.235 . S
C248 O250 1.270 . S
O249 Cd182 2.352 . S
O249 C248 1.235 . S
O250 Cd178 2.329 . S
O250 C248 1.270 . S
C251 O235 1.270 . S
C251 O236 1.248 . S
H252 C184 0.944 . S
H253 C187 0.930 . S
H254 C188 0.931 1_545 S
H255 C193 0.929 . S
H256 C195 0.930 . S
H257 C197 0.930 . S
H258 C200 0.929 . S
H259 C201 0.932 . S
H260 C203 0.930 . S
H261 C227 0.929 . S
H262 C228 0.932 . S
H263 C229 0.931 . S
H264 C238 0.931 . S
H265 C240 0.929 . S
H266 C242 0.932 . S
Cd267 O324 2.350 . S
Cd267 O325 2.277 . S
Cd267 O332 2.173 . S
Cd267 O334 2.263 . S
Cd267 O336 2.366 . S
Cd267 O339 2.329 . S
C268 O332 1.277 . S
C268 O333 1.230 . S
C269 O270 1.246 . S
C269 C272 1.481 . S
C269 N294 1.329 . S
O270 C269 1.246 . S
Cd271 O333 2.250 . S
Cd271 O335 2.308 . S
Cd271 O338 2.352 . S
C272 C269 1.481 . S
C272 N275 1.327 . S
C272 C276 1.407 . S
C273 C274 1.346 . S
C273 C277 1.390 . S
C273 H341 0.912 1_545 S
C274 C273 1.346 . S
C274 N275 1.342 . S
C274 C279 1.516 . S
N275 C272 1.327 . S
N275 C274 1.342 . S
N275 Co278 1.864 . S
C276 C272 1.407 . S
C276 C277 1.364 . S
C276 H342 0.930 . S
C277 C273 1.390 . S
C277 C276 1.364 . S
C277 H343 0.931 1_545 S
Co278 N275 1.864 . S
Co278 N294 1.955 . S
Co278 N295 1.958 . S
Co278 N296 1.953 . S
Co278 N314 1.869 . S
Co278 N320 1.974 . S
C279 C274 1.516 . S
C279 O280 1.238 . S
C279 N295 1.324 . S
O280 C279 1.238 . S
C281 C282 1.394 . S
C281 C286 1.395 . S
C281 N295 1.427 . S
C282 C281 1.394 . S
C282 C283 1.380 . S
C282 H344 0.929 . S
C283 C282 1.380 . S
C283 C284 1.384 . S
C283 C287 1.495 . S
C284 C283 1.384 . S
C284 C285 1.382 . S
C284 H345 0.930 . S
C285 C284 1.382 . S
C285 C286 1.398 . S
C286 C281 1.395 . S
C286 C285 1.398 . S
C286 H346 0.930 . S
C287 C283 1.495 . S
C287 O334 1.258 . S
C287 O335 1.274 . S
C288 C289 1.385 . S
C288 C290 1.381 . S
C288 N294 1.432 . S
C289 C288 1.385 . S
C289 C293 1.388 . S
C289 H347 0.929 . S
C290 C288 1.381 . S
C290 C291 1.371 . S
C290 H348 0.932 . S
C291 C290 1.371 . S
C291 C292 1.400 . S
C292 C291 1.400 . S
C292 C293 1.351 . S
C292 H349 0.930 . S
C293 C289 1.388 . S
C293 C292 1.351 . S
N294 C269 1.329 . S
N294 Co278 1.955 . S
N294 C288 1.432 . S
N295 Co278 1.958 . S
N295 C279 1.324 . S
N295 C281 1.427 . S
N296 Co278 1.953 . S
N296 C297 1.436 . S
N296 C323 1.316 . S
C297 N296 1.436 . S
C297 C298 1.421 . S
C297 C299 1.360 . S
C298 C297 1.421 . S
C298 C300 1.379 . S
C298 H301 0.929 . S
C299 C297 1.360 . S
C299 C303 1.393 . S
C299 H305 0.931 . S
C300 C298 1.379 . S
C300 C302 1.417 . S
C300 C304 1.505 . S
H301 C298 0.929 . S
C302 C300 1.417 . S
C302 C303 1.352 . S
C302 H306 0.929 . S
C303 C299 1.393 . S
C303 C302 1.352 . S
C303 C307 1.482 . S
C304 C300 1.505 . S
C304 O308 1.259 . S
C304 O309 1.229 . S
H305 C299 0.931 . S
H306 C302 0.929 . S
C307 C303 1.482 . S
C307 O310 1.207 1_545 S
C307 O311 1.289 1_545 S
O308 C304 1.259 . S
O308 H312 0.822 . S
O309 C304 1.229 . S
O310 C307 1.207 1_565 S
O311 C307 1.289 1_565 S
O311 H313 0.819 . S
H312 O308 0.822 . S
H313 O311 0.819 . S
N314 Co278 1.869 . S
N314 C315 1.330 . S
N314 C319 1.325 . S
C315 N314 1.330 . S
C315 C316 1.359 . S
C315 C321 1.504 . S
C316 C315 1.359 . S
C316 C317 1.366 . S
C316 H350 0.929 . S
C317 C316 1.366 . S
C317 C318 1.415 . S
C317 H351 0.932 . S
C318 C317 1.415 . S
C318 C319 1.366 . S
C318 H352 0.931 . S
C319 N314 1.325 . S
C319 C318 1.366 . S
C319 C323 1.516 . S
N320 Co278 1.974 . S
N320 C321 1.309 . S
N320 C326 1.423 . S
C321 C315 1.504 . S
C321 N320 1.309 . S
C321 O322 1.258 . S
O322 C321 1.258 . S
C323 N296 1.316 . S
C323 C319 1.516 . S
C323 O336 1.263 . S
O324 Cd267 2.350 . S
O324 C340 1.270 . S
O325 Cd267 2.277 . S
O325 C340 1.248 . S
C326 N320 1.423 . S
C326 C327 1.370 . S
C326 C331 1.403 . S
C327 C326 1.370 . S
C327 C328 1.389 . S
C327 H353 0.931 . S
C328 C327 1.389 . S
C328 C329 1.389 . S
C329 C328 1.389 . S
C329 C330 1.379 . S
C329 H354 0.929 . S
C330 C329 1.379 . S
C330 C331 1.405 . S
C331 C326 1.403 . S
C331 C330 1.405 . S
C331 H355 0.932 . S
O332 Cd267 2.173 . S
O332 C268 1.277 . S
O333 C268 1.230 . S
O333 Cd271 2.250 . S
O334 Cd267 2.263 . S
O334 C287 1.258 . S
O335 Cd271 2.308 . S
O335 C287 1.274 . S
O336 Cd267 2.366 . S
O336 C323 1.263 . S
C337 O338 1.235 . S
C337 O339 1.270 . S
O338 Cd271 2.352 . S
O338 C337 1.235 . S
O339 Cd267 2.329 . S
O339 C337 1.270 . S
C340 O324 1.270 . S
C340 O325 1.248 . S
H341 C273 0.912 1_565 S
H342 C276 0.930 . S
H343 C277 0.931 1_565 S
H344 C282 0.929 . S
H345 C284 0.930 . S
H346 C286 0.930 . S
H347 C289 0.929 . S
H348 C290 0.932 . S
H349 C292 0.930 . S
H350 C316 0.929 . S
H351 C317 0.932 . S
H352 C318 0.931 . S
H353 C327 0.931 . S
H354 C329 0.929 . S
H355 C331 0.932 . S
Cd356 O413 2.350 . S
Cd356 O414 2.277 . S
Cd356 O421 2.173 . S
Cd356 O423 2.263 . S
Cd356 O425 2.366 . S
Cd356 O428 2.329 . S
C357 O421 1.277 . S
C357 O422 1.230 . S
C358 O359 1.246 . S
C358 C361 1.481 . S
C358 N383 1.329 . S
O359 C358 1.246 . S
Cd360 O422 2.250 . S
Cd360 O424 2.308 . S
Cd360 O427 2.352 . S
C361 C358 1.481 . S
C361 N364 1.327 . S
C361 C365 1.407 . S
C362 C363 1.346 . S
C362 C366 1.390 . S
C362 H430 0.944 . S
C363 C362 1.346 . S
C363 N364 1.342 . S
C363 C368 1.516 . S
N364 C361 1.327 . S
N364 C363 1.342 . S
N364 Co367 1.864 . S
C365 C361 1.407 . S
C365 C366 1.364 . S
C365 H431 0.930 . S
C366 C362 1.390 . S
C366 C365 1.364 . S
C366 H432 0.931 1_655 S
Co367 N364 1.864 . S
Co367 N383 1.955 . S
Co367 N384 1.958 . S
Co367 N385 1.953 . S
Co367 N403 1.869 . S
Co367 N409 1.974 . S
C368 C363 1.516 . S
C368 O369 1.238 . S
C368 N384 1.324 . S
O369 C368 1.238 . S
C370 C371 1.394 . S
C370 C375 1.395 . S
C370 N384 1.427 . S
C371 C370 1.394 . S
C371 C372 1.380 . S
C371 H433 0.929 . S
C372 C371 1.380 . S
C372 C373 1.384 . S
C372 C376 1.495 . S
C373 C372 1.384 . S
C373 C374 1.382 . S
C373 H434 0.930 . S
C374 C373 1.382 . S
C374 C375 1.398 . S
C375 C370 1.395 . S
C375 C374 1.398 . S
C375 H435 0.930 . S
C376 C372 1.495 . S
C376 O423 1.258 . S
C376 O424 1.274 . S
C377 C378 1.385 . S
C377 C379 1.381 . S
C377 N383 1.432 . S
C378 C377 1.385 . S
C378 C382 1.388 . S
C378 H436 0.929 . S
C379 C377 1.381 . S
C379 C380 1.371 . S
C379 H437 0.932 . S
C380 C379 1.371 . S
C380 C381 1.400 . S
C381 C380 1.400 . S
C381 C382 1.351 . S
C381 H438 0.930 . S
C382 C378 1.388 . S
C382 C381 1.351 . S
N383 C358 1.329 . S
N383 Co367 1.955 . S
N383 C377 1.432 . S
N384 Co367 1.958 . S
N384 C368 1.324 . S
N384 C370 1.427 . S
N385 Co367 1.953 . S
N385 C386 1.436 . S
N385 C412 1.316 . S
C386 N385 1.436 . S
C386 C387 1.421 . S
C386 C388 1.360 . S
C387 C386 1.421 . S
C387 C389 1.379 . S
C387 H390 0.929 . S
C388 C386 1.360 . S
C388 C392 1.393 . S
C388 H394 0.931 . S
C389 C387 1.379 . S
C389 C391 1.417 . S
C389 C393 1.505 . S
H390 C387 0.929 . S
C391 C389 1.417 . S
C391 C392 1.352 . S
C391 H395 0.929 . S
C392 C388 1.393 . S
C392 C391 1.352 . S
C392 C396 1.482 . S
C393 C389 1.505 . S
C393 O397 1.259 . S
C393 O398 1.229 . S
H394 C388 0.931 . S
H395 C391 0.929 . S
C396 C392 1.482 . S
C396 O399 1.207 1_655 S
C396 O400 1.289 1_655 S
O397 C393 1.259 . S
O397 H401 0.822 . S
O398 C393 1.229 . S
O399 C396 1.207 1_455 S
O400 C396 1.289 1_455 S
O400 H402 0.819 . S
H401 O397 0.822 . S
H402 O400 0.819 . S
N403 Co367 1.869 . S
N403 C404 1.330 . S
N403 C408 1.325 . S
C404 N403 1.330 . S
C404 C405 1.359 . S
C404 C410 1.504 . S
C405 C404 1.359 . S
C405 C406 1.366 . S
C405 H439 0.929 . S
C406 C405 1.366 . S
C406 C407 1.415 . S
C406 H440 0.932 . S
C407 C406 1.415 . S
C407 C408 1.366 . S
C407 H441 0.931 . S
C408 N403 1.325 . S
C408 C407 1.366 . S
C408 C412 1.516 . S
N409 Co367 1.974 . S
N409 C410 1.309 . S
N409 C415 1.423 . S
C410 C404 1.504 . S
C410 N409 1.309 . S
C410 O411 1.258 . S
O411 C410 1.258 . S
C412 N385 1.316 . S
C412 C408 1.516 . S
C412 O425 1.263 . S
O413 Cd356 2.350 . S
O413 C429 1.270 . S
O414 Cd356 2.277 . S
O414 C429 1.248 . S
C415 N409 1.423 . S
C415 C416 1.370 . S
C415 C420 1.403 . S
C416 C415 1.370 . S
C416 C417 1.389 . S
C416 H442 0.931 . S
C417 C416 1.389 . S
C417 C418 1.389 . S
C418 C417 1.389 . S
C418 C419 1.379 1_545 S
C418 H443 0.929 . S
C419 C418 1.379 1_565 S
C419 C420 1.405 1_565 S
C420 C415 1.403 . S
C420 C419 1.405 1_545 S
C420 H444 0.932 . S
O421 Cd356 2.173 . S
O421 C357 1.277 . S
O422 C357 1.230 . S
O422 Cd360 2.250 . S
O423 Cd356 2.263 . S
O423 C376 1.258 . S
O424 Cd360 2.308 . S
O424 C376 1.274 . S
O425 Cd356 2.366 . S
O425 C412 1.263 . S
C426 O427 1.235 . S
C426 O428 1.270 . S
O427 Cd360 2.352 . S
O427 C426 1.235 . S
O428 Cd356 2.329 . S
O428 C426 1.270 . S
C429 O413 1.270 . S
C429 O414 1.248 . S
H430 C362 0.944 . S
H431 C365 0.930 . S
H432 C366 0.931 1_455 S
H433 C371 0.929 . S
H434 C373 0.930 . S
H435 C375 0.930 . S
H436 C378 0.929 . S
H437 C379 0.932 . S
H438 C381 0.930 . S
H439 C405 0.929 . S
H440 C406 0.932 . S
H441 C407 0.931 . S
H442 C416 0.931 . S
H443 C418 0.929 . S
H444 C420 0.932 . S
Cd445 O502 2.350 . S
Cd445 O503 2.277 . S
Cd445 O510 2.173 . S
Cd445 O512 2.263 . S
Cd445 O514 2.366 . S
Cd445 O517 2.329 . S
C446 O510 1.277 . S
C446 O511 1.230 . S
C447 O448 1.246 . S
C447 C450 1.481 . S
C447 N472 1.329 . S
O448 C447 1.246 . S
Cd449 O511 2.250 . S
Cd449 O513 2.308 . S
Cd449 O516 2.352 . S
C450 C447 1.481 . S
C450 N453 1.327 . S
C450 C454 1.407 . S
C451 C452 1.346 . S
C451 C455 1.390 . S
C451 H519 0.930 . S
C452 C451 1.346 . S
C452 N453 1.342 . S
C452 C457 1.516 . S
N453 C450 1.327 . S
N453 C452 1.342 . S
N453 Co456 1.864 . S
C454 C450 1.407 . S
C454 C455 1.364 . S
C454 H520 0.930 . S
C455 C451 1.390 . S
C455 C454 1.364 . S
C455 H521 0.931 . S
Co456 N453 1.864 . S
Co456 N472 1.955 . S
Co456 N473 1.958 . S
Co456 N474 1.953 . S
Co456 N492 1.869 . S
Co456 N498 1.974 . S
C457 C452 1.516 . S
C457 O458 1.238 . S
C457 N473 1.324 . S
O458 C457 1.238 . S
C459 C460 1.394 . S
C459 C464 1.395 . S
C459 N473 1.427 . S
C460 C459 1.394 . S
C460 C461 1.380 . S
C460 H522 0.929 . S
C461 C460 1.380 . S
C461 C462 1.384 . S
C461 C465 1.495 . S
C462 C461 1.384 . S
C462 C463 1.382 . S
C462 H523 0.930 . S
C463 C462 1.382 . S
C463 C464 1.398 . S
C464 C459 1.395 . S
C464 C463 1.398 . S
C464 H524 0.930 . S
C465 C461 1.495 . S
C465 O512 1.258 . S
C465 O513 1.274 . S
C466 C467 1.385 . S
C466 C468 1.381 . S
C466 N472 1.432 . S
C467 C466 1.385 . S
C467 C471 1.388 . S
C467 H525 0.929 . S
C468 C466 1.381 . S
C468 C469 1.371 . S
C468 H526 0.932 . S
C469 C468 1.371 . S
C469 C470 1.400 . S
C470 C469 1.400 . S
C470 C471 1.351 . S
C470 H527 0.930 . S
C471 C467 1.388 . S
C471 C470 1.351 . S
N472 C447 1.329 . S
N472 Co456 1.955 . S
N472 C466 1.432 . S
N473 Co456 1.958 . S
N473 C457 1.324 . S
N473 C459 1.427 . S
N474 Co456 1.953 . S
N474 C475 1.436 . S
N474 C501 1.316 . S
C475 N474 1.436 . S
C475 C476 1.421 . S
C475 C477 1.360 . S
C476 C475 1.421 . S
C476 C478 1.379 . S
C476 H479 0.929 . S
C477 C475 1.360 . S
C477 C481 1.393 . S
C477 H483 0.931 . S
C478 C476 1.379 . S
C478 C480 1.417 . S
C478 C482 1.505 . S
H479 C476 0.929 . S
C480 C478 1.417 . S
C480 C481 1.352 . S
C480 H484 0.929 . S
C481 C477 1.393 . S
C481 C480 1.352 . S
C481 C485 1.482 . S
C482 C478 1.505 . S
C482 O486 1.259 . S
C482 O487 1.229 . S
H483 C477 0.931 . S
H484 C480 0.929 . S
C485 C481 1.482 . S
C485 O488 1.207 . S
C485 O489 1.289 . S
O486 C482 1.259 . S
O486 H490 0.822 . S
O487 C482 1.229 . S
O488 C485 1.207 . S
O489 C485 1.289 . S
O489 H491 0.819 . S
H490 O486 0.822 . S
H491 O489 0.819 . S
N492 Co456 1.869 . S
N492 C493 1.330 . S
N492 C497 1.325 . S
C493 N492 1.330 . S
C493 C494 1.359 . S
C493 C499 1.504 . S
C494 C493 1.359 . S
C494 C495 1.366 . S
C494 H528 0.929 . S
C495 C494 1.366 . S
C495 C496 1.415 . S
C495 H529 0.932 . S
C496 C495 1.415 . S
C496 C497 1.366 . S
C496 H530 0.931 . S
C497 N492 1.325 . S
C497 C496 1.366 . S
C497 C501 1.516 . S
N498 Co456 1.974 . S
N498 C499 1.309 . S
N498 C504 1.423 . S
C499 C493 1.504 . S
C499 N498 1.309 . S
C499 O500 1.258 . S
O500 C499 1.258 . S
C501 N474 1.316 . S
C501 C497 1.516 . S
C501 O514 1.263 . S
O502 Cd445 2.350 . S
O502 C518 1.270 . S
O503 Cd445 2.277 . S
O503 C518 1.248 . S
C504 N498 1.423 . S
C504 C505 1.370 . S
C504 C509 1.403 . S
C505 C504 1.370 . S
C505 C506 1.389 . S
C505 H531 0.931 . S
C506 C505 1.389 . S
C506 C507 1.389 . S
C507 C506 1.389 . S
C507 C508 1.379 1_655 S
C507 H532 0.929 . S
C508 C507 1.379 1_455 S
C508 C509 1.405 1_455 S
C509 C504 1.403 . S
C509 C508 1.405 1_655 S
C509 H533 0.932 . S
O510 Cd445 2.173 . S
O510 C446 1.277 . S
O511 C446 1.230 . S
O511 Cd449 2.250 . S
O512 Cd445 2.263 . S
O512 C465 1.258 . S
O513 Cd449 2.308 . S
O513 C465 1.274 . S
O514 Cd445 2.366 . S
O514 C501 1.263 . S
C515 O516 1.235 . S
C515 O517 1.270 . S
O516 Cd449 2.352 . S
O516 C515 1.235 . S
O517 Cd445 2.329 . S
O517 C515 1.270 . S
C518 O502 1.270 . S
C518 O503 1.248 . S
H519 C451 0.930 . S
H520 C454 0.930 . S
H521 C455 0.931 . S
H522 C460 0.929 . S
H523 C462 0.930 . S
H524 C464 0.930 . S
H525 C467 0.929 . S
H526 C468 0.932 . S
H527 C470 0.930 . S
H528 C494 0.929 . S
H529 C495 0.932 . S
H530 C496 0.931 . S
H531 C505 0.931 . S
H532 C507 0.929 . S
H533 C509 0.932 . S
Cd534 O591 2.350 . S
Cd534 O592 2.277 . S
Cd534 O599 2.173 . S
Cd534 O601 2.263 . S
Cd534 O603 2.366 . S
Cd534 O606 2.329 . S
C535 O599 1.277 . S
C535 O600 1.230 . S
C536 O537 1.246 . S
C536 C539 1.481 . S
C536 N561 1.329 . S
O537 C536 1.246 . S
Cd538 O600 2.250 . S
Cd538 O602 2.308 . S
Cd538 O605 2.352 . S
C539 C536 1.481 . S
C539 N542 1.327 . S
C539 C543 1.407 . S
C540 C541 1.346 . S
C540 C544 1.390 . S
C540 H608 0.930 . S
C541 C540 1.346 . S
C541 N542 1.342 . S
C541 C546 1.516 . S
N542 C539 1.327 . S
N542 C541 1.342 . S
N542 Co545 1.864 . S
C543 C539 1.407 . S
C543 C544 1.364 . S
C543 H609 0.930 . S
C544 C540 1.390 . S
C544 C543 1.364 . S
C544 H610 0.931 . S
Co545 N542 1.864 . S
Co545 N561 1.955 . S
Co545 N562 1.958 . S
Co545 N563 1.953 . S
Co545 N581 1.869 . S
Co545 N587 1.974 . S
C546 C541 1.516 . S
C546 O547 1.238 . S
C546 N562 1.324 . S
O547 C546 1.238 . S
C548 C549 1.394 . S
C548 C553 1.395 . S
C548 N562 1.427 . S
C549 C548 1.394 . S
C549 C550 1.380 . S
C549 H611 0.929 . S
C550 C549 1.380 . S
C550 C551 1.384 . S
C550 C554 1.495 . S
C551 C550 1.384 . S
C551 C552 1.382 . S
C551 H612 0.930 . S
C552 C551 1.382 . S
C552 C553 1.398 . S
C553 C548 1.395 . S
C553 C552 1.398 . S
C553 H613 0.930 . S
C554 C550 1.495 . S
C554 O601 1.258 . S
C554 O602 1.274 . S
C555 C556 1.385 . S
C555 C557 1.381 . S
C555 N561 1.432 . S
C556 C555 1.385 . S
C556 C560 1.388 . S
C556 H614 0.929 . S
C557 C555 1.381 . S
C557 C558 1.371 . S
C557 H615 0.932 . S
C558 C557 1.371 . S
C558 C559 1.400 . S
C559 C558 1.400 . S
C559 C560 1.351 . S
C559 H616 0.930 . S
C560 C556 1.388 . S
C560 C559 1.351 . S
N561 C536 1.329 . S
N561 Co545 1.955 . S
N561 C555 1.432 . S
N562 Co545 1.958 . S
N562 C546 1.324 . S
N562 C548 1.427 . S
N563 Co545 1.953 . S
N563 C564 1.436 . S
N563 C590 1.316 . S
C564 N563 1.436 . S
C564 C565 1.421 . S
C564 C566 1.360 . S
C565 C564 1.421 . S
C565 C567 1.379 . S
C565 H568 0.929 . S
C566 C564 1.360 . S
C566 C570 1.393 . S
C566 H572 0.931 . S
C567 C565 1.379 . S
C567 C569 1.417 . S
C567 C571 1.505 . S
H568 C565 0.929 . S
C569 C567 1.417 . S
C569 C570 1.352 . S
C569 H573 0.929 . S
C570 C566 1.393 . S
C570 C569 1.352 . S
C570 C574 1.482 . S
C571 C567 1.505 . S
C571 O575 1.259 . S
C571 O576 1.229 . S
H572 C566 0.931 . S
H573 C569 0.929 . S
C574 C570 1.482 . S
C574 O577 1.207 . S
C574 O578 1.289 . S
O575 C571 1.259 . S
O575 H579 0.822 . S
O576 C571 1.229 . S
O577 C574 1.207 . S
O578 C574 1.289 . S
O578 H580 0.819 . S
H579 O575 0.822 . S
H580 O578 0.819 . S
N581 Co545 1.869 . S
N581 C582 1.330 . S
N581 C586 1.325 . S
C582 N581 1.330 . S
C582 C583 1.359 . S
C582 C588 1.504 . S
C583 C582 1.359 . S
C583 C584 1.366 . S
C583 H617 0.929 . S
C584 C583 1.366 . S
C584 C585 1.415 . S
C584 H618 0.932 . S
C585 C584 1.415 . S
C585 C586 1.366 . S
C585 H619 0.931 . S
C586 N581 1.325 . S
C586 C585 1.366 . S
C586 C590 1.516 . S
N587 Co545 1.974 . S
N587 C588 1.309 . S
N587 C593 1.423 . S
C588 C582 1.504 . S
C588 N587 1.309 . S
C588 O589 1.258 . S
O589 C588 1.258 . S
C590 N563 1.316 . S
C590 C586 1.516 . S
C590 O603 1.263 . S
O591 Cd534 2.350 . S
O591 C607 1.270 . S
O592 Cd534 2.277 . S
O592 C607 1.248 . S
C593 N587 1.423 . S
C593 C594 1.370 . S
C593 C598 1.403 . S
C594 C593 1.370 . S
C594 C595 1.389 . S
C594 H620 0.931 . S
C595 C594 1.389 . S
C595 C596 1.389 . S
C596 C595 1.389 . S
C596 C597 1.379 . S
C596 H621 0.929 . S
C597 C596 1.379 . S
C597 C598 1.405 . S
C598 C593 1.403 . S
C598 C597 1.405 . S
C598 H622 0.932 . S
O599 Cd534 2.173 . S
O599 C535 1.277 . S
O600 C535 1.230 . S
O600 Cd538 2.250 . S
O601 Cd534 2.263 . S
O601 C554 1.258 . S
O602 Cd538 2.308 . S
O602 C554 1.274 . S
O603 Cd534 2.366 . S
O603 C590 1.263 . S
C604 O605 1.235 . S
C604 O606 1.270 . S
O605 Cd538 2.352 . S
O605 C604 1.235 . S
O606 Cd534 2.329 . S
O606 C604 1.270 . S
C607 O591 1.270 . S
C607 O592 1.248 . S
H608 C540 0.930 . S
H609 C543 0.930 . S
H610 C544 0.931 . S
H611 C549 0.929 . S
H612 C551 0.930 . S
H613 C553 0.930 . S
H614 C556 0.929 . S
H615 C557 0.932 . S
H616 C559 0.930 . S
H617 C583 0.929 . S
H618 C584 0.932 . S
H619 C585 0.931 . S
H620 C594 0.931 . S
H621 C596 0.929 . S
H622 C598 0.932 . S
Cd623 O680 2.350 . S
Cd623 O681 2.277 . S
Cd623 O688 2.173 . S
Cd623 O690 2.263 . S
Cd623 O692 2.366 . S
Cd623 O695 2.329 . S
C624 O688 1.277 . S
C624 O689 1.230 . S
C625 O626 1.246 . S
C625 C628 1.481 . S
C625 N650 1.329 . S
O626 C625 1.246 . S
Cd627 O689 2.250 . S
Cd627 O691 2.308 . S
Cd627 O694 2.352 1_545 S
C628 C625 1.481 . S
C628 N631 1.327 . S
C628 C632 1.407 . S
C629 C630 1.346 . S
C629 C633 1.390 . S
C629 H697 0.930 . S
C630 C629 1.346 . S
C630 N631 1.342 . S
C630 C635 1.516 . S
N631 C628 1.327 . S
N631 C630 1.342 . S
N631 Co634 1.864 . S
C632 C628 1.407 . S
C632 C633 1.364 . S
C632 H698 0.930 . S
C633 C629 1.390 . S
C633 C632 1.364 . S
C633 H699 0.931 . S
Co634 N631 1.864 . S
Co634 N650 1.955 . S
Co634 N651 1.958 . S
Co634 N652 1.953 . S
Co634 N670 1.869 . S
Co634 N676 1.974 . S
C635 C630 1.516 . S
C635 O636 1.238 . S
C635 N651 1.324 . S
O636 C635 1.238 . S
C637 C638 1.394 . S
C637 C642 1.395 . S
C637 N651 1.427 . S
C638 C637 1.394 . S
C638 C639 1.380 . S
C638 H700 0.929 . S
C639 C638 1.380 . S
C639 C640 1.384 . S
C639 C643 1.495 . S
C640 C639 1.384 . S
C640 C641 1.382 . S
C640 H701 0.930 . S
C641 C640 1.382 . S
C641 C642 1.398 . S
C642 C637 1.395 . S
C642 C641 1.398 . S
C642 H702 0.930 . S
C643 C639 1.495 . S
C643 O690 1.258 . S
C643 O691 1.274 . S
C644 C645 1.385 . S
C644 C646 1.381 . S
C644 N650 1.432 . S
C645 C644 1.385 . S
C645 C649 1.388 . S
C645 H703 0.929 . S
C646 C644 1.381 . S
C646 C647 1.371 . S
C646 H704 0.932 . S
C647 C646 1.371 . S
C647 C648 1.400 . S
C648 C647 1.400 . S
C648 C649 1.351 . S
C648 H705 0.930 . S
C649 C645 1.388 . S
C649 C648 1.351 . S
N650 C625 1.329 . S
N650 Co634 1.955 . S
N650 C644 1.432 . S
N651 Co634 1.958 . S
N651 C635 1.324 . S
N651 C637 1.427 . S
N652 Co634 1.953 . S
N652 C653 1.436 . S
N652 C679 1.316 . S
C653 N652 1.436 . S
C653 C654 1.421 . S
C653 C655 1.360 . S
C654 C653 1.421 . S
C654 C656 1.379 . S
C654 H657 0.929 . S
C655 C653 1.360 . S
C655 C659 1.393 . S
C655 H661 0.931 . S
C656 C654 1.379 . S
C656 C658 1.417 . S
C656 C660 1.505 . S
H657 C654 0.929 . S
C658 C656 1.417 . S
C658 C659 1.352 . S
C658 H662 0.929 . S
C659 C655 1.393 . S
C659 C658 1.352 . S
C659 C663 1.482 . S
C660 C656 1.505 . S
C660 O664 1.259 . S
C660 O665 1.229 . S
H661 C655 0.931 . S
H662 C658 0.929 . S
C663 C659 1.482 . S
C663 O666 1.207 . S
C663 O667 1.289 . S
O664 C660 1.259 . S
O664 H668 0.822 . S
O665 C660 1.229 . S
O666 C663 1.207 . S
O667 C663 1.289 . S
O667 H669 0.819 . S
H668 O664 0.822 . S
H669 O667 0.819 . S
N670 Co634 1.869 . S
N670 C671 1.330 . S
N670 C675 1.325 . S
C671 N670 1.330 . S
C671 C672 1.359 . S
C671 C677 1.504 . S
C672 C671 1.359 . S
C672 C673 1.366 . S
C672 H706 0.929 . S
C673 C672 1.366 . S
C673 C674 1.415 . S
C673 H707 0.932 . S
C674 C673 1.415 . S
C674 C675 1.366 . S
C674 H708 0.931 . S
C675 N670 1.325 . S
C675 C674 1.366 . S
C675 C679 1.516 . S
N676 Co634 1.974 . S
N676 C677 1.309 . S
N676 C682 1.423 . S
C677 C671 1.504 . S
C677 N676 1.309 . S
C677 O678 1.258 . S
O678 C677 1.258 . S
C679 N652 1.316 . S
C679 C675 1.516 . S
C679 O692 1.263 . S
O680 Cd623 2.350 . S
O680 C696 1.270 . S
O681 Cd623 2.277 . S
O681 C696 1.248 . S
C682 N676 1.423 . S
C682 C683 1.370 . S
C682 C687 1.403 . S
C683 C682 1.370 . S
C683 C684 1.389 . S
C683 H709 0.931 . S
C684 C683 1.389 . S
C684 C685 1.389 . S
C685 C684 1.389 . S
C685 C686 1.379 . S
C685 H710 0.929 . S
C686 C685 1.379 . S
C686 C687 1.405 . S
C687 C682 1.403 . S
C687 C686 1.405 . S
C687 H711 0.932 . S
O688 Cd623 2.173 . S
O688 C624 1.277 . S
O689 C624 1.230 . S
O689 Cd627 2.250 . S
O690 Cd623 2.263 . S
O690 C643 1.258 . S
O691 Cd627 2.308 . S
O691 C643 1.274 . S
O692 Cd623 2.366 . S
O692 C679 1.263 . S
C693 O694 1.235 . S
C693 O695 1.270 1_565 S
O694 Cd627 2.352 1_565 S
O694 C693 1.235 . S
O695 Cd623 2.329 . S
O695 C693 1.270 1_545 S
C696 O680 1.270 . S
C696 O681 1.248 . S
H697 C629 0.930 . S
H698 C632 0.930 . S
H699 C633 0.931 . S
H700 C638 0.929 . S
H701 C640 0.930 . S
H702 C642 0.930 . S
H703 C645 0.929 . S
H704 C646 0.932 . S
H705 C648 0.930 . S
H706 C672 0.929 . S
H707 C673 0.932 . S
H708 C674 0.931 . S
H709 C683 0.931 . S
H710 C685 0.929 . S
H711 C687 0.932 . S
Cd712 O769 2.350 . S
Cd712 O770 2.277 . S
Cd712 O777 2.173 . S
Cd712 O779 2.263 . S
Cd712 O781 2.366 . S
Cd712 O784 2.329 . S
C713 O777 1.277 . S
C713 O778 1.230 . S
C714 O715 1.246 . S
C714 C717 1.481 . S
C714 N739 1.329 . S
O715 C714 1.246 . S
Cd716 O778 2.250 . S
Cd716 O780 2.308 . S
Cd716 O783 2.352 1_655 S
C717 C714 1.481 . S
C717 N720 1.327 . S
C717 C721 1.407 . S
C718 C719 1.346 . S
C718 C722 1.390 . S
C718 H786 0.930 . S
C719 C718 1.346 . S
C719 N720 1.342 . S
C719 C724 1.516 . S
N720 C717 1.327 . S
N720 C719 1.342 . S
N720 Co723 1.864 . S
C721 C717 1.407 . S
C721 C722 1.364 . S
C721 H787 0.930 . S
C722 C718 1.390 . S
C722 C721 1.364 . S
C722 H788 0.931 . S
Co723 N720 1.864 . S
Co723 N739 1.955 . S
Co723 N740 1.958 . S
Co723 N741 1.953 . S
Co723 N759 1.869 . S
Co723 N765 1.974 . S
C724 C719 1.516 . S
C724 O725 1.238 . S
C724 N740 1.324 . S
O725 C724 1.238 . S
C726 C727 1.394 . S
C726 C731 1.395 . S
C726 N740 1.427 . S
C727 C726 1.394 . S
C727 C728 1.380 . S
C727 H789 0.929 . S
C728 C727 1.380 . S
C728 C729 1.384 . S
C728 C732 1.495 . S
C729 C728 1.384 . S
C729 C730 1.382 . S
C729 H790 0.930 . S
C730 C729 1.382 . S
C730 C731 1.398 . S
C731 C726 1.395 . S
C731 C730 1.398 . S
C731 H791 0.930 . S
C732 C728 1.495 . S
C732 O779 1.258 . S
C732 O780 1.274 . S
C733 C734 1.385 . S
C733 C735 1.381 . S
C733 N739 1.432 . S
C734 C733 1.385 . S
C734 C738 1.388 . S
C734 H792 0.929 . S
C735 C733 1.381 . S
C735 C736 1.371 . S
C735 H793 0.932 . S
C736 C735 1.371 . S
C736 C737 1.400 . S
C737 C736 1.400 . S
C737 C738 1.351 . S
C737 H794 0.930 . S
C738 C734 1.388 . S
C738 C737 1.351 . S
N739 C714 1.329 . S
N739 Co723 1.955 . S
N739 C733 1.432 . S
N740 Co723 1.958 . S
N740 C724 1.324 . S
N740 C726 1.427 . S
N741 Co723 1.953 . S
N741 C742 1.436 . S
N741 C768 1.316 . S
C742 N741 1.436 . S
C742 C743 1.421 . S
C742 C744 1.360 . S
C743 C742 1.421 . S
C743 C745 1.379 . S
C743 H746 0.929 . S
C744 C742 1.360 . S
C744 C748 1.393 . S
C744 H750 0.931 . S
C745 C743 1.379 . S
C745 C747 1.417 . S
C745 C749 1.505 . S
H746 C743 0.929 . S
C747 C745 1.417 . S
C747 C748 1.352 . S
C747 H751 0.929 . S
C748 C744 1.393 . S
C748 C747 1.352 . S
C748 C752 1.482 . S
C749 C745 1.505 . S
C749 O753 1.259 . S
C749 O754 1.229 . S
H750 C744 0.931 . S
H751 C747 0.929 . S
C752 C748 1.482 . S
C752 O755 1.207 . S
C752 O756 1.289 . S
O753 C749 1.259 . S
O753 H757 0.822 . S
O754 C749 1.229 . S
O755 C752 1.207 . S
O756 C752 1.289 . S
O756 H758 0.819 . S
H757 O753 0.822 . S
H758 O756 0.819 . S
N759 Co723 1.869 . S
N759 C760 1.330 . S
N759 C764 1.325 . S
C760 N759 1.330 . S
C760 C761 1.359 . S
C760 C766 1.504 . S
C761 C760 1.359 . S
C761 C762 1.366 . S
C761 H795 0.929 . S
C762 C761 1.366 . S
C762 C763 1.415 . S
C762 H796 0.932 . S
C763 C762 1.415 . S
C763 C764 1.366 . S
C763 H797 0.931 . S
C764 N759 1.325 . S
C764 C763 1.366 . S
C764 C768 1.516 . S
N765 Co723 1.974 . S
N765 C766 1.309 . S
N765 C771 1.423 . S
C766 C760 1.504 . S
C766 N765 1.309 . S
C766 O767 1.258 . S
O767 C766 1.258 . S
C768 N741 1.316 . S
C768 C764 1.516 . S
C768 O781 1.263 . S
O769 Cd712 2.350 . S
O769 C785 1.270 . S
O770 Cd712 2.277 . S
O770 C785 1.248 . S
C771 N765 1.423 . S
C771 C772 1.370 . S
C771 C776 1.403 . S
C772 C771 1.370 . S
C772 C773 1.389 . S
C772 H798 0.931 . S
C773 C772 1.389 . S
C773 C774 1.389 . S
C774 C773 1.389 . S
C774 C775 1.379 . S
C774 H799 0.929 . S
C775 C774 1.379 . S
C775 C776 1.405 . S
C776 C771 1.403 . S
C776 C775 1.405 . S
C776 H800 0.932 . S
O777 Cd712 2.173 . S
O777 C713 1.277 . S
O778 C713 1.230 . S
O778 Cd716 2.250 . S
O779 Cd712 2.263 . S
O779 C732 1.258 . S
O780 Cd716 2.308 . S
O780 C732 1.274 . S
O781 Cd712 2.366 . S
O781 C768 1.263 . S
C782 O783 1.235 . S
C782 O784 1.270 1_455 S
O783 Cd716 2.352 1_455 S
O783 C782 1.235 . S
O784 Cd712 2.329 . S
O784 C782 1.270 1_655 S
C785 O769 1.270 . S
C785 O770 1.248 . S
H786 C718 0.930 . S
H787 C721 0.930 . S
H788 C722 0.931 . S
H789 C727 0.929 . S
H790 C729 0.930 . S
H791 C731 0.930 . S
H792 C734 0.929 . S
H793 C735 0.932 . S
H794 C737 0.930 . S
H795 C761 0.929 . S
H796 C762 0.932 . S
H797 C763 0.931 . S
H798 C772 0.931 . S
H799 C774 0.929 . S
H800 C776 0.932 . S
Cd801 O858 2.350 . S
Cd801 O859 2.277 . S
Cd801 O866 2.173 . S
Cd801 O868 2.263 . S
Cd801 O870 2.366 . S
Cd801 O873 2.329 . S
C802 O866 1.277 . S
C802 O867 1.230 . S
C803 O804 1.246 . S
C803 C806 1.481 . S
C803 N828 1.329 . S
O804 C803 1.246 . S
Cd805 O867 2.250 . S
Cd805 O869 2.308 . S
Cd805 O872 2.352 . S
C806 C803 1.481 . S
C806 N809 1.327 . S
C806 C810 1.407 . S
C807 C808 1.346 . S
C807 C811 1.390 . S
C807 H875 0.930 . S
C808 C807 1.346 . S
C808 N809 1.342 . S
C808 C813 1.516 . S
N809 C806 1.327 . S
N809 C808 1.342 . S
N809 Co812 1.864 . S
C810 C806 1.407 . S
C810 C811 1.364 . S
C810 H876 0.930 . S
C811 C807 1.390 . S
C811 C810 1.364 . S
C811 H877 0.931 . S
Co812 N809 1.864 . S
Co812 N828 1.955 . S
Co812 N829 1.958 . S
Co812 N830 1.953 . S
Co812 N848 1.869 . S
Co812 N854 1.974 . S
C813 C808 1.516 . S
C813 O814 1.238 . S
C813 N829 1.324 . S
O814 C813 1.238 . S
C815 C816 1.394 1_655 S
C815 C820 1.395 . S
C815 N829 1.427 . S
C816 C815 1.394 1_455 S
C816 C817 1.380 . S
C816 H878 0.929 . S
C817 C816 1.380 . S
C817 C818 1.384 . S
C817 C821 1.495 . S
C818 C817 1.384 . S
C818 C819 1.382 1_455 S
C818 H879 0.930 . S
C819 C818 1.382 1_655 S
C819 C820 1.398 . S
C820 C815 1.395 . S
C820 C819 1.398 . S
C820 H880 0.930 . S
C821 C817 1.495 . S
C821 O868 1.258 . S
C821 O869 1.274 . S
C822 C823 1.385 . S
C822 C824 1.381 . S
C822 N828 1.432 . S
C823 C822 1.385 . S
C823 C827 1.388 . S
C823 H881 0.929 . S
C824 C822 1.381 . S
C824 C825 1.371 . S
C824 H882 0.932 . S
C825 C824 1.371 . S
C825 C826 1.400 . S
C826 C825 1.400 . S
C826 C827 1.351 . S
C826 H883 0.930 1_655 S
C827 C823 1.388 . S
C827 C826 1.351 . S
N828 C803 1.329 . S
N828 Co812 1.955 . S
N828 C822 1.432 . S
N829 Co812 1.958 . S
N829 C813 1.324 . S
N829 C815 1.427 . S
N830 Co812 1.953 . S
N830 C831 1.436 . S
N830 C857 1.316 1_655 S
C831 N830 1.436 . S
C831 C832 1.421 . S
C831 C833 1.360 . S
C832 C831 1.421 . S
C832 C834 1.379 . S
C832 H835 0.929 . S
C833 C831 1.360 . S
C833 C837 1.393 . S
C833 H839 0.931 . S
C834 C832 1.379 . S
C834 C836 1.417 . S
C834 C838 1.505 . S
H835 C832 0.929 . S
C836 C834 1.417 . S
C836 C837 1.352 . S
C836 H840 0.929 . S
C837 C833 1.393 . S
C837 C836 1.352 . S
C837 C841 1.482 . S
C838 C834 1.505 . S
C838 O842 1.259 . S
C838 O843 1.229 1_655 S
H839 C833 0.931 . S
H840 C836 0.929 . S
C841 C837 1.482 . S
C841 O844 1.207 . S
C841 O845 1.289 . S
O842 C838 1.259 . S
O842 H846 0.822 . S
O843 C838 1.229 1_455 S
O844 C841 1.207 . S
O845 C841 1.289 . S
O845 H847 0.819 . S
H846 O842 0.822 . S
H847 O845 0.819 . S
N848 Co812 1.869 . S
N848 C849 1.330 . S
N848 C853 1.325 1_655 S
C849 N848 1.330 . S
C849 C850 1.359 . S
C849 C855 1.504 . S
C850 C849 1.359 . S
C850 C851 1.366 1_655 S
C850 H884 0.929 . S
C851 C850 1.366 1_455 S
C851 C852 1.415 . S
C851 H885 0.932 . S
C852 C851 1.415 . S
C852 C853 1.366 . S
C852 H886 0.931 . S
C853 N848 1.325 1_455 S
C853 C852 1.366 . S
C853 C857 1.516 . S
N854 Co812 1.974 . S
N854 C855 1.309 . S
N854 C860 1.423 . S
C855 C849 1.504 . S
C855 N854 1.309 . S
C855 O856 1.258 . S
O856 C855 1.258 . S
C857 N830 1.316 1_455 S
C857 C853 1.516 . S
C857 O870 1.263 . S
O858 Cd801 2.350 . S
O858 C874 1.270 . S
O859 Cd801 2.277 . S
O859 C874 1.248 . S
C860 N854 1.423 . S
C860 C861 1.370 . S
C860 C865 1.403 . S
C861 C860 1.370 . S
C861 C862 1.389 . S
C861 H887 0.931 . S
C862 C861 1.389 . S
C862 C863 1.389 . S
C863 C862 1.389 . S
C863 C864 1.379 . S
C863 H888 0.929 . S
C864 C863 1.379 . S
C864 C865 1.405 . S
C865 C860 1.403 . S
C865 C864 1.405 . S
C865 H889 0.932 . S
O866 Cd801 2.173 . S
O866 C802 1.277 . S
O867 C802 1.230 . S
O867 Cd805 2.250 . S
O868 Cd801 2.263 . S
O868 C821 1.258 . S
O869 Cd805 2.308 . S
O869 C821 1.274 . S
O870 Cd801 2.366 . S
O870 C857 1.263 . S
C871 O872 1.235 . S
C871 O873 1.270 . S
O872 Cd805 2.352 . S
O872 C871 1.235 . S
O873 Cd801 2.329 . S
O873 C871 1.270 . S
C874 O858 1.270 . S
C874 O859 1.248 . S
H875 C807 0.930 . S
H876 C810 0.930 . S
H877 C811 0.931 . S
H878 C816 0.929 . S
H879 C818 0.930 . S
H880 C820 0.930 . S
H881 C823 0.929 . S
H882 C824 0.932 . S
H883 C826 0.930 1_455 S
H884 C850 0.929 . S
H885 C851 0.932 . S
H886 C852 0.931 . S
H887 C861 0.931 . S
H888 C863 0.929 . S
H889 C865 0.932 . S
Cd890 O947 2.350 . S
Cd890 O948 2.277 . S
Cd890 O955 2.173 . S
Cd890 O957 2.263 . S
Cd890 O959 2.366 . S
Cd890 O962 2.329 . S
C891 O955 1.277 . S
C891 O956 1.230 . S
C892 O893 1.246 . S
C892 C895 1.481 . S
C892 N917 1.329 . S
O893 C892 1.246 . S
Cd894 O956 2.250 . S
Cd894 O958 2.308 . S
Cd894 O961 2.352 . S
C895 C892 1.481 . S
C895 N898 1.327 . S
C895 C899 1.407 . S
C896 C897 1.346 . S
C896 C900 1.390 . S
C896 H964 0.930 . S
C897 C896 1.346 . S
C897 N898 1.342 . S
C897 C902 1.516 . S
N898 C895 1.327 . S
N898 C897 1.342 . S
N898 Co901 1.864 . S
C899 C895 1.407 . S
C899 C900 1.364 . S
C899 H965 0.930 . S
C900 C896 1.390 . S
C900 C899 1.364 . S
C900 H966 0.931 . S
Co901 N898 1.864 . S
Co901 N917 1.955 . S
Co901 N918 1.958 . S
Co901 N919 1.953 . S
Co901 N937 1.869 . S
Co901 N943 1.974 . S
C902 C897 1.516 . S
C902 O903 1.238 . S
C902 N918 1.324 . S
O903 C902 1.238 . S
C904 C905 1.394 . S
C904 C909 1.395 . S
C904 N918 1.427 . S
C905 C904 1.394 . S
C905 C906 1.380 . S
C905 H967 0.929 . S
C906 C905 1.380 . S
C906 C907 1.384 . S
C906 C910 1.495 . S
C907 C906 1.384 . S
C907 C908 1.382 . S
C907 H968 0.930 . S
C908 C907 1.382 . S
C908 C909 1.398 . S
C909 C904 1.395 . S
C909 C908 1.398 . S
C909 H969 0.930 . S
C910 C906 1.495 . S
C910 O957 1.258 . S
C910 O958 1.274 . S
C911 C912 1.385 . S
C911 C913 1.381 . S
C911 N917 1.432 . S
C912 C911 1.385 . S
C912 C916 1.388 . S
C912 H970 0.929 . S
C913 C911 1.381 . S
C913 C914 1.371 . S
C913 H971 0.932 . S
C914 C913 1.371 . S
C914 C915 1.400 . S
C915 C914 1.400 . S
C915 C916 1.351 . S
C915 H972 0.930 . S
C916 C912 1.388 . S
C916 C915 1.351 . S
N917 C892 1.329 . S
N917 Co901 1.955 . S
N917 C911 1.432 . S
N918 Co901 1.958 . S
N918 C902 1.324 . S
N918 C904 1.427 . S
N919 Co901 1.953 . S
N919 C920 1.436 . S
N919 C946 1.316 . S
C920 N919 1.436 . S
C920 C921 1.421 . S
C920 C922 1.360 . S
C921 C920 1.421 . S
C921 C923 1.379 . S
C921 H924 0.929 . S
C922 C920 1.360 . S
C922 C926 1.393 . S
C922 H928 0.931 . S
C923 C921 1.379 . S
C923 C925 1.417 . S
C923 C927 1.505 . S
H924 C921 0.929 . S
C925 C923 1.417 . S
C925 C926 1.352 . S
C925 H929 0.929 . S
C926 C922 1.393 . S
C926 C925 1.352 . S
C926 C930 1.482 . S
C927 C923 1.505 . S
C927 O931 1.259 . S
C927 O932 1.229 . S
H928 C922 0.931 . S
H929 C925 0.929 . S
C930 C926 1.482 . S
C930 O933 1.207 . S
C930 O934 1.289 . S
O931 C927 1.259 . S
O931 H935 0.822 . S
O932 C927 1.229 . S
O933 C930 1.207 . S
O934 C930 1.289 . S
O934 H936 0.819 . S
H935 O931 0.822 . S
H936 O934 0.819 . S
N937 Co901 1.869 . S
N937 C938 1.330 . S
N937 C942 1.325 . S
C938 N937 1.330 . S
C938 C939 1.359 . S
C938 C944 1.504 . S
C939 C938 1.359 . S
C939 C940 1.366 . S
C939 H973 0.929 . S
C940 C939 1.366 . S
C940 C941 1.415 . S
C940 H974 0.932 . S
C941 C940 1.415 . S
C941 C942 1.366 . S
C941 H975 0.931 . S
C942 N937 1.325 . S
C942 C941 1.366 . S
C942 C946 1.516 . S
N943 Co901 1.974 . S
N943 C944 1.309 . S
N943 C949 1.423 . S
C944 C938 1.504 . S
C944 N943 1.309 . S
C944 O945 1.258 . S
O945 C944 1.258 . S
C946 N919 1.316 . S
C946 C942 1.516 . S
C946 O959 1.263 . S
O947 Cd890 2.350 . S
O947 C963 1.270 . S
O948 Cd890 2.277 . S
O948 C963 1.248 . S
C949 N943 1.423 . S
C949 C950 1.370 . S
C949 C954 1.403 . S
C950 C949 1.370 . S
C950 C951 1.389 . S
C950 H976 0.931 . S
C951 C950 1.389 . S
C951 C952 1.389 . S
C952 C951 1.389 . S
C952 C953 1.379 . S
C952 H977 0.929 . S
C953 C952 1.379 . S
C953 C954 1.405 . S
C954 C949 1.403 . S
C954 C953 1.405 . S
C954 H978 0.932 . S
O955 Cd890 2.173 . S
O955 C891 1.277 . S
O956 C891 1.230 . S
O956 Cd894 2.250 . S
O957 Cd890 2.263 . S
O957 C910 1.258 . S
O958 Cd894 2.308 . S
O958 C910 1.274 . S
O959 Cd890 2.366 . S
O959 C946 1.263 . S
C960 O961 1.235 . S
C960 O962 1.270 . S
O961 Cd894 2.352 . S
O961 C960 1.235 . S
O962 Cd890 2.329 . S
O962 C960 1.270 . S
C963 O947 1.270 . S
C963 O948 1.248 . S
H964 C896 0.930 . S
H965 C899 0.930 . S
H966 C900 0.931 . S
H967 C905 0.929 . S
H968 C907 0.930 . S
H969 C909 0.930 . S
H970 C912 0.929 . S
H971 C913 0.932 . S
H972 C915 0.930 . S
H973 C939 0.929 . S
H974 C940 0.932 . S
H975 C941 0.931 . S
H976 C950 0.931 . S
H977 C952 0.929 . S
H978 C954 0.932 . S
Cd979 O1036 2.350 . S
Cd979 O1037 2.277 . S
Cd979 O1044 2.173 . S
Cd979 O1046 2.263 . S
Cd979 O1048 2.366 . S
Cd979 O1051 2.329 . S
C980 O1044 1.277 . S
C980 O1045 1.230 . S
C981 O982 1.246 . S
C981 C984 1.481 . S
C981 N1006 1.329 . S
O982 C981 1.246 . S
Cd983 O1045 2.250 . S
Cd983 O1047 2.308 . S
Cd983 O1050 2.352 . S
C984 C981 1.481 . S
C984 N987 1.327 . S
C984 C988 1.407 . S
C985 C986 1.346 . S
C985 C989 1.390 . S
C985 H1053 0.930 . S
C986 C985 1.346 . S
C986 N987 1.342 . S
C986 C991 1.516 . S
N987 C984 1.327 . S
N987 C986 1.342 . S
N987 Co990 1.864 . S
C988 C984 1.407 . S
C988 C989 1.364 . S
C988 H1054 0.930 . S
C989 C985 1.390 . S
C989 C988 1.364 . S
C989 H1055 0.931 . S
Co990 N987 1.864 . S
Co990 N1006 1.955 . S
Co990 N1007 1.958 . S
Co990 N1008 1.953 . S
Co990 N1026 1.869 . S
Co990 N1032 1.974 . S
C991 C986 1.516 . S
C991 O992 1.238 . S
C991 N1007 1.324 . S
O992 C991 1.238 . S
C993 C994 1.394 1_545 S
C993 C998 1.395 . S
C993 N1007 1.427 . S
C994 C993 1.394 1_565 S
C994 C995 1.380 . S
C994 H1056 0.929 . S
C995 C994 1.380 . S
C995 C996 1.384 . S
C995 C999 1.495 . S
C996 C995 1.384 . S
C996 C997 1.382 1_565 S
C996 H1057 0.930 . S
C997 C996 1.382 1_545 S
C997 C998 1.398 . S
C998 C993 1.395 . S
C998 C997 1.398 . S
C998 H1058 0.930 . S
C999 C995 1.495 . S
C999 O1046 1.258 . S
C999 O1047 1.274 . S
C1000 C1001 1.385 . S
C1000 C1002 1.381 . S
C1000 N1006 1.432 . S
C1001 C1000 1.385 . S
C1001 C1005 1.388 . S
C1001 H1059 0.929 . S
C1002 C1000 1.381 . S
C1002 C1003 1.371 . S
C1002 H1060 0.932 . S
C1003 C1002 1.371 . S
C1003 C1004 1.400 . S
C1004 C1003 1.400 . S
C1004 C1005 1.351 . S
C1004 H1061 0.930 1_545 S
C1005 C1001 1.388 . S
C1005 C1004 1.351 . S
N1006 C981 1.329 . S
N1006 Co990 1.955 . S
N1006 C1000 1.432 . S
N1007 Co990 1.958 . S
N1007 C991 1.324 . S
N1007 C993 1.427 . S
N1008 Co990 1.953 . S
N1008 C1009 1.436 . S
N1008 C1035 1.316 1_545 S
C1009 N1008 1.436 . S
C1009 C1010 1.421 . S
C1009 C1011 1.360 . S
C1010 C1009 1.421 . S
C1010 C1012 1.379 . S
C1010 H1013 0.929 . S
C1011 C1009 1.360 . S
C1011 C1015 1.393 . S
C1011 H1017 0.931 . S
C1012 C1010 1.379 . S
C1012 C1014 1.417 . S
C1012 C1016 1.505 . S
H1013 C1010 0.929 . S
C1014 C1012 1.417 . S
C1014 C1015 1.352 . S
C1014 H1018 0.929 . S
C1015 C1011 1.393 . S
C1015 C1014 1.352 . S
C1015 C1019 1.482 . S
C1016 C1012 1.505 . S
C1016 O1020 1.259 . S
C1016 O1021 1.229 1_545 S
H1017 C1011 0.931 . S
H1018 C1014 0.929 . S
C1019 C1015 1.482 . S
C1019 O1022 1.207 . S
C1019 O1023 1.289 . S
O1020 C1016 1.259 . S
O1020 H1024 0.822 . S
O1021 C1016 1.229 1_565 S
O1022 C1019 1.207 . S
O1023 C1019 1.289 . S
O1023 H1025 0.819 . S
H1024 O1020 0.822 . S
H1025 O1023 0.819 . S
N1026 Co990 1.869 . S
N1026 C1027 1.330 . S
N1026 C1031 1.325 1_545 S
C1027 N1026 1.330 . S
C1027 C1028 1.359 . S
C1027 C1033 1.504 . S
C1028 C1027 1.359 . S
C1028 C1029 1.366 1_545 S
C1028 H1062 0.929 . S
C1029 C1028 1.366 1_565 S
C1029 C1030 1.415 . S
C1029 H1063 0.932 . S
C1030 C1029 1.415 . S
C1030 C1031 1.366 . S
C1030 H1064 0.931 . S
C1031 N1026 1.325 1_565 S
C1031 C1030 1.366 . S
C1031 C1035 1.516 . S
N1032 Co990 1.974 . S
N1032 C1033 1.309 . S
N1032 C1038 1.423 . S
C1033 C1027 1.504 . S
C1033 N1032 1.309 . S
C1033 O1034 1.258 . S
O1034 C1033 1.258 . S
C1035 N1008 1.316 1_565 S
C1035 C1031 1.516 . S
C1035 O1048 1.263 . S
O1036 Cd979 2.350 . S
O1036 C1052 1.270 . S
O1037 Cd979 2.277 . S
O1037 C1052 1.248 . S
C1038 N1032 1.423 . S
C1038 C1039 1.370 . S
C1038 C1043 1.403 . S
C1039 C1038 1.370 . S
C1039 C1040 1.389 . S
C1039 H1065 0.931 . S
C1040 C1039 1.389 . S
C1040 C1041 1.389 . S
C1041 C1040 1.389 . S
C1041 C1042 1.379 . S
C1041 H1066 0.929 . S
C1042 C1041 1.379 . S
C1042 C1043 1.405 . S
C1043 C1038 1.403 . S
C1043 C1042 1.405 . S
C1043 H1067 0.932 . S
O1044 Cd979 2.173 . S
O1044 C980 1.277 . S
O1045 C980 1.230 . S
O1045 Cd983 2.250 . S
O1046 Cd979 2.263 . S
O1046 C999 1.258 . S
O1047 Cd983 2.308 . S
O1047 C999 1.274 . S
O1048 Cd979 2.366 . S
O1048 C1035 1.263 . S
C1049 O1050 1.235 . S
C1049 O1051 1.270 . S
O1050 Cd983 2.352 . S
O1050 C1049 1.235 . S
O1051 Cd979 2.329 . S
O1051 C1049 1.270 . S
C1052 O1036 1.270 . S
C1052 O1037 1.248 . S
H1053 C985 0.930 . S
H1054 C988 0.930 . S
H1055 C989 0.931 . S
H1056 C994 0.929 . S
H1057 C996 0.930 . S
H1058 C998 0.930 . S
H1059 C1001 0.929 . S
H1060 C1002 0.932 . S
H1061 C1004 0.930 1_565 S
H1062 C1028 0.929 . S
H1063 C1029 0.932 . S
H1064 C1030 0.931 . S
H1065 C1039 0.931 . S
H1066 C1041 0.929 . S
H1067 C1043 0.932 . S
Cd1068 O1125 2.350 . S
Cd1068 O1126 2.277 . S
Cd1068 O1133 2.173 . S
Cd1068 O1135 2.263 . S
Cd1068 O1137 2.366 . S
Cd1068 O1140 2.329 . S
C1069 O1133 1.277 . S
C1069 O1134 1.230 . S
C1070 O1071 1.246 . S
C1070 C1073 1.481 . S
C1070 N1095 1.329 . S
O1071 C1070 1.246 . S
Cd1072 O1134 2.250 . S
Cd1072 O1136 2.308 . S
Cd1072 O1139 2.352 . S
C1073 C1070 1.481 . S
C1073 N1076 1.327 . S
C1073 C1077 1.407 . S
C1074 C1075 1.346 . S
C1074 C1078 1.390 . S
C1074 H1142 0.930 . S
C1075 C1074 1.346 . S
C1075 N1076 1.342 . S
C1075 C1080 1.516 . S
N1076 C1073 1.327 . S
N1076 C1075 1.342 . S
N1076 Co1079 1.864 . S
C1077 C1073 1.407 . S
C1077 C1078 1.364 . S
C1077 H1143 0.930 . S
C1078 C1074 1.390 . S
C1078 C1077 1.364 . S
C1078 H1144 0.931 . S
Co1079 N1076 1.864 . S
Co1079 N1095 1.955 . S
Co1079 N1096 1.958 . S
Co1079 N1097 1.953 . S
Co1079 N1115 1.869 . S
Co1079 N1121 1.974 . S
C1080 C1075 1.516 . S
C1080 O1081 1.238 . S
C1080 N1096 1.324 . S
O1081 C1080 1.238 . S
C1082 C1083 1.394 1_565 S
C1082 C1087 1.395 . S
C1082 N1096 1.427 . S
C1083 C1082 1.394 1_545 S
C1083 C1084 1.380 . S
C1083 H1145 0.929 . S
C1084 C1083 1.380 . S
C1084 C1085 1.384 . S
C1084 C1088 1.495 . S
C1085 C1084 1.384 . S
C1085 C1086 1.382 1_545 S
C1085 H1146 0.930 . S
C1086 C1085 1.382 1_565 S
C1086 C1087 1.398 . S
C1087 C1082 1.395 . S
C1087 C1086 1.398 . S
C1087 H1147 0.930 . S
C1088 C1084 1.495 . S
C1088 O1135 1.258 . S
C1088 O1136 1.274 . S
C1089 C1090 1.385 . S
C1089 C1091 1.381 . S
C1089 N1095 1.432 . S
C1090 C1089 1.385 . S
C1090 C1094 1.388 . S
C1090 H1148 0.929 . S
C1091 C1089 1.381 . S
C1091 C1092 1.371 . S
C1091 H1149 0.932 . S
C1092 C1091 1.371 . S
C1092 C1093 1.400 . S
C1093 C1092 1.400 . S
C1093 C1094 1.351 . S
C1093 H1150 0.930 1_565 S
C1094 C1090 1.388 . S
C1094 C1093 1.351 . S
N1095 C1070 1.329 . S
N1095 Co1079 1.955 . S
N1095 C1089 1.432 . S
N1096 Co1079 1.958 . S
N1096 C1080 1.324 . S
N1096 C1082 1.427 . S
N1097 Co1079 1.953 . S
N1097 C1098 1.436 . S
N1097 C1124 1.316 1_565 S
C1098 N1097 1.436 . S
C1098 C1099 1.421 . S
C1098 C1100 1.360 . S
C1099 C1098 1.421 . S
C1099 C1101 1.379 . S
C1099 H1102 0.929 . S
C1100 C1098 1.360 . S
C1100 C1104 1.393 . S
C1100 H1106 0.931 . S
C1101 C1099 1.379 . S
C1101 C1103 1.417 . S
C1101 C1105 1.505 . S
H1102 C1099 0.929 . S
C1103 C1101 1.417 . S
C1103 C1104 1.352 . S
C1103 H1107 0.929 . S
C1104 C1100 1.393 . S
C1104 C1103 1.352 . S
C1104 C1108 1.482 . S
C1105 C1101 1.505 . S
C1105 O1109 1.259 . S
C1105 O1110 1.229 1_565 S
H1106 C1100 0.931 . S
H1107 C1103 0.929 . S
C1108 C1104 1.482 . S
C1108 O1111 1.207 . S
C1108 O1112 1.289 . S
O1109 C1105 1.259 . S
O1109 H1113 0.822 . S
O1110 C1105 1.229 1_545 S
O1111 C1108 1.207 . S
O1112 C1108 1.289 . S
O1112 H1114 0.819 . S
H1113 O1109 0.822 . S
H1114 O1112 0.819 . S
N1115 Co1079 1.869 . S
N1115 C1116 1.330 . S
N1115 C1120 1.325 1_565 S
C1116 N1115 1.330 . S
C1116 C1117 1.359 . S
C1116 C1122 1.504 . S
C1117 C1116 1.359 . S
C1117 C1118 1.366 1_565 S
C1117 H1151 0.929 . S
C1118 C1117 1.366 1_545 S
C1118 C1119 1.415 . S
C1118 H1152 0.932 . S
C1119 C1118 1.415 . S
C1119 C1120 1.366 . S
C1119 H1153 0.931 . S
C1120 N1115 1.325 1_545 S
C1120 C1119 1.366 . S
C1120 C1124 1.516 . S
N1121 Co1079 1.974 . S
N1121 C1122 1.309 . S
N1121 C1127 1.423 . S
C1122 C1116 1.504 . S
C1122 N1121 1.309 . S
C1122 O1123 1.258 . S
O1123 C1122 1.258 . S
C1124 N1097 1.316 1_545 S
C1124 C1120 1.516 . S
C1124 O1137 1.263 . S
O1125 Cd1068 2.350 . S
O1125 C1141 1.270 . S
O1126 Cd1068 2.277 . S
O1126 C1141 1.248 . S
C1127 N1121 1.423 . S
C1127 C1128 1.370 . S
C1127 C1132 1.403 . S
C1128 C1127 1.370 . S
C1128 C1129 1.389 . S
C1128 H1154 0.931 . S
C1129 C1128 1.389 . S
C1129 C1130 1.389 . S
C1130 C1129 1.389 . S
C1130 C1131 1.379 . S
C1130 H1155 0.929 . S
C1131 C1130 1.379 . S
C1131 C1132 1.405 . S
C1132 C1127 1.403 . S
C1132 C1131 1.405 . S
C1132 H1156 0.932 . S
O1133 Cd1068 2.173 . S
O1133 C1069 1.277 . S
O1134 C1069 1.230 . S
O1134 Cd1072 2.250 . S
O1135 Cd1068 2.263 . S
O1135 C1088 1.258 . S
O1136 Cd1072 2.308 . S
O1136 C1088 1.274 . S
O1137 Cd1068 2.366 . S
O1137 C1124 1.263 . S
C1138 O1139 1.235 . S
C1138 O1140 1.270 . S
O1139 Cd1072 2.352 . S
O1139 C1138 1.235 . S
O1140 Cd1068 2.329 . S
O1140 C1138 1.270 . S
C1141 O1125 1.270 . S
C1141 O1126 1.248 . S
H1142 C1074 0.930 . S
H1143 C1077 0.930 . S
H1144 C1078 0.931 . S
H1145 C1083 0.929 . S
H1146 C1085 0.930 . S
H1147 C1087 0.930 . S
H1148 C1090 0.929 . S
H1149 C1091 0.932 . S
H1150 C1093 0.930 1_545 S
H1151 C1117 0.929 . S
H1152 C1118 0.932 . S
H1153 C1119 0.931 . S
H1154 C1128 0.931 . S
H1155 C1130 0.929 . S
H1156 C1132 0.932 . S
Cd1157 O1214 2.350 . S
Cd1157 O1215 2.277 . S
Cd1157 O1222 2.173 . S
Cd1157 O1224 2.263 . S
Cd1157 O1226 2.366 . S
Cd1157 O1229 2.329 . S
C1158 O1222 1.277 . S
C1158 O1223 1.230 . S
C1159 O1160 1.246 . S
C1159 C1162 1.481 . S
C1159 N1184 1.329 . S
O1160 C1159 1.246 . S
Cd1161 O1223 2.250 . S
Cd1161 O1225 2.308 . S
Cd1161 O1228 2.352 . S
C1162 C1159 1.481 . S
C1162 N1165 1.327 . S
C1162 C1166 1.407 . S
C1163 C1164 1.346 . S
C1163 C1167 1.390 . S
C1163 H1231 0.930 . S
C1164 C1163 1.346 . S
C1164 N1165 1.342 . S
C1164 C1169 1.516 . S
N1165 C1162 1.327 . S
N1165 C1164 1.342 . S
N1165 Co1168 1.864 . S
C1166 C1162 1.407 . S
C1166 C1167 1.364 . S
C1166 H1232 0.930 . S
C1167 C1163 1.390 . S
C1167 C1166 1.364 . S
C1167 H1233 0.931 . S
Co1168 N1165 1.864 . S
Co1168 N1184 1.955 . S
Co1168 N1185 1.958 . S
Co1168 N1186 1.953 . S
Co1168 N1204 1.869 . S
Co1168 N1210 1.974 . S
C1169 C1164 1.516 . S
C1169 O1170 1.238 . S
C1169 N1185 1.324 . S
O1170 C1169 1.238 . S
C1171 C1172 1.394 1_455 S
C1171 C1176 1.395 . S
C1171 N1185 1.427 . S
C1172 C1171 1.394 1_655 S
C1172 C1173 1.380 . S
C1172 H1234 0.929 . S
C1173 C1172 1.380 . S
C1173 C1174 1.384 . S
C1173 C1177 1.495 . S
C1174 C1173 1.384 . S
C1174 C1175 1.382 1_655 S
C1174 H1235 0.930 . S
C1175 C1174 1.382 1_455 S
C1175 C1176 1.398 . S
C1176 C1171 1.395 . S
C1176 C1175 1.398 . S
C1176 H1236 0.930 . S
C1177 C1173 1.495 . S
C1177 O1224 1.258 . S
C1177 O1225 1.274 . S
C1178 C1179 1.385 . S
C1178 C1180 1.381 . S
C1178 N1184 1.432 . S
C1179 C1178 1.385 . S
C1179 C1183 1.388 . S
C1179 H1237 0.929 . S
C1180 C1178 1.381 . S
C1180 C1181 1.371 . S
C1180 H1238 0.932 . S
C1181 C1180 1.371 . S
C1181 C1182 1.400 . S
C1182 C1181 1.400 . S
C1182 C1183 1.351 . S
C1182 H1239 0.930 1_455 S
C1183 C1179 1.388 . S
C1183 C1182 1.351 . S
N1184 C1159 1.329 . S
N1184 Co1168 1.955 . S
N1184 C1178 1.432 . S
N1185 Co1168 1.958 . S
N1185 C1169 1.324 . S
N1185 C1171 1.427 . S
N1186 Co1168 1.953 . S
N1186 C1187 1.436 . S
N1186 C1213 1.316 1_455 S
C1187 N1186 1.436 . S
C1187 C1188 1.421 . S
C1187 C1189 1.360 . S
C1188 C1187 1.421 . S
C1188 C1190 1.379 . S
C1188 H1191 0.929 . S
C1189 C1187 1.360 . S
C1189 C1193 1.393 . S
C1189 H1195 0.931 . S
C1190 C1188 1.379 . S
C1190 C1192 1.417 . S
C1190 C1194 1.505 . S
H1191 C1188 0.929 . S
C1192 C1190 1.417 . S
C1192 C1193 1.352 . S
C1192 H1196 0.929 . S
C1193 C1189 1.393 . S
C1193 C1192 1.352 . S
C1193 C1197 1.482 . S
C1194 C1190 1.505 . S
C1194 O1198 1.259 . S
C1194 O1199 1.229 1_455 S
H1195 C1189 0.931 . S
H1196 C1192 0.929 . S
C1197 C1193 1.482 . S
C1197 O1200 1.207 . S
C1197 O1201 1.289 . S
O1198 C1194 1.259 . S
O1198 H1202 0.822 . S
O1199 C1194 1.229 1_655 S
O1200 C1197 1.207 . S
O1201 C1197 1.289 . S
O1201 H1203 0.819 . S
H1202 O1198 0.822 . S
H1203 O1201 0.819 . S
N1204 Co1168 1.869 . S
N1204 C1205 1.330 . S
N1204 C1209 1.325 1_455 S
C1205 N1204 1.330 . S
C1205 C1206 1.359 . S
C1205 C1211 1.504 . S
C1206 C1205 1.359 . S
C1206 C1207 1.366 1_455 S
C1206 H1240 0.929 . S
C1207 C1206 1.366 1_655 S
C1207 C1208 1.415 . S
C1207 H1241 0.932 . S
C1208 C1207 1.415 . S
C1208 C1209 1.366 . S
C1208 H1242 0.931 . S
C1209 N1204 1.325 1_655 S
C1209 C1208 1.366 . S
C1209 C1213 1.516 . S
N1210 Co1168 1.974 . S
N1210 C1211 1.309 . S
N1210 C1216 1.423 . S
C1211 C1205 1.504 . S
C1211 N1210 1.309 . S
C1211 O1212 1.258 . S
O1212 C1211 1.258 . S
C1213 N1186 1.316 1_655 S
C1213 C1209 1.516 . S
C1213 O1226 1.263 . S
O1214 Cd1157 2.350 . S
O1214 C1230 1.270 . S
O1215 Cd1157 2.277 . S
O1215 C1230 1.248 . S
C1216 N1210 1.423 . S
C1216 C1217 1.370 . S
C1216 C1221 1.403 . S
C1217 C1216 1.370 . S
C1217 C1218 1.389 . S
C1217 H1243 0.931 . S
C1218 C1217 1.389 . S
C1218 C1219 1.389 . S
C1219 C1218 1.389 . S
C1219 C1220 1.379 . S
C1219 H1244 0.929 . S
C1220 C1219 1.379 . S
C1220 C1221 1.405 . S
C1221 C1216 1.403 . S
C1221 C1220 1.405 . S
C1221 H1245 0.932 . S
O1222 Cd1157 2.173 . S
O1222 C1158 1.277 . S
O1223 C1158 1.230 . S
O1223 Cd1161 2.250 . S
O1224 Cd1157 2.263 . S
O1224 C1177 1.258 . S
O1225 Cd1161 2.308 . S
O1225 C1177 1.274 . S
O1226 Cd1157 2.366 . S
O1226 C1213 1.263 . S
C1227 O1228 1.235 . S
C1227 O1229 1.270 . S
O1228 Cd1161 2.352 . S
O1228 C1227 1.235 . S
O1229 Cd1157 2.329 . S
O1229 C1227 1.270 . S
C1230 O1214 1.270 . S
C1230 O1215 1.248 . S
H1231 C1163 0.930 . S
H1232 C1166 0.930 . S
H1233 C1167 0.931 . S
H1234 C1172 0.929 . S
H1235 C1174 0.930 . S
H1236 C1176 0.930 . S
H1237 C1179 0.929 . S
H1238 C1180 0.932 . S
H1239 C1182 0.930 1_655 S
H1240 C1206 0.929 . S
H1241 C1207 0.932 . S
H1242 C1208 0.931 . S
H1243 C1217 0.931 . S
H1244 C1219 0.929 . S
H1245 C1221 0.932 . S
Cd1246 O1303 2.350 . S
Cd1246 O1304 2.277 . S
Cd1246 O1311 2.173 . S
Cd1246 O1313 2.263 . S
Cd1246 O1315 2.366 . S
Cd1246 O1318 2.329 . S
C1247 O1311 1.277 . S
C1247 O1312 1.230 . S
C1248 O1249 1.246 . S
C1248 C1251 1.481 . S
C1248 N1273 1.329 . S
O1249 C1248 1.246 . S
Cd1250 O1312 2.250 . S
Cd1250 O1314 2.308 . S
Cd1250 O1317 2.352 . S
C1251 C1248 1.481 . S
C1251 N1254 1.327 . S
C1251 C1255 1.407 . S
C1252 C1253 1.346 . S
C1252 C1256 1.390 . S
C1252 H1320 0.930 . S
C1253 C1252 1.346 . S
C1253 N1254 1.342 . S
C1253 C1258 1.516 . S
N1254 C1251 1.327 . S
N1254 C1253 1.342 . S
N1254 Co1257 1.864 . S
C1255 C1251 1.407 . S
C1255 C1256 1.364 . S
C1255 H1321 0.930 . S
C1256 C1252 1.390 . S
C1256 C1255 1.364 . S
C1256 H1322 0.931 . S
Co1257 N1254 1.864 . S
Co1257 N1273 1.955 . S
Co1257 N1274 1.958 . S
Co1257 N1275 1.953 . S
Co1257 N1293 1.869 . S
Co1257 N1299 1.974 . S
C1258 C1253 1.516 . S
C1258 O1259 1.238 . S
C1258 N1274 1.324 . S
O1259 C1258 1.238 . S
C1260 C1261 1.394 . S
C1260 C1265 1.395 . S
C1260 N1274 1.427 . S
C1261 C1260 1.394 . S
C1261 C1262 1.380 . S
C1261 H1323 0.929 . S
C1262 C1261 1.380 . S
C1262 C1263 1.384 . S
C1262 C1266 1.495 . S
C1263 C1262 1.384 . S
C1263 C1264 1.382 . S
C1263 H1324 0.930 . S
C1264 C1263 1.382 . S
C1264 C1265 1.398 . S
C1265 C1260 1.395 . S
C1265 C1264 1.398 . S
C1265 H1325 0.930 . S
C1266 C1262 1.495 . S
C1266 O1313 1.258 . S
C1266 O1314 1.274 . S
C1267 C1268 1.385 . S
C1267 C1269 1.381 . S
C1267 N1273 1.432 . S
C1268 C1267 1.385 . S
C1268 C1272 1.388 . S
C1268 H1326 0.929 . S
C1269 C1267 1.381 . S
C1269 C1270 1.371 . S
C1269 H1327 0.932 . S
C1270 C1269 1.371 . S
C1270 C1271 1.400 . S
C1271 C1270 1.400 . S
C1271 C1272 1.351 . S
C1271 H1328 0.930 . S
C1272 C1268 1.388 . S
C1272 C1271 1.351 . S
N1273 C1248 1.329 . S
N1273 Co1257 1.955 . S
N1273 C1267 1.432 . S
N1274 Co1257 1.958 . S
N1274 C1258 1.324 . S
N1274 C1260 1.427 . S
N1275 Co1257 1.953 . S
N1275 C1276 1.436 . S
N1275 C1302 1.316 . S
C1276 N1275 1.436 . S
C1276 C1277 1.421 . S
C1276 C1278 1.360 . S
C1277 C1276 1.421 . S
C1277 C1279 1.379 . S
C1277 H1280 0.929 . S
C1278 C1276 1.360 . S
C1278 C1282 1.393 . S
C1278 H1284 0.931 . S
C1279 C1277 1.379 . S
C1279 C1281 1.417 . S
C1279 C1283 1.505 . S
H1280 C1277 0.929 . S
C1281 C1279 1.417 . S
C1281 C1282 1.352 . S
C1281 H1285 0.929 . S
C1282 C1278 1.393 . S
C1282 C1281 1.352 . S
C1282 C1286 1.482 . S
C1283 C1279 1.505 . S
C1283 O1287 1.259 . S
C1283 O1288 1.229 . S
H1284 C1278 0.931 . S
H1285 C1281 0.929 . S
C1286 C1282 1.482 . S
C1286 O1289 1.207 . S
C1286 O1290 1.289 . S
O1287 C1283 1.259 . S
O1287 H1291 0.822 . S
O1288 C1283 1.229 . S
O1289 C1286 1.207 . S
O1290 C1286 1.289 . S
O1290 H1292 0.819 . S
H1291 O1287 0.822 . S
H1292 O1290 0.819 . S
N1293 Co1257 1.869 . S
N1293 C1294 1.330 . S
N1293 C1298 1.325 . S
C1294 N1293 1.330 . S
C1294 C1295 1.359 . S
C1294 C1300 1.504 . S
C1295 C1294 1.359 . S
C1295 C1296 1.366 . S
C1295 H1329 0.929 . S
C1296 C1295 1.366 . S
C1296 C1297 1.415 . S
C1296 H1330 0.932 . S
C1297 C1296 1.415 . S
C1297 C1298 1.366 . S
C1297 H1331 0.931 . S
C1298 N1293 1.325 . S
C1298 C1297 1.366 . S
C1298 C1302 1.516 . S
N1299 Co1257 1.974 . S
N1299 C1300 1.309 . S
N1299 C1305 1.423 . S
C1300 C1294 1.504 . S
C1300 N1299 1.309 . S
C1300 O1301 1.258 . S
O1301 C1300 1.258 . S
C1302 N1275 1.316 . S
C1302 C1298 1.516 . S
C1302 O1315 1.263 . S
O1303 Cd1246 2.350 . S
O1303 C1319 1.270 . S
O1304 Cd1246 2.277 . S
O1304 C1319 1.248 . S
C1305 N1299 1.423 . S
C1305 C1306 1.370 . S
C1305 C1310 1.403 . S
C1306 C1305 1.370 . S
C1306 C1307 1.389 . S
C1306 H1332 0.931 . S
C1307 C1306 1.389 . S
C1307 C1308 1.389 . S
C1308 C1307 1.389 . S
C1308 C1309 1.379 . S
C1308 H1333 0.929 . S
C1309 C1308 1.379 . S
C1309 C1310 1.405 . S
C1310 C1305 1.403 . S
C1310 C1309 1.405 . S
C1310 H1334 0.932 . S
O1311 Cd1246 2.173 . S
O1311 C1247 1.277 . S
O1312 C1247 1.230 . S
O1312 Cd1250 2.250 . S
O1313 Cd1246 2.263 . S
O1313 C1266 1.258 . S
O1314 Cd1250 2.308 . S
O1314 C1266 1.274 . S
O1315 Cd1246 2.366 . S
O1315 C1302 1.263 . S
C1316 O1317 1.235 . S
C1316 O1318 1.270 . S
O1317 Cd1250 2.352 . S
O1317 C1316 1.235 . S
O1318 Cd1246 2.329 . S
O1318 C1316 1.270 . S
C1319 O1303 1.270 . S
C1319 O1304 1.248 . S
H1320 C1252 0.930 . S
H1321 C1255 0.930 . S
H1322 C1256 0.931 . S
H1323 C1261 0.929 . S
H1324 C1263 0.930 . S
H1325 C1265 0.930 . S
H1326 C1268 0.929 . S
H1327 C1269 0.932 . S
H1328 C1271 0.930 . S
H1329 C1295 0.929 . S
H1330 C1296 0.932 . S
H1331 C1297 0.931 . S
H1332 C1306 0.931 . S
H1333 C1308 0.929 . S
H1334 C1310 0.932 . S
Cd1335 O1392 2.350 . S
Cd1335 O1393 2.277 . S
Cd1335 O1400 2.173 . S
Cd1335 O1402 2.263 . S
Cd1335 O1404 2.366 . S
Cd1335 O1407 2.329 . S
C1336 O1400 1.277 . S
C1336 O1401 1.230 . S
C1337 O1338 1.246 . S
C1337 C1340 1.481 . S
C1337 N1362 1.329 . S
O1338 C1337 1.246 . S
Cd1339 O1401 2.250 . S
Cd1339 O1403 2.308 . S
Cd1339 O1406 2.352 . S
C1340 C1337 1.481 . S
C1340 N1343 1.327 . S
C1340 C1344 1.407 . S
C1341 C1342 1.346 . S
C1341 C1345 1.390 . S
C1341 H1409 0.930 . S
C1342 C1341 1.346 . S
C1342 N1343 1.342 . S
C1342 C1347 1.516 . S
N1343 C1340 1.327 . S
N1343 C1342 1.342 . S
N1343 Co1346 1.864 . S
C1344 C1340 1.407 . S
C1344 C1345 1.364 . S
C1344 H1410 0.930 . S
C1345 C1341 1.390 . S
C1345 C1344 1.364 . S
C1345 H1411 0.931 . S
Co1346 N1343 1.864 . S
Co1346 N1362 1.955 . S
Co1346 N1363 1.958 . S
Co1346 N1364 1.953 . S
Co1346 N1382 1.869 . S
Co1346 N1388 1.974 . S
C1347 C1342 1.516 . S
C1347 O1348 1.238 . S
C1347 N1363 1.324 . S
O1348 C1347 1.238 . S
C1349 C1350 1.394 . S
C1349 C1354 1.395 . S
C1349 N1363 1.427 . S
C1350 C1349 1.394 . S
C1350 C1351 1.380 . S
C1350 H1412 0.929 . S
C1351 C1350 1.380 . S
C1351 C1352 1.384 . S
C1351 C1355 1.495 . S
C1352 C1351 1.384 . S
C1352 C1353 1.382 . S
C1352 H1413 0.930 . S
C1353 C1352 1.382 . S
C1353 C1354 1.398 . S
C1354 C1349 1.395 . S
C1354 C1353 1.398 . S
C1354 H1414 0.930 . S
C1355 C1351 1.495 . S
C1355 O1402 1.258 . S
C1355 O1403 1.274 . S
C1356 C1357 1.385 . S
C1356 C1358 1.381 . S
C1356 N1362 1.432 . S
C1357 C1356 1.385 . S
C1357 C1361 1.388 . S
C1357 H1415 0.929 . S
C1358 C1356 1.381 . S
C1358 C1359 1.371 . S
C1358 H1416 0.932 . S
C1359 C1358 1.371 . S
C1359 C1360 1.400 . S
C1360 C1359 1.400 . S
C1360 C1361 1.351 . S
C1360 H1417 0.930 . S
C1361 C1357 1.388 . S
C1361 C1360 1.351 . S
N1362 C1337 1.329 . S
N1362 Co1346 1.955 . S
N1362 C1356 1.432 . S
N1363 Co1346 1.958 . S
N1363 C1347 1.324 . S
N1363 C1349 1.427 . S
N1364 Co1346 1.953 . S
N1364 C1365 1.436 . S
N1364 C1391 1.316 . S
C1365 N1364 1.436 . S
C1365 C1366 1.421 . S
C1365 C1367 1.360 . S
C1366 C1365 1.421 . S
C1366 C1368 1.379 . S
C1366 H1369 0.929 . S
C1367 C1365 1.360 . S
C1367 C1371 1.393 . S
C1367 H1373 0.931 . S
C1368 C1366 1.379 . S
C1368 C1370 1.417 . S
C1368 C1372 1.505 . S
H1369 C1366 0.929 . S
C1370 C1368 1.417 . S
C1370 C1371 1.352 . S
C1370 H1374 0.929 . S
C1371 C1367 1.393 . S
C1371 C1370 1.352 . S
C1371 C1375 1.482 . S
C1372 C1368 1.505 . S
C1372 O1376 1.259 . S
C1372 O1377 1.229 . S
H1373 C1367 0.931 . S
H1374 C1370 0.929 . S
C1375 C1371 1.482 . S
C1375 O1378 1.207 . S
C1375 O1379 1.289 . S
O1376 C1372 1.259 . S
O1376 H1380 0.822 . S
O1377 C1372 1.229 . S
O1378 C1375 1.207 . S
O1379 C1375 1.289 . S
O1379 H1381 0.819 . S
H1380 O1376 0.822 . S
H1381 O1379 0.819 . S
N1382 Co1346 1.869 . S
N1382 C1383 1.330 . S
N1382 C1387 1.325 . S
C1383 N1382 1.330 . S
C1383 C1384 1.359 . S
C1383 C1389 1.504 . S
C1384 C1383 1.359 . S
C1384 C1385 1.366 . S
C1384 H1418 0.929 . S
C1385 C1384 1.366 . S
C1385 C1386 1.415 . S
C1385 H1419 0.932 . S
C1386 C1385 1.415 . S
C1386 C1387 1.366 . S
C1386 H1420 0.931 . S
C1387 N1382 1.325 . S
C1387 C1386 1.366 . S
C1387 C1391 1.516 . S
N1388 Co1346 1.974 . S
N1388 C1389 1.309 . S
N1388 C1394 1.423 . S
C1389 C1383 1.504 . S
C1389 N1388 1.309 . S
C1389 O1390 1.258 . S
O1390 C1389 1.258 . S
C1391 N1364 1.316 . S
C1391 C1387 1.516 . S
C1391 O1404 1.263 . S
O1392 Cd1335 2.350 . S
O1392 C1408 1.270 . S
O1393 Cd1335 2.277 . S
O1393 C1408 1.248 . S
C1394 N1388 1.423 . S
C1394 C1395 1.370 . S
C1394 C1399 1.403 . S
C1395 C1394 1.370 . S
C1395 C1396 1.389 . S
C1395 H1421 0.931 . S
C1396 C1395 1.389 . S
C1396 C1397 1.389 . S
C1397 C1396 1.389 . S
C1397 C1398 1.379 . S
C1397 H1422 0.929 . S
C1398 C1397 1.379 . S
C1398 C1399 1.405 . S
C1399 C1394 1.403 . S
C1399 C1398 1.405 . S
C1399 H1423 0.932 . S
O1400 Cd1335 2.173 . S
O1400 C1336 1.277 . S
O1401 C1336 1.230 . S
O1401 Cd1339 2.250 . S
O1402 Cd1335 2.263 . S
O1402 C1355 1.258 . S
O1403 Cd1339 2.308 . S
O1403 C1355 1.274 . S
O1404 Cd1335 2.366 . S
O1404 C1391 1.263 . S
C1405 O1406 1.235 . S
C1405 O1407 1.270 . S
O1406 Cd1339 2.352 . S
O1406 C1405 1.235 . S
O1407 Cd1335 2.329 . S
O1407 C1405 1.270 . S
C1408 O1392 1.270 . S
C1408 O1393 1.248 . S
H1409 C1341 0.930 . S
H1410 C1344 0.930 . S
H1411 C1345 0.931 . S
H1412 C1350 0.929 . S
H1413 C1352 0.930 . S
H1414 C1354 0.930 . S
H1415 C1357 0.929 . S
H1416 C1358 0.932 . S
H1417 C1360 0.930 . S
H1418 C1384 0.929 . S
H1419 C1385 0.932 . S
H1420 C1386 0.931 . S
H1421 C1395 0.931 . S
H1422 C1397 0.929 . S
H1423 C1399 0.932 . S
Cd1424 O1481 2.350 . S
Cd1424 O1482 2.277 . S
Cd1424 O1489 2.173 . S
Cd1424 O1491 2.263 . S
Cd1424 O1493 2.366 . S
Cd1424 O1496 2.329 . S
C1425 O1489 1.277 . S
C1425 O1490 1.230 . S
C1426 O1427 1.246 . S
C1426 C1429 1.481 . S
C1426 N1451 1.329 . S
O1427 C1426 1.246 . S
Cd1428 O1490 2.250 . S
Cd1428 O1492 2.308 . S
Cd1428 O1495 2.352 1_565 S
C1429 C1426 1.481 . S
C1429 N1432 1.327 . S
C1429 C1433 1.407 . S
C1430 C1431 1.346 . S
C1430 C1434 1.390 . S
C1430 H1498 0.930 . S
C1431 C1430 1.346 . S
C1431 N1432 1.342 . S
C1431 C1436 1.516 . S
N1432 C1429 1.327 . S
N1432 C1431 1.342 . S
N1432 Co1435 1.864 . S
C1433 C1429 1.407 . S
C1433 C1434 1.364 . S
C1433 H1499 0.930 . S
C1434 C1430 1.390 . S
C1434 C1433 1.364 . S
C1434 H1500 0.931 . S
Co1435 N1432 1.864 . S
Co1435 N1451 1.955 . S
Co1435 N1452 1.958 . S
Co1435 N1453 1.953 . S
Co1435 N1471 1.869 . S
Co1435 N1477 1.974 . S
C1436 C1431 1.516 . S
C1436 O1437 1.238 . S
C1436 N1452 1.324 . S
O1437 C1436 1.238 . S
C1438 C1439 1.394 . S
C1438 C1443 1.395 . S
C1438 N1452 1.427 . S
C1439 C1438 1.394 . S
C1439 C1440 1.380 . S
C1439 H1501 0.929 . S
C1440 C1439 1.380 . S
C1440 C1441 1.384 . S
C1440 C1444 1.495 . S
C1441 C1440 1.384 . S
C1441 C1442 1.382 . S
C1441 H1502 0.930 . S
C1442 C1441 1.382 . S
C1442 C1443 1.398 . S
C1443 C1438 1.395 . S
C1443 C1442 1.398 . S
C1443 H1503 0.930 . S
C1444 C1440 1.495 . S
C1444 O1491 1.258 . S
C1444 O1492 1.274 . S
C1445 C1446 1.385 . S
C1445 C1447 1.381 . S
C1445 N1451 1.432 . S
C1446 C1445 1.385 . S
C1446 C1450 1.388 . S
C1446 H1504 0.929 . S
C1447 C1445 1.381 . S
C1447 C1448 1.371 . S
C1447 H1505 0.932 . S
C1448 C1447 1.371 . S
C1448 C1449 1.400 . S
C1449 C1448 1.400 . S
C1449 C1450 1.351 . S
C1449 H1506 0.930 . S
C1450 C1446 1.388 . S
C1450 C1449 1.351 . S
N1451 C1426 1.329 . S
N1451 Co1435 1.955 . S
N1451 C1445 1.432 . S
N1452 Co1435 1.958 . S
N1452 C1436 1.324 . S
N1452 C1438 1.427 . S
N1453 Co1435 1.953 . S
N1453 C1454 1.436 . S
N1453 C1480 1.316 . S
C1454 N1453 1.436 . S
C1454 C1455 1.421 . S
C1454 C1456 1.360 . S
C1455 C1454 1.421 . S
C1455 C1457 1.379 . S
C1455 H1458 0.929 . S
C1456 C1454 1.360 . S
C1456 C1460 1.393 . S
C1456 H1462 0.931 . S
C1457 C1455 1.379 . S
C1457 C1459 1.417 . S
C1457 C1461 1.505 . S
H1458 C1455 0.929 . S
C1459 C1457 1.417 . S
C1459 C1460 1.352 . S
C1459 H1463 0.929 . S
C1460 C1456 1.393 . S
C1460 C1459 1.352 . S
C1460 C1464 1.482 . S
C1461 C1457 1.505 . S
C1461 O1465 1.259 . S
C1461 O1466 1.229 . S
H1462 C1456 0.931 . S
H1463 C1459 0.929 . S
C1464 C1460 1.482 . S
C1464 O1467 1.207 . S
C1464 O1468 1.289 . S
O1465 C1461 1.259 . S
O1465 H1469 0.822 . S
O1466 C1461 1.229 . S
O1467 C1464 1.207 . S
O1468 C1464 1.289 . S
O1468 H1470 0.819 . S
H1469 O1465 0.822 . S
H1470 O1468 0.819 . S
N1471 Co1435 1.869 . S
N1471 C1472 1.330 . S
N1471 C1476 1.325 . S
C1472 N1471 1.330 . S
C1472 C1473 1.359 . S
C1472 C1478 1.504 . S
C1473 C1472 1.359 . S
C1473 C1474 1.366 . S
C1473 H1507 0.929 . S
C1474 C1473 1.366 . S
C1474 C1475 1.415 . S
C1474 H1508 0.932 . S
C1475 C1474 1.415 . S
C1475 C1476 1.366 . S
C1475 H1509 0.931 . S
C1476 N1471 1.325 . S
C1476 C1475 1.366 . S
C1476 C1480 1.516 . S
N1477 Co1435 1.974 . S
N1477 C1478 1.309 . S
N1477 C1483 1.423 . S
C1478 C1472 1.504 . S
C1478 N1477 1.309 . S
C1478 O1479 1.258 . S
O1479 C1478 1.258 . S
C1480 N1453 1.316 . S
C1480 C1476 1.516 . S
C1480 O1493 1.263 . S
O1481 Cd1424 2.350 . S
O1481 C1497 1.270 . S
O1482 Cd1424 2.277 . S
O1482 C1497 1.248 . S
C1483 N1477 1.423 . S
C1483 C1484 1.370 . S
C1483 C1488 1.403 . S
C1484 C1483 1.370 . S
C1484 C1485 1.389 . S
C1484 H1510 0.931 . S
C1485 C1484 1.389 . S
C1485 C1486 1.389 . S
C1486 C1485 1.389 . S
C1486 C1487 1.379 . S
C1486 H1511 0.929 . S
C1487 C1486 1.379 . S
C1487 C1488 1.405 . S
C1488 C1483 1.403 . S
C1488 C1487 1.405 . S
C1488 H1512 0.932 . S
O1489 Cd1424 2.173 . S
O1489 C1425 1.277 . S
O1490 C1425 1.230 . S
O1490 Cd1428 2.250 . S
O1491 Cd1424 2.263 . S
O1491 C1444 1.258 . S
O1492 Cd1428 2.308 . S
O1492 C1444 1.274 . S
O1493 Cd1424 2.366 . S
O1493 C1480 1.263 . S
C1494 O1495 1.235 . S
C1494 O1496 1.270 1_545 S
O1495 Cd1428 2.352 1_545 S
O1495 C1494 1.235 . S
O1496 Cd1424 2.329 . S
O1496 C1494 1.270 1_565 S
C1497 O1481 1.270 . S
C1497 O1482 1.248 . S
H1498 C1430 0.930 . S
H1499 C1433 0.930 . S
H1500 C1434 0.931 . S
H1501 C1439 0.929 . S
H1502 C1441 0.930 . S
H1503 C1443 0.930 . S
H1504 C1446 0.929 . S
H1505 C1447 0.932 . S
H1506 C1449 0.930 . S
H1507 C1473 0.929 . S
H1508 C1474 0.932 . S
H1509 C1475 0.931 . S
H1510 C1484 0.931 . S
H1511 C1486 0.929 . S
H1512 C1488 0.932 . S
Cd1513 O1570 2.350 . S
Cd1513 O1571 2.277 . S
Cd1513 O1578 2.173 . S
Cd1513 O1580 2.263 . S
Cd1513 O1582 2.366 . S
Cd1513 O1585 2.329 . S
C1514 O1578 1.277 . S
C1514 O1579 1.230 . S
C1515 O1516 1.246 . S
C1515 C1518 1.481 . S
C1515 N1540 1.329 . S
O1516 C1515 1.246 . S
Cd1517 O1579 2.250 . S
Cd1517 O1581 2.308 . S
Cd1517 O1584 2.352 1_455 S
C1518 C1515 1.481 . S
C1518 N1521 1.327 . S
C1518 C1522 1.407 . S
C1519 C1520 1.346 . S
C1519 C1523 1.390 . S
C1519 H1587 0.930 . S
C1520 C1519 1.346 . S
C1520 N1521 1.342 . S
C1520 C1525 1.516 . S
N1521 C1518 1.327 . S
N1521 C1520 1.342 . S
N1521 Co1524 1.864 . S
C1522 C1518 1.407 . S
C1522 C1523 1.364 . S
C1522 H1588 0.930 . S
C1523 C1519 1.390 . S
C1523 C1522 1.364 . S
C1523 H1589 0.931 . S
Co1524 N1521 1.864 . S
Co1524 N1540 1.955 . S
Co1524 N1541 1.958 . S
Co1524 N1542 1.953 . S
Co1524 N1560 1.869 . S
Co1524 N1566 1.974 . S
C1525 C1520 1.516 . S
C1525 O1526 1.238 . S
C1525 N1541 1.324 . S
O1526 C1525 1.238 . S
C1527 C1528 1.394 . S
C1527 C1532 1.395 . S
C1527 N1541 1.427 . S
C1528 C1527 1.394 . S
C1528 C1529 1.380 . S
C1528 H1590 0.929 . S
C1529 C1528 1.380 . S
C1529 C1530 1.384 . S
C1529 C1533 1.495 . S
C1530 C1529 1.384 . S
C1530 C1531 1.382 . S
C1530 H1591 0.930 . S
C1531 C1530 1.382 . S
C1531 C1532 1.398 . S
C1532 C1527 1.395 . S
C1532 C1531 1.398 . S
C1532 H1592 0.930 . S
C1533 C1529 1.495 . S
C1533 O1580 1.258 . S
C1533 O1581 1.274 . S
C1534 C1535 1.385 . S
C1534 C1536 1.381 . S
C1534 N1540 1.432 . S
C1535 C1534 1.385 . S
C1535 C1539 1.388 . S
C1535 H1593 0.929 . S
C1536 C1534 1.381 . S
C1536 C1537 1.371 . S
C1536 H1594 0.932 . S
C1537 C1536 1.371 . S
C1537 C1538 1.400 . S
C1538 C1537 1.400 . S
C1538 C1539 1.351 . S
C1538 H1595 0.930 . S
C1539 C1535 1.388 . S
C1539 C1538 1.351 . S
N1540 C1515 1.329 . S
N1540 Co1524 1.955 . S
N1540 C1534 1.432 . S
N1541 Co1524 1.958 . S
N1541 C1525 1.324 . S
N1541 C1527 1.427 . S
N1542 Co1524 1.953 . S
N1542 C1543 1.436 . S
N1542 C1569 1.316 . S
C1543 N1542 1.436 . S
C1543 C1544 1.421 . S
C1543 C1545 1.360 . S
C1544 C1543 1.421 . S
C1544 C1546 1.379 . S
C1544 H1547 0.929 . S
C1545 C1543 1.360 . S
C1545 C1549 1.393 . S
C1545 H1551 0.931 . S
C1546 C1544 1.379 . S
C1546 C1548 1.417 . S
C1546 C1550 1.505 . S
H1547 C1544 0.929 . S
C1548 C1546 1.417 . S
C1548 C1549 1.352 . S
C1548 H1552 0.929 . S
C1549 C1545 1.393 . S
C1549 C1548 1.352 . S
C1549 C1553 1.482 . S
C1550 C1546 1.505 . S
C1550 O1554 1.259 . S
C1550 O1555 1.229 . S
H1551 C1545 0.931 . S
H1552 C1548 0.929 . S
C1553 C1549 1.482 . S
C1553 O1556 1.207 . S
C1553 O1557 1.289 . S
O1554 C1550 1.259 . S
O1554 H1558 0.822 . S
O1555 C1550 1.229 . S
O1556 C1553 1.207 . S
O1557 C1553 1.289 . S
O1557 H1559 0.819 . S
H1558 O1554 0.822 . S
H1559 O1557 0.819 . S
N1560 Co1524 1.869 . S
N1560 C1561 1.330 . S
N1560 C1565 1.325 . S
C1561 N1560 1.330 . S
C1561 C1562 1.359 . S
C1561 C1567 1.504 . S
C1562 C1561 1.359 . S
C1562 C1563 1.366 . S
C1562 H1596 0.929 . S
C1563 C1562 1.366 . S
C1563 C1564 1.415 . S
C1563 H1597 0.932 . S
C1564 C1563 1.415 . S
C1564 C1565 1.366 . S
C1564 H1598 0.931 . S
C1565 N1560 1.325 . S
C1565 C1564 1.366 . S
C1565 C1569 1.516 . S
N1566 Co1524 1.974 . S
N1566 C1567 1.309 . S
N1566 C1572 1.423 . S
C1567 C1561 1.504 . S
C1567 N1566 1.309 . S
C1567 O1568 1.258 . S
O1568 C1567 1.258 . S
C1569 N1542 1.316 . S
C1569 C1565 1.516 . S
C1569 O1582 1.263 . S
O1570 Cd1513 2.350 . S
O1570 C1586 1.270 . S
O1571 Cd1513 2.277 . S
O1571 C1586 1.248 . S
C1572 N1566 1.423 . S
C1572 C1573 1.370 . S
C1572 C1577 1.403 . S
C1573 C1572 1.370 . S
C1573 C1574 1.389 . S
C1573 H1599 0.931 . S
C1574 C1573 1.389 . S
C1574 C1575 1.389 . S
C1575 C1574 1.389 . S
C1575 C1576 1.379 . S
C1575 H1600 0.929 . S
C1576 C1575 1.379 . S
C1576 C1577 1.405 . S
C1577 C1572 1.403 . S
C1577 C1576 1.405 . S
C1577 H1601 0.932 . S
O1578 Cd1513 2.173 . S
O1578 C1514 1.277 . S
O1579 C1514 1.230 . S
O1579 Cd1517 2.250 . S
O1580 Cd1513 2.263 . S
O1580 C1533 1.258 . S
O1581 Cd1517 2.308 . S
O1581 C1533 1.274 . S
O1582 Cd1513 2.366 . S
O1582 C1569 1.263 . S
C1583 O1584 1.235 . S
C1583 O1585 1.270 1_655 S
O1584 Cd1517 2.352 1_655 S
O1584 C1583 1.235 . S
O1585 Cd1513 2.329 . S
O1585 C1583 1.270 1_455 S
C1586 O1570 1.270 . S
C1586 O1571 1.248 . S
H1587 C1519 0.930 . S
H1588 C1522 0.930 . S
H1589 C1523 0.931 . S
H1590 C1528 0.929 . S
H1591 C1530 0.930 . S
H1592 C1532 0.930 . S
H1593 C1535 0.929 . S
H1594 C1536 0.932 . S
H1595 C1538 0.930 . S
H1596 C1562 0.929 . S
H1597 C1563 0.932 . S
H1598 C1564 0.931 . S
H1599 C1573 0.931 . S
H1600 C1575 0.929 . S
H1601 C1577 0.932 . S
C1602 C1603 1.369 . S
C1602 C1604 1.419 . S
C1602 H1606 0.930 . S
C1603 C1602 1.369 . S
C1603 C1612 1.429 . S
C1604 C1602 1.419 . S
C1604 C1605 1.363 . S
C1604 H1607 0.929 . S
C1605 C1604 1.363 . S
C1605 C1611 1.428 . S
H1606 C1602 0.930 . S
H1607 C1604 0.929 . S
S1608 N1609 1.613 . S
S1608 N1610 1.610 . S
N1609 S1608 1.613 . S
N1609 C1612 1.350 . S
N1610 S1608 1.610 . S
N1610 C1611 1.351 . S
C1611 C1605 1.428 . S
C1611 N1610 1.351 . S
C1611 C1612 1.434 . S
C1612 C1603 1.429 . S
C1612 N1609 1.350 . S
C1612 C1611 1.434 . S
C1613 C1614 1.369 . S
C1613 C1615 1.419 . S
C1613 H1617 0.930 . S
C1614 C1613 1.369 . S
C1614 C1623 1.429 . S
C1615 C1613 1.419 . S
C1615 C1616 1.363 . S
C1615 H1618 0.929 . S
C1616 C1615 1.363 . S
C1616 C1622 1.428 . S
H1617 C1613 0.930 . S
H1618 C1615 0.929 . S
S1619 N1620 1.613 . S
S1619 N1621 1.610 . S
N1620 S1619 1.613 . S
N1620 C1623 1.350 . S
N1621 S1619 1.610 . S
N1621 C1622 1.351 . S
C1622 C1616 1.428 . S
C1622 N1621 1.351 . S
C1622 C1623 1.434 . S
C1623 C1614 1.429 . S
C1623 N1620 1.350 . S
C1623 C1622 1.434 . S
C1624 C1625 1.369 . S
C1624 C1626 1.419 . S
C1624 H1628 0.930 . S
C1625 C1624 1.369 . S
C1625 C1634 1.429 . S
C1626 C1624 1.419 . S
C1626 C1627 1.363 . S
C1626 H1629 0.929 . S
C1627 C1626 1.363 . S
C1627 C1633 1.428 . S
H1628 C1624 0.930 . S
H1629 C1626 0.929 . S
S1630 N1631 1.613 . S
S1630 N1632 1.610 . S
N1631 S1630 1.613 . S
N1631 C1634 1.350 . S
N1632 S1630 1.610 . S
N1632 C1633 1.351 . S
C1633 C1627 1.428 . S
C1633 N1632 1.351 . S
C1633 C1634 1.434 . S
C1634 C1625 1.429 . S
C1634 N1631 1.350 . S
C1634 C1633 1.434 . S
C1635 C1636 1.369 . S
C1635 C1637 1.419 . S
C1635 H1639 0.930 . S
C1636 C1635 1.369 . S
C1636 C1645 1.429 . S
C1637 C1635 1.419 . S
C1637 C1638 1.363 . S
C1637 H1640 0.929 . S
C1638 C1637 1.363 . S
C1638 C1644 1.428 . S
H1639 C1635 0.930 . S
H1640 C1637 0.929 . S
S1641 N1642 1.613 . S
S1641 N1643 1.610 . S
N1642 S1641 1.613 . S
N1642 C1645 1.350 . S
N1643 S1641 1.610 . S
N1643 C1644 1.351 . S
C1644 C1638 1.428 . S
C1644 N1643 1.351 . S
C1644 C1645 1.434 . S
C1645 C1636 1.429 . S
C1645 N1642 1.350 . S
C1645 C1644 1.434 . S
C1646 C1647 1.369 . S
C1646 C1648 1.419 . S
C1646 H1650 0.930 . S
C1647 C1646 1.369 . S
C1647 C1656 1.429 . S
C1648 C1646 1.419 . S
C1648 C1649 1.363 . S
C1648 H1651 0.929 . S
C1649 C1648 1.363 . S
C1649 C1655 1.428 . S
H1650 C1646 0.930 . S
H1651 C1648 0.929 . S
S1652 N1653 1.613 . S
S1652 N1654 1.610 . S
N1653 S1652 1.613 . S
N1653 C1656 1.350 . S
N1654 S1652 1.610 . S
N1654 C1655 1.351 . S
C1655 C1649 1.428 . S
C1655 N1654 1.351 . S
C1655 C1656 1.434 . S
C1656 C1647 1.429 . S
C1656 N1653 1.350 . S
C1656 C1655 1.434 . S
C1657 C1658 1.369 . S
C1657 C1659 1.419 . S
C1657 H1661 0.930 . S
C1658 C1657 1.369 . S
C1658 C1667 1.429 . S
C1659 C1657 1.419 . S
C1659 C1660 1.363 . S
C1659 H1662 0.929 . S
C1660 C1659 1.363 . S
C1660 C1666 1.428 . S
H1661 C1657 0.930 . S
H1662 C1659 0.929 . S
S1663 N1664 1.613 . S
S1663 N1665 1.610 . S
N1664 S1663 1.613 . S
N1664 C1667 1.350 . S
N1665 S1663 1.610 . S
N1665 C1666 1.351 . S
C1666 C1660 1.428 . S
C1666 N1665 1.351 . S
C1666 C1667 1.434 . S
C1667 C1658 1.429 . S
C1667 N1664 1.350 . S
C1667 C1666 1.434 . S
C1668 C1669 1.369 . S
C1668 C1670 1.419 . S
C1668 H1672 0.930 . S
C1669 C1668 1.369 . S
C1669 C1678 1.429 . S
C1670 C1668 1.419 . S
C1670 C1671 1.363 1_565 S
C1670 H1673 0.929 . S
C1671 C1670 1.363 1_545 S
C1671 C1677 1.428 . S
H1672 C1668 0.930 . S
H1673 C1670 0.929 . S
S1674 N1675 1.613 1_545 S
S1674 N1676 1.610 . S
N1675 S1674 1.613 1_565 S
N1675 C1678 1.350 . S
N1676 S1674 1.610 . S
N1676 C1677 1.351 . S
C1677 C1671 1.428 . S
C1677 N1676 1.351 . S
C1677 C1678 1.434 1_545 S
C1678 C1669 1.429 . S
C1678 N1675 1.350 . S
C1678 C1677 1.434 1_565 S
C1679 C1680 1.369 1_455 S
C1679 C1681 1.419 . S
C1679 H1683 0.930 . S
C1680 C1679 1.369 1_655 S
C1680 C1689 1.429 1_655 S
C1681 C1679 1.419 . S
C1681 C1682 1.363 . S
C1681 H1684 0.929 . S
C1682 C1681 1.363 . S
C1682 C1688 1.428 . S
H1683 C1679 0.930 . S
H1684 C1681 0.929 . S
S1685 N1686 1.613 . S
S1685 N1687 1.610 1_655 S
N1686 S1685 1.613 . S
N1686 C1689 1.350 1_655 S
N1687 S1685 1.610 1_455 S
N1687 C1688 1.351 . S
C1688 C1682 1.428 . S
C1688 N1687 1.351 . S
C1688 C1689 1.434 . S
C1689 C1680 1.429 1_455 S
C1689 N1686 1.350 1_455 S
C1689 C1688 1.434 . S
C1690 C1691 1.369 . S
C1690 C1692 1.419 . S
C1690 H1694 0.930 . S
C1691 C1690 1.369 . S
C1691 C1700 1.429 . S
C1692 C1690 1.419 . S
C1692 C1693 1.363 . S
C1692 H1695 0.929 . S
C1693 C1692 1.363 . S
C1693 C1699 1.428 . S
H1694 C1690 0.930 . S
H1695 C1692 0.929 . S
S1696 N1697 1.613 . S
S1696 N1698 1.610 . S
N1697 S1696 1.613 . S
N1697 C1700 1.350 . S
N1698 S1696 1.610 . S
N1698 C1699 1.351 . S
C1699 C1693 1.428 . S
C1699 N1698 1.351 . S
C1699 C1700 1.434 . S
C1700 C1691 1.429 . S
C1700 N1697 1.350 . S
C1700 C1699 1.434 . S
C1701 C1702 1.369 . S
C1701 C1703 1.419 . S
C1701 H1705 0.930 . S
C1702 C1701 1.369 . S
C1702 C1711 1.429 . S
C1703 C1701 1.419 . S
C1703 C1704 1.363 . S
C1703 H1706 0.929 . S
C1704 C1703 1.363 . S
C1704 C1710 1.428 . S
H1705 C1701 0.930 . S
H1706 C1703 0.929 . S
S1707 N1708 1.613 . S
S1707 N1709 1.610 . S
N1708 S1707 1.613 . S
N1708 C1711 1.350 . S
N1709 S1707 1.610 . S
N1709 C1710 1.351 . S
C1710 C1704 1.428 . S
C1710 N1709 1.351 . S
C1710 C1711 1.434 . S
C1711 C1702 1.429 . S
C1711 N1708 1.350 . S
C1711 C1710 1.434 . S
C1712 C1713 1.369 . S
C1712 C1714 1.419 . S
C1712 H1716 0.930 . S
C1713 C1712 1.369 . S
C1713 C1722 1.429 . S
C1714 C1712 1.419 . S
C1714 C1715 1.363 . S
C1714 H1717 0.929 . S
C1715 C1714 1.363 . S
C1715 C1721 1.428 . S
H1716 C1712 0.930 . S
H1717 C1714 0.929 . S
S1718 N1719 1.613 . S
S1718 N1720 1.610 . S
N1719 S1718 1.613 . S
N1719 C1722 1.350 . S
N1720 S1718 1.610 . S
N1720 C1721 1.351 . S
C1721 C1715 1.428 . S
C1721 N1720 1.351 . S
C1721 C1722 1.434 . S
C1722 C1713 1.429 . S
C1722 N1719 1.350 . S
C1722 C1721 1.434 . S
C1723 C1724 1.369 . S
C1723 C1725 1.419 . S
C1723 H1727 0.930 . S
C1724 C1723 1.369 . S
C1724 C1733 1.429 . S
C1725 C1723 1.419 . S
C1725 C1726 1.363 . S
C1725 H1728 0.929 . S
C1726 C1725 1.363 . S
C1726 C1732 1.428 . S
H1727 C1723 0.930 . S
H1728 C1725 0.929 . S
S1729 N1730 1.613 . S
S1729 N1731 1.610 . S
N1730 S1729 1.613 . S
N1730 C1733 1.350 . S
N1731 S1729 1.610 . S
N1731 C1732 1.351 . S
C1732 C1726 1.428 . S
C1732 N1731 1.351 . S
C1732 C1733 1.434 . S
C1733 C1724 1.429 . S
C1733 N1730 1.350 . S
C1733 C1732 1.434 . S
C1734 C1735 1.369 . S
C1734 C1736 1.419 . S
C1734 H1738 0.930 . S
C1735 C1734 1.369 . S
C1735 C1744 1.429 . S
C1736 C1734 1.419 . S
C1736 C1737 1.363 . S
C1736 H1739 0.929 . S
C1737 C1736 1.363 . S
C1737 C1743 1.428 . S
H1738 C1734 0.930 . S
H1739 C1736 0.929 . S
S1740 N1741 1.613 . S
S1740 N1742 1.610 . S
N1741 S1740 1.613 . S
N1741 C1744 1.350 . S
N1742 S1740 1.610 . S
N1742 C1743 1.351 . S
C1743 C1737 1.428 . S
C1743 N1742 1.351 . S
C1743 C1744 1.434 . S
C1744 C1735 1.429 . S
C1744 N1741 1.350 . S
C1744 C1743 1.434 . S
C1745 C1746 1.369 . S
C1745 C1747 1.419 . S
C1745 H1749 0.930 . S
C1746 C1745 1.369 . S
C1746 C1755 1.429 . S
C1747 C1745 1.419 . S
C1747 C1748 1.363 . S
C1747 H1750 0.929 . S
C1748 C1747 1.363 . S
C1748 C1754 1.428 . S
H1749 C1745 0.930 . S
H1750 C1747 0.929 . S
S1751 N1752 1.613 . S
S1751 N1753 1.610 . S
N1752 S1751 1.613 . S
N1752 C1755 1.350 . S
N1753 S1751 1.610 . S
N1753 C1754 1.351 . S
C1754 C1748 1.428 . S
C1754 N1753 1.351 . S
C1754 C1755 1.434 . S
C1755 C1746 1.429 . S
C1755 N1752 1.350 . S
C1755 C1754 1.434 . S
C1756 C1757 1.369 . S
C1756 C1758 1.419 . S
C1756 H1760 0.930 . S
C1757 C1756 1.369 . S
C1757 C1766 1.429 . S
C1758 C1756 1.419 . S
C1758 C1759 1.363 . S
C1758 H1761 0.929 . S
C1759 C1758 1.363 . S
C1759 C1765 1.428 . S
H1760 C1756 0.930 . S
H1761 C1758 0.929 . S
S1762 N1763 1.613 . S
S1762 N1764 1.610 . S
N1763 S1762 1.613 . S
N1763 C1766 1.350 . S
N1764 S1762 1.610 . S
N1764 C1765 1.351 . S
C1765 C1759 1.428 . S
C1765 N1764 1.351 . S
C1765 C1766 1.434 . S
C1766 C1757 1.429 . S
C1766 N1763 1.350 . S
C1766 C1765 1.434 . S
C1767 C1768 1.369 . S
C1767 C1769 1.419 . S
C1767 H1771 0.930 . S
C1768 C1767 1.369 . S
C1768 C1777 1.429 . S
C1769 C1767 1.419 . S
C1769 C1770 1.363 1_655 S
C1769 H1772 0.929 . S
C1770 C1769 1.363 1_455 S
C1770 C1776 1.438 . S
H1771 C1767 0.930 . S
H1772 C1769 0.929 . S
S1773 N1774 1.613 1_455 S
S1773 N1775 1.610 . S
N1774 S1773 1.613 1_655 S
N1774 C1777 1.350 . S
N1775 S1773 1.610 . S
N1775 C1776 1.357 . S
C1776 C1770 1.438 . S
C1776 N1775 1.357 . S
C1776 C1777 1.417 1_455 S
C1777 C1768 1.429 . S
C1777 N1774 1.350 . S
C1777 C1776 1.417 1_655 S
C1778 C1779 1.369 . S
C1778 C1780 1.419 . S
C1778 H1782 0.930 . S
C1779 C1778 1.369 . S
C1779 C1788 1.429 . S
C1780 C1778 1.419 . S
C1780 C1781 1.363 . S
C1780 H1783 0.929 . S
C1781 C1780 1.363 . S
C1781 C1787 1.428 . S
H1782 C1778 0.930 . S
H1783 C1780 0.929 . S
S1784 N1785 1.613 . S
S1784 N1786 1.610 . S
N1785 S1784 1.613 . S
N1785 C1788 1.350 . S
N1786 S1784 1.610 . S
N1786 C1787 1.351 . S
C1787 C1781 1.428 . S
C1787 N1786 1.351 . S
C1787 C1788 1.434 . S
C1788 C1779 1.429 . S
C1788 N1785 1.350 . S
C1788 C1787 1.434 . S
C1789 C1790 1.369 . S
C1789 C1791 1.419 1_545 S
C1789 H1793 0.930 . S
C1790 C1789 1.369 . S
C1790 C1799 1.429 . S
C1791 C1789 1.419 1_565 S
C1791 C1792 1.363 . S
C1791 H1794 0.929 . S
C1792 C1791 1.363 . S
C1792 C1798 1.428 1_565 S
H1793 C1789 0.930 . S
H1794 C1791 0.929 . S
S1795 N1796 1.613 . S
S1795 N1797 1.610 . S
N1796 S1795 1.613 . S
N1796 C1799 1.350 . S
N1797 S1795 1.610 . S
N1797 C1798 1.351 . S
C1798 C1792 1.428 1_545 S
C1798 N1797 1.351 . S
C1798 C1799 1.434 . S
C1799 C1790 1.429 . S
C1799 N1796 1.350 . S
C1799 C1798 1.434 . S
C1800 C1801 1.369 . S
C1800 C1802 1.419 . S
C1800 H1804 0.930 . S
C1801 C1800 1.369 . S
C1801 C1810 1.429 . S
C1802 C1800 1.419 . S
C1802 C1803 1.363 . S
C1802 H1805 0.929 . S
C1803 C1802 1.363 . S
C1803 C1809 1.428 . S
H1804 C1800 0.930 . S
H1805 C1802 0.929 . S
S1806 N1807 1.613 . S
S1806 N1808 1.610 . S
N1807 S1806 1.613 . S
N1807 C1810 1.350 . S
N1808 S1806 1.610 . S
N1808 C1809 1.351 . S
C1809 C1803 1.428 . S
C1809 N1808 1.351 . S
C1809 C1810 1.434 . S
C1810 C1801 1.429 . S
C1810 N1807 1.350 . S
C1810 C1809 1.434 . S
C1811 C1812 1.369 . S
C1811 C1813 1.419 . S
C1811 H1815 0.930 . S
C1812 C1811 1.369 . S
C1812 C1821 1.429 . S
C1813 C1811 1.419 . S
C1813 C1814 1.363 . S
C1813 H1816 0.929 . S
C1814 C1813 1.363 . S
C1814 C1820 1.428 . S
H1815 C1811 0.930 . S
H1816 C1813 0.929 . S
S1817 N1818 1.613 . S
S1817 N1819 1.610 . S
N1818 S1817 1.613 . S
N1818 C1821 1.350 . S
N1819 S1817 1.610 . S
N1819 C1820 1.351 . S
C1820 C1814 1.428 . S
C1820 N1819 1.351 . S
C1820 C1821 1.434 . S
C1821 C1812 1.429 . S
C1821 N1818 1.350 . S
C1821 C1820 1.434 . S
C1822 C1823 1.369 . S
C1822 C1824 1.419 . S
C1822 H1826 0.930 . S
C1823 C1822 1.369 . S
C1823 C1832 1.429 . S
C1824 C1822 1.419 . S
C1824 C1825 1.363 . S
C1824 H1827 0.929 . S
C1825 C1824 1.363 . S
C1825 C1831 1.428 . S
H1826 C1822 0.930 . S
H1827 C1824 0.929 . S
S1828 N1829 1.613 . S
S1828 N1830 1.610 . S
N1829 S1828 1.613 . S
N1829 C1832 1.350 . S
N1830 S1828 1.610 . S
N1830 C1831 1.351 . S
C1831 C1825 1.428 . S
C1831 N1830 1.351 . S
C1831 C1832 1.434 . S
C1832 C1823 1.429 . S
C1832 N1829 1.350 . S
C1832 C1831 1.434 . S
C1833 C1834 1.369 . S
C1833 C1835 1.419 . S
C1833 H1837 0.930 . S
C1834 C1833 1.369 . S
C1834 C1843 1.429 . S
C1835 C1833 1.419 . S
C1835 C1836 1.363 . S
C1835 H1838 0.929 . S
C1836 C1835 1.363 . S
C1836 C1842 1.428 . S
H1837 C1833 0.930 . S
H1838 C1835 0.929 . S
S1839 N1840 1.613 . S
S1839 N1841 1.610 . S
N1840 S1839 1.613 . S
N1840 C1843 1.350 . S
N1841 S1839 1.610 . S
N1841 C1842 1.351 . S
C1842 C1836 1.428 . S
C1842 N1841 1.351 . S
C1842 C1843 1.434 . S
C1843 C1834 1.429 . S
C1843 N1840 1.350 . S
C1843 C1842 1.434 . S
C1844 C1845 1.369 . S
C1844 C1846 1.419 . S
C1844 H1848 0.930 . S
C1845 C1844 1.369 . S
C1845 C1854 1.429 . S
C1846 C1844 1.419 . S
C1846 C1847 1.363 . S
C1846 H1849 0.929 . S
C1847 C1846 1.363 . S
C1847 C1853 1.428 . S
H1848 C1844 0.930 . S
H1849 C1846 0.929 . S
S1850 N1851 1.613 . S
S1850 N1852 1.610 . S
N1851 S1850 1.613 . S
N1851 C1854 1.350 . S
N1852 S1850 1.610 . S
N1852 C1853 1.351 . S
C1853 C1847 1.428 . S
C1853 N1852 1.351 . S
C1853 C1854 1.434 . S
C1854 C1845 1.429 . S
C1854 N1851 1.350 . S
C1854 C1853 1.434 . S
C1855 C1856 1.369 . S
C1855 C1857 1.419 . S
C1855 H1859 0.930 . S
C1856 C1855 1.369 . S
C1856 C1865 1.429 . S
C1857 C1855 1.419 . S
C1857 C1858 1.363 . S
C1857 H1860 0.929 . S
C1858 C1857 1.363 . S
C1858 C1864 1.428 . S
H1859 C1855 0.930 . S
H1860 C1857 0.929 . S
S1861 N1862 1.613 . S
S1861 N1863 1.610 . S
N1862 S1861 1.613 . S
N1862 C1865 1.350 . S
N1863 S1861 1.610 . S
N1863 C1864 1.351 . S
C1864 C1858 1.428 . S
C1864 N1863 1.351 . S
C1864 C1865 1.434 . S
C1865 C1856 1.429 . S
C1865 N1862 1.350 . S
C1865 C1864 1.434 . S
C1866 C1867 1.369 . S
C1866 C1868 1.419 . S
C1866 H1870 0.930 . S
C1867 C1866 1.369 . S
C1867 C1876 1.429 . S
C1868 C1866 1.419 . S
C1868 C1869 1.363 . S
C1868 H1871 0.929 . S
C1869 C1868 1.363 . S
C1869 C1875 1.428 1_655 S
H1870 C1866 0.930 . S
H1871 C1868 0.929 . S
S1872 N1873 1.613 . S
S1872 N1874 1.610 . S
N1873 S1872 1.613 . S
N1873 C1876 1.350 1_455 S
N1874 S1872 1.610 . S
N1874 C1875 1.351 . S
C1875 C1869 1.428 1_455 S
C1875 N1874 1.351 . S
C1875 C1876 1.434 1_455 S
C1876 C1867 1.429 . S
C1876 N1873 1.350 1_655 S
C1876 C1875 1.434 1_655 S
C1877 C1878 1.369 . S
C1877 C1879 1.419 . S
C1877 H1881 0.930 . S
C1878 C1877 1.369 . S
C1878 C1887 1.429 . S
C1879 C1877 1.419 . S
C1879 C1880 1.363 . S
C1879 H1882 0.929 . S
C1880 C1879 1.363 . S
C1880 C1886 1.428 . S
H1881 C1877 0.930 . S
H1882 C1879 0.929 . S
S1883 N1884 1.613 . S
S1883 N1885 1.610 . S
N1884 S1883 1.613 . S
N1884 C1887 1.350 . S
N1885 S1883 1.610 . S
N1885 C1886 1.351 . S
C1886 C1880 1.428 . S
C1886 N1885 1.351 . S
C1886 C1887 1.434 . S
C1887 C1878 1.429 . S
C1887 N1884 1.350 . S
C1887 C1886 1.434 . S
C1888 C1889 1.378 . S
C1888 C1890 1.420 . S
C1888 H1892 0.919 1_545 S
C1889 C1888 1.378 . S
C1889 C1898 1.429 . S
C1890 C1888 1.420 . S
C1890 C1891 1.363 . S
C1890 H1893 0.929 . S
C1891 C1890 1.363 . S
C1891 C1897 1.428 . S
H1892 C1888 0.919 1_565 S
H1893 C1890 0.929 . S
S1894 N1895 1.613 . S
S1894 N1896 1.610 . S
N1895 S1894 1.613 . S
N1895 C1898 1.350 . S
N1896 S1894 1.610 . S
N1896 C1897 1.351 . S
C1897 C1891 1.428 . S
C1897 N1896 1.351 . S
C1897 C1898 1.434 . S
C1898 C1889 1.429 . S
C1898 N1895 1.350 . S
C1898 C1897 1.434 . S
C1899 C1900 1.369 . S
C1899 C1901 1.419 . S
C1899 H1903 0.930 . S
C1900 C1899 1.369 . S
C1900 C1909 1.429 . S
C1901 C1899 1.419 . S
C1901 C1902 1.363 . S
C1901 H1904 0.929 . S
C1902 C1901 1.363 . S
C1902 C1908 1.428 1_565 S
H1903 C1899 0.930 . S
H1904 C1901 0.929 . S
S1905 N1906 1.611 . S
S1905 N1907 1.610 . S
N1906 S1905 1.611 . S
N1906 C1909 1.350 1_545 S
N1907 S1905 1.610 . S
N1907 C1908 1.351 . S
C1908 C1902 1.428 1_545 S
C1908 N1907 1.351 . S
C1908 C1909 1.434 1_545 S
C1909 C1900 1.429 . S
C1909 N1906 1.350 1_565 S
C1909 C1908 1.434 1_565 S
C1910 C1911 1.369 . S
C1910 C1912 1.419 . S
C1910 H1914 0.930 1_455 S
C1911 C1910 1.369 . S
C1911 C1920 1.429 . S
C1912 C1910 1.419 . S
C1912 C1913 1.363 . S
C1912 H1915 0.929 . S
C1913 C1912 1.363 . S
C1913 C1919 1.428 . S
H1914 C1910 0.930 1_655 S
H1915 C1912 0.929 . S
S1916 N1917 1.613 . S
S1916 N1918 1.610 . S
N1917 S1916 1.613 . S
N1917 C1920 1.350 . S
N1918 S1916 1.610 . S
N1918 C1919 1.351 . S
C1919 C1913 1.428 . S
C1919 N1918 1.351 . S
C1919 C1920 1.434 . S
C1920 C1911 1.429 . S
C1920 N1917 1.350 . S
C1920 C1919 1.434 . S
C1921 C1922 1.369 . S
C1921 C1923 1.419 . S
C1921 H1925 0.930 . S
C1922 C1921 1.369 . S
C1922 C1931 1.429 . S
C1923 C1921 1.419 . S
C1923 C1924 1.363 . S
C1923 H1926 0.929 . S
C1924 C1923 1.363 . S
C1924 C1930 1.428 . S
H1925 C1921 0.930 . S
H1926 C1923 0.929 . S
S1927 N1928 1.613 . S
S1927 N1929 1.610 . S
N1928 S1927 1.613 . S
N1928 C1931 1.350 . S
N1929 S1927 1.610 . S
N1929 C1930 1.351 . S
C1930 C1924 1.428 . S
C1930 N1929 1.351 . S
C1930 C1931 1.434 . S
C1931 C1922 1.429 . S
C1931 N1928 1.350 . S
C1931 C1930 1.434 . S
C1932 C1933 1.369 . S
C1932 C1934 1.419 . S
C1932 H1936 0.930 . S
C1933 C1932 1.369 . S
C1933 C1942 1.429 . S
C1934 C1932 1.419 . S
C1934 C1935 1.363 . S
C1934 H1937 0.929 . S
C1935 C1934 1.363 . S
C1935 C1941 1.428 . S
H1936 C1932 0.930 . S
H1937 C1934 0.929 . S
S1938 N1939 1.613 . S
S1938 N1940 1.610 . S
N1939 S1938 1.613 . S
N1939 C1942 1.350 . S
N1940 S1938 1.610 . S
N1940 C1941 1.351 . S
C1941 C1935 1.428 . S
C1941 N1940 1.351 . S
C1941 C1942 1.434 . S
C1942 C1933 1.429 . S
C1942 N1939 1.350 . S
C1942 C1941 1.434 . S
C1943 C1944 1.369 1_565 S
C1943 C1945 1.419 . S
C1943 H1947 0.930 . S
C1944 C1943 1.369 1_545 S
C1944 C1953 1.429 . S
C1945 C1943 1.419 . S
C1945 C1946 1.363 . S
C1945 H1948 0.929 . S
C1946 C1945 1.363 . S
C1946 C1952 1.428 1_565 S
H1947 C1943 0.930 . S
H1948 C1945 0.929 . S
S1949 N1950 1.613 . S
S1949 N1951 1.610 . S
N1950 S1949 1.613 . S
N1950 C1953 1.350 . S
N1951 S1949 1.610 . S
N1951 C1952 1.351 . S
C1952 C1946 1.428 1_545 S
C1952 N1951 1.351 . S
C1952 C1953 1.434 . S
C1953 C1944 1.429 . S
C1953 N1950 1.350 . S
C1953 C1952 1.434 . S
C1954 C1955 1.369 . S
C1954 C1956 1.419 . S
C1954 H1958 0.930 . S
C1955 C1954 1.369 . S
C1955 C1964 1.429 1_655 S
C1956 C1954 1.419 . S
C1956 C1957 1.363 1_655 S
C1956 H1959 0.929 . S
C1957 C1956 1.363 1_455 S
C1957 C1963 1.428 . S
H1958 C1954 0.930 . S
H1959 C1956 0.929 . S
S1960 N1961 1.613 . S
S1960 N1962 1.610 . S
N1961 S1960 1.613 . S
N1961 C1964 1.350 . S
N1962 S1960 1.610 . S
N1962 C1963 1.351 . S
C1963 C1957 1.428 . S
C1963 N1962 1.351 . S
C1963 C1964 1.434 . S
C1964 C1955 1.429 1_455 S
C1964 N1961 1.350 . S
C1964 C1963 1.434 . S
C1965 C1966 1.369 . S
C1965 C1967 1.419 . S
C1965 H1969 0.930 . S
C1966 C1965 1.369 . S
C1966 C1975 1.429 . S
C1967 C1965 1.419 . S
C1967 C1968 1.363 . S
C1967 H1970 0.929 . S
C1968 C1967 1.363 . S
C1968 C1974 1.428 . S
H1969 C1965 0.930 . S
H1970 C1967 0.929 . S
S1971 N1972 1.613 . S
S1971 N1973 1.610 . S
N1972 S1971 1.613 . S
N1972 C1975 1.350 . S
N1973 S1971 1.610 . S
N1973 C1974 1.351 . S
C1974 C1968 1.428 . S
C1974 N1973 1.351 . S
C1974 C1975 1.434 . S
C1975 C1966 1.429 . S
C1975 N1972 1.350 . S
C1975 C1974 1.434 . S
C1976 C1977 1.369 . S
C1976 C1978 1.419 1_545 S
C1976 H1980 0.930 . S
C1977 C1976 1.369 . S
C1977 C1986 1.429 . S
C1978 C1976 1.419 1_565 S
C1978 C1979 1.363 . S
C1978 H1981 0.929 . S
C1979 C1978 1.363 . S
C1979 C1985 1.428 . S
H1980 C1976 0.930 . S
H1981 C1978 0.929 . S
S1982 N1983 1.613 1_565 S
S1982 N1984 1.610 . S
N1983 S1982 1.613 1_545 S
N1983 C1986 1.350 . S
N1984 S1982 1.610 . S
N1984 C1985 1.351 . S
C1985 C1979 1.428 . S
C1985 N1984 1.351 . S
C1985 C1986 1.434 1_565 S
C1986 C1977 1.429 . S
C1986 N1983 1.350 . S
C1986 C1985 1.434 1_545 S
C1987 C1988 1.369 . S
C1987 C1989 1.419 1_655 S
C1987 H1991 0.930 . S
C1988 C1987 1.369 . S
C1988 C1997 1.429 . S
C1989 C1987 1.419 1_455 S
C1989 C1990 1.363 . S
C1989 H1992 0.929 . S
C1990 C1989 1.363 . S
C1990 C1996 1.428 . S
H1991 C1987 0.930 . S
H1992 C1989 0.929 . S
S1993 N1994 1.613 . S
S1993 N1995 1.610 1_655 S
N1994 S1993 1.613 . S
N1994 C1997 1.350 . S
N1995 S1993 1.610 1_455 S
N1995 C1996 1.351 . S
C1996 C1990 1.428 . S
C1996 N1995 1.351 . S
C1996 C1997 1.434 1_455 S
C1997 C1988 1.429 . S
C1997 N1994 1.350 . S
C1997 C1996 1.434 1_655 S
C1998 C1999 1.369 . S
C1998 C2000 1.419 . S
C1998 H2002 0.930 . S
C1999 C1998 1.369 . S
C1999 C2008 1.429 . S
C2000 C1998 1.419 . S
C2000 C2001 1.363 . S
C2000 H2003 0.929 . S
C2001 C2000 1.363 . S
C2001 C2007 1.428 . S
H2002 C1998 0.930 . S
H2003 C2000 0.929 . S
S2004 N2005 1.613 . S
S2004 N2006 1.610 . S
N2005 S2004 1.613 . S
N2005 C2008 1.350 . S
N2006 S2004 1.610 . S
N2006 C2007 1.351 . S
C2007 C2001 1.428 . S
C2007 N2006 1.351 . S
C2007 C2008 1.434 . S
C2008 C1999 1.429 . S
C2008 N2005 1.350 . S
C2008 C2007 1.434 . S
C2009 C2010 1.369 . S
C2009 C2011 1.419 . S
C2009 H2013 0.930 . S
C2010 C2009 1.369 . S
C2010 C2019 1.429 . S
C2011 C2009 1.419 . S
C2011 C2012 1.363 . S
C2011 H2014 0.929 . S
C2012 C2011 1.363 . S
C2012 C2018 1.428 . S
H2013 C2009 0.930 . S
H2014 C2011 0.929 . S
S2015 N2016 1.613 . S
S2015 N2017 1.610 . S
N2016 S2015 1.613 . S
N2016 C2019 1.350 . S
N2017 S2015 1.610 . S
N2017 C2018 1.351 . S
C2018 C2012 1.428 . S
C2018 N2017 1.351 . S
C2018 C2019 1.434 . S
C2019 C2010 1.429 . S
C2019 N2016 1.350 . S
C2019 C2018 1.434 . S
C2020 C2021 1.369 . S
C2020 C2022 1.419 . S
C2020 H2024 0.930 . S
C2021 C2020 1.369 . S
C2021 C2030 1.429 . S
C2022 C2020 1.419 . S
C2022 C2023 1.363 . S
C2022 H2025 0.929 . S
C2023 C2022 1.363 . S
C2023 C2029 1.428 . S
H2024 C2020 0.930 . S
H2025 C2022 0.929 . S
S2026 N2027 1.613 . S
S2026 N2028 1.610 . S
N2027 S2026 1.613 . S
N2027 C2030 1.350 . S
N2028 S2026 1.610 . S
N2028 C2029 1.351 . S
C2029 C2023 1.428 . S
C2029 N2028 1.351 . S
C2029 C2030 1.434 . S
C2030 C2021 1.429 . S
C2030 N2027 1.350 . S
C2030 C2029 1.434 . S
C2031 C2032 1.369 . S
C2031 C2033 1.419 . S
C2031 H2035 0.930 . S
C2032 C2031 1.369 . S
C2032 C2041 1.429 . S
C2033 C2031 1.419 . S
C2033 C2034 1.363 . S
C2033 H2036 0.929 . S
C2034 C2033 1.363 . S
C2034 C2040 1.428 . S
H2035 C2031 0.930 . S
H2036 C2033 0.929 . S
S2037 N2038 1.613 . S
S2037 N2039 1.610 . S
N2038 S2037 1.613 . S
N2038 C2041 1.350 . S
N2039 S2037 1.610 . S
N2039 C2040 1.351 . S
C2040 C2034 1.428 . S
C2040 N2039 1.351 . S
C2040 C2041 1.434 . S
C2041 C2032 1.429 . S
C2041 N2038 1.350 . S
C2041 C2040 1.434 . S
C2042 C2043 1.369 . S
C2042 C2044 1.419 . S
C2042 H2046 0.930 . S
C2043 C2042 1.369 . S
C2043 C2052 1.429 . S
C2044 C2042 1.419 . S
C2044 C2045 1.363 . S
C2044 H2047 0.929 . S
C2045 C2044 1.363 . S
C2045 C2051 1.428 . S
H2046 C2042 0.930 . S
H2047 C2044 0.929 . S
S2048 N2049 1.613 . S
S2048 N2050 1.610 . S
N2049 S2048 1.613 . S
N2049 C2052 1.350 . S
N2050 S2048 1.610 . S
N2050 C2051 1.351 . S
C2051 C2045 1.428 . S
C2051 N2050 1.351 . S
C2051 C2052 1.434 . S
C2052 C2043 1.429 . S
C2052 N2049 1.350 . S
C2052 C2051 1.434 . S
C2053 C2054 1.369 . S
C2053 C2055 1.419 . S
C2053 H2057 0.930 . S
C2054 C2053 1.369 . S
C2054 C2063 1.429 . S
C2055 C2053 1.419 . S
C2055 C2056 1.363 . S
C2055 H2058 0.929 . S
C2056 C2055 1.363 . S
C2056 C2062 1.428 . S
H2057 C2053 0.930 . S
H2058 C2055 0.929 . S
S2059 N2060 1.613 . S
S2059 N2061 1.610 . S
N2060 S2059 1.613 . S
N2060 C2063 1.350 . S
N2061 S2059 1.610 . S
N2061 C2062 1.351 . S
C2062 C2056 1.428 . S
C2062 N2061 1.351 . S
C2062 C2063 1.434 . S
C2063 C2054 1.429 . S
C2063 N2060 1.350 . S
C2063 C2062 1.434 . S
C2064 C2065 1.369 . S
C2064 C2066 1.419 1_654 S
C2064 H2068 0.930 . S
C2065 C2064 1.369 . S
C2065 C2074 1.429 . S
C2066 C2064 1.419 1_456 S
C2066 C2067 1.363 . S
C2066 H2069 0.929 . S
C2067 C2066 1.363 . S
C2067 C2073 1.428 . S
H2068 C2064 0.930 . S
H2069 C2066 0.929 . S
S2070 N2071 1.613 . S
S2070 N2072 1.610 1_654 S
N2071 S2070 1.613 . S
N2071 C2074 1.350 . S
N2072 S2070 1.610 1_456 S
N2072 C2073 1.351 . S
C2073 C2067 1.428 . S
C2073 N2072 1.351 . S
C2073 C2074 1.434 1_456 S
C2074 C2065 1.429 . S
C2074 N2071 1.350 . S
C2074 C2073 1.434 1_654 S
C2075 C2076 1.369 . S
C2075 C2077 1.419 1_554 S
C2075 H2079 0.930 . S
C2076 C2075 1.369 . S
C2076 C2085 1.429 . S
C2077 C2075 1.419 1_556 S
C2077 C2078 1.363 . S
C2077 H2080 0.929 . S
C2078 C2077 1.363 . S
C2078 C2084 1.428 . S
H2079 C2075 0.930 . S
H2080 C2077 0.929 . S
S2081 N2082 1.613 . S
S2081 N2083 1.610 1_554 S
N2082 S2081 1.613 . S
N2082 C2085 1.350 . S
N2083 S2081 1.610 1_556 S
N2083 C2084 1.351 . S
C2084 C2078 1.428 . S
C2084 N2083 1.351 . S
C2084 C2085 1.434 1_556 S
C2085 C2076 1.429 . S
C2085 N2082 1.350 . S
C2085 C2084 1.434 1_554 S
C2086 C2087 1.369 . S
C2086 C2088 1.419 1_554 S
C2086 H2090 0.930 . S
C2087 C2086 1.369 . S
C2087 C2096 1.429 1_545 S
C2088 C2086 1.419 1_556 S
C2088 C2089 1.363 1_545 S
C2088 H2091 0.929 . S
C2089 C2088 1.363 1_565 S
C2089 C2095 1.428 . S
H2090 C2086 0.930 . S
H2091 C2088 0.929 . S
S2092 N2093 1.613 . S
S2092 N2094 1.610 1_554 S
N2093 S2092 1.613 . S
N2093 C2096 1.350 . S
N2094 S2092 1.610 1_556 S
N2094 C2095 1.351 . S
C2095 C2089 1.428 . S
C2095 N2094 1.351 . S
C2095 C2096 1.434 1_556 S
C2096 C2087 1.429 1_565 S
C2096 N2093 1.350 . S
C2096 C2095 1.434 1_554 S
C2097 C2098 1.369 . S
C2097 C2099 1.419 . S
C2097 H2101 0.930 . S
C2098 C2097 1.369 . S
C2098 C2107 1.429 . S
C2099 C2097 1.419 . S
C2099 C2100 1.363 . S
C2099 H2102 0.929 . S
C2100 C2099 1.363 . S
C2100 C2106 1.428 . S
H2101 C2097 0.930 . S
H2102 C2099 0.929 . S
S2103 N2104 1.613 . S
S2103 N2105 1.610 . S
N2104 S2103 1.613 . S
N2104 C2107 1.350 . S
N2105 S2103 1.610 . S
N2105 C2106 1.351 . S
C2106 C2100 1.428 . S
C2106 N2105 1.351 . S
C2106 C2107 1.434 . S
C2107 C2098 1.429 . S
C2107 N2104 1.350 . S
C2107 C2106 1.434 . S
C2108 C2109 1.369 . S
C2108 C2110 1.419 . S
C2108 H2112 0.930 . S
C2109 C2108 1.369 . S
C2109 C2118 1.429 . S
C2110 C2108 1.419 . S
C2110 C2111 1.363 . S
C2110 H2113 0.929 . S
C2111 C2110 1.363 . S
C2111 C2117 1.428 . S
H2112 C2108 0.930 . S
H2113 C2110 0.929 . S
S2114 N2115 1.613 . S
S2114 N2116 1.610 1_655 S
N2115 S2114 1.613 . S
N2115 C2118 1.350 . S
N2116 S2114 1.610 1_455 S
N2116 C2117 1.351 1_455 S
C2117 C2111 1.428 . S
C2117 N2116 1.351 1_655 S
C2117 C2118 1.434 . S
C2118 C2109 1.429 . S
C2118 N2115 1.350 . S
C2118 C2117 1.434 . S
C2119 C2120 1.369 . S
C2119 C2121 1.419 . S
C2119 H2123 0.930 . S
C2120 C2119 1.369 . S
C2120 C2129 1.429 . S
C2121 C2119 1.419 . S
C2121 C2122 1.363 . S
C2121 H2124 0.929 . S
C2122 C2121 1.363 . S
C2122 C2128 1.428 . S
H2123 C2119 0.930 . S
H2124 C2121 0.929 . S
S2125 N2126 1.613 . S
S2125 N2127 1.610 . S
N2126 S2125 1.613 . S
N2126 C2129 1.350 . S
N2127 S2125 1.610 . S
N2127 C2128 1.351 . S
C2128 C2122 1.428 . S
C2128 N2127 1.351 . S
C2128 C2129 1.434 . S
C2129 C2120 1.429 . S
C2129 N2126 1.350 . S
C2129 C2128 1.434 . S
C2130 C2131 1.369 . S
C2130 C2132 1.419 . S
C2130 H2134 0.930 . S
C2131 C2130 1.369 . S
C2131 C2140 1.429 . S
C2132 C2130 1.419 . S
C2132 C2133 1.363 . S
C2132 H2135 0.929 . S
C2133 C2132 1.363 . S
C2133 C2139 1.428 . S
H2134 C2130 0.930 . S
H2135 C2132 0.929 . S
S2136 N2137 1.613 . S
S2136 N2138 1.610 . S
N2137 S2136 1.613 . S
N2137 C2140 1.350 . S
N2138 S2136 1.610 . S
N2138 C2139 1.351 . S
C2139 C2133 1.428 . S
C2139 N2138 1.351 . S
C2139 C2140 1.434 . S
C2140 C2131 1.429 . S
C2140 N2137 1.350 . S
C2140 C2139 1.434 . S
C2141 C2142 1.369 . S
C2141 C2143 1.419 . S
C2141 H2145 0.930 . S
C2142 C2141 1.369 . S
C2142 C2151 1.429 . S
C2143 C2141 1.419 . S
C2143 C2144 1.363 . S
C2143 H2146 0.929 . S
C2144 C2143 1.363 . S
C2144 C2150 1.428 . S
H2145 C2141 0.930 . S
H2146 C2143 0.929 . S
S2147 N2148 1.613 . S
S2147 N2149 1.610 . S
N2148 S2147 1.613 . S
N2148 C2151 1.350 . S
N2149 S2147 1.610 . S
N2149 C2150 1.351 . S
C2150 C2144 1.428 . S
C2150 N2149 1.351 . S
C2150 C2151 1.434 . S
C2151 C2142 1.429 . S
C2151 N2148 1.350 . S
C2151 C2150 1.434 . S
C2152 C2153 1.369 . S
C2152 C2154 1.419 . S
C2152 H2156 0.930 . S
C2153 C2152 1.369 . S
C2153 C2162 1.429 . S
C2154 C2152 1.419 . S
C2154 C2155 1.363 . S
C2154 H2157 0.929 . S
C2155 C2154 1.363 . S
C2155 C2161 1.428 . S
H2156 C2152 0.930 . S
H2157 C2154 0.929 . S
S2158 N2159 1.613 . S
S2158 N2160 1.610 1_565 S
N2159 S2158 1.613 . S
N2159 C2162 1.350 . S
N2160 S2158 1.610 1_545 S
N2160 C2161 1.351 1_545 S
C2161 C2155 1.428 . S
C2161 N2160 1.351 1_565 S
C2161 C2162 1.434 . S
C2162 C2153 1.429 . S
C2162 N2159 1.350 . S
C2162 C2161 1.434 . S
C2163 C2164 1.369 . S
C2163 C2165 1.419 . S
C2163 H2167 0.930 . S
C2164 C2163 1.369 . S
C2164 C2173 1.429 . S
C2165 C2163 1.419 . S
C2165 C2166 1.363 . S
C2165 H2168 0.929 . S
C2166 C2165 1.363 . S
C2166 C2172 1.428 . S
H2167 C2163 0.930 . S
H2168 C2165 0.929 . S
S2169 N2170 1.613 . S
S2169 N2171 1.610 . S
N2170 S2169 1.613 . S
N2170 C2173 1.350 . S
N2171 S2169 1.610 . S
N2171 C2172 1.351 . S
C2172 C2166 1.428 . S
C2172 N2171 1.351 . S
C2172 C2173 1.434 . S
C2173 C2164 1.429 . S
C2173 N2170 1.350 . S
C2173 C2172 1.434 . S
C2174 C2175 1.369 . S
C2174 C2176 1.419 . S
C2174 H2178 0.930 . S
C2175 C2174 1.369 . S
C2175 C2184 1.429 . S
C2176 C2174 1.419 . S
C2176 C2177 1.363 . S
C2176 H2179 0.929 . S
C2177 C2176 1.363 . S
C2177 C2183 1.428 . S
H2178 C2174 0.930 . S
H2179 C2176 0.929 . S
S2180 N2181 1.613 . S
S2180 N2182 1.610 . S
N2181 S2180 1.613 . S
N2181 C2184 1.350 . S
N2182 S2180 1.610 . S
N2182 C2183 1.351 . S
C2183 C2177 1.428 . S
C2183 N2182 1.351 . S
C2183 C2184 1.434 . S
C2184 C2175 1.429 . S
C2184 N2181 1.350 . S
C2184 C2183 1.434 . S
C2185 C2186 1.369 . S
C2185 C2187 1.419 . S
C2185 H2189 0.930 . S
C2186 C2185 1.369 . S
C2186 C2195 1.429 . S
C2187 C2185 1.419 . S
C2187 C2188 1.363 . S
C2187 H2190 0.929 . S
C2188 C2187 1.363 . S
C2188 C2194 1.428 . S
H2189 C2185 0.930 . S
H2190 C2187 0.929 . S
S2191 N2192 1.613 . S
S2191 N2193 1.610 . S
N2192 S2191 1.613 . S
N2192 C2195 1.350 . S
N2193 S2191 1.610 . S
N2193 C2194 1.351 . S
C2194 C2188 1.428 . S
C2194 N2193 1.351 . S
C2194 C2195 1.434 . S
C2195 C2186 1.429 . S
C2195 N2192 1.350 . S
C2195 C2194 1.434 . S
C2196 C2197 1.369 . S
C2196 C2198 1.419 . S
C2196 H2200 0.930 . S
C2197 C2196 1.369 . S
C2197 C2206 1.429 . S
C2198 C2196 1.419 . S
C2198 C2199 1.363 . S
C2198 H2201 0.929 . S
C2199 C2198 1.363 . S
C2199 C2205 1.428 . S
H2200 C2196 0.930 . S
H2201 C2198 0.929 . S
S2202 N2203 1.613 . S
S2202 N2204 1.610 . S
N2203 S2202 1.613 . S
N2203 C2206 1.350 . S
N2204 S2202 1.610 . S
N2204 C2205 1.351 . S
C2205 C2199 1.428 . S
C2205 N2204 1.351 . S
C2205 C2206 1.434 . S
C2206 C2197 1.429 . S
C2206 N2203 1.350 . S
C2206 C2205 1.434 . S
C2207 C2208 1.369 . S
C2207 C2209 1.419 . S
C2207 H2211 0.930 . S
C2208 C2207 1.369 . S
C2208 C2217 1.429 . S
C2209 C2207 1.419 . S
C2209 C2210 1.363 . S
C2209 H2212 0.929 . S
C2210 C2209 1.363 . S
C2210 C2216 1.428 . S
H2211 C2207 0.930 . S
H2212 C2209 0.929 . S
S2213 N2214 1.613 . S
S2213 N2215 1.610 . S
N2214 S2213 1.613 . S
N2214 C2217 1.350 . S
N2215 S2213 1.610 . S
N2215 C2216 1.351 . S
C2216 C2210 1.428 . S
C2216 N2215 1.351 . S
C2216 C2217 1.434 . S
C2217 C2208 1.429 . S
C2217 N2214 1.350 . S
C2217 C2216 1.434 . S
C2218 C2219 1.369 . S
C2218 C2220 1.419 . S
C2218 H2222 0.930 . S
C2219 C2218 1.369 . S
C2219 C2228 1.429 . S
C2220 C2218 1.419 . S
C2220 C2221 1.363 . S
C2220 H2223 0.929 . S
C2221 C2220 1.363 . S
C2221 C2227 1.428 . S
H2222 C2218 0.930 . S
H2223 C2220 0.929 . S
S2224 N2225 1.613 . S
S2224 N2226 1.610 . S
N2225 S2224 1.613 . S
N2225 C2228 1.350 . S
N2226 S2224 1.610 . S
N2226 C2227 1.351 . S
C2227 C2221 1.428 . S
C2227 N2226 1.351 . S
C2227 C2228 1.434 . S
C2228 C2219 1.429 . S
C2228 N2225 1.350 . S
C2228 C2227 1.434 . S
C2229 C2230 1.369 . S
C2229 C2231 1.419 . S
C2229 H2233 0.930 . S
C2230 C2229 1.369 . S
C2230 C2239 1.429 . S
C2231 C2229 1.419 . S
C2231 C2232 1.363 . S
C2231 H2234 0.929 . S
C2232 C2231 1.363 . S
C2232 C2238 1.428 . S
H2233 C2229 0.930 . S
H2234 C2231 0.929 . S
S2235 N2236 1.613 . S
S2235 N2237 1.610 . S
N2236 S2235 1.613 . S
N2236 C2239 1.350 . S
N2237 S2235 1.610 . S
N2237 C2238 1.351 . S
C2238 C2232 1.428 . S
C2238 N2237 1.351 . S
C2238 C2239 1.434 . S
C2239 C2230 1.429 . S
C2239 N2236 1.350 . S
C2239 C2238 1.434 . S
C2240 C2241 1.369 . S
C2240 C2242 1.419 . S
C2240 H2244 0.930 . S
C2241 C2240 1.369 . S
C2241 C2250 1.429 . S
C2242 C2240 1.419 . S
C2242 C2243 1.363 . S
C2242 H2245 0.929 . S
C2243 C2242 1.363 . S
C2243 C2249 1.428 . S
H2244 C2240 0.930 . S
H2245 C2242 0.929 . S
S2246 N2247 1.613 . S
S2246 N2248 1.610 . S
N2247 S2246 1.613 . S
N2247 C2250 1.350 . S
N2248 S2246 1.610 . S
N2248 C2249 1.351 . S
C2249 C2243 1.428 . S
C2249 N2248 1.351 . S
C2249 C2250 1.434 . S
C2250 C2241 1.429 . S
C2250 N2247 1.350 . S
C2250 C2249 1.434 . S
C2251 C2252 1.369 . S
C2251 C2253 1.419 . S
C2251 H2255 0.930 . S
C2252 C2251 1.369 . S
C2252 C2261 1.429 . S
C2253 C2251 1.419 . S
C2253 C2254 1.363 . S
C2253 H2256 0.929 . S
C2254 C2253 1.363 . S
C2254 C2260 1.428 . S
H2255 C2251 0.930 . S
H2256 C2253 0.929 . S
S2257 N2258 1.613 . S
S2257 N2259 1.610 . S
N2258 S2257 1.613 . S
N2258 C2261 1.350 . S
N2259 S2257 1.610 . S
N2259 C2260 1.351 . S
C2260 C2254 1.428 . S
C2260 N2259 1.351 . S
C2260 C2261 1.434 . S
C2261 C2252 1.429 . S
C2261 N2258 1.350 . S
C2261 C2260 1.434 . S
C2262 C2263 1.369 . S
C2262 C2264 1.419 . S
C2262 H2266 0.930 . S
C2263 C2262 1.369 . S
C2263 C2272 1.429 . S
C2264 C2262 1.419 . S
C2264 C2265 1.363 . S
C2264 H2267 0.929 . S
C2265 C2264 1.363 . S
C2265 C2271 1.428 . S
H2266 C2262 0.930 . S
H2267 C2264 0.929 . S
S2268 N2269 1.613 . S
S2268 N2270 1.610 . S
N2269 S2268 1.613 . S
N2269 C2272 1.350 . S
N2270 S2268 1.610 . S
N2270 C2271 1.351 . S
C2271 C2265 1.428 . S
C2271 N2270 1.351 . S
C2271 C2272 1.434 . S
C2272 C2263 1.429 . S
C2272 N2269 1.350 . S
C2272 C2271 1.434 . S
C2273 C2274 1.369 . S
C2273 C2275 1.419 . S
C2273 H2277 0.930 . S
C2274 C2273 1.369 . S
C2274 C2283 1.429 . S
C2275 C2273 1.419 . S
C2275 C2276 1.363 . S
C2275 H2278 0.929 . S
C2276 C2275 1.363 . S
C2276 C2282 1.428 . S
H2277 C2273 0.930 . S
H2278 C2275 0.929 . S
S2279 N2280 1.613 . S
S2279 N2281 1.610 . S
N2280 S2279 1.613 . S
N2280 C2283 1.350 . S
N2281 S2279 1.610 . S
N2281 C2282 1.351 . S
C2282 C2276 1.428 . S
C2282 N2281 1.351 . S
C2282 C2283 1.434 . S
C2283 C2274 1.429 . S
C2283 N2280 1.350 . S
C2283 C2282 1.434 . S
C2284 C2285 1.369 . S
C2284 C2286 1.419 . S
C2284 H2288 0.930 . S
C2285 C2284 1.369 . S
C2285 C2294 1.429 . S
C2286 C2284 1.419 . S
C2286 C2287 1.363 . S
C2286 H2289 0.929 . S
C2287 C2286 1.363 . S
C2287 C2293 1.428 . S
H2288 C2284 0.930 . S
H2289 C2286 0.929 . S
S2290 N2291 1.613 . S
S2290 N2292 1.610 . S
N2291 S2290 1.613 . S
N2291 C2294 1.350 . S
N2292 S2290 1.610 . S
N2292 C2293 1.351 . S
C2293 C2287 1.428 . S
C2293 N2292 1.351 . S
C2293 C2294 1.434 . S
C2294 C2285 1.429 . S
C2294 N2291 1.350 . S
C2294 C2293 1.434 . S
C1603 C70 1.436 . S
C1605 C179 1.532 . S
C1614 C159 1.475 . S
C1616 C1 1.596 . S
C1625 C248 1.442 . S
C1627 C90 1.576 . S
C1636 C337 1.436 . S
C1638 C357 1.535 . S
C1647 C426 1.449 . S
C1649 C446 1.573 . S
C1658 C515 1.458 . S
C1660 C268 1.601 . S
C1669 C604 1.420 . S
C1671 C713 1.516 . S
C1680 C535 1.556 . S
C1682 C693 1.438 . S
C1691 C782 1.436 . S
C1693 C624 1.550 . S
C1702 C871 1.615 . S
C1704 C891 1.793 . S
C1713 C960 1.598 . S
C1715 C980 1.665 . S
C1724 C1049 1.781 . S
C1726 C802 1.908 . S
C1735 C1138 1.610 . S
C1737 C1247 1.794 . S
C1746 C1227 1.778 . S
C1748 C1069 1.901 . S
C1757 C1158 1.668 . S
C1759 C1316 1.589 . S
C1768 C1405 1.407 . S
C1770 C1425 1.519 . S
C1779 C1514 1.555 . S
C1781 C1494 1.423 . S
C1790 C1583 1.430 . S
C1792 C1336 1.566 . S
C1801 C73 1.676 . S
C1803 C874 1.652 . S
C1812 C963 1.695 . S
C1814 C162 1.686 . S
C1823 C251 1.661 . S
C1825 C1052 1.610 . S
C1834 C340 1.670 . S
C1836 C1141 1.646 . S
C1845 C429 1.662 . S
C1847 C1230 1.611 . S
C1856 C1319 1.698 . S
C1858 C518 1.689 . S
C1867 C471 1.312 . S
C1869 C1183 1.330 1_655 S
C1878 C293 1.219 . S
C1880 C1272 1.204 . S
C1889 C1094 1.302 1_545 S
C1891 C382 1.242 . S
C1900 C115 1.310 . S
C1902 C1005 1.335 1_565 S
C1911 C827 1.294 1_455 S
C1913 C204 1.249 . S
C1922 C916 1.216 . S
C1924 C26 1.214 . S
C1933 C607 1.718 . S
C1935 C1408 1.719 . S
C1944 C696 1.613 . S
C1946 C1497 1.623 . S
C1955 C785 1.623 . S
C1957 C1586 1.614 . S
C1966 C1539 1.265 . S
C1968 C649 1.255 . S
C1977 C738 1.175 . S
C1979 C1361 1.190 . S
C1988 C560 1.181 . S
C1990 C1450 1.170 . S
C1999 C18 1.561 . S
C2001 C1531 1.554 . S
C2010 C107 1.554 . S
C2012 C1353 1.564 . S
C2021 C1442 1.560 . S
C2023 C196 1.563 . S
C2032 C641 1.557 . S
C2034 C285 1.564 . S
C2043 C730 1.565 . S
C2045 C374 1.560 . S
C2054 C552 1.569 . S
C2056 C463 1.555 . S
C2065 C819 1.717 . S
C2067 C1175 1.773 . S
C2076 C908 1.575 . S
C2078 C1264 1.574 . S
C2087 C997 1.767 . S
C2089 C1086 1.726 . S
C2098 C63 2.491 . S
C2100 C239 2.693 1_545 S
C2109 C152 2.468 . S
C2111 C61 2.655 1_655 S
C2120 C241 2.474 . S
C2122 C150 2.673 . S
C2131 C330 2.491 . S
C2133 C417 2.693 1_455 S
C2142 C506 2.674 . S
C2144 C419 2.473 . S
C2153 C508 2.464 . S
C2155 C328 2.656 1_565 S
C2164 C597 2.517 . S
C2166 C773 2.708 . S
C2175 C595 2.678 . S
C2177 C686 2.490 . S
C2186 C684 2.684 . S
C2188 C775 2.486 . S
C2197 C951 2.468 . S
C2199 C864 2.288 . S
C2208 C1040 2.587 . S
C2210 C953 2.374 . S
C2219 C862 2.336 . S
C2221 C1042 2.131 . S
C2230 C1131 2.292 . S
C2232 C1307 2.463 . S
C2241 C1129 2.332 . S
C2243 C1220 2.127 . S
C2252 C1309 2.374 . S
C2254 C1218 2.584 . S
C2263 C1485 2.711 . S
C2265 C1398 2.518 . S
C2274 C1574 2.682 . S
C2276 C1487 2.487 . S
C2285 C1396 2.681 . S
C2287 C1576 2.487 . S
