# Generated by pormake.
# Topology vcr, (7)-cn, num edge types: 1
# Building blocks:
#     Node 0, Type 0, BuildingBlock: HICVOG_clean_sbu_0, # of connection points: 7
#     Node 1, Type 0, BuildingBlock: HICVOG_clean_sbu_0, # of connection points: 7
#     Node 2, Type 0, BuildingBlock: HICVOG_clean_sbu_0, # of connection points: 7
#     Node 3, Type 0, BuildingBlock: HICVOG_clean_sbu_0, # of connection points: 7
#     Node 4, Type 0, BuildingBlock: HICVOG_clean_sbu_0, # of connection points: 7
#     Node 5, Type 0, BuildingBlock: HICVOG_clean_sbu_0, # of connection points: 7
#     Node 6, Type 0, BuildingBlock: HICVOG_clean_sbu_0, # of connection points: 7
#     Node 7, Type 0, BuildingBlock: HICVOG_clean_sbu_0, # of connection points: 7
#     Edge 8, Type (0, 0), BuildingBlock: XUDNAN_clean_linker_2, # of connection points: 2
#     Edge 9, Type (0, 0), BuildingBlock: XUDNAN_clean_linker_2, # of connection points: 2
#     Edge 10, Type (0, 0), BuildingBlock: XUDNAN_clean_linker_2, # of connection points: 2
#     Edge 11, Type (0, 0), BuildingBlock: XUDNAN_clean_linker_2, # of connection points: 2
#     Edge 12, Type (0, 0), BuildingBlock: XUDNAN_clean_linker_2, # of connection points: 2
#     Edge 13, Type (0, 0), BuildingBlock: XUDNAN_clean_linker_2, # of connection points: 2
#     Edge 14, Type (0, 0), BuildingBlock: XUDNAN_clean_linker_2, # of connection points: 2
#     Edge 15, Type (0, 0), BuildingBlock: XUDNAN_clean_linker_2, # of connection points: 2
#     Edge 16, Type (0, 0), BuildingBlock: XUDNAN_clean_linker_2, # of connection points: 2
#     Edge 17, Type (0, 0), BuildingBlock: XUDNAN_clean_linker_2, # of connection points: 2
#     Edge 18, Type (0, 0), BuildingBlock: XUDNAN_clean_linker_2, # of connection points: 2
#     Edge 19, Type (0, 0), BuildingBlock: XUDNAN_clean_linker_2, # of connection points: 2
#     Edge 20, Type (0, 0), BuildingBlock: XUDNAN_clean_linker_2, # of connection points: 2
#     Edge 21, Type (0, 0), BuildingBlock: XUDNAN_clean_linker_2, # of connection points: 2
#     Edge 22, Type (0, 0), BuildingBlock: XUDNAN_clean_linker_2, # of connection points: 2
#     Edge 23, Type (0, 0), BuildingBlock: XUDNAN_clean_linker_2, # of connection points: 2
#     Edge 24, Type (0, 0), BuildingBlock: XUDNAN_clean_linker_2, # of connection points: 2
#     Edge 25, Type (0, 0), BuildingBlock: XUDNAN_clean_linker_2, # of connection points: 2
#     Edge 26, Type (0, 0), BuildingBlock: XUDNAN_clean_linker_2, # of connection points: 2
#     Edge 27, Type (0, 0), BuildingBlock: XUDNAN_clean_linker_2, # of connection points: 2
#     Edge 28, Type (0, 0), BuildingBlock: XUDNAN_clean_linker_2, # of connection points: 2
#     Edge 29, Type (0, 0), BuildingBlock: XUDNAN_clean_linker_2, # of connection points: 2
#     Edge 30, Type (0, 0), BuildingBlock: XUDNAN_clean_linker_2, # of connection points: 2
#     Edge 31, Type (0, 0), BuildingBlock: XUDNAN_clean_linker_2, # of connection points: 2
#     Edge 32, Type (0, 0), BuildingBlock: XUDNAN_clean_linker_2, # of connection points: 2
#     Edge 33, Type (0, 0), BuildingBlock: XUDNAN_clean_linker_2, # of connection points: 2
#     Edge 34, Type (0, 0), BuildingBlock: XUDNAN_clean_linker_2, # of connection points: 2
#     Edge 35, Type (0, 0), BuildingBlock: XUDNAN_clean_linker_2, # of connection points: 2
# Relax obj value: 0.300
# Max RMSD: 0.265
# Mean RMSD: 0.265
data_MOF--net-vcr--node1-HICVOG_clean_sbu_0--edge1-XUDNAN_clean_linker_2
_symmetry_space_group_name_H-M    P1
_symmetry_Int_Tables_number       1
_symmetry_cell_setting            triclinic
loop_
_symmetry_equiv_pos_as_xyz
'x, y, z'
_cell_length_a     35.005963
_cell_length_b     49.987119
_cell_length_c     19.471655
_cell_angle_alpha  90.216611
_cell_angle_beta   89.875273
_cell_angle_gamma 90.140074
loop_
_atom_site_label
_atom_site_type_symbol
_atom_site_fract_x
_atom_site_fract_y
_atom_site_fract_z
_atom_type_partial_charge
Zn0 Zn 0.15634 0.13143 0.16173 0.0
C1 C 0.10393 0.09278 0.00531 0.0
N2 N 0.13383 0.07633 0.01052 0.0
C3 C 0.15529 0.08811 0.0588 0.0
N4 N 0.13927 0.11087 0.08281 0.0
N5 N 0.10691 0.11385 0.04856 0.0
C6 C 0.01223 0.15147 0.95001 0.0
O7 O 0.03394 0.16788 0.91474 0.0
O8 O 0.21479 0.13061 0.16044 0.0
Zn9 Zn 0.08137 0.14717 0.03252 0.0
N10 N 0.13563 0.11315 0.24248 0.0
C11 C 0.09194 0.08024 0.28365 0.0
C12 C 0.1075 0.09491 0.22991 0.0
C13 C 0.14767 0.1181 0.30799 0.0
N14 N 0.1044 0.08474 0.34846 0.0
C15 C 0.13163 0.10341 0.3627 0.0
O16 O 0.08255 0.17388 0.1116 0.0
C17 C 0.10711 0.18289 0.15423 0.0
O18 O 0.1376 0.17013 0.16867 0.0
H19 H 0.09739 0.09142 0.17836 0.0
H20 H 0.16966 0.13294 0.31713 0.0
C21 C 0.11492 0.14976 0.89732 0.0
C22 C 0.1344 0.16188 0.84216 0.0
C23 C 0.14203 0.20118 0.90978 0.0
C24 C 0.12263 0.18908 0.96405 0.0
N25 N 0.10925 0.16368 0.95675 0.0
N26 N 0.14727 0.18743 0.85025 0.0
H27 H 0.10306 0.12987 0.89257 0.0
C28 C 0.23159 0.1342 0.10302 0.0
O29 O 0.21082 0.13971 0.04877 0.0
O30 O 0.02568 0.14044 1.00363 0.0
H31 H 0.118 0.19997 0.01136 0.0
H32 H 0.07002 0.06541 0.27401 0.0
H33 H 0.15266 0.22143 0.91474 0.0
Zn34 Zn 0.43212 0.90128 0.0514 0.0
C35 C 0.35498 0.95754 0.06491 0.0
N36 N 0.37951 0.97022 0.02324 0.0
C37 C 0.41132 0.95557 0.02743 0.0
N38 N 0.4061 0.93431 0.0687 0.0
N39 N 0.37107 0.93579 0.09398 0.0
C40 C 0.27857 0.90177 0.12567 0.0
O41 O 0.29857 0.88568 0.08612 0.0
O42 O 0.48837 0.90734 0.02829 0.0
Zn43 Zn 0.35362 0.91551 0.17251 0.0
N44 N 0.40613 0.88412 0.97426 0.0
C45 C 0.35851 0.85246 0.94149 0.0
C46 C 0.37819 0.86648 0.99203 0.0
C47 C 0.41436 0.88896 0.90686 0.0
N48 N 0.36716 0.8568 0.87467 0.0
C49 C 0.39439 0.87476 0.8554 0.0
O50 O 0.37216 0.87692 0.17976 0.0
C51 C 0.40378 0.86498 0.16887 0.0
O52 O 0.42934 0.87456 0.1292 0.0
H53 H 0.37113 0.86321 0.04516 0.0
H54 H 0.43646 0.90324 0.89368 0.0
C55 C 0.37323 0.92001 0.31545 0.0
C56 C 0.39053 0.93174 0.37368 0.0
C57 C 0.40636 0.9698 0.30653 0.0
C58 C 0.39022 0.95775 0.24885 0.0
N59 N 0.37346 0.93327 0.25448 0.0
N60 N 0.40627 0.95655 0.36721 0.0
H61 H 0.35986 0.90052 0.31786 0.0
C62 C 0.51139 0.90737 0.07875 0.0
O63 O 0.49735 0.90483 0.14103 0.0
O64 O 0.29585 0.91589 0.17038 0.0
H65 H 0.39119 0.96787 0.19995 0.0
H66 H 0.33647 0.83823 0.95519 0.0
H67 H 0.41942 0.98938 0.30289 0.0
Zn68 Zn 0.15801 0.41337 0.36279 0.0
C69 C 0.11147 0.45027 0.527 0.0
N70 N 0.14379 0.46454 0.52574 0.0
C71 C 0.16423 0.45269 0.47597 0.0
N72 N 0.14513 0.43194 0.44717 0.0
N73 N 0.11227 0.43015 0.48057 0.0
C74 C 0.99818 0.39425 0.49552 0.0
O75 O 0.00586 0.36981 0.47465 0.0
O76 O 0.21576 0.41383 0.35797 0.0
Zn77 Zn 0.07984 0.39916 0.48735 0.0
N78 N 0.13558 0.43337 0.28683 0.0
C79 C 0.0972 0.47013 0.25176 0.0
C80 C 0.11279 0.45447 0.30345 0.0
C81 C 0.14224 0.42673 0.21982 0.0
N82 N 0.10449 0.46392 0.18521 0.0
C83 C 0.12637 0.44252 0.16737 0.0
O84 O 0.08329 0.37198 0.40914 0.0
C85 C 0.10802 0.36258 0.36734 0.0
O86 O 0.13901 0.37495 0.35369 0.0
H87 H 0.10721 0.45946 0.3565 0.0
H88 H 0.16018 0.40976 0.20766 0.0
C89 C 0.10012 0.39372 0.63024 0.0
C90 C 0.11278 0.38007 0.68916 0.0
C91 C 0.11327 0.33962 0.62469 0.0
C92 C 0.10154 0.3534 0.56631 0.0
N93 N 0.09528 0.38018 0.57004 0.0
N94 N 0.1187 0.35321 0.68441 0.0
H95 H 0.09365 0.41479 0.63208 0.0
C96 C 0.23716 0.4 0.319 0.0
O97 O 0.22161 0.38336 0.27471 0.0
O98 O 0.02542 0.41085 0.50256 0.0
H99 H 0.09742 0.34278 0.51842 0.0
H100 H 0.0795 0.48718 0.2644 0.0
H101 H 0.11825 0.31828 0.62249 0.0
Zn102 Zn 0.42754 0.64502 0.46657 0.0
C103 C 0.36084 0.58604 0.44892 0.0
N104 N 0.38809 0.57373 0.48514 0.0
C105 C 0.41883 0.58933 0.47602 0.0
N106 N 0.41022 0.61081 0.43745 0.0
N107 N 0.37421 0.60841 0.41845 0.0
C108 C 0.26736 0.64272 0.35501 0.0
O109 O 0.27408 0.66698 0.33223 0.0
O110 O 0.48159 0.64229 0.5035 0.0
Zn111 Zn 0.35207 0.62923 0.34507 0.0
N112 N 0.39229 0.65736 0.53719 0.0
C113 C 0.33229 0.67791 0.5603 0.0
C114 C 0.35883 0.66768 0.514 0.0
C115 C 0.39968 0.65592 0.60578 0.0
N116 N 0.33988 0.67699 0.62842 0.0
C117 C 0.37271 0.6661 0.65287 0.0
O118 O 0.37055 0.66835 0.33586 0.0
C119 C 0.40126 0.68121 0.34961 0.0
O120 O 0.42609 0.67238 0.39153 0.0
H121 H 0.35269 0.66798 0.45989 0.0
H122 H 0.42629 0.64733 0.62321 0.0
C123 C 0.36392 0.62532 0.19915 0.0
C124 C 0.38059 0.61492 0.13855 0.0
C125 C 0.40487 0.57846 0.20322 0.0
C126 C 0.38942 0.58931 0.26292 0.0
N127 N 0.36884 0.61233 0.25981 0.0
N128 N 0.40032 0.59153 0.14295 0.0
H129 H 0.34773 0.64367 0.19932 0.0
C130 C 0.50827 0.64067 0.45928 0.0
O131 O 0.49933 0.64122 0.3938 0.0
O132 O 0.29473 0.62616 0.35993 0.0
H133 H 0.39418 0.57947 0.3114 0.0
H134 H 0.30576 0.68641 0.54231 0.0
H135 H 0.42104 0.56006 0.20489 0.0
Zn136 Zn 0.84404 0.91817 0.85099 0.0
C137 C 0.91194 0.95796 0.98265 0.0
N138 N 0.88032 0.9708 1.00201 0.0
C139 C 0.85228 0.95778 0.96887 0.0
N140 N 0.86628 0.93765 0.92933 0.0
N141 N 0.90347 0.93715 0.9412 0.0
C142 C 0.00953 0.89497 0.98157 0.0
O143 O 1.00179 0.87113 0.95652 0.0
O144 O 0.78746 0.91404 0.8734 0.0
Zn145 Zn 0.92763 0.90424 0.96398 0.0
N146 N 0.85259 0.94055 0.76808 0.0
C147 C 0.87222 0.98364 0.72924 0.0
C148 C 0.86515 0.96579 0.78213 0.0
C149 C 0.84812 0.93222 0.70129 0.0
N150 N 0.86721 0.9756 0.66351 0.0
C151 C 0.85555 0.95039 0.64699 0.0
O152 O 0.9233 0.87647 0.8888 0.0
C153 C 0.89859 0.86784 0.84598 0.0
O154 O 0.86788 0.88072 0.8328 0.0
H155 H 0.86953 0.97234 0.83427 0.0
H156 H 0.83859 0.91202 0.69073 0.0
C157 C 0.89879 0.90334 0.10657 0.0
C158 C 0.88378 0.89038 0.16534 0.0
C159 C 0.87953 0.84999 0.10107 0.0
C160 C 0.89436 0.86283 0.04352 0.0
N161 N 0.90389 0.88918 0.04702 0.0
N162 N 0.87477 0.86394 0.16033 0.0
H163 H 0.90726 0.92415 0.10855 0.0
C164 C 0.78151 0.90476 0.93325 0.0
O165 O 0.81102 0.89672 0.96926 0.0
O166 O 0.9828 0.91199 0.98737 0.0
H167 H 0.89879 0.85168 0.99655 0.0
H168 H 0.88173 1.00381 0.74027 0.0
H169 H 0.87208 0.82899 0.09884 0.0
Zn170 Zn 0.58308 0.14389 0.94499 0.0
C171 C 0.65389 0.08385 0.9051 0.0
N172 N 0.62932 0.06983 0.94358 0.0
C173 C 0.60051 0.087 0.95265 0.0
N174 N 0.60694 0.11062 0.9217 0.0
N175 N 0.64061 0.10862 0.89124 0.0
C176 C 0.73541 0.13776 0.87577 0.0
O177 O 0.7174 0.14062 0.93456 0.0
O178 O 0.53115 0.13731 0.9895 0.0
Zn179 Zn 0.65841 0.13138 0.81762 0.0
N180 N 0.61591 0.1613 0.01214 0.0
C181 C 0.66801 0.19082 0.03403 0.0
C182 C 0.64459 0.17713 0.98815 0.0
C183 C 0.61043 0.158 0.08088 0.0
N184 N 0.66218 0.18793 0.1024 0.0
C185 C 0.63417 0.17175 0.1275 0.0
O186 O 0.63373 0.16848 0.81002 0.0
C187 C 0.602 0.17995 0.82377 0.0
O188 O 0.57797 0.17001 0.86602 0.0
H189 H 0.64938 0.1792 0.93385 0.0
H190 H 0.58751 0.1452 0.09878 0.0
C191 C 0.64621 0.12767 0.67262 0.0
C192 C 0.63347 0.1159 0.61066 0.0
C193 C 0.61941 0.07593 0.67167 0.0
C194 C 0.63123 0.08789 0.7326 0.0
N195 N 0.64456 0.11347 0.73208 0.0
N196 N 0.62064 0.09016 0.61263 0.0
H197 H 0.65723 0.14783 0.67469 0.0
C198 C 0.50047 0.13432 0.95531 0.0
O199 O 0.50203 0.13526 0.88794 0.0
O200 O 0.71617 0.13443 0.82099 0.0
H201 H 0.62916 0.07681 0.77974 0.0
H202 H 0.69073 0.20363 0.01548 0.0
H203 H 0.60882 0.05558 0.67135 0.0
Zn204 Zn 0.85057 0.6308 0.67561 0.0
C205 C 0.92056 0.58688 0.55561 0.0
N206 N 0.88981 0.57153 0.54478 0.0
C207 C 0.86169 0.58424 0.5782 0.0
N208 N 0.87492 0.60676 0.60946 0.0
N209 N 0.91153 0.60886 0.59289 0.0
C210 C 0.00898 0.63356 0.55184 0.0
O211 O 1.0034 0.62971 0.61776 0.0
O212 O 0.79607 0.63504 0.64162 0.0
Zn213 Zn 0.92816 0.64315 0.55843 0.0
N214 N 0.85481 0.61342 0.76515 0.0
C215 C 0.86712 0.57402 0.83009 0.0
C216 C 0.86342 0.58686 0.76722 0.0
C217 C 0.85287 0.6281 0.82417 0.0
N218 N 0.86439 0.58852 0.88877 0.0
C219 C 0.85798 0.61533 0.88768 0.0
O220 O 0.92879 0.67274 0.629 0.0
C221 C 0.9045 0.68178 0.67203 0.0
O222 O 0.87456 0.66851 0.68819 0.0
H223 H 0.8675 0.57555 0.72054 0.0
H224 H 0.84794 0.64945 0.82159 0.0
C225 C 0.8975 0.65267 0.42125 0.0
C226 C 0.86747 0.65808 0.37546 0.0
C227 C 0.82579 0.66537 0.46969 0.0
C228 C 0.85544 0.65983 0.51485 0.0
N229 N 0.89059 0.65338 0.49012 0.0
N230 N 0.83236 0.66412 0.40117 0.0
H231 H 0.9255 0.64706 0.4025 0.0
C232 C 0.76379 0.63693 0.67137 0.0
O233 O 0.76202 0.6375 0.73875 0.0
O234 O 0.98083 0.64005 0.51432 0.0
H235 H 0.85023 0.66017 0.5693 0.0
H236 H 0.87302 0.55281 0.83225 0.0
H237 H 0.79763 0.67028 0.48888 0.0
Zn238 Zn 0.64981 0.41406 0.6522 0.0
C239 C 0.60638 0.45238 0.48871 0.0
N240 N 0.63726 0.46803 0.49678 0.0
C241 C 0.65554 0.4566 0.54933 0.0
N242 N 0.63666 0.43503 0.57328 0.0
N243 N 0.60604 0.43213 0.53441 0.0
C244 C 0.49901 0.41143 0.49343 0.0
O245 O 0.49744 0.42022 0.55702 0.0
O246 O 0.7072 0.41576 0.65843 0.0
Zn247 Zn 0.58149 0.39831 0.51762 0.0
N248 N 0.62692 0.43 0.73294 0.0
C249 C 0.58423 0.46046 0.78707 0.0
C250 C 0.60205 0.45073 0.72796 0.0
C251 C 0.63389 0.41809 0.79423 0.0
N252 N 0.59089 0.4484 0.84829 0.0
C253 C 0.61494 0.42713 0.85378 0.0
O254 O 0.57523 0.37392 0.60057 0.0
C255 C 0.59985 0.36369 0.64092 0.0
O256 O 0.63175 0.37516 0.65331 0.0
H257 H 0.59599 0.45955 0.67855 0.0
H258 H 0.65375 0.40158 0.79569 0.0
C259 C 0.61022 0.38438 0.38389 0.0
C260 C 0.63339 0.37047 0.33659 0.0
C261 C 0.66336 0.3481 0.42925 0.0
C262 C 0.64028 0.3618 0.47568 0.0
N263 N 0.61403 0.37958 0.45235 0.0
N264 N 0.65928 0.35263 0.3611 0.0
H265 H 0.58883 0.39844 0.36681 0.0
C266 C 0.72569 0.40283 0.61301 0.0
O267 O 0.70678 0.38774 0.56936 0.0
O268 O 0.53038 0.40249 0.46969 0.0
H269 H 0.6434 0.35817 0.52975 0.0
H270 H 0.56469 0.47714 0.78415 0.0
H271 H 0.68429 0.33386 0.44718 0.0
H272 H 0.42902 0.13227 0.8977 0.0
H273 H 0.48746 0.12853 0.09375 0.0
H274 H 0.42512 0.12537 0.15323 0.0
H275 H 0.35336 0.17349 0.95135 0.0
H276 H 0.31766 0.15696 0.89969 0.0
H277 H 0.36686 0.15676 0.87281 0.0
H278 H 0.36514 0.1052 0.86683 0.0
H279 H 0.31615 0.10467 0.89551 0.0
H280 H 0.35206 0.08629 0.94179 0.0
H281 H 0.35544 0.12537 0.19175 0.0
H282 H 0.28523 0.12867 0.20531 0.0
H283 H 0.27321 0.1328 0.98384 0.0
C284 C 0.42882 0.1305 0.95311 0.0
C285 C 0.46323 0.13075 0.991 0.0
C286 C 0.46152 0.12848 0.06351 0.0
C287 C 0.42621 0.1266 0.09779 0.0
C288 C 0.3928 0.12692 0.0589 0.0
C289 C 0.39388 0.12871 0.98808 0.0
C290 C 0.354 0.12969 0.95822 0.0
C291 C 0.34761 0.15578 0.91818 0.0
C292 C 0.34636 0.10499 0.91291 0.0
C293 C 0.33024 0.12898 0.02332 0.0
C294 C 0.35303 0.12705 0.08091 0.0
C295 C 0.33736 0.12675 0.14691 0.0
C296 C 0.29744 0.1287 0.15416 0.0
C297 C 0.27365 0.13122 0.09578 0.0
C298 C 0.2905 0.13107 0.02964 0.0
H299 H 0.23068 0.86834 0.05458 0.0
H300 H 0.23286 0.94304 0.16881 0.0
H301 H 0.16466 0.95012 0.14191 0.0
H302 H 0.16828 0.8894 0.92039 0.0
H303 H 0.14323 0.85792 0.9149 0.0
H304 H 0.19219 0.85878 0.94305 0.0
H305 H 0.17326 0.83436 0.0553 0.0
H306 H 0.12429 0.83324 0.02729 0.0
H307 H 0.13612 0.84813 0.109 0.0
H308 H 0.09646 0.94959 0.09907 0.0
H309 H 0.03253 0.93992 0.05152 0.0
H310 H 0.07455 0.86467 0.96911 0.0
C311 C 0.21678 0.88614 0.07421 0.0
C312 C 0.23711 0.90517 0.11371 0.0
C313 C 0.21783 0.92814 0.13869 0.0
C314 C 0.17913 0.93238 0.12343 0.0
C315 C 0.16001 0.91331 0.08381 0.0
C316 C 0.17809 0.8905 0.06024 0.0
C317 C 0.15094 0.87283 0.01989 0.0
C318 C 0.16447 0.86955 0.94513 0.0
C319 C 0.14585 0.84553 0.05499 0.0
C320 C 0.11477 0.8893 0.02412 0.0
C321 C 0.12064 0.91268 0.06075 0.0
C322 C 0.0915 0.93126 0.07069 0.0
C323 C 0.05528 0.9256 0.04332 0.0
C324 C 0.04841 0.90145 0.00687 0.0
C325 C 0.07876 0.88323 0.99694 0.0
H326 H 0.43049 0.43751 0.5132 0.0
H327 H 0.48799 0.38116 0.37821 0.0
H328 H 0.42838 0.37491 0.31288 0.0
H329 H 0.34274 0.4061 0.52568 0.0
H330 H 0.31392 0.43589 0.52073 0.0
H331 H 0.36189 0.4379 0.55318 0.0
H332 H 0.3771 0.47405 0.46328 0.0
H333 H 0.32988 0.47158 0.42661 0.0
H334 H 0.37129 0.46673 0.37321 0.0
H335 H 0.36119 0.37103 0.26979 0.0
H336 H 0.29161 0.37129 0.2493 0.0
H337 H 0.27799 0.43157 0.40866 0.0
C338 C 0.43066 0.42418 0.46929 0.0
C339 C 0.46391 0.40974 0.45106 0.0
C340 C 0.46296 0.3925 0.39314 0.0
C341 C 0.42921 0.38881 0.3556 0.0
C342 C 0.39678 0.40295 0.37556 0.0
C343 C 0.39734 0.42067 0.43028 0.0
C344 C 0.35826 0.43305 0.44142 0.0
C345 C 0.34333 0.4279 0.51459 0.0
C346 C 0.35921 0.46314 0.42524 0.0
C347 C 0.33516 0.41796 0.38801 0.0
C348 C 0.35808 0.40114 0.34956 0.0
C349 C 0.34301 0.38439 0.29894 0.0
C350 C 0.30341 0.38464 0.28776 0.0
C351 C 0.27925 0.40139 0.32733 0.0
C352 C 0.29561 0.41855 0.37735 0.0
H353 H 0.04675 0.66371 0.45512 0.0
H354 H 0.05774 0.59342 0.58321 0.0
H355 H 0.12304 0.58612 0.53868 0.0
H356 H 0.10428 0.64005 0.30847 0.0
H357 H 0.12636 0.67221 0.29478 0.0
H358 H 0.07886 0.67024 0.33036 0.0
H359 H 0.10063 0.69838 0.43527 0.0
H360 H 0.14814 0.70041 0.40008 0.0
H361 H 0.14087 0.68736 0.48529 0.0
H362 H 0.18756 0.58725 0.48413 0.0
H363 H 0.24909 0.59854 0.43058 0.0
H364 H 0.19904 0.67008 0.34291 0.0
C365 C 0.06279 0.64655 0.47267 0.0
C366 C 0.04721 0.6289 0.52192 0.0
C367 C 0.06921 0.60706 0.54529 0.0
C368 C 0.10623 0.60271 0.52009 0.0
C369 C 0.12109 0.62066 0.47232 0.0
C370 C 0.10029 0.64231 0.44926 0.0
C371 C 0.12436 0.65983 0.40244 0.0
C372 C 0.10745 0.66062 0.32969 0.0
C373 C 0.12876 0.68817 0.43259 0.0
C374 C 0.162 0.6448 0.40343 0.0
C375 C 0.15916 0.62202 0.44314 0.0
C376 C 0.19009 0.605 0.45276 0.0
C377 C 0.22501 0.61159 0.42184 0.0
C378 C 0.2291 0.63521 0.38229 0.0
C379 C 0.19692 0.65188 0.37266 0.0
H380 H 0.71097 0.91405 0.87248 0.0
H381 H 0.76518 0.89704 0.06801 0.0
H382 H 0.70267 0.89836 0.12526 0.0
H383 H 0.63765 0.95888 0.93976 0.0
H384 H 0.6006 0.94666 0.88357 0.0
H385 H 0.64981 0.94564 0.8563 0.0
H386 H 0.64448 0.89477 0.83383 0.0
H387 H 0.59514 0.89553 0.86016 0.0
H388 H 0.62801 0.87309 0.90158 0.0
H389 H 0.63552 0.90089 0.16239 0.0
H390 H 0.56586 0.90177 0.17686 0.0
H391 H 0.5523 0.91556 0.95805 0.0
C392 C 0.7096 0.91066 0.92732 0.0
C393 C 0.7431 0.90534 0.96563 0.0
C394 C 0.74006 0.90096 0.0373 0.0
C395 C 0.70463 0.90182 0.07053 0.0
C396 C 0.67225 0.90696 0.03156 0.0
C397 C 0.67415 0.91114 0.96154 0.0
C398 C 0.63437 0.91515 0.932 0.0
C399 C 0.63038 0.94326 0.90109 0.0
C400 C 0.62495 0.89333 0.87875 0.0
C401 C 0.61002 0.91217 0.99634 0.0
C402 C 0.63273 0.90782 0.05311 0.0
C403 C 0.61736 0.90429 0.11838 0.0
C404 C 0.57763 0.90484 0.12602 0.0
C405 C 0.55343 0.90863 0.06865 0.0
C406 C 0.56999 0.91258 1.00292 0.0
H407 H 0.78586 0.1317 0.98301 0.0
H408 H 0.78067 0.14406 0.76263 0.0
H409 H 0.85103 0.14555 0.75764 0.0
H410 H 0.86356 0.17499 0.01693 0.0
H411 H 0.88541 0.15397 0.08071 0.0
H412 H 0.83463 0.15235 0.06689 0.0
H413 H 0.83931 0.10128 0.04399 0.0
H414 H 0.89008 0.10292 0.05863 0.0
H415 H 0.87197 0.0891 0.97944 0.0
H416 H 0.92085 0.14955 0.77707 0.0
H417 H 0.98681 0.1544 0.81904 0.0
H418 H 0.94862 0.13717 0.02645 0.0
C419 C 0.79957 0.13462 0.93369 0.0
C420 C 0.77773 0.13795 0.87319 0.0
C421 C 0.79674 0.14148 0.8096 0.0
C422 C 0.83672 0.14231 0.80622 0.0
C423 C 0.85738 0.13916 0.86672 0.0
C424 C 0.8396 0.13513 0.92922 0.0
C425 C 0.86875 0.13285 0.98661 0.0
C426 C 0.86272 0.15485 0.04097 0.0
C427 C 0.86745 0.10487 0.01906 0.0
C428 C 0.90561 0.13712 0.94683 0.0
C429 C 0.89822 0.1406 0.87769 0.0
C430 C 0.92708 0.14652 0.83088 0.0
C431 C 0.96445 0.14933 0.85532 0.0
C432 C 0.97286 0.14608 0.9259 0.0
C433 C 0.9431 0.13939 0.97208 0.0
H434 H 0.68877 0.64373 0.71329 0.0
H435 H 0.759 0.62812 0.53334 0.0
H436 H 0.70139 0.62645 0.46149 0.0
H437 H 0.60996 0.60039 0.66409 0.0
H438 H 0.57366 0.62254 0.69698 0.0
H439 H 0.62043 0.62227 0.73546 0.0
H440 H 0.62684 0.67326 0.71478 0.0
H441 H 0.58008 0.67368 0.67636 0.0
H442 H 0.62068 0.68624 0.62926 0.0
H443 H 0.637 0.62703 0.40819 0.0
H444 H 0.56919 0.63025 0.37616 0.0
H445 H 0.53924 0.64519 0.58947 0.0
C446 C 0.692 0.63996 0.6588 0.0
C447 C 0.72856 0.63626 0.62906 0.0
C448 C 0.73146 0.63131 0.55746 0.0
C449 C 0.69884 0.63019 0.51609 0.0
C450 C 0.66334 0.634 0.54684 0.0
C451 C 0.65958 0.63878 0.61646 0.0
C452 C 0.61788 0.64248 0.63596 0.0
C453 C 0.60472 0.62061 0.68609 0.0
C454 C 0.61098 0.67059 0.66585 0.0
C455 C 0.59896 0.63921 0.56632 0.0
C456 C 0.62582 0.63425 0.51581 0.0
C457 C 0.61565 0.63087 0.44726 0.0
C458 C 0.577 0.6328 0.42958 0.0
C459 C 0.54881 0.63806 0.48017 0.0
C460 C 0.56005 0.6411 0.5496 0.0
H461 H 0.77489 0.36998 0.54448 0.0
H462 H 0.77049 0.44366 0.66275 0.0
H463 H 0.83976 0.45038 0.64307 0.0
H464 H 0.86682 0.34867 0.60619 0.0
H465 H 0.88073 0.3343 0.52489 0.0
H466 H 0.83102 0.33567 0.54852 0.0
H467 H 0.81618 0.36114 0.43598 0.0
H468 H 0.86591 0.36007 0.41227 0.0
H469 H 0.84147 0.39172 0.4172 0.0
H470 H 0.90936 0.4499 0.60487 0.0
H471 H 0.97457 0.43955 0.5636 0.0
H472 H 0.93276 0.36543 0.47395 0.0
C473 C 0.78848 0.38753 0.56632 0.0
C474 C 0.76739 0.40628 0.60516 0.0
C475 C 0.78624 0.42891 0.6333 0.0
C476 C 0.82547 0.43299 0.62192 0.0
C477 C 0.84533 0.41427 0.58244 0.0
C478 C 0.82752 0.3918 0.55594 0.0
C479 C 0.85535 0.3742 0.5172 0.0
C480 C 0.85868 0.34658 0.55126 0.0
C481 C 0.84404 0.37165 0.44116 0.0
C482 C 0.89166 0.39031 0.52562 0.0
C483 C 0.88532 0.4135 0.56277 0.0
C484 C 0.91467 0.43168 0.57623 0.0
C485 C 0.95158 0.42567 0.55234 0.0
C486 C 0.95881 0.40159 0.51589 0.0
C487 C 0.92824 0.38392 0.50195 0.0
H488 H 0.16037 0.32584 0.31864 0.0
H489 H 0.03866 0.33921 0.34357 0.0
H490 H 0.02545 0.29506 0.29138 0.0
H491 H 0.15614 0.29015 0.15691 0.0
H492 H 0.19319 0.2668 0.17931 0.0
H493 H 0.19317 0.2999 0.21621 0.0
H494 H 0.194 0.27947 0.33827 0.0
H495 H 0.19393 0.24631 0.30176 0.0
H496 H 0.15746 0.25583 0.36254 0.0
H497 H 0.02522 0.25004 0.23343 0.0
H498 H 0.03802 0.20592 0.18079 0.0
H499 H 0.15991 0.21987 0.20066 0.0
C500 C 0.13093 0.31955 0.31262 0.0
C501 C 0.10051 0.33613 0.33475 0.0
C502 C 0.06243 0.32692 0.32702 0.0
C503 C 0.05463 0.30188 0.29728 0.0
C504 C 0.08521 0.28598 0.27635 0.0
C505 C 0.12263 0.2943 0.28422 0.0
C506 C 0.15021 0.27285 0.25974 0.0
C507 C 0.17461 0.28304 0.19946 0.0
C508 C 0.17538 0.26304 0.31913 0.0
C509 C 0.12244 0.25125 0.23656 0.0
C510 C 0.08509 0.2594 0.24596 0.0
C511 C 0.05435 0.24336 0.22634 0.0
C512 C 0.06191 0.21834 0.19634 0.0
C513 C 0.09992 0.2093 0.18711 0.0
C514 C 0.13053 0.22603 0.20793 0.0
H515 H 0.34854 0.71856 0.30603 0.0
H516 H 0.47031 0.70411 0.32471 0.0
H517 H 0.48369 0.74937 0.28107 0.0
H518 H 0.35312 0.75901 0.15044 0.0
H519 H 0.31622 0.7817 0.17834 0.0
H520 H 0.31599 0.74754 0.20756 0.0
H521 H 0.31509 0.76415 0.33375 0.0
H522 H 0.31565 0.79835 0.30492 0.0
H523 H 0.3519 0.78671 0.36314 0.0
H524 H 0.48443 0.79588 0.23655 0.0
H525 H 0.47237 0.84148 0.19406 0.0
H526 H 0.35017 0.82752 0.20886 0.0
C527 C 0.37798 0.72484 0.29994 0.0
C528 C 0.40841 0.70775 0.31844 0.0
C529 C 0.44655 0.71686 0.31094 0.0
C530 C 0.45447 0.74253 0.28615 0.0
C531 C 0.42394 0.75906 0.26958 0.0
C532 C 0.38645 0.75069 0.27613 0.0
C533 C 0.35909 0.77296 0.25681 0.0
C534 C 0.33467 0.76481 0.19458 0.0
C535 C 0.33396 0.78101 0.31833 0.0
C536 C 0.38714 0.79505 0.23846 0.0
C537 C 0.42437 0.78645 0.24584 0.0
C538 C 0.4554 0.8029 0.2307 0.0
C539 C 0.44826 0.82877 0.20661 0.0
C540 C 0.41037 0.83813 0.19852 0.0
C541 C 0.37944 0.82106 0.21538 0.0
H542 H 0.84636 0.82853 0.80919 0.0
H543 H 0.9676 0.84671 0.81249 0.0
H544 H 0.98181 0.80138 0.76928 0.0
H545 H 0.85581 0.76127 0.86952 0.0
H546 H 0.81812 0.7477 0.81685 0.0
H547 H 0.81666 0.78225 0.84337 0.0
H548 H 0.81176 0.7971 0.71644 0.0
H549 H 0.81279 0.76257 0.68956 0.0
H550 H 0.8472 0.78593 0.65551 0.0
H551 H 0.98346 0.75421 0.72679 0.0
H552 H 0.97244 0.70777 0.68825 0.0
H553 H 0.85045 0.71812 0.71806 0.0
C554 C 0.87581 0.82308 0.79952 0.0
C555 C 0.90588 0.84134 0.81349 0.0
C556 C 0.9441 0.83318 0.80188 0.0
C557 C 0.95248 0.80743 0.77738 0.0
C558 C 0.92238 0.78976 0.76539 0.0
C559 C 0.88479 0.79713 0.77608 0.0
C560 C 0.85809 0.7737 0.7617 0.0
C561 C 0.83586 0.76577 0.82674 0.0
C562 C 0.83085 0.78022 0.70226 0.0
C563 C 0.88657 0.75213 0.74123 0.0
C564 C 0.92346 0.76198 0.74335 0.0
C565 C 0.95471 0.74624 0.72516 0.0
C566 C 0.94815 0.71983 0.70339 0.0
C567 C 0.91066 0.70913 0.70062 0.0
C568 C 0.87951 0.72553 0.72061 0.0
H569 H 0.65351 0.2178 0.77948 0.0
H570 H 0.53203 0.20263 0.80177 0.0
H571 H 0.51822 0.24778 0.75687 0.0
H572 H 0.64994 0.28608 0.83555 0.0
H573 H 0.68631 0.29745 0.77679 0.0
H574 H 0.68669 0.26341 0.8068 0.0
H575 H 0.68594 0.24619 0.68111 0.0
H576 H 0.68577 0.28018 0.6507 0.0
H577 H 0.64887 0.25725 0.62379 0.0
H578 H 0.51766 0.29456 0.70812 0.0
H579 H 0.53042 0.34006 0.66415 0.0
H580 H 0.6523 0.32594 0.68084 0.0
C581 C 0.62399 0.22385 0.77407 0.0
C582 C 0.5938 0.20655 0.79349 0.0
C583 C 0.5556 0.21548 0.78702 0.0
C584 C 0.54748 0.24109 0.76152 0.0
C585 C 0.57788 0.25775 0.74353 0.0
C586 C 0.61539 0.24956 0.7499 0.0
C587 C 0.64281 0.27175 0.72971 0.0
C588 C 0.66791 0.28016 0.79087 0.0
C589 C 0.66728 0.26334 0.66763 0.0
C590 C 0.61489 0.29366 0.71076 0.0
C591 C 0.57757 0.28509 0.71849 0.0
C592 C 0.54678 0.30153 0.70228 0.0
C593 C 0.5543 0.32734 0.6773 0.0
C594 C 0.59231 0.33669 0.66963 0.0
C595 C 0.62291 0.31956 0.68708 0.0
H596 H 0.31044 0.98254 0.97613 0.0
H597 H 0.31995 0.96453 0.19266 0.0
H598 H 0.27193 0.9994 0.21896 0.0
H599 H 0.311 0.05128 0.99946 0.0
H600 H 0.27918 0.05828 0.92918 0.0
H601 H 0.30895 0.02898 0.92657 0.0
H602 H 0.24959 0.99816 0.91083 0.0
H603 H 0.21992 0.02748 0.90978 0.0
H604 H 0.21013 1.00103 0.97004 0.0
H605 H 0.22392 0.03914 0.21898 0.0
H606 H 0.17739 0.07469 0.19102 0.0
H607 H 0.2095 0.06943 0.97682 0.0
C608 C 0.30144 0.98522 0.02902 0.0
C609 C 0.31849 0.97053 0.08223 0.0
C610 C 0.30676 0.9751 0.15086 0.0
C611 C 0.27988 0.99521 0.16628 0.0
C612 C 0.2658 1.01069 0.11244 0.0
C613 C 0.27608 1.0056 0.04512 0.0
C614 C 0.25982 0.02589 0.99637 0.0
C615 C 0.29165 0.04204 0.9608 0.0
C616 C 0.23328 1.01234 0.94369 0.0
C617 C 0.23798 0.0431 0.04628 0.0
C618 C 0.24152 0.03424 0.11313 0.0
C619 C 0.22141 0.04637 0.16687 0.0
C620 C 0.19545 0.0669 0.15083 0.0
C621 C 0.19048 0.0751 0.08198 0.0
C622 C 0.21341 0.06388 0.03011 0.0
H623 H 0.2181 0.4736 0.55598 0.0
H624 H 0.18685 0.46389 0.3425 0.0
H625 H 0.23251 0.49947 0.31034 0.0
H626 H 0.21652 0.5423 0.55043 0.0
H627 H 0.25485 0.5475 0.61067 0.0
H628 H 0.22597 0.51774 0.61577 0.0
H629 H 0.28588 0.48723 0.60419 0.0
H630 H 0.31463 0.51713 0.60454 0.0
H631 H 0.31934 0.49332 0.53563 0.0
H632 H 0.27705 0.54042 0.3051 0.0
H633 H 0.32331 0.57704 0.32549 0.0
H634 H 0.31881 0.56154 0.5439 0.0
C635 C 0.22212 0.47812 0.50203 0.0
C636 C 0.19946 0.46564 0.45152 0.0
C637 C 0.2045 0.47266 0.3818 0.0
C638 C 0.23004 0.49318 0.36329 0.0
C639 C 0.24972 0.50654 0.41545 0.0
C640 C 0.24644 0.49888 0.48333 0.0
C641 C 0.26735 0.51772 0.53092 0.0
C642 C 0.23949 0.53215 0.5798 0.0
C643 C 0.29865 0.50297 0.5711 0.0
C644 C 0.28387 0.53689 0.4792 0.0
C645 C 0.27322 0.53046 0.41288 0.0
C646 C 0.2857 0.54549 0.35687 0.0
C647 C 0.31167 0.56651 0.36891 0.0
C648 C 0.32452 0.57214 0.43625 0.0
C649 C 0.30903 0.55786 0.49192 0.0
H650 H 0.68962 0.0503 0.81274 0.0
H651 H 0.70427 0.09508 1.00193 0.0
H652 H 0.75159 0.06248 0.041 0.0
H653 H 0.69554 0.98783 0.87434 0.0
H654 H 0.72533 0.97243 0.80987 0.0
H655 H 0.69642 1.00095 0.78821 0.0
H656 H 0.75576 0.02767 0.74687 0.0
H657 H 0.78435 0.9985 0.76373 0.0
H658 H 0.79692 0.03019 0.80207 0.0
H659 H 0.77832 1.01898 0.07394 0.0
H660 H 0.81831 0.97889 0.07835 0.0
H661 H 0.80013 0.96561 0.86042 0.0
C662 C 0.70494 0.05425 0.85996 0.0
C663 C 0.69383 0.07547 0.90397 0.0
C664 C 0.71332 0.0795 0.96664 0.0
C665 C 0.73942 0.06064 0.99015 0.0
C666 C 0.74687 0.03854 0.9488 0.0
C667 C 0.73275 0.03616 0.88295 0.0
C668 C 0.74728 1.01057 0.84912 0.0
C669 C 0.71415 0.99186 0.82918 0.0
C670 C 0.7726 1.01712 0.78676 0.0
C671 C 0.77048 0.99877 0.90747 0.0
C672 C 0.76787 1.01478 0.96522 0.0
C673 C 0.78249 1.007 0.02814 0.0
C674 C 0.80451 0.98387 0.03027 0.0
C675 C 0.81393 0.9699 0.96908 0.0
C676 C 0.79445 0.97621 0.90767 0.0
H677 H 0.72204 0.46569 0.48577 0.0
H678 H 0.66152 0.48007 0.67602 0.0
H679 H 0.70697 0.5163 0.70525 0.0
H680 H 0.82128 0.48361 0.54949 0.0
H681 H 0.8319 0.4977 0.46674 0.0
H682 H 0.79926 0.46989 0.47344 0.0
H683 H 0.74995 0.49922 0.40677 0.0
H684 H 0.78179 0.52751 0.40676 0.0
H685 H 0.73474 0.53059 0.44368 0.0
H686 H 0.75404 0.55598 0.70334 0.0
H687 H 0.80571 0.58849 0.68196 0.0
H688 H 0.8322 0.54833 0.4902 0.0
C689 C 0.7197 0.47553 0.53527 0.0
C690 C 0.6891 0.46964 0.57969 0.0
C691 C 0.68566 0.48361 0.64267 0.0
C692 C 0.71099 0.50456 0.659 0.0
C693 C 0.73949 0.51108 0.61167 0.0
C694 C 0.74457 0.49639 0.55198 0.0
C695 C 0.7754 0.50829 0.50711 0.0
C696 C 0.80893 0.4887 0.4987 0.0
C697 C 0.75949 0.5169 0.43696 0.0
C698 C 0.78649 0.53225 0.55013 0.0
C699 C 0.7656 0.53373 0.61015 0.0
C700 C 0.77107 0.5546 0.65702 0.0
C701 C 0.80041 0.57327 0.64415 0.0
C702 C 0.82396 0.57081 0.58533 0.0
C703 C 0.81528 0.55071 0.53648 0.0
H704 H 0.03642 0.08557 0.06997 0.0
H705 H 0.09538 0.07298 0.87711 0.0
H706 H 0.05271 0.03496 0.85068 0.0
H707 H 0.0307 1.02196 0.11576 0.0
H708 H 0.98363 1.02202 0.15348 0.0
H709 H 0.01108 0.05245 0.15068 0.0
H710 H 0.95739 0.07693 0.08458 0.0
H711 H 0.92861 0.04709 0.09069 0.0
H712 H 0.93782 0.06192 0.00805 0.0
H713 H 0.01305 0.9928 0.85727 0.0
H714 H 0.96686 0.9565 0.88175 0.0
H715 H 0.93586 0.99591 0.07266 0.0
C716 C 0.03841 0.07605 0.02002 0.0
C717 C 0.06857 0.08244 0.97487 0.0
C718 C 0.07172 0.06872 0.9114 0.0
C719 C 0.04809 0.04678 0.89663 0.0
C720 C 0.02119 0.03913 0.94562 0.0
C721 C 0.01519 0.05396 0.00486 0.0
C722 C 0.98657 0.04035 0.05158 0.0
C723 C 1.00407 0.03383 0.12201 0.0
C724 C 0.95045 0.05758 0.05916 0.0
C725 C 0.97868 1.01511 0.01078 0.0
C726 C 0.99887 1.01472 0.94982 0.0
C727 C 0.9966 0.9931 0.90438 0.0
C728 C 0.9709 0.97227 0.91936 0.0
C729 C 0.94795 0.97333 0.97926 0.0
C730 C 0.95329 0.99446 0.02674 0.0
H731 H 0.53123 0.0786 0.89726 0.0
H732 H 0.59613 0.07261 0.08526 0.0
H733 H 0.55469 0.03564 0.12392 0.0
H734 H 0.43447 0.05697 0.97751 0.0
H735 H 0.4222 0.03974 0.8991 0.0
H736 H 0.45051 0.06988 0.89613 0.0
H737 H 0.50163 0.04395 0.82659 0.0
H738 H 0.47506 1.01323 0.83294 0.0
H739 H 0.52358 1.01476 0.86356 0.0
H740 H 0.51674 0.99335 0.12906 0.0
H741 H 0.47025 0.95647 0.1181 0.0
H742 H 0.43126 0.98913 0.92469 0.0
C743 C 0.53467 0.07086 0.94877 0.0
C744 C 0.56616 0.0786 0.98908 0.0
C745 C 0.57138 0.06725 0.05476 0.0
C746 C 0.54844 0.04593 0.07647 0.0
C747 C 0.52012 0.03673 0.03216 0.0
C748 C 0.5119 0.04958 0.97112 0.0
C749 C 0.48178 0.03451 0.93075 0.0
C750 C 0.44506 0.05125 0.9256 0.0
C751 C 0.49643 0.02613 0.85926 0.0
C752 C 0.4762 1.01043 0.97658 0.0
C753 C 0.49854 1.0121 0.03479 0.0
C754 C 0.49872 0.99197 0.0841 0.0
C755 C 0.47306 0.97061 0.07641 0.0
C756 C 0.44793 0.96959 0.01963 0.0
C757 C 0.45084 0.98912 0.96772 0.0
H758 H 0.04896 0.46377 0.45378 0.0
H759 H 0.10016 0.46959 0.65536 0.0
H760 H 0.05836 0.50782 0.68341 0.0
H761 H 0.04817 0.53007 0.42157 0.0
H762 H 1.00316 0.5316 0.37701 0.0
H763 H 0.03017 0.50101 0.37692 0.0
H764 H 0.97302 0.47458 0.4289 0.0
H765 H 0.94516 0.50478 0.42461 0.0
H766 H 0.94971 0.48728 0.50489 0.0
H767 H 0.0169 0.54897 0.68358 0.0
H768 H 0.96989 0.58488 0.66359 0.0
H769 H 0.95029 0.55448 0.45802 0.0
C770 C 0.04952 0.47198 0.50533 0.0
C771 C 0.07676 0.46317 0.55342 0.0
C772 C 0.07842 0.47544 0.61896 0.0
C773 C 0.05529 0.49749 0.63478 0.0
C774 C 0.03086 0.50707 0.5842 0.0
C775 C 0.02704 0.49428 0.52145 0.0
C776 C 1.0009 0.50973 0.4742 0.0
C777 C 0.02188 0.51861 0.40856 0.0
C778 C 0.96507 0.49312 0.45716 0.0
C779 C 0.99135 0.53349 0.51954 0.0
C780 C 0.00882 0.53158 0.58283 0.0
C781 C 1.00319 0.55076 0.63406 0.0
C782 C 0.9772 0.57153 0.62167 0.0
C783 C 0.95765 0.57311 0.55827 0.0
C784 C 0.96595 0.55433 0.50596 0.0
H785 H 0.44634 0.55457 0.56918 0.0
H786 H 0.47174 0.59124 0.37297 0.0
H787 H 0.51816 0.55545 0.34769 0.0
H788 H 0.54343 0.52819 0.60444 0.0
H789 H 0.52374 0.49843 0.64287 0.0
H790 H 0.49779 0.52942 0.6474 0.0
H791 H 0.43951 0.50514 0.59244 0.0
H792 H 0.46631 0.47459 0.58436 0.0
H793 H 0.44485 0.4894 0.50954 0.0
H794 H 0.55694 0.51296 0.33935 0.0
H795 H 0.59709 0.47328 0.36157 0.0
H796 H 0.54264 0.46342 0.55955 0.0
C797 C 0.46311 0.55574 0.52243 0.0
C798 C 0.45617 0.57598 0.4738 0.0
C799 C 0.47763 0.57648 0.41207 0.0
C800 C 0.50333 0.55582 0.3965 0.0
C801 C 0.50699 0.5349 0.44316 0.0
C802 C 0.48834 0.53515 0.50577 0.0
C803 C 0.49631 0.51004 0.54628 0.0
C804 C 0.51654 0.51692 0.61423 0.0
C805 C 0.45954 0.49385 0.55887 0.0
C806 C 0.52254 0.4956 0.49684 0.0
C807 C 0.52795 0.51006 0.43718 0.0
C808 C 0.55275 0.5014 0.38564 0.0
C809 C 0.57486 0.47855 0.39797 0.0
C810 C 0.57193 0.46486 0.46121 0.0
C811 C 0.54395 0.47264 0.50935 0.0
H812 H 0.13849 0.18461 0.71466 0.0
H813 H 0.14371 0.10778 0.81764 0.0
H814 H 0.15027 0.08522 0.70555 0.0
H815 H 0.08261 0.16346 0.57513 0.0
H816 H 0.10653 0.18398 0.51232 0.0
H817 H 0.10539 0.19427 0.60092 0.0
H818 H 0.1793 0.19722 0.60163 0.0
H819 H 0.18065 0.18677 0.51294 0.0
H820 H 0.20705 0.16844 0.57663 0.0
H821 H 0.15103 0.07067 0.58277 0.0
H822 H 0.14426 0.06498 0.45744 0.0
H823 H 0.1404 0.1511 0.43274 0.0
C824 C 0.14158 0.16307 0.71378 0.0
C825 C 0.14009 0.14801 0.77519 0.0
C826 C 0.14386 0.11981 0.77154 0.0
C827 C 0.14809 0.10679 0.70802 0.0
C828 C 0.14888 0.12223 0.64853 0.0
C829 C 0.1458 0.14975 0.65078 0.0
C830 C 0.14518 0.16149 0.579 0.0
C831 C 0.1077 0.17668 0.56611 0.0
C832 C 0.18013 0.17955 0.56685 0.0
C833 C 0.14745 0.1362 0.53595 0.0
C834 C 0.14997 0.11381 0.57726 0.0
C835 C 0.14969 0.08804 0.5499 0.0
C836 C 0.14583 0.08502 0.4787 0.0
C837 C 0.14248 0.10759 0.43541 0.0
C838 C 0.1441 0.13353 0.46439 0.0
H839 H 0.39639 0.95461 0.50142 0.0
H840 H 0.392 0.87723 0.39903 0.0
H841 H 0.39717 0.85489 0.51086 0.0
H842 H 0.46544 0.93567 0.63214 0.0
H843 H 0.443 0.95538 0.69854 0.0
H844 H 0.43977 0.96564 0.61011 0.0
H845 H 0.3659 0.96615 0.61893 0.0
H846 H 0.36896 0.95614 0.70744 0.0
H847 H 0.34111 0.93658 0.64775 0.0
H848 H 0.4001 0.84074 0.63336 0.0
H849 H 0.39858 0.8357 0.75928 0.0
H850 H 0.4035 0.92193 0.78359 0.0
C851 C 0.39665 0.93295 0.50234 0.0
C852 C 0.39305 0.91781 0.441 0.0
C853 C 0.39355 0.88947 0.44488 0.0
C854 C 0.39702 0.87652 0.50831 0.0
C855 C 0.40036 0.89208 0.56752 0.0
C856 C 0.4002 0.91967 0.56523 0.0
C857 C 0.40309 0.93166 0.63681 0.0
C858 C 0.44003 0.94806 0.64485 0.0
C859 C 0.36765 0.94862 0.65371 0.0
C860 C 0.4043 0.90645 0.67981 0.0
C861 C 0.40293 0.88387 0.63858 0.0
C862 C 0.40161 0.85824 0.66613 0.0
C863 C 0.40078 0.85559 0.73767 0.0
C864 C 0.40149 0.87839 0.78107 0.0
C865 C 0.40398 0.90415 0.75167 0.0
H866 H 0.12105 0.39419 0.09908 0.0
H867 H 0.14352 0.47867 0.06878 0.0
H868 H 0.14647 0.47141 0.94339 0.0
H869 H 0.18027 0.36887 0.95476 0.0
H870 H 0.14625 0.34313 0.9327 0.0
H871 H 0.15049 0.35431 0.02047 0.0
H872 H 0.07815 0.36501 0.02288 0.0
H873 H 0.07372 0.3541 0.93505 0.0
H874 H 0.05852 0.38724 0.95942 0.0
H875 H 0.14357 0.4557 0.82158 0.0
H876 H 0.13397 0.43277 0.71103 0.0
H877 H 0.10931 0.35875 0.81883 0.0
C878 C 0.12768 0.41096 0.06602 0.0
C879 C 0.1327 0.43694 0.0935 0.0
C880 C 0.13993 0.4586 0.04862 0.0
C881 C 0.14171 0.45466 0.97741 0.0
C882 C 0.13582 0.42895 0.95168 0.0
C883 C 0.12897 0.40743 0.99446 0.0
C884 C 0.12069 0.38231 0.95304 0.0
C885 C 0.15125 0.36089 0.96602 0.0
C886 C 0.08038 0.37154 0.96853 0.0
C887 C 0.12342 0.3932 0.88054 0.0
C888 C 0.13257 0.42008 0.88102 0.0
C889 C 0.13617 0.43467 0.82053 0.0
C890 C 0.13006 0.42149 0.75779 0.0
C891 C 0.11977 0.39403 0.75577 0.0
C892 C 0.11695 0.37975 0.81831 0.0
H893 H 0.39803 0.62374 0.72982 0.0
H894 H 0.35706 0.70534 0.74513 0.0
H895 H 0.35735 0.70213 0.87172 0.0
H896 H 0.34047 0.59844 0.86166 0.0
H897 H 0.37531 0.5753 0.89444 0.0
H898 H 0.37668 0.58492 0.8055 0.0
H899 H 0.44683 0.60072 0.81894 0.0
H900 H 0.44586 0.59083 0.90783 0.0
H901 H 0.45875 0.6246 0.88516 0.0
H902 H 0.35879 0.68928 0.99608 0.0
H903 H 0.36093 0.66795 0.10908 0.0
H904 H 0.39711 0.59351 0.01235 0.0
C905 C 0.39028 0.64116 0.75998 0.0
C906 C 0.37818 0.66497 0.728 0.0
C907 C 0.36678 0.68703 0.76893 0.0
C908 C 0.36687 0.6854 0.84074 0.0
C909 C 0.37808 0.66145 0.87082 0.0
C910 C 0.38964 0.63973 0.83182 0.0
C911 C 0.39753 0.61572 0.87676 0.0
C912 C 0.3709 0.59222 0.85849 0.0
C913 C 0.43976 0.60749 0.87188 0.0
C914 C 0.38812 0.62725 0.94684 0.0
C915 C 0.37734 0.65371 0.94238 0.0
C916 C 0.36707 0.6685 1.00027 0.0
C917 C 0.36794 0.65595 0.0646 0.0
C918 C 0.3785 0.62863 0.07062 0.0
C919 C 0.38879 0.61434 0.01035 0.0
H920 H 0.88998 0.86919 0.29469 0.0
H921 H 0.8621 0.94275 0.18827 0.0
H922 H 0.848 0.96443 0.29965 0.0
H923 H 0.81803 0.87401 0.42729 0.0
H924 H 0.84831 0.86103 0.49404 0.0
H925 H 0.85581 0.85094 0.4061 0.0
H926 H 0.92619 0.8668 0.41253 0.0
H927 H 0.91903 0.87663 0.50068 0.0
H928 H 0.93659 0.90061 0.43924 0.0
H929 H 0.83607 0.97797 0.4218 0.0
H930 H 0.83327 0.98434 0.5469 0.0
H931 H 0.87038 0.90241 0.577 0.0
C932 C 0.88092 0.88989 0.29477 0.0
C933 C 0.87742 0.90428 0.23238 0.0
C934 C 0.86569 0.93137 0.23501 0.0
C935 C 0.8572 0.94378 0.29815 0.0
C936 C 0.8607 0.92893 0.35842 0.0
C937 C 0.87272 0.90267 0.35744 0.0
C938 C 0.87548 0.89156 0.42995 0.0
C939 C 0.84775 0.86798 0.43991 0.0
C940 C 0.91677 0.88343 0.44657 0.0
C941 C 0.86317 0.91571 0.47207 0.0
C942 C 0.85442 0.93691 0.42941 0.0
C943 C 0.84294 0.96153 0.45558 0.0
C944 C 0.84142 0.96491 0.52698 0.0
C945 C 0.85151 0.94391 0.57234 0.0
C946 C 0.86183 0.91874 0.54415 0.0
H947 H 0.62337 0.09407 0.48284 0.0
H948 H 0.64122 0.17081 0.58454 0.0
H949 H 0.64064 0.19301 0.47267 0.0
H950 H 0.68086 0.10634 0.33643 0.0
H951 H 0.64921 0.08943 0.27758 0.0
H952 H 0.65081 0.07942 0.36621 0.0
H953 H 0.57776 0.08688 0.37648 0.0
H954 H 0.576 0.09706 0.28788 0.0
H955 H 0.55792 0.11893 0.35415 0.0
H956 H 0.64121 0.20691 0.34893 0.0
H957 H 0.64158 0.21127 0.2226 0.0
H958 H 0.6196 0.12616 0.20208 0.0
C959 C 0.62705 0.11557 0.48222 0.0
C960 C 0.6331 0.13032 0.5436 0.0
C961 C 0.63762 0.15853 0.53928 0.0
C962 C 0.6369 0.17154 0.47556 0.0
C963 C 0.63108 0.15626 0.41655 0.0
C964 C 0.62599 0.12892 0.41934 0.0
C965 C 0.62045 0.11705 0.3483 0.0
C966 C 0.65223 0.09688 0.33114 0.0
C967 C 0.58066 0.10423 0.34132 0.0
C968 C 0.62381 0.142 0.30491 0.0
C969 C 0.62993 0.16441 0.34533 0.0
C970 C 0.63596 0.18957 0.31683 0.0
C971 C 0.63617 0.19184 0.24512 0.0
C972 C 0.63002 0.16915 0.20274 0.0
C973 C 0.62334 0.14397 0.23321 0.0
H974 H 0.81612 0.60545 1.0019 0.0
H975 H 0.90511 0.65689 0.92126 0.0
H976 H 0.91712 0.67467 0.0384 0.0
H977 H 0.78049 0.65411 0.13268 0.0
H978 H 0.77014 0.62781 0.19304 0.0
H979 H 0.76684 0.62137 0.10213 0.0
H980 H 0.81382 0.58174 0.11548 0.0
H981 H 0.81796 0.58839 0.20602 0.0
H982 H 0.86018 0.5876 0.1529 0.0
H983 H 0.92526 0.68147 0.16733 0.0
H984 H 0.9214 0.68263 0.29475 0.0
H985 H 0.82375 0.62929 0.28795 0.0
C986 C 0.8373 0.62106 0.00884 0.0
C987 C 0.85946 0.6301 0.95308 0.0
C988 C 0.88742 0.65018 0.96356 0.0
C989 C 0.89461 0.66016 0.02985 0.0
C990 C 0.87302 0.65018 0.0844 0.0
C991 C 0.84418 0.63162 0.07416 0.0
C992 C 0.8254 0.62376 0.14112 0.0
C993 C 0.78322 0.63228 0.1423 0.0
C994 C 0.82962 0.59359 0.15463 0.0
C995 C 0.84891 0.64011 0.19098 0.0
C996 C 0.87651 0.65506 0.1576 0.0
C997 C 0.90328 0.67027 0.19386 0.0
C998 C 0.90115 0.67063 0.26598 0.0
C999 C 0.87219 0.65615 0.30047 0.0
C1000 C 0.84589 0.64075 0.26243 0.0
H1001 H 0.6147 0.41632 0.26401 0.0
H1002 H 0.64586 0.3328 0.23836 0.0
H1003 H 0.64394 0.3381 0.11272 0.0
H1004 H 0.54953 0.41964 0.11869 0.0
H1005 H 0.56394 0.45304 0.09537 0.0
H1006 H 0.56642 0.44255 0.18366 0.0
H1007 H 0.63809 0.45539 0.187 0.0
H1008 H 0.63596 0.46578 0.09863 0.0
H1009 H 0.67037 0.44107 0.12471 0.0
H1010 H 0.63917 0.35213 0.99062 0.0
H1011 H 0.63237 0.37411 0.87887 0.0
H1012 H 0.60591 0.44909 0.9822 0.0
C1013 C 0.62042 0.39901 0.23209 0.0
C1014 C 0.63007 0.37403 0.26123 0.0
C1015 C 0.63843 0.35213 0.21732 0.0
C1016 C 0.63732 0.35489 0.14585 0.0
C1017 C 0.62798 0.37975 0.11884 0.0
C1018 C 0.61966 0.40145 0.16039 0.0
C1019 C 0.61152 0.42612 0.11781 0.0
C1020 C 0.57041 0.43591 0.12959 0.0
C1021 C 0.64074 0.4484 0.13295 0.0
C1022 C 0.61669 0.41485 0.04595 0.0
C1023 C 0.62608 0.38805 0.0479 0.0
C1024 C 0.63218 0.37318 0.98833 0.0
C1025 C 0.62868 0.38603 0.92486 0.0
C1026 C 0.61949 0.41363 0.92125 0.0
C1027 C 0.61318 0.42805 0.98296 0.0
loop_
_geom_bond_atom_site_label_1
_geom_bond_atom_site_label_2
_geom_bond_distance
_geom_bond_site_symmetry_2
_ccdc_geom_bond_type
Zn0 N4 2.020 . S
Zn0 O8 2.019 . S
Zn0 N10 2.119 . S
Zn0 O18 1.975 . S
C1 N2 1.334 . S
C1 N5 1.336 . S
N2 C1 1.334 . S
N2 C3 1.334 . S
C3 N2 1.334 . S
C3 N4 1.336 . S
N4 Zn0 2.020 . S
N4 C3 1.336 . S
N4 N5 1.354 . S
N5 C1 1.336 . S
N5 N4 1.354 . S
N5 Zn9 2.020 . S
C6 O7 1.244 . S
C6 O30 1.257 . S
O7 C6 1.244 . S
O8 Zn0 2.019 . S
O8 C28 1.257 . S
Zn9 N5 2.020 . S
Zn9 O16 1.975 . S
Zn9 N25 2.119 1_554 S
Zn9 O30 2.019 . S
N10 Zn0 2.119 . S
N10 C12 1.334 . S
N10 C13 1.328 . S
C11 C12 1.391 . S
C11 N14 1.329 . S
C11 H32 0.930 . S
C12 N10 1.334 . S
C12 C11 1.391 . S
C12 H19 0.930 . S
C13 N10 1.328 . S
C13 C15 1.392 . S
C13 H20 0.930 . S
N14 C11 1.329 . S
N14 C15 1.331 . S
C15 C13 1.392 . S
C15 N14 1.331 . S
O16 Zn9 1.975 . S
O16 C17 1.252 . S
C17 O16 1.252 . S
C17 O18 1.252 . S
O18 Zn0 1.975 . S
O18 C17 1.252 . S
H19 C12 0.930 . S
H20 C13 0.930 . S
C21 C22 1.392 . S
C21 N25 1.328 . S
C21 H27 0.930 . S
C22 C21 1.392 . S
C22 N26 1.331 . S
C23 C24 1.391 . S
C23 N26 1.329 . S
C23 H33 0.930 . S
C24 C23 1.391 . S
C24 N25 1.334 . S
C24 H31 0.930 . S
N25 Zn9 2.119 1_556 S
N25 C21 1.328 . S
N25 C24 1.334 . S
N26 C22 1.331 . S
N26 C23 1.329 . S
H27 C21 0.930 . S
C28 O8 1.257 . S
C28 O29 1.244 . S
O29 C28 1.244 . S
O30 C6 1.257 . S
O30 Zn9 2.019 . S
H31 C24 0.930 . S
H32 C11 0.930 . S
H33 C23 0.930 . S
Zn34 N38 2.020 . S
Zn34 O42 2.019 . S
Zn34 N44 2.119 1_554 S
Zn34 O52 1.975 . S
C35 N36 1.334 . S
C35 N39 1.336 . S
N36 C35 1.334 . S
N36 C37 1.334 . S
C37 N36 1.334 . S
C37 N38 1.336 . S
N38 Zn34 2.020 . S
N38 C37 1.336 . S
N38 N39 1.354 . S
N39 C35 1.336 . S
N39 N38 1.354 . S
N39 Zn43 2.020 . S
C40 O41 1.244 . S
C40 O64 1.257 . S
O41 C40 1.244 . S
O42 Zn34 2.019 . S
O42 C62 1.257 . S
Zn43 N39 2.020 . S
Zn43 O50 1.975 . S
Zn43 N59 2.119 . S
Zn43 O64 2.019 . S
N44 Zn34 2.119 1_556 S
N44 C46 1.334 . S
N44 C47 1.328 . S
C45 C46 1.391 . S
C45 N48 1.329 . S
C45 H66 0.930 . S
C46 N44 1.334 . S
C46 C45 1.391 . S
C46 H53 0.930 . S
C47 N44 1.328 . S
C47 C49 1.392 . S
C47 H54 0.930 . S
N48 C45 1.329 . S
N48 C49 1.331 . S
C49 C47 1.392 . S
C49 N48 1.331 . S
O50 Zn43 1.975 . S
O50 C51 1.252 . S
C51 O50 1.252 . S
C51 O52 1.252 . S
O52 Zn34 1.975 . S
O52 C51 1.252 . S
H53 C46 0.930 . S
H54 C47 0.930 . S
C55 C56 1.392 . S
C55 N59 1.328 . S
C55 H61 0.930 . S
C56 C55 1.392 . S
C56 N60 1.331 . S
C57 C58 1.391 . S
C57 N60 1.329 . S
C57 H67 0.930 . S
C58 C57 1.391 . S
C58 N59 1.334 . S
C58 H65 0.930 . S
N59 Zn43 2.119 . S
N59 C55 1.328 . S
N59 C58 1.334 . S
N60 C56 1.331 . S
N60 C57 1.329 . S
H61 C55 0.930 . S
C62 O42 1.257 . S
C62 O63 1.244 . S
O63 C62 1.244 . S
O64 C40 1.257 . S
O64 Zn43 2.019 . S
H65 C58 0.930 . S
H66 C45 0.930 . S
H67 C57 0.930 . S
Zn68 N72 2.020 . S
Zn68 O76 2.019 . S
Zn68 N78 2.119 . S
Zn68 O86 1.975 . S
C69 N70 1.334 . S
C69 N73 1.336 . S
N70 C69 1.334 . S
N70 C71 1.334 . S
C71 N70 1.334 . S
C71 N72 1.336 . S
N72 Zn68 2.020 . S
N72 C71 1.336 . S
N72 N73 1.354 . S
N73 C69 1.336 . S
N73 N72 1.354 . S
N73 Zn77 2.020 . S
C74 O75 1.244 . S
C74 O98 1.257 . S
O75 C74 1.244 . S
O76 Zn68 2.019 . S
O76 C96 1.257 . S
Zn77 N73 2.020 . S
Zn77 O84 1.975 . S
Zn77 N93 2.119 . S
Zn77 O98 2.019 . S
N78 Zn68 2.119 . S
N78 C80 1.334 . S
N78 C81 1.328 . S
C79 C80 1.391 . S
C79 N82 1.329 . S
C79 H100 0.930 . S
C80 N78 1.334 . S
C80 C79 1.391 . S
C80 H87 0.930 . S
C81 N78 1.328 . S
C81 C83 1.392 . S
C81 H88 0.930 . S
N82 C79 1.329 . S
N82 C83 1.331 . S
C83 C81 1.392 . S
C83 N82 1.331 . S
O84 Zn77 1.975 . S
O84 C85 1.252 . S
C85 O84 1.252 . S
C85 O86 1.252 . S
O86 Zn68 1.975 . S
O86 C85 1.252 . S
H87 C80 0.930 . S
H88 C81 0.930 . S
C89 C90 1.392 . S
C89 N93 1.328 . S
C89 H95 0.930 . S
C90 C89 1.392 . S
C90 N94 1.331 . S
C91 C92 1.391 . S
C91 N94 1.329 . S
C91 H101 0.930 . S
C92 C91 1.391 . S
C92 N93 1.334 . S
C92 H99 0.930 . S
N93 Zn77 2.119 . S
N93 C89 1.328 . S
N93 C92 1.334 . S
N94 C90 1.331 . S
N94 C91 1.329 . S
H95 C89 0.930 . S
C96 O76 1.257 . S
C96 O97 1.244 . S
O97 C96 1.244 . S
O98 C74 1.257 . S
O98 Zn77 2.019 . S
H99 C92 0.930 . S
H100 C79 0.930 . S
H101 C91 0.930 . S
Zn102 N106 2.020 . S
Zn102 O110 2.019 . S
Zn102 N112 2.119 . S
Zn102 O120 1.975 . S
C103 N104 1.334 . S
C103 N107 1.336 . S
N104 C103 1.334 . S
N104 C105 1.334 . S
C105 N104 1.334 . S
C105 N106 1.336 . S
N106 Zn102 2.020 . S
N106 C105 1.336 . S
N106 N107 1.354 . S
N107 C103 1.336 . S
N107 N106 1.354 . S
N107 Zn111 2.020 . S
C108 O109 1.244 . S
C108 O132 1.257 . S
O109 C108 1.244 . S
O110 Zn102 2.019 . S
O110 C130 1.257 . S
Zn111 N107 2.020 . S
Zn111 O118 1.975 . S
Zn111 N127 2.119 . S
Zn111 O132 2.019 . S
N112 Zn102 2.119 . S
N112 C114 1.334 . S
N112 C115 1.328 . S
C113 C114 1.391 . S
C113 N116 1.329 . S
C113 H134 0.930 . S
C114 N112 1.334 . S
C114 C113 1.391 . S
C114 H121 0.930 . S
C115 N112 1.328 . S
C115 C117 1.392 . S
C115 H122 0.930 . S
N116 C113 1.329 . S
N116 C117 1.331 . S
C117 C115 1.392 . S
C117 N116 1.331 . S
O118 Zn111 1.975 . S
O118 C119 1.252 . S
C119 O118 1.252 . S
C119 O120 1.252 . S
O120 Zn102 1.975 . S
O120 C119 1.252 . S
H121 C114 0.930 . S
H122 C115 0.930 . S
C123 C124 1.392 . S
C123 N127 1.328 . S
C123 H129 0.930 . S
C124 C123 1.392 . S
C124 N128 1.331 . S
C125 C126 1.391 . S
C125 N128 1.329 . S
C125 H135 0.930 . S
C126 C125 1.391 . S
C126 N127 1.334 . S
C126 H133 0.930 . S
N127 Zn111 2.119 . S
N127 C123 1.328 . S
N127 C126 1.334 . S
N128 C124 1.331 . S
N128 C125 1.329 . S
H129 C123 0.930 . S
C130 O110 1.257 . S
C130 O131 1.244 . S
O131 C130 1.244 . S
O132 C108 1.257 . S
O132 Zn111 2.019 . S
H133 C126 0.930 . S
H134 C113 0.930 . S
H135 C125 0.930 . S
Zn136 N140 2.020 . S
Zn136 O144 2.019 . S
Zn136 N146 2.119 . S
Zn136 O154 1.975 . S
C137 N138 1.334 . S
C137 N141 1.336 . S
N138 C137 1.334 . S
N138 C139 1.334 . S
C139 N138 1.334 . S
C139 N140 1.336 . S
N140 Zn136 2.020 . S
N140 C139 1.336 . S
N140 N141 1.354 . S
N141 C137 1.336 . S
N141 N140 1.354 . S
N141 Zn145 2.020 . S
C142 O143 1.244 . S
C142 O166 1.257 . S
O143 C142 1.244 . S
O144 Zn136 2.019 . S
O144 C164 1.257 . S
Zn145 N141 2.020 . S
Zn145 O152 1.975 . S
Zn145 N161 2.119 1_556 S
Zn145 O166 2.019 . S
N146 Zn136 2.119 . S
N146 C148 1.334 . S
N146 C149 1.328 . S
C147 C148 1.391 . S
C147 N150 1.329 . S
C147 H168 0.930 . S
C148 N146 1.334 . S
C148 C147 1.391 . S
C148 H155 0.930 . S
C149 N146 1.328 . S
C149 C151 1.392 . S
C149 H156 0.930 . S
N150 C147 1.329 . S
N150 C151 1.331 . S
C151 C149 1.392 . S
C151 N150 1.331 . S
O152 Zn145 1.975 . S
O152 C153 1.252 . S
C153 O152 1.252 . S
C153 O154 1.252 . S
O154 Zn136 1.975 . S
O154 C153 1.252 . S
H155 C148 0.930 . S
H156 C149 0.930 . S
C157 C158 1.392 . S
C157 N161 1.328 . S
C157 H163 0.930 . S
C158 C157 1.392 . S
C158 N162 1.331 . S
C159 C160 1.391 . S
C159 N162 1.329 . S
C159 H169 0.930 . S
C160 C159 1.391 . S
C160 N161 1.334 . S
C160 H167 0.930 . S
N161 Zn145 2.119 1_554 S
N161 C157 1.328 . S
N161 C160 1.334 . S
N162 C158 1.331 . S
N162 C159 1.329 . S
H163 C157 0.930 . S
C164 O144 1.257 . S
C164 O165 1.244 . S
O165 C164 1.244 . S
O166 C142 1.257 . S
O166 Zn145 2.019 . S
H167 C160 0.930 . S
H168 C147 0.930 . S
H169 C159 0.930 . S
Zn170 N174 2.020 . S
Zn170 O178 2.019 . S
Zn170 N180 2.119 1_556 S
Zn170 O188 1.975 . S
C171 N172 1.334 . S
C171 N175 1.336 . S
N172 C171 1.334 . S
N172 C173 1.334 . S
C173 N172 1.334 . S
C173 N174 1.336 . S
N174 Zn170 2.020 . S
N174 C173 1.336 . S
N174 N175 1.354 . S
N175 C171 1.336 . S
N175 N174 1.354 . S
N175 Zn179 2.020 . S
C176 O177 1.244 . S
C176 O200 1.257 . S
O177 C176 1.244 . S
O178 Zn170 2.019 . S
O178 C198 1.257 . S
Zn179 N175 2.020 . S
Zn179 O186 1.975 . S
Zn179 N195 2.119 . S
Zn179 O200 2.019 . S
N180 Zn170 2.119 1_554 S
N180 C182 1.334 . S
N180 C183 1.328 . S
C181 C182 1.391 . S
C181 N184 1.329 . S
C181 H202 0.930 . S
C182 N180 1.334 . S
C182 C181 1.391 . S
C182 H189 0.930 . S
C183 N180 1.328 . S
C183 C185 1.392 . S
C183 H190 0.930 . S
N184 C181 1.329 . S
N184 C185 1.331 . S
C185 C183 1.392 . S
C185 N184 1.331 . S
O186 Zn179 1.975 . S
O186 C187 1.252 . S
C187 O186 1.252 . S
C187 O188 1.252 . S
O188 Zn170 1.975 . S
O188 C187 1.252 . S
H189 C182 0.930 . S
H190 C183 0.930 . S
C191 C192 1.392 . S
C191 N195 1.328 . S
C191 H197 0.930 . S
C192 C191 1.392 . S
C192 N196 1.331 . S
C193 C194 1.391 . S
C193 N196 1.329 . S
C193 H203 0.930 . S
C194 C193 1.391 . S
C194 N195 1.334 . S
C194 H201 0.930 . S
N195 Zn179 2.119 . S
N195 C191 1.328 . S
N195 C194 1.334 . S
N196 C192 1.331 . S
N196 C193 1.329 . S
H197 C191 0.930 . S
C198 O178 1.257 . S
C198 O199 1.244 . S
O199 C198 1.244 . S
O200 C176 1.257 . S
O200 Zn179 2.019 . S
H201 C194 0.930 . S
H202 C181 0.930 . S
H203 C193 0.930 . S
Zn204 N208 2.020 . S
Zn204 O212 2.019 . S
Zn204 N214 2.119 . S
Zn204 O222 1.975 . S
C205 N206 1.334 . S
C205 N209 1.336 . S
N206 C205 1.334 . S
N206 C207 1.334 . S
C207 N206 1.334 . S
C207 N208 1.336 . S
N208 Zn204 2.020 . S
N208 C207 1.336 . S
N208 N209 1.354 . S
N209 C205 1.336 . S
N209 N208 1.354 . S
N209 Zn213 2.020 . S
C210 O211 1.244 . S
C210 O234 1.257 . S
O211 C210 1.244 . S
O212 Zn204 2.019 . S
O212 C232 1.257 . S
Zn213 N209 2.020 . S
Zn213 O220 1.975 . S
Zn213 N229 2.119 . S
Zn213 O234 2.019 . S
N214 Zn204 2.119 . S
N214 C216 1.334 . S
N214 C217 1.328 . S
C215 C216 1.391 . S
C215 N218 1.329 . S
C215 H236 0.930 . S
C216 N214 1.334 . S
C216 C215 1.391 . S
C216 H223 0.930 . S
C217 N214 1.328 . S
C217 C219 1.392 . S
C217 H224 0.930 . S
N218 C215 1.329 . S
N218 C219 1.331 . S
C219 C217 1.392 . S
C219 N218 1.331 . S
O220 Zn213 1.975 . S
O220 C221 1.252 . S
C221 O220 1.252 . S
C221 O222 1.252 . S
O222 Zn204 1.975 . S
O222 C221 1.252 . S
H223 C216 0.930 . S
H224 C217 0.930 . S
C225 C226 1.392 . S
C225 N229 1.328 . S
C225 H231 0.930 . S
C226 C225 1.392 . S
C226 N230 1.331 . S
C227 C228 1.391 . S
C227 N230 1.329 . S
C227 H237 0.930 . S
C228 C227 1.391 . S
C228 N229 1.334 . S
C228 H235 0.930 . S
N229 Zn213 2.119 . S
N229 C225 1.328 . S
N229 C228 1.334 . S
N230 C226 1.331 . S
N230 C227 1.329 . S
H231 C225 0.930 . S
C232 O212 1.257 . S
C232 O233 1.244 . S
O233 C232 1.244 . S
O234 C210 1.257 . S
O234 Zn213 2.019 . S
H235 C228 0.930 . S
H236 C215 0.930 . S
H237 C227 0.930 . S
Zn238 N242 2.020 . S
Zn238 O246 2.019 . S
Zn238 N248 2.119 . S
Zn238 O256 1.975 . S
C239 N240 1.334 . S
C239 N243 1.336 . S
N240 C239 1.334 . S
N240 C241 1.334 . S
C241 N240 1.334 . S
C241 N242 1.336 . S
N242 Zn238 2.020 . S
N242 C241 1.336 . S
N242 N243 1.354 . S
N243 C239 1.336 . S
N243 N242 1.354 . S
N243 Zn247 2.020 . S
C244 O245 1.244 . S
C244 O268 1.257 . S
O245 C244 1.244 . S
O246 Zn238 2.019 . S
O246 C266 1.257 . S
Zn247 N243 2.020 . S
Zn247 O254 1.975 . S
Zn247 N263 2.119 . S
Zn247 O268 2.019 . S
N248 Zn238 2.119 . S
N248 C250 1.334 . S
N248 C251 1.328 . S
C249 C250 1.391 . S
C249 N252 1.329 . S
C249 H270 0.930 . S
C250 N248 1.334 . S
C250 C249 1.391 . S
C250 H257 0.930 . S
C251 N248 1.328 . S
C251 C253 1.392 . S
C251 H258 0.930 . S
N252 C249 1.329 . S
N252 C253 1.331 . S
C253 C251 1.392 . S
C253 N252 1.331 . S
O254 Zn247 1.975 . S
O254 C255 1.252 . S
C255 O254 1.252 . S
C255 O256 1.252 . S
O256 Zn238 1.975 . S
O256 C255 1.252 . S
H257 C250 0.930 . S
H258 C251 0.930 . S
C259 C260 1.392 . S
C259 N263 1.328 . S
C259 H265 0.930 . S
C260 C259 1.392 . S
C260 N264 1.331 . S
C261 C262 1.391 . S
C261 N264 1.329 . S
C261 H271 0.930 . S
C262 C261 1.391 . S
C262 N263 1.334 . S
C262 H269 0.930 . S
N263 Zn247 2.119 . S
N263 C259 1.328 . S
N263 C262 1.334 . S
N264 C260 1.331 . S
N264 C261 1.329 . S
H265 C259 0.930 . S
C266 O246 1.257 . S
C266 O267 1.244 . S
O267 C266 1.244 . S
O268 C244 1.257 . S
O268 Zn247 2.019 . S
H269 C262 0.930 . S
H270 C249 0.930 . S
H271 C261 0.930 . S
H272 C284 0.930 . S
H273 C286 0.930 . S
H274 C287 0.930 . S
H275 C291 0.959 . S
H276 C291 0.959 . S
H277 C291 0.961 . S
H278 C292 0.960 . S
H279 C292 0.961 . S
H280 C292 0.959 . S
H281 C295 0.929 . S
H282 C296 0.931 . S
H283 C298 0.930 . S
C284 H272 0.930 . S
C284 C285 1.399 . S
C284 C289 1.399 . S
C285 C284 1.399 . S
C285 C286 1.376 1_556 S
C286 H273 0.930 . S
C286 C285 1.376 1_554 S
C286 C287 1.388 . S
C287 H274 0.930 . S
C287 C286 1.388 . S
C287 C288 1.390 . S
C288 C287 1.390 . S
C288 C289 1.394 1_554 S
C288 C294 1.465 . S
C289 C284 1.399 . S
C289 C288 1.394 1_556 S
C289 C290 1.516 . S
C290 C289 1.516 . S
C290 C291 1.502 . S
C290 C292 1.561 . S
C290 C293 1.526 1_556 S
C291 H275 0.959 . S
C291 H276 0.959 . S
C291 H277 0.961 . S
C291 C290 1.502 . S
C292 H278 0.960 . S
C292 H279 0.961 . S
C292 H280 0.959 . S
C292 C290 1.561 . S
C293 C290 1.526 1_554 S
C293 C294 1.396 . S
C293 C298 1.390 . S
C294 C288 1.465 . S
C294 C293 1.396 . S
C294 C295 1.399 . S
C295 H281 0.929 . S
C295 C294 1.399 . S
C295 C296 1.385 . S
C296 H282 0.931 . S
C296 C295 1.385 . S
C296 C297 1.389 . S
C297 C296 1.389 . S
C297 C298 1.387 . S
C298 H283 0.930 . S
C298 C293 1.390 . S
C298 C297 1.387 . S
H299 C311 0.930 . S
H300 C313 0.930 . S
H301 C314 0.930 . S
H302 C318 0.959 . S
H303 C318 0.959 . S
H304 C318 0.961 1_554 S
H305 C319 0.960 . S
H306 C319 0.961 . S
H307 C319 0.959 . S
H308 C322 0.929 . S
H309 C323 0.931 . S
H310 C325 0.930 . S
C311 H299 0.930 . S
C311 C312 1.399 . S
C311 C316 1.399 . S
C312 C311 1.399 . S
C312 C313 1.376 . S
C313 H300 0.930 . S
C313 C312 1.376 . S
C313 C314 1.388 . S
C314 H301 0.930 . S
C314 C313 1.388 . S
C314 C315 1.390 . S
C315 C314 1.390 . S
C315 C316 1.394 . S
C315 C321 1.465 . S
C316 C311 1.399 . S
C316 C315 1.394 . S
C316 C317 1.516 . S
C317 C316 1.516 . S
C317 C318 1.502 1_554 S
C317 C319 1.561 . S
C317 C320 1.526 . S
C318 H302 0.959 . S
C318 H303 0.959 . S
C318 H304 0.961 1_556 S
C318 C317 1.502 1_556 S
C319 H305 0.960 . S
C319 H306 0.961 . S
C319 H307 0.959 . S
C319 C317 1.561 . S
C320 C317 1.526 . S
C320 C321 1.396 . S
C320 C325 1.390 1_554 S
C321 C315 1.465 . S
C321 C320 1.396 . S
C321 C322 1.399 . S
C322 H308 0.929 . S
C322 C321 1.399 . S
C322 C323 1.385 1_554 S
C323 H309 0.931 . S
C323 C322 1.385 1_556 S
C323 C324 1.389 . S
C324 C323 1.389 . S
C324 C325 1.387 . S
C325 H310 0.930 . S
C325 C320 1.390 1_556 S
C325 C324 1.387 . S
H326 C338 0.930 . S
H327 C340 0.930 . S
H328 C341 0.930 . S
H329 C345 0.959 . S
H330 C345 0.959 . S
H331 C345 0.961 . S
H332 C346 0.960 . S
H333 C346 0.961 . S
H334 C346 0.959 . S
H335 C349 0.929 . S
H336 C350 0.931 . S
H337 C352 0.930 . S
C338 H326 0.930 . S
C338 C339 1.399 . S
C338 C343 1.399 . S
C339 C338 1.399 . S
C339 C340 1.376 . S
C340 H327 0.930 . S
C340 C339 1.376 . S
C340 C341 1.388 . S
C341 H328 0.930 . S
C341 C340 1.388 . S
C341 C342 1.390 . S
C342 C341 1.390 . S
C342 C343 1.394 . S
C342 C348 1.465 . S
C343 C338 1.399 . S
C343 C342 1.394 . S
C343 C344 1.516 . S
C344 C343 1.516 . S
C344 C345 1.502 . S
C344 C346 1.561 . S
C344 C347 1.526 . S
C345 H329 0.959 . S
C345 H330 0.959 . S
C345 H331 0.961 . S
C345 C344 1.502 . S
C346 H332 0.960 . S
C346 H333 0.961 . S
C346 H334 0.959 . S
C346 C344 1.561 . S
C347 C344 1.526 . S
C347 C348 1.396 . S
C347 C352 1.390 . S
C348 C342 1.465 . S
C348 C347 1.396 . S
C348 C349 1.399 . S
C349 H335 0.929 . S
C349 C348 1.399 . S
C349 C350 1.385 . S
C350 H336 0.931 . S
C350 C349 1.385 . S
C350 C351 1.389 . S
C351 C350 1.389 . S
C351 C352 1.387 . S
C352 H337 0.930 . S
C352 C347 1.390 . S
C352 C351 1.387 . S
H353 C365 0.930 . S
H354 C367 0.930 . S
H355 C368 0.930 . S
H356 C372 0.959 . S
H357 C372 0.959 . S
H358 C372 0.961 . S
H359 C373 0.960 . S
H360 C373 0.961 . S
H361 C373 0.959 . S
H362 C376 0.929 . S
H363 C377 0.931 . S
H364 C379 0.930 . S
C365 H353 0.930 . S
C365 C366 1.399 . S
C365 C370 1.399 . S
C366 C365 1.399 . S
C366 C367 1.376 . S
C367 H354 0.930 . S
C367 C366 1.376 . S
C367 C368 1.388 . S
C368 H355 0.930 . S
C368 C367 1.388 . S
C368 C369 1.390 . S
C369 C368 1.390 . S
C369 C370 1.394 . S
C369 C375 1.465 . S
C370 C365 1.399 . S
C370 C369 1.394 . S
C370 C371 1.516 . S
C371 C370 1.516 . S
C371 C372 1.502 . S
C371 C373 1.561 . S
C371 C374 1.526 . S
C372 H356 0.959 . S
C372 H357 0.959 . S
C372 H358 0.961 . S
C372 C371 1.502 . S
C373 H359 0.960 . S
C373 H360 0.961 . S
C373 H361 0.959 . S
C373 C371 1.561 . S
C374 C371 1.526 . S
C374 C375 1.396 . S
C374 C379 1.390 . S
C375 C369 1.465 . S
C375 C374 1.396 . S
C375 C376 1.399 . S
C376 H362 0.929 . S
C376 C375 1.399 . S
C376 C377 1.385 . S
C377 H363 0.931 . S
C377 C376 1.385 . S
C377 C378 1.389 . S
C378 C377 1.389 . S
C378 C379 1.387 . S
C379 H364 0.930 . S
C379 C374 1.390 . S
C379 C378 1.387 . S
H380 C392 0.930 . S
H381 C394 0.930 . S
H382 C395 0.930 . S
H383 C399 0.959 . S
H384 C399 0.959 . S
H385 C399 0.961 . S
H386 C400 0.960 . S
H387 C400 0.961 . S
H388 C400 0.959 . S
H389 C403 0.929 . S
H390 C404 0.931 . S
H391 C406 0.930 . S
C392 H380 0.930 . S
C392 C393 1.399 . S
C392 C397 1.399 . S
C393 C392 1.399 . S
C393 C394 1.376 . S
C394 H381 0.930 . S
C394 C393 1.376 . S
C394 C395 1.388 1_556 S
C395 H382 0.930 . S
C395 C394 1.388 1_554 S
C395 C396 1.390 1_554 S
C396 C395 1.390 1_556 S
C396 C397 1.394 . S
C396 C402 1.465 1_556 S
C397 C392 1.399 . S
C397 C396 1.394 . S
C397 C398 1.516 . S
C398 C397 1.516 . S
C398 C399 1.502 . S
C398 C400 1.561 . S
C398 C401 1.526 . S
C399 H383 0.959 . S
C399 H384 0.959 . S
C399 H385 0.961 . S
C399 C398 1.502 . S
C400 H386 0.960 . S
C400 H387 0.961 . S
C400 H388 0.959 . S
C400 C398 1.561 . S
C401 C398 1.526 . S
C401 C402 1.396 1_556 S
C401 C406 1.390 . S
C402 C396 1.465 1_554 S
C402 C401 1.396 1_554 S
C402 C403 1.399 . S
C403 H389 0.929 . S
C403 C402 1.399 . S
C403 C404 1.385 . S
C404 H390 0.931 . S
C404 C403 1.385 . S
C404 C405 1.389 . S
C405 C404 1.389 . S
C405 C406 1.387 1_554 S
C406 H391 0.930 . S
C406 C401 1.390 . S
C406 C405 1.387 1_556 S
H407 C419 0.930 . S
H408 C421 0.930 . S
H409 C422 0.930 . S
H410 C426 0.959 1_554 S
H411 C426 0.959 1_554 S
H412 C426 0.961 . S
H413 C427 0.960 . S
H414 C427 0.961 . S
H415 C427 0.959 . S
H416 C430 0.929 . S
H417 C431 0.931 . S
H418 C433 0.930 . S
C419 H407 0.930 . S
C419 C420 1.399 . S
C419 C424 1.399 . S
C420 C419 1.399 . S
C420 C421 1.376 . S
C421 H408 0.930 . S
C421 C420 1.376 . S
C421 C422 1.388 . S
C422 H409 0.930 . S
C422 C421 1.388 . S
C422 C423 1.390 . S
C423 C422 1.390 . S
C423 C424 1.394 . S
C423 C429 1.465 . S
C424 C419 1.399 . S
C424 C423 1.394 . S
C424 C425 1.516 . S
C425 C424 1.516 . S
C425 C426 1.502 . S
C425 C427 1.561 . S
C425 C428 1.526 . S
C426 H410 0.959 1_556 S
C426 H411 0.959 1_556 S
C426 H412 0.961 . S
C426 C425 1.502 . S
C427 H413 0.960 . S
C427 H414 0.961 . S
C427 H415 0.959 . S
C427 C425 1.561 . S
C428 C425 1.526 . S
C428 C429 1.396 . S
C428 C433 1.390 1_556 S
C429 C423 1.465 . S
C429 C428 1.396 . S
C429 C430 1.399 . S
C430 H416 0.929 . S
C430 C429 1.399 . S
C430 C431 1.385 1_556 S
C431 H417 0.931 . S
C431 C430 1.385 1_554 S
C431 C432 1.389 . S
C432 C431 1.389 . S
C432 C433 1.387 . S
C433 H418 0.930 . S
C433 C428 1.390 1_554 S
C433 C432 1.387 . S
H434 C446 0.930 . S
H435 C448 0.930 . S
H436 C449 0.930 . S
H437 C453 0.959 . S
H438 C453 0.959 . S
H439 C453 0.961 . S
H440 C454 0.960 . S
H441 C454 0.961 . S
H442 C454 0.959 . S
H443 C457 0.929 . S
H444 C458 0.931 . S
H445 C460 0.930 . S
C446 H434 0.930 . S
C446 C447 1.399 . S
C446 C451 1.399 . S
C447 C446 1.399 . S
C447 C448 1.376 . S
C448 H435 0.930 . S
C448 C447 1.376 . S
C448 C449 1.388 . S
C449 H436 0.930 . S
C449 C448 1.388 . S
C449 C450 1.390 . S
C450 C449 1.390 . S
C450 C451 1.394 . S
C450 C456 1.465 . S
C451 C446 1.399 . S
C451 C450 1.394 . S
C451 C452 1.516 . S
C452 C451 1.516 . S
C452 C453 1.502 . S
C452 C454 1.561 . S
C452 C455 1.526 . S
C453 H437 0.959 . S
C453 H438 0.959 . S
C453 H439 0.961 . S
C453 C452 1.502 . S
C454 H440 0.960 . S
C454 H441 0.961 . S
C454 H442 0.959 . S
C454 C452 1.561 . S
C455 C452 1.526 . S
C455 C456 1.396 . S
C455 C460 1.390 . S
C456 C450 1.465 . S
C456 C455 1.396 . S
C456 C457 1.399 . S
C457 H443 0.929 . S
C457 C456 1.399 . S
C457 C458 1.385 . S
C458 H444 0.931 . S
C458 C457 1.385 . S
C458 C459 1.389 . S
C459 C458 1.389 . S
C459 C460 1.387 . S
C460 H445 0.930 . S
C460 C455 1.390 . S
C460 C459 1.387 . S
H461 C473 0.930 . S
H462 C475 0.930 . S
H463 C476 0.930 . S
H464 C480 0.959 . S
H465 C480 0.959 . S
H466 C480 0.961 . S
H467 C481 0.960 . S
H468 C481 0.961 . S
H469 C481 0.959 . S
H470 C484 0.929 . S
H471 C485 0.931 . S
H472 C487 0.930 . S
C473 H461 0.930 . S
C473 C474 1.399 . S
C473 C478 1.399 . S
C474 C473 1.399 . S
C474 C475 1.376 . S
C475 H462 0.930 . S
C475 C474 1.376 . S
C475 C476 1.388 . S
C476 H463 0.930 . S
C476 C475 1.388 . S
C476 C477 1.390 . S
C477 C476 1.390 . S
C477 C478 1.394 . S
C477 C483 1.465 . S
C478 C473 1.399 . S
C478 C477 1.394 . S
C478 C479 1.516 . S
C479 C478 1.516 . S
C479 C480 1.502 . S
C479 C481 1.561 . S
C479 C482 1.526 . S
C480 H464 0.959 . S
C480 H465 0.959 . S
C480 H466 0.961 . S
C480 C479 1.502 . S
C481 H467 0.960 . S
C481 H468 0.961 . S
C481 H469 0.959 . S
C481 C479 1.561 . S
C482 C479 1.526 . S
C482 C483 1.396 . S
C482 C487 1.390 . S
C483 C477 1.465 . S
C483 C482 1.396 . S
C483 C484 1.399 . S
C484 H470 0.929 . S
C484 C483 1.399 . S
C484 C485 1.385 . S
C485 H471 0.931 . S
C485 C484 1.385 . S
C485 C486 1.389 . S
C486 C485 1.389 . S
C486 C487 1.387 . S
C487 H472 0.930 . S
C487 C482 1.390 . S
C487 C486 1.387 . S
H488 C500 0.930 . S
H489 C502 0.930 . S
H490 C503 0.930 . S
H491 C507 0.959 . S
H492 C507 0.959 . S
H493 C507 0.961 . S
H494 C508 0.960 . S
H495 C508 0.961 . S
H496 C508 0.959 . S
H497 C511 0.929 . S
H498 C512 0.931 . S
H499 C514 0.930 . S
C500 H488 0.930 . S
C500 C501 1.399 . S
C500 C505 1.399 . S
C501 C500 1.399 . S
C501 C502 1.376 . S
C502 H489 0.930 . S
C502 C501 1.376 . S
C502 C503 1.388 . S
C503 H490 0.930 . S
C503 C502 1.388 . S
C503 C504 1.390 . S
C504 C503 1.390 . S
C504 C505 1.394 . S
C504 C510 1.465 . S
C505 C500 1.399 . S
C505 C504 1.394 . S
C505 C506 1.516 . S
C506 C505 1.516 . S
C506 C507 1.502 . S
C506 C508 1.561 . S
C506 C509 1.526 . S
C507 H491 0.959 . S
C507 H492 0.959 . S
C507 H493 0.961 . S
C507 C506 1.502 . S
C508 H494 0.960 . S
C508 H495 0.961 . S
C508 H496 0.959 . S
C508 C506 1.561 . S
C509 C506 1.526 . S
C509 C510 1.396 . S
C509 C514 1.390 . S
C510 C504 1.465 . S
C510 C509 1.396 . S
C510 C511 1.399 . S
C511 H497 0.929 . S
C511 C510 1.399 . S
C511 C512 1.385 . S
C512 H498 0.931 . S
C512 C511 1.385 . S
C512 C513 1.389 . S
C513 C512 1.389 . S
C513 C514 1.387 . S
C514 H499 0.930 . S
C514 C509 1.390 . S
C514 C513 1.387 . S
H515 C527 0.930 . S
H516 C529 0.930 . S
H517 C530 0.930 . S
H518 C534 0.959 . S
H519 C534 0.959 . S
H520 C534 0.961 . S
H521 C535 0.960 . S
H522 C535 0.961 . S
H523 C535 0.959 . S
H524 C538 0.929 . S
H525 C539 0.931 . S
H526 C541 0.930 . S
C527 H515 0.930 . S
C527 C528 1.399 . S
C527 C532 1.399 . S
C528 C527 1.399 . S
C528 C529 1.376 . S
C529 H516 0.930 . S
C529 C528 1.376 . S
C529 C530 1.388 . S
C530 H517 0.930 . S
C530 C529 1.388 . S
C530 C531 1.390 . S
C531 C530 1.390 . S
C531 C532 1.394 . S
C531 C537 1.465 . S
C532 C527 1.399 . S
C532 C531 1.394 . S
C532 C533 1.516 . S
C533 C532 1.516 . S
C533 C534 1.502 . S
C533 C535 1.561 . S
C533 C536 1.526 . S
C534 H518 0.959 . S
C534 H519 0.959 . S
C534 H520 0.961 . S
C534 C533 1.502 . S
C535 H521 0.960 . S
C535 H522 0.961 . S
C535 H523 0.959 . S
C535 C533 1.561 . S
C536 C533 1.526 . S
C536 C537 1.396 . S
C536 C541 1.390 . S
C537 C531 1.465 . S
C537 C536 1.396 . S
C537 C538 1.399 . S
C538 H524 0.929 . S
C538 C537 1.399 . S
C538 C539 1.385 . S
C539 H525 0.931 . S
C539 C538 1.385 . S
C539 C540 1.389 . S
C540 C539 1.389 . S
C540 C541 1.387 . S
C541 H526 0.930 . S
C541 C536 1.390 . S
C541 C540 1.387 . S
H542 C554 0.930 . S
H543 C556 0.930 . S
H544 C557 0.930 . S
H545 C561 0.959 . S
H546 C561 0.959 . S
H547 C561 0.961 . S
H548 C562 0.960 . S
H549 C562 0.961 . S
H550 C562 0.959 . S
H551 C565 0.929 . S
H552 C566 0.931 . S
H553 C568 0.930 . S
C554 H542 0.930 . S
C554 C555 1.399 . S
C554 C559 1.399 . S
C555 C554 1.399 . S
C555 C556 1.376 . S
C556 H543 0.930 . S
C556 C555 1.376 . S
C556 C557 1.388 . S
C557 H544 0.930 . S
C557 C556 1.388 . S
C557 C558 1.390 . S
C558 C557 1.390 . S
C558 C559 1.394 . S
C558 C564 1.465 . S
C559 C554 1.399 . S
C559 C558 1.394 . S
C559 C560 1.516 . S
C560 C559 1.516 . S
C560 C561 1.502 . S
C560 C562 1.561 . S
C560 C563 1.526 . S
C561 H545 0.959 . S
C561 H546 0.959 . S
C561 H547 0.961 . S
C561 C560 1.502 . S
C562 H548 0.960 . S
C562 H549 0.961 . S
C562 H550 0.959 . S
C562 C560 1.561 . S
C563 C560 1.526 . S
C563 C564 1.396 . S
C563 C568 1.390 . S
C564 C558 1.465 . S
C564 C563 1.396 . S
C564 C565 1.399 . S
C565 H551 0.929 . S
C565 C564 1.399 . S
C565 C566 1.385 . S
C566 H552 0.931 . S
C566 C565 1.385 . S
C566 C567 1.389 . S
C567 C566 1.389 . S
C567 C568 1.387 . S
C568 H553 0.930 . S
C568 C563 1.390 . S
C568 C567 1.387 . S
H569 C581 0.930 . S
H570 C583 0.930 . S
H571 C584 0.930 . S
H572 C588 0.959 . S
H573 C588 0.959 . S
H574 C588 0.961 . S
H575 C589 0.960 . S
H576 C589 0.961 . S
H577 C589 0.959 . S
H578 C592 0.929 . S
H579 C593 0.931 . S
H580 C595 0.930 . S
C581 H569 0.930 . S
C581 C582 1.399 . S
C581 C586 1.399 . S
C582 C581 1.399 . S
C582 C583 1.376 . S
C583 H570 0.930 . S
C583 C582 1.376 . S
C583 C584 1.388 . S
C584 H571 0.930 . S
C584 C583 1.388 . S
C584 C585 1.390 . S
C585 C584 1.390 . S
C585 C586 1.394 . S
C585 C591 1.465 . S
C586 C581 1.399 . S
C586 C585 1.394 . S
C586 C587 1.516 . S
C587 C586 1.516 . S
C587 C588 1.502 . S
C587 C589 1.561 . S
C587 C590 1.526 . S
C588 H572 0.959 . S
C588 H573 0.959 . S
C588 H574 0.961 . S
C588 C587 1.502 . S
C589 H575 0.960 . S
C589 H576 0.961 . S
C589 H577 0.959 . S
C589 C587 1.561 . S
C590 C587 1.526 . S
C590 C591 1.396 . S
C590 C595 1.390 . S
C591 C585 1.465 . S
C591 C590 1.396 . S
C591 C592 1.399 . S
C592 H578 0.929 . S
C592 C591 1.399 . S
C592 C593 1.385 . S
C593 H579 0.931 . S
C593 C592 1.385 . S
C593 C594 1.389 . S
C594 C593 1.389 . S
C594 C595 1.387 . S
C595 H580 0.930 . S
C595 C590 1.390 . S
C595 C594 1.387 . S
H596 C608 0.930 . S
H597 C610 0.930 . S
H598 C611 0.930 . S
H599 C615 0.959 . S
H600 C615 0.959 . S
H601 C615 0.961 1_565 S
H602 C616 0.960 . S
H603 C616 0.961 . S
H604 C616 0.959 . S
H605 C619 0.929 . S
H606 C620 0.931 . S
H607 C622 0.930 . S
C608 H596 0.930 . S
C608 C609 1.399 . S
C608 C613 1.399 . S
C609 C608 1.399 . S
C609 C610 1.376 . S
C610 H597 0.930 . S
C610 C609 1.376 . S
C610 C611 1.388 . S
C611 H598 0.930 . S
C611 C610 1.388 . S
C611 C612 1.390 . S
C612 C611 1.390 . S
C612 C613 1.394 . S
C612 C618 1.465 1_565 S
C613 C608 1.399 . S
C613 C612 1.394 . S
C613 C614 1.516 . S
C614 C613 1.516 . S
C614 C615 1.502 1_564 S
C614 C616 1.561 . S
C614 C617 1.526 1_565 S
C615 H599 0.959 . S
C615 H600 0.959 . S
C615 H601 0.961 1_545 S
C615 C614 1.502 1_546 S
C616 H602 0.960 . S
C616 H603 0.961 . S
C616 H604 0.959 . S
C616 C614 1.561 . S
C617 C614 1.526 1_545 S
C617 C618 1.396 . S
C617 C622 1.390 . S
C618 C612 1.465 1_545 S
C618 C617 1.396 . S
C618 C619 1.399 . S
C619 H605 0.929 . S
C619 C618 1.399 . S
C619 C620 1.385 . S
C620 H606 0.931 . S
C620 C619 1.385 . S
C620 C621 1.389 . S
C621 C620 1.389 . S
C621 C622 1.387 . S
C622 H607 0.930 . S
C622 C617 1.390 . S
C622 C621 1.387 . S
H623 C635 0.930 . S
H624 C637 0.930 . S
H625 C638 0.930 . S
H626 C642 0.959 . S
H627 C642 0.959 . S
H628 C642 0.961 . S
H629 C643 0.960 . S
H630 C643 0.961 . S
H631 C643 0.959 . S
H632 C646 0.929 . S
H633 C647 0.931 . S
H634 C649 0.930 . S
C635 H623 0.930 . S
C635 C636 1.399 . S
C635 C640 1.399 . S
C636 C635 1.399 . S
C636 C637 1.376 . S
C637 H624 0.930 . S
C637 C636 1.376 . S
C637 C638 1.388 . S
C638 H625 0.930 . S
C638 C637 1.388 . S
C638 C639 1.390 . S
C639 C638 1.390 . S
C639 C640 1.394 . S
C639 C645 1.465 . S
C640 C635 1.399 . S
C640 C639 1.394 . S
C640 C641 1.516 . S
C641 C640 1.516 . S
C641 C642 1.502 . S
C641 C643 1.561 . S
C641 C644 1.526 . S
C642 H626 0.959 . S
C642 H627 0.959 . S
C642 H628 0.961 . S
C642 C641 1.502 . S
C643 H629 0.960 . S
C643 H630 0.961 . S
C643 H631 0.959 . S
C643 C641 1.561 . S
C644 C641 1.526 . S
C644 C645 1.396 . S
C644 C649 1.390 . S
C645 C639 1.465 . S
C645 C644 1.396 . S
C645 C646 1.399 . S
C646 H632 0.929 . S
C646 C645 1.399 . S
C646 C647 1.385 . S
C647 H633 0.931 . S
C647 C646 1.385 . S
C647 C648 1.389 . S
C648 C647 1.389 . S
C648 C649 1.387 . S
C649 H634 0.930 . S
C649 C644 1.390 . S
C649 C648 1.387 . S
H650 C662 0.930 . S
H651 C664 0.930 . S
H652 C665 0.930 1_554 S
H653 C669 0.959 . S
H654 C669 0.959 . S
H655 C669 0.961 . S
H656 C670 0.960 . S
H657 C670 0.961 1_565 S
H658 C670 0.959 . S
H659 C673 0.929 1_554 S
H660 C674 0.931 . S
H661 C676 0.930 . S
C662 H650 0.930 . S
C662 C663 1.399 . S
C662 C667 1.399 . S
C663 C662 1.399 . S
C663 C664 1.376 . S
C664 H651 0.930 . S
C664 C663 1.376 . S
C664 C665 1.388 . S
C665 H652 0.930 1_556 S
C665 C664 1.388 . S
C665 C666 1.390 . S
C666 C665 1.390 . S
C666 C667 1.394 . S
C666 C672 1.465 1_545 S
C667 C662 1.399 . S
C667 C666 1.394 . S
C667 C668 1.516 1_545 S
C668 C667 1.516 1_565 S
C668 C669 1.502 . S
C668 C670 1.561 1_565 S
C668 C671 1.526 . S
C669 H653 0.959 . S
C669 H654 0.959 . S
C669 H655 0.961 . S
C669 C668 1.502 . S
C670 H656 0.960 . S
C670 H657 0.961 1_545 S
C670 H658 0.959 . S
C670 C668 1.561 1_545 S
C671 C668 1.526 . S
C671 C672 1.396 . S
C671 C676 1.390 . S
C672 C666 1.465 1_565 S
C672 C671 1.396 . S
C672 C673 1.399 . S
C673 H659 0.929 1_556 S
C673 C672 1.399 . S
C673 C674 1.385 . S
C674 H660 0.931 . S
C674 C673 1.385 . S
C674 C675 1.389 . S
C675 C674 1.389 . S
C675 C676 1.387 . S
C676 H661 0.930 . S
C676 C671 1.390 . S
C676 C675 1.387 . S
H677 C689 0.930 . S
H678 C691 0.930 . S
H679 C692 0.930 . S
H680 C696 0.959 . S
H681 C696 0.959 . S
H682 C696 0.961 . S
H683 C697 0.960 . S
H684 C697 0.961 . S
H685 C697 0.959 . S
H686 C700 0.929 . S
H687 C701 0.931 . S
H688 C703 0.930 . S
C689 H677 0.930 . S
C689 C690 1.399 . S
C689 C694 1.399 . S
C690 C689 1.399 . S
C690 C691 1.376 . S
C691 H678 0.930 . S
C691 C690 1.376 . S
C691 C692 1.388 . S
C692 H679 0.930 . S
C692 C691 1.388 . S
C692 C693 1.390 . S
C693 C692 1.390 . S
C693 C694 1.394 . S
C693 C699 1.465 . S
C694 C689 1.399 . S
C694 C693 1.394 . S
C694 C695 1.516 . S
C695 C694 1.516 . S
C695 C696 1.502 . S
C695 C697 1.561 . S
C695 C698 1.526 . S
C696 H680 0.959 . S
C696 H681 0.959 . S
C696 H682 0.961 . S
C696 C695 1.502 . S
C697 H683 0.960 . S
C697 H684 0.961 . S
C697 H685 0.959 . S
C697 C695 1.561 . S
C698 C695 1.526 . S
C698 C699 1.396 . S
C698 C703 1.390 . S
C699 C693 1.465 . S
C699 C698 1.396 . S
C699 C700 1.399 . S
C700 H686 0.929 . S
C700 C699 1.399 . S
C700 C701 1.385 . S
C701 H687 0.931 . S
C701 C700 1.385 . S
C701 C702 1.389 . S
C702 C701 1.389 . S
C702 C703 1.387 . S
C703 H688 0.930 . S
C703 C698 1.390 . S
C703 C702 1.387 . S
H704 C716 0.930 . S
H705 C718 0.930 . S
H706 C719 0.930 1_655 S
H707 C723 0.959 . S
H708 C723 0.959 . S
H709 C723 0.961 . S
H710 C724 0.946 1_445 S
H711 C724 0.961 . S
H712 C724 0.959 1_545 S
H713 C727 0.929 1_545 S
H714 C728 0.931 . S
H715 C730 0.930 . S
C716 H704 0.930 . S
C716 C717 1.399 . S
C716 C721 1.399 . S
C717 C716 1.399 . S
C717 C718 1.376 1_554 S
C718 H705 0.930 . S
C718 C717 1.376 1_556 S
C718 C719 1.388 . S
C719 H706 0.930 1_455 S
C719 C718 1.388 . S
C719 C720 1.390 . S
C720 C719 1.390 . S
C720 C721 1.394 1_556 S
C720 C726 1.465 1_445 S
C721 C716 1.399 . S
C721 C720 1.394 1_554 S
C721 C722 1.516 1_545 S
C722 C721 1.516 1_565 S
C722 C723 1.502 . S
C722 C724 1.561 1_455 S
C722 C725 1.526 1_455 S
C723 H707 0.959 . S
C723 H708 0.959 . S
C723 H709 0.961 . S
C723 C722 1.502 . S
C724 H710 0.946 1_665 S
C724 H711 0.961 . S
C724 H712 0.959 1_565 S
C724 C722 1.561 1_655 S
C725 C722 1.526 1_655 S
C725 C726 1.396 1_554 S
C725 C730 1.390 . S
C726 C720 1.465 1_665 S
C726 C725 1.396 1_556 S
C726 C727 1.399 . S
C727 H713 0.929 1_565 S
C727 C726 1.399 . S
C727 C728 1.385 . S
C728 H714 0.931 . S
C728 C727 1.385 . S
C728 C729 1.389 . S
C729 C728 1.389 . S
C729 C730 1.387 1_556 S
C730 H715 0.930 . S
C730 C725 1.390 . S
C730 C729 1.387 1_554 S
H731 C743 0.930 . S
H732 C745 0.930 . S
H733 C746 0.930 . S
H734 C750 0.959 . S
H735 C750 0.959 1_565 S
H736 C750 0.961 . S
H737 C751 0.960 . S
H738 C751 0.961 . S
H739 C751 0.959 . S
H740 C754 0.929 . S
H741 C755 0.931 . S
H742 C757 0.930 . S
C743 H731 0.930 . S
C743 C744 1.399 . S
C743 C748 1.399 . S
C744 C743 1.399 . S
C744 C745 1.376 1_556 S
C745 H732 0.930 . S
C745 C744 1.376 1_554 S
C745 C746 1.388 . S
C746 H733 0.930 . S
C746 C745 1.388 . S
C746 C747 1.390 . S
C747 C746 1.390 . S
C747 C748 1.394 1_554 S
C747 C753 1.465 1_545 S
C748 C743 1.399 . S
C748 C747 1.394 1_556 S
C748 C749 1.516 1_545 S
C749 C748 1.516 1_565 S
C749 C750 1.502 1_565 S
C749 C751 1.561 . S
C749 C752 1.526 . S
C750 H734 0.959 . S
C750 H735 0.959 1_545 S
C750 H736 0.961 . S
C750 C749 1.502 1_545 S
C751 H737 0.960 . S
C751 H738 0.961 . S
C751 H739 0.959 . S
C751 C749 1.561 . S
C752 C749 1.526 . S
C752 C753 1.396 1_556 S
C752 C757 1.390 . S
C753 C747 1.465 1_565 S
C753 C752 1.396 1_554 S
C753 C754 1.399 . S
C754 H740 0.929 . S
C754 C753 1.399 . S
C754 C755 1.385 . S
C755 H741 0.931 . S
C755 C754 1.385 . S
C755 C756 1.389 . S
C756 C755 1.389 . S
C756 C757 1.387 1_554 S
C757 H742 0.930 . S
C757 C752 1.390 . S
C757 C756 1.387 1_556 S
H758 C770 0.930 . S
H759 C772 0.930 . S
H760 C773 0.930 . S
H761 C777 0.959 . S
H762 C777 0.959 . S
H763 C777 0.961 . S
H764 C778 0.960 . S
H765 C778 0.961 . S
H766 C778 0.959 . S
H767 C781 0.929 . S
H768 C782 0.931 . S
H769 C784 0.930 . S
C770 H758 0.930 . S
C770 C771 1.399 . S
C770 C775 1.399 . S
C771 C770 1.399 . S
C771 C772 1.376 . S
C772 H759 0.930 . S
C772 C771 1.376 . S
C772 C773 1.388 . S
C773 H760 0.930 . S
C773 C772 1.388 . S
C773 C774 1.390 . S
C774 C773 1.390 . S
C774 C775 1.394 . S
C774 C780 1.454 1_455 S
C775 C770 1.399 . S
C775 C774 1.394 . S
C775 C776 1.516 1_455 S
C776 C775 1.516 1_655 S
C776 C777 1.502 . S
C776 C778 1.561 . S
C776 C779 1.526 . S
C777 H761 0.959 . S
C777 H762 0.959 . S
C777 H763 0.961 . S
C777 C776 1.502 . S
C778 H764 0.960 . S
C778 H765 0.961 . S
C778 H766 0.959 . S
C778 C776 1.561 . S
C779 C776 1.526 . S
C779 C780 1.412 . S
C779 C784 1.390 . S
C780 C774 1.454 1_655 S
C780 C779 1.412 . S
C780 C781 1.397 1_655 S
C781 H767 0.929 . S
C781 C780 1.397 1_455 S
C781 C782 1.385 1_455 S
C782 H768 0.931 . S
C782 C781 1.385 1_655 S
C782 C783 1.389 . S
C783 C782 1.389 . S
C783 C784 1.387 . S
C784 H769 0.930 . S
C784 C779 1.390 . S
C784 C783 1.387 . S
H785 C797 0.930 . S
H786 C799 0.930 . S
H787 C800 0.930 . S
H788 C804 0.959 . S
H789 C804 0.959 . S
H790 C804 0.961 . S
H791 C805 0.960 . S
H792 C805 0.961 . S
H793 C805 0.959 . S
H794 C808 0.929 . S
H795 C809 0.931 . S
H796 C811 0.930 . S
C797 H785 0.930 . S
C797 C798 1.399 . S
C797 C802 1.399 . S
C798 C797 1.399 . S
C798 C799 1.376 . S
C799 H786 0.930 . S
C799 C798 1.376 . S
C799 C800 1.388 . S
C800 H787 0.930 . S
C800 C799 1.388 . S
C800 C801 1.390 . S
C801 C800 1.390 . S
C801 C802 1.394 . S
C801 C807 1.465 . S
C802 C797 1.399 . S
C802 C801 1.394 . S
C802 C803 1.516 . S
C803 C802 1.516 . S
C803 C804 1.502 . S
C803 C805 1.561 . S
C803 C806 1.526 . S
C804 H788 0.959 . S
C804 H789 0.959 . S
C804 H790 0.961 . S
C804 C803 1.502 . S
C805 H791 0.960 . S
C805 H792 0.961 . S
C805 H793 0.959 . S
C805 C803 1.561 . S
C806 C803 1.526 . S
C806 C807 1.396 . S
C806 C811 1.390 . S
C807 C801 1.465 . S
C807 C806 1.396 . S
C807 C808 1.399 . S
C808 H794 0.929 . S
C808 C807 1.399 . S
C808 C809 1.385 . S
C809 H795 0.931 . S
C809 C808 1.385 . S
C809 C810 1.389 . S
C810 C809 1.389 . S
C810 C811 1.387 . S
C811 H796 0.930 . S
C811 C806 1.390 . S
C811 C810 1.387 . S
H812 C824 0.930 . S
H813 C826 0.930 . S
H814 C827 0.930 . S
H815 C831 0.959 . S
H816 C831 0.959 . S
H817 C831 0.961 . S
H818 C832 0.960 . S
H819 C832 0.961 . S
H820 C832 0.959 . S
H821 C835 0.929 . S
H822 C836 0.931 . S
H823 C838 0.930 . S
C824 H812 0.930 . S
C824 C825 1.399 . S
C824 C829 1.399 . S
C825 C824 1.399 . S
C825 C826 1.376 . S
C826 H813 0.930 . S
C826 C825 1.376 . S
C826 C827 1.388 . S
C827 H814 0.930 . S
C827 C826 1.388 . S
C827 C828 1.390 . S
C828 C827 1.390 . S
C828 C829 1.394 . S
C828 C834 1.465 . S
C829 C824 1.399 . S
C829 C828 1.394 . S
C829 C830 1.516 . S
C830 C829 1.516 . S
C830 C831 1.502 . S
C830 C832 1.561 . S
C830 C833 1.526 . S
C831 H815 0.959 . S
C831 H816 0.959 . S
C831 H817 0.961 . S
C831 C830 1.502 . S
C832 H818 0.960 . S
C832 H819 0.961 . S
C832 H820 0.959 . S
C832 C830 1.561 . S
C833 C830 1.526 . S
C833 C834 1.396 . S
C833 C838 1.390 . S
C834 C828 1.465 . S
C834 C833 1.396 . S
C834 C835 1.399 . S
C835 H821 0.929 . S
C835 C834 1.399 . S
C835 C836 1.385 . S
C836 H822 0.931 . S
C836 C835 1.385 . S
C836 C837 1.389 . S
C837 C836 1.389 . S
C837 C838 1.387 . S
C838 H823 0.930 . S
C838 C833 1.390 . S
C838 C837 1.387 . S
H839 C851 0.930 . S
H840 C853 0.930 . S
H841 C854 0.930 . S
H842 C858 0.959 . S
H843 C858 0.959 . S
H844 C858 0.961 . S
H845 C859 0.960 . S
H846 C859 0.961 . S
H847 C859 0.959 . S
H848 C862 0.929 . S
H849 C863 0.931 . S
H850 C865 0.930 . S
C851 H839 0.930 . S
C851 C852 1.399 . S
C851 C856 1.399 . S
C852 C851 1.399 . S
C852 C853 1.376 . S
C853 H840 0.930 . S
C853 C852 1.376 . S
C853 C854 1.388 . S
C854 H841 0.930 . S
C854 C853 1.388 . S
C854 C855 1.390 . S
C855 C854 1.390 . S
C855 C856 1.394 . S
C855 C861 1.465 . S
C856 C851 1.399 . S
C856 C855 1.394 . S
C856 C857 1.516 . S
C857 C856 1.516 . S
C857 C858 1.502 . S
C857 C859 1.561 . S
C857 C860 1.526 . S
C858 H842 0.959 . S
C858 H843 0.959 . S
C858 H844 0.961 . S
C858 C857 1.502 . S
C859 H845 0.960 . S
C859 H846 0.961 . S
C859 H847 0.959 . S
C859 C857 1.561 . S
C860 C857 1.526 . S
C860 C861 1.396 . S
C860 C865 1.390 . S
C861 C855 1.465 . S
C861 C860 1.396 . S
C861 C862 1.399 . S
C862 H848 0.929 . S
C862 C861 1.399 . S
C862 C863 1.385 . S
C863 H849 0.931 . S
C863 C862 1.385 . S
C863 C864 1.389 . S
C864 C863 1.389 . S
C864 C865 1.387 . S
C865 H850 0.930 . S
C865 C860 1.390 . S
C865 C864 1.387 . S
H866 C878 0.930 . S
H867 C880 0.930 . S
H868 C881 0.930 . S
H869 C885 0.959 . S
H870 C885 0.959 . S
H871 C885 0.961 . S
H872 C886 0.960 . S
H873 C886 0.961 . S
H874 C886 0.959 . S
H875 C889 0.929 . S
H876 C890 0.931 . S
H877 C892 0.930 . S
C878 H866 0.930 . S
C878 C879 1.399 . S
C878 C883 1.399 1_554 S
C879 C878 1.399 . S
C879 C880 1.376 . S
C880 H867 0.930 . S
C880 C879 1.376 . S
C880 C881 1.388 1_554 S
C881 H868 0.930 . S
C881 C880 1.388 1_556 S
C881 C882 1.390 . S
C882 C881 1.390 . S
C882 C883 1.394 . S
C882 C888 1.465 . S
C883 C878 1.399 1_556 S
C883 C882 1.394 . S
C883 C884 1.516 . S
C884 C883 1.516 . S
C884 C885 1.502 . S
C884 C886 1.561 . S
C884 C887 1.526 . S
C885 H869 0.959 . S
C885 H870 0.959 . S
C885 H871 0.961 . S
C885 C884 1.502 . S
C886 H872 0.960 . S
C886 H873 0.961 . S
C886 H874 0.959 . S
C886 C884 1.561 . S
C887 C884 1.526 . S
C887 C888 1.396 . S
C887 C892 1.390 . S
C888 C882 1.465 . S
C888 C887 1.396 . S
C888 C889 1.399 . S
C889 H875 0.929 . S
C889 C888 1.399 . S
C889 C890 1.385 . S
C890 H876 0.931 . S
C890 C889 1.385 . S
C890 C891 1.389 . S
C891 C890 1.389 . S
C891 C892 1.387 . S
C892 H877 0.930 . S
C892 C887 1.390 . S
C892 C891 1.387 . S
H893 C905 0.930 . S
H894 C907 0.930 . S
H895 C908 0.930 . S
H896 C912 0.959 . S
H897 C912 0.959 . S
H898 C912 0.961 . S
H899 C913 0.960 . S
H900 C913 0.961 . S
H901 C913 0.959 . S
H902 C916 0.929 . S
H903 C917 0.931 . S
H904 C919 0.930 . S
C905 H893 0.930 . S
C905 C906 1.399 . S
C905 C910 1.399 . S
C906 C905 1.399 . S
C906 C907 1.376 . S
C907 H894 0.930 . S
C907 C906 1.376 . S
C907 C908 1.388 . S
C908 H895 0.930 . S
C908 C907 1.388 . S
C908 C909 1.390 . S
C909 C908 1.390 . S
C909 C910 1.394 . S
C909 C915 1.465 . S
C910 C905 1.399 . S
C910 C909 1.394 . S
C910 C911 1.516 . S
C911 C910 1.516 . S
C911 C912 1.502 . S
C911 C913 1.561 . S
C911 C914 1.526 . S
C912 H896 0.959 . S
C912 H897 0.959 . S
C912 H898 0.961 . S
C912 C911 1.502 . S
C913 H899 0.960 . S
C913 H900 0.961 . S
C913 H901 0.959 . S
C913 C911 1.561 . S
C914 C911 1.526 . S
C914 C915 1.396 . S
C914 C919 1.390 1_556 S
C915 C909 1.465 . S
C915 C914 1.396 . S
C915 C916 1.399 1_556 S
C916 H902 0.929 . S
C916 C915 1.399 1_554 S
C916 C917 1.385 . S
C917 H903 0.931 . S
C917 C916 1.385 . S
C917 C918 1.389 . S
C918 C917 1.389 . S
C918 C919 1.387 . S
C919 H904 0.930 . S
C919 C914 1.390 1_554 S
C919 C918 1.387 . S
H920 C932 0.930 . S
H921 C934 0.930 . S
H922 C935 0.930 . S
H923 C939 0.959 . S
H924 C939 0.959 . S
H925 C939 0.961 . S
H926 C940 0.960 . S
H927 C940 0.961 . S
H928 C940 0.959 . S
H929 C943 0.929 . S
H930 C944 0.931 . S
H931 C946 0.930 . S
C932 H920 0.930 . S
C932 C933 1.399 . S
C932 C937 1.399 . S
C933 C932 1.399 . S
C933 C934 1.376 . S
C934 H921 0.930 . S
C934 C933 1.376 . S
C934 C935 1.388 . S
C935 H922 0.930 . S
C935 C934 1.388 . S
C935 C936 1.390 . S
C936 C935 1.390 . S
C936 C937 1.394 . S
C936 C942 1.465 . S
C937 C932 1.399 . S
C937 C936 1.394 . S
C937 C938 1.516 . S
C938 C937 1.516 . S
C938 C939 1.502 . S
C938 C940 1.561 . S
C938 C941 1.526 . S
C939 H923 0.959 . S
C939 H924 0.959 . S
C939 H925 0.961 . S
C939 C938 1.502 . S
C940 H926 0.960 . S
C940 H927 0.961 . S
C940 H928 0.959 . S
C940 C938 1.561 . S
C941 C938 1.526 . S
C941 C942 1.396 . S
C941 C946 1.390 . S
C942 C936 1.465 . S
C942 C941 1.396 . S
C942 C943 1.399 . S
C943 H929 0.929 . S
C943 C942 1.399 . S
C943 C944 1.385 . S
C944 H930 0.931 . S
C944 C943 1.385 . S
C944 C945 1.389 . S
C945 C944 1.389 . S
C945 C946 1.387 . S
C946 H931 0.930 . S
C946 C941 1.390 . S
C946 C945 1.387 . S
H947 C959 0.930 . S
H948 C961 0.930 . S
H949 C962 0.930 . S
H950 C966 0.959 . S
H951 C966 0.959 . S
H952 C966 0.961 . S
H953 C967 0.960 . S
H954 C967 0.961 . S
H955 C967 0.959 . S
H956 C970 0.929 . S
H957 C971 0.931 . S
H958 C973 0.930 . S
C959 H947 0.930 . S
C959 C960 1.399 . S
C959 C964 1.399 . S
C960 C959 1.399 . S
C960 C961 1.376 . S
C961 H948 0.930 . S
C961 C960 1.376 . S
C961 C962 1.388 . S
C962 H949 0.930 . S
C962 C961 1.388 . S
C962 C963 1.390 . S
C963 C962 1.390 . S
C963 C964 1.394 . S
C963 C969 1.465 . S
C964 C959 1.399 . S
C964 C963 1.394 . S
C964 C965 1.516 . S
C965 C964 1.516 . S
C965 C966 1.502 . S
C965 C967 1.561 . S
C965 C968 1.526 . S
C966 H950 0.959 . S
C966 H951 0.959 . S
C966 H952 0.961 . S
C966 C965 1.502 . S
C967 H953 0.960 . S
C967 H954 0.961 . S
C967 H955 0.959 . S
C967 C965 1.561 . S
C968 C965 1.526 . S
C968 C969 1.396 . S
C968 C973 1.390 . S
C969 C963 1.465 . S
C969 C968 1.396 . S
C969 C970 1.399 . S
C970 H956 0.929 . S
C970 C969 1.399 . S
C970 C971 1.385 . S
C971 H957 0.931 . S
C971 C970 1.385 . S
C971 C972 1.389 . S
C972 C971 1.389 . S
C972 C973 1.387 . S
C973 H958 0.930 . S
C973 C968 1.390 . S
C973 C972 1.387 . S
H974 C986 0.929 1_554 S
H975 C988 0.930 . S
H976 C989 0.930 . S
H977 C993 0.959 . S
H978 C993 0.959 . S
H979 C993 0.961 . S
H980 C994 0.960 . S
H981 C994 0.961 . S
H982 C994 0.959 . S
H983 C997 0.929 . S
H984 C998 0.931 . S
H985 C1000 0.930 . S
C986 H974 0.929 1_556 S
C986 C987 1.408 . S
C986 C991 1.391 1_556 S
C987 C986 1.408 . S
C987 C988 1.376 . S
C988 H975 0.930 . S
C988 C987 1.376 . S
C988 C989 1.388 . S
C989 H976 0.930 . S
C989 C988 1.388 . S
C989 C990 1.390 1_556 S
C990 C989 1.390 1_554 S
C990 C991 1.394 . S
C990 C996 1.465 . S
C991 C986 1.391 1_554 S
C991 C990 1.394 . S
C991 C992 1.516 . S
C992 C991 1.516 . S
C992 C993 1.502 . S
C992 C994 1.561 . S
C992 C995 1.526 . S
C993 H977 0.959 . S
C993 H978 0.959 . S
C993 H979 0.961 . S
C993 C992 1.502 . S
C994 H980 0.960 . S
C994 H981 0.961 . S
C994 H982 0.959 . S
C994 C992 1.561 . S
C995 C992 1.526 . S
C995 C996 1.396 . S
C995 C1000 1.390 . S
C996 C990 1.465 . S
C996 C995 1.396 . S
C996 C997 1.399 . S
C997 H983 0.929 . S
C997 C996 1.399 . S
C997 C998 1.385 . S
C998 H984 0.931 . S
C998 C997 1.385 . S
C998 C999 1.389 . S
C999 C998 1.389 . S
C999 C1000 1.387 . S
C1000 H985 0.930 . S
C1000 C995 1.390 . S
C1000 C999 1.387 . S
H1001 C1013 0.930 . S
H1002 C1015 0.930 . S
H1003 C1016 0.930 . S
H1004 C1020 0.959 . S
H1005 C1020 0.959 . S
H1006 C1020 0.961 . S
H1007 C1021 0.960 . S
H1008 C1021 0.961 . S
H1009 C1021 0.959 . S
H1010 C1024 0.929 . S
H1011 C1025 0.931 . S
H1012 C1027 0.930 . S
C1013 H1001 0.930 . S
C1013 C1014 1.399 . S
C1013 C1018 1.399 . S
C1014 C1013 1.399 . S
C1014 C1015 1.376 . S
C1015 H1002 0.930 . S
C1015 C1014 1.376 . S
C1015 C1016 1.388 . S
C1016 H1003 0.930 . S
C1016 C1015 1.388 . S
C1016 C1017 1.390 . S
C1017 C1016 1.390 . S
C1017 C1018 1.394 . S
C1017 C1023 1.465 . S
C1018 C1013 1.399 . S
C1018 C1017 1.394 . S
C1018 C1019 1.516 . S
C1019 C1018 1.516 . S
C1019 C1020 1.502 . S
C1019 C1021 1.561 . S
C1019 C1022 1.526 . S
C1020 H1004 0.959 . S
C1020 H1005 0.959 . S
C1020 H1006 0.961 . S
C1020 C1019 1.502 . S
C1021 H1007 0.960 . S
C1021 H1008 0.961 . S
C1021 H1009 0.959 . S
C1021 C1019 1.561 . S
C1022 C1019 1.526 . S
C1022 C1023 1.396 . S
C1022 C1027 1.390 1_554 S
C1023 C1017 1.465 . S
C1023 C1022 1.396 . S
C1023 C1024 1.399 . S
C1024 H1010 0.929 . S
C1024 C1023 1.399 . S
C1024 C1025 1.385 1_554 S
C1025 H1011 0.931 . S
C1025 C1024 1.385 1_556 S
C1025 C1026 1.389 . S
C1026 C1025 1.389 . S
C1026 C1027 1.387 . S
C1027 H1012 0.930 . S
C1027 C1022 1.390 1_556 S
C1027 C1026 1.387 . S
C285 C198 1.582 . S
C297 C28 1.618 . S
C312 C40 1.595 . S
C324 C142 1.599 1_455 S
C339 C244 1.601 . S
C351 C96 1.602 . S
C366 C210 1.631 1_455 S
C378 C108 1.556 . S
C393 C164 1.557 . S
C405 C62 1.636 . S
C420 C176 1.606 . S
C432 C6 1.614 1_655 S
C447 C232 1.553 . S
C459 C130 1.621 . S
C474 C266 1.563 . S
C486 C74 1.607 1_655 S
C501 C85 1.812 . S
C513 C17 1.754 . S
C528 C119 1.765 . S
C540 C51 1.810 . S
C555 C153 1.797 . S
C567 C221 1.765 . S
C582 C187 1.801 . S
C594 C255 1.762 . S
C609 C35 1.703 . S
C621 C3 1.705 . S
C636 C71 1.710 . S
C648 C103 1.687 . S
C663 C171 1.664 . S
C675 C139 1.632 . S
C690 C241 1.678 . S
C702 C207 1.707 . S
C717 C1 1.842 . S
C729 C137 1.766 . S
C744 C173 1.817 . S
C756 C37 1.782 . S
C771 C69 1.812 . S
C783 C205 1.810 . S
C798 C105 1.765 . S
C810 C239 1.839 . S
C825 C22 1.318 . S
C837 C15 1.444 . S
C852 C56 1.439 . S
C864 C49 1.364 . S
C879 C83 1.358 . S
C891 C90 1.398 . S
C906 C117 1.445 . S
C918 C124 1.354 . S
C933 C158 1.431 . S
C945 C151 1.365 . S
C960 C192 1.323 . S
C972 C185 1.450 . S
C987 C219 1.328 . S
C999 C226 1.454 . S
C1014 C260 1.357 . S
C1026 C253 1.407 . S
