# Generated by pormake.
# Topology crs, (6)-cn, num edge types: 1
# Building blocks:
#     Node 0, Type 0, BuildingBlock: BETDEL_clean_sbu_0, # of connection points: 6
#     Node 1, Type 0, BuildingBlock: BETDEL_clean_sbu_0, # of connection points: 6
#     Node 2, Type 0, BuildingBlock: BETDEL_clean_sbu_0, # of connection points: 6
#     Node 3, Type 0, BuildingBlock: BETDEL_clean_sbu_0, # of connection points: 6
#     Node 4, Type 0, BuildingBlock: BETDEL_clean_sbu_0, # of connection points: 6
#     Node 5, Type 0, BuildingBlock: BETDEL_clean_sbu_0, # of connection points: 6
#     Node 6, Type 0, BuildingBlock: BETDEL_clean_sbu_0, # of connection points: 6
#     Node 7, Type 0, BuildingBlock: BETDEL_clean_sbu_0, # of connection points: 6
#     Node 8, Type 0, BuildingBlock: BETDEL_clean_sbu_0, # of connection points: 6
#     Node 9, Type 0, BuildingBlock: BETDEL_clean_sbu_0, # of connection points: 6
#     Node 10, Type 0, BuildingBlock: BETDEL_clean_sbu_0, # of connection points: 6
#     Node 11, Type 0, BuildingBlock: BETDEL_clean_sbu_0, # of connection points: 6
#     Node 12, Type 0, BuildingBlock: BETDEL_clean_sbu_0, # of connection points: 6
#     Node 13, Type 0, BuildingBlock: BETDEL_clean_sbu_0, # of connection points: 6
#     Node 14, Type 0, BuildingBlock: BETDEL_clean_sbu_0, # of connection points: 6
#     Node 15, Type 0, BuildingBlock: BETDEL_clean_sbu_0, # of connection points: 6
#     Edge 16, Type (0, 0), BuildingBlock: TEMPAE_clean_linker_10, # of connection points: 2
#     Edge 17, Type (0, 0), BuildingBlock: TEMPAE_clean_linker_10, # of connection points: 2
#     Edge 18, Type (0, 0), BuildingBlock: TEMPAE_clean_linker_10, # of connection points: 2
#     Edge 19, Type (0, 0), BuildingBlock: TEMPAE_clean_linker_10, # of connection points: 2
#     Edge 20, Type (0, 0), BuildingBlock: TEMPAE_clean_linker_10, # of connection points: 2
#     Edge 21, Type (0, 0), BuildingBlock: TEMPAE_clean_linker_10, # of connection points: 2
#     Edge 22, Type (0, 0), BuildingBlock: TEMPAE_clean_linker_10, # of connection points: 2
#     Edge 23, Type (0, 0), BuildingBlock: TEMPAE_clean_linker_10, # of connection points: 2
#     Edge 24, Type (0, 0), BuildingBlock: TEMPAE_clean_linker_10, # of connection points: 2
#     Edge 25, Type (0, 0), BuildingBlock: TEMPAE_clean_linker_10, # of connection points: 2
#     Edge 26, Type (0, 0), BuildingBlock: TEMPAE_clean_linker_10, # of connection points: 2
#     Edge 27, Type (0, 0), BuildingBlock: TEMPAE_clean_linker_10, # of connection points: 2
#     Edge 28, Type (0, 0), BuildingBlock: TEMPAE_clean_linker_10, # of connection points: 2
#     Edge 29, Type (0, 0), BuildingBlock: TEMPAE_clean_linker_10, # of connection points: 2
#     Edge 30, Type (0, 0), BuildingBlock: TEMPAE_clean_linker_10, # of connection points: 2
#     Edge 31, Type (0, 0), BuildingBlock: TEMPAE_clean_linker_10, # of connection points: 2
#     Edge 32, Type (0, 0), BuildingBlock: TEMPAE_clean_linker_10, # of connection points: 2
#     Edge 33, Type (0, 0), BuildingBlock: TEMPAE_clean_linker_10, # of connection points: 2
#     Edge 34, Type (0, 0), BuildingBlock: TEMPAE_clean_linker_10, # of connection points: 2
#     Edge 35, Type (0, 0), BuildingBlock: TEMPAE_clean_linker_10, # of connection points: 2
#     Edge 36, Type (0, 0), BuildingBlock: TEMPAE_clean_linker_10, # of connection points: 2
#     Edge 37, Type (0, 0), BuildingBlock: TEMPAE_clean_linker_10, # of connection points: 2
#     Edge 38, Type (0, 0), BuildingBlock: TEMPAE_clean_linker_10, # of connection points: 2
#     Edge 39, Type (0, 0), BuildingBlock: TEMPAE_clean_linker_10, # of connection points: 2
#     Edge 40, Type (0, 0), BuildingBlock: TEMPAE_clean_linker_10, # of connection points: 2
#     Edge 41, Type (0, 0), BuildingBlock: TEMPAE_clean_linker_10, # of connection points: 2
#     Edge 42, Type (0, 0), BuildingBlock: TEMPAE_clean_linker_10, # of connection points: 2
#     Edge 43, Type (0, 0), BuildingBlock: TEMPAE_clean_linker_10, # of connection points: 2
#     Edge 44, Type (0, 0), BuildingBlock: TEMPAE_clean_linker_10, # of connection points: 2
#     Edge 45, Type (0, 0), BuildingBlock: TEMPAE_clean_linker_10, # of connection points: 2
#     Edge 46, Type (0, 0), BuildingBlock: TEMPAE_clean_linker_10, # of connection points: 2
#     Edge 47, Type (0, 0), BuildingBlock: TEMPAE_clean_linker_10, # of connection points: 2
#     Edge 48, Type (0, 0), BuildingBlock: TEMPAE_clean_linker_10, # of connection points: 2
#     Edge 49, Type (0, 0), BuildingBlock: TEMPAE_clean_linker_10, # of connection points: 2
#     Edge 50, Type (0, 0), BuildingBlock: TEMPAE_clean_linker_10, # of connection points: 2
#     Edge 51, Type (0, 0), BuildingBlock: TEMPAE_clean_linker_10, # of connection points: 2
#     Edge 52, Type (0, 0), BuildingBlock: TEMPAE_clean_linker_10, # of connection points: 2
#     Edge 53, Type (0, 0), BuildingBlock: TEMPAE_clean_linker_10, # of connection points: 2
#     Edge 54, Type (0, 0), BuildingBlock: TEMPAE_clean_linker_10, # of connection points: 2
#     Edge 55, Type (0, 0), BuildingBlock: TEMPAE_clean_linker_10, # of connection points: 2
#     Edge 56, Type (0, 0), BuildingBlock: TEMPAE_clean_linker_10, # of connection points: 2
#     Edge 57, Type (0, 0), BuildingBlock: TEMPAE_clean_linker_10, # of connection points: 2
#     Edge 58, Type (0, 0), BuildingBlock: TEMPAE_clean_linker_10, # of connection points: 2
#     Edge 59, Type (0, 0), BuildingBlock: TEMPAE_clean_linker_10, # of connection points: 2
#     Edge 60, Type (0, 0), BuildingBlock: TEMPAE_clean_linker_10, # of connection points: 2
#     Edge 61, Type (0, 0), BuildingBlock: TEMPAE_clean_linker_10, # of connection points: 2
#     Edge 62, Type (0, 0), BuildingBlock: TEMPAE_clean_linker_10, # of connection points: 2
#     Edge 63, Type (0, 0), BuildingBlock: TEMPAE_clean_linker_10, # of connection points: 2
# Relax obj value: 0.345
# Max RMSD: 0.299
# Mean RMSD: 0.253
data_MOF--net-crs--node1-BETDEL_clean_sbu_0--edge1-TEMPAE_clean_linker_10
_symmetry_space_group_name_H-M    P1
_symmetry_Int_Tables_number       1
_symmetry_cell_setting            triclinic
loop_
_symmetry_equiv_pos_as_xyz
'x, y, z'
_cell_length_a     44.103499
_cell_length_b     44.204397
_cell_length_c     43.49839
_cell_angle_alpha  84.610108
_cell_angle_beta   86.541685
_cell_angle_gamma 79.698619
loop_
_atom_site_label
_atom_site_type_symbol
_atom_site_fract_x
_atom_site_fract_y
_atom_site_fract_z
_atom_type_partial_charge
Dy0 Dy -0.00498 0.98078 0.96913 0.0
C1 C 0.10314 0.03338 0.93553 0.0
C2 C 0.94146 0.96169 0.98899 0.0
Dy3 Dy 0.04691 0.01603 0.94133 0.0
O4 O 0.9593 0.9724 0.0063 0.0
O5 O 0.95304 0.96104 0.96084 0.0
O6 O 0.02921 0.95047 -0.0 0.0
O7 O 0.03406 -0.00379 0.98659 0.0
C8 C 0.04662 0.97125 0.00026 0.0
C9 C -0.00384 0.02543 0.9089 0.0
O10 O 0.06101 0.96999 0.92102 0.0
O11 O 0.01898 0.94616 0.9381 0.0
O12 O 0.07778 0.05009 0.92535 0.0
O13 O 0.09789 0.00674 0.9477 0.0
O14 O 0.01464 0.04555 0.90746 0.0
O15 O 0.00793 0.00108 0.92409 0.0
O16 O 0.97582 0.02998 0.97668 0.0
O17 O 0.02253 0.04681 0.9764 0.0
C18 C 0.04566 0.94647 0.92236 0.0
C19 C -0.00741 0.05007 0.98387 0.0
Dy20 Dy 0.00342 0.22627 0.26347 0.0
C21 C 0.95795 0.16006 0.17322 0.0
C22 C 0.01955 0.26499 0.30247 0.0
Dy23 Dy 0.97498 0.19638 0.21395 0.0
O24 O -0.003 0.27209 0.28376 0.0
O25 O 0.03362 0.23695 0.29942 0.0
O26 O 0.0257 0.17955 0.28291 0.0
O27 O 0.01912 0.1878 0.23529 0.0
C28 C 0.02756 0.16735 0.25667 0.0
C29 C 0.95137 0.25549 0.22043 0.0
O30 O 0.95289 0.17605 0.25686 0.0
O31 O 0.96644 0.20764 0.29191 0.0
O32 O 0.94475 0.18821 0.17699 0.0
O33 O 0.97993 0.15141 0.19241 0.0
O34 O 0.954 0.24328 0.1942 0.0
O35 O 0.95915 0.23506 0.24207 0.0
O36 O 0.02637 0.24532 0.22007 0.0
O37 O 0.01367 0.21236 0.1861 0.0
C38 C 0.95194 0.1856 0.28494 0.0
C39 C 0.0283 0.23451 0.19242 0.0
Dy40 Dy 0.71893 0.19541 0.46785 0.0
C41 C 0.76865 0.30416 0.48615 0.0
C42 C 0.70596 0.13755 0.47095 0.0
Dy43 Dy 0.74445 0.25234 0.48484 0.0
O44 O 0.70967 0.15437 0.44518 0.0
O45 O 0.70873 0.15269 0.49443 0.0
O46 O 0.68686 0.22684 0.4346 0.0
O47 O 0.72963 0.2374 0.44325 0.0
C48 C 0.70508 0.24715 0.42972 0.0
C49 C 0.74241 0.20783 0.5308 0.0
O50 O 0.69362 0.26647 0.49396 0.0
O51 O 0.68299 0.2168 0.50093 0.0
O52 O 0.74073 0.30388 0.47832 0.0
O53 O 0.78314 0.27635 0.49334 0.0
O54 O 0.73973 0.23675 0.5355 0.0
O55 O 0.74883 0.20433 0.50266 0.0
O56 O 0.76727 0.18277 0.4494 0.0
O57 O 0.78303 0.22971 0.45443 0.0
C58 C 0.67558 0.24657 0.50465 0.0
C59 C 0.78776 0.20148 0.44488 0.0
Dy60 Dy 0.69608 -0.00598 0.74779 0.0
C61 C 0.80275 0.02549 0.79928 0.0
C62 C 0.64637 0.98352 0.71896 0.0
Dy63 Dy 0.74971 0.01789 0.77456 0.0
O64 O 0.67497 0.97449 0.71037 0.0
O65 O 0.64469 -0.00144 0.74351 0.0
O66 O 0.72333 0.94625 0.7516 0.0
O67 O 0.74633 0.98416 0.74243 0.0
C68 C 0.7498 0.95536 0.7485 0.0
C69 C 0.69641 0.05707 0.77405 0.0
O70 O 0.75397 0.03784 0.7257 0.0
O71 O 0.70549 0.03167 0.7119 0.0
O72 O 0.77517 0.03436 0.81102 0.0
O73 O 0.80141 0.01228 0.77406 0.0
O74 O 0.72309 0.06585 0.77216 0.0
O75 O 0.69951 0.02818 0.77954 0.0
O76 O 0.69125 0.9739 0.79644 0.0
O77 O 0.73925 0.98119 0.81114 0.0
C78 C 0.7311 0.04349 0.70636 0.0
C79 C 0.71379 0.969 0.81614 0.0
Dy80 Dy 0.52197 0.75159 0.3007 0.0
C81 C 0.4809 0.67528 0.2163 0.0
C82 C 0.5282 0.79293 0.34151 0.0
Dy83 Dy 0.49492 0.71171 0.25874 0.0
O84 O 0.54157 0.76421 0.34328 0.0
O85 O 0.51191 0.79921 0.31708 0.0
O86 O 0.56816 0.7212 0.2965 0.0
O87 O 0.52744 0.70258 0.29521 0.0
C88 C 0.55641 0.69703 0.2921 0.0
C89 C 0.46024 0.76608 0.2691 0.0
O90 O 0.47572 0.69349 0.30358 0.0
O91 O 0.48424 0.7341 0.33048 0.0
O92 O 0.46865 0.70394 0.21859 0.0
O93 O 0.50113 0.66624 0.2373 0.0
O94 O 0.44892 0.74145 0.26604 0.0
O95 O 0.48908 0.76098 0.26438 0.0
O96 O 0.54272 0.76815 0.25577 0.0
O97 O 0.53421 0.72703 0.22958 0.0
C98 C 0.47141 0.70946 0.32824 0.0
C99 C 0.54736 0.7515 0.23162 0.0
Dy100 Dy 0.21353 0.70897 0.46997 0.0
C101 C 0.23279 0.83038 0.49046 0.0
C102 C 0.19826 0.65253 0.4666 0.0
Dy103 Dy 0.22181 0.77179 0.48916 0.0
O104 O 0.22411 0.65705 0.47658 0.0
O105 O 0.18112 0.67868 0.4582 0.0
O106 O 0.2207 0.72529 0.41999 0.0
O107 O 0.19994 0.75693 0.45129 0.0
C108 C 0.21077 0.75419 0.42399 0.0
C109 C 0.22715 0.72653 0.53535 0.0
O110 O 0.17073 0.77637 0.49205 0.0
O111 O 0.17291 0.72389 0.50172 0.0
O112 O 0.21722 0.81619 0.51163 0.0
O113 O 0.24244 0.81249 0.46861 0.0
O114 O 0.21844 0.75546 0.53976 0.0
O115 O 0.23606 0.72397 0.50754 0.0
O116 O 0.26451 0.70281 0.46342 0.0
O117 O 0.26773 0.75454 0.46595 0.0
C118 C 0.15812 0.75252 0.50351 0.0
C119 C 0.28001 0.726 0.4597 0.0
Dy120 Dy 0.20515 0.48908 0.73143 0.0
C121 C 0.27834 0.54764 0.80368 0.0
C122 C 0.16589 0.46198 0.70147 0.0
Dy123 Dy 0.23757 0.52228 0.77392 0.0
O124 O 0.19533 0.45939 0.69531 0.0
O125 O 0.1579 0.47921 0.72419 0.0
O126 O 0.24944 0.47909 0.70321 0.0
O127 O 0.25051 0.48018 0.75099 0.0
C128 C 0.26693 0.47761 0.72643 0.0
C129 C 0.17566 0.53491 0.77891 0.0
O130 O 0.24061 0.55175 0.72867 0.0
O131 O 0.20384 0.53385 0.70263 0.0
O132 O 0.24939 0.54885 0.81176 0.0
O133 O 0.28498 0.53291 0.779 0.0
O134 O 0.19341 0.53491 0.80167 0.0
O135 O 0.19209 0.53112 0.75447 0.0
O136 O 0.2023 0.45931 0.77644 0.0
O137 O 0.2391 0.47718 0.80231 0.0
C138 C 0.22303 0.55346 0.70452 0.0
C139 C 0.22016 0.45736 0.80036 0.0
Dy140 Dy 0.96843 0.44683 0.51062 0.0
C141 C 0.08591 0.48206 0.4737 0.0
C142 C 0.90823 0.4409 0.51881 0.0
Dy143 Dy 0.02707 0.47142 0.48338 0.0
O144 O 0.93061 0.42414 0.53416 0.0
O145 O 0.91883 0.46079 0.49914 0.0
O146 O -0.00446 0.41819 0.54884 0.0
O147 O 0.0082 0.4594 0.52904 0.0
C148 C 0.01624 0.43601 0.54733 0.0
C149 C 0.97858 0.48293 0.44746 0.0
O150 O 0.038 0.42157 0.47252 0.0
O151 O -0.01088 0.40861 0.48162 0.0
O152 O 0.06416 0.49048 0.4542 0.0
O153 O 0.07551 0.46759 0.49832 0.0
O154 O -0.00119 0.50119 0.44665 0.0
O155 O 0.98706 0.45906 0.46498 0.0
O156 O 0.9579 0.49619 0.52244 0.0
O157 O 0.00574 0.51081 0.51091 0.0
C158 C 0.01825 0.4023 0.47104 0.0
C159 C 0.97693 0.51632 0.52257 0.0
Dy160 Dy 0.25475 0.21987 0.99344 0.0
C161 C 0.26176 0.34271 0.02215 0.0
C162 C 0.2486 0.16008 0.98916 0.0
Dy163 Dy 0.25694 0.28283 0.01695 0.0
O164 O 0.25706 0.17847 0.96651 0.0
O165 O 0.24381 0.17433 0.01421 0.0
O166 O 0.24955 0.24135 0.94479 0.0
O167 O 0.23175 0.26727 0.98176 0.0
C168 C 0.23735 0.2685 0.95295 0.0
C169 C 0.27374 0.23319 0.05681 0.0
O170 O 0.20756 0.28153 0.02832 0.0
O171 O 0.21216 0.22877 0.02478 0.0
O172 O 0.26532 0.32088 0.04444 0.0
O173 O 0.25566 0.33174 -0.00295 0.0
O174 O 0.25986 0.25974 0.06534 0.0
O175 O 0.28006 0.23538 0.02817 0.0
O176 O 0.30447 0.222 0.98308 0.0
O177 O 0.29821 0.27512 0.98427 0.0
C178 C 0.19691 0.25534 0.03392 0.0
C179 C 0.31399 0.24863 0.97567 0.0
Dy180 Dy 0.24173 0.97057 0.20396 0.0
C181 C 0.30951 0.00236 0.30244 0.0
C182 C 0.20243 0.96574 0.15961 0.0
Dy183 Dy 0.2768 -0.00652 0.2541 0.0
O184 O 0.23227 0.96095 0.15604 0.0
O185 O 0.19403 0.97276 0.18756 0.0
O186 O 0.27704 0.92801 0.20027 0.0
O187 O 0.29014 0.9685 0.2134 0.0
C188 C 0.29884 0.94001 0.21065 0.0
C189 C 0.21938 0.02308 0.24617 0.0
O190 O 0.28847 0.02575 0.21408 0.0
O191 O 0.25042 0.01687 0.18299 0.0
O192 O 0.28014 0.00211 0.30348 0.0
O193 O 0.32132 -0.00204 0.27474 0.0
O194 O 0.24119 0.03629 0.25453 0.0
O195 O 0.2286 -0.00545 0.24517 0.0
O196 O 0.23034 0.93846 0.24424 0.0
O197 O 0.26923 0.94659 0.27467 0.0
C198 C 0.27157 0.03302 0.18931 0.0
C199 C 0.24743 0.931 0.26885 0.0
Dy200 Dy 0.5043 0.29397 0.74819 0.0
C201 C 0.445 0.20526 0.69794 0.0
C202 C 0.52577 0.34198 0.76917 0.0
Dy203 Dy 0.46953 0.25232 0.71687 0.0
O204 O 0.53658 0.31302 0.77608 0.0
O205 O 0.50375 0.34465 0.75009 0.0
O206 O 0.52835 0.25307 0.77667 0.0
O207 O 0.5163 0.24805 0.73165 0.0
C208 C 0.52694 0.23383 0.75623 0.0
C209 C 0.44648 0.31249 0.70948 0.0
O210 O 0.4543 0.24413 0.76671 0.0
O211 O 0.46913 0.28649 0.78552 0.0
O212 O 0.43076 0.23355 0.69852 0.0
O213 O 0.47267 0.20267 0.70771 0.0
O214 O 0.44553 0.29346 0.68868 0.0
O215 O 0.45741 0.29796 0.73382 0.0
O216 O 0.52291 0.29994 0.69928 0.0
O217 O 0.5028 0.26158 0.6781 0.0
C218 C 0.45488 0.26241 0.78907 0.0
C219 C 0.51995 0.28349 0.67599 0.0
Dy220 Dy 0.98255 0.76503 0.74679 0.0
C221 C 0.93839 0.67863 0.67309 0.0
C222 C 0.00757 0.80766 0.7731 0.0
Dy223 Dy 0.94838 0.72419 0.707 0.0
O224 O 0.02302 0.78209 0.76364 0.0
O225 O 0.97843 0.81002 0.76803 0.0
O226 O 0.00307 0.72129 0.77343 0.0
O227 O -0.00654 0.72066 0.7267 0.0
C228 C 0.00218 0.70422 0.75089 0.0
C229 C 0.91632 0.78153 0.71104 0.0
O230 O 0.92967 0.71364 0.75538 0.0
O231 O 0.94476 0.75368 0.77967 0.0
O232 O 0.93207 0.70798 0.66481 0.0
O233 O 0.94948 0.67402 0.70058 0.0
O234 O 0.90623 0.76086 0.69691 0.0
O235 O 0.94203 0.76963 0.72125 0.0
O236 O -0.00017 0.77771 0.69867 0.0
O237 O 0.98241 0.74069 0.67242 0.0
C238 C 0.92958 0.73031 0.7794 0.0
C239 C -0.00187 0.76345 0.67346 0.0
Dy240 Dy 0.72373 0.46716 0.21211 0.0
C241 C 0.81326 0.48575 0.29741 0.0
C242 C 0.68142 0.47043 0.16843 0.0
Dy243 Dy 0.76584 0.48051 0.26218 0.0
O244 O 0.71104 0.46228 0.1639 0.0
O245 O 0.6748 0.47642 0.19704 0.0
O246 O 0.75071 0.41938 0.21068 0.0
O247 O 0.77262 0.45556 0.22099 0.0
C248 C 0.77584 0.42686 0.21944 0.0
C249 C 0.70598 0.50511 0.2687 0.0
O250 O 0.77607 0.51615 0.22452 0.0
O251 O 0.74389 0.50627 0.18728 0.0
O252 O 0.78794 0.50578 0.29469 0.0
O253 O 0.81277 0.46293 0.28079 0.0
O254 O 0.72361 0.49608 0.29191 0.0
O255 O 0.72184 0.50252 0.24378 0.0
O256 O 0.70714 0.43994 0.25412 0.0
O257 O 0.75054 0.43718 0.28298 0.0
C258 C 0.76411 0.5219 0.19681 0.0
C259 C 0.72426 0.42821 0.27795 0.0
Dy260 Dy 0.73553 0.73467 0.00499 0.0
C261 C 0.79744 0.82143 0.05108 0.0
C262 C 0.71281 0.68787 0.98375 0.0
Dy263 Dy 0.77393 0.77316 0.03383 0.0
O264 O 0.71905 0.71191 0.96678 0.0
O265 O 0.71847 0.68964 0.01239 0.0
O266 O 0.70538 0.77747 0.98507 0.0
O267 O 0.75255 0.77717 0.98946 0.0
C268 C 0.72731 0.7938 0.98206 0.0
C269 C 0.78063 0.71422 0.05793 0.0
O270 O 0.72864 0.78521 0.0606 0.0
O271 O 0.70121 0.75094 0.04195 0.0
O272 O 0.81105 0.79277 0.05395 0.0
O273 O 0.77074 0.82357 0.03928 0.0
O274 O 0.80291 0.7301 0.0559 0.0
O275 O 0.7562 0.73136 0.0494 0.0
O276 O 0.78305 0.71839 0.98442 0.0
O277 O 0.80209 0.76251 0.99064 0.0
C278 C 0.70354 0.77254 0.06036 0.0
C279 C 0.8037 0.73654 0.97735 0.0
Dy280 Dy 0.42705 0.97733 0.54615 0.0
C281 C 0.53821 0.025 0.5089 0.0
C282 C 0.36974 0.96269 0.54945 0.0
Dy283 Dy 0.48211 0.00862 0.52073 0.0
O284 O 0.39318 0.94698 0.56409 0.0
O285 O 0.3775 0.98685 0.53384 0.0
O286 O 0.45524 0.95027 0.58465 0.0
O287 O 0.46458 -0.00687 0.56571 0.0
C288 C 0.47429 0.96982 0.5834 0.0
C289 C 0.43487 0.01581 0.48346 0.0
O290 O 0.4988 0.95988 0.50896 0.0
O291 O 0.4525 0.94152 0.51636 0.0
O292 O 0.5121 0.04251 0.50242 0.0
O293 O 0.53382 -0.00156 0.52205 0.0
O294 O 0.4535 0.03555 0.48285 0.0
O295 O 0.4449 -0.00759 0.50091 0.0
O296 O 0.41136 0.0256 0.56072 0.0
O297 O 0.45807 0.04334 0.55195 0.0
C298 C 0.48193 0.93826 0.50663 0.0
C299 C 0.42876 0.04706 0.56208 0.0
Dy300 Dy 0.45999 0.50709 0.99362 0.0
C301 C 0.55371 0.57326 0.94246 0.0
C302 C 0.40935 0.48215 0.0124 0.0
Dy303 Dy 0.50315 0.54931 0.9634 0.0
O304 O 0.43757 0.46735 0.0125 0.0
O305 O 0.40871 0.5109 0.00248 0.0
O306 O 0.49972 0.47329 0.01333 0.0
O307 O 0.50246 0.52013 0.00636 0.0
C308 C 0.51755 0.49373 0.01352 0.0
C309 C 0.44569 0.56127 0.94286 0.0
O310 O 0.5169 0.50806 0.93613 0.0
O311 O 0.4747 0.48428 0.95 0.0
O312 O 0.52585 0.58888 0.94431 0.0
O313 O 0.55389 0.54452 0.95196 0.0
O314 O 0.46289 0.58228 0.94276 0.0
O315 O 0.4614 0.53539 0.95047 0.0
O316 O 0.44906 0.547 0.02375 0.0
O317 O 0.49086 0.57081 0.00788 0.0
C318 C 0.50038 0.48638 0.93301 0.0
C319 C 0.46644 0.56816 0.02661 0.0
C320 C -0.00388 0.09433 0.01421 0.0
C321 C 0.97926 0.07236 0.00639 0.0
C322 C 0.98746 0.11068 0.04033 0.0
C323 C 0.9615 0.10465 0.05914 0.0
C324 C 0.94299 0.08436 0.05 0.0
C325 C 0.95199 0.06857 0.02355 0.0
C326 C 0.00741 0.13271 0.04902 0.0
C327 C 0.91515 0.07737 0.06944 0.0
C328 C 0.97089 0.11396 0.14333 0.0
C329 C 0.95391 0.14351 0.1464 0.0
C330 C 0.97208 0.10028 0.11541 0.0
C331 C 0.95613 0.11679 0.09 0.0
C332 C 0.93741 0.14586 0.09361 0.0
C333 C 0.93641 0.15886 0.12193 0.0
C334 C -0.0081 0.06896 0.11259 0.0
C335 C 0.92017 0.16415 0.06703 0.0
H336 H 0.01701 0.09763 0.00086 0.0
H337 H 0.93872 0.05169 0.01765 0.0
H338 H -0.00704 0.15482 0.0549 0.0
H339 H 0.02022 0.1226 0.0698 0.0
H340 H 0.0244 0.13765 0.03013 0.0
H341 H 0.90064 0.06495 0.05686 0.0
H342 H 0.92292 0.06272 0.09061 0.0
H343 H 0.90075 0.09888 0.07691 0.0
H344 H 0.98436 0.10209 0.1623 0.0
H345 H 0.9233 0.18179 0.12429 0.0
H346 H 0.01216 0.07132 0.09672 0.0
H347 H 0.97875 0.05337 0.10257 0.0
H348 H 0.00035 0.05798 0.13524 0.0
H349 H 0.93687 0.17291 0.04987 0.0
H350 H 0.90338 0.18415 0.07473 0.0
H351 H 0.90767 0.14933 0.05508 0.0
C352 C 0.82592 0.16085 0.42061 0.0
C353 C 0.8154 0.19204 0.42514 0.0
C354 C 0.85041 0.15215 0.39937 0.0
C355 C 0.86389 0.17533 0.38191 0.0
C356 C 0.85375 0.2068 0.38692 0.0
C357 C 0.82983 0.21472 0.40875 0.0
C358 C 0.86124 0.11839 0.39507 0.0
C359 C 0.86743 0.23229 0.36853 0.0
C360 C 0.94075 0.16979 0.33976 0.0
C361 C 0.9317 0.17367 0.30916 0.0
C362 C 0.91928 0.16617 0.36418 0.0
C363 C 0.88807 0.16747 0.35756 0.0
C364 C 0.87956 0.16813 0.32659 0.0
C365 C 0.90175 0.17092 0.30256 0.0
C366 C 0.92937 0.16444 0.39695 0.0
C367 C 0.84642 0.16975 0.31866 0.0
H368 H 0.81481 0.14328 0.43343 0.0
H369 H 0.82157 0.23888 0.41197 0.0
H370 H 0.85389 0.11313 0.37251 0.0
H371 H 0.88679 0.11266 0.39474 0.0
H372 H 0.85165 0.10325 0.41359 0.0
H373 H 0.85657 0.25558 0.37514 0.0
H374 H 0.89253 0.22914 0.37204 0.0
H375 H 0.86447 0.23141 0.34349 0.0
H376 H 0.96421 0.17142 0.34465 0.0
H377 H 0.89493 0.1739 0.27877 0.0
H378 H 0.91744 0.1484 0.41236 0.0
H379 H 0.92326 0.18763 0.40574 0.0
H380 H 0.95469 0.1568 0.39833 0.0
H381 H 0.83529 0.15316 0.33415 0.0
H382 H 0.84448 0.16493 0.29431 0.0
H383 H 0.83342 0.19324 0.32195 0.0
C384 C 0.70851 0.07333 0.65868 0.0
C385 C 0.73323 0.06531 0.6785 0.0
C386 C 0.70932 0.09546 0.63339 0.0
C387 C 0.73541 0.11009 0.62784 0.0
C388 C 0.7607 0.10163 0.6473 0.0
C389 C 0.75932 0.07936 0.67236 0.0
C390 C 0.6818 0.10386 0.61328 0.0
C391 C 0.78898 0.11663 0.64205 0.0
C392 C 0.75028 0.15186 0.54938 0.0
C393 C 0.73981 0.18272 0.55517 0.0
C394 C 0.74832 0.12788 0.5726 0.0
C395 C 0.73593 0.13503 0.60238 0.0
C396 C 0.72488 0.16618 0.60815 0.0
C397 C 0.72702 0.18967 0.58446 0.0
C398 C 0.75977 0.09493 0.56538 0.0
C399 C 0.71111 0.17474 0.63946 0.0
H400 H 0.68817 0.06273 0.66317 0.0
H401 H 0.77856 0.07338 0.68744 0.0
H402 H 0.66885 0.12686 0.61843 0.0
H403 H 0.68922 0.10541 0.58844 0.0
H404 H 0.66588 0.0869 0.61727 0.0
H405 H 0.80713 0.10673 0.65858 0.0
H406 H 0.79881 0.11386 0.61818 0.0
H407 H 0.78253 0.14176 0.6445 0.0
H408 H 0.76038 0.14647 0.52677 0.0
H409 H 0.71868 0.21353 0.58889 0.0
H410 H 0.74123 0.08103 0.57079 0.0
H411 H 0.77931 0.08455 0.58006 0.0
H412 H 0.76753 0.09318 0.54073 0.0
H413 H 0.69148 0.16255 0.64608 0.0
H414 H 0.70279 0.19996 0.63991 0.0
H415 H 0.72858 0.16732 0.65721 0.0
C416 C 0.95397 0.00207 0.89124 0.0
C417 C 0.96838 0.02787 0.89109 0.0
C418 C 0.92719 0.00345 0.8752 0.0
C419 C 0.91486 0.0312 0.85798 0.0
C420 C 0.92968 0.05721 0.85711 0.0
C421 C 0.9563 0.05529 0.8739 0.0
C422 C 0.91198 0.97524 0.87695 0.0
C423 C 0.91733 0.087 0.83857 0.0
C424 C 0.85993 0.02096 0.79759 0.0
C425 C 0.83133 0.02906 0.8132 0.0
C426 C 0.8874 0.02293 0.81134 0.0
C427 C 0.88606 0.03284 0.8415 0.0
C428 C 0.85715 0.04173 0.85701 0.0
C429 C 0.83007 0.0399 0.84256 0.0
C430 C 0.91783 0.01349 0.79403 0.0
C431 C 0.85485 0.05193 0.88938 0.0
H432 H 0.96371 0.98062 0.90391 0.0
H433 H 0.96761 0.07517 0.87362 0.0
H434 H 0.88783 0.98093 0.8862 0.0
H435 H 0.91117 0.96762 0.85349 0.0
H436 H 0.92429 0.95568 0.8919 0.0
H437 H 0.93215 0.10473 0.83945 0.0
H438 H 0.91556 0.08268 0.81408 0.0
H439 H 0.89376 0.09638 0.84748 0.0
H440 H 0.86086 0.01273 0.77479 0.0
H441 H 0.80791 0.04618 0.85461 0.0
H442 H 0.93067 -0.00794 0.80577 0.0
H443 H 0.9323 0.03161 0.79403 0.0
H444 H 0.91478 0.00925 0.76973 0.0
H445 H 0.86519 0.03244 0.9056 0.0
H446 H 0.8306 0.0599 0.89744 0.0
H447 H 0.86804 0.07091 0.89051 0.0
C448 C 0.08264 0.94139 0.03853 0.0
C449 C 0.07288 0.96872 0.02017 0.0
C450 C 0.1056 0.9398 0.05984 0.0
C451 C 0.11904 0.96616 0.06259 0.0
C452 C 0.11028 -0.00664 0.04301 0.0
C453 C 0.08708 -0.00563 0.02215 0.0
C454 C 0.11464 0.91032 0.08018 0.0
C455 C 0.12437 0.02182 0.04496 0.0
C456 C 0.14941 0.97409 0.14046 0.0
C457 C 0.1812 0.96518 0.135 0.0
C458 C 0.12893 0.97469 0.11694 0.0
C459 C 0.14063 0.96594 0.08743 0.0
C460 C 0.17276 0.95691 0.08181 0.0
C461 C 0.19273 0.95668 0.10575 0.0
C462 C 0.09479 0.98484 0.12362 0.0
C463 C 0.18598 0.94759 0.05056 0.0
H464 H 0.07173 0.92152 0.03689 0.0
H465 H 0.0795 0.01558 0.00798 0.0
H466 H 0.14005 0.90292 0.07897 0.0
H467 H 0.10766 0.91438 0.1046 0.0
H468 H 0.1037 0.89126 0.07356 0.0
H469 H 0.11786 0.03958 0.02556 0.0
H470 H 0.11651 0.03204 0.06703 0.0
H471 H 0.14989 0.0158 0.04483 0.0
H472 H 0.14055 0.98089 0.16305 0.0
H473 H 0.21739 0.94992 0.10154 0.0
H474 H 0.08216 0.96607 0.1197 0.0
H475 H 0.08586 0.00507 0.10759 0.0
H476 H 0.08952 0.99115 0.14774 0.0
H477 H 0.17638 0.92751 0.04443 0.0
H478 H 0.21155 0.94141 0.04995 0.0
H479 H 0.17927 0.9667 0.03252 0.0
C480 C 0.05015 0.37697 0.42803 0.0
C481 C 0.02661 0.37642 0.45116 0.0
C482 C 0.05331 0.35711 0.40423 0.0
C483 C 0.03269 0.33604 0.40385 0.0
C484 C 0.01061 0.33364 0.42856 0.0
C485 C 0.00776 0.35395 0.45186 0.0
C486 C 0.07715 0.36037 0.37829 0.0
C487 C -0.01148 0.31109 0.42929 0.0
C488 C 0.00878 0.31424 0.32779 0.0
C489 C 0.02553 0.28431 0.32648 0.0
C490 C 0.01181 0.33175 0.35234 0.0
C491 C 0.03188 0.31883 0.37624 0.0
C492 C 0.0496 0.28896 0.37448 0.0
C493 C 0.04629 0.27207 0.34949 0.0
C494 C -0.00728 0.36368 0.35322 0.0
C495 C 0.07104 0.27437 0.39961 0.0
H496 H 0.06477 0.39433 0.42723 0.0
H497 H -0.01031 0.35321 0.46982 0.0
H498 H 0.08988 0.33741 0.3727 0.0
H499 H 0.06542 0.37143 0.35719 0.0
H500 H 0.09399 0.37467 0.38403 0.0
H501 H 0.97529 0.30955 0.45177 0.0
H502 H 0.9719 0.31847 0.41073 0.0
H503 H 0.00116 0.28775 0.42488 0.0
H504 H -0.00726 0.32373 0.30998 0.0
H505 H 0.0592 0.24885 0.34853 0.0
H506 H 0.00775 0.38071 0.35626 0.0
H507 H 0.9759 0.36415 0.37327 0.0
H508 H 0.97981 0.37111 0.33186 0.0
H509 H 0.08683 0.29016 0.40427 0.0
H510 H 0.08506 0.25208 0.39354 0.0
H511 H 0.05738 0.27018 0.42136 0.0
C512 C 0.63764 0.23483 0.54634 0.0
C513 C 0.64855 0.25671 0.5251 0.0
C514 C 0.6145 0.24375 0.56863 0.0
C515 C 0.60136 0.27533 0.56929 0.0
C516 C 0.6112 0.29746 0.54705 0.0
C517 C 0.6351 0.28791 0.52537 0.0
C518 C 0.60507 0.21943 0.5923 0.0
C519 C 0.59708 0.3312 0.54669 0.0
C520 C 0.52793 0.28303 0.61898 0.0
C521 C 0.53887 0.2875 0.64747 0.0
C522 C 0.54739 0.2822 0.59229 0.0
C523 C 0.57867 0.28477 0.5946 0.0
C524 C 0.58927 0.29116 0.62299 0.0
C525 C 0.56902 0.2929 0.64908 0.0
C526 C 0.53505 0.27634 0.56219 0.0
C527 C 0.62267 0.29328 0.62657 0.0
H528 H 0.64815 0.21069 0.5465 0.0
H529 H 0.64344 0.30484 0.50888 0.0
H530 H 0.60971 0.22468 0.61585 0.0
H531 H 0.57996 0.21948 0.59168 0.0
H532 H 0.61758 0.19587 0.58841 0.0
H533 H 0.60447 0.34475 0.52564 0.0
H534 H 0.57153 0.33409 0.54795 0.0
H535 H 0.604 0.34094 0.56725 0.0
H536 H 0.5044 0.2793 0.61776 0.0
H537 H 0.57745 0.29626 0.6712 0.0
H538 H 0.54311 0.25189 0.55752 0.0
H539 H 0.54375 0.29096 0.54268 0.0
H540 H 0.50942 0.28091 0.56281 0.0
H541 H 0.63706 0.27009 0.62513 0.0
H542 H 0.62637 0.30177 0.64906 0.0
H543 H 0.63091 0.30883 0.60765 0.0
C544 C 0.72438 0.95067 0.87119 0.0
C545 C 0.71229 0.9464 0.84316 0.0
C546 C 0.72571 0.92785 0.8961 0.0
C547 C 0.71585 0.89967 0.89238 0.0
C548 C 0.70346 0.8954 0.8641 0.0
C549 C 0.70134 0.91906 0.84002 0.0
C550 C 0.73815 0.93368 0.92618 0.0
C551 C 0.69367 0.86534 0.85879 0.0
C552 C 0.75044 0.82754 0.94155 0.0
C553 C 0.72531 0.82245 0.96142 0.0
C554 C 0.7478 0.85279 0.91917 0.0
C555 C 0.71967 0.87406 0.91744 0.0
C556 C 0.69475 0.86982 0.93858 0.0
C557 C 0.69768 0.84368 0.95996 0.0
C558 C 0.77464 0.85588 0.89652 0.0
C559 C 0.66481 0.89254 0.9382 0.0
H560 H 0.73289 0.97184 0.87357 0.0
H561 H 0.69252 0.91553 0.81814 0.0
H562 H 0.72193 0.92876 0.94577 0.0
H563 H 0.76038 0.91796 0.93023 0.0
H564 H 0.74197 0.95784 0.92632 0.0
H565 H 0.68444 0.86576 0.83552 0.0
H566 H 0.71368 0.84621 0.86121 0.0
H567 H 0.67572 0.86009 0.87645 0.0
H568 H 0.77175 0.81094 0.9425 0.0
H569 H 0.67833 0.83975 0.97548 0.0
H570 H 0.78179 0.87855 0.89753 0.0
H571 H 0.76754 0.8549 0.87263 0.0
H572 H 0.79489 0.8374 0.90109 0.0
H573 H 0.66937 0.91637 0.93868 0.0
H574 H 0.64891 0.88762 0.9581 0.0
H575 H 0.65305 0.89172 0.91654 0.0
C576 C 0.14856 0.28279 0.05865 0.0
C577 C 0.16869 0.25516 0.0537 0.0
C578 C 0.12363 0.28325 0.08025 0.0
C579 C 0.11918 0.25551 0.09746 0.0
C580 C 0.13908 0.22745 0.0921 0.0
C581 C 0.16349 0.22759 0.07007 0.0
C582 C 0.10247 0.31344 0.08511 0.0
C583 C 0.13515 0.1974 0.11023 0.0
C584 C 0.07662 0.25432 0.17553 0.0
C585 C 0.04934 0.24527 0.16808 0.0
C586 C 0.09918 0.25928 0.1524 0.0
C587 C 0.09386 0.25551 0.12131 0.0
C588 C 0.06537 0.24858 0.11351 0.0
C589 C 0.04349 0.24333 0.13708 0.0
C590 C 0.12946 0.26646 0.16148 0.0
C591 C 0.05873 0.24483 0.08054 0.0
H592 H 0.15254 0.30414 0.04597 0.0
H593 H 0.17922 0.20623 0.06659 0.0
H594 H 0.07816 0.31115 0.0823 0.0
H595 H 0.10406 0.31958 0.10903 0.0
H596 H 0.10819 0.33264 0.06872 0.0
H597 H 0.15267 0.17764 0.10316 0.0
H598 H 0.13702 0.19938 0.13527 0.0
H599 H 0.11188 0.19226 0.10706 0.0
H600 H 0.08113 0.25572 0.19954 0.0
H601 H 0.02214 0.23672 0.1313 0.0
H602 H 0.13567 0.28645 0.14665 0.0
H603 H 0.14806 0.24641 0.15796 0.0
H604 H 0.12879 0.2716 0.18605 0.0
H605 H 0.0646 0.26443 0.06487 0.0
H606 H 0.03415 0.24329 0.07796 0.0
H607 H 0.07327 0.22346 0.07289 0.0
C608 C 0.70234 0.37959 0.28861 0.0
C609 C 0.71449 0.40354 0.29956 0.0
C610 C 0.69687 0.35399 0.30861 0.0
C611 C 0.70286 0.35285 0.34041 0.0
C612 C 0.71333 0.37799 0.35179 0.0
C613 C 0.71951 0.40275 0.33115 0.0
C614 C 0.6866 0.32733 0.29535 0.0
C615 C 0.71935 0.37814 0.38559 0.0
C616 C 0.67518 0.29304 0.39968 0.0
C617 C 0.70278 0.27246 0.40483 0.0
C618 C 0.67451 0.31916 0.37825 0.0
C619 C 0.7019 0.32408 0.36112 0.0
C620 C 0.7294 0.30234 0.36531 0.0
C621 C 0.72959 0.27716 0.38742 0.0
C622 C 0.64497 0.34219 0.37502 0.0
C623 C 0.75897 0.30612 0.34711 0.0
H624 H 0.69872 0.38007 0.26413 0.0
H625 H 0.72867 0.42141 0.33968 0.0
H626 H 0.70573 0.30724 0.29609 0.0
H627 H 0.66684 0.32015 0.30937 0.0
H628 H 0.67982 0.33307 0.27102 0.0
H629 H 0.72342 0.401 0.39138 0.0
H630 H 0.69957 0.37185 0.40025 0.0
H631 H 0.73998 0.36069 0.3916 0.0
H632 H 0.65455 0.28952 0.41339 0.0
H633 H 0.75095 0.2611 0.39127 0.0
H634 H 0.63933 0.34722 0.35036 0.0
H635 H 0.64798 0.36424 0.38371 0.0
H636 H 0.6252 0.33392 0.38813 0.0
H637 H 0.75481 0.31013 0.32203 0.0
H638 H 0.77743 0.28562 0.35089 0.0
H639 H 0.76744 0.32655 0.354 0.0
C640 C 0.50509 0.94594 0.62876 0.0
C641 C 0.49926 0.96912 0.60457 0.0
C642 C 0.52811 0.94645 0.6496 0.0
C643 C 0.54565 0.97057 0.64582 0.0
C644 C 0.53991 -0.00615 0.62123 0.0
C645 C 0.51672 -0.00713 0.601 0.0
C646 C 0.53367 0.9213 0.67563 0.0
C647 C 0.55831 0.01978 0.61616 0.0
C648 C 0.58983 0.99159 0.71061 0.0
C649 C 0.62005 0.97828 0.70215 0.0
C650 C 0.56504 0.98825 0.69316 0.0
C651 C 0.57082 0.97118 0.66678 0.0
C652 C 0.60123 0.95689 0.65883 0.0
C653 C 0.62549 0.96064 0.67663 0.0
C654 C 0.53288 0.00391 0.70223 0.0
C655 C 0.60835 0.9387 0.63076 0.0
H656 H 0.49148 0.92765 0.63158 0.0
H657 H 0.51219 0.0109 0.58234 0.0
H658 H 0.55772 0.90864 0.67364 0.0
H659 H 0.53086 0.93158 0.69816 0.0
H660 H 0.51766 0.90453 0.67572 0.0
H661 H 0.5509 0.03601 0.59583 0.0
H662 H 0.55582 0.03296 0.63692 0.0
H663 H 0.58317 0.01022 0.6126 0.0
H664 H 0.58566 0.00523 0.73039 0.0
H665 H 0.64889 0.95023 0.67013 0.0
H666 H 0.51668 0.98725 0.7036 0.0
H667 H 0.52468 0.02267 0.68431 0.0
H668 H 0.5319 0.01398 0.7248 0.0
H669 H 0.59341 0.92094 0.63132 0.0
H670 H 0.63284 0.92712 0.62913 0.0
H671 H 0.60339 0.95436 0.60951 0.0
C672 C 0.0658 0.92965 0.8709 0.0
C673 C 0.05483 0.92216 0.90105 0.0
C674 C 0.06474 0.91009 0.84748 0.0
C675 C 0.05268 0.88254 0.85471 0.0
C676 C 0.04504 0.87332 0.88584 0.0
C677 C 0.04612 0.89335 0.90865 0.0
C678 C 0.0735 0.9205 0.81463 0.0
C679 C 0.0326 0.84384 0.89465 0.0
C680 C 0.0016 0.85558 0.80011 0.0
C681 C 0.02059 0.82908 0.7903 0.0
C682 C 0.01249 0.87423 0.81973 0.0
C683 C 0.04308 0.866 0.82981 0.0
C684 C 0.06289 0.84019 0.81856 0.0
C685 C 0.05136 0.82197 0.79886 0.0
C686 C -0.00932 0.90179 0.83099 0.0
C687 C 0.09562 0.83083 0.82867 0.0
H688 H 0.07246 0.952 0.86495 0.0
H689 H 0.03792 0.88745 0.93208 0.0
H690 H 0.08588 0.9008 0.80222 0.0
H691 H 0.05225 0.93028 0.80217 0.0
H692 H 0.08822 0.93853 0.81368 0.0
H693 H 0.03196 0.83794 0.92005 0.0
H694 H 0.00879 0.84652 0.8866 0.0
H695 H 0.04681 0.8243 0.88335 0.0
H696 H 0.97787 0.86119 0.7933 0.0
H697 H 0.06611 0.80149 0.79114 0.0
H698 H 0.00155 0.9227 0.82745 0.0
H699 H 0.98546 0.89767 0.85616 0.0
H700 H 0.96859 0.90648 0.81897 0.0
H701 H 0.10724 0.85119 0.8278 0.0
H702 H 0.1094 0.81351 0.8141 0.0
H703 H 0.09544 0.82065 0.85297 0.0
C704 C 0.13193 0.0769 0.93237 0.0
C705 C 0.13144 0.04552 0.9397 0.0
C706 C 0.15607 0.09032 0.94135 0.0
C707 C 0.18067 0.07169 0.95748 0.0
C708 C 0.1812 0.03955 0.96333 0.0
C709 C 0.1563 0.02687 0.95466 0.0
C710 C 0.15437 0.12478 0.93498 0.0
C711 C 0.20714 0.01872 0.97995 0.0
C712 C 0.24514 0.11707 0.95734 0.0
C713 C 0.23792 0.13114 0.985 0.0
C714 C 0.22893 0.09451 0.94958 0.0
C715 C 0.20444 0.08678 0.96956 0.0
C716 C 0.19929 0.09864 -0.00107 0.0
C717 C 0.21643 0.12052 0.00646 0.0
C718 C 0.23618 0.08103 0.91883 0.0
C719 C 0.17357 0.09077 0.02104 0.0
H720 H 0.11263 0.09134 0.92096 0.0
H721 H 0.15584 0.00257 0.96054 0.0
H722 H 0.15374 0.13555 0.95712 0.0
H723 H 0.17518 0.12981 0.92126 0.0
H724 H 0.13367 0.13589 0.92217 0.0
H725 H 0.20889 -0.00562 0.97453 0.0
H726 H 0.22962 0.02619 0.97386 0.0
H727 H 0.20265 0.01945 0.00526 0.0
H728 H 0.26218 0.12494 0.94097 0.0
H729 H 0.21105 0.13124 0.02801 0.0
H730 H 0.21865 0.09235 0.90222 0.0
H731 H 0.23532 0.05597 0.9212 0.0
H732 H 0.25927 0.08447 0.909 0.0
H733 H 0.17461 0.09944 0.04405 0.0
H734 H 0.17454 0.06545 0.02418 0.0
H735 H 0.15099 0.10114 0.0113 0.0
C736 C 0.66448 0.53521 0.30017 0.0
C737 C 0.6766 0.52664 0.27117 0.0
C738 C 0.64065 0.56058 0.30263 0.0
C739 C 0.62877 0.57746 0.27539 0.0
C740 C 0.63888 0.567 0.24613 0.0
C741 C 0.66283 0.54163 0.24436 0.0
C742 C 0.63018 0.57088 0.33427 0.0
C743 C 0.62637 0.58409 0.2166 0.0
C744 C 0.55989 0.64116 0.28548 0.0
C745 C 0.5745 0.66674 0.28621 0.0
C746 C 0.57713 0.61191 0.28098 0.0
C747 C 0.60962 0.60838 0.27745 0.0
C748 C 0.62434 0.63437 0.2774 0.0
C749 C 0.60653 0.66329 0.28176 0.0
C750 C 0.56069 0.58477 0.28077 0.0
C751 C 0.65899 0.63152 0.27343 0.0
H752 H 0.67489 0.52334 0.32092 0.0
H753 H 0.672 0.53477 0.22188 0.0
H754 H 0.63913 0.59222 0.33755 0.0
H755 H 0.60465 0.57638 0.33648 0.0
H756 H 0.63856 0.55307 0.35303 0.0
H757 H 0.63217 0.56991 0.19658 0.0
H758 H 0.60096 0.59114 0.21884 0.0
H759 H 0.63647 0.60539 0.21165 0.0
H760 H 0.53504 0.64388 0.28895 0.0
H761 H 0.61775 0.68317 0.28207 0.0
H762 H 0.56626 0.56876 0.30166 0.0
H763 H 0.56865 0.57171 0.26036 0.0
H764 H 0.53525 0.592 0.28044 0.0
H765 H 0.67012 0.61607 0.29269 0.0
H766 H 0.66666 0.65417 0.27297 0.0
H767 H 0.66732 0.62103 0.25161 0.0
C768 C 0.23136 0.87711 0.51847 0.0
C769 C 0.24354 0.85933 0.49416 0.0
C770 C 0.24603 0.90059 0.52673 0.0
C771 C 0.27384 0.90558 0.51078 0.0
C772 C 0.28446 0.8897 0.48431 0.0
C773 C 0.2689 0.86688 0.4761 0.0
C774 C 0.23323 0.91822 0.55407 0.0
C775 C 0.31394 0.89455 0.46652 0.0
C776 C 0.31942 0.96754 0.52482 0.0
C777 C 0.34152 0.95079 0.54466 0.0
C778 C 0.29574 0.95385 0.51501 0.0
C779 C 0.29473 0.92262 0.52487 0.0
C780 C 0.31595 0.9063 0.54639 0.0
C781 C 0.33893 0.92075 0.55626 0.0
C782 C 0.27318 0.97231 0.49266 0.0
C783 C 0.31582 0.87283 0.55732 0.0
H784 H 0.21134 0.87159 0.53207 0.0
H785 H 0.27806 0.85333 0.45703 0.0
H786 H 0.24694 0.90902 0.57452 0.0
H787 H 0.23489 0.94301 0.54941 0.0
H788 H 0.20877 0.91616 0.55991 0.0
H789 H 0.31725 0.88281 0.44476 0.0
H790 H 0.31405 0.91949 0.46075 0.0
H791 H 0.3339 0.88532 0.48108 0.0
H792 H 0.32143 0.99085 0.51583 0.0
H793 H 0.35604 0.90782 0.57159 0.0
H794 H 0.24995 0.96592 0.49659 0.0
H795 H 0.28142 0.96762 0.46868 0.0
H796 H 0.27117 -0.00251 0.49455 0.0
H797 H 0.29277 0.86988 0.5675 0.0
H798 H 0.33325 0.86386 0.57485 0.0
H799 H 0.32074 0.85852 0.53736 0.0
C800 C 0.01683 0.65253 0.77817 0.0
C801 C 0.01867 0.67239 0.75141 0.0
C802 C 0.03758 0.62465 0.78209 0.0
C803 C 0.06145 0.61751 0.75934 0.0
C804 C 0.06173 0.63639 0.73115 0.0
C805 C 0.03983 0.66349 0.7273 0.0
C806 C 0.03559 0.60427 0.81172 0.0
C807 C 0.08714 0.62993 0.70655 0.0
C808 C 0.14008 0.58306 0.78869 0.0
C809 C 0.14476 0.55366 0.77807 0.0
C810 C 0.11273 0.60383 0.78313 0.0
C811 C 0.08915 0.59447 0.76746 0.0
C812 C 0.09307 0.56404 0.75838 0.0
C813 C 0.12126 0.54412 0.76324 0.0
C814 C 0.1098 0.6363 0.79263 0.0
C815 C 0.06806 0.55284 0.74267 0.0
H816 H 8e-05 0.65947 0.79661 0.0
H817 H 0.04112 0.67907 0.70664 0.0
H818 H 0.04062 0.57954 0.80715 0.0
H819 H 0.05299 0.6082 0.8276 0.0
H820 H 0.01245 0.60926 0.82361 0.0
H821 H 0.08203 0.64465 0.68469 0.0
H822 H 0.10902 0.63445 0.71501 0.0
H823 H 0.09091 0.6054 0.70151 0.0
H824 H 0.15858 0.59046 0.79976 0.0
H825 H 0.12502 0.52127 0.75518 0.0
H826 H 0.0895 0.64151 0.80878 0.0
H827 H 0.10615 0.65312 0.77201 0.0
H828 H 0.13057 0.63992 0.80407 0.0
H829 H 0.0451 0.56078 0.75386 0.0
H830 H 0.0721 0.52726 0.74308 0.0
H831 H 0.06745 0.56244 0.71819 0.0
C832 C 0.81379 0.33008 0.48125 0.0
C833 C 0.78219 0.33178 0.48771 0.0
C834 C 0.8283 0.35478 0.48585 0.0
C835 C 0.81083 0.38131 0.49832 0.0
C836 C 0.77854 0.38367 0.50363 0.0
C837 C 0.76443 0.35883 0.49783 0.0
C838 C 0.86265 0.35176 0.47877 0.0
C839 C 0.75922 0.41131 0.5173 0.0
C840 C 0.8674 0.41258 0.54129 0.0
C841 C 0.87726 0.43332 0.51824 0.0
C842 C 0.84226 0.3984 0.53683 0.0
C843 C 0.82753 0.40461 0.50832 0.0
C844 C 0.83499 0.42842 0.48672 0.0
C845 C 0.85978 0.4428 0.4921 0.0
C846 C 0.834 0.37408 0.56102 0.0
C847 C 0.8195 0.436 0.45627 0.0
H848 H 0.82728 0.30915 0.47304 0.0
H849 H 0.73991 0.35987 0.50288 0.0
H850 H 0.87483 0.34993 0.50064 0.0
H851 H 0.87205 0.33108 0.46626 0.0
H852 H 0.86794 0.3725 0.46453 0.0
H853 H 0.73444 0.41328 0.51255 0.0
H854 H 0.7614 0.40878 0.54274 0.0
H855 H 0.76714 0.43303 0.50831 0.0
H856 H 0.88061 0.40581 0.56181 0.0
H857 H 0.86719 0.45928 0.47446 0.0
H858 H 0.8442 0.35087 0.55378 0.0
H859 H 0.80862 0.3754 0.56355 0.0
H860 H 0.8429 0.37645 0.58387 0.0
H861 H 0.82989 0.41861 0.44011 0.0
H862 H 0.82253 0.45918 0.4456 0.0
H863 H 0.7945 0.43519 0.45913 0.0
C864 C 0.34104 0.92589 0.24773 0.0
C865 C 0.32825 0.92145 0.2202 0.0
C866 C 0.36594 0.90462 0.25972 0.0
C867 C 0.3782 0.87856 0.24348 0.0
C868 C 0.36645 0.87511 0.21465 0.0
C869 C 0.34135 0.89646 0.20356 0.0
C870 C 0.37747 0.90894 0.29071 0.0
C871 C 0.37913 0.84785 0.19635 0.0
C872 C 0.45266 0.823 0.25657 0.0
C873 C 0.4411 0.79684 0.2693 0.0
C874 C 0.43265 0.85113 0.25045 0.0
C875 C 0.40069 0.85287 0.25768 0.0
C876 C 0.38965 0.82736 0.27376 0.0
C877 C 0.41002 0.79947 0.27909 0.0
C878 C 0.44529 0.87798 0.23369 0.0
C879 C 0.35584 0.82859 0.28279 0.0
H880 H 0.33028 0.94466 0.26096 0.0
H881 H 0.33129 0.89309 0.18225 0.0
H882 H 0.36776 0.89348 0.30878 0.0
H883 H 0.40297 0.90276 0.29093 0.0
H884 H 0.37034 0.93305 0.29699 0.0
H885 H 0.36945 0.85023 0.17308 0.0
H886 H 0.40462 0.84509 0.19353 0.0
H887 H 0.37352 0.82642 0.20903 0.0
H888 H 0.47685 0.82096 0.24932 0.0
H889 H 0.40131 0.77927 0.28956 0.0
H890 H 0.43464 0.89994 0.24339 0.0
H891 H 0.43959 0.87996 0.209 0.0
H892 H 0.47075 0.875 0.23493 0.0
H893 H 0.34617 0.85034 0.29334 0.0
H894 H 0.3519 0.80881 0.29936 0.0
H895 H 0.34289 0.82801 0.26182 0.0
C896 C 0.30298 0.43073 0.74331 0.0
C897 C 0.29796 0.45933 0.72609 0.0
C898 C 0.33104 0.41058 0.74028 0.0
C899 C 0.35494 0.41993 0.72041 0.0
C900 C 0.35068 0.44988 0.70479 0.0
C901 C 0.32175 0.46905 0.70719 0.0
C902 C 0.33429 0.37857 0.75678 0.0
C903 C 0.37618 0.46122 0.68476 0.0
C904 C 0.42821 0.36248 0.73248 0.0
C905 C 0.42707 0.34323 0.70893 0.0
C906 C 0.40671 0.38977 0.73455 0.0
C907 C 0.38264 0.39685 0.71357 0.0
C908 C 0.38247 0.37835 0.68873 0.0
C909 C 0.40514 0.35204 0.68637 0.0
C910 C 0.40863 0.40983 0.76036 0.0
C911 C 0.35678 0.38464 0.66629 0.0
H912 H 0.28429 0.4234 0.75783 0.0
H913 H 0.31764 0.49142 0.69414 0.0
H914 H 0.33835 0.36108 0.73959 0.0
H915 H 0.35443 0.37417 0.77162 0.0
H916 H 0.31347 0.37514 0.77147 0.0
H917 H 0.37176 0.48676 0.68041 0.0
H918 H 0.39873 0.45386 0.69566 0.0
H919 H 0.37796 0.45121 0.66215 0.0
H920 H 0.44508 0.35568 0.75001 0.0
H921 H 0.40432 0.33723 0.66805 0.0
H922 H 0.39241 0.40446 0.77974 0.0
H923 H 0.40205 0.43464 0.75246 0.0
H924 H 0.43222 0.40581 0.7693 0.0
H925 H 0.33476 0.3813 0.67877 0.0
H926 H 0.36112 0.36915 0.64721 0.0
H927 H 0.35373 0.40886 0.65609 0.0
C928 C 0.11175 0.78718 0.52445 0.0
C929 C 0.12981 0.75772 0.52354 0.0
C930 C 0.08724 0.79282 0.54647 0.0
C931 C 0.08123 0.76854 0.56829 0.0
C932 C 0.09886 0.73859 0.56687 0.0
C933 C 0.1227 0.7335 0.54432 0.0
C934 C 0.06846 0.82486 0.54703 0.0
C935 C 0.09342 0.71213 0.58998 0.0
C936 C 0.04516 0.7804 0.64815 0.0
C937 C 0.01677 0.77111 0.64556 0.0
C938 C 0.06579 0.78175 0.62245 0.0
C939 C 0.0574 0.77419 0.59356 0.0
C940 C 0.02765 0.7675 0.59032 0.0
C941 C 0.00776 0.76571 0.61649 0.0
C942 C 0.0975 0.78863 0.62685 0.0
C943 C 0.01767 0.75992 0.55976 0.0
H944 H 0.11716 0.80595 0.50839 0.0
H945 H 0.13668 0.71071 0.54397 0.0
H946 H 0.04346 0.8239 0.54778 0.0
H947 H 0.07303 0.83516 0.56821 0.0
H948 H 0.07398 0.8403 0.5266 0.0
H949 H 0.10899 0.69017 0.58537 0.0
H950 H 0.09716 0.71769 0.61367 0.0
H951 H 0.06921 0.7085 0.58957 0.0
H952 H 0.05216 0.78451 0.67064 0.0
H953 H 0.98557 0.75895 0.6144 0.0
H954 H 0.10377 0.80569 0.6083 0.0
H955 H 0.11481 0.76718 0.62541 0.0
H956 H 0.09908 0.79766 0.64959 0.0
H957 H 0.02419 0.77636 0.5407 0.0
H958 H -0.00762 0.76045 0.55989 0.0
H959 H 0.02955 0.73647 0.55474 0.0
C960 C 0.26337 0.89295 0.31396 0.0
C961 C 0.24221 0.90445 0.29098 0.0
C962 C 0.2585 0.86847 0.33566 0.0
C963 C 0.23173 0.85513 0.33454 0.0
C964 C 0.21042 0.86643 0.31127 0.0
C965 C 0.21595 0.89086 0.28973 0.0
C966 C 0.282 0.85693 0.35986 0.0
C967 C 0.18164 0.85279 0.30924 0.0
C968 C 0.23196 0.7741 0.37306 0.0
C969 C 0.21543 0.78007 0.40103 0.0
C970 C 0.23747 0.79828 0.35127 0.0
C971 C 0.22613 0.82923 0.35756 0.0
C972 C 0.20946 0.83538 0.38586 0.0
C973 C 0.20426 0.8107 0.40723 0.0
C974 C 0.25561 0.7907 0.32158 0.0
C975 C 0.19728 0.86802 0.39364 0.0
H976 H 0.2839 0.90306 0.31503 0.0
H977 H 0.19944 0.89956 0.27215 0.0
H978 H 0.27095 0.85942 0.3833 0.0
H979 H 0.29104 0.83202 0.35821 0.0
H980 H 0.30174 0.86959 0.35741 0.0
H981 H 0.16738 0.8641 0.28979 0.0
H982 H 0.18796 0.82777 0.3062 0.0
H983 H 0.16743 0.85513 0.33111 0.0
H984 H 0.24084 0.75045 0.36825 0.0
H985 H 0.19155 0.81541 0.42887 0.0
H986 H 0.27661 0.80145 0.31964 0.0
H987 H 0.2416 0.80038 0.30147 0.0
H988 H 0.26273 0.76544 0.32014 0.0
H989 H 0.21663 0.88096 0.39373 0.0
H990 H 0.18471 0.8689 0.41654 0.0
H991 H 0.18147 0.88006 0.37572 0.0
C992 C 0.92792 0.66312 0.62189 0.0
C993 C 0.93824 0.6546 0.65184 0.0
C994 C 0.9316 0.64159 0.59968 0.0
C995 C 0.94591 0.61083 0.60771 0.0
C996 C 0.9552 0.60179 0.63834 0.0
C997 C 0.95125 0.62386 0.6601 0.0
C998 C 0.92139 0.65209 0.5673 0.0
C999 C 0.97041 0.56911 0.64777 0.0
C1000 C 0.9385 0.5474 0.55708 0.0
C1001 C 0.96734 0.5432 0.54103 0.0
C1002 C 0.93093 0.56976 0.57842 0.0
C1003 C 0.95263 0.58849 0.5837 0.0
C1004 C 0.9812 0.58535 0.56659 0.0
C1005 C 0.98822 0.56274 0.54546 0.0
C1006 C 0.90019 0.57254 0.59617 0.0
C1007 C 0.00483 0.60515 0.57139 0.0
H1008 H 0.91787 0.68693 0.61545 0.0
H1009 H 0.95934 0.6173 0.68324 0.0
H1010 H 0.94185 0.65057 0.551 0.0
H1011 H 0.90636 0.6368 0.55982 0.0
H1012 H 0.90869 0.67623 0.56541 0.0
H1013 H 0.97451 0.56537 0.6729 0.0
H1014 H 0.95589 0.55259 0.64188 0.0
H1015 H -0.00711 0.56369 0.6348 0.0
H1016 H 0.92215 0.53249 0.55384 0.0
H1017 H 0.01054 0.55975 0.53319 0.0
H1018 H 0.88788 0.59677 0.59396 0.0
H1019 H 0.90392 0.56608 0.6211 0.0
H1020 H 0.88517 0.55751 0.58807 0.0
H1021 H -0.00565 0.62994 0.56833 0.0
H1022 H 0.02526 0.60089 0.55514 0.0
H1023 H 0.01274 0.6004 0.59538 0.0
C1024 C 0.33027 0.69146 0.45023 0.0
C1025 C 0.31143 0.72044 0.44578 0.0
C1026 C 0.35927 0.6854 0.43477 0.0
C1027 C 0.3689 0.7086 0.41375 0.0
C1028 C 0.35007 0.73806 0.40959 0.0
C1029 C 0.3217 0.74374 0.42603 0.0
C1030 C 0.3792 0.65405 0.44033 0.0
C1031 C 0.35926 0.76323 0.38685 0.0
C1032 C 0.44994 0.71127 0.3823 0.0
C1033 C 0.44843 0.70237 0.35244 0.0
C1034 C 0.42501 0.71078 0.40374 0.0
C1035 C 0.39782 0.70196 0.39464 0.0
C1036 C 0.39704 0.69088 0.36525 0.0
C1037 C 0.42261 0.69088 0.34456 0.0
C1038 C 0.42695 0.72189 0.43522 0.0
C1039 C 0.36824 0.68177 0.35454 0.0
H1040 H 0.32227 0.67352 0.46566 0.0
H1041 H 0.30689 0.76604 0.42232 0.0
H1042 H 0.3809 0.64152 0.41919 0.0
H1043 H 0.40295 0.65653 0.44541 0.0
H1044 H 0.36983 0.6398 0.45978 0.0
H1045 H 0.34193 0.78485 0.38649 0.0
H1046 H 0.38177 0.76852 0.3927 0.0
H1047 H 0.36208 0.75529 0.36322 0.0
H1048 H 0.4701 0.71986 0.38848 0.0
H1049 H 0.42137 0.68416 0.32139 0.0
H1050 H 0.41694 0.70684 0.45347 0.0
H1051 H 0.41342 0.74553 0.43597 0.0
H1052 H 0.45112 0.7225 0.44063 0.0
H1053 H 0.35888 0.66582 0.37231 0.0
H1054 H 0.37251 0.67052 0.33252 0.0
H1055 H 0.35025 0.70266 0.35096 0.0
C1056 C 0.25424 0.07104 0.14465 0.0
C1057 C 0.2746 0.06131 0.16873 0.0
C1058 C 0.25522 0.09861 0.12606 0.0
C1059 C 0.27723 0.11699 0.13143 0.0
C1060 C 0.2983 0.10707 0.1552 0.0
C1061 C 0.29667 0.07941 0.17363 0.0
C1062 C 0.23222 0.1084 0.10106 0.0
C1063 C 0.32226 0.12593 0.16145 0.0
C1064 C 0.29374 0.17668 0.06644 0.0
C1065 C 0.27584 0.20377 0.07641 0.0
C1066 C 0.29493 0.14836 0.08438 0.0
C1067 C 0.27746 0.14707 0.11277 0.0
C1068 C 0.25933 0.17445 0.12288 0.0
C1069 C 0.25894 0.20249 0.10469 0.0
C1070 C 0.31453 0.11975 0.07277 0.0
C1071 C 0.2398 0.17401 0.15261 0.0
H1072 H 0.237 0.05739 0.14058 0.0
H1073 H 0.31252 0.07217 0.19208 0.0
H1074 H 0.21745 0.13069 0.10585 0.0
H1075 H 0.24444 0.11207 0.07835 0.0
H1076 H 0.21712 0.09109 0.09926 0.0
H1077 H 0.33783 0.11441 0.17982 0.0
H1078 H 0.33639 0.13019 0.14002 0.0
H1079 H 0.31073 0.14875 0.16864 0.0
H1080 H 0.30675 0.17762 0.04451 0.0
H1081 H 0.24481 0.22336 0.11231 0.0
H1082 H 0.29963 0.10304 0.06832 0.0
H1083 H 0.33074 0.10834 0.09059 0.0
H1084 H 0.32801 0.12492 0.05111 0.0
H1085 H 0.22248 0.15883 0.15133 0.0
H1086 H 0.22746 0.19737 0.1575 0.0
H1087 H 0.25443 0.16434 0.17228 0.0
C1088 C 0.8327 0.7015 0.93936 0.0
C1089 C 0.825 0.73093 0.95016 0.0
C1090 C 0.85057 0.6969 0.91178 0.0
C1091 C 0.86014 0.72249 0.89432 0.0
C1092 C 0.85252 0.7522 0.90526 0.0
C1093 C 0.83541 0.75596 0.93322 0.0
C1094 C 0.85898 0.6648 0.90118 0.0
C1095 C 0.86178 0.78022 0.88706 0.0
C1096 C 0.92741 0.7178 0.83591 0.0
C1097 C 0.9123 0.72258 0.80804 0.0
C1098 C 0.91084 0.71526 0.86426 0.0
C1099 C 0.87831 0.71862 0.86462 0.0
C1100 C 0.8631 0.72207 0.83636 0.0
C1101 C 0.88043 0.72365 0.80824 0.0
C1102 C 0.928 0.71087 0.89381 0.0
C1103 C 0.8284 0.72639 0.8358 0.0
H1104 H 0.82463 0.68212 0.9524 0.0
H1105 H 0.82917 0.77886 0.94119 0.0
H1106 H 0.84863 0.66398 0.87873 0.0
H1107 H 0.88437 0.65864 0.89747 0.0
H1108 H 0.85094 0.64717 0.91811 0.0
H1109 H 0.85348 0.80177 0.89856 0.0
H1110 H 0.88726 0.77714 0.88393 0.0
H1111 H 0.8523 0.78302 0.8637 0.0
H1112 H 0.95217 0.71692 0.83553 0.0
H1113 H 0.86888 0.72769 0.78654 0.0
H1114 H 0.91969 0.69295 0.9101 0.0
H1115 H 0.92364 0.73272 0.90526 0.0
H1116 H 0.9533 0.70412 0.88953 0.0
H1117 H 0.8195 0.70842 0.85151 0.0
H1118 H 0.82042 0.72555 0.8122 0.0
H1119 H 0.81816 0.7491 0.84419 0.0
C1120 C 0.20145 0.58424 0.65687 0.0
C1121 C 0.2238 0.57862 0.67939 0.0
C1122 C 0.20167 0.60792 0.63295 0.0
C1123 C 0.22496 0.62636 0.63124 0.0
C1124 C 0.2477 0.62072 0.65374 0.0
C1125 C 0.24677 0.59704 0.6776 0.0
C1126 C 0.17679 0.61335 0.60965 0.0
C1127 C 0.27301 0.63976 0.65262 0.0
C1128 C 0.24153 0.67081 0.5544 0.0
C1129 C 0.22647 0.70073 0.55948 0.0
C1130 C 0.24125 0.64635 0.57752 0.0
C1131 C 0.2252 0.65193 0.60624 0.0
C1132 C 0.20942 0.68205 0.61116 0.0
C1133 C 0.21043 0.7061 0.5878 0.0
C1134 C 0.25831 0.61459 0.57132 0.0
C1135 C 0.19146 0.68891 0.64111 0.0
H1136 H 0.18349 0.57029 0.65803 0.0
H1137 H 0.26421 0.59284 0.69475 0.0
H1138 H 0.16366 0.6372 0.61011 0.0
H1139 H 0.18734 0.61106 0.586 0.0
H1140 H 0.16037 0.59693 0.61414 0.0
H1141 H 0.28935 0.63205 0.67141 0.0
H1142 H 0.28612 0.63836 0.63006 0.0
H1143 H 0.26283 0.66437 0.65462 0.0
H1144 H 0.25388 0.6666 0.53247 0.0
H1145 H 0.19843 0.72916 0.59165 0.0
H1146 H 0.24217 0.59785 0.57388 0.0
H1147 H 0.27625 0.60672 0.58852 0.0
H1148 H 0.26954 0.61405 0.54777 0.0
H1149 H 0.17373 0.67391 0.64551 0.0
H1150 H 0.1798 0.71338 0.64097 0.0
H1151 H 0.20714 0.68372 0.66065 0.0
C1152 C 0.35891 -0.00159 0.32855 0.0
C1153 C 0.32671 0.00577 0.32939 0.0
C1154 C 0.37528 0.00024 0.35477 0.0
C1155 C 0.35894 0.01027 0.38207 0.0
C1156 C 0.3264 0.01805 0.38287 0.0
C1157 C 0.31063 0.01546 0.35651 0.0
C1158 C 0.40998 0.99113 0.35337 0.0
C1159 C 0.30829 0.02909 0.4115 0.0
C1160 C 0.40032 0.98908 0.45684 0.0
C1161 C 0.41276 0.01569 0.45955 0.0
C1162 C 0.38206 0.98722 0.43208 0.0
C1163 C 0.37601 0.01272 0.40976 0.0
C1164 C 0.38731 0.04018 0.41324 0.0
C1165 C 0.40572 0.04129 0.43812 0.0
C1166 C 0.37034 0.95756 0.42917 0.0
C1167 C 0.38069 0.06804 0.3902 0.0
H1168 H 0.37126 0.9907 0.3076 0.0
H1169 H 0.28566 0.02115 0.35709 0.0
H1170 H 0.42075 0.01099 0.35803 0.0
H1171 H 0.41719 0.97227 0.37153 0.0
H1172 H 0.41909 0.98327 0.33056 0.0
H1173 H 0.28308 0.03473 0.40808 0.0
H1174 H 0.31248 0.01113 0.4311 0.0
H1175 H 0.31611 0.04995 0.41824 0.0
H1176 H 0.40568 0.96928 0.47351 0.0
H1177 H 0.41519 0.06194 0.44039 0.0
H1178 H 0.38129 0.94682 0.40827 0.0
H1179 H 0.34507 0.96227 0.42631 0.0
H1180 H 0.37537 0.9407 0.44961 0.0
H1181 H 0.39173 0.06242 0.36736 0.0
H1182 H 0.38936 0.08827 0.39743 0.0
H1183 H 0.3555 0.07452 0.38714 0.0
C1184 C 0.79856 0.87765 0.0433 0.0
C1185 C 0.81327 0.84771 0.05271 0.0
C1186 C 0.8156 0.90158 0.0369 0.0
C1187 C 0.84795 0.89504 0.03968 0.0
C1188 C 0.86232 0.86554 0.05206 0.0
C1189 C 0.84467 0.84222 0.05865 0.0
C1190 C 0.79935 0.933 0.02463 0.0
C1191 C 0.89679 0.85768 0.05546 0.0
C1192 C 0.901 0.93101 0.98184 0.0
C1193 C 0.91403 0.94893 0.00047 0.0
C1194 C 0.87797 0.91468 -0.00604 0.0
C1195 C 0.86751 0.91689 0.02526 0.0
C1196 C 0.87882 0.93702 0.04336 0.0
C1197 C 0.90232 0.95261 0.0308 0.0
C1198 C 0.86643 0.89343 0.97387 0.0
C1199 C 0.8674 0.94075 0.07643 0.0
H1200 H 0.77414 0.88196 0.03898 0.0
H1201 H 0.85597 0.81909 0.0662 0.0
H1202 H 0.80931 0.95161 0.03357 0.0
H1203 H 0.80227 0.93528 -0.00095 0.0
H1204 H 0.77424 0.93641 0.03086 0.0
H1205 H 0.90383 0.83479 0.06829 0.0
H1206 H 0.90862 0.85735 0.0322 0.0
H1207 H 0.90496 0.8754 0.06769 0.0
H1208 H 0.90993 0.92845 0.95828 0.0
H1209 H 0.91218 0.96691 0.04503 0.0
H1210 H 0.84087 0.89813 0.97405 0.0
H1211 H 0.87362 0.86911 0.9832 0.0
H1212 H 0.87549 0.89591 0.94954 0.0
H1213 H 0.84194 0.94274 0.07869 0.0
H1214 H 0.87398 0.96137 0.08522 0.0
H1215 H 0.87749 0.92008 0.09133 0.0
C1216 C 0.68958 0.09425 0.50377 0.0
C1217 C 0.69417 0.10839 0.47409 0.0
C1218 C 0.66988 0.07263 0.50894 0.0
C1219 C 0.65483 0.06502 0.48366 0.0
C1220 C 0.6633 0.07561 0.45314 0.0
C1221 C 0.68284 0.09756 0.44866 0.0
C1222 C 0.66194 0.0618 0.54192 0.0
C1223 C 0.64865 0.06695 0.42552 0.0
C1224 C 0.59536 0.01258 0.50065 0.0
C1225 C 0.56826 0.03447 0.50252 0.0
C1226 C 0.62397 0.02196 0.49374 0.0
C1227 C 0.62519 0.05386 0.48958 0.0
C1228 C 0.59774 0.07593 0.49192 0.0
C1229 C 0.56957 0.0659 0.49795 0.0
C1230 C 0.65274 -0.00206 0.49086 0.0
C1231 C 0.59807 0.11025 0.4884 0.0
H1232 H 0.69905 0.10213 0.52343 0.0
H1233 H 0.68698 0.10807 0.42561 0.0
H1234 H 0.64243 0.07854 0.55108 0.0
H1235 H 0.65491 0.03884 0.54376 0.0
H1236 H 0.68179 0.06066 0.5568 0.0
H1237 H 0.66282 0.07047 0.40391 0.0
H1238 H 0.64532 0.04255 0.42865 0.0
H1239 H 0.62563 0.08167 0.42281 0.0
H1240 H 0.59412 0.98821 0.50406 0.0
H1241 H 0.54851 0.08273 0.4996 0.0
H1242 H 0.66917 0.00033 0.50844 0.0
H1243 H 0.66447 0.00151 0.46785 0.0
H1244 H 0.64767 0.97408 0.49384 0.0
H1245 H 0.61334 0.1162 0.50542 0.0
H1246 H 0.57472 0.12419 0.49184 0.0
H1247 H 0.60734 0.11701 0.46499 0.0
C1248 C 0.83206 0.41474 0.22942 0.0
C1249 C 0.8042 0.40468 0.22585 0.0
C1250 C 0.85949 0.39341 0.23351 0.0
C1251 C 0.85885 0.36153 0.23337 0.0
C1252 C 0.83044 0.35134 0.2312 0.0
C1253 C 0.80343 0.37309 0.22754 0.0
C1254 C 0.88924 0.405 0.23661 0.0
C1255 C 0.82875 0.3175 0.23102 0.0
C1256 C 0.92305 0.3055 0.19868 0.0
C1257 C 0.93277 0.28597 0.22473 0.0
C1258 C 0.90062 0.33188 0.20149 0.0
C1259 C 0.88785 0.3389 0.23115 0.0
C1260 C 0.89978 0.32088 0.25781 0.0
C1261 C 0.92213 0.29438 0.25427 0.0
C1262 C 0.88864 0.35055 0.17246 0.0
C1263 C 0.88727 0.32807 0.28986 0.0
H1264 H 0.83263 0.43923 0.228 0.0
H1265 H 0.78177 0.36534 0.22518 0.0
H1266 H 0.90211 0.39187 0.25619 0.0
H1267 H 0.90413 0.40135 0.21534 0.0
H1268 H 0.88522 0.42996 0.24031 0.0
H1269 H 0.80461 0.31338 0.23128 0.0
H1270 H 0.84126 0.30833 0.21002 0.0
H1271 H 0.84009 0.30419 0.25137 0.0
H1272 H 0.93171 0.29924 0.17585 0.0
H1273 H 0.92995 0.27942 0.27449 0.0
H1274 H 0.88735 0.37555 0.17458 0.0
H1275 H 0.86494 0.34669 0.16898 0.0
H1276 H 0.90333 0.34413 0.15161 0.0
H1277 H 0.88223 0.35333 0.29187 0.0
H1278 H 0.90365 0.31709 0.30775 0.0
H1279 H 0.86536 0.31912 0.29472 0.0
C1280 C 0.12567 0.50688 0.44348 0.0
C1281 C 0.11441 0.495 0.47197 0.0
C1282 C 0.14693 0.52707 0.44216 0.0
C1283 C 0.156 0.53628 0.47003 0.0
C1284 C 0.14726 0.52164 0.49874 0.0
C1285 C 0.12682 0.50069 0.49931 0.0
C1286 C 0.15674 0.54124 0.41106 0.0
C1287 C 0.156 0.53102 0.52904 0.0
C1288 C 0.20965 0.59494 0.46855 0.0
C1289 C 0.18828 0.62254 0.46723 0.0
C1290 C 0.1997 0.56639 0.46918 0.0
C1291 C 0.16771 0.56575 0.46938 0.0
C1292 C 0.14614 0.59369 0.46866 0.0
C1293 C 0.15676 0.62174 0.46711 0.0
C1294 C 0.22328 0.5371 0.46911 0.0
C1295 C 0.11174 0.59405 0.4696 0.0
H1296 H 0.11632 0.50205 0.42233 0.0
H1297 H 0.11816 0.49132 0.52137 0.0
H1298 H 0.14239 0.56436 0.40639 0.0
H1299 H 0.18119 0.5443 0.41068 0.0
H1300 H 0.15381 0.52689 0.39217 0.0
H1301 H 0.15321 0.5133 0.54839 0.0
H1302 H 0.18014 0.53511 0.5278 0.0
H1303 H 0.1408 0.55293 0.53437 0.0
H1304 H 0.23408 0.59573 0.46858 0.0
H1305 H 0.14027 0.64314 0.46641 0.0
H1306 H 0.22162 0.52563 0.4478 0.0
H1307 H 0.21857 0.52071 0.48899 0.0
H1308 H 0.2472 0.54149 0.47017 0.0
H1309 H 0.09817 0.61769 0.47069 0.0
H1310 H 0.10487 0.57938 0.49002 0.0
H1311 H 0.10546 0.58443 0.44869 0.0
C1312 C 0.6387 0.06861 0.77405 0.0
C1313 C 0.66722 0.07831 0.76854 0.0
C1314 C 0.61104 0.08972 0.77009 0.0
C1315 C 0.61228 0.12108 0.76087 0.0
C1316 C 0.64115 0.13051 0.75397 0.0
C1317 C 0.66822 0.10898 0.75787 0.0
C1318 C 0.58071 0.07867 0.777 0.0
C1319 C 0.64356 0.16369 0.74377 0.0
C1320 C 0.54881 0.18475 0.7327 0.0
C1321 C 0.54335 0.20174 0.7587 0.0
C1322 C 0.56905 0.15633 0.73382 0.0
C1323 C 0.58416 0.14509 0.76148 0.0
C1324 C 0.57633 0.16082 0.78851 0.0
C1325 C 0.55595 0.18901 0.78677 0.0
C1326 C 0.57621 0.13977 0.70475 0.0
C1327 C 0.59168 0.14945 0.81856 0.0
H1328 H 0.63797 0.04481 0.7822 0.0
H1329 H 0.69031 0.11638 0.75311 0.0
H1330 H 0.57154 0.08491 0.80031 0.0
H1331 H 0.56338 0.08986 0.76013 0.0
H1332 H 0.58337 0.05323 0.77666 0.0
H1333 H 0.66772 0.16676 0.73769 0.0
H1334 H 0.6295 0.17195 0.72337 0.0
H1335 H 0.63439 0.17855 0.76259 0.0
H1336 H 0.5387 0.19441 0.71105 0.0
H1337 H 0.55122 0.2019 0.80705 0.0
H1338 H 0.5788 0.11442 0.71007 0.0
H1339 H 0.59835 0.14481 0.69382 0.0
H1340 H 0.55795 0.14732 0.68777 0.0
H1341 H 0.5917 0.12442 0.82391 0.0
H1342 H 0.58011 0.16194 0.83825 0.0
H1343 H 0.61608 0.15284 0.8164 0.0
C1344 C 0.77032 0.54806 0.1439 0.0
C1345 C 0.772 0.54812 0.17599 0.0
C1346 C 0.77472 0.57392 0.12393 0.0
C1347 C 0.78013 0.60084 0.1364 0.0
C1348 C 0.78265 0.60076 0.16874 0.0
C1349 C 0.77893 0.57424 0.18813 0.0
C1350 C 0.77256 0.57278 0.08955 0.0
C1351 C 0.78767 0.6292 0.18304 0.0
C1352 C 0.80869 0.66497 0.08384 0.0
C1353 C 0.78092 0.68476 0.07714 0.0
C1354 C 0.80885 0.6373 0.10278 0.0
C1355 C 0.78064 0.62977 0.11588 0.0
C1356 C 0.75258 0.64989 0.10927 0.0
C1357 C 0.75305 0.67687 0.08966 0.0
C1358 C 0.83913 0.61607 0.10866 0.0
C1359 C 0.72203 0.64313 0.12319 0.0
H1360 H 0.7652 0.52782 0.13438 0.0
H1361 H 0.77997 0.57451 0.21293 0.0
H1362 H 0.75152 0.58851 0.08149 0.0
H1363 H 0.79266 0.58082 0.07692 0.0
H1364 H 0.77158 0.54918 0.08332 0.0
H1365 H 0.79093 0.62483 0.20829 0.0
H1366 H 0.80814 0.63776 0.17186 0.0
H1367 H 0.76745 0.64785 0.17917 0.0
H1368 H 0.83023 0.671 0.07407 0.0
H1369 H 0.73151 0.69221 0.08468 0.0
H1370 H 0.83827 0.59286 0.10136 0.0
H1371 H 0.84326 0.61322 0.13375 0.0
H1372 H 0.85893 0.62486 0.09614 0.0
H1373 H 0.71748 0.62126 0.11536 0.0
H1374 H 0.70247 0.66182 0.11679 0.0
H1375 H 0.72277 0.64006 0.14877 0.0
C1376 C 0.93579 0.46227 0.42681 0.0
C1377 C 0.95402 0.48534 0.42537 0.0
C1378 C 0.91285 0.46336 0.40566 0.0
C1379 C 0.90866 0.48765 0.38186 0.0
C1380 C 0.92725 0.51085 0.38002 0.0
C1381 C 0.94956 0.50959 0.40206 0.0
C1382 C 0.89342 0.43825 0.40863 0.0
C1383 C 0.92391 0.53666 0.35448 0.0
C1384 C 0.86781 0.4711 0.31256 0.0
C1385 C 0.83807 0.48761 0.3179 0.0
C1386 C 0.8914 0.47186 0.33258 0.0
C1387 C 0.88468 0.4887 0.35903 0.0
C1388 C 0.85458 0.50533 0.36451 0.0
C1389 C 0.83173 0.50501 0.34352 0.0
C1390 C 0.92337 0.45435 0.32562 0.0
C1391 C 0.84621 0.52243 0.39314 0.0
H1392 H 0.93958 0.44311 0.44441 0.0
H1393 H 0.96387 0.52726 0.40072 0.0
H1394 H 0.86866 0.44834 0.40662 0.0
H1395 H 0.90002 0.42299 0.38961 0.0
H1396 H 0.89639 0.42382 0.43094 0.0
H1397 H 0.94063 0.55247 0.35589 0.0
H1398 H 0.92745 0.52691 0.33168 0.0
H1399 H 0.90022 0.55027 0.35552 0.0
H1400 H 0.87264 0.4577 0.29265 0.0
H1401 H 0.80859 0.51751 0.34776 0.0
H1402 H 0.92926 0.43501 0.3436 0.0
H1403 H 0.94067 0.46969 0.32609 0.0
H1404 H 0.9254 0.44476 0.30272 0.0
H1405 H 0.84977 0.50595 0.41403 0.0
H1406 H 0.82186 0.53454 0.39378 0.0
H1407 H 0.86148 0.53963 0.39442 0.0
C1408 C 0.15544 0.43433 0.65707 0.0
C1409 C 0.14429 0.45081 0.68257 0.0
C1410 C 0.13514 0.42743 0.6362 0.0
C1411 C 0.10302 0.43737 0.64104 0.0
C1412 C 0.09159 0.45243 0.66779 0.0
C1413 C 0.11243 0.45897 0.68831 0.0
C1414 C 0.14819 0.41131 0.60796 0.0
C1415 C 0.05749 0.46347 0.6737 0.0
C1416 C 0.05503 0.45997 0.57074 0.0
C1417 C 0.03971 0.43485 0.57033 0.0
C1418 C 0.07607 0.46071 0.5933 0.0
C1419 C 0.08181 0.43575 0.61626 0.0
C1420 C 0.06677 0.41004 0.61578 0.0
C1421 C 0.0458 0.40989 0.59272 0.0
C1422 C 0.09172 0.48853 0.59286 0.0
C1423 C 0.07244 0.38305 0.63991 0.0
H1424 H 0.18012 0.4279 0.6527 0.0
H1425 H 0.1038 0.47168 0.70809 0.0
H1426 H 0.13554 0.39246 0.60443 0.0
H1427 H 0.14533 0.42799 0.58718 0.0
H1428 H 0.17311 0.40152 0.60967 0.0
H1429 H 0.05217 0.47155 0.69717 0.0
H1430 H 0.04925 0.48285 0.65643 0.0
H1431 H 0.04435 0.44476 0.67105 0.0
H1432 H 0.05008 0.47954 0.55374 0.0
H1433 H 0.03388 0.3905 0.59246 0.0
H1434 H 0.11714 0.48125 0.59123 0.0
H1435 H 0.08589 0.49982 0.61469 0.0
H1436 H 0.08486 0.50585 0.57319 0.0
H1437 H 0.09747 0.37358 0.64053 0.0
H1438 H 0.05994 0.36428 0.63554 0.0
H1439 H 0.06489 0.39087 0.6631 0.0
C1440 C 0.57116 0.78992 0.19687 0.0
C1441 C 0.56938 0.75916 0.20665 0.0
C1442 C 0.59182 0.79708 0.17254 0.0
C1443 C 0.61167 0.77285 0.15858 0.0
C1444 C 0.61038 0.74175 0.16901 0.0
C1445 C 0.58888 0.73531 0.19261 0.0
C1446 C 0.59201 0.83043 0.16139 0.0
C1447 C 0.63171 0.71523 0.15529 0.0
C1448 C 0.64835 0.77796 0.078 0.0
C1449 C 0.67882 0.77936 0.08423 0.0
C1450 C 0.62548 0.77853 0.10185 0.0
C1451 C 0.63362 0.77953 0.13267 0.0
C1452 C 0.664 0.78276 0.13881 0.0
C1453 C 0.68622 0.78305 0.11435 0.0
C1454 C 0.59313 0.77595 0.09427 0.0
C1455 C 0.67376 0.7832 0.17142 0.0
H1456 H 0.55589 0.80831 0.20773 0.0
H1457 H 0.58771 0.71152 0.20053 0.0
H1458 H 0.61535 0.83601 0.16311 0.0
H1459 H 0.58637 0.83443 0.13665 0.0
H1460 H 0.57518 0.84653 0.1748 0.0
H1461 H 0.62891 0.69251 0.1673 0.0
H1462 H 0.62715 0.71503 0.13052 0.0
H1463 H 0.65608 0.7181 0.15658 0.0
H1464 H 0.64263 0.77533 0.05461 0.0
H1465 H 0.70988 0.78383 0.11918 0.0
H1466 H 0.57592 0.7924 0.10684 0.0
H1467 H 0.58878 0.75235 0.10178 0.0
H1468 H 0.58941 0.78045 0.0691 0.0
H1469 H 0.65688 0.79958 0.18437 0.0
H1470 H 0.69693 0.78965 0.17197 0.0
H1471 H 0.67447 0.75993 0.1837 0.0
C1472 C 0.66871 0.46624 0.11414 0.0
C1473 C 0.65885 0.47356 0.1442 0.0
C1474 C 0.64761 0.46937 0.09068 0.0
C1475 C 0.61595 0.48007 0.09755 0.0
C1476 C 0.60593 0.48777 0.12785 0.0
C1477 C 0.62755 0.48437 0.15086 0.0
C1478 C 0.65914 0.46116 0.05861 0.0
C1479 C 0.57236 0.49945 0.13599 0.0
C1480 C 0.56085 0.51355 0.03444 0.0
C1481 C 0.54537 0.48891 0.03176 0.0
C1482 C 0.58474 0.51067 0.05496 0.0
C1483 C 0.59309 0.48254 0.07332 0.0
C1484 C 0.57844 0.45717 0.06965 0.0
C1485 C 0.5548 0.46063 0.04876 0.0
C1486 C 0.6001 0.53813 0.05787 0.0
C1487 C 0.5868 0.42679 0.08877 0.0
H1488 H 0.69297 0.45802 0.10893 0.0
H1489 H 0.61995 0.49023 0.17406 0.0
H1490 H 0.64813 0.44221 0.05192 0.0
H1491 H 0.65264 0.48128 0.0416 0.0
H1492 H 0.68458 0.4538 0.05692 0.0
H1493 H 0.56842 0.50475 0.16053 0.0
H1494 H 0.56389 0.52066 0.12104 0.0
H1495 H 0.55829 0.48194 0.13171 0.0
H1496 H 0.55367 0.53541 0.02116 0.0
H1497 H 0.5429 0.44154 0.04665 0.0
H1498 H 0.62557 0.53125 0.05648 0.0
H1499 H 0.59366 0.54712 0.08077 0.0
H1500 H 0.59329 0.55708 0.03964 0.0
H1501 H 0.612 0.41829 0.08661 0.0
H1502 H 0.57454 0.40881 0.08181 0.0
H1503 H 0.58085 0.43009 0.11353 0.0
C1504 C 0.35236 0.48469 0.01984 0.0
C1505 C 0.38215 0.46723 0.01831 0.0
C1506 C 0.32637 0.47014 0.02288 0.0
C1507 C 0.33057 0.43759 0.0235 0.0
C1508 C 0.36073 0.41997 0.02243 0.0
C1509 C 0.38613 0.43504 0.02025 0.0
C1510 C 0.29457 0.48952 0.02459 0.0
C1511 C 0.36628 0.38519 0.02253 0.0
C1512 C 0.27762 0.38242 0.05147 0.0
C1513 C 0.27068 0.37301 0.02327 0.0
C1514 C 0.29391 0.4068 0.05215 0.0
C1515 C 0.30395 0.42131 0.02393 0.0
C1516 C 0.29373 0.41427 -0.00438 0.0
C1517 C 0.27693 0.39021 -0.00432 0.0
C1518 C 0.30331 0.41456 0.08285 0.0
C1519 C 0.3038 0.42912 0.96492 0.0
H1520 H 0.34937 0.50966 0.01832 0.0
H1521 H 0.4092 0.42156 0.01891 0.0
H1522 H 0.28276 0.48876 0.00294 0.0
H1523 H 0.28039 0.48016 0.0439 0.0
H1524 H 0.29536 0.51399 0.02781 0.0
H1525 H 0.39122 0.37508 0.02114 0.0
H1526 H 0.35577 0.37491 0.04391 0.0
H1527 H 0.35519 0.3784 0.00261 0.0
H1528 H 0.27221 0.36944 0.07289 0.0
H1529 H 0.27119 0.38315 0.97385 0.0
H1530 H 0.30265 0.43976 0.08302 0.0
H1531 H 0.32733 0.40282 0.08691 0.0
H1532 H 0.28815 0.40682 0.10223 0.0
H1533 H 0.30603 0.4535 0.96645 0.0
H1534 H 0.28733 0.42823 0.94684 0.0
H1535 H 0.3267 0.41638 0.9575 0.0
C1536 C 0.05956 0.11838 0.27654 0.0
C1537 C 0.0469 0.13747 0.25137 0.0
C1538 C 0.08376 0.09385 0.27199 0.0
C1539 C 0.09532 0.08848 0.24154 0.0
C1540 C 0.07984 0.10513 0.216 0.0
C1541 C 0.05576 0.12972 0.22122 0.0
C1542 C 0.09923 0.07611 0.29987 0.0
C1543 C 0.09071 0.0992 0.1832 0.0
C1544 C 0.18199 0.07152 0.2392 0.0
C1545 C 0.18789 0.03931 0.24078 0.0
C1546 C 0.1519 0.08784 0.23744 0.0
C1547 C 0.12713 0.07143 0.23714 0.0
C1548 C 0.13315 0.03895 0.23648 0.0
C1549 C 0.16364 0.02314 0.23861 0.0
C1550 C 0.14658 0.12258 0.23775 0.0
C1551 C 0.1075 0.02069 0.23524 0.0
H1552 H 0.05213 0.12395 0.29987 0.0
H1553 H 0.04547 0.14412 0.20168 0.0
H1554 H 0.10416 0.05104 0.29693 0.0
H1555 H 0.12158 0.08366 0.30243 0.0
H1556 H 0.08487 0.07992 0.3215 0.0
H1557 H 0.07217 0.10795 0.16677 0.0
H1558 H 0.11045 0.11123 0.17647 0.0
H1559 H 0.09871 0.0742 0.181 0.0
H1560 H 0.20088 0.08401 0.24033 0.0
H1561 H 0.16828 -0.00185 0.23973 0.0
H1562 H 0.1336 0.12945 0.25939 0.0
H1563 H 0.13252 0.13362 0.21811 0.0
H1564 H 0.1685 0.13181 0.23626 0.0
H1565 H 0.09803 0.01576 0.25902 0.0
H1566 H 0.11605 -0.00172 0.22536 0.0
H1567 H 0.08839 0.03372 0.22132 0.0
C1568 C 0.21558 0.32436 0.94019 0.0
C1569 C 0.23394 0.29691 0.9317 0.0
C1570 C 0.21244 0.35133 0.91984 0.0
C1571 C 0.22824 0.3508 0.89046 0.0
C1572 C 0.2472 0.32316 0.88208 0.0
C1573 C 0.24964 0.29654 0.90271 0.0
C1574 C 0.1922 0.38037 0.92974 0.0
C1575 C 0.26503 0.3217 0.85133 0.0
C1576 C 0.20036 0.41021 0.82438 0.0
C1577 C 0.22107 0.4309 0.82432 0.0
C1578 C 0.20201 0.38442 0.84619 0.0
C1579 C 0.22504 0.37904 0.86838 0.0
C1580 C 0.24577 0.40001 0.86868 0.0
C1581 C 0.24347 0.4257 0.84678 0.0
C1582 C 0.17943 0.36263 0.84515 0.0
C1583 C 0.27084 0.39497 0.89174 0.0
H1584 H 0.20348 0.32468 0.96263 0.0
H1585 H 0.26419 0.27542 0.89623 0.0
H1586 H 0.20606 0.39898 0.92978 0.0
H1587 H 0.17384 0.38845 0.91301 0.0
H1588 H 0.18121 0.37688 0.95316 0.0
H1589 H 0.27917 0.29857 0.84857 0.0
H1590 H 0.24886 0.32743 0.83222 0.0
H1591 H 0.28057 0.33902 0.84892 0.0
H1592 H 0.18294 0.414 0.80722 0.0
H1593 H 0.25969 0.44142 0.84697 0.0
H1594 H 0.16716 0.35998 0.86801 0.0
H1595 H 0.19205 0.33946 0.84008 0.0
H1596 H 0.1621 0.37071 0.82734 0.0
H1597 H 0.2606 0.39303 0.91561 0.0
H1598 H 0.2845 0.41394 0.88959 0.0
H1599 H 0.28675 0.37295 0.88838 0.0
C1600 C 0.36239 0.22376 0.9486 0.0
C1601 C 0.33987 0.24984 0.9529 0.0
C1602 C 0.38438 0.22391 0.9239 0.0
C1603 C 0.38298 0.25041 0.90269 0.0
C1604 C 0.36071 0.27704 0.90744 0.0
C1605 C 0.33971 0.27655 0.93275 0.0
C1606 C 0.40836 0.19542 0.91985 0.0
C1607 C 0.35792 0.30549 0.88489 0.0
C1608 C 0.44786 0.2657 0.84585 0.0
C1609 C 0.43807 0.25663 0.81862 0.0
C1610 C 0.43105 0.26215 0.87391 0.0
C1611 C 0.40344 0.25 0.87443 0.0
C1612 C 0.39387 0.24008 0.84712 0.0
C1613 C 0.41159 0.24315 0.81953 0.0
C1614 C 0.44223 0.27238 0.90273 0.0
C1615 C 0.36413 0.22771 0.84667 0.0
H1616 H 0.36247 0.20311 0.96418 0.0
H1617 H 0.32198 0.29663 0.93566 0.0
H1618 H 0.40376 0.18458 0.89902 0.0
H1619 H 0.43167 0.20166 0.91623 0.0
H1620 H 0.40844 0.17811 0.94011 0.0
H1621 H 0.33989 0.32457 0.89254 0.0
H1622 H 0.38024 0.31387 0.8818 0.0
H1623 H 0.35202 0.2997 0.86195 0.0
H1624 H 0.4686 0.27577 0.84517 0.0
H1625 H 0.40399 0.23625 0.79842 0.0
H1626 H 0.44219 0.25411 0.92205 0.0
H1627 H 0.42636 0.29321 0.90987 0.0
H1628 H 0.46584 0.27795 0.89916 0.0
H1629 H 0.36367 0.20832 0.86472 0.0
H1630 H 0.36082 0.21955 0.82392 0.0
H1631 H 0.34432 0.24606 0.85198 0.0
C1632 C 0.40251 0.53932 0.9251 0.0
C1633 C 0.41745 0.5647 0.92549 0.0
C1634 C 0.37808 0.54031 0.90576 0.0
C1635 C 0.36854 0.56728 0.88608 0.0
C1636 C 0.38264 0.5935 0.88733 0.0
C1637 C 0.40696 0.59193 0.90719 0.0
C1638 C 0.36342 0.51195 0.90544 0.0
C1639 C 0.37297 0.62266 0.86675 0.0
C1640 C 0.33254 0.55092 0.81392 0.0
C1641 C 0.30109 0.55716 0.82251 0.0
C1642 C 0.35478 0.55569 0.83383 0.0
C1643 C 0.34522 0.567 0.86291 0.0
C1644 C 0.31339 0.57496 0.87091 0.0
C1645 C 0.29166 0.56991 0.85056 0.0
C1646 C 0.38852 0.54698 0.82445 0.0
C1647 C 0.30233 0.5871 0.90167 0.0
H1648 H 0.41059 0.51823 0.93925 0.0
H1649 H 0.41853 0.61157 0.90746 0.0
H1650 H 0.33798 0.51808 0.90849 0.0
H1651 H 0.36859 0.50217 0.88274 0.0
H1652 H 0.37189 0.49379 0.92388 0.0
H1653 H 0.38411 0.64189 0.87261 0.0
H1654 H 0.37932 0.61822 0.84231 0.0
H1655 H 0.34757 0.63 0.86854 0.0
H1656 H 0.33984 0.54112 0.79219 0.0
H1657 H 0.2673 0.57482 0.85719 0.0
H1658 H 0.39908 0.52658 0.83944 0.0
H1659 H 0.40097 0.56608 0.82764 0.0
H1660 H 0.39207 0.54132 0.79999 0.0
H1661 H 0.30778 0.56841 0.92042 0.0
H1662 H 0.27706 0.5957 0.90279 0.0
H1663 H 0.31441 0.60607 0.90626 0.0
C1664 C 0.69611 0.66198 0.94107 0.0
C1665 C 0.69777 0.66421 0.97279 0.0
C1666 C 0.67764 0.64287 0.93034 0.0
C1667 C 0.65989 0.62662 0.95196 0.0
C1668 C 0.66338 0.62706 0.98407 0.0
C1669 C 0.68266 0.64567 -0.00589 0.0
C1670 C 0.67551 0.64177 0.89598 0.0
C1671 C 0.64472 0.61009 0.00789 0.0
C1672 C 0.57876 0.61923 0.93672 0.0
C1673 C 0.58148 0.58722 0.93717 0.0
C1674 C 0.60474 0.63268 0.93932 0.0
C1675 C 0.63405 0.61354 0.94167 0.0
C1676 C 0.63726 0.58151 0.93878 0.0
C1677 C 0.61071 0.56858 0.93696 0.0
C1678 C 0.60034 0.66696 0.94252 0.0
C1679 C 0.66828 0.5606 0.93999 0.0
H1680 H 0.70836 0.67599 0.92463 0.0
H1681 H 0.68427 0.64727 0.01867 0.0
H1682 H 0.67453 0.61801 0.89032 0.0
H1683 H 0.65405 0.65692 0.88814 0.0
H1684 H 0.69539 0.64978 0.88283 0.0
H1685 H 0.65188 0.61101 0.03179 0.0
H1686 H 0.61992 0.62049 0.00665 0.0
H1687 H 0.64703 0.58555 0.00315 0.0
H1688 H 0.5561 0.63361 0.93667 0.0
H1689 H 0.61275 0.54377 0.93694 0.0
H1690 H 0.61645 0.67782 0.92635 0.0
H1691 H 0.60554 0.67091 0.96633 0.0
H1692 H 0.57641 0.67878 0.93795 0.0
H1693 H 0.68658 0.57212 0.92793 0.0
H1694 H 0.66796 0.53873 0.92944 0.0
H1695 H 0.67445 0.55472 0.96444 0.0
C1696 C 0.90323 0.82651 0.74294 0.0
C1697 C 0.89839 0.81184 0.71697 0.0
C1698 C 0.88338 0.85353 0.75063 0.0
C1699 C 0.85822 0.86578 0.73183 0.0
C1700 C 0.85444 0.8519 0.70459 0.0
C1701 C 0.8745 0.82494 0.69762 0.0
C1702 C 0.8882 0.86761 0.77985 0.0
C1703 C 0.82808 0.86442 0.68373 0.0
C1704 C 0.78044 0.90384 0.76184 0.0
C1705 C 0.77948 0.9342 0.74903 0.0
C1706 C 0.8072 0.8818 0.75884 0.0
C1707 C 0.83338 0.89038 0.74222 0.0
C1708 C 0.83332 0.92163 0.73146 0.0
C1709 C 0.80622 0.94335 0.7351 0.0
C1710 C 0.80657 0.84884 0.77135 0.0
C1711 C 0.86099 0.93166 0.7141 0.0
H1712 H 0.92139 0.81599 0.75815 0.0
H1713 H 0.87095 0.81357 0.67742 0.0
H1714 H 0.88339 0.89318 0.77656 0.0
H1715 H 0.87201 0.86037 0.79846 0.0
H1716 H 0.91209 0.86001 0.78771 0.0
H1717 H 0.8302 0.85272 0.66199 0.0
H1718 H 0.80593 0.86118 0.696 0.0
H1719 H 0.82699 0.88953 0.67773 0.0
H1720 H 0.75987 0.89701 0.77326 0.0
H1721 H 0.80548 0.96701 0.72554 0.0
H1722 H 0.82768 0.83918 0.78405 0.0
H1723 H 0.80601 0.83448 0.75187 0.0
H1724 H 0.7861 0.84686 0.78711 0.0
H1725 H 0.8826 0.92072 0.72539 0.0
H1726 H 0.8594 0.95713 0.71245 0.0
H1727 H 0.86255 0.92418 0.69032 0.0
C1728 C 0.4517 0.15173 0.68261 0.0
C1729 C 0.43331 0.18087 0.68391 0.0
C1730 C 0.44354 0.12995 0.66474 0.0
C1731 C 0.41639 0.1377 0.64775 0.0
C1732 C 0.39645 0.16616 0.65108 0.0
C1733 C 0.4052 0.18753 0.66917 0.0
C1734 C 0.46529 0.09965 0.66208 0.0
C1735 C 0.36715 0.17504 0.63368 0.0
C1736 C 0.42987 0.10066 0.57272 0.0
C1737 C 0.41777 0.0736 0.5802 0.0
C1738 C 0.42713 0.12316 0.5937 0.0
C1739 C 0.41207 0.11826 0.62294 0.0
C1740 C 0.39716 0.0924 0.62942 0.0
C1741 C 0.40013 0.07024 0.60779 0.0
C1742 C 0.44293 0.1507 0.58562 0.0
C1743 C 0.38054 0.08665 0.66017 0.0
H1744 H 0.47328 0.14648 0.69431 0.0
H1745 H 0.39081 0.21004 0.67043 0.0
H1746 H 0.4524 0.08013 0.66505 0.0
H1747 H 0.47684 0.09946 0.63868 0.0
H1748 H 0.48337 0.09572 0.67944 0.0
H1749 H 0.35136 0.19464 0.64347 0.0
H1750 H 0.37296 0.18204 0.60918 0.0
H1751 H 0.35484 0.15521 0.63398 0.0
H1752 H 0.44323 0.10333 0.55117 0.0
H1753 H 0.39083 0.04922 0.61361 0.0
H1754 H 0.46358 0.14833 0.59962 0.0
H1755 H 0.42735 0.1723 0.59112 0.0
H1756 H 0.45042 0.1529 0.56079 0.0
H1757 H 0.39772 0.07704 0.67772 0.0
H1758 H 0.36469 0.06991 0.65904 0.0
H1759 H 0.36715 0.10843 0.66813 0.0
C1760 C 0.51258 0.39613 0.78299 0.0
C1761 C 0.53115 0.36697 0.78705 0.0
C1762 C 0.51158 0.41769 0.80484 0.0
C1763 C 0.52961 0.40971 0.83119 0.0
C1764 C 0.5505 0.38139 0.83384 0.0
C1765 C 0.55104 0.36029 0.81163 0.0
C1766 C 0.48921 0.44779 0.80106 0.0
C1767 C 0.57022 0.37215 0.86153 0.0
C1768 C 0.53269 0.47108 0.8858 0.0
C1769 C 0.50916 0.46585 0.90782 0.0
C1770 C 0.5399 0.45284 0.86077 0.0
C1771 C 0.5233 0.42878 0.85788 0.0
C1772 C 0.49999 0.42299 0.88038 0.0
C1773 C 0.49317 0.44164 0.90503 0.0
C1774 C 0.5648 0.45967 0.83712 0.0
C1775 C 0.48191 0.39732 0.87819 0.0
H1776 H 0.49726 0.40135 0.76389 0.0
H1777 H 0.56552 0.33776 0.81468 0.0
H1778 H 0.46924 0.44699 0.81773 0.0
H1779 H 0.50025 0.46732 0.80616 0.0
H1780 H 0.48042 0.45242 0.77737 0.0
H1781 H 0.58848 0.35183 0.85779 0.0
H1782 H 0.58126 0.39152 0.86703 0.0
H1783 H 0.55544 0.36622 0.88197 0.0
H1784 H 0.54514 0.4898 0.88774 0.0
H1785 H 0.47507 0.43734 0.92201 0.0
H1786 H 0.55464 0.46667 0.81426 0.0
H1787 H 0.58237 0.43863 0.83448 0.0
H1788 H 0.57648 0.47835 0.84344 0.0
H1789 H 0.46919 0.40136 0.85653 0.0
H1790 H 0.46506 0.39542 0.89801 0.0
H1791 H 0.49787 0.37492 0.87736 0.0
C1792 C 0.51086 0.84393 0.3624 0.0
C1793 C 0.5276 0.81388 0.36599 0.0
C1794 C 0.50684 0.86294 0.38688 0.0
C1795 C 0.5198 0.85147 0.41559 0.0
C1796 C 0.53774 0.82153 0.41893 0.0
C1797 C 0.54149 0.80305 0.39399 0.0
C1798 C 0.48772 0.89487 0.38236 0.0
C1799 C 0.55183 0.80855 0.44921 0.0
C1800 C 0.52258 0.91246 0.47046 0.0
C1801 C 0.49453 0.9125 0.48756 0.0
C1802 C 0.53194 0.89166 0.44787 0.0
C1803 C 0.51291 0.87031 0.44246 0.0
C1804 C 0.48568 0.86881 0.46108 0.0
C1805 C 0.4768 0.88996 0.4834 0.0
C1806 C 0.56116 0.89388 0.42849 0.0
C1807 C 0.46496 0.84607 0.45623 0.0
H1808 H 0.50013 0.85229 0.34072 0.0
H1809 H 0.55439 0.77975 0.39677 0.0
H1810 H 0.46648 0.89627 0.39758 0.0
H1811 H 0.50077 0.91233 0.38898 0.0
H1812 H 0.48089 0.90096 0.35809 0.0
H1813 H 0.56728 0.78597 0.44723 0.0
H1814 H 0.56519 0.82488 0.45763 0.0
H1815 H 0.53324 0.80539 0.46695 0.0
H1816 H 0.53654 0.9297 0.47355 0.0
H1817 H 0.45523 0.88962 0.49667 0.0
H1818 H 0.55518 0.90328 0.40464 0.0
H1819 H 0.57548 0.8707 0.4269 0.0
H1820 H 0.57516 0.90911 0.43794 0.0
H1821 H 0.45411 0.85224 0.4336 0.0
H1822 H 0.44637 0.84576 0.4746 0.0
H1823 H 0.47858 0.82245 0.45565 0.0
C1824 C 0.47971 0.60891 0.05657 0.0
C1825 C 0.46241 0.58551 0.05449 0.0
C1826 C 0.48028 0.62253 0.08425 0.0
C1827 C 0.46299 0.61266 0.11056 0.0
C1828 C 0.44445 0.58997 0.10837 0.0
C1829 C 0.44435 0.57663 0.08028 0.0
C1830 C 0.50018 0.64685 0.08555 0.0
C1831 C 0.42555 0.57908 0.13593 0.0
C1832 C 0.49281 0.6287 0.18636 0.0
C1833 C 0.47418 0.65701 0.19172 0.0
C1834 C 0.48847 0.6131 0.16071 0.0
C1835 C 0.46482 0.62614 0.14027 0.0
C1836 C 0.44495 0.6539 0.14663 0.0
C1837 C 0.44997 0.66907 0.17223 0.0
C1838 C 0.51017 0.58354 0.1546 0.0
C1839 C 0.41939 0.66843 0.12552 0.0
H1840 H 0.4936 0.61607 0.03672 0.0
H1841 H 0.43105 0.55846 0.07894 0.0
H1842 H 0.48602 0.66835 0.09335 0.0
H1843 H 0.51822 0.63876 0.10261 0.0
H1844 H 0.51166 0.65243 0.06281 0.0
H1845 H 0.41083 0.56276 0.12991 0.0
H1846 H 0.44112 0.56741 0.15419 0.0
H1847 H 0.41058 0.59905 0.14587 0.0
H1848 H 0.5115 0.61936 0.20149 0.0
H1849 H 0.43538 0.69088 0.17652 0.0
H1850 H 0.52483 0.58744 0.13346 0.0
H1851 H 0.49697 0.56531 0.15039 0.0
H1852 H 0.52545 0.575 0.17411 0.0
H1853 H 0.42951 0.67695 0.1031 0.0
H1854 H 0.40394 0.68812 0.13552 0.0
H1855 H 0.40535 0.65112 0.12065 0.0
loop_
_geom_bond_atom_site_label_1
_geom_bond_atom_site_label_2
_geom_bond_distance
_geom_bond_site_symmetry_2
_ccdc_geom_bond_type
Dy0 O4 2.398 . S
Dy0 O5 2.485 1_554 S
Dy0 O6 2.403 1_655 S
Dy0 O7 2.664 1_655 S
Dy0 O11 2.326 1_654 S
Dy0 O15 2.310 1_564 S
Dy0 O16 2.351 1_565 S
C1 O12 1.185 . S
C1 O13 1.342 1_556 S
C2 O4 1.185 . S
C2 O5 1.347 1_554 S
Dy3 O7 2.310 1_546 S
Dy3 O10 2.351 1_545 S
Dy3 O12 2.398 . S
Dy3 O13 2.480 1_556 S
Dy3 O14 2.403 1_455 S
Dy3 O15 2.664 1_455 S
Dy3 O17 2.326 1_456 S
O4 Dy0 2.398 . S
O4 C2 1.185 . S
O5 Dy0 2.485 1_556 S
O5 C2 1.347 1_556 S
O6 Dy0 2.403 1_455 S
O6 C8 1.254 . S
O7 Dy0 2.664 1_455 S
O7 Dy3 2.310 1_564 S
O7 C8 1.268 . S
C8 O6 1.254 . S
C8 O7 1.268 . S
C9 O14 1.254 . S
C9 O15 1.268 . S
O10 Dy3 2.351 1_565 S
O10 C18 1.249 . S
O11 Dy0 2.326 1_456 S
O11 C18 1.267 . S
O12 C1 1.185 . S
O12 Dy3 2.398 . S
O13 C1 1.342 1_554 S
O13 Dy3 2.480 1_554 S
O14 Dy3 2.403 1_655 S
O14 C9 1.254 . S
O15 Dy0 2.310 1_546 S
O15 Dy3 2.664 1_655 S
O15 C9 1.268 . S
O16 Dy0 2.351 1_545 S
O16 C19 1.249 . S
O17 Dy3 2.326 1_654 S
O17 C19 1.267 . S
C18 O10 1.249 . S
C18 O11 1.267 . S
C19 O16 1.249 . S
C19 O17 1.267 . S
Dy20 O24 2.398 . S
Dy20 O25 2.491 1_455 S
Dy20 O26 2.403 . S
Dy20 O27 2.664 . S
Dy20 O31 2.326 1_455 S
Dy20 O35 2.310 1_455 S
Dy20 O36 2.351 . S
C21 O32 1.185 . S
C21 O33 1.355 1_655 S
C22 O24 1.185 . S
C22 O25 1.355 1_455 S
Dy23 O27 2.310 1_655 S
Dy23 O30 2.351 . S
Dy23 O32 2.398 . S
Dy23 O33 2.491 1_655 S
Dy23 O34 2.403 . S
Dy23 O35 2.664 . S
Dy23 O37 2.326 1_655 S
O24 Dy20 2.398 . S
O24 C22 1.185 . S
O25 Dy20 2.491 1_655 S
O25 C22 1.355 1_655 S
O26 Dy20 2.403 . S
O26 C28 1.254 . S
O27 Dy20 2.664 . S
O27 Dy23 2.310 1_455 S
O27 C28 1.268 . S
C28 O26 1.254 . S
C28 O27 1.268 . S
C29 O34 1.254 . S
C29 O35 1.268 . S
O30 Dy23 2.351 . S
O30 C38 1.249 . S
O31 Dy20 2.326 1_655 S
O31 C38 1.267 . S
O32 C21 1.185 . S
O32 Dy23 2.398 . S
O33 C21 1.355 1_455 S
O33 Dy23 2.491 1_455 S
O34 Dy23 2.403 . S
O34 C29 1.254 . S
O35 Dy20 2.310 1_655 S
O35 Dy23 2.664 . S
O35 C29 1.268 . S
O36 Dy20 2.351 . S
O36 C39 1.249 . S
O37 Dy23 2.326 1_455 S
O37 C39 1.267 . S
C38 O30 1.249 . S
C38 O31 1.267 . S
C39 O36 1.249 . S
C39 O37 1.267 . S
Dy40 O44 2.398 . S
Dy40 O45 2.491 . S
Dy40 O46 2.403 . S
Dy40 O47 2.664 . S
Dy40 O51 2.326 . S
Dy40 O55 2.310 . S
Dy40 O56 2.351 . S
C41 O52 1.185 . S
C41 O53 1.355 . S
C42 O44 1.185 . S
C42 O45 1.355 . S
Dy43 O47 2.310 . S
Dy43 O50 2.351 . S
Dy43 O52 2.398 . S
Dy43 O53 2.491 . S
Dy43 O54 2.403 . S
Dy43 O55 2.664 . S
Dy43 O57 2.326 . S
O44 Dy40 2.398 . S
O44 C42 1.185 . S
O45 Dy40 2.491 . S
O45 C42 1.355 . S
O46 Dy40 2.403 . S
O46 C48 1.254 . S
O47 Dy40 2.664 . S
O47 Dy43 2.310 . S
O47 C48 1.268 . S
C48 O46 1.254 . S
C48 O47 1.268 . S
C49 O54 1.254 . S
C49 O55 1.268 . S
O50 Dy43 2.351 . S
O50 C58 1.249 . S
O51 Dy40 2.326 . S
O51 C58 1.267 . S
O52 C41 1.185 . S
O52 Dy43 2.398 . S
O53 C41 1.355 . S
O53 Dy43 2.491 . S
O54 Dy43 2.403 . S
O54 C49 1.254 . S
O55 Dy40 2.310 . S
O55 Dy43 2.664 . S
O55 C49 1.268 . S
O56 Dy40 2.351 . S
O56 C59 1.249 . S
O57 Dy43 2.326 . S
O57 C59 1.267 . S
C58 O50 1.249 . S
C58 O51 1.267 . S
C59 O56 1.249 . S
C59 O57 1.267 . S
Dy60 O64 2.398 . S
Dy60 O65 2.491 1_565 S
Dy60 O66 2.403 . S
Dy60 O67 2.664 . S
Dy60 O71 2.326 1_565 S
Dy60 O75 2.310 1_565 S
Dy60 O76 2.351 . S
C61 O72 1.185 . S
C61 O73 1.355 1_545 S
C62 O64 1.185 . S
C62 O65 1.355 1_565 S
Dy63 O67 2.310 1_545 S
Dy63 O70 2.351 . S
Dy63 O72 2.398 . S
Dy63 O73 2.491 1_545 S
Dy63 O74 2.403 . S
Dy63 O75 2.664 . S
Dy63 O77 2.326 1_545 S
O64 Dy60 2.398 . S
O64 C62 1.185 . S
O65 Dy60 2.491 1_545 S
O65 C62 1.355 1_545 S
O66 Dy60 2.403 . S
O66 C68 1.254 . S
O67 Dy60 2.664 . S
O67 Dy63 2.310 1_565 S
O67 C68 1.268 . S
C68 O66 1.254 . S
C68 O67 1.268 . S
C69 O74 1.254 . S
C69 O75 1.268 . S
O70 Dy63 2.351 . S
O70 C78 1.249 . S
O71 Dy60 2.326 1_545 S
O71 C78 1.267 . S
O72 C61 1.185 . S
O72 Dy63 2.398 . S
O73 C61 1.355 1_565 S
O73 Dy63 2.491 1_565 S
O74 Dy63 2.403 . S
O74 C69 1.254 . S
O75 Dy60 2.310 1_545 S
O75 Dy63 2.664 . S
O75 C69 1.268 . S
O76 Dy60 2.351 . S
O76 C79 1.249 . S
O77 Dy63 2.326 1_565 S
O77 C79 1.267 . S
C78 O70 1.249 . S
C78 O71 1.267 . S
C79 O76 1.249 . S
C79 O77 1.267 . S
Dy80 O84 2.398 . S
Dy80 O85 2.491 . S
Dy80 O86 2.403 . S
Dy80 O87 2.664 . S
Dy80 O91 2.326 . S
Dy80 O95 2.310 . S
Dy80 O96 2.351 . S
C81 O92 1.185 . S
C81 O93 1.355 . S
C82 O84 1.185 . S
C82 O85 1.355 . S
Dy83 O87 2.310 . S
Dy83 O90 2.351 . S
Dy83 O92 2.398 . S
Dy83 O93 2.491 . S
Dy83 O94 2.403 . S
Dy83 O95 2.664 . S
Dy83 O97 2.326 . S
O84 Dy80 2.398 . S
O84 C82 1.185 . S
O85 Dy80 2.491 . S
O85 C82 1.355 . S
O86 Dy80 2.403 . S
O86 C88 1.254 . S
O87 Dy80 2.664 . S
O87 Dy83 2.310 . S
O87 C88 1.268 . S
C88 O86 1.254 . S
C88 O87 1.268 . S
C89 O94 1.254 . S
C89 O95 1.268 . S
O90 Dy83 2.351 . S
O90 C98 1.249 . S
O91 Dy80 2.326 . S
O91 C98 1.267 . S
O92 C81 1.185 . S
O92 Dy83 2.398 . S
O93 C81 1.355 . S
O93 Dy83 2.491 . S
O94 Dy83 2.403 . S
O94 C89 1.254 . S
O95 Dy80 2.310 . S
O95 Dy83 2.664 . S
O95 C89 1.268 . S
O96 Dy80 2.351 . S
O96 C99 1.249 . S
O97 Dy83 2.326 . S
O97 C99 1.267 . S
C98 O90 1.249 . S
C98 O91 1.267 . S
C99 O96 1.249 . S
C99 O97 1.267 . S
Dy100 O104 2.398 . S
Dy100 O105 2.491 . S
Dy100 O106 2.403 . S
Dy100 O107 2.664 . S
Dy100 O111 2.326 . S
Dy100 O115 2.310 . S
Dy100 O116 2.351 . S
C101 O112 1.185 . S
C101 O113 1.355 . S
C102 O104 1.185 . S
C102 O105 1.355 . S
Dy103 O107 2.310 . S
Dy103 O110 2.351 . S
Dy103 O112 2.398 . S
Dy103 O113 2.491 . S
Dy103 O114 2.403 . S
Dy103 O115 2.664 . S
Dy103 O117 2.326 . S
O104 Dy100 2.398 . S
O104 C102 1.185 . S
O105 Dy100 2.491 . S
O105 C102 1.355 . S
O106 Dy100 2.403 . S
O106 C108 1.254 . S
O107 Dy100 2.664 . S
O107 Dy103 2.310 . S
O107 C108 1.268 . S
C108 O106 1.254 . S
C108 O107 1.268 . S
C109 O114 1.254 . S
C109 O115 1.268 . S
O110 Dy103 2.351 . S
O110 C118 1.249 . S
O111 Dy100 2.326 . S
O111 C118 1.267 . S
O112 C101 1.185 . S
O112 Dy103 2.398 . S
O113 C101 1.355 . S
O113 Dy103 2.491 . S
O114 Dy103 2.403 . S
O114 C109 1.254 . S
O115 Dy100 2.310 . S
O115 Dy103 2.664 . S
O115 C109 1.268 . S
O116 Dy100 2.351 . S
O116 C119 1.249 . S
O117 Dy103 2.326 . S
O117 C119 1.267 . S
C118 O110 1.249 . S
C118 O111 1.267 . S
C119 O116 1.249 . S
C119 O117 1.267 . S
Dy120 O124 2.398 . S
Dy120 O125 2.491 . S
Dy120 O126 2.403 . S
Dy120 O127 2.664 . S
Dy120 O131 2.326 . S
Dy120 O135 2.310 . S
Dy120 O136 2.351 . S
C121 O132 1.185 . S
C121 O133 1.355 . S
C122 O124 1.185 . S
C122 O125 1.355 . S
Dy123 O127 2.310 . S
Dy123 O130 2.351 . S
Dy123 O132 2.398 . S
Dy123 O133 2.491 . S
Dy123 O134 2.403 . S
Dy123 O135 2.664 . S
Dy123 O137 2.326 . S
O124 Dy120 2.398 . S
O124 C122 1.185 . S
O125 Dy120 2.491 . S
O125 C122 1.355 . S
O126 Dy120 2.403 . S
O126 C128 1.254 . S
O127 Dy120 2.664 . S
O127 Dy123 2.310 . S
O127 C128 1.268 . S
C128 O126 1.254 . S
C128 O127 1.268 . S
C129 O134 1.254 . S
C129 O135 1.268 . S
O130 Dy123 2.351 . S
O130 C138 1.249 . S
O131 Dy120 2.326 . S
O131 C138 1.267 . S
O132 C121 1.185 . S
O132 Dy123 2.398 . S
O133 C121 1.355 . S
O133 Dy123 2.491 . S
O134 Dy123 2.403 . S
O134 C129 1.254 . S
O135 Dy120 2.310 . S
O135 Dy123 2.664 . S
O135 C129 1.268 . S
O136 Dy120 2.351 . S
O136 C139 1.249 . S
O137 Dy123 2.326 . S
O137 C139 1.267 . S
C138 O130 1.249 . S
C138 O131 1.267 . S
C139 O136 1.249 . S
C139 O137 1.267 . S
Dy140 O144 2.398 . S
Dy140 O145 2.491 . S
Dy140 O146 2.403 1_655 S
Dy140 O147 2.664 1_655 S
Dy140 O151 2.326 1_655 S
Dy140 O155 2.310 . S
Dy140 O156 2.351 . S
C141 O152 1.185 . S
C141 O153 1.355 . S
C142 O144 1.185 . S
C142 O145 1.355 . S
Dy143 O147 2.310 . S
Dy143 O150 2.351 . S
Dy143 O152 2.398 . S
Dy143 O153 2.491 . S
Dy143 O154 2.403 1_455 S
Dy143 O155 2.664 1_455 S
Dy143 O157 2.326 1_455 S
O144 Dy140 2.398 . S
O144 C142 1.185 . S
O145 Dy140 2.491 . S
O145 C142 1.355 . S
O146 Dy140 2.403 1_455 S
O146 C148 1.254 . S
O147 Dy140 2.664 1_455 S
O147 Dy143 2.310 . S
O147 C148 1.268 . S
C148 O146 1.254 . S
C148 O147 1.268 . S
C149 O154 1.254 . S
C149 O155 1.268 . S
O150 Dy143 2.351 . S
O150 C158 1.249 . S
O151 Dy140 2.326 1_455 S
O151 C158 1.267 . S
O152 C141 1.185 . S
O152 Dy143 2.398 . S
O153 C141 1.355 . S
O153 Dy143 2.491 . S
O154 Dy143 2.403 1_655 S
O154 C149 1.254 . S
O155 Dy140 2.310 . S
O155 Dy143 2.664 1_655 S
O155 C149 1.268 . S
O156 Dy140 2.351 . S
O156 C159 1.249 . S
O157 Dy143 2.326 1_655 S
O157 C159 1.267 . S
C158 O150 1.249 . S
C158 O151 1.267 . S
C159 O156 1.249 . S
C159 O157 1.267 . S
Dy160 O164 2.398 . S
Dy160 O165 2.491 1_556 S
Dy160 O166 2.403 . S
Dy160 O167 2.664 . S
Dy160 O171 2.326 1_556 S
Dy160 O175 2.310 1_556 S
Dy160 O176 2.351 . S
C161 O172 1.185 . S
C161 O173 1.355 1_554 S
C162 O164 1.185 . S
C162 O165 1.355 1_556 S
Dy163 O167 2.310 1_554 S
Dy163 O170 2.351 . S
Dy163 O172 2.398 . S
Dy163 O173 2.491 1_554 S
Dy163 O174 2.403 . S
Dy163 O175 2.664 . S
Dy163 O177 2.326 1_554 S
O164 Dy160 2.398 . S
O164 C162 1.185 . S
O165 Dy160 2.491 1_554 S
O165 C162 1.355 1_554 S
O166 Dy160 2.403 . S
O166 C168 1.254 . S
O167 Dy160 2.664 . S
O167 Dy163 2.310 1_556 S
O167 C168 1.268 . S
C168 O166 1.254 . S
C168 O167 1.268 . S
C169 O174 1.254 . S
C169 O175 1.268 . S
O170 Dy163 2.351 . S
O170 C178 1.249 . S
O171 Dy160 2.326 1_554 S
O171 C178 1.267 . S
O172 C161 1.185 . S
O172 Dy163 2.398 . S
O173 C161 1.355 1_556 S
O173 Dy163 2.491 1_556 S
O174 Dy163 2.403 . S
O174 C169 1.254 . S
O175 Dy160 2.310 1_554 S
O175 Dy163 2.664 . S
O175 C169 1.268 . S
O176 Dy160 2.351 . S
O176 C179 1.249 . S
O177 Dy163 2.326 1_556 S
O177 C179 1.267 . S
C178 O170 1.249 . S
C178 O171 1.267 . S
C179 O176 1.249 . S
C179 O177 1.267 . S
Dy180 O184 2.398 . S
Dy180 O185 2.491 1_565 S
Dy180 O186 2.403 . S
Dy180 O187 2.664 . S
Dy180 O191 2.326 1_565 S
Dy180 O195 2.310 1_565 S
Dy180 O196 2.351 . S
C181 O192 1.185 . S
C181 O193 1.355 1_545 S
C182 O184 1.185 . S
C182 O185 1.355 1_565 S
Dy183 O187 2.310 1_545 S
Dy183 O190 2.351 . S
Dy183 O192 2.398 . S
Dy183 O193 2.491 1_545 S
Dy183 O194 2.403 . S
Dy183 O195 2.664 . S
Dy183 O197 2.326 1_545 S
O184 Dy180 2.398 . S
O184 C182 1.185 . S
O185 Dy180 2.491 1_545 S
O185 C182 1.355 1_545 S
O186 Dy180 2.403 . S
O186 C188 1.254 . S
O187 Dy180 2.664 . S
O187 Dy183 2.310 1_565 S
O187 C188 1.268 . S
C188 O186 1.254 . S
C188 O187 1.268 . S
C189 O194 1.254 . S
C189 O195 1.268 . S
O190 Dy183 2.351 . S
O190 C198 1.249 . S
O191 Dy180 2.326 1_545 S
O191 C198 1.267 . S
O192 C181 1.185 . S
O192 Dy183 2.398 . S
O193 C181 1.355 1_565 S
O193 Dy183 2.491 1_565 S
O194 Dy183 2.403 . S
O194 C189 1.254 . S
O195 Dy180 2.310 1_545 S
O195 Dy183 2.664 . S
O195 C189 1.268 . S
O196 Dy180 2.351 . S
O196 C199 1.249 . S
O197 Dy183 2.326 1_565 S
O197 C199 1.267 . S
C198 O190 1.249 . S
C198 O191 1.267 . S
C199 O196 1.249 . S
C199 O197 1.267 . S
Dy200 O204 2.398 . S
Dy200 O205 2.491 . S
Dy200 O206 2.403 . S
Dy200 O207 2.664 . S
Dy200 O211 2.326 . S
Dy200 O215 2.310 . S
Dy200 O216 2.351 . S
C201 O212 1.185 . S
C201 O213 1.355 . S
C202 O204 1.185 . S
C202 O205 1.355 . S
Dy203 O207 2.310 . S
Dy203 O210 2.351 . S
Dy203 O212 2.398 . S
Dy203 O213 2.491 . S
Dy203 O214 2.403 . S
Dy203 O215 2.664 . S
Dy203 O217 2.326 . S
O204 Dy200 2.398 . S
O204 C202 1.185 . S
O205 Dy200 2.491 . S
O205 C202 1.355 . S
O206 Dy200 2.403 . S
O206 C208 1.254 . S
O207 Dy200 2.664 . S
O207 Dy203 2.310 . S
O207 C208 1.268 . S
C208 O206 1.254 . S
C208 O207 1.268 . S
C209 O214 1.254 . S
C209 O215 1.268 . S
O210 Dy203 2.351 . S
O210 C218 1.249 . S
O211 Dy200 2.326 . S
O211 C218 1.267 . S
O212 C201 1.185 . S
O212 Dy203 2.398 . S
O213 C201 1.355 . S
O213 Dy203 2.491 . S
O214 Dy203 2.403 . S
O214 C209 1.254 . S
O215 Dy200 2.310 . S
O215 Dy203 2.664 . S
O215 C209 1.268 . S
O216 Dy200 2.351 . S
O216 C219 1.249 . S
O217 Dy203 2.326 . S
O217 C219 1.267 . S
C218 O210 1.249 . S
C218 O211 1.267 . S
C219 O216 1.249 . S
C219 O217 1.267 . S
Dy220 O224 2.398 . S
Dy220 O225 2.491 1_455 S
Dy220 O226 2.403 . S
Dy220 O227 2.664 . S
Dy220 O231 2.326 1_455 S
Dy220 O235 2.310 1_455 S
Dy220 O236 2.351 . S
C221 O232 1.185 . S
C221 O233 1.355 1_655 S
C222 O224 1.185 . S
C222 O225 1.355 1_455 S
Dy223 O227 2.310 1_655 S
Dy223 O230 2.351 . S
Dy223 O232 2.398 . S
Dy223 O233 2.491 1_655 S
Dy223 O234 2.403 . S
Dy223 O235 2.664 . S
Dy223 O237 2.326 1_655 S
O224 Dy220 2.398 . S
O224 C222 1.185 . S
O225 Dy220 2.491 1_655 S
O225 C222 1.355 1_655 S
O226 Dy220 2.403 . S
O226 C228 1.254 . S
O227 Dy220 2.664 . S
O227 Dy223 2.310 1_455 S
O227 C228 1.268 . S
C228 O226 1.254 . S
C228 O227 1.268 . S
C229 O234 1.254 . S
C229 O235 1.268 . S
O230 Dy223 2.351 . S
O230 C238 1.249 . S
O231 Dy220 2.326 1_655 S
O231 C238 1.267 . S
O232 C221 1.185 . S
O232 Dy223 2.398 . S
O233 C221 1.355 1_455 S
O233 Dy223 2.491 1_455 S
O234 Dy223 2.403 . S
O234 C229 1.254 . S
O235 Dy220 2.310 1_655 S
O235 Dy223 2.664 . S
O235 C229 1.268 . S
O236 Dy220 2.351 . S
O236 C239 1.249 . S
O237 Dy223 2.326 1_455 S
O237 C239 1.267 . S
C238 O230 1.249 . S
C238 O231 1.267 . S
C239 O236 1.249 . S
C239 O237 1.267 . S
Dy240 O244 2.398 . S
Dy240 O245 2.491 . S
Dy240 O246 2.403 . S
Dy240 O247 2.664 . S
Dy240 O251 2.326 . S
Dy240 O255 2.310 . S
Dy240 O256 2.351 . S
C241 O252 1.185 . S
C241 O253 1.355 . S
C242 O244 1.185 . S
C242 O245 1.355 . S
Dy243 O247 2.310 . S
Dy243 O250 2.351 . S
Dy243 O252 2.398 . S
Dy243 O253 2.491 . S
Dy243 O254 2.403 . S
Dy243 O255 2.664 . S
Dy243 O257 2.326 . S
O244 Dy240 2.398 . S
O244 C242 1.185 . S
O245 Dy240 2.491 . S
O245 C242 1.355 . S
O246 Dy240 2.403 . S
O246 C248 1.254 . S
O247 Dy240 2.664 . S
O247 Dy243 2.310 . S
O247 C248 1.268 . S
C248 O246 1.254 . S
C248 O247 1.268 . S
C249 O254 1.254 . S
C249 O255 1.268 . S
O250 Dy243 2.351 . S
O250 C258 1.249 . S
O251 Dy240 2.326 . S
O251 C258 1.267 . S
O252 C241 1.185 . S
O252 Dy243 2.398 . S
O253 C241 1.355 . S
O253 Dy243 2.491 . S
O254 Dy243 2.403 . S
O254 C249 1.254 . S
O255 Dy240 2.310 . S
O255 Dy243 2.664 . S
O255 C249 1.268 . S
O256 Dy240 2.351 . S
O256 C259 1.249 . S
O257 Dy243 2.326 . S
O257 C259 1.267 . S
C258 O250 1.249 . S
C258 O251 1.267 . S
C259 O256 1.249 . S
C259 O257 1.267 . S
Dy260 O264 2.398 . S
Dy260 O265 2.491 1_556 S
Dy260 O266 2.403 . S
Dy260 O267 2.664 . S
Dy260 O271 2.326 1_556 S
Dy260 O275 2.310 1_556 S
Dy260 O276 2.351 . S
C261 O272 1.185 . S
C261 O273 1.355 1_554 S
C262 O264 1.185 . S
C262 O265 1.355 1_556 S
Dy263 O267 2.310 1_554 S
Dy263 O270 2.351 . S
Dy263 O272 2.398 . S
Dy263 O273 2.491 1_554 S
Dy263 O274 2.403 . S
Dy263 O275 2.664 . S
Dy263 O277 2.326 1_554 S
O264 Dy260 2.398 . S
O264 C262 1.185 . S
O265 Dy260 2.491 1_554 S
O265 C262 1.355 1_554 S
O266 Dy260 2.403 . S
O266 C268 1.254 . S
O267 Dy260 2.664 . S
O267 Dy263 2.310 1_556 S
O267 C268 1.268 . S
C268 O266 1.254 . S
C268 O267 1.268 . S
C269 O274 1.254 . S
C269 O275 1.268 . S
O270 Dy263 2.351 . S
O270 C278 1.249 . S
O271 Dy260 2.326 1_554 S
O271 C278 1.267 . S
O272 C261 1.185 . S
O272 Dy263 2.398 . S
O273 C261 1.355 1_556 S
O273 Dy263 2.491 1_556 S
O274 Dy263 2.403 . S
O274 C269 1.254 . S
O275 Dy260 2.310 1_554 S
O275 Dy263 2.664 . S
O275 C269 1.268 . S
O276 Dy260 2.351 . S
O276 C279 1.249 . S
O277 Dy263 2.326 1_556 S
O277 C279 1.267 . S
C278 O270 1.249 . S
C278 O271 1.267 . S
C279 O276 1.249 . S
C279 O277 1.267 . S
Dy280 O284 2.398 . S
Dy280 O285 2.491 . S
Dy280 O286 2.403 . S
Dy280 O287 2.664 . S
Dy280 O291 2.326 . S
Dy280 O295 2.310 1_565 S
Dy280 O296 2.351 1_565 S
C281 O292 1.185 . S
C281 O293 1.355 . S
C282 O284 1.185 . S
C282 O285 1.355 . S
Dy283 O287 2.310 1_545 S
Dy283 O290 2.351 1_545 S
Dy283 O292 2.398 . S
Dy283 O293 2.491 . S
Dy283 O294 2.403 . S
Dy283 O295 2.664 . S
Dy283 O297 2.326 . S
O284 Dy280 2.398 . S
O284 C282 1.185 . S
O285 Dy280 2.491 . S
O285 C282 1.355 . S
O286 Dy280 2.403 . S
O286 C288 1.254 . S
O287 Dy280 2.664 . S
O287 Dy283 2.310 1_565 S
O287 C288 1.268 . S
C288 O286 1.254 . S
C288 O287 1.268 . S
C289 O294 1.254 . S
C289 O295 1.268 . S
O290 Dy283 2.351 1_565 S
O290 C298 1.249 . S
O291 Dy280 2.326 . S
O291 C298 1.267 . S
O292 C281 1.185 . S
O292 Dy283 2.398 . S
O293 C281 1.355 . S
O293 Dy283 2.491 . S
O294 Dy283 2.403 . S
O294 C289 1.254 . S
O295 Dy280 2.310 1_545 S
O295 Dy283 2.664 . S
O295 C289 1.268 . S
O296 Dy280 2.351 1_545 S
O296 C299 1.249 . S
O297 Dy283 2.326 . S
O297 C299 1.267 . S
C298 O290 1.249 . S
C298 O291 1.267 . S
C299 O296 1.249 . S
C299 O297 1.267 . S
Dy300 O304 2.398 . S
Dy300 O305 2.485 1_554 S
Dy300 O306 2.403 . S
Dy300 O307 2.664 . S
Dy300 O311 2.326 1_554 S
Dy300 O315 2.310 1_554 S
Dy300 O316 2.351 . S
C301 O312 1.185 . S
C301 O313 1.342 1_556 S
C302 O304 1.185 . S
C302 O305 1.347 1_554 S
Dy303 O307 2.310 1_556 S
Dy303 O310 2.351 . S
Dy303 O312 2.398 . S
Dy303 O313 2.480 1_556 S
Dy303 O314 2.403 . S
Dy303 O315 2.664 . S
Dy303 O317 2.326 1_556 S
O304 Dy300 2.398 . S
O304 C302 1.185 . S
O305 Dy300 2.485 1_556 S
O305 C302 1.347 1_556 S
O306 Dy300 2.403 . S
O306 C308 1.254 . S
O307 Dy300 2.664 . S
O307 Dy303 2.310 1_554 S
O307 C308 1.268 . S
C308 O306 1.254 . S
C308 O307 1.268 . S
C309 O314 1.254 . S
C309 O315 1.268 . S
O310 Dy303 2.351 . S
O310 C318 1.249 . S
O311 Dy300 2.326 1_556 S
O311 C318 1.267 . S
O312 C301 1.185 . S
O312 Dy303 2.398 . S
O313 C301 1.342 1_554 S
O313 Dy303 2.480 1_554 S
O314 Dy303 2.403 . S
O314 C309 1.254 . S
O315 Dy300 2.310 1_556 S
O315 Dy303 2.664 . S
O315 C309 1.268 . S
O316 Dy300 2.351 . S
O316 C319 1.249 . S
O317 Dy303 2.326 1_554 S
O317 C319 1.267 . S
C318 O310 1.249 . S
C318 O311 1.267 . S
C319 O316 1.249 . S
C319 O317 1.267 . S
C320 C321 1.391 . S
C320 C322 1.394 . S
C320 H336 0.931 . S
C321 C320 1.391 . S
C321 C325 1.376 . S
C322 C320 1.394 . S
C322 C323 1.369 . S
C322 C326 1.531 . S
C323 C322 1.369 . S
C323 C324 1.410 . S
C323 C331 1.503 . S
C324 C323 1.410 . S
C324 C325 1.392 . S
C324 C327 1.511 . S
C325 C321 1.376 . S
C325 C324 1.392 . S
C325 H337 0.929 . S
C326 C322 1.531 . S
C326 H338 0.960 . S
C326 H339 0.962 1_655 S
C326 H340 0.960 . S
C327 C324 1.511 . S
C327 H341 0.961 . S
C327 H342 0.961 . S
C327 H343 0.961 . S
C328 C329 1.370 1_455 S
C328 C330 1.363 . S
C328 H344 0.931 . S
C329 C328 1.370 1_655 S
C329 C333 1.408 . S
C330 C328 1.363 . S
C330 C331 1.370 1_455 S
C330 C334 1.524 . S
C331 C323 1.503 . S
C331 C330 1.370 1_655 S
C331 C332 1.403 . S
C332 C331 1.403 . S
C332 C333 1.404 . S
C332 C335 1.539 . S
C333 C329 1.408 . S
C333 C332 1.404 . S
C333 H345 0.930 . S
C334 C330 1.524 . S
C334 H346 0.956 . S
C334 H347 0.961 . S
C334 H348 0.961 . S
C335 C332 1.539 . S
C335 H349 0.958 . S
C335 H350 0.961 . S
C335 H351 0.960 . S
H336 C320 0.931 . S
H337 C325 0.929 . S
H338 C326 0.960 . S
H339 C326 0.962 1_455 S
H340 C326 0.960 . S
H341 C327 0.961 . S
H342 C327 0.961 . S
H343 C327 0.961 . S
H344 C328 0.931 . S
H345 C333 0.930 . S
H346 C334 0.956 . S
H347 C334 0.961 . S
H348 C334 0.961 . S
H349 C335 0.958 . S
H350 C335 0.961 . S
H351 C335 0.960 . S
C352 C353 1.391 . S
C352 C354 1.394 . S
C352 H368 0.931 . S
C353 C352 1.391 . S
C353 C357 1.376 . S
C354 C352 1.394 . S
C354 C355 1.369 . S
C354 C358 1.531 . S
C355 C354 1.369 . S
C355 C356 1.410 . S
C355 C363 1.503 . S
C356 C355 1.410 . S
C356 C357 1.392 . S
C356 C359 1.511 . S
C357 C353 1.376 . S
C357 C356 1.392 . S
C357 H369 0.929 . S
C358 C354 1.531 . S
C358 H370 0.960 . S
C358 H371 0.962 . S
C358 H372 0.960 . S
C359 C356 1.511 . S
C359 H373 0.961 . S
C359 H374 0.961 . S
C359 H375 0.961 . S
C360 C361 1.370 . S
C360 C362 1.363 . S
C360 H376 0.931 . S
C361 C360 1.370 . S
C361 C365 1.408 . S
C362 C360 1.363 . S
C362 C363 1.370 . S
C362 C366 1.524 . S
C363 C355 1.503 . S
C363 C362 1.370 . S
C363 C364 1.403 . S
C364 C363 1.403 . S
C364 C365 1.404 . S
C364 C367 1.539 . S
C365 C361 1.408 . S
C365 C364 1.404 . S
C365 H377 0.930 . S
C366 C362 1.524 . S
C366 H378 0.956 . S
C366 H379 0.961 . S
C366 H380 0.961 . S
C367 C364 1.539 . S
C367 H381 0.958 . S
C367 H382 0.961 . S
C367 H383 0.960 . S
H368 C352 0.931 . S
H369 C357 0.929 . S
H370 C358 0.960 . S
H371 C358 0.962 . S
H372 C358 0.960 . S
H373 C359 0.961 . S
H374 C359 0.961 . S
H375 C359 0.961 . S
H376 C360 0.931 . S
H377 C365 0.930 . S
H378 C366 0.956 . S
H379 C366 0.961 . S
H380 C366 0.961 . S
H381 C367 0.958 . S
H382 C367 0.961 . S
H383 C367 0.960 . S
C384 C385 1.391 . S
C384 C386 1.394 . S
C384 H400 0.931 . S
C385 C384 1.391 . S
C385 C389 1.376 . S
C386 C384 1.394 . S
C386 C387 1.369 . S
C386 C390 1.531 . S
C387 C386 1.369 . S
C387 C388 1.410 . S
C387 C395 1.503 . S
C388 C387 1.410 . S
C388 C389 1.392 . S
C388 C391 1.511 . S
C389 C385 1.376 . S
C389 C388 1.392 . S
C389 H401 0.929 . S
C390 C386 1.531 . S
C390 H402 0.960 . S
C390 H403 0.962 . S
C390 H404 0.960 . S
C391 C388 1.511 . S
C391 H405 0.961 . S
C391 H406 0.961 . S
C391 H407 0.961 . S
C392 C393 1.370 . S
C392 C394 1.363 . S
C392 H408 0.931 . S
C393 C392 1.370 . S
C393 C397 1.408 . S
C394 C392 1.363 . S
C394 C395 1.370 . S
C394 C398 1.524 . S
C395 C387 1.503 . S
C395 C394 1.370 . S
C395 C396 1.403 . S
C396 C395 1.403 . S
C396 C397 1.404 . S
C396 C399 1.539 . S
C397 C393 1.408 . S
C397 C396 1.404 . S
C397 H409 0.930 . S
C398 C394 1.524 . S
C398 H410 0.956 . S
C398 H411 0.961 . S
C398 H412 0.961 . S
C399 C396 1.539 . S
C399 H413 0.958 . S
C399 H414 0.961 . S
C399 H415 0.960 . S
H400 C384 0.931 . S
H401 C389 0.929 . S
H402 C390 0.960 . S
H403 C390 0.962 . S
H404 C390 0.960 . S
H405 C391 0.961 . S
H406 C391 0.961 . S
H407 C391 0.961 . S
H408 C392 0.931 . S
H409 C397 0.930 . S
H410 C398 0.956 . S
H411 C398 0.961 . S
H412 C398 0.961 . S
H413 C399 0.958 . S
H414 C399 0.961 . S
H415 C399 0.960 . S
C416 C417 1.391 . S
C416 C418 1.394 . S
C416 H432 0.931 . S
C417 C416 1.391 . S
C417 C421 1.376 . S
C418 C416 1.394 . S
C418 C419 1.369 . S
C418 C422 1.531 . S
C419 C418 1.369 . S
C419 C420 1.410 . S
C419 C427 1.503 . S
C420 C419 1.410 . S
C420 C421 1.392 . S
C420 C423 1.511 . S
C421 C417 1.376 . S
C421 C420 1.392 . S
C421 H433 0.929 . S
C422 C418 1.531 . S
C422 H434 0.960 . S
C422 H435 0.962 . S
C422 H436 0.960 . S
C423 C420 1.511 . S
C423 H437 0.961 . S
C423 H438 0.961 . S
C423 H439 0.961 . S
C424 C425 1.370 1_565 S
C424 C426 1.363 . S
C424 H440 0.931 . S
C425 C424 1.370 1_545 S
C425 C429 1.408 . S
C426 C424 1.363 . S
C426 C427 1.370 1_565 S
C426 C430 1.524 . S
C427 C419 1.503 . S
C427 C426 1.370 1_545 S
C427 C428 1.403 . S
C428 C427 1.403 . S
C428 C429 1.404 . S
C428 C431 1.539 . S
C429 C425 1.408 . S
C429 C428 1.404 . S
C429 H441 0.930 . S
C430 C426 1.524 . S
C430 H442 0.956 . S
C430 H443 0.961 . S
C430 H444 0.961 . S
C431 C428 1.539 . S
C431 H445 0.958 . S
C431 H446 0.961 . S
C431 H447 0.960 . S
H432 C416 0.931 . S
H433 C421 0.929 . S
H434 C422 0.960 . S
H435 C422 0.962 . S
H436 C422 0.960 . S
H437 C423 0.961 . S
H438 C423 0.961 . S
H439 C423 0.961 . S
H440 C424 0.931 . S
H441 C429 0.930 . S
H442 C430 0.956 . S
H443 C430 0.961 . S
H444 C430 0.961 . S
H445 C431 0.958 . S
H446 C431 0.961 . S
H447 C431 0.960 . S
C448 C449 1.391 . S
C448 C450 1.394 . S
C448 H464 0.931 . S
C449 C448 1.391 . S
C449 C453 1.376 . S
C450 C448 1.394 . S
C450 C451 1.369 . S
C450 C454 1.531 . S
C451 C450 1.369 . S
C451 C452 1.410 . S
C451 C459 1.503 . S
C452 C451 1.410 . S
C452 C453 1.392 . S
C452 C455 1.511 . S
C453 C449 1.376 . S
C453 C452 1.392 . S
C453 H465 0.929 . S
C454 C450 1.531 . S
C454 H466 0.960 . S
C454 H467 0.962 . S
C454 H468 0.960 . S
C455 C452 1.511 . S
C455 H469 0.961 1_565 S
C455 H470 0.961 1_565 S
C455 H471 0.961 . S
C456 C457 1.370 1_545 S
C456 C458 1.363 . S
C456 H472 0.931 . S
C457 C456 1.370 1_565 S
C457 C461 1.408 . S
C458 C456 1.363 . S
C458 C459 1.370 1_545 S
C458 C462 1.524 . S
C459 C451 1.503 . S
C459 C458 1.370 1_565 S
C459 C460 1.403 . S
C460 C459 1.403 . S
C460 C461 1.404 . S
C460 C463 1.539 . S
C461 C457 1.408 . S
C461 C460 1.404 . S
C461 H473 0.930 . S
C462 C458 1.524 . S
C462 H474 0.956 . S
C462 H475 0.961 . S
C462 H476 0.961 . S
C463 C460 1.539 . S
C463 H477 0.958 . S
C463 H478 0.961 . S
C463 H479 0.960 . S
H464 C448 0.931 . S
H465 C453 0.929 . S
H466 C454 0.960 . S
H467 C454 0.962 . S
H468 C454 0.960 . S
H469 C455 0.961 1_545 S
H470 C455 0.961 1_545 S
H471 C455 0.961 . S
H472 C456 0.931 . S
H473 C461 0.930 . S
H474 C462 0.956 . S
H475 C462 0.961 . S
H476 C462 0.961 . S
H477 C463 0.958 . S
H478 C463 0.961 . S
H479 C463 0.960 . S
C480 C481 1.391 . S
C480 C482 1.394 . S
C480 H496 0.931 . S
C481 C480 1.391 . S
C481 C485 1.376 1_455 S
C482 C480 1.394 . S
C482 C483 1.369 . S
C482 C486 1.531 . S
C483 C482 1.369 . S
C483 C484 1.410 1_455 S
C483 C491 1.503 . S
C484 C483 1.410 1_655 S
C484 C485 1.392 . S
C484 C487 1.511 . S
C485 C481 1.376 1_655 S
C485 C484 1.392 . S
C485 H497 0.929 . S
C486 C482 1.531 . S
C486 H498 0.960 . S
C486 H499 0.962 . S
C486 H500 0.960 . S
C487 C484 1.511 . S
C487 H501 0.961 . S
C487 H502 0.961 . S
C487 H503 0.961 . S
C488 C489 1.370 . S
C488 C490 1.363 . S
C488 H504 0.931 . S
C489 C488 1.370 . S
C489 C493 1.408 1_455 S
C490 C488 1.363 . S
C490 C491 1.370 . S
C490 C494 1.524 . S
C491 C483 1.503 . S
C491 C490 1.370 . S
C491 C492 1.403 1_455 S
C492 C491 1.403 1_655 S
C492 C493 1.404 . S
C492 C495 1.539 . S
C493 C489 1.408 1_655 S
C493 C492 1.404 . S
C493 H505 0.930 . S
C494 C490 1.524 . S
C494 H506 0.956 . S
C494 H507 0.961 . S
C494 H508 0.961 . S
C495 C492 1.539 . S
C495 H509 0.958 . S
C495 H510 0.961 . S
C495 H511 0.960 . S
H496 C480 0.931 . S
H497 C485 0.929 . S
H498 C486 0.960 . S
H499 C486 0.962 . S
H500 C486 0.960 . S
H501 C487 0.961 . S
H502 C487 0.961 . S
H503 C487 0.961 . S
H504 C488 0.931 . S
H505 C493 0.930 . S
H506 C494 0.956 . S
H507 C494 0.961 . S
H508 C494 0.961 . S
H509 C495 0.958 . S
H510 C495 0.961 . S
H511 C495 0.960 . S
C512 C513 1.391 . S
C512 C514 1.394 . S
C512 H528 0.931 . S
C513 C512 1.391 . S
C513 C517 1.376 . S
C514 C512 1.394 . S
C514 C515 1.369 . S
C514 C518 1.531 . S
C515 C514 1.369 . S
C515 C516 1.410 . S
C515 C523 1.503 . S
C516 C515 1.410 . S
C516 C517 1.392 . S
C516 C519 1.511 . S
C517 C513 1.376 . S
C517 C516 1.392 . S
C517 H529 0.929 . S
C518 C514 1.531 . S
C518 H530 0.960 . S
C518 H531 0.962 . S
C518 H532 0.960 . S
C519 C516 1.511 . S
C519 H533 0.961 . S
C519 H534 0.961 . S
C519 H535 0.961 . S
C520 C521 1.370 . S
C520 C522 1.363 . S
C520 H536 0.931 . S
C521 C520 1.370 . S
C521 C525 1.408 . S
C522 C520 1.363 . S
C522 C523 1.370 . S
C522 C526 1.524 . S
C523 C515 1.503 . S
C523 C522 1.370 . S
C523 C524 1.403 . S
C524 C523 1.403 . S
C524 C525 1.404 . S
C524 C527 1.539 . S
C525 C521 1.408 . S
C525 C524 1.404 . S
C525 H537 0.930 . S
C526 C522 1.524 . S
C526 H538 0.956 . S
C526 H539 0.961 . S
C526 H540 0.961 . S
C527 C524 1.539 . S
C527 H541 0.958 . S
C527 H542 0.961 . S
C527 H543 0.960 . S
H528 C512 0.931 . S
H529 C517 0.929 . S
H530 C518 0.960 . S
H531 C518 0.962 . S
H532 C518 0.960 . S
H533 C519 0.961 . S
H534 C519 0.961 . S
H535 C519 0.961 . S
H536 C520 0.931 . S
H537 C525 0.930 . S
H538 C526 0.956 . S
H539 C526 0.961 . S
H540 C526 0.961 . S
H541 C527 0.958 . S
H542 C527 0.961 . S
H543 C527 0.960 . S
C544 C545 1.391 . S
C544 C546 1.394 . S
C544 H560 0.931 . S
C545 C544 1.391 . S
C545 C549 1.376 . S
C546 C544 1.394 . S
C546 C547 1.369 . S
C546 C550 1.531 . S
C547 C546 1.369 . S
C547 C548 1.410 . S
C547 C555 1.503 . S
C548 C547 1.410 . S
C548 C549 1.392 . S
C548 C551 1.511 . S
C549 C545 1.376 . S
C549 C548 1.392 . S
C549 H561 0.929 . S
C550 C546 1.531 . S
C550 H562 0.960 . S
C550 H563 0.962 . S
C550 H564 0.960 . S
C551 C548 1.511 . S
C551 H565 0.961 . S
C551 H566 0.961 . S
C551 H567 0.961 . S
C552 C553 1.370 . S
C552 C554 1.363 . S
C552 H568 0.931 . S
C553 C552 1.370 . S
C553 C557 1.408 . S
C554 C552 1.363 . S
C554 C555 1.370 . S
C554 C558 1.524 . S
C555 C547 1.503 . S
C555 C554 1.370 . S
C555 C556 1.403 . S
C556 C555 1.403 . S
C556 C557 1.404 . S
C556 C559 1.539 . S
C557 C553 1.408 . S
C557 C556 1.404 . S
C557 H569 0.930 . S
C558 C554 1.524 . S
C558 H570 0.956 . S
C558 H571 0.961 . S
C558 H572 0.961 . S
C559 C556 1.539 . S
C559 H573 0.958 . S
C559 H574 0.961 . S
C559 H575 0.960 . S
H560 C544 0.931 . S
H561 C549 0.929 . S
H562 C550 0.960 . S
H563 C550 0.962 . S
H564 C550 0.960 . S
H565 C551 0.961 . S
H566 C551 0.961 . S
H567 C551 0.961 . S
H568 C552 0.931 . S
H569 C557 0.930 . S
H570 C558 0.956 . S
H571 C558 0.961 . S
H572 C558 0.961 . S
H573 C559 0.958 . S
H574 C559 0.961 . S
H575 C559 0.960 . S
C576 C577 1.391 . S
C576 C578 1.394 . S
C576 H592 0.931 . S
C577 C576 1.391 . S
C577 C581 1.376 . S
C578 C576 1.394 . S
C578 C579 1.369 . S
C578 C582 1.531 . S
C579 C578 1.369 . S
C579 C580 1.410 . S
C579 C587 1.503 . S
C580 C579 1.410 . S
C580 C581 1.392 . S
C580 C583 1.511 . S
C581 C577 1.376 . S
C581 C580 1.392 . S
C581 H593 0.929 . S
C582 C578 1.531 . S
C582 H594 0.960 . S
C582 H595 0.962 . S
C582 H596 0.960 . S
C583 C580 1.511 . S
C583 H597 0.961 . S
C583 H598 0.961 . S
C583 H599 0.961 . S
C584 C585 1.370 . S
C584 C586 1.363 . S
C584 H600 0.931 . S
C585 C584 1.370 . S
C585 C589 1.408 . S
C586 C584 1.363 . S
C586 C587 1.370 . S
C586 C590 1.524 . S
C587 C579 1.503 . S
C587 C586 1.370 . S
C587 C588 1.403 . S
C588 C587 1.403 . S
C588 C589 1.404 . S
C588 C591 1.539 . S
C589 C585 1.408 . S
C589 C588 1.404 . S
C589 H601 0.930 . S
C590 C586 1.524 . S
C590 H602 0.956 . S
C590 H603 0.961 . S
C590 H604 0.961 . S
C591 C588 1.539 . S
C591 H605 0.958 . S
C591 H606 0.961 . S
C591 H607 0.960 . S
H592 C576 0.931 . S
H593 C581 0.929 . S
H594 C582 0.960 . S
H595 C582 0.962 . S
H596 C582 0.960 . S
H597 C583 0.961 . S
H598 C583 0.961 . S
H599 C583 0.961 . S
H600 C584 0.931 . S
H601 C589 0.930 . S
H602 C590 0.956 . S
H603 C590 0.961 . S
H604 C590 0.961 . S
H605 C591 0.958 . S
H606 C591 0.961 . S
H607 C591 0.960 . S
C608 C609 1.391 . S
C608 C610 1.394 . S
C608 H624 0.931 . S
C609 C608 1.391 . S
C609 C613 1.376 . S
C610 C608 1.394 . S
C610 C611 1.369 . S
C610 C614 1.531 . S
C611 C610 1.369 . S
C611 C612 1.410 . S
C611 C619 1.503 . S
C612 C611 1.410 . S
C612 C613 1.392 . S
C612 C615 1.511 . S
C613 C609 1.376 . S
C613 C612 1.392 . S
C613 H625 0.929 . S
C614 C610 1.531 . S
C614 H626 0.960 . S
C614 H627 0.962 . S
C614 H628 0.960 . S
C615 C612 1.511 . S
C615 H629 0.961 . S
C615 H630 0.961 . S
C615 H631 0.961 . S
C616 C617 1.370 . S
C616 C618 1.363 . S
C616 H632 0.931 . S
C617 C616 1.370 . S
C617 C621 1.408 . S
C618 C616 1.363 . S
C618 C619 1.370 . S
C618 C622 1.524 . S
C619 C611 1.503 . S
C619 C618 1.370 . S
C619 C620 1.403 . S
C620 C619 1.403 . S
C620 C621 1.404 . S
C620 C623 1.539 . S
C621 C617 1.408 . S
C621 C620 1.404 . S
C621 H633 0.930 . S
C622 C618 1.524 . S
C622 H634 0.956 . S
C622 H635 0.961 . S
C622 H636 0.961 . S
C623 C620 1.539 . S
C623 H637 0.958 . S
C623 H638 0.961 . S
C623 H639 0.960 . S
H624 C608 0.931 . S
H625 C613 0.929 . S
H626 C614 0.960 . S
H627 C614 0.962 . S
H628 C614 0.960 . S
H629 C615 0.961 . S
H630 C615 0.961 . S
H631 C615 0.961 . S
H632 C616 0.931 . S
H633 C621 0.930 . S
H634 C622 0.956 . S
H635 C622 0.961 . S
H636 C622 0.961 . S
H637 C623 0.958 . S
H638 C623 0.961 . S
H639 C623 0.960 . S
C640 C641 1.391 . S
C640 C642 1.394 . S
C640 H656 0.931 . S
C641 C640 1.391 . S
C641 C645 1.376 . S
C642 C640 1.394 . S
C642 C643 1.369 . S
C642 C646 1.531 . S
C643 C642 1.369 . S
C643 C644 1.410 . S
C643 C651 1.503 . S
C644 C643 1.410 . S
C644 C645 1.392 . S
C644 C647 1.511 . S
C645 C641 1.376 . S
C645 C644 1.392 . S
C645 H657 0.929 . S
C646 C642 1.531 . S
C646 H658 0.960 . S
C646 H659 0.962 . S
C646 H660 0.960 . S
C647 C644 1.511 . S
C647 H661 0.961 . S
C647 H662 0.961 . S
C647 H663 0.961 . S
C648 C649 1.370 1_545 S
C648 C650 1.363 . S
C648 H664 0.931 . S
C649 C648 1.370 1_565 S
C649 C653 1.408 . S
C650 C648 1.363 . S
C650 C651 1.370 1_545 S
C650 C654 1.524 . S
C651 C643 1.503 . S
C651 C650 1.370 1_565 S
C651 C652 1.403 . S
C652 C651 1.403 . S
C652 C653 1.404 . S
C652 C655 1.539 . S
C653 C649 1.408 . S
C653 C652 1.404 . S
C653 H665 0.930 . S
C654 C650 1.524 . S
C654 H666 0.956 . S
C654 H667 0.961 . S
C654 H668 0.961 . S
C655 C652 1.539 . S
C655 H669 0.958 . S
C655 H670 0.961 . S
C655 H671 0.960 . S
H656 C640 0.931 . S
H657 C645 0.929 . S
H658 C646 0.960 . S
H659 C646 0.962 . S
H660 C646 0.960 . S
H661 C647 0.961 . S
H662 C647 0.961 . S
H663 C647 0.961 . S
H664 C648 0.931 . S
H665 C653 0.930 . S
H666 C654 0.956 . S
H667 C654 0.961 . S
H668 C654 0.961 . S
H669 C655 0.958 . S
H670 C655 0.961 . S
H671 C655 0.960 . S
C672 C673 1.391 . S
C672 C674 1.394 . S
C672 H688 0.931 . S
C673 C672 1.391 . S
C673 C677 1.376 1_455 S
C674 C672 1.394 . S
C674 C675 1.369 . S
C674 C678 1.531 . S
C675 C674 1.369 . S
C675 C676 1.410 1_455 S
C675 C683 1.503 . S
C676 C675 1.410 1_655 S
C676 C677 1.392 . S
C676 C679 1.511 . S
C677 C673 1.376 1_655 S
C677 C676 1.392 . S
C677 H689 0.929 . S
C678 C674 1.531 . S
C678 H690 0.960 . S
C678 H691 0.962 . S
C678 H692 0.960 . S
C679 C676 1.511 . S
C679 H693 0.961 . S
C679 H694 0.961 . S
C679 H695 0.961 . S
C680 C681 1.370 . S
C680 C682 1.363 . S
C680 H696 0.931 . S
C681 C680 1.370 . S
C681 C685 1.408 1_455 S
C682 C680 1.363 . S
C682 C683 1.370 . S
C682 C686 1.524 . S
C683 C675 1.503 . S
C683 C682 1.370 . S
C683 C684 1.403 1_455 S
C684 C683 1.403 1_655 S
C684 C685 1.404 . S
C684 C687 1.539 . S
C685 C681 1.408 1_655 S
C685 C684 1.404 . S
C685 H697 0.930 . S
C686 C682 1.524 . S
C686 H698 0.956 . S
C686 H699 0.961 . S
C686 H700 0.961 . S
C687 C684 1.539 . S
C687 H701 0.981 . S
C687 H702 0.961 . S
C687 H703 0.960 . S
H688 C672 0.931 . S
H689 C677 0.929 . S
H690 C678 0.960 . S
H691 C678 0.962 . S
H692 C678 0.960 . S
H693 C679 0.961 . S
H694 C679 0.961 . S
H695 C679 0.961 . S
H696 C680 0.931 . S
H697 C685 0.930 . S
H698 C686 0.956 . S
H699 C686 0.961 . S
H700 C686 0.961 . S
H701 C687 0.981 . S
H702 C687 0.961 . S
H703 C687 0.960 . S
C704 C705 1.391 . S
C704 C706 1.394 . S
C704 H720 0.931 . S
C705 C704 1.391 . S
C705 C709 1.376 1_556 S
C706 C704 1.394 . S
C706 C707 1.369 . S
C706 C710 1.531 . S
C707 C706 1.369 . S
C707 C708 1.410 1_556 S
C707 C715 1.503 . S
C708 C707 1.410 1_554 S
C708 C709 1.392 . S
C708 C711 1.511 . S
C709 C705 1.376 1_554 S
C709 C708 1.392 . S
C709 H721 0.929 . S
C710 C706 1.531 . S
C710 H722 0.960 . S
C710 H723 0.962 . S
C710 H724 0.960 . S
C711 C708 1.511 . S
C711 H725 0.961 . S
C711 H726 0.961 . S
C711 H727 0.961 . S
C712 C713 1.370 . S
C712 C714 1.363 . S
C712 H728 0.931 . S
C713 C712 1.370 . S
C713 C717 1.408 1_556 S
C714 C712 1.363 . S
C714 C715 1.370 . S
C714 C718 1.524 . S
C715 C707 1.503 . S
C715 C714 1.370 . S
C715 C716 1.403 1_556 S
C716 C715 1.403 1_554 S
C716 C717 1.404 . S
C716 C719 1.539 . S
C717 C713 1.408 1_554 S
C717 C716 1.404 . S
C717 H729 0.930 . S
C718 C714 1.524 . S
C718 H730 0.956 . S
C718 H731 0.961 . S
C718 H732 0.961 . S
C719 C716 1.539 . S
C719 H733 0.958 . S
C719 H734 0.961 . S
C719 H735 0.960 . S
H720 C704 0.931 . S
H721 C709 0.929 . S
H722 C710 0.960 . S
H723 C710 0.962 . S
H724 C710 0.960 . S
H725 C711 0.961 . S
H726 C711 0.961 . S
H727 C711 0.961 . S
H728 C712 0.931 . S
H729 C717 0.930 . S
H730 C718 0.956 . S
H731 C718 0.961 . S
H732 C718 0.961 . S
H733 C719 0.958 . S
H734 C719 0.961 . S
H735 C719 0.960 . S
C736 C737 1.391 . S
C736 C738 1.394 . S
C736 H752 0.931 . S
C737 C736 1.391 . S
C737 C741 1.376 . S
C738 C736 1.394 . S
C738 C739 1.369 . S
C738 C742 1.531 . S
C739 C738 1.369 . S
C739 C740 1.410 . S
C739 C747 1.503 . S
C740 C739 1.410 . S
C740 C741 1.392 . S
C740 C743 1.511 . S
C741 C737 1.376 . S
C741 C740 1.392 . S
C741 H753 0.929 . S
C742 C738 1.531 . S
C742 H754 0.960 . S
C742 H755 0.962 . S
C742 H756 0.960 . S
C743 C740 1.511 . S
C743 H757 0.961 . S
C743 H758 0.961 . S
C743 H759 0.961 . S
C744 C745 1.370 . S
C744 C746 1.363 . S
C744 H760 0.931 . S
C745 C744 1.370 . S
C745 C749 1.408 . S
C746 C744 1.363 . S
C746 C747 1.370 . S
C746 C750 1.524 . S
C747 C739 1.503 . S
C747 C746 1.370 . S
C747 C748 1.403 . S
C748 C747 1.403 . S
C748 C749 1.404 . S
C748 C751 1.539 . S
C749 C745 1.408 . S
C749 C748 1.404 . S
C749 H761 0.930 . S
C750 C746 1.524 . S
C750 H762 0.956 . S
C750 H763 0.961 . S
C750 H764 0.961 . S
C751 C748 1.539 . S
C751 H765 0.958 . S
C751 H766 0.961 . S
C751 H767 0.960 . S
H752 C736 0.931 . S
H753 C741 0.929 . S
H754 C742 0.960 . S
H755 C742 0.962 . S
H756 C742 0.960 . S
H757 C743 0.961 . S
H758 C743 0.961 . S
H759 C743 0.961 . S
H760 C744 0.931 . S
H761 C749 0.930 . S
H762 C750 0.956 . S
H763 C750 0.961 . S
H764 C750 0.961 . S
H765 C751 0.958 . S
H766 C751 0.961 . S
H767 C751 0.960 . S
C768 C769 1.391 . S
C768 C770 1.394 . S
C768 H784 0.931 . S
C769 C768 1.391 . S
C769 C773 1.376 . S
C770 C768 1.394 . S
C770 C771 1.369 . S
C770 C774 1.531 . S
C771 C770 1.369 . S
C771 C772 1.410 . S
C771 C779 1.503 . S
C772 C771 1.410 . S
C772 C773 1.392 . S
C772 C775 1.511 . S
C773 C769 1.376 . S
C773 C772 1.392 . S
C773 H785 0.929 . S
C774 C770 1.531 . S
C774 H786 0.960 . S
C774 H787 0.962 . S
C774 H788 0.960 . S
C775 C772 1.511 . S
C775 H789 0.961 . S
C775 H790 0.961 . S
C775 H791 0.961 . S
C776 C777 1.370 . S
C776 C778 1.363 . S
C776 H792 0.931 . S
C777 C776 1.370 . S
C777 C781 1.408 . S
C778 C776 1.363 . S
C778 C779 1.370 . S
C778 C782 1.524 . S
C779 C771 1.503 . S
C779 C778 1.370 . S
C779 C780 1.403 . S
C780 C779 1.403 . S
C780 C781 1.404 . S
C780 C783 1.539 . S
C781 C777 1.408 . S
C781 C780 1.404 . S
C781 H793 0.930 . S
C782 C778 1.524 . S
C782 H794 0.956 . S
C782 H795 0.961 . S
C782 H796 0.961 . S
C783 C780 1.539 . S
C783 H797 0.958 . S
C783 H798 0.961 . S
C783 H799 0.960 . S
H784 C768 0.931 . S
H785 C773 0.929 . S
H786 C774 0.960 . S
H787 C774 0.962 . S
H788 C774 0.960 . S
H789 C775 0.961 . S
H790 C775 0.961 . S
H791 C775 0.961 . S
H792 C776 0.931 . S
H793 C781 0.930 . S
H794 C782 0.956 . S
H795 C782 0.961 . S
H796 C782 0.961 . S
H797 C783 0.958 . S
H798 C783 0.961 . S
H799 C783 0.960 . S
C800 C801 1.391 . S
C800 C802 1.394 . S
C800 H816 0.931 . S
C801 C800 1.391 . S
C801 C805 1.376 . S
C802 C800 1.394 . S
C802 C803 1.369 . S
C802 C806 1.531 . S
C803 C802 1.369 . S
C803 C804 1.410 . S
C803 C811 1.503 . S
C804 C803 1.410 . S
C804 C805 1.392 . S
C804 C807 1.511 . S
C805 C801 1.376 . S
C805 C804 1.392 . S
C805 H817 0.929 . S
C806 C802 1.531 . S
C806 H818 0.960 . S
C806 H819 0.962 . S
C806 H820 0.960 . S
C807 C804 1.511 . S
C807 H821 0.961 . S
C807 H822 0.961 . S
C807 H823 0.961 . S
C808 C809 1.370 . S
C808 C810 1.363 . S
C808 H824 0.931 . S
C809 C808 1.370 . S
C809 C813 1.408 . S
C810 C808 1.363 . S
C810 C811 1.370 . S
C810 C814 1.524 . S
C811 C803 1.503 . S
C811 C810 1.370 . S
C811 C812 1.403 . S
C812 C811 1.403 . S
C812 C813 1.404 . S
C812 C815 1.539 . S
C813 C809 1.408 . S
C813 C812 1.404 . S
C813 H825 0.930 . S
C814 C810 1.524 . S
C814 H826 0.956 . S
C814 H827 0.961 . S
C814 H828 0.961 . S
C815 C812 1.539 . S
C815 H829 0.958 . S
C815 H830 0.961 . S
C815 H831 0.960 . S
H816 C800 0.931 . S
H817 C805 0.929 . S
H818 C806 0.960 . S
H819 C806 0.962 . S
H820 C806 0.960 . S
H821 C807 0.961 . S
H822 C807 0.961 . S
H823 C807 0.961 . S
H824 C808 0.931 . S
H825 C813 0.930 . S
H826 C814 0.956 . S
H827 C814 0.961 . S
H828 C814 0.961 . S
H829 C815 0.958 . S
H830 C815 0.961 . S
H831 C815 0.960 . S
C832 C833 1.391 . S
C832 C834 1.394 . S
C832 H848 0.931 . S
C833 C832 1.391 . S
C833 C837 1.376 . S
C834 C832 1.394 . S
C834 C835 1.369 . S
C834 C838 1.531 . S
C835 C834 1.369 . S
C835 C836 1.410 . S
C835 C843 1.503 . S
C836 C835 1.410 . S
C836 C837 1.392 . S
C836 C839 1.511 . S
C837 C833 1.376 . S
C837 C836 1.392 . S
C837 H849 0.929 . S
C838 C834 1.531 . S
C838 H850 0.960 . S
C838 H851 0.962 . S
C838 H852 0.960 . S
C839 C836 1.511 . S
C839 H853 0.961 . S
C839 H854 0.961 . S
C839 H855 0.961 . S
C840 C841 1.370 . S
C840 C842 1.363 . S
C840 H856 0.931 . S
C841 C840 1.370 . S
C841 C845 1.408 . S
C842 C840 1.363 . S
C842 C843 1.370 . S
C842 C846 1.524 . S
C843 C835 1.503 . S
C843 C842 1.370 . S
C843 C844 1.403 . S
C844 C843 1.403 . S
C844 C845 1.404 . S
C844 C847 1.539 . S
C845 C841 1.408 . S
C845 C844 1.404 . S
C845 H857 0.930 . S
C846 C842 1.524 . S
C846 H858 0.956 . S
C846 H859 0.961 . S
C846 H860 0.961 . S
C847 C844 1.539 . S
C847 H861 0.958 . S
C847 H862 0.961 . S
C847 H863 0.960 . S
H848 C832 0.931 . S
H849 C837 0.929 . S
H850 C838 0.960 . S
H851 C838 0.962 . S
H852 C838 0.960 . S
H853 C839 0.961 . S
H854 C839 0.961 . S
H855 C839 0.961 . S
H856 C840 0.931 . S
H857 C845 0.930 . S
H858 C846 0.956 . S
H859 C846 0.961 . S
H860 C846 0.961 . S
H861 C847 0.958 . S
H862 C847 0.961 . S
H863 C847 0.960 . S
C864 C865 1.391 . S
C864 C866 1.394 . S
C864 H880 0.931 . S
C865 C864 1.391 . S
C865 C869 1.376 . S
C866 C864 1.394 . S
C866 C867 1.369 . S
C866 C870 1.531 . S
C867 C866 1.369 . S
C867 C868 1.410 . S
C867 C875 1.503 . S
C868 C867 1.410 . S
C868 C869 1.392 . S
C868 C871 1.511 . S
C869 C865 1.376 . S
C869 C868 1.392 . S
C869 H881 0.929 . S
C870 C866 1.531 . S
C870 H882 0.960 . S
C870 H883 0.962 . S
C870 H884 0.960 . S
C871 C868 1.511 . S
C871 H885 0.961 . S
C871 H886 0.961 . S
C871 H887 0.961 . S
C872 C873 1.370 . S
C872 C874 1.363 . S
C872 H888 0.931 . S
C873 C872 1.370 . S
C873 C877 1.408 . S
C874 C872 1.363 . S
C874 C875 1.370 . S
C874 C878 1.524 . S
C875 C867 1.503 . S
C875 C874 1.370 . S
C875 C876 1.403 . S
C876 C875 1.403 . S
C876 C877 1.404 . S
C876 C879 1.539 . S
C877 C873 1.408 . S
C877 C876 1.404 . S
C877 H889 0.930 . S
C878 C874 1.524 . S
C878 H890 0.956 . S
C878 H891 0.961 . S
C878 H892 0.961 . S
C879 C876 1.539 . S
C879 H893 0.958 . S
C879 H894 0.961 . S
C879 H895 0.960 . S
H880 C864 0.931 . S
H881 C869 0.929 . S
H882 C870 0.960 . S
H883 C870 0.962 . S
H884 C870 0.960 . S
H885 C871 0.961 . S
H886 C871 0.961 . S
H887 C871 0.961 . S
H888 C872 0.931 . S
H889 C877 0.930 . S
H890 C878 0.956 . S
H891 C878 0.961 . S
H892 C878 0.961 . S
H893 C879 0.958 . S
H894 C879 0.961 . S
H895 C879 0.960 . S
C896 C897 1.391 . S
C896 C898 1.394 . S
C896 H912 0.931 . S
C897 C896 1.391 . S
C897 C901 1.376 . S
C898 C896 1.394 . S
C898 C899 1.369 . S
C898 C902 1.531 . S
C899 C898 1.369 . S
C899 C900 1.410 . S
C899 C907 1.503 . S
C900 C899 1.410 . S
C900 C901 1.392 . S
C900 C903 1.511 . S
C901 C897 1.376 . S
C901 C900 1.392 . S
C901 H913 0.929 . S
C902 C898 1.531 . S
C902 H914 0.960 . S
C902 H915 0.962 . S
C902 H916 0.960 . S
C903 C900 1.511 . S
C903 H917 0.961 . S
C903 H918 0.961 . S
C903 H919 0.961 . S
C904 C905 1.370 . S
C904 C906 1.363 . S
C904 H920 0.931 . S
C905 C904 1.370 . S
C905 C909 1.408 . S
C906 C904 1.363 . S
C906 C907 1.370 . S
C906 C910 1.524 . S
C907 C899 1.503 . S
C907 C906 1.370 . S
C907 C908 1.403 . S
C908 C907 1.403 . S
C908 C909 1.404 . S
C908 C911 1.539 . S
C909 C905 1.408 . S
C909 C908 1.404 . S
C909 H921 0.930 . S
C910 C906 1.524 . S
C910 H922 0.956 . S
C910 H923 0.961 . S
C910 H924 0.961 . S
C911 C908 1.539 . S
C911 H925 0.958 . S
C911 H926 0.961 . S
C911 H927 0.960 . S
H912 C896 0.931 . S
H913 C901 0.929 . S
H914 C902 0.960 . S
H915 C902 0.962 . S
H916 C902 0.960 . S
H917 C903 0.961 . S
H918 C903 0.961 . S
H919 C903 0.961 . S
H920 C904 0.931 . S
H921 C909 0.930 . S
H922 C910 0.956 . S
H923 C910 0.961 . S
H924 C910 0.961 . S
H925 C911 0.958 . S
H926 C911 0.961 . S
H927 C911 0.960 . S
C928 C929 1.391 . S
C928 C930 1.394 . S
C928 H944 0.931 . S
C929 C928 1.391 . S
C929 C933 1.376 . S
C930 C928 1.394 . S
C930 C931 1.369 . S
C930 C934 1.531 . S
C931 C930 1.369 . S
C931 C932 1.410 . S
C931 C939 1.503 . S
C932 C931 1.410 . S
C932 C933 1.392 . S
C932 C935 1.511 . S
C933 C929 1.376 . S
C933 C932 1.392 . S
C933 H945 0.929 . S
C934 C930 1.531 . S
C934 H946 0.960 . S
C934 H947 0.962 . S
C934 H948 0.960 . S
C935 C932 1.511 . S
C935 H949 0.961 . S
C935 H950 0.961 . S
C935 H951 0.961 . S
C936 C937 1.370 . S
C936 C938 1.363 . S
C936 H952 0.931 . S
C937 C936 1.370 . S
C937 C941 1.408 . S
C938 C936 1.363 . S
C938 C939 1.370 . S
C938 C942 1.524 . S
C939 C931 1.503 . S
C939 C938 1.370 . S
C939 C940 1.403 . S
C940 C939 1.403 . S
C940 C941 1.404 . S
C940 C943 1.539 . S
C941 C937 1.408 . S
C941 C940 1.404 . S
C941 H953 0.930 . S
C942 C938 1.524 . S
C942 H954 0.956 . S
C942 H955 0.961 . S
C942 H956 0.961 . S
C943 C940 1.539 . S
C943 H957 0.958 . S
C943 H958 0.961 . S
C943 H959 0.960 . S
H944 C928 0.931 . S
H945 C933 0.929 . S
H946 C934 0.960 . S
H947 C934 0.962 . S
H948 C934 0.960 . S
H949 C935 0.961 . S
H950 C935 0.961 . S
H951 C935 0.961 . S
H952 C936 0.931 . S
H953 C941 0.930 . S
H954 C942 0.956 . S
H955 C942 0.961 . S
H956 C942 0.961 . S
H957 C943 0.958 . S
H958 C943 0.961 . S
H959 C943 0.960 . S
C960 C961 1.391 . S
C960 C962 1.394 . S
C960 H976 0.931 . S
C961 C960 1.391 . S
C961 C965 1.376 . S
C962 C960 1.394 . S
C962 C963 1.369 . S
C962 C966 1.531 . S
C963 C962 1.369 . S
C963 C964 1.410 . S
C963 C971 1.503 . S
C964 C963 1.410 . S
C964 C965 1.392 . S
C964 C967 1.511 . S
C965 C961 1.376 . S
C965 C964 1.392 . S
C965 H977 0.929 . S
C966 C962 1.531 . S
C966 H978 0.960 . S
C966 H979 0.962 . S
C966 H980 0.960 . S
C967 C964 1.511 . S
C967 H981 0.961 . S
C967 H982 0.961 . S
C967 H983 0.961 . S
C968 C969 1.370 . S
C968 C970 1.363 . S
C968 H984 0.931 . S
C969 C968 1.370 . S
C969 C973 1.408 . S
C970 C968 1.363 . S
C970 C971 1.370 . S
C970 C974 1.524 . S
C971 C963 1.503 . S
C971 C970 1.370 . S
C971 C972 1.403 . S
C972 C971 1.403 . S
C972 C973 1.404 . S
C972 C975 1.539 . S
C973 C969 1.408 . S
C973 C972 1.404 . S
C973 H985 0.930 . S
C974 C970 1.524 . S
C974 H986 0.956 . S
C974 H987 0.961 . S
C974 H988 0.961 . S
C975 C972 1.539 . S
C975 H989 0.958 . S
C975 H990 0.961 . S
C975 H991 0.960 . S
H976 C960 0.931 . S
H977 C965 0.929 . S
H978 C966 0.960 . S
H979 C966 0.962 . S
H980 C966 0.960 . S
H981 C967 0.961 . S
H982 C967 0.961 . S
H983 C967 0.961 . S
H984 C968 0.931 . S
H985 C973 0.930 . S
H986 C974 0.956 . S
H987 C974 0.961 . S
H988 C974 0.961 . S
H989 C975 0.958 . S
H990 C975 0.961 . S
H991 C975 0.960 . S
C992 C993 1.391 . S
C992 C994 1.394 . S
C992 H1008 0.931 . S
C993 C992 1.391 . S
C993 C997 1.376 1_655 S
C994 C992 1.394 . S
C994 C995 1.369 . S
C994 C998 1.531 . S
C995 C994 1.369 . S
C995 C996 1.410 1_655 S
C995 C1003 1.503 . S
C996 C995 1.410 1_455 S
C996 C997 1.392 . S
C996 C999 1.511 . S
C997 C993 1.376 1_455 S
C997 C996 1.392 . S
C997 H1009 0.929 . S
C998 C994 1.531 . S
C998 H1010 0.960 . S
C998 H1011 0.962 . S
C998 H1012 0.960 . S
C999 C996 1.511 . S
C999 H1013 0.961 . S
C999 H1014 0.961 . S
C999 H1015 0.961 . S
C1000 C1001 1.370 . S
C1000 C1002 1.363 . S
C1000 H1016 0.931 . S
C1001 C1000 1.370 . S
C1001 C1005 1.390 1_655 S
C1002 C1000 1.363 . S
C1002 C1003 1.370 . S
C1002 C1006 1.524 . S
C1003 C995 1.503 . S
C1003 C1002 1.370 . S
C1003 C1004 1.403 1_655 S
C1004 C1003 1.403 1_455 S
C1004 C1005 1.411 . S
C1004 C1007 1.539 . S
C1005 C1001 1.390 1_455 S
C1005 C1004 1.411 . S
C1005 H1017 0.942 . S
C1006 C1002 1.524 . S
C1006 H1018 0.956 . S
C1006 H1019 0.961 . S
C1006 H1020 0.961 . S
C1007 C1004 1.539 . S
C1007 H1021 0.958 . S
C1007 H1022 0.961 . S
C1007 H1023 0.960 . S
H1008 C992 0.931 . S
H1009 C997 0.929 . S
H1010 C998 0.960 . S
H1011 C998 0.962 . S
H1012 C998 0.960 . S
H1013 C999 0.961 . S
H1014 C999 0.961 . S
H1015 C999 0.961 . S
H1016 C1000 0.931 . S
H1017 C1005 0.942 . S
H1018 C1006 0.956 . S
H1019 C1006 0.961 . S
H1020 C1006 0.961 . S
H1021 C1007 0.958 . S
H1022 C1007 0.961 . S
H1023 C1007 0.960 . S
C1024 C1025 1.391 . S
C1024 C1026 1.394 . S
C1024 H1040 0.931 . S
C1025 C1024 1.391 . S
C1025 C1029 1.376 . S
C1026 C1024 1.394 . S
C1026 C1027 1.369 . S
C1026 C1030 1.531 . S
C1027 C1026 1.369 . S
C1027 C1028 1.410 . S
C1027 C1035 1.503 . S
C1028 C1027 1.410 . S
C1028 C1029 1.392 . S
C1028 C1031 1.511 . S
C1029 C1025 1.376 . S
C1029 C1028 1.392 . S
C1029 H1041 0.929 . S
C1030 C1026 1.531 . S
C1030 H1042 0.960 . S
C1030 H1043 0.962 . S
C1030 H1044 0.960 . S
C1031 C1028 1.511 . S
C1031 H1045 0.961 . S
C1031 H1046 0.961 . S
C1031 H1047 0.961 . S
C1032 C1033 1.370 . S
C1032 C1034 1.363 . S
C1032 H1048 0.931 . S
C1033 C1032 1.370 . S
C1033 C1037 1.408 . S
C1034 C1032 1.363 . S
C1034 C1035 1.370 . S
C1034 C1038 1.524 . S
C1035 C1027 1.503 . S
C1035 C1034 1.370 . S
C1035 C1036 1.403 . S
C1036 C1035 1.403 . S
C1036 C1037 1.404 . S
C1036 C1039 1.539 . S
C1037 C1033 1.408 . S
C1037 C1036 1.404 . S
C1037 H1049 0.930 . S
C1038 C1034 1.524 . S
C1038 H1050 0.956 . S
C1038 H1051 0.961 . S
C1038 H1052 0.961 . S
C1039 C1036 1.539 . S
C1039 H1053 0.958 . S
C1039 H1054 0.961 . S
C1039 H1055 0.960 . S
H1040 C1024 0.931 . S
H1041 C1029 0.929 . S
H1042 C1030 0.960 . S
H1043 C1030 0.962 . S
H1044 C1030 0.960 . S
H1045 C1031 0.961 . S
H1046 C1031 0.961 . S
H1047 C1031 0.961 . S
H1048 C1032 0.931 . S
H1049 C1037 0.930 . S
H1050 C1038 0.956 . S
H1051 C1038 0.961 . S
H1052 C1038 0.961 . S
H1053 C1039 0.958 . S
H1054 C1039 0.961 . S
H1055 C1039 0.960 . S
C1056 C1057 1.391 . S
C1056 C1058 1.394 . S
C1056 H1072 0.931 . S
C1057 C1056 1.391 . S
C1057 C1061 1.376 . S
C1058 C1056 1.394 . S
C1058 C1059 1.369 . S
C1058 C1062 1.531 . S
C1059 C1058 1.369 . S
C1059 C1060 1.410 . S
C1059 C1067 1.503 . S
C1060 C1059 1.410 . S
C1060 C1061 1.392 . S
C1060 C1063 1.511 . S
C1061 C1057 1.376 . S
C1061 C1060 1.392 . S
C1061 H1073 0.929 . S
C1062 C1058 1.531 . S
C1062 H1074 0.960 . S
C1062 H1075 0.962 . S
C1062 H1076 0.960 . S
C1063 C1060 1.511 . S
C1063 H1077 0.961 . S
C1063 H1078 0.961 . S
C1063 H1079 0.961 . S
C1064 C1065 1.370 . S
C1064 C1066 1.363 . S
C1064 H1080 0.931 . S
C1065 C1064 1.370 . S
C1065 C1069 1.408 . S
C1066 C1064 1.363 . S
C1066 C1067 1.370 . S
C1066 C1070 1.524 . S
C1067 C1059 1.503 . S
C1067 C1066 1.370 . S
C1067 C1068 1.403 . S
C1068 C1067 1.403 . S
C1068 C1069 1.404 . S
C1068 C1071 1.539 . S
C1069 C1065 1.408 . S
C1069 C1068 1.404 . S
C1069 H1081 0.930 . S
C1070 C1066 1.524 . S
C1070 H1082 0.956 . S
C1070 H1083 0.961 . S
C1070 H1084 0.961 . S
C1071 C1068 1.539 . S
C1071 H1085 0.958 . S
C1071 H1086 0.961 . S
C1071 H1087 0.960 . S
H1072 C1056 0.931 . S
H1073 C1061 0.929 . S
H1074 C1062 0.960 . S
H1075 C1062 0.962 . S
H1076 C1062 0.960 . S
H1077 C1063 0.961 . S
H1078 C1063 0.961 . S
H1079 C1063 0.961 . S
H1080 C1064 0.931 . S
H1081 C1069 0.930 . S
H1082 C1070 0.956 . S
H1083 C1070 0.961 . S
H1084 C1070 0.961 . S
H1085 C1071 0.958 . S
H1086 C1071 0.961 . S
H1087 C1071 0.960 . S
C1088 C1089 1.391 . S
C1088 C1090 1.394 . S
C1088 H1104 0.931 . S
C1089 C1088 1.391 . S
C1089 C1093 1.376 . S
C1090 C1088 1.394 . S
C1090 C1091 1.369 . S
C1090 C1094 1.531 . S
C1091 C1090 1.369 . S
C1091 C1092 1.410 . S
C1091 C1099 1.503 . S
C1092 C1091 1.410 . S
C1092 C1093 1.392 . S
C1092 C1095 1.511 . S
C1093 C1089 1.376 . S
C1093 C1092 1.392 . S
C1093 H1105 0.929 . S
C1094 C1090 1.531 . S
C1094 H1106 0.960 . S
C1094 H1107 0.962 . S
C1094 H1108 0.960 . S
C1095 C1092 1.511 . S
C1095 H1109 0.961 . S
C1095 H1110 0.961 . S
C1095 H1111 0.961 . S
C1096 C1097 1.370 . S
C1096 C1098 1.363 . S
C1096 H1112 0.931 . S
C1097 C1096 1.370 . S
C1097 C1101 1.408 . S
C1098 C1096 1.363 . S
C1098 C1099 1.370 . S
C1098 C1102 1.524 . S
C1099 C1091 1.503 . S
C1099 C1098 1.370 . S
C1099 C1100 1.403 . S
C1100 C1099 1.403 . S
C1100 C1101 1.404 . S
C1100 C1103 1.539 . S
C1101 C1097 1.408 . S
C1101 C1100 1.404 . S
C1101 H1113 0.930 . S
C1102 C1098 1.524 . S
C1102 H1114 0.956 . S
C1102 H1115 0.961 . S
C1102 H1116 0.961 . S
C1103 C1100 1.539 . S
C1103 H1117 0.958 . S
C1103 H1118 0.961 . S
C1103 H1119 0.960 . S
H1104 C1088 0.931 . S
H1105 C1093 0.929 . S
H1106 C1094 0.960 . S
H1107 C1094 0.962 . S
H1108 C1094 0.960 . S
H1109 C1095 0.961 . S
H1110 C1095 0.961 . S
H1111 C1095 0.961 . S
H1112 C1096 0.931 . S
H1113 C1101 0.930 . S
H1114 C1102 0.956 . S
H1115 C1102 0.961 . S
H1116 C1102 0.961 . S
H1117 C1103 0.958 . S
H1118 C1103 0.961 . S
H1119 C1103 0.960 . S
C1120 C1121 1.391 . S
C1120 C1122 1.394 . S
C1120 H1136 0.931 . S
C1121 C1120 1.391 . S
C1121 C1125 1.376 . S
C1122 C1120 1.394 . S
C1122 C1123 1.369 . S
C1122 C1126 1.531 . S
C1123 C1122 1.369 . S
C1123 C1124 1.410 . S
C1123 C1131 1.503 . S
C1124 C1123 1.410 . S
C1124 C1125 1.392 . S
C1124 C1127 1.511 . S
C1125 C1121 1.376 . S
C1125 C1124 1.392 . S
C1125 H1137 0.929 . S
C1126 C1122 1.531 . S
C1126 H1138 0.960 . S
C1126 H1139 0.962 . S
C1126 H1140 0.960 . S
C1127 C1124 1.511 . S
C1127 H1141 0.961 . S
C1127 H1142 0.961 . S
C1127 H1143 0.961 . S
C1128 C1129 1.370 . S
C1128 C1130 1.363 . S
C1128 H1144 0.931 . S
C1129 C1128 1.370 . S
C1129 C1133 1.408 . S
C1130 C1128 1.363 . S
C1130 C1131 1.370 . S
C1130 C1134 1.524 . S
C1131 C1123 1.503 . S
C1131 C1130 1.370 . S
C1131 C1132 1.403 . S
C1132 C1131 1.403 . S
C1132 C1133 1.404 . S
C1132 C1135 1.539 . S
C1133 C1129 1.408 . S
C1133 C1132 1.404 . S
C1133 H1145 0.930 . S
C1134 C1130 1.524 . S
C1134 H1146 0.956 . S
C1134 H1147 0.961 . S
C1134 H1148 0.961 . S
C1135 C1132 1.539 . S
C1135 H1149 0.958 . S
C1135 H1150 0.961 . S
C1135 H1151 0.960 . S
H1136 C1120 0.931 . S
H1137 C1125 0.929 . S
H1138 C1126 0.960 . S
H1139 C1126 0.962 . S
H1140 C1126 0.960 . S
H1141 C1127 0.961 . S
H1142 C1127 0.961 . S
H1143 C1127 0.961 . S
H1144 C1128 0.931 . S
H1145 C1133 0.930 . S
H1146 C1134 0.956 . S
H1147 C1134 0.961 . S
H1148 C1134 0.961 . S
H1149 C1135 0.958 . S
H1150 C1135 0.961 . S
H1151 C1135 0.960 . S
C1152 C1153 1.391 1_565 S
C1152 C1154 1.394 . S
C1152 H1168 0.931 . S
C1153 C1152 1.391 1_545 S
C1153 C1157 1.376 . S
C1154 C1152 1.394 . S
C1154 C1155 1.369 1_565 S
C1154 C1158 1.531 . S
C1155 C1154 1.369 1_545 S
C1155 C1156 1.410 . S
C1155 C1163 1.503 . S
C1156 C1155 1.410 . S
C1156 C1157 1.392 . S
C1156 C1159 1.511 . S
C1157 C1153 1.376 . S
C1157 C1156 1.392 . S
C1157 H1169 0.929 . S
C1158 C1154 1.531 . S
C1158 H1170 0.960 . S
C1158 H1171 0.962 . S
C1158 H1172 0.960 . S
C1159 C1156 1.511 . S
C1159 H1173 0.961 . S
C1159 H1174 0.961 . S
C1159 H1175 0.961 . S
C1160 C1161 1.370 . S
C1160 C1162 1.363 . S
C1160 H1176 0.931 . S
C1161 C1160 1.370 . S
C1161 C1165 1.408 . S
C1162 C1160 1.363 . S
C1162 C1163 1.370 . S
C1162 C1166 1.524 . S
C1163 C1155 1.503 . S
C1163 C1162 1.370 . S
C1163 C1164 1.403 . S
C1164 C1163 1.403 . S
C1164 C1165 1.404 . S
C1164 C1167 1.539 1_545 S
C1165 C1161 1.408 . S
C1165 C1164 1.404 . S
C1165 H1177 0.930 . S
C1166 C1162 1.524 . S
C1166 H1178 0.956 . S
C1166 H1179 0.961 . S
C1166 H1180 0.961 . S
C1167 C1164 1.539 1_565 S
C1167 H1181 0.958 . S
C1167 H1182 0.961 1_565 S
C1167 H1183 0.960 1_565 S
H1168 C1152 0.931 . S
H1169 C1157 0.929 . S
H1170 C1158 0.960 . S
H1171 C1158 0.962 . S
H1172 C1158 0.960 . S
H1173 C1159 0.961 . S
H1174 C1159 0.961 . S
H1175 C1159 0.961 . S
H1176 C1160 0.931 . S
H1177 C1165 0.930 . S
H1178 C1166 0.956 . S
H1179 C1166 0.961 . S
H1180 C1166 0.961 . S
H1181 C1167 0.958 . S
H1182 C1167 0.961 1_545 S
H1183 C1167 0.960 1_545 S
C1184 C1185 1.391 1_556 S
C1184 C1186 1.394 . S
C1184 H1200 0.931 . S
C1185 C1184 1.391 1_554 S
C1185 C1189 1.376 . S
C1186 C1184 1.394 . S
C1186 C1187 1.369 1_556 S
C1186 C1190 1.531 . S
C1187 C1186 1.369 1_554 S
C1187 C1188 1.410 . S
C1187 C1195 1.503 . S
C1188 C1187 1.410 . S
C1188 C1189 1.392 . S
C1188 C1191 1.511 . S
C1189 C1185 1.376 . S
C1189 C1188 1.392 . S
C1189 H1201 0.929 . S
C1190 C1186 1.531 . S
C1190 H1202 0.960 . S
C1190 H1203 0.962 . S
C1190 H1204 0.960 . S
C1191 C1188 1.511 . S
C1191 H1205 0.961 . S
C1191 H1206 0.961 . S
C1191 H1207 0.961 . S
C1192 C1193 1.370 . S
C1192 C1194 1.363 . S
C1192 H1208 0.931 . S
C1193 C1192 1.370 . S
C1193 C1197 1.408 . S
C1194 C1192 1.363 . S
C1194 C1195 1.370 . S
C1194 C1198 1.524 . S
C1195 C1187 1.503 . S
C1195 C1194 1.370 . S
C1195 C1196 1.403 . S
C1196 C1195 1.403 . S
C1196 C1197 1.404 . S
C1196 C1199 1.539 . S
C1197 C1193 1.408 . S
C1197 C1196 1.404 . S
C1197 H1209 0.930 . S
C1198 C1194 1.524 . S
C1198 H1210 0.956 1_554 S
C1198 H1211 0.961 . S
C1198 H1212 0.961 . S
C1199 C1196 1.539 . S
C1199 H1213 0.958 . S
C1199 H1214 0.961 . S
C1199 H1215 0.960 . S
H1200 C1184 0.931 . S
H1201 C1189 0.929 . S
H1202 C1190 0.960 . S
H1203 C1190 0.962 . S
H1204 C1190 0.960 . S
H1205 C1191 0.961 . S
H1206 C1191 0.961 . S
H1207 C1191 0.961 . S
H1208 C1192 0.931 . S
H1209 C1197 0.930 . S
H1210 C1198 0.956 1_556 S
H1211 C1198 0.961 . S
H1212 C1198 0.961 . S
H1213 C1199 0.958 . S
H1214 C1199 0.961 . S
H1215 C1199 0.960 . S
C1216 C1217 1.391 . S
C1216 C1218 1.394 . S
C1216 H1232 0.931 . S
C1217 C1216 1.391 . S
C1217 C1221 1.376 . S
C1218 C1216 1.394 . S
C1218 C1219 1.369 . S
C1218 C1222 1.531 . S
C1219 C1218 1.369 . S
C1219 C1220 1.410 . S
C1219 C1227 1.503 . S
C1220 C1219 1.410 . S
C1220 C1221 1.392 . S
C1220 C1223 1.511 . S
C1221 C1217 1.376 . S
C1221 C1220 1.392 . S
C1221 H1233 0.929 . S
C1222 C1218 1.531 . S
C1222 H1234 0.960 . S
C1222 H1235 0.962 . S
C1222 H1236 0.960 . S
C1223 C1220 1.511 . S
C1223 H1237 0.961 . S
C1223 H1238 0.961 . S
C1223 H1239 0.961 . S
C1224 C1225 1.370 . S
C1224 C1226 1.363 . S
C1224 H1240 0.931 . S
C1225 C1224 1.370 . S
C1225 C1229 1.408 . S
C1226 C1224 1.363 . S
C1226 C1227 1.370 . S
C1226 C1230 1.524 . S
C1227 C1219 1.503 . S
C1227 C1226 1.370 . S
C1227 C1228 1.403 . S
C1228 C1227 1.403 . S
C1228 C1229 1.404 . S
C1228 C1231 1.539 . S
C1229 C1225 1.408 . S
C1229 C1228 1.404 . S
C1229 H1241 0.930 . S
C1230 C1226 1.524 . S
C1230 H1242 0.956 . S
C1230 H1243 0.961 . S
C1230 H1244 0.961 . S
C1231 C1228 1.539 . S
C1231 H1245 0.958 . S
C1231 H1246 0.961 . S
C1231 H1247 0.960 . S
H1232 C1216 0.931 . S
H1233 C1221 0.929 . S
H1234 C1222 0.960 . S
H1235 C1222 0.962 . S
H1236 C1222 0.960 . S
H1237 C1223 0.961 . S
H1238 C1223 0.961 . S
H1239 C1223 0.961 . S
H1240 C1224 0.931 . S
H1241 C1229 0.930 . S
H1242 C1230 0.956 . S
H1243 C1230 0.961 . S
H1244 C1230 0.961 . S
H1245 C1231 0.958 . S
H1246 C1231 0.961 . S
H1247 C1231 0.960 . S
C1248 C1249 1.391 . S
C1248 C1250 1.394 . S
C1248 H1264 0.931 . S
C1249 C1248 1.391 . S
C1249 C1253 1.376 . S
C1250 C1248 1.394 . S
C1250 C1251 1.369 . S
C1250 C1254 1.531 . S
C1251 C1250 1.369 . S
C1251 C1252 1.410 . S
C1251 C1259 1.503 . S
C1252 C1251 1.410 . S
C1252 C1253 1.392 . S
C1252 C1255 1.511 . S
C1253 C1249 1.376 . S
C1253 C1252 1.392 . S
C1253 H1265 0.929 . S
C1254 C1250 1.531 . S
C1254 H1266 0.960 . S
C1254 H1267 0.962 . S
C1254 H1268 0.960 . S
C1255 C1252 1.511 . S
C1255 H1269 0.961 . S
C1255 H1270 0.961 . S
C1255 H1271 0.961 . S
C1256 C1257 1.370 . S
C1256 C1258 1.363 . S
C1256 H1272 0.931 . S
C1257 C1256 1.370 . S
C1257 C1261 1.408 . S
C1258 C1256 1.363 . S
C1258 C1259 1.370 . S
C1258 C1262 1.524 . S
C1259 C1251 1.503 . S
C1259 C1258 1.370 . S
C1259 C1260 1.403 . S
C1260 C1259 1.403 . S
C1260 C1261 1.404 . S
C1260 C1263 1.539 . S
C1261 C1257 1.408 . S
C1261 C1260 1.404 . S
C1261 H1273 0.930 . S
C1262 C1258 1.524 . S
C1262 H1274 0.956 . S
C1262 H1275 0.961 . S
C1262 H1276 0.961 . S
C1263 C1260 1.539 . S
C1263 H1277 0.958 . S
C1263 H1278 0.961 . S
C1263 H1279 0.960 . S
H1264 C1248 0.931 . S
H1265 C1253 0.929 . S
H1266 C1254 0.960 . S
H1267 C1254 0.962 . S
H1268 C1254 0.960 . S
H1269 C1255 0.961 . S
H1270 C1255 0.961 . S
H1271 C1255 0.961 . S
H1272 C1256 0.931 . S
H1273 C1261 0.930 . S
H1274 C1262 0.956 . S
H1275 C1262 0.961 . S
H1276 C1262 0.961 . S
H1277 C1263 0.958 . S
H1278 C1263 0.961 . S
H1279 C1263 0.960 . S
C1280 C1281 1.391 . S
C1280 C1282 1.394 . S
C1280 H1296 0.931 . S
C1281 C1280 1.391 . S
C1281 C1285 1.376 . S
C1282 C1280 1.394 . S
C1282 C1283 1.369 . S
C1282 C1286 1.531 . S
C1283 C1282 1.369 . S
C1283 C1284 1.410 . S
C1283 C1291 1.503 . S
C1284 C1283 1.410 . S
C1284 C1285 1.392 . S
C1284 C1287 1.511 . S
C1285 C1281 1.376 . S
C1285 C1284 1.392 . S
C1285 H1297 0.929 . S
C1286 C1282 1.531 . S
C1286 H1298 0.960 . S
C1286 H1299 0.962 . S
C1286 H1300 0.960 . S
C1287 C1284 1.511 . S
C1287 H1301 0.961 . S
C1287 H1302 0.961 . S
C1287 H1303 0.961 . S
C1288 C1289 1.370 . S
C1288 C1290 1.363 . S
C1288 H1304 0.931 . S
C1289 C1288 1.370 . S
C1289 C1293 1.408 . S
C1290 C1288 1.363 . S
C1290 C1291 1.370 . S
C1290 C1294 1.524 . S
C1291 C1283 1.503 . S
C1291 C1290 1.370 . S
C1291 C1292 1.403 . S
C1292 C1291 1.403 . S
C1292 C1293 1.404 . S
C1292 C1295 1.539 . S
C1293 C1289 1.408 . S
C1293 C1292 1.404 . S
C1293 H1305 0.930 . S
C1294 C1290 1.524 . S
C1294 H1306 0.956 . S
C1294 H1307 0.961 . S
C1294 H1308 0.961 . S
C1295 C1292 1.539 . S
C1295 H1309 0.958 . S
C1295 H1310 0.961 . S
C1295 H1311 0.960 . S
H1296 C1280 0.931 . S
H1297 C1285 0.929 . S
H1298 C1286 0.960 . S
H1299 C1286 0.962 . S
H1300 C1286 0.960 . S
H1301 C1287 0.961 . S
H1302 C1287 0.961 . S
H1303 C1287 0.961 . S
H1304 C1288 0.931 . S
H1305 C1293 0.930 . S
H1306 C1294 0.956 . S
H1307 C1294 0.961 . S
H1308 C1294 0.961 . S
H1309 C1295 0.958 . S
H1310 C1295 0.961 . S
H1311 C1295 0.960 . S
C1312 C1313 1.391 . S
C1312 C1314 1.394 . S
C1312 H1328 0.931 . S
C1313 C1312 1.391 . S
C1313 C1317 1.376 . S
C1314 C1312 1.394 . S
C1314 C1315 1.369 . S
C1314 C1318 1.531 . S
C1315 C1314 1.369 . S
C1315 C1316 1.410 . S
C1315 C1323 1.503 . S
C1316 C1315 1.410 . S
C1316 C1317 1.392 . S
C1316 C1319 1.511 . S
C1317 C1313 1.376 . S
C1317 C1316 1.392 . S
C1317 H1329 0.929 . S
C1318 C1314 1.531 . S
C1318 H1330 0.960 . S
C1318 H1331 0.962 . S
C1318 H1332 0.960 . S
C1319 C1316 1.511 . S
C1319 H1333 0.961 . S
C1319 H1334 0.961 . S
C1319 H1335 0.961 . S
C1320 C1321 1.370 . S
C1320 C1322 1.363 . S
C1320 H1336 0.931 . S
C1321 C1320 1.370 . S
C1321 C1325 1.408 . S
C1322 C1320 1.363 . S
C1322 C1323 1.370 . S
C1322 C1326 1.524 . S
C1323 C1315 1.503 . S
C1323 C1322 1.370 . S
C1323 C1324 1.403 . S
C1324 C1323 1.403 . S
C1324 C1325 1.404 . S
C1324 C1327 1.539 . S
C1325 C1321 1.408 . S
C1325 C1324 1.404 . S
C1325 H1337 0.930 . S
C1326 C1322 1.524 . S
C1326 H1338 0.956 . S
C1326 H1339 0.961 . S
C1326 H1340 0.961 . S
C1327 C1324 1.539 . S
C1327 H1341 0.958 . S
C1327 H1342 0.961 . S
C1327 H1343 0.960 . S
H1328 C1312 0.931 . S
H1329 C1317 0.929 . S
H1330 C1318 0.960 . S
H1331 C1318 0.962 . S
H1332 C1318 0.960 . S
H1333 C1319 0.961 . S
H1334 C1319 0.961 . S
H1335 C1319 0.961 . S
H1336 C1320 0.931 . S
H1337 C1325 0.930 . S
H1338 C1326 0.956 . S
H1339 C1326 0.961 . S
H1340 C1326 0.961 . S
H1341 C1327 0.958 . S
H1342 C1327 0.961 . S
H1343 C1327 0.960 . S
C1344 C1345 1.391 . S
C1344 C1346 1.394 . S
C1344 H1360 0.931 . S
C1345 C1344 1.391 . S
C1345 C1349 1.376 . S
C1346 C1344 1.394 . S
C1346 C1347 1.369 . S
C1346 C1350 1.531 . S
C1347 C1346 1.369 . S
C1347 C1348 1.410 . S
C1347 C1355 1.503 . S
C1348 C1347 1.410 . S
C1348 C1349 1.392 . S
C1348 C1351 1.511 . S
C1349 C1345 1.376 . S
C1349 C1348 1.392 . S
C1349 H1361 0.929 . S
C1350 C1346 1.531 . S
C1350 H1362 0.960 . S
C1350 H1363 0.962 . S
C1350 H1364 0.960 . S
C1351 C1348 1.511 . S
C1351 H1365 0.961 . S
C1351 H1366 0.961 . S
C1351 H1367 0.961 . S
C1352 C1353 1.370 . S
C1352 C1354 1.363 . S
C1352 H1368 0.931 . S
C1353 C1352 1.370 . S
C1353 C1357 1.408 . S
C1354 C1352 1.363 . S
C1354 C1355 1.370 . S
C1354 C1358 1.524 . S
C1355 C1347 1.503 . S
C1355 C1354 1.370 . S
C1355 C1356 1.403 . S
C1356 C1355 1.403 . S
C1356 C1357 1.404 . S
C1356 C1359 1.539 . S
C1357 C1353 1.408 . S
C1357 C1356 1.404 . S
C1357 H1369 0.930 . S
C1358 C1354 1.524 . S
C1358 H1370 0.956 . S
C1358 H1371 0.961 . S
C1358 H1372 0.961 . S
C1359 C1356 1.539 . S
C1359 H1373 0.958 . S
C1359 H1374 0.961 . S
C1359 H1375 0.960 . S
H1360 C1344 0.931 . S
H1361 C1349 0.929 . S
H1362 C1350 0.960 . S
H1363 C1350 0.962 . S
H1364 C1350 0.960 . S
H1365 C1351 0.961 . S
H1366 C1351 0.961 . S
H1367 C1351 0.961 . S
H1368 C1352 0.931 . S
H1369 C1357 0.930 . S
H1370 C1358 0.956 . S
H1371 C1358 0.961 . S
H1372 C1358 0.961 . S
H1373 C1359 0.958 . S
H1374 C1359 0.961 . S
H1375 C1359 0.960 . S
C1376 C1377 1.391 . S
C1376 C1378 1.394 . S
C1376 H1392 0.931 . S
C1377 C1376 1.391 . S
C1377 C1381 1.376 . S
C1378 C1376 1.394 . S
C1378 C1379 1.369 . S
C1378 C1382 1.531 . S
C1379 C1378 1.369 . S
C1379 C1380 1.410 . S
C1379 C1387 1.503 . S
C1380 C1379 1.410 . S
C1380 C1381 1.392 . S
C1380 C1383 1.511 . S
C1381 C1377 1.376 . S
C1381 C1380 1.392 . S
C1381 H1393 0.929 . S
C1382 C1378 1.531 . S
C1382 H1394 0.960 . S
C1382 H1395 0.962 . S
C1382 H1396 0.960 . S
C1383 C1380 1.511 . S
C1383 H1397 0.961 . S
C1383 H1398 0.961 . S
C1383 H1399 0.961 . S
C1384 C1385 1.370 . S
C1384 C1386 1.363 . S
C1384 H1400 0.931 . S
C1385 C1384 1.370 . S
C1385 C1389 1.408 . S
C1386 C1384 1.363 . S
C1386 C1387 1.370 . S
C1386 C1390 1.524 . S
C1387 C1379 1.503 . S
C1387 C1386 1.370 . S
C1387 C1388 1.403 . S
C1388 C1387 1.403 . S
C1388 C1389 1.404 . S
C1388 C1391 1.539 . S
C1389 C1385 1.408 . S
C1389 C1388 1.404 . S
C1389 H1401 0.930 . S
C1390 C1386 1.524 . S
C1390 H1402 0.956 . S
C1390 H1403 0.961 . S
C1390 H1404 0.961 . S
C1391 C1388 1.539 . S
C1391 H1405 0.958 . S
C1391 H1406 0.961 . S
C1391 H1407 0.960 . S
H1392 C1376 0.931 . S
H1393 C1381 0.929 . S
H1394 C1382 0.960 . S
H1395 C1382 0.962 . S
H1396 C1382 0.960 . S
H1397 C1383 0.961 . S
H1398 C1383 0.961 . S
H1399 C1383 0.961 . S
H1400 C1384 0.931 . S
H1401 C1389 0.930 . S
H1402 C1390 0.956 . S
H1403 C1390 0.961 . S
H1404 C1390 0.961 . S
H1405 C1391 0.958 . S
H1406 C1391 0.961 . S
H1407 C1391 0.960 . S
C1408 C1409 1.391 . S
C1408 C1410 1.394 . S
C1408 H1424 0.931 . S
C1409 C1408 1.391 . S
C1409 C1413 1.376 . S
C1410 C1408 1.394 . S
C1410 C1411 1.369 . S
C1410 C1414 1.531 . S
C1411 C1410 1.369 . S
C1411 C1412 1.410 . S
C1411 C1419 1.503 . S
C1412 C1411 1.410 . S
C1412 C1413 1.392 . S
C1412 C1415 1.511 . S
C1413 C1409 1.376 . S
C1413 C1412 1.392 . S
C1413 H1425 0.929 . S
C1414 C1410 1.531 . S
C1414 H1426 0.960 . S
C1414 H1427 0.962 . S
C1414 H1428 0.960 . S
C1415 C1412 1.511 . S
C1415 H1429 0.961 . S
C1415 H1430 0.961 . S
C1415 H1431 0.961 . S
C1416 C1417 1.370 . S
C1416 C1418 1.363 . S
C1416 H1432 0.931 . S
C1417 C1416 1.370 . S
C1417 C1421 1.408 . S
C1418 C1416 1.363 . S
C1418 C1419 1.370 . S
C1418 C1422 1.524 . S
C1419 C1411 1.503 . S
C1419 C1418 1.370 . S
C1419 C1420 1.403 . S
C1420 C1419 1.403 . S
C1420 C1421 1.404 . S
C1420 C1423 1.539 . S
C1421 C1417 1.408 . S
C1421 C1420 1.404 . S
C1421 H1433 0.930 . S
C1422 C1418 1.524 . S
C1422 H1434 0.956 . S
C1422 H1435 0.961 . S
C1422 H1436 0.961 . S
C1423 C1420 1.539 . S
C1423 H1437 0.958 . S
C1423 H1438 0.961 . S
C1423 H1439 0.960 . S
H1424 C1408 0.931 . S
H1425 C1413 0.929 . S
H1426 C1414 0.960 . S
H1427 C1414 0.962 . S
H1428 C1414 0.960 . S
H1429 C1415 0.961 . S
H1430 C1415 0.961 . S
H1431 C1415 0.961 . S
H1432 C1416 0.931 . S
H1433 C1421 0.930 . S
H1434 C1422 0.956 . S
H1435 C1422 0.961 . S
H1436 C1422 0.961 . S
H1437 C1423 0.958 . S
H1438 C1423 0.961 . S
H1439 C1423 0.960 . S
C1440 C1441 1.391 . S
C1440 C1442 1.394 . S
C1440 H1456 0.931 . S
C1441 C1440 1.391 . S
C1441 C1445 1.376 . S
C1442 C1440 1.394 . S
C1442 C1443 1.369 . S
C1442 C1446 1.531 . S
C1443 C1442 1.369 . S
C1443 C1444 1.410 . S
C1443 C1451 1.503 . S
C1444 C1443 1.410 . S
C1444 C1445 1.392 . S
C1444 C1447 1.511 . S
C1445 C1441 1.376 . S
C1445 C1444 1.392 . S
C1445 H1457 0.929 . S
C1446 C1442 1.531 . S
C1446 H1458 0.960 . S
C1446 H1459 0.962 . S
C1446 H1460 0.960 . S
C1447 C1444 1.511 . S
C1447 H1461 0.961 . S
C1447 H1462 0.961 . S
C1447 H1463 0.961 . S
C1448 C1449 1.370 . S
C1448 C1450 1.363 . S
C1448 H1464 0.931 . S
C1449 C1448 1.370 . S
C1449 C1453 1.408 . S
C1450 C1448 1.363 . S
C1450 C1451 1.370 . S
C1450 C1454 1.524 . S
C1451 C1443 1.503 . S
C1451 C1450 1.370 . S
C1451 C1452 1.403 . S
C1452 C1451 1.403 . S
C1452 C1453 1.404 . S
C1452 C1455 1.539 . S
C1453 C1449 1.408 . S
C1453 C1452 1.404 . S
C1453 H1465 0.930 . S
C1454 C1450 1.524 . S
C1454 H1466 0.956 . S
C1454 H1467 0.961 . S
C1454 H1468 0.961 . S
C1455 C1452 1.539 . S
C1455 H1469 0.958 . S
C1455 H1470 0.961 . S
C1455 H1471 0.960 . S
H1456 C1440 0.931 . S
H1457 C1445 0.929 . S
H1458 C1446 0.960 . S
H1459 C1446 0.962 . S
H1460 C1446 0.960 . S
H1461 C1447 0.961 . S
H1462 C1447 0.961 . S
H1463 C1447 0.961 . S
H1464 C1448 0.931 . S
H1465 C1453 0.930 . S
H1466 C1454 0.956 . S
H1467 C1454 0.961 . S
H1468 C1454 0.961 . S
H1469 C1455 0.958 . S
H1470 C1455 0.961 . S
H1471 C1455 0.960 . S
C1472 C1473 1.391 . S
C1472 C1474 1.394 . S
C1472 H1488 0.931 . S
C1473 C1472 1.391 . S
C1473 C1477 1.376 . S
C1474 C1472 1.394 . S
C1474 C1475 1.369 . S
C1474 C1478 1.531 . S
C1475 C1474 1.369 . S
C1475 C1476 1.410 . S
C1475 C1483 1.503 . S
C1476 C1475 1.410 . S
C1476 C1477 1.392 . S
C1476 C1479 1.511 . S
C1477 C1473 1.376 . S
C1477 C1476 1.392 . S
C1477 H1489 0.929 . S
C1478 C1474 1.531 . S
C1478 H1490 0.960 . S
C1478 H1491 0.962 . S
C1478 H1492 0.960 . S
C1479 C1476 1.511 . S
C1479 H1493 0.961 . S
C1479 H1494 0.961 . S
C1479 H1495 0.961 . S
C1480 C1481 1.370 . S
C1480 C1482 1.363 . S
C1480 H1496 0.931 . S
C1481 C1480 1.370 . S
C1481 C1485 1.408 . S
C1482 C1480 1.363 . S
C1482 C1483 1.370 . S
C1482 C1486 1.524 . S
C1483 C1475 1.503 . S
C1483 C1482 1.370 . S
C1483 C1484 1.403 . S
C1484 C1483 1.403 . S
C1484 C1485 1.404 . S
C1484 C1487 1.539 . S
C1485 C1481 1.408 . S
C1485 C1484 1.404 . S
C1485 H1497 0.930 . S
C1486 C1482 1.524 . S
C1486 H1498 0.956 . S
C1486 H1499 0.961 . S
C1486 H1500 0.961 . S
C1487 C1484 1.539 . S
C1487 H1501 0.958 . S
C1487 H1502 0.961 . S
C1487 H1503 0.960 . S
H1488 C1472 0.931 . S
H1489 C1477 0.929 . S
H1490 C1478 0.960 . S
H1491 C1478 0.962 . S
H1492 C1478 0.960 . S
H1493 C1479 0.961 . S
H1494 C1479 0.961 . S
H1495 C1479 0.961 . S
H1496 C1480 0.931 . S
H1497 C1485 0.930 . S
H1498 C1486 0.956 . S
H1499 C1486 0.961 . S
H1500 C1486 0.961 . S
H1501 C1487 0.958 . S
H1502 C1487 0.961 . S
H1503 C1487 0.960 . S
C1504 C1505 1.391 1_556 S
C1504 C1506 1.394 . S
C1504 H1520 0.931 . S
C1505 C1504 1.391 1_554 S
C1505 C1509 1.376 . S
C1506 C1504 1.394 . S
C1506 C1507 1.369 1_556 S
C1506 C1510 1.531 . S
C1507 C1506 1.369 1_554 S
C1507 C1508 1.410 . S
C1507 C1515 1.503 . S
C1508 C1507 1.410 . S
C1508 C1509 1.392 . S
C1508 C1511 1.511 . S
C1509 C1505 1.376 . S
C1509 C1508 1.392 . S
C1509 H1521 0.929 . S
C1510 C1506 1.531 . S
C1510 H1522 0.960 . S
C1510 H1523 0.962 . S
C1510 H1524 0.960 . S
C1511 C1508 1.511 . S
C1511 H1525 0.961 . S
C1511 H1526 0.961 . S
C1511 H1527 0.961 . S
C1512 C1513 1.370 . S
C1512 C1514 1.363 . S
C1512 H1528 0.931 . S
C1513 C1512 1.370 . S
C1513 C1517 1.408 1_554 S
C1514 C1512 1.363 . S
C1514 C1515 1.370 . S
C1514 C1518 1.524 . S
C1515 C1507 1.503 . S
C1515 C1514 1.370 . S
C1515 C1516 1.403 1_554 S
C1516 C1515 1.403 1_556 S
C1516 C1517 1.404 . S
C1516 C1519 1.539 . S
C1517 C1513 1.408 1_556 S
C1517 C1516 1.404 . S
C1517 H1529 0.930 . S
C1518 C1514 1.524 . S
C1518 H1530 0.956 . S
C1518 H1531 0.961 . S
C1518 H1532 0.961 . S
C1519 C1516 1.539 . S
C1519 H1533 0.958 . S
C1519 H1534 0.961 . S
C1519 H1535 0.960 . S
H1520 C1504 0.931 . S
H1521 C1509 0.929 . S
H1522 C1510 0.960 . S
H1523 C1510 0.962 . S
H1524 C1510 0.960 . S
H1525 C1511 0.961 . S
H1526 C1511 0.961 . S
H1527 C1511 0.961 . S
H1528 C1512 0.931 . S
H1529 C1517 0.930 . S
H1530 C1518 0.956 . S
H1531 C1518 0.961 . S
H1532 C1518 0.961 . S
H1533 C1519 0.958 . S
H1534 C1519 0.961 . S
H1535 C1519 0.960 . S
C1536 C1537 1.391 . S
C1536 C1538 1.394 . S
C1536 H1552 0.931 . S
C1537 C1536 1.391 . S
C1537 C1541 1.376 . S
C1538 C1536 1.394 . S
C1538 C1539 1.369 . S
C1538 C1542 1.531 . S
C1539 C1538 1.369 . S
C1539 C1540 1.410 . S
C1539 C1547 1.503 . S
C1540 C1539 1.410 . S
C1540 C1541 1.392 . S
C1540 C1543 1.511 . S
C1541 C1537 1.376 . S
C1541 C1540 1.392 . S
C1541 H1553 0.929 . S
C1542 C1538 1.531 . S
C1542 H1554 0.960 . S
C1542 H1555 0.962 . S
C1542 H1556 0.960 . S
C1543 C1540 1.511 . S
C1543 H1557 0.961 . S
C1543 H1558 0.961 . S
C1543 H1559 0.961 . S
C1544 C1545 1.370 . S
C1544 C1546 1.363 . S
C1544 H1560 0.931 . S
C1545 C1544 1.370 . S
C1545 C1549 1.408 . S
C1546 C1544 1.363 . S
C1546 C1547 1.370 . S
C1546 C1550 1.524 . S
C1547 C1539 1.503 . S
C1547 C1546 1.370 . S
C1547 C1548 1.403 . S
C1548 C1547 1.403 . S
C1548 C1549 1.404 . S
C1548 C1551 1.539 . S
C1549 C1545 1.408 . S
C1549 C1548 1.404 . S
C1549 H1561 0.930 . S
C1550 C1546 1.524 . S
C1550 H1562 0.956 . S
C1550 H1563 0.961 . S
C1550 H1564 0.961 . S
C1551 C1548 1.539 . S
C1551 H1565 0.958 . S
C1551 H1566 0.961 . S
C1551 H1567 0.960 . S
H1552 C1536 0.931 . S
H1553 C1541 0.929 . S
H1554 C1542 0.960 . S
H1555 C1542 0.962 . S
H1556 C1542 0.960 . S
H1557 C1543 0.961 . S
H1558 C1543 0.961 . S
H1559 C1543 0.961 . S
H1560 C1544 0.931 . S
H1561 C1549 0.930 . S
H1562 C1550 0.956 . S
H1563 C1550 0.961 . S
H1564 C1550 0.961 . S
H1565 C1551 0.958 . S
H1566 C1551 0.961 . S
H1567 C1551 0.960 . S
C1568 C1569 1.391 . S
C1568 C1570 1.394 . S
C1568 H1584 0.931 . S
C1569 C1568 1.391 . S
C1569 C1573 1.376 . S
C1570 C1568 1.394 . S
C1570 C1571 1.369 . S
C1570 C1574 1.531 . S
C1571 C1570 1.369 . S
C1571 C1572 1.410 . S
C1571 C1579 1.503 . S
C1572 C1571 1.410 . S
C1572 C1573 1.392 . S
C1572 C1575 1.511 . S
C1573 C1569 1.376 . S
C1573 C1572 1.392 . S
C1573 H1585 0.929 . S
C1574 C1570 1.531 . S
C1574 H1586 0.960 . S
C1574 H1587 0.962 . S
C1574 H1588 0.960 . S
C1575 C1572 1.511 . S
C1575 H1589 0.961 . S
C1575 H1590 0.961 . S
C1575 H1591 0.961 . S
C1576 C1577 1.370 . S
C1576 C1578 1.363 . S
C1576 H1592 0.931 . S
C1577 C1576 1.370 . S
C1577 C1581 1.408 . S
C1578 C1576 1.363 . S
C1578 C1579 1.370 . S
C1578 C1582 1.524 . S
C1579 C1571 1.503 . S
C1579 C1578 1.370 . S
C1579 C1580 1.403 . S
C1580 C1579 1.403 . S
C1580 C1581 1.404 . S
C1580 C1583 1.539 . S
C1581 C1577 1.408 . S
C1581 C1580 1.404 . S
C1581 H1593 0.930 . S
C1582 C1578 1.524 . S
C1582 H1594 0.956 . S
C1582 H1595 0.961 . S
C1582 H1596 0.961 . S
C1583 C1580 1.539 . S
C1583 H1597 0.958 . S
C1583 H1598 0.961 . S
C1583 H1599 0.960 . S
H1584 C1568 0.931 . S
H1585 C1573 0.929 . S
H1586 C1574 0.960 . S
H1587 C1574 0.962 . S
H1588 C1574 0.960 . S
H1589 C1575 0.961 . S
H1590 C1575 0.961 . S
H1591 C1575 0.961 . S
H1592 C1576 0.931 . S
H1593 C1581 0.930 . S
H1594 C1582 0.956 . S
H1595 C1582 0.961 . S
H1596 C1582 0.961 . S
H1597 C1583 0.958 . S
H1598 C1583 0.961 . S
H1599 C1583 0.960 . S
C1600 C1601 1.391 . S
C1600 C1602 1.394 . S
C1600 H1616 0.931 . S
C1601 C1600 1.391 . S
C1601 C1605 1.376 . S
C1602 C1600 1.394 . S
C1602 C1603 1.369 . S
C1602 C1606 1.531 . S
C1603 C1602 1.369 . S
C1603 C1604 1.410 . S
C1603 C1611 1.503 . S
C1604 C1603 1.410 . S
C1604 C1605 1.392 . S
C1604 C1607 1.511 . S
C1605 C1601 1.376 . S
C1605 C1604 1.392 . S
C1605 H1617 0.929 . S
C1606 C1602 1.531 . S
C1606 H1618 0.960 . S
C1606 H1619 0.962 . S
C1606 H1620 0.960 . S
C1607 C1604 1.511 . S
C1607 H1621 0.961 . S
C1607 H1622 0.961 . S
C1607 H1623 0.961 . S
C1608 C1609 1.370 . S
C1608 C1610 1.363 . S
C1608 H1624 0.931 . S
C1609 C1608 1.370 . S
C1609 C1613 1.408 . S
C1610 C1608 1.363 . S
C1610 C1611 1.370 . S
C1610 C1614 1.524 . S
C1611 C1603 1.503 . S
C1611 C1610 1.370 . S
C1611 C1612 1.403 . S
C1612 C1611 1.403 . S
C1612 C1613 1.404 . S
C1612 C1615 1.539 . S
C1613 C1609 1.408 . S
C1613 C1612 1.404 . S
C1613 H1625 0.930 . S
C1614 C1610 1.524 . S
C1614 H1626 0.956 . S
C1614 H1627 0.961 . S
C1614 H1628 0.961 . S
C1615 C1612 1.539 . S
C1615 H1629 0.958 . S
C1615 H1630 0.961 . S
C1615 H1631 0.960 . S
H1616 C1600 0.931 . S
H1617 C1605 0.929 . S
H1618 C1606 0.960 . S
H1619 C1606 0.962 . S
H1620 C1606 0.960 . S
H1621 C1607 0.961 . S
H1622 C1607 0.961 . S
H1623 C1607 0.961 . S
H1624 C1608 0.931 . S
H1625 C1613 0.930 . S
H1626 C1614 0.956 . S
H1627 C1614 0.961 . S
H1628 C1614 0.961 . S
H1629 C1615 0.958 . S
H1630 C1615 0.961 . S
H1631 C1615 0.960 . S
C1632 C1633 1.391 . S
C1632 C1634 1.394 . S
C1632 H1648 0.931 . S
C1633 C1632 1.391 . S
C1633 C1637 1.376 . S
C1634 C1632 1.394 . S
C1634 C1635 1.369 . S
C1634 C1638 1.531 . S
C1635 C1634 1.369 . S
C1635 C1636 1.410 . S
C1635 C1643 1.503 . S
C1636 C1635 1.410 . S
C1636 C1637 1.392 . S
C1636 C1639 1.511 . S
C1637 C1633 1.376 . S
C1637 C1636 1.392 . S
C1637 H1649 0.929 . S
C1638 C1634 1.531 . S
C1638 H1650 0.960 . S
C1638 H1651 0.962 . S
C1638 H1652 0.960 . S
C1639 C1636 1.511 . S
C1639 H1653 0.961 . S
C1639 H1654 0.961 . S
C1639 H1655 0.961 . S
C1640 C1641 1.370 . S
C1640 C1642 1.363 . S
C1640 H1656 0.931 . S
C1641 C1640 1.370 . S
C1641 C1645 1.408 . S
C1642 C1640 1.363 . S
C1642 C1643 1.370 . S
C1642 C1646 1.524 . S
C1643 C1635 1.503 . S
C1643 C1642 1.370 . S
C1643 C1644 1.403 . S
C1644 C1643 1.403 . S
C1644 C1645 1.404 . S
C1644 C1647 1.539 . S
C1645 C1641 1.408 . S
C1645 C1644 1.404 . S
C1645 H1657 0.930 . S
C1646 C1642 1.524 . S
C1646 H1658 0.956 . S
C1646 H1659 0.961 . S
C1646 H1660 0.961 . S
C1647 C1644 1.539 . S
C1647 H1661 0.958 . S
C1647 H1662 0.961 . S
C1647 H1663 0.960 . S
H1648 C1632 0.931 . S
H1649 C1637 0.929 . S
H1650 C1638 0.960 . S
H1651 C1638 0.962 . S
H1652 C1638 0.960 . S
H1653 C1639 0.961 . S
H1654 C1639 0.961 . S
H1655 C1639 0.961 . S
H1656 C1640 0.931 . S
H1657 C1645 0.930 . S
H1658 C1646 0.956 . S
H1659 C1646 0.961 . S
H1660 C1646 0.961 . S
H1661 C1647 0.958 . S
H1662 C1647 0.961 . S
H1663 C1647 0.960 . S
C1664 C1665 1.391 . S
C1664 C1666 1.394 . S
C1664 H1680 0.931 . S
C1665 C1664 1.391 . S
C1665 C1669 1.376 1_556 S
C1666 C1664 1.394 . S
C1666 C1667 1.369 . S
C1666 C1670 1.531 . S
C1667 C1666 1.369 . S
C1667 C1668 1.410 1_556 S
C1667 C1675 1.503 . S
C1668 C1667 1.410 1_554 S
C1668 C1669 1.392 . S
C1668 C1671 1.511 . S
C1669 C1665 1.376 1_554 S
C1669 C1668 1.392 . S
C1669 H1681 0.929 . S
C1670 C1666 1.531 . S
C1670 H1682 0.960 . S
C1670 H1683 0.962 . S
C1670 H1684 0.960 . S
C1671 C1668 1.511 . S
C1671 H1685 0.961 . S
C1671 H1686 0.961 . S
C1671 H1687 0.961 . S
C1672 C1673 1.370 . S
C1672 C1674 1.363 . S
C1672 H1688 0.931 . S
C1673 C1672 1.370 . S
C1673 C1677 1.408 . S
C1674 C1672 1.363 . S
C1674 C1675 1.370 . S
C1674 C1678 1.524 1_556 S
C1675 C1667 1.503 . S
C1675 C1674 1.370 . S
C1675 C1676 1.403 . S
C1676 C1675 1.403 . S
C1676 C1677 1.404 . S
C1676 C1679 1.539 . S
C1677 C1673 1.408 . S
C1677 C1676 1.404 . S
C1677 H1689 0.930 . S
C1678 C1674 1.524 1_554 S
C1678 H1690 0.956 1_554 S
C1678 H1691 0.961 . S
C1678 H1692 0.961 . S
C1679 C1676 1.539 . S
C1679 H1693 0.958 . S
C1679 H1694 0.961 . S
C1679 H1695 0.960 . S
H1680 C1664 0.931 . S
H1681 C1669 0.929 . S
H1682 C1670 0.960 . S
H1683 C1670 0.962 . S
H1684 C1670 0.960 . S
H1685 C1671 0.961 . S
H1686 C1671 0.961 . S
H1687 C1671 0.961 . S
H1688 C1672 0.931 . S
H1689 C1677 0.930 . S
H1690 C1678 0.956 1_556 S
H1691 C1678 0.961 . S
H1692 C1678 0.961 . S
H1693 C1679 0.958 . S
H1694 C1679 0.961 . S
H1695 C1679 0.960 . S
C1696 C1697 1.391 . S
C1696 C1698 1.394 . S
C1696 H1712 0.931 . S
C1697 C1696 1.391 . S
C1697 C1701 1.376 . S
C1698 C1696 1.394 . S
C1698 C1699 1.369 . S
C1698 C1702 1.531 . S
C1699 C1698 1.369 . S
C1699 C1700 1.410 . S
C1699 C1707 1.503 . S
C1700 C1699 1.410 . S
C1700 C1701 1.392 . S
C1700 C1703 1.511 . S
C1701 C1697 1.376 . S
C1701 C1700 1.392 . S
C1701 H1713 0.929 . S
C1702 C1698 1.531 . S
C1702 H1714 0.960 . S
C1702 H1715 0.962 . S
C1702 H1716 0.960 . S
C1703 C1700 1.511 . S
C1703 H1717 0.961 . S
C1703 H1718 0.961 . S
C1703 H1719 0.961 . S
C1704 C1705 1.370 . S
C1704 C1706 1.363 . S
C1704 H1720 0.931 . S
C1705 C1704 1.370 . S
C1705 C1709 1.408 . S
C1706 C1704 1.363 . S
C1706 C1707 1.370 . S
C1706 C1710 1.524 . S
C1707 C1699 1.503 . S
C1707 C1706 1.370 . S
C1707 C1708 1.403 . S
C1708 C1707 1.403 . S
C1708 C1709 1.404 . S
C1708 C1711 1.539 . S
C1709 C1705 1.408 . S
C1709 C1708 1.404 . S
C1709 H1721 0.930 . S
C1710 C1706 1.524 . S
C1710 H1722 0.956 . S
C1710 H1723 0.961 . S
C1710 H1724 0.961 . S
C1711 C1708 1.539 . S
C1711 H1725 0.958 . S
C1711 H1726 0.961 . S
C1711 H1727 0.960 . S
H1712 C1696 0.931 . S
H1713 C1701 0.929 . S
H1714 C1702 0.960 . S
H1715 C1702 0.962 . S
H1716 C1702 0.960 . S
H1717 C1703 0.961 . S
H1718 C1703 0.961 . S
H1719 C1703 0.961 . S
H1720 C1704 0.931 . S
H1721 C1709 0.930 . S
H1722 C1710 0.956 . S
H1723 C1710 0.961 . S
H1724 C1710 0.961 . S
H1725 C1711 0.958 . S
H1726 C1711 0.961 . S
H1727 C1711 0.960 . S
C1728 C1729 1.391 . S
C1728 C1730 1.394 . S
C1728 H1744 0.931 . S
C1729 C1728 1.391 . S
C1729 C1733 1.376 . S
C1730 C1728 1.394 . S
C1730 C1731 1.369 . S
C1730 C1734 1.531 . S
C1731 C1730 1.369 . S
C1731 C1732 1.410 . S
C1731 C1739 1.503 . S
C1732 C1731 1.410 . S
C1732 C1733 1.392 . S
C1732 C1735 1.511 . S
C1733 C1729 1.376 . S
C1733 C1732 1.392 . S
C1733 H1745 0.929 . S
C1734 C1730 1.531 . S
C1734 H1746 0.960 . S
C1734 H1747 0.962 . S
C1734 H1748 0.960 . S
C1735 C1732 1.511 . S
C1735 H1749 0.961 . S
C1735 H1750 0.961 . S
C1735 H1751 0.961 . S
C1736 C1737 1.370 . S
C1736 C1738 1.363 . S
C1736 H1752 0.931 . S
C1737 C1736 1.370 . S
C1737 C1741 1.408 . S
C1738 C1736 1.363 . S
C1738 C1739 1.370 . S
C1738 C1742 1.524 . S
C1739 C1731 1.503 . S
C1739 C1738 1.370 . S
C1739 C1740 1.403 . S
C1740 C1739 1.403 . S
C1740 C1741 1.404 . S
C1740 C1743 1.539 . S
C1741 C1737 1.408 . S
C1741 C1740 1.404 . S
C1741 H1753 0.930 . S
C1742 C1738 1.524 . S
C1742 H1754 0.956 . S
C1742 H1755 0.961 . S
C1742 H1756 0.961 . S
C1743 C1740 1.539 . S
C1743 H1757 0.958 . S
C1743 H1758 0.961 . S
C1743 H1759 0.960 . S
H1744 C1728 0.931 . S
H1745 C1733 0.929 . S
H1746 C1734 0.960 . S
H1747 C1734 0.962 . S
H1748 C1734 0.960 . S
H1749 C1735 0.961 . S
H1750 C1735 0.961 . S
H1751 C1735 0.961 . S
H1752 C1736 0.931 . S
H1753 C1741 0.930 . S
H1754 C1742 0.956 . S
H1755 C1742 0.961 . S
H1756 C1742 0.961 . S
H1757 C1743 0.958 . S
H1758 C1743 0.961 . S
H1759 C1743 0.960 . S
C1760 C1761 1.391 . S
C1760 C1762 1.394 . S
C1760 H1776 0.931 . S
C1761 C1760 1.391 . S
C1761 C1765 1.376 . S
C1762 C1760 1.394 . S
C1762 C1763 1.369 . S
C1762 C1766 1.531 . S
C1763 C1762 1.369 . S
C1763 C1764 1.410 . S
C1763 C1771 1.503 . S
C1764 C1763 1.410 . S
C1764 C1765 1.392 . S
C1764 C1767 1.511 . S
C1765 C1761 1.376 . S
C1765 C1764 1.392 . S
C1765 H1777 0.929 . S
C1766 C1762 1.531 . S
C1766 H1778 0.960 . S
C1766 H1779 0.962 . S
C1766 H1780 0.960 . S
C1767 C1764 1.511 . S
C1767 H1781 0.961 . S
C1767 H1782 0.961 . S
C1767 H1783 0.961 . S
C1768 C1769 1.370 . S
C1768 C1770 1.363 . S
C1768 H1784 0.931 . S
C1769 C1768 1.370 . S
C1769 C1773 1.408 . S
C1770 C1768 1.363 . S
C1770 C1771 1.370 . S
C1770 C1774 1.524 . S
C1771 C1763 1.503 . S
C1771 C1770 1.370 . S
C1771 C1772 1.403 . S
C1772 C1771 1.403 . S
C1772 C1773 1.404 . S
C1772 C1775 1.539 . S
C1773 C1769 1.408 . S
C1773 C1772 1.404 . S
C1773 H1785 0.930 . S
C1774 C1770 1.524 . S
C1774 H1786 0.956 . S
C1774 H1787 0.961 . S
C1774 H1788 0.961 . S
C1775 C1772 1.539 . S
C1775 H1789 0.958 . S
C1775 H1790 0.961 . S
C1775 H1791 0.960 . S
H1776 C1760 0.931 . S
H1777 C1765 0.929 . S
H1778 C1766 0.960 . S
H1779 C1766 0.962 . S
H1780 C1766 0.960 . S
H1781 C1767 0.961 . S
H1782 C1767 0.961 . S
H1783 C1767 0.961 . S
H1784 C1768 0.931 . S
H1785 C1773 0.930 . S
H1786 C1774 0.956 . S
H1787 C1774 0.961 . S
H1788 C1774 0.961 . S
H1789 C1775 0.958 . S
H1790 C1775 0.961 . S
H1791 C1775 0.960 . S
C1792 C1793 1.391 . S
C1792 C1794 1.394 . S
C1792 H1808 0.931 . S
C1793 C1792 1.391 . S
C1793 C1797 1.376 . S
C1794 C1792 1.394 . S
C1794 C1795 1.369 . S
C1794 C1798 1.531 . S
C1795 C1794 1.369 . S
C1795 C1796 1.410 . S
C1795 C1803 1.503 . S
C1796 C1795 1.410 . S
C1796 C1797 1.392 . S
C1796 C1799 1.511 . S
C1797 C1793 1.376 . S
C1797 C1796 1.392 . S
C1797 H1809 0.929 . S
C1798 C1794 1.531 . S
C1798 H1810 0.960 . S
C1798 H1811 0.962 . S
C1798 H1812 0.960 . S
C1799 C1796 1.511 . S
C1799 H1813 0.961 . S
C1799 H1814 0.961 . S
C1799 H1815 0.961 . S
C1800 C1801 1.370 . S
C1800 C1802 1.363 . S
C1800 H1816 0.931 . S
C1801 C1800 1.370 . S
C1801 C1805 1.408 . S
C1802 C1800 1.363 . S
C1802 C1803 1.370 . S
C1802 C1806 1.524 . S
C1803 C1795 1.503 . S
C1803 C1802 1.370 . S
C1803 C1804 1.403 . S
C1804 C1803 1.403 . S
C1804 C1805 1.404 . S
C1804 C1807 1.539 . S
C1805 C1801 1.408 . S
C1805 C1804 1.404 . S
C1805 H1817 0.930 . S
C1806 C1802 1.524 . S
C1806 H1818 0.956 . S
C1806 H1819 0.961 . S
C1806 H1820 0.961 . S
C1807 C1804 1.539 . S
C1807 H1821 0.958 . S
C1807 H1822 0.961 . S
C1807 H1823 0.960 . S
H1808 C1792 0.931 . S
H1809 C1797 0.929 . S
H1810 C1798 0.960 . S
H1811 C1798 0.962 . S
H1812 C1798 0.960 . S
H1813 C1799 0.961 . S
H1814 C1799 0.961 . S
H1815 C1799 0.961 . S
H1816 C1800 0.931 . S
H1817 C1805 0.930 . S
H1818 C1806 0.956 . S
H1819 C1806 0.961 . S
H1820 C1806 0.961 . S
H1821 C1807 0.958 . S
H1822 C1807 0.961 . S
H1823 C1807 0.960 . S
C1824 C1825 1.391 . S
C1824 C1826 1.394 . S
C1824 H1840 0.931 . S
C1825 C1824 1.391 . S
C1825 C1829 1.376 . S
C1826 C1824 1.394 . S
C1826 C1827 1.369 . S
C1826 C1830 1.531 . S
C1827 C1826 1.369 . S
C1827 C1828 1.410 . S
C1827 C1835 1.503 . S
C1828 C1827 1.410 . S
C1828 C1829 1.392 . S
C1828 C1831 1.511 . S
C1829 C1825 1.376 . S
C1829 C1828 1.392 . S
C1829 H1841 0.929 . S
C1830 C1826 1.531 . S
C1830 H1842 0.960 . S
C1830 H1843 0.962 . S
C1830 H1844 0.960 . S
C1831 C1828 1.511 . S
C1831 H1845 0.961 . S
C1831 H1846 0.961 . S
C1831 H1847 0.961 . S
C1832 C1833 1.370 . S
C1832 C1834 1.363 . S
C1832 H1848 0.931 . S
C1833 C1832 1.370 . S
C1833 C1837 1.408 . S
C1834 C1832 1.363 . S
C1834 C1835 1.370 . S
C1834 C1838 1.524 . S
C1835 C1827 1.503 . S
C1835 C1834 1.370 . S
C1835 C1836 1.403 . S
C1836 C1835 1.403 . S
C1836 C1837 1.404 . S
C1836 C1839 1.539 . S
C1837 C1833 1.408 . S
C1837 C1836 1.404 . S
C1837 H1849 0.930 . S
C1838 C1834 1.524 . S
C1838 H1850 0.956 . S
C1838 H1851 0.961 . S
C1838 H1852 0.961 . S
C1839 C1836 1.539 . S
C1839 H1853 0.958 . S
C1839 H1854 0.961 . S
C1839 H1855 0.960 . S
H1840 C1824 0.931 . S
H1841 C1829 0.929 . S
H1842 C1830 0.960 . S
H1843 C1830 0.962 . S
H1844 C1830 0.960 . S
H1845 C1831 0.961 . S
H1846 C1831 0.961 . S
H1847 C1831 0.961 . S
H1848 C1832 0.931 . S
H1849 C1837 0.930 . S
H1850 C1838 0.956 . S
H1851 C1838 0.961 . S
H1852 C1838 0.961 . S
H1853 C1839 0.958 . S
H1854 C1839 0.961 . S
H1855 C1839 0.960 . S
C321 C19 0.960 . S
C329 C21 0.934 . S
C353 C59 1.257 . S
C361 C38 1.262 . S
C385 C78 1.388 . S
C393 C49 1.384 . S
C417 C9 1.078 . S
C425 C61 1.035 . S
C449 C8 1.087 . S
C457 C182 1.045 . S
C481 C158 0.956 . S
C489 C22 0.960 . S
C513 C58 1.259 . S
C521 C219 1.262 . S
C545 C79 1.403 . S
C553 C268 1.397 . S
C577 C178 1.262 . S
C585 C39 1.259 . S
C609 C259 1.403 . S
C617 C48 1.373 . S
C641 C288 1.076 . S
C649 C62 1.038 . S
C673 C18 0.957 . S
C681 C222 0.962 . S
C705 C1 0.471 . S
C713 C162 0.465 . S
C737 C249 1.119 . S
C745 C88 1.126 . S
C769 C101 0.421 . S
C777 C282 0.425 . S
C801 C228 1.125 . S
C809 C129 1.124 . S
C833 C41 0.426 . S
C841 C142 0.398 . S
C865 C188 1.099 . S
C873 C89 1.115 . S
C897 C128 1.118 . S
C905 C209 1.127 . S
C929 C118 1.255 . S
C937 C239 1.256 . S
C961 C199 1.391 . S
C969 C108 1.389 . S
C993 C221 0.980 . S
C1001 C159 0.958 . S
C1025 C119 1.254 . S
C1033 C98 1.256 . S
C1057 C198 1.390 . S
C1065 C169 1.379 . S
C1089 C279 1.254 . S
C1097 C238 1.261 . S
C1121 C138 1.388 . S
C1129 C109 1.387 . S
C1153 C181 1.027 . S
C1161 C289 1.041 . S
C1185 C261 0.372 . S
C1193 C2 0.392 . S
C1217 C42 0.507 . S
C1225 C281 0.434 . S
C1249 C248 1.129 . S
C1257 C29 1.126 . S
C1281 C141 0.458 . S
C1289 C102 0.460 . S
C1313 C69 1.089 . S
C1321 C208 1.111 . S
C1345 C258 1.403 . S
C1353 C269 1.372 . S
C1377 C149 1.088 . S
C1385 C241 1.053 . S
C1409 C122 1.016 . S
C1417 C148 1.062 . S
C1441 C99 1.251 . S
C1449 C278 1.259 . S
C1473 C242 1.023 . S
C1481 C308 1.039 . S
C1505 C302 0.474 . S
C1513 C161 0.464 . S
C1537 C28 1.125 . S
C1545 C189 1.124 . S
C1569 C168 1.398 . S
C1577 C139 1.415 . S
C1601 C179 1.254 . S
C1609 C218 1.260 . S
C1633 C309 1.070 . S
C1641 C121 1.033 . S
C1665 C262 0.366 . S
C1673 C301 0.391 . S
C1697 C229 1.141 . S
C1705 C68 1.130 . S
C1729 C201 0.905 . S
C1737 C299 0.958 . S
C1761 C202 0.978 . S
C1769 C318 0.960 . S
C1793 C82 0.966 . S
C1801 C298 0.957 . S
C1825 C319 0.960 . S
C1833 C81 0.947 . S
