# Generated by pormake.
# Topology wlf, (5)-cn, num edge types: 1
# Building blocks:
#     Node 0, Type 0, BuildingBlock: BEQFEK_clean_sbu_0, # of connection points: 5
#     Node 1, Type 0, BuildingBlock: BEQFEK_clean_sbu_0, # of connection points: 5
#     Node 2, Type 0, BuildingBlock: BEQFEK_clean_sbu_0, # of connection points: 5
#     Node 3, Type 0, BuildingBlock: BEQFEK_clean_sbu_0, # of connection points: 5
#     Node 4, Type 0, BuildingBlock: BEQFEK_clean_sbu_0, # of connection points: 5
#     Node 5, Type 0, BuildingBlock: BEQFEK_clean_sbu_0, # of connection points: 5
#     Node 6, Type 0, BuildingBlock: BEQFEK_clean_sbu_0, # of connection points: 5
#     Node 7, Type 0, BuildingBlock: BEQFEK_clean_sbu_0, # of connection points: 5
#     Node 8, Type 0, BuildingBlock: BEQFEK_clean_sbu_0, # of connection points: 5
#     Node 9, Type 0, BuildingBlock: BEQFEK_clean_sbu_0, # of connection points: 5
#     Node 10, Type 0, BuildingBlock: BEQFEK_clean_sbu_0, # of connection points: 5
#     Node 11, Type 0, BuildingBlock: BEQFEK_clean_sbu_0, # of connection points: 5
#     Node 12, Type 0, BuildingBlock: BEQFEK_clean_sbu_0, # of connection points: 5
#     Node 13, Type 0, BuildingBlock: BEQFEK_clean_sbu_0, # of connection points: 5
#     Node 14, Type 0, BuildingBlock: BEQFEK_clean_sbu_0, # of connection points: 5
#     Node 15, Type 0, BuildingBlock: BEQFEK_clean_sbu_0, # of connection points: 5
#     Node 16, Type 0, BuildingBlock: BEQFEK_clean_sbu_0, # of connection points: 5
#     Node 17, Type 0, BuildingBlock: BEQFEK_clean_sbu_0, # of connection points: 5
#     Node 18, Type 0, BuildingBlock: BEQFEK_clean_sbu_0, # of connection points: 5
#     Node 19, Type 0, BuildingBlock: BEQFEK_clean_sbu_0, # of connection points: 5
#     Node 20, Type 0, BuildingBlock: BEQFEK_clean_sbu_0, # of connection points: 5
#     Node 21, Type 0, BuildingBlock: BEQFEK_clean_sbu_0, # of connection points: 5
#     Node 22, Type 0, BuildingBlock: BEQFEK_clean_sbu_0, # of connection points: 5
#     Node 23, Type 0, BuildingBlock: BEQFEK_clean_sbu_0, # of connection points: 5
#     Node 24, Type 0, BuildingBlock: BEQFEK_clean_sbu_0, # of connection points: 5
#     Node 25, Type 0, BuildingBlock: BEQFEK_clean_sbu_0, # of connection points: 5
#     Node 26, Type 0, BuildingBlock: BEQFEK_clean_sbu_0, # of connection points: 5
#     Node 27, Type 0, BuildingBlock: BEQFEK_clean_sbu_0, # of connection points: 5
#     Node 28, Type 0, BuildingBlock: BEQFEK_clean_sbu_0, # of connection points: 5
#     Node 29, Type 0, BuildingBlock: BEQFEK_clean_sbu_0, # of connection points: 5
#     Node 30, Type 0, BuildingBlock: BEQFEK_clean_sbu_0, # of connection points: 5
#     Node 31, Type 0, BuildingBlock: BEQFEK_clean_sbu_0, # of connection points: 5
#     Node 32, Type 0, BuildingBlock: BEQFEK_clean_sbu_0, # of connection points: 5
#     Node 33, Type 0, BuildingBlock: BEQFEK_clean_sbu_0, # of connection points: 5
#     Node 34, Type 0, BuildingBlock: BEQFEK_clean_sbu_0, # of connection points: 5
#     Node 35, Type 0, BuildingBlock: BEQFEK_clean_sbu_0, # of connection points: 5
#     Edge 36, Type (0, 0), BuildingBlock: XIVTED_clean_linker_0, # of connection points: 2
#     Edge 37, Type (0, 0), BuildingBlock: XIVTED_clean_linker_0, # of connection points: 2
#     Edge 38, Type (0, 0), BuildingBlock: XIVTED_clean_linker_0, # of connection points: 2
#     Edge 39, Type (0, 0), BuildingBlock: XIVTED_clean_linker_0, # of connection points: 2
#     Edge 40, Type (0, 0), BuildingBlock: XIVTED_clean_linker_0, # of connection points: 2
#     Edge 41, Type (0, 0), BuildingBlock: XIVTED_clean_linker_0, # of connection points: 2
#     Edge 42, Type (0, 0), BuildingBlock: XIVTED_clean_linker_0, # of connection points: 2
#     Edge 43, Type (0, 0), BuildingBlock: XIVTED_clean_linker_0, # of connection points: 2
#     Edge 44, Type (0, 0), BuildingBlock: XIVTED_clean_linker_0, # of connection points: 2
#     Edge 45, Type (0, 0), BuildingBlock: XIVTED_clean_linker_0, # of connection points: 2
#     Edge 46, Type (0, 0), BuildingBlock: XIVTED_clean_linker_0, # of connection points: 2
#     Edge 47, Type (0, 0), BuildingBlock: XIVTED_clean_linker_0, # of connection points: 2
#     Edge 48, Type (0, 0), BuildingBlock: XIVTED_clean_linker_0, # of connection points: 2
#     Edge 49, Type (0, 0), BuildingBlock: XIVTED_clean_linker_0, # of connection points: 2
#     Edge 50, Type (0, 0), BuildingBlock: XIVTED_clean_linker_0, # of connection points: 2
#     Edge 51, Type (0, 0), BuildingBlock: XIVTED_clean_linker_0, # of connection points: 2
#     Edge 52, Type (0, 0), BuildingBlock: XIVTED_clean_linker_0, # of connection points: 2
#     Edge 53, Type (0, 0), BuildingBlock: XIVTED_clean_linker_0, # of connection points: 2
#     Edge 54, Type (0, 0), BuildingBlock: XIVTED_clean_linker_0, # of connection points: 2
#     Edge 55, Type (0, 0), BuildingBlock: XIVTED_clean_linker_0, # of connection points: 2
#     Edge 56, Type (0, 0), BuildingBlock: XIVTED_clean_linker_0, # of connection points: 2
#     Edge 57, Type (0, 0), BuildingBlock: XIVTED_clean_linker_0, # of connection points: 2
#     Edge 58, Type (0, 0), BuildingBlock: XIVTED_clean_linker_0, # of connection points: 2
#     Edge 59, Type (0, 0), BuildingBlock: XIVTED_clean_linker_0, # of connection points: 2
#     Edge 60, Type (0, 0), BuildingBlock: XIVTED_clean_linker_0, # of connection points: 2
#     Edge 61, Type (0, 0), BuildingBlock: XIVTED_clean_linker_0, # of connection points: 2
#     Edge 62, Type (0, 0), BuildingBlock: XIVTED_clean_linker_0, # of connection points: 2
#     Edge 63, Type (0, 0), BuildingBlock: XIVTED_clean_linker_0, # of connection points: 2
#     Edge 64, Type (0, 0), BuildingBlock: XIVTED_clean_linker_0, # of connection points: 2
#     Edge 65, Type (0, 0), BuildingBlock: XIVTED_clean_linker_0, # of connection points: 2
#     Edge 66, Type (0, 0), BuildingBlock: XIVTED_clean_linker_0, # of connection points: 2
#     Edge 67, Type (0, 0), BuildingBlock: XIVTED_clean_linker_0, # of connection points: 2
#     Edge 68, Type (0, 0), BuildingBlock: XIVTED_clean_linker_0, # of connection points: 2
#     Edge 69, Type (0, 0), BuildingBlock: XIVTED_clean_linker_0, # of connection points: 2
#     Edge 70, Type (0, 0), BuildingBlock: XIVTED_clean_linker_0, # of connection points: 2
#     Edge 71, Type (0, 0), BuildingBlock: XIVTED_clean_linker_0, # of connection points: 2
#     Edge 72, Type (0, 0), BuildingBlock: XIVTED_clean_linker_0, # of connection points: 2
#     Edge 73, Type (0, 0), BuildingBlock: XIVTED_clean_linker_0, # of connection points: 2
#     Edge 74, Type (0, 0), BuildingBlock: XIVTED_clean_linker_0, # of connection points: 2
#     Edge 75, Type (0, 0), BuildingBlock: XIVTED_clean_linker_0, # of connection points: 2
#     Edge 76, Type (0, 0), BuildingBlock: XIVTED_clean_linker_0, # of connection points: 2
#     Edge 77, Type (0, 0), BuildingBlock: XIVTED_clean_linker_0, # of connection points: 2
#     Edge 78, Type (0, 0), BuildingBlock: XIVTED_clean_linker_0, # of connection points: 2
#     Edge 79, Type (0, 0), BuildingBlock: XIVTED_clean_linker_0, # of connection points: 2
#     Edge 80, Type (0, 0), BuildingBlock: XIVTED_clean_linker_0, # of connection points: 2
#     Edge 81, Type (0, 0), BuildingBlock: XIVTED_clean_linker_0, # of connection points: 2
#     Edge 82, Type (0, 0), BuildingBlock: XIVTED_clean_linker_0, # of connection points: 2
#     Edge 83, Type (0, 0), BuildingBlock: XIVTED_clean_linker_0, # of connection points: 2
#     Edge 84, Type (0, 0), BuildingBlock: XIVTED_clean_linker_0, # of connection points: 2
#     Edge 85, Type (0, 0), BuildingBlock: XIVTED_clean_linker_0, # of connection points: 2
#     Edge 86, Type (0, 0), BuildingBlock: XIVTED_clean_linker_0, # of connection points: 2
#     Edge 87, Type (0, 0), BuildingBlock: XIVTED_clean_linker_0, # of connection points: 2
#     Edge 88, Type (0, 0), BuildingBlock: XIVTED_clean_linker_0, # of connection points: 2
#     Edge 89, Type (0, 0), BuildingBlock: XIVTED_clean_linker_0, # of connection points: 2
#     Edge 90, Type (0, 0), BuildingBlock: XIVTED_clean_linker_0, # of connection points: 2
#     Edge 91, Type (0, 0), BuildingBlock: XIVTED_clean_linker_0, # of connection points: 2
#     Edge 92, Type (0, 0), BuildingBlock: XIVTED_clean_linker_0, # of connection points: 2
#     Edge 93, Type (0, 0), BuildingBlock: XIVTED_clean_linker_0, # of connection points: 2
#     Edge 94, Type (0, 0), BuildingBlock: XIVTED_clean_linker_0, # of connection points: 2
#     Edge 95, Type (0, 0), BuildingBlock: XIVTED_clean_linker_0, # of connection points: 2
#     Edge 96, Type (0, 0), BuildingBlock: XIVTED_clean_linker_0, # of connection points: 2
#     Edge 97, Type (0, 0), BuildingBlock: XIVTED_clean_linker_0, # of connection points: 2
#     Edge 98, Type (0, 0), BuildingBlock: XIVTED_clean_linker_0, # of connection points: 2
#     Edge 99, Type (0, 0), BuildingBlock: XIVTED_clean_linker_0, # of connection points: 2
#     Edge 100, Type (0, 0), BuildingBlock: XIVTED_clean_linker_0, # of connection points: 2
#     Edge 101, Type (0, 0), BuildingBlock: XIVTED_clean_linker_0, # of connection points: 2
#     Edge 102, Type (0, 0), BuildingBlock: XIVTED_clean_linker_0, # of connection points: 2
#     Edge 103, Type (0, 0), BuildingBlock: XIVTED_clean_linker_0, # of connection points: 2
#     Edge 104, Type (0, 0), BuildingBlock: XIVTED_clean_linker_0, # of connection points: 2
#     Edge 105, Type (0, 0), BuildingBlock: XIVTED_clean_linker_0, # of connection points: 2
#     Edge 106, Type (0, 0), BuildingBlock: XIVTED_clean_linker_0, # of connection points: 2
#     Edge 107, Type (0, 0), BuildingBlock: XIVTED_clean_linker_0, # of connection points: 2
#     Edge 108, Type (0, 0), BuildingBlock: XIVTED_clean_linker_0, # of connection points: 2
#     Edge 109, Type (0, 0), BuildingBlock: XIVTED_clean_linker_0, # of connection points: 2
#     Edge 110, Type (0, 0), BuildingBlock: XIVTED_clean_linker_0, # of connection points: 2
#     Edge 111, Type (0, 0), BuildingBlock: XIVTED_clean_linker_0, # of connection points: 2
#     Edge 112, Type (0, 0), BuildingBlock: XIVTED_clean_linker_0, # of connection points: 2
#     Edge 113, Type (0, 0), BuildingBlock: XIVTED_clean_linker_0, # of connection points: 2
#     Edge 114, Type (0, 0), BuildingBlock: XIVTED_clean_linker_0, # of connection points: 2
#     Edge 115, Type (0, 0), BuildingBlock: XIVTED_clean_linker_0, # of connection points: 2
#     Edge 116, Type (0, 0), BuildingBlock: XIVTED_clean_linker_0, # of connection points: 2
#     Edge 117, Type (0, 0), BuildingBlock: XIVTED_clean_linker_0, # of connection points: 2
#     Edge 118, Type (0, 0), BuildingBlock: XIVTED_clean_linker_0, # of connection points: 2
#     Edge 119, Type (0, 0), BuildingBlock: XIVTED_clean_linker_0, # of connection points: 2
#     Edge 120, Type (0, 0), BuildingBlock: XIVTED_clean_linker_0, # of connection points: 2
#     Edge 121, Type (0, 0), BuildingBlock: XIVTED_clean_linker_0, # of connection points: 2
#     Edge 122, Type (0, 0), BuildingBlock: XIVTED_clean_linker_0, # of connection points: 2
#     Edge 123, Type (0, 0), BuildingBlock: XIVTED_clean_linker_0, # of connection points: 2
#     Edge 124, Type (0, 0), BuildingBlock: XIVTED_clean_linker_0, # of connection points: 2
#     Edge 125, Type (0, 0), BuildingBlock: XIVTED_clean_linker_0, # of connection points: 2
# Relax obj value: 0.510
# Max RMSD: 0.267
# Mean RMSD: 0.267
data_MOF--net-wlf--node1-BEQFEK_clean_sbu_0--edge1-XIVTED_clean_linker_0
_symmetry_space_group_name_H-M    P1
_symmetry_Int_Tables_number       1
_symmetry_cell_setting            triclinic
loop_
_symmetry_equiv_pos_as_xyz
'x, y, z'
_cell_length_a     113.37066
_cell_length_b     113.35774
_cell_length_c     27.284457
_cell_angle_alpha  89.970861
_cell_angle_beta   89.989108
_cell_angle_gamma 119.9951
loop_
_atom_site_label
_atom_site_type_symbol
_atom_site_fract_x
_atom_site_fract_y
_atom_site_fract_z
_atom_type_partial_charge
Co0 Co 0.28704 0.16671 0.33604 0.0
Co1 Co 0.26512 0.17543 0.35397 0.0
C2 C 0.29529 0.19543 0.36215 0.0
O3 O 0.29775 0.18606 0.35071 0.0
O4 O 0.28308 0.19311 0.36611 0.0
C5 C 0.31272 0.16887 0.31534 0.0
O6 O 0.3176 0.1795 0.34449 0.0
C7 C 0.25009 0.18937 0.32512 0.0
C8 C 0.23063 0.17752 0.36466 0.0
C9 C 0.23733 0.18818 0.33167 0.0
N10 N 0.25077 0.17986 0.35268 0.0
N11 N 0.23915 0.17291 0.37661 0.0
C12 C 0.26104 0.19847 0.29007 0.0
H13 H 0.26798 0.19444 0.28249 0.0
H14 H 0.25653 0.19946 0.25527 0.0
H15 H 0.26708 0.20873 0.30662 0.0
C16 C 0.27269 0.15712 0.24326 0.0
N17 N 0.27458 0.16369 0.28603 0.0
N18 N 0.26495 0.16681 0.29238 0.0
C19 C 0.25638 0.16194 0.25341 0.0
C20 C 0.26108 0.15566 0.22126 0.0
C21 C 0.28182 0.15216 0.22406 0.0
H22 H 0.28148 0.14432 0.24926 0.0
H23 H 0.29242 0.16081 0.22262 0.0
H24 H 0.27885 0.14777 0.18676 0.0
O25 O 0.27724 0.15596 0.3938 0.0
O26 O 0.26166 0.16196 0.40924 0.0
H27 H 0.23804 0.15983 0.28437 0.0
H28 H 0.23666 0.15493 0.22046 0.0
C29 C 0.24341 0.16227 0.24864 0.0
H30 H 0.2458 0.17264 0.23755 0.0
H31 H 0.23686 0.16475 0.39996 0.0
O32 O 0.29991 0.16121 0.31161 0.0
C33 C 0.26734 0.15491 0.41926 0.0
Co34 Co 0.84413 0.12199 0.33049 0.0
Co35 Co 0.83531 0.09134 0.34871 0.0
C36 C 0.81554 0.10167 0.35925 0.0
O37 O 0.8249 0.11346 0.34714 0.0
O38 O 0.81779 0.09173 0.36263 0.0
C39 C 0.84203 0.14565 0.31201 0.0
O40 O 0.83193 0.14016 0.34351 0.0
C41 C 0.82131 0.06219 0.32185 0.0
C42 C 0.83362 0.05501 0.3607 0.0
C43 C 0.8227 0.05075 0.32877 0.0
N44 N 0.83097 0.0726 0.34819 0.0
N45 N 0.83818 0.06817 0.37173 0.0
C46 C 0.81186 0.0637 0.28753 0.0
H47 H 0.8157 0.07462 0.27926 0.0
H48 H 0.81069 0.05803 0.25303 0.0
H49 H 0.80171 0.05946 0.30508 0.0
C50 C 0.85312 0.11696 0.23692 0.0
N51 N 0.84675 0.11238 0.2801 0.0
N52 N 0.84358 0.09962 0.28651 0.0
C53 C 0.84821 0.09581 0.24713 0.0
C54 C 0.85436 0.10672 0.21462 0.0
C55 C 0.85828 0.13111 0.21792 0.0
H56 H 0.86609 0.13852 0.24339 0.0
H57 H 0.84972 0.1332 0.21624 0.0
H58 H 0.86278 0.13255 0.18078 0.0
O59 O 0.85525 0.12307 0.38722 0.0
O60 O 0.84904 0.10144 0.40282 0.0
H61 H 0.8505 0.07964 0.27763 0.0
H62 H 0.85486 0.08291 0.2132 0.0
C63 C 0.84778 0.08247 0.24223 0.0
H64 H 0.83731 0.07448 0.23233 0.0
H65 H 0.8465 0.07425 0.39417 0.0
O66 O 0.84943 0.14028 0.30578 0.0
C67 C 0.85627 0.11417 0.41247 0.0
Co68 Co 0.88928 0.72225 0.34483 0.0
Co69 Co 0.91955 0.74524 0.36023 0.0
C70 C 0.91078 0.71575 0.37593 0.0
O71 O 0.89873 0.71278 0.36597 0.0
O72 O 0.92049 0.72806 0.37521 0.0
C73 C 0.87329 0.69934 0.29206 0.0
O74 O 0.88559 0.70125 0.2852 0.0
C75 C 0.94805 0.76086 0.32774 0.0
C76 C 0.95651 0.77935 0.37353 0.0
C77 C 0.9599 0.77315 0.33665 0.0
N78 N 0.93813 0.75994 0.35743 0.0
N79 N 0.94328 0.77104 0.3848 0.0
C80 C 0.94639 0.74972 0.29397 0.0
H81 H 0.93687 0.74009 0.30219 0.0
H82 H 0.94589 0.75255 0.25551 0.0
H83 H 0.95529 0.74817 0.29724 0.0
C84 C 0.89291 0.73632 0.25131 0.0
N85 N 0.89813 0.73455 0.29317 0.0
N86 N 0.91078 0.7445 0.29842 0.0
C87 C 0.91393 0.75302 0.25944 0.0
C88 C 0.90272 0.74796 0.22833 0.0
C89 C 0.87842 0.72759 0.23515 0.0
H90 H 0.87146 0.72535 0.2667 0.0
H91 H 0.87707 0.7179 0.2203 0.0
H92 H 0.87558 0.73248 0.2059 0.0
O93 O 0.88747 0.73225 0.40035 0.0
O94 O 0.90899 0.74838 0.41452 0.0
H95 H 0.92989 0.77148 0.29101 0.0
H96 H 0.92508 0.77333 0.22942 0.0
C97 C 0.92665 0.76655 0.25463 0.0
H98 H 0.93487 0.76507 0.23937 0.0
H99 H 0.93776 0.77295 0.41112 0.0
O100 O 0.87176 0.70749 0.31989 0.0
C101 C 0.89624 0.74248 0.42487 0.0
Co102 Co 0.17228 0.28556 0.15961 0.0
Co103 Co 0.17952 0.26256 0.14399 0.0
C104 C 0.20031 0.29189 0.12829 0.0
O105 O 0.19118 0.29482 0.13793 0.0
O106 O 0.19778 0.27959 0.12947 0.0
C107 C 0.17948 0.30848 0.21274 0.0
O108 O 0.1898 0.30644 0.21945 0.0
C109 C 0.19252 0.2466 0.1716 0.0
C110 C 0.17919 0.22673 0.13665 0.0
C111 C 0.19054 0.23348 0.16667 0.0
N112 N 0.18281 0.24744 0.14594 0.0
N113 N 0.17496 0.23555 0.12472 0.0
C114 C 0.20261 0.25782 0.20366 0.0
H115 H 0.19915 0.26521 0.21175 0.0
H116 H 0.20409 0.25364 0.23843 0.0
H117 H 0.21253 0.2633 0.1843 0.0
C118 C 0.16182 0.27149 0.25296 0.0
N119 N 0.16878 0.27324 0.21106 0.0
N120 N 0.17175 0.26346 0.20628 0.0
C121 C 0.1668 0.2552 0.24608 0.0
C122 C 0.16038 0.26009 0.27675 0.0
C123 C 0.15595 0.28015 0.26877 0.0
H124 H 0.15133 0.28242 0.23696 0.0
H125 H 0.1642 0.28983 0.28403 0.0
H126 H 0.1481 0.27519 0.29764 0.0
O127 O 0.16022 0.27564 0.105 0.0
O128 O 0.16571 0.25962 0.08989 0.0
H129 H 0.16376 0.23618 0.21861 0.0
H130 H 0.16035 0.23612 0.2835 0.0
C131 C 0.16707 0.24225 0.25285 0.0
H132 H 0.17762 0.24469 0.26111 0.0
H133 H 0.16648 0.23334 0.10327 0.0
O134 O 0.16978 0.30043 0.18485 0.0
C135 C 0.15874 0.26544 0.08028 0.0
Co136 Co 0.72574 0.88684 0.16793 0.0
Co137 Co 0.74764 0.91743 0.14953 0.0
C138 C 0.71753 0.90742 0.14249 0.0
O139 O 0.71506 0.89556 0.15367 0.0
O140 O 0.72974 0.91728 0.13834 0.0
C141 C 0.70003 0.86338 0.18853 0.0
O142 O 0.69522 0.86907 0.15873 0.0
C143 C 0.76281 0.94652 0.17658 0.0
C144 C 0.78224 0.95382 0.13717 0.0
C145 C 0.77559 0.95801 0.16941 0.0
N146 N 0.76208 0.93615 0.15003 0.0
N147 N 0.77369 0.94064 0.12617 0.0
C148 C 0.7519 0.94493 0.21131 0.0
H149 H 0.74496 0.93401 0.21992 0.0
H150 H 0.75644 0.95069 0.24562 0.0
H151 H 0.74583 0.94901 0.19393 0.0
C152 C 0.74025 0.89163 0.26043 0.0
N153 N 0.73833 0.89628 0.21759 0.0
N154 N 0.74792 0.90904 0.21115 0.0
C155 C 0.75646 0.9128 0.2502 0.0
C156 C 0.7518 0.90185 0.28248 0.0
C157 C 0.73124 0.87751 0.27955 0.0
H158 H 0.72065 0.87554 0.2821 0.0
H159 H 0.73444 0.876 0.31633 0.0
H160 H 0.73142 0.87005 0.25368 0.0
O161 O 0.73534 0.88575 0.10994 0.0
O162 O 0.75089 0.90732 0.09411 0.0
H163 H 0.77482 0.9291 0.21966 0.0
H164 H 0.77601 0.92577 0.28394 0.0
C165 C 0.76932 0.92619 0.25514 0.0
H166 H 0.76676 0.93411 0.26536 0.0
H167 H 0.77592 0.93461 0.10348 0.0
O168 O 0.71283 0.86854 0.19277 0.0
C169 C 0.74519 0.89458 0.08421 0.0
Co170 Co 0.12164 0.8381 0.15842 0.0
Co171 Co 0.09134 0.83083 0.14345 0.0
C172 C 0.10016 0.81025 0.12615 0.0
O173 O 0.11224 0.81936 0.1355 0.0
O174 O 0.09038 0.81273 0.12846 0.0
C175 C 0.13827 0.831 0.20769 0.0
O176 O 0.12631 0.81994 0.21202 0.0
C177 C 0.0629 0.81811 0.17657 0.0
C178 C 0.05441 0.82804 0.13036 0.0
C179 C 0.05106 0.81856 0.16762 0.0
N180 N 0.07279 0.82702 0.14651 0.0
N181 N 0.06762 0.83291 0.11891 0.0
C182 C 0.06461 0.80873 0.21076 0.0
H183 H 0.07399 0.8084 0.20196 0.0
H184 H 0.06546 0.81236 0.24897 0.0
H185 H 0.05559 0.79834 0.20867 0.0
C186 C 0.11794 0.84805 0.25269 0.0
N187 N 0.1127 0.84118 0.21069 0.0
N188 N 0.10015 0.83876 0.20517 0.0
C189 C 0.09713 0.84429 0.24393 0.0
C190 C 0.10829 0.85021 0.27529 0.0
C191 C 0.13234 0.85343 0.26923 0.0
H192 H 0.13944 0.85881 0.23856 0.0
H193 H 0.13361 0.84477 0.28095 0.0
H194 H 0.13507 0.86049 0.3007 0.0
O195 O 0.12346 0.85031 0.10436 0.0
O196 O 0.10187 0.84458 0.08926 0.0
H197 H 0.08154 0.84725 0.21142 0.0
H198 H 0.08644 0.85407 0.27277 0.0
C199 C 0.08464 0.84555 0.24807 0.0
H200 H 0.07623 0.83602 0.26362 0.0
H201 H 0.07311 0.84025 0.09229 0.0
O202 O 0.13925 0.84095 0.1828 0.0
C203 C 0.11465 0.85167 0.07972 0.0
Co204 Co 0.726 0.84017 0.6634 0.0
Co205 Co 0.74909 0.83301 0.64796 0.0
C206 C 0.71989 0.81247 0.62889 0.0
O207 O 0.71689 0.82151 0.63944 0.0
O208 O 0.73217 0.81497 0.63075 0.0
C209 C 0.70238 0.8326 0.7136 0.0
O210 O 0.7038 0.82185 0.71833 0.0
C211 C 0.76474 0.81982 0.67624 0.0
C212 C 0.7848 0.83308 0.64228 0.0
C213 C 0.77783 0.82169 0.67205 0.0
N214 N 0.76412 0.82963 0.65043 0.0
N215 N 0.77611 0.83744 0.6298 0.0
C216 C 0.75333 0.80976 0.7078 0.0
H217 H 0.74597 0.81329 0.71524 0.0
H218 H 0.75731 0.80821 0.74291 0.0
H219 H 0.74788 0.79986 0.68834 0.0
C220 C 0.73943 0.84976 0.75805 0.0
N221 N 0.73791 0.84311 0.71561 0.0
N222 N 0.74781 0.84032 0.71066 0.0
C223 C 0.75597 0.84516 0.75072 0.0
C224 C 0.75083 0.85125 0.78186 0.0
C225 C 0.73058 0.85539 0.77423 0.0
H226 H 0.72878 0.86058 0.74313 0.0
H227 H 0.72068 0.84689 0.78696 0.0
H228 H 0.73512 0.86268 0.80497 0.0
O229 O 0.73638 0.85268 0.61017 0.0
O230 O 0.75239 0.84716 0.5952 0.0
H231 H 0.77512 0.84867 0.72284 0.0
H232 H 0.77515 0.85198 0.78779 0.0
C233 C 0.76909 0.84522 0.75715 0.0
H234 H 0.76689 0.83474 0.76532 0.0
H235 H 0.77848 0.84598 0.60841 0.0
O236 O 0.71104 0.84262 0.68817 0.0
C237 C 0.74669 0.85425 0.5859 0.0
Co238 Co 0.16956 0.88628 0.65814 0.0
Co239 Co 0.17709 0.91671 0.64351 0.0
C240 C 0.198 0.90791 0.63307 0.0
O241 O 0.18887 0.89582 0.64261 0.0
O242 O 0.1953 0.91757 0.63137 0.0
C243 C 0.17363 0.86399 0.68135 0.0
O244 O 0.18532 0.8712 0.65871 0.0
C245 C 0.18998 0.94547 0.6739 0.0
C246 C 0.17741 0.95249 0.63596 0.0
C247 C 0.18825 0.95675 0.66825 0.0
N248 N 0.1806 0.93516 0.64644 0.0
N249 N 0.17321 0.93948 0.6235 0.0
C250 C 0.19949 0.94397 0.70795 0.0
H251 H 0.19581 0.93305 0.71538 0.0
H252 H 0.20049 0.94939 0.74292 0.0
H253 H 0.20969 0.94846 0.69059 0.0
C254 C 0.15943 0.88978 0.75197 0.0
N255 N 0.16601 0.89498 0.70952 0.0
N256 N 0.16864 0.90762 0.70454 0.0
C257 C 0.16349 0.91074 0.74418 0.0
C258 C 0.15751 0.89949 0.77531 0.0
C259 C 0.15473 0.87557 0.76929 0.0
H260 H 0.16358 0.87393 0.77108 0.0
H261 H 0.14995 0.87358 0.80608 0.0
H262 H 0.14728 0.8682 0.74274 0.0
O263 O 0.15845 0.88516 0.60152 0.0
O264 O 0.16386 0.90666 0.58756 0.0
H265 H 0.16049 0.92664 0.71545 0.0
H266 H 0.15596 0.92272 0.77951 0.0
C267 C 0.16328 0.92372 0.75052 0.0
H268 H 0.17358 0.93193 0.76123 0.0
H269 H 0.16507 0.93344 0.60036 0.0
O270 O 0.16494 0.86796 0.68064 0.0
C271 C 0.15708 0.89395 0.57695 0.0
Co272 Co 0.12365 0.28494 0.6605 0.0
Co273 Co 0.09333 0.26218 0.64479 0.0
C274 C 0.10201 0.29157 0.63089 0.0
O275 O 0.11405 0.29437 0.6402 0.0
O276 O 0.0922 0.27931 0.63152 0.0
C277 C 0.13899 0.30719 0.71627 0.0
O278 O 0.12648 0.3045 0.72454 0.0
C279 C 0.06432 0.24625 0.67174 0.0
C280 C 0.05778 0.22646 0.63619 0.0
C281 C 0.05316 0.23318 0.66627 0.0
N282 N 0.07491 0.2471 0.6463 0.0
N283 N 0.07087 0.23526 0.62474 0.0
C284 C 0.06544 0.25743 0.70403 0.0
H285 H 0.07627 0.26474 0.7126 0.0
H286 H 0.05965 0.25319 0.73854 0.0
H287 H 0.06112 0.26302 0.68461 0.0
C288 C 0.12005 0.27042 0.75279 0.0
N289 N 0.11484 0.27238 0.7113 0.0
N290 N 0.10201 0.26279 0.70677 0.0
C291 C 0.09864 0.25448 0.74647 0.0
C292 C 0.11 0.25914 0.77673 0.0
C293 C 0.13468 0.27873 0.76799 0.0
H294 H 0.14142 0.28136 0.73555 0.0
H295 H 0.13632 0.28823 0.78569 0.0
H296 H 0.13757 0.27327 0.79481 0.0
O297 O 0.12573 0.27529 0.60484 0.0
O298 O 0.10415 0.25941 0.58998 0.0
H299 H 0.0823 0.23562 0.71956 0.0
H300 H 0.0857 0.23558 0.7844 0.0
C301 C 0.08525 0.24175 0.75365 0.0
H302 H 0.07735 0.24449 0.76193 0.0
H303 H 0.07716 0.23306 0.60333 0.0
O304 O 0.14096 0.29973 0.68635 0.0
C305 C 0.11691 0.26521 0.5799 0.0
Co306 Co 0.84128 0.72317 0.84419 0.0
Co307 Co 0.83405 0.74611 0.86057 0.0
C308 C 0.81327 0.7168 0.8758 0.0
O309 O 0.82243 0.71389 0.86641 0.0
O310 O 0.81575 0.72907 0.87419 0.0
C311 C 0.83388 0.70069 0.78894 0.0
O312 O 0.824 0.70338 0.78167 0.0
C313 C 0.82132 0.76231 0.83337 0.0
C314 C 0.8346 0.782 0.86955 0.0
C315 C 0.82338 0.77544 0.8388 0.0
N316 N 0.83088 0.76128 0.85939 0.0
N317 N 0.83869 0.77306 0.88136 0.0
C318 C 0.81134 0.75124 0.80053 0.0
H319 H 0.81475 0.74381 0.79253 0.0
H320 H 0.81009 0.75557 0.76574 0.0
H321 H 0.80132 0.74577 0.81921 0.0
C322 C 0.85148 0.73724 0.75063 0.0
N323 N 0.84471 0.73553 0.79295 0.0
N324 N 0.84182 0.74536 0.79818 0.0
C325 C 0.8467 0.75364 0.75838 0.0
C326 C 0.85282 0.7486 0.727 0.0
C327 C 0.85772 0.72891 0.73491 0.0
H328 H 0.862 0.72634 0.76702 0.0
H329 H 0.84979 0.71938 0.71762 0.0
H330 H 0.86596 0.73437 0.70762 0.0
O331 O 0.85342 0.73296 0.8988 0.0
O332 O 0.84774 0.74881 0.91472 0.0
H333 H 0.84971 0.77258 0.78668 0.0
H334 H 0.8535 0.77292 0.72202 0.0
C335 C 0.84658 0.76668 0.75207 0.0
H336 H 0.83611 0.76435 0.74297 0.0
H337 H 0.84706 0.77512 0.9032 0.0
O338 O 0.84351 0.70822 0.81803 0.0
C339 C 0.85477 0.74303 0.92402 0.0
Co340 Co 0.28585 0.11942 0.84122 0.0
Co341 Co 0.26308 0.08901 0.85528 0.0
C342 C 0.29231 0.09788 0.87374 0.0
O343 O 0.29513 0.10992 0.86422 0.0
O344 O 0.28011 0.08798 0.8713 0.0
C345 C 0.30889 0.13523 0.78905 0.0
O346 O 0.30678 0.12286 0.78202 0.0
C347 C 0.24739 0.06008 0.8276 0.0
C348 C 0.22736 0.05344 0.86154 0.0
C349 C 0.23429 0.04889 0.83215 0.0
N350 N 0.24806 0.0706 0.85287 0.0
N351 N 0.23608 0.06651 0.87347 0.0
C352 C 0.25878 0.06128 0.7963 0.0
H353 H 0.26615 0.07214 0.7883 0.0
H354 H 0.25477 0.05561 0.76146 0.0
H355 H 0.26423 0.0569 0.81623 0.0
C356 C 0.27221 0.11586 0.74708 0.0
N357 N 0.27386 0.1106 0.789 0.0
N358 N 0.26421 0.09777 0.79307 0.0
C359 C 0.25615 0.09447 0.75274 0.0
C360 C 0.26103 0.10587 0.72251 0.0
C361 C 0.28075 0.13048 0.73199 0.0
H362 H 0.28283 0.13723 0.76409 0.0
H363 H 0.29054 0.13212 0.71698 0.0
H364 H 0.2758 0.13338 0.70313 0.0
O365 O 0.27555 0.12134 0.89502 0.0
O366 O 0.25978 0.09966 0.90897 0.0
H367 H 0.23708 0.07825 0.77882 0.0
H368 H 0.23738 0.0817 0.71387 0.0
C369 C 0.24337 0.08116 0.74509 0.0
H370 H 0.24603 0.07318 0.73727 0.0
H371 H 0.23374 0.07275 0.89454 0.0
O372 O 0.30078 0.13686 0.81674 0.0
C373 C 0.26533 0.11239 0.91907 0.0
Co374 Co 0.88959 0.16753 0.83071 0.0
Co375 Co 0.92008 0.17566 0.84899 0.0
C376 C 0.91019 0.19577 0.86151 0.0
O377 O 0.89835 0.18663 0.84905 0.0
O378 O 0.92 0.19329 0.86421 0.0
C379 C 0.86646 0.1704 0.8096 0.0
O380 O 0.87244 0.18111 0.83832 0.0
C381 C 0.94912 0.18941 0.82102 0.0
C382 C 0.95633 0.17706 0.85937 0.0
C383 C 0.96054 0.18796 0.82733 0.0
N384 N 0.93877 0.17981 0.84781 0.0
N385 N 0.94321 0.17256 0.87104 0.0
C386 C 0.94754 0.19886 0.78687 0.0
H387 H 0.93661 0.19506 0.77919 0.0
H388 H 0.95306 0.19996 0.75205 0.0
H389 H 0.95189 0.20903 0.80427 0.0
C390 C 0.89455 0.15888 0.73636 0.0
N391 N 0.89916 0.16502 0.77984 0.0
N392 N 0.91178 0.16778 0.78646 0.0
C393 C 0.91545 0.16305 0.74699 0.0
C394 C 0.9046 0.15729 0.71418 0.0
C395 C 0.88053 0.1542 0.717 0.0
H396 H 0.87293 0.14615 0.74137 0.0
H397 H 0.87865 0.1629 0.71681 0.0
H398 H 0.87918 0.15014 0.67918 0.0
O399 O 0.88828 0.15599 0.88643 0.0
O400 O 0.90977 0.16172 0.90241 0.0
H401 H 0.93113 0.16006 0.77805 0.0
H402 H 0.92781 0.15566 0.71368 0.0
C403 C 0.92852 0.1629 0.74248 0.0
H404 H 0.93679 0.17323 0.73241 0.0
H405 H 0.93718 0.16428 0.8937 0.0
O406 O 0.87135 0.16252 0.80605 0.0
C407 C 0.89699 0.15462 0.91154 0.0
Co408 Co 0.95367 0.50057 0.66848 0.0
Co409 Co 0.93144 0.50893 0.68579 0.0
C410 C 0.96145 0.52894 0.69828 0.0
O411 O 0.96409 0.51971 0.68643 0.0
O412 O 0.9492 0.52657 0.70061 0.0
C413 C 0.97961 0.50313 0.64883 0.0
O414 O 0.98432 0.51378 0.67782 0.0
C415 C 0.91596 0.52247 0.65693 0.0
C416 C 0.89648 0.5101 0.69576 0.0
C417 C 0.90302 0.52087 0.66314 0.0
N418 N 0.91687 0.51305 0.68428 0.0
N419 N 0.90523 0.5058 0.70781 0.0
C420 C 0.92689 0.53187 0.62239 0.0
H421 H 0.93416 0.52821 0.61521 0.0
H422 H 0.92239 0.53272 0.58738 0.0
H423 H 0.93258 0.54214 0.63919 0.0
C424 C 0.94017 0.49185 0.57399 0.0
N425 N 0.94167 0.49806 0.61734 0.0
N426 N 0.93184 0.50089 0.62353 0.0
C427 C 0.92351 0.49616 0.58392 0.0
C428 C 0.9286 0.49032 0.55145 0.0
C429 C 0.9495 0.48711 0.55504 0.0
H430 H 0.9601 0.49577 0.55506 0.0
H431 H 0.94685 0.48305 0.5172 0.0
H432 H 0.94896 0.47904 0.57954 0.0
O433 O 0.94336 0.48913 0.72418 0.0
O434 O 0.92772 0.49506 0.73968 0.0
H435 H 0.90487 0.49343 0.61447 0.0
H436 H 0.90378 0.48873 0.55044 0.0
C437 C 0.91034 0.49609 0.57891 0.0
H438 H 0.91246 0.50639 0.56804 0.0
H439 H 0.9031 0.49762 0.73089 0.0
O440 O 0.96682 0.4954 0.64451 0.0
C441 C 0.93329 0.48788 0.74911 0.0
Co442 Co 0.50891 0.45444 0.67571 0.0
Co443 Co 0.5018 0.42421 0.69061 0.0
C444 C 0.48121 0.43277 0.70996 0.0
O445 O 0.49027 0.44484 0.7 0.0
O446 O 0.48367 0.42297 0.70731 0.0
C447 C 0.50119 0.47021 0.62506 0.0
O448 O 0.49067 0.45791 0.61965 0.0
C449 C 0.48895 0.39533 0.66268 0.0
C450 C 0.50238 0.38887 0.69743 0.0
C451 C 0.49103 0.38425 0.66743 0.0
N452 N 0.49863 0.40588 0.68839 0.0
N453 N 0.50654 0.4019 0.70949 0.0
C454 C 0.47882 0.39645 0.63081 0.0
H455 H 0.48217 0.40729 0.62317 0.0
H456 H 0.47742 0.39091 0.59581 0.0
H457 H 0.46888 0.39185 0.6501 0.0
C458 C 0.51861 0.45077 0.58096 0.0
N459 N 0.51191 0.44556 0.6233 0.0
N460 N 0.50915 0.43287 0.62803 0.0
C461 C 0.51406 0.42964 0.58792 0.0
C462 C 0.52013 0.44091 0.55694 0.0
C463 C 0.52438 0.46531 0.5653 0.0
H464 H 0.52935 0.4722 0.59684 0.0
H465 H 0.516 0.46679 0.55173 0.0
H466 H 0.53191 0.46815 0.53528 0.0
O467 O 0.52147 0.45665 0.72867 0.0
O468 O 0.51587 0.43508 0.74356 0.0
H469 H 0.51759 0.41399 0.61557 0.0
H470 H 0.52097 0.41738 0.55068 0.0
C471 C 0.51417 0.41661 0.58129 0.0
H472 H 0.50371 0.40832 0.57298 0.0
H473 H 0.51501 0.40818 0.73096 0.0
O474 O 0.51119 0.47178 0.65108 0.0
C475 C 0.52299 0.44787 0.75289 0.0
Co476 Co 0.55664 0.0575 0.67954 0.0
Co477 Co 0.58698 0.08037 0.69391 0.0
C478 C 0.57825 0.05114 0.71212 0.0
O479 O 0.56616 0.04827 0.70323 0.0
O480 O 0.58811 0.06334 0.7089 0.0
C481 C 0.54073 0.03416 0.62836 0.0
O482 O 0.55298 0.03582 0.62287 0.0
C483 C 0.61594 0.09616 0.66602 0.0
C484 C 0.62258 0.11609 0.7006 0.0
C485 C 0.62712 0.10924 0.67082 0.0
N486 N 0.6054 0.09542 0.69152 0.0
N487 N 0.6095 0.10735 0.7125 0.0
C488 C 0.61474 0.08485 0.6343 0.0
H489 H 0.60389 0.07749 0.62626 0.0
H490 H 0.62042 0.08895 0.5995 0.0
H491 H 0.61914 0.07936 0.65391 0.0
C492 C 0.5603 0.07107 0.58503 0.0
N493 N 0.56553 0.06947 0.62716 0.0
N494 N 0.57827 0.07927 0.63161 0.0
C495 C 0.58156 0.08739 0.59142 0.0
C496 C 0.57024 0.08238 0.56079 0.0
C497 C 0.54575 0.06237 0.56951 0.0
H498 H 0.53889 0.06042 0.60119 0.0
H499 H 0.54424 0.05254 0.55557 0.0
H500 H 0.5429 0.06713 0.53976 0.0
O501 O 0.55457 0.06789 0.73257 0.0
O502 O 0.57622 0.08357 0.74779 0.0
H503 H 0.59753 0.10648 0.61835 0.0
H504 H 0.59413 0.10639 0.55343 0.0
C505 C 0.59476 0.10034 0.5843 0.0
H506 H 0.60287 0.09789 0.57619 0.0
H507 H 0.60327 0.10964 0.73383 0.0
O508 O 0.53924 0.04256 0.65481 0.0
C509 C 0.56343 0.07806 0.757 0.0
Co510 Co 0.83693 0.61766 0.49373 0.0
Co511 Co 0.84445 0.59486 0.47799 0.0
C512 C 0.86523 0.62423 0.46467 0.0
O513 O 0.85602 0.62706 0.47412 0.0
O514 O 0.86272 0.61195 0.4648 0.0
C515 C 0.8439 0.63974 0.5503 0.0
O516 O 0.85351 0.63676 0.55889 0.0
C517 C 0.85778 0.57921 0.50485 0.0
C518 C 0.84459 0.55925 0.47026 0.0
C519 C 0.85603 0.56619 0.49977 0.0
N520 N 0.84787 0.57984 0.47971 0.0
N521 N 0.8401 0.5679 0.45873 0.0
C522 C 0.86785 0.59055 0.53657 0.0
H523 H 0.86418 0.59772 0.54537 0.0
H524 H 0.86966 0.58647 0.57098 0.0
H525 H 0.87765 0.59624 0.51656 0.0
C526 C 0.82566 0.60293 0.58542 0.0
N527 N 0.83292 0.60494 0.54411 0.0
N528 N 0.83632 0.59546 0.53988 0.0
C529 C 0.83149 0.58722 0.5798 0.0
C530 C 0.82457 0.59173 0.60968 0.0
C531 C 0.81942 0.61131 0.60067 0.0
H532 H 0.8155 0.61413 0.56817 0.0
H533 H 0.82728 0.62069 0.61896 0.0
H534 H 0.81095 0.60584 0.62698 0.0
O535 O 0.82544 0.60823 0.43737 0.0
O536 O 0.83096 0.59219 0.42287 0.0
H537 H 0.82936 0.56842 0.55401 0.0
H538 H 0.82606 0.5686 0.61887 0.0
C539 C 0.83252 0.57472 0.5877 0.0
H540 H 0.84325 0.57774 0.5957 0.0
H541 H 0.83152 0.56554 0.43764 0.0
O542 O 0.83452 0.63251 0.5199 0.0
C543 C 0.82414 0.59814 0.4124 0.0
Co544 Co 0.39275 0.22153 0.49613 0.0
Co545 Co 0.41552 0.25192 0.48132 0.0
C546 C 0.38624 0.24305 0.46363 0.0
O547 O 0.38342 0.23103 0.47361 0.0
O548 O 0.39847 0.25292 0.46524 0.0
C549 C 0.36983 0.20576 0.54893 0.0
O550 O 0.37199 0.21814 0.55611 0.0
C551 C 0.43128 0.28084 0.50893 0.0
C552 C 0.45122 0.28747 0.47432 0.0
C553 C 0.44438 0.29201 0.50415 0.0
N554 N 0.43054 0.27032 0.4834 0.0
N555 N 0.44247 0.27441 0.46239 0.0
C556 C 0.41996 0.27962 0.54067 0.0
H557 H 0.41257 0.26876 0.5485 0.0
H558 H 0.42403 0.28523 0.57558 0.0
H559 H 0.41451 0.28407 0.52115 0.0
C560 C 0.40656 0.22519 0.5899 0.0
N561 N 0.40484 0.2304 0.54798 0.0
N562 N 0.41448 0.24322 0.54364 0.0
C563 C 0.42261 0.24657 0.58379 0.0
C564 C 0.41777 0.23521 0.61419 0.0
C565 C 0.39804 0.21058 0.60525 0.0
H566 H 0.39589 0.2038 0.57321 0.0
H567 H 0.3883 0.20897 0.62059 0.0
H568 H 0.40306 0.20772 0.63393 0.0
O569 O 0.40293 0.21957 0.44193 0.0
O570 O 0.41874 0.24123 0.42772 0.0
H571 H 0.44161 0.26279 0.55715 0.0
H572 H 0.4415 0.25933 0.62201 0.0
C573 C 0.43542 0.25988 0.59113 0.0
H574 H 0.43279 0.26786 0.59936 0.0
H575 H 0.44475 0.26817 0.44106 0.0
O576 O 0.37786 0.2041 0.52093 0.0
C577 C 0.41314 0.22849 0.4177 0.0
Co578 Co 0.79044 0.17483 0.50144 0.0
Co579 Co 0.75983 0.16641 0.48418 0.0
C580 C 0.76996 0.14648 0.47147 0.0
O581 O 0.7818 0.1557 0.4836 0.0
O582 O 0.76009 0.14886 0.46892 0.0
C583 C 0.81392 0.17244 0.52087 0.0
O584 O 0.80802 0.16178 0.49192 0.0
C585 C 0.73084 0.15257 0.51316 0.0
C586 C 0.72347 0.16477 0.47468 0.0
C587 C 0.71938 0.15397 0.50709 0.0
N588 N 0.74111 0.16212 0.48591 0.0
N589 N 0.73656 0.16927 0.46261 0.0
C590 C 0.73254 0.14323 0.54748 0.0
H591 H 0.7435 0.14705 0.5547 0.0
H592 H 0.72713 0.14223 0.5825 0.0
H593 H 0.72813 0.133 0.53046 0.0
C594 C 0.78564 0.18352 0.59594 0.0
N595 N 0.78094 0.1773 0.55262 0.0
N596 N 0.76827 0.17442 0.54645 0.0
C597 C 0.76464 0.17914 0.58606 0.0
C598 C 0.77558 0.18503 0.61848 0.0
C599 C 0.79971 0.1883 0.61486 0.0
H600 H 0.8017 0.17966 0.61465 0.0
H601 H 0.80111 0.19231 0.65277 0.0
H602 H 0.80722 0.19641 0.59045 0.0
O603 O 0.79148 0.18625 0.44572 0.0
O604 O 0.76991 0.18032 0.43042 0.0
H605 H 0.74873 0.18186 0.55554 0.0
H606 H 0.75227 0.18647 0.61968 0.0
C607 C 0.75152 0.17917 0.59106 0.0
H608 H 0.74336 0.16883 0.60168 0.0
H609 H 0.74252 0.1775 0.43962 0.0
O610 O 0.80881 0.18011 0.52526 0.0
C611 C 0.78265 0.1875 0.42092 0.0
Co612 Co 0.39145 0.17409 0.99978 0.0
Co613 Co 0.41354 0.16556 0.98235 0.0
C614 C 0.38344 0.14541 0.97367 0.0
O615 O 0.38088 0.15475 0.98474 0.0
O616 O 0.39567 0.14779 0.97027 0.0
C617 C 0.36563 0.17164 0.0205 0.0
O618 O 0.36083 0.16096 0.99159 0.0
C619 C 0.42887 0.15195 0.01151 0.0
C620 C 0.44829 0.16398 0.97194 0.0
C621 C 0.44172 0.15334 0.00509 0.0
N622 N 0.42803 0.16134 0.98377 0.0
N623 N 0.43963 0.16839 0.95981 0.0
C624 C 0.41798 0.14278 0.04662 0.0
H625 H 0.41089 0.14666 0.05398 0.0
H626 H 0.42253 0.14193 0.08152 0.0
H627 H 0.41207 0.13248 0.03024 0.0
C628 C 0.40566 0.18369 0.09283 0.0
N629 N 0.40387 0.17715 0.05005 0.0
N630 N 0.41357 0.17413 0.04386 0.0
C631 C 0.4221 0.17904 0.08295 0.0
C632 C 0.41729 0.18524 0.11501 0.0
C633 C 0.39645 0.18856 0.11187 0.0
H634 H 0.39674 0.19637 0.08659 0.0
H635 H 0.38587 0.17986 0.11324 0.0
H636 H 0.39936 0.19297 0.14916 0.0
O637 O 0.40128 0.18493 0.94228 0.0
O638 O 0.41693 0.17901 0.92709 0.0
H639 H 0.44052 0.1813 0.05217 0.0
H640 H 0.44185 0.18626 0.11596 0.0
C641 C 0.43514 0.17886 0.08788 0.0
H642 H 0.43285 0.16854 0.09921 0.0
H643 H 0.4418 0.1765 0.93634 0.0
O644 O 0.37843 0.17942 0.02406 0.0
C645 C 0.41123 0.18603 0.91698 0.0
Co646 Co 0.8358 0.22004 0.00285 0.0
Co647 Co 0.84473 0.25071 0.98477 0.0
C648 C 0.86447 0.24032 0.97499 0.0
O649 O 0.85507 0.22852 0.9868 0.0
O650 O 0.86226 0.25028 0.97152 0.0
C651 C 0.83777 0.19631 0.02122 0.0
O652 O 0.84787 0.20177 0.98969 0.0
C653 C 0.85889 0.2798 0.01203 0.0
C654 C 0.84684 0.28725 0.97297 0.0
C655 C 0.85769 0.29135 0.00509 0.0
N656 N 0.84919 0.26948 0.98548 0.0
N657 N 0.84213 0.27407 0.96182 0.0
C658 C 0.86819 0.2781 0.04655 0.0
H659 H 0.86417 0.26716 0.05485 0.0
H660 H 0.86942 0.2838 0.08102 0.0
H661 H 0.87834 0.28219 0.02914 0.0
C662 C 0.82657 0.225 0.096 0.0
N663 N 0.83308 0.22962 0.05308 0.0
N664 N 0.8363 0.24239 0.0467 0.0
C665 C 0.83156 0.24618 0.08582 0.0
C666 C 0.82527 0.23523 0.11811 0.0
C667 C 0.82135 0.21084 0.11496 0.0
H668 H 0.8299 0.20874 0.11682 0.0
H669 H 0.8168 0.20939 0.15202 0.0
H670 H 0.81357 0.20345 0.08935 0.0
O671 O 0.82482 0.21904 0.9458 0.0
O672 O 0.8311 0.2407 0.93029 0.0
H673 H 0.82936 0.26238 0.05508 0.0
H674 H 0.82491 0.25912 0.11945 0.0
C675 C 0.83202 0.25954 0.09058 0.0
H676 H 0.84249 0.26751 0.10061 0.0
H677 H 0.83383 0.26809 0.93919 0.0
O678 O 0.83041 0.20172 0.02748 0.0
C679 C 0.82387 0.22798 0.92051 0.0
Co680 Co 0.78877 0.61818 0.99065 0.0
Co681 Co 0.75845 0.59533 0.97603 0.0
C682 C 0.76726 0.6246 0.95778 0.0
O683 O 0.77934 0.62748 0.96677 0.0
O684 O 0.75739 0.6124 0.96093 0.0
C685 C 0.80453 0.64131 0.04263 0.0
O686 O 0.79222 0.63944 0.04853 0.0
C687 C 0.72954 0.57968 0.00433 0.0
C688 C 0.72276 0.55967 0.97013 0.0
C689 C 0.71832 0.56661 0.99993 0.0
N690 N 0.74 0.58033 0.97858 0.0
N691 N 0.73582 0.56837 0.95781 0.0
C692 C 0.73085 0.59105 0.036 0.0
H693 H 0.74173 0.59838 0.04377 0.0
H694 H 0.72523 0.58701 0.07095 0.0
H695 H 0.72646 0.59655 0.01648 0.0
C696 C 0.78494 0.60482 0.08573 0.0
N697 N 0.77981 0.6063 0.04317 0.0
N698 N 0.7671 0.59644 0.03844 0.0
C699 C 0.76378 0.58834 0.07871 0.0
C700 C 0.77497 0.59355 0.10997 0.0
C701 C 0.79955 0.61317 0.10094 0.0
H702 H 0.80632 0.61527 0.06887 0.0
H703 H 0.8013 0.62295 0.11644 0.0
H704 H 0.80228 0.60797 0.12944 0.0
O705 O 0.79085 0.60774 0.93778 0.0
O706 O 0.76921 0.59207 0.9223 0.0
H707 H 0.74792 0.56922 0.05143 0.0
H708 H 0.75132 0.56926 0.11634 0.0
C709 C 0.75064 0.57532 0.08559 0.0
H710 H 0.74246 0.57766 0.09384 0.0
H711 H 0.74199 0.56601 0.93641 0.0
O712 O 0.80615 0.6331 0.0155 0.0
C713 C 0.78201 0.59757 0.91327 0.0
Co714 Co 0.50867 0.05784 0.17671 0.0
Co715 Co 0.50117 0.08065 0.19268 0.0
C716 C 0.48042 0.05132 0.20657 0.0
O717 O 0.48963 0.04848 0.19708 0.0
O718 O 0.48291 0.06359 0.20611 0.0
C719 C 0.50152 0.03568 0.12031 0.0
O720 O 0.49184 0.03861 0.11232 0.0
C721 C 0.48794 0.0964 0.16579 0.0
C722 C 0.50121 0.11634 0.20039 0.0
C723 C 0.48979 0.10946 0.17075 0.0
N724 N 0.49779 0.0957 0.19108 0.0
N725 N 0.5056 0.10763 0.21209 0.0
C726 C 0.47785 0.0851 0.13399 0.0
H727 H 0.48145 0.07784 0.12544 0.0
H728 H 0.47616 0.08921 0.09944 0.0
H729 H 0.46801 0.07949 0.15379 0.0
C730 C 0.51973 0.07249 0.08473 0.0
N731 N 0.51254 0.0705 0.12618 0.0
N732 N 0.5092 0.08002 0.13061 0.0
C733 C 0.51402 0.08827 0.09073 0.0
C734 C 0.52086 0.08371 0.06063 0.0
C735 C 0.52593 0.06408 0.06929 0.0
H736 H 0.52994 0.06132 0.10166 0.0
H737 H 0.51802 0.05466 0.05133 0.0
H738 H 0.53432 0.0695 0.04264 0.0
O739 O 0.52038 0.0674 0.23249 0.0
O740 O 0.51476 0.08335 0.24742 0.0
H741 H 0.51628 0.10709 0.11695 0.0
H742 H 0.51963 0.107 0.0521 0.0
C743 C 0.51311 0.10085 0.08311 0.0
H744 H 0.50242 0.09792 0.07501 0.0
H745 H 0.51416 0.10994 0.23325 0.0
O746 O 0.51099 0.04296 0.15032 0.0
C747 C 0.52168 0.07749 0.25748 0.0
Co748 Co 0.95386 0.45508 0.16721 0.0
Co749 Co 0.93192 0.42448 0.18545 0.0
C750 C 0.96199 0.43466 0.19596 0.0
O751 O 0.96448 0.44647 0.18383 0.0
O752 O 0.94978 0.42476 0.19935 0.0
C753 C 0.97968 0.47864 0.14893 0.0
O754 O 0.98421 0.47314 0.18074 0.0
C755 C 0.91664 0.39536 0.15837 0.0
C756 C 0.89721 0.38824 0.1976 0.0
C757 C 0.9038 0.38396 0.1654 0.0
N758 N 0.91747 0.40578 0.18492 0.0
N759 N 0.90586 0.40138 0.20869 0.0
C760 C 0.92753 0.39685 0.12377 0.0
H761 H 0.93464 0.40776 0.11557 0.0
H762 H 0.92298 0.39121 0.08926 0.0
H763 H 0.93342 0.39254 0.14104 0.0
C764 C 0.93979 0.45017 0.07383 0.0
N765 N 0.9416 0.44553 0.11686 0.0
N766 N 0.93195 0.4328 0.12332 0.0
C767 C 0.92344 0.42906 0.08416 0.0
C768 C 0.92822 0.44 0.05173 0.0
C769 C 0.94883 0.4643 0.05483 0.0
H770 H 0.95945 0.46632 0.05307 0.0
H771 H 0.94578 0.46577 0.01773 0.0
H772 H 0.94849 0.47174 0.08036 0.0
O773 O 0.94386 0.45623 0.22402 0.0
O774 O 0.92837 0.43462 0.23958 0.0
H775 H 0.90496 0.41304 0.11509 0.0
H776 H 0.90379 0.41632 0.05074 0.0
C777 C 0.91043 0.4158 0.07953 0.0
H778 H 0.91278 0.40773 0.06945 0.0
H779 H 0.90368 0.40747 0.23133 0.0
O780 O 0.96694 0.47334 0.14248 0.0
C781 C 0.93392 0.44735 0.24927 0.0
Co782 Co 0.55551 0.50162 0.16958 0.0
Co783 Co 0.58604 0.51014 0.18867 0.0
C784 C 0.57601 0.53027 0.19627 0.0
O785 O 0.56417 0.52094 0.18463 0.0
O786 O 0.58585 0.52789 0.2004 0.0
C787 C 0.53209 0.50391 0.14836 0.0
O788 O 0.53779 0.51448 0.17778 0.0
C789 C 0.61503 0.52388 0.16019 0.0
C790 C 0.62249 0.512 0.20027 0.0
C791 C 0.62653 0.5226 0.16697 0.0
N792 N 0.60479 0.51447 0.18789 0.0
N793 N 0.60939 0.50751 0.21217 0.0
C794 C 0.61326 0.53296 0.12474 0.0
H795 H 0.60229 0.529 0.11719 0.0
H796 H 0.61871 0.5338 0.08997 0.0
H797 H 0.61757 0.54327 0.14092 0.0
C798 C 0.56047 0.49214 0.07693 0.0
N799 N 0.56505 0.49862 0.11991 0.0
N800 N 0.57773 0.50159 0.12684 0.0
C801 C 0.58148 0.4967 0.08806 0.0
C802 C 0.57062 0.4906 0.05536 0.0
C803 C 0.54641 0.48716 0.0574 0.0
H804 H 0.54448 0.49582 0.0554 0.0
H805 H 0.54502 0.48265 0.02031 0.0
H806 H 0.53887 0.47939 0.08271 0.0
O807 O 0.55433 0.49075 0.22716 0.0
O808 O 0.57584 0.49666 0.24379 0.0
H809 H 0.59752 0.49442 0.11991 0.0
H810 H 0.59405 0.48938 0.05612 0.0
C811 C 0.59469 0.49683 0.08392 0.0
H812 H 0.60278 0.50713 0.0726 0.0
H813 H 0.60346 0.4994 0.23567 0.0
O814 O 0.53724 0.49625 0.14455 0.0
C815 C 0.56306 0.48962 0.25311 0.0
Co816 Co 0.62064 0.83685 0.00931 0.0
Co817 Co 0.59744 0.84389 0.02372 0.0
C818 C 0.62653 0.86447 0.04386 0.0
O819 O 0.62959 0.85544 0.03391 0.0
O820 O 0.61428 0.86199 0.04093 0.0
C821 C 0.64458 0.84462 0.96066 0.0
O822 O 0.64333 0.85548 0.95639 0.0
C823 C 0.58161 0.85687 0.99508 0.0
C824 C 0.56159 0.8435 0.02905 0.0
C825 C 0.56849 0.85489 0.99926 0.0
N826 N 0.58233 0.84712 0.02093 0.0
N827 N 0.57035 0.83924 0.04156 0.0
C828 C 0.593 0.86699 0.96356 0.0
H829 H 0.60043 0.86355 0.95618 0.0
H830 H 0.58899 0.8685 0.92842 0.0
H831 H 0.59837 0.8769 0.98303 0.0
C832 C 0.60752 0.82738 0.91408 0.0
N833 N 0.60889 0.83397 0.95656 0.0
N834 N 0.5989 0.83665 0.96119 0.0
C835 C 0.59083 0.83177 0.92095 0.0
C836 C 0.59612 0.8258 0.88998 0.0
C837 C 0.61652 0.8219 0.89817 0.0
H838 H 0.61816 0.81656 0.92915 0.0
H839 H 0.62648 0.8305 0.88645 0.0
H840 H 0.6122 0.81479 0.86683 0.0
O841 O 0.61013 0.82421 0.06199 0.0
O842 O 0.59412 0.82975 0.07655 0.0
H843 H 0.57158 0.82807 0.94847 0.0
H844 H 0.57166 0.82476 0.88356 0.0
C845 C 0.57764 0.83156 0.91424 0.0
H846 H 0.57974 0.84201 0.90599 0.0
H847 H 0.56805 0.83073 0.06301 0.0
O848 O 0.63572 0.8345 0.98518 0.0
C849 C 0.59978 0.82264 0.08598 0.0
Co850 Co 0.17478 0.78728 0.0066 0.0
Co851 Co 0.16768 0.757 0.02334 0.0
C852 C 0.14688 0.76542 0.03937 0.0
O853 O 0.15596 0.77752 0.02982 0.0
O854 O 0.14943 0.75568 0.03744 0.0
C855 C 0.16701 0.80369 0.95753 0.0
O856 O 0.15564 0.79192 0.95723 0.0
C857 C 0.15461 0.72803 0.99708 0.0
C858 C 0.16785 0.72143 0.03243 0.0
C859 C 0.15644 0.71682 0.00273 0.0
N860 N 0.16445 0.73863 0.02211 0.0
N861 N 0.17225 0.73457 0.04354 0.0
C862 C 0.14453 0.72917 0.96494 0.0
H863 H 0.14815 0.73999 0.95586 0.0
H864 H 0.14282 0.72324 0.93069 0.0
H865 H 0.1347 0.72502 0.98473 0.0
C866 C 0.18467 0.7832 0.91279 0.0
N867 N 0.17802 0.77818 0.95535 0.0
N868 N 0.17533 0.76554 0.96098 0.0
C869 C 0.18028 0.76216 0.92137 0.0
C870 C 0.18629 0.77327 0.88969 0.0
C871 C 0.19013 0.79757 0.89575 0.0
H872 H 0.1956 0.80471 0.92619 0.0
H873 H 0.1815 0.79888 0.88414 0.0
H874 H 0.19715 0.80014 0.86415 0.0
O875 O 0.187 0.78957 0.06124 0.0
O876 O 0.18136 0.76805 0.07724 0.0
H877 H 0.18383 0.74664 0.9502 0.0
H878 H 0.18707 0.74967 0.88506 0.0
C879 C 0.18035 0.74908 0.91569 0.0
H880 H 0.16985 0.74076 0.90799 0.0
H881 H 0.18079 0.74086 0.06469 0.0
O882 O 0.17733 0.8047 0.97991 0.0
C883 C 0.18835 0.78085 0.08656 0.0
Co884 Co 0.22452 0.39034 0.0127 0.0
Co885 Co 0.25483 0.41317 0.02841 0.0
C886 C 0.24619 0.3838 0.04282 0.0
O887 O 0.23415 0.38097 0.03332 0.0
O888 O 0.25599 0.39608 0.04217 0.0
C889 C 0.20912 0.36793 0.95756 0.0
O890 O 0.22162 0.37054 0.94945 0.0
C891 C 0.28384 0.4291 1.00104 0.0
C892 C 0.29034 0.449 0.03562 0.0
C893 C 0.29496 0.44223 0.00581 0.0
N894 N 0.27326 0.42827 0.02656 0.0
N895 N 0.27728 0.44018 0.04756 0.0
C896 C 0.28273 0.41784 0.96923 0.0
H897 H 0.2719 0.41043 0.96112 0.0
H898 H 0.28841 0.42198 0.93447 0.0
H899 H 0.28718 0.4124 0.98881 0.0
C900 C 0.22809 0.40476 0.92021 0.0
N901 N 0.2333 0.40286 0.96182 0.0
N902 N 0.24614 0.41243 0.96625 0.0
C903 C 0.24954 0.42064 0.92623 0.0
C904 C 0.23816 0.41599 0.89604 0.0
C905 C 0.21351 0.39627 0.90469 0.0
H906 H 0.2067 0.39367 0.93691 0.0
H907 H 0.21203 0.38676 0.88759 0.0
H908 H 0.21055 0.40153 0.87733 0.0
O909 O 0.22242 0.40006 0.06796 0.0
O910 O 0.24397 0.41601 0.08304 0.0
H911 H 0.26604 0.4395 0.95244 0.0
H912 H 0.26255 0.43941 0.88765 0.0
C913 C 0.26298 0.43327 0.91859 0.0
H914 H 0.27079 0.43041 0.9103 0.0
H915 H 0.271 0.44241 0.06884 0.0
O916 O 0.2072 0.3755 0.9871 0.0
C917 C 0.23118 0.41019 0.09284 0.0
Co918 Co 0.50394 0.95256 0.8248 0.0
Co919 Co 0.51145 0.92974 0.81056 0.0
C920 C 0.53213 0.95897 0.79468 0.0
O921 O 0.52287 0.96181 0.8031 0.0
O922 O 0.52975 0.94674 0.79717 0.0
C923 C 0.51132 0.97509 0.87943 0.0
O924 O 0.52113 0.97234 0.88707 0.0
C925 C 0.52425 0.91365 0.83839 0.0
C926 C 0.51092 0.89385 0.80302 0.0
C927 C 0.52221 0.90052 0.83336 0.0
N928 N 0.51462 0.91458 0.81251 0.0
N929 N 0.50677 0.90273 0.79104 0.0
C930 C 0.53432 0.92483 0.87067 0.0
H931 H 0.53089 0.93225 0.87863 0.0
H932 H 0.53571 0.92062 0.9055 0.0
H933 H 0.54427 0.93028 0.85153 0.0
C934 C 0.49322 0.93844 0.918 0.0
N935 N 0.50029 0.94021 0.87637 0.0
N936 N 0.50348 0.93057 0.87236 0.0
C937 C 0.49862 0.92243 0.91251 0.0
C938 C 0.49201 0.92724 0.94253 0.0
C939 C 0.48706 0.94692 0.93293 0.0
H940 H 0.48286 0.94943 0.90045 0.0
H941 H 0.49505 0.95648 0.94987 0.0
H942 H 0.47882 0.94167 0.96026 0.0
O943 O 0.49199 0.94269 0.76993 0.0
O944 O 0.49788 0.92692 0.75572 0.0
H945 H 0.49612 0.9035 0.88635 0.0
H946 H 0.49248 0.90356 0.95094 0.0
C947 C 0.49921 0.90969 0.92032 0.0
H948 H 0.50981 0.9124 0.92924 0.0
H949 H 0.49835 0.9006 0.76937 0.0
O950 O 0.5017 0.96757 0.8503 0.0
C951 C 0.49081 0.93258 0.74538 0.0
Co952 Co 0.06059 0.55273 0.84065 0.0
Co953 Co 0.08196 0.58352 0.8225 0.0
C954 C 0.05174 0.57269 0.81267 0.0
O955 O 0.04964 0.56099 0.82445 0.0
O956 O 0.06384 0.58283 0.80922 0.0
C957 C 0.03506 0.52878 0.85827 0.0
O958 O 0.03041 0.53407 0.82607 0.0
C959 C 0.09707 0.61266 0.84999 0.0
C960 C 0.11641 0.61995 0.80996 0.0
C961 C 0.10988 0.62412 0.84285 0.0
N962 N 0.09622 0.60232 0.82292 0.0
N963 N 0.10777 0.60682 0.79866 0.0
C964 C 0.08623 0.61106 0.88511 0.0
H965 H 0.07914 0.60012 0.89294 0.0
H966 H 0.09084 0.61658 0.91976 0.0
H967 H 0.08031 0.61541 0.86849 0.0
C968 C 0.07468 0.5579 0.93395 0.0
N969 N 0.07278 0.56244 0.8909 0.0
N970 N 0.08221 0.57527 0.88455 0.0
C971 C 0.09069 0.57916 0.92383 0.0
C972 C 0.0861 0.56823 0.9562 0.0
C973 C 0.06585 0.54373 0.95295 0.0
H974 H 0.05515 0.54149 0.95461 0.0
H975 H 0.06894 0.54233 0.9901 0.0
H976 H 0.06637 0.53638 0.92748 0.0
O977 O 0.07067 0.55185 0.78378 0.0
O978 O 0.08572 0.57359 0.76802 0.0
H979 H 0.10892 0.59562 0.89311 0.0
H980 H 0.1103 0.59215 0.95707 0.0
C981 C 0.1035 0.59259 0.92874 0.0
H982 H 0.1009 0.60042 0.93975 0.0
H983 H 0.10994 0.6008 0.7756 0.0
O984 O 0.04781 0.53437 0.86524 0.0
C985 C 0.08046 0.56088 0.75837 0.0
Co986 Co 0.45809 0.509 0.83477 0.0
Co987 Co 0.42749 0.50039 0.81679 0.0
C988 C 0.43758 0.48031 0.80861 0.0
O989 O 0.44944 0.48967 0.81987 0.0
O990 O 0.42771 0.48266 0.80488 0.0
C991 C 0.48163 0.50682 0.85486 0.0
O992 O 0.47588 0.49624 0.82549 0.0
C993 C 0.39854 0.48646 0.8461 0.0
C994 C 0.39086 0.49826 0.8067 0.0
C995 C 0.38695 0.48762 0.83976 0.0
N996 N 0.4087 0.49596 0.81835 0.0
N997 N 0.40397 0.50288 0.79451 0.0
C998 C 0.40046 0.47739 0.88113 0.0
H999 H 0.41145 0.48145 0.88853 0.0
H1000 H 0.395 0.47642 0.91601 0.0
H1001 H 0.39624 0.46712 0.86466 0.0
C1002 C 0.45335 0.51852 0.92772 0.0
N1003 N 0.44866 0.512 0.88487 0.0
N1004 N 0.43595 0.50898 0.87842 0.0
C1005 C 0.43228 0.51387 0.91742 0.0
C1006 C 0.44323 0.52003 0.94973 0.0
C1007 C 0.46746 0.52354 0.94674 0.0
H1008 H 0.46943 0.5149 0.94848 0.0
H1009 H 0.46893 0.52805 0.98385 0.0
H1010 H 0.47493 0.53132 0.92125 0.0
O1011 O 0.45908 0.51983 0.77735 0.0
O1012 O 0.43754 0.51388 0.76139 0.0
H1013 H 0.41613 0.5161 0.88637 0.0
H1014 H 0.41967 0.52103 0.95024 0.0
C1015 C 0.41904 0.51366 0.92214 0.0
H1016 H 0.41101 0.50332 0.93331 0.0
H1017 H 0.40981 0.51103 0.77105 0.0
O1018 O 0.47644 0.51444 0.85907 0.0
C1019 C 0.45029 0.52094 0.75175 0.0
Co1020 Co 0.06016 0.50771 0.34015 0.0
Co1021 Co 0.08229 0.49928 0.3219 0.0
C1022 C 0.05222 0.47937 0.30966 0.0
O1023 O 0.04962 0.48858 0.32221 0.0
O1024 O 0.06447 0.48176 0.3067 0.0
C1025 C 0.03432 0.50532 0.36033 0.0
O1026 O 0.02953 0.49471 0.3311 0.0
C1027 C 0.09743 0.4854 0.35029 0.0
C1028 C 0.11694 0.49752 0.31138 0.0
C1029 C 0.11025 0.48674 0.34389 0.0
N1030 N 0.0967 0.49495 0.32312 0.0
N1031 N 0.10836 0.50206 0.29955 0.0
C1032 C 0.08643 0.47611 0.38487 0.0
H1033 H 0.07934 0.47998 0.39231 0.0
H1034 H 0.09089 0.47512 0.41976 0.0
H1035 H 0.08055 0.46588 0.36797 0.0
C1036 C 0.07383 0.51638 0.43431 0.0
N1037 N 0.0722 0.51014 0.39097 0.0
N1038 N 0.082 0.50728 0.38434 0.0
C1039 C 0.09046 0.51205 0.42362 0.0
C1040 C 0.08548 0.51794 0.45634 0.0
C1041 C 0.06457 0.52115 0.45368 0.0
H1042 H 0.06513 0.52929 0.42947 0.0
H1043 H 0.05395 0.51252 0.45363 0.0
H1044 H 0.06725 0.52513 0.49161 0.0
O1045 O 0.07044 0.51914 0.2843 0.0
O1046 O 0.08609 0.51324 0.26844 0.0
H1047 H 0.10902 0.51484 0.39221 0.0
H1048 H 0.11027 0.51947 0.45638 0.0
C1049 C 0.10365 0.51214 0.42796 0.0
H1050 H 0.10156 0.50183 0.43849 0.0
H1051 H 0.11062 0.51028 0.27656 0.0
O1052 O 0.04711 0.51298 0.36458 0.0
C1053 C 0.0805 0.52042 0.25925 0.0
Co1054 Co 0.50473 0.55626 0.3302 0.0
Co1055 Co 0.51197 0.58653 0.31517 0.0
C1056 C 0.5325 0.57787 0.29622 0.0
O1057 O 0.5234 0.56581 0.30622 0.0
O1058 O 0.53007 0.58768 0.29864 0.0
C1059 C 0.51234 0.54052 0.38146 0.0
O1060 O 0.5228 0.55283 0.38708 0.0
C1061 C 0.52508 0.61547 0.34275 0.0
C1062 C 0.51168 0.62204 0.3085 0.0
C1063 C 0.52312 0.62662 0.33805 0.0
N1064 N 0.51527 0.60492 0.31741 0.0
N1065 N 0.50738 0.60897 0.29661 0.0
C1066 C 0.53524 0.61431 0.3743 0.0
H1067 H 0.53179 0.60346 0.38231 0.0
H1068 H 0.53683 0.61997 0.40911 0.0
H1069 H 0.54511 0.61874 0.35456 0.0
C1070 C 0.49487 0.55993 0.42457 0.0
N1071 N 0.50168 0.56516 0.38242 0.0
N1072 N 0.50453 0.57787 0.37771 0.0
C1073 C 0.4996 0.58112 0.4177 0.0
C1074 C 0.49339 0.56983 0.44852 0.0
C1075 C 0.48899 0.54537 0.4401 0.0
H1076 H 0.4841 0.53853 0.4084 0.0
H1077 H 0.4973 0.54384 0.4541 0.0
H1078 H 0.48137 0.54253 0.46979 0.0
O1079 O 0.49227 0.55411 0.27697 0.0
O1080 O 0.49792 0.57569 0.26203 0.0
H1081 H 0.49613 0.59682 0.3902 0.0
H1082 H 0.49297 0.59358 0.45527 0.0
C1083 C 0.49964 0.59423 0.42433 0.0
H1084 H 0.51016 0.60248 0.43207 0.0
H1085 H 0.49883 0.60271 0.27545 0.0
O1086 O 0.50239 0.53891 0.35504 0.0
C1087 C 0.4908 0.5629 0.25265 0.0
Co1088 Co 0.45602 0.95325 0.32617 0.0
Co1089 Co 0.42576 0.93023 0.31036 0.0
C1090 C 0.43454 0.9597 0.29428 0.0
O1091 O 0.44659 0.96268 0.30431 0.0
O1092 O 0.42482 0.9474 0.29525 0.0
C1093 C 0.47219 0.97648 0.37776 0.0
O1094 O 0.46 0.97491 0.38368 0.0
C1095 C 0.39728 0.91453 0.34312 0.0
C1096 C 0.38884 0.89602 0.29743 0.0
C1097 C 0.38546 0.90219 0.33446 0.0
N1098 N 0.40718 0.91549 0.31317 0.0
N1099 N 0.40204 0.90439 0.28585 0.0
C1100 C 0.39894 0.92565 0.37701 0.0
H1101 H 0.4083 0.93536 0.36806 0.0
H1102 H 0.3998 0.92294 0.41533 0.0
H1103 H 0.3899 0.92697 0.37474 0.0
C1104 C 0.45226 0.9393 0.41994 0.0
N1105 N 0.44709 0.94103 0.37791 0.0
N1106 N 0.43449 0.93099 0.37231 0.0
C1107 C 0.43134 0.92243 0.41117 0.0
C1108 C 0.44249 0.92755 0.44257 0.0
C1109 C 0.46665 0.94826 0.43676 0.0
H1110 H 0.47377 0.95031 0.40587 0.0
H1111 H 0.46783 0.95802 0.45001 0.0
H1112 H 0.46943 0.94368 0.46731 0.0
O1113 O 0.45791 0.94314 0.27122 0.0
O1114 O 0.43638 0.9271 0.25625 0.0
H1115 H 0.41557 0.90397 0.3789 0.0
H1116 H 0.42042 0.90201 0.44028 0.0
C1117 C 0.41873 0.90879 0.41547 0.0
H1118 H 0.41041 0.91006 0.43101 0.0
H1119 H 0.40754 0.90251 0.25941 0.0
O1120 O 0.47355 0.96803 0.35107 0.0
C1121 C 0.44916 0.93294 0.24649 0.0
Co1122 Co 0.17618 0.38994 0.51362 0.0
Co1123 Co 0.16882 0.41284 0.52931 0.0
C1124 C 0.14817 0.38353 0.54572 0.0
O1125 O 0.15733 0.38063 0.53612 0.0
O1126 O 0.15063 0.39579 0.5441 0.0
C1127 C 0.16894 0.36696 0.4608 0.0
O1128 O 0.15857 0.36893 0.4544 0.0
C1129 C 0.15571 0.4287 0.5019 0.0
C1130 C 0.16894 0.44855 0.53713 0.0
C1131 C 0.1576 0.44178 0.50708 0.0
N1132 N 0.16546 0.42791 0.52746 0.0
N1133 N 0.17325 0.43978 0.54884 0.0
C1134 C 0.14567 0.41748 0.46974 0.0
H1135 H 0.14919 0.41015 0.46151 0.0
H1136 H 0.14415 0.42167 0.43505 0.0
H1137 H 0.13575 0.41193 0.4891 0.0
C1138 C 0.18637 0.40387 0.41994 0.0
N1139 N 0.17945 0.40212 0.46192 0.0
N1140 N 0.17652 0.41193 0.46688 0.0
C1141 C 0.1815 0.42022 0.42716 0.0
C1142 C 0.18784 0.41529 0.39628 0.0
C1143 C 0.19236 0.39531 0.40422 0.0
H1144 H 0.18416 0.38557 0.38912 0.0
H1145 H 0.20018 0.4003 0.37527 0.0
H1146 H 0.19705 0.39313 0.43604 0.0
O1147 O 0.18848 0.40008 0.56742 0.0
O1148 O 0.18271 0.41588 0.58315 0.0
H1149 H 0.18468 0.43924 0.45511 0.0
H1150 H 0.18807 0.43938 0.39016 0.0
C1151 C 0.18134 0.43324 0.42075 0.0
H1152 H 0.17081 0.43089 0.41259 0.0
H1153 H 0.18174 0.44202 0.57028 0.0
O1154 O 0.17869 0.37508 0.48838 0.0
C1155 C 0.18987 0.41023 0.59219 0.0
Co1156 Co 0.62072 0.79003 0.50311 0.0
Co1157 Co 0.59886 0.75943 0.52176 0.0
C1158 C 0.62901 0.76951 0.52854 0.0
O1159 O 0.63144 0.78135 0.51716 0.0
O1160 O 0.61681 0.75964 0.533 0.0
C1161 C 0.64638 0.81355 0.48263 0.0
O1162 O 0.65121 0.8079 0.51251 0.0
C1163 C 0.58362 0.73041 0.49384 0.0
C1164 C 0.56428 0.72301 0.53398 0.0
C1165 C 0.57084 0.71891 0.50092 0.0
N1166 N 0.58444 0.7407 0.52117 0.0
N1167 N 0.57289 0.73614 0.54548 0.0
C1168 C 0.59445 0.73211 0.4585 0.0
H1169 H 0.60143 0.74306 0.45053 0.0
H1170 H 0.58984 0.72654 0.42393 0.0
H1171 H 0.60049 0.72787 0.47502 0.0
C1172 C 0.60616 0.7852 0.41079 0.0
N1173 N 0.60811 0.78057 0.45359 0.0
N1174 N 0.59852 0.76782 0.46018 0.0
C1175 C 0.58991 0.76405 0.4213 0.0
C1176 C 0.59456 0.77499 0.38895 0.0
C1177 C 0.61517 0.7993 0.39152 0.0
H1178 H 0.62577 0.80127 0.38907 0.0
H1179 H 0.61197 0.80078 0.35467 0.0
H1180 H 0.61498 0.80678 0.41725 0.0
O1181 O 0.61115 0.79109 0.56127 0.0
O1182 O 0.59563 0.76952 0.57726 0.0
H1183 H 0.57164 0.74776 0.45242 0.0
H1184 H 0.57019 0.75125 0.38853 0.0
C1185 C 0.57699 0.75072 0.41665 0.0
H1186 H 0.57943 0.74278 0.40552 0.0
H1187 H 0.57073 0.74212 0.56876 0.0
O1188 O 0.63358 0.80834 0.47828 0.0
C1189 C 0.60134 0.78225 0.58712 0.0
Co1190 Co 0.22317 0.83582 0.50923 0.0
Co1191 Co 0.25336 0.84272 0.52426 0.0
C1192 C 0.2447 0.86337 0.54359 0.0
O1193 O 0.23261 0.85444 0.53338 0.0
O1194 O 0.25437 0.86075 0.54124 0.0
C1195 C 0.20628 0.84316 0.46234 0.0
O1196 O 0.21808 0.85446 0.45937 0.0
C1197 C 0.28175 0.85567 0.49075 0.0
C1198 C 0.2904 0.8456 0.53544 0.0
C1199 C 0.29365 0.85525 0.49884 0.0
N1200 N 0.27193 0.84659 0.52062 0.0
N1201 N 0.2772 0.84062 0.54733 0.0
C1202 C 0.27994 0.86517 0.45756 0.0
H1203 H 0.27055 0.86541 0.46703 0.0
H1204 H 0.27904 0.86171 0.41908 0.0
H1205 H 0.28893 0.87557 0.45999 0.0
C1206 C 0.22703 0.82667 0.4134 0.0
N1207 N 0.23214 0.83305 0.45632 0.0
N1208 N 0.24463 0.83527 0.46186 0.0
C1209 C 0.24772 0.83008 0.4222 0.0
C1210 C 0.23668 0.82463 0.3902 0.0
C1211 C 0.21274 0.8217 0.39629 0.0
H1212 H 0.20546 0.8159 0.42604 0.0
H1213 H 0.21164 0.83058 0.38656 0.0
H1214 H 0.21013 0.81511 0.36343 0.0
O1215 O 0.22125 0.82332 0.5624 0.0
O1216 O 0.24272 0.82863 0.57758 0.0
H1217 H 0.26322 0.82686 0.45394 0.0
H1218 H 0.25821 0.82023 0.39242 0.0
C1219 C 0.26012 0.82871 0.41753 0.0
H1220 H 0.26857 0.83823 0.4021 0.0
H1221 H 0.27178 0.83315 0.57363 0.0
O1222 O 0.20555 0.83306 0.48544 0.0
C1223 C 0.22991 0.82164 0.58679 0.0
H1224 H 0.37173 0.19261 0.08379 0.0
H1225 H 0.30647 0.14793 0.25171 0.0
H1226 H 0.33982 0.15207 0.04607 0.0
H1227 H 0.3386 0.18831 0.29003 0.0
H1228 H 0.31884 0.14901 0.17712 0.0
H1229 H 0.35935 0.1915 0.15835 0.0
C1230 C 0.36201 0.18355 0.09081 0.0
C1231 C 0.35688 0.17235 0.05898 0.0
C1232 C 0.32324 0.1576 0.20203 0.0
C1233 C 0.34276 0.17093 0.14455 0.0
C1234 C 0.31623 0.15694 0.24482 0.0
C1235 C 0.32143 0.16811 0.27682 0.0
C1236 C 0.33553 0.1695 0.19123 0.0
C1237 C 0.33418 0.17947 0.26632 0.0
C1238 C 0.355 0.18289 0.13358 0.0
C1239 C 0.34419 0.16093 0.06964 0.0
N1240 N 0.34074 0.17993 0.22411 0.0
N1241 N 0.33762 0.16047 0.11183 0.0
H1242 H 0.82281 0.15293 0.2937 0.0
H1243 H 0.85696 0.18899 0.03952 0.0
H1244 H 0.86179 0.15957 0.2434 0.0
H1245 H 0.81802 0.18243 0.08991 0.0
H1246 H 0.85854 0.1775 0.11275 0.0
H1247 H 0.82123 0.16442 0.22048 0.0
C1248 C 0.83116 0.15703 0.26773 0.0
C1249 C 0.84237 0.15513 0.27434 0.0
C1250 C 0.84961 0.1785 0.10762 0.0
C1251 C 0.84047 0.168 0.18998 0.0
C1252 C 0.84862 0.18492 0.0655 0.0
C1253 C 0.83742 0.18683 0.05892 0.0
C1254 C 0.83931 0.17397 0.1433 0.0
C1255 C 0.82693 0.18134 0.09386 0.0
C1256 C 0.83017 0.16344 0.22562 0.0
C1257 C 0.85287 0.16064 0.23943 0.0
N1258 N 0.82819 0.17528 0.13482 0.0
N1259 N 0.8516 0.16671 0.19848 0.0
H1260 H 0.82959 0.64384 0.05753 0.0
H1261 H 0.84835 0.69713 0.27691 0.0
H1262 H 0.80423 0.66036 0.10236 0.0
H1263 H 0.87328 0.68002 0.23314 0.0
H1264 H 0.83178 0.68342 0.214 0.0
H1265 H 0.84608 0.65756 0.1205 0.0
C1266 C 0.82759 0.6505 0.08013 0.0
C1267 C 0.81552 0.65093 0.07494 0.0
C1268 C 0.84084 0.68261 0.21841 0.0
C1269 C 0.83416 0.66644 0.14742 0.0
C1270 C 0.85023 0.69034 0.25459 0.0
C1271 C 0.86221 0.68975 0.26001 0.0
C1272 C 0.8435 0.67427 0.18765 0.0
C1273 C 0.8642 0.68086 0.22994 0.0
C1274 C 0.83694 0.65824 0.11635 0.0
C1275 C 0.81339 0.65967 0.10535 0.0
N1276 N 0.85498 0.67352 0.19484 0.0
N1277 N 0.82259 0.66703 0.14051 0.0
H1278 H 0.19141 0.36429 0.44665 0.0
H1279 H 0.15699 0.31114 0.22683 0.0
H1280 H 0.14964 0.34797 0.40081 0.0
H1281 H 0.19875 0.32746 0.27278 0.0
H1282 H 0.15421 0.32498 0.28938 0.0
H1283 H 0.19418 0.35044 0.38412 0.0
C1284 C 0.18278 0.35765 0.42392 0.0
C1285 C 0.17031 0.35731 0.42869 0.0
C1286 C 0.164 0.32558 0.28555 0.0
C1287 C 0.17344 0.34167 0.35675 0.0
C1288 C 0.16562 0.31778 0.24958 0.0
C1289 C 0.17809 0.31812 0.24484 0.0
C1290 C 0.17494 0.33375 0.3168 0.0
C1291 C 0.18892 0.32683 0.27544 0.0
C1292 C 0.18439 0.34984 0.38797 0.0
C1293 C 0.15947 0.3486 0.39813 0.0
N1294 N 0.18707 0.33425 0.31033 0.0
N1295 N 0.16131 0.34117 0.36324 0.0
H1296 H 0.64022 0.82803 0.41766 0.0
H1297 H 0.70615 0.84885 0.25343 0.0
H1298 H 0.6724 0.82012 0.45884 0.0
H1299 H 0.67406 0.85691 0.21249 0.0
H1300 H 0.69358 0.83766 0.32781 0.0
H1301 H 0.65279 0.83924 0.34331 0.0
C1302 C 0.65003 0.82884 0.41144 0.0
C1303 C 0.65519 0.82298 0.44419 0.0
C1304 C 0.68924 0.84178 0.30238 0.0
C1305 C 0.66953 0.83561 0.35887 0.0
C1306 C 0.69636 0.84807 0.25971 0.0
C1307 C 0.69122 0.85397 0.22702 0.0
C1308 C 0.67689 0.84136 0.31237 0.0
C1309 C 0.67843 0.85255 0.23674 0.0
C1310 C 0.65716 0.83515 0.36879 0.0
C1311 C 0.66801 0.82445 0.43454 0.0
N1312 N 0.67175 0.8465 0.27885 0.0
N1313 N 0.67468 0.8305 0.39245 0.0
H1314 H 0.16217 0.85445 0.22777 0.0
H1315 H 0.18252 0.81963 0.44151 0.0
H1316 H 0.13936 0.81157 0.26277 0.0
H1317 H 0.20497 0.86264 0.40815 0.0
H1318 H 0.16628 0.81652 0.37706 0.0
H1319 H 0.17842 0.85757 0.29228 0.0
C1320 C 0.16071 0.84566 0.24848 0.0
C1321 C 0.14937 0.83276 0.24019 0.0
C1322 C 0.17472 0.82665 0.38409 0.0
C1323 C 0.16771 0.83627 0.31442 0.0
C1324 C 0.18391 0.82845 0.42118 0.0
C1325 C 0.19515 0.84139 0.42993 0.0
C1326 C 0.17681 0.83789 0.35571 0.0
C1327 C 0.1965 0.85245 0.40237 0.0
C1328 C 0.1699 0.84746 0.2856 0.0
C1329 C 0.14792 0.82172 0.26822 0.0
N1330 N 0.18748 0.85043 0.36623 0.0
N1331 N 0.15694 0.82375 0.30433 0.0
H1332 H 0.68215 0.81279 0.76854 0.0
H1333 H 0.66503 0.86449 0.90653 0.0
H1334 H 0.70091 0.85555 0.7329 0.0
H1335 H 0.64602 0.82166 0.94125 0.0
H1336 H 0.6787 0.86152 0.84421 0.0
H1337 H 0.66856 0.81579 0.83112 0.0
C1338 C 0.68329 0.82279 0.77351 0.0
C1339 C 0.69271 0.83396 0.74569 0.0
C1340 C 0.6716 0.85278 0.86563 0.0
C1341 C 0.67733 0.83749 0.81771 0.0
C1342 C 0.66385 0.85448 0.90143 0.0
C1343 C 0.65432 0.84328 0.92888 0.0
C1344 C 0.6698 0.83978 0.85716 0.0
C1345 C 0.65325 0.83056 0.92091 0.0
C1346 C 0.67558 0.8245 0.80945 0.0
C1347 C 0.69374 0.84667 0.75351 0.0
N1348 N 0.66084 0.82914 0.88544 0.0
N1349 N 0.6862 0.84811 0.78913 0.0
H1350 H 0.19043 0.82546 0.92164 0.0
H1351 H 0.15046 0.84595 0.72984 0.0
H1352 H 0.14657 0.80576 0.91415 0.0
H1353 H 0.19326 0.85909 0.71734 0.0
H1354 H 0.14897 0.83218 0.80081 0.0
H1355 H 0.19196 0.83987 0.85229 0.0
C1356 C 0.18114 0.82434 0.90603 0.0
C1357 C 0.16835 0.81431 0.92321 0.0
C1358 C 0.15867 0.83799 0.78228 0.0
C1359 C 0.17002 0.83055 0.84384 0.0
C1360 C 0.1595 0.84577 0.74158 0.0
C1361 C 0.17201 0.85371 0.7178 0.0
C1362 C 0.17045 0.83821 0.79948 0.0
C1363 C 0.1834 0.8531 0.73453 0.0
C1364 C 0.18201 0.83245 0.86613 0.0
C1365 C 0.15664 0.81327 0.90164 0.0
N1366 N 0.18238 0.84558 0.77472 0.0
N1367 N 0.15775 0.82123 0.86286 0.0
H1368 H 0.16489 0.31139 0.7257 0.0
H1369 H 0.18326 0.3638 0.94797 0.0
H1370 H 0.13796 0.3251 0.77986 0.0
H1371 H 0.21008 0.34991 0.89434 0.0
H1372 H 0.16629 0.34933 0.88738 0.0
H1373 H 0.18184 0.32585 0.78634 0.0
C1374 C 0.16262 0.31757 0.74992 0.0
C1375 C 0.15001 0.31703 0.74795 0.0
C1376 C 0.17587 0.3494 0.88908 0.0
C1377 C 0.16919 0.33337 0.81768 0.0
C1378 C 0.1855 0.35757 0.92389 0.0
C1379 C 0.19809 0.35807 0.92599 0.0
C1380 C 0.17889 0.34172 0.8563 0.0
C1381 C 0.20052 0.34988 0.89376 0.0
C1382 C 0.17224 0.32574 0.78476 0.0
C1383 C 0.14754 0.32516 0.78034 0.0
N1384 N 0.19103 0.34208 0.86006 0.0
N1385 N 0.15703 0.33296 0.81405 0.0
H1386 H 0.86316 0.6577 0.61281 0.0
H1387 H 0.81454 0.68269 0.72659 0.0
H1388 H 0.82241 0.64424 0.56069 0.0
H1389 H 0.85542 0.69633 0.77779 0.0
H1390 H 0.8171 0.66825 0.6665 0.0
H1391 H 0.86061 0.67218 0.67263 0.0
C1392 C 0.8537 0.65789 0.61367 0.0
C1393 C 0.84295 0.64972 0.58191 0.0
C1394 C 0.82549 0.67435 0.691 0.0
C1395 C 0.83992 0.66617 0.65066 0.0
C1396 C 0.82403 0.68255 0.72549 0.0
C1397 C 0.83482 0.69075 0.75709 0.0
C1398 C 0.83784 0.67436 0.68805 0.0
C1399 C 0.84684 0.69014 0.75417 0.0
C1400 C 0.85224 0.66612 0.64799 0.0
C1401 C 0.83096 0.6504 0.58446 0.0
N1402 N 0.84806 0.68213 0.71997 0.0
N1403 N 0.82973 0.65844 0.61856 0.0
H1404 H 0.31225 0.16075 0.7774 0.0
H1405 H 0.36646 0.18024 0.56054 0.0
H1406 H 0.32778 0.13485 0.7287 0.0
H1407 H 0.351 0.20617 0.60954 0.0
H1408 H 0.35197 0.16321 0.62101 0.0
H1409 H 0.32676 0.17778 0.71701 0.0
C1410 C 0.31884 0.15873 0.75447 0.0
C1411 C 0.31879 0.14637 0.75787 0.0
C1412 C 0.35171 0.17261 0.61832 0.0
C1413 C 0.3352 0.16564 0.68836 0.0
C1414 C 0.35989 0.18227 0.58356 0.0
C1415 C 0.35995 0.19463 0.58021 0.0
C1416 C 0.34357 0.17537 0.64979 0.0
C1417 C 0.35132 0.19679 0.6111 0.0
C1418 C 0.32704 0.1684 0.71975 0.0
C1419 C 0.32746 0.14423 0.72709 0.0
N1420 N 0.34352 0.18728 0.64478 0.0
N1421 N 0.33527 0.15375 0.69343 0.0
H1422 H 0.82888 0.19344 0.5839 0.0
H1423 H 0.85151 0.14945 0.74633 0.0
H1424 H 0.82086 0.15322 0.54416 0.0
H1425 H 0.8599 0.18984 0.78537 0.0
H1426 H 0.83969 0.15041 0.67309 0.0
H1427 H 0.84089 0.19259 0.65674 0.0
C1428 C 0.82983 0.18451 0.59011 0.0
C1429 C 0.82371 0.17332 0.55824 0.0
C1430 C 0.84404 0.15902 0.69784 0.0
C1431 C 0.83727 0.17219 0.64187 0.0
C1432 C 0.8507 0.15844 0.73987 0.0
C1433 C 0.85684 0.16964 0.7717 0.0
C1434 C 0.8435 0.17088 0.68764 0.0
C1435 C 0.85536 0.18098 0.76177 0.0
C1436 C 0.8366 0.18399 0.6319 0.0
C1437 C 0.82537 0.16207 0.56781 0.0
N1438 N 0.84894 0.18136 0.72032 0.0
N1439 N 0.83188 0.16174 0.60909 0.0
H1440 H 0.04046 0.52619 0.42414 0.0
H1441 H 0.97363 0.48219 0.58555 0.0
H1442 H 0.00817 0.48611 0.38357 0.0
H1443 H 1.00573 0.52243 0.62558 0.0
H1444 H 0.98651 0.48314 0.51263 0.0
H1445 H 0.02762 0.52523 0.49723 0.0
C1446 C 0.03057 0.51727 0.43022 0.0
C1447 C 0.02545 0.50614 0.39802 0.0
C1448 C 0.99079 0.49173 0.53754 0.0
C1449 C 0.0108 0.5049 0.48191 0.0
C1450 C 0.98349 0.49115 0.57939 0.0
C1451 C 0.98854 0.50232 0.61136 0.0
C1452 C 1.00324 0.50355 0.52766 0.0
C1453 C 1.00142 0.5136 0.60184 0.0
C1454 C 0.0233 0.51669 0.47216 0.0
C1455 C 0.01254 0.4949 0.40746 0.0
N1456 N 0.00827 0.51398 0.56053 0.0
N1457 N 1.00571 0.49451 0.44886 0.0
H1458 H 0.48135 0.47015 0.5688 0.0
H1459 H 0.53213 0.54063 0.43805 0.0
H1460 H 0.52372 0.49513 0.60817 0.0
H1461 H 0.4898 0.51558 0.3983 0.0
H1462 H 0.52933 0.52386 0.4996 0.0
H1463 H 0.48414 0.48694 0.50735 0.0
C1464 C 0.49122 0.47925 0.56487 0.0
C1465 C 0.50235 0.48124 0.59342 0.0
C1466 C 0.52067 0.52198 0.47726 0.0
C1467 C 0.50564 0.50039 0.52274 0.0
C1468 C 0.52227 0.53151 0.44192 0.0
C1469 C 0.51115 0.52951 0.41322 0.0
C1470 C 0.50784 0.51038 0.48402 0.0
C1471 C 0.49864 0.51751 0.41962 0.0
C1472 C 0.49281 0.48879 0.52958 0.0
C1473 C 0.51487 0.49323 0.58696 0.0
N1474 N 0.49729 0.50842 0.45466 0.0
N1475 N 0.51621 0.50233 0.55197 0.0
H1476 H 0.5159 0.03204 0.61215 0.0
H1477 H 0.49684 0.97818 0.39457 0.0
H1478 H 0.54077 0.01475 0.56988 0.0
H1479 H 0.4725 0.99619 0.4353 0.0
H1480 H 0.51333 0.99179 0.45786 0.0
H1481 H 0.49947 0.0184 0.54888 0.0
C1482 C 0.5178 0.02523 0.59007 0.0
C1483 C 0.52973 0.02456 0.59604 0.0
C1484 C 0.50441 0.99281 0.4527 0.0
C1485 C 0.51116 0.00915 0.5232 0.0
C1486 C 0.49508 0.98515 0.4163 0.0
C1487 C 0.48328 0.98602 0.40992 0.0
C1488 C 0.50188 1.00138 0.48274 0.0
C1489 C 0.48143 0.99514 0.43924 0.0
C1490 C 0.50849 0.01754 0.55366 0.0
C1491 C 0.53173 0.01563 0.56627 0.0
N1492 N 0.4906 1.0024 0.4746 0.0
N1493 N 0.52258 0.00832 0.53091 0.0
H1494 H 0.53084 0.99338 0.9405 0.0
H1495 H 0.4821 0.01764 0.0584 0.0
H1496 H 0.48969 0.97928 0.89159 0.0
H1497 H 0.5231 0.0314 0.10839 0.0
H1498 H 0.48462 1.00332 0.99771 0.0
H1499 H 0.52835 0.00776 1.00099 0.0
C1500 C 0.52131 0.99341 0.94218 0.0
C1501 C 0.51042 0.98509 0.91115 0.0
C1502 C 0.49304 0.00941 0.02208 0.0
C1503 C 0.50747 1.0014 0.98068 0.0
C1504 C 0.49161 0.01755 0.05689 0.0
C1505 C 0.50244 0.02575 0.08831 0.0
C1506 C 0.50542 0.0095 0.01856 0.0
C1507 C 0.51448 0.0252 0.08492 0.0
C1508 C 0.51988 1.00158 0.9769 0.0
C1509 C 0.49834 0.98557 0.91476 0.0
N1510 N 0.51569 0.01726 0.05035 0.0
N1511 N 0.49716 0.99354 0.94922 0.0
H1512 H 1.00616 0.4857 0.13113 0.0
H1513 H 0.00844 0.52125 0.87537 0.0
H1514 H 0.97406 0.49256 0.07966 0.0
H1515 H 0.04092 0.51513 0.92793 0.0
H1516 H 0.99526 0.50985 0.9485 0.0
H1517 H 0.01934 0.497 0.05787 0.0
C1518 C 1.00198 0.4898 0.1049 0.0
C1519 C 0.98891 0.48803 0.1112 0.0
C1520 C 1.00523 0.51092 0.94388 0.0
C1521 C 1.00379 0.50067 0.02679 0.0
C1522 C 0.0127 0.51728 0.90181 0.0
C1523 C 0.02587 0.5193 0.89587 0.0
C1524 C 0.01098 0.50654 0.98013 0.0
C1525 C 0.03087 0.51396 0.93139 0.0
C1526 C 0.00944 0.49611 0.06277 0.0
C1527 C 0.98401 0.49354 0.07594 0.0
N1528 N 0.02348 0.50794 0.97227 0.0
N1529 N 0.9914 0.4995 0.03498 0.0
H1530 H 0.51756 0.4831 0.0841 0.0
H1531 H 0.49632 0.52769 0.9187 0.0
H1532 H 0.52554 0.52332 0.12373 0.0
H1533 H 0.48825 0.48744 0.87915 0.0
H1534 H 0.50774 0.52657 0.99281 0.0
H1535 H 0.50625 0.48426 0.00975 0.0
C1536 C 0.51675 0.49209 0.07754 0.0
C1537 C 0.52265 0.5032 0.10986 0.0
C1538 C 0.50356 0.51802 0.96774 0.0
C1539 C 0.5099 0.50467 0.02453 0.0
C1540 C 0.49714 0.5187 0.92522 0.0
C1541 C 0.49117 0.50757 0.89302 0.0
C1542 C 0.50404 0.50614 0.97808 0.0
C1543 C 0.49266 0.49624 0.90303 0.0
C1544 C 0.51038 0.49279 0.03488 0.0
C1545 C 0.52118 0.51453 0.09977 0.0
N1546 N 0.49883 0.49576 0.945 0.0
N1547 N 0.51506 0.51503 0.05769 0.0
H1548 H 0.24956 0.215 0.29951 0.0
H1549 H 0.17971 0.20711 0.19581 0.0
H1550 H 0.21064 0.17799 0.30798 0.0
H1551 H 0.21786 0.24502 0.19151 0.0
H1552 H 0.19121 0.1963 0.23518 0.0
H1553 H 0.23853 0.22617 0.25852 0.0
C1554 C 0.23875 0.20914 0.29213 0.0
C1555 C 0.23109 0.19541 0.30647 0.0
C1556 C 0.19708 0.20701 0.22594 0.0
C1557 C 0.21831 0.20829 0.2605 0.0
C1558 C 0.19052 0.2132 0.20328 0.0
C1559 C 0.19773 0.22709 0.19105 0.0
C1560 C 0.21108 0.21469 0.23623 0.0
C1561 C 0.21175 0.23441 0.20155 0.0
C1562 C 0.23242 0.21559 0.26914 0.0
C1563 C 0.217 0.18856 0.29753 0.0
N1564 N 0.21796 0.22813 0.2235 0.0
N1565 N 0.21111 0.19503 0.27508 0.0
H1566 H 0.76347 0.97295 0.19853 0.0
H1567 H 0.83316 0.03459 0.30403 0.0
H1568 H 0.80223 0.97445 0.1935 0.0
H1569 H 0.79563 0.03558 0.29998 0.0
H1570 H 0.82156 0.01218 0.26579 0.0
H1571 H 0.77457 0.99541 0.23769 0.0
C1572 C 0.77425 0.97786 0.20627 0.0
C1573 C 0.78185 0.97162 0.19346 0.0
C1574 C 0.81584 0.0173 0.27293 0.0
C1575 C 0.79471 0.99753 0.23734 0.0
C1576 C 0.82247 0.03013 0.29494 0.0
C1577 C 0.81545 0.03716 0.3046 0.0
C1578 C 0.80198 0.01127 0.26072 0.0
C1579 C 0.80158 0.03077 0.29204 0.0
C1580 C 0.78062 0.99078 0.22819 0.0
C1581 C 0.79592 0.9788 0.2028 0.0
N1582 N 0.7953 0.01819 0.27083 0.0
N1583 N 0.80185 0.99129 0.22425 0.0
H1584 H 0.985 0.78704 0.37907 0.0
H1585 H 0.02595 0.80751 0.1254 0.0
H1586 H 0.96554 0.77315 0.23856 0.0
H1587 H 0.04543 0.81284 0.26576 0.0
H1588 H 1.00371 0.79578 0.16617 0.0
H1589 H 0.00726 0.79746 0.33837 0.0
C1590 C 0.98542 0.78608 0.33969 0.0
C1591 C 0.97339 0.77895 0.31233 0.0
C1592 C 0.01285 0.79939 0.18801 0.0
C1593 C 0.99882 0.79105 0.26532 0.0
C1594 C 0.02554 0.80611 0.16477 0.0
C1595 C 0.03757 0.81092 0.19205 0.0
C1596 C 0.01215 0.79769 0.23916 0.0
C1597 C 0.03645 0.80893 0.24303 0.0
C1598 C 0.99812 0.792 0.31649 0.0
C1599 C 0.97452 0.77814 0.26135 0.0
N1600 N 0.02398 0.80254 0.26494 0.0
N1601 N 0.98699 0.78417 0.23949 0.0
H1602 H 0.83449 0.80202 0.81181 0.0
H1603 H 0.76584 0.79435 0.69705 0.0
H1604 H 0.79628 0.76413 0.81128 0.0
H1605 H 0.80412 0.83213 0.70191 0.0
H1606 H 0.77658 0.783 0.73849 0.0
H1607 H 0.82336 0.81309 0.77165 0.0
C1608 C 0.82375 0.79599 0.80312 0.0
C1609 C 0.81642 0.78202 0.81418 0.0
C1610 C 0.78261 0.79379 0.73073 0.0
C1611 C 0.8035 0.79472 0.76802 0.0
C1612 C 0.77643 0.80034 0.70747 0.0
C1613 C 0.78398 0.81433 0.69685 0.0
C1614 C 0.79648 0.80125 0.74324 0.0
C1615 C 0.79785 0.82135 0.70948 0.0
C1616 C 0.8174 0.80233 0.78001 0.0
C1617 C 0.8025 0.77479 0.80212 0.0
N1618 N 0.80362 0.81477 0.73205 0.0
N1619 N 0.79651 0.78121 0.77968 0.0
H1620 H 0.17742 0.97257 0.69355 0.0
H1621 H 0.24616 0.03334 0.8085 0.0
H1622 H 0.21517 0.97201 0.69857 0.0
H1623 H 0.20798 0.03304 0.80264 0.0
H1624 H 0.23528 0.01105 0.76839 0.0
H1625 H 0.18867 0.9948 0.73334 0.0
C1626 C 0.18808 0.97708 0.7032 0.0
C1627 C 0.19526 0.97022 0.69338 0.0
C1628 C 0.22931 0.0159 0.77567 0.0
C1629 C 0.20832 0.99588 0.73906 0.0
C1630 C 0.23557 0.02874 0.79814 0.0
C1631 C 0.22808 0.03529 0.80809 0.0
C1632 C 0.21543 0.00951 0.76322 0.0
C1633 C 0.2142 0.02845 0.79557 0.0
C1634 C 0.19451 0.9898 0.72608 0.0
C1635 C 0.20908 0.97666 0.70667 0.0
N1636 N 0.20837 0.01601 0.77373 0.0
N1637 N 0.21515 0.98911 0.72878 0.0
H1638 H 0.97554 0.21495 0.79728 0.0
H1639 H 0.03736 0.20673 0.69416 0.0
H1640 H 0.97682 0.17757 0.80286 0.0
H1641 H 0.03746 0.24482 0.69103 0.0
H1642 H 0.01493 0.19594 0.73256 0.0
H1643 H 0.99787 0.2261 0.75723 0.0
C1644 C 0.98036 0.209 0.78945 0.0
C1645 C 0.97409 0.19518 0.8027 0.0
C1646 C 0.01986 0.20669 0.7238 0.0
C1647 C 0.9999 0.20803 0.75784 0.0
C1648 C 0.03269 0.21286 0.7017 0.0
C1649 C 0.0395 0.2268 0.69009 0.0
C1650 C 0.01361 0.21442 0.73416 0.0
C1651 C 0.03286 0.23418 0.70062 0.0
C1652 C 0.99322 0.21544 0.767 0.0
C1653 C 0.9812 0.18822 0.79324 0.0
N1654 N 0.0203 0.22791 0.72204 0.0
N1655 N 0.99364 0.19468 0.77136 0.0
H1656 H 0.87629 0.50994 0.63897 0.0
H1657 H 0.8835 0.57829 0.52288 0.0
H1658 H 0.91456 0.54768 0.63112 0.0
H1659 H 0.84588 0.53988 0.52891 0.0
H1660 H 0.89516 0.56759 0.56259 0.0
H1661 H 0.86514 0.52101 0.5991 0.0
C1662 C 0.88239 0.52056 0.6287 0.0
C1663 C 0.89647 0.52779 0.63783 0.0
C1664 C 0.88434 0.56153 0.55542 0.0
C1665 C 0.88366 0.54064 0.59199 0.0
C1666 C 0.87762 0.56768 0.53318 0.0
C1667 C 0.86358 0.56007 0.52344 0.0
C1668 C 0.87699 0.54763 0.56787 0.0
C1669 C 0.85669 0.54618 0.53585 0.0
C1670 C 0.876 0.52688 0.60575 0.0
C1671 C 0.90379 0.54155 0.62367 0.0
N1672 N 0.86343 0.54046 0.55751 0.0
N1673 N 0.8973 0.54753 0.60153 0.0
H1674 H 0.50192 0.3687 0.63917 0.0
H1675 H 0.43258 0.30752 0.5295 0.0
H1676 H 0.46378 0.36849 0.64161 0.0
H1677 H 0.4708 0.30788 0.53237 0.0
H1678 H 0.44359 0.32977 0.56991 0.0
H1679 H 0.49052 0.34641 0.59974 0.0
C1680 C 0.49114 0.364 0.63127 0.0
C1681 C 0.4839 0.37068 0.64299 0.0
C1682 C 0.44955 0.32493 0.56193 0.0
C1683 C 0.47067 0.34497 0.59769 0.0
C1684 C 0.44321 0.31212 0.53928 0.0
C1685 C 0.45067 0.3056 0.5284 0.0
C1686 C 0.46348 0.33134 0.57356 0.0
C1687 C 0.4646 0.31245 0.54016 0.0
C1688 C 0.48463 0.35126 0.60859 0.0
C1689 C 0.46992 0.36401 0.63194 0.0
N1690 N 0.47051 0.32487 0.56215 0.0
N1691 N 0.46377 0.35155 0.60991 0.0
H1692 H 0.7045 0.12707 0.53846 0.0
H1693 H 0.64289 0.1356 0.64186 0.0
H1694 H 0.70314 0.16439 0.53149 0.0
H1695 H 0.64276 0.0975 0.64631 0.0
H1696 H 0.66524 0.14626 0.60293 0.0
H1697 H 0.68226 0.11603 0.57921 0.0
C1698 C 0.69968 0.13303 0.54613 0.0
C1699 C 0.7059 0.1468 0.53225 0.0
C1700 C 0.66031 0.13554 0.6121 0.0
C1701 C 0.6802 0.13408 0.57792 0.0
C1702 C 0.64753 0.12944 0.63451 0.0
C1703 C 0.64074 0.11554 0.64665 0.0
C1704 C 0.66654 0.12776 0.60195 0.0
C1705 C 0.64734 0.10812 0.63632 0.0
C1706 C 0.68688 0.12666 0.56897 0.0
C1707 C 0.6988 0.15379 0.54156 0.0
N1708 N 0.65986 0.11431 0.61459 0.0
N1709 N 0.68641 0.14739 0.56384 0.0
H1710 H 0.42987 0.1266 0.03791 0.0
H1711 H 0.50027 0.13576 0.14113 0.0
H1712 H 0.46846 0.16396 0.02879 0.0
H1713 H 0.46238 0.09761 0.14702 0.0
H1714 H 0.48845 0.14625 0.10176 0.0
H1715 H 0.4412 0.11581 0.07934 0.0
C1716 C 0.44066 0.13262 0.04524 0.0
C1717 C 0.44814 0.14633 0.03057 0.0
C1718 C 0.4827 0.13555 0.11136 0.0
C1719 C 0.46128 0.13389 0.07704 0.0
C1720 C 0.48945 0.12955 0.13402 0.0
C1721 C 0.4824 0.11569 0.14664 0.0
C1722 C 0.46869 0.1277 0.10146 0.0
C1723 C 0.46836 0.1082 0.13664 0.0
C1724 C 0.44717 0.12639 0.06848 0.0
C1725 C 0.46224 0.15339 0.03948 0.0
N1726 N 0.46198 0.1143 0.11465 0.0
N1727 N 0.46831 0.14713 0.06217 0.0
H1728 H 0.88476 0.30613 0.0341 0.0
H1729 H 0.87715 0.36791 0.14094 0.0
H1730 H 0.84763 0.30788 0.02965 0.0
H1731 H 0.91557 0.36871 0.13604 0.0
H1732 H 0.86621 0.34552 0.10249 0.0
H1733 H 0.89623 0.32855 0.07351 0.0
C1734 C 0.87895 0.31109 0.04202 0.0
C1735 C 0.86511 0.30493 0.02929 0.0
C1736 C 0.87706 0.3506 0.10949 0.0
C1737 C 0.87829 0.3308 0.07346 0.0
C1738 C 0.88332 0.36341 0.13163 0.0
C1739 C 0.89738 0.37038 0.14111 0.0
C1740 C 0.88482 0.34452 0.09698 0.0
C1741 C 0.90481 0.36395 0.12825 0.0
C1742 C 0.88556 0.32399 0.06408 0.0
C1743 C 0.85829 0.31217 0.03887 0.0
N1744 N 0.89844 0.35138 0.10692 0.0
N1745 N 0.86491 0.32463 0.06045 0.0
H1746 H 0.6413 0.54931 0.13383 0.0
H1747 H 0.70262 0.54035 0.03018 0.0
H1748 H 0.6428 0.51211 0.14377 0.0
H1749 H 0.70279 0.57846 0.0244 0.0
H1750 H 0.68041 0.52986 0.07011 0.0
H1751 H 0.66343 0.56017 0.09236 0.0
C1752 C 0.64613 0.54334 0.12669 0.0
C1753 C 0.63998 0.52965 0.14157 0.0
C1754 C 0.68531 0.54055 0.06042 0.0
C1755 C 0.66556 0.54217 0.09505 0.0
C1756 C 0.69802 0.54655 0.03744 0.0
C1757 C 0.70478 0.5604 0.02462 0.0
C1758 C 0.67913 0.54838 0.07045 0.0
C1759 C 0.69822 0.56788 0.03487 0.0
C1760 C 0.65887 0.54961 0.10342 0.0
C1761 C 0.64709 0.52265 0.13291 0.0
N1762 N 0.68578 0.56178 0.05715 0.0
N1763 N 0.65941 0.52895 0.11017 0.0
H1764 H 0.58029 0.88221 0.97409 0.0
H1765 H 0.51126 0.87401 0.86109 0.0
H1766 H 0.54215 0.84427 0.96972 0.0
H1767 H 0.54939 0.91197 0.85992 0.0
H1768 H 0.52257 0.86309 0.90101 0.0
H1769 H 0.56938 0.89342 0.93284 0.0
C1770 C 0.5697 0.87616 0.9638 0.0
C1771 C 0.56224 0.86216 0.97451 0.0
C1772 C 0.52848 0.87384 0.89233 0.0
C1773 C 0.54953 0.87508 0.92838 0.0
C1774 C 0.52202 0.88009 0.86937 0.0
C1775 C 0.52928 0.89403 0.8579 0.0
C1776 C 0.5424 0.88152 0.90378 0.0
C1777 C 0.54323 0.90134 0.86942 0.0
C1778 C 0.56342 0.88262 0.94066 0.0
C1779 C 0.54835 0.85505 0.96208 0.0
N1780 N 0.54933 0.895 0.89174 0.0
N1781 N 0.54249 0.86156 0.93963 0.0
H1782 H 0.13664 0.64025 0.86564 0.0
H1783 H 0.12898 0.70128 0.97988 0.0
H1784 H 0.09813 0.63918 0.87502 0.0
H1785 H 0.16673 0.70074 0.97434 0.0
H1786 H 0.11741 0.67881 0.941 0.0
H1787 H 0.14769 0.66258 0.90462 0.0
C1788 C 0.13047 0.64468 0.87606 0.0
C1789 C 0.11636 0.63765 0.86763 0.0
C1790 C 0.12824 0.68364 0.9481 0.0
C1791 C 0.12905 0.66343 0.91241 0.0
C1792 C 0.13491 0.69657 0.96986 0.0
C1793 C 0.14896 0.70311 0.9795 0.0
C1794 C 0.13565 0.67714 0.93601 0.0
C1795 C 0.15592 0.69616 0.96746 0.0
C1796 C 0.1368 0.65745 0.8985 0.0
C1797 C 0.10894 0.64397 0.88194 0.0
N1798 N 0.14923 0.68364 0.94624 0.0
N1799 N 0.11537 0.6565 0.90355 0.0
H1800 H 0.37245 0.46081 0.87227 0.0
H1801 H 0.31044 0.46859 0.97637 0.0
H1802 H 0.37041 0.49775 0.86357 0.0
H1803 H 0.31081 0.43074 0.98103 0.0
H1804 H 0.33271 0.47941 0.9368 0.0
H1805 H 0.35029 0.44963 0.91355 0.0
C1806 C 0.36749 0.46666 0.87966 0.0
C1807 C 0.3735 0.48037 0.86516 0.0
C1808 C 0.32792 0.46871 0.94616 0.0
C1809 C 0.34788 0.46747 0.91147 0.0
C1810 C 0.31518 0.46251 0.96895 0.0
C1811 C 0.30854 0.44863 0.98134 0.0
C1812 C 0.33427 0.46105 0.9359 0.0
C1813 C 0.31527 0.44134 0.97088 0.0
C1814 C 0.35473 0.4602 0.90282 0.0
C1815 C 0.36624 0.4872 0.87414 0.0
N1816 N 0.32775 0.44762 0.9488 0.0
N1817 N 0.35389 0.48072 0.89675 0.0
H1818 H 0.0982 0.45985 0.37519 0.0
H1819 H 0.16825 0.46818 0.47856 0.0
H1820 H 0.13693 0.4971 0.36799 0.0
H1821 H 0.13026 0.43009 0.48231 0.0
H1822 H 0.1566 0.4789 0.43969 0.0
H1823 H 0.10936 0.44875 0.41578 0.0
C1824 C 0.10898 0.46578 0.38277 0.0
C1825 C 0.11656 0.47955 0.36888 0.0
C1826 C 0.15079 0.46817 0.44869 0.0
C1827 C 0.12949 0.46676 0.41439 0.0
C1828 C 0.15745 0.46203 0.47107 0.0
C1829 C 0.15032 0.44812 0.48299 0.0
C1830 C 0.1368 0.46041 0.43837 0.0
C1831 C 0.1363 0.44072 0.47249 0.0
C1832 C 0.11539 0.45937 0.40553 0.0
C1833 C 0.13064 0.4865 0.37807 0.0
N1834 N 0.13001 0.44695 0.45081 0.0
N1835 N 0.13661 0.48007 0.40028 0.0
H1836 H 0.51249 0.64229 0.36778 0.0
H1837 H 0.58282 0.7041 0.46869 0.0
H1838 H 0.55053 0.64233 0.36165 0.0
H1839 H 0.54407 0.70254 0.47814 0.0
H1840 H 0.57155 0.68184 0.42821 0.0
H1841 H 0.52421 0.66463 0.40668 0.0
C1842 C 0.52332 0.64697 0.37475 0.0
C1843 C 0.53044 0.64023 0.36215 0.0
C1844 C 0.56554 0.68641 0.43894 0.0
C1845 C 0.54404 0.66602 0.40679 0.0
C1846 C 0.572 0.69923 0.46163 0.0
C1847 C 0.56445 0.7054 0.47608 0.0
C1848 C 0.5514 0.67968 0.43073 0.0
C1849 C 0.55034 0.69824 0.46758 0.0
C1850 C 0.53001 0.65975 0.39714 0.0
C1851 C 0.54449 0.64688 0.37201 0.0
N1852 N 0.54432 0.68584 0.44542 0.0
N1853 N 0.55083 0.65939 0.39371 0.0
H1854 H 0.29897 0.86125 0.40078 0.0
H1855 H 0.38008 0.90231 0.43276 0.0
H1856 H 0.31892 0.86639 0.54005 0.0
H1857 H 0.36022 0.88797 0.29309 0.0
H1858 H 0.35778 0.89171 0.47268 0.0
H1859 H 0.32125 0.87346 0.36092 0.0
C1860 C 0.30803 0.86519 0.42317 0.0
C1861 C 0.30707 0.86304 0.47403 0.0
C1862 C 0.35829 0.89097 0.43325 0.0
C1863 C 0.33268 0.87679 0.42837 0.0
C1864 C 0.37104 0.89719 0.41031 0.0
C1865 C 0.37202 0.89628 0.35932 0.0
C1866 C 0.3464 0.88382 0.40503 0.0
C1867 C 0.35992 0.88898 0.33246 0.0
C1868 C 0.32077 0.87201 0.40025 0.0
C1869 C 0.3192 0.86789 0.50078 0.0
N1870 N 0.34762 0.88309 0.35555 0.0
N1871 N 0.33149 0.87459 0.47772 0.0
H1872 H 0.25001 0.09804 0.9994 0.0
H1873 H 0.26131 0.16604 0.13112 0.0
H1874 H 0.26898 0.13782 0.9322 0.0
H1875 H 0.24862 0.12832 0.20738 0.0
H1876 H 0.25849 0.15423 0.05293 0.0
H1877 H 0.24431 0.10743 0.07088 0.0
C1878 C 0.25279 0.10867 0.99933 0.0
C1879 C 0.26019 0.1172 0.9601 0.0
C1880 C 0.25597 0.14843 0.08666 0.0
C1881 C 0.25365 0.12799 0.04143 0.0
C1882 C 0.25741 0.15515 0.13115 0.0
C1883 C 0.25511 0.14808 0.17538 0.0
C1884 C 0.25234 0.13459 0.08665 0.0
C1885 C 0.25037 0.13404 0.17376 0.0
C1886 C 0.24956 0.11404 0.04014 0.0
C1887 C 0.2635 0.13091 0.96195 0.0
N1888 N 0.24934 0.12778 0.13015 0.0
N1889 N 0.2603 0.13587 0.00196 0.0
H1890 H 0.87142 0.13293 0.92212 0.0
H1891 H 0.88172 0.12002 0.20068 0.0
H1892 H 0.91063 0.1532 0.99343 0.0
H1893 H 0.8436 0.09826 0.12382 0.0
H1894 H 0.89339 0.12935 0.12251 0.0
H1895 H 0.86198 0.11774 0.9921 0.0
C1896 C 0.8781 0.13415 0.95248 0.0
C1897 C 0.89182 0.14453 0.95216 0.0
C1898 C 0.88254 0.12223 0.12242 0.0
C1899 C 0.88096 0.12707 0.03313 0.0
C1900 C 0.87592 0.11677 0.16694 0.0
C1901 C 0.86174 0.10826 0.16833 0.0
C1902 C 0.87485 0.1193 0.07917 0.0
C1903 C 0.85458 0.10464 0.12403 0.0
C1904 C 0.87269 0.1254 0.99247 0.0
C1905 C 0.89999 0.14541 0.99225 0.0
N1906 N 0.86118 0.11035 0.08131 0.0
N1907 N 0.89438 0.13693 0.03148 0.0
H1908 H 0.87647 0.73919 0.93479 0.0
H1909 H 0.88933 0.76206 0.21442 0.0
H1910 H 0.85586 0.75768 0.00682 0.0
H1911 H 0.91047 0.74506 0.13721 0.0
H1912 H 0.87982 0.7643 0.13636 0.0
H1913 H 0.89141 0.74461 0.0053 0.0
C1914 C 0.87512 0.74448 0.96543 0.0
C1915 C 0.86472 0.74779 0.96507 0.0
C1916 C 0.88683 0.76043 0.13621 0.0
C1917 C 0.88189 0.754 0.04677 0.0
C1918 C 0.89238 0.75932 0.18064 0.0
C1919 C 0.90076 0.75349 0.18189 0.0
C1920 C 0.88959 0.75553 0.09292 0.0
C1921 C 0.90416 0.74975 0.13754 0.0
C1922 C 0.88372 0.74762 0.00575 0.0
C1923 C 0.86368 0.75485 0.0056 0.0
N1924 N 0.89842 0.75065 0.09496 0.0
N1925 N 0.87202 0.75755 0.04515 0.0
H1926 H 0.10278 0.24959 0.49955 0.0
H1927 H 0.1715 0.26302 0.36712 0.0
H1928 H 0.1427 0.26997 0.5656 0.0
H1929 H 0.13298 0.24624 0.29266 0.0
H1930 H 0.1599 0.26088 0.44519 0.0
H1931 H 0.11247 0.24413 0.42822 0.0
C1932 C 0.11351 0.25276 0.49937 0.0
C1933 C 0.12196 0.26044 0.53835 0.0
C1934 C 0.15389 0.25735 0.41201 0.0
C1935 C 0.13309 0.25417 0.45717 0.0
C1936 C 0.16051 0.25841 0.3676 0.0
C1937 C 0.15314 0.25472 0.32375 0.0
C1938 C 0.13982 0.25274 0.41238 0.0
C1939 C 0.13895 0.24906 0.326 0.0
C1940 C 0.11905 0.24966 0.45865 0.0
C1941 C 0.13581 0.26424 0.53614 0.0
N1942 N 0.13276 0.24845 0.36947 0.0
N1943 N 0.14092 0.26115 0.49628 0.0
H1944 H 0.74294 0.87604 0.57549 0.0
H1945 H 0.76571 0.88839 0.29652 0.0
H1946 H 0.76187 0.85573 0.50441 0.0
H1947 H 0.74973 0.91054 0.3732 0.0
H1948 H 0.7682 0.87924 0.37485 0.0
H1949 H 0.74869 0.8912 0.50533 0.0
C1950 C 0.74841 0.87482 0.54517 0.0
C1951 C 0.75174 0.86443 0.54558 0.0
C1952 C 0.76452 0.88641 0.37486 0.0
C1953 C 0.75831 0.88182 0.4644 0.0
C1954 C 0.76327 0.89176 0.33023 0.0
C1955 C 0.75767 0.90033 0.32875 0.0
C1956 C 0.75991 0.8895 0.41815 0.0
C1957 C 0.75427 0.9041 0.37305 0.0
C1958 C 0.75175 0.88355 0.50508 0.0
C1959 C 0.75903 0.86353 0.50554 0.0
N1960 N 0.75524 0.89849 0.4159 0.0
N1961 N 0.76189 0.87197 0.4662 0.0
H1962 H 0.12262 0.87776 0.28659 0.0
H1963 H 0.13502 0.86869 0.56727 0.0
H1964 H 0.10012 0.84032 0.36714 0.0
H1965 H 0.15637 0.90747 0.49326 0.0
H1966 H 0.11993 0.8592 0.49721 0.0
H1967 H 0.13242 0.88988 0.36379 0.0
C1968 C 0.11934 0.87223 0.32089 0.0
C1969 C 0.11049 0.85808 0.32086 0.0
C1970 C 0.12781 0.86982 0.49618 0.0
C1971 C 0.12198 0.87169 0.40887 0.0
C1972 C 0.1365 0.87526 0.53624 0.0
C1973 C 0.14714 0.88886 0.5359 0.0
C1974 C 0.1298 0.87794 0.45469 0.0
C1975 C 0.14836 0.89691 0.49495 0.0
C1976 C 0.12505 0.87909 0.36484 0.0
C1977 C 0.1068 0.85126 0.36584 0.0
N1978 N 0.13993 0.89127 0.45561 0.0
N1979 N 0.1127 0.85808 0.40796 0.0
H1980 H 0.76069 0.90878 0.00363 0.0
H1981 H 0.74806 0.84023 0.87232 0.0
H1982 H 0.74047 0.86883 0.06979 0.0
H1983 H 0.76446 0.87865 0.79723 0.0
H1984 H 0.75006 0.85184 0.95016 0.0
H1985 H 0.76633 0.89917 0.93249 0.0
C1986 C 0.75757 0.89805 0.00348 0.0
C1987 C 0.7499 0.88957 0.04244 0.0
C1988 C 0.75354 0.85783 0.91689 0.0
C1989 C 0.7564 0.87855 0.96158 0.0
C1990 C 0.75257 0.85121 0.87263 0.0
C1991 C 0.75619 0.85854 0.82868 0.0
C1992 C 0.75798 0.87187 0.917 0.0
C1993 C 0.7617 0.87271 0.83067 0.0
C1994 C 0.76078 0.89257 0.9629 0.0
C1995 C 0.74619 0.87574 0.04032 0.0
N1996 N 0.76222 0.87891 0.87402 0.0
N1997 N 0.74939 0.87069 1.00062 0.0
H1998 H 0.13014 0.88436 0.78792 0.0
H1999 H 0.13999 0.87374 0.06912 0.0
H2000 H 0.16757 0.90849 0.86671 0.0
H2001 H 0.10097 0.85239 0.99694 0.0
H2002 H 0.14933 0.88859 0.99815 0.0
H2003 H 0.11832 0.87497 0.86582 0.0
C2004 C 0.13573 0.88805 0.82195 0.0
C2005 C 0.14978 0.89728 0.82125 0.0
C2006 C 0.13868 0.88078 0.99782 0.0
C2007 C 0.13652 0.88624 0.9102 0.0
C2008 C 0.13333 0.87223 0.03838 0.0
C2009 C 0.1197 0.86164 0.03876 0.0
C2010 C 0.13044 0.87868 0.95665 0.0
C2011 C 0.11154 0.86036 0.99813 0.0
C2012 C 0.12903 0.88259 0.86634 0.0
C2013 C 0.15669 0.90151 0.86595 0.0
N2014 N 0.1171 0.86864 0.95836 0.0
N2015 N 0.15004 0.8958 0.9086 0.0
H2016 H 0.12228 0.24407 0.79269 0.0
H2017 H 0.1373 0.26967 0.06939 0.0
H2018 H 0.1031 0.26348 0.86734 0.0
H2019 H 0.15702 0.2501 0.99863 0.0
H2020 H 0.12207 0.26397 0.99969 0.0
H2021 H 0.13198 0.24225 0.87095 0.0
C2022 C 0.11967 0.24743 0.82604 0.0
C2023 C 0.1118 0.25381 0.82392 0.0
C2024 C 0.12962 0.26079 0.99933 0.0
C2025 C 0.12321 0.25226 0.91305 0.0
C2026 C 0.1384 0.2641 0.0392 0.0
C2027 C 0.14864 0.26056 0.03966 0.0
C2028 C 0.13111 0.254 0.95887 0.0
C2029 C 0.14935 0.25311 0.99974 0.0
C2030 C 0.12534 0.24657 0.87055 0.0
C2031 C 0.10899 0.25835 0.86768 0.0
N2032 N 0.14083 0.25025 0.9606 0.0
N2033 N 0.11483 0.25766 0.91032 0.0
H2034 H 0.91101 0.76121 0.49737 0.0
H2035 H 0.87986 0.76616 0.71202 0.0
H2036 H 0.86989 0.73468 0.44743 0.0
H2037 H 0.84206 0.74159 0.63603 0.0
H2038 H 0.89229 0.7683 0.63639 0.0
H2039 H 0.90198 0.76727 0.56827 0.0
C2040 C 0.90009 0.75671 0.50119 0.0
C2041 C 0.89123 0.74724 0.46663 0.0
C2042 C 0.8813 0.76274 0.63531 0.0
C2043 C 0.88065 0.75404 0.54831 0.0
C2044 C 0.8742 0.76171 0.67862 0.0
C2045 C 0.85995 0.75388 0.67983 0.0
C2046 C 0.87403 0.75572 0.59306 0.0
C2047 C 0.85305 0.74791 0.63625 0.0
C2048 C 0.89487 0.76014 0.54201 0.0
C2049 C 0.87717 0.74185 0.47335 0.0
N2050 N 0.86015 0.74881 0.5949 0.0
N2051 N 0.87237 0.74525 0.5133 0.0
H2052 H 0.25147 0.15335 0.49903 0.0
H2053 H 0.26452 0.09794 0.63248 0.0
H2054 H 0.27224 0.134 0.43434 0.0
H2055 H 0.24701 0.1192 0.70563 0.0
H2056 H 0.26273 0.10754 0.55426 0.0
H2057 H 0.24572 0.13805 0.57013 0.0
C2058 C 0.2547 0.14582 0.49949 0.0
C2059 C 0.26255 0.14514 0.46095 0.0
C2060 C 0.25897 0.10989 0.58716 0.0
C2061 C 0.25592 0.12756 0.5418 0.0
C2062 C 0.25982 0.10424 0.63164 0.0
C2063 C 0.25585 0.10776 0.67519 0.0
C2064 C 0.25427 0.11928 0.58645 0.0
C2065 C 0.25007 0.11619 0.67251 0.0
C2066 C 0.25141 0.13709 0.54005 0.0
C2067 C 0.26638 0.13511 0.46347 0.0
N2068 N 0.24967 0.12187 0.629 0.0
N2069 N 0.26312 0.12683 0.50315 0.0
H2070 H 0.91434 0.16776 0.62386 0.0
H2071 H 0.85725 0.09984 0.49291 0.0
H2072 H 0.88975 0.12996 0.70021 0.0
H2073 H 0.87783 0.1397 0.42615 0.0
H2074 H 0.87247 0.10922 0.56409 0.0
H2075 H 0.905 0.15603 0.54585 0.0
C2076 C 0.90738 0.15687 0.62389 0.0
C2077 C 0.90286 0.14976 0.66813 0.0
C2078 C 0.87373 0.11585 0.53352 0.0
C2079 C 0.89169 0.13635 0.57966 0.0
C2080 C 0.86506 0.11049 0.49291 0.0
C2081 C 0.8661 0.11903 0.45384 0.0
C2082 C 0.88359 0.12979 0.53477 0.0
C2083 C 0.87646 0.13276 0.45576 0.0
C2084 C 0.90189 0.15019 0.57952 0.0
C2085 C 0.89356 0.13572 0.66656 0.0
N2086 N 0.8847 0.1377 0.49555 0.0
N2087 N 0.88811 0.1295 0.62309 0.0
H2088 H 0.92948 0.5009 0.46121 0.0
H2089 H 0.91846 0.43299 0.32938 0.0
H2090 H 0.91614 0.46301 0.53709 0.0
H2091 H 0.93812 0.47296 0.2634 0.0
H2092 H 0.91263 0.44236 0.40062 0.0
H2093 H 0.92716 0.48924 0.38306 0.0
C2094 C 0.92553 0.49 0.4611 0.0
C2095 C 0.92289 0.48284 0.50525 0.0
C2096 C 0.91809 0.44902 0.37022 0.0
C2097 C 0.92072 0.46952 0.41664 0.0
C2098 C 0.9214 0.44367 0.32957 0.0
C2099 C 0.92899 0.45224 0.2907 0.0
C2100 C 0.92227 0.46299 0.37169 0.0
C2101 C 0.93248 0.466 0.29285 0.0
C2102 C 0.92439 0.48337 0.41666 0.0
C2103 C 0.91813 0.4688 0.50351 0.0
N2104 N 0.92918 0.47094 0.33267 0.0
N2105 N 0.91739 0.46262 0.45998 0.0
H2106 H 0.54756 0.45395 0.54245 0.0
H2107 H 0.53749 0.46803 0.26401 0.0
H2108 H 0.50929 0.43377 0.46584 0.0
H2109 H 0.57658 0.48849 0.33614 0.0
H2110 H 0.52796 0.45297 0.33413 0.0
H2111 H 0.55926 0.46377 0.46456 0.0
C2112 C 0.54172 0.45116 0.50878 0.0
C2113 C 0.52749 0.44296 0.51018 0.0
C2114 C 0.53865 0.46065 0.33473 0.0
C2115 C 0.54065 0.45449 0.42148 0.0
C2116 C 0.54412 0.46934 0.29463 0.0
C2117 C 0.55784 0.47973 0.29439 0.0
C2118 C 0.54685 0.46237 0.37565 0.0
C2119 C 0.56593 0.4807 0.33486 0.0
C2120 C 0.54836 0.4569 0.46447 0.0
C2121 C 0.52029 0.43992 0.46603 0.0
N2122 N 0.56027 0.47225 0.37421 0.0
N2123 N 0.52692 0.44583 0.42359 0.0
H2124 H 0.5783 0.07933 0.47032 0.0
H2125 H 0.5232 0.09308 0.33801 0.0
H2126 H 0.55666 0.09621 0.54491 0.0
H2127 H 0.54264 0.07261 0.27176 0.0
H2128 H 0.53829 0.09841 0.40943 0.0
H2129 H 0.56884 0.08149 0.3923 0.0
C2130 C 0.57194 0.08396 0.46987 0.0
C2131 C 0.5683 0.08768 0.51375 0.0
C2132 C 0.53933 0.09288 0.37893 0.0
C2133 C 0.55695 0.08968 0.42518 0.0
C2134 C 0.53072 0.08985 0.33816 0.0
C2135 C 0.53148 0.08219 0.29909 0.0
C2136 C 0.54882 0.08832 0.38037 0.0
C2137 C 0.54148 0.07833 0.30129 0.0
C2138 C 0.56637 0.08503 0.4255 0.0
C2139 C 0.55978 0.09336 0.51156 0.0
N2140 N 0.54964 0.08134 0.34119 0.0
N2141 N 0.55421 0.09399 0.46811 0.0
H2142 H 0.83673 0.59511 0.69809 0.0
H2143 H 0.80555 0.59685 0.91266 0.0
H2144 H 0.79736 0.57808 0.62998 0.0
H2145 H 0.77022 0.58637 0.82395 0.0
H2146 H 0.81564 0.59113 0.84525 0.0
H2147 H 0.82632 0.59345 0.7774 0.0
C2148 C 0.82576 0.59049 0.70038 0.0
C2149 C 0.81788 0.58665 0.65775 0.0
C2150 C 0.80577 0.59015 0.8396 0.0
C2151 C 0.80561 0.58494 0.74879 0.0
C2152 C 0.79992 0.59333 0.87865 0.0
C2153 C 0.78712 0.59232 0.87369 0.0
C2154 C 0.79897 0.58624 0.79427 0.0
C2155 C 0.78015 0.58739 0.82924 0.0
C2156 C 0.81971 0.58961 0.74591 0.0
C2157 C 0.80374 0.58103 0.66232 0.0
N2158 N 0.78626 0.58475 0.79101 0.0
N2159 N 0.79809 0.58056 0.70685 0.0
H2160 H 0.42726 0.18773 0.83758 0.0
H2161 H 0.41425 0.24314 0.70412 0.0
H2162 H 0.40627 0.2069 0.90185 0.0
H2163 H 0.4319 0.22199 0.63115 0.0
H2164 H 0.41601 0.23353 0.78235 0.0
H2165 H 0.43312 0.20311 0.76669 0.0
C2166 C 0.42401 0.19523 0.83708 0.0
C2167 C 0.41606 0.19584 0.87542 0.0
C2168 C 0.41981 0.23121 0.74949 0.0
C2169 C 0.42281 0.21352 0.79483 0.0
C2170 C 0.41898 0.23687 0.70501 0.0
C2171 C 0.423 0.23338 0.6615 0.0
C2172 C 0.42453 0.22184 0.75024 0.0
C2173 C 0.42881 0.22498 0.66424 0.0
C2174 C 0.42735 0.20401 0.79664 0.0
C2175 C 0.4122 0.20584 0.87285 0.0
N2176 N 0.42919 0.21929 0.70775 0.0
N2177 N 0.41553 0.21417 0.83329 0.0
H2178 H 0.82301 0.24236 0.84001 0.0
H2179 H 0.76578 0.17456 0.70878 0.0
H2180 H 0.80227 0.20249 0.90664 0.0
H2181 H 0.79054 0.21235 0.63253 0.0
H2182 H 0.77514 0.18627 0.78683 0.0
H2183 H 0.80782 0.23304 0.76873 0.0
C2184 C 0.81518 0.23172 0.83995 0.0
C2185 C 0.81408 0.22316 0.87901 0.0
C2186 C 0.77829 0.19211 0.75316 0.0
C2187 C 0.79663 0.21247 0.79799 0.0
C2188 C 0.77279 0.18545 0.70878 0.0
C2189 C 0.77736 0.19256 0.66455 0.0
C2190 C 0.78853 0.20593 0.75306 0.0
C2191 C 0.7867 0.20659 0.66616 0.0
C2192 C 0.80652 0.2264 0.79928 0.0
C2193 C 0.80369 0.20944 0.87703 0.0
N2194 N 0.79215 0.2128 0.70965 0.0
N2195 N 0.79546 0.20453 0.83719 0.0
H2196 H 0.41708 0.17486 0.20512 0.0
H2197 H 0.42846 0.24283 0.33741 0.0
H2198 H 0.42957 0.21256 0.12901 0.0
H2199 H 0.4093 0.20299 0.40421 0.0
H2200 H 0.43408 0.23343 0.26577 0.0
H2201 H 0.41988 0.18664 0.28338 0.0
C2202 C 0.42092 0.18574 0.20514 0.0
C2203 C 0.42318 0.19281 0.16094 0.0
C2204 C 0.4288 0.22681 0.29646 0.0
C2205 C 0.42594 0.20626 0.24973 0.0
C2206 C 0.42561 0.23218 0.33735 0.0
C2207 C 0.41819 0.22365 0.37653 0.0
C2208 C 0.42465 0.21285 0.29503 0.0
C2209 C 0.41481 0.20991 0.37451 0.0
C2210 C 0.42235 0.19244 0.24967 0.0
C2211 C 0.42785 0.20683 0.16261 0.0
N2212 N 0.41797 0.20495 0.33442 0.0
N2213 N 0.42889 0.21308 0.20625 0.0
H2214 H 0.79787 0.2215 0.13118 0.0
H2215 H 0.80794 0.20963 0.41095 0.0
H2216 H 0.83573 0.24412 0.20904 0.0
H2217 H 0.76895 0.18845 0.33845 0.0
H2218 H 0.81725 0.2248 0.34085 0.0
H2219 H 0.78608 0.21224 0.2092 0.0
C2220 C 0.80358 0.22494 0.16507 0.0
C2221 C 0.81773 0.23366 0.16403 0.0
C2222 C 0.80662 0.21695 0.34024 0.0
C2223 C 0.80449 0.22273 0.25307 0.0
C2224 C 0.80128 0.20821 0.3803 0.0
C2225 C 0.78767 0.19758 0.38031 0.0
C2226 C 0.79839 0.215 0.29918 0.0
C2227 C 0.77951 0.19644 0.33987 0.0
C2228 C 0.79689 0.21953 0.20952 0.0
C2229 C 0.82477 0.23755 0.20855 0.0
N2230 N 0.78505 0.20491 0.30056 0.0
N2231 N 0.81812 0.23189 0.25122 0.0
H2232 H 0.82151 0.58099 0.33552 0.0
H2233 H 0.78356 0.57523 0.12475 0.0
H2234 H 0.80467 0.60488 0.39309 0.0
H2235 H 0.77243 0.60143 0.20099 0.0
H2236 H 0.7938 0.57271 0.2 0.0
H2237 H 0.8068 0.57562 0.26374 0.0
C2238 C 0.81462 0.58499 0.33329 0.0
C2239 C 0.81452 0.59358 0.3702 0.0
C2240 C 0.78894 0.57882 0.20107 0.0
C2241 C 0.79745 0.58744 0.28788 0.0
C2242 C 0.78285 0.58003 0.15808 0.0
C2243 C 0.77697 0.58836 0.15712 0.0
C2244 C 0.78929 0.58619 0.24318 0.0
C2245 C 0.77666 0.59473 0.20059 0.0
C2246 C 0.80615 0.58191 0.29208 0.0
C2247 C 0.80532 0.59841 0.36536 0.0
N2248 N 0.78285 0.59362 0.24159 0.0
N2249 N 0.7973 0.59536 0.32506 0.0
H2250 H 0.53998 0.07896 0.75756 0.0
H2251 H 0.50875 0.08047 0.97221 0.0
H2252 H 0.57521 0.08912 0.84646 0.0
H2253 H 0.54807 0.09735 0.04055 0.0
H2254 H 0.51919 0.08221 0.89291 0.0
H2255 H 0.52992 0.08468 0.82506 0.0
C2256 C 0.5456 0.0824 0.79164 0.0
C2257 C 0.55835 0.08333 0.79663 0.0
C2258 C 0.52579 0.086 0.92445 0.0
C2259 C 0.54653 0.08939 0.87613 0.0
C2260 C 0.51972 0.08508 0.96998 0.0
C2261 C 0.52758 0.08884 0.01265 0.0
C2262 C 0.53989 0.09066 0.92164 0.0
C2263 C 0.54171 0.09445 0.00817 0.0
C2264 C 0.53976 0.08558 0.83073 0.0
C2265 C 0.56531 0.08817 0.84116 0.0
N2266 N 0.54738 0.09497 0.96363 0.0
N2267 N 0.55921 0.0908 0.87943 0.0
H2268 H 0.93647 0.46576 0.75896 0.0
H2269 H 0.91466 0.45384 0.03893 0.0
H2270 H 0.91871 0.48696 0.8318 0.0
H2271 H 0.92979 0.43118 0.96066 0.0
H2272 H 0.91216 0.46318 0.96104 0.0
H2273 H 0.93067 0.4506 0.82906 0.0
C2274 C 0.93126 0.46719 0.78969 0.0
C2275 C 0.92828 0.47782 0.78977 0.0
C2276 C 0.91565 0.45586 0.9606 0.0
C2277 C 0.92163 0.46041 0.8709 0.0
C2278 C 0.9169 0.45041 0.00498 0.0
C2279 C 0.92229 0.44164 0.00586 0.0
C2280 C 0.92002 0.45267 0.91697 0.0
C2281 C 0.92543 0.43777 0.96127 0.0
C2282 C 0.92789 0.45845 0.82975 0.0
C2283 C 0.92129 0.47897 0.83031 0.0
N2284 N 0.92445 0.44347 0.91867 0.0
N2285 N 0.91839 0.4705 0.86962 0.0
H2286 H 0.55689 0.46321 0.04232 0.0
H2287 H 0.54498 0.47328 0.7627 0.0
H2288 H 0.57955 0.50109 0.96445 0.0
H2289 H 0.52426 0.43418 0.83479 0.0
H2290 H 0.56015 0.48266 0.83275 0.0
H2291 H 0.54772 0.45143 0.96426 0.0
C2292 C 0.56036 0.46892 0.00842 0.0
C2293 C 0.56907 0.48307 0.00946 0.0
C2294 C 0.55241 0.47199 0.83325 0.0
C2295 C 0.55824 0.46985 0.92037 0.0
C2296 C 0.54368 0.46661 0.79322 0.0
C2297 C 0.53317 0.45295 0.79313 0.0
C2298 C 0.55057 0.46374 0.87419 0.0
C2299 C 0.53216 0.44478 0.83342 0.0
C2300 C 0.55501 0.46224 0.96395 0.0
C2301 C 0.57299 0.49013 0.96494 0.0
N2302 N 0.54061 0.45036 0.8727 0.0
N2303 N 0.56738 0.48349 0.92223 0.0
H2304 H 0.5861 0.7681 0.6682 0.0
H2305 H 0.59856 0.83664 0.79933 0.0
H2306 H 0.60594 0.80797 0.60146 0.0
H2307 H 0.58289 0.79838 0.87505 0.0
H2308 H 0.59647 0.82496 0.72154 0.0
H2309 H 0.58062 0.77773 0.73967 0.0
C2310 C 0.58917 0.77882 0.66829 0.0
C2311 C 0.59669 0.78727 0.62907 0.0
C2312 C 0.59317 0.81902 0.75495 0.0
C2313 C 0.59037 0.79832 0.71031 0.0
C2314 C 0.5942 0.82568 0.7992 0.0
C2315 C 0.59081 0.81841 0.84327 0.0
C2316 C 0.58889 0.80502 0.75501 0.0
C2317 C 0.58548 0.80427 0.8415 0.0
C2318 C 0.58605 0.78431 0.70906 0.0
C2319 C 0.60034 0.80108 0.63113 0.0
N2320 N 0.58488 0.79804 0.79817 0.0
N2321 N 0.59723 0.80615 0.67101 0.0
H2322 H 0.20431 0.79995 0.59638 0.0
H2323 H 0.21373 0.78624 0.87578 0.0
H2324 H 0.24328 0.82005 0.6693 0.0
H2325 H 0.17559 0.7659 0.79838 0.0
H2326 H 0.22559 0.79574 0.79789 0.0
H2327 H 0.19455 0.78485 0.66643 0.0
C2328 C 0.21087 0.80114 0.62709 0.0
C2329 C 0.22462 0.81146 0.62715 0.0
C2330 C 0.21467 0.7889 0.79764 0.0
C2331 C 0.21338 0.79411 0.70834 0.0
C2332 C 0.20795 0.78335 0.84198 0.0
C2333 C 0.19371 0.77517 0.84314 0.0
C2334 C 0.20706 0.78637 0.75434 0.0
C2335 C 0.1866 0.77201 0.79877 0.0
C2336 C 0.20527 0.79245 0.66716 0.0
C2337 C 0.23262 0.8123 0.66775 0.0
N2338 N 0.19331 0.77776 0.75627 0.0
N2339 N 0.22684 0.80388 0.70705 0.0
H2340 H 0.24721 0.41289 0.80773 0.0
H2341 H 0.21384 0.41037 0.59343 0.0
H2342 H 0.22439 0.42941 0.87571 0.0
H2343 H 0.18949 0.42173 0.68113 0.0
H2344 H 0.22961 0.41601 0.6608 0.0
H2345 H 0.23853 0.41455 0.72832 0.0
C2346 C 0.24074 0.41738 0.8054 0.0
C2347 C 0.23654 0.42107 0.84801 0.0
C2348 C 0.22085 0.41722 0.66627 0.0
C2349 C 0.22603 0.42274 0.75687 0.0
C2350 C 0.21182 0.41406 0.62723 0.0
C2351 C 0.20019 0.41534 0.63191 0.0
C2352 C 0.2181 0.4214 0.71131 0.0
C2353 C 0.19828 0.4205 0.67607 0.0
C2354 C 0.23559 0.41824 0.75981 0.0
C2355 C 0.22792 0.42656 0.84339 0.0
N2356 N 0.20701 0.42312 0.7143 0.0
N2357 N 0.22277 0.42702 0.7988 0.0
H2358 H 0.43496 0.91667 0.16758 0.0
H2359 H 0.5036 0.93099 0.03233 0.0
H2360 H 0.47515 0.93829 0.23131 0.0
H2361 H 0.46468 0.91303 0.96016 0.0
H2362 H 0.49229 0.92905 0.11091 0.0
H2363 H 0.44463 0.91114 0.09642 0.0
C2364 C 0.44576 0.92011 0.16695 0.0
C2365 C 0.45427 0.92814 0.20521 0.0
C2366 C 0.48614 0.92522 0.07814 0.0
C2367 C 0.46537 0.9218 0.12416 0.0
C2368 C 0.4926 0.92617 0.03345 0.0
C2369 C 0.48502 0.9221 0.99008 0.0
C2370 C 0.47202 0.92031 0.07924 0.0
C2371 C 0.47082 0.91617 0.99312 0.0
C2372 C 0.45128 0.91696 0.12631 0.0
C2373 C 0.46819 0.93227 0.20241 0.0
N2374 N 0.46478 0.91565 0.03684 0.0
N2375 N 0.47329 0.92914 0.16261 0.0
H2376 H 0.07686 0.54226 0.2487 0.0
H2377 H 0.10022 0.55501 0.97036 0.0
H2378 H 0.09556 0.52173 0.17751 0.0
H2379 H 0.08389 0.57687 0.0468 0.0
H2380 H 0.10255 0.54574 0.04866 0.0
H2381 H 0.0828 0.55751 0.17882 0.0
C2382 C 0.0823 0.54099 0.21839 0.0
C2383 C 0.08551 0.53052 0.2187 0.0
C2384 C 0.09884 0.55287 0.04863 0.0
C2385 C 0.09233 0.54805 0.13784 0.0
C2386 C 0.09768 0.5583 0.00404 0.0
C2387 C 0.092 0.5668 0.0025 0.0
C2388 C 0.09406 0.55583 0.09179 0.0
C2389 C 0.08848 0.57048 0.04672 0.0
C2390 C 0.08575 0.54978 0.17846 0.0
C2391 C 0.09279 0.52959 0.17868 0.0
N2392 N 0.08936 0.5648 0.08952 0.0
N2393 N 0.09577 0.5381 0.1395 0.0
H2394 H 0.45717 0.54744 0.96262 0.0
H2395 H 0.46875 0.53752 0.24283 0.0
H2396 H 0.43431 0.50963 0.0408 0.0
H2397 H 0.48969 0.57656 0.17033 0.0
H2398 H 0.45368 0.52812 0.17255 0.0
H2399 H 0.46636 0.55925 0.0406 0.0
C2400 C 0.45367 0.54175 0.99656 0.0
C2401 C 0.44488 0.52761 0.99563 0.0
C2402 C 0.46145 0.53878 0.172 0.0
C2403 C 0.45574 0.54087 0.08466 0.0
C2404 C 0.47013 0.54417 0.21217 0.0
C2405 C 0.48067 0.55782 0.21223 0.0
C2406 C 0.46337 0.547 0.13089 0.0
C2407 C 0.48176 0.56597 0.17175 0.0
C2408 C 0.45903 0.54845 0.04099 0.0
C2409 C 0.44092 0.52058 0.04022 0.0
N2410 N 0.47337 0.56037 0.13234 0.0
N2411 N 0.44654 0.52725 0.08289 0.0
H2412 H 0.09529 0.5753 0.67725 0.0
H2413 H 0.08539 0.50771 0.54657 0.0
H2414 H 0.0772 0.53563 0.74507 0.0
H2415 H 0.09763 0.54527 0.46982 0.0
H2416 H 0.08796 0.51951 0.62455 0.0
H2417 H 0.1012 0.56608 0.60576 0.0
C2418 C 0.09272 0.56473 0.67741 0.0
C2419 C 0.08553 0.55618 0.71685 0.0
C2420 C 0.09044 0.52529 0.59077 0.0
C2421 C 0.09233 0.5456 0.63559 0.0
C2422 C 0.08915 0.51857 0.54641 0.0
C2423 C 0.0914 0.52559 0.50209 0.0
C2424 C 0.09384 0.53906 0.59056 0.0
C2425 C 0.09594 0.53959 0.50352 0.0
C2426 C 0.09608 0.55946 0.63662 0.0
C2427 C 0.08252 0.54255 0.71515 0.0
N2428 N 0.09681 0.54584 0.54701 0.0
N2429 N 0.08584 0.53769 0.67519 0.0
H2430 H 0.47572 0.54277 0.74144 0.0
H2431 H 0.46593 0.55675 0.46254 0.0
H2432 H 0.43679 0.52192 0.66835 0.0
H2433 H 0.50409 0.57701 0.53982 0.0
H2434 H 0.45413 0.54687 0.54025 0.0
H2435 H 0.48524 0.55788 0.67145 0.0
C2436 C 0.46912 0.54139 0.71063 0.0
C2437 C 0.45545 0.53087 0.71057 0.0
C2438 C 0.46503 0.55377 0.54052 0.0
C2439 C 0.46644 0.54829 0.62942 0.0
C2440 C 0.47172 0.55954 0.49631 0.0
C2441 C 0.48595 0.56778 0.49514 0.0
C2442 C 0.47268 0.55619 0.58366 0.0
C2443 C 0.49309 0.57083 0.53943 0.0
C2444 C 0.47459 0.5501 0.6706 0.0
C2445 C 0.44739 0.52981 0.66986 0.0
N2446 N 0.4864 0.5649 0.58177 0.0
N2447 N 0.45306 0.53829 0.63058 0.0
H2448 H 0.48987 0.91731 0.66479 0.0
H2449 H 0.43336 0.92897 0.53303 0.0
H2450 H 0.46929 0.9366 0.73138 0.0
H2451 H 0.45709 0.91469 0.45696 0.0
H2452 H 0.44271 0.92659 0.61098 0.0
H2453 H 0.4748 0.91168 0.59317 0.0
C2454 C 0.48209 0.9202 0.66467 0.0
C2455 C 0.48101 0.92764 0.70385 0.0
C2456 C 0.44566 0.92366 0.57742 0.0
C2457 C 0.4637 0.92116 0.62239 0.0
C2458 C 0.44016 0.92484 0.53306 0.0
C2459 C 0.44444 0.92195 0.48887 0.0
C2460 C 0.45563 0.91971 0.57739 0.0
C2461 C 0.45349 0.9169 0.49057 0.0
C2462 C 0.47351 0.917 0.62379 0.0
C2463 C 0.4707 0.93107 0.70173 0.0
N2464 N 0.45897 0.91615 0.53405 0.0
N2465 N 0.46255 0.92789 0.66172 0.0
H2466 H 0.20571 0.40653 0.10285 0.0
H2467 H 0.21529 0.42987 0.3822 0.0
H2468 H 0.24462 0.42476 0.17609 0.0
H2469 H 0.17711 0.41178 0.30498 0.0
H2470 H 0.22712 0.43202 0.30439 0.0
H2471 H 0.19608 0.41194 0.17297 0.0
C2472 C 0.21228 0.41176 0.13369 0.0
C2473 C 0.22598 0.41499 0.13377 0.0
C2474 C 0.21621 0.42793 0.30416 0.0
C2475 C 0.21486 0.4212 0.21508 0.0
C2476 C 0.20949 0.42687 0.34843 0.0
C2477 C 0.19525 0.42077 0.34965 0.0
C2478 C 0.20858 0.42272 0.26098 0.0
C2479 C 0.18812 0.41669 0.30534 0.0
C2480 C 0.20675 0.41489 0.17381 0.0
C2481 C 0.234 0.42199 0.17453 0.0
N2482 N 0.19483 0.41757 0.26293 0.0
N2483 N 0.22827 0.42469 0.21389 0.0
H2484 H 0.60334 0.80073 0.09616 0.0
H2485 H 0.58075 0.78856 0.37518 0.0
H2486 H 0.58459 0.8212 0.16736 0.0
H2487 H 0.5964 0.76615 0.29825 0.0
H2488 H 0.57822 0.79769 0.29688 0.0
H2489 H 0.59749 0.78552 0.16622 0.0
C2490 C 0.59788 0.80197 0.12648 0.0
C2491 C 0.59465 0.81242 0.12615 0.0
C2492 C 0.58183 0.79047 0.29682 0.0
C2493 C 0.58796 0.79498 0.20722 0.0
C2494 C 0.58311 0.78513 0.34143 0.0
C2495 C 0.58864 0.7765 0.34281 0.0
C2496 C 0.58635 0.78731 0.25345 0.0
C2497 C 0.59192 0.77264 0.29847 0.0
C2498 C 0.59449 0.79322 0.16651 0.0
C2499 C 0.58737 0.81335 0.16618 0.0
N2500 N 0.59094 0.77824 0.25563 0.0
N2501 N 0.58446 0.80489 0.20547 0.0
H2502 H 0.1898 0.76679 0.16709 0.0
H2503 H 0.24533 0.8354 0.2996 0.0
H2504 H 0.20928 0.80674 0.10104 0.0
H2505 H 0.22216 0.79721 0.37525 0.0
H2506 H 0.23589 0.82375 0.2216 0.0
H2507 H 0.20473 0.77651 0.23883 0.0
C2508 C 0.19731 0.77754 0.16734 0.0
C2509 C 0.19812 0.78598 0.12821 0.0
C2510 C 0.23308 0.81781 0.25507 0.0
C2511 C 0.21528 0.79714 0.20994 0.0
C2512 C 0.23863 0.82446 0.29944 0.0
C2513 C 0.23458 0.8172 0.34355 0.0
C2514 C 0.22329 0.80384 0.25498 0.0
C2515 C 0.22562 0.80309 0.34171 0.0
C2516 C 0.20581 0.78309 0.20832 0.0
C2517 C 0.20809 0.79985 0.13058 0.0
N2518 N 0.22011 0.79688 0.29822 0.0
N2519 N 0.21618 0.80498 0.17071 0.0
H2520 H 0.38011 0.2483 0.37248 0.0
H2521 H 0.30153 0.21021 0.44728 0.0
H2522 H 0.36538 0.23986 0.52102 0.0
H2523 H 0.31677 0.21036 0.30259 0.0
H2524 H 0.32457 0.22785 0.47201 0.0
H2525 H 0.35701 0.24159 0.34448 0.0
C2526 C 0.37215 0.24569 0.3994 0.0
C2527 C 0.37466 0.24477 0.44913 0.0
C2528 C 0.32277 0.22434 0.43439 0.0
C2529 C 0.34812 0.23656 0.41744 0.0
C2530 C 0.30959 0.2144 0.42017 0.0
C2531 C 0.30727 0.2089 0.37281 0.0
C2532 C 0.33364 0.22877 0.40091 0.0
C2533 C 0.31815 0.21441 0.33942 0.0
C2534 C 0.35891 0.24165 0.38341 0.0
C2535 C 0.36387 0.24086 0.48239 0.0
N2536 N 0.33087 0.22389 0.35421 0.0
N2537 N 0.35105 0.2367 0.46594 0.0
H2538 H 0.76263 0.13375 0.38244 0.0
H2539 H 0.80181 0.09346 0.44647 0.0
H2540 H 0.77561 0.13017 0.52724 0.0
H2541 H 0.8001 0.10838 0.303 0.0
H2542 H 0.78485 0.09938 0.47522 0.0
H2543 H 0.76879 0.11705 0.35275 0.0
C2544 C 0.76616 0.12896 0.4084 0.0
C2545 C 0.76854 0.13325 0.45737 0.0
C2546 C 0.78785 0.10093 0.43702 0.0
C2547 C 0.77593 0.11447 0.42366 0.0
C2548 C 0.7974 0.09739 0.42051 0.0
C2549 C 0.80229 0.10038 0.37229 0.0
C2550 C 0.78318 0.10745 0.40495 0.0
C2551 C 0.79652 0.10585 0.34043 0.0
C2552 C 0.76985 0.11957 0.39137 0.0
C2553 C 0.77353 0.12703 0.48926 0.0
N2554 N 0.78741 0.10936 0.35741 0.0
N2555 N 0.77722 0.1181 0.47179 0.0
H2556 H 0.87843 0.63151 0.3765 0.0
H2557 H 0.91612 0.7086 0.46533 0.0
H2558 H 0.88184 0.64417 0.527 0.0
H2559 H 0.90827 0.69594 0.31449 0.0
H2560 H 0.91022 0.68535 0.48865 0.0
H2561 H 0.89571 0.65485 0.35391 0.0
C2562 C 0.88331 0.63905 0.40508 0.0
C2563 C 0.87883 0.63591 0.45371 0.0
C2564 C 0.91023 0.68775 0.45022 0.0
C2565 C 0.89817 0.66273 0.42813 0.0
C2566 C 0.9138 0.70108 0.43691 0.0
C2567 C 0.91282 0.70419 0.38791 0.0
C2568 C 0.90549 0.67746 0.41426 0.0
C2569 C 0.90929 0.69395 0.35263 0.0
C2570 C 0.89303 0.65244 0.39216 0.0
C2571 C 0.88515 0.64618 0.48915 0.0
N2572 N 0.90555 0.68102 0.36651 0.0
N2573 N 0.89431 0.65915 0.47561 0.0
H2574 H 0.21273 0.29946 0.03887 0.0
H2575 H 0.25149 0.37617 0.13141 0.0
H2576 H 0.21764 0.31142 0.19051 0.0
H2577 H 0.24341 0.36416 0.98 0.0
H2578 H 0.2454 0.35277 0.15317 0.0
H2579 H 0.22996 0.32283 0.01658 0.0
C2580 C 0.21793 0.30685 0.06765 0.0
C2581 C 0.2139 0.30349 0.11661 0.0
C2582 C 0.24539 0.35533 0.11494 0.0
C2583 C 0.23317 0.33039 0.09146 0.0
C2584 C 0.24908 0.36875 0.10251 0.0
C2585 C 0.24811 0.37211 0.05381 0.0
C2586 C 0.24054 0.34519 0.07841 0.0
C2587 C 0.24444 0.362 0.01792 0.0
C2588 C 0.22763 0.32026 0.05494 0.0
C2589 C 0.22061 0.31359 0.15238 0.0
N2590 N 0.24059 0.34897 0.03096 0.0
N2591 N 0.22973 0.32661 0.13908 0.0
H2592 H 0.69717 0.90225 0.2057 0.0
H2593 H 0.64613 0.88351 0.98572 0.0
H2594 H 0.71011 0.91467 0.05698 0.0
H2595 H 0.63366 0.87447 0.13646 0.0
H2596 H 0.66927 0.89981 0.01251 0.0
H2597 H 0.6742 0.89711 0.18376 0.0
C2598 C 0.69526 0.90439 0.16875 0.0
C2599 C 0.70556 0.909 0.13318 0.0
C2600 C 0.66141 0.89466 0.03991 0.0
C2601 C 0.67906 0.9025 0.10697 0.0
C2602 C 0.64813 0.88549 0.02456 0.0
C2603 C 0.63793 0.87781 0.05896 0.0
C2604 C 0.66459 0.89592 0.09011 0.0
C2605 C 0.64117 0.88039 0.1088 0.0
C2606 C 0.68209 0.90133 0.15605 0.0
C2607 C 0.70249 0.91131 0.08561 0.0
N2608 N 0.65427 0.88901 0.12289 0.0
N2609 N 0.68944 0.90776 0.07361 0.0
H2610 H 0.10041 0.792 0.18918 0.0
H2611 H 0.12878 0.76574 0.97586 0.0
H2612 H 0.09733 0.79887 0.03579 0.0
H2613 H 0.13513 0.76217 0.12936 0.0
H2614 H 0.11127 0.7715 0.99679 0.0
H2615 H 0.10679 0.77496 0.16787 0.0
C2616 C 0.10043 0.78941 0.15096 0.0
C2617 C 0.09813 0.79667 0.11417 0.0
C2618 C 0.11613 0.76902 0.02599 0.0
C2619 C 0.1061 0.77766 0.08929 0.0
C2620 C 0.12601 0.76555 0.01399 0.0
C2621 C 0.13325 0.76328 0.05095 0.0
C2622 C 0.11366 0.77051 0.07544 0.0
C2623 C 0.1296 0.7636 0.0998 0.0
C2624 C 0.10427 0.77982 0.13876 0.0
C2625 C 0.09876 0.79329 0.06522 0.0
N2626 N 0.12023 0.7674 0.11068 0.0
N2627 N 0.10292 0.78421 0.05416 0.0
H2628 H 0.71378 0.80175 0.53684 0.0
H2629 H 0.63535 0.76056 0.61256 0.0
H2630 H 0.69927 0.79417 0.6857 0.0
H2631 H 0.65043 0.77638 0.46838 0.0
H2632 H 0.65841 0.76581 0.63635 0.0
H2633 H 0.69071 0.78543 0.50857 0.0
C2634 C 0.70588 0.79612 0.56369 0.0
C2635 C 0.70844 0.79917 0.61365 0.0
C2636 C 0.65658 0.76773 0.59902 0.0
C2637 C 0.68191 0.78094 0.58171 0.0
C2638 C 0.64338 0.76457 0.58533 0.0
C2639 C 0.64101 0.76801 0.53844 0.0
C2640 C 0.66742 0.77434 0.56548 0.0
C2641 C 0.65186 0.77354 0.50487 0.0
C2642 C 0.69265 0.78696 0.54757 0.0
C2643 C 0.69772 0.79195 0.64686 0.0
N2644 N 0.66459 0.77669 0.51917 0.0
N2645 N 0.68489 0.78335 0.63033 0.0
H2646 H 0.21454 0.9054 0.69811 0.0
H2647 H 0.24495 0.88233 0.48286 0.0
H2648 H 0.21157 0.91338 0.54575 0.0
H2649 H 0.24725 0.87392 0.63525 0.0
H2650 H 0.23871 0.89933 0.50639 0.0
H2651 H 0.23217 0.89979 0.6777 0.0
C2652 C 0.21808 0.90657 0.66056 0.0
C2653 C 0.21174 0.91003 0.62363 0.0
C2654 C 0.24103 0.89414 0.53485 0.0
C2655 C 0.23144 0.90293 0.59941 0.0
C2656 C 0.24479 0.88457 0.52139 0.0
C2657 C 0.24683 0.87689 0.55721 0.0
C2658 C 0.23899 0.89583 0.58459 0.0
C2659 C 0.24602 0.87982 0.60656 0.0
C2660 C 0.22802 0.90319 0.64877 0.0
C2661 C 0.21638 0.91099 0.57537 0.0
N2662 N 0.24192 0.88887 0.6188 0.0
N2663 N 0.22575 0.90719 0.56449 0.0
H2664 H 0.13583 0.37594 0.63528 0.0
H2665 H 0.09668 0.29926 0.54249 0.0
H2666 H 0.13079 0.364 0.4836 0.0
H2667 H 0.1049 0.31121 0.69392 0.0
H2668 H 0.10287 0.32269 0.5209 0.0
H2669 H 0.11853 0.35259 0.65757 0.0
C2670 C 0.13059 0.36855 0.6065 0.0
C2671 C 0.1346 0.37191 0.55752 0.0
C2672 C 0.10288 0.32011 0.5591 0.0
C2673 C 0.11525 0.34504 0.58266 0.0
C2674 C 0.09914 0.30667 0.57144 0.0
C2675 C 0.10013 0.30329 0.62009 0.0
C2676 C 0.10781 0.33025 0.59566 0.0
C2677 C 0.10385 0.3134 0.65604 0.0
C2678 C 0.12085 0.35516 0.61921 0.0
C2679 C 0.12784 0.36183 0.52175 0.0
N2680 N 0.10776 0.32644 0.64307 0.0
N2681 N 0.11868 0.34883 0.53503 0.0
H2682 H 0.79543 0.69857 0.81125 0.0
H2683 H 0.76712 0.64277 0.02145 0.0
H2684 H 0.80136 0.70776 0.9653 0.0
H2685 H 0.76502 0.63368 0.86755 0.0
H2686 H 0.77335 0.66624 1.00137 0.0
H2687 H 0.77825 0.67506 0.83083 0.0
C2688 C 0.79261 0.69577 0.84923 0.0
C2689 C 0.79964 0.70517 0.88672 0.0
C2690 C 0.77109 0.65904 0.97185 0.0
C2691 C 0.78045 0.67807 0.90967 0.0
C2692 C 0.76733 0.64558 0.98334 0.0
C2693 C 0.76531 0.63623 0.94607 0.0
C2694 C 0.7731 0.66327 0.92263 0.0
C2695 C 0.76621 0.6405 0.89732 0.0
C2696 C 0.78294 0.68229 0.86046 0.0
C2697 C 0.79597 0.7009 0.93534 0.0
N2698 N 0.77026 0.65376 0.88699 0.0
N2699 N 0.7868 0.68761 0.94546 0.0
H2700 H 0.3122 0.0995 0.81458 0.0
H2701 H 0.36306 0.12966 0.03607 0.0
H2702 H 0.29951 0.09429 0.96545 0.0
H2703 H 0.37613 0.13145 0.88679 0.0
H2704 H 0.34007 0.11209 0.01293 0.0
H2705 H 0.33535 0.1062 0.84094 0.0
C2706 C 0.31417 0.09913 0.85326 0.0
C2707 C 0.30389 0.09612 0.88789 0.0
C2708 C 0.348 0.11597 0.98533 0.0
C2709 C 0.33056 0.10451 0.91867 0.0
C2710 C 0.36118 0.12592 0.99871 0.0
C2711 C 0.37152 0.13189 0.96338 0.0
C2712 C 0.34501 0.11222 0.93586 0.0
C2713 C 0.36848 0.12694 0.91525 0.0
C2714 C 0.32745 0.10315 0.86839 0.0
C2715 C 0.30708 0.09627 0.93759 0.0
N2716 N 0.35543 0.1176 0.90266 0.0
N2717 N 0.32018 0.10068 0.95154 0.0
H2718 H 0.88004 0.23434 0.0334 0.0
H2719 H 0.9059 0.21275 0.80431 0.0
H2720 H 0.8781 0.24771 0.88746 0.0
H2721 H 0.91619 0.2078 0.95179 0.0
H2722 H 0.89983 0.2294 0.83353 0.0
H2723 H 0.89708 0.22862 0.00585 0.0
C2724 C 0.88364 0.23658 0.9959 0.0
C2725 C 0.87776 0.24162 0.96274 0.0
C2726 C 0.90384 0.22506 0.85945 0.0
C2727 C 0.89682 0.23446 0.93013 0.0
C2728 C 0.90744 0.21564 0.84264 0.0
C2729 C 0.9117 0.20902 0.87563 0.0
C2730 C 0.90407 0.22757 0.90997 0.0
C2731 C 0.91316 0.21284 0.92509 0.0
C2732 C 0.8933 0.2332 0.98001 0.0
C2733 C 0.88253 0.24403 0.91431 0.0
N2734 N 0.90905 0.22163 0.94095 0.0
N2735 N 0.89155 0.24014 0.89917 0.0
H2736 H 0.04717 0.58461 0.73229 0.0
H2737 H 0.98255 0.54577 0.64021 0.0
H2738 H 0.02821 0.56205 0.86396 0.0
H2739 H 0.96786 0.54102 0.7884 0.0
H2740 H 1.00539 0.56214 0.66834 0.0
H2741 H 0.02465 0.57947 0.70218 0.0
C2742 C 0.03832 0.57895 0.75547 0.0
C2743 C 0.03952 0.57364 0.80044 0.0
C2744 C 0.99716 0.5581 0.69471 0.0
C2745 C 0.01368 0.5672 0.76565 0.0
C2746 C 0.98405 0.54874 0.67846 0.0
C2747 C 0.97327 0.54221 0.71192 0.0
C2748 C 0.99961 0.5607 0.74516 0.0
C2749 C 0.97584 0.54604 0.76131 0.0
C2750 C 0.02541 0.57578 0.73794 0.0
C2751 C 0.02771 0.56625 0.82886 0.0
N2752 N 0.9888 0.55477 0.77661 0.0
N2753 N 0.01531 0.56312 0.8108 0.0
H2754 H 0.44227 0.46473 0.87158 0.0
H2755 H 0.46244 0.43361 0.65122 0.0
H2756 H 0.43092 0.46615 0.7221 0.0
H2757 H 0.47087 0.42967 0.80221 0.0
H2758 H 0.446 0.44033 0.67755 0.0
H2759 H 0.44768 0.44711 0.8492 0.0
C2760 C 0.4404 0.4609 0.83434 0.0
C2761 C 0.43601 0.46678 0.79874 0.0
C2762 C 0.45105 0.43754 0.70508 0.0
C2763 C 0.44284 0.44704 0.77207 0.0
C2764 C 0.4603 0.43351 0.68998 0.0
C2765 C 0.46784 0.43086 0.72461 0.0
C2766 C 0.44957 0.43928 0.75527 0.0
C2767 C 0.46506 0.43137 0.77437 0.0
C2768 C 0.44363 0.45092 0.8214 0.0
C2769 C 0.43408 0.46171 0.75077 0.0
N2770 N 0.45636 0.43577 0.78823 0.0
N2771 N 0.43778 0.45233 0.7386 0.0
H2772 H 0.57838 0.03292 0.64869 0.0
H2773 H 0.54984 0.97729 0.85936 0.0
H2774 H 0.58049 0.04215 0.80246 0.0
H2775 H 0.54415 0.96797 0.70535 0.0
H2776 H 0.56705 1.00078 0.83973 0.0
H2777 H 0.57211 0.00946 0.66908 0.0
C2778 C 0.57816 0.03014 0.68684 0.0
C2779 C 0.58019 0.03953 0.72398 0.0
C2780 C 0.56241 0.99353 0.81014 0.0
C2781 C 0.57236 0.0125 0.74778 0.0
C2782 C 0.55272 0.98005 0.82141 0.0
C2783 C 0.54575 0.97063 0.78393 0.0
C2784 C 0.56497 0.99771 0.7609 0.0
C2785 C 0.54949 0.97486 0.73531 0.0
C2786 C 0.57439 0.01669 0.69851 0.0
C2787 C 0.57929 0.0353 0.77279 0.0
N2788 N 0.55868 0.98814 0.72515 0.0
N2789 N 0.57522 0.02204 0.7833 0.0
H2790 H 0.46729 0.04392 0.29485 0.0
H2791 H 0.42953 0.967 0.20462 0.0
H2792 H 0.46373 0.0315 0.144 0.0
H2793 H 0.43677 0.97937 0.35585 0.0
H2794 H 0.43555 0.99029 0.18157 0.0
H2795 H 0.44993 0.02058 0.31706 0.0
C2796 C 0.46237 0.03643 0.26613 0.0
C2797 C 0.46682 0.03964 0.2175 0.0
C2798 C 0.43538 0.98783 0.22 0.0
C2799 C 0.4474 0.0128 0.24264 0.0
C2800 C 0.43174 0.97447 0.23316 0.0
C2801 C 0.43251 0.97126 0.28221 0.0
C2802 C 0.44 0.99805 0.25618 0.0
C2803 C 0.4359 0.98143 0.31765 0.0
C2804 C 0.4526 0.02304 0.27883 0.0
C2805 C 0.46045 0.02944 0.18186 0.0
N2806 N 0.43973 0.9944 0.30393 0.0
N2807 N 0.45124 0.01646 0.19518 0.0
H2808 H 0.04692 0.46659 0.22071 0.0
H2809 H 0.96736 0.42641 0.28333 0.0
H2810 H 0.03013 0.46315 0.36506 0.0
H2811 H 0.98419 0.4413 0.14006 0.0
H2812 H 0.99019 0.43231 0.31253 0.0
H2813 H 0.0241 0.44991 0.1907 0.0
C2814 C 0.03856 0.46184 0.24651 0.0
C2815 C 0.04039 0.46617 0.29544 0.0
C2816 C 0.9888 0.43386 0.27428 0.0
C2817 C 0.01427 0.44739 0.26136 0.0
C2818 C 0.97574 0.43033 0.25751 0.0
C2819 C 0.97391 0.43332 0.20921 0.0
C2820 C 1.00004 0.44037 0.24238 0.0
C2821 C 0.98519 0.43877 0.17754 0.0
C2822 C 0.0255 0.45246 0.2293 0.0
C2823 C 0.02913 0.45999 0.32711 0.0
N2824 N 0.99778 0.44227 0.19477 0.0
N2825 N 0.01654 0.45106 0.30946 0.0
H2826 H 0.55112 0.57672 0.35486 0.0
H2827 H 0.57117 0.54584 0.13368 0.0
H2828 H 0.54295 0.58116 0.20406 0.0
H2829 H 0.58281 0.54445 0.28278 0.0
H2830 H 0.5658 0.56346 0.15648 0.0
H2831 H 0.56753 0.56999 0.32824 0.0
C2832 C 0.55331 0.57692 0.3161 0.0
C2833 C 0.54585 0.57972 0.28159 0.0
C2834 C 0.56991 0.55965 0.18411 0.0
C2835 C 0.56408 0.57129 0.25057 0.0
C2836 C 0.57311 0.54967 0.17092 0.0
C2837 C 0.57757 0.54379 0.20631 0.0
C2838 C 0.57079 0.56354 0.23346 0.0
C2839 C 0.57959 0.54887 0.25428 0.0
C2840 C 0.56254 0.57289 0.30083 0.0
C2841 C 0.54869 0.57935 0.23181 0.0
N2842 N 0.57591 0.55825 0.2667 0.0
N2843 N 0.55737 0.57494 0.21776 0.0
loop_
_geom_bond_atom_site_label_1
_geom_bond_atom_site_label_2
_geom_bond_distance
_geom_bond_site_symmetry_2
_ccdc_geom_bond_type
Co0 O3 1.970 . S
Co0 N17 1.989 . S
Co0 O25 1.967 . S
Co0 O32 1.920 . S
Co1 O4 1.966 . S
Co1 N10 2.022 . S
Co1 N18 1.993 . S
Co1 O26 1.941 . S
C2 O3 1.258 . S
C2 O4 1.263 . S
O3 Co0 1.970 . S
O3 C2 1.258 . S
O4 Co1 1.966 . S
O4 C2 1.263 . S
C5 O6 1.235 . S
C5 O32 1.289 . S
O6 C5 1.235 . S
C7 C9 1.400 . S
C7 N10 1.351 . S
C7 C12 1.501 . S
C8 C9 1.387 . S
C8 N11 1.341 . S
C9 C7 1.400 . S
C9 C8 1.387 . S
N10 Co1 2.022 . S
N10 C7 1.351 . S
N10 N11 1.365 . S
N11 C8 1.341 . S
N11 N10 1.365 . S
N11 H31 0.862 . S
C12 C7 1.501 . S
C12 H13 0.961 . S
C12 H14 0.961 . S
C12 H15 0.960 . S
H13 C12 0.961 . S
H14 C12 0.961 . S
H15 C12 0.960 . S
C16 N17 1.342 . S
C16 C20 1.401 . S
C16 C21 1.499 . S
N17 Co0 1.989 . S
N17 C16 1.342 . S
N17 N18 1.388 . S
N18 Co1 1.993 . S
N18 N17 1.388 . S
N18 C19 1.346 . S
C19 N18 1.346 . S
C19 C20 1.396 . S
C19 C29 1.510 . S
C20 C16 1.401 . S
C20 C19 1.396 . S
C21 C16 1.499 . S
C21 H22 0.959 . S
C21 H23 0.960 . S
C21 H24 0.961 . S
H22 C21 0.959 . S
H23 C21 0.960 . S
H24 C21 0.961 . S
O25 Co0 1.967 . S
O25 C33 1.258 . S
O26 Co1 1.941 . S
O26 C33 1.266 . S
H27 C29 0.959 . S
H28 C29 0.961 . S
C29 C19 1.510 . S
C29 H27 0.959 . S
C29 H28 0.961 . S
C29 H30 0.960 . S
H30 C29 0.960 . S
H31 N11 0.862 . S
O32 Co0 1.920 . S
O32 C5 1.289 . S
C33 O25 1.258 . S
C33 O26 1.266 . S
Co34 O37 1.970 . S
Co34 N51 1.989 . S
Co34 O59 1.967 . S
Co34 O66 1.920 . S
Co35 O38 1.966 . S
Co35 N44 2.022 . S
Co35 N52 1.993 . S
Co35 O60 1.941 . S
C36 O37 1.258 . S
C36 O38 1.263 . S
O37 Co34 1.970 . S
O37 C36 1.258 . S
O38 Co35 1.966 . S
O38 C36 1.263 . S
C39 O40 1.235 . S
C39 O66 1.289 . S
O40 C39 1.235 . S
C41 C43 1.400 . S
C41 N44 1.351 . S
C41 C46 1.501 . S
C42 C43 1.387 . S
C42 N45 1.341 . S
C43 C41 1.400 . S
C43 C42 1.387 . S
N44 Co35 2.022 . S
N44 C41 1.351 . S
N44 N45 1.365 . S
N45 C42 1.341 . S
N45 N44 1.365 . S
N45 H65 0.862 . S
C46 C41 1.501 . S
C46 H47 0.961 . S
C46 H48 0.961 . S
C46 H49 0.960 . S
H47 C46 0.961 . S
H48 C46 0.961 . S
H49 C46 0.960 . S
C50 N51 1.342 . S
C50 C54 1.401 . S
C50 C55 1.499 . S
N51 Co34 1.989 . S
N51 C50 1.342 . S
N51 N52 1.388 . S
N52 Co35 1.993 . S
N52 N51 1.388 . S
N52 C53 1.346 . S
C53 N52 1.346 . S
C53 C54 1.396 . S
C53 C63 1.510 . S
C54 C50 1.401 . S
C54 C53 1.396 . S
C55 C50 1.499 . S
C55 H56 0.959 . S
C55 H57 0.960 . S
C55 H58 0.961 . S
H56 C55 0.959 . S
H57 C55 0.960 . S
H58 C55 0.961 . S
O59 Co34 1.967 . S
O59 C67 1.258 . S
O60 Co35 1.941 . S
O60 C67 1.266 . S
H61 C63 0.959 . S
H62 C63 0.961 . S
C63 C53 1.510 . S
C63 H61 0.959 . S
C63 H62 0.961 . S
C63 H64 0.960 . S
H64 C63 0.960 . S
H65 N45 0.862 . S
O66 Co34 1.920 . S
O66 C39 1.289 . S
C67 O59 1.258 . S
C67 O60 1.266 . S
Co68 O71 1.970 . S
Co68 N85 1.989 . S
Co68 O93 1.967 . S
Co68 O100 1.920 . S
Co69 O72 1.966 . S
Co69 N78 2.022 . S
Co69 N86 1.993 . S
Co69 O94 1.941 . S
C70 O71 1.258 . S
C70 O72 1.263 . S
O71 Co68 1.970 . S
O71 C70 1.258 . S
O72 Co69 1.966 . S
O72 C70 1.263 . S
C73 O74 1.235 . S
C73 O100 1.289 . S
O74 C73 1.235 . S
C75 C77 1.400 . S
C75 N78 1.351 . S
C75 C80 1.501 . S
C76 C77 1.387 . S
C76 N79 1.341 . S
C77 C75 1.400 . S
C77 C76 1.387 . S
N78 Co69 2.022 . S
N78 C75 1.351 . S
N78 N79 1.365 . S
N79 C76 1.341 . S
N79 N78 1.365 . S
N79 H99 0.862 . S
C80 C75 1.501 . S
C80 H81 0.961 . S
C80 H82 0.961 . S
C80 H83 0.960 . S
H81 C80 0.961 . S
H82 C80 0.961 . S
H83 C80 0.960 . S
C84 N85 1.342 . S
C84 C88 1.401 . S
C84 C89 1.499 . S
N85 Co68 1.989 . S
N85 C84 1.342 . S
N85 N86 1.388 . S
N86 Co69 1.993 . S
N86 N85 1.388 . S
N86 C87 1.346 . S
C87 N86 1.346 . S
C87 C88 1.396 . S
C87 C97 1.510 . S
C88 C84 1.401 . S
C88 C87 1.396 . S
C89 C84 1.499 . S
C89 H90 0.959 . S
C89 H91 0.960 . S
C89 H92 0.961 . S
H90 C89 0.959 . S
H91 C89 0.960 . S
H92 C89 0.961 . S
O93 Co68 1.967 . S
O93 C101 1.258 . S
O94 Co69 1.941 . S
O94 C101 1.266 . S
H95 C97 0.959 . S
H96 C97 0.961 . S
C97 C87 1.510 . S
C97 H95 0.959 . S
C97 H96 0.961 . S
C97 H98 0.960 . S
H98 C97 0.960 . S
H99 N79 0.862 . S
O100 Co68 1.920 . S
O100 C73 1.289 . S
C101 O93 1.258 . S
C101 O94 1.266 . S
Co102 O105 1.970 . S
Co102 N119 1.989 . S
Co102 O127 1.967 . S
Co102 O134 1.920 . S
Co103 O106 1.966 . S
Co103 N112 2.022 . S
Co103 N120 1.993 . S
Co103 O128 1.941 . S
C104 O105 1.258 . S
C104 O106 1.263 . S
O105 Co102 1.970 . S
O105 C104 1.258 . S
O106 Co103 1.966 . S
O106 C104 1.263 . S
C107 O108 1.235 . S
C107 O134 1.289 . S
O108 C107 1.235 . S
C109 C111 1.400 . S
C109 N112 1.351 . S
C109 C114 1.501 . S
C110 C111 1.387 . S
C110 N113 1.341 . S
C111 C109 1.400 . S
C111 C110 1.387 . S
N112 Co103 2.022 . S
N112 C109 1.351 . S
N112 N113 1.365 . S
N113 C110 1.341 . S
N113 N112 1.365 . S
N113 H133 0.862 . S
C114 C109 1.501 . S
C114 H115 0.961 . S
C114 H116 0.961 . S
C114 H117 0.960 . S
H115 C114 0.961 . S
H116 C114 0.961 . S
H117 C114 0.960 . S
C118 N119 1.342 . S
C118 C122 1.401 . S
C118 C123 1.499 . S
N119 Co102 1.989 . S
N119 C118 1.342 . S
N119 N120 1.388 . S
N120 Co103 1.993 . S
N120 N119 1.388 . S
N120 C121 1.346 . S
C121 N120 1.346 . S
C121 C122 1.396 . S
C121 C131 1.510 . S
C122 C118 1.401 . S
C122 C121 1.396 . S
C123 C118 1.499 . S
C123 H124 0.959 . S
C123 H125 0.960 . S
C123 H126 0.961 . S
H124 C123 0.959 . S
H125 C123 0.960 . S
H126 C123 0.961 . S
O127 Co102 1.967 . S
O127 C135 1.258 . S
O128 Co103 1.941 . S
O128 C135 1.266 . S
H129 C131 0.959 . S
H130 C131 0.961 . S
C131 C121 1.510 . S
C131 H129 0.959 . S
C131 H130 0.961 . S
C131 H132 0.960 . S
H132 C131 0.960 . S
H133 N113 0.862 . S
O134 Co102 1.920 . S
O134 C107 1.289 . S
C135 O127 1.258 . S
C135 O128 1.266 . S
Co136 O139 1.970 . S
Co136 N153 1.989 . S
Co136 O161 1.967 . S
Co136 O168 1.920 . S
Co137 O140 1.966 . S
Co137 N146 2.022 . S
Co137 N154 1.993 . S
Co137 O162 1.941 . S
C138 O139 1.258 . S
C138 O140 1.263 . S
O139 Co136 1.970 . S
O139 C138 1.258 . S
O140 Co137 1.966 . S
O140 C138 1.263 . S
C141 O142 1.235 . S
C141 O168 1.289 . S
O142 C141 1.235 . S
C143 C145 1.400 . S
C143 N146 1.351 . S
C143 C148 1.501 . S
C144 C145 1.387 . S
C144 N147 1.341 . S
C145 C143 1.400 . S
C145 C144 1.387 . S
N146 Co137 2.022 . S
N146 C143 1.351 . S
N146 N147 1.365 . S
N147 C144 1.341 . S
N147 N146 1.365 . S
N147 H167 0.862 . S
C148 C143 1.501 . S
C148 H149 0.961 . S
C148 H150 0.961 . S
C148 H151 0.960 . S
H149 C148 0.961 . S
H150 C148 0.961 . S
H151 C148 0.960 . S
C152 N153 1.342 . S
C152 C156 1.401 . S
C152 C157 1.499 . S
N153 Co136 1.989 . S
N153 C152 1.342 . S
N153 N154 1.388 . S
N154 Co137 1.993 . S
N154 N153 1.388 . S
N154 C155 1.346 . S
C155 N154 1.346 . S
C155 C156 1.396 . S
C155 C165 1.510 . S
C156 C152 1.401 . S
C156 C155 1.396 . S
C157 C152 1.499 . S
C157 H158 0.959 . S
C157 H159 0.960 . S
C157 H160 0.961 . S
H158 C157 0.959 . S
H159 C157 0.960 . S
H160 C157 0.961 . S
O161 Co136 1.967 . S
O161 C169 1.258 . S
O162 Co137 1.941 . S
O162 C169 1.266 . S
H163 C165 0.959 . S
H164 C165 0.961 . S
C165 C155 1.510 . S
C165 H163 0.959 . S
C165 H164 0.961 . S
C165 H166 0.960 . S
H166 C165 0.960 . S
H167 N147 0.862 . S
O168 Co136 1.920 . S
O168 C141 1.289 . S
C169 O161 1.258 . S
C169 O162 1.266 . S
Co170 O173 1.970 . S
Co170 N187 1.989 . S
Co170 O195 1.967 . S
Co170 O202 1.920 . S
Co171 O174 1.966 . S
Co171 N180 2.022 . S
Co171 N188 1.993 . S
Co171 O196 1.941 . S
C172 O173 1.258 . S
C172 O174 1.263 . S
O173 Co170 1.970 . S
O173 C172 1.258 . S
O174 Co171 1.966 . S
O174 C172 1.263 . S
C175 O176 1.235 . S
C175 O202 1.289 . S
O176 C175 1.235 . S
C177 C179 1.400 . S
C177 N180 1.351 . S
C177 C182 1.501 . S
C178 C179 1.387 . S
C178 N181 1.341 . S
C179 C177 1.400 . S
C179 C178 1.387 . S
N180 Co171 2.022 . S
N180 C177 1.351 . S
N180 N181 1.365 . S
N181 C178 1.341 . S
N181 N180 1.365 . S
N181 H201 0.862 . S
C182 C177 1.501 . S
C182 H183 0.961 . S
C182 H184 0.961 . S
C182 H185 0.960 . S
H183 C182 0.961 . S
H184 C182 0.961 . S
H185 C182 0.960 . S
C186 N187 1.342 . S
C186 C190 1.401 . S
C186 C191 1.499 . S
N187 Co170 1.989 . S
N187 C186 1.342 . S
N187 N188 1.388 . S
N188 Co171 1.993 . S
N188 N187 1.388 . S
N188 C189 1.346 . S
C189 N188 1.346 . S
C189 C190 1.396 . S
C189 C199 1.510 . S
C190 C186 1.401 . S
C190 C189 1.396 . S
C191 C186 1.499 . S
C191 H192 0.959 . S
C191 H193 0.960 . S
C191 H194 0.961 . S
H192 C191 0.959 . S
H193 C191 0.960 . S
H194 C191 0.961 . S
O195 Co170 1.967 . S
O195 C203 1.258 . S
O196 Co171 1.941 . S
O196 C203 1.266 . S
H197 C199 0.959 . S
H198 C199 0.961 . S
C199 C189 1.510 . S
C199 H197 0.959 . S
C199 H198 0.961 . S
C199 H200 0.960 . S
H200 C199 0.960 . S
H201 N181 0.862 . S
O202 Co170 1.920 . S
O202 C175 1.289 . S
C203 O195 1.258 . S
C203 O196 1.266 . S
Co204 O207 1.970 . S
Co204 N221 1.989 . S
Co204 O229 1.967 . S
Co204 O236 1.920 . S
Co205 O208 1.966 . S
Co205 N214 2.022 . S
Co205 N222 1.993 . S
Co205 O230 1.941 . S
C206 O207 1.258 . S
C206 O208 1.263 . S
O207 Co204 1.970 . S
O207 C206 1.258 . S
O208 Co205 1.966 . S
O208 C206 1.263 . S
C209 O210 1.235 . S
C209 O236 1.289 . S
O210 C209 1.235 . S
C211 C213 1.400 . S
C211 N214 1.351 . S
C211 C216 1.501 . S
C212 C213 1.387 . S
C212 N215 1.341 . S
C213 C211 1.400 . S
C213 C212 1.387 . S
N214 Co205 2.022 . S
N214 C211 1.351 . S
N214 N215 1.365 . S
N215 C212 1.341 . S
N215 N214 1.365 . S
N215 H235 0.862 . S
C216 C211 1.501 . S
C216 H217 0.961 . S
C216 H218 0.961 . S
C216 H219 0.960 . S
H217 C216 0.961 . S
H218 C216 0.961 . S
H219 C216 0.960 . S
C220 N221 1.342 . S
C220 C224 1.401 . S
C220 C225 1.499 . S
N221 Co204 1.989 . S
N221 C220 1.342 . S
N221 N222 1.388 . S
N222 Co205 1.993 . S
N222 N221 1.388 . S
N222 C223 1.346 . S
C223 N222 1.346 . S
C223 C224 1.396 . S
C223 C233 1.510 . S
C224 C220 1.401 . S
C224 C223 1.396 . S
C225 C220 1.499 . S
C225 H226 0.959 . S
C225 H227 0.960 . S
C225 H228 0.961 . S
H226 C225 0.959 . S
H227 C225 0.960 . S
H228 C225 0.961 . S
O229 Co204 1.967 . S
O229 C237 1.258 . S
O230 Co205 1.941 . S
O230 C237 1.266 . S
H231 C233 0.959 . S
H232 C233 0.961 . S
C233 C223 1.510 . S
C233 H231 0.959 . S
C233 H232 0.961 . S
C233 H234 0.960 . S
H234 C233 0.960 . S
H235 N215 0.862 . S
O236 Co204 1.920 . S
O236 C209 1.289 . S
C237 O229 1.258 . S
C237 O230 1.266 . S
Co238 O241 1.970 . S
Co238 N255 1.989 . S
Co238 O263 1.967 . S
Co238 O270 1.920 . S
Co239 O242 1.966 . S
Co239 N248 2.022 . S
Co239 N256 1.993 . S
Co239 O264 1.941 . S
C240 O241 1.258 . S
C240 O242 1.263 . S
O241 Co238 1.970 . S
O241 C240 1.258 . S
O242 Co239 1.966 . S
O242 C240 1.263 . S
C243 O244 1.235 . S
C243 O270 1.289 . S
O244 C243 1.235 . S
C245 C247 1.400 . S
C245 N248 1.351 . S
C245 C250 1.501 . S
C246 C247 1.387 . S
C246 N249 1.341 . S
C247 C245 1.400 . S
C247 C246 1.387 . S
N248 Co239 2.022 . S
N248 C245 1.351 . S
N248 N249 1.365 . S
N249 C246 1.341 . S
N249 N248 1.365 . S
N249 H269 0.862 . S
C250 C245 1.501 . S
C250 H251 0.961 . S
C250 H252 0.961 . S
C250 H253 0.960 . S
H251 C250 0.961 . S
H252 C250 0.961 . S
H253 C250 0.960 . S
C254 N255 1.342 . S
C254 C258 1.401 . S
C254 C259 1.499 . S
N255 Co238 1.989 . S
N255 C254 1.342 . S
N255 N256 1.388 . S
N256 Co239 1.993 . S
N256 N255 1.388 . S
N256 C257 1.346 . S
C257 N256 1.346 . S
C257 C258 1.396 . S
C257 C267 1.510 . S
C258 C254 1.401 . S
C258 C257 1.396 . S
C259 C254 1.499 . S
C259 H260 0.959 . S
C259 H261 0.960 . S
C259 H262 0.961 . S
H260 C259 0.959 . S
H261 C259 0.960 . S
H262 C259 0.961 . S
O263 Co238 1.967 . S
O263 C271 1.258 . S
O264 Co239 1.941 . S
O264 C271 1.266 . S
H265 C267 0.959 . S
H266 C267 0.961 . S
C267 C257 1.510 . S
C267 H265 0.959 . S
C267 H266 0.961 . S
C267 H268 0.960 . S
H268 C267 0.960 . S
H269 N249 0.862 . S
O270 Co238 1.920 . S
O270 C243 1.289 . S
C271 O263 1.258 . S
C271 O264 1.266 . S
Co272 O275 1.970 . S
Co272 N289 1.989 . S
Co272 O297 1.967 . S
Co272 O304 1.920 . S
Co273 O276 1.966 . S
Co273 N282 2.022 . S
Co273 N290 1.993 . S
Co273 O298 1.941 . S
C274 O275 1.258 . S
C274 O276 1.263 . S
O275 Co272 1.970 . S
O275 C274 1.258 . S
O276 Co273 1.966 . S
O276 C274 1.263 . S
C277 O278 1.235 . S
C277 O304 1.289 . S
O278 C277 1.235 . S
C279 C281 1.400 . S
C279 N282 1.351 . S
C279 C284 1.501 . S
C280 C281 1.387 . S
C280 N283 1.341 . S
C281 C279 1.400 . S
C281 C280 1.387 . S
N282 Co273 2.022 . S
N282 C279 1.351 . S
N282 N283 1.365 . S
N283 C280 1.341 . S
N283 N282 1.365 . S
N283 H303 0.862 . S
C284 C279 1.501 . S
C284 H285 0.961 . S
C284 H286 0.961 . S
C284 H287 0.960 . S
H285 C284 0.961 . S
H286 C284 0.961 . S
H287 C284 0.960 . S
C288 N289 1.342 . S
C288 C292 1.401 . S
C288 C293 1.499 . S
N289 Co272 1.989 . S
N289 C288 1.342 . S
N289 N290 1.388 . S
N290 Co273 1.993 . S
N290 N289 1.388 . S
N290 C291 1.346 . S
C291 N290 1.346 . S
C291 C292 1.396 . S
C291 C301 1.510 . S
C292 C288 1.401 . S
C292 C291 1.396 . S
C293 C288 1.499 . S
C293 H294 0.959 . S
C293 H295 0.960 . S
C293 H296 0.961 . S
H294 C293 0.959 . S
H295 C293 0.960 . S
H296 C293 0.961 . S
O297 Co272 1.967 . S
O297 C305 1.258 . S
O298 Co273 1.941 . S
O298 C305 1.266 . S
H299 C301 0.959 . S
H300 C301 0.961 . S
C301 C291 1.510 . S
C301 H299 0.959 . S
C301 H300 0.961 . S
C301 H302 0.960 . S
H302 C301 0.960 . S
H303 N283 0.862 . S
O304 Co272 1.920 . S
O304 C277 1.289 . S
C305 O297 1.258 . S
C305 O298 1.266 . S
Co306 O309 1.970 . S
Co306 N323 1.989 . S
Co306 O331 1.967 . S
Co306 O338 1.920 . S
Co307 O310 1.966 . S
Co307 N316 2.022 . S
Co307 N324 1.993 . S
Co307 O332 1.941 . S
C308 O309 1.258 . S
C308 O310 1.263 . S
O309 Co306 1.970 . S
O309 C308 1.258 . S
O310 Co307 1.966 . S
O310 C308 1.263 . S
C311 O312 1.235 . S
C311 O338 1.289 . S
O312 C311 1.235 . S
C313 C315 1.400 . S
C313 N316 1.351 . S
C313 C318 1.501 . S
C314 C315 1.387 . S
C314 N317 1.341 . S
C315 C313 1.400 . S
C315 C314 1.387 . S
N316 Co307 2.022 . S
N316 C313 1.351 . S
N316 N317 1.365 . S
N317 C314 1.341 . S
N317 N316 1.365 . S
N317 H337 0.862 . S
C318 C313 1.501 . S
C318 H319 0.961 . S
C318 H320 0.961 . S
C318 H321 0.960 . S
H319 C318 0.961 . S
H320 C318 0.961 . S
H321 C318 0.960 . S
C322 N323 1.342 . S
C322 C326 1.401 . S
C322 C327 1.499 . S
N323 Co306 1.989 . S
N323 C322 1.342 . S
N323 N324 1.388 . S
N324 Co307 1.993 . S
N324 N323 1.388 . S
N324 C325 1.346 . S
C325 N324 1.346 . S
C325 C326 1.396 . S
C325 C335 1.510 . S
C326 C322 1.401 . S
C326 C325 1.396 . S
C327 C322 1.499 . S
C327 H328 0.959 . S
C327 H329 0.960 . S
C327 H330 0.961 . S
H328 C327 0.959 . S
H329 C327 0.960 . S
H330 C327 0.961 . S
O331 Co306 1.967 . S
O331 C339 1.258 . S
O332 Co307 1.941 . S
O332 C339 1.266 . S
H333 C335 0.959 . S
H334 C335 0.961 . S
C335 C325 1.510 . S
C335 H333 0.959 . S
C335 H334 0.961 . S
C335 H336 0.960 . S
H336 C335 0.960 . S
H337 N317 0.862 . S
O338 Co306 1.920 . S
O338 C311 1.289 . S
C339 O331 1.258 . S
C339 O332 1.266 . S
Co340 O343 1.970 . S
Co340 N357 1.989 . S
Co340 O365 1.967 . S
Co340 O372 1.920 . S
Co341 O344 1.966 . S
Co341 N350 2.022 . S
Co341 N358 1.993 . S
Co341 O366 1.941 . S
C342 O343 1.258 . S
C342 O344 1.263 . S
O343 Co340 1.970 . S
O343 C342 1.258 . S
O344 Co341 1.966 . S
O344 C342 1.263 . S
C345 O346 1.235 . S
C345 O372 1.289 . S
O346 C345 1.235 . S
C347 C349 1.400 . S
C347 N350 1.351 . S
C347 C352 1.501 . S
C348 C349 1.387 . S
C348 N351 1.341 . S
C349 C347 1.400 . S
C349 C348 1.387 . S
N350 Co341 2.022 . S
N350 C347 1.351 . S
N350 N351 1.365 . S
N351 C348 1.341 . S
N351 N350 1.365 . S
N351 H371 0.862 . S
C352 C347 1.501 . S
C352 H353 0.961 . S
C352 H354 0.961 . S
C352 H355 0.960 . S
H353 C352 0.961 . S
H354 C352 0.961 . S
H355 C352 0.960 . S
C356 N357 1.342 . S
C356 C360 1.401 . S
C356 C361 1.499 . S
N357 Co340 1.989 . S
N357 C356 1.342 . S
N357 N358 1.388 . S
N358 Co341 1.993 . S
N358 N357 1.388 . S
N358 C359 1.346 . S
C359 N358 1.346 . S
C359 C360 1.396 . S
C359 C369 1.510 . S
C360 C356 1.401 . S
C360 C359 1.396 . S
C361 C356 1.499 . S
C361 H362 0.959 . S
C361 H363 0.960 . S
C361 H364 0.961 . S
H362 C361 0.959 . S
H363 C361 0.960 . S
H364 C361 0.961 . S
O365 Co340 1.967 . S
O365 C373 1.258 . S
O366 Co341 1.941 . S
O366 C373 1.266 . S
H367 C369 0.959 . S
H368 C369 0.961 . S
C369 C359 1.510 . S
C369 H367 0.959 . S
C369 H368 0.961 . S
C369 H370 0.960 . S
H370 C369 0.960 . S
H371 N351 0.862 . S
O372 Co340 1.920 . S
O372 C345 1.289 . S
C373 O365 1.258 . S
C373 O366 1.266 . S
Co374 O377 1.970 . S
Co374 N391 1.989 . S
Co374 O399 1.967 . S
Co374 O406 1.920 . S
Co375 O378 1.966 . S
Co375 N384 2.022 . S
Co375 N392 1.993 . S
Co375 O400 1.941 . S
C376 O377 1.258 . S
C376 O378 1.263 . S
O377 Co374 1.970 . S
O377 C376 1.258 . S
O378 Co375 1.966 . S
O378 C376 1.263 . S
C379 O380 1.235 . S
C379 O406 1.289 . S
O380 C379 1.235 . S
C381 C383 1.400 . S
C381 N384 1.351 . S
C381 C386 1.501 . S
C382 C383 1.387 . S
C382 N385 1.341 . S
C383 C381 1.400 . S
C383 C382 1.387 . S
N384 Co375 2.022 . S
N384 C381 1.351 . S
N384 N385 1.365 . S
N385 C382 1.341 . S
N385 N384 1.365 . S
N385 H405 0.862 . S
C386 C381 1.501 . S
C386 H387 0.961 . S
C386 H388 0.961 . S
C386 H389 0.960 . S
H387 C386 0.961 . S
H388 C386 0.961 . S
H389 C386 0.960 . S
C390 N391 1.342 . S
C390 C394 1.401 . S
C390 C395 1.499 . S
N391 Co374 1.989 . S
N391 C390 1.342 . S
N391 N392 1.388 . S
N392 Co375 1.993 . S
N392 N391 1.388 . S
N392 C393 1.346 . S
C393 N392 1.346 . S
C393 C394 1.396 . S
C393 C403 1.510 . S
C394 C390 1.401 . S
C394 C393 1.396 . S
C395 C390 1.499 . S
C395 H396 0.959 . S
C395 H397 0.960 . S
C395 H398 0.961 . S
H396 C395 0.959 . S
H397 C395 0.960 . S
H398 C395 0.961 . S
O399 Co374 1.967 . S
O399 C407 1.258 . S
O400 Co375 1.941 . S
O400 C407 1.266 . S
H401 C403 0.959 . S
H402 C403 0.961 . S
C403 C393 1.510 . S
C403 H401 0.959 . S
C403 H402 0.961 . S
C403 H404 0.960 . S
H404 C403 0.960 . S
H405 N385 0.862 . S
O406 Co374 1.920 . S
O406 C379 1.289 . S
C407 O399 1.258 . S
C407 O400 1.266 . S
Co408 O411 1.970 . S
Co408 N425 1.989 . S
Co408 O433 1.967 . S
Co408 O440 1.920 . S
Co409 O412 1.966 . S
Co409 N418 2.022 . S
Co409 N426 1.993 . S
Co409 O434 1.941 . S
C410 O411 1.258 . S
C410 O412 1.263 . S
O411 Co408 1.970 . S
O411 C410 1.258 . S
O412 Co409 1.966 . S
O412 C410 1.263 . S
C413 O414 1.235 . S
C413 O440 1.289 . S
O414 C413 1.235 . S
C415 C417 1.400 . S
C415 N418 1.351 . S
C415 C420 1.501 . S
C416 C417 1.387 . S
C416 N419 1.341 . S
C417 C415 1.400 . S
C417 C416 1.387 . S
N418 Co409 2.022 . S
N418 C415 1.351 . S
N418 N419 1.365 . S
N419 C416 1.341 . S
N419 N418 1.365 . S
N419 H439 0.862 . S
C420 C415 1.501 . S
C420 H421 0.961 . S
C420 H422 0.961 . S
C420 H423 0.960 . S
H421 C420 0.961 . S
H422 C420 0.961 . S
H423 C420 0.960 . S
C424 N425 1.342 . S
C424 C428 1.401 . S
C424 C429 1.499 . S
N425 Co408 1.989 . S
N425 C424 1.342 . S
N425 N426 1.388 . S
N426 Co409 1.993 . S
N426 N425 1.388 . S
N426 C427 1.346 . S
C427 N426 1.346 . S
C427 C428 1.396 . S
C427 C437 1.510 . S
C428 C424 1.401 . S
C428 C427 1.396 . S
C429 C424 1.499 . S
C429 H430 0.959 . S
C429 H431 0.960 . S
C429 H432 0.961 . S
H430 C429 0.959 . S
H431 C429 0.960 . S
H432 C429 0.961 . S
O433 Co408 1.967 . S
O433 C441 1.258 . S
O434 Co409 1.941 . S
O434 C441 1.266 . S
H435 C437 0.959 . S
H436 C437 0.961 . S
C437 C427 1.510 . S
C437 H435 0.959 . S
C437 H436 0.961 . S
C437 H438 0.960 . S
H438 C437 0.960 . S
H439 N419 0.862 . S
O440 Co408 1.920 . S
O440 C413 1.289 . S
C441 O433 1.258 . S
C441 O434 1.266 . S
Co442 O445 1.970 . S
Co442 N459 1.989 . S
Co442 O467 1.967 . S
Co442 O474 1.920 . S
Co443 O446 1.966 . S
Co443 N452 2.022 . S
Co443 N460 1.993 . S
Co443 O468 1.941 . S
C444 O445 1.258 . S
C444 O446 1.263 . S
O445 Co442 1.970 . S
O445 C444 1.258 . S
O446 Co443 1.966 . S
O446 C444 1.263 . S
C447 O448 1.235 . S
C447 O474 1.289 . S
O448 C447 1.235 . S
C449 C451 1.400 . S
C449 N452 1.351 . S
C449 C454 1.501 . S
C450 C451 1.387 . S
C450 N453 1.341 . S
C451 C449 1.400 . S
C451 C450 1.387 . S
N452 Co443 2.022 . S
N452 C449 1.351 . S
N452 N453 1.365 . S
N453 C450 1.341 . S
N453 N452 1.365 . S
N453 H473 0.862 . S
C454 C449 1.501 . S
C454 H455 0.961 . S
C454 H456 0.961 . S
C454 H457 0.960 . S
H455 C454 0.961 . S
H456 C454 0.961 . S
H457 C454 0.960 . S
C458 N459 1.342 . S
C458 C462 1.401 . S
C458 C463 1.499 . S
N459 Co442 1.989 . S
N459 C458 1.342 . S
N459 N460 1.388 . S
N460 Co443 1.993 . S
N460 N459 1.388 . S
N460 C461 1.346 . S
C461 N460 1.346 . S
C461 C462 1.396 . S
C461 C471 1.510 . S
C462 C458 1.401 . S
C462 C461 1.396 . S
C463 C458 1.499 . S
C463 H464 0.959 . S
C463 H465 0.960 . S
C463 H466 0.961 . S
H464 C463 0.959 . S
H465 C463 0.960 . S
H466 C463 0.961 . S
O467 Co442 1.967 . S
O467 C475 1.258 . S
O468 Co443 1.941 . S
O468 C475 1.266 . S
H469 C471 0.959 . S
H470 C471 0.961 . S
C471 C461 1.510 . S
C471 H469 0.959 . S
C471 H470 0.961 . S
C471 H472 0.960 . S
H472 C471 0.960 . S
H473 N453 0.862 . S
O474 Co442 1.920 . S
O474 C447 1.289 . S
C475 O467 1.258 . S
C475 O468 1.266 . S
Co476 O479 1.970 . S
Co476 N493 1.989 . S
Co476 O501 1.967 . S
Co476 O508 1.920 . S
Co477 O480 1.966 . S
Co477 N486 2.022 . S
Co477 N494 1.993 . S
Co477 O502 1.941 . S
C478 O479 1.258 . S
C478 O480 1.263 . S
O479 Co476 1.970 . S
O479 C478 1.258 . S
O480 Co477 1.966 . S
O480 C478 1.263 . S
C481 O482 1.235 . S
C481 O508 1.289 . S
O482 C481 1.235 . S
C483 C485 1.400 . S
C483 N486 1.351 . S
C483 C488 1.501 . S
C484 C485 1.387 . S
C484 N487 1.341 . S
C485 C483 1.400 . S
C485 C484 1.387 . S
N486 Co477 2.022 . S
N486 C483 1.351 . S
N486 N487 1.365 . S
N487 C484 1.341 . S
N487 N486 1.365 . S
N487 H507 0.862 . S
C488 C483 1.501 . S
C488 H489 0.961 . S
C488 H490 0.961 . S
C488 H491 0.960 . S
H489 C488 0.961 . S
H490 C488 0.961 . S
H491 C488 0.960 . S
C492 N493 1.342 . S
C492 C496 1.401 . S
C492 C497 1.499 . S
N493 Co476 1.989 . S
N493 C492 1.342 . S
N493 N494 1.388 . S
N494 Co477 1.993 . S
N494 N493 1.388 . S
N494 C495 1.346 . S
C495 N494 1.346 . S
C495 C496 1.396 . S
C495 C505 1.510 . S
C496 C492 1.401 . S
C496 C495 1.396 . S
C497 C492 1.499 . S
C497 H498 0.959 . S
C497 H499 0.960 . S
C497 H500 0.961 . S
H498 C497 0.959 . S
H499 C497 0.960 . S
H500 C497 0.961 . S
O501 Co476 1.967 . S
O501 C509 1.258 . S
O502 Co477 1.941 . S
O502 C509 1.266 . S
H503 C505 0.959 . S
H504 C505 0.961 . S
C505 C495 1.510 . S
C505 H503 0.959 . S
C505 H504 0.961 . S
C505 H506 0.960 . S
H506 C505 0.960 . S
H507 N487 0.862 . S
O508 Co476 1.920 . S
O508 C481 1.289 . S
C509 O501 1.258 . S
C509 O502 1.266 . S
Co510 O513 1.970 . S
Co510 N527 1.989 . S
Co510 O535 1.967 . S
Co510 O542 1.920 . S
Co511 O514 1.966 . S
Co511 N520 2.022 . S
Co511 N528 1.993 . S
Co511 O536 1.941 . S
C512 O513 1.258 . S
C512 O514 1.263 . S
O513 Co510 1.970 . S
O513 C512 1.258 . S
O514 Co511 1.966 . S
O514 C512 1.263 . S
C515 O516 1.235 . S
C515 O542 1.289 . S
O516 C515 1.235 . S
C517 C519 1.400 . S
C517 N520 1.351 . S
C517 C522 1.501 . S
C518 C519 1.387 . S
C518 N521 1.341 . S
C519 C517 1.400 . S
C519 C518 1.387 . S
N520 Co511 2.022 . S
N520 C517 1.351 . S
N520 N521 1.365 . S
N521 C518 1.341 . S
N521 N520 1.365 . S
N521 H541 0.862 . S
C522 C517 1.501 . S
C522 H523 0.961 . S
C522 H524 0.961 . S
C522 H525 0.960 . S
H523 C522 0.961 . S
H524 C522 0.961 . S
H525 C522 0.960 . S
C526 N527 1.342 . S
C526 C530 1.401 . S
C526 C531 1.499 . S
N527 Co510 1.989 . S
N527 C526 1.342 . S
N527 N528 1.388 . S
N528 Co511 1.993 . S
N528 N527 1.388 . S
N528 C529 1.346 . S
C529 N528 1.346 . S
C529 C530 1.396 . S
C529 C539 1.510 . S
C530 C526 1.401 . S
C530 C529 1.396 . S
C531 C526 1.499 . S
C531 H532 0.959 . S
C531 H533 0.960 . S
C531 H534 0.961 . S
H532 C531 0.959 . S
H533 C531 0.960 . S
H534 C531 0.961 . S
O535 Co510 1.967 . S
O535 C543 1.258 . S
O536 Co511 1.941 . S
O536 C543 1.266 . S
H537 C539 0.959 . S
H538 C539 0.961 . S
C539 C529 1.510 . S
C539 H537 0.959 . S
C539 H538 0.961 . S
C539 H540 0.960 . S
H540 C539 0.960 . S
H541 N521 0.862 . S
O542 Co510 1.920 . S
O542 C515 1.289 . S
C543 O535 1.258 . S
C543 O536 1.266 . S
Co544 O547 1.970 . S
Co544 N561 1.989 . S
Co544 O569 1.967 . S
Co544 O576 1.920 . S
Co545 O548 1.966 . S
Co545 N554 2.022 . S
Co545 N562 1.993 . S
Co545 O570 1.941 . S
C546 O547 1.258 . S
C546 O548 1.263 . S
O547 Co544 1.970 . S
O547 C546 1.258 . S
O548 Co545 1.966 . S
O548 C546 1.263 . S
C549 O550 1.235 . S
C549 O576 1.289 . S
O550 C549 1.235 . S
C551 C553 1.400 . S
C551 N554 1.351 . S
C551 C556 1.501 . S
C552 C553 1.387 . S
C552 N555 1.341 . S
C553 C551 1.400 . S
C553 C552 1.387 . S
N554 Co545 2.022 . S
N554 C551 1.351 . S
N554 N555 1.365 . S
N555 C552 1.341 . S
N555 N554 1.365 . S
N555 H575 0.862 . S
C556 C551 1.501 . S
C556 H557 0.961 . S
C556 H558 0.961 . S
C556 H559 0.960 . S
H557 C556 0.961 . S
H558 C556 0.961 . S
H559 C556 0.960 . S
C560 N561 1.342 . S
C560 C564 1.401 . S
C560 C565 1.499 . S
N561 Co544 1.989 . S
N561 C560 1.342 . S
N561 N562 1.388 . S
N562 Co545 1.993 . S
N562 N561 1.388 . S
N562 C563 1.346 . S
C563 N562 1.346 . S
C563 C564 1.396 . S
C563 C573 1.510 . S
C564 C560 1.401 . S
C564 C563 1.396 . S
C565 C560 1.499 . S
C565 H566 0.959 . S
C565 H567 0.960 . S
C565 H568 0.961 . S
H566 C565 0.959 . S
H567 C565 0.960 . S
H568 C565 0.961 . S
O569 Co544 1.967 . S
O569 C577 1.258 . S
O570 Co545 1.941 . S
O570 C577 1.266 . S
H571 C573 0.959 . S
H572 C573 0.961 . S
C573 C563 1.510 . S
C573 H571 0.959 . S
C573 H572 0.961 . S
C573 H574 0.960 . S
H574 C573 0.960 . S
H575 N555 0.862 . S
O576 Co544 1.920 . S
O576 C549 1.289 . S
C577 O569 1.258 . S
C577 O570 1.266 . S
Co578 O581 1.970 . S
Co578 N595 1.989 . S
Co578 O603 1.967 . S
Co578 O610 1.920 . S
Co579 O582 1.966 . S
Co579 N588 2.022 . S
Co579 N596 1.993 . S
Co579 O604 1.941 . S
C580 O581 1.258 . S
C580 O582 1.263 . S
O581 Co578 1.970 . S
O581 C580 1.258 . S
O582 Co579 1.966 . S
O582 C580 1.263 . S
C583 O584 1.235 . S
C583 O610 1.289 . S
O584 C583 1.235 . S
C585 C587 1.400 . S
C585 N588 1.351 . S
C585 C590 1.501 . S
C586 C587 1.387 . S
C586 N589 1.341 . S
C587 C585 1.400 . S
C587 C586 1.387 . S
N588 Co579 2.022 . S
N588 C585 1.351 . S
N588 N589 1.365 . S
N589 C586 1.341 . S
N589 N588 1.365 . S
N589 H609 0.862 . S
C590 C585 1.501 . S
C590 H591 0.961 . S
C590 H592 0.961 . S
C590 H593 0.960 . S
H591 C590 0.961 . S
H592 C590 0.961 . S
H593 C590 0.960 . S
C594 N595 1.342 . S
C594 C598 1.401 . S
C594 C599 1.499 . S
N595 Co578 1.989 . S
N595 C594 1.342 . S
N595 N596 1.388 . S
N596 Co579 1.993 . S
N596 N595 1.388 . S
N596 C597 1.346 . S
C597 N596 1.346 . S
C597 C598 1.396 . S
C597 C607 1.510 . S
C598 C594 1.401 . S
C598 C597 1.396 . S
C599 C594 1.499 . S
C599 H600 0.959 . S
C599 H601 0.960 . S
C599 H602 0.961 . S
H600 C599 0.959 . S
H601 C599 0.960 . S
H602 C599 0.961 . S
O603 Co578 1.967 . S
O603 C611 1.258 . S
O604 Co579 1.941 . S
O604 C611 1.266 . S
H605 C607 0.959 . S
H606 C607 0.961 . S
C607 C597 1.510 . S
C607 H605 0.959 . S
C607 H606 0.961 . S
C607 H608 0.960 . S
H608 C607 0.960 . S
H609 N589 0.862 . S
O610 Co578 1.920 . S
O610 C583 1.289 . S
C611 O603 1.258 . S
C611 O604 1.266 . S
Co612 O615 1.970 . S
Co612 N629 1.989 . S
Co612 O637 1.967 . S
Co612 O644 1.920 . S
Co613 O616 1.966 . S
Co613 N622 2.022 . S
Co613 N630 1.993 . S
Co613 O638 1.940 1_554 S
C614 O615 1.258 . S
C614 O616 1.263 . S
O615 Co612 1.970 . S
O615 C614 1.258 . S
O616 Co613 1.966 . S
O616 C614 1.263 . S
C617 O618 1.235 . S
C617 O644 1.289 . S
O618 C617 1.235 . S
C619 C621 1.400 . S
C619 N622 1.351 . S
C619 C624 1.501 . S
C620 C621 1.387 . S
C620 N623 1.341 . S
C621 C619 1.400 . S
C621 C620 1.387 . S
N622 Co613 2.022 . S
N622 C619 1.351 . S
N622 N623 1.365 . S
N623 C620 1.341 . S
N623 N622 1.365 . S
N623 H643 0.862 . S
C624 C619 1.501 . S
C624 H625 0.961 . S
C624 H626 0.961 . S
C624 H627 0.960 . S
H625 C624 0.961 . S
H626 C624 0.961 . S
H627 C624 0.960 . S
C628 N629 1.342 . S
C628 C632 1.401 . S
C628 C633 1.499 . S
N629 Co612 1.989 . S
N629 C628 1.342 . S
N629 N630 1.388 . S
N630 Co613 1.993 . S
N630 N629 1.388 . S
N630 C631 1.346 . S
C631 N630 1.346 . S
C631 C632 1.396 . S
C631 C641 1.510 . S
C632 C628 1.401 . S
C632 C631 1.396 . S
C633 C628 1.499 . S
C633 H634 0.959 . S
C633 H635 0.960 . S
C633 H636 0.961 . S
H634 C633 0.959 . S
H635 C633 0.960 . S
H636 C633 0.961 . S
O637 Co612 1.967 . S
O637 C645 1.258 1_554 S
O638 Co613 1.940 1_556 S
O638 C645 1.267 . S
H639 C641 0.959 . S
H640 C641 0.961 . S
C641 C631 1.510 . S
C641 H639 0.959 . S
C641 H640 0.961 . S
C641 H642 0.960 . S
H642 C641 0.960 . S
H643 N623 0.862 . S
O644 Co612 1.920 . S
O644 C617 1.289 . S
C645 O637 1.258 1_556 S
C645 O638 1.267 . S
Co646 O649 1.970 . S
Co646 N663 1.989 . S
Co646 O671 1.967 . S
Co646 O678 1.920 . S
Co647 O650 1.966 . S
Co647 N656 2.022 . S
Co647 N664 1.993 . S
Co647 O672 1.940 1_554 S
C648 O649 1.258 . S
C648 O650 1.263 . S
O649 Co646 1.970 . S
O649 C648 1.258 . S
O650 Co647 1.966 . S
O650 C648 1.263 . S
C651 O652 1.235 . S
C651 O678 1.289 . S
O652 C651 1.235 . S
C653 C655 1.400 . S
C653 N656 1.351 . S
C653 C658 1.501 . S
C654 C655 1.387 . S
C654 N657 1.341 . S
C655 C653 1.400 . S
C655 C654 1.387 . S
N656 Co647 2.022 . S
N656 C653 1.351 . S
N656 N657 1.365 . S
N657 C654 1.341 . S
N657 N656 1.365 . S
N657 H677 0.862 . S
C658 C653 1.501 . S
C658 H659 0.961 . S
C658 H660 0.961 . S
C658 H661 0.960 . S
H659 C658 0.961 . S
H660 C658 0.961 . S
H661 C658 0.960 . S
C662 N663 1.342 . S
C662 C666 1.401 . S
C662 C667 1.499 . S
N663 Co646 1.989 . S
N663 C662 1.342 . S
N663 N664 1.388 . S
N664 Co647 1.993 . S
N664 N663 1.388 . S
N664 C665 1.346 . S
C665 N664 1.346 . S
C665 C666 1.396 . S
C665 C675 1.510 . S
C666 C662 1.401 . S
C666 C665 1.396 . S
C667 C662 1.499 . S
C667 H668 0.959 . S
C667 H669 0.960 . S
C667 H670 0.961 . S
H668 C667 0.959 . S
H669 C667 0.960 . S
H670 C667 0.961 . S
O671 Co646 1.967 . S
O671 C679 1.258 1_554 S
O672 Co647 1.940 1_556 S
O672 C679 1.267 . S
H673 C675 0.959 . S
H674 C675 0.961 . S
C675 C665 1.510 . S
C675 H673 0.959 . S
C675 H674 0.961 . S
C675 H676 0.960 . S
H676 C675 0.960 . S
H677 N657 0.862 . S
O678 Co646 1.920 . S
O678 C651 1.289 . S
C679 O671 1.258 1_556 S
C679 O672 1.267 . S
Co680 O683 1.970 . S
Co680 N697 1.989 . S
Co680 O705 1.967 . S
Co680 O712 1.920 . S
Co681 O684 1.966 . S
Co681 N690 2.022 . S
Co681 N698 1.993 . S
Co681 O706 1.940 1_554 S
C682 O683 1.258 . S
C682 O684 1.263 . S
O683 Co680 1.970 . S
O683 C682 1.258 . S
O684 Co681 1.966 . S
O684 C682 1.263 . S
C685 O686 1.235 . S
C685 O712 1.289 . S
O686 C685 1.235 . S
C687 C689 1.400 . S
C687 N690 1.351 . S
C687 C692 1.501 . S
C688 C689 1.387 . S
C688 N691 1.341 . S
C689 C687 1.400 . S
C689 C688 1.387 . S
N690 Co681 2.022 . S
N690 C687 1.351 . S
N690 N691 1.365 . S
N691 C688 1.341 . S
N691 N690 1.365 . S
N691 H711 0.862 . S
C692 C687 1.501 . S
C692 H693 0.961 . S
C692 H694 0.961 . S
C692 H695 0.960 . S
H693 C692 0.961 . S
H694 C692 0.961 . S
H695 C692 0.960 . S
C696 N697 1.342 . S
C696 C700 1.401 . S
C696 C701 1.499 . S
N697 Co680 1.989 . S
N697 C696 1.342 . S
N697 N698 1.388 . S
N698 Co681 1.993 . S
N698 N697 1.388 . S
N698 C699 1.346 . S
C699 N698 1.346 . S
C699 C700 1.396 . S
C699 C709 1.510 . S
C700 C696 1.401 . S
C700 C699 1.396 . S
C701 C696 1.499 . S
C701 H702 0.959 . S
C701 H703 0.960 . S
C701 H704 0.961 . S
H702 C701 0.959 . S
H703 C701 0.960 . S
H704 C701 0.961 . S
O705 Co680 1.967 . S
O705 C713 1.258 1_554 S
O706 Co681 1.940 1_556 S
O706 C713 1.267 . S
H707 C709 0.959 . S
H708 C709 0.961 . S
C709 C699 1.510 . S
C709 H707 0.959 . S
C709 H708 0.961 . S
C709 H710 0.960 . S
H710 C709 0.960 . S
H711 N691 0.862 . S
O712 Co680 1.920 . S
O712 C685 1.289 . S
C713 O705 1.258 1_556 S
C713 O706 1.267 . S
Co714 O717 1.970 . S
Co714 N731 1.989 . S
Co714 O739 1.967 . S
Co714 O746 1.920 . S
Co715 O718 1.966 . S
Co715 N724 2.022 . S
Co715 N732 1.993 . S
Co715 O740 1.941 . S
C716 O717 1.258 . S
C716 O718 1.263 . S
O717 Co714 1.970 . S
O717 C716 1.258 . S
O718 Co715 1.966 . S
O718 C716 1.263 . S
C719 O720 1.235 . S
C719 O746 1.289 . S
O720 C719 1.235 . S
C721 C723 1.400 . S
C721 N724 1.351 . S
C721 C726 1.501 . S
C722 C723 1.387 . S
C722 N725 1.341 . S
C723 C721 1.400 . S
C723 C722 1.387 . S
N724 Co715 2.022 . S
N724 C721 1.351 . S
N724 N725 1.365 . S
N725 C722 1.341 . S
N725 N724 1.365 . S
N725 H745 0.862 . S
C726 C721 1.501 . S
C726 H727 0.961 . S
C726 H728 0.961 . S
C726 H729 0.960 . S
H727 C726 0.961 . S
H728 C726 0.961 . S
H729 C726 0.960 . S
C730 N731 1.342 1_556 S
C730 C734 1.401 . S
C730 C735 1.499 . S
N731 Co714 1.989 . S
N731 C730 1.342 1_554 S
N731 N732 1.388 . S
N732 Co715 1.993 . S
N732 N731 1.388 . S
N732 C733 1.346 . S
C733 N732 1.346 . S
C733 C734 1.396 1_554 S
C733 C743 1.510 . S
C734 C730 1.401 . S
C734 C733 1.396 1_556 S
C735 C730 1.499 . S
C735 H736 0.947 1_556 S
C735 H737 0.960 . S
C735 H738 0.961 . S
H736 C735 0.947 1_554 S
H737 C735 0.960 . S
H738 C735 0.961 . S
O739 Co714 1.967 . S
O739 C747 1.258 . S
O740 Co715 1.941 . S
O740 C747 1.266 . S
H741 C743 0.959 1_556 S
H742 C743 0.961 1_556 S
C743 C733 1.510 . S
C743 H741 0.959 1_554 S
C743 H742 0.961 1_554 S
C743 H744 0.960 . S
H744 C743 0.960 . S
H745 N725 0.862 . S
O746 Co714 1.920 . S
O746 C719 1.289 . S
C747 O739 1.258 . S
C747 O740 1.266 . S
Co748 O751 1.970 . S
Co748 N765 1.989 . S
Co748 O773 1.967 . S
Co748 O780 1.920 . S
Co749 O752 1.966 . S
Co749 N758 2.022 . S
Co749 N766 1.993 . S
Co749 O774 1.941 . S
C750 O751 1.258 . S
C750 O752 1.263 . S
O751 Co748 1.970 . S
O751 C750 1.258 . S
O752 Co749 1.966 . S
O752 C750 1.263 . S
C753 O754 1.235 . S
C753 O780 1.289 . S
O754 C753 1.235 . S
C755 C757 1.400 . S
C755 N758 1.351 . S
C755 C760 1.501 . S
C756 C757 1.387 . S
C756 N759 1.341 . S
C757 C755 1.400 . S
C757 C756 1.387 . S
N758 Co749 2.022 . S
N758 C755 1.351 . S
N758 N759 1.365 . S
N759 C756 1.341 . S
N759 N758 1.365 . S
N759 H779 0.862 . S
C760 C755 1.501 . S
C760 H761 0.961 . S
C760 H762 0.961 . S
C760 H763 0.960 . S
H761 C760 0.961 . S
H762 C760 0.961 . S
H763 C760 0.960 . S
C764 N765 1.342 1_556 S
C764 C768 1.401 . S
C764 C769 1.499 . S
N765 Co748 1.989 . S
N765 C764 1.342 1_554 S
N765 N766 1.388 . S
N766 Co749 1.993 . S
N766 N765 1.388 . S
N766 C767 1.346 . S
C767 N766 1.346 . S
C767 C768 1.396 1_554 S
C767 C777 1.510 . S
C768 C764 1.401 . S
C768 C767 1.396 1_556 S
C769 C764 1.499 . S
C769 H770 0.947 1_556 S
C769 H771 0.960 . S
C769 H772 0.961 . S
H770 C769 0.947 1_554 S
H771 C769 0.960 . S
H772 C769 0.961 . S
O773 Co748 1.967 . S
O773 C781 1.258 . S
O774 Co749 1.941 . S
O774 C781 1.266 . S
H775 C777 0.959 1_556 S
H776 C777 0.961 1_556 S
C777 C767 1.510 . S
C777 H775 0.959 1_554 S
C777 H776 0.961 1_554 S
C777 H778 0.960 . S
H778 C777 0.960 . S
H779 N759 0.862 . S
O780 Co748 1.920 . S
O780 C753 1.289 . S
C781 O773 1.258 . S
C781 O774 1.266 . S
Co782 O785 1.970 . S
Co782 N799 1.989 . S
Co782 O807 1.967 . S
Co782 O814 1.920 . S
Co783 O786 1.966 . S
Co783 N792 2.022 . S
Co783 N800 1.993 . S
Co783 O808 1.941 . S
C784 O785 1.258 . S
C784 O786 1.263 . S
O785 Co782 1.970 . S
O785 C784 1.258 . S
O786 Co783 1.966 . S
O786 C784 1.263 . S
C787 O788 1.235 . S
C787 O814 1.289 . S
O788 C787 1.235 . S
C789 C791 1.400 . S
C789 N792 1.351 . S
C789 C794 1.501 . S
C790 C791 1.387 . S
C790 N793 1.341 . S
C791 C789 1.400 . S
C791 C790 1.387 . S
N792 Co783 2.022 . S
N792 C789 1.351 . S
N792 N793 1.365 . S
N793 C790 1.341 . S
N793 N792 1.365 . S
N793 H813 0.862 . S
C794 C789 1.501 . S
C794 H795 0.961 . S
C794 H796 0.961 . S
C794 H797 0.960 . S
H795 C794 0.961 . S
H796 C794 0.961 . S
H797 C794 0.960 . S
C798 N799 1.342 1_556 S
C798 C802 1.401 . S
C798 C803 1.499 . S
N799 Co782 1.989 . S
N799 C798 1.342 1_554 S
N799 N800 1.388 . S
N800 Co783 1.993 . S
N800 N799 1.388 . S
N800 C801 1.346 . S
C801 N800 1.346 . S
C801 C802 1.396 1_554 S
C801 C811 1.510 . S
C802 C798 1.401 . S
C802 C801 1.396 1_556 S
C803 C798 1.499 . S
C803 H804 0.946 1_556 S
C803 H805 0.960 . S
C803 H806 0.961 . S
H804 C803 0.946 1_554 S
H805 C803 0.960 . S
H806 C803 0.961 . S
O807 Co782 1.967 . S
O807 C815 1.258 . S
O808 Co783 1.941 . S
O808 C815 1.266 . S
H809 C811 0.959 1_556 S
H810 C811 0.961 1_556 S
C811 C801 1.510 . S
C811 H809 0.959 1_554 S
C811 H810 0.961 1_554 S
C811 H812 0.960 . S
H812 C811 0.960 . S
H813 N793 0.862 . S
O814 Co782 1.920 . S
O814 C787 1.289 . S
C815 O807 1.258 . S
C815 O808 1.266 . S
Co816 O819 1.970 . S
Co816 N833 1.989 . S
Co816 O841 1.967 . S
Co816 O848 1.920 . S
Co817 O820 1.966 . S
Co817 N826 2.022 . S
Co817 N834 1.993 . S
Co817 O842 1.940 1_556 S
C818 O819 1.258 . S
C818 O820 1.263 . S
O819 Co816 1.970 . S
O819 C818 1.258 . S
O820 Co817 1.966 . S
O820 C818 1.263 . S
C821 O822 1.235 . S
C821 O848 1.289 . S
O822 C821 1.235 . S
C823 C825 1.400 . S
C823 N826 1.351 . S
C823 C828 1.501 . S
C824 C825 1.387 . S
C824 N827 1.341 . S
C825 C823 1.400 . S
C825 C824 1.387 . S
N826 Co817 2.022 . S
N826 C823 1.351 . S
N826 N827 1.365 . S
N827 C824 1.341 . S
N827 N826 1.365 . S
N827 H847 0.862 . S
C828 C823 1.501 . S
C828 H829 0.961 . S
C828 H830 0.961 . S
C828 H831 0.960 . S
H829 C828 0.961 . S
H830 C828 0.961 . S
H831 C828 0.960 . S
C832 N833 1.342 . S
C832 C836 1.401 . S
C832 C837 1.499 . S
N833 Co816 1.989 . S
N833 C832 1.342 . S
N833 N834 1.388 . S
N834 Co817 1.993 . S
N834 N833 1.388 . S
N834 C835 1.346 . S
C835 N834 1.346 . S
C835 C836 1.396 . S
C835 C845 1.510 . S
C836 C832 1.401 . S
C836 C835 1.396 . S
C837 C832 1.499 . S
C837 H838 0.959 . S
C837 H839 0.960 . S
C837 H840 0.961 . S
H838 C837 0.959 . S
H839 C837 0.960 . S
H840 C837 0.961 . S
O841 Co816 1.967 . S
O841 C849 1.258 1_556 S
O842 Co817 1.940 1_554 S
O842 C849 1.267 . S
H843 C845 0.959 . S
H844 C845 0.961 . S
C845 C835 1.510 . S
C845 H843 0.959 . S
C845 H844 0.961 . S
C845 H846 0.960 . S
H846 C845 0.960 . S
H847 N827 0.862 . S
O848 Co816 1.920 . S
O848 C821 1.289 . S
C849 O841 1.258 1_554 S
C849 O842 1.267 . S
Co850 O853 1.970 . S
Co850 N867 1.989 . S
Co850 O875 1.967 . S
Co850 O882 1.920 . S
Co851 O854 1.966 . S
Co851 N860 2.022 . S
Co851 N868 1.993 . S
Co851 O876 1.940 1_556 S
C852 O853 1.258 . S
C852 O854 1.263 . S
O853 Co850 1.970 . S
O853 C852 1.258 . S
O854 Co851 1.966 . S
O854 C852 1.263 . S
C855 O856 1.235 . S
C855 O882 1.289 . S
O856 C855 1.235 . S
C857 C859 1.400 . S
C857 N860 1.351 . S
C857 C862 1.501 . S
C858 C859 1.387 . S
C858 N861 1.341 . S
C859 C857 1.400 . S
C859 C858 1.387 . S
N860 Co851 2.022 . S
N860 C857 1.351 . S
N860 N861 1.365 . S
N861 C858 1.341 . S
N861 N860 1.365 . S
N861 H881 0.862 . S
C862 C857 1.501 . S
C862 H863 0.961 . S
C862 H864 0.961 . S
C862 H865 0.960 . S
H863 C862 0.961 . S
H864 C862 0.961 . S
H865 C862 0.960 . S
C866 N867 1.342 . S
C866 C870 1.401 . S
C866 C871 1.499 . S
N867 Co850 1.989 . S
N867 C866 1.342 . S
N867 N868 1.388 . S
N868 Co851 1.993 . S
N868 N867 1.388 . S
N868 C869 1.346 . S
C869 N868 1.346 . S
C869 C870 1.396 . S
C869 C879 1.510 . S
C870 C866 1.401 . S
C870 C869 1.396 . S
C871 C866 1.499 . S
C871 H872 0.959 . S
C871 H873 0.960 . S
C871 H874 0.961 . S
H872 C871 0.959 . S
H873 C871 0.960 . S
H874 C871 0.961 . S
O875 Co850 1.967 . S
O875 C883 1.258 1_556 S
O876 Co851 1.940 1_554 S
O876 C883 1.267 . S
H877 C879 0.959 . S
H878 C879 0.961 . S
C879 C869 1.510 . S
C879 H877 0.959 . S
C879 H878 0.961 . S
C879 H880 0.960 . S
H880 C879 0.960 . S
H881 N861 0.862 . S
O882 Co850 1.920 . S
O882 C855 1.289 . S
C883 O875 1.258 1_554 S
C883 O876 1.267 . S
Co884 O887 1.970 . S
Co884 N901 1.989 . S
Co884 O909 1.967 . S
Co884 O916 1.920 . S
Co885 O888 1.966 . S
Co885 N894 2.022 . S
Co885 N902 1.993 . S
Co885 O910 1.940 1_556 S
C886 O887 1.258 . S
C886 O888 1.263 . S
O887 Co884 1.970 . S
O887 C886 1.258 . S
O888 Co885 1.966 . S
O888 C886 1.263 . S
C889 O890 1.235 . S
C889 O916 1.289 . S
O890 C889 1.235 . S
C891 C893 1.400 . S
C891 N894 1.351 . S
C891 C896 1.501 . S
C892 C893 1.387 . S
C892 N895 1.341 . S
C893 C891 1.400 . S
C893 C892 1.387 . S
N894 Co885 2.022 . S
N894 C891 1.351 . S
N894 N895 1.365 . S
N895 C892 1.341 . S
N895 N894 1.365 . S
N895 H915 0.862 . S
C896 C891 1.501 . S
C896 H897 0.961 . S
C896 H898 0.961 . S
C896 H899 0.960 . S
H897 C896 0.961 . S
H898 C896 0.961 . S
H899 C896 0.960 . S
C900 N901 1.342 . S
C900 C904 1.401 . S
C900 C905 1.499 . S
N901 Co884 1.989 . S
N901 C900 1.342 . S
N901 N902 1.388 . S
N902 Co885 1.993 . S
N902 N901 1.388 . S
N902 C903 1.346 . S
C903 N902 1.346 . S
C903 C904 1.396 . S
C903 C913 1.510 . S
C904 C900 1.401 . S
C904 C903 1.396 . S
C905 C900 1.499 . S
C905 H906 0.959 . S
C905 H907 0.960 . S
C905 H908 0.961 . S
H906 C905 0.959 . S
H907 C905 0.960 . S
H908 C905 0.961 . S
O909 Co884 1.967 . S
O909 C917 1.258 1_556 S
O910 Co885 1.940 1_554 S
O910 C917 1.267 . S
H911 C913 0.959 . S
H912 C913 0.961 . S
C913 C903 1.510 . S
C913 H911 0.959 . S
C913 H912 0.961 . S
C913 H914 0.960 . S
H914 C913 0.960 . S
H915 N895 0.862 . S
O916 Co884 1.920 . S
O916 C889 1.289 . S
C917 O909 1.258 1_554 S
C917 O910 1.267 . S
Co918 O921 1.970 . S
Co918 N935 1.989 . S
Co918 O943 1.967 . S
Co918 O950 1.920 . S
Co919 O922 1.966 . S
Co919 N928 2.022 . S
Co919 N936 1.993 . S
Co919 O944 1.941 . S
C920 O921 1.258 . S
C920 O922 1.263 . S
O921 Co918 1.970 . S
O921 C920 1.258 . S
O922 Co919 1.966 . S
O922 C920 1.263 . S
C923 O924 1.235 . S
C923 O950 1.289 . S
O924 C923 1.235 . S
C925 C927 1.400 . S
C925 N928 1.351 . S
C925 C930 1.501 . S
C926 C927 1.387 . S
C926 N929 1.341 . S
C927 C925 1.400 . S
C927 C926 1.387 . S
N928 Co919 2.022 . S
N928 C925 1.351 . S
N928 N929 1.365 . S
N929 C926 1.341 . S
N929 N928 1.365 . S
N929 H949 0.862 . S
C930 C925 1.501 . S
C930 H931 0.961 . S
C930 H932 0.961 . S
C930 H933 0.960 . S
H931 C930 0.961 . S
H932 C930 0.961 . S
H933 C930 0.960 . S
C934 N935 1.342 1_554 S
C934 C938 1.401 . S
C934 C939 1.499 . S
N935 Co918 1.989 . S
N935 C934 1.342 1_556 S
N935 N936 1.388 . S
N936 Co919 1.993 . S
N936 N935 1.388 . S
N936 C937 1.346 . S
C937 N936 1.346 . S
C937 C938 1.396 1_556 S
C937 C947 1.510 . S
C938 C934 1.401 . S
C938 C937 1.396 1_554 S
C939 C934 1.499 . S
C939 H940 0.947 1_554 S
C939 H941 0.960 . S
C939 H942 0.961 . S
H940 C939 0.947 1_556 S
H941 C939 0.960 . S
H942 C939 0.961 . S
O943 Co918 1.967 . S
O943 C951 1.258 . S
O944 Co919 1.941 . S
O944 C951 1.266 . S
H945 C947 0.959 1_554 S
H946 C947 0.961 1_554 S
C947 C937 1.510 . S
C947 H945 0.959 1_556 S
C947 H946 0.961 1_556 S
C947 H948 0.960 . S
H948 C947 0.960 . S
H949 N929 0.862 . S
O950 Co918 1.920 . S
O950 C923 1.289 . S
C951 O943 1.258 . S
C951 O944 1.266 . S
Co952 O955 1.970 . S
Co952 N969 1.989 . S
Co952 O977 1.967 . S
Co952 O984 1.920 . S
Co953 O956 1.966 . S
Co953 N962 2.022 . S
Co953 N970 1.993 . S
Co953 O978 1.941 . S
C954 O955 1.258 . S
C954 O956 1.263 . S
O955 Co952 1.970 . S
O955 C954 1.258 . S
O956 Co953 1.966 . S
O956 C954 1.263 . S
C957 O958 1.235 . S
C957 O984 1.289 . S
O958 C957 1.235 . S
C959 C961 1.400 . S
C959 N962 1.351 . S
C959 C964 1.501 . S
C960 C961 1.387 . S
C960 N963 1.341 . S
C961 C959 1.400 . S
C961 C960 1.387 . S
N962 Co953 2.022 . S
N962 C959 1.351 . S
N962 N963 1.365 . S
N963 C960 1.341 . S
N963 N962 1.365 . S
N963 H983 0.862 . S
C964 C959 1.501 . S
C964 H965 0.961 . S
C964 H966 0.961 . S
C964 H967 0.960 . S
H965 C964 0.961 . S
H966 C964 0.961 . S
H967 C964 0.960 . S
C968 N969 1.342 1_554 S
C968 C972 1.401 . S
C968 C973 1.499 . S
N969 Co952 1.989 . S
N969 C968 1.342 1_556 S
N969 N970 1.388 . S
N970 Co953 1.993 . S
N970 N969 1.388 . S
N970 C971 1.346 . S
C971 N970 1.346 . S
C971 C972 1.396 1_556 S
C971 C981 1.510 . S
C972 C968 1.401 . S
C972 C971 1.396 1_554 S
C973 C968 1.499 . S
C973 H974 0.947 1_554 S
C973 H975 0.960 . S
C973 H976 0.961 . S
H974 C973 0.947 1_556 S
H975 C973 0.960 . S
H976 C973 0.961 . S
O977 Co952 1.967 . S
O977 C985 1.258 . S
O978 Co953 1.941 . S
O978 C985 1.266 . S
H979 C981 0.959 1_554 S
H980 C981 0.961 1_554 S
C981 C971 1.510 . S
C981 H979 0.959 1_556 S
C981 H980 0.961 1_556 S
C981 H982 0.960 . S
H982 C981 0.960 . S
H983 N963 0.862 . S
O984 Co952 1.920 . S
O984 C957 1.289 . S
C985 O977 1.258 . S
C985 O978 1.266 . S
Co986 O989 1.970 . S
Co986 N1003 1.989 . S
Co986 O1011 1.967 . S
Co986 O1018 1.920 . S
Co987 O990 1.966 . S
Co987 N996 2.022 . S
Co987 N1004 1.993 . S
Co987 O1012 1.941 . S
C988 O989 1.258 . S
C988 O990 1.263 . S
O989 Co986 1.970 . S
O989 C988 1.258 . S
O990 Co987 1.966 . S
O990 C988 1.263 . S
C991 O992 1.235 . S
C991 O1018 1.289 . S
O992 C991 1.235 . S
C993 C995 1.400 . S
C993 N996 1.351 . S
C993 C998 1.501 . S
C994 C995 1.387 . S
C994 N997 1.341 . S
C995 C993 1.400 . S
C995 C994 1.387 . S
N996 Co987 2.022 . S
N996 C993 1.351 . S
N996 N997 1.365 . S
N997 C994 1.341 . S
N997 N996 1.365 . S
N997 H1017 0.862 . S
C998 C993 1.501 . S
C998 H999 0.961 . S
C998 H1000 0.961 . S
C998 H1001 0.960 . S
H999 C998 0.961 . S
H1000 C998 0.961 . S
H1001 C998 0.960 . S
C1002 N1003 1.342 1_554 S
C1002 C1006 1.401 . S
C1002 C1007 1.499 . S
N1003 Co986 1.989 . S
N1003 C1002 1.342 1_556 S
N1003 N1004 1.388 . S
N1004 Co987 1.993 . S
N1004 N1003 1.388 . S
N1004 C1005 1.346 . S
C1005 N1004 1.346 . S
C1005 C1006 1.396 1_556 S
C1005 C1015 1.510 . S
C1006 C1002 1.401 . S
C1006 C1005 1.396 1_554 S
C1007 C1002 1.499 . S
C1007 H1008 0.946 1_554 S
C1007 H1009 0.960 . S
C1007 H1010 0.961 . S
H1008 C1007 0.946 1_556 S
H1009 C1007 0.960 . S
H1010 C1007 0.961 . S
O1011 Co986 1.967 . S
O1011 C1019 1.258 . S
O1012 Co987 1.941 . S
O1012 C1019 1.266 . S
H1013 C1015 0.959 1_554 S
H1014 C1015 0.961 1_554 S
C1015 C1005 1.510 . S
C1015 H1013 0.959 1_556 S
C1015 H1014 0.961 1_556 S
C1015 H1016 0.960 . S
H1016 C1015 0.960 . S
H1017 N997 0.862 . S
O1018 Co986 1.920 . S
O1018 C991 1.289 . S
C1019 O1011 1.258 . S
C1019 O1012 1.266 . S
Co1020 O1023 1.970 . S
Co1020 N1037 1.989 . S
Co1020 O1045 1.967 . S
Co1020 O1052 1.920 . S
Co1021 O1024 1.966 . S
Co1021 N1030 2.022 . S
Co1021 N1038 1.993 . S
Co1021 O1046 1.941 . S
C1022 O1023 1.258 . S
C1022 O1024 1.263 . S
O1023 Co1020 1.970 . S
O1023 C1022 1.258 . S
O1024 Co1021 1.966 . S
O1024 C1022 1.263 . S
C1025 O1026 1.235 . S
C1025 O1052 1.289 . S
O1026 C1025 1.235 . S
C1027 C1029 1.400 . S
C1027 N1030 1.351 . S
C1027 C1032 1.501 . S
C1028 C1029 1.387 . S
C1028 N1031 1.341 . S
C1029 C1027 1.400 . S
C1029 C1028 1.387 . S
N1030 Co1021 2.022 . S
N1030 C1027 1.351 . S
N1030 N1031 1.365 . S
N1031 C1028 1.341 . S
N1031 N1030 1.365 . S
N1031 H1051 0.862 . S
C1032 C1027 1.501 . S
C1032 H1033 0.961 . S
C1032 H1034 0.961 . S
C1032 H1035 0.960 . S
H1033 C1032 0.961 . S
H1034 C1032 0.961 . S
H1035 C1032 0.960 . S
C1036 N1037 1.342 . S
C1036 C1040 1.401 . S
C1036 C1041 1.499 . S
N1037 Co1020 1.989 . S
N1037 C1036 1.342 . S
N1037 N1038 1.388 . S
N1038 Co1021 1.993 . S
N1038 N1037 1.388 . S
N1038 C1039 1.346 . S
C1039 N1038 1.346 . S
C1039 C1040 1.396 . S
C1039 C1049 1.510 . S
C1040 C1036 1.401 . S
C1040 C1039 1.396 . S
C1041 C1036 1.499 . S
C1041 H1042 0.959 . S
C1041 H1043 0.960 . S
C1041 H1044 0.961 . S
H1042 C1041 0.959 . S
H1043 C1041 0.960 . S
H1044 C1041 0.961 . S
O1045 Co1020 1.967 . S
O1045 C1053 1.258 . S
O1046 Co1021 1.941 . S
O1046 C1053 1.266 . S
H1047 C1049 0.959 . S
H1048 C1049 0.961 . S
C1049 C1039 1.510 . S
C1049 H1047 0.959 . S
C1049 H1048 0.961 . S
C1049 H1050 0.960 . S
H1050 C1049 0.960 . S
H1051 N1031 0.862 . S
O1052 Co1020 1.920 . S
O1052 C1025 1.289 . S
C1053 O1045 1.258 . S
C1053 O1046 1.266 . S
Co1054 O1057 1.970 . S
Co1054 N1071 1.989 . S
Co1054 O1079 1.967 . S
Co1054 O1086 1.920 . S
Co1055 O1058 1.966 . S
Co1055 N1064 2.022 . S
Co1055 N1072 1.993 . S
Co1055 O1080 1.941 . S
C1056 O1057 1.258 . S
C1056 O1058 1.263 . S
O1057 Co1054 1.970 . S
O1057 C1056 1.258 . S
O1058 Co1055 1.966 . S
O1058 C1056 1.263 . S
C1059 O1060 1.235 . S
C1059 O1086 1.289 . S
O1060 C1059 1.235 . S
C1061 C1063 1.400 . S
C1061 N1064 1.351 . S
C1061 C1066 1.501 . S
C1062 C1063 1.387 . S
C1062 N1065 1.341 . S
C1063 C1061 1.400 . S
C1063 C1062 1.387 . S
N1064 Co1055 2.022 . S
N1064 C1061 1.351 . S
N1064 N1065 1.365 . S
N1065 C1062 1.341 . S
N1065 N1064 1.365 . S
N1065 H1085 0.862 . S
C1066 C1061 1.501 . S
C1066 H1067 0.961 . S
C1066 H1068 0.961 . S
C1066 H1069 0.960 . S
H1067 C1066 0.961 . S
H1068 C1066 0.961 . S
H1069 C1066 0.960 . S
C1070 N1071 1.342 . S
C1070 C1074 1.401 . S
C1070 C1075 1.499 . S
N1071 Co1054 1.989 . S
N1071 C1070 1.342 . S
N1071 N1072 1.388 . S
N1072 Co1055 1.993 . S
N1072 N1071 1.388 . S
N1072 C1073 1.346 . S
C1073 N1072 1.346 . S
C1073 C1074 1.396 . S
C1073 C1083 1.510 . S
C1074 C1070 1.401 . S
C1074 C1073 1.396 . S
C1075 C1070 1.499 . S
C1075 H1076 0.959 . S
C1075 H1077 0.960 . S
C1075 H1078 0.961 . S
H1076 C1075 0.959 . S
H1077 C1075 0.960 . S
H1078 C1075 0.961 . S
O1079 Co1054 1.967 . S
O1079 C1087 1.258 . S
O1080 Co1055 1.941 . S
O1080 C1087 1.266 . S
H1081 C1083 0.959 . S
H1082 C1083 0.961 . S
C1083 C1073 1.510 . S
C1083 H1081 0.959 . S
C1083 H1082 0.961 . S
C1083 H1084 0.960 . S
H1084 C1083 0.960 . S
H1085 N1065 0.862 . S
O1086 Co1054 1.920 . S
O1086 C1059 1.289 . S
C1087 O1079 1.258 . S
C1087 O1080 1.266 . S
Co1088 O1091 1.970 . S
Co1088 N1105 1.989 . S
Co1088 O1113 1.967 . S
Co1088 O1120 1.920 . S
Co1089 O1092 1.966 . S
Co1089 N1098 2.022 . S
Co1089 N1106 1.993 . S
Co1089 O1114 1.941 . S
C1090 O1091 1.258 . S
C1090 O1092 1.263 . S
O1091 Co1088 1.970 . S
O1091 C1090 1.258 . S
O1092 Co1089 1.966 . S
O1092 C1090 1.263 . S
C1093 O1094 1.235 . S
C1093 O1120 1.289 . S
O1094 C1093 1.235 . S
C1095 C1097 1.400 . S
C1095 N1098 1.351 . S
C1095 C1100 1.501 . S
C1096 C1097 1.387 . S
C1096 N1099 1.341 . S
C1097 C1095 1.400 . S
C1097 C1096 1.387 . S
N1098 Co1089 2.022 . S
N1098 C1095 1.351 . S
N1098 N1099 1.365 . S
N1099 C1096 1.341 . S
N1099 N1098 1.365 . S
N1099 H1119 0.862 . S
C1100 C1095 1.501 . S
C1100 H1101 0.961 . S
C1100 H1102 0.961 . S
C1100 H1103 0.960 . S
H1101 C1100 0.961 . S
H1102 C1100 0.961 . S
H1103 C1100 0.960 . S
C1104 N1105 1.342 . S
C1104 C1108 1.401 . S
C1104 C1109 1.499 . S
N1105 Co1088 1.989 . S
N1105 C1104 1.342 . S
N1105 N1106 1.388 . S
N1106 Co1089 1.993 . S
N1106 N1105 1.388 . S
N1106 C1107 1.346 . S
C1107 N1106 1.346 . S
C1107 C1108 1.396 . S
C1107 C1117 1.510 . S
C1108 C1104 1.401 . S
C1108 C1107 1.396 . S
C1109 C1104 1.499 . S
C1109 H1110 0.959 . S
C1109 H1111 0.960 . S
C1109 H1112 0.961 . S
H1110 C1109 0.959 . S
H1111 C1109 0.960 . S
H1112 C1109 0.961 . S
O1113 Co1088 1.967 . S
O1113 C1121 1.258 . S
O1114 Co1089 1.941 . S
O1114 C1121 1.266 . S
H1115 C1117 0.959 . S
H1116 C1117 0.961 . S
C1117 C1107 1.510 . S
C1117 H1115 0.959 . S
C1117 H1116 0.961 . S
C1117 H1118 0.960 . S
H1118 C1117 0.960 . S
H1119 N1099 0.862 . S
O1120 Co1088 1.920 . S
O1120 C1093 1.289 . S
C1121 O1113 1.258 . S
C1121 O1114 1.266 . S
Co1122 O1125 1.970 . S
Co1122 N1139 1.989 . S
Co1122 O1147 1.967 . S
Co1122 O1154 1.920 . S
Co1123 O1126 1.966 . S
Co1123 N1132 2.022 . S
Co1123 N1140 1.993 . S
Co1123 O1148 1.941 . S
C1124 O1125 1.258 . S
C1124 O1126 1.263 . S
O1125 Co1122 1.970 . S
O1125 C1124 1.258 . S
O1126 Co1123 1.966 . S
O1126 C1124 1.263 . S
C1127 O1128 1.235 . S
C1127 O1154 1.289 . S
O1128 C1127 1.235 . S
C1129 C1131 1.400 . S
C1129 N1132 1.351 . S
C1129 C1134 1.501 . S
C1130 C1131 1.387 . S
C1130 N1133 1.341 . S
C1131 C1129 1.400 . S
C1131 C1130 1.387 . S
N1132 Co1123 2.022 . S
N1132 C1129 1.351 . S
N1132 N1133 1.365 . S
N1133 C1130 1.341 . S
N1133 N1132 1.365 . S
N1133 H1153 0.862 . S
C1134 C1129 1.501 . S
C1134 H1135 0.961 . S
C1134 H1136 0.961 . S
C1134 H1137 0.960 . S
H1135 C1134 0.961 . S
H1136 C1134 0.961 . S
H1137 C1134 0.960 . S
C1138 N1139 1.342 . S
C1138 C1142 1.401 . S
C1138 C1143 1.499 . S
N1139 Co1122 1.989 . S
N1139 C1138 1.342 . S
N1139 N1140 1.388 . S
N1140 Co1123 1.993 . S
N1140 N1139 1.388 . S
N1140 C1141 1.346 . S
C1141 N1140 1.346 . S
C1141 C1142 1.396 . S
C1141 C1151 1.510 . S
C1142 C1138 1.401 . S
C1142 C1141 1.396 . S
C1143 C1138 1.499 . S
C1143 H1144 0.959 . S
C1143 H1145 0.960 . S
C1143 H1146 0.961 . S
H1144 C1143 0.959 . S
H1145 C1143 0.960 . S
H1146 C1143 0.961 . S
O1147 Co1122 1.967 . S
O1147 C1155 1.258 . S
O1148 Co1123 1.941 . S
O1148 C1155 1.266 . S
H1149 C1151 0.959 . S
H1150 C1151 0.961 . S
C1151 C1141 1.510 . S
C1151 H1149 0.959 . S
C1151 H1150 0.961 . S
C1151 H1152 0.960 . S
H1152 C1151 0.960 . S
H1153 N1133 0.862 . S
O1154 Co1122 1.920 . S
O1154 C1127 1.289 . S
C1155 O1147 1.258 . S
C1155 O1148 1.266 . S
Co1156 O1159 1.970 . S
Co1156 N1173 1.989 . S
Co1156 O1181 1.967 . S
Co1156 O1188 1.920 . S
Co1157 O1160 1.966 . S
Co1157 N1166 2.022 . S
Co1157 N1174 1.993 . S
Co1157 O1182 1.941 . S
C1158 O1159 1.258 . S
C1158 O1160 1.263 . S
O1159 Co1156 1.970 . S
O1159 C1158 1.258 . S
O1160 Co1157 1.966 . S
O1160 C1158 1.263 . S
C1161 O1162 1.235 . S
C1161 O1188 1.289 . S
O1162 C1161 1.235 . S
C1163 C1165 1.400 . S
C1163 N1166 1.351 . S
C1163 C1168 1.501 . S
C1164 C1165 1.387 . S
C1164 N1167 1.341 . S
C1165 C1163 1.400 . S
C1165 C1164 1.387 . S
N1166 Co1157 2.022 . S
N1166 C1163 1.351 . S
N1166 N1167 1.365 . S
N1167 C1164 1.341 . S
N1167 N1166 1.365 . S
N1167 H1187 0.862 . S
C1168 C1163 1.501 . S
C1168 H1169 0.961 . S
C1168 H1170 0.961 . S
C1168 H1171 0.960 . S
H1169 C1168 0.961 . S
H1170 C1168 0.961 . S
H1171 C1168 0.960 . S
C1172 N1173 1.342 . S
C1172 C1176 1.401 . S
C1172 C1177 1.499 . S
N1173 Co1156 1.989 . S
N1173 C1172 1.342 . S
N1173 N1174 1.388 . S
N1174 Co1157 1.993 . S
N1174 N1173 1.388 . S
N1174 C1175 1.346 . S
C1175 N1174 1.346 . S
C1175 C1176 1.396 . S
C1175 C1185 1.510 . S
C1176 C1172 1.401 . S
C1176 C1175 1.396 . S
C1177 C1172 1.499 . S
C1177 H1178 0.959 . S
C1177 H1179 0.960 . S
C1177 H1180 0.961 . S
H1178 C1177 0.959 . S
H1179 C1177 0.960 . S
H1180 C1177 0.961 . S
O1181 Co1156 1.967 . S
O1181 C1189 1.258 . S
O1182 Co1157 1.941 . S
O1182 C1189 1.266 . S
H1183 C1185 0.959 . S
H1184 C1185 0.961 . S
C1185 C1175 1.510 . S
C1185 H1183 0.959 . S
C1185 H1184 0.961 . S
C1185 H1186 0.960 . S
H1186 C1185 0.960 . S
H1187 N1167 0.862 . S
O1188 Co1156 1.920 . S
O1188 C1161 1.289 . S
C1189 O1181 1.258 . S
C1189 O1182 1.266 . S
Co1190 O1193 1.970 . S
Co1190 N1207 1.989 . S
Co1190 O1215 1.967 . S
Co1190 O1222 1.920 . S
Co1191 O1194 1.966 . S
Co1191 N1200 2.022 . S
Co1191 N1208 1.993 . S
Co1191 O1216 1.941 . S
C1192 O1193 1.258 . S
C1192 O1194 1.263 . S
O1193 Co1190 1.970 . S
O1193 C1192 1.258 . S
O1194 Co1191 1.966 . S
O1194 C1192 1.263 . S
C1195 O1196 1.235 . S
C1195 O1222 1.289 . S
O1196 C1195 1.235 . S
C1197 C1199 1.400 . S
C1197 N1200 1.351 . S
C1197 C1202 1.501 . S
C1198 C1199 1.387 . S
C1198 N1201 1.341 . S
C1199 C1197 1.400 . S
C1199 C1198 1.387 . S
N1200 Co1191 2.022 . S
N1200 C1197 1.351 . S
N1200 N1201 1.365 . S
N1201 C1198 1.341 . S
N1201 N1200 1.365 . S
N1201 H1221 0.862 . S
C1202 C1197 1.501 . S
C1202 H1203 0.961 . S
C1202 H1204 0.961 . S
C1202 H1205 0.960 . S
H1203 C1202 0.961 . S
H1204 C1202 0.961 . S
H1205 C1202 0.960 . S
C1206 N1207 1.342 . S
C1206 C1210 1.401 . S
C1206 C1211 1.499 . S
N1207 Co1190 1.989 . S
N1207 C1206 1.342 . S
N1207 N1208 1.388 . S
N1208 Co1191 1.993 . S
N1208 N1207 1.388 . S
N1208 C1209 1.346 . S
C1209 N1208 1.346 . S
C1209 C1210 1.396 . S
C1209 C1219 1.510 . S
C1210 C1206 1.401 . S
C1210 C1209 1.396 . S
C1211 C1206 1.499 . S
C1211 H1212 0.959 . S
C1211 H1213 0.960 . S
C1211 H1214 0.961 . S
H1212 C1211 0.959 . S
H1213 C1211 0.960 . S
H1214 C1211 0.961 . S
O1215 Co1190 1.967 . S
O1215 C1223 1.258 . S
O1216 Co1191 1.941 . S
O1216 C1223 1.266 . S
H1217 C1219 0.959 . S
H1218 C1219 0.961 . S
C1219 C1209 1.510 . S
C1219 H1217 0.959 . S
C1219 H1218 0.961 . S
C1219 H1220 0.960 . S
H1220 C1219 0.960 . S
H1221 N1201 0.862 . S
O1222 Co1190 1.920 . S
O1222 C1195 1.289 . S
C1223 O1215 1.258 . S
C1223 O1216 1.266 . S
H1224 C1230 0.930 . S
H1225 C1234 0.930 . S
H1226 C1239 0.929 . S
H1227 C1237 0.929 . S
H1228 C1232 0.929 . S
H1229 C1238 0.929 . S
C1230 H1224 0.930 . S
C1230 C1231 1.367 . S
C1230 C1238 1.378 . S
C1231 C1230 1.367 . S
C1231 C1239 1.433 . S
C1232 H1228 0.929 . S
C1232 C1234 1.378 . S
C1232 C1236 1.350 . S
C1233 C1236 1.463 . S
C1233 C1238 1.350 . S
C1233 N1241 1.427 . S
C1234 H1225 0.930 . S
C1234 C1232 1.378 . S
C1234 C1235 1.367 . S
C1235 C1234 1.367 . S
C1235 C1237 1.433 . S
C1236 C1232 1.350 . S
C1236 C1233 1.463 . S
C1236 N1240 1.427 . S
C1237 H1227 0.929 . S
C1237 C1235 1.433 . S
C1237 N1240 1.384 . S
C1238 H1229 0.929 . S
C1238 C1230 1.378 . S
C1238 C1233 1.350 . S
C1239 H1226 0.929 . S
C1239 C1231 1.433 . S
C1239 N1241 1.384 . S
N1240 C1236 1.427 . S
N1240 C1237 1.384 . S
N1241 C1233 1.427 . S
N1241 C1239 1.384 . S
H1242 C1248 0.930 . S
H1243 C1252 0.930 . S
H1244 C1257 0.929 . S
H1245 C1255 0.929 . S
H1246 C1250 0.929 . S
H1247 C1256 0.929 . S
C1248 H1242 0.930 . S
C1248 C1249 1.367 . S
C1248 C1256 1.378 . S
C1249 C1248 1.367 . S
C1249 C1257 1.433 . S
C1250 H1246 0.929 . S
C1250 C1252 1.378 . S
C1250 C1254 1.350 . S
C1251 C1254 1.463 . S
C1251 C1256 1.350 . S
C1251 N1259 1.427 . S
C1252 H1243 0.930 . S
C1252 C1250 1.378 . S
C1252 C1253 1.367 . S
C1253 C1252 1.367 . S
C1253 C1255 1.433 . S
C1254 C1250 1.350 . S
C1254 C1251 1.463 . S
C1254 N1258 1.427 . S
C1255 H1245 0.929 . S
C1255 C1253 1.433 . S
C1255 N1258 1.384 . S
C1256 H1247 0.929 . S
C1256 C1248 1.378 . S
C1256 C1251 1.350 . S
C1257 H1244 0.929 . S
C1257 C1249 1.433 . S
C1257 N1259 1.384 . S
N1258 C1254 1.427 . S
N1258 C1255 1.384 . S
N1259 C1251 1.427 . S
N1259 C1257 1.384 . S
H1260 C1266 0.930 . S
H1261 C1270 0.930 . S
H1262 C1275 0.929 . S
H1263 C1273 0.929 . S
H1264 C1268 0.929 . S
H1265 C1274 0.929 . S
C1266 H1260 0.930 . S
C1266 C1267 1.367 . S
C1266 C1274 1.378 . S
C1267 C1266 1.367 . S
C1267 C1275 1.433 . S
C1268 H1264 0.929 . S
C1268 C1270 1.378 . S
C1268 C1272 1.350 . S
C1269 C1272 1.463 . S
C1269 C1274 1.350 . S
C1269 N1277 1.427 . S
C1270 H1261 0.930 . S
C1270 C1268 1.378 . S
C1270 C1271 1.367 . S
C1271 C1270 1.367 . S
C1271 C1273 1.433 . S
C1272 C1268 1.350 . S
C1272 C1269 1.463 . S
C1272 N1276 1.427 . S
C1273 H1263 0.929 . S
C1273 C1271 1.433 . S
C1273 N1276 1.384 . S
C1274 H1265 0.929 . S
C1274 C1266 1.378 . S
C1274 C1269 1.350 . S
C1275 H1262 0.929 . S
C1275 C1267 1.433 . S
C1275 N1277 1.384 . S
N1276 C1272 1.427 . S
N1276 C1273 1.384 . S
N1277 C1269 1.427 . S
N1277 C1275 1.384 . S
H1278 C1284 0.930 . S
H1279 C1288 0.930 . S
H1280 C1293 0.929 . S
H1281 C1291 0.929 . S
H1282 C1286 0.929 . S
H1283 C1292 0.929 . S
C1284 H1278 0.930 . S
C1284 C1285 1.367 . S
C1284 C1292 1.378 . S
C1285 C1284 1.367 . S
C1285 C1293 1.433 . S
C1286 H1282 0.929 . S
C1286 C1288 1.378 . S
C1286 C1290 1.350 . S
C1287 C1290 1.463 . S
C1287 C1292 1.350 . S
C1287 N1295 1.427 . S
C1288 H1279 0.930 . S
C1288 C1286 1.378 . S
C1288 C1289 1.367 . S
C1289 C1288 1.367 . S
C1289 C1291 1.433 . S
C1290 C1286 1.350 . S
C1290 C1287 1.463 . S
C1290 N1294 1.427 . S
C1291 H1281 0.929 . S
C1291 C1289 1.433 . S
C1291 N1294 1.384 . S
C1292 H1283 0.929 . S
C1292 C1284 1.378 . S
C1292 C1287 1.350 . S
C1293 H1280 0.929 . S
C1293 C1285 1.433 . S
C1293 N1295 1.384 . S
N1294 C1290 1.427 . S
N1294 C1291 1.384 . S
N1295 C1287 1.427 . S
N1295 C1293 1.384 . S
H1296 C1302 0.930 . S
H1297 C1306 0.930 . S
H1298 C1311 0.929 . S
H1299 C1309 0.929 . S
H1300 C1304 0.929 . S
H1301 C1310 0.929 . S
C1302 H1296 0.930 . S
C1302 C1303 1.367 . S
C1302 C1310 1.378 . S
C1303 C1302 1.367 . S
C1303 C1311 1.433 . S
C1304 H1300 0.929 . S
C1304 C1306 1.378 . S
C1304 C1308 1.350 . S
C1305 C1308 1.463 . S
C1305 C1310 1.350 . S
C1305 N1313 1.427 . S
C1306 H1297 0.930 . S
C1306 C1304 1.378 . S
C1306 C1307 1.367 . S
C1307 C1306 1.367 . S
C1307 C1309 1.433 . S
C1308 C1304 1.350 . S
C1308 C1305 1.463 . S
C1308 N1312 1.427 . S
C1309 H1299 0.929 . S
C1309 C1307 1.433 . S
C1309 N1312 1.384 . S
C1310 H1301 0.929 . S
C1310 C1302 1.378 . S
C1310 C1305 1.350 . S
C1311 H1298 0.929 . S
C1311 C1303 1.433 . S
C1311 N1313 1.384 . S
N1312 C1308 1.427 . S
N1312 C1309 1.384 . S
N1313 C1305 1.427 . S
N1313 C1311 1.384 . S
H1314 C1320 0.930 . S
H1315 C1324 0.930 . S
H1316 C1329 0.929 . S
H1317 C1327 0.929 . S
H1318 C1322 0.929 . S
H1319 C1328 0.929 . S
C1320 H1314 0.930 . S
C1320 C1321 1.367 . S
C1320 C1328 1.378 . S
C1321 C1320 1.367 . S
C1321 C1329 1.433 . S
C1322 H1318 0.929 . S
C1322 C1324 1.378 . S
C1322 C1326 1.350 . S
C1323 C1326 1.463 . S
C1323 C1328 1.350 . S
C1323 N1331 1.427 . S
C1324 H1315 0.930 . S
C1324 C1322 1.378 . S
C1324 C1325 1.367 . S
C1325 C1324 1.367 . S
C1325 C1327 1.433 . S
C1326 C1322 1.350 . S
C1326 C1323 1.463 . S
C1326 N1330 1.427 . S
C1327 H1317 0.929 . S
C1327 C1325 1.433 . S
C1327 N1330 1.384 . S
C1328 H1319 0.929 . S
C1328 C1320 1.378 . S
C1328 C1323 1.350 . S
C1329 H1316 0.929 . S
C1329 C1321 1.433 . S
C1329 N1331 1.384 . S
N1330 C1326 1.427 . S
N1330 C1327 1.384 . S
N1331 C1323 1.427 . S
N1331 C1329 1.384 . S
H1332 C1338 0.930 . S
H1333 C1342 0.930 . S
H1334 C1347 0.929 . S
H1335 C1345 0.929 . S
H1336 C1340 0.929 . S
H1337 C1346 0.929 . S
C1338 H1332 0.930 . S
C1338 C1339 1.367 . S
C1338 C1346 1.378 . S
C1339 C1338 1.367 . S
C1339 C1347 1.433 . S
C1340 H1336 0.929 . S
C1340 C1342 1.378 . S
C1340 C1344 1.350 . S
C1341 C1344 1.463 . S
C1341 C1346 1.350 . S
C1341 N1349 1.427 . S
C1342 H1333 0.930 . S
C1342 C1340 1.378 . S
C1342 C1343 1.367 . S
C1343 C1342 1.367 . S
C1343 C1345 1.433 . S
C1344 C1340 1.350 . S
C1344 C1341 1.463 . S
C1344 N1348 1.427 . S
C1345 H1335 0.929 . S
C1345 C1343 1.433 . S
C1345 N1348 1.384 . S
C1346 H1337 0.929 . S
C1346 C1338 1.378 . S
C1346 C1341 1.350 . S
C1347 H1334 0.929 . S
C1347 C1339 1.433 . S
C1347 N1349 1.384 . S
N1348 C1344 1.427 . S
N1348 C1345 1.384 . S
N1349 C1341 1.427 . S
N1349 C1347 1.384 . S
H1350 C1356 0.930 . S
H1351 C1360 0.930 . S
H1352 C1365 0.929 . S
H1353 C1363 0.929 . S
H1354 C1358 0.929 . S
H1355 C1364 0.929 . S
C1356 H1350 0.930 . S
C1356 C1357 1.367 . S
C1356 C1364 1.378 . S
C1357 C1356 1.367 . S
C1357 C1365 1.433 . S
C1358 H1354 0.929 . S
C1358 C1360 1.378 . S
C1358 C1362 1.350 . S
C1359 C1362 1.463 . S
C1359 C1364 1.350 . S
C1359 N1367 1.427 . S
C1360 H1351 0.930 . S
C1360 C1358 1.378 . S
C1360 C1361 1.367 . S
C1361 C1360 1.367 . S
C1361 C1363 1.433 . S
C1362 C1358 1.350 . S
C1362 C1359 1.463 . S
C1362 N1366 1.427 . S
C1363 H1353 0.929 . S
C1363 C1361 1.433 . S
C1363 N1366 1.384 . S
C1364 H1355 0.929 . S
C1364 C1356 1.378 . S
C1364 C1359 1.350 . S
C1365 H1352 0.929 . S
C1365 C1357 1.433 . S
C1365 N1367 1.384 . S
N1366 C1362 1.427 . S
N1366 C1363 1.384 . S
N1367 C1359 1.427 . S
N1367 C1365 1.384 . S
H1368 C1374 0.930 . S
H1369 C1378 0.930 . S
H1370 C1383 0.929 . S
H1371 C1381 0.929 . S
H1372 C1376 0.929 . S
H1373 C1382 0.929 . S
C1374 H1368 0.930 . S
C1374 C1375 1.367 . S
C1374 C1382 1.378 . S
C1375 C1374 1.367 . S
C1375 C1383 1.433 . S
C1376 H1372 0.929 . S
C1376 C1378 1.378 . S
C1376 C1380 1.350 . S
C1377 C1380 1.463 . S
C1377 C1382 1.350 . S
C1377 N1385 1.427 . S
C1378 H1369 0.930 . S
C1378 C1376 1.378 . S
C1378 C1379 1.367 . S
C1379 C1378 1.367 . S
C1379 C1381 1.433 . S
C1380 C1376 1.350 . S
C1380 C1377 1.463 . S
C1380 N1384 1.427 . S
C1381 H1371 0.929 . S
C1381 C1379 1.433 . S
C1381 N1384 1.384 . S
C1382 H1373 0.929 . S
C1382 C1374 1.378 . S
C1382 C1377 1.350 . S
C1383 H1370 0.929 . S
C1383 C1375 1.433 . S
C1383 N1385 1.384 . S
N1384 C1380 1.427 . S
N1384 C1381 1.384 . S
N1385 C1377 1.427 . S
N1385 C1383 1.384 . S
H1386 C1392 0.930 . S
H1387 C1396 0.930 . S
H1388 C1401 0.929 . S
H1389 C1399 0.929 . S
H1390 C1394 0.929 . S
H1391 C1400 0.929 . S
C1392 H1386 0.930 . S
C1392 C1393 1.367 . S
C1392 C1400 1.378 . S
C1393 C1392 1.367 . S
C1393 C1401 1.433 . S
C1394 H1390 0.929 . S
C1394 C1396 1.378 . S
C1394 C1398 1.350 . S
C1395 C1398 1.463 . S
C1395 C1400 1.350 . S
C1395 N1403 1.427 . S
C1396 H1387 0.930 . S
C1396 C1394 1.378 . S
C1396 C1397 1.367 . S
C1397 C1396 1.367 . S
C1397 C1399 1.433 . S
C1398 C1394 1.350 . S
C1398 C1395 1.463 . S
C1398 N1402 1.427 . S
C1399 H1389 0.929 . S
C1399 C1397 1.433 . S
C1399 N1402 1.384 . S
C1400 H1391 0.929 . S
C1400 C1392 1.378 . S
C1400 C1395 1.350 . S
C1401 H1388 0.929 . S
C1401 C1393 1.433 . S
C1401 N1403 1.384 . S
N1402 C1398 1.427 . S
N1402 C1399 1.384 . S
N1403 C1395 1.427 . S
N1403 C1401 1.384 . S
H1404 C1410 0.930 . S
H1405 C1414 0.930 . S
H1406 C1419 0.929 . S
H1407 C1417 0.929 . S
H1408 C1412 0.929 . S
H1409 C1418 0.929 . S
C1410 H1404 0.930 . S
C1410 C1411 1.367 . S
C1410 C1418 1.378 . S
C1411 C1410 1.367 . S
C1411 C1419 1.433 . S
C1412 H1408 0.929 . S
C1412 C1414 1.378 . S
C1412 C1416 1.350 . S
C1413 C1416 1.463 . S
C1413 C1418 1.350 . S
C1413 N1421 1.427 . S
C1414 H1405 0.930 . S
C1414 C1412 1.378 . S
C1414 C1415 1.367 . S
C1415 C1414 1.367 . S
C1415 C1417 1.433 . S
C1416 C1412 1.350 . S
C1416 C1413 1.463 . S
C1416 N1420 1.427 . S
C1417 H1407 0.929 . S
C1417 C1415 1.433 . S
C1417 N1420 1.384 . S
C1418 H1409 0.929 . S
C1418 C1410 1.378 . S
C1418 C1413 1.350 . S
C1419 H1406 0.929 . S
C1419 C1411 1.433 . S
C1419 N1421 1.384 . S
N1420 C1416 1.427 . S
N1420 C1417 1.384 . S
N1421 C1413 1.427 . S
N1421 C1419 1.384 . S
H1422 C1428 0.930 . S
H1423 C1432 0.930 . S
H1424 C1437 0.929 . S
H1425 C1435 0.929 . S
H1426 C1430 0.929 . S
H1427 C1436 0.929 . S
C1428 H1422 0.930 . S
C1428 C1429 1.367 . S
C1428 C1436 1.378 . S
C1429 C1428 1.367 . S
C1429 C1437 1.433 . S
C1430 H1426 0.929 . S
C1430 C1432 1.378 . S
C1430 C1434 1.350 . S
C1431 C1434 1.463 . S
C1431 C1436 1.350 . S
C1431 N1439 1.427 . S
C1432 H1423 0.930 . S
C1432 C1430 1.378 . S
C1432 C1433 1.367 . S
C1433 C1432 1.367 . S
C1433 C1435 1.433 . S
C1434 C1430 1.350 . S
C1434 C1431 1.463 . S
C1434 N1438 1.427 . S
C1435 H1425 0.929 . S
C1435 C1433 1.433 . S
C1435 N1438 1.384 . S
C1436 H1427 0.929 . S
C1436 C1428 1.378 . S
C1436 C1431 1.350 . S
C1437 H1424 0.929 . S
C1437 C1429 1.433 . S
C1437 N1439 1.384 . S
N1438 C1434 1.427 . S
N1438 C1435 1.384 . S
N1439 C1431 1.427 . S
N1439 C1437 1.384 . S
H1440 C1446 0.930 . S
H1441 C1450 0.930 . S
H1442 C1455 0.929 . S
H1443 C1453 0.929 . S
H1444 C1448 0.929 . S
H1445 C1454 0.929 . S
C1446 H1440 0.930 . S
C1446 C1447 1.367 . S
C1446 C1454 1.378 . S
C1447 C1446 1.367 . S
C1447 C1455 1.433 . S
C1448 H1444 0.929 . S
C1448 C1450 1.378 . S
C1448 C1452 1.350 . S
C1449 C1452 1.463 1_455 S
C1449 C1454 1.350 . S
C1449 N1457 1.427 . S
C1450 H1441 0.930 . S
C1450 C1448 1.378 . S
C1450 C1451 1.367 . S
C1451 C1450 1.367 . S
C1451 C1453 1.433 . S
C1452 C1448 1.350 . S
C1452 C1449 1.463 1_655 S
C1452 N1456 1.427 . S
C1453 H1443 0.929 . S
C1453 C1451 1.433 . S
C1453 N1456 1.384 . S
C1454 H1445 0.929 . S
C1454 C1446 1.378 . S
C1454 C1449 1.350 . S
C1455 H1442 0.929 . S
C1455 C1447 1.433 . S
C1455 N1457 1.384 . S
N1456 C1452 1.427 . S
N1456 C1453 1.384 . S
N1457 C1449 1.427 . S
N1457 C1455 1.384 . S
H1458 C1464 0.930 . S
H1459 C1468 0.930 . S
H1460 C1473 0.929 . S
H1461 C1471 0.929 . S
H1462 C1466 0.929 . S
H1463 C1472 0.929 . S
C1464 H1458 0.930 . S
C1464 C1465 1.367 . S
C1464 C1472 1.378 . S
C1465 C1464 1.367 . S
C1465 C1473 1.433 . S
C1466 H1462 0.929 . S
C1466 C1468 1.378 . S
C1466 C1470 1.350 . S
C1467 C1470 1.463 . S
C1467 C1472 1.350 . S
C1467 N1475 1.427 . S
C1468 H1459 0.930 . S
C1468 C1466 1.378 . S
C1468 C1469 1.367 . S
C1469 C1468 1.367 . S
C1469 C1471 1.433 . S
C1470 C1466 1.350 . S
C1470 C1467 1.463 . S
C1470 N1474 1.427 . S
C1471 H1461 0.929 . S
C1471 C1469 1.433 . S
C1471 N1474 1.384 . S
C1472 H1463 0.929 . S
C1472 C1464 1.378 . S
C1472 C1467 1.350 . S
C1473 H1460 0.929 . S
C1473 C1465 1.433 . S
C1473 N1475 1.384 . S
N1474 C1470 1.427 . S
N1474 C1471 1.384 . S
N1475 C1467 1.427 . S
N1475 C1473 1.384 . S
H1476 C1482 0.930 . S
H1477 C1486 0.930 . S
H1478 C1491 0.929 . S
H1479 C1489 0.929 . S
H1480 C1484 0.931 1_545 S
H1481 C1490 0.931 1_565 S
C1482 H1476 0.930 . S
C1482 C1483 1.367 . S
C1482 C1490 1.378 . S
C1483 C1482 1.367 . S
C1483 C1491 1.433 . S
C1484 H1480 0.931 1_565 S
C1484 C1486 1.378 . S
C1484 C1488 1.350 . S
C1485 C1488 1.463 1_545 S
C1485 C1490 1.350 . S
C1485 N1493 1.427 . S
C1486 H1477 0.930 . S
C1486 C1484 1.378 . S
C1486 C1487 1.367 . S
C1487 C1486 1.367 . S
C1487 C1489 1.433 . S
C1488 C1484 1.350 . S
C1488 C1485 1.463 1_565 S
C1488 N1492 1.427 . S
C1489 H1479 0.929 . S
C1489 C1487 1.433 . S
C1489 N1492 1.384 . S
C1490 H1481 0.931 1_545 S
C1490 C1482 1.378 . S
C1490 C1485 1.350 . S
C1491 H1478 0.929 . S
C1491 C1483 1.433 . S
C1491 N1493 1.384 . S
N1492 C1488 1.427 . S
N1492 C1489 1.384 . S
N1493 C1485 1.427 . S
N1493 C1491 1.384 . S
H1494 C1500 0.930 . S
H1495 C1504 0.930 . S
H1496 C1509 0.929 . S
H1497 C1507 0.929 . S
H1498 C1502 0.929 . S
H1499 C1508 0.929 . S
C1500 H1494 0.930 . S
C1500 C1501 1.367 . S
C1500 C1508 1.378 1_556 S
C1501 C1500 1.367 . S
C1501 C1509 1.433 . S
C1502 H1498 0.929 . S
C1502 C1504 1.378 1_556 S
C1502 C1506 1.350 1_556 S
C1503 C1506 1.463 1_566 S
C1503 C1508 1.350 1_556 S
C1503 N1511 1.427 . S
C1504 H1495 0.930 . S
C1504 C1502 1.378 1_554 S
C1504 C1505 1.367 . S
C1505 C1504 1.367 . S
C1505 C1507 1.433 . S
C1506 C1502 1.350 1_554 S
C1506 C1503 1.463 1_544 S
C1506 N1510 1.427 . S
C1507 H1497 0.929 . S
C1507 C1505 1.433 . S
C1507 N1510 1.384 . S
C1508 H1499 0.929 . S
C1508 C1500 1.378 1_554 S
C1508 C1503 1.350 1_554 S
C1509 H1496 0.929 . S
C1509 C1501 1.433 . S
C1509 N1511 1.384 . S
N1510 C1506 1.427 . S
N1510 C1507 1.384 . S
N1511 C1503 1.427 . S
N1511 C1509 1.384 . S
H1512 C1518 0.930 . S
H1513 C1522 0.930 . S
H1514 C1527 0.929 . S
H1515 C1525 0.929 . S
H1516 C1520 0.929 . S
H1517 C1526 0.929 . S
C1518 H1512 0.930 . S
C1518 C1519 1.367 . S
C1518 C1526 1.378 . S
C1519 C1518 1.367 . S
C1519 C1527 1.433 . S
C1520 H1516 0.929 . S
C1520 C1522 1.378 . S
C1520 C1524 1.350 . S
C1521 C1524 1.463 1_654 S
C1521 C1526 1.350 . S
C1521 N1529 1.427 . S
C1522 H1513 0.930 . S
C1522 C1520 1.378 . S
C1522 C1523 1.367 . S
C1523 C1522 1.367 . S
C1523 C1525 1.433 . S
C1524 C1520 1.350 . S
C1524 C1521 1.463 1_456 S
C1524 N1528 1.427 . S
C1525 H1515 0.929 . S
C1525 C1523 1.433 . S
C1525 N1528 1.384 . S
C1526 H1517 0.929 . S
C1526 C1518 1.378 . S
C1526 C1521 1.350 . S
C1527 H1514 0.929 . S
C1527 C1519 1.433 . S
C1527 N1529 1.384 . S
N1528 C1524 1.427 . S
N1528 C1525 1.384 . S
N1529 C1521 1.427 . S
N1529 C1527 1.384 . S
H1530 C1536 0.930 1_556 S
H1531 C1540 0.930 1_554 S
H1532 C1545 0.929 . S
H1533 C1543 0.929 . S
H1534 C1538 0.929 . S
H1535 C1544 0.929 . S
C1536 H1530 0.930 1_554 S
C1536 C1537 1.367 . S
C1536 C1544 1.378 1_554 S
C1537 C1536 1.367 . S
C1537 C1545 1.433 . S
C1538 H1534 0.929 . S
C1538 C1540 1.378 1_554 S
C1538 C1542 1.350 1_554 S
C1539 C1542 1.463 1_554 S
C1539 C1544 1.350 1_554 S
C1539 N1547 1.427 . S
C1540 H1531 0.930 1_556 S
C1540 C1538 1.378 1_556 S
C1540 C1541 1.367 . S
C1541 C1540 1.367 . S
C1541 C1543 1.433 . S
C1542 C1538 1.350 1_556 S
C1542 C1539 1.463 1_556 S
C1542 N1546 1.427 . S
C1543 H1533 0.929 . S
C1543 C1541 1.433 . S
C1543 N1546 1.384 . S
C1544 H1535 0.929 . S
C1544 C1536 1.378 1_556 S
C1544 C1539 1.350 1_556 S
C1545 H1532 0.929 . S
C1545 C1537 1.433 . S
C1545 N1547 1.384 . S
N1546 C1542 1.427 . S
N1546 C1543 1.384 . S
N1547 C1539 1.427 . S
N1547 C1545 1.384 . S
H1548 C1554 0.930 . S
H1549 C1558 0.930 . S
H1550 C1563 0.929 . S
H1551 C1561 0.929 . S
H1552 C1556 0.929 . S
H1553 C1562 0.929 . S
C1554 H1548 0.930 . S
C1554 C1555 1.367 . S
C1554 C1562 1.378 . S
C1555 C1554 1.367 . S
C1555 C1563 1.433 . S
C1556 H1552 0.929 . S
C1556 C1558 1.378 . S
C1556 C1560 1.350 . S
C1557 C1560 1.463 . S
C1557 C1562 1.350 . S
C1557 N1565 1.427 . S
C1558 H1549 0.930 . S
C1558 C1556 1.378 . S
C1558 C1559 1.367 . S
C1559 C1558 1.367 . S
C1559 C1561 1.433 . S
C1560 C1556 1.350 . S
C1560 C1557 1.463 . S
C1560 N1564 1.427 . S
C1561 H1551 0.929 . S
C1561 C1559 1.433 . S
C1561 N1564 1.384 . S
C1562 H1553 0.929 . S
C1562 C1554 1.378 . S
C1562 C1557 1.350 . S
C1563 H1550 0.929 . S
C1563 C1555 1.433 . S
C1563 N1565 1.384 . S
N1564 C1560 1.427 . S
N1564 C1561 1.384 . S
N1565 C1557 1.427 . S
N1565 C1563 1.384 . S
H1566 C1572 0.930 . S
H1567 C1576 0.930 . S
H1568 C1581 0.929 . S
H1569 C1579 0.929 . S
H1570 C1574 0.929 . S
H1571 C1580 0.929 . S
C1572 H1566 0.930 . S
C1572 C1573 1.367 . S
C1572 C1580 1.378 . S
C1573 C1572 1.367 . S
C1573 C1581 1.433 . S
C1574 H1570 0.929 . S
C1574 C1576 1.378 . S
C1574 C1578 1.350 . S
C1575 C1578 1.463 1_565 S
C1575 C1580 1.350 . S
C1575 N1583 1.427 . S
C1576 H1567 0.930 . S
C1576 C1574 1.378 . S
C1576 C1577 1.367 . S
C1577 C1576 1.367 . S
C1577 C1579 1.433 . S
C1578 C1574 1.350 . S
C1578 C1575 1.463 1_545 S
C1578 N1582 1.427 . S
C1579 H1569 0.929 . S
C1579 C1577 1.433 . S
C1579 N1582 1.384 . S
C1580 H1571 0.929 . S
C1580 C1572 1.378 . S
C1580 C1575 1.350 . S
C1581 H1568 0.929 . S
C1581 C1573 1.433 . S
C1581 N1583 1.384 . S
N1582 C1578 1.427 . S
N1582 C1579 1.384 . S
N1583 C1575 1.427 . S
N1583 C1581 1.384 . S
H1584 C1590 0.930 . S
H1585 C1594 0.930 . S
H1586 C1599 0.929 . S
H1587 C1597 0.929 . S
H1588 C1592 0.929 . S
H1589 C1598 0.929 . S
C1590 H1584 0.930 . S
C1590 C1591 1.367 . S
C1590 C1598 1.378 . S
C1591 C1590 1.367 . S
C1591 C1599 1.433 . S
C1592 H1588 0.929 . S
C1592 C1594 1.378 . S
C1592 C1596 1.350 . S
C1593 C1596 1.463 1_655 S
C1593 C1598 1.350 . S
C1593 N1601 1.427 . S
C1594 H1585 0.930 . S
C1594 C1592 1.378 . S
C1594 C1595 1.367 . S
C1595 C1594 1.367 . S
C1595 C1597 1.433 . S
C1596 C1592 1.350 . S
C1596 C1593 1.463 1_455 S
C1596 N1600 1.427 . S
C1597 H1587 0.929 . S
C1597 C1595 1.433 . S
C1597 N1600 1.384 . S
C1598 H1589 0.929 . S
C1598 C1590 1.378 . S
C1598 C1593 1.350 . S
C1599 H1586 0.929 . S
C1599 C1591 1.433 . S
C1599 N1601 1.384 . S
N1600 C1596 1.427 . S
N1600 C1597 1.384 . S
N1601 C1593 1.427 . S
N1601 C1599 1.384 . S
H1602 C1608 0.930 . S
H1603 C1612 0.930 . S
H1604 C1617 0.929 . S
H1605 C1615 0.929 . S
H1606 C1610 0.929 . S
H1607 C1616 0.929 . S
C1608 H1602 0.930 . S
C1608 C1609 1.367 . S
C1608 C1616 1.378 . S
C1609 C1608 1.367 . S
C1609 C1617 1.433 . S
C1610 H1606 0.929 . S
C1610 C1612 1.378 . S
C1610 C1614 1.350 . S
C1611 C1614 1.463 . S
C1611 C1616 1.350 . S
C1611 N1619 1.427 . S
C1612 H1603 0.930 . S
C1612 C1610 1.378 . S
C1612 C1613 1.367 . S
C1613 C1612 1.367 . S
C1613 C1615 1.433 . S
C1614 C1610 1.350 . S
C1614 C1611 1.463 . S
C1614 N1618 1.427 . S
C1615 H1605 0.929 . S
C1615 C1613 1.433 . S
C1615 N1618 1.384 . S
C1616 H1607 0.929 . S
C1616 C1608 1.378 . S
C1616 C1611 1.350 . S
C1617 H1604 0.929 . S
C1617 C1609 1.433 . S
C1617 N1619 1.384 . S
N1618 C1614 1.427 . S
N1618 C1615 1.384 . S
N1619 C1611 1.427 . S
N1619 C1617 1.384 . S
H1620 C1626 0.930 . S
H1621 C1630 0.930 . S
H1622 C1635 0.929 . S
H1623 C1633 0.929 . S
H1624 C1628 0.929 . S
H1625 C1634 0.929 . S
C1626 H1620 0.930 . S
C1626 C1627 1.367 . S
C1626 C1634 1.378 . S
C1627 C1626 1.367 . S
C1627 C1635 1.433 . S
C1628 H1624 0.929 . S
C1628 C1630 1.378 . S
C1628 C1632 1.350 . S
C1629 C1632 1.463 1_565 S
C1629 C1634 1.350 . S
C1629 N1637 1.427 . S
C1630 H1621 0.930 . S
C1630 C1628 1.378 . S
C1630 C1631 1.367 . S
C1631 C1630 1.367 . S
C1631 C1633 1.433 . S
C1632 C1628 1.350 . S
C1632 C1629 1.463 1_545 S
C1632 N1636 1.427 . S
C1633 H1623 0.929 . S
C1633 C1631 1.433 . S
C1633 N1636 1.384 . S
C1634 H1625 0.929 . S
C1634 C1626 1.378 . S
C1634 C1629 1.350 . S
C1635 H1622 0.929 . S
C1635 C1627 1.433 . S
C1635 N1637 1.384 . S
N1636 C1632 1.427 . S
N1636 C1633 1.384 . S
N1637 C1629 1.427 . S
N1637 C1635 1.384 . S
H1638 C1644 0.930 . S
H1639 C1648 0.930 . S
H1640 C1653 0.929 . S
H1641 C1651 0.929 . S
H1642 C1646 0.929 . S
H1643 C1652 0.929 . S
C1644 H1638 0.930 . S
C1644 C1645 1.367 . S
C1644 C1652 1.378 . S
C1645 C1644 1.367 . S
C1645 C1653 1.433 . S
C1646 H1642 0.929 . S
C1646 C1648 1.378 . S
C1646 C1650 1.350 . S
C1647 C1650 1.463 1_655 S
C1647 C1652 1.350 . S
C1647 N1655 1.427 . S
C1648 H1639 0.930 . S
C1648 C1646 1.378 . S
C1648 C1649 1.367 . S
C1649 C1648 1.367 . S
C1649 C1651 1.433 . S
C1650 C1646 1.350 . S
C1650 C1647 1.463 1_455 S
C1650 N1654 1.427 . S
C1651 H1641 0.929 . S
C1651 C1649 1.433 . S
C1651 N1654 1.384 . S
C1652 H1643 0.929 . S
C1652 C1644 1.378 . S
C1652 C1647 1.350 . S
C1653 H1640 0.929 . S
C1653 C1645 1.433 . S
C1653 N1655 1.384 . S
N1654 C1650 1.427 . S
N1654 C1651 1.384 . S
N1655 C1647 1.427 . S
N1655 C1653 1.384 . S
H1656 C1662 0.930 . S
H1657 C1666 0.930 . S
H1658 C1671 0.929 . S
H1659 C1669 0.929 . S
H1660 C1664 0.929 . S
H1661 C1670 0.929 . S
C1662 H1656 0.930 . S
C1662 C1663 1.367 . S
C1662 C1670 1.378 . S
C1663 C1662 1.367 . S
C1663 C1671 1.433 . S
C1664 H1660 0.929 . S
C1664 C1666 1.378 . S
C1664 C1668 1.350 . S
C1665 C1668 1.463 . S
C1665 C1670 1.350 . S
C1665 N1673 1.427 . S
C1666 H1657 0.930 . S
C1666 C1664 1.378 . S
C1666 C1667 1.367 . S
C1667 C1666 1.367 . S
C1667 C1669 1.433 . S
C1668 C1664 1.350 . S
C1668 C1665 1.463 . S
C1668 N1672 1.427 . S
C1669 H1659 0.929 . S
C1669 C1667 1.433 . S
C1669 N1672 1.384 . S
C1670 H1661 0.929 . S
C1670 C1662 1.378 . S
C1670 C1665 1.350 . S
C1671 H1658 0.929 . S
C1671 C1663 1.433 . S
C1671 N1673 1.384 . S
N1672 C1668 1.427 . S
N1672 C1669 1.384 . S
N1673 C1665 1.427 . S
N1673 C1671 1.384 . S
H1674 C1680 0.930 . S
H1675 C1684 0.930 . S
H1676 C1689 0.929 . S
H1677 C1687 0.929 . S
H1678 C1682 0.929 . S
H1679 C1688 0.929 . S
C1680 H1674 0.930 . S
C1680 C1681 1.367 . S
C1680 C1688 1.378 . S
C1681 C1680 1.367 . S
C1681 C1689 1.433 . S
C1682 H1678 0.929 . S
C1682 C1684 1.378 . S
C1682 C1686 1.350 . S
C1683 C1686 1.463 . S
C1683 C1688 1.350 . S
C1683 N1691 1.427 . S
C1684 H1675 0.930 . S
C1684 C1682 1.378 . S
C1684 C1685 1.367 . S
C1685 C1684 1.367 . S
C1685 C1687 1.433 . S
C1686 C1682 1.350 . S
C1686 C1683 1.463 . S
C1686 N1690 1.427 . S
C1687 H1677 0.929 . S
C1687 C1685 1.433 . S
C1687 N1690 1.384 . S
C1688 H1679 0.929 . S
C1688 C1680 1.378 . S
C1688 C1683 1.350 . S
C1689 H1676 0.929 . S
C1689 C1681 1.433 . S
C1689 N1691 1.384 . S
N1690 C1686 1.427 . S
N1690 C1687 1.384 . S
N1691 C1683 1.427 . S
N1691 C1689 1.384 . S
H1692 C1698 0.930 . S
H1693 C1702 0.930 . S
H1694 C1707 0.929 . S
H1695 C1705 0.929 . S
H1696 C1700 0.929 . S
H1697 C1706 0.929 . S
C1698 H1692 0.930 . S
C1698 C1699 1.367 . S
C1698 C1706 1.378 . S
C1699 C1698 1.367 . S
C1699 C1707 1.433 . S
C1700 H1696 0.929 . S
C1700 C1702 1.378 . S
C1700 C1704 1.350 . S
C1701 C1704 1.463 . S
C1701 C1706 1.350 . S
C1701 N1709 1.427 . S
C1702 H1693 0.930 . S
C1702 C1700 1.378 . S
C1702 C1703 1.367 . S
C1703 C1702 1.367 . S
C1703 C1705 1.433 . S
C1704 C1700 1.350 . S
C1704 C1701 1.463 . S
C1704 N1708 1.427 . S
C1705 H1695 0.929 . S
C1705 C1703 1.433 . S
C1705 N1708 1.384 . S
C1706 H1697 0.929 . S
C1706 C1698 1.378 . S
C1706 C1701 1.350 . S
C1707 H1694 0.929 . S
C1707 C1699 1.433 . S
C1707 N1709 1.384 . S
N1708 C1704 1.427 . S
N1708 C1705 1.384 . S
N1709 C1701 1.427 . S
N1709 C1707 1.384 . S
H1710 C1716 0.930 . S
H1711 C1720 0.930 . S
H1712 C1725 0.929 . S
H1713 C1723 0.929 . S
H1714 C1718 0.929 . S
H1715 C1724 0.929 . S
C1716 H1710 0.930 . S
C1716 C1717 1.367 . S
C1716 C1724 1.378 . S
C1717 C1716 1.367 . S
C1717 C1725 1.433 . S
C1718 H1714 0.929 . S
C1718 C1720 1.378 . S
C1718 C1722 1.350 . S
C1719 C1722 1.463 . S
C1719 C1724 1.350 . S
C1719 N1727 1.427 . S
C1720 H1711 0.930 . S
C1720 C1718 1.378 . S
C1720 C1721 1.367 . S
C1721 C1720 1.367 . S
C1721 C1723 1.433 . S
C1722 C1718 1.350 . S
C1722 C1719 1.463 . S
C1722 N1726 1.427 . S
C1723 H1713 0.929 . S
C1723 C1721 1.433 . S
C1723 N1726 1.384 . S
C1724 H1715 0.929 . S
C1724 C1716 1.378 . S
C1724 C1719 1.350 . S
C1725 H1712 0.929 . S
C1725 C1717 1.433 . S
C1725 N1727 1.384 . S
N1726 C1722 1.427 . S
N1726 C1723 1.384 . S
N1727 C1719 1.427 . S
N1727 C1725 1.384 . S
H1728 C1734 0.930 . S
H1729 C1738 0.930 . S
H1730 C1743 0.929 . S
H1731 C1741 0.929 . S
H1732 C1736 0.929 . S
H1733 C1742 0.929 . S
C1734 H1728 0.930 . S
C1734 C1735 1.367 . S
C1734 C1742 1.378 . S
C1735 C1734 1.367 . S
C1735 C1743 1.433 . S
C1736 H1732 0.929 . S
C1736 C1738 1.378 . S
C1736 C1740 1.350 . S
C1737 C1740 1.463 . S
C1737 C1742 1.350 . S
C1737 N1745 1.427 . S
C1738 H1729 0.930 . S
C1738 C1736 1.378 . S
C1738 C1739 1.367 . S
C1739 C1738 1.367 . S
C1739 C1741 1.433 . S
C1740 C1736 1.350 . S
C1740 C1737 1.463 . S
C1740 N1744 1.427 . S
C1741 H1731 0.929 . S
C1741 C1739 1.433 . S
C1741 N1744 1.384 . S
C1742 H1733 0.929 . S
C1742 C1734 1.378 . S
C1742 C1737 1.350 . S
C1743 H1730 0.929 . S
C1743 C1735 1.433 . S
C1743 N1745 1.384 . S
N1744 C1740 1.427 . S
N1744 C1741 1.384 . S
N1745 C1737 1.427 . S
N1745 C1743 1.384 . S
H1746 C1752 0.930 . S
H1747 C1756 0.930 . S
H1748 C1761 0.929 . S
H1749 C1759 0.929 . S
H1750 C1754 0.929 . S
H1751 C1760 0.929 . S
C1752 H1746 0.930 . S
C1752 C1753 1.367 . S
C1752 C1760 1.378 . S
C1753 C1752 1.367 . S
C1753 C1761 1.433 . S
C1754 H1750 0.929 . S
C1754 C1756 1.378 . S
C1754 C1758 1.350 . S
C1755 C1758 1.463 . S
C1755 C1760 1.350 . S
C1755 N1763 1.427 . S
C1756 H1747 0.930 . S
C1756 C1754 1.378 . S
C1756 C1757 1.367 . S
C1757 C1756 1.367 . S
C1757 C1759 1.433 . S
C1758 C1754 1.350 . S
C1758 C1755 1.463 . S
C1758 N1762 1.427 . S
C1759 H1749 0.929 . S
C1759 C1757 1.433 . S
C1759 N1762 1.384 . S
C1760 H1751 0.929 . S
C1760 C1752 1.378 . S
C1760 C1755 1.350 . S
C1761 H1748 0.929 . S
C1761 C1753 1.433 . S
C1761 N1763 1.384 . S
N1762 C1758 1.427 . S
N1762 C1759 1.384 . S
N1763 C1755 1.427 . S
N1763 C1761 1.384 . S
H1764 C1770 0.930 . S
H1765 C1774 0.930 . S
H1766 C1779 0.929 . S
H1767 C1777 0.929 . S
H1768 C1772 0.929 . S
H1769 C1778 0.929 . S
C1770 H1764 0.930 . S
C1770 C1771 1.367 . S
C1770 C1778 1.378 . S
C1771 C1770 1.367 . S
C1771 C1779 1.433 . S
C1772 H1768 0.929 . S
C1772 C1774 1.378 . S
C1772 C1776 1.350 . S
C1773 C1776 1.463 . S
C1773 C1778 1.350 . S
C1773 N1781 1.427 . S
C1774 H1765 0.930 . S
C1774 C1772 1.378 . S
C1774 C1775 1.367 . S
C1775 C1774 1.367 . S
C1775 C1777 1.433 . S
C1776 C1772 1.350 . S
C1776 C1773 1.463 . S
C1776 N1780 1.427 . S
C1777 H1767 0.929 . S
C1777 C1775 1.433 . S
C1777 N1780 1.384 . S
C1778 H1769 0.929 . S
C1778 C1770 1.378 . S
C1778 C1773 1.350 . S
C1779 H1766 0.929 . S
C1779 C1771 1.433 . S
C1779 N1781 1.384 . S
N1780 C1776 1.427 . S
N1780 C1777 1.384 . S
N1781 C1773 1.427 . S
N1781 C1779 1.384 . S
H1782 C1788 0.930 . S
H1783 C1792 0.930 . S
H1784 C1797 0.929 . S
H1785 C1795 0.929 . S
H1786 C1790 0.929 . S
H1787 C1796 0.929 . S
C1788 H1782 0.930 . S
C1788 C1789 1.367 . S
C1788 C1796 1.378 . S
C1789 C1788 1.367 . S
C1789 C1797 1.433 . S
C1790 H1786 0.929 . S
C1790 C1792 1.378 . S
C1790 C1794 1.350 . S
C1791 C1794 1.463 . S
C1791 C1796 1.350 . S
C1791 N1799 1.427 . S
C1792 H1783 0.930 . S
C1792 C1790 1.378 . S
C1792 C1793 1.367 . S
C1793 C1792 1.367 . S
C1793 C1795 1.433 . S
C1794 C1790 1.350 . S
C1794 C1791 1.463 . S
C1794 N1798 1.427 . S
C1795 H1785 0.929 . S
C1795 C1793 1.433 . S
C1795 N1798 1.384 . S
C1796 H1787 0.929 . S
C1796 C1788 1.378 . S
C1796 C1791 1.350 . S
C1797 H1784 0.929 . S
C1797 C1789 1.433 . S
C1797 N1799 1.384 . S
N1798 C1794 1.427 . S
N1798 C1795 1.384 . S
N1799 C1791 1.427 . S
N1799 C1797 1.384 . S
H1800 C1806 0.930 . S
H1801 C1810 0.930 . S
H1802 C1815 0.929 . S
H1803 C1813 0.929 . S
H1804 C1808 0.929 . S
H1805 C1814 0.929 . S
C1806 H1800 0.930 . S
C1806 C1807 1.367 . S
C1806 C1814 1.378 . S
C1807 C1806 1.367 . S
C1807 C1815 1.433 . S
C1808 H1804 0.929 . S
C1808 C1810 1.378 . S
C1808 C1812 1.350 . S
C1809 C1812 1.463 . S
C1809 C1814 1.350 . S
C1809 N1817 1.427 . S
C1810 H1801 0.930 . S
C1810 C1808 1.378 . S
C1810 C1811 1.367 . S
C1811 C1810 1.367 . S
C1811 C1813 1.433 . S
C1812 C1808 1.350 . S
C1812 C1809 1.463 . S
C1812 N1816 1.427 . S
C1813 H1803 0.929 . S
C1813 C1811 1.433 . S
C1813 N1816 1.384 . S
C1814 H1805 0.929 . S
C1814 C1806 1.378 . S
C1814 C1809 1.350 . S
C1815 H1802 0.929 . S
C1815 C1807 1.433 . S
C1815 N1817 1.384 . S
N1816 C1812 1.427 . S
N1816 C1813 1.384 . S
N1817 C1809 1.427 . S
N1817 C1815 1.384 . S
H1818 C1824 0.930 . S
H1819 C1828 0.930 . S
H1820 C1833 0.929 . S
H1821 C1831 0.929 . S
H1822 C1826 0.929 . S
H1823 C1832 0.929 . S
C1824 H1818 0.930 . S
C1824 C1825 1.367 . S
C1824 C1832 1.378 . S
C1825 C1824 1.367 . S
C1825 C1833 1.433 . S
C1826 H1822 0.929 . S
C1826 C1828 1.378 . S
C1826 C1830 1.350 . S
C1827 C1830 1.463 . S
C1827 C1832 1.350 . S
C1827 N1835 1.427 . S
C1828 H1819 0.930 . S
C1828 C1826 1.378 . S
C1828 C1829 1.367 . S
C1829 C1828 1.367 . S
C1829 C1831 1.433 . S
C1830 C1826 1.350 . S
C1830 C1827 1.463 . S
C1830 N1834 1.427 . S
C1831 H1821 0.929 . S
C1831 C1829 1.433 . S
C1831 N1834 1.384 . S
C1832 H1823 0.929 . S
C1832 C1824 1.378 . S
C1832 C1827 1.350 . S
C1833 H1820 0.929 . S
C1833 C1825 1.433 . S
C1833 N1835 1.384 . S
N1834 C1830 1.427 . S
N1834 C1831 1.384 . S
N1835 C1827 1.427 . S
N1835 C1833 1.384 . S
H1836 C1842 0.930 . S
H1837 C1846 0.930 . S
H1838 C1851 0.929 . S
H1839 C1849 0.929 . S
H1840 C1844 0.929 . S
H1841 C1850 0.929 . S
C1842 H1836 0.930 . S
C1842 C1843 1.367 . S
C1842 C1850 1.378 . S
C1843 C1842 1.367 . S
C1843 C1851 1.433 . S
C1844 H1840 0.929 . S
C1844 C1846 1.378 . S
C1844 C1848 1.350 . S
C1845 C1848 1.463 . S
C1845 C1850 1.350 . S
C1845 N1853 1.427 . S
C1846 H1837 0.930 . S
C1846 C1844 1.378 . S
C1846 C1847 1.367 . S
C1847 C1846 1.367 . S
C1847 C1849 1.433 . S
C1848 C1844 1.350 . S
C1848 C1845 1.463 . S
C1848 N1852 1.427 . S
C1849 H1839 0.929 . S
C1849 C1847 1.433 . S
C1849 N1852 1.384 . S
C1850 H1841 0.929 . S
C1850 C1842 1.378 . S
C1850 C1845 1.350 . S
C1851 H1838 0.929 . S
C1851 C1843 1.433 . S
C1851 N1853 1.384 . S
N1852 C1848 1.427 . S
N1852 C1849 1.384 . S
N1853 C1845 1.427 . S
N1853 C1851 1.384 . S
H1854 C1860 0.930 . S
H1855 C1864 0.930 . S
H1856 C1869 0.929 . S
H1857 C1867 0.929 . S
H1858 C1862 0.929 . S
H1859 C1868 0.929 . S
C1860 H1854 0.930 . S
C1860 C1861 1.367 . S
C1860 C1868 1.378 . S
C1861 C1860 1.367 . S
C1861 C1869 1.433 . S
C1862 H1858 0.929 . S
C1862 C1864 1.378 . S
C1862 C1866 1.350 . S
C1863 C1866 1.463 . S
C1863 C1868 1.350 . S
C1863 N1871 1.427 . S
C1864 H1855 0.930 . S
C1864 C1862 1.378 . S
C1864 C1865 1.367 . S
C1865 C1864 1.367 . S
C1865 C1867 1.433 . S
C1866 C1862 1.350 . S
C1866 C1863 1.463 . S
C1866 N1870 1.427 . S
C1867 H1857 0.929 . S
C1867 C1865 1.433 . S
C1867 N1870 1.384 . S
C1868 H1859 0.929 . S
C1868 C1860 1.378 . S
C1868 C1863 1.350 . S
C1869 H1856 0.929 . S
C1869 C1861 1.433 . S
C1869 N1871 1.384 . S
N1870 C1866 1.427 . S
N1870 C1867 1.384 . S
N1871 C1863 1.427 . S
N1871 C1869 1.384 . S
H1872 C1878 0.930 . S
H1873 C1882 0.930 . S
H1874 C1887 0.929 . S
H1875 C1885 0.929 . S
H1876 C1880 0.929 1_556 S
H1877 C1886 0.929 . S
C1878 H1872 0.930 . S
C1878 C1879 1.367 . S
C1878 C1886 1.378 . S
C1879 C1878 1.367 . S
C1879 C1887 1.433 . S
C1880 H1876 0.929 1_554 S
C1880 C1882 1.378 . S
C1880 C1884 1.350 . S
C1881 C1884 1.463 1_556 S
C1881 C1886 1.350 . S
C1881 N1889 1.427 . S
C1882 H1873 0.930 . S
C1882 C1880 1.378 . S
C1882 C1883 1.367 . S
C1883 C1882 1.367 . S
C1883 C1885 1.433 . S
C1884 C1880 1.350 . S
C1884 C1881 1.463 1_554 S
C1884 N1888 1.427 . S
C1885 H1875 0.929 . S
C1885 C1883 1.433 . S
C1885 N1888 1.384 . S
C1886 H1877 0.929 . S
C1886 C1878 1.378 . S
C1886 C1881 1.350 . S
C1887 H1874 0.929 . S
C1887 C1879 1.433 . S
C1887 N1889 1.384 . S
N1888 C1884 1.427 . S
N1888 C1885 1.384 . S
N1889 C1881 1.427 . S
N1889 C1887 1.384 . S
H1890 C1896 0.930 . S
H1891 C1900 0.930 . S
H1892 C1905 0.929 . S
H1893 C1903 0.929 . S
H1894 C1898 0.929 . S
H1895 C1904 0.929 . S
C1896 H1890 0.930 . S
C1896 C1897 1.367 . S
C1896 C1904 1.378 . S
C1897 C1896 1.367 . S
C1897 C1905 1.433 . S
C1898 H1894 0.929 . S
C1898 C1900 1.378 . S
C1898 C1902 1.350 . S
C1899 C1902 1.463 1_556 S
C1899 C1904 1.350 . S
C1899 N1907 1.427 . S
C1900 H1891 0.930 . S
C1900 C1898 1.378 . S
C1900 C1901 1.367 . S
C1901 C1900 1.367 . S
C1901 C1903 1.433 . S
C1902 C1898 1.350 . S
C1902 C1899 1.463 1_554 S
C1902 N1906 1.427 . S
C1903 H1893 0.929 . S
C1903 C1901 1.433 . S
C1903 N1906 1.384 . S
C1904 H1895 0.929 . S
C1904 C1896 1.378 . S
C1904 C1899 1.350 . S
C1905 H1892 0.929 . S
C1905 C1897 1.433 . S
C1905 N1907 1.384 . S
N1906 C1902 1.427 . S
N1906 C1903 1.384 . S
N1907 C1899 1.427 . S
N1907 C1905 1.384 . S
H1908 C1914 0.930 . S
H1909 C1918 0.930 . S
H1910 C1923 0.929 . S
H1911 C1921 0.929 . S
H1912 C1916 0.929 . S
H1913 C1922 0.929 . S
C1914 H1908 0.930 . S
C1914 C1915 1.367 . S
C1914 C1922 1.378 . S
C1915 C1914 1.367 . S
C1915 C1923 1.433 . S
C1916 H1912 0.929 . S
C1916 C1918 1.378 . S
C1916 C1920 1.350 . S
C1917 C1920 1.463 1_556 S
C1917 C1922 1.350 . S
C1917 N1925 1.427 . S
C1918 H1909 0.930 . S
C1918 C1916 1.378 . S
C1918 C1919 1.367 . S
C1919 C1918 1.367 . S
C1919 C1921 1.433 . S
C1920 C1916 1.350 . S
C1920 C1917 1.463 1_554 S
C1920 N1924 1.427 . S
C1921 H1911 0.929 . S
C1921 C1919 1.433 . S
C1921 N1924 1.384 . S
C1922 H1913 0.929 . S
C1922 C1914 1.378 . S
C1922 C1917 1.350 . S
C1923 H1910 0.929 . S
C1923 C1915 1.433 . S
C1923 N1925 1.384 . S
N1924 C1920 1.427 . S
N1924 C1921 1.384 . S
N1925 C1917 1.427 . S
N1925 C1923 1.384 . S
H1926 C1932 0.930 . S
H1927 C1936 0.930 . S
H1928 C1941 0.929 . S
H1929 C1939 0.929 . S
H1930 C1934 0.929 . S
H1931 C1940 0.929 . S
C1932 H1926 0.930 . S
C1932 C1933 1.367 . S
C1932 C1940 1.378 . S
C1933 C1932 1.367 . S
C1933 C1941 1.433 . S
C1934 H1930 0.929 . S
C1934 C1936 1.378 . S
C1934 C1938 1.350 . S
C1935 C1938 1.463 . S
C1935 C1940 1.350 . S
C1935 N1943 1.427 . S
C1936 H1927 0.930 . S
C1936 C1934 1.378 . S
C1936 C1937 1.367 . S
C1937 C1936 1.367 . S
C1937 C1939 1.433 . S
C1938 C1934 1.350 . S
C1938 C1935 1.463 . S
C1938 N1942 1.427 . S
C1939 H1929 0.929 . S
C1939 C1937 1.433 . S
C1939 N1942 1.384 . S
C1940 H1931 0.929 . S
C1940 C1932 1.378 . S
C1940 C1935 1.350 . S
C1941 H1928 0.929 . S
C1941 C1933 1.433 . S
C1941 N1943 1.384 . S
N1942 C1938 1.427 . S
N1942 C1939 1.384 . S
N1943 C1935 1.427 . S
N1943 C1941 1.384 . S
H1944 C1950 0.930 . S
H1945 C1954 0.930 . S
H1946 C1959 0.929 . S
H1947 C1957 0.929 . S
H1948 C1952 0.929 . S
H1949 C1958 0.929 . S
C1950 H1944 0.930 . S
C1950 C1951 1.367 . S
C1950 C1958 1.378 . S
C1951 C1950 1.367 . S
C1951 C1959 1.433 . S
C1952 H1948 0.929 . S
C1952 C1954 1.378 . S
C1952 C1956 1.350 . S
C1953 C1956 1.463 . S
C1953 C1958 1.350 . S
C1953 N1961 1.427 . S
C1954 H1945 0.930 . S
C1954 C1952 1.378 . S
C1954 C1955 1.367 . S
C1955 C1954 1.367 . S
C1955 C1957 1.433 . S
C1956 C1952 1.350 . S
C1956 C1953 1.463 . S
C1956 N1960 1.427 . S
C1957 H1947 0.929 . S
C1957 C1955 1.433 . S
C1957 N1960 1.384 . S
C1958 H1949 0.929 . S
C1958 C1950 1.378 . S
C1958 C1953 1.350 . S
C1959 H1946 0.929 . S
C1959 C1951 1.433 . S
C1959 N1961 1.384 . S
N1960 C1956 1.427 . S
N1960 C1957 1.384 . S
N1961 C1953 1.427 . S
N1961 C1959 1.384 . S
H1962 C1968 0.930 . S
H1963 C1972 0.930 . S
H1964 C1977 0.929 . S
H1965 C1975 0.929 . S
H1966 C1970 0.929 . S
H1967 C1976 0.929 . S
C1968 H1962 0.930 . S
C1968 C1969 1.367 . S
C1968 C1976 1.378 . S
C1969 C1968 1.367 . S
C1969 C1977 1.433 . S
C1970 H1966 0.929 . S
C1970 C1972 1.378 . S
C1970 C1974 1.350 . S
C1971 C1974 1.463 . S
C1971 C1976 1.350 . S
C1971 N1979 1.427 . S
C1972 H1963 0.930 . S
C1972 C1970 1.378 . S
C1972 C1973 1.367 . S
C1973 C1972 1.367 . S
C1973 C1975 1.433 . S
C1974 C1970 1.350 . S
C1974 C1971 1.463 . S
C1974 N1978 1.427 . S
C1975 H1965 0.929 . S
C1975 C1973 1.433 . S
C1975 N1978 1.384 . S
C1976 H1967 0.929 . S
C1976 C1968 1.378 . S
C1976 C1971 1.350 . S
C1977 H1964 0.929 . S
C1977 C1969 1.433 . S
C1977 N1979 1.384 . S
N1978 C1974 1.427 . S
N1978 C1975 1.384 . S
N1979 C1971 1.427 . S
N1979 C1977 1.384 . S
H1980 C1986 0.930 . S
H1981 C1990 0.930 . S
H1982 C1995 0.929 . S
H1983 C1993 0.929 . S
H1984 C1988 0.929 . S
H1985 C1994 0.929 . S
C1986 H1980 0.930 . S
C1986 C1987 1.367 . S
C1986 C1994 1.378 . S
C1987 C1986 1.367 . S
C1987 C1995 1.433 . S
C1988 H1984 0.929 . S
C1988 C1990 1.378 . S
C1988 C1992 1.350 . S
C1989 C1992 1.463 1_554 S
C1989 C1994 1.350 . S
C1989 N1997 1.427 . S
C1990 H1981 0.930 . S
C1990 C1988 1.378 . S
C1990 C1991 1.367 . S
C1991 C1990 1.367 . S
C1991 C1993 1.433 . S
C1992 C1988 1.350 . S
C1992 C1989 1.463 1_556 S
C1992 N1996 1.427 . S
C1993 H1983 0.929 . S
C1993 C1991 1.433 . S
C1993 N1996 1.384 . S
C1994 H1985 0.929 . S
C1994 C1986 1.378 . S
C1994 C1989 1.350 . S
C1995 H1982 0.929 . S
C1995 C1987 1.433 . S
C1995 N1997 1.384 . S
N1996 C1992 1.427 . S
N1996 C1993 1.384 . S
N1997 C1989 1.427 . S
N1997 C1995 1.384 . S
H1998 C2004 0.930 . S
H1999 C2008 0.930 . S
H2000 C2013 0.929 . S
H2001 C2011 0.929 . S
H2002 C2006 0.929 . S
H2003 C2012 0.929 . S
C2004 H1998 0.930 . S
C2004 C2005 1.367 . S
C2004 C2012 1.378 . S
C2005 C2004 1.367 . S
C2005 C2013 1.433 . S
C2006 H2002 0.929 . S
C2006 C2008 1.378 . S
C2006 C2010 1.350 . S
C2007 C2010 1.463 1_556 S
C2007 C2012 1.350 . S
C2007 N2015 1.427 . S
C2008 H1999 0.930 . S
C2008 C2006 1.378 . S
C2008 C2009 1.367 . S
C2009 C2008 1.367 . S
C2009 C2011 1.433 . S
C2010 C2006 1.350 . S
C2010 C2007 1.463 1_554 S
C2010 N2014 1.427 . S
C2011 H2001 0.929 . S
C2011 C2009 1.433 . S
C2011 N2014 1.384 . S
C2012 H2003 0.929 . S
C2012 C2004 1.378 . S
C2012 C2007 1.350 . S
C2013 H2000 0.929 . S
C2013 C2005 1.433 . S
C2013 N2015 1.384 . S
N2014 C2010 1.427 . S
N2014 C2011 1.384 . S
N2015 C2007 1.427 . S
N2015 C2013 1.384 . S
H2016 C2022 0.930 . S
H2017 C2026 0.930 . S
H2018 C2031 0.929 . S
H2019 C2029 0.929 . S
H2020 C2024 0.929 . S
H2021 C2030 0.929 . S
C2022 H2016 0.930 . S
C2022 C2023 1.367 . S
C2022 C2030 1.378 . S
C2023 C2022 1.367 . S
C2023 C2031 1.433 . S
C2024 H2020 0.929 . S
C2024 C2026 1.378 . S
C2024 C2028 1.350 . S
C2025 C2028 1.463 1_556 S
C2025 C2030 1.350 . S
C2025 N2033 1.427 . S
C2026 H2017 0.930 . S
C2026 C2024 1.378 . S
C2026 C2027 1.367 . S
C2027 C2026 1.367 . S
C2027 C2029 1.433 . S
C2028 C2024 1.350 . S
C2028 C2025 1.463 1_554 S
C2028 N2032 1.427 . S
C2029 H2019 0.929 . S
C2029 C2027 1.433 . S
C2029 N2032 1.384 . S
C2030 H2021 0.929 . S
C2030 C2022 1.378 . S
C2030 C2025 1.350 . S
C2031 H2018 0.929 . S
C2031 C2023 1.433 . S
C2031 N2033 1.384 . S
N2032 C2028 1.427 . S
N2032 C2029 1.384 . S
N2033 C2025 1.427 . S
N2033 C2031 1.384 . S
H2034 C2040 0.930 . S
H2035 C2044 0.930 . S
H2036 C2049 0.929 . S
H2037 C2047 0.929 . S
H2038 C2042 0.929 . S
H2039 C2048 0.929 . S
C2040 H2034 0.930 . S
C2040 C2041 1.367 . S
C2040 C2048 1.378 . S
C2041 C2040 1.367 . S
C2041 C2049 1.433 . S
C2042 H2038 0.929 . S
C2042 C2044 1.378 . S
C2042 C2046 1.350 . S
C2043 C2046 1.463 . S
C2043 C2048 1.350 . S
C2043 N2051 1.427 . S
C2044 H2035 0.930 . S
C2044 C2042 1.378 . S
C2044 C2045 1.367 . S
C2045 C2044 1.367 . S
C2045 C2047 1.433 . S
C2046 C2042 1.350 . S
C2046 C2043 1.463 . S
C2046 N2050 1.427 . S
C2047 H2037 0.929 . S
C2047 C2045 1.433 . S
C2047 N2050 1.384 . S
C2048 H2039 0.929 . S
C2048 C2040 1.378 . S
C2048 C2043 1.350 . S
C2049 H2036 0.929 . S
C2049 C2041 1.433 . S
C2049 N2051 1.384 . S
N2050 C2046 1.427 . S
N2050 C2047 1.384 . S
N2051 C2043 1.427 . S
N2051 C2049 1.384 . S
H2052 C2058 0.930 . S
H2053 C2062 0.930 . S
H2054 C2067 0.929 . S
H2055 C2065 0.929 . S
H2056 C2060 0.929 . S
H2057 C2066 0.929 . S
C2058 H2052 0.930 . S
C2058 C2059 1.367 . S
C2058 C2066 1.378 . S
C2059 C2058 1.367 . S
C2059 C2067 1.433 . S
C2060 H2056 0.929 . S
C2060 C2062 1.378 . S
C2060 C2064 1.350 . S
C2061 C2064 1.463 . S
C2061 C2066 1.350 . S
C2061 N2069 1.427 . S
C2062 H2053 0.930 . S
C2062 C2060 1.378 . S
C2062 C2063 1.367 . S
C2063 C2062 1.367 . S
C2063 C2065 1.433 . S
C2064 C2060 1.350 . S
C2064 C2061 1.463 . S
C2064 N2068 1.427 . S
C2065 H2055 0.929 . S
C2065 C2063 1.433 . S
C2065 N2068 1.384 . S
C2066 H2057 0.929 . S
C2066 C2058 1.378 . S
C2066 C2061 1.350 . S
C2067 H2054 0.929 . S
C2067 C2059 1.433 . S
C2067 N2069 1.384 . S
N2068 C2064 1.427 . S
N2068 C2065 1.384 . S
N2069 C2061 1.427 . S
N2069 C2067 1.384 . S
H2070 C2076 0.930 . S
H2071 C2080 0.930 . S
H2072 C2085 0.929 . S
H2073 C2083 0.929 . S
H2074 C2078 0.929 . S
H2075 C2084 0.929 . S
C2076 H2070 0.930 . S
C2076 C2077 1.367 . S
C2076 C2084 1.378 . S
C2077 C2076 1.367 . S
C2077 C2085 1.433 . S
C2078 H2074 0.929 . S
C2078 C2080 1.378 . S
C2078 C2082 1.350 . S
C2079 C2082 1.463 . S
C2079 C2084 1.350 . S
C2079 N2087 1.427 . S
C2080 H2071 0.930 . S
C2080 C2078 1.378 . S
C2080 C2081 1.367 . S
C2081 C2080 1.367 . S
C2081 C2083 1.433 . S
C2082 C2078 1.350 . S
C2082 C2079 1.463 . S
C2082 N2086 1.427 . S
C2083 H2073 0.929 . S
C2083 C2081 1.433 . S
C2083 N2086 1.384 . S
C2084 H2075 0.929 . S
C2084 C2076 1.378 . S
C2084 C2079 1.350 . S
C2085 H2072 0.929 . S
C2085 C2077 1.433 . S
C2085 N2087 1.384 . S
N2086 C2082 1.427 . S
N2086 C2083 1.384 . S
N2087 C2079 1.427 . S
N2087 C2085 1.384 . S
H2088 C2094 0.930 . S
H2089 C2098 0.930 . S
H2090 C2103 0.929 . S
H2091 C2101 0.929 . S
H2092 C2096 0.929 . S
H2093 C2102 0.929 . S
C2094 H2088 0.930 . S
C2094 C2095 1.367 . S
C2094 C2102 1.378 . S
C2095 C2094 1.367 . S
C2095 C2103 1.433 . S
C2096 H2092 0.929 . S
C2096 C2098 1.378 . S
C2096 C2100 1.350 . S
C2097 C2100 1.463 . S
C2097 C2102 1.350 . S
C2097 N2105 1.427 . S
C2098 H2089 0.930 . S
C2098 C2096 1.378 . S
C2098 C2099 1.367 . S
C2099 C2098 1.367 . S
C2099 C2101 1.433 . S
C2100 C2096 1.350 . S
C2100 C2097 1.463 . S
C2100 N2104 1.427 . S
C2101 H2091 0.929 . S
C2101 C2099 1.433 . S
C2101 N2104 1.384 . S
C2102 H2093 0.929 . S
C2102 C2094 1.378 . S
C2102 C2097 1.350 . S
C2103 H2090 0.929 . S
C2103 C2095 1.433 . S
C2103 N2105 1.384 . S
N2104 C2100 1.427 . S
N2104 C2101 1.384 . S
N2105 C2097 1.427 . S
N2105 C2103 1.384 . S
H2106 C2112 0.930 . S
H2107 C2116 0.930 . S
H2108 C2121 0.929 . S
H2109 C2119 0.929 . S
H2110 C2114 0.929 . S
H2111 C2120 0.929 . S
C2112 H2106 0.930 . S
C2112 C2113 1.367 . S
C2112 C2120 1.378 . S
C2113 C2112 1.367 . S
C2113 C2121 1.433 . S
C2114 H2110 0.929 . S
C2114 C2116 1.378 . S
C2114 C2118 1.350 . S
C2115 C2118 1.463 . S
C2115 C2120 1.350 . S
C2115 N2123 1.427 . S
C2116 H2107 0.930 . S
C2116 C2114 1.378 . S
C2116 C2117 1.367 . S
C2117 C2116 1.367 . S
C2117 C2119 1.433 . S
C2118 C2114 1.350 . S
C2118 C2115 1.463 . S
C2118 N2122 1.427 . S
C2119 H2109 0.929 . S
C2119 C2117 1.433 . S
C2119 N2122 1.384 . S
C2120 H2111 0.929 . S
C2120 C2112 1.378 . S
C2120 C2115 1.350 . S
C2121 H2108 0.929 . S
C2121 C2113 1.433 . S
C2121 N2123 1.384 . S
N2122 C2118 1.427 . S
N2122 C2119 1.384 . S
N2123 C2115 1.427 . S
N2123 C2121 1.384 . S
H2124 C2130 0.930 . S
H2125 C2134 0.930 . S
H2126 C2139 0.929 . S
H2127 C2137 0.929 . S
H2128 C2132 0.929 . S
H2129 C2138 0.929 . S
C2130 H2124 0.930 . S
C2130 C2131 1.367 . S
C2130 C2138 1.378 . S
C2131 C2130 1.367 . S
C2131 C2139 1.433 . S
C2132 H2128 0.929 . S
C2132 C2134 1.378 . S
C2132 C2136 1.350 . S
C2133 C2136 1.463 . S
C2133 C2138 1.350 . S
C2133 N2141 1.427 . S
C2134 H2125 0.930 . S
C2134 C2132 1.378 . S
C2134 C2135 1.367 . S
C2135 C2134 1.367 . S
C2135 C2137 1.433 . S
C2136 C2132 1.350 . S
C2136 C2133 1.463 . S
C2136 N2140 1.427 . S
C2137 H2127 0.929 . S
C2137 C2135 1.433 . S
C2137 N2140 1.384 . S
C2138 H2129 0.929 . S
C2138 C2130 1.378 . S
C2138 C2133 1.350 . S
C2139 H2126 0.929 . S
C2139 C2131 1.433 . S
C2139 N2141 1.384 . S
N2140 C2136 1.427 . S
N2140 C2137 1.384 . S
N2141 C2133 1.427 . S
N2141 C2139 1.384 . S
H2142 C2148 0.930 . S
H2143 C2152 0.930 . S
H2144 C2157 0.929 . S
H2145 C2155 0.929 . S
H2146 C2150 0.929 . S
H2147 C2156 0.929 . S
C2148 H2142 0.930 . S
C2148 C2149 1.367 . S
C2148 C2156 1.378 . S
C2149 C2148 1.367 . S
C2149 C2157 1.433 . S
C2150 H2146 0.929 . S
C2150 C2152 1.378 . S
C2150 C2154 1.350 . S
C2151 C2154 1.463 . S
C2151 C2156 1.350 . S
C2151 N2159 1.427 . S
C2152 H2143 0.930 . S
C2152 C2150 1.378 . S
C2152 C2153 1.367 . S
C2153 C2152 1.367 . S
C2153 C2155 1.433 . S
C2154 C2150 1.350 . S
C2154 C2151 1.463 . S
C2154 N2158 1.427 . S
C2155 H2145 0.929 . S
C2155 C2153 1.433 . S
C2155 N2158 1.384 . S
C2156 H2147 0.929 . S
C2156 C2148 1.378 . S
C2156 C2151 1.350 . S
C2157 H2144 0.929 . S
C2157 C2149 1.433 . S
C2157 N2159 1.384 . S
N2158 C2154 1.427 . S
N2158 C2155 1.384 . S
N2159 C2151 1.427 . S
N2159 C2157 1.384 . S
H2160 C2166 0.930 . S
H2161 C2170 0.930 . S
H2162 C2175 0.929 . S
H2163 C2173 0.929 . S
H2164 C2168 0.929 . S
H2165 C2174 0.929 . S
C2166 H2160 0.930 . S
C2166 C2167 1.367 . S
C2166 C2174 1.378 . S
C2167 C2166 1.367 . S
C2167 C2175 1.433 . S
C2168 H2164 0.929 . S
C2168 C2170 1.378 . S
C2168 C2172 1.350 . S
C2169 C2172 1.463 . S
C2169 C2174 1.350 . S
C2169 N2177 1.427 . S
C2170 H2161 0.930 . S
C2170 C2168 1.378 . S
C2170 C2171 1.367 . S
C2171 C2170 1.367 . S
C2171 C2173 1.433 . S
C2172 C2168 1.350 . S
C2172 C2169 1.463 . S
C2172 N2176 1.427 . S
C2173 H2163 0.929 . S
C2173 C2171 1.433 . S
C2173 N2176 1.384 . S
C2174 H2165 0.929 . S
C2174 C2166 1.378 . S
C2174 C2169 1.350 . S
C2175 H2162 0.929 . S
C2175 C2167 1.433 . S
C2175 N2177 1.384 . S
N2176 C2172 1.427 . S
N2176 C2173 1.384 . S
N2177 C2169 1.427 . S
N2177 C2175 1.384 . S
H2178 C2184 0.930 . S
H2179 C2188 0.930 . S
H2180 C2193 0.929 . S
H2181 C2191 0.929 . S
H2182 C2186 0.929 . S
H2183 C2192 0.929 . S
C2184 H2178 0.930 . S
C2184 C2185 1.367 . S
C2184 C2192 1.378 . S
C2185 C2184 1.367 . S
C2185 C2193 1.433 . S
C2186 H2182 0.929 . S
C2186 C2188 1.378 . S
C2186 C2190 1.350 . S
C2187 C2190 1.463 . S
C2187 C2192 1.350 . S
C2187 N2195 1.427 . S
C2188 H2179 0.930 . S
C2188 C2186 1.378 . S
C2188 C2189 1.367 . S
C2189 C2188 1.367 . S
C2189 C2191 1.433 . S
C2190 C2186 1.350 . S
C2190 C2187 1.463 . S
C2190 N2194 1.427 . S
C2191 H2181 0.929 . S
C2191 C2189 1.433 . S
C2191 N2194 1.384 . S
C2192 H2183 0.929 . S
C2192 C2184 1.378 . S
C2192 C2187 1.350 . S
C2193 H2180 0.929 . S
C2193 C2185 1.433 . S
C2193 N2195 1.384 . S
N2194 C2190 1.427 . S
N2194 C2191 1.384 . S
N2195 C2187 1.427 . S
N2195 C2193 1.384 . S
H2196 C2202 0.930 . S
H2197 C2206 0.930 . S
H2198 C2211 0.929 . S
H2199 C2209 0.929 . S
H2200 C2204 0.929 . S
H2201 C2210 0.929 . S
C2202 H2196 0.930 . S
C2202 C2203 1.367 . S
C2202 C2210 1.378 . S
C2203 C2202 1.367 . S
C2203 C2211 1.433 . S
C2204 H2200 0.929 . S
C2204 C2206 1.378 . S
C2204 C2208 1.350 . S
C2205 C2208 1.463 . S
C2205 C2210 1.350 . S
C2205 N2213 1.427 . S
C2206 H2197 0.930 . S
C2206 C2204 1.378 . S
C2206 C2207 1.367 . S
C2207 C2206 1.367 . S
C2207 C2209 1.433 . S
C2208 C2204 1.350 . S
C2208 C2205 1.463 . S
C2208 N2212 1.427 . S
C2209 H2199 0.929 . S
C2209 C2207 1.433 . S
C2209 N2212 1.384 . S
C2210 H2201 0.929 . S
C2210 C2202 1.378 . S
C2210 C2205 1.350 . S
C2211 H2198 0.929 . S
C2211 C2203 1.433 . S
C2211 N2213 1.384 . S
N2212 C2208 1.427 . S
N2212 C2209 1.384 . S
N2213 C2205 1.427 . S
N2213 C2211 1.384 . S
H2214 C2220 0.930 . S
H2215 C2224 0.930 . S
H2216 C2229 0.929 . S
H2217 C2227 0.929 . S
H2218 C2222 0.929 . S
H2219 C2228 0.929 . S
C2220 H2214 0.930 . S
C2220 C2221 1.367 . S
C2220 C2228 1.378 . S
C2221 C2220 1.367 . S
C2221 C2229 1.433 . S
C2222 H2218 0.929 . S
C2222 C2224 1.378 . S
C2222 C2226 1.350 . S
C2223 C2226 1.463 . S
C2223 C2228 1.350 . S
C2223 N2231 1.427 . S
C2224 H2215 0.930 . S
C2224 C2222 1.378 . S
C2224 C2225 1.367 . S
C2225 C2224 1.367 . S
C2225 C2227 1.433 . S
C2226 C2222 1.350 . S
C2226 C2223 1.463 . S
C2226 N2230 1.427 . S
C2227 H2217 0.929 . S
C2227 C2225 1.433 . S
C2227 N2230 1.384 . S
C2228 H2219 0.929 . S
C2228 C2220 1.378 . S
C2228 C2223 1.350 . S
C2229 H2216 0.929 . S
C2229 C2221 1.433 . S
C2229 N2231 1.384 . S
N2230 C2226 1.427 . S
N2230 C2227 1.384 . S
N2231 C2223 1.427 . S
N2231 C2229 1.384 . S
H2232 C2238 0.930 . S
H2233 C2242 0.930 . S
H2234 C2247 0.929 . S
H2235 C2245 0.929 . S
H2236 C2240 0.929 . S
H2237 C2246 0.929 . S
C2238 H2232 0.930 . S
C2238 C2239 1.367 . S
C2238 C2246 1.378 . S
C2239 C2238 1.367 . S
C2239 C2247 1.433 . S
C2240 H2236 0.929 . S
C2240 C2242 1.378 . S
C2240 C2244 1.350 . S
C2241 C2244 1.463 . S
C2241 C2246 1.350 . S
C2241 N2249 1.427 . S
C2242 H2233 0.930 . S
C2242 C2240 1.378 . S
C2242 C2243 1.367 . S
C2243 C2242 1.367 . S
C2243 C2245 1.433 . S
C2244 C2240 1.350 . S
C2244 C2241 1.463 . S
C2244 N2248 1.427 . S
C2245 H2235 0.929 . S
C2245 C2243 1.433 . S
C2245 N2248 1.384 . S
C2246 H2237 0.929 . S
C2246 C2238 1.378 . S
C2246 C2241 1.350 . S
C2247 H2234 0.929 . S
C2247 C2239 1.433 . S
C2247 N2249 1.384 . S
N2248 C2244 1.427 . S
N2248 C2245 1.384 . S
N2249 C2241 1.427 . S
N2249 C2247 1.384 . S
H2250 C2256 0.930 . S
H2251 C2260 0.930 . S
H2252 C2265 0.929 . S
H2253 C2263 0.929 . S
H2254 C2258 0.929 . S
H2255 C2264 0.929 . S
C2256 H2250 0.930 . S
C2256 C2257 1.367 . S
C2256 C2264 1.378 . S
C2257 C2256 1.367 . S
C2257 C2265 1.433 . S
C2258 H2254 0.929 . S
C2258 C2260 1.378 . S
C2258 C2262 1.350 . S
C2259 C2262 1.463 . S
C2259 C2264 1.350 . S
C2259 N2267 1.427 . S
C2260 H2251 0.930 . S
C2260 C2258 1.378 . S
C2260 C2261 1.367 . S
C2261 C2260 1.367 . S
C2261 C2263 1.433 . S
C2262 C2258 1.350 . S
C2262 C2259 1.463 . S
C2262 N2266 1.427 . S
C2263 H2253 0.929 . S
C2263 C2261 1.433 . S
C2263 N2266 1.384 . S
C2264 H2255 0.929 . S
C2264 C2256 1.378 . S
C2264 C2259 1.350 . S
C2265 H2252 0.929 . S
C2265 C2257 1.433 . S
C2265 N2267 1.384 . S
N2266 C2262 1.427 . S
N2266 C2263 1.384 . S
N2267 C2259 1.427 . S
N2267 C2265 1.384 . S
H2268 C2274 0.930 . S
H2269 C2278 0.930 . S
H2270 C2283 0.929 . S
H2271 C2281 0.929 . S
H2272 C2276 0.929 . S
H2273 C2282 0.929 . S
C2274 H2268 0.930 . S
C2274 C2275 1.367 . S
C2274 C2282 1.378 . S
C2275 C2274 1.367 . S
C2275 C2283 1.433 . S
C2276 H2272 0.929 . S
C2276 C2278 1.378 . S
C2276 C2280 1.350 . S
C2277 C2280 1.463 . S
C2277 C2282 1.350 . S
C2277 N2285 1.427 . S
C2278 H2269 0.930 . S
C2278 C2276 1.378 . S
C2278 C2279 1.367 . S
C2279 C2278 1.367 . S
C2279 C2281 1.433 . S
C2280 C2276 1.350 . S
C2280 C2277 1.463 . S
C2280 N2284 1.427 . S
C2281 H2271 0.929 . S
C2281 C2279 1.433 . S
C2281 N2284 1.384 . S
C2282 H2273 0.929 . S
C2282 C2274 1.378 . S
C2282 C2277 1.350 . S
C2283 H2270 0.929 . S
C2283 C2275 1.433 . S
C2283 N2285 1.384 . S
N2284 C2280 1.427 . S
N2284 C2281 1.384 . S
N2285 C2277 1.427 . S
N2285 C2283 1.384 . S
H2286 C2292 0.930 . S
H2287 C2296 0.930 . S
H2288 C2301 0.929 . S
H2289 C2299 0.929 . S
H2290 C2294 0.929 . S
H2291 C2300 0.929 . S
C2292 H2286 0.930 . S
C2292 C2293 1.367 . S
C2292 C2300 1.378 . S
C2293 C2292 1.367 . S
C2293 C2301 1.433 . S
C2294 H2290 0.929 . S
C2294 C2296 1.378 . S
C2294 C2298 1.350 . S
C2295 C2298 1.463 . S
C2295 C2300 1.350 . S
C2295 N2303 1.427 . S
C2296 H2287 0.930 . S
C2296 C2294 1.378 . S
C2296 C2297 1.367 . S
C2297 C2296 1.367 . S
C2297 C2299 1.433 . S
C2298 C2294 1.350 . S
C2298 C2295 1.463 . S
C2298 N2302 1.427 . S
C2299 H2289 0.929 . S
C2299 C2297 1.433 . S
C2299 N2302 1.384 . S
C2300 H2291 0.929 . S
C2300 C2292 1.378 . S
C2300 C2295 1.350 . S
C2301 H2288 0.929 . S
C2301 C2293 1.433 . S
C2301 N2303 1.384 . S
N2302 C2298 1.427 . S
N2302 C2299 1.384 . S
N2303 C2295 1.427 . S
N2303 C2301 1.384 . S
H2304 C2310 0.930 . S
H2305 C2314 0.930 . S
H2306 C2319 0.929 . S
H2307 C2317 0.929 . S
H2308 C2312 0.929 . S
H2309 C2318 0.929 . S
C2310 H2304 0.930 . S
C2310 C2311 1.367 . S
C2310 C2318 1.378 . S
C2311 C2310 1.367 . S
C2311 C2319 1.433 . S
C2312 H2308 0.929 . S
C2312 C2314 1.378 . S
C2312 C2316 1.350 . S
C2313 C2316 1.463 . S
C2313 C2318 1.350 . S
C2313 N2321 1.427 . S
C2314 H2305 0.930 . S
C2314 C2312 1.378 . S
C2314 C2315 1.367 . S
C2315 C2314 1.367 . S
C2315 C2317 1.433 . S
C2316 C2312 1.350 . S
C2316 C2313 1.463 . S
C2316 N2320 1.427 . S
C2317 H2307 0.929 . S
C2317 C2315 1.433 . S
C2317 N2320 1.384 . S
C2318 H2309 0.929 . S
C2318 C2310 1.378 . S
C2318 C2313 1.350 . S
C2319 H2306 0.929 . S
C2319 C2311 1.433 . S
C2319 N2321 1.384 . S
N2320 C2316 1.427 . S
N2320 C2317 1.384 . S
N2321 C2313 1.427 . S
N2321 C2319 1.384 . S
H2322 C2328 0.930 . S
H2323 C2332 0.930 . S
H2324 C2337 0.929 . S
H2325 C2335 0.929 . S
H2326 C2330 0.929 . S
H2327 C2336 0.929 . S
C2328 H2322 0.930 . S
C2328 C2329 1.367 . S
C2328 C2336 1.378 . S
C2329 C2328 1.367 . S
C2329 C2337 1.433 . S
C2330 H2326 0.929 . S
C2330 C2332 1.378 . S
C2330 C2334 1.350 . S
C2331 C2334 1.463 . S
C2331 C2336 1.350 . S
C2331 N2339 1.427 . S
C2332 H2323 0.930 . S
C2332 C2330 1.378 . S
C2332 C2333 1.367 . S
C2333 C2332 1.367 . S
C2333 C2335 1.433 . S
C2334 C2330 1.350 . S
C2334 C2331 1.463 . S
C2334 N2338 1.427 . S
C2335 H2325 0.929 . S
C2335 C2333 1.433 . S
C2335 N2338 1.384 . S
C2336 H2327 0.929 . S
C2336 C2328 1.378 . S
C2336 C2331 1.350 . S
C2337 H2324 0.929 . S
C2337 C2329 1.433 . S
C2337 N2339 1.384 . S
N2338 C2334 1.427 . S
N2338 C2335 1.384 . S
N2339 C2331 1.427 . S
N2339 C2337 1.384 . S
H2340 C2346 0.930 . S
H2341 C2350 0.930 . S
H2342 C2355 0.929 . S
H2343 C2353 0.929 . S
H2344 C2348 0.929 . S
H2345 C2354 0.929 . S
C2346 H2340 0.930 . S
C2346 C2347 1.367 . S
C2346 C2354 1.378 . S
C2347 C2346 1.367 . S
C2347 C2355 1.433 . S
C2348 H2344 0.929 . S
C2348 C2350 1.378 . S
C2348 C2352 1.350 . S
C2349 C2352 1.463 . S
C2349 C2354 1.350 . S
C2349 N2357 1.427 . S
C2350 H2341 0.930 . S
C2350 C2348 1.378 . S
C2350 C2351 1.367 . S
C2351 C2350 1.367 . S
C2351 C2353 1.433 . S
C2352 C2348 1.350 . S
C2352 C2349 1.463 . S
C2352 N2356 1.427 . S
C2353 H2343 0.929 . S
C2353 C2351 1.433 . S
C2353 N2356 1.384 . S
C2354 H2345 0.929 . S
C2354 C2346 1.378 . S
C2354 C2349 1.350 . S
C2355 H2342 0.929 . S
C2355 C2347 1.433 . S
C2355 N2357 1.384 . S
N2356 C2352 1.427 . S
N2356 C2353 1.384 . S
N2357 C2349 1.427 . S
N2357 C2355 1.384 . S
H2358 C2364 0.930 . S
H2359 C2368 0.930 . S
H2360 C2373 0.929 . S
H2361 C2371 0.929 . S
H2362 C2366 0.929 . S
H2363 C2372 0.929 . S
C2364 H2358 0.930 . S
C2364 C2365 1.367 . S
C2364 C2372 1.378 . S
C2365 C2364 1.367 . S
C2365 C2373 1.433 . S
C2366 H2362 0.929 . S
C2366 C2368 1.378 . S
C2366 C2370 1.350 . S
C2367 C2370 1.463 . S
C2367 C2372 1.350 . S
C2367 N2375 1.427 . S
C2368 H2359 0.930 . S
C2368 C2366 1.378 . S
C2368 C2369 1.367 . S
C2369 C2368 1.367 . S
C2369 C2371 1.433 . S
C2370 C2366 1.350 . S
C2370 C2367 1.463 . S
C2370 N2374 1.427 . S
C2371 H2361 0.929 . S
C2371 C2369 1.433 . S
C2371 N2374 1.384 . S
C2372 H2363 0.929 . S
C2372 C2364 1.378 . S
C2372 C2367 1.350 . S
C2373 H2360 0.929 . S
C2373 C2365 1.433 . S
C2373 N2375 1.384 . S
N2374 C2370 1.427 . S
N2374 C2371 1.384 . S
N2375 C2367 1.427 . S
N2375 C2373 1.384 . S
H2376 C2382 0.930 . S
H2377 C2386 0.930 . S
H2378 C2391 0.929 . S
H2379 C2389 0.929 . S
H2380 C2384 0.929 . S
H2381 C2390 0.929 . S
C2382 H2376 0.930 . S
C2382 C2383 1.367 . S
C2382 C2390 1.378 . S
C2383 C2382 1.367 . S
C2383 C2391 1.433 . S
C2384 H2380 0.929 . S
C2384 C2386 1.378 . S
C2384 C2388 1.350 . S
C2385 C2388 1.463 . S
C2385 C2390 1.350 . S
C2385 N2393 1.427 . S
C2386 H2377 0.930 . S
C2386 C2384 1.378 . S
C2386 C2387 1.367 . S
C2387 C2386 1.367 . S
C2387 C2389 1.433 . S
C2388 C2384 1.350 . S
C2388 C2385 1.463 . S
C2388 N2392 1.427 . S
C2389 H2379 0.929 . S
C2389 C2387 1.433 . S
C2389 N2392 1.384 . S
C2390 H2381 0.929 . S
C2390 C2382 1.378 . S
C2390 C2385 1.350 . S
C2391 H2378 0.929 . S
C2391 C2383 1.433 . S
C2391 N2393 1.384 . S
N2392 C2388 1.427 . S
N2392 C2389 1.384 . S
N2393 C2385 1.427 . S
N2393 C2391 1.384 . S
H2394 C2400 0.930 . S
H2395 C2404 0.930 . S
H2396 C2409 0.929 . S
H2397 C2407 0.929 . S
H2398 C2402 0.929 . S
H2399 C2408 0.929 . S
C2400 H2394 0.930 . S
C2400 C2401 1.367 . S
C2400 C2408 1.378 . S
C2401 C2400 1.367 . S
C2401 C2409 1.433 . S
C2402 H2398 0.929 . S
C2402 C2404 1.378 . S
C2402 C2406 1.350 . S
C2403 C2406 1.463 . S
C2403 C2408 1.350 . S
C2403 N2411 1.427 . S
C2404 H2395 0.930 . S
C2404 C2402 1.378 . S
C2404 C2405 1.367 . S
C2405 C2404 1.367 . S
C2405 C2407 1.433 . S
C2406 C2402 1.350 . S
C2406 C2403 1.463 . S
C2406 N2410 1.427 . S
C2407 H2397 0.929 . S
C2407 C2405 1.433 . S
C2407 N2410 1.384 . S
C2408 H2399 0.929 . S
C2408 C2400 1.378 . S
C2408 C2403 1.350 . S
C2409 H2396 0.929 . S
C2409 C2401 1.433 . S
C2409 N2411 1.384 . S
N2410 C2406 1.427 . S
N2410 C2407 1.384 . S
N2411 C2403 1.427 . S
N2411 C2409 1.384 . S
H2412 C2418 0.930 . S
H2413 C2422 0.930 . S
H2414 C2427 0.929 . S
H2415 C2425 0.929 . S
H2416 C2420 0.929 . S
H2417 C2426 0.929 . S
C2418 H2412 0.930 . S
C2418 C2419 1.367 . S
C2418 C2426 1.378 . S
C2419 C2418 1.367 . S
C2419 C2427 1.433 . S
C2420 H2416 0.929 . S
C2420 C2422 1.378 . S
C2420 C2424 1.350 . S
C2421 C2424 1.463 . S
C2421 C2426 1.350 . S
C2421 N2429 1.427 . S
C2422 H2413 0.930 . S
C2422 C2420 1.378 . S
C2422 C2423 1.367 . S
C2423 C2422 1.367 . S
C2423 C2425 1.433 . S
C2424 C2420 1.350 . S
C2424 C2421 1.463 . S
C2424 N2428 1.427 . S
C2425 H2415 0.929 . S
C2425 C2423 1.433 . S
C2425 N2428 1.384 . S
C2426 H2417 0.929 . S
C2426 C2418 1.378 . S
C2426 C2421 1.350 . S
C2427 H2414 0.929 . S
C2427 C2419 1.433 . S
C2427 N2429 1.384 . S
N2428 C2424 1.427 . S
N2428 C2425 1.384 . S
N2429 C2421 1.427 . S
N2429 C2427 1.384 . S
H2430 C2436 0.930 . S
H2431 C2440 0.930 . S
H2432 C2445 0.929 . S
H2433 C2443 0.929 . S
H2434 C2438 0.929 . S
H2435 C2444 0.929 . S
C2436 H2430 0.930 . S
C2436 C2437 1.367 . S
C2436 C2444 1.378 . S
C2437 C2436 1.367 . S
C2437 C2445 1.433 . S
C2438 H2434 0.929 . S
C2438 C2440 1.378 . S
C2438 C2442 1.350 . S
C2439 C2442 1.463 . S
C2439 C2444 1.350 . S
C2439 N2447 1.427 . S
C2440 H2431 0.930 . S
C2440 C2438 1.378 . S
C2440 C2441 1.367 . S
C2441 C2440 1.367 . S
C2441 C2443 1.433 . S
C2442 C2438 1.350 . S
C2442 C2439 1.463 . S
C2442 N2446 1.427 . S
C2443 H2433 0.929 . S
C2443 C2441 1.433 . S
C2443 N2446 1.384 . S
C2444 H2435 0.929 . S
C2444 C2436 1.378 . S
C2444 C2439 1.350 . S
C2445 H2432 0.929 . S
C2445 C2437 1.433 . S
C2445 N2447 1.384 . S
N2446 C2442 1.427 . S
N2446 C2443 1.384 . S
N2447 C2439 1.427 . S
N2447 C2445 1.384 . S
H2448 C2454 0.930 . S
H2449 C2458 0.930 . S
H2450 C2463 0.929 . S
H2451 C2461 0.929 . S
H2452 C2456 0.929 . S
H2453 C2462 0.929 . S
C2454 H2448 0.930 . S
C2454 C2455 1.367 . S
C2454 C2462 1.378 . S
C2455 C2454 1.367 . S
C2455 C2463 1.433 . S
C2456 H2452 0.929 . S
C2456 C2458 1.378 . S
C2456 C2460 1.350 . S
C2457 C2460 1.463 . S
C2457 C2462 1.350 . S
C2457 N2465 1.427 . S
C2458 H2449 0.930 . S
C2458 C2456 1.378 . S
C2458 C2459 1.367 . S
C2459 C2458 1.367 . S
C2459 C2461 1.433 . S
C2460 C2456 1.350 . S
C2460 C2457 1.463 . S
C2460 N2464 1.427 . S
C2461 H2451 0.929 . S
C2461 C2459 1.433 . S
C2461 N2464 1.384 . S
C2462 H2453 0.929 . S
C2462 C2454 1.378 . S
C2462 C2457 1.350 . S
C2463 H2450 0.929 . S
C2463 C2455 1.433 . S
C2463 N2465 1.384 . S
N2464 C2460 1.427 . S
N2464 C2461 1.384 . S
N2465 C2457 1.427 . S
N2465 C2463 1.384 . S
H2466 C2472 0.930 . S
H2467 C2476 0.930 . S
H2468 C2481 0.929 . S
H2469 C2479 0.929 . S
H2470 C2474 0.929 . S
H2471 C2480 0.929 . S
C2472 H2466 0.930 . S
C2472 C2473 1.367 . S
C2472 C2480 1.378 . S
C2473 C2472 1.367 . S
C2473 C2481 1.433 . S
C2474 H2470 0.929 . S
C2474 C2476 1.378 . S
C2474 C2478 1.350 . S
C2475 C2478 1.463 . S
C2475 C2480 1.350 . S
C2475 N2483 1.427 . S
C2476 H2467 0.930 . S
C2476 C2474 1.378 . S
C2476 C2477 1.367 . S
C2477 C2476 1.367 . S
C2477 C2479 1.433 . S
C2478 C2474 1.350 . S
C2478 C2475 1.463 . S
C2478 N2482 1.427 . S
C2479 H2469 0.929 . S
C2479 C2477 1.433 . S
C2479 N2482 1.384 . S
C2480 H2471 0.929 . S
C2480 C2472 1.378 . S
C2480 C2475 1.350 . S
C2481 H2468 0.929 . S
C2481 C2473 1.433 . S
C2481 N2483 1.384 . S
N2482 C2478 1.427 . S
N2482 C2479 1.384 . S
N2483 C2475 1.427 . S
N2483 C2481 1.384 . S
H2484 C2490 0.930 . S
H2485 C2494 0.930 . S
H2486 C2499 0.929 . S
H2487 C2497 0.929 . S
H2488 C2492 0.929 . S
H2489 C2498 0.929 . S
C2490 H2484 0.930 . S
C2490 C2491 1.367 . S
C2490 C2498 1.378 . S
C2491 C2490 1.367 . S
C2491 C2499 1.433 . S
C2492 H2488 0.929 . S
C2492 C2494 1.378 . S
C2492 C2496 1.350 . S
C2493 C2496 1.463 . S
C2493 C2498 1.350 . S
C2493 N2501 1.427 . S
C2494 H2485 0.930 . S
C2494 C2492 1.378 . S
C2494 C2495 1.367 . S
C2495 C2494 1.367 . S
C2495 C2497 1.433 . S
C2496 C2492 1.350 . S
C2496 C2493 1.463 . S
C2496 N2500 1.427 . S
C2497 H2487 0.929 . S
C2497 C2495 1.433 . S
C2497 N2500 1.384 . S
C2498 H2489 0.929 . S
C2498 C2490 1.378 . S
C2498 C2493 1.350 . S
C2499 H2486 0.929 . S
C2499 C2491 1.433 . S
C2499 N2501 1.384 . S
N2500 C2496 1.427 . S
N2500 C2497 1.384 . S
N2501 C2493 1.427 . S
N2501 C2499 1.384 . S
H2502 C2508 0.930 . S
H2503 C2512 0.930 . S
H2504 C2517 0.929 . S
H2505 C2515 0.929 . S
H2506 C2510 0.929 . S
H2507 C2516 0.929 . S
C2508 H2502 0.930 . S
C2508 C2509 1.367 . S
C2508 C2516 1.378 . S
C2509 C2508 1.367 . S
C2509 C2517 1.433 . S
C2510 H2506 0.929 . S
C2510 C2512 1.378 . S
C2510 C2514 1.350 . S
C2511 C2514 1.463 . S
C2511 C2516 1.350 . S
C2511 N2519 1.427 . S
C2512 H2503 0.930 . S
C2512 C2510 1.378 . S
C2512 C2513 1.367 . S
C2513 C2512 1.367 . S
C2513 C2515 1.433 . S
C2514 C2510 1.350 . S
C2514 C2511 1.463 . S
C2514 N2518 1.427 . S
C2515 H2505 0.929 . S
C2515 C2513 1.433 . S
C2515 N2518 1.384 . S
C2516 H2507 0.929 . S
C2516 C2508 1.378 . S
C2516 C2511 1.350 . S
C2517 H2504 0.929 . S
C2517 C2509 1.433 . S
C2517 N2519 1.384 . S
N2518 C2514 1.427 . S
N2518 C2515 1.384 . S
N2519 C2511 1.427 . S
N2519 C2517 1.384 . S
H2520 C2526 0.930 . S
H2521 C2530 0.930 . S
H2522 C2535 0.929 . S
H2523 C2533 0.929 . S
H2524 C2528 0.929 . S
H2525 C2534 0.929 . S
C2526 H2520 0.930 . S
C2526 C2527 1.367 . S
C2526 C2534 1.378 . S
C2527 C2526 1.367 . S
C2527 C2535 1.433 . S
C2528 H2524 0.929 . S
C2528 C2530 1.378 . S
C2528 C2532 1.350 . S
C2529 C2532 1.463 . S
C2529 C2534 1.350 . S
C2529 N2537 1.427 . S
C2530 H2521 0.930 . S
C2530 C2528 1.378 . S
C2530 C2531 1.367 . S
C2531 C2530 1.367 . S
C2531 C2533 1.433 . S
C2532 C2528 1.350 . S
C2532 C2529 1.463 . S
C2532 N2536 1.427 . S
C2533 H2523 0.929 . S
C2533 C2531 1.433 . S
C2533 N2536 1.384 . S
C2534 H2525 0.929 . S
C2534 C2526 1.378 . S
C2534 C2529 1.350 . S
C2535 H2522 0.929 . S
C2535 C2527 1.433 . S
C2535 N2537 1.384 . S
N2536 C2532 1.427 . S
N2536 C2533 1.384 . S
N2537 C2529 1.427 . S
N2537 C2535 1.384 . S
H2538 C2544 0.930 . S
H2539 C2548 0.930 . S
H2540 C2553 0.929 . S
H2541 C2551 0.929 . S
H2542 C2546 0.929 . S
H2543 C2552 0.929 . S
C2544 H2538 0.930 . S
C2544 C2545 1.367 . S
C2544 C2552 1.378 . S
C2545 C2544 1.367 . S
C2545 C2553 1.433 . S
C2546 H2542 0.929 . S
C2546 C2548 1.378 . S
C2546 C2550 1.350 . S
C2547 C2550 1.463 . S
C2547 C2552 1.350 . S
C2547 N2555 1.427 . S
C2548 H2539 0.930 . S
C2548 C2546 1.378 . S
C2548 C2549 1.367 . S
C2549 C2548 1.367 . S
C2549 C2551 1.433 . S
C2550 C2546 1.350 . S
C2550 C2547 1.463 . S
C2550 N2554 1.427 . S
C2551 H2541 0.929 . S
C2551 C2549 1.433 . S
C2551 N2554 1.384 . S
C2552 H2543 0.929 . S
C2552 C2544 1.378 . S
C2552 C2547 1.350 . S
C2553 H2540 0.929 . S
C2553 C2545 1.433 . S
C2553 N2555 1.384 . S
N2554 C2550 1.427 . S
N2554 C2551 1.384 . S
N2555 C2547 1.427 . S
N2555 C2553 1.384 . S
H2556 C2562 0.930 . S
H2557 C2566 0.930 . S
H2558 C2571 0.929 . S
H2559 C2569 0.929 . S
H2560 C2564 0.929 . S
H2561 C2570 0.929 . S
C2562 H2556 0.930 . S
C2562 C2563 1.367 . S
C2562 C2570 1.378 . S
C2563 C2562 1.367 . S
C2563 C2571 1.433 . S
C2564 H2560 0.929 . S
C2564 C2566 1.378 . S
C2564 C2568 1.350 . S
C2565 C2568 1.463 . S
C2565 C2570 1.350 . S
C2565 N2573 1.427 . S
C2566 H2557 0.930 . S
C2566 C2564 1.378 . S
C2566 C2567 1.367 . S
C2567 C2566 1.367 . S
C2567 C2569 1.433 . S
C2568 C2564 1.350 . S
C2568 C2565 1.463 . S
C2568 N2572 1.427 . S
C2569 H2559 0.929 . S
C2569 C2567 1.433 . S
C2569 N2572 1.384 . S
C2570 H2561 0.929 . S
C2570 C2562 1.378 . S
C2570 C2565 1.350 . S
C2571 H2558 0.929 . S
C2571 C2563 1.433 . S
C2571 N2573 1.384 . S
N2572 C2568 1.427 . S
N2572 C2569 1.384 . S
N2573 C2565 1.427 . S
N2573 C2571 1.384 . S
H2574 C2580 0.930 . S
H2575 C2584 0.930 . S
H2576 C2589 0.929 . S
H2577 C2587 0.929 1_556 S
H2578 C2582 0.929 . S
H2579 C2588 0.929 . S
C2580 H2574 0.930 . S
C2580 C2581 1.367 . S
C2580 C2588 1.378 . S
C2581 C2580 1.367 . S
C2581 C2589 1.433 . S
C2582 H2578 0.929 . S
C2582 C2584 1.378 . S
C2582 C2586 1.350 . S
C2583 C2586 1.463 . S
C2583 C2588 1.350 . S
C2583 N2591 1.427 . S
C2584 H2575 0.930 . S
C2584 C2582 1.378 . S
C2584 C2585 1.367 . S
C2585 C2584 1.367 . S
C2585 C2587 1.433 . S
C2586 C2582 1.350 . S
C2586 C2583 1.463 . S
C2586 N2590 1.427 . S
C2587 H2577 0.929 1_554 S
C2587 C2585 1.433 . S
C2587 N2590 1.384 . S
C2588 H2579 0.929 . S
C2588 C2580 1.378 . S
C2588 C2583 1.350 . S
C2589 H2576 0.929 . S
C2589 C2581 1.433 . S
C2589 N2591 1.384 . S
N2590 C2586 1.427 . S
N2590 C2587 1.384 . S
N2591 C2583 1.427 . S
N2591 C2589 1.384 . S
H2592 C2598 0.930 . S
H2593 C2602 0.929 . S
H2594 C2607 0.929 . S
H2595 C2605 0.929 . S
H2596 C2600 0.929 . S
H2597 C2606 0.929 . S
C2598 H2592 0.930 . S
C2598 C2599 1.367 . S
C2598 C2606 1.378 . S
C2599 C2598 1.367 . S
C2599 C2607 1.433 . S
C2600 H2596 0.929 . S
C2600 C2602 1.379 1_554 S
C2600 C2604 1.350 . S
C2601 C2604 1.463 . S
C2601 C2606 1.350 . S
C2601 N2609 1.427 . S
C2602 H2593 0.929 . S
C2602 C2600 1.379 1_556 S
C2602 C2603 1.367 1_556 S
C2603 C2602 1.367 1_554 S
C2603 C2605 1.433 . S
C2604 C2600 1.350 . S
C2604 C2601 1.463 . S
C2604 N2608 1.427 . S
C2605 H2595 0.929 . S
C2605 C2603 1.433 . S
C2605 N2608 1.384 . S
C2606 H2597 0.929 . S
C2606 C2598 1.378 . S
C2606 C2601 1.350 . S
C2607 H2594 0.929 . S
C2607 C2599 1.433 . S
C2607 N2609 1.384 . S
N2608 C2604 1.427 . S
N2608 C2605 1.384 . S
N2609 C2601 1.427 . S
N2609 C2607 1.384 . S
H2610 C2616 0.930 . S
H2611 C2620 0.930 1_556 S
H2612 C2625 0.929 . S
H2613 C2623 0.929 . S
H2614 C2618 0.929 . S
H2615 C2624 0.929 . S
C2616 H2610 0.930 . S
C2616 C2617 1.367 . S
C2616 C2624 1.378 . S
C2617 C2616 1.367 . S
C2617 C2625 1.433 . S
C2618 H2614 0.929 . S
C2618 C2620 1.378 . S
C2618 C2622 1.350 . S
C2619 C2622 1.463 . S
C2619 C2624 1.350 . S
C2619 N2627 1.427 . S
C2620 H2611 0.930 1_554 S
C2620 C2618 1.378 . S
C2620 C2621 1.367 . S
C2621 C2620 1.367 . S
C2621 C2623 1.433 . S
C2622 C2618 1.350 . S
C2622 C2619 1.463 . S
C2622 N2626 1.427 . S
C2623 H2613 0.929 . S
C2623 C2621 1.433 . S
C2623 N2626 1.384 . S
C2624 H2615 0.929 . S
C2624 C2616 1.378 . S
C2624 C2619 1.350 . S
C2625 H2612 0.929 . S
C2625 C2617 1.433 . S
C2625 N2627 1.384 . S
N2626 C2622 1.427 . S
N2626 C2623 1.384 . S
N2627 C2619 1.427 . S
N2627 C2625 1.384 . S
H2628 C2634 0.930 . S
H2629 C2638 0.930 . S
H2630 C2643 0.929 . S
H2631 C2641 0.929 . S
H2632 C2636 0.929 . S
H2633 C2642 0.929 . S
C2634 H2628 0.930 . S
C2634 C2635 1.367 . S
C2634 C2642 1.378 . S
C2635 C2634 1.367 . S
C2635 C2643 1.433 . S
C2636 H2632 0.929 . S
C2636 C2638 1.378 . S
C2636 C2640 1.350 . S
C2637 C2640 1.463 . S
C2637 C2642 1.350 . S
C2637 N2645 1.427 . S
C2638 H2629 0.930 . S
C2638 C2636 1.378 . S
C2638 C2639 1.367 . S
C2639 C2638 1.367 . S
C2639 C2641 1.433 . S
C2640 C2636 1.350 . S
C2640 C2637 1.463 . S
C2640 N2644 1.427 . S
C2641 H2631 0.929 . S
C2641 C2639 1.433 . S
C2641 N2644 1.384 . S
C2642 H2633 0.929 . S
C2642 C2634 1.378 . S
C2642 C2637 1.350 . S
C2643 H2630 0.929 . S
C2643 C2635 1.433 . S
C2643 N2645 1.384 . S
N2644 C2640 1.427 . S
N2644 C2641 1.384 . S
N2645 C2637 1.427 . S
N2645 C2643 1.384 . S
H2646 C2652 0.930 . S
H2647 C2656 0.930 . S
H2648 C2661 0.929 . S
H2649 C2659 0.929 . S
H2650 C2654 0.929 . S
H2651 C2660 0.929 . S
C2652 H2646 0.930 . S
C2652 C2653 1.367 . S
C2652 C2660 1.378 . S
C2653 C2652 1.367 . S
C2653 C2661 1.433 . S
C2654 H2650 0.929 . S
C2654 C2656 1.378 . S
C2654 C2658 1.350 . S
C2655 C2658 1.463 . S
C2655 C2660 1.350 . S
C2655 N2663 1.427 . S
C2656 H2647 0.930 . S
C2656 C2654 1.378 . S
C2656 C2657 1.367 . S
C2657 C2656 1.367 . S
C2657 C2659 1.433 . S
C2658 C2654 1.350 . S
C2658 C2655 1.463 . S
C2658 N2662 1.427 . S
C2659 H2649 0.929 . S
C2659 C2657 1.433 . S
C2659 N2662 1.384 . S
C2660 H2651 0.929 . S
C2660 C2652 1.378 . S
C2660 C2655 1.350 . S
C2661 H2648 0.929 . S
C2661 C2653 1.433 . S
C2661 N2663 1.384 . S
N2662 C2658 1.427 . S
N2662 C2659 1.384 . S
N2663 C2655 1.427 . S
N2663 C2661 1.384 . S
H2664 C2670 0.930 . S
H2665 C2674 0.930 . S
H2666 C2679 0.929 . S
H2667 C2677 0.929 . S
H2668 C2672 0.929 . S
H2669 C2678 0.929 . S
C2670 H2664 0.930 . S
C2670 C2671 1.367 . S
C2670 C2678 1.378 . S
C2671 C2670 1.367 . S
C2671 C2679 1.433 . S
C2672 H2668 0.929 . S
C2672 C2674 1.378 . S
C2672 C2676 1.350 . S
C2673 C2676 1.463 . S
C2673 C2678 1.350 . S
C2673 N2681 1.427 . S
C2674 H2665 0.930 . S
C2674 C2672 1.378 . S
C2674 C2675 1.367 . S
C2675 C2674 1.367 . S
C2675 C2677 1.433 . S
C2676 C2672 1.350 . S
C2676 C2673 1.463 . S
C2676 N2680 1.427 . S
C2677 H2667 0.929 . S
C2677 C2675 1.433 . S
C2677 N2680 1.384 . S
C2678 H2669 0.929 . S
C2678 C2670 1.378 . S
C2678 C2673 1.350 . S
C2679 H2666 0.929 . S
C2679 C2671 1.433 . S
C2679 N2681 1.384 . S
N2680 C2676 1.427 . S
N2680 C2677 1.384 . S
N2681 C2673 1.427 . S
N2681 C2679 1.384 . S
H2682 C2688 0.930 . S
H2683 C2692 0.930 1_554 S
H2684 C2697 0.929 . S
H2685 C2695 0.929 . S
H2686 C2690 0.929 . S
H2687 C2696 0.929 . S
C2688 H2682 0.930 . S
C2688 C2689 1.367 . S
C2688 C2696 1.378 . S
C2689 C2688 1.367 . S
C2689 C2697 1.433 . S
C2690 H2686 0.929 . S
C2690 C2692 1.378 . S
C2690 C2694 1.350 . S
C2691 C2694 1.463 . S
C2691 C2696 1.350 . S
C2691 N2699 1.427 . S
C2692 H2683 0.930 1_556 S
C2692 C2690 1.378 . S
C2692 C2693 1.367 . S
C2693 C2692 1.367 . S
C2693 C2695 1.433 . S
C2694 C2690 1.350 . S
C2694 C2691 1.463 . S
C2694 N2698 1.427 . S
C2695 H2685 0.929 . S
C2695 C2693 1.433 . S
C2695 N2698 1.384 . S
C2696 H2687 0.929 . S
C2696 C2688 1.378 . S
C2696 C2691 1.350 . S
C2697 H2684 0.929 . S
C2697 C2689 1.433 . S
C2697 N2699 1.384 . S
N2698 C2694 1.427 . S
N2698 C2695 1.384 . S
N2699 C2691 1.427 . S
N2699 C2697 1.384 . S
H2700 C2706 0.930 . S
H2701 C2710 0.930 . S
H2702 C2715 0.929 . S
H2703 C2713 0.929 . S
H2704 C2708 0.929 . S
H2705 C2714 0.929 . S
C2706 H2700 0.930 . S
C2706 C2707 1.367 . S
C2706 C2714 1.378 . S
C2707 C2706 1.367 . S
C2707 C2715 1.433 . S
C2708 H2704 0.929 . S
C2708 C2710 1.378 1_556 S
C2708 C2712 1.350 . S
C2709 C2712 1.463 . S
C2709 C2714 1.350 . S
C2709 N2717 1.427 . S
C2710 H2701 0.930 . S
C2710 C2708 1.378 1_554 S
C2710 C2711 1.367 1_554 S
C2711 C2710 1.367 1_556 S
C2711 C2713 1.433 . S
C2712 C2708 1.350 . S
C2712 C2709 1.463 . S
C2712 N2716 1.427 . S
C2713 H2703 0.929 . S
C2713 C2711 1.433 . S
C2713 N2716 1.384 . S
C2714 H2705 0.929 . S
C2714 C2706 1.378 . S
C2714 C2709 1.350 . S
C2715 H2702 0.929 . S
C2715 C2707 1.433 . S
C2715 N2717 1.384 . S
N2716 C2712 1.427 . S
N2716 C2713 1.384 . S
N2717 C2709 1.427 . S
N2717 C2715 1.384 . S
H2718 C2724 0.930 . S
H2719 C2728 0.930 . S
H2720 C2733 0.929 . S
H2721 C2731 0.929 . S
H2722 C2726 0.929 . S
H2723 C2732 0.929 . S
C2724 H2718 0.930 . S
C2724 C2725 1.367 1_554 S
C2724 C2732 1.378 1_554 S
C2725 C2724 1.367 1_556 S
C2725 C2733 1.433 . S
C2726 H2722 0.929 . S
C2726 C2728 1.378 . S
C2726 C2730 1.350 . S
C2727 C2730 1.463 . S
C2727 C2732 1.350 . S
C2727 N2735 1.427 . S
C2728 H2719 0.930 . S
C2728 C2726 1.378 . S
C2728 C2729 1.367 . S
C2729 C2728 1.367 . S
C2729 C2731 1.433 . S
C2730 C2726 1.350 . S
C2730 C2727 1.463 . S
C2730 N2734 1.427 . S
C2731 H2721 0.929 . S
C2731 C2729 1.433 . S
C2731 N2734 1.384 . S
C2732 H2723 0.929 . S
C2732 C2724 1.378 1_556 S
C2732 C2727 1.350 . S
C2733 H2720 0.929 . S
C2733 C2725 1.433 . S
C2733 N2735 1.384 . S
N2734 C2730 1.427 . S
N2734 C2731 1.384 . S
N2735 C2727 1.427 . S
N2735 C2733 1.384 . S
H2736 C2742 0.930 . S
H2737 C2746 0.930 . S
H2738 C2751 0.929 . S
H2739 C2749 0.929 . S
H2740 C2744 0.929 . S
H2741 C2750 0.929 . S
C2742 H2736 0.930 . S
C2742 C2743 1.367 . S
C2742 C2750 1.378 . S
C2743 C2742 1.367 . S
C2743 C2751 1.433 . S
C2744 H2740 0.929 . S
C2744 C2746 1.378 . S
C2744 C2748 1.350 . S
C2745 C2748 1.463 1_455 S
C2745 C2750 1.350 . S
C2745 N2753 1.427 . S
C2746 H2737 0.930 . S
C2746 C2744 1.378 . S
C2746 C2747 1.367 . S
C2747 C2746 1.367 . S
C2747 C2749 1.433 . S
C2748 C2744 1.350 . S
C2748 C2745 1.463 1_655 S
C2748 N2752 1.427 . S
C2749 H2739 0.929 . S
C2749 C2747 1.433 . S
C2749 N2752 1.384 . S
C2750 H2741 0.929 . S
C2750 C2742 1.378 . S
C2750 C2745 1.350 . S
C2751 H2738 0.929 . S
C2751 C2743 1.433 . S
C2751 N2753 1.384 . S
N2752 C2748 1.427 . S
N2752 C2749 1.384 . S
N2753 C2745 1.427 . S
N2753 C2751 1.384 . S
H2754 C2760 0.930 . S
H2755 C2764 0.930 . S
H2756 C2769 0.929 . S
H2757 C2767 0.929 . S
H2758 C2762 0.929 . S
H2759 C2768 0.929 . S
C2760 H2754 0.930 . S
C2760 C2761 1.367 . S
C2760 C2768 1.378 . S
C2761 C2760 1.367 . S
C2761 C2769 1.433 . S
C2762 H2758 0.929 . S
C2762 C2764 1.378 . S
C2762 C2766 1.350 . S
C2763 C2766 1.463 . S
C2763 C2768 1.350 . S
C2763 N2771 1.427 . S
C2764 H2755 0.930 . S
C2764 C2762 1.378 . S
C2764 C2765 1.367 . S
C2765 C2764 1.367 . S
C2765 C2767 1.433 . S
C2766 C2762 1.350 . S
C2766 C2763 1.463 . S
C2766 N2770 1.427 . S
C2767 H2757 0.929 . S
C2767 C2765 1.433 . S
C2767 N2770 1.384 . S
C2768 H2759 0.929 . S
C2768 C2760 1.378 . S
C2768 C2763 1.350 . S
C2769 H2756 0.929 . S
C2769 C2761 1.433 . S
C2769 N2771 1.384 . S
N2770 C2766 1.427 . S
N2770 C2767 1.384 . S
N2771 C2763 1.427 . S
N2771 C2769 1.384 . S
H2772 C2778 0.930 . S
H2773 C2782 0.930 . S
H2774 C2787 0.929 . S
H2775 C2785 0.929 . S
H2776 C2780 0.929 . S
H2777 C2786 0.929 . S
C2778 H2772 0.930 . S
C2778 C2779 1.367 . S
C2778 C2786 1.378 . S
C2779 C2778 1.367 . S
C2779 C2787 1.433 . S
C2780 H2776 0.929 . S
C2780 C2782 1.378 . S
C2780 C2784 1.350 . S
C2781 C2784 1.463 1_545 S
C2781 C2786 1.350 . S
C2781 N2789 1.427 . S
C2782 H2773 0.930 . S
C2782 C2780 1.378 . S
C2782 C2783 1.367 . S
C2783 C2782 1.367 . S
C2783 C2785 1.433 . S
C2784 C2780 1.350 . S
C2784 C2781 1.463 1_565 S
C2784 N2788 1.427 . S
C2785 H2775 0.929 . S
C2785 C2783 1.433 . S
C2785 N2788 1.384 . S
C2786 H2777 0.929 . S
C2786 C2778 1.378 . S
C2786 C2781 1.350 . S
C2787 H2774 0.929 . S
C2787 C2779 1.433 . S
C2787 N2789 1.384 . S
N2788 C2784 1.427 . S
N2788 C2785 1.384 . S
N2789 C2781 1.427 . S
N2789 C2787 1.384 . S
H2790 C2796 0.930 . S
H2791 C2800 0.930 . S
H2792 C2805 0.929 . S
H2793 C2803 0.929 . S
H2794 C2798 0.929 . S
H2795 C2804 0.929 . S
C2796 H2790 0.930 . S
C2796 C2797 1.367 . S
C2796 C2804 1.378 . S
C2797 C2796 1.367 . S
C2797 C2805 1.433 . S
C2798 H2794 0.929 . S
C2798 C2800 1.378 . S
C2798 C2802 1.350 . S
C2799 C2802 1.463 1_545 S
C2799 C2804 1.350 . S
C2799 N2807 1.427 . S
C2800 H2791 0.930 . S
C2800 C2798 1.378 . S
C2800 C2801 1.367 . S
C2801 C2800 1.367 . S
C2801 C2803 1.433 . S
C2802 C2798 1.350 . S
C2802 C2799 1.463 1_565 S
C2802 N2806 1.427 . S
C2803 H2793 0.929 . S
C2803 C2801 1.433 . S
C2803 N2806 1.384 . S
C2804 H2795 0.929 . S
C2804 C2796 1.378 . S
C2804 C2799 1.350 . S
C2805 H2792 0.929 . S
C2805 C2797 1.433 . S
C2805 N2807 1.384 . S
N2806 C2802 1.427 . S
N2806 C2803 1.384 . S
N2807 C2799 1.427 . S
N2807 C2805 1.384 . S
H2808 C2814 0.930 . S
H2809 C2818 0.930 . S
H2810 C2823 0.929 . S
H2811 C2821 0.929 . S
H2812 C2816 0.929 . S
H2813 C2822 0.929 . S
C2814 H2808 0.930 . S
C2814 C2815 1.367 . S
C2814 C2822 1.378 . S
C2815 C2814 1.367 . S
C2815 C2823 1.433 . S
C2816 H2812 0.929 . S
C2816 C2818 1.378 . S
C2816 C2820 1.350 . S
C2817 C2820 1.463 1_455 S
C2817 C2822 1.350 . S
C2817 N2825 1.427 . S
C2818 H2809 0.930 . S
C2818 C2816 1.378 . S
C2818 C2819 1.367 . S
C2819 C2818 1.367 . S
C2819 C2821 1.433 . S
C2820 C2816 1.350 . S
C2820 C2817 1.463 1_655 S
C2820 N2824 1.427 . S
C2821 H2811 0.929 . S
C2821 C2819 1.433 . S
C2821 N2824 1.384 . S
C2822 H2813 0.929 . S
C2822 C2814 1.378 . S
C2822 C2817 1.350 . S
C2823 H2810 0.929 . S
C2823 C2815 1.433 . S
C2823 N2825 1.384 . S
N2824 C2820 1.427 . S
N2824 C2821 1.384 . S
N2825 C2817 1.427 . S
N2825 C2823 1.384 . S
H2826 C2832 0.930 . S
H2827 C2836 0.930 . S
H2828 C2841 0.929 . S
H2829 C2839 0.929 . S
H2830 C2834 0.929 . S
H2831 C2840 0.929 . S
C2832 H2826 0.930 . S
C2832 C2833 1.367 . S
C2832 C2840 1.378 . S
C2833 C2832 1.367 . S
C2833 C2841 1.433 . S
C2834 H2830 0.929 . S
C2834 C2836 1.378 . S
C2834 C2838 1.350 . S
C2835 C2838 1.463 . S
C2835 C2840 1.350 . S
C2835 N2843 1.427 . S
C2836 H2827 0.930 . S
C2836 C2834 1.378 . S
C2836 C2837 1.367 . S
C2837 C2836 1.367 . S
C2837 C2839 1.433 . S
C2838 C2834 1.350 . S
C2838 C2835 1.463 . S
C2838 N2842 1.427 . S
C2839 H2829 0.929 . S
C2839 C2837 1.433 . S
C2839 N2842 1.384 . S
C2840 H2831 0.929 . S
C2840 C2832 1.378 . S
C2840 C2835 1.350 . S
C2841 H2828 0.929 . S
C2841 C2833 1.433 . S
C2841 N2843 1.384 . S
N2842 C2838 1.427 . S
N2842 C2839 1.384 . S
N2843 C2835 1.427 . S
N2843 C2841 1.384 . S
C1231 C617 0.651 . S
C1235 C5 0.651 . S
C1249 C39 0.651 . S
C1253 C651 0.651 . S
C1267 C685 0.633 . S
C1271 C73 0.633 . S
C1285 C1127 0.634 . S
C1289 C107 0.634 . S
C1303 C1161 0.623 . S
C1307 C141 0.623 . S
C1321 C175 0.644 . S
C1325 C1195 0.644 . S
C1339 C209 0.600 . S
C1343 C821 0.600 . S
C1357 C855 0.612 . S
C1361 C243 0.612 . S
C1375 C277 0.639 . S
C1379 C889 0.639 . S
C1393 C515 0.611 . S
C1397 C311 0.611 . S
C1411 C345 0.641 . S
C1415 C549 0.641 . S
C1429 C583 0.625 . S
C1433 C379 0.625 . S
C1447 C1025 0.644 . S
C1451 C413 0.644 . S
C1465 C447 0.597 . S
C1469 C1059 0.597 . S
C1483 C481 0.641 . S
C1487 C1093 0.641 . S
C1501 C923 0.602 . S
C1505 C719 0.602 . S
C1519 C753 0.604 . S
C1523 C957 0.604 . S
C1537 C787 0.624 . S
C1541 C991 0.624 . S
C1555 C9 1.385 . S
C1559 C111 1.378 . S
C1573 C145 1.384 . S
C1577 C43 1.376 . S
C1591 C77 1.381 . S
C1595 C179 1.379 . S
C1609 C315 1.376 . S
C1613 C213 1.382 . S
C1627 C247 1.375 . S
C1631 C349 1.387 . S
C1645 C383 1.387 . S
C1649 C281 1.375 . S
C1663 C417 1.375 . S
C1667 C519 1.386 . S
C1681 C451 1.379 . S
C1685 C553 1.385 . S
C1699 C587 1.387 . S
C1703 C485 1.375 . S
C1717 C621 1.386 . S
C1721 C723 1.375 . S
C1735 C655 1.385 . S
C1739 C757 1.379 . S
C1753 C791 1.385 . S
C1757 C689 1.379 . S
C1771 C825 1.384 . S
C1775 C927 1.375 . S
C1789 C961 1.375 . S
C1793 C859 1.385 . S
C1807 C995 1.387 . S
C1811 C893 1.375 . S
C1825 C1029 1.385 . S
C1829 C1131 1.378 . S
C1843 C1063 1.376 . S
C1847 C1165 1.384 . S
C1861 C1199 1.382 . S
C1865 C1097 1.382 . S
C1879 C373 1.471 . S
C1883 C20 1.406 . S
C1897 C407 1.466 . S
C1901 C54 1.415 . S
C1915 C339 1.468 . S
C1919 C88 1.410 . S
C1933 C305 1.472 . S
C1937 C122 1.401 . S
C1951 C237 1.474 . S
C1955 C156 1.398 . S
C1969 C190 1.414 . S
C1973 C271 1.466 . S
C1987 C169 1.473 . S
C1991 C224 1.401 . S
C2005 C258 1.397 . S
C2009 C203 1.474 . S
C2023 C292 1.407 . S
C2027 C135 1.470 . S
C2041 C101 1.466 . S
C2045 C326 1.415 . S
C2059 C33 1.471 . S
C2063 C360 1.406 . S
C2077 C394 1.405 . S
C2081 C67 1.471 . S
C2095 C428 1.410 . S
C2099 C781 1.469 . S
C2113 C462 1.404 . S
C2117 C815 1.471 . S
C2131 C496 1.397 . S
C2135 C747 1.475 . S
C2149 C530 1.397 . S
C2153 C713 1.474 . S
C2167 C645 1.473 . S
C2171 C564 1.399 . S
C2185 C679 1.467 . S
C2189 C598 1.413 . S
C2203 C632 1.412 . S
C2207 C577 1.468 . S
C2221 C666 1.402 . S
C2225 C611 1.471 . S
C2239 C543 1.466 . S
C2243 C700 1.415 . S
C2257 C509 1.474 . S
C2261 C734 1.397 . S
C2275 C441 1.474 . S
C2279 C768 1.397 . S
C2293 C802 1.397 . S
C2297 C475 1.474 . S
C2311 C1189 1.468 . S
C2315 C836 1.411 . S
C2329 C1223 1.471 . S
C2333 C870 1.403 . S
C2347 C904 1.397 . S
C2351 C1155 1.474 . S
C2365 C1121 1.469 . S
C2369 C938 1.409 . S
C2383 C1053 1.472 . S
C2387 C972 1.401 . S
C2401 C1006 1.397 . S
C2405 C1087 1.474 . S
C2419 C985 1.470 . S
C2423 C1040 1.408 . S
C2437 C1019 1.472 . S
C2441 C1074 1.400 . S
C2455 C951 1.473 . S
C2459 C1108 1.402 . S
C2473 C917 1.474 . S
C2477 C1142 1.397 . S
C2491 C849 1.472 . S
C2495 C1176 1.401 . S
C2509 C883 1.472 . S
C2513 C1210 1.403 . S
C2527 C546 2.006 . S
C2531 C2 2.001 . S
C2545 C580 2.008 . S
C2549 C36 1.999 . S
C2563 C512 2.000 . S
C2567 C70 2.007 . S
C2581 C104 2.008 . S
C2585 C886 1.998 1_554 S
C2599 C138 1.998 . S
C2603 C818 2.006 1_554 S
C2617 C172 2.007 . S
C2621 C852 1.997 1_554 S
C2635 C206 2.008 . S
C2639 C1158 1.997 . S
C2653 C240 2.001 . S
C2657 C1192 2.002 . S
C2671 C1124 2.008 . S
C2675 C274 1.998 . S
C2689 C308 1.997 . S
C2693 C682 2.007 1_556 S
C2707 C342 1.999 . S
C2711 C614 2.005 1_556 S
C2725 C648 2.002 1_556 S
C2729 C376 2.002 . S
C2743 C954 1.997 . S
C2747 C410 2.008 . S
C2761 C988 2.006 . S
C2765 C444 1.997 . S
C2779 C478 2.007 . S
C2783 C920 1.997 . S
C2797 C716 2.007 . S
C2801 C1090 2.000 . S
C2815 C1022 2.002 . S
C2819 C750 2.004 . S
C2833 C1056 1.996 . S
C2837 C784 2.007 . S
