# Generated by pormake.
# Topology lta, (4)-cn, num edge types: 1
# Building blocks:
#     Node 0, Type 0, BuildingBlock: QUQFOY_clean_sbu_3, # of connection points: 4
#     Node 1, Type 0, BuildingBlock: QUQFOY_clean_sbu_3, # of connection points: 4
#     Node 2, Type 0, BuildingBlock: QUQFOY_clean_sbu_3, # of connection points: 4
#     Node 3, Type 0, BuildingBlock: QUQFOY_clean_sbu_3, # of connection points: 4
#     Node 4, Type 0, BuildingBlock: QUQFOY_clean_sbu_3, # of connection points: 4
#     Node 5, Type 0, BuildingBlock: QUQFOY_clean_sbu_3, # of connection points: 4
#     Node 6, Type 0, BuildingBlock: QUQFOY_clean_sbu_3, # of connection points: 4
#     Node 7, Type 0, BuildingBlock: QUQFOY_clean_sbu_3, # of connection points: 4
#     Node 8, Type 0, BuildingBlock: QUQFOY_clean_sbu_3, # of connection points: 4
#     Node 9, Type 0, BuildingBlock: QUQFOY_clean_sbu_3, # of connection points: 4
#     Node 10, Type 0, BuildingBlock: QUQFOY_clean_sbu_3, # of connection points: 4
#     Node 11, Type 0, BuildingBlock: QUQFOY_clean_sbu_3, # of connection points: 4
#     Node 12, Type 0, BuildingBlock: QUQFOY_clean_sbu_3, # of connection points: 4
#     Node 13, Type 0, BuildingBlock: QUQFOY_clean_sbu_3, # of connection points: 4
#     Node 14, Type 0, BuildingBlock: QUQFOY_clean_sbu_3, # of connection points: 4
#     Node 15, Type 0, BuildingBlock: QUQFOY_clean_sbu_3, # of connection points: 4
#     Node 16, Type 0, BuildingBlock: QUQFOY_clean_sbu_3, # of connection points: 4
#     Node 17, Type 0, BuildingBlock: QUQFOY_clean_sbu_3, # of connection points: 4
#     Node 18, Type 0, BuildingBlock: QUQFOY_clean_sbu_3, # of connection points: 4
#     Node 19, Type 0, BuildingBlock: QUQFOY_clean_sbu_3, # of connection points: 4
#     Node 20, Type 0, BuildingBlock: QUQFOY_clean_sbu_3, # of connection points: 4
#     Node 21, Type 0, BuildingBlock: QUQFOY_clean_sbu_3, # of connection points: 4
#     Node 22, Type 0, BuildingBlock: QUQFOY_clean_sbu_3, # of connection points: 4
#     Node 23, Type 0, BuildingBlock: QUQFOY_clean_sbu_3, # of connection points: 4
#     Edge 24, Type (0, 0), BuildingBlock: MIFKUJ_clean_linker_0, # of connection points: 2
#     Edge 25, Type (0, 0), BuildingBlock: MIFKUJ_clean_linker_0, # of connection points: 2
#     Edge 26, Type (0, 0), BuildingBlock: MIFKUJ_clean_linker_0, # of connection points: 2
#     Edge 27, Type (0, 0), BuildingBlock: MIFKUJ_clean_linker_0, # of connection points: 2
#     Edge 28, Type (0, 0), BuildingBlock: MIFKUJ_clean_linker_0, # of connection points: 2
#     Edge 29, Type (0, 0), BuildingBlock: MIFKUJ_clean_linker_0, # of connection points: 2
#     Edge 30, Type (0, 0), BuildingBlock: MIFKUJ_clean_linker_0, # of connection points: 2
#     Edge 31, Type (0, 0), BuildingBlock: MIFKUJ_clean_linker_0, # of connection points: 2
#     Edge 32, Type (0, 0), BuildingBlock: MIFKUJ_clean_linker_0, # of connection points: 2
#     Edge 33, Type (0, 0), BuildingBlock: MIFKUJ_clean_linker_0, # of connection points: 2
#     Edge 34, Type (0, 0), BuildingBlock: MIFKUJ_clean_linker_0, # of connection points: 2
#     Edge 35, Type (0, 0), BuildingBlock: MIFKUJ_clean_linker_0, # of connection points: 2
#     Edge 36, Type (0, 0), BuildingBlock: MIFKUJ_clean_linker_0, # of connection points: 2
#     Edge 37, Type (0, 0), BuildingBlock: MIFKUJ_clean_linker_0, # of connection points: 2
#     Edge 38, Type (0, 0), BuildingBlock: MIFKUJ_clean_linker_0, # of connection points: 2
#     Edge 39, Type (0, 0), BuildingBlock: MIFKUJ_clean_linker_0, # of connection points: 2
#     Edge 40, Type (0, 0), BuildingBlock: MIFKUJ_clean_linker_0, # of connection points: 2
#     Edge 41, Type (0, 0), BuildingBlock: MIFKUJ_clean_linker_0, # of connection points: 2
#     Edge 42, Type (0, 0), BuildingBlock: MIFKUJ_clean_linker_0, # of connection points: 2
#     Edge 43, Type (0, 0), BuildingBlock: MIFKUJ_clean_linker_0, # of connection points: 2
#     Edge 44, Type (0, 0), BuildingBlock: MIFKUJ_clean_linker_0, # of connection points: 2
#     Edge 45, Type (0, 0), BuildingBlock: MIFKUJ_clean_linker_0, # of connection points: 2
#     Edge 46, Type (0, 0), BuildingBlock: MIFKUJ_clean_linker_0, # of connection points: 2
#     Edge 47, Type (0, 0), BuildingBlock: MIFKUJ_clean_linker_0, # of connection points: 2
#     Edge 48, Type (0, 0), BuildingBlock: MIFKUJ_clean_linker_0, # of connection points: 2
#     Edge 49, Type (0, 0), BuildingBlock: MIFKUJ_clean_linker_0, # of connection points: 2
#     Edge 50, Type (0, 0), BuildingBlock: MIFKUJ_clean_linker_0, # of connection points: 2
#     Edge 51, Type (0, 0), BuildingBlock: MIFKUJ_clean_linker_0, # of connection points: 2
#     Edge 52, Type (0, 0), BuildingBlock: MIFKUJ_clean_linker_0, # of connection points: 2
#     Edge 53, Type (0, 0), BuildingBlock: MIFKUJ_clean_linker_0, # of connection points: 2
#     Edge 54, Type (0, 0), BuildingBlock: MIFKUJ_clean_linker_0, # of connection points: 2
#     Edge 55, Type (0, 0), BuildingBlock: MIFKUJ_clean_linker_0, # of connection points: 2
#     Edge 56, Type (0, 0), BuildingBlock: MIFKUJ_clean_linker_0, # of connection points: 2
#     Edge 57, Type (0, 0), BuildingBlock: MIFKUJ_clean_linker_0, # of connection points: 2
#     Edge 58, Type (0, 0), BuildingBlock: MIFKUJ_clean_linker_0, # of connection points: 2
#     Edge 59, Type (0, 0), BuildingBlock: MIFKUJ_clean_linker_0, # of connection points: 2
#     Edge 60, Type (0, 0), BuildingBlock: MIFKUJ_clean_linker_0, # of connection points: 2
#     Edge 61, Type (0, 0), BuildingBlock: MIFKUJ_clean_linker_0, # of connection points: 2
#     Edge 62, Type (0, 0), BuildingBlock: MIFKUJ_clean_linker_0, # of connection points: 2
#     Edge 63, Type (0, 0), BuildingBlock: MIFKUJ_clean_linker_0, # of connection points: 2
#     Edge 64, Type (0, 0), BuildingBlock: MIFKUJ_clean_linker_0, # of connection points: 2
#     Edge 65, Type (0, 0), BuildingBlock: MIFKUJ_clean_linker_0, # of connection points: 2
#     Edge 66, Type (0, 0), BuildingBlock: MIFKUJ_clean_linker_0, # of connection points: 2
#     Edge 67, Type (0, 0), BuildingBlock: MIFKUJ_clean_linker_0, # of connection points: 2
#     Edge 68, Type (0, 0), BuildingBlock: MIFKUJ_clean_linker_0, # of connection points: 2
#     Edge 69, Type (0, 0), BuildingBlock: MIFKUJ_clean_linker_0, # of connection points: 2
#     Edge 70, Type (0, 0), BuildingBlock: MIFKUJ_clean_linker_0, # of connection points: 2
#     Edge 71, Type (0, 0), BuildingBlock: MIFKUJ_clean_linker_0, # of connection points: 2
# Relax obj value: 0.278
# Max RMSD: 0.158
# Mean RMSD: 0.158
data_MOF--net-lta--node1-QUQFOY_clean_sbu_3--edge1-MIFKUJ_clean_linker_0
_symmetry_space_group_name_H-M    P1
_symmetry_Int_Tables_number       1
_symmetry_cell_setting            triclinic
loop_
_symmetry_equiv_pos_as_xyz
'x, y, z'
_cell_length_a     74.348729
_cell_length_b     74.416888
_cell_length_c     74.420839
_cell_angle_alpha  89.96005
_cell_angle_beta   89.959871
_cell_angle_gamma 89.954848
loop_
_atom_site_label
_atom_site_type_symbol
_atom_site_fract_x
_atom_site_fract_y
_atom_site_fract_z
_atom_type_partial_charge
C0 C 0.13838 0.34712 0.47818 0.0
O1 O 0.13793 0.35881 0.4906 0.0
Cd2 Cd 0.12956 0.35262 0.52096 0.0
O3 O 0.13581 0.33053 0.48163 0.0
Cd4 Cd 0.13122 0.31069 0.50824 0.0
C5 C 0.09011 0.32939 0.51232 0.0
O6 O 0.14799 0.32803 0.52957 0.0
O7 O 0.13112 0.30786 0.54142 0.0
O8 O 0.15432 0.29172 0.49587 0.0
C9 C 0.1425 0.32034 0.5437 0.0
O10 O 0.098 0.34325 0.51855 0.0
C11 C 0.14562 0.27711 0.49727 0.0
O12 O 0.09907 0.31588 0.5068 0.0
O13 O 0.12979 0.27805 0.50368 0.0
C14 C 0.64713 0.13606 0.47704 0.0
O15 O 0.63461 0.13475 0.48859 0.0
Cd16 Cd 0.6383 0.12861 0.51981 0.0
O17 O 0.66359 0.13459 0.48168 0.0
Cd18 Cd 0.68128 0.12938 0.50971 0.0
C19 C 0.66104 0.08869 0.51405 0.0
O20 O 0.66255 0.14758 0.52842 0.0
O21 O 0.68177 0.13191 0.54309 0.0
O22 O 0.70309 0.15025 0.4977 0.0
C23 C 0.66917 0.14339 0.54349 0.0
O24 O 0.64694 0.09687 0.51934 0.0
C25 C 0.71674 0.14044 0.50073 0.0
O26 O 0.67495 0.09737 0.5091 0.0
O27 O 0.7139 0.12521 0.50791 0.0
C28 C 0.8509 0.65009 0.48354 0.0
O29 O 0.85187 0.63924 0.49667 0.0
Cd30 Cd 0.85963 0.64735 0.52641 0.0
O31 O 0.85336 0.6669 0.48591 0.0
Cd32 Cd 0.85918 0.68734 0.5121 0.0
C33 C 0.89993 0.66834 0.51739 0.0
O34 O 0.84 0.6719 0.53307 0.0
O35 O 0.85882 0.68971 0.54554 0.0
O36 O 0.83831 0.70811 0.49815 0.0
C37 C 0.84545 0.6793 0.54731 0.0
O38 O 0.89167 0.65502 0.5243 0.0
C39 C 0.84781 0.72206 0.50061 0.0
O40 O 0.89127 0.68168 0.5111 0.0
O41 O 0.86289 0.71987 0.50832 0.0
C42 C 0.34861 0.85557 0.4702 0.0
O43 O 0.36117 0.85953 0.48105 0.0
Cd44 Cd 0.35773 0.86489 0.5125 0.0
O45 O 0.33248 0.85382 0.47578 0.0
Cd46 Cd 0.31655 0.85638 0.50514 0.0
C47 C 0.32844 0.90011 0.50932 0.0
O48 O 0.33884 0.84134 0.52336 0.0
O49 O 0.3182 0.85491 0.53837 0.0
O50 O 0.29753 0.83125 0.49715 0.0
C51 C 0.3319 0.84476 0.53851 0.0
O52 O 0.34394 0.89463 0.51412 0.0
C53 C 0.28275 0.83942 0.49974 0.0
O54 O 0.31639 0.88903 0.50438 0.0
O55 O 0.28367 0.85579 0.50447 0.0
C56 C 0.14198 0.64007 0.52203 0.0
O57 O 0.13927 0.62725 0.51111 0.0
Cd58 Cd 0.12804 0.63099 0.48131 0.0
O59 O 0.14001 0.65638 0.51714 0.0
Cd60 Cd 0.13349 0.67371 0.48919 0.0
C61 C 0.09091 0.65764 0.49024 0.0
O62 O 0.14778 0.65293 0.469 0.0
O63 O 0.13328 0.6742 0.45587 0.0
O64 O 0.15825 0.69249 0.49817 0.0
C65 C 0.14309 0.66033 0.45443 0.0
O66 O 0.09742 0.64248 0.48563 0.0
C67 C 0.15004 0.70733 0.49631 0.0
O68 O 0.10109 0.67115 0.49284 0.0
O69 O 0.13374 0.70662 0.49123 0.0
C70 C 0.34822 0.13678 0.51483 0.0
O71 O 0.3601 0.13272 0.50324 0.0
Cd72 Cd 0.35473 0.12474 0.47275 0.0
O73 O 0.33164 0.13744 0.51048 0.0
Cd74 Cd 0.31403 0.13267 0.48228 0.0
C75 C 0.32677 0.08912 0.4807 0.0
O76 O 0.33454 0.14704 0.46164 0.0
O77 O 0.31424 0.13095 0.44896 0.0
O78 O 0.2946 0.15801 0.48867 0.0
C79 C 0.32711 0.14199 0.44724 0.0
O80 O 0.34175 0.0946 0.47445 0.0
C81 C 0.27999 0.14925 0.48769 0.0
O82 O 0.31473 0.10024 0.4856 0.0
O83 O 0.28121 0.13248 0.48476 0.0
C84 C 0.84547 0.33576 0.52113 0.0
O85 O 0.84603 0.34845 0.50973 0.0
Cd86 Cd 0.85769 0.34546 0.48016 0.0
O87 O 0.84996 0.31981 0.51673 0.0
Cd88 Cd 0.85893 0.30326 0.48892 0.0
C89 C 0.8983 0.32545 0.4908 0.0
O90 O 0.8417 0.32074 0.46791 0.0
O91 O 0.86209 0.3045 0.45565 0.0
O92 O 0.83765 0.28081 0.49851 0.0
C93 C 0.84914 0.3154 0.45361 0.0
O94 O 0.88984 0.33902 0.48462 0.0
C95 C 0.84772 0.26737 0.49547 0.0
O96 O 0.89008 0.31089 0.49444 0.0
O97 O 0.86337 0.27056 0.48938 0.0
C98 C 0.64943 0.848 0.51643 0.0
O99 O 0.63584 0.84836 0.50612 0.0
Cd100 Cd 0.63645 0.85834 0.47579 0.0
O101 O 0.66512 0.85169 0.5105 0.0
Cd102 Cd 0.67983 0.85836 0.48089 0.0
C103 C 0.65892 0.89866 0.48176 0.0
O104 O 0.6598 0.8406 0.463 0.0
O105 O 0.67686 0.85794 0.44753 0.0
O106 O 0.70257 0.83706 0.49013 0.0
C107 C 0.66475 0.84595 0.44766 0.0
O108 O 0.64436 0.89031 0.47833 0.0
C109 C 0.71594 0.84678 0.48588 0.0
O110 O 0.67367 0.8902 0.48379 0.0
O111 O 0.71256 0.86215 0.47925 0.0
C112 C 0.47831 0.14051 0.34635 0.0
O113 O 0.48966 0.1389 0.35901 0.0
Cd114 Cd 0.52051 0.1308 0.35563 0.0
O115 O 0.48314 0.13856 0.33001 0.0
Cd116 Cd 0.51139 0.13214 0.31304 0.0
C117 C 0.51313 0.09119 0.33309 0.0
O118 O 0.53139 0.14935 0.33183 0.0
O119 O 0.54467 0.13249 0.31255 0.0
O120 O 0.50079 0.15317 0.29052 0.0
C121 C 0.54604 0.14402 0.32501 0.0
O122 O 0.51842 0.09902 0.34736 0.0
C123 C 0.50377 0.14291 0.27721 0.0
O124 O 0.50909 0.10019 0.31911 0.0
O125 O 0.51025 0.12748 0.28059 0.0
C126 C 0.85633 0.47441 0.3529 0.0
O127 O 0.86095 0.4864 0.36413 0.0
Cd128 Cd 0.86167 0.5181 0.35921 0.0
O129 O 0.85177 0.47859 0.33691 0.0
Cd130 Cd 0.85047 0.50693 0.31902 0.0
C131 C 0.89437 0.51668 0.32723 0.0
O132 O 0.8354 0.52429 0.34176 0.0
O133 O 0.84436 0.53974 0.31916 0.0
O134 O 0.82681 0.49312 0.30117 0.0
C135 C 0.83606 0.5394 0.33402 0.0
O136 O 0.88975 0.52217 0.34277 0.0
C137 C 0.8334 0.49793 0.28616 0.0
O138 O 0.88291 0.50962 0.3167 0.0
O139 O 0.84807 0.50661 0.28651 0.0
C140 C 0.51068 0.84988 0.3401 0.0
O141 O 0.49852 0.85018 0.35209 0.0
Cd142 Cd 0.4688 0.86092 0.34761 0.0
O143 O 0.50718 0.85413 0.32385 0.0
Cd144 Cd 0.48004 0.86177 0.30533 0.0
C145 C 0.47878 0.90153 0.32695 0.0
O146 O 0.45938 0.84377 0.32243 0.0
O147 O 0.44658 0.86148 0.30369 0.0
O148 O 0.49374 0.8416 0.28392 0.0
C149 C 0.44489 0.84938 0.31555 0.0
O150 O 0.47309 0.89297 0.34067 0.0
C151 C 0.48967 0.85071 0.27009 0.0
O152 O 0.48276 0.89333 0.31247 0.0
O153 O 0.48116 0.86531 0.27258 0.0
C154 C 0.13 0.52836 0.32211 0.0
O155 O 0.14024 0.52284 0.30977 0.0
Cd156 Cd 0.12393 0.49308 0.30876 0.0
O157 O 0.11781 0.51768 0.32699 0.0
Cd158 Cd 0.12256 0.48975 0.30631 0.0
C159 C 0.08317 0.49349 0.30622 0.0
O160 O 0.13665 0.47221 0.32992 0.0
O161 O 0.11742 0.45732 0.31438 0.0
O162 O 0.15347 0.49324 0.29368 0.0
C163 C 0.12881 0.45742 0.32712 0.0
O164 O 0.09219 0.49652 0.32022 0.0
C165 C 0.14861 0.49339 0.27738 0.0
O166 O 0.092 0.48895 0.29247 0.0
O167 O 0.13189 0.492 0.27437 0.0
C168 C 0.4796 0.84877 0.64585 0.0
O169 O 0.49082 0.85017 0.63305 0.0
Cd170 Cd 0.52081 0.86089 0.6362 0.0
O171 O 0.48424 0.85206 0.66203 0.0
Cd172 Cd 0.51226 0.85982 0.67895 0.0
C173 C 0.51202 0.90056 0.65862 0.0
O174 O 0.53211 0.84276 0.66007 0.0
O175 O 0.54579 0.85967 0.67896 0.0
O176 O 0.5017 0.83836 0.701 0.0
C177 C 0.54688 0.84803 0.66658 0.0
O178 O 0.51702 0.8927 0.64425 0.0
C179 C 0.50448 0.8483 0.71458 0.0
O180 O 0.50891 0.89164 0.67288 0.0
O181 O 0.51097 0.86381 0.71162 0.0
C182 C 0.13252 0.47252 0.64844 0.0
O183 O 0.13082 0.48485 0.63675 0.0
Cd184 Cd 0.12945 0.51646 0.6423 0.0
O185 O 0.1337 0.47637 0.6651 0.0
Cd186 Cd 0.13315 0.5043 0.68351 0.0
C187 C 0.09169 0.51538 0.66829 0.0
O188 O 0.15224 0.52183 0.66407 0.0
O189 O 0.13916 0.53706 0.68473 0.0
O190 O 0.15399 0.48971 0.70393 0.0
C191 C 0.15013 0.53685 0.67169 0.0
O192 O 0.09918 0.52139 0.65411 0.0
C193 C 0.14573 0.49437 0.71814 0.0
O194 O 0.10078 0.50733 0.68034 0.0
O195 O 0.13127 0.50323 0.71618 0.0
C196 C 0.5126 0.13951 0.64547 0.0
O197 O 0.50021 0.13885 0.63375 0.0
Cd198 Cd 0.46989 0.13059 0.63949 0.0
O199 O 0.50913 0.13681 0.66205 0.0
Cd200 Cd 0.48202 0.13134 0.68132 0.0
C201 C 0.47827 0.09058 0.66174 0.0
O202 O 0.46149 0.14926 0.66401 0.0
O203 O 0.44863 0.1321 0.68325 0.0
O204 O 0.49489 0.15296 0.70188 0.0
C205 C 0.44701 0.14409 0.67125 0.0
O206 O 0.47244 0.09878 0.64787 0.0
C207 C 0.49224 0.14373 0.71599 0.0
O208 O 0.48328 0.09925 0.67561 0.0
O209 O 0.48497 0.12842 0.71399 0.0
C210 C 0.85182 0.52124 0.63718 0.0
O211 O 0.85741 0.51063 0.62503 0.0
Cd212 Cd 0.86734 0.48042 0.6298 0.0
O213 O 0.85106 0.51612 0.65352 0.0
Cd214 Cd 0.85859 0.48827 0.6704 0.0
C215 C 0.9022 0.49016 0.65776 0.0
O216 O 0.84562 0.46715 0.64942 0.0
O217 O 0.86187 0.45522 0.67021 0.0
O218 O 0.83279 0.49315 0.6895 0.0
C219 C 0.85108 0.45304 0.65721 0.0
O220 O 0.89732 0.4834 0.64283 0.0
C221 C 0.84138 0.49241 0.70421 0.0
O222 O 0.89067 0.49438 0.66966 0.0
O223 O 0.8583 0.49025 0.70323 0.0
C224 C 0.35578 0.46568 0.13264 0.0
O225 O 0.36914 0.47557 0.12874 0.0
Cd226 Cd 0.36744 0.50699 0.12244 0.0
O227 O 0.34009 0.47242 0.1342 0.0
Cd228 Cd 0.32573 0.50262 0.13219 0.0
C229 C 0.33645 0.50475 0.08815 0.0
O230 O 0.34973 0.51968 0.14598 0.0
O231 O 0.32892 0.53551 0.13348 0.0
O232 O 0.30854 0.49496 0.15861 0.0
C233 C 0.34318 0.53508 0.14279 0.0
O234 O 0.35252 0.50769 0.09327 0.0
C235 C 0.29327 0.49838 0.1518 0.0
O236 O 0.32399 0.50182 0.09952 0.0
O237 O 0.29301 0.50352 0.13552 0.0
C238 C 0.35251 0.51577 0.85127 0.0
O239 O 0.3643 0.50422 0.85567 0.0
Cd240 Cd 0.35897 0.47346 0.86263 0.0
O241 O 0.33595 0.51142 0.85019 0.0
Cd242 Cd 0.31808 0.48346 0.85553 0.0
C243 C 0.33169 0.48062 0.89884 0.0
O244 O 0.33837 0.46307 0.84031 0.0
O245 O 0.31758 0.45013 0.85554 0.0
O246 O 0.29742 0.4929 0.832 0.0
C247 C 0.33076 0.44857 0.84485 0.0
O248 O 0.34653 0.47442 0.89294 0.0
C249 C 0.2833 0.49038 0.84129 0.0
O250 O 0.31952 0.48592 0.88806 0.0
O251 O 0.28544 0.4849 0.8573 0.0
C252 C 0.4803 0.34368 0.85363 0.0
O253 O 0.49179 0.35578 0.85721 0.0
Cd254 Cd 0.52254 0.35091 0.86456 0.0
O255 O 0.48483 0.32713 0.85342 0.0
Cd256 Cd 0.51297 0.30952 0.85871 0.0
C257 C 0.51441 0.3249 0.90154 0.0
O258 O 0.53254 0.32969 0.84272 0.0
O259 O 0.54649 0.31009 0.85856 0.0
O260 O 0.50242 0.28878 0.83585 0.0
C261 C 0.54739 0.32287 0.84732 0.0
O262 O 0.52106 0.33942 0.89538 0.0
C263 C 0.50608 0.27464 0.8447 0.0
O264 O 0.50938 0.31241 0.89102 0.0
O265 O 0.51282 0.27674 0.86023 0.0
C266 C 0.64342 0.47965 0.85082 0.0
O267 O 0.6313 0.4911 0.85454 0.0
Cd268 Cd 0.63681 0.5223 0.86022 0.0
O269 O 0.65984 0.48441 0.84962 0.0
Cd270 Cd 0.67763 0.51241 0.85288 0.0
C271 C 0.66451 0.51623 0.89617 0.0
O272 O 0.65706 0.53201 0.83725 0.0
O273 O 0.67813 0.5457 0.85147 0.0
O274 O 0.69631 0.50105 0.8289 0.0
C275 C 0.66474 0.5467 0.84096 0.0
O276 O 0.64979 0.52282 0.89041 0.0
C277 C 0.71116 0.50356 0.83692 0.0
O278 O 0.67635 0.51027 0.88536 0.0
O279 O 0.71045 0.51026 0.85261 0.0
C280 C 0.51833 0.65424 0.84337 0.0
O281 O 0.50728 0.64125 0.84347 0.0
Cd282 Cd 0.4771 0.6439 0.85368 0.0
O283 O 0.51324 0.67009 0.84746 0.0
Cd284 Cd 0.48432 0.68582 0.8546 0.0
C285 C 0.48431 0.66466 0.89453 0.0
O286 O 0.4648 0.66777 0.83602 0.0
O287 O 0.45102 0.68372 0.85571 0.0
O288 O 0.49457 0.70854 0.83377 0.0
C289 C 0.44999 0.6731 0.84244 0.0
O290 O 0.47969 0.65058 0.88597 0.0
C291 C 0.49073 0.7219 0.84363 0.0
O292 O 0.48752 0.67927 0.88626 0.0
O293 O 0.48379 0.71855 0.85887 0.0
C294 C 0.63955 0.51725 0.12813 0.0
O295 O 0.627 0.50662 0.12356 0.0
Cd296 Cd 0.63086 0.47513 0.1185 0.0
O297 O 0.65552 0.51143 0.13039 0.0
Cd298 Cd 0.67177 0.48231 0.12827 0.0
C299 C 0.6613 0.47859 0.0843 0.0
O300 O 0.64859 0.46543 0.14348 0.0
O301 O 0.66969 0.44926 0.13216 0.0
O302 O 0.68981 0.49592 0.15163 0.0
C303 C 0.65549 0.45002 0.14157 0.0
O304 O 0.64576 0.47341 0.08927 0.0
C305 C 0.70463 0.48933 0.14631 0.0
O306 O 0.67293 0.48369 0.09574 0.0
O307 O 0.70427 0.47953 0.13236 0.0
C308 C 0.48713 0.64978 0.13832 0.0
O309 O 0.49971 0.63833 0.13703 0.0
Cd310 Cd 0.52838 0.64536 0.12498 0.0
O311 O 0.48982 0.66621 0.13421 0.0
Cd312 Cd 0.51541 0.68602 0.12491 0.0
C313 C 0.51529 0.66523 0.08496 0.0
O314 O 0.53792 0.67063 0.14234 0.0
O315 O 0.54867 0.68798 0.12201 0.0
O316 O 0.50113 0.70625 0.14585 0.0
C317 C 0.55165 0.67765 0.13521 0.0
O318 O 0.52241 0.65193 0.0931 0.0
C319 C 0.50454 0.72053 0.1372 0.0
O320 O 0.51072 0.67932 0.09351 0.0
O321 O 0.51315 0.71893 0.12255 0.0
C322 C 0.5105 0.33662 0.14277 0.0
O323 O 0.49822 0.34828 0.14049 0.0
Cd324 Cd 0.4684 0.34203 0.13048 0.0
O325 O 0.50734 0.31995 0.14032 0.0
Cd326 Cd 0.4811 0.30069 0.13242 0.0
C327 C 0.47919 0.32001 0.09135 0.0
O328 O 0.45951 0.31776 0.14931 0.0
O329 O 0.44764 0.29831 0.13176 0.0
O330 O 0.49333 0.2796 0.15393 0.0
C331 C 0.44536 0.31027 0.14367 0.0
O332 O 0.47148 0.3334 0.09875 0.0
C333 C 0.49093 0.26574 0.14428 0.0
O334 O 0.48505 0.30692 0.10067 0.0
O335 O 0.48407 0.26814 0.12884 0.0
H336 H 0.11458 0.42355 0.32403 0.0
H337 H 0.11876 0.39823 0.34473 0.0
H338 H 0.15423 0.43066 0.37716 0.0
H339 H 0.15053 0.45567 0.3564 0.0
H340 H 0.16671 0.3976 0.37539 0.0
H341 H 0.10857 0.4255 0.38685 0.0
H342 H 0.07795 0.43533 0.37866 0.0
H343 H 0.06386 0.38104 0.36517 0.0
H344 H 0.09448 0.37094 0.3731 0.0
H345 H 0.15443 0.3779 0.46672 0.0
H346 H 0.15568 0.38959 0.43609 0.0
H347 H 0.12886 0.34207 0.41664 0.0
H348 H 0.1278 0.33007 0.44737 0.0
H349 H 0.11233 0.37514 0.40683 0.0
H350 H 0.16966 0.34729 0.40338 0.0
H351 H 0.20006 0.33885 0.41355 0.0
H352 H 0.2157 0.39437 0.41383 0.0
H353 H 0.18532 0.40319 0.40391 0.0
C354 C 0.12342 0.42517 0.33548 0.0
C355 C 0.13211 0.44163 0.33869 0.0
C356 C 0.12577 0.41072 0.3473 0.0
C357 C 0.13665 0.41262 0.36262 0.0
C358 C 0.14581 0.42885 0.36542 0.0
C359 C 0.14359 0.44319 0.35358 0.0
C360 C 0.13776 0.39833 0.37648 0.0
C361 C 0.15483 0.39265 0.38225 0.0
C362 C 0.12223 0.39145 0.38508 0.0
C363 C 0.10385 0.39751 0.38032 0.0
C364 C 0.09897 0.41569 0.382 0.0
C365 C 0.08162 0.42131 0.37744 0.0
C366 C 0.06899 0.40883 0.37134 0.0
C367 C 0.07367 0.3907 0.36985 0.0
C368 C 0.09102 0.38502 0.37438 0.0
C369 C 0.14905 0.36979 0.4559 0.0
C370 C 0.14095 0.35311 0.45943 0.0
C371 C 0.14987 0.37644 0.4384 0.0
C372 C 0.14244 0.36663 0.42413 0.0
C373 C 0.13475 0.34976 0.4275 0.0
C374 C 0.1342 0.34293 0.44502 0.0
C375 C 0.14128 0.37503 0.40616 0.0
C376 C 0.1242 0.37963 0.39963 0.0
C377 C 0.1568 0.38112 0.39703 0.0
C378 C 0.17515 0.3759 0.40296 0.0
C379 C 0.17953 0.35772 0.40573 0.0
C380 C 0.19678 0.35286 0.41143 0.0
C381 C 0.2098 0.36607 0.41435 0.0
C382 C 0.20561 0.38416 0.41155 0.0
C383 C 0.18838 0.38909 0.40586 0.0
H384 H 0.22314 0.36228 0.41877 0.0
H385 H 0.05555 0.4132 0.36781 0.0
H386 H 0.61412 0.13199 0.46191 0.0
H387 H 0.60601 0.13465 0.43036 0.0
H388 H 0.66076 0.14826 0.41701 0.0
H389 H 0.6692 0.14541 0.44884 0.0
H390 H 0.63218 0.17099 0.40085 0.0
H391 H 0.65092 0.11019 0.40473 0.0
H392 H 0.65333 0.07997 0.41813 0.0
H393 H 0.59627 0.07284 0.41297 0.0
H394 H 0.59346 0.10313 0.39983 0.0
H395 H 0.57861 0.12799 0.31859 0.0
H396 H 0.60532 0.12929 0.33777 0.0
H397 H 0.5789 0.1682 0.37171 0.0
H398 H 0.55239 0.16714 0.35258 0.0
H399 H 0.60464 0.11809 0.37111 0.0
H400 H 0.60754 0.19325 0.39449 0.0
H401 H 0.60545 0.22335 0.38082 0.0
H402 H 0.62118 0.20162 0.32973 0.0
H403 H 0.62364 0.17142 0.34313 0.0
C404 C 0.62449 0.13563 0.45235 0.0
C405 C 0.64233 0.13846 0.4579 0.0
C406 C 0.61982 0.13707 0.43431 0.0
C407 C 0.63283 0.14149 0.42141 0.0
C408 C 0.65059 0.14477 0.42683 0.0
C409 C 0.65536 0.1431 0.44496 0.0
C410 C 0.62741 0.14253 0.40235 0.0
C411 C 0.62639 0.15944 0.39412 0.0
C412 C 0.6204 0.12729 0.39348 0.0
C413 C 0.62199 0.10898 0.40131 0.0
C414 C 0.63887 0.10223 0.40656 0.0
C415 C 0.64031 0.08508 0.4141 0.0
C416 C 0.62496 0.07449 0.4164 0.0
C417 C 0.60815 0.08105 0.41116 0.0
C418 C 0.60663 0.0982 0.40363 0.0
C419 C 0.5787 0.13719 0.32986 0.0
C420 C 0.56332 0.14729 0.33423 0.0
C421 C 0.59398 0.13791 0.34079 0.0
C422 C 0.59416 0.14887 0.35615 0.0
C423 C 0.57924 0.15987 0.35978 0.0
C424 C 0.564 0.15913 0.3489 0.0
C425 C 0.60837 0.1468 0.36997 0.0
C426 C 0.61096 0.12963 0.37736 0.0
C427 C 0.61695 0.16179 0.37792 0.0
C428 C 0.61573 0.18002 0.36984 0.0
C429 C 0.6107 0.19489 0.38037 0.0
C430 C 0.60941 0.21198 0.37266 0.0
C431 C 0.61316 0.21439 0.35442 0.0
C432 C 0.61824 0.19973 0.34385 0.0
C433 C 0.61956 0.18261 0.3515 0.0
H434 H 0.61214 0.22763 0.34847 0.0
H435 H 0.62609 0.0612 0.4222 0.0
H436 H 0.85152 0.66784 0.45101 0.0
H437 H 0.84749 0.65459 0.42104 0.0
H438 H 0.83813 0.60277 0.44533 0.0
H439 H 0.84224 0.61568 0.47498 0.0
H440 H 0.863 0.60092 0.4191 0.0
H441 H 0.80392 0.62751 0.42819 0.0
H442 H 0.78291 0.65263 0.43344 0.0
H443 H 0.80131 0.67845 0.3852 0.0
H444 H 0.82261 0.65357 0.3798 0.0
H445 H 0.8183 0.54211 0.36576 0.0
H446 H 0.81842 0.56775 0.3861 0.0
H447 H 0.84531 0.59981 0.34603 0.0
H448 H 0.84535 0.57406 0.32543 0.0
H449 H 0.81505 0.61662 0.37539 0.0
H450 H 0.8741 0.5882 0.36638 0.0
H451 H 0.89235 0.56099 0.3611 0.0
H452 H 0.87222 0.53773 0.40995 0.0
H453 H 0.8536 0.5647 0.41532 0.0
C454 C 0.84847 0.65366 0.44993 0.0
C455 C 0.84734 0.6428 0.46539 0.0
C456 C 0.84615 0.64613 0.43282 0.0
C457 C 0.84259 0.62769 0.431 0.0
C458 C 0.84103 0.617 0.44643 0.0
C459 C 0.84335 0.62445 0.4634 0.0
C460 C 0.8411 0.61901 0.41317 0.0
C461 C 0.85262 0.60453 0.4095 0.0
C462 C 0.82779 0.62388 0.40045 0.0
C463 C 0.81502 0.63882 0.40373 0.0
C464 C 0.80361 0.63863 0.4188 0.0
C465 C 0.79162 0.6528 0.42178 0.0
C466 C 0.79082 0.66716 0.4097 0.0
C467 C 0.80197 0.66735 0.39458 0.0
C468 C 0.814 0.65321 0.39154 0.0
C469 C 0.82376 0.55475 0.36102 0.0
C470 C 0.83216 0.55598 0.34416 0.0
C471 C 0.82368 0.56942 0.37262 0.0
C472 C 0.83196 0.58555 0.36754 0.0
C473 C 0.83876 0.58745 0.35007 0.0
C474 C 0.83886 0.57271 0.3384 0.0
C475 C 0.83672 0.5985 0.38172 0.0
C476 C 0.82582 0.61357 0.38474 0.0
C477 C 0.85061 0.59425 0.39394 0.0
C478 C 0.86241 0.5784 0.39119 0.0
C479 C 0.87353 0.57724 0.37595 0.0
C480 C 0.88392 0.56187 0.37294 0.0
C481 C 0.88343 0.54763 0.38517 0.0
C482 C 0.87259 0.54878 0.40049 0.0
C483 C 0.86213 0.56411 0.40353 0.0
H484 H 0.89144 0.53572 0.38279 0.0
H485 H 0.78153 0.67812 0.41203 0.0
H486 H 0.38048 0.8626 0.45362 0.0
H487 H 0.38752 0.86047 0.42178 0.0
H488 H 0.33364 0.84211 0.41078 0.0
H489 H 0.32634 0.84424 0.44293 0.0
H490 H 0.3605 0.82213 0.39298 0.0
H491 H 0.34243 0.88267 0.39832 0.0
H492 H 0.3405 0.91284 0.41185 0.0
H493 H 0.3972 0.92035 0.40384 0.0
H494 H 0.39955 0.89011 0.39053 0.0
H495 H 0.41256 0.86629 0.30997 0.0
H496 H 0.38607 0.86489 0.32952 0.0
H497 H 0.41202 0.82401 0.36152 0.0
H498 H 0.43815 0.82507 0.34195 0.0
H499 H 0.38732 0.87509 0.36258 0.0
H500 H 0.38415 0.7995 0.38515 0.0
H501 H 0.38502 0.76962 0.37094 0.0
H502 H 0.36778 0.79258 0.32089 0.0
H503 H 0.36652 0.82258 0.33484 0.0
C504 C 0.37007 0.85808 0.44451 0.0
C505 C 0.35281 0.85365 0.45084 0.0
C506 C 0.3741 0.85696 0.42628 0.0
C507 C 0.36102 0.85139 0.41393 0.0
C508 C 0.34387 0.84656 0.42014 0.0
C509 C 0.33974 0.8478 0.43847 0.0
C510 C 0.36575 0.85051 0.39463 0.0
C511 C 0.36615 0.8337 0.38614 0.0
C512 C 0.37245 0.86578 0.38554 0.0
C513 C 0.37116 0.88407 0.39345 0.0
C514 C 0.35452 0.89071 0.39954 0.0
C515 C 0.35335 0.90783 0.40716 0.0
C516 C 0.36872 0.9185 0.40871 0.0
C517 C 0.3853 0.91207 0.40262 0.0
C518 C 0.38655 0.89495 0.395 0.0
C519 C 0.41235 0.85661 0.32084 0.0
C520 C 0.42753 0.84598 0.3246 0.0
C521 C 0.39721 0.85583 0.33201 0.0
C522 C 0.397 0.84433 0.34699 0.0
C523 C 0.41165 0.83277 0.34989 0.0
C524 C 0.42671 0.83352 0.33876 0.0
C525 C 0.38325 0.84643 0.36132 0.0
C526 C 0.38116 0.86353 0.36899 0.0
C527 C 0.37479 0.83145 0.36947 0.0
C528 C 0.37528 0.81335 0.36107 0.0
C529 C 0.38039 0.79818 0.37115 0.0
C530 C 0.38099 0.78121 0.36313 0.0
C531 C 0.37647 0.7792 0.34502 0.0
C532 C 0.37131 0.79416 0.33491 0.0
C533 C 0.37068 0.81116 0.34286 0.0
H534 H 0.37696 0.76606 0.33883 0.0
H535 H 0.36778 0.93176 0.41462 0.0
H536 H 0.14033 0.57149 0.67969 0.0
H537 H 0.1441 0.5978 0.66027 0.0
H538 H 0.17562 0.56603 0.62335 0.0
H539 H 0.17222 0.53991 0.64275 0.0
H540 H 0.18699 0.60033 0.62333 0.0
H541 H 0.13012 0.56809 0.61946 0.0
H542 H 0.10189 0.55607 0.63209 0.0
H543 H 0.08564 0.60934 0.64726 0.0
H544 H 0.11394 0.62162 0.63493 0.0
H545 H 0.15996 0.61058 0.53383 0.0
H546 H 0.16626 0.60204 0.56487 0.0
H547 H 0.14143 0.65097 0.58358 0.0
H548 H 0.13543 0.65988 0.55233 0.0
H549 H 0.12751 0.61724 0.59823 0.0
H550 H 0.18266 0.64875 0.5919 0.0
H551 H 0.21073 0.65812 0.57697 0.0
H552 H 0.23009 0.60377 0.57841 0.0
H553 H 0.20202 0.59399 0.5931 0.0
C554 C 0.1485 0.57027 0.6677 0.0
C555 C 0.15565 0.55356 0.66251 0.0
C556 C 0.15063 0.58531 0.65662 0.0
C557 C 0.15982 0.58376 0.6402 0.0
C558 C 0.16842 0.56753 0.63593 0.0
C559 C 0.16635 0.55256 0.64698 0.0
C560 C 0.15828 0.59778 0.62615 0.0
C561 C 0.17401 0.6042 0.61792 0.0
C562 C 0.14131 0.60305 0.6193 0.0
C563 C 0.12422 0.59573 0.62651 0.0
C564 C 0.12057 0.57721 0.62559 0.0
C565 C 0.10457 0.57036 0.63269 0.0
C566 C 0.09201 0.58193 0.64053 0.0
C567 C 0.09541 0.60039 0.64123 0.0
C568 C 0.11143 0.60731 0.6342 0.0
C569 C 0.15607 0.61965 0.54452 0.0
C570 C 0.14713 0.63584 0.5407 0.0
C571 C 0.15979 0.61483 0.56223 0.0
C572 C 0.15441 0.62596 0.57645 0.0
C573 C 0.14579 0.64231 0.57272 0.0
C574 C 0.1424 0.64735 0.55492 0.0
C575 C 0.15622 0.61929 0.59506 0.0
C576 C 0.14051 0.61409 0.60407 0.0
C577 C 0.1732 0.61484 0.60236 0.0
C578 C 0.19017 0.62063 0.59357 0.0
C579 C 0.19284 0.63876 0.58892 0.0
C580 C 0.20877 0.64415 0.58052 0.0
C581 C 0.22218 0.63155 0.57673 0.0
C582 C 0.2197 0.61352 0.58137 0.0
C583 C 0.20379 0.60805 0.58976 0.0
H584 H 0.2345 0.63575 0.57022 0.0
H585 H 0.07962 0.5766 0.64602 0.0
H586 H 0.32693 0.14266 0.54459 0.0
H587 H 0.3369 0.14535 0.57595 0.0
H588 H 0.39211 0.14045 0.55877 0.0
H589 H 0.38242 0.13769 0.52774 0.0
H590 H 0.38441 0.11774 0.58611 0.0
H591 H 0.37492 0.18056 0.57052 0.0
H592 H 0.35666 0.2065 0.56083 0.0
H593 H 0.32127 0.19879 0.60581 0.0
H594 H 0.33922 0.17265 0.61563 0.0
H595 H 0.43931 0.17078 0.6476 0.0
H596 H 0.41419 0.17156 0.62655 0.0
H597 H 0.39065 0.12552 0.65274 0.0
H598 H 0.41583 0.12463 0.67391 0.0
H599 H 0.37626 0.17156 0.62463 0.0
H600 H 0.38345 0.09582 0.62018 0.0
H601 H 0.40491 0.07175 0.62825 0.0
H602 H 0.44907 0.10804 0.62017 0.0
H603 H 0.42787 0.13226 0.61213 0.0
C604 C 0.3412 0.1423 0.54751 0.0
C605 C 0.35387 0.13985 0.53366 0.0
C606 C 0.34685 0.14384 0.56542 0.0
C607 C 0.36523 0.14297 0.56966 0.0
C608 C 0.37784 0.14096 0.5558 0.0
C609 C 0.37226 0.13945 0.53802 0.0
C610 C 0.3717 0.14369 0.58845 0.0
C611 C 0.38231 0.12937 0.59465 0.0
C612 C 0.36903 0.15886 0.59959 0.0
C613 C 0.35825 0.17452 0.59366 0.0
C614 C 0.36314 0.1843 0.57824 0.0
C615 C 0.35288 0.19905 0.57275 0.0
C616 C 0.33777 0.20425 0.58266 0.0
C617 C 0.33294 0.19473 0.59812 0.0
C618 C 0.34316 0.17994 0.60365 0.0
C619 C 0.42849 0.16118 0.64925 0.0
C620 C 0.4297 0.14742 0.66213 0.0
C621 C 0.41407 0.16173 0.6373 0.0
C622 C 0.40072 0.14845 0.63795 0.0
C623 C 0.4009 0.13583 0.652 0.0
C624 C 0.4153 0.13534 0.66406 0.0
C625 C 0.38915 0.14576 0.62202 0.0
C626 C 0.37769 0.15965 0.61635 0.0
C627 C 0.39128 0.13035 0.61112 0.0
C628 C 0.4041 0.11583 0.61575 0.0
C629 C 0.39775 0.09861 0.62014 0.0
C630 C 0.40986 0.08498 0.62475 0.0
C631 C 0.42835 0.0884 0.62485 0.0
C632 C 0.43476 0.10544 0.62026 0.0
C633 C 0.42271 0.11912 0.6157 0.0
H634 H 0.43771 0.07783 0.62842 0.0
H635 H 0.32984 0.21568 0.57839 0.0
H636 H 0.8277 0.44527 0.63034 0.0
H637 H 0.82293 0.41651 0.61572 0.0
H638 H 0.85993 0.39126 0.65261 0.0
H639 H 0.86502 0.42036 0.66726 0.0
H640 H 0.86851 0.38352 0.6192 0.0
H641 H 0.81518 0.37869 0.65255 0.0
H642 H 0.78685 0.38822 0.66689 0.0
H643 H 0.76377 0.39883 0.61509 0.0
H644 H 0.79204 0.38964 0.60042 0.0
H645 H 0.85497 0.31741 0.55164 0.0
H646 H 0.8518 0.32801 0.58272 0.0
H647 H 0.8225 0.37439 0.56388 0.0
H648 H 0.82568 0.36402 0.53301 0.0
H649 H 0.80968 0.36128 0.59702 0.0
H650 H 0.86711 0.37654 0.56707 0.0
H651 H 0.89568 0.36794 0.5525 0.0
H652 H 0.91062 0.33743 0.59918 0.0
H653 H 0.882 0.3457 0.61391 0.0
C654 C 0.83464 0.43358 0.63555 0.0
C655 C 0.84686 0.43511 0.64984 0.0
C656 C 0.83174 0.41705 0.6273 0.0
C657 C 0.84086 0.40163 0.63322 0.0
C658 C 0.85264 0.40296 0.64791 0.0
C659 C 0.85555 0.41958 0.65624 0.0
C660 C 0.83971 0.38494 0.6224 0.0
C661 C 0.85564 0.3782 0.61486 0.0
C662 C 0.82295 0.37797 0.61668 0.0
C663 C 0.80579 0.38346 0.62537 0.0
C664 C 0.80411 0.38314 0.6442 0.0
C665 C 0.78805 0.38848 0.6524 0.0
C666 C 0.77352 0.39412 0.64191 0.0
C667 C 0.77503 0.39442 0.6232 0.0
C668 C 0.79106 0.38911 0.61493 0.0
C669 C 0.84745 0.32962 0.55421 0.0
C670 C 0.8408 0.34005 0.53991 0.0
C671 C 0.84565 0.33563 0.57194 0.0
C672 C 0.83704 0.35204 0.57554 0.0
C673 C 0.82915 0.36167 0.56139 0.0
C674 C 0.83112 0.35581 0.54373 0.0
C675 C 0.83837 0.36078 0.59333 0.0
C676 C 0.8225 0.36602 0.60209 0.0
C677 C 0.85517 0.36635 0.60026 0.0
C678 C 0.87237 0.36153 0.59147 0.0
C679 C 0.87645 0.3679 0.57416 0.0
C680 C 0.89265 0.36311 0.56588 0.0
C681 C 0.90493 0.3521 0.57488 0.0
C682 C 0.90107 0.34591 0.5922 0.0
C683 C 0.88487 0.35064 0.60052 0.0
H684 H 0.91746 0.3484 0.56846 0.0
H685 H 0.7611 0.39825 0.64828 0.0
H686 H 0.58028 0.86253 0.67281 0.0
H687 H 0.6071 0.85918 0.65389 0.0
H688 H 0.5786 0.8215 0.62032 0.0
H689 H 0.5521 0.82445 0.63925 0.0
H690 H 0.61308 0.81217 0.62255 0.0
H691 H 0.57884 0.86718 0.61144 0.0
H692 H 0.56584 0.89638 0.62028 0.0
H693 H 0.61841 0.91572 0.63428 0.0
H694 H 0.63166 0.88651 0.62573 0.0
H695 H 0.62306 0.82746 0.53096 0.0
H696 H 0.61557 0.82402 0.56266 0.0
H697 H 0.66135 0.85648 0.57718 0.0
H698 H 0.66915 0.85975 0.54522 0.0
H699 H 0.62821 0.86882 0.59078 0.0
H700 H 0.66194 0.8149 0.59118 0.0
H701 H 0.67282 0.7857 0.57993 0.0
H702 H 0.61944 0.76405 0.58373 0.0
H703 H 0.60816 0.79319 0.59474 0.0
C704 C 0.57991 0.85323 0.66163 0.0
C705 C 0.564 0.84399 0.65732 0.0
C706 C 0.59522 0.85135 0.65083 0.0
C707 C 0.59476 0.84032 0.63552 0.0
C708 C 0.5793 0.8301 0.63204 0.0
C709 C 0.56409 0.83191 0.64282 0.0
C710 C 0.60923 0.84084 0.62179 0.0
C711 C 0.61654 0.82456 0.61567 0.0
C712 C 0.61413 0.85707 0.61313 0.0
C713 C 0.60619 0.87462 0.61821 0.0
C714 C 0.58759 0.87763 0.61653 0.0
C715 C 0.58019 0.89418 0.62147 0.0
C716 C 0.59129 0.90788 0.6279 0.0
C717 C 0.60982 0.90508 0.62935 0.0
C718 C 0.61729 0.88853 0.62447 0.0
C719 C 0.63176 0.83357 0.5409 0.0
C720 C 0.64662 0.84396 0.53565 0.0
C721 C 0.62754 0.83149 0.55902 0.0
C722 C 0.63799 0.83989 0.57226 0.0
C723 C 0.65323 0.84977 0.56714 0.0
C724 C 0.65767 0.85161 0.54893 0.0
C725 C 0.63137 0.84005 0.59102 0.0
C726 C 0.62545 0.85649 0.59808 0.0
C727 C 0.6275 0.82393 0.60031 0.0
C728 C 0.6342 0.80629 0.59378 0.0
C729 C 0.65249 0.80395 0.58952 0.0
C730 C 0.65874 0.7874 0.5832 0.0
C731 C 0.64683 0.77303 0.58112 0.0
C732 C 0.62866 0.77519 0.58538 0.0
C733 C 0.62233 0.79171 0.5917 0.0
H734 H 0.6517 0.76023 0.57622 0.0
H735 H 0.58553 0.92069 0.63171 0.0
H736 H 0.35289 0.16673 0.43996 0.0
H737 H 0.37129 0.16886 0.41302 0.0
H738 H 0.33973 0.12722 0.38793 0.0
H739 H 0.32125 0.12489 0.41513 0.0
H740 H 0.37397 0.1186 0.38809 0.0
H741 H 0.34174 0.16925 0.36865 0.0
H742 H 0.32595 0.1983 0.37079 0.0
H743 H 0.37526 0.22431 0.38566 0.0
H744 H 0.39132 0.19539 0.3839 0.0
H745 H 0.45 0.14723 0.32344 0.0
H746 H 0.41795 0.14932 0.33141 0.0
H747 H 0.43138 0.14185 0.38725 0.0
H748 H 0.46313 0.14 0.37962 0.0
H749 H 0.3995 0.17337 0.35983 0.0
H750 H 0.40431 0.10668 0.3997 0.0
H751 H 0.42025 0.07768 0.39759 0.0
H752 H 0.42408 0.0836 0.34032 0.0
H753 H 0.4079 0.11249 0.34204 0.0
C754 C 0.34957 0.1583 0.42856 0.0
C755 C 0.33579 0.14546 0.42973 0.0
C756 C 0.36001 0.15968 0.41306 0.0
C757 C 0.35684 0.14828 0.39838 0.0
C758 C 0.34235 0.1362 0.39908 0.0
C759 C 0.33181 0.13487 0.41462 0.0
C760 C 0.37053 0.14707 0.38393 0.0
C761 C 0.37925 0.13052 0.38155 0.0
C762 C 0.37728 0.16255 0.37513 0.0
C763 C 0.36775 0.18009 0.37614 0.0
C764 C 0.34921 0.18114 0.37247 0.0
C765 C 0.34021 0.1976 0.37361 0.0
C766 C 0.34959 0.21314 0.37835 0.0
C767 C 0.36801 0.21226 0.38195 0.0
C768 C 0.37709 0.19584 0.38084 0.0
C769 C 0.44612 0.14624 0.33743 0.0
C770 C 0.45913 0.14336 0.35088 0.0
C771 C 0.42784 0.14747 0.34193 0.0
C772 C 0.42241 0.14557 0.35987 0.0
C773 C 0.43537 0.14323 0.37331 0.0
C774 C 0.45354 0.14221 0.3689 0.0
C775 C 0.40323 0.14519 0.36499 0.0
C776 C 0.39366 0.1614 0.36575 0.0
C777 C 0.39555 0.12938 0.37218 0.0
C778 C 0.40495 0.1118 0.37102 0.0
C779 C 0.40843 0.10174 0.38664 0.0
C780 C 0.41754 0.08533 0.38551 0.0
C781 C 0.4232 0.07882 0.36884 0.0
C782 C 0.41973 0.08868 0.35324 0.0
C783 C 0.41061 0.10508 0.35428 0.0
H784 H 0.43027 0.06613 0.368 0.0
H785 H 0.34259 0.22587 0.37923 0.0
H786 H 0.87251 0.3182 0.42522 0.0
H787 H 0.87225 0.34182 0.40228 0.0
H788 H 0.82064 0.36001 0.42151 0.0
H789 H 0.82092 0.3367 0.4446 0.0
H790 H 0.84991 0.35711 0.37459 0.0
H791 H 0.82533 0.40261 0.43192 0.0
H792 H 0.82575 0.40361 0.4651 0.0
H793 H 0.87492 0.37329 0.46563 0.0
H794 H 0.87472 0.37208 0.43252 0.0
H795 H 0.83485 0.44693 0.34103 0.0
H796 H 0.83309 0.4164 0.35342 0.0
H797 H 0.87676 0.42867 0.38962 0.0
H798 H 0.87792 0.45922 0.37794 0.0
H799 H 0.85162 0.41499 0.40766 0.0
H800 H 0.88051 0.39907 0.35229 0.0
H801 H 0.88436 0.3976 0.31941 0.0
H802 H 0.83448 0.36895 0.31461 0.0
H803 H 0.83022 0.37046 0.34746 0.0
C804 C 0.86083 0.32684 0.42415 0.0
C805 C 0.84689 0.32588 0.43691 0.0
C806 C 0.86068 0.34028 0.411 0.0
C807 C 0.84657 0.3528 0.41044 0.0
C808 C 0.83173 0.35056 0.42187 0.0
C809 C 0.83193 0.33727 0.43507 0.0
C810 C 0.84877 0.36988 0.4005 0.0
C811 C 0.85022 0.36982 0.38171 0.0
C812 C 0.84968 0.38635 0.40989 0.0
C813 C 0.8499 0.38712 0.4298 0.0
C814 C 0.83621 0.39618 0.43915 0.0
C815 C 0.83639 0.39674 0.45793 0.0
C816 C 0.8503 0.38843 0.46747 0.0
C817 C 0.86408 0.3796 0.45825 0.0
C818 C 0.86391 0.37892 0.43948 0.0
C819 C 0.84417 0.44297 0.3515 0.0
C820 C 0.85637 0.45545 0.3587 0.0
C821 C 0.84324 0.42551 0.3585 0.0
C822 C 0.8548 0.4202 0.37247 0.0
C823 C 0.86756 0.43248 0.37898 0.0
C824 C 0.86822 0.44994 0.3723 0.0
C825 C 0.85279 0.4025 0.38151 0.0
C826 C 0.85126 0.4024 0.40031 0.0
C827 C 0.85243 0.38596 0.37206 0.0
C828 C 0.85496 0.38504 0.35232 0.0
C829 C 0.87029 0.39258 0.34421 0.0
C830 C 0.87256 0.39172 0.32558 0.0
C831 C 0.85965 0.38323 0.31493 0.0
C832 C 0.84446 0.37555 0.32288 0.0
C833 C 0.84212 0.37639 0.34151 0.0
H834 H 0.86143 0.38258 0.30051 0.0
H835 H 0.85041 0.38887 0.48201 0.0
H836 H 0.5207 0.82654 0.36613 0.0
H837 H 0.55059 0.82285 0.37908 0.0
H838 H 0.57227 0.85997 0.34014 0.0
H839 H 0.54228 0.86318 0.3266 0.0
H840 H 0.59708 0.83354 0.34943 0.0
H841 H 0.55957 0.87607 0.37937 0.0
H842 H 0.53182 0.8873 0.39365 0.0
H843 H 0.53574 0.84634 0.43413 0.0
H844 H 0.56338 0.83469 0.41992 0.0
H845 H 0.66568 0.86241 0.41459 0.0
H846 H 0.64293 0.85989 0.39083 0.0
H847 H 0.61585 0.81857 0.42116 0.0
H848 H 0.63838 0.82095 0.44481 0.0
H849 H 0.5953 0.84969 0.4141 0.0
H850 H 0.63412 0.80772 0.38298 0.0
H851 H 0.66236 0.79835 0.36834 0.0
H852 H 0.65709 0.84122 0.33006 0.0
H853 H 0.62893 0.85102 0.34464 0.0
C854 C 0.5319 0.83361 0.36007 0.0
C855 C 0.52918 0.84536 0.34558 0.0
C856 C 0.54897 0.83149 0.36746 0.0
C857 C 0.56353 0.8415 0.36085 0.0
C858 C 0.56117 0.85221 0.34549 0.0
C859 C 0.54406 0.85406 0.33781 0.0
C860 C 0.58039 0.84233 0.37142 0.0
C861 C 0.59678 0.83727 0.36351 0.0
C862 C 0.57998 0.84733 0.38976 0.0
C863 C 0.56347 0.85442 0.39849 0.0
C864 C 0.55445 0.86939 0.39125 0.0
C865 C 0.53875 0.87583 0.39934 0.0
C866 C 0.532 0.86752 0.41477 0.0
C867 C 0.54098 0.85276 0.42217 0.0
C868 C 0.55667 0.84624 0.41411 0.0
C869 C 0.65515 0.85245 0.41594 0.0
C870 C 0.65362 0.84209 0.43169 0.0
C871 C 0.64221 0.851 0.40235 0.0
C872 C 0.62769 0.83913 0.40435 0.0
C873 C 0.62694 0.82785 0.41943 0.0
C874 C 0.63981 0.82926 0.43294 0.0
C875 C 0.61189 0.84021 0.39236 0.0
C876 C 0.59565 0.84594 0.40001 0.0
C877 C 0.61262 0.83614 0.37381 0.0
C878 C 0.62952 0.83023 0.36504 0.0
C879 C 0.63907 0.81527 0.37156 0.0
C880 C 0.65505 0.80985 0.36324 0.0
C881 C 0.66155 0.81922 0.34832 0.0
C882 C 0.65206 0.834 0.34164 0.0
C883 C 0.63608 0.83948 0.34992 0.0
H884 H 0.67392 0.815 0.34189 0.0
H885 H 0.51984 0.87253 0.42101 0.0
H886 H 0.13578 0.67318 0.42067 0.0
H887 H 0.13757 0.65652 0.39231 0.0
H888 H 0.15817 0.61036 0.42083 0.0
H889 H 0.15707 0.62705 0.44888 0.0
H890 H 0.17343 0.61177 0.38956 0.0
H891 H 0.11195 0.61683 0.41191 0.0
H892 H 0.08484 0.63361 0.42114 0.0
H893 H 0.08203 0.6583 0.36903 0.0
H894 H 0.10927 0.64179 0.35958 0.0
H895 H 0.11066 0.5416 0.35003 0.0
H896 H 0.11573 0.56923 0.36661 0.0
H897 H 0.15939 0.58294 0.33089 0.0
H898 H 0.15467 0.55477 0.3144 0.0
H899 H 0.1144 0.6034 0.35971 0.0
H900 H 0.19125 0.60553 0.35592 0.0
H901 H 0.21707 0.58538 0.35039 0.0
H902 H 0.1869 0.54069 0.371 0.0
H903 H 0.16101 0.56062 0.37682 0.0
C904 C 0.14098 0.65958 0.42079 0.0
C905 C 0.14605 0.65133 0.43701 0.0
C906 C 0.14197 0.65008 0.4046 0.0
C907 C 0.14771 0.63208 0.40448 0.0
C908 C 0.15372 0.62422 0.42054 0.0
C909 C 0.15297 0.63377 0.43662 0.0
C910 C 0.14587 0.62066 0.38825 0.0
C911 C 0.1606 0.61014 0.38283 0.0
C912 C 0.12912 0.61843 0.37949 0.0
C913 C 0.11274 0.62829 0.38513 0.0
C914 C 0.1056 0.62593 0.40247 0.0
C915 C 0.09021 0.63537 0.40773 0.0
C916 C 0.08175 0.64706 0.3957 0.0
C917 C 0.08863 0.64928 0.37835 0.0
C918 C 0.10404 0.63989 0.37304 0.0
C919 C 0.12128 0.55051 0.34558 0.0
C920 C 0.13239 0.54592 0.33101 0.0
C921 C 0.12409 0.5664 0.35502 0.0
C922 C 0.13801 0.57813 0.35009 0.0
C923 C 0.1487 0.57398 0.33507 0.0
C924 C 0.14598 0.55792 0.32565 0.0
C925 C 0.14175 0.59396 0.36159 0.0
C926 C 0.1274 0.60542 0.36601 0.0
C927 C 0.15867 0.59659 0.36989 0.0
C928 C 0.17415 0.58451 0.36654 0.0
C929 C 0.19016 0.59141 0.35927 0.0
C930 C 0.2048 0.58003 0.35609 0.0
C931 C 0.2036 0.56175 0.36027 0.0
C932 C 0.18779 0.55483 0.3677 0.0
C933 C 0.17312 0.56616 0.37092 0.0
H934 H 0.21494 0.55297 0.35779 0.0
H935 H 0.06984 0.65436 0.39979 0.0
H936 H 0.3237 0.85517 0.57293 0.0
H937 H 0.34249 0.85129 0.59972 0.0
H938 H 0.38075 0.82081 0.56849 0.0
H939 H 0.36199 0.82431 0.54194 0.0
H940 H 0.37848 0.80762 0.60197 0.0
H941 H 0.38454 0.86669 0.57359 0.0
H942 H 0.37273 0.89594 0.56331 0.0
H943 H 0.35552 0.90818 0.61702 0.0
H944 H 0.36704 0.87887 0.62756 0.0
H945 H 0.46783 0.82993 0.61696 0.0
H946 H 0.43682 0.82465 0.60782 0.0
H947 H 0.41781 0.85149 0.65556 0.0
H948 H 0.44907 0.85666 0.66499 0.0
H949 H 0.4039 0.86537 0.62344 0.0
H950 H 0.40796 0.8088 0.65199 0.0
H951 H 0.42163 0.77989 0.66068 0.0
H952 H 0.42156 0.76292 0.60556 0.0
H953 H 0.40815 0.79183 0.59647 0.0
C954 C 0.33594 0.84734 0.5719 0.0
C955 C 0.34154 0.8403 0.55528 0.0
C956 C 0.34665 0.84514 0.5872 0.0
C957 C 0.36315 0.83599 0.58603 0.0
C958 C 0.36808 0.82792 0.56972 0.0
C959 C 0.3574 0.83005 0.5545 0.0
C960 C 0.37641 0.83646 0.60088 0.0
C961 C 0.38398 0.82022 0.6068 0.0
C962 C 0.3832 0.8529 0.6076 0.0
C963 C 0.37641 0.87054 0.6013 0.0
C964 C 0.37813 0.87559 0.58317 0.0
C965 C 0.3715 0.89217 0.5773 0.0
C966 C 0.36332 0.90389 0.58949 0.0
C967 C 0.36181 0.89907 0.60759 0.0
C968 C 0.36838 0.88248 0.61352 0.0
C969 C 0.45707 0.83445 0.62569 0.0
C970 C 0.46085 0.84381 0.64162 0.0
C971 C 0.43935 0.8313 0.62052 0.0
C972 C 0.42503 0.83755 0.6311 0.0
C973 C 0.42871 0.84644 0.64731 0.0
C974 C 0.44653 0.84936 0.65266 0.0
C975 C 0.40654 0.83655 0.62384 0.0
C976 C 0.39798 0.85271 0.61927 0.0
C977 C 0.39902 0.82004 0.61819 0.0
C978 C 0.40706 0.80255 0.62355 0.0
C979 C 0.41096 0.79896 0.6417 0.0
C980 C 0.41865 0.78256 0.6467 0.0
C981 C 0.42246 0.76958 0.63368 0.0
C982 C 0.41858 0.77298 0.61563 0.0
C983 C 0.41089 0.78937 0.61055 0.0
H984 H 0.42842 0.75689 0.63758 0.0
H985 H 0.3582 0.91672 0.58493 0.0
H986 H 0.13901 0.44225 0.6687 0.0
H987 H 0.14014 0.41102 0.65816 0.0
H988 H 0.12815 0.42885 0.60431 0.0
H989 H 0.12688 0.45981 0.61462 0.0
H990 H 0.1088 0.39935 0.61309 0.0
H991 H 0.17096 0.42015 0.61707 0.0
H992 H 0.19746 0.43177 0.63323 0.0
H993 H 0.19634 0.38609 0.66851 0.0
H994 H 0.16967 0.37432 0.65265 0.0
H995 H 0.1664 0.34649 0.55232 0.0
H996 H 0.16515 0.36628 0.57833 0.0
H997 H 0.12233 0.33434 0.60091 0.0
H998 H 0.12336 0.31448 0.57469 0.0
H999 H 0.16669 0.36615 0.61493 0.0
H1000 H 0.09034 0.36382 0.61456 0.0
H1001 H 0.06525 0.354 0.59515 0.0
H1002 H 0.0967 0.36583 0.54819 0.0
H1003 H 0.12189 0.37575 0.56733 0.0
C1004 C 0.13653 0.43948 0.65464 0.0
C1005 C 0.13294 0.45354 0.64249 0.0
C1006 C 0.13718 0.42165 0.64866 0.0
C1007 C 0.13422 0.41765 0.63046 0.0
C1008 C 0.13035 0.43163 0.61844 0.0
C1009 C 0.12976 0.44937 0.62435 0.0
C1010 C 0.13587 0.39911 0.62343 0.0
C1011 C 0.12134 0.3919 0.61382 0.0
C1012 C 0.15223 0.38941 0.62434 0.0
C1013 C 0.1682 0.3965 0.63386 0.0
C1014 C 0.17628 0.41268 0.62837 0.0
C1015 C 0.19134 0.41927 0.63745 0.0
C1016 C 0.19854 0.40971 0.65193 0.0
C1017 C 0.19072 0.39351 0.65733 0.0
C1018 C 0.17563 0.38687 0.6483 0.0
C1019 C 0.15704 0.34337 0.56304 0.0
C1020 C 0.14472 0.32918 0.5613 0.0
C1021 C 0.15642 0.35463 0.57797 0.0
C1022 C 0.14344 0.35195 0.59138 0.0
C1023 C 0.13232 0.33672 0.59058 0.0
C1024 C 0.13295 0.32539 0.57561 0.0
C1025 C 0.13979 0.36668 0.60422 0.0
C1026 C 0.15391 0.37319 0.61489 0.0
C1027 C 0.12317 0.37598 0.60399 0.0
C1028 C 0.10802 0.37032 0.59237 0.0
C1029 C 0.09186 0.36433 0.60009 0.0
C1030 C 0.07764 0.35873 0.58914 0.0
C1031 C 0.07942 0.35919 0.57045 0.0
C1032 C 0.09538 0.36535 0.56266 0.0
C1033 C 0.10963 0.37096 0.57355 0.0
H1034 H 0.06841 0.35483 0.562 0.0
H1035 H 0.21021 0.41483 0.65894 0.0
H1036 H 0.54401 0.1338 0.66415 0.0
H1037 H 0.5748 0.13592 0.6524 0.0
H1038 H 0.55403 0.15453 0.60155 0.0
H1039 H 0.52348 0.15218 0.61298 0.0
H1040 H 0.57629 0.12711 0.59695 0.0
H1041 H 0.57589 0.18256 0.63089 0.0
H1042 H 0.5729 0.201 0.65825 0.0
H1043 H 0.61619 0.17183 0.68294 0.0
H1044 H 0.61927 0.15304 0.65579 0.0
H1045 H 0.64235 0.16772 0.54772 0.0
H1046 H 0.62048 0.1687 0.57211 0.0
H1047 H 0.65068 0.12868 0.60115 0.0
H1048 H 0.67274 0.12747 0.57662 0.0
H1049 H 0.62704 0.1633 0.6207 0.0
H1050 H 0.62585 0.10684 0.58549 0.0
H1051 H 0.62889 0.09088 0.55657 0.0
H1052 H 0.58795 0.12444 0.5335 0.0
H1053 H 0.58488 0.14076 0.56223 0.0
C1054 C 0.54606 0.13857 0.65055 0.0
C1055 C 0.5313 0.14264 0.63943 0.0
C1056 C 0.56365 0.1398 0.64388 0.0
C1057 C 0.56668 0.1453 0.62607 0.0
C1058 C 0.55199 0.15009 0.61528 0.0
C1059 C 0.53451 0.14875 0.62185 0.0
C1060 C 0.58492 0.14504 0.61802 0.0
C1061 C 0.58736 0.13497 0.60227 0.0
C1062 C 0.59953 0.15498 0.6251 0.0
C1063 C 0.59765 0.16625 0.64141 0.0
C1064 C 0.58465 0.17996 0.64222 0.0
C1065 C 0.58297 0.1905 0.65767 0.0
C1066 C 0.5943 0.18754 0.67235 0.0
C1067 C 0.60739 0.17407 0.67158 0.0
C1068 C 0.60911 0.16348 0.65616 0.0
C1069 C 0.64469 0.15952 0.55953 0.0
C1070 C 0.65904 0.14725 0.56011 0.0
C1071 C 0.63224 0.16021 0.5735 0.0
C1072 C 0.63398 0.1487 0.5883 0.0
C1073 C 0.64925 0.13773 0.58983 0.0
C1074 C 0.66176 0.137 0.57578 0.0
C1075 C 0.61807 0.1456 0.5997 0.0
C1076 C 0.61604 0.15506 0.61585 0.0
C1077 C 0.60372 0.13514 0.59305 0.0
C1078 C 0.60523 0.12506 0.57593 0.0
C1079 C 0.61758 0.11087 0.57421 0.0
C1080 C 0.6193 0.10175 0.55787 0.0
C1081 C 0.60862 0.10665 0.54321 0.0
C1082 C 0.5962 0.12066 0.54487 0.0
C1083 C 0.59446 0.12982 0.56118 0.0
H1084 H 0.60995 0.09958 0.53058 0.0
H1085 H 0.59298 0.19572 0.6843 0.0
H1086 H 0.83622 0.54711 0.65851 0.0
H1087 H 0.82815 0.57793 0.6499 0.0
H1088 H 0.84851 0.56822 0.59647 0.0
H1089 H 0.85612 0.53757 0.60472 0.0
H1090 H 0.84736 0.60588 0.63883 0.0
H1091 H 0.82499 0.58806 0.56558 0.0
H1092 H 0.80883 0.56368 0.55005 0.0
H1093 H 0.78282 0.54898 0.59944 0.0
H1094 H 0.7986 0.57344 0.61522 0.0
H1095 H 0.86867 0.66932 0.57361 0.0
H1096 H 0.86274 0.64705 0.59682 0.0
H1097 H 0.80621 0.64802 0.58341 0.0
H1098 H 0.81248 0.66939 0.55923 0.0
H1099 H 0.81571 0.61676 0.58122 0.0
H1100 H 0.82372 0.65807 0.62784 0.0
H1101 H 0.83691 0.68302 0.64514 0.0
H1102 H 0.88551 0.6527 0.65244 0.0
H1103 H 0.87275 0.62766 0.63496 0.0
C1104 C 0.83885 0.55154 0.64489 0.0
C1105 C 0.84667 0.53982 0.63225 0.0
C1106 C 0.83427 0.56915 0.64003 0.0
C1107 C 0.83743 0.57527 0.62246 0.0
C1108 C 0.84551 0.56367 0.60998 0.0
C1109 C 0.84994 0.54612 0.61475 0.0
C1110 C 0.83279 0.59386 0.61694 0.0
C1111 C 0.84027 0.60839 0.62635 0.0
C1112 C 0.82281 0.59717 0.60112 0.0
C1113 C 0.81304 0.58258 0.59161 0.0
C1114 C 0.81572 0.57973 0.57311 0.0
C1115 C 0.80665 0.56586 0.56427 0.0
C1116 C 0.79482 0.55478 0.57376 0.0
C1117 C 0.79201 0.55755 0.59211 0.0
C1118 C 0.80103 0.5714 0.60102 0.0
C1119 C 0.85489 0.6653 0.57611 0.0
C1120 C 0.84102 0.67094 0.56465 0.0
C1121 C 0.85144 0.65258 0.58949 0.0
C1122 C 0.83398 0.64572 0.59196 0.0
C1123 C 0.81982 0.65292 0.5817 0.0
C1124 C 0.82337 0.66521 0.56797 0.0
C1125 C 0.83126 0.62891 0.60248 0.0
C1126 C 0.82238 0.61457 0.59399 0.0
C1127 C 0.83944 0.62597 0.61943 0.0
C1128 C 0.84726 0.64097 0.63002 0.0
C1129 C 0.83727 0.65675 0.63304 0.0
C1130 C 0.84467 0.67091 0.64289 0.0
C1131 C 0.86204 0.66945 0.64987 0.0
C1132 C 0.87205 0.65381 0.64704 0.0
C1133 C 0.86471 0.6396 0.63719 0.0
H1134 H 0.86775 0.68044 0.65749 0.0
H1135 H 0.78783 0.54404 0.56689 0.0
H1136 H 0.38635 0.44669 0.12585 0.0
H1137 H 0.39105 0.41448 0.1286 0.0
H1138 H 0.33643 0.40772 0.14694 0.0
H1139 H 0.3315 0.44027 0.14421 0.0
H1140 H 0.36138 0.38849 0.16744 0.0
H1141 H 0.34474 0.39301 0.10675 0.0
H1142 H 0.34372 0.40565 0.0762 0.0
H1143 H 0.40006 0.39474 0.06944 0.0
H1144 H 0.40147 0.38225 0.10009 0.0
H1145 H 0.41351 0.30391 0.12612 0.0
H1146 H 0.38673 0.32311 0.12672 0.0
H1147 H 0.41115 0.35562 0.16806 0.0
H1148 H 0.43746 0.33634 0.16787 0.0
H1149 H 0.38797 0.35551 0.11594 0.0
H1150 H 0.38349 0.38028 0.19097 0.0
H1151 H 0.38289 0.36677 0.22119 0.0
H1152 H 0.36506 0.31668 0.19886 0.0
H1153 H 0.36526 0.32994 0.16851 0.0
C1154 C 0.37528 0.43844 0.13048 0.0
C1155 C 0.35853 0.44608 0.13477 0.0
C1156 C 0.37797 0.41998 0.13194 0.0
C1157 C 0.364 0.40871 0.13771 0.0
C1158 C 0.34732 0.41622 0.14234 0.0
C1159 C 0.34455 0.43479 0.14075 0.0
C1160 C 0.3674 0.38916 0.13917 0.0
C1161 C 0.36696 0.38109 0.15619 0.0
C1162 C 0.3739 0.3793 0.12429 0.0
C1163 C 0.3732 0.3867 0.10576 0.0
C1164 C 0.35694 0.39339 0.09879 0.0
C1165 C 0.3563 0.40053 0.08143 0.0
C1166 C 0.37183 0.40101 0.07086 0.0
C1167 C 0.38803 0.39434 0.07763 0.0
C1168 C 0.38875 0.38718 0.09499 0.0
C1169 C 0.41285 0.31479 0.13577 0.0
C1170 C 0.42769 0.31883 0.14674 0.0
C1171 C 0.39755 0.32576 0.13609 0.0
C1172 C 0.39686 0.34084 0.14743 0.0
C1173 C 0.4111 0.34392 0.15941 0.0
C1174 C 0.4263 0.33296 0.15915 0.0
C1175 C 0.38332 0.35525 0.14455 0.0
C1176 C 0.38184 0.36247 0.12719 0.0
C1177 C 0.37477 0.36411 0.15909 0.0
C1178 C 0.37441 0.35614 0.1774 0.0
C1179 C 0.37927 0.36643 0.19249 0.0
C1180 C 0.37905 0.3588 0.20966 0.0
C1181 C 0.37395 0.34088 0.21195 0.0
C1182 C 0.36904 0.33055 0.19707 0.0
C1183 C 0.36924 0.33812 0.17987 0.0
H1184 H 0.3738 0.33499 0.22525 0.0
H1185 H 0.37133 0.40655 0.05742 0.0
H1186 H 0.44053 0.65811 0.81061 0.0
H1187 H 0.41667 0.63611 0.80556 0.0
H1188 H 0.3994 0.64234 0.86064 0.0
H1189 H 0.42249 0.66508 0.86529 0.0
H1190 H 0.41715 0.60603 0.81936 0.0
H1191 H 0.35905 0.62567 0.86913 0.0
H1192 H 0.34199 0.65278 0.87763 0.0
H1193 H 0.35522 0.67735 0.82711 0.0
H1194 H 0.37214 0.65029 0.81818 0.0
H1195 H 0.38397 0.53131 0.86121 0.0
H1196 H 0.39454 0.56145 0.85447 0.0
H1197 H 0.3452 0.5728 0.82615 0.0
H1198 H 0.33417 0.54249 0.83338 0.0
H1199 H 0.35584 0.6016 0.84529 0.0
H1200 H 0.3828 0.56346 0.80222 0.0
H1201 H 0.39867 0.53666 0.79088 0.0
H1202 H 0.44525 0.5506 0.82195 0.0
H1203 H 0.42957 0.57735 0.83368 0.0
C1204 C 0.43117 0.65522 0.8214 0.0
C1205 C 0.43336 0.66317 0.83835 0.0
C1206 C 0.41758 0.64262 0.81854 0.0
C1207 C 0.4062 0.63742 0.83271 0.0
C1208 C 0.40767 0.64629 0.84933 0.0
C1209 C 0.42098 0.65926 0.85205 0.0
C1210 C 0.39513 0.62084 0.83115 0.0
C1211 C 0.40362 0.60522 0.82477 0.0
C1212 C 0.3773 0.61968 0.83779 0.0
C1213 C 0.36696 0.63594 0.84302 0.0
C1214 C 0.35823 0.6368 0.85978 0.0
C1215 C 0.3486 0.65218 0.86469 0.0
C1216 C 0.34755 0.66679 0.85294 0.0
C1217 C 0.35609 0.66604 0.83623 0.0
C1218 C 0.36573 0.65069 0.83125 0.0
C1219 C 0.3753 0.54016 0.85355 0.0
C1220 C 0.35832 0.53442 0.84761 0.0
C1221 C 0.38139 0.55741 0.84967 0.0
C1222 C 0.37084 0.56922 0.83943 0.0
C1223 C 0.3536 0.56382 0.83396 0.0
C1224 C 0.34736 0.54652 0.83806 0.0
C1225 C 0.3783 0.58699 0.83433 0.0
C1226 C 0.36916 0.60269 0.83946 0.0
C1227 C 0.39536 0.58839 0.82603 0.0
C1228 C 0.40497 0.5724 0.81887 0.0
C1229 C 0.39639 0.56077 0.8067 0.0
C1230 C 0.40536 0.54558 0.8002 0.0
C1231 C 0.42295 0.54192 0.8057 0.0
C1232 C 0.43162 0.55346 0.81769 0.0
C1233 C 0.42272 0.56865 0.82424 0.0
H1234 H 0.42986 0.53015 0.80066 0.0
H1235 H 0.3401 0.67869 0.85677 0.0
H1236 H 0.46582 0.37699 0.85766 0.0
H1237 H 0.43454 0.3859 0.85444 0.0
H1238 H 0.42026 0.33178 0.83955 0.0
H1239 H 0.45186 0.32253 0.84288 0.0
H1240 H 0.40455 0.36073 0.81747 0.0
H1241 H 0.40803 0.3416 0.87821 0.0
H1242 H 0.42189 0.33883 0.90818 0.0
H1243 H 0.41818 0.39594 0.91545 0.0
H1244 H 0.40456 0.3991 0.88542 0.0
H1245 H 0.32338 0.41611 0.86065 0.0
H1246 H 0.3419 0.3889 0.85926 0.0
H1247 H 0.37689 0.41468 0.82082 0.0
H1248 H 0.35844 0.44168 0.82201 0.0
H1249 H 0.37539 0.38862 0.8706 0.0
H1250 H 0.39878 0.38564 0.79542 0.0
H1251 H 0.38518 0.38831 0.76535 0.0
H1252 H 0.33366 0.37377 0.78697 0.0
H1253 H 0.34697 0.37073 0.81714 0.0
C1254 C 0.45613 0.36692 0.85361 0.0
C1255 C 0.46136 0.34901 0.85061 0.0
C1256 C 0.43823 0.37205 0.85183 0.0
C1257 C 0.42513 0.35944 0.84696 0.0
C1258 C 0.43023 0.34165 0.8434 0.0
C1259 C 0.44825 0.33642 0.84534 0.0
C1260 C 0.40616 0.36528 0.84596 0.0
C1261 C 0.39793 0.36659 0.82907 0.0
C1262 C 0.39742 0.3724 0.86125 0.0
C1263 C 0.40528 0.37058 0.87952 0.0
C1264 C 0.41023 0.35358 0.88617 0.0
C1265 C 0.41805 0.35194 0.90317 0.0
C1266 C 0.42092 0.3672 0.91371 0.0
C1267 C 0.41593 0.38413 0.90728 0.0
C1268 C 0.40812 0.38585 0.89028 0.0
C1269 C 0.33474 0.41577 0.85153 0.0
C1270 C 0.33961 0.4311 0.8416 0.0
C1271 C 0.3453 0.40022 0.85076 0.0
C1272 C 0.36074 0.3997 0.83989 0.0
C1273 C 0.36488 0.4146 0.82907 0.0
C1274 C 0.3544 0.43012 0.82989 0.0
C1275 C 0.37416 0.38509 0.84187 0.0
C1276 C 0.38149 0.38221 0.85901 0.0
C1277 C 0.38194 0.37643 0.82681 0.0
C1278 C 0.3739 0.37799 0.8086 0.0
C1279 C 0.38458 0.38286 0.79376 0.0
C1280 C 0.37691 0.38448 0.77669 0.0
C1281 C 0.35856 0.38123 0.77425 0.0
C1282 C 0.34786 0.37633 0.78888 0.0
C1283 C 0.35546 0.37468 0.80598 0.0
H1284 H 0.35265 0.38251 0.76103 0.0
H1285 H 0.427 0.3659 0.92686 0.0
H1286 H 0.6107 0.46431 0.85697 0.0
H1287 H 0.60273 0.43263 0.85505 0.0
H1288 H 0.65666 0.41973 0.83804 0.0
H1289 H 0.66489 0.45161 0.83995 0.0
H1290 H 0.62956 0.4021 0.81798 0.0
H1291 H 0.64715 0.40918 0.87867 0.0
H1292 H 0.64864 0.42381 0.90834 0.0
H1293 H 0.59178 0.41645 0.91524 0.0
H1294 H 0.58988 0.40203 0.88548 0.0
H1295 H 0.57995 0.31891 0.86423 0.0
H1296 H 0.60558 0.33952 0.8624 0.0
H1297 H 0.57823 0.36976 0.82112 0.0
H1298 H 0.55288 0.3492 0.82271 0.0
H1299 H 0.60272 0.3732 0.87179 0.0
H1300 H 0.60585 0.3932 0.79559 0.0
H1301 H 0.60542 0.37802 0.76617 0.0
H1302 H 0.6238 0.32913 0.79073 0.0
H1303 H 0.62462 0.34406 0.82027 0.0
C1304 C 0.6209 0.45481 0.85273 0.0
C1305 C 0.63846 0.4605 0.84869 0.0
C1306 C 0.61633 0.43668 0.85173 0.0
C1307 C 0.62918 0.42385 0.84664 0.0
C1308 C 0.6466 0.42945 0.84208 0.0
C1309 C 0.65126 0.44765 0.84322 0.0
C1310 C 0.62411 0.40464 0.84626 0.0
C1311 C 0.62388 0.39561 0.82974 0.0
C1312 C 0.61733 0.39603 0.86178 0.0
C1313 C 0.61837 0.40456 0.87979 0.0
C1314 C 0.63494 0.41077 0.88646 0.0
C1315 C 0.63586 0.41902 0.90331 0.0
C1316 C 0.62031 0.42107 0.91366 0.0
C1317 C 0.60382 0.41484 0.90721 0.0
C1318 C 0.60282 0.4066 0.89036 0.0
C1319 C 0.57968 0.32963 0.85439 0.0
C1320 C 0.56432 0.33261 0.84378 0.0
C1321 C 0.59431 0.34141 0.85337 0.0
C1322 C 0.59387 0.35617 0.8416 0.0
C1323 C 0.57907 0.35832 0.8301 0.0
C1324 C 0.56448 0.34663 0.83114 0.0
C1325 C 0.60712 0.37097 0.84324 0.0
C1326 C 0.60887 0.3793 0.86006 0.0
C1327 C 0.6155 0.37877 0.82802 0.0
C1328 C 0.61525 0.36977 0.8102 0.0
C1329 C 0.60994 0.37925 0.79472 0.0
C1330 C 0.60959 0.37068 0.77801 0.0
C1331 C 0.61455 0.35262 0.77659 0.0
C1332 C 0.61991 0.34311 0.79186 0.0
C1333 C 0.62029 0.35161 0.8086 0.0
H1334 H 0.61426 0.34601 0.76364 0.0
H1335 H 0.62106 0.42746 0.9267 0.0
H1336 H 0.6732 0.5803 0.85362 0.0
H1337 H 0.65521 0.60773 0.85022 0.0
H1338 H 0.61845 0.57933 0.81555 0.0
H1339 H 0.6364 0.55214 0.81863 0.0
H1340 H 0.622 0.61382 0.80492 0.0
H1341 H 0.6119 0.58096 0.86108 0.0
H1342 H 0.62181 0.56824 0.89006 0.0
H1343 H 0.6387 0.62057 0.90751 0.0
H1344 H 0.6291 0.63354 0.8785 0.0
H1345 H 0.53146 0.62703 0.82297 0.0
H1346 H 0.56281 0.61845 0.81878 0.0
H1347 H 0.57974 0.66403 0.85028 0.0
H1348 H 0.54814 0.67292 0.85434 0.0
H1349 H 0.59296 0.63085 0.86249 0.0
H1350 H 0.59245 0.66381 0.80826 0.0
H1351 H 0.58062 0.67485 0.77936 0.0
H1352 H 0.58189 0.62126 0.75806 0.0
H1353 H 0.59347 0.60983 0.78691 0.0
C1354 C 0.66152 0.58005 0.84494 0.0
C1355 C 0.65601 0.564 0.83664 0.0
C1356 C 0.65126 0.59572 0.84303 0.0
C1357 C 0.63535 0.59548 0.83285 0.0
C1358 C 0.63066 0.57983 0.82347 0.0
C1359 C 0.64087 0.56424 0.82536 0.0
C1360 C 0.62223 0.61046 0.83365 0.0
C1361 C 0.61573 0.61771 0.81749 0.0
C1362 C 0.6144 0.61592 0.85012 0.0
C1363 C 0.62002 0.60816 0.86758 0.0
C1364 C 0.61784 0.58972 0.87107 0.0
C1365 C 0.62338 0.58247 0.88749 0.0
C1366 C 0.63094 0.59358 0.9006 0.0
C1367 C 0.6329 0.61197 0.89733 0.0
C1368 C 0.62741 0.61928 0.8809 0.0
C1369 C 0.54185 0.63543 0.82874 0.0
C1370 C 0.53737 0.65057 0.83907 0.0
C1371 C 0.55977 0.6306 0.82622 0.0
C1372 C 0.57359 0.6407 0.8341 0.0
C1373 C 0.56925 0.65617 0.84397 0.0
C1374 C 0.55123 0.66122 0.84626 0.0
C1375 C 0.59217 0.63355 0.83368 0.0
C1376 C 0.59968 0.62767 0.84994 0.0
C1377 C 0.60073 0.62919 0.81728 0.0
C1378 C 0.59382 0.63596 0.79981 0.0
C1379 C 0.59011 0.65435 0.79746 0.0
C1380 C 0.58346 0.66068 0.78107 0.0
C1381 C 0.5805 0.64876 0.76688 0.0
C1382 C 0.58421 0.63048 0.76905 0.0
C1383 C 0.59086 0.62407 0.78542 0.0
H1384 H 0.57535 0.65369 0.75421 0.0
H1385 H 0.63522 0.58794 0.91331 0.0
H1386 H 0.66226 0.5439 0.13991 0.0
H1387 H 0.65468 0.57548 0.14568 0.0
H1388 H 0.60025 0.56563 0.12826 0.0
H1389 H 0.60754 0.53425 0.12271 0.0
H1390 H 0.64188 0.60291 0.12454 0.0
H1391 H 0.57151 0.58595 0.15498 0.0
H1392 H 0.55773 0.56215 0.17349 0.0
H1393 H 0.60949 0.54864 0.19522 0.0
H1394 H 0.62355 0.57253 0.17706 0.0
H1395 H 0.57481 0.66668 0.10928 0.0
H1396 H 0.59832 0.6442 0.11287 0.0
H1397 H 0.59177 0.64653 0.17052 0.0
H1398 H 0.5672 0.66808 0.16672 0.0
H1399 H 0.58807 0.61513 0.16202 0.0
H1400 H 0.63385 0.65594 0.14718 0.0
H1401 H 0.64944 0.6803 0.13101 0.0
H1402 H 0.65061 0.64824 0.08308 0.0
H1403 H 0.63479 0.62377 0.09886 0.0
C1404 C 0.64868 0.54849 0.13729 0.0
C1405 C 0.63545 0.5365 0.13102 0.0
C1406 C 0.64441 0.56653 0.14054 0.0
C1407 C 0.62685 0.57279 0.13766 0.0
C1408 C 0.61382 0.56098 0.1309 0.0
C1409 C 0.61802 0.54303 0.1277 0.0
C1410 C 0.62171 0.59155 0.1419 0.0
C1411 C 0.63024 0.60574 0.13286 0.0
C1412 C 0.60704 0.59524 0.1534 0.0
C1413 C 0.5986 0.581 0.16458 0.0
C1414 C 0.57994 0.57799 0.1638 0.0
C1415 C 0.57208 0.56446 0.17421 0.0
C1416 C 0.58273 0.55387 0.1855 0.0
C1417 C 0.60126 0.55682 0.18643 0.0
C1418 C 0.60918 0.57034 0.17607 0.0
C1419 C 0.57889 0.66289 0.12273 0.0
C1420 C 0.56922 0.66898 0.13773 0.0
C1421 C 0.59245 0.65006 0.12482 0.0
C1422 C 0.59693 0.64355 0.142 0.0
C1423 C 0.58849 0.65117 0.15711 0.0
C1424 C 0.57454 0.66355 0.15497 0.0
C1425 C 0.60756 0.62669 0.14384 0.0
C1426 C 0.60003 0.61268 0.15405 0.0
C1427 C 0.62346 0.62337 0.13383 0.0
C1428 C 0.63307 0.63801 0.12423 0.0
C1429 C 0.63733 0.65411 0.13316 0.0
C1430 C 0.64623 0.66794 0.12406 0.0
C1431 C 0.65101 0.66582 0.10603 0.0
C1432 C 0.64692 0.64985 0.09706 0.0
C1433 C 0.63803 0.63598 0.10609 0.0
H1434 H 0.65788 0.67655 0.099 0.0
H1435 H 0.57661 0.54339 0.19353 0.0
H1436 H 0.37487 0.53742 0.16087 0.0
H1437 H 0.39326 0.56401 0.16548 0.0
H1438 H 0.35275 0.59678 0.13993 0.0
H1439 H 0.3343 0.56997 0.13491 0.0
H1440 H 0.38431 0.60293 0.12557 0.0
H1441 H 0.36269 0.60246 0.18506 0.0
H1442 H 0.35382 0.58988 0.2144 0.0
H1443 H 0.40838 0.57376 0.22432 0.0
H1444 H 0.41756 0.58599 0.19493 0.0
H1445 H 0.45484 0.66733 0.13459 0.0
H1446 H 0.42479 0.65517 0.14082 0.0
H1447 H 0.44879 0.60635 0.16094 0.0
H1448 H 0.47864 0.6183 0.15484 0.0
H1449 H 0.41891 0.61682 0.18082 0.0
H1450 H 0.43679 0.60933 0.11763 0.0
H1451 H 0.44569 0.62113 0.08794 0.0
H1452 H 0.39717 0.65239 0.08555 0.0
H1453 H 0.38811 0.64091 0.11536 0.0
C1454 C 0.3697 0.55031 0.15647 0.0
C1455 C 0.3532 0.55158 0.14739 0.0
C1456 C 0.38018 0.56557 0.15928 0.0
C1457 C 0.37429 0.58247 0.15327 0.0
C1458 C 0.3575 0.5839 0.14476 0.0
C1459 C 0.34699 0.56857 0.1419 0.0
C1460 C 0.38676 0.598 0.15403 0.0
C1461 C 0.39146 0.60639 0.1378 0.0
C1462 C 0.39619 0.60247 0.16993 0.0
C1463 C 0.39081 0.59514 0.18772 0.0
C1464 C 0.37279 0.59615 0.19344 0.0
C1465 C 0.36771 0.58908 0.2101 0.0
C1466 C 0.38053 0.58102 0.22121 0.0
C1467 C 0.39847 0.58003 0.2157 0.0
C1468 C 0.40363 0.58707 0.19905 0.0
C1469 C 0.45369 0.65414 0.14064 0.0
C1470 C 0.46909 0.64366 0.14399 0.0
C1471 C 0.43654 0.64723 0.14418 0.0
C1472 C 0.4346 0.62982 0.15122 0.0
C1473 C 0.44999 0.61983 0.15556 0.0
C1474 C 0.46705 0.62663 0.15191 0.0
C1475 C 0.41683 0.62097 0.15228 0.0
C1476 C 0.41121 0.61384 0.16881 0.0
C1477 C 0.40649 0.61767 0.13669 0.0
C1478 C 0.4119 0.62447 0.11878 0.0
C1479 C 0.4281 0.61882 0.11082 0.0
C1480 C 0.43316 0.62543 0.09397 0.0
C1481 C 0.42203 0.63755 0.08489 0.0
C1482 C 0.4058 0.64304 0.09262 0.0
C1483 C 0.40069 0.63649 0.10949 0.0
H1484 H 0.42597 0.64265 0.07185 0.0
H1485 H 0.37656 0.57555 0.2341 0.0
H1486 H 0.66445 0.41479 0.13535 0.0
H1487 H 0.64566 0.38832 0.14108 0.0
H1488 H 0.60533 0.4222 0.16546 0.0
H1489 H 0.62407 0.44846 0.16016 0.0
H1490 H 0.60719 0.39074 0.18265 0.0
H1491 H 0.60418 0.41138 0.12036 0.0
H1492 H 0.61736 0.41831 0.09071 0.0
H1493 H 0.63622 0.36395 0.08608 0.0
H1494 H 0.62333 0.35678 0.11582 0.0
H1495 H 0.51974 0.36838 0.15823 0.0
H1496 H 0.54989 0.37997 0.16359 0.0
H1497 H 0.57281 0.33061 0.14361 0.0
H1498 H 0.54246 0.31875 0.1383 0.0
H1499 H 0.58595 0.36131 0.12676 0.0
H1500 H 0.57949 0.33996 0.18632 0.0
H1501 H 0.56434 0.33451 0.21528 0.0
H1502 H 0.56138 0.39134 0.22479 0.0
H1503 H 0.57627 0.39716 0.19576 0.0
C1504 C 0.65172 0.41651 0.14222 0.0
C1505 C 0.64559 0.43372 0.14704 0.0
C1506 C 0.64101 0.40139 0.14547 0.0
C1507 C 0.62399 0.40333 0.15345 0.0
C1508 C 0.61842 0.42037 0.15929 0.0
C1509 C 0.6291 0.43541 0.15613 0.0
C1510 C 0.611 0.38825 0.15408 0.0
C1511 C 0.60259 0.38419 0.17047 0.0
C1512 C 0.60537 0.37934 0.13825 0.0
C1513 C 0.61303 0.38361 0.12037 0.0
C1514 C 0.61125 0.40095 0.11305 0.0
C1515 C 0.61865 0.40492 0.09624 0.0
C1516 C 0.62768 0.3916 0.08654 0.0
C1517 C 0.62927 0.37427 0.09362 0.0
C1518 C 0.62193 0.37024 0.11045 0.0
C1519 C 0.53116 0.35986 0.15521 0.0
C1520 C 0.52874 0.3427 0.14773 0.0
C1521 C 0.54839 0.36645 0.15843 0.0
C1522 C 0.56356 0.35608 0.15415 0.0
C1523 C 0.56124 0.33874 0.14713 0.0
C1524 C 0.54393 0.332 0.14412 0.0
C1525 C 0.5816 0.3644 0.15521 0.0
C1526 C 0.59095 0.36726 0.13909 0.0
C1527 C 0.5879 0.37238 0.17125 0.0
C1528 C 0.57898 0.36899 0.1888 0.0
C1529 C 0.57551 0.35131 0.19453 0.0
C1530 C 0.56698 0.34815 0.21097 0.0
C1531 C 0.56189 0.36257 0.22187 0.0
C1532 C 0.56535 0.38018 0.21634 0.0
C1533 C 0.57387 0.38341 0.19991 0.0
H1534 H 0.55528 0.3601 0.23459 0.0
H1535 H 0.63339 0.39469 0.07353 0.0
H1536 H 0.06638 0.35467 0.52473 0.0
H1537 H 0.03364 0.3546 0.52176 0.0
H1538 H 0.03619 0.30375 0.4941 0.0
H1539 H 0.0689 0.30373 0.49684 0.0
H1540 H 0.01408 0.32766 0.47713 0.0
H1541 H 0.02365 0.30521 0.53729 0.0
H1542 H 0.03637 0.3068 0.56785 0.0
H1543 H 0.0076 0.3559 0.57753 0.0
H1544 H 0.9949 0.35473 0.54692 0.0
H1545 H 0.91951 0.30185 0.50931 0.0
H1546 H 0.952 0.30345 0.51398 0.0
H1547 H 0.95397 0.35318 0.48426 0.0
H1548 H 0.92143 0.35176 0.47954 0.0
H1549 H 0.9737 0.32982 0.53024 0.0
H1550 H 0.99254 0.3508 0.45827 0.0
H1551 H 0.98049 0.34858 0.42746 0.0
H1552 H 0.95282 0.29993 0.44152 0.0
H1553 H 0.9649 0.30173 0.47232 0.0
C1554 C 0.05999 0.34345 0.51803 0.0
C1555 C 0.07026 0.32919 0.51103 0.0
C1556 C 0.04128 0.34343 0.51639 0.0
C1557 C 0.03253 0.32913 0.50778 0.0
C1558 C 0.04272 0.31492 0.50075 0.0
C1559 C 0.06141 0.3149 0.50242 0.0
C1560 C 0.01272 0.32894 0.50602 0.0
C1561 C 0.00525 0.32818 0.48873 0.0
C1562 C 0.00125 0.32952 0.52119 0.0
C1563 C 0.00845 0.32996 0.53977 0.0
C1564 C 0.0201 0.31639 0.54591 0.0
C1565 C 0.02731 0.31721 0.56324 0.0
C1566 C 0.02284 0.33147 0.57461 0.0
C1567 C 0.01107 0.34488 0.5687 0.0
C1568 C 0.00384 0.34413 0.55137 0.0
C1569 C 0.92682 0.31316 0.50378 0.0
C1570 C 0.9179 0.32662 0.49394 0.0
C1571 C 0.94536 0.3141 0.50657 0.0
C1572 C 0.95533 0.32838 0.4994 0.0
C1573 C 0.94647 0.342 0.48981 0.0
C1574 C 0.9279 0.34116 0.48714 0.0
C1575 C 0.97511 0.32861 0.50134 0.0
C1576 C 0.98255 0.32941 0.51865 0.0
C1577 C 0.98659 0.32792 0.4862 0.0
C1578 C 0.97947 0.32653 0.46764 0.0
C1579 C 0.98393 0.3396 0.45476 0.0
C1580 C 0.97709 0.33842 0.4373 0.0
C1581 C 0.96584 0.32416 0.43256 0.0
C1582 C 0.96147 0.31101 0.44524 0.0
C1583 C 0.96829 0.31212 0.4627 0.0
H1584 H 0.96055 0.32328 0.41904 0.0
H1585 H 0.02846 0.33211 0.588 0.0
H1586 H 0.68862 0.06668 0.50369 0.0
H1587 H 0.68748 0.03434 0.49852 0.0
H1588 H 0.6319 0.03347 0.51517 0.0
H1589 H 0.63297 0.06583 0.5207 0.0
H1590 H 0.64964 0.00504 0.52826 0.0
H1591 H 0.6425 0.03313 0.47127 0.0
H1592 H 0.64983 0.05382 0.44646 0.0
H1593 H 0.70006 0.02655 0.43812 0.0
H1594 H 0.6932 0.00591 0.46317 0.0
H1595 H 0.62974 0.9201 0.48812 0.0
H1596 H 0.6296 0.95251 0.49376 0.0
H1597 H 0.68709 0.95417 0.48628 0.0
H1598 H 0.68744 0.92174 0.48085 0.0
H1599 H 0.66702 0.98213 0.46806 0.0
H1600 H 0.67322 0.95447 0.52663 0.0
H1601 H 0.66429 0.93391 0.55104 0.0
H1602 H 0.61321 0.96056 0.55523 0.0
H1603 H 0.62174 0.98112 0.53063 0.0
C1604 C 0.67618 0.05962 0.50641 0.0
C1605 C 0.66083 0.06888 0.51245 0.0
C1606 C 0.67554 0.04114 0.50336 0.0
C1607 C 0.65951 0.03159 0.50614 0.0
C1608 C 0.64437 0.04063 0.51285 0.0
C1609 C 0.64501 0.05913 0.51597 0.0
C1610 C 0.65847 0.01224 0.50163 0.0
C1611 C 0.65321 6e-05 0.51503 0.0
C1612 C 0.66325 0.00575 0.48438 0.0
C1613 C 0.66741 0.01807 0.46923 0.0
C1614 C 0.65518 0.03163 0.46426 0.0
C1615 C 0.65923 0.04334 0.45013 0.0
C1616 C 0.6754 0.04151 0.44073 0.0
C1617 C 0.68754 0.02796 0.44543 0.0
C1618 C 0.68358 0.01625 0.45959 0.0
C1619 C 0.64234 0.92738 0.48755 0.0
C1620 C 0.65862 0.91837 0.48411 0.0
C1621 C 0.64223 0.94585 0.49083 0.0
C1622 C 0.65834 0.95563 0.49052 0.0
C1623 C 0.67453 0.9468 0.48657 0.0
C1624 C 0.6747 0.92829 0.48355 0.0
C1625 C 0.65841 0.97501 0.49475 0.0
C1626 C 0.66344 0.98717 0.48126 0.0
C1627 C 0.65315 0.9815 0.51182 0.0
C1628 C 0.64804 0.9692 0.52665 0.0
C1629 C 0.66002 0.95584 0.53264 0.0
C1630 C 0.65504 0.9442 0.54653 0.0
C1631 C 0.63817 0.94589 0.55465 0.0
C1632 C 0.62626 0.95925 0.54891 0.0
C1633 C 0.63116 0.9709 0.535 0.0
H1634 H 0.63434 0.93687 0.56541 0.0
H1635 H 0.67851 0.05059 0.42978 0.0
H1636 H 0.92241 0.69629 0.50943 0.0
H1637 H 0.95504 0.69536 0.50578 0.0
H1638 H 0.95491 0.63864 0.51791 0.0
H1639 H 0.92235 0.63959 0.52216 0.0
H1640 H 0.9822 0.6538 0.53373 0.0
H1641 H 0.95805 0.65491 0.47407 0.0
H1642 H 0.93968 0.66637 0.44897 0.0
H1643 H 0.96883 0.71615 0.44993 0.0
H1644 H 0.98722 0.70507 0.47522 0.0
H1645 H 0.06632 0.6307 0.49431 0.0
H1646 H 0.03404 0.63366 0.49988 0.0
H1647 H 0.03879 0.69138 0.49805 0.0
H1648 H 0.07118 0.68859 0.49266 0.0
H1649 H 0.00967 0.67665 0.47738 0.0
H1650 H 0.03473 0.67377 0.53694 0.0
H1651 H 0.05328 0.66071 0.5611 0.0
H1652 H 0.02235 0.61205 0.55898 0.0
H1653 H 0.00378 0.62473 0.5346 0.0
C1654 C 0.92933 0.68363 0.5114 0.0
C1655 C 0.91977 0.66799 0.51598 0.0
C1656 C 0.94798 0.6831 0.50922 0.0
C1657 C 0.95739 0.66686 0.51124 0.0
C1658 C 0.94793 0.65132 0.51624 0.0
C1659 C 0.92931 0.65188 0.51864 0.0
C1660 C 0.97706 0.66599 0.50795 0.0
C1661 C 0.98816 0.65862 0.52132 0.0
C1662 C 0.9849 0.67254 0.49187 0.0
C1663 C 0.97388 0.67923 0.47666 0.0
C1664 C 0.96044 0.66836 0.46902 0.0
C1665 C 0.95005 0.67477 0.45474 0.0
C1666 C 0.95305 0.692 0.44789 0.0
C1667 C 0.9665 0.70282 0.45527 0.0
C1668 C 0.97692 0.69648 0.46957 0.0
C1669 C 0.06051 0.64404 0.49504 0.0
C1670 C 0.07131 0.65943 0.49308 0.0
C1671 C 0.04209 0.64569 0.49829 0.0
C1672 C 0.03413 0.66273 0.49949 0.0
C1673 C 0.04476 0.67812 0.4972 0.0
C1674 C 0.06324 0.67649 0.49418 0.0
C1675 C 0.01466 0.66443 0.50311 0.0
C1676 C 0.00364 0.67192 0.4898 0.0
C1677 C 0.00687 0.65777 0.51911 0.0
C1678 C 0.01798 0.65014 0.53382 0.0
C1679 C 0.03198 0.66023 0.54151 0.0
C1680 C 0.04248 0.6529 0.55527 0.0
C1681 C 0.03903 0.63554 0.56154 0.0
C1682 C 0.02503 0.62549 0.55409 0.0
C1683 C 0.0145 0.63274 0.54032 0.0
H1684 H 0.04717 0.6299 0.5722 0.0
H1685 H 0.94499 0.69694 0.43683 0.0
H1686 H 0.34738 0.06141 0.46813 0.0
H1687 H 0.34311 0.02931 0.47347 0.0
H1688 H 0.29513 0.04057 0.50408 0.0
H1689 H 0.29926 0.07276 0.49881 0.0
H1690 H 0.31814 0.01723 0.52146 0.0
H1691 H 0.29042 0.02305 0.46389 0.0
H1692 H 0.28822 0.03236 0.43217 0.0
H1693 H 0.33377 -0.00062 0.41902 0.0
H1694 H 0.33641 0.99007 0.45073 0.0
H1695 H 0.29888 0.9169 0.49524 0.0
H1696 H 0.29406 0.9492 0.49162 0.0
H1697 H 0.34488 0.95972 0.51747 0.0
H1698 H 0.3498 0.9275 0.52124 0.0
H1699 H 0.31482 0.97229 0.47234 0.0
H1700 H 0.34177 -0.0009 0.5404 0.0
H1701 H 0.34285 0.98968 0.57217 0.0
H1702 H 0.2957 0.9573 0.56454 0.0
H1703 H 0.29418 0.96671 0.53281 0.0
C1704 C 0.33585 0.05708 0.4759 0.0
C1705 C 0.32366 0.06964 0.48305 0.0
C1706 C 0.3334 0.03873 0.47888 0.0
C1707 C 0.31876 0.03262 0.48908 0.0
C1708 C 0.3065 0.04507 0.49615 0.0
C1709 C 0.30886 0.06343 0.49307 0.0
C1710 C 0.31666 0.01323 0.49283 0.0
C1711 C 0.31731 0.00738 0.51075 0.0
C1712 C 0.31527 0.00047 0.47883 0.0
C1713 C 0.31368 0.00597 0.45972 0.0
C1714 C 0.30005 0.01789 0.45426 0.0
C1715 C 0.29871 0.02315 0.43628 0.0
C1716 C 0.31087 0.0165 0.42359 0.0
C1717 C 0.32437 0.00453 0.42886 0.0
C1718 C 0.32578 -0.00076 0.44684 0.0
C1719 C 0.30894 0.92608 0.50036 0.0
C1720 C 0.32476 0.91962 0.50848 0.0
C1721 C 0.30618 0.94452 0.49823 0.0
C1722 C 0.31907 0.95681 0.50434 0.0
C1723 C 0.33467 0.95044 0.51284 0.0
C1724 C 0.33749 0.93202 0.51491 0.0
C1725 C 0.3168 0.97626 0.50095 0.0
C1726 C 0.31542 0.98212 0.48308 0.0
C1727 C 0.31734 0.98902 0.51501 0.0
C1728 C 0.31795 0.98352 0.53417 0.0
C1729 C 0.33157 0.99005 0.54552 0.0
C1730 C 0.33228 0.98469 0.56352 0.0
C1731 C 0.31938 0.97286 0.57035 0.0
C1732 C 0.30572 0.96641 0.55922 0.0
C1733 C 0.30495 0.97173 0.54121 0.0
H1734 H 0.31996 0.96872 0.58429 0.0
H1735 H 0.30981 0.02059 0.40967 0.0
H1736 H 0.47987 0.92248 0.3571 0.0
H1737 H 0.48598 0.95467 0.35882 0.0
H1738 H 0.48946 0.95724 0.30098 0.0
H1739 H 0.48395 0.92496 0.29919 0.0
H1740 H 0.51606 0.97499 0.31503 0.0
H1741 H 0.45232 0.97336 0.32497 0.0
H1742 H 0.42414 0.96374 0.33959 0.0
H1743 H 0.44273 0.98476 0.38997 0.0
H1744 H 0.47113 0.99429 0.37571 0.0
H1745 H 0.50759 0.06949 0.30404 0.0
H1746 H 0.50238 0.03708 0.304 0.0
H1747 H 0.50799 0.03585 0.36166 0.0
H1748 H 0.51329 0.0683 0.36187 0.0
H1749 H 0.4774 0.01761 0.34879 0.0
H1750 H 0.54101 0.0201 0.33767 0.0
H1751 H 0.56847 0.03025 0.3221 0.0
H1752 H 0.54895 0.0081 0.27255 0.0
H1753 H 0.52124 -0.00196 0.28778 0.0
C1754 C 0.48181 0.92992 0.34474 0.0
C1755 C 0.48142 0.92118 0.32801 0.0
C1756 C 0.48524 0.94834 0.34574 0.0
C1757 C 0.48799 0.95842 0.33002 0.0
C1758 C 0.48741 0.94974 0.31329 0.0
C1759 C 0.48421 0.93129 0.31229 0.0
C1760 C 0.492 0.97791 0.33096 0.0
C1761 C 0.50746 0.98433 0.32222 0.0
C1762 C 0.48102 0.99005 0.34071 0.0
C1763 C 0.46393 0.98437 0.34931 0.0
C1764 C 0.45046 0.9758 0.3392 0.0
C1765 C 0.43444 0.97039 0.34742 0.0
C1766 C 0.43167 0.97359 0.36571 0.0
C1767 C 0.4449 0.98227 0.37581 0.0
C1768 C 0.46096 0.98769 0.36767 0.0
C1769 C 0.50782 0.06233 0.31671 0.0
C1770 C 0.51088 0.07146 0.33296 0.0
C1771 C 0.50488 0.04381 0.31665 0.0
C1772 C 0.50488 0.03412 0.33282 0.0
C1773 C 0.50796 0.04314 0.34905 0.0
C1774 C 0.51107 0.06165 0.34912 0.0
C1775 C 0.50131 0.01459 0.33273 0.0
C1776 C 0.48597 0.00821 0.34165 0.0
C1777 C 0.51227 0.00251 0.323 0.0
C1778 C 0.52898 0.00846 0.31384 0.0
C1779 C 0.54251 0.01752 0.32342 0.0
C1780 C 0.55813 0.02324 0.31466 0.0
C1781 C 0.56044 0.01986 0.29634 0.0
C1782 C 0.54714 0.01072 0.28674 0.0
C1783 C 0.53148 0.00499 0.29543 0.0
H1784 H 0.57254 0.0243 0.28958 0.0
H1785 H 0.41925 0.96939 0.37204 0.0
H1786 H 0.90918 0.50591 0.29534 0.0
H1787 H 0.94109 0.50398 0.28779 0.0
H1788 H 0.95475 0.52659 0.33937 0.0
H1789 H 0.92288 0.52885 0.34695 0.0
H1790 H 0.9761 0.53974 0.31303 0.0
H1791 H 0.95518 0.48158 0.33298 0.0
H1792 H 0.9356 0.45486 0.33227 0.0
H1793 H 0.9522 0.44385 0.27811 0.0
H1794 H 0.9717 0.47067 0.27841 0.0
H1795 H 0.06222 0.50701 0.33292 0.0
H1796 H 0.02993 0.51271 0.3322 0.0
H1797 H 0.02725 0.49179 0.27823 0.0
H1798 H 0.05977 0.48603 0.27881 0.0
H1799 H 0.00026 0.4787 0.30104 0.0
H1800 H 0.02454 0.53528 0.28315 0.0
H1801 H 0.04456 0.5616 0.28504 0.0
H1802 H 0.02208 0.57531 0.33639 0.0
H1803 H 0.00211 0.54891 0.33495 0.0
C1804 C 0.91895 0.51068 0.30501 0.0
C1805 C 0.91349 0.51734 0.32185 0.0
C1806 C 0.93718 0.50952 0.30067 0.0
C1807 C 0.95025 0.51487 0.31314 0.0
C1808 C 0.94484 0.52234 0.32958 0.0
C1809 C 0.92662 0.52356 0.33391 0.0
C1810 C 0.96957 0.51176 0.30958 0.0
C1811 C 0.98141 0.52639 0.31048 0.0
C1812 C 0.9764 0.49439 0.30583 0.0
C1813 C 0.96472 0.47825 0.30564 0.0
C1814 C 0.95454 0.47354 0.32087 0.0
C1815 C 0.94347 0.45837 0.32055 0.0
C1816 C 0.94261 0.44769 0.30513 0.0
C1817 C 0.95285 0.45215 0.29002 0.0
C1818 C 0.96391 0.46733 0.29026 0.0
C1819 C 0.05479 0.50356 0.3209 0.0
C1820 C 0.06351 0.49609 0.3059 0.0
C1821 C 0.03637 0.50693 0.32047 0.0
C1822 C 0.02632 0.50291 0.30507 0.0
C1823 C 0.03486 0.49508 0.29019 0.0
C1824 C 0.05338 0.49181 0.29055 0.0
C1825 C 0.0068 0.50662 0.30484 0.0
C1826 C 0.99493 0.49209 0.30325 0.0
C1827 C -4e-05 0.52406 0.30809 0.0
C1828 C 0.01191 0.54002 0.30899 0.0
C1829 C 0.02396 0.54382 0.29491 0.0
C1830 C 0.03529 0.55877 0.29589 0.0
C1831 C 0.03462 0.5701 0.31084 0.0
C1832 C 0.02259 0.56652 0.32482 0.0
C1833 C 0.01124 0.55158 0.32392 0.0
H1834 H 0.0434 0.58167 0.31158 0.0
H1835 H 0.93404 0.43595 0.30491 0.0
H1836 H 0.50734 0.9225 0.68765 0.0
H1837 H 0.50112 0.95469 0.68763 0.0
H1838 H 0.50323 0.95524 0.62968 0.0
H1839 H 0.51003 0.9231 0.62961 0.0
H1840 H 0.51963 0.98359 0.6423 0.0
H1841 H 0.46269 0.95588 0.65295 0.0
H1842 H 0.44097 0.93577 0.66786 0.0
H1843 H 0.44848 0.96397 0.71761 0.0
H1844 H 0.47045 0.98411 0.70304 0.0
H1845 H 0.47598 0.06834 0.6326 0.0
H1846 H 0.48112 0.03588 0.63178 0.0
H1847 H 0.48965 0.03556 0.68908 0.0
H1848 H 0.48473 0.06806 0.69006 0.0
H1849 H 0.46704 0.00727 0.67593 0.0
H1850 H 0.52478 0.03464 0.66419 0.0
H1851 H 0.54562 0.05483 0.64815 0.0
H1852 H 0.53503 0.02705 0.59873 0.0
H1853 H 0.51391 0.00685 0.61444 0.0
C1854 C 0.50654 0.92947 0.67489 0.0
C1855 C 0.50908 0.92022 0.65862 0.0
C1856 C 0.50288 0.94786 0.6749 0.0
C1857 C 0.50134 0.95732 0.65864 0.0
C1858 C 0.50428 0.94821 0.64239 0.0
C1859 C 0.50816 0.92983 0.64237 0.0
C1860 C 0.49668 0.9767 0.65863 0.0
C1861 C 0.50797 0.98871 0.64944 0.0
C1862 C 0.4816 0.98345 0.66814 0.0
C1863 C 0.46835 0.97139 0.67694 0.0
C1864 C 0.45982 0.95771 0.6671 0.0
C1865 C 0.44744 0.94632 0.67549 0.0
C1866 C 0.44338 0.94856 0.69368 0.0
C1867 C 0.45166 0.96224 0.70352 0.0
C1868 C 0.46406 0.97365 0.6952 0.0
C1869 C 0.47882 0.06137 0.64506 0.0
C1870 C 0.48007 0.07079 0.66139 0.0
C1871 C 0.4818 0.04284 0.64454 0.0
C1872 C 0.4859 0.03343 0.66034 0.0
C1873 C 0.48653 0.04265 0.67675 0.0
C1874 C 0.48377 0.06121 0.67726 0.0
C1875 C 0.49003 0.01401 0.65971 0.0
C1876 C 0.47863 0.00205 0.66876 0.0
C1877 C 0.50487 0.00729 0.64989 0.0
C1878 C 0.51762 0.01937 0.64045 0.0
C1879 C 0.52677 0.03294 0.64987 0.0
C1880 C 0.53866 0.04437 0.64085 0.0
C1881 C 0.54161 0.04226 0.62242 0.0
C1882 C 0.53271 0.02869 0.613 0.0
C1883 C 0.52079 0.01724 0.62196 0.0
H1884 H 0.55082 0.05111 0.61546 0.0
H1885 H 0.43379 0.93973 0.70015 0.0
H1886 H 0.91661 0.51426 0.68131 0.0
H1887 H 0.94827 0.52239 0.68468 0.0
H1888 H 0.9628 0.48245 0.64519 0.0
H1889 H 0.93112 0.47487 0.64118 0.0
H1890 H 0.97682 0.50675 0.69534 0.0
H1891 H -0.00221 0.49485 0.62072 0.0
H1892 H 0.98438 0.49727 0.5905 0.0
H1893 H 0.94624 0.53593 0.61014 0.0
H1894 H 0.95957 0.53393 0.6404 0.0
H1895 H 0.06985 0.49341 0.68768 0.0
H1896 H 0.0371 0.49308 0.68797 0.0
H1897 H 0.03621 0.54002 0.65381 0.0
H1898 H 0.0691 0.53977 0.6527 0.0
H1899 H 0.01422 0.51799 0.64127 0.0
H1900 H 0.02279 0.54063 0.69995 0.0
H1901 H 0.0354 0.54264 0.73051 0.0
H1902 H 0.01315 0.491 0.74347 0.0
H1903 H 0.00062 0.48856 0.7129 0.0
C1904 C 0.92658 0.50718 0.67339 0.0
C1905 C 0.9214 0.49404 0.66086 0.0
C1906 C 0.94466 0.51183 0.67534 0.0
C1907 C 0.9579 0.5033 0.66493 0.0
C1908 C 0.95279 0.4896 0.65299 0.0
C1909 C 0.9347 0.48519 0.65079 0.0
C1910 C 0.97703 0.5087 0.66645 0.0
C1911 C 0.985 0.5093 0.68353 0.0
C1912 C 0.98757 0.51268 0.6511 0.0
C1913 C 0.9796 0.51412 0.63287 0.0
C1914 C 0.9866 0.50394 0.61857 0.0
C1915 C 0.979 0.50522 0.60144 0.0
C1916 C 0.96443 0.51671 0.59841 0.0
C1917 C 0.95748 0.52699 0.61251 0.0
C1918 C 0.96504 0.52577 0.62966 0.0
C1919 C 0.06267 0.50382 0.68044 0.0
C1920 C 0.07199 0.51659 0.67013 0.0
C1921 C 0.04392 0.5037 0.68071 0.0
C1922 C 0.03411 0.51667 0.67111 0.0
C1923 C 0.04345 0.52984 0.6613 0.0
C1924 C 0.06223 0.52972 0.6607 0.0
C1925 C 0.0142 0.51553 0.67014 0.0
C1926 C 0.00605 0.5157 0.65313 0.0
C1927 C 0.00339 0.51297 0.68562 0.0
C1928 C 0.01086 0.51437 0.70407 0.0
C1929 C 0.02068 0.52965 0.70927 0.0
C1930 C 0.0278 0.53087 0.72661 0.0
C1931 C 0.0251 0.51695 0.73892 0.0
C1932 C 0.01524 0.50178 0.73392 0.0
C1933 C 0.0081 0.50048 0.7166 0.0
H1934 H 0.03063 0.51792 0.75233 0.0
H1935 H 0.95856 0.51767 0.58515 0.0
H1936 H 0.30125 0.49163 0.91652 0.0
H1937 H 0.2972 0.49533 0.94894 0.0
H1938 H 0.35171 0.47745 0.95776 0.0
H1939 H 0.35576 0.47337 0.92554 0.0
H1940 H 0.3296 0.46235 0.98123 0.0
H1941 H 0.33985 0.52244 0.95814 0.0
H1942 H 0.33328 0.54873 0.93904 0.0
H1943 H 0.28078 0.55322 0.96273 0.0
H1944 H 0.28698 0.52679 0.98182 0.0
H1945 H 0.36063 0.50076 0.061 0.0
H1946 H 0.35441 0.4963 0.02915 0.0
H1947 H 0.29754 0.50153 0.03919 0.0
H1948 H 0.30358 0.50569 0.07138 0.0
H1949 H 0.31441 0.52192 0.0071 0.0
H1950 H 0.30627 0.46351 0.03289 0.0
H1951 H 0.31384 0.43749 0.05198 0.0
H1952 H 0.36337 0.43032 0.02317 0.0
H1953 H 0.35624 0.45649 0.00407 0.0
C1954 C 0.31235 0.48841 0.92538 0.0
C1955 C 0.32886 0.48226 0.91844 0.0
C1956 C 0.31002 0.4906 0.94389 0.0
C1957 C 0.32422 0.48684 0.95573 0.0
C1958 C 0.34057 0.4804 0.94885 0.0
C1959 C 0.34287 0.47812 0.93041 0.0
C1960 C 0.32234 0.48975 0.97532 0.0
C1961 C 0.3263 0.47539 0.98686 0.0
C1962 C 0.31749 0.50663 0.98267 0.0
C1963 C 0.31379 0.52252 0.97123 0.0
C1964 C 0.32685 0.52895 0.95916 0.0
C1965 C 0.32321 0.54389 0.94836 0.0
C1966 C 0.3066 0.55261 0.94962 0.0
C1967 C 0.29363 0.54643 0.96173 0.0
C1968 C 0.2972 0.53148 0.97255 0.0
C1969 C 0.34679 0.50114 0.05648 0.0
C1970 C 0.33258 0.50351 0.06872 0.0
C1971 C 0.34328 0.49854 0.03829 0.0
C1972 C 0.32554 0.4985 0.03195 0.0
C1973 C 0.31131 0.50151 0.04394 0.0
C1974 C 0.31479 0.50383 0.06227 0.0
C1975 C 0.32219 0.49465 0.01282 0.0
C1976 C 0.31729 0.50881 0.00141 0.0
C1977 C 0.32627 0.47762 0.00553 0.0
C1978 C 0.33077 0.46204 0.01714 0.0
C1979 C 0.31887 0.45651 0.03076 0.0
C1980 C 0.32306 0.44171 0.04155 0.0
C1981 C 0.33907 0.43228 0.03878 0.0
C1982 C 0.35097 0.43765 0.02528 0.0
C1983 C 0.34685 0.45245 0.01445 0.0
H1984 H 0.3422 0.42074 0.04703 0.0
H1985 H 0.30381 0.56417 0.94125 0.0
H1986 H 0.49217 0.30119 0.91852 0.0
H1987 H 0.48494 0.2999 0.95048 0.0
H1988 H 0.52275 0.34265 0.96077 0.0
H1989 H 0.52951 0.3445 0.92869 0.0
H1990 H 0.50174 0.29242 0.97928 0.0
H1991 H 0.5089 0.36892 0.99437 0.0
H1992 H 0.50458 0.39786 0.97874 0.0
H1993 H 0.46708 0.37311 0.94256 0.0
H1994 H 0.47101 0.3441 0.9581 0.0
H1995 H 0.50612 0.30371 0.07276 0.0
H1996 H 0.51121 0.30411 0.04038 0.0
H1997 H 0.46297 0.33566 0.03317 0.0
H1998 H 0.45847 0.33619 0.06575 0.0
H1999 H 0.48617 0.34817 0.01235 0.0
H2000 H 0.46594 0.28864 0.02313 0.0
H2001 H 0.46486 0.25882 0.03755 0.0
H2002 H 0.5188 0.248 0.01995 0.0
H2003 H 0.52029 0.27787 0.00561 0.0
C2004 C 0.49903 0.31026 0.9276 0.0
C2005 C 0.51132 0.32304 0.92107 0.0
C2006 C 0.49488 0.30949 0.94588 0.0
C2007 C 0.50306 0.32138 0.95801 0.0
C2008 C 0.51591 0.33365 0.95161 0.0
C2009 C 0.51986 0.33462 0.93329 0.0
C2010 C 0.49799 0.32106 0.9773 0.0
C2011 C 0.49831 0.3046 0.98651 0.0
C2012 C 0.49294 0.33685 0.98663 0.0
C2013 C 0.4904 0.3543 0.9773 0.0
C2014 C 0.49969 0.36968 0.98312 0.0
C2015 C 0.49732 0.38609 0.97426 0.0
C2016 C 0.48561 0.38731 0.95963 0.0
C2017 C 0.4762 0.37214 0.95385 0.0
C2018 C 0.47852 0.3557 0.96266 0.0
C2019 C 0.49657 0.31067 0.06424 0.0
C2020 C 0.48185 0.31985 0.07172 0.0
C2021 C 0.49943 0.31081 0.04572 0.0
C2022 C 0.48728 0.31959 0.03422 0.0
C2023 C 0.47254 0.32877 0.04171 0.0
C2024 C 0.46994 0.32903 0.06031 0.0
C2025 C 0.4902 0.31954 0.01446 0.0
C2026 C 0.48952 0.33595 0.00514 0.0
C2027 C 0.49411 0.30356 0.00486 0.0
C2028 C 0.49327 0.28556 0.01342 0.0
C2029 C 0.47761 0.27995 0.02243 0.0
C2030 C 0.47692 0.26303 0.03058 0.0
C2031 C 0.49177 0.25154 0.0297 0.0
C2032 C 0.50732 0.25693 0.02063 0.0
C2033 C 0.50809 0.27384 0.01248 0.0
H2034 H 0.49121 0.23845 0.03602 0.0
H2035 H 0.4838 0.40003 0.95279 0.0
H2036 H 0.65007 0.53652 0.92308 0.0
H2037 H 0.65288 0.53155 0.95544 0.0
H2038 H 0.68673 0.48543 0.9454 0.0
H2039 H 0.68479 0.49101 0.91318 0.0
H2040 H 0.64152 0.50634 0.97448 0.0
H2041 H 0.71344 0.47562 0.98003 0.0
H2042 H 0.74328 0.47924 0.96596 0.0
H2043 H 0.72992 0.53336 0.95096 0.0
H2044 H 0.70011 0.53014 0.96514 0.0
H2045 H 0.64512 0.46117 0.05639 0.0
H2046 H 0.64875 0.46744 0.02435 0.0
H2047 H 0.68893 0.50744 0.03661 0.0
H2048 H 0.68598 0.50061 0.06855 0.0
H2049 H 0.69786 0.49199 0.00718 0.0
H2050 H 0.64382 0.51867 0.02921 0.0
H2051 H 0.6144 0.51964 0.04452 0.0
H2052 H 0.59292 0.48221 0.00627 0.0
H2053 H 0.6223 0.48084 0.99086 0.0
C2054 C 0.65835 0.52552 0.92784 0.0
C2055 C 0.66727 0.51419 0.91567 0.0
C2056 C 0.65992 0.52265 0.94631 0.0
C2057 C 0.67014 0.50819 0.95293 0.0
C2058 C 0.67916 0.49695 0.94072 0.0
C2059 C 0.67796 0.5001 0.92228 0.0
C2060 C 0.67038 0.50415 0.97247 0.0
C2061 C 0.65388 0.5033 0.98161 0.0
C2062 C 0.68649 0.50044 0.98193 0.0
C2063 C 0.70448 0.50257 0.97351 0.0
C2064 C 0.7169 0.48832 0.9738 0.0
C2065 C 0.7338 0.49029 0.96579 0.0
C2066 C 0.73847 0.5065 0.95753 0.0
C2067 C 0.72627 0.52079 0.95731 0.0
C2068 C 0.70936 0.51889 0.96531 0.0
C2069 C 0.65493 0.47108 0.05221 0.0
C2070 C 0.66513 0.48053 0.06495 0.0
C2071 C 0.65693 0.47473 0.03392 0.0
C2072 C 0.66876 0.48826 0.02811 0.0
C2073 C 0.67965 0.49701 0.04076 0.0
C2074 C 0.67794 0.4931 0.05903 0.0
C2075 C 0.66901 0.49402 0.00903 0.0
C2076 C 0.68556 0.49513 0.0 0.0
C2077 C 0.65302 0.49869 -0.00017 0.0
C2078 C 0.6353 0.49953 0.00899 0.0
C2079 C 0.63285 0.51056 0.02414 0.0
C2080 C 0.61619 0.51119 0.03282 0.0
C2081 C 0.60182 0.50096 0.0264 0.0
C2082 C 0.60407 0.49011 0.01124 0.0
C2083 C 0.62072 0.48941 0.00252 0.0
H2084 H 0.58892 0.50147 0.03314 0.0
H2085 H 0.75156 0.508 0.95133 0.0
H2086 H 0.48544 0.63489 0.91616 0.0
H2087 H 0.49043 0.63393 0.9486 0.0
H2088 H 0.49261 0.69186 0.95002 0.0
H2089 H 0.48816 0.69292 0.91757 0.0
H2090 H 0.51897 0.67866 0.96886 0.0
H2091 H 0.45551 0.66759 0.96538 0.0
H2092 H 0.42792 0.65225 0.95529 0.0
H2093 H 0.44668 0.60277 0.97835 0.0
H2094 H 0.4745 0.61776 0.98838 0.0
H2095 H 0.50724 0.69289 0.06224 0.0
H2096 H 0.50196 0.69138 0.02988 0.0
H2097 H 0.51057 0.63408 0.03097 0.0
H2098 H 0.51603 0.63544 0.06341 0.0
H2099 H 0.47943 0.6455 0.01116 0.0
H2100 H 0.54274 0.65786 0.01543 0.0
H2101 H 0.56947 0.67427 0.02611 0.0
H2102 H 0.54967 0.72279 0.0019 0.0
H2103 H 0.52268 0.70672 0.9913 0.0
C2104 C 0.48687 0.64743 0.9234 0.0
C2105 C 0.48642 0.66399 0.91428 0.0
C2106 C 0.48966 0.64686 0.94196 0.0
C2107 C 0.49173 0.66284 0.95178 0.0
C2108 C 0.49109 0.67937 0.94272 0.0
C2109 C 0.4885 0.67994 0.92416 0.0
C2110 C 0.49511 0.66239 0.97142 0.0
C2111 C 0.51017 0.67158 0.9781 0.0
C2112 C 0.4839 0.6528 0.98347 0.0
C2113 C 0.46718 0.64375 0.97746 0.0
C2114 C 0.45382 0.6534 0.96817 0.0
C2115 C 0.43813 0.64478 0.96248 0.0
C2116 C 0.43557 0.62654 0.96613 0.0
C2117 C 0.44869 0.61689 0.97551 0.0
C2118 C 0.46442 0.62545 0.98121 0.0
C2119 C 0.50801 0.67995 0.05563 0.0
C2120 C 0.51213 0.66429 0.06538 0.0
C2121 C 0.50502 0.67913 0.03714 0.0
C2122 C 0.50597 0.66263 0.02809 0.0
C2123 C 0.5098 0.64692 0.03777 0.0
C2124 C 0.513 0.64775 0.05626 0.0
C2125 C 0.5031 0.66192 0.00846 0.0
C2126 C 0.4882 0.6525 0.00183 0.0
C2127 C 0.51433 0.67145 -0.00354 0.0
C2128 C 0.53061 0.68112 0.00271 0.0
C2129 C 0.54401 0.67206 0.01251 0.0
C2130 C 0.55922 0.6813 0.01853 0.0
C2131 C 0.56125 0.69957 0.01473 0.0
C2132 C 0.54808 0.70864 0.00486 0.0
C2133 C 0.53283 0.69947 -0.00118 0.0
H2134 H 0.57303 0.7067 0.0194 0.0
H2135 H 0.42341 0.61988 0.96172 0.0
H2136 H 0.17783 0.2722 0.48088 0.0
H2137 H 0.19373 0.24413 0.47606 0.0
H2138 H 0.14884 0.21462 0.49801 0.0
H2139 H 0.13279 0.24302 0.50321 0.0
H2140 H 0.17938 0.20428 0.51328 0.0
H2141 H 0.15987 0.20928 0.45359 0.0
H2142 H 0.1526 0.2236 0.42462 0.0
H2143 H 0.20834 0.23631 0.41653 0.0
H2144 H 0.21594 0.22232 0.44557 0.0
H2145 H 0.24658 0.13415 0.49175 0.0
H2146 H 0.21742 0.1498 0.49123 0.0
H2147 H 0.2448 0.20042 0.48456 0.0
H2148 H 0.27379 0.1851 0.48545 0.0
H2149 H 0.2152 0.19129 0.45853 0.0
H2150 H 0.23097 0.19314 0.52299 0.0
H2151 H 0.23749 0.17837 0.55195 0.0
H2152 H 0.18675 0.15093 0.54971 0.0
H2153 H 0.18006 0.16539 0.52059 0.0
C2154 C 0.17118 0.25976 0.48445 0.0
C2155 C 0.1541 0.25982 0.4925 0.0
C2156 C 0.18023 0.24366 0.48153 0.0
C2157 C 0.17237 0.22723 0.48643 0.0
C2158 C 0.15508 0.22716 0.49402 0.0
C2159 C 0.14594 0.24336 0.49694 0.0
C2160 C 0.18328 0.21062 0.48524 0.0
C2161 C 0.18679 0.20105 0.50113 0.0
C2162 C 0.19289 0.20629 0.46939 0.0
C2163 C 0.18847 0.21473 0.45182 0.0
C2164 C 0.17058 0.21521 0.44569 0.0
C2165 C 0.16639 0.22327 0.42924 0.0
C2166 C 0.17999 0.23086 0.41874 0.0
C2167 C 0.19781 0.2304 0.42467 0.0
C2168 C 0.20207 0.22236 0.44111 0.0
C2169 C 0.24633 0.14863 0.49032 0.0
C2170 C 0.26243 0.15843 0.48864 0.0
C2171 C 0.22972 0.1575 0.49 0.0
C2172 C 0.22908 0.17618 0.48771 0.0
C2173 C 0.24511 0.18596 0.48621 0.0
C2174 C 0.26164 0.17719 0.48684 0.0
C2175 C 0.21186 0.18593 0.48673 0.0
C2176 C 0.20722 0.1941 0.47041 0.0
C2177 C 0.20107 0.18877 0.50207 0.0
C2178 C 0.20514 0.18012 0.51952 0.0
C2179 C 0.2213 0.18381 0.52859 0.0
C2180 C 0.22501 0.17553 0.54505 0.0
C2181 C 0.21257 0.16366 0.55263 0.0
C2182 C 0.19639 0.16009 0.54379 0.0
C2183 C 0.19263 0.16832 0.52732 0.0
H2184 H 0.21546 0.15728 0.56538 0.0
H2185 H 0.17673 0.2371 0.40601 0.0
H2186 H 0.74886 0.12468 0.50976 0.0
H2187 H 0.77892 0.13797 0.50699 0.0
H2188 H 0.75586 0.18438 0.4809 0.0
H2189 H 0.72604 0.17119 0.48338 0.0
H2190 H 0.78813 0.17622 0.46645 0.0
H2191 H 0.76149 0.18301 0.52675 0.0
H2192 H 0.74957 0.17081 0.55521 0.0
H2193 H 0.79923 0.1427 0.56422 0.0
H2194 H 0.81135 0.15462 0.5357 0.0
H2195 H 0.81841 0.25721 0.51459 0.0
H2196 H 0.80443 0.22767 0.51539 0.0
H2197 H 0.84743 0.20619 0.48286 0.0
H2198 H 0.86161 0.23598 0.48199 0.0
H2199 H 0.81344 0.19347 0.52566 0.0
H2200 H 0.82573 0.17837 0.45206 0.0
H2201 H 0.83475 0.19358 0.42395 0.0
H2202 H 0.81002 0.24246 0.44217 0.0
H2203 H 0.8007 0.22746 0.47026 0.0
C2204 C 0.75028 0.13756 0.50312 0.0
C2205 C 0.73509 0.14703 0.49702 0.0
C2206 C 0.76745 0.1451 0.50154 0.0
C2207 C 0.76958 0.16222 0.49389 0.0
C2208 C 0.75454 0.17112 0.48679 0.0
C2209 C 0.73746 0.16363 0.48836 0.0
C2210 C 0.78681 0.1721 0.49508 0.0
C2211 C 0.794 0.17962 0.47935 0.0
C2212 C 0.79446 0.17655 0.51191 0.0
C2213 C 0.78722 0.16949 0.52904 0.0
C2214 C 0.76981 0.17414 0.53477 0.0
C2215 C 0.76302 0.16729 0.5509 0.0
C2216 C 0.77361 0.15594 0.56149 0.0
C2217 C 0.79103 0.15145 0.55599 0.0
C2218 C 0.79786 0.15825 0.53984 0.0
C2219 C 0.82508 0.24615 0.50786 0.0
C2220 C 0.84096 0.24893 0.49803 0.0
C2221 C 0.81716 0.22923 0.50845 0.0
C2222 C 0.82485 0.21479 0.4991 0.0
C2223 C 0.84128 0.21721 0.49012 0.0
C2224 C 0.84934 0.2342 0.48964 0.0
C2225 C 0.81422 0.19813 0.4971 0.0
C2226 C 0.80827 0.18932 0.51267 0.0
C2227 C 0.80744 0.19278 0.48017 0.0
C2228 C 0.81277 0.20187 0.4633 0.0
C2229 C 0.82222 0.19235 0.45003 0.0
C2230 C 0.82737 0.20093 0.43411 0.0
C2231 C 0.82303 0.219 0.43131 0.0
C2232 C 0.81344 0.2285 0.44438 0.0
C2233 C 0.80823 0.21997 0.4603 0.0
H2234 H 0.82704 0.22562 0.41899 0.0
H2235 H 0.76834 0.15065 0.57397 0.0
H2236 H 0.81874 0.72985 0.47991 0.0
H2237 H 0.80489 0.75913 0.47523 0.0
H2238 H 0.8473 0.78429 0.50571 0.0
H2239 H 0.8613 0.75481 0.51053 0.0
H2240 H 0.81499 0.79324 0.51839 0.0
H2241 H 0.84273 0.79527 0.46182 0.0
H2242 H 0.85352 0.78434 0.43247 0.0
H2243 H 0.79907 0.77572 0.41538 0.0
H2244 H 0.78793 0.78633 0.44471 0.0
H2245 H 0.74705 0.86103 0.47211 0.0
H2246 H 0.77744 0.8482 0.47411 0.0
H2247 H 0.75684 0.80473 0.50651 0.0
H2248 H 0.72669 0.81735 0.50459 0.0
H2249 H 0.78792 0.81542 0.46163 0.0
H2250 H 0.78657 0.79177 0.53663 0.0
H2251 H 0.77642 0.80348 0.5659 0.0
H2252 H 0.78042 0.8575 0.54603 0.0
H2253 H 0.79086 0.84616 0.51671 0.0
C2254 C 0.82533 0.74164 0.48534 0.0
C2255 C 0.841 0.74004 0.49572 0.0
C2256 C 0.81748 0.75841 0.48251 0.0
C2257 C 0.82516 0.77392 0.48998 0.0
C2258 C 0.84124 0.77248 0.49974 0.0
C2259 C 0.8492 0.75566 0.50248 0.0
C2260 C 0.81489 0.79097 0.48953 0.0
C2261 C 0.80932 0.79834 0.50596 0.0
C2262 C 0.80793 0.79798 0.47328 0.0
C2263 C 0.81449 0.79161 0.45552 0.0
C2264 C 0.83305 0.79095 0.45185 0.0
C2265 C 0.83923 0.78482 0.4352 0.0
C2266 C 0.82699 0.77934 0.42207 0.0
C2267 C 0.80853 0.78 0.42556 0.0
C2268 C 0.80228 0.78612 0.44219 0.0
C2269 C 0.7491 0.84887 0.47986 0.0
C2270 C 0.73451 0.84013 0.48814 0.0
C2271 C 0.76642 0.84158 0.48097 0.0
C2272 C 0.7694 0.82565 0.49063 0.0
C2273 C 0.7549 0.81722 0.49927 0.0
C2274 C 0.73764 0.82437 0.49804 0.0
C2275 C 0.78715 0.81666 0.49052 0.0
C2276 C 0.79408 0.81079 0.474 0.0
C2277 C 0.79551 0.81117 0.50668 0.0
C2278 C 0.78949 0.81809 0.52442 0.0
C2279 C 0.78544 0.80616 0.53853 0.0
C2280 C 0.77959 0.81273 0.55513 0.0
C2281 C 0.77776 0.83122 0.55782 0.0
C2282 C 0.78181 0.84318 0.54392 0.0
C2283 C 0.78767 0.83668 0.52729 0.0
H2284 H 0.77322 0.83628 0.57068 0.0
H2285 H 0.8318 0.77459 0.40919 0.0
H2286 H 0.13694 0.74155 0.49171 0.0
H2287 H 0.15377 0.76978 0.49455 0.0
H2288 H 0.20113 0.73991 0.50986 0.0
H2289 H 0.18448 0.71194 0.50742 0.0
H2290 H 0.19801 0.7692 0.52981 0.0
H2291 H 0.1935 0.75396 0.46607 0.0
H2292 H 0.1768 0.74805 0.43805 0.0
H2293 H 0.15241 0.80029 0.44118 0.0
H2294 H 0.16883 0.8064 0.46935 0.0
H2295 H 0.27762 0.80351 0.49587 0.0
H2296 H 0.24921 0.78719 0.49692 0.0
H2297 H 0.22019 0.83713 0.50174 0.0
H2298 H 0.24876 0.85374 0.50104 0.0
H2299 H 0.20754 0.80538 0.47456 0.0
H2300 H 0.2186 0.82178 0.53625 0.0
H2301 H 0.238 0.8262 0.56275 0.0
H2302 H 0.252 0.77021 0.56229 0.0
H2303 H 0.23291 0.76552 0.53561 0.0
C2304 C 0.15089 0.74107 0.49588 0.0
C2305 C 0.15944 0.72454 0.49922 0.0
C2306 C 0.16047 0.75718 0.49745 0.0
C2307 C 0.17873 0.75691 0.50227 0.0
C2308 C 0.18704 0.74045 0.50619 0.0
C2309 C 0.17751 0.72444 0.50469 0.0
C2310 C 0.18978 0.77345 0.50237 0.0
C2311 C 0.19992 0.77725 0.51779 0.0
C2312 C 0.192 0.78421 0.48681 0.0
C2313 C 0.18218 0.78054 0.46991 0.0
C2314 C 0.18446 0.76412 0.46084 0.0
C2315 C 0.17508 0.76075 0.44493 0.0
C2316 C 0.1635 0.77376 0.43788 0.0
C2317 C 0.16134 0.7902 0.44669 0.0
C2318 C 0.17068 0.79363 0.46262 0.0
C2319 C 0.26522 0.81109 0.49695 0.0
C2320 C 0.26541 0.8299 0.49848 0.0
C2321 C 0.24903 0.80174 0.49755 0.0
C2322 C 0.23274 0.81102 0.4995 0.0
C2323 C 0.23271 0.82982 0.50024 0.0
C2324 C 0.249 0.83923 0.49988 0.0
C2325 C 0.21607 0.80058 0.50177 0.0
C2326 C 0.20501 0.79785 0.4868 0.0
C2327 C 0.21311 0.79064 0.51766 0.0
C2328 C 0.2244 0.79333 0.53387 0.0
C2329 C 0.22593 0.81044 0.54172 0.0
C2330 C 0.23685 0.81299 0.55679 0.0
C2331 C 0.24625 0.7985 0.56418 0.0
C2332 C 0.24471 0.78142 0.55655 0.0
C2333 C 0.23382 0.7788 0.54147 0.0
H2334 H 0.2547 0.80051 0.57584 0.0
H2335 H 0.15624 0.77113 0.42555 0.0
H2336 H 0.48525 0.17256 0.26654 0.0
H2337 H 0.48246 0.18448 0.23618 0.0
H2338 H 0.51246 0.13937 0.21544 0.0
H2339 H 0.51529 0.12725 0.24598 0.0
H2340 H 0.52618 0.17128 0.2044 0.0
H2341 H 0.46963 0.14319 0.20296 0.0
H2342 H 0.43995 0.13338 0.21399 0.0
H2343 H 0.42265 0.18833 0.21743 0.0
H2344 H 0.45231 0.19851 0.20669 0.0
H2345 H 0.47969 0.23337 0.13097 0.0
H2346 H 0.48315 0.20381 0.14521 0.0
H2347 H 0.51443 0.22797 0.1876 0.0
H2348 H 0.51102 0.25734 0.17356 0.0
H2349 H 0.47001 0.19584 0.17809 0.0
H2350 H 0.54436 0.1996 0.20388 0.0
H2351 H 0.57398 0.20883 0.19223 0.0
H2352 H 0.55572 0.20046 0.13816 0.0
H2353 H 0.52607 0.1909 0.14947 0.0
C2354 C 0.49103 0.16502 0.25551 0.0
C2355 C 0.50057 0.14904 0.25863 0.0
C2356 C 0.4893 0.17176 0.23814 0.0
C2357 C 0.4971 0.1627 0.22355 0.0
C2358 C 0.50624 0.14647 0.22653 0.0
C2359 C 0.50784 0.1396 0.24395 0.0
C2360 C 0.49725 0.17143 0.2057 0.0
C2361 C 0.51392 0.17641 0.1984 0.0
C2362 C 0.4812 0.1776 0.19758 0.0
C2363 C 0.46325 0.17161 0.20401 0.0
C2364 C 0.45954 0.15319 0.20616 0.0
C2365 C 0.4427 0.14757 0.21235 0.0
C2366 C 0.42942 0.16022 0.2164 0.0
C2367 C 0.43294 0.17854 0.21425 0.0
C2368 C 0.44976 0.18424 0.20807 0.0
C2369 C 0.48762 0.23226 0.14312 0.0
C2370 C 0.49497 0.24764 0.15126 0.0
C2371 C 0.48957 0.21541 0.15122 0.0
C2372 C 0.49917 0.21369 0.16735 0.0
C2373 C 0.50724 0.22893 0.17498 0.0
C2374 C 0.50515 0.24574 0.16703 0.0
C2375 C 0.49897 0.19671 0.17768 0.0
C2376 C 0.48228 0.1902 0.18361 0.0
C2377 C 0.515 0.18902 0.18442 0.0
C2378 C 0.53294 0.19454 0.17755 0.0
C2379 C 0.54669 0.19957 0.18951 0.0
C2380 C 0.56349 0.20491 0.18296 0.0
C2381 C 0.56673 0.20524 0.16447 0.0
C2382 C 0.55318 0.20023 0.15249 0.0
C2383 C 0.53637 0.19487 0.15896 0.0
H2384 H 0.57974 0.20939 0.15943 0.0
H2385 H 0.4164 0.15584 0.2212 0.0
H2386 H 0.83947 0.51392 0.25377 0.0
H2387 H 0.82047 0.51231 0.22704 0.0
H2388 H 0.78687 0.47295 0.25327 0.0
H2389 H 0.80542 0.47501 0.28029 0.0
H2390 H 0.80908 0.48862 0.2032 0.0
H2391 H 0.74373 0.48188 0.24528 0.0
H2392 H 0.73259 0.48963 0.27555 0.0
H2393 H 0.77102 0.53254 0.27895 0.0
H2394 H 0.78221 0.5252 0.24862 0.0
H2395 H 0.73368 0.4671 0.14828 0.0
H2396 H 0.75892 0.46942 0.16917 0.0
H2397 H 0.73847 0.52038 0.18804 0.0
H2398 H 0.71271 0.51755 0.16791 0.0
H2399 H 0.74457 0.50111 0.21486 0.0
H2400 H 0.77911 0.51549 0.16295 0.0
H2401 H 0.79099 0.51197 0.13221 0.0
H2402 H 0.81522 0.4617 0.14699 0.0
H2403 H 0.80328 0.4648 0.17776 0.0
C2404 C 0.82818 0.50473 0.25374 0.0
C2405 C 0.82371 0.49482 0.26919 0.0
C2406 C 0.81739 0.50378 0.23843 0.0
C2407 C 0.80207 0.4928 0.23832 0.0
C2408 C 0.79842 0.48182 0.25325 0.0
C2409 C 0.80903 0.48298 0.26865 0.0
C2410 C 0.78902 0.49405 0.22337 0.0
C2411 C 0.79496 0.49133 0.20567 0.0
C2412 C 0.77073 0.49819 0.2266 0.0
C2413 C 0.76392 0.50286 0.24476 0.0
C2414 C 0.74975 0.49301 0.25247 0.0
C2415 C 0.74343 0.49732 0.26963 0.0
C2416 C 0.75113 0.51153 0.27919 0.0
C2417 C 0.76511 0.5215 0.27156 0.0
C2418 C 0.77145 0.51726 0.25439 0.0
C2419 C 0.73479 0.47893 0.15668 0.0
C2420 C 0.72123 0.49207 0.15666 0.0
C2421 C 0.74927 0.48031 0.16855 0.0
C2422 C 0.75066 0.49512 0.18017 0.0
C2423 C 0.73762 0.50876 0.17932 0.0
C2424 C 0.72294 0.50717 0.1678 0.0
C2425 C 0.76449 0.4955 0.19451 0.0
C2426 C 0.75868 0.49847 0.21221 0.0
C2427 C 0.78295 0.49224 0.19113 0.0
C2428 C 0.79016 0.49031 0.17263 0.0
C2429 C 0.78685 0.50362 0.15961 0.0
C2430 C 0.79362 0.50171 0.14218 0.0
C2431 C 0.80382 0.4866 0.13764 0.0
C2432 C 0.8073 0.47339 0.15052 0.0
C2433 C 0.80056 0.47522 0.16797 0.0
H2434 H 0.80905 0.48515 0.12414 0.0
H2435 H 0.74624 0.51483 0.29248 0.0
H2436 H 0.47545 0.72831 0.15762 0.0
H2437 H 0.46998 0.75582 0.1746 0.0
H2438 H 0.5179 0.77938 0.15176 0.0
H2439 H 0.5228 0.75214 0.13397 0.0
H2440 H 0.49026 0.76511 0.19979 0.0
H2441 H 0.51821 0.82489 0.15741 0.0
H2442 H 0.51819 0.83523 0.12591 0.0
H2443 H 0.46999 0.80517 0.11578 0.0
H2444 H 0.46956 0.79485 0.14726 0.0
H2445 H 0.51662 0.82824 0.26023 0.0
H2446 H 0.51889 0.81142 0.23216 0.0
H2447 H 0.47254 0.83953 0.21145 0.0
H2448 H 0.47068 0.857 0.23933 0.0
H2449 H 0.49595 0.8297 0.18419 0.0
H2450 H 0.46558 0.80203 0.23384 0.0
H2451 H 0.46222 0.79213 0.2653 0.0
H2452 H 0.50835 0.75783 0.25974 0.0
H2453 H 0.51216 0.76775 0.22831 0.0
C2454 C 0.48451 0.73958 0.15586 0.0
C2455 C 0.49963 0.73813 0.14468 0.0
C2456 C 0.48139 0.75528 0.16555 0.0
C2457 C 0.49359 0.76965 0.1646 0.0
C2458 C 0.50814 0.76862 0.15256 0.0
C2459 C 0.511 0.75302 0.14247 0.0
C2460 C 0.49258 0.78426 0.17811 0.0
C2461 C 0.49135 0.77921 0.19624 0.0
C2462 C 0.49389 0.80272 0.17362 0.0
C2463 C 0.49396 0.80897 0.15467 0.0
C2464 C 0.50756 0.82055 0.14848 0.0
C2465 C 0.50764 0.82639 0.13063 0.0
C2466 C 0.49413 0.82082 0.11884 0.0
C2467 C 0.48049 0.80942 0.1249 0.0
C2468 C 0.48034 0.80354 0.14274 0.0
C2469 C 0.50725 0.8312 0.24948 0.0
C2470 C 0.49328 0.84363 0.252 0.0
C2471 C 0.50857 0.82163 0.23346 0.0
C2472 C 0.4956 0.82394 0.21995 0.0
C2473 C 0.48263 0.83752 0.22176 0.0
C2474 C 0.48154 0.84742 0.2377 0.0
C2475 C 0.49394 0.81032 0.20559 0.0
C2476 C 0.49471 0.81555 0.18748 0.0
C2477 C 0.49165 0.79197 0.20997 0.0
C2478 C 0.48923 0.78574 0.22878 0.0
C2479 C 0.47506 0.79245 0.23936 0.0
C2480 C 0.47308 0.78684 0.25718 0.0
C2481 C 0.48508 0.77439 0.26452 0.0
C2482 C 0.49907 0.76749 0.25404 0.0
C2483 C 0.50114 0.77309 0.23622 0.0
H2484 H 0.48353 0.77006 0.27832 0.0
H2485 H 0.49422 0.82536 0.10502 0.0
H2486 H 0.18502 0.49323 0.28037 0.0
H2487 H 0.20713 0.49557 0.25634 0.0
H2488 H 0.16448 0.49979 0.21725 0.0
H2489 H 0.14213 0.497 0.24134 0.0
H2490 H 0.1902 0.47736 0.20588 0.0
H2491 H 0.18855 0.53684 0.22895 0.0
H2492 H 0.18871 0.56054 0.25208 0.0
H2493 H 0.24194 0.54491 0.26811 0.0
H2494 H 0.24201 0.52093 0.24525 0.0
H2495 H 0.25841 0.50278 0.14069 0.0
H2496 H 0.23134 0.50287 0.15958 0.0
H2497 H 0.2639 0.49192 0.20627 0.0
H2498 H 0.29087 0.49171 0.18762 0.0
H2499 H 0.24034 0.52109 0.21036 0.0
H2500 H 0.23983 0.45939 0.18915 0.0
H2501 H 0.23925 0.43586 0.16584 0.0
H2502 H 0.18941 0.45683 0.14556 0.0
H2503 H 0.18982 0.48065 0.16862 0.0
C2504 C 0.18031 0.49471 0.26668 0.0
C2505 C 0.16185 0.49502 0.26273 0.0
C2506 C 0.19297 0.49613 0.25296 0.0
C2507 C 0.18743 0.49818 0.23505 0.0
C2508 C 0.169 0.49831 0.23101 0.0
C2509 C 0.15628 0.49676 0.24477 0.0
C2510 C 0.20106 0.49977 0.22066 0.0
C2511 C 0.20096 0.48717 0.20663 0.0
C2512 C 0.21515 0.5125 0.22173 0.0
C2513 C 0.21524 0.52701 0.23544 0.0
C2514 C 0.20025 0.53838 0.23748 0.0
C2515 C 0.20031 0.55188 0.25054 0.0
C2516 C 0.21532 0.55421 0.26158 0.0
C2517 C 0.23032 0.54308 0.25955 0.0
C2518 C 0.23033 0.52955 0.24652 0.0
C2519 C 0.25975 0.50025 0.15496 0.0
C2520 C 0.27675 0.49728 0.1627 0.0
C2521 C 0.2443 0.50028 0.16569 0.0
C2522 C 0.24571 0.49744 0.18427 0.0
C2523 C 0.26261 0.49421 0.19195 0.0
C2524 C 0.27798 0.49403 0.18126 0.0
C2525 C 0.22974 0.49834 0.196 0.0
C2526 C 0.22939 0.51149 0.20947 0.0
C2527 C 0.21521 0.48623 0.19431 0.0
C2528 C 0.21498 0.47194 0.18045 0.0
C2529 C 0.22884 0.45909 0.17961 0.0
C2530 C 0.22852 0.44568 0.16647 0.0
C2531 C 0.21434 0.44489 0.15419 0.0
C2532 C 0.20041 0.45748 0.15506 0.0
C2533 C 0.20068 0.47093 0.16816 0.0
H2534 H 0.21411 0.43449 0.14403 0.0
H2535 H 0.21533 0.56467 0.27168 0.0
H2536 H 0.5114 0.73241 0.81549 0.0
H2537 H 0.51387 0.76236 0.8026 0.0
H2538 H 0.47905 0.78333 0.844 0.0
H2539 H 0.47653 0.75313 0.85711 0.0
H2540 H 0.46759 0.79231 0.81073 0.0
H2541 H 0.52137 0.79848 0.84281 0.0
H2542 H 0.55064 0.78985 0.85576 0.0
H2543 H 0.57278 0.784 0.80279 0.0
H2544 H 0.54359 0.79232 0.78949 0.0
H2545 H 0.51448 0.86361 0.74654 0.0
H2546 H 0.5105 0.85097 0.77676 0.0
H2547 H 0.48251 0.8056 0.75404 0.0
H2548 H 0.48635 0.81806 0.72405 0.0
H2549 H 0.5242 0.8197 0.78847 0.0
H2550 H 0.45157 0.78992 0.7813 0.0
H2551 H 0.42225 0.79939 0.76912 0.0
H2552 H 0.43742 0.85476 0.77462 0.0
H2553 H 0.46674 0.84567 0.7871 0.0
C2554 C 0.50449 0.74342 0.82204 0.0
C2555 C 0.49367 0.74042 0.83722 0.0
C2556 C 0.50605 0.76058 0.81476 0.0
C2557 C 0.4968 0.77511 0.82246 0.0
C2558 C 0.4864 0.77231 0.83796 0.0
C2559 C 0.48498 0.75508 0.8454 0.0
C2560 C 0.49647 0.79249 0.8128 0.0
C2561 C 0.47992 0.79857 0.8061 0.0
C2562 C 0.51255 0.80103 0.80729 0.0
C2563 C 0.53024 0.79604 0.81515 0.0
C2564 C 0.53245 0.79527 0.83391 0.0
C2565 C 0.54904 0.79044 0.84131 0.0
C2566 C 0.56356 0.78639 0.8301 0.0
C2567 C 0.56153 0.78718 0.81146 0.0
C2568 C 0.54497 0.79199 0.80398 0.0
C2569 C 0.50723 0.85108 0.74806 0.0
C2570 C 0.50081 0.84176 0.73294 0.0
C2571 C 0.50497 0.84391 0.76531 0.0
C2572 C 0.49602 0.82748 0.76766 0.0
C2573 C 0.48914 0.81848 0.75259 0.0
C2574 C 0.49149 0.82554 0.73542 0.0
C2575 C 0.49543 0.81847 0.78538 0.0
C2576 C 0.51181 0.81396 0.79358 0.0
C2577 C 0.47918 0.81154 0.79243 0.0
C2578 C 0.46141 0.81709 0.78514 0.0
C2579 C 0.44862 0.80412 0.78007 0.0
C2580 C 0.432 0.80943 0.77306 0.0
C2581 C 0.42798 0.82766 0.77108 0.0
C2582 C 0.44056 0.84064 0.77613 0.0
C2583 C 0.4572 0.83541 0.78315 0.0
H2584 H 0.4151 0.83173 0.76564 0.0
H2585 H 0.5764 0.78265 0.83586 0.0
H2586 H 0.27484 0.50407 0.8084 0.0
H2587 H 0.24516 0.50572 0.79454 0.0
H2588 H 0.22118 0.4838 0.84259 0.0
H2589 H 0.25094 0.48202 0.85659 0.0
H2590 H 0.21036 0.46613 0.81268 0.0
H2591 H 0.2126 0.52661 0.83221 0.0
H2592 H 0.22585 0.55657 0.83711 0.0
H2593 H 0.23001 0.56446 0.7801 0.0
H2594 H 0.21703 0.53445 0.77484 0.0
H2595 H 0.13575 0.50953 0.75004 0.0
H2596 H 0.15226 0.50825 0.77848 0.0
H2597 H 0.19006 0.47107 0.75492 0.0
H2598 H 0.17373 0.47232 0.72654 0.0
H2599 H 0.18662 0.51987 0.78111 0.0
H2600 H 0.20748 0.4443 0.78668 0.0
H2601 H 0.19361 0.41453 0.78244 0.0
H2602 H 0.14127 0.43726 0.79136 0.0
H2603 H 0.15482 0.46713 0.79592 0.0
C2604 C 0.26324 0.49981 0.81612 0.0
C2605 C 0.26521 0.49286 0.83355 0.0
C2606 C 0.24628 0.50086 0.80822 0.0
C2607 C 0.23098 0.49503 0.81762 0.0
C2608 C 0.23283 0.48842 0.83517 0.0
C2609 C 0.24982 0.48745 0.84313 0.0
C2610 C 0.21338 0.4946 0.80841 0.0
C2611 C 0.20498 0.4779 0.80596 0.0
C2612 C 0.20614 0.51008 0.80008 0.0
C2613 C 0.21387 0.52823 0.80314 0.0
C2614 C 0.21643 0.53469 0.82071 0.0
C2615 C 0.22389 0.55169 0.82355 0.0
C2616 C 0.22878 0.5624 0.80893 0.0
C2617 C 0.2262 0.55615 0.79142 0.0
C2618 C 0.21876 0.53915 0.7885 0.0
C2619 C 0.14732 0.50074 0.75107 0.0
C2620 C 0.15358 0.49115 0.73604 0.0
C2621 C 0.15673 0.50005 0.76731 0.0
C2622 C 0.17232 0.48954 0.7688 0.0
C2623 C 0.17792 0.47909 0.75412 0.0
C2624 C 0.16864 0.4799 0.73787 0.0
C2625 C 0.18423 0.49123 0.7846 0.0
C2626 C 0.19162 0.50818 0.78825 0.0
C2627 C 0.19042 0.476 0.79413 0.0
C2628 C 0.18219 0.458 0.79158 0.0
C2629 C 0.19302 0.44295 0.78786 0.0
C2630 C 0.18521 0.42605 0.78537 0.0
C2631 C 0.16657 0.42401 0.7866 0.0
C2632 C 0.1557 0.43887 0.79036 0.0
C2633 C 0.16344 0.45579 0.79287 0.0
H2634 H 0.16055 0.41092 0.78466 0.0
H2635 H 0.23456 0.57556 0.81116 0.0
H2636 H 0.51235 0.17324 0.72356 0.0
H2637 H 0.51615 0.18779 0.7526 0.0
H2638 H 0.48529 0.14576 0.77802 0.0
H2639 H 0.48139 0.13104 0.74879 0.0
H2640 H 0.47242 0.17864 0.78601 0.0
H2641 H 0.52882 0.15003 0.78918 0.0
H2642 H 0.55828 0.13905 0.77863 0.0
H2643 H 0.5759 0.19335 0.77026 0.0
H2644 H 0.54646 0.20467 0.78051 0.0
H2645 H 0.5185 0.24242 0.85739 0.0
H2646 H 0.51602 0.21297 0.84282 0.0
H2647 H 0.48519 0.23689 0.79992 0.0
H2648 H 0.48763 0.26622 0.81429 0.0
H2649 H 0.52918 0.20435 0.80973 0.0
H2650 H 0.45478 0.20776 0.78467 0.0
H2651 H 0.42535 0.21802 0.796 0.0
H2652 H 0.44376 0.21181 0.85032 0.0
H2653 H 0.47322 0.20126 0.83934 0.0
C2654 C 0.50663 0.1669 0.73536 0.0
C2655 C 0.49646 0.15108 0.7339 0.0
C2656 C 0.50894 0.17516 0.75199 0.0
C2657 C 0.50112 0.16777 0.76749 0.0
C2658 C 0.4915 0.15161 0.76621 0.0
C2659 C 0.48931 0.14322 0.74954 0.0
C2660 C 0.50134 0.17824 0.78438 0.0
C2661 C 0.48483 0.18405 0.79142 0.0
C2662 C 0.51756 0.18489 0.79173 0.0
C2663 C 0.53538 0.1782 0.7856 0.0
C2664 C 0.53893 0.15964 0.785 0.0
C2665 C 0.55564 0.15335 0.77908 0.0
C2666 C 0.56895 0.1655 0.77378 0.0
C2667 C 0.56558 0.18396 0.7744 0.0
C2668 C 0.54889 0.19032 0.7803 0.0
C2669 C 0.51098 0.24132 0.84498 0.0
C2670 C 0.50331 0.25662 0.83692 0.0
C2671 C 0.5096 0.22452 0.8367 0.0
C2672 C 0.50029 0.22275 0.82041 0.0
C2673 C 0.49219 0.23792 0.81264 0.0
C2674 C 0.4937 0.2547 0.8208 0.0
C2675 C 0.50025 0.20553 0.81049 0.0
C2676 C 0.5168 0.19851 0.80473 0.0
C2677 C 0.48406 0.19763 0.80445 0.0
C2678 C 0.46626 0.20377 0.81116 0.0
C2679 C 0.45252 0.20845 0.79903 0.0
C2680 C 0.43584 0.21435 0.8054 0.0
C2681 C 0.43269 0.21559 0.82387 0.0
C2682 C 0.44623 0.21089 0.83602 0.0
C2683 C 0.46293 0.20497 0.82973 0.0
H2684 H 0.41977 0.22017 0.82877 0.0
H2685 H 0.58187 0.1606 0.76919 0.0
H2686 H 0.71596 0.48818 0.8042 0.0
H2687 H 0.74412 0.48315 0.7884 0.0
H2688 H 0.77368 0.50421 0.83361 0.0
H2689 H 0.74527 0.5096 0.84955 0.0
H2690 H 0.78473 0.51918 0.80299 0.0
H2691 H 0.77771 0.45982 0.82322 0.0
H2692 H 0.76232 0.43141 0.83049 0.0
H2693 H 0.75061 0.42313 0.77462 0.0
H2694 H 0.76568 0.45163 0.76701 0.0
H2695 H 0.85577 0.49691 0.73784 0.0
H2696 H 0.83952 0.49645 0.76665 0.0
H2697 H 0.78961 0.48811 0.73836 0.0
H2698 H 0.80553 0.48889 0.70974 0.0
H2699 H 0.79723 0.46354 0.76846 0.0
H2700 H 0.79738 0.52768 0.75155 0.0
H2701 H 0.81294 0.55619 0.74488 0.0
H2702 H 0.839 0.55428 0.79633 0.0
H2703 H 0.82374 0.52561 0.80319 0.0
C2704 C 0.72843 0.49158 0.81091 0.0
C2705 C 0.72841 0.49934 0.82809 0.0
C2706 C 0.74456 0.48854 0.80191 0.0
C2707 C 0.76102 0.49303 0.80995 0.0
C2708 C 0.76111 0.50052 0.82725 0.0
C2709 C 0.7449 0.50358 0.83631 0.0
C2710 C 0.77777 0.49127 0.79935 0.0
C2711 C 0.78784 0.50684 0.79587 0.0
C2712 C 0.7819 0.47517 0.79013 0.0
C2713 C 0.77284 0.45792 0.79455 0.0
C2714 C 0.77177 0.452 0.81248 0.0
C2715 C 0.7631 0.43587 0.81666 0.0
C2716 C 0.75549 0.42547 0.80302 0.0
C2717 C 0.75654 0.43119 0.78517 0.0
C2718 C 0.76518 0.44732 0.78091 0.0
C2719 C 0.84132 0.49507 0.73782 0.0
C2720 C 0.83188 0.49297 0.72158 0.0
C2721 C 0.83212 0.49477 0.75423 0.0
C2722 C 0.81346 0.4921 0.75452 0.0
C2723 C 0.80406 0.49005 0.73834 0.0
C2724 C 0.81316 0.49062 0.72201 0.0
C2725 C 0.80328 0.49163 0.7715 0.0
C2726 C 0.79453 0.47562 0.77616 0.0
C2727 C 0.80052 0.50723 0.78193 0.0
C2728 C 0.80965 0.52441 0.77776 0.0
C2729 C 0.80657 0.53326 0.76135 0.0
C2730 C 0.8153 0.54946 0.75756 0.0
C2731 C 0.82701 0.557 0.77014 0.0
C2732 C 0.82997 0.54839 0.78657 0.0
C2733 C 0.82129 0.53218 0.79042 0.0
H2734 H 0.83374 0.56955 0.76719 0.0
H2735 H 0.74878 0.41299 0.80629 0.0
loop_
_geom_bond_atom_site_label_1
_geom_bond_atom_site_label_2
_geom_bond_distance
_geom_bond_site_symmetry_2
_ccdc_geom_bond_type
C0 O1 1.306 . S
C0 O3 1.160 . S
O1 C0 1.306 . S
O1 Cd2 2.228 . S
Cd2 O1 2.228 . S
Cd2 O6 2.273 . S
Cd2 O10 2.277 . S
O3 C0 1.160 . S
O3 Cd4 2.203 . S
Cd4 O3 2.203 . S
Cd4 O6 2.411 . S
Cd4 O7 2.333 . S
Cd4 O8 2.352 . S
Cd4 O12 2.277 . S
Cd4 O13 2.356 . S
C5 O10 1.209 . S
C5 O12 1.226 . S
O6 Cd2 2.273 . S
O6 Cd4 2.411 . S
O6 C9 1.320 . S
O7 Cd4 2.333 . S
O7 C9 1.214 . S
O8 Cd4 2.352 . S
O8 C11 1.258 . S
C9 O6 1.320 . S
C9 O7 1.214 . S
O10 Cd2 2.277 . S
O10 C5 1.209 . S
C11 O8 1.258 . S
C11 O13 1.282 . S
O12 Cd4 2.277 . S
O12 C5 1.226 . S
O13 Cd4 2.356 . S
O13 C11 1.282 . S
C14 O15 1.306 . S
C14 O17 1.160 . S
O15 C14 1.306 . S
O15 Cd16 2.228 . S
Cd16 O15 2.228 . S
Cd16 O20 2.273 . S
Cd16 O24 2.277 . S
O17 C14 1.160 . S
O17 Cd18 2.203 . S
Cd18 O17 2.203 . S
Cd18 O20 2.411 . S
Cd18 O21 2.333 . S
Cd18 O22 2.352 . S
Cd18 O26 2.277 . S
Cd18 O27 2.356 . S
C19 O24 1.209 . S
C19 O26 1.226 . S
O20 Cd16 2.273 . S
O20 Cd18 2.411 . S
O20 C23 1.320 . S
O21 Cd18 2.333 . S
O21 C23 1.214 . S
O22 Cd18 2.352 . S
O22 C25 1.258 . S
C23 O20 1.320 . S
C23 O21 1.214 . S
O24 Cd16 2.277 . S
O24 C19 1.209 . S
C25 O22 1.258 . S
C25 O27 1.282 . S
O26 Cd18 2.277 . S
O26 C19 1.226 . S
O27 Cd18 2.356 . S
O27 C25 1.282 . S
C28 O29 1.306 . S
C28 O31 1.160 . S
O29 C28 1.306 . S
O29 Cd30 2.228 . S
Cd30 O29 2.228 . S
Cd30 O34 2.273 . S
Cd30 O38 2.277 . S
O31 C28 1.160 . S
O31 Cd32 2.203 . S
Cd32 O31 2.203 . S
Cd32 O34 2.411 . S
Cd32 O35 2.333 . S
Cd32 O36 2.352 . S
Cd32 O40 2.277 . S
Cd32 O41 2.356 . S
C33 O38 1.209 . S
C33 O40 1.226 . S
O34 Cd30 2.273 . S
O34 Cd32 2.411 . S
O34 C37 1.320 . S
O35 Cd32 2.333 . S
O35 C37 1.214 . S
O36 Cd32 2.352 . S
O36 C39 1.258 . S
C37 O34 1.320 . S
C37 O35 1.214 . S
O38 Cd30 2.277 . S
O38 C33 1.209 . S
C39 O36 1.258 . S
C39 O41 1.282 . S
O40 Cd32 2.277 . S
O40 C33 1.226 . S
O41 Cd32 2.356 . S
O41 C39 1.282 . S
C42 O43 1.306 . S
C42 O45 1.160 . S
O43 C42 1.306 . S
O43 Cd44 2.228 . S
Cd44 O43 2.228 . S
Cd44 O48 2.273 . S
Cd44 O52 2.277 . S
O45 C42 1.160 . S
O45 Cd46 2.203 . S
Cd46 O45 2.203 . S
Cd46 O48 2.411 . S
Cd46 O49 2.333 . S
Cd46 O50 2.352 . S
Cd46 O54 2.277 . S
Cd46 O55 2.356 . S
C47 O52 1.209 . S
C47 O54 1.226 . S
O48 Cd44 2.273 . S
O48 Cd46 2.411 . S
O48 C51 1.320 . S
O49 Cd46 2.333 . S
O49 C51 1.214 . S
O50 Cd46 2.352 . S
O50 C53 1.258 . S
C51 O48 1.320 . S
C51 O49 1.214 . S
O52 Cd44 2.277 . S
O52 C47 1.209 . S
C53 O50 1.258 . S
C53 O55 1.282 . S
O54 Cd46 2.277 . S
O54 C47 1.226 . S
O55 Cd46 2.356 . S
O55 C53 1.282 . S
C56 O57 1.306 . S
C56 O59 1.160 . S
O57 C56 1.306 . S
O57 Cd58 2.228 . S
Cd58 O57 2.228 . S
Cd58 O62 2.273 . S
Cd58 O66 2.277 . S
O59 C56 1.160 . S
O59 Cd60 2.203 . S
Cd60 O59 2.203 . S
Cd60 O62 2.411 . S
Cd60 O63 2.333 . S
Cd60 O64 2.352 . S
Cd60 O68 2.277 . S
Cd60 O69 2.356 . S
C61 O66 1.209 . S
C61 O68 1.226 . S
O62 Cd58 2.273 . S
O62 Cd60 2.411 . S
O62 C65 1.320 . S
O63 Cd60 2.333 . S
O63 C65 1.214 . S
O64 Cd60 2.352 . S
O64 C67 1.258 . S
C65 O62 1.320 . S
C65 O63 1.214 . S
O66 Cd58 2.277 . S
O66 C61 1.209 . S
C67 O64 1.258 . S
C67 O69 1.282 . S
O68 Cd60 2.277 . S
O68 C61 1.226 . S
O69 Cd60 2.356 . S
O69 C67 1.282 . S
C70 O71 1.306 . S
C70 O73 1.160 . S
O71 C70 1.306 . S
O71 Cd72 2.228 . S
Cd72 O71 2.228 . S
Cd72 O76 2.273 . S
Cd72 O80 2.277 . S
O73 C70 1.160 . S
O73 Cd74 2.203 . S
Cd74 O73 2.203 . S
Cd74 O76 2.411 . S
Cd74 O77 2.333 . S
Cd74 O78 2.352 . S
Cd74 O82 2.277 . S
Cd74 O83 2.356 . S
C75 O80 1.209 . S
C75 O82 1.226 . S
O76 Cd72 2.273 . S
O76 Cd74 2.411 . S
O76 C79 1.320 . S
O77 Cd74 2.333 . S
O77 C79 1.214 . S
O78 Cd74 2.352 . S
O78 C81 1.258 . S
C79 O76 1.320 . S
C79 O77 1.214 . S
O80 Cd72 2.277 . S
O80 C75 1.209 . S
C81 O78 1.258 . S
C81 O83 1.282 . S
O82 Cd74 2.277 . S
O82 C75 1.226 . S
O83 Cd74 2.356 . S
O83 C81 1.282 . S
C84 O85 1.306 . S
C84 O87 1.160 . S
O85 C84 1.306 . S
O85 Cd86 2.228 . S
Cd86 O85 2.228 . S
Cd86 O90 2.273 . S
Cd86 O94 2.277 . S
O87 C84 1.160 . S
O87 Cd88 2.203 . S
Cd88 O87 2.203 . S
Cd88 O90 2.411 . S
Cd88 O91 2.333 . S
Cd88 O92 2.352 . S
Cd88 O96 2.277 . S
Cd88 O97 2.356 . S
C89 O94 1.209 . S
C89 O96 1.226 . S
O90 Cd86 2.273 . S
O90 Cd88 2.411 . S
O90 C93 1.320 . S
O91 Cd88 2.333 . S
O91 C93 1.214 . S
O92 Cd88 2.352 . S
O92 C95 1.258 . S
C93 O90 1.320 . S
C93 O91 1.214 . S
O94 Cd86 2.277 . S
O94 C89 1.209 . S
C95 O92 1.258 . S
C95 O97 1.282 . S
O96 Cd88 2.277 . S
O96 C89 1.226 . S
O97 Cd88 2.356 . S
O97 C95 1.282 . S
C98 O99 1.306 . S
C98 O101 1.160 . S
O99 C98 1.306 . S
O99 Cd100 2.228 . S
Cd100 O99 2.228 . S
Cd100 O104 2.273 . S
Cd100 O108 2.277 . S
O101 C98 1.160 . S
O101 Cd102 2.203 . S
Cd102 O101 2.203 . S
Cd102 O104 2.411 . S
Cd102 O105 2.333 . S
Cd102 O106 2.352 . S
Cd102 O110 2.277 . S
Cd102 O111 2.356 . S
C103 O108 1.209 . S
C103 O110 1.226 . S
O104 Cd100 2.273 . S
O104 Cd102 2.411 . S
O104 C107 1.320 . S
O105 Cd102 2.333 . S
O105 C107 1.214 . S
O106 Cd102 2.352 . S
O106 C109 1.258 . S
C107 O104 1.320 . S
C107 O105 1.214 . S
O108 Cd100 2.277 . S
O108 C103 1.209 . S
C109 O106 1.258 . S
C109 O111 1.282 . S
O110 Cd102 2.277 . S
O110 C103 1.226 . S
O111 Cd102 2.356 . S
O111 C109 1.282 . S
C112 O113 1.306 . S
C112 O115 1.160 . S
O113 C112 1.306 . S
O113 Cd114 2.228 . S
Cd114 O113 2.228 . S
Cd114 O118 2.273 . S
Cd114 O122 2.277 . S
O115 C112 1.160 . S
O115 Cd116 2.203 . S
Cd116 O115 2.203 . S
Cd116 O118 2.411 . S
Cd116 O119 2.333 . S
Cd116 O120 2.352 . S
Cd116 O124 2.277 . S
Cd116 O125 2.356 . S
C117 O122 1.209 . S
C117 O124 1.226 . S
O118 Cd114 2.273 . S
O118 Cd116 2.411 . S
O118 C121 1.320 . S
O119 Cd116 2.333 . S
O119 C121 1.214 . S
O120 Cd116 2.352 . S
O120 C123 1.258 . S
C121 O118 1.320 . S
C121 O119 1.214 . S
O122 Cd114 2.277 . S
O122 C117 1.209 . S
C123 O120 1.258 . S
C123 O125 1.282 . S
O124 Cd116 2.277 . S
O124 C117 1.226 . S
O125 Cd116 2.356 . S
O125 C123 1.282 . S
C126 O127 1.306 . S
C126 O129 1.160 . S
O127 C126 1.306 . S
O127 Cd128 2.228 . S
Cd128 O127 2.228 . S
Cd128 O132 2.273 . S
Cd128 O136 2.277 . S
O129 C126 1.160 . S
O129 Cd130 2.203 . S
Cd130 O129 2.203 . S
Cd130 O132 2.411 . S
Cd130 O133 2.333 . S
Cd130 O134 2.352 . S
Cd130 O138 2.277 . S
Cd130 O139 2.356 . S
C131 O136 1.209 . S
C131 O138 1.226 . S
O132 Cd128 2.273 . S
O132 Cd130 2.411 . S
O132 C135 1.320 . S
O133 Cd130 2.333 . S
O133 C135 1.214 . S
O134 Cd130 2.352 . S
O134 C137 1.258 . S
C135 O132 1.320 . S
C135 O133 1.214 . S
O136 Cd128 2.277 . S
O136 C131 1.209 . S
C137 O134 1.258 . S
C137 O139 1.282 . S
O138 Cd130 2.277 . S
O138 C131 1.226 . S
O139 Cd130 2.356 . S
O139 C137 1.282 . S
C140 O141 1.306 . S
C140 O143 1.160 . S
O141 C140 1.306 . S
O141 Cd142 2.228 . S
Cd142 O141 2.228 . S
Cd142 O146 2.273 . S
Cd142 O150 2.277 . S
O143 C140 1.160 . S
O143 Cd144 2.203 . S
Cd144 O143 2.203 . S
Cd144 O146 2.411 . S
Cd144 O147 2.333 . S
Cd144 O148 2.352 . S
Cd144 O152 2.277 . S
Cd144 O153 2.356 . S
C145 O150 1.209 . S
C145 O152 1.226 . S
O146 Cd142 2.273 . S
O146 Cd144 2.411 . S
O146 C149 1.320 . S
O147 Cd144 2.333 . S
O147 C149 1.214 . S
O148 Cd144 2.352 . S
O148 C151 1.258 . S
C149 O146 1.320 . S
C149 O147 1.214 . S
O150 Cd142 2.277 . S
O150 C145 1.209 . S
C151 O148 1.258 . S
C151 O153 1.282 . S
O152 Cd144 2.277 . S
O152 C145 1.226 . S
O153 Cd144 2.356 . S
O153 C151 1.282 . S
C154 O155 1.306 . S
C154 O157 1.160 . S
O155 C154 1.306 . S
O155 Cd156 2.228 . S
Cd156 O155 2.228 . S
Cd156 O160 2.273 . S
Cd156 O164 2.277 . S
O157 C154 1.160 . S
O157 Cd158 2.203 . S
Cd158 O157 2.203 . S
Cd158 O160 2.411 . S
Cd158 O161 2.333 . S
Cd158 O162 2.352 . S
Cd158 O166 2.277 . S
Cd158 O167 2.356 . S
C159 O164 1.209 . S
C159 O166 1.226 . S
O160 Cd156 2.273 . S
O160 Cd158 2.411 . S
O160 C163 1.320 . S
O161 Cd158 2.333 . S
O161 C163 1.214 . S
O162 Cd158 2.352 . S
O162 C165 1.258 . S
C163 O160 1.320 . S
C163 O161 1.214 . S
O164 Cd156 2.277 . S
O164 C159 1.209 . S
C165 O162 1.258 . S
C165 O167 1.282 . S
O166 Cd158 2.277 . S
O166 C159 1.226 . S
O167 Cd158 2.356 . S
O167 C165 1.282 . S
C168 O169 1.306 . S
C168 O171 1.160 . S
O169 C168 1.306 . S
O169 Cd170 2.228 . S
Cd170 O169 2.228 . S
Cd170 O174 2.273 . S
Cd170 O178 2.277 . S
O171 C168 1.160 . S
O171 Cd172 2.203 . S
Cd172 O171 2.203 . S
Cd172 O174 2.411 . S
Cd172 O175 2.333 . S
Cd172 O176 2.352 . S
Cd172 O180 2.277 . S
Cd172 O181 2.356 . S
C173 O178 1.209 . S
C173 O180 1.226 . S
O174 Cd170 2.273 . S
O174 Cd172 2.411 . S
O174 C177 1.320 . S
O175 Cd172 2.333 . S
O175 C177 1.214 . S
O176 Cd172 2.352 . S
O176 C179 1.258 . S
C177 O174 1.320 . S
C177 O175 1.214 . S
O178 Cd170 2.277 . S
O178 C173 1.209 . S
C179 O176 1.258 . S
C179 O181 1.282 . S
O180 Cd172 2.277 . S
O180 C173 1.226 . S
O181 Cd172 2.356 . S
O181 C179 1.282 . S
C182 O183 1.306 . S
C182 O185 1.160 . S
O183 C182 1.306 . S
O183 Cd184 2.228 . S
Cd184 O183 2.228 . S
Cd184 O188 2.273 . S
Cd184 O192 2.277 . S
O185 C182 1.160 . S
O185 Cd186 2.203 . S
Cd186 O185 2.203 . S
Cd186 O188 2.411 . S
Cd186 O189 2.333 . S
Cd186 O190 2.352 . S
Cd186 O194 2.277 . S
Cd186 O195 2.356 . S
C187 O192 1.209 . S
C187 O194 1.226 . S
O188 Cd184 2.273 . S
O188 Cd186 2.411 . S
O188 C191 1.320 . S
O189 Cd186 2.333 . S
O189 C191 1.214 . S
O190 Cd186 2.352 . S
O190 C193 1.258 . S
C191 O188 1.320 . S
C191 O189 1.214 . S
O192 Cd184 2.277 . S
O192 C187 1.209 . S
C193 O190 1.258 . S
C193 O195 1.282 . S
O194 Cd186 2.277 . S
O194 C187 1.226 . S
O195 Cd186 2.356 . S
O195 C193 1.282 . S
C196 O197 1.306 . S
C196 O199 1.160 . S
O197 C196 1.306 . S
O197 Cd198 2.228 . S
Cd198 O197 2.228 . S
Cd198 O202 2.273 . S
Cd198 O206 2.277 . S
O199 C196 1.160 . S
O199 Cd200 2.203 . S
Cd200 O199 2.203 . S
Cd200 O202 2.411 . S
Cd200 O203 2.333 . S
Cd200 O204 2.352 . S
Cd200 O208 2.277 . S
Cd200 O209 2.356 . S
C201 O206 1.209 . S
C201 O208 1.226 . S
O202 Cd198 2.273 . S
O202 Cd200 2.411 . S
O202 C205 1.320 . S
O203 Cd200 2.333 . S
O203 C205 1.214 . S
O204 Cd200 2.352 . S
O204 C207 1.258 . S
C205 O202 1.320 . S
C205 O203 1.214 . S
O206 Cd198 2.277 . S
O206 C201 1.209 . S
C207 O204 1.258 . S
C207 O209 1.282 . S
O208 Cd200 2.277 . S
O208 C201 1.226 . S
O209 Cd200 2.356 . S
O209 C207 1.282 . S
C210 O211 1.306 . S
C210 O213 1.160 . S
O211 C210 1.306 . S
O211 Cd212 2.228 . S
Cd212 O211 2.228 . S
Cd212 O216 2.273 . S
Cd212 O220 2.277 . S
O213 C210 1.160 . S
O213 Cd214 2.203 . S
Cd214 O213 2.203 . S
Cd214 O216 2.411 . S
Cd214 O217 2.333 . S
Cd214 O218 2.352 . S
Cd214 O222 2.277 . S
Cd214 O223 2.356 . S
C215 O220 1.209 . S
C215 O222 1.226 . S
O216 Cd212 2.273 . S
O216 Cd214 2.411 . S
O216 C219 1.320 . S
O217 Cd214 2.333 . S
O217 C219 1.214 . S
O218 Cd214 2.352 . S
O218 C221 1.258 . S
C219 O216 1.320 . S
C219 O217 1.214 . S
O220 Cd212 2.277 . S
O220 C215 1.209 . S
C221 O218 1.258 . S
C221 O223 1.282 . S
O222 Cd214 2.277 . S
O222 C215 1.226 . S
O223 Cd214 2.356 . S
O223 C221 1.282 . S
C224 O225 1.306 . S
C224 O227 1.160 . S
O225 C224 1.306 . S
O225 Cd226 2.228 . S
Cd226 O225 2.228 . S
Cd226 O230 2.273 . S
Cd226 O234 2.277 . S
O227 C224 1.160 . S
O227 Cd228 2.203 . S
Cd228 O227 2.203 . S
Cd228 O230 2.411 . S
Cd228 O231 2.333 . S
Cd228 O232 2.352 . S
Cd228 O236 2.277 . S
Cd228 O237 2.356 . S
C229 O234 1.209 . S
C229 O236 1.226 . S
O230 Cd226 2.273 . S
O230 Cd228 2.411 . S
O230 C233 1.320 . S
O231 Cd228 2.333 . S
O231 C233 1.214 . S
O232 Cd228 2.352 . S
O232 C235 1.258 . S
C233 O230 1.320 . S
C233 O231 1.214 . S
O234 Cd226 2.277 . S
O234 C229 1.209 . S
C235 O232 1.258 . S
C235 O237 1.282 . S
O236 Cd228 2.277 . S
O236 C229 1.226 . S
O237 Cd228 2.356 . S
O237 C235 1.282 . S
C238 O239 1.306 . S
C238 O241 1.160 . S
O239 C238 1.306 . S
O239 Cd240 2.228 . S
Cd240 O239 2.228 . S
Cd240 O244 2.273 . S
Cd240 O248 2.277 . S
O241 C238 1.160 . S
O241 Cd242 2.203 . S
Cd242 O241 2.203 . S
Cd242 O244 2.411 . S
Cd242 O245 2.333 . S
Cd242 O246 2.352 . S
Cd242 O250 2.277 . S
Cd242 O251 2.356 . S
C243 O248 1.209 . S
C243 O250 1.226 . S
O244 Cd240 2.273 . S
O244 Cd242 2.411 . S
O244 C247 1.320 . S
O245 Cd242 2.333 . S
O245 C247 1.214 . S
O246 Cd242 2.352 . S
O246 C249 1.258 . S
C247 O244 1.320 . S
C247 O245 1.214 . S
O248 Cd240 2.277 . S
O248 C243 1.209 . S
C249 O246 1.258 . S
C249 O251 1.282 . S
O250 Cd242 2.277 . S
O250 C243 1.226 . S
O251 Cd242 2.356 . S
O251 C249 1.282 . S
C252 O253 1.306 . S
C252 O255 1.160 . S
O253 C252 1.306 . S
O253 Cd254 2.228 . S
Cd254 O253 2.228 . S
Cd254 O258 2.273 . S
Cd254 O262 2.277 . S
O255 C252 1.160 . S
O255 Cd256 2.203 . S
Cd256 O255 2.203 . S
Cd256 O258 2.411 . S
Cd256 O259 2.333 . S
Cd256 O260 2.352 . S
Cd256 O264 2.277 . S
Cd256 O265 2.356 . S
C257 O262 1.209 . S
C257 O264 1.226 . S
O258 Cd254 2.273 . S
O258 Cd256 2.411 . S
O258 C261 1.320 . S
O259 Cd256 2.333 . S
O259 C261 1.214 . S
O260 Cd256 2.352 . S
O260 C263 1.258 . S
C261 O258 1.320 . S
C261 O259 1.214 . S
O262 Cd254 2.277 . S
O262 C257 1.209 . S
C263 O260 1.258 . S
C263 O265 1.282 . S
O264 Cd256 2.277 . S
O264 C257 1.226 . S
O265 Cd256 2.356 . S
O265 C263 1.282 . S
C266 O267 1.306 . S
C266 O269 1.160 . S
O267 C266 1.306 . S
O267 Cd268 2.228 . S
Cd268 O267 2.228 . S
Cd268 O272 2.273 . S
Cd268 O276 2.277 . S
O269 C266 1.160 . S
O269 Cd270 2.203 . S
Cd270 O269 2.203 . S
Cd270 O272 2.411 . S
Cd270 O273 2.333 . S
Cd270 O274 2.352 . S
Cd270 O278 2.277 . S
Cd270 O279 2.356 . S
C271 O276 1.209 . S
C271 O278 1.226 . S
O272 Cd268 2.273 . S
O272 Cd270 2.411 . S
O272 C275 1.320 . S
O273 Cd270 2.333 . S
O273 C275 1.214 . S
O274 Cd270 2.352 . S
O274 C277 1.258 . S
C275 O272 1.320 . S
C275 O273 1.214 . S
O276 Cd268 2.277 . S
O276 C271 1.209 . S
C277 O274 1.258 . S
C277 O279 1.282 . S
O278 Cd270 2.277 . S
O278 C271 1.226 . S
O279 Cd270 2.356 . S
O279 C277 1.282 . S
C280 O281 1.306 . S
C280 O283 1.160 . S
O281 C280 1.306 . S
O281 Cd282 2.228 . S
Cd282 O281 2.228 . S
Cd282 O286 2.273 . S
Cd282 O290 2.277 . S
O283 C280 1.160 . S
O283 Cd284 2.203 . S
Cd284 O283 2.203 . S
Cd284 O286 2.411 . S
Cd284 O287 2.333 . S
Cd284 O288 2.352 . S
Cd284 O292 2.277 . S
Cd284 O293 2.356 . S
C285 O290 1.209 . S
C285 O292 1.226 . S
O286 Cd282 2.273 . S
O286 Cd284 2.411 . S
O286 C289 1.320 . S
O287 Cd284 2.333 . S
O287 C289 1.214 . S
O288 Cd284 2.352 . S
O288 C291 1.258 . S
C289 O286 1.320 . S
C289 O287 1.214 . S
O290 Cd282 2.277 . S
O290 C285 1.209 . S
C291 O288 1.258 . S
C291 O293 1.282 . S
O292 Cd284 2.277 . S
O292 C285 1.226 . S
O293 Cd284 2.356 . S
O293 C291 1.282 . S
C294 O295 1.306 . S
C294 O297 1.160 . S
O295 C294 1.306 . S
O295 Cd296 2.228 . S
Cd296 O295 2.228 . S
Cd296 O300 2.273 . S
Cd296 O304 2.277 . S
O297 C294 1.160 . S
O297 Cd298 2.203 . S
Cd298 O297 2.203 . S
Cd298 O300 2.411 . S
Cd298 O301 2.333 . S
Cd298 O302 2.352 . S
Cd298 O306 2.277 . S
Cd298 O307 2.356 . S
C299 O304 1.209 . S
C299 O306 1.226 . S
O300 Cd296 2.273 . S
O300 Cd298 2.411 . S
O300 C303 1.320 . S
O301 Cd298 2.333 . S
O301 C303 1.214 . S
O302 Cd298 2.352 . S
O302 C305 1.258 . S
C303 O300 1.320 . S
C303 O301 1.214 . S
O304 Cd296 2.277 . S
O304 C299 1.209 . S
C305 O302 1.258 . S
C305 O307 1.282 . S
O306 Cd298 2.277 . S
O306 C299 1.226 . S
O307 Cd298 2.356 . S
O307 C305 1.282 . S
C308 O309 1.306 . S
C308 O311 1.160 . S
O309 C308 1.306 . S
O309 Cd310 2.228 . S
Cd310 O309 2.228 . S
Cd310 O314 2.273 . S
Cd310 O318 2.277 . S
O311 C308 1.160 . S
O311 Cd312 2.203 . S
Cd312 O311 2.203 . S
Cd312 O314 2.411 . S
Cd312 O315 2.333 . S
Cd312 O316 2.352 . S
Cd312 O320 2.277 . S
Cd312 O321 2.356 . S
C313 O318 1.209 . S
C313 O320 1.226 . S
O314 Cd310 2.273 . S
O314 Cd312 2.411 . S
O314 C317 1.320 . S
O315 Cd312 2.333 . S
O315 C317 1.214 . S
O316 Cd312 2.352 . S
O316 C319 1.258 . S
C317 O314 1.320 . S
C317 O315 1.214 . S
O318 Cd310 2.277 . S
O318 C313 1.209 . S
C319 O316 1.258 . S
C319 O321 1.282 . S
O320 Cd312 2.277 . S
O320 C313 1.226 . S
O321 Cd312 2.356 . S
O321 C319 1.282 . S
C322 O323 1.306 . S
C322 O325 1.160 . S
O323 C322 1.306 . S
O323 Cd324 2.228 . S
Cd324 O323 2.228 . S
Cd324 O328 2.273 . S
Cd324 O332 2.277 . S
O325 C322 1.160 . S
O325 Cd326 2.203 . S
Cd326 O325 2.203 . S
Cd326 O328 2.411 . S
Cd326 O329 2.333 . S
Cd326 O330 2.352 . S
Cd326 O334 2.277 . S
Cd326 O335 2.356 . S
C327 O332 1.209 . S
C327 O334 1.226 . S
O328 Cd324 2.273 . S
O328 Cd326 2.411 . S
O328 C331 1.320 . S
O329 Cd326 2.333 . S
O329 C331 1.214 . S
O330 Cd326 2.352 . S
O330 C333 1.258 . S
C331 O328 1.320 . S
C331 O329 1.214 . S
O332 Cd324 2.277 . S
O332 C327 1.209 . S
C333 O330 1.258 . S
C333 O335 1.282 . S
O334 Cd326 2.277 . S
O334 C327 1.226 . S
O335 Cd326 2.356 . S
O335 C333 1.282 . S
H336 C354 0.951 . S
H337 C356 0.951 . S
H338 C358 0.950 . S
H339 C359 0.950 . S
H340 C361 0.950 . S
H341 C364 0.950 . S
H342 C365 0.950 . S
H343 C367 0.950 . S
H344 C368 0.950 . S
H345 C369 0.951 . S
H346 C371 0.951 . S
H347 C373 0.950 . S
H348 C374 0.950 . S
H349 C376 0.950 . S
H350 C379 0.950 . S
H351 C380 0.950 . S
H352 C382 0.950 . S
H353 C383 0.950 . S
C354 H336 0.951 . S
C354 C355 1.366 . S
C354 C356 1.388 . S
C355 C354 1.366 . S
C355 C359 1.385 . S
C356 H337 0.951 . S
C356 C354 1.388 . S
C356 C357 1.366 . S
C357 C356 1.366 . S
C357 C358 1.414 . S
C357 C360 1.499 . S
C358 H338 0.950 . S
C358 C357 1.414 . S
C358 C359 1.374 . S
C359 H339 0.950 . S
C359 C355 1.385 . S
C359 C358 1.374 . S
C360 C357 1.499 . S
C360 C361 1.373 . S
C360 C362 1.389 . S
C361 H340 0.950 . S
C361 C360 1.373 . S
C361 C377 1.377 . S
C362 C360 1.389 . S
C362 C363 1.524 . S
C362 C376 1.377 . S
C363 C362 1.524 . S
C363 C364 1.397 . S
C363 C368 1.363 . S
C364 H341 0.950 . S
C364 C363 1.397 . S
C364 C365 1.334 . S
C365 H342 0.950 . S
C365 C364 1.334 . S
C365 C366 1.287 . S
C366 C365 1.287 . S
C366 C367 1.524 . S
C366 H385 0.913 . S
C367 H343 0.950 . S
C367 C366 1.524 . S
C367 C368 1.415 . S
C368 H344 0.950 . S
C368 C363 1.363 . S
C368 C367 1.415 . S
C369 H345 0.951 . S
C369 C370 1.366 . S
C369 C371 1.388 . S
C370 C369 1.366 . S
C370 C374 1.385 . S
C371 H346 0.951 . S
C371 C369 1.388 . S
C371 C372 1.366 . S
C372 C371 1.366 . S
C372 C373 1.414 . S
C372 C375 1.499 . S
C373 H347 0.950 . S
C373 C372 1.414 . S
C373 C374 1.374 . S
C374 H348 0.950 . S
C374 C370 1.385 . S
C374 C373 1.374 . S
C375 C372 1.499 . S
C375 C376 1.373 . S
C375 C377 1.389 . S
C376 H349 0.950 . S
C376 C362 1.377 . S
C376 C375 1.373 . S
C377 C361 1.377 . S
C377 C375 1.389 . S
C377 C378 1.524 . S
C378 C377 1.524 . S
C378 C379 1.397 . S
C378 C383 1.363 . S
C379 H350 0.950 . S
C379 C378 1.397 . S
C379 C380 1.334 . S
C380 H351 0.950 . S
C380 C379 1.334 . S
C380 C381 1.287 . S
C381 C380 1.287 . S
C381 C382 1.524 . S
C381 H384 0.999 . S
C382 H352 0.950 . S
C382 C381 1.524 . S
C382 C383 1.415 . S
C383 H353 0.950 . S
C383 C378 1.363 . S
C383 C382 1.415 . S
H384 C381 0.999 . S
H385 C366 0.913 . S
H386 C404 0.951 . S
H387 C406 0.951 . S
H388 C408 0.950 . S
H389 C409 0.950 . S
H390 C411 0.950 . S
H391 C414 0.950 . S
H392 C415 0.950 . S
H393 C417 0.950 . S
H394 C418 0.950 . S
H395 C419 0.951 . S
H396 C421 0.951 . S
H397 C423 0.950 . S
H398 C424 0.950 . S
H399 C426 0.950 . S
H400 C429 0.950 . S
H401 C430 0.950 . S
H402 C432 0.950 . S
H403 C433 0.950 . S
C404 H386 0.951 . S
C404 C405 1.366 . S
C404 C406 1.388 . S
C405 C404 1.366 . S
C405 C409 1.385 . S
C406 H387 0.951 . S
C406 C404 1.388 . S
C406 C407 1.366 . S
C407 C406 1.366 . S
C407 C408 1.414 . S
C407 C410 1.499 . S
C408 H388 0.950 . S
C408 C407 1.414 . S
C408 C409 1.374 . S
C409 H389 0.950 . S
C409 C405 1.385 . S
C409 C408 1.374 . S
C410 C407 1.499 . S
C410 C411 1.373 . S
C410 C412 1.389 . S
C411 H390 0.950 . S
C411 C410 1.373 . S
C411 C427 1.377 . S
C412 C410 1.389 . S
C412 C413 1.524 . S
C412 C426 1.377 . S
C413 C412 1.524 . S
C413 C414 1.397 . S
C413 C418 1.363 . S
C414 H391 0.950 . S
C414 C413 1.397 . S
C414 C415 1.334 . S
C415 H392 0.950 . S
C415 C414 1.334 . S
C415 C416 1.287 . S
C416 C415 1.287 . S
C416 C417 1.524 . S
C416 H435 0.913 . S
C417 H393 0.950 . S
C417 C416 1.524 . S
C417 C418 1.415 . S
C418 H394 0.950 . S
C418 C413 1.363 . S
C418 C417 1.415 . S
C419 H395 0.951 . S
C419 C420 1.366 . S
C419 C421 1.388 . S
C420 C419 1.366 . S
C420 C424 1.385 . S
C421 H396 0.951 . S
C421 C419 1.388 . S
C421 C422 1.366 . S
C422 C421 1.366 . S
C422 C423 1.414 . S
C422 C425 1.499 . S
C423 H397 0.950 . S
C423 C422 1.414 . S
C423 C424 1.374 . S
C424 H398 0.950 . S
C424 C420 1.385 . S
C424 C423 1.374 . S
C425 C422 1.499 . S
C425 C426 1.373 . S
C425 C427 1.389 . S
C426 H399 0.950 . S
C426 C412 1.377 . S
C426 C425 1.373 . S
C427 C411 1.377 . S
C427 C425 1.389 . S
C427 C428 1.524 . S
C428 C427 1.524 . S
C428 C429 1.397 . S
C428 C433 1.363 . S
C429 H400 0.950 . S
C429 C428 1.397 . S
C429 C430 1.334 . S
C430 H401 0.950 . S
C430 C429 1.334 . S
C430 C431 1.287 . S
C431 C430 1.287 . S
C431 C432 1.524 . S
C431 H434 0.999 . S
C432 H402 0.950 . S
C432 C431 1.524 . S
C432 C433 1.415 . S
C433 H403 0.950 . S
C433 C428 1.363 . S
C433 C432 1.415 . S
H434 C431 0.999 . S
H435 C416 0.913 . S
H436 C454 0.951 . S
H437 C456 0.951 . S
H438 C458 0.950 . S
H439 C459 0.950 . S
H440 C461 0.950 . S
H441 C464 0.950 . S
H442 C465 0.950 . S
H443 C467 0.950 . S
H444 C468 0.950 . S
H445 C469 0.951 . S
H446 C471 0.951 . S
H447 C473 0.950 . S
H448 C474 0.950 . S
H449 C476 0.950 . S
H450 C479 0.950 . S
H451 C480 0.950 . S
H452 C482 0.950 . S
H453 C483 0.950 . S
C454 H436 0.951 . S
C454 C455 1.366 . S
C454 C456 1.388 . S
C455 C454 1.366 . S
C455 C459 1.385 . S
C456 H437 0.951 . S
C456 C454 1.388 . S
C456 C457 1.366 . S
C457 C456 1.366 . S
C457 C458 1.414 . S
C457 C460 1.499 . S
C458 H438 0.950 . S
C458 C457 1.414 . S
C458 C459 1.374 . S
C459 H439 0.950 . S
C459 C455 1.385 . S
C459 C458 1.374 . S
C460 C457 1.499 . S
C460 C461 1.373 . S
C460 C462 1.389 . S
C461 H440 0.950 . S
C461 C460 1.373 . S
C461 C477 1.377 . S
C462 C460 1.389 . S
C462 C463 1.524 . S
C462 C476 1.377 . S
C463 C462 1.524 . S
C463 C464 1.397 . S
C463 C468 1.363 . S
C464 H441 0.950 . S
C464 C463 1.397 . S
C464 C465 1.334 . S
C465 H442 0.950 . S
C465 C464 1.334 . S
C465 C466 1.287 . S
C466 C465 1.287 . S
C466 C467 1.524 . S
C466 H485 0.913 . S
C467 H443 0.950 . S
C467 C466 1.524 . S
C467 C468 1.415 . S
C468 H444 0.950 . S
C468 C463 1.363 . S
C468 C467 1.415 . S
C469 H445 0.951 . S
C469 C470 1.366 . S
C469 C471 1.388 . S
C470 C469 1.366 . S
C470 C474 1.385 . S
C471 H446 0.951 . S
C471 C469 1.388 . S
C471 C472 1.366 . S
C472 C471 1.366 . S
C472 C473 1.414 . S
C472 C475 1.499 . S
C473 H447 0.950 . S
C473 C472 1.414 . S
C473 C474 1.374 . S
C474 H448 0.950 . S
C474 C470 1.385 . S
C474 C473 1.374 . S
C475 C472 1.499 . S
C475 C476 1.373 . S
C475 C477 1.389 . S
C476 H449 0.950 . S
C476 C462 1.377 . S
C476 C475 1.373 . S
C477 C461 1.377 . S
C477 C475 1.389 . S
C477 C478 1.524 . S
C478 C477 1.524 . S
C478 C479 1.397 . S
C478 C483 1.363 . S
C479 H450 0.950 . S
C479 C478 1.397 . S
C479 C480 1.334 . S
C480 H451 0.950 . S
C480 C479 1.334 . S
C480 C481 1.287 . S
C481 C480 1.287 . S
C481 C482 1.524 . S
C481 H484 0.999 . S
C482 H452 0.950 . S
C482 C481 1.524 . S
C482 C483 1.415 . S
C483 H453 0.950 . S
C483 C478 1.363 . S
C483 C482 1.415 . S
H484 C481 0.999 . S
H485 C466 0.913 . S
H486 C504 0.951 . S
H487 C506 0.951 . S
H488 C508 0.950 . S
H489 C509 0.950 . S
H490 C511 0.950 . S
H491 C514 0.950 . S
H492 C515 0.950 . S
H493 C517 0.950 . S
H494 C518 0.950 . S
H495 C519 0.951 . S
H496 C521 0.951 . S
H497 C523 0.950 . S
H498 C524 0.950 . S
H499 C526 0.950 . S
H500 C529 0.950 . S
H501 C530 0.950 . S
H502 C532 0.950 . S
H503 C533 0.950 . S
C504 H486 0.951 . S
C504 C505 1.366 . S
C504 C506 1.388 . S
C505 C504 1.366 . S
C505 C509 1.385 . S
C506 H487 0.951 . S
C506 C504 1.388 . S
C506 C507 1.366 . S
C507 C506 1.366 . S
C507 C508 1.414 . S
C507 C510 1.499 . S
C508 H488 0.950 . S
C508 C507 1.414 . S
C508 C509 1.374 . S
C509 H489 0.950 . S
C509 C505 1.385 . S
C509 C508 1.374 . S
C510 C507 1.499 . S
C510 C511 1.373 . S
C510 C512 1.389 . S
C511 H490 0.950 . S
C511 C510 1.373 . S
C511 C527 1.377 . S
C512 C510 1.389 . S
C512 C513 1.524 . S
C512 C526 1.377 . S
C513 C512 1.524 . S
C513 C514 1.397 . S
C513 C518 1.363 . S
C514 H491 0.950 . S
C514 C513 1.397 . S
C514 C515 1.334 . S
C515 H492 0.950 . S
C515 C514 1.334 . S
C515 C516 1.287 . S
C516 C515 1.287 . S
C516 C517 1.524 . S
C516 H535 0.913 . S
C517 H493 0.950 . S
C517 C516 1.524 . S
C517 C518 1.415 . S
C518 H494 0.950 . S
C518 C513 1.363 . S
C518 C517 1.415 . S
C519 H495 0.951 . S
C519 C520 1.366 . S
C519 C521 1.388 . S
C520 C519 1.366 . S
C520 C524 1.385 . S
C521 H496 0.951 . S
C521 C519 1.388 . S
C521 C522 1.366 . S
C522 C521 1.366 . S
C522 C523 1.414 . S
C522 C525 1.499 . S
C523 H497 0.950 . S
C523 C522 1.414 . S
C523 C524 1.374 . S
C524 H498 0.950 . S
C524 C520 1.385 . S
C524 C523 1.374 . S
C525 C522 1.499 . S
C525 C526 1.373 . S
C525 C527 1.389 . S
C526 H499 0.950 . S
C526 C512 1.377 . S
C526 C525 1.373 . S
C527 C511 1.377 . S
C527 C525 1.389 . S
C527 C528 1.524 . S
C528 C527 1.524 . S
C528 C529 1.397 . S
C528 C533 1.363 . S
C529 H500 0.950 . S
C529 C528 1.397 . S
C529 C530 1.334 . S
C530 H501 0.950 . S
C530 C529 1.334 . S
C530 C531 1.287 . S
C531 C530 1.287 . S
C531 C532 1.524 . S
C531 H534 0.999 . S
C532 H502 0.950 . S
C532 C531 1.524 . S
C532 C533 1.415 . S
C533 H503 0.950 . S
C533 C528 1.363 . S
C533 C532 1.415 . S
H534 C531 0.999 . S
H535 C516 0.913 . S
H536 C554 0.951 . S
H537 C556 0.951 . S
H538 C558 0.950 . S
H539 C559 0.950 . S
H540 C561 0.950 . S
H541 C564 0.950 . S
H542 C565 0.950 . S
H543 C567 0.950 . S
H544 C568 0.950 . S
H545 C569 0.951 . S
H546 C571 0.951 . S
H547 C573 0.950 . S
H548 C574 0.950 . S
H549 C576 0.950 . S
H550 C579 0.950 . S
H551 C580 0.950 . S
H552 C582 0.950 . S
H553 C583 0.950 . S
C554 H536 0.951 . S
C554 C555 1.366 . S
C554 C556 1.388 . S
C555 C554 1.366 . S
C555 C559 1.385 . S
C556 H537 0.951 . S
C556 C554 1.388 . S
C556 C557 1.366 . S
C557 C556 1.366 . S
C557 C558 1.414 . S
C557 C560 1.499 . S
C558 H538 0.950 . S
C558 C557 1.414 . S
C558 C559 1.374 . S
C559 H539 0.950 . S
C559 C555 1.385 . S
C559 C558 1.374 . S
C560 C557 1.499 . S
C560 C561 1.373 . S
C560 C562 1.389 . S
C561 H540 0.950 . S
C561 C560 1.373 . S
C561 C577 1.377 . S
C562 C560 1.389 . S
C562 C563 1.524 . S
C562 C576 1.377 . S
C563 C562 1.524 . S
C563 C564 1.397 . S
C563 C568 1.363 . S
C564 H541 0.950 . S
C564 C563 1.397 . S
C564 C565 1.334 . S
C565 H542 0.950 . S
C565 C564 1.334 . S
C565 C566 1.287 . S
C566 C565 1.287 . S
C566 C567 1.524 . S
C566 H585 0.913 . S
C567 H543 0.950 . S
C567 C566 1.524 . S
C567 C568 1.415 . S
C568 H544 0.950 . S
C568 C563 1.363 . S
C568 C567 1.415 . S
C569 H545 0.951 . S
C569 C570 1.366 . S
C569 C571 1.388 . S
C570 C569 1.366 . S
C570 C574 1.385 . S
C571 H546 0.951 . S
C571 C569 1.388 . S
C571 C572 1.366 . S
C572 C571 1.366 . S
C572 C573 1.414 . S
C572 C575 1.499 . S
C573 H547 0.950 . S
C573 C572 1.414 . S
C573 C574 1.374 . S
C574 H548 0.950 . S
C574 C570 1.385 . S
C574 C573 1.374 . S
C575 C572 1.499 . S
C575 C576 1.373 . S
C575 C577 1.389 . S
C576 H549 0.950 . S
C576 C562 1.377 . S
C576 C575 1.373 . S
C577 C561 1.377 . S
C577 C575 1.389 . S
C577 C578 1.524 . S
C578 C577 1.524 . S
C578 C579 1.397 . S
C578 C583 1.363 . S
C579 H550 0.950 . S
C579 C578 1.397 . S
C579 C580 1.334 . S
C580 H551 0.950 . S
C580 C579 1.334 . S
C580 C581 1.287 . S
C581 C580 1.287 . S
C581 C582 1.524 . S
C581 H584 0.999 . S
C582 H552 0.950 . S
C582 C581 1.524 . S
C582 C583 1.415 . S
C583 H553 0.950 . S
C583 C578 1.363 . S
C583 C582 1.415 . S
H584 C581 0.999 . S
H585 C566 0.913 . S
H586 C604 0.951 . S
H587 C606 0.951 . S
H588 C608 0.950 . S
H589 C609 0.950 . S
H590 C611 0.950 . S
H591 C614 0.950 . S
H592 C615 0.950 . S
H593 C617 0.950 . S
H594 C618 0.950 . S
H595 C619 0.951 . S
H596 C621 0.951 . S
H597 C623 0.950 . S
H598 C624 0.950 . S
H599 C626 0.950 . S
H600 C629 0.950 . S
H601 C630 0.950 . S
H602 C632 0.950 . S
H603 C633 0.950 . S
C604 H586 0.951 . S
C604 C605 1.366 . S
C604 C606 1.388 . S
C605 C604 1.366 . S
C605 C609 1.385 . S
C606 H587 0.951 . S
C606 C604 1.388 . S
C606 C607 1.366 . S
C607 C606 1.366 . S
C607 C608 1.414 . S
C607 C610 1.499 . S
C608 H588 0.950 . S
C608 C607 1.414 . S
C608 C609 1.374 . S
C609 H589 0.950 . S
C609 C605 1.385 . S
C609 C608 1.374 . S
C610 C607 1.499 . S
C610 C611 1.373 . S
C610 C612 1.389 . S
C611 H590 0.950 . S
C611 C610 1.373 . S
C611 C627 1.377 . S
C612 C610 1.389 . S
C612 C613 1.524 . S
C612 C626 1.377 . S
C613 C612 1.524 . S
C613 C614 1.397 . S
C613 C618 1.363 . S
C614 H591 0.950 . S
C614 C613 1.397 . S
C614 C615 1.334 . S
C615 H592 0.950 . S
C615 C614 1.334 . S
C615 C616 1.287 . S
C616 C615 1.287 . S
C616 C617 1.524 . S
C616 H635 0.913 . S
C617 H593 0.950 . S
C617 C616 1.524 . S
C617 C618 1.415 . S
C618 H594 0.950 . S
C618 C613 1.363 . S
C618 C617 1.415 . S
C619 H595 0.951 . S
C619 C620 1.366 . S
C619 C621 1.388 . S
C620 C619 1.366 . S
C620 C624 1.385 . S
C621 H596 0.951 . S
C621 C619 1.388 . S
C621 C622 1.366 . S
C622 C621 1.366 . S
C622 C623 1.414 . S
C622 C625 1.499 . S
C623 H597 0.950 . S
C623 C622 1.414 . S
C623 C624 1.374 . S
C624 H598 0.950 . S
C624 C620 1.385 . S
C624 C623 1.374 . S
C625 C622 1.499 . S
C625 C626 1.373 . S
C625 C627 1.389 . S
C626 H599 0.950 . S
C626 C612 1.377 . S
C626 C625 1.373 . S
C627 C611 1.377 . S
C627 C625 1.389 . S
C627 C628 1.524 . S
C628 C627 1.524 . S
C628 C629 1.397 . S
C628 C633 1.363 . S
C629 H600 0.950 . S
C629 C628 1.397 . S
C629 C630 1.334 . S
C630 H601 0.950 . S
C630 C629 1.334 . S
C630 C631 1.287 . S
C631 C630 1.287 . S
C631 C632 1.524 . S
C631 H634 0.999 . S
C632 H602 0.950 . S
C632 C631 1.524 . S
C632 C633 1.415 . S
C633 H603 0.950 . S
C633 C628 1.363 . S
C633 C632 1.415 . S
H634 C631 0.999 . S
H635 C616 0.913 . S
H636 C654 0.951 . S
H637 C656 0.951 . S
H638 C658 0.950 . S
H639 C659 0.950 . S
H640 C661 0.950 . S
H641 C664 0.950 . S
H642 C665 0.950 . S
H643 C667 0.950 . S
H644 C668 0.950 . S
H645 C669 0.951 . S
H646 C671 0.951 . S
H647 C673 0.950 . S
H648 C674 0.950 . S
H649 C676 0.950 . S
H650 C679 0.950 . S
H651 C680 0.950 . S
H652 C682 0.950 . S
H653 C683 0.950 . S
C654 H636 0.951 . S
C654 C655 1.366 . S
C654 C656 1.388 . S
C655 C654 1.366 . S
C655 C659 1.385 . S
C656 H637 0.951 . S
C656 C654 1.388 . S
C656 C657 1.366 . S
C657 C656 1.366 . S
C657 C658 1.414 . S
C657 C660 1.499 . S
C658 H638 0.950 . S
C658 C657 1.414 . S
C658 C659 1.374 . S
C659 H639 0.950 . S
C659 C655 1.385 . S
C659 C658 1.374 . S
C660 C657 1.499 . S
C660 C661 1.373 . S
C660 C662 1.389 . S
C661 H640 0.950 . S
C661 C660 1.373 . S
C661 C677 1.377 . S
C662 C660 1.389 . S
C662 C663 1.524 . S
C662 C676 1.377 . S
C663 C662 1.524 . S
C663 C664 1.397 . S
C663 C668 1.363 . S
C664 H641 0.950 . S
C664 C663 1.397 . S
C664 C665 1.334 . S
C665 H642 0.950 . S
C665 C664 1.334 . S
C665 C666 1.287 . S
C666 C665 1.287 . S
C666 C667 1.524 . S
C666 H685 0.913 . S
C667 H643 0.950 . S
C667 C666 1.524 . S
C667 C668 1.415 . S
C668 H644 0.950 . S
C668 C663 1.363 . S
C668 C667 1.415 . S
C669 H645 0.951 . S
C669 C670 1.366 . S
C669 C671 1.388 . S
C670 C669 1.366 . S
C670 C674 1.385 . S
C671 H646 0.951 . S
C671 C669 1.388 . S
C671 C672 1.366 . S
C672 C671 1.366 . S
C672 C673 1.414 . S
C672 C675 1.499 . S
C673 H647 0.950 . S
C673 C672 1.414 . S
C673 C674 1.374 . S
C674 H648 0.950 . S
C674 C670 1.385 . S
C674 C673 1.374 . S
C675 C672 1.499 . S
C675 C676 1.373 . S
C675 C677 1.389 . S
C676 H649 0.950 . S
C676 C662 1.377 . S
C676 C675 1.373 . S
C677 C661 1.377 . S
C677 C675 1.389 . S
C677 C678 1.524 . S
C678 C677 1.524 . S
C678 C679 1.397 . S
C678 C683 1.363 . S
C679 H650 0.950 . S
C679 C678 1.397 . S
C679 C680 1.334 . S
C680 H651 0.950 . S
C680 C679 1.334 . S
C680 C681 1.287 . S
C681 C680 1.287 . S
C681 C682 1.524 . S
C681 H684 0.999 . S
C682 H652 0.950 . S
C682 C681 1.524 . S
C682 C683 1.415 . S
C683 H653 0.950 . S
C683 C678 1.363 . S
C683 C682 1.415 . S
H684 C681 0.999 . S
H685 C666 0.913 . S
H686 C704 0.951 . S
H687 C706 0.951 . S
H688 C708 0.950 . S
H689 C709 0.950 . S
H690 C711 0.950 . S
H691 C714 0.950 . S
H692 C715 0.950 . S
H693 C717 0.950 . S
H694 C718 0.950 . S
H695 C719 0.951 . S
H696 C721 0.951 . S
H697 C723 0.950 . S
H698 C724 0.950 . S
H699 C726 0.950 . S
H700 C729 0.950 . S
H701 C730 0.950 . S
H702 C732 0.950 . S
H703 C733 0.950 . S
C704 H686 0.951 . S
C704 C705 1.366 . S
C704 C706 1.388 . S
C705 C704 1.366 . S
C705 C709 1.385 . S
C706 H687 0.951 . S
C706 C704 1.388 . S
C706 C707 1.366 . S
C707 C706 1.366 . S
C707 C708 1.414 . S
C707 C710 1.499 . S
C708 H688 0.950 . S
C708 C707 1.414 . S
C708 C709 1.374 . S
C709 H689 0.950 . S
C709 C705 1.385 . S
C709 C708 1.374 . S
C710 C707 1.499 . S
C710 C711 1.373 . S
C710 C712 1.389 . S
C711 H690 0.950 . S
C711 C710 1.373 . S
C711 C727 1.377 . S
C712 C710 1.389 . S
C712 C713 1.524 . S
C712 C726 1.377 . S
C713 C712 1.524 . S
C713 C714 1.397 . S
C713 C718 1.363 . S
C714 H691 0.950 . S
C714 C713 1.397 . S
C714 C715 1.334 . S
C715 H692 0.950 . S
C715 C714 1.334 . S
C715 C716 1.287 . S
C716 C715 1.287 . S
C716 C717 1.524 . S
C716 H735 0.913 . S
C717 H693 0.950 . S
C717 C716 1.524 . S
C717 C718 1.415 . S
C718 H694 0.950 . S
C718 C713 1.363 . S
C718 C717 1.415 . S
C719 H695 0.951 . S
C719 C720 1.366 . S
C719 C721 1.388 . S
C720 C719 1.366 . S
C720 C724 1.385 . S
C721 H696 0.951 . S
C721 C719 1.388 . S
C721 C722 1.366 . S
C722 C721 1.366 . S
C722 C723 1.414 . S
C722 C725 1.499 . S
C723 H697 0.950 . S
C723 C722 1.414 . S
C723 C724 1.374 . S
C724 H698 0.950 . S
C724 C720 1.385 . S
C724 C723 1.374 . S
C725 C722 1.499 . S
C725 C726 1.373 . S
C725 C727 1.389 . S
C726 H699 0.950 . S
C726 C712 1.377 . S
C726 C725 1.373 . S
C727 C711 1.377 . S
C727 C725 1.389 . S
C727 C728 1.524 . S
C728 C727 1.524 . S
C728 C729 1.397 . S
C728 C733 1.363 . S
C729 H700 0.950 . S
C729 C728 1.397 . S
C729 C730 1.334 . S
C730 H701 0.950 . S
C730 C729 1.334 . S
C730 C731 1.287 . S
C731 C730 1.287 . S
C731 C732 1.524 . S
C731 H734 0.999 . S
C732 H702 0.950 . S
C732 C731 1.524 . S
C732 C733 1.415 . S
C733 H703 0.950 . S
C733 C728 1.363 . S
C733 C732 1.415 . S
H734 C731 0.999 . S
H735 C716 0.913 . S
H736 C754 0.951 . S
H737 C756 0.951 . S
H738 C758 0.950 . S
H739 C759 0.950 . S
H740 C761 0.950 . S
H741 C764 0.950 . S
H742 C765 0.950 . S
H743 C767 0.950 . S
H744 C768 0.950 . S
H745 C769 0.951 . S
H746 C771 0.951 . S
H747 C773 0.950 . S
H748 C774 0.950 . S
H749 C776 0.950 . S
H750 C779 0.950 . S
H751 C780 0.950 . S
H752 C782 0.950 . S
H753 C783 0.950 . S
C754 H736 0.951 . S
C754 C755 1.366 . S
C754 C756 1.388 . S
C755 C754 1.366 . S
C755 C759 1.385 . S
C756 H737 0.951 . S
C756 C754 1.388 . S
C756 C757 1.366 . S
C757 C756 1.366 . S
C757 C758 1.414 . S
C757 C760 1.499 . S
C758 H738 0.950 . S
C758 C757 1.414 . S
C758 C759 1.374 . S
C759 H739 0.950 . S
C759 C755 1.385 . S
C759 C758 1.374 . S
C760 C757 1.499 . S
C760 C761 1.373 . S
C760 C762 1.389 . S
C761 H740 0.950 . S
C761 C760 1.373 . S
C761 C777 1.377 . S
C762 C760 1.389 . S
C762 C763 1.524 . S
C762 C776 1.377 . S
C763 C762 1.524 . S
C763 C764 1.397 . S
C763 C768 1.363 . S
C764 H741 0.950 . S
C764 C763 1.397 . S
C764 C765 1.334 . S
C765 H742 0.950 . S
C765 C764 1.334 . S
C765 C766 1.287 . S
C766 C765 1.287 . S
C766 C767 1.524 . S
C766 H785 0.913 . S
C767 H743 0.950 . S
C767 C766 1.524 . S
C767 C768 1.415 . S
C768 H744 0.950 . S
C768 C763 1.363 . S
C768 C767 1.415 . S
C769 H745 0.951 . S
C769 C770 1.366 . S
C769 C771 1.388 . S
C770 C769 1.366 . S
C770 C774 1.385 . S
C771 H746 0.951 . S
C771 C769 1.388 . S
C771 C772 1.366 . S
C772 C771 1.366 . S
C772 C773 1.414 . S
C772 C775 1.499 . S
C773 H747 0.950 . S
C773 C772 1.414 . S
C773 C774 1.374 . S
C774 H748 0.950 . S
C774 C770 1.385 . S
C774 C773 1.374 . S
C775 C772 1.499 . S
C775 C776 1.373 . S
C775 C777 1.389 . S
C776 H749 0.950 . S
C776 C762 1.377 . S
C776 C775 1.373 . S
C777 C761 1.377 . S
C777 C775 1.389 . S
C777 C778 1.524 . S
C778 C777 1.524 . S
C778 C779 1.397 . S
C778 C783 1.363 . S
C779 H750 0.950 . S
C779 C778 1.397 . S
C779 C780 1.334 . S
C780 H751 0.950 . S
C780 C779 1.334 . S
C780 C781 1.287 . S
C781 C780 1.287 . S
C781 C782 1.524 . S
C781 H784 0.999 . S
C782 H752 0.950 . S
C782 C781 1.524 . S
C782 C783 1.415 . S
C783 H753 0.950 . S
C783 C778 1.363 . S
C783 C782 1.415 . S
H784 C781 0.999 . S
H785 C766 0.913 . S
H786 C804 0.951 . S
H787 C806 0.951 . S
H788 C808 0.950 . S
H789 C809 0.950 . S
H790 C811 0.950 . S
H791 C814 0.950 . S
H792 C815 0.950 . S
H793 C817 0.950 . S
H794 C818 0.950 . S
H795 C819 0.951 . S
H796 C821 0.951 . S
H797 C823 0.950 . S
H798 C824 0.950 . S
H799 C826 0.950 . S
H800 C829 0.950 . S
H801 C830 0.950 . S
H802 C832 0.950 . S
H803 C833 0.950 . S
C804 H786 0.951 . S
C804 C805 1.366 . S
C804 C806 1.388 . S
C805 C804 1.366 . S
C805 C809 1.385 . S
C806 H787 0.951 . S
C806 C804 1.388 . S
C806 C807 1.366 . S
C807 C806 1.366 . S
C807 C808 1.414 . S
C807 C810 1.499 . S
C808 H788 0.950 . S
C808 C807 1.414 . S
C808 C809 1.374 . S
C809 H789 0.950 . S
C809 C805 1.385 . S
C809 C808 1.374 . S
C810 C807 1.499 . S
C810 C811 1.373 . S
C810 C812 1.389 . S
C811 H790 0.950 . S
C811 C810 1.373 . S
C811 C827 1.377 . S
C812 C810 1.389 . S
C812 C813 1.524 . S
C812 C826 1.377 . S
C813 C812 1.524 . S
C813 C814 1.397 . S
C813 C818 1.363 . S
C814 H791 0.950 . S
C814 C813 1.397 . S
C814 C815 1.334 . S
C815 H792 0.950 . S
C815 C814 1.334 . S
C815 C816 1.287 . S
C816 C815 1.287 . S
C816 C817 1.524 . S
C816 H835 0.913 . S
C817 H793 0.950 . S
C817 C816 1.524 . S
C817 C818 1.415 . S
C818 H794 0.950 . S
C818 C813 1.363 . S
C818 C817 1.415 . S
C819 H795 0.951 . S
C819 C820 1.366 . S
C819 C821 1.388 . S
C820 C819 1.366 . S
C820 C824 1.385 . S
C821 H796 0.951 . S
C821 C819 1.388 . S
C821 C822 1.366 . S
C822 C821 1.366 . S
C822 C823 1.414 . S
C822 C825 1.499 . S
C823 H797 0.950 . S
C823 C822 1.414 . S
C823 C824 1.374 . S
C824 H798 0.950 . S
C824 C820 1.385 . S
C824 C823 1.374 . S
C825 C822 1.499 . S
C825 C826 1.373 . S
C825 C827 1.389 . S
C826 H799 0.950 . S
C826 C812 1.377 . S
C826 C825 1.373 . S
C827 C811 1.377 . S
C827 C825 1.389 . S
C827 C828 1.524 . S
C828 C827 1.524 . S
C828 C829 1.397 . S
C828 C833 1.363 . S
C829 H800 0.950 . S
C829 C828 1.397 . S
C829 C830 1.334 . S
C830 H801 0.950 . S
C830 C829 1.334 . S
C830 C831 1.287 . S
C831 C830 1.287 . S
C831 C832 1.524 . S
C831 H834 0.999 . S
C832 H802 0.950 . S
C832 C831 1.524 . S
C832 C833 1.415 . S
C833 H803 0.950 . S
C833 C828 1.363 . S
C833 C832 1.415 . S
H834 C831 0.999 . S
H835 C816 0.913 . S
H836 C854 0.951 . S
H837 C856 0.951 . S
H838 C858 0.950 . S
H839 C859 0.950 . S
H840 C861 0.950 . S
H841 C864 0.950 . S
H842 C865 0.950 . S
H843 C867 0.950 . S
H844 C868 0.950 . S
H845 C869 0.951 . S
H846 C871 0.951 . S
H847 C873 0.950 . S
H848 C874 0.950 . S
H849 C876 0.950 . S
H850 C879 0.950 . S
H851 C880 0.950 . S
H852 C882 0.950 . S
H853 C883 0.950 . S
C854 H836 0.951 . S
C854 C855 1.366 . S
C854 C856 1.388 . S
C855 C854 1.366 . S
C855 C859 1.385 . S
C856 H837 0.951 . S
C856 C854 1.388 . S
C856 C857 1.366 . S
C857 C856 1.366 . S
C857 C858 1.414 . S
C857 C860 1.499 . S
C858 H838 0.950 . S
C858 C857 1.414 . S
C858 C859 1.374 . S
C859 H839 0.950 . S
C859 C855 1.385 . S
C859 C858 1.374 . S
C860 C857 1.499 . S
C860 C861 1.373 . S
C860 C862 1.389 . S
C861 H840 0.950 . S
C861 C860 1.373 . S
C861 C877 1.377 . S
C862 C860 1.389 . S
C862 C863 1.524 . S
C862 C876 1.377 . S
C863 C862 1.524 . S
C863 C864 1.397 . S
C863 C868 1.363 . S
C864 H841 0.950 . S
C864 C863 1.397 . S
C864 C865 1.334 . S
C865 H842 0.950 . S
C865 C864 1.334 . S
C865 C866 1.287 . S
C866 C865 1.287 . S
C866 C867 1.524 . S
C866 H885 0.913 . S
C867 H843 0.950 . S
C867 C866 1.524 . S
C867 C868 1.415 . S
C868 H844 0.950 . S
C868 C863 1.363 . S
C868 C867 1.415 . S
C869 H845 0.951 . S
C869 C870 1.366 . S
C869 C871 1.388 . S
C870 C869 1.366 . S
C870 C874 1.385 . S
C871 H846 0.951 . S
C871 C869 1.388 . S
C871 C872 1.366 . S
C872 C871 1.366 . S
C872 C873 1.414 . S
C872 C875 1.499 . S
C873 H847 0.950 . S
C873 C872 1.414 . S
C873 C874 1.374 . S
C874 H848 0.950 . S
C874 C870 1.385 . S
C874 C873 1.374 . S
C875 C872 1.499 . S
C875 C876 1.373 . S
C875 C877 1.389 . S
C876 H849 0.950 . S
C876 C862 1.377 . S
C876 C875 1.373 . S
C877 C861 1.377 . S
C877 C875 1.389 . S
C877 C878 1.524 . S
C878 C877 1.524 . S
C878 C879 1.397 . S
C878 C883 1.363 . S
C879 H850 0.950 . S
C879 C878 1.397 . S
C879 C880 1.334 . S
C880 H851 0.950 . S
C880 C879 1.334 . S
C880 C881 1.287 . S
C881 C880 1.287 . S
C881 C882 1.524 . S
C881 H884 0.999 . S
C882 H852 0.950 . S
C882 C881 1.524 . S
C882 C883 1.415 . S
C883 H853 0.950 . S
C883 C878 1.363 . S
C883 C882 1.415 . S
H884 C881 0.999 . S
H885 C866 0.913 . S
H886 C904 0.951 . S
H887 C906 0.951 . S
H888 C908 0.950 . S
H889 C909 0.950 . S
H890 C911 0.950 . S
H891 C914 0.950 . S
H892 C915 0.950 . S
H893 C917 0.950 . S
H894 C918 0.950 . S
H895 C919 0.951 . S
H896 C921 0.951 . S
H897 C923 0.950 . S
H898 C924 0.950 . S
H899 C926 0.950 . S
H900 C929 0.950 . S
H901 C930 0.950 . S
H902 C932 0.950 . S
H903 C933 0.950 . S
C904 H886 0.951 . S
C904 C905 1.366 . S
C904 C906 1.388 . S
C905 C904 1.366 . S
C905 C909 1.385 . S
C906 H887 0.951 . S
C906 C904 1.388 . S
C906 C907 1.366 . S
C907 C906 1.366 . S
C907 C908 1.414 . S
C907 C910 1.499 . S
C908 H888 0.950 . S
C908 C907 1.414 . S
C908 C909 1.374 . S
C909 H889 0.950 . S
C909 C905 1.385 . S
C909 C908 1.374 . S
C910 C907 1.499 . S
C910 C911 1.373 . S
C910 C912 1.389 . S
C911 H890 0.950 . S
C911 C910 1.373 . S
C911 C927 1.377 . S
C912 C910 1.389 . S
C912 C913 1.524 . S
C912 C926 1.377 . S
C913 C912 1.524 . S
C913 C914 1.397 . S
C913 C918 1.363 . S
C914 H891 0.950 . S
C914 C913 1.397 . S
C914 C915 1.334 . S
C915 H892 0.950 . S
C915 C914 1.334 . S
C915 C916 1.287 . S
C916 C915 1.287 . S
C916 C917 1.524 . S
C916 H935 0.913 . S
C917 H893 0.950 . S
C917 C916 1.524 . S
C917 C918 1.415 . S
C918 H894 0.950 . S
C918 C913 1.363 . S
C918 C917 1.415 . S
C919 H895 0.951 . S
C919 C920 1.366 . S
C919 C921 1.388 . S
C920 C919 1.366 . S
C920 C924 1.385 . S
C921 H896 0.951 . S
C921 C919 1.388 . S
C921 C922 1.366 . S
C922 C921 1.366 . S
C922 C923 1.414 . S
C922 C925 1.499 . S
C923 H897 0.950 . S
C923 C922 1.414 . S
C923 C924 1.374 . S
C924 H898 0.950 . S
C924 C920 1.385 . S
C924 C923 1.374 . S
C925 C922 1.499 . S
C925 C926 1.373 . S
C925 C927 1.389 . S
C926 H899 0.950 . S
C926 C912 1.377 . S
C926 C925 1.373 . S
C927 C911 1.377 . S
C927 C925 1.389 . S
C927 C928 1.524 . S
C928 C927 1.524 . S
C928 C929 1.397 . S
C928 C933 1.363 . S
C929 H900 0.950 . S
C929 C928 1.397 . S
C929 C930 1.334 . S
C930 H901 0.950 . S
C930 C929 1.334 . S
C930 C931 1.287 . S
C931 C930 1.287 . S
C931 C932 1.524 . S
C931 H934 0.999 . S
C932 H902 0.950 . S
C932 C931 1.524 . S
C932 C933 1.415 . S
C933 H903 0.950 . S
C933 C928 1.363 . S
C933 C932 1.415 . S
H934 C931 0.999 . S
H935 C916 0.913 . S
H936 C954 0.951 . S
H937 C956 0.951 . S
H938 C958 0.950 . S
H939 C959 0.950 . S
H940 C961 0.950 . S
H941 C964 0.950 . S
H942 C965 0.950 . S
H943 C967 0.950 . S
H944 C968 0.950 . S
H945 C969 0.951 . S
H946 C971 0.951 . S
H947 C973 0.950 . S
H948 C974 0.950 . S
H949 C976 0.950 . S
H950 C979 0.950 . S
H951 C980 0.950 . S
H952 C982 0.950 . S
H953 C983 0.950 . S
C954 H936 0.951 . S
C954 C955 1.366 . S
C954 C956 1.388 . S
C955 C954 1.366 . S
C955 C959 1.385 . S
C956 H937 0.951 . S
C956 C954 1.388 . S
C956 C957 1.366 . S
C957 C956 1.366 . S
C957 C958 1.414 . S
C957 C960 1.499 . S
C958 H938 0.950 . S
C958 C957 1.414 . S
C958 C959 1.374 . S
C959 H939 0.950 . S
C959 C955 1.385 . S
C959 C958 1.374 . S
C960 C957 1.499 . S
C960 C961 1.373 . S
C960 C962 1.389 . S
C961 H940 0.950 . S
C961 C960 1.373 . S
C961 C977 1.377 . S
C962 C960 1.389 . S
C962 C963 1.524 . S
C962 C976 1.377 . S
C963 C962 1.524 . S
C963 C964 1.397 . S
C963 C968 1.363 . S
C964 H941 0.950 . S
C964 C963 1.397 . S
C964 C965 1.334 . S
C965 H942 0.950 . S
C965 C964 1.334 . S
C965 C966 1.287 . S
C966 C965 1.287 . S
C966 C967 1.524 . S
C966 H985 0.913 . S
C967 H943 0.950 . S
C967 C966 1.524 . S
C967 C968 1.415 . S
C968 H944 0.950 . S
C968 C963 1.363 . S
C968 C967 1.415 . S
C969 H945 0.951 . S
C969 C970 1.366 . S
C969 C971 1.388 . S
C970 C969 1.366 . S
C970 C974 1.385 . S
C971 H946 0.951 . S
C971 C969 1.388 . S
C971 C972 1.366 . S
C972 C971 1.366 . S
C972 C973 1.414 . S
C972 C975 1.499 . S
C973 H947 0.950 . S
C973 C972 1.414 . S
C973 C974 1.374 . S
C974 H948 0.950 . S
C974 C970 1.385 . S
C974 C973 1.374 . S
C975 C972 1.499 . S
C975 C976 1.373 . S
C975 C977 1.389 . S
C976 H949 0.950 . S
C976 C962 1.377 . S
C976 C975 1.373 . S
C977 C961 1.377 . S
C977 C975 1.389 . S
C977 C978 1.524 . S
C978 C977 1.524 . S
C978 C979 1.397 . S
C978 C983 1.363 . S
C979 H950 0.950 . S
C979 C978 1.397 . S
C979 C980 1.334 . S
C980 H951 0.950 . S
C980 C979 1.334 . S
C980 C981 1.287 . S
C981 C980 1.287 . S
C981 C982 1.524 . S
C981 H984 0.999 . S
C982 H952 0.950 . S
C982 C981 1.524 . S
C982 C983 1.415 . S
C983 H953 0.950 . S
C983 C978 1.363 . S
C983 C982 1.415 . S
H984 C981 0.999 . S
H985 C966 0.913 . S
H986 C1004 0.951 . S
H987 C1006 0.951 . S
H988 C1008 0.950 . S
H989 C1009 0.950 . S
H990 C1011 0.950 . S
H991 C1014 0.950 . S
H992 C1015 0.950 . S
H993 C1017 0.950 . S
H994 C1018 0.950 . S
H995 C1019 0.951 . S
H996 C1021 0.951 . S
H997 C1023 0.950 . S
H998 C1024 0.950 . S
H999 C1026 0.950 . S
H1000 C1029 0.950 . S
H1001 C1030 0.950 . S
H1002 C1032 0.950 . S
H1003 C1033 0.950 . S
C1004 H986 0.951 . S
C1004 C1005 1.366 . S
C1004 C1006 1.388 . S
C1005 C1004 1.366 . S
C1005 C1009 1.385 . S
C1006 H987 0.951 . S
C1006 C1004 1.388 . S
C1006 C1007 1.366 . S
C1007 C1006 1.366 . S
C1007 C1008 1.414 . S
C1007 C1010 1.499 . S
C1008 H988 0.950 . S
C1008 C1007 1.414 . S
C1008 C1009 1.374 . S
C1009 H989 0.950 . S
C1009 C1005 1.385 . S
C1009 C1008 1.374 . S
C1010 C1007 1.499 . S
C1010 C1011 1.373 . S
C1010 C1012 1.389 . S
C1011 H990 0.950 . S
C1011 C1010 1.373 . S
C1011 C1027 1.377 . S
C1012 C1010 1.389 . S
C1012 C1013 1.524 . S
C1012 C1026 1.377 . S
C1013 C1012 1.524 . S
C1013 C1014 1.397 . S
C1013 C1018 1.363 . S
C1014 H991 0.950 . S
C1014 C1013 1.397 . S
C1014 C1015 1.334 . S
C1015 H992 0.950 . S
C1015 C1014 1.334 . S
C1015 C1016 1.287 . S
C1016 C1015 1.287 . S
C1016 C1017 1.524 . S
C1016 H1035 0.913 . S
C1017 H993 0.950 . S
C1017 C1016 1.524 . S
C1017 C1018 1.415 . S
C1018 H994 0.950 . S
C1018 C1013 1.363 . S
C1018 C1017 1.415 . S
C1019 H995 0.951 . S
C1019 C1020 1.366 . S
C1019 C1021 1.388 . S
C1020 C1019 1.366 . S
C1020 C1024 1.385 . S
C1021 H996 0.951 . S
C1021 C1019 1.388 . S
C1021 C1022 1.366 . S
C1022 C1021 1.366 . S
C1022 C1023 1.414 . S
C1022 C1025 1.499 . S
C1023 H997 0.950 . S
C1023 C1022 1.414 . S
C1023 C1024 1.374 . S
C1024 H998 0.950 . S
C1024 C1020 1.385 . S
C1024 C1023 1.374 . S
C1025 C1022 1.499 . S
C1025 C1026 1.373 . S
C1025 C1027 1.389 . S
C1026 H999 0.950 . S
C1026 C1012 1.377 . S
C1026 C1025 1.373 . S
C1027 C1011 1.377 . S
C1027 C1025 1.389 . S
C1027 C1028 1.524 . S
C1028 C1027 1.524 . S
C1028 C1029 1.397 . S
C1028 C1033 1.363 . S
C1029 H1000 0.950 . S
C1029 C1028 1.397 . S
C1029 C1030 1.334 . S
C1030 H1001 0.950 . S
C1030 C1029 1.334 . S
C1030 C1031 1.287 . S
C1031 C1030 1.287 . S
C1031 C1032 1.524 . S
C1031 H1034 0.999 . S
C1032 H1002 0.950 . S
C1032 C1031 1.524 . S
C1032 C1033 1.415 . S
C1033 H1003 0.950 . S
C1033 C1028 1.363 . S
C1033 C1032 1.415 . S
H1034 C1031 0.999 . S
H1035 C1016 0.913 . S
H1036 C1054 0.951 . S
H1037 C1056 0.951 . S
H1038 C1058 0.950 . S
H1039 C1059 0.950 . S
H1040 C1061 0.950 . S
H1041 C1064 0.950 . S
H1042 C1065 0.950 . S
H1043 C1067 0.950 . S
H1044 C1068 0.950 . S
H1045 C1069 0.951 . S
H1046 C1071 0.951 . S
H1047 C1073 0.950 . S
H1048 C1074 0.950 . S
H1049 C1076 0.950 . S
H1050 C1079 0.950 . S
H1051 C1080 0.950 . S
H1052 C1082 0.950 . S
H1053 C1083 0.950 . S
C1054 H1036 0.951 . S
C1054 C1055 1.366 . S
C1054 C1056 1.388 . S
C1055 C1054 1.366 . S
C1055 C1059 1.385 . S
C1056 H1037 0.951 . S
C1056 C1054 1.388 . S
C1056 C1057 1.366 . S
C1057 C1056 1.366 . S
C1057 C1058 1.414 . S
C1057 C1060 1.499 . S
C1058 H1038 0.950 . S
C1058 C1057 1.414 . S
C1058 C1059 1.374 . S
C1059 H1039 0.950 . S
C1059 C1055 1.385 . S
C1059 C1058 1.374 . S
C1060 C1057 1.499 . S
C1060 C1061 1.373 . S
C1060 C1062 1.389 . S
C1061 H1040 0.950 . S
C1061 C1060 1.373 . S
C1061 C1077 1.377 . S
C1062 C1060 1.389 . S
C1062 C1063 1.524 . S
C1062 C1076 1.377 . S
C1063 C1062 1.524 . S
C1063 C1064 1.397 . S
C1063 C1068 1.363 . S
C1064 H1041 0.950 . S
C1064 C1063 1.397 . S
C1064 C1065 1.334 . S
C1065 H1042 0.950 . S
C1065 C1064 1.334 . S
C1065 C1066 1.287 . S
C1066 C1065 1.287 . S
C1066 C1067 1.524 . S
C1066 H1085 0.913 . S
C1067 H1043 0.950 . S
C1067 C1066 1.524 . S
C1067 C1068 1.415 . S
C1068 H1044 0.950 . S
C1068 C1063 1.363 . S
C1068 C1067 1.415 . S
C1069 H1045 0.951 . S
C1069 C1070 1.366 . S
C1069 C1071 1.388 . S
C1070 C1069 1.366 . S
C1070 C1074 1.385 . S
C1071 H1046 0.951 . S
C1071 C1069 1.388 . S
C1071 C1072 1.366 . S
C1072 C1071 1.366 . S
C1072 C1073 1.414 . S
C1072 C1075 1.499 . S
C1073 H1047 0.950 . S
C1073 C1072 1.414 . S
C1073 C1074 1.374 . S
C1074 H1048 0.950 . S
C1074 C1070 1.385 . S
C1074 C1073 1.374 . S
C1075 C1072 1.499 . S
C1075 C1076 1.373 . S
C1075 C1077 1.389 . S
C1076 H1049 0.950 . S
C1076 C1062 1.377 . S
C1076 C1075 1.373 . S
C1077 C1061 1.377 . S
C1077 C1075 1.389 . S
C1077 C1078 1.524 . S
C1078 C1077 1.524 . S
C1078 C1079 1.397 . S
C1078 C1083 1.363 . S
C1079 H1050 0.950 . S
C1079 C1078 1.397 . S
C1079 C1080 1.334 . S
C1080 H1051 0.950 . S
C1080 C1079 1.334 . S
C1080 C1081 1.287 . S
C1081 C1080 1.287 . S
C1081 C1082 1.524 . S
C1081 H1084 0.999 . S
C1082 H1052 0.950 . S
C1082 C1081 1.524 . S
C1082 C1083 1.415 . S
C1083 H1053 0.950 . S
C1083 C1078 1.363 . S
C1083 C1082 1.415 . S
H1084 C1081 0.999 . S
H1085 C1066 0.913 . S
H1086 C1104 0.951 . S
H1087 C1106 0.951 . S
H1088 C1108 0.950 . S
H1089 C1109 0.950 . S
H1090 C1111 0.950 . S
H1091 C1114 0.950 . S
H1092 C1115 0.950 . S
H1093 C1117 0.950 . S
H1094 C1118 0.950 . S
H1095 C1119 0.951 . S
H1096 C1121 0.951 . S
H1097 C1123 0.950 . S
H1098 C1124 0.950 . S
H1099 C1126 0.950 . S
H1100 C1129 0.950 . S
H1101 C1130 0.950 . S
H1102 C1132 0.950 . S
H1103 C1133 0.950 . S
C1104 H1086 0.951 . S
C1104 C1105 1.366 . S
C1104 C1106 1.388 . S
C1105 C1104 1.366 . S
C1105 C1109 1.385 . S
C1106 H1087 0.951 . S
C1106 C1104 1.388 . S
C1106 C1107 1.366 . S
C1107 C1106 1.366 . S
C1107 C1108 1.414 . S
C1107 C1110 1.499 . S
C1108 H1088 0.950 . S
C1108 C1107 1.414 . S
C1108 C1109 1.374 . S
C1109 H1089 0.950 . S
C1109 C1105 1.385 . S
C1109 C1108 1.374 . S
C1110 C1107 1.499 . S
C1110 C1111 1.373 . S
C1110 C1112 1.389 . S
C1111 H1090 0.950 . S
C1111 C1110 1.373 . S
C1111 C1127 1.377 . S
C1112 C1110 1.389 . S
C1112 C1113 1.524 . S
C1112 C1126 1.377 . S
C1113 C1112 1.524 . S
C1113 C1114 1.397 . S
C1113 C1118 1.363 . S
C1114 H1091 0.950 . S
C1114 C1113 1.397 . S
C1114 C1115 1.334 . S
C1115 H1092 0.950 . S
C1115 C1114 1.334 . S
C1115 C1116 1.287 . S
C1116 C1115 1.287 . S
C1116 C1117 1.524 . S
C1116 H1135 0.913 . S
C1117 H1093 0.950 . S
C1117 C1116 1.524 . S
C1117 C1118 1.415 . S
C1118 H1094 0.950 . S
C1118 C1113 1.363 . S
C1118 C1117 1.415 . S
C1119 H1095 0.951 . S
C1119 C1120 1.366 . S
C1119 C1121 1.388 . S
C1120 C1119 1.366 . S
C1120 C1124 1.385 . S
C1121 H1096 0.951 . S
C1121 C1119 1.388 . S
C1121 C1122 1.366 . S
C1122 C1121 1.366 . S
C1122 C1123 1.414 . S
C1122 C1125 1.499 . S
C1123 H1097 0.950 . S
C1123 C1122 1.414 . S
C1123 C1124 1.374 . S
C1124 H1098 0.950 . S
C1124 C1120 1.385 . S
C1124 C1123 1.374 . S
C1125 C1122 1.499 . S
C1125 C1126 1.373 . S
C1125 C1127 1.389 . S
C1126 H1099 0.950 . S
C1126 C1112 1.377 . S
C1126 C1125 1.373 . S
C1127 C1111 1.377 . S
C1127 C1125 1.389 . S
C1127 C1128 1.524 . S
C1128 C1127 1.524 . S
C1128 C1129 1.397 . S
C1128 C1133 1.363 . S
C1129 H1100 0.950 . S
C1129 C1128 1.397 . S
C1129 C1130 1.334 . S
C1130 H1101 0.950 . S
C1130 C1129 1.334 . S
C1130 C1131 1.287 . S
C1131 C1130 1.287 . S
C1131 C1132 1.524 . S
C1131 H1134 0.999 . S
C1132 H1102 0.950 . S
C1132 C1131 1.524 . S
C1132 C1133 1.415 . S
C1133 H1103 0.950 . S
C1133 C1128 1.363 . S
C1133 C1132 1.415 . S
H1134 C1131 0.999 . S
H1135 C1116 0.913 . S
H1136 C1154 0.951 . S
H1137 C1156 0.951 . S
H1138 C1158 0.950 . S
H1139 C1159 0.950 . S
H1140 C1161 0.950 . S
H1141 C1164 0.950 . S
H1142 C1165 0.950 . S
H1143 C1167 0.950 . S
H1144 C1168 0.950 . S
H1145 C1169 0.951 . S
H1146 C1171 0.951 . S
H1147 C1173 0.950 . S
H1148 C1174 0.950 . S
H1149 C1176 0.950 . S
H1150 C1179 0.950 . S
H1151 C1180 0.950 . S
H1152 C1182 0.950 . S
H1153 C1183 0.950 . S
C1154 H1136 0.951 . S
C1154 C1155 1.366 . S
C1154 C1156 1.388 . S
C1155 C1154 1.366 . S
C1155 C1159 1.385 . S
C1156 H1137 0.951 . S
C1156 C1154 1.388 . S
C1156 C1157 1.366 . S
C1157 C1156 1.366 . S
C1157 C1158 1.414 . S
C1157 C1160 1.499 . S
C1158 H1138 0.950 . S
C1158 C1157 1.414 . S
C1158 C1159 1.374 . S
C1159 H1139 0.950 . S
C1159 C1155 1.385 . S
C1159 C1158 1.374 . S
C1160 C1157 1.499 . S
C1160 C1161 1.373 . S
C1160 C1162 1.389 . S
C1161 H1140 0.950 . S
C1161 C1160 1.373 . S
C1161 C1177 1.377 . S
C1162 C1160 1.389 . S
C1162 C1163 1.524 . S
C1162 C1176 1.377 . S
C1163 C1162 1.524 . S
C1163 C1164 1.397 . S
C1163 C1168 1.363 . S
C1164 H1141 0.950 . S
C1164 C1163 1.397 . S
C1164 C1165 1.334 . S
C1165 H1142 0.950 . S
C1165 C1164 1.334 . S
C1165 C1166 1.287 . S
C1166 C1165 1.287 . S
C1166 C1167 1.524 . S
C1166 H1185 0.913 . S
C1167 H1143 0.950 . S
C1167 C1166 1.524 . S
C1167 C1168 1.415 . S
C1168 H1144 0.950 . S
C1168 C1163 1.363 . S
C1168 C1167 1.415 . S
C1169 H1145 0.951 . S
C1169 C1170 1.366 . S
C1169 C1171 1.388 . S
C1170 C1169 1.366 . S
C1170 C1174 1.385 . S
C1171 H1146 0.951 . S
C1171 C1169 1.388 . S
C1171 C1172 1.366 . S
C1172 C1171 1.366 . S
C1172 C1173 1.414 . S
C1172 C1175 1.499 . S
C1173 H1147 0.950 . S
C1173 C1172 1.414 . S
C1173 C1174 1.374 . S
C1174 H1148 0.950 . S
C1174 C1170 1.385 . S
C1174 C1173 1.374 . S
C1175 C1172 1.499 . S
C1175 C1176 1.373 . S
C1175 C1177 1.389 . S
C1176 H1149 0.950 . S
C1176 C1162 1.377 . S
C1176 C1175 1.373 . S
C1177 C1161 1.377 . S
C1177 C1175 1.389 . S
C1177 C1178 1.524 . S
C1178 C1177 1.524 . S
C1178 C1179 1.397 . S
C1178 C1183 1.363 . S
C1179 H1150 0.950 . S
C1179 C1178 1.397 . S
C1179 C1180 1.334 . S
C1180 H1151 0.950 . S
C1180 C1179 1.334 . S
C1180 C1181 1.287 . S
C1181 C1180 1.287 . S
C1181 C1182 1.524 . S
C1181 H1184 0.999 . S
C1182 H1152 0.950 . S
C1182 C1181 1.524 . S
C1182 C1183 1.415 . S
C1183 H1153 0.950 . S
C1183 C1178 1.363 . S
C1183 C1182 1.415 . S
H1184 C1181 0.999 . S
H1185 C1166 0.913 . S
H1186 C1204 0.951 . S
H1187 C1206 0.951 . S
H1188 C1208 0.950 . S
H1189 C1209 0.950 . S
H1190 C1211 0.950 . S
H1191 C1214 0.950 . S
H1192 C1215 0.950 . S
H1193 C1217 0.950 . S
H1194 C1218 0.950 . S
H1195 C1219 0.951 . S
H1196 C1221 0.951 . S
H1197 C1223 0.950 . S
H1198 C1224 0.950 . S
H1199 C1226 0.950 . S
H1200 C1229 0.950 . S
H1201 C1230 0.950 . S
H1202 C1232 0.950 . S
H1203 C1233 0.950 . S
C1204 H1186 0.951 . S
C1204 C1205 1.366 . S
C1204 C1206 1.388 . S
C1205 C1204 1.366 . S
C1205 C1209 1.385 . S
C1206 H1187 0.951 . S
C1206 C1204 1.388 . S
C1206 C1207 1.366 . S
C1207 C1206 1.366 . S
C1207 C1208 1.414 . S
C1207 C1210 1.499 . S
C1208 H1188 0.950 . S
C1208 C1207 1.414 . S
C1208 C1209 1.374 . S
C1209 H1189 0.950 . S
C1209 C1205 1.385 . S
C1209 C1208 1.374 . S
C1210 C1207 1.499 . S
C1210 C1211 1.373 . S
C1210 C1212 1.389 . S
C1211 H1190 0.950 . S
C1211 C1210 1.373 . S
C1211 C1227 1.377 . S
C1212 C1210 1.389 . S
C1212 C1213 1.524 . S
C1212 C1226 1.377 . S
C1213 C1212 1.524 . S
C1213 C1214 1.397 . S
C1213 C1218 1.363 . S
C1214 H1191 0.950 . S
C1214 C1213 1.397 . S
C1214 C1215 1.334 . S
C1215 H1192 0.950 . S
C1215 C1214 1.334 . S
C1215 C1216 1.287 . S
C1216 C1215 1.287 . S
C1216 C1217 1.524 . S
C1216 H1235 0.913 . S
C1217 H1193 0.950 . S
C1217 C1216 1.524 . S
C1217 C1218 1.415 . S
C1218 H1194 0.950 . S
C1218 C1213 1.363 . S
C1218 C1217 1.415 . S
C1219 H1195 0.951 . S
C1219 C1220 1.366 . S
C1219 C1221 1.388 . S
C1220 C1219 1.366 . S
C1220 C1224 1.385 . S
C1221 H1196 0.951 . S
C1221 C1219 1.388 . S
C1221 C1222 1.366 . S
C1222 C1221 1.366 . S
C1222 C1223 1.414 . S
C1222 C1225 1.499 . S
C1223 H1197 0.950 . S
C1223 C1222 1.414 . S
C1223 C1224 1.374 . S
C1224 H1198 0.950 . S
C1224 C1220 1.385 . S
C1224 C1223 1.374 . S
C1225 C1222 1.499 . S
C1225 C1226 1.373 . S
C1225 C1227 1.389 . S
C1226 H1199 0.950 . S
C1226 C1212 1.377 . S
C1226 C1225 1.373 . S
C1227 C1211 1.377 . S
C1227 C1225 1.389 . S
C1227 C1228 1.524 . S
C1228 C1227 1.524 . S
C1228 C1229 1.397 . S
C1228 C1233 1.363 . S
C1229 H1200 0.950 . S
C1229 C1228 1.397 . S
C1229 C1230 1.334 . S
C1230 H1201 0.950 . S
C1230 C1229 1.334 . S
C1230 C1231 1.287 . S
C1231 C1230 1.287 . S
C1231 C1232 1.524 . S
C1231 H1234 0.999 . S
C1232 H1202 0.950 . S
C1232 C1231 1.524 . S
C1232 C1233 1.415 . S
C1233 H1203 0.950 . S
C1233 C1228 1.363 . S
C1233 C1232 1.415 . S
H1234 C1231 0.999 . S
H1235 C1216 0.913 . S
H1236 C1254 0.951 . S
H1237 C1256 0.951 . S
H1238 C1258 0.950 . S
H1239 C1259 0.950 . S
H1240 C1261 0.950 . S
H1241 C1264 0.950 . S
H1242 C1265 0.950 . S
H1243 C1267 0.950 . S
H1244 C1268 0.950 . S
H1245 C1269 0.951 . S
H1246 C1271 0.951 . S
H1247 C1273 0.950 . S
H1248 C1274 0.950 . S
H1249 C1276 0.950 . S
H1250 C1279 0.950 . S
H1251 C1280 0.950 . S
H1252 C1282 0.950 . S
H1253 C1283 0.950 . S
C1254 H1236 0.951 . S
C1254 C1255 1.366 . S
C1254 C1256 1.388 . S
C1255 C1254 1.366 . S
C1255 C1259 1.385 . S
C1256 H1237 0.951 . S
C1256 C1254 1.388 . S
C1256 C1257 1.366 . S
C1257 C1256 1.366 . S
C1257 C1258 1.414 . S
C1257 C1260 1.499 . S
C1258 H1238 0.950 . S
C1258 C1257 1.414 . S
C1258 C1259 1.374 . S
C1259 H1239 0.950 . S
C1259 C1255 1.385 . S
C1259 C1258 1.374 . S
C1260 C1257 1.499 . S
C1260 C1261 1.373 . S
C1260 C1262 1.389 . S
C1261 H1240 0.950 . S
C1261 C1260 1.373 . S
C1261 C1277 1.377 . S
C1262 C1260 1.389 . S
C1262 C1263 1.524 . S
C1262 C1276 1.377 . S
C1263 C1262 1.524 . S
C1263 C1264 1.397 . S
C1263 C1268 1.363 . S
C1264 H1241 0.950 . S
C1264 C1263 1.397 . S
C1264 C1265 1.334 . S
C1265 H1242 0.950 . S
C1265 C1264 1.334 . S
C1265 C1266 1.287 . S
C1266 C1265 1.287 . S
C1266 C1267 1.524 . S
C1266 H1285 0.913 . S
C1267 H1243 0.950 . S
C1267 C1266 1.524 . S
C1267 C1268 1.415 . S
C1268 H1244 0.950 . S
C1268 C1263 1.363 . S
C1268 C1267 1.415 . S
C1269 H1245 0.951 . S
C1269 C1270 1.366 . S
C1269 C1271 1.388 . S
C1270 C1269 1.366 . S
C1270 C1274 1.385 . S
C1271 H1246 0.951 . S
C1271 C1269 1.388 . S
C1271 C1272 1.366 . S
C1272 C1271 1.366 . S
C1272 C1273 1.414 . S
C1272 C1275 1.499 . S
C1273 H1247 0.950 . S
C1273 C1272 1.414 . S
C1273 C1274 1.374 . S
C1274 H1248 0.950 . S
C1274 C1270 1.385 . S
C1274 C1273 1.374 . S
C1275 C1272 1.499 . S
C1275 C1276 1.373 . S
C1275 C1277 1.389 . S
C1276 H1249 0.950 . S
C1276 C1262 1.377 . S
C1276 C1275 1.373 . S
C1277 C1261 1.377 . S
C1277 C1275 1.389 . S
C1277 C1278 1.524 . S
C1278 C1277 1.524 . S
C1278 C1279 1.397 . S
C1278 C1283 1.363 . S
C1279 H1250 0.950 . S
C1279 C1278 1.397 . S
C1279 C1280 1.334 . S
C1280 H1251 0.950 . S
C1280 C1279 1.334 . S
C1280 C1281 1.287 . S
C1281 C1280 1.287 . S
C1281 C1282 1.524 . S
C1281 H1284 0.999 . S
C1282 H1252 0.950 . S
C1282 C1281 1.524 . S
C1282 C1283 1.415 . S
C1283 H1253 0.950 . S
C1283 C1278 1.363 . S
C1283 C1282 1.415 . S
H1284 C1281 0.999 . S
H1285 C1266 0.913 . S
H1286 C1304 0.951 . S
H1287 C1306 0.951 . S
H1288 C1308 0.950 . S
H1289 C1309 0.950 . S
H1290 C1311 0.950 . S
H1291 C1314 0.950 . S
H1292 C1315 0.950 . S
H1293 C1317 0.950 . S
H1294 C1318 0.950 . S
H1295 C1319 0.951 . S
H1296 C1321 0.951 . S
H1297 C1323 0.950 . S
H1298 C1324 0.950 . S
H1299 C1326 0.950 . S
H1300 C1329 0.950 . S
H1301 C1330 0.950 . S
H1302 C1332 0.950 . S
H1303 C1333 0.950 . S
C1304 H1286 0.951 . S
C1304 C1305 1.366 . S
C1304 C1306 1.388 . S
C1305 C1304 1.366 . S
C1305 C1309 1.385 . S
C1306 H1287 0.951 . S
C1306 C1304 1.388 . S
C1306 C1307 1.366 . S
C1307 C1306 1.366 . S
C1307 C1308 1.414 . S
C1307 C1310 1.499 . S
C1308 H1288 0.950 . S
C1308 C1307 1.414 . S
C1308 C1309 1.374 . S
C1309 H1289 0.950 . S
C1309 C1305 1.385 . S
C1309 C1308 1.374 . S
C1310 C1307 1.499 . S
C1310 C1311 1.373 . S
C1310 C1312 1.389 . S
C1311 H1290 0.950 . S
C1311 C1310 1.373 . S
C1311 C1327 1.377 . S
C1312 C1310 1.389 . S
C1312 C1313 1.524 . S
C1312 C1326 1.377 . S
C1313 C1312 1.524 . S
C1313 C1314 1.397 . S
C1313 C1318 1.363 . S
C1314 H1291 0.950 . S
C1314 C1313 1.397 . S
C1314 C1315 1.334 . S
C1315 H1292 0.950 . S
C1315 C1314 1.334 . S
C1315 C1316 1.287 . S
C1316 C1315 1.287 . S
C1316 C1317 1.524 . S
C1316 H1335 0.913 . S
C1317 H1293 0.950 . S
C1317 C1316 1.524 . S
C1317 C1318 1.415 . S
C1318 H1294 0.950 . S
C1318 C1313 1.363 . S
C1318 C1317 1.415 . S
C1319 H1295 0.951 . S
C1319 C1320 1.366 . S
C1319 C1321 1.388 . S
C1320 C1319 1.366 . S
C1320 C1324 1.385 . S
C1321 H1296 0.951 . S
C1321 C1319 1.388 . S
C1321 C1322 1.366 . S
C1322 C1321 1.366 . S
C1322 C1323 1.414 . S
C1322 C1325 1.499 . S
C1323 H1297 0.950 . S
C1323 C1322 1.414 . S
C1323 C1324 1.374 . S
C1324 H1298 0.950 . S
C1324 C1320 1.385 . S
C1324 C1323 1.374 . S
C1325 C1322 1.499 . S
C1325 C1326 1.373 . S
C1325 C1327 1.389 . S
C1326 H1299 0.950 . S
C1326 C1312 1.377 . S
C1326 C1325 1.373 . S
C1327 C1311 1.377 . S
C1327 C1325 1.389 . S
C1327 C1328 1.524 . S
C1328 C1327 1.524 . S
C1328 C1329 1.397 . S
C1328 C1333 1.363 . S
C1329 H1300 0.950 . S
C1329 C1328 1.397 . S
C1329 C1330 1.334 . S
C1330 H1301 0.950 . S
C1330 C1329 1.334 . S
C1330 C1331 1.287 . S
C1331 C1330 1.287 . S
C1331 C1332 1.524 . S
C1331 H1334 0.999 . S
C1332 H1302 0.950 . S
C1332 C1331 1.524 . S
C1332 C1333 1.415 . S
C1333 H1303 0.950 . S
C1333 C1328 1.363 . S
C1333 C1332 1.415 . S
H1334 C1331 0.999 . S
H1335 C1316 0.913 . S
H1336 C1354 0.951 . S
H1337 C1356 0.951 . S
H1338 C1358 0.950 . S
H1339 C1359 0.950 . S
H1340 C1361 0.950 . S
H1341 C1364 0.950 . S
H1342 C1365 0.950 . S
H1343 C1367 0.950 . S
H1344 C1368 0.950 . S
H1345 C1369 0.951 . S
H1346 C1371 0.951 . S
H1347 C1373 0.950 . S
H1348 C1374 0.950 . S
H1349 C1376 0.950 . S
H1350 C1379 0.950 . S
H1351 C1380 0.950 . S
H1352 C1382 0.950 . S
H1353 C1383 0.950 . S
C1354 H1336 0.951 . S
C1354 C1355 1.366 . S
C1354 C1356 1.388 . S
C1355 C1354 1.366 . S
C1355 C1359 1.385 . S
C1356 H1337 0.951 . S
C1356 C1354 1.388 . S
C1356 C1357 1.366 . S
C1357 C1356 1.366 . S
C1357 C1358 1.414 . S
C1357 C1360 1.499 . S
C1358 H1338 0.950 . S
C1358 C1357 1.414 . S
C1358 C1359 1.374 . S
C1359 H1339 0.950 . S
C1359 C1355 1.385 . S
C1359 C1358 1.374 . S
C1360 C1357 1.499 . S
C1360 C1361 1.373 . S
C1360 C1362 1.389 . S
C1361 H1340 0.950 . S
C1361 C1360 1.373 . S
C1361 C1377 1.377 . S
C1362 C1360 1.389 . S
C1362 C1363 1.524 . S
C1362 C1376 1.377 . S
C1363 C1362 1.524 . S
C1363 C1364 1.397 . S
C1363 C1368 1.363 . S
C1364 H1341 0.950 . S
C1364 C1363 1.397 . S
C1364 C1365 1.334 . S
C1365 H1342 0.950 . S
C1365 C1364 1.334 . S
C1365 C1366 1.287 . S
C1366 C1365 1.287 . S
C1366 C1367 1.524 . S
C1366 H1385 0.913 . S
C1367 H1343 0.950 . S
C1367 C1366 1.524 . S
C1367 C1368 1.415 . S
C1368 H1344 0.950 . S
C1368 C1363 1.363 . S
C1368 C1367 1.415 . S
C1369 H1345 0.951 . S
C1369 C1370 1.366 . S
C1369 C1371 1.388 . S
C1370 C1369 1.366 . S
C1370 C1374 1.385 . S
C1371 H1346 0.951 . S
C1371 C1369 1.388 . S
C1371 C1372 1.366 . S
C1372 C1371 1.366 . S
C1372 C1373 1.414 . S
C1372 C1375 1.499 . S
C1373 H1347 0.950 . S
C1373 C1372 1.414 . S
C1373 C1374 1.374 . S
C1374 H1348 0.950 . S
C1374 C1370 1.385 . S
C1374 C1373 1.374 . S
C1375 C1372 1.499 . S
C1375 C1376 1.373 . S
C1375 C1377 1.389 . S
C1376 H1349 0.950 . S
C1376 C1362 1.377 . S
C1376 C1375 1.373 . S
C1377 C1361 1.377 . S
C1377 C1375 1.389 . S
C1377 C1378 1.524 . S
C1378 C1377 1.524 . S
C1378 C1379 1.397 . S
C1378 C1383 1.363 . S
C1379 H1350 0.950 . S
C1379 C1378 1.397 . S
C1379 C1380 1.334 . S
C1380 H1351 0.950 . S
C1380 C1379 1.334 . S
C1380 C1381 1.287 . S
C1381 C1380 1.287 . S
C1381 C1382 1.524 . S
C1381 H1384 0.999 . S
C1382 H1352 0.950 . S
C1382 C1381 1.524 . S
C1382 C1383 1.415 . S
C1383 H1353 0.950 . S
C1383 C1378 1.363 . S
C1383 C1382 1.415 . S
H1384 C1381 0.999 . S
H1385 C1366 0.913 . S
H1386 C1404 0.951 . S
H1387 C1406 0.951 . S
H1388 C1408 0.950 . S
H1389 C1409 0.950 . S
H1390 C1411 0.950 . S
H1391 C1414 0.950 . S
H1392 C1415 0.950 . S
H1393 C1417 0.950 . S
H1394 C1418 0.950 . S
H1395 C1419 0.951 . S
H1396 C1421 0.951 . S
H1397 C1423 0.950 . S
H1398 C1424 0.950 . S
H1399 C1426 0.950 . S
H1400 C1429 0.950 . S
H1401 C1430 0.950 . S
H1402 C1432 0.950 . S
H1403 C1433 0.950 . S
C1404 H1386 0.951 . S
C1404 C1405 1.366 . S
C1404 C1406 1.388 . S
C1405 C1404 1.366 . S
C1405 C1409 1.385 . S
C1406 H1387 0.951 . S
C1406 C1404 1.388 . S
C1406 C1407 1.366 . S
C1407 C1406 1.366 . S
C1407 C1408 1.414 . S
C1407 C1410 1.499 . S
C1408 H1388 0.950 . S
C1408 C1407 1.414 . S
C1408 C1409 1.374 . S
C1409 H1389 0.950 . S
C1409 C1405 1.385 . S
C1409 C1408 1.374 . S
C1410 C1407 1.499 . S
C1410 C1411 1.373 . S
C1410 C1412 1.389 . S
C1411 H1390 0.950 . S
C1411 C1410 1.373 . S
C1411 C1427 1.377 . S
C1412 C1410 1.389 . S
C1412 C1413 1.524 . S
C1412 C1426 1.377 . S
C1413 C1412 1.524 . S
C1413 C1414 1.397 . S
C1413 C1418 1.363 . S
C1414 H1391 0.950 . S
C1414 C1413 1.397 . S
C1414 C1415 1.334 . S
C1415 H1392 0.950 . S
C1415 C1414 1.334 . S
C1415 C1416 1.287 . S
C1416 C1415 1.287 . S
C1416 C1417 1.524 . S
C1416 H1435 0.913 . S
C1417 H1393 0.950 . S
C1417 C1416 1.524 . S
C1417 C1418 1.415 . S
C1418 H1394 0.950 . S
C1418 C1413 1.363 . S
C1418 C1417 1.415 . S
C1419 H1395 0.951 . S
C1419 C1420 1.366 . S
C1419 C1421 1.388 . S
C1420 C1419 1.366 . S
C1420 C1424 1.385 . S
C1421 H1396 0.951 . S
C1421 C1419 1.388 . S
C1421 C1422 1.366 . S
C1422 C1421 1.366 . S
C1422 C1423 1.414 . S
C1422 C1425 1.499 . S
C1423 H1397 0.950 . S
C1423 C1422 1.414 . S
C1423 C1424 1.374 . S
C1424 H1398 0.950 . S
C1424 C1420 1.385 . S
C1424 C1423 1.374 . S
C1425 C1422 1.499 . S
C1425 C1426 1.373 . S
C1425 C1427 1.389 . S
C1426 H1399 0.950 . S
C1426 C1412 1.377 . S
C1426 C1425 1.373 . S
C1427 C1411 1.377 . S
C1427 C1425 1.389 . S
C1427 C1428 1.524 . S
C1428 C1427 1.524 . S
C1428 C1429 1.397 . S
C1428 C1433 1.363 . S
C1429 H1400 0.950 . S
C1429 C1428 1.397 . S
C1429 C1430 1.334 . S
C1430 H1401 0.950 . S
C1430 C1429 1.334 . S
C1430 C1431 1.287 . S
C1431 C1430 1.287 . S
C1431 C1432 1.524 . S
C1431 H1434 0.999 . S
C1432 H1402 0.950 . S
C1432 C1431 1.524 . S
C1432 C1433 1.415 . S
C1433 H1403 0.950 . S
C1433 C1428 1.363 . S
C1433 C1432 1.415 . S
H1434 C1431 0.999 . S
H1435 C1416 0.913 . S
H1436 C1454 0.951 . S
H1437 C1456 0.951 . S
H1438 C1458 0.950 . S
H1439 C1459 0.950 . S
H1440 C1461 0.950 . S
H1441 C1464 0.950 . S
H1442 C1465 0.950 . S
H1443 C1467 0.950 . S
H1444 C1468 0.950 . S
H1445 C1469 0.951 . S
H1446 C1471 0.951 . S
H1447 C1473 0.950 . S
H1448 C1474 0.950 . S
H1449 C1476 0.950 . S
H1450 C1479 0.950 . S
H1451 C1480 0.950 . S
H1452 C1482 0.950 . S
H1453 C1483 0.950 . S
C1454 H1436 0.951 . S
C1454 C1455 1.366 . S
C1454 C1456 1.388 . S
C1455 C1454 1.366 . S
C1455 C1459 1.385 . S
C1456 H1437 0.951 . S
C1456 C1454 1.388 . S
C1456 C1457 1.366 . S
C1457 C1456 1.366 . S
C1457 C1458 1.414 . S
C1457 C1460 1.499 . S
C1458 H1438 0.950 . S
C1458 C1457 1.414 . S
C1458 C1459 1.374 . S
C1459 H1439 0.950 . S
C1459 C1455 1.385 . S
C1459 C1458 1.374 . S
C1460 C1457 1.499 . S
C1460 C1461 1.373 . S
C1460 C1462 1.389 . S
C1461 H1440 0.950 . S
C1461 C1460 1.373 . S
C1461 C1477 1.377 . S
C1462 C1460 1.389 . S
C1462 C1463 1.524 . S
C1462 C1476 1.377 . S
C1463 C1462 1.524 . S
C1463 C1464 1.397 . S
C1463 C1468 1.363 . S
C1464 H1441 0.950 . S
C1464 C1463 1.397 . S
C1464 C1465 1.334 . S
C1465 H1442 0.950 . S
C1465 C1464 1.334 . S
C1465 C1466 1.287 . S
C1466 C1465 1.287 . S
C1466 C1467 1.524 . S
C1466 H1485 0.913 . S
C1467 H1443 0.950 . S
C1467 C1466 1.524 . S
C1467 C1468 1.415 . S
C1468 H1444 0.950 . S
C1468 C1463 1.363 . S
C1468 C1467 1.415 . S
C1469 H1445 0.951 . S
C1469 C1470 1.366 . S
C1469 C1471 1.388 . S
C1470 C1469 1.366 . S
C1470 C1474 1.385 . S
C1471 H1446 0.951 . S
C1471 C1469 1.388 . S
C1471 C1472 1.366 . S
C1472 C1471 1.366 . S
C1472 C1473 1.414 . S
C1472 C1475 1.499 . S
C1473 H1447 0.950 . S
C1473 C1472 1.414 . S
C1473 C1474 1.374 . S
C1474 H1448 0.950 . S
C1474 C1470 1.385 . S
C1474 C1473 1.374 . S
C1475 C1472 1.499 . S
C1475 C1476 1.373 . S
C1475 C1477 1.389 . S
C1476 H1449 0.950 . S
C1476 C1462 1.377 . S
C1476 C1475 1.373 . S
C1477 C1461 1.377 . S
C1477 C1475 1.389 . S
C1477 C1478 1.524 . S
C1478 C1477 1.524 . S
C1478 C1479 1.397 . S
C1478 C1483 1.363 . S
C1479 H1450 0.950 . S
C1479 C1478 1.397 . S
C1479 C1480 1.334 . S
C1480 H1451 0.950 . S
C1480 C1479 1.334 . S
C1480 C1481 1.287 . S
C1481 C1480 1.287 . S
C1481 C1482 1.524 . S
C1481 H1484 0.999 . S
C1482 H1452 0.950 . S
C1482 C1481 1.524 . S
C1482 C1483 1.415 . S
C1483 H1453 0.950 . S
C1483 C1478 1.363 . S
C1483 C1482 1.415 . S
H1484 C1481 0.999 . S
H1485 C1466 0.913 . S
H1486 C1504 0.951 . S
H1487 C1506 0.951 . S
H1488 C1508 0.950 . S
H1489 C1509 0.950 . S
H1490 C1511 0.950 . S
H1491 C1514 0.950 . S
H1492 C1515 0.950 . S
H1493 C1517 0.950 . S
H1494 C1518 0.950 . S
H1495 C1519 0.951 . S
H1496 C1521 0.951 . S
H1497 C1523 0.950 . S
H1498 C1524 0.950 . S
H1499 C1526 0.950 . S
H1500 C1529 0.950 . S
H1501 C1530 0.950 . S
H1502 C1532 0.950 . S
H1503 C1533 0.950 . S
C1504 H1486 0.951 . S
C1504 C1505 1.366 . S
C1504 C1506 1.388 . S
C1505 C1504 1.366 . S
C1505 C1509 1.385 . S
C1506 H1487 0.951 . S
C1506 C1504 1.388 . S
C1506 C1507 1.366 . S
C1507 C1506 1.366 . S
C1507 C1508 1.414 . S
C1507 C1510 1.499 . S
C1508 H1488 0.950 . S
C1508 C1507 1.414 . S
C1508 C1509 1.374 . S
C1509 H1489 0.950 . S
C1509 C1505 1.385 . S
C1509 C1508 1.374 . S
C1510 C1507 1.499 . S
C1510 C1511 1.373 . S
C1510 C1512 1.389 . S
C1511 H1490 0.950 . S
C1511 C1510 1.373 . S
C1511 C1527 1.377 . S
C1512 C1510 1.389 . S
C1512 C1513 1.524 . S
C1512 C1526 1.377 . S
C1513 C1512 1.524 . S
C1513 C1514 1.397 . S
C1513 C1518 1.363 . S
C1514 H1491 0.950 . S
C1514 C1513 1.397 . S
C1514 C1515 1.334 . S
C1515 H1492 0.950 . S
C1515 C1514 1.334 . S
C1515 C1516 1.287 . S
C1516 C1515 1.287 . S
C1516 C1517 1.524 . S
C1516 H1535 0.913 . S
C1517 H1493 0.950 . S
C1517 C1516 1.524 . S
C1517 C1518 1.415 . S
C1518 H1494 0.950 . S
C1518 C1513 1.363 . S
C1518 C1517 1.415 . S
C1519 H1495 0.951 . S
C1519 C1520 1.366 . S
C1519 C1521 1.388 . S
C1520 C1519 1.366 . S
C1520 C1524 1.385 . S
C1521 H1496 0.951 . S
C1521 C1519 1.388 . S
C1521 C1522 1.366 . S
C1522 C1521 1.366 . S
C1522 C1523 1.414 . S
C1522 C1525 1.499 . S
C1523 H1497 0.950 . S
C1523 C1522 1.414 . S
C1523 C1524 1.374 . S
C1524 H1498 0.950 . S
C1524 C1520 1.385 . S
C1524 C1523 1.374 . S
C1525 C1522 1.499 . S
C1525 C1526 1.373 . S
C1525 C1527 1.389 . S
C1526 H1499 0.950 . S
C1526 C1512 1.377 . S
C1526 C1525 1.373 . S
C1527 C1511 1.377 . S
C1527 C1525 1.389 . S
C1527 C1528 1.524 . S
C1528 C1527 1.524 . S
C1528 C1529 1.397 . S
C1528 C1533 1.363 . S
C1529 H1500 0.950 . S
C1529 C1528 1.397 . S
C1529 C1530 1.334 . S
C1530 H1501 0.950 . S
C1530 C1529 1.334 . S
C1530 C1531 1.287 . S
C1531 C1530 1.287 . S
C1531 C1532 1.524 . S
C1531 H1534 0.999 . S
C1532 H1502 0.950 . S
C1532 C1531 1.524 . S
C1532 C1533 1.415 . S
C1533 H1503 0.950 . S
C1533 C1528 1.363 . S
C1533 C1532 1.415 . S
H1534 C1531 0.999 . S
H1535 C1516 0.913 . S
H1536 C1554 0.951 . S
H1537 C1556 0.951 . S
H1538 C1558 0.950 . S
H1539 C1559 0.950 . S
H1540 C1561 0.950 . S
H1541 C1564 0.950 . S
H1542 C1565 0.950 . S
H1543 C1567 0.950 . S
H1544 C1568 0.950 . S
H1545 C1569 0.951 . S
H1546 C1571 0.951 . S
H1547 C1573 0.950 . S
H1548 C1574 0.950 . S
H1549 C1576 0.950 . S
H1550 C1579 0.950 . S
H1551 C1580 0.950 . S
H1552 C1582 0.950 . S
H1553 C1583 0.950 . S
C1554 H1536 0.951 . S
C1554 C1555 1.366 . S
C1554 C1556 1.388 . S
C1555 C1554 1.366 . S
C1555 C1559 1.385 . S
C1556 H1537 0.951 . S
C1556 C1554 1.388 . S
C1556 C1557 1.366 . S
C1557 C1556 1.366 . S
C1557 C1558 1.414 . S
C1557 C1560 1.499 . S
C1558 H1538 0.950 . S
C1558 C1557 1.414 . S
C1558 C1559 1.374 . S
C1559 H1539 0.950 . S
C1559 C1555 1.385 . S
C1559 C1558 1.374 . S
C1560 C1557 1.499 . S
C1560 C1561 1.373 . S
C1560 C1562 1.389 . S
C1561 H1540 0.950 . S
C1561 C1560 1.373 . S
C1561 C1577 1.377 1_455 S
C1562 C1560 1.389 . S
C1562 C1563 1.524 . S
C1562 C1576 1.377 1_455 S
C1563 C1562 1.524 . S
C1563 C1564 1.397 . S
C1563 C1568 1.363 . S
C1564 H1541 0.950 . S
C1564 C1563 1.397 . S
C1564 C1565 1.334 . S
C1565 H1542 0.950 . S
C1565 C1564 1.334 . S
C1565 C1566 1.287 . S
C1566 C1565 1.287 . S
C1566 C1567 1.524 . S
C1566 H1585 0.913 . S
C1567 H1543 0.950 . S
C1567 C1566 1.524 . S
C1567 C1568 1.415 . S
C1568 H1544 0.950 . S
C1568 C1563 1.363 . S
C1568 C1567 1.415 . S
C1569 H1545 0.951 . S
C1569 C1570 1.366 . S
C1569 C1571 1.388 . S
C1570 C1569 1.366 . S
C1570 C1574 1.385 . S
C1571 H1546 0.951 . S
C1571 C1569 1.388 . S
C1571 C1572 1.366 . S
C1572 C1571 1.366 . S
C1572 C1573 1.414 . S
C1572 C1575 1.499 . S
C1573 H1547 0.950 . S
C1573 C1572 1.414 . S
C1573 C1574 1.374 . S
C1574 H1548 0.950 . S
C1574 C1570 1.385 . S
C1574 C1573 1.374 . S
C1575 C1572 1.499 . S
C1575 C1576 1.373 . S
C1575 C1577 1.389 . S
C1576 H1549 0.950 . S
C1576 C1562 1.377 1_655 S
C1576 C1575 1.373 . S
C1577 C1561 1.377 1_655 S
C1577 C1575 1.389 . S
C1577 C1578 1.524 . S
C1578 C1577 1.524 . S
C1578 C1579 1.397 . S
C1578 C1583 1.363 . S
C1579 H1550 0.950 . S
C1579 C1578 1.397 . S
C1579 C1580 1.334 . S
C1580 H1551 0.950 . S
C1580 C1579 1.334 . S
C1580 C1581 1.287 . S
C1581 C1580 1.287 . S
C1581 C1582 1.524 . S
C1581 H1584 0.999 . S
C1582 H1552 0.950 . S
C1582 C1581 1.524 . S
C1582 C1583 1.415 . S
C1583 H1553 0.950 . S
C1583 C1578 1.363 . S
C1583 C1582 1.415 . S
H1584 C1581 0.999 . S
H1585 C1566 0.913 . S
H1586 C1604 0.951 . S
H1587 C1606 0.951 . S
H1588 C1608 0.950 . S
H1589 C1609 0.950 . S
H1590 C1611 0.950 . S
H1591 C1614 0.950 . S
H1592 C1615 0.950 . S
H1593 C1617 0.950 . S
H1594 C1618 0.950 . S
H1595 C1619 0.951 . S
H1596 C1621 0.951 . S
H1597 C1623 0.950 . S
H1598 C1624 0.950 . S
H1599 C1626 0.950 . S
H1600 C1629 0.950 . S
H1601 C1630 0.950 . S
H1602 C1632 0.950 . S
H1603 C1633 0.950 . S
C1604 H1586 0.951 . S
C1604 C1605 1.366 . S
C1604 C1606 1.388 . S
C1605 C1604 1.366 . S
C1605 C1609 1.385 . S
C1606 H1587 0.951 . S
C1606 C1604 1.388 . S
C1606 C1607 1.366 . S
C1607 C1606 1.366 . S
C1607 C1608 1.414 . S
C1607 C1610 1.499 . S
C1608 H1588 0.950 . S
C1608 C1607 1.414 . S
C1608 C1609 1.374 . S
C1609 H1589 0.950 . S
C1609 C1605 1.385 . S
C1609 C1608 1.374 . S
C1610 C1607 1.499 . S
C1610 C1611 1.373 . S
C1610 C1612 1.389 . S
C1611 H1590 0.950 . S
C1611 C1610 1.373 . S
C1611 C1627 1.377 1_545 S
C1612 C1610 1.389 . S
C1612 C1613 1.524 . S
C1612 C1626 1.377 1_545 S
C1613 C1612 1.524 . S
C1613 C1614 1.397 . S
C1613 C1618 1.363 . S
C1614 H1591 0.950 . S
C1614 C1613 1.397 . S
C1614 C1615 1.334 . S
C1615 H1592 0.950 . S
C1615 C1614 1.334 . S
C1615 C1616 1.287 . S
C1616 C1615 1.287 . S
C1616 C1617 1.524 . S
C1616 H1635 0.913 . S
C1617 H1593 0.950 . S
C1617 C1616 1.524 . S
C1617 C1618 1.415 . S
C1618 H1594 0.950 . S
C1618 C1613 1.363 . S
C1618 C1617 1.415 . S
C1619 H1595 0.951 . S
C1619 C1620 1.366 . S
C1619 C1621 1.388 . S
C1620 C1619 1.366 . S
C1620 C1624 1.385 . S
C1621 H1596 0.951 . S
C1621 C1619 1.388 . S
C1621 C1622 1.366 . S
C1622 C1621 1.366 . S
C1622 C1623 1.414 . S
C1622 C1625 1.499 . S
C1623 H1597 0.950 . S
C1623 C1622 1.414 . S
C1623 C1624 1.374 . S
C1624 H1598 0.950 . S
C1624 C1620 1.385 . S
C1624 C1623 1.374 . S
C1625 C1622 1.499 . S
C1625 C1626 1.373 . S
C1625 C1627 1.389 . S
C1626 H1599 0.950 . S
C1626 C1612 1.377 1_565 S
C1626 C1625 1.373 . S
C1627 C1611 1.377 1_565 S
C1627 C1625 1.389 . S
C1627 C1628 1.524 . S
C1628 C1627 1.524 . S
C1628 C1629 1.397 . S
C1628 C1633 1.363 . S
C1629 H1600 0.950 . S
C1629 C1628 1.397 . S
C1629 C1630 1.334 . S
C1630 H1601 0.950 . S
C1630 C1629 1.334 . S
C1630 C1631 1.287 . S
C1631 C1630 1.287 . S
C1631 C1632 1.524 . S
C1631 H1634 0.999 . S
C1632 H1602 0.950 . S
C1632 C1631 1.524 . S
C1632 C1633 1.415 . S
C1633 H1603 0.950 . S
C1633 C1628 1.363 . S
C1633 C1632 1.415 . S
H1634 C1631 0.999 . S
H1635 C1616 0.913 . S
H1636 C1654 0.951 . S
H1637 C1656 0.951 . S
H1638 C1658 0.950 . S
H1639 C1659 0.950 . S
H1640 C1661 0.950 . S
H1641 C1664 0.950 . S
H1642 C1665 0.950 . S
H1643 C1667 0.950 . S
H1644 C1668 0.950 . S
H1645 C1669 0.951 . S
H1646 C1671 0.951 . S
H1647 C1673 0.950 . S
H1648 C1674 0.950 . S
H1649 C1676 0.950 . S
H1650 C1679 0.950 . S
H1651 C1680 0.950 . S
H1652 C1682 0.950 . S
H1653 C1683 0.950 . S
C1654 H1636 0.951 . S
C1654 C1655 1.366 . S
C1654 C1656 1.388 . S
C1655 C1654 1.366 . S
C1655 C1659 1.385 . S
C1656 H1637 0.951 . S
C1656 C1654 1.388 . S
C1656 C1657 1.366 . S
C1657 C1656 1.366 . S
C1657 C1658 1.414 . S
C1657 C1660 1.499 . S
C1658 H1638 0.950 . S
C1658 C1657 1.414 . S
C1658 C1659 1.374 . S
C1659 H1639 0.950 . S
C1659 C1655 1.385 . S
C1659 C1658 1.374 . S
C1660 C1657 1.499 . S
C1660 C1661 1.373 . S
C1660 C1662 1.389 . S
C1661 H1640 0.950 . S
C1661 C1660 1.373 . S
C1661 C1677 1.377 1_655 S
C1662 C1660 1.389 . S
C1662 C1663 1.524 . S
C1662 C1676 1.377 1_655 S
C1663 C1662 1.524 . S
C1663 C1664 1.397 . S
C1663 C1668 1.363 . S
C1664 H1641 0.950 . S
C1664 C1663 1.397 . S
C1664 C1665 1.334 . S
C1665 H1642 0.950 . S
C1665 C1664 1.334 . S
C1665 C1666 1.287 . S
C1666 C1665 1.287 . S
C1666 C1667 1.524 . S
C1666 H1685 0.913 . S
C1667 H1643 0.950 . S
C1667 C1666 1.524 . S
C1667 C1668 1.415 . S
C1668 H1644 0.950 . S
C1668 C1663 1.363 . S
C1668 C1667 1.415 . S
C1669 H1645 0.951 . S
C1669 C1670 1.366 . S
C1669 C1671 1.388 . S
C1670 C1669 1.366 . S
C1670 C1674 1.385 . S
C1671 H1646 0.951 . S
C1671 C1669 1.388 . S
C1671 C1672 1.366 . S
C1672 C1671 1.366 . S
C1672 C1673 1.414 . S
C1672 C1675 1.499 . S
C1673 H1647 0.950 . S
C1673 C1672 1.414 . S
C1673 C1674 1.374 . S
C1674 H1648 0.950 . S
C1674 C1670 1.385 . S
C1674 C1673 1.374 . S
C1675 C1672 1.499 . S
C1675 C1676 1.373 . S
C1675 C1677 1.389 . S
C1676 H1649 0.950 . S
C1676 C1662 1.377 1_455 S
C1676 C1675 1.373 . S
C1677 C1661 1.377 1_455 S
C1677 C1675 1.389 . S
C1677 C1678 1.524 . S
C1678 C1677 1.524 . S
C1678 C1679 1.397 . S
C1678 C1683 1.363 . S
C1679 H1650 0.950 . S
C1679 C1678 1.397 . S
C1679 C1680 1.334 . S
C1680 H1651 0.950 . S
C1680 C1679 1.334 . S
C1680 C1681 1.287 . S
C1681 C1680 1.287 . S
C1681 C1682 1.524 . S
C1681 H1684 0.999 . S
C1682 H1652 0.950 . S
C1682 C1681 1.524 . S
C1682 C1683 1.415 . S
C1683 H1653 0.950 . S
C1683 C1678 1.363 . S
C1683 C1682 1.415 . S
H1684 C1681 0.999 . S
H1685 C1666 0.913 . S
H1686 C1704 0.951 . S
H1687 C1706 0.951 . S
H1688 C1708 0.950 . S
H1689 C1709 0.950 . S
H1690 C1711 0.950 . S
H1691 C1714 0.950 . S
H1692 C1715 0.950 . S
H1693 C1717 0.950 . S
H1694 C1718 0.950 . S
H1695 C1719 0.951 . S
H1696 C1721 0.951 . S
H1697 C1723 0.950 . S
H1698 C1724 0.950 . S
H1699 C1726 0.950 . S
H1700 C1729 0.950 . S
H1701 C1730 0.950 . S
H1702 C1732 0.950 . S
H1703 C1733 0.950 . S
C1704 H1686 0.951 . S
C1704 C1705 1.366 . S
C1704 C1706 1.388 . S
C1705 C1704 1.366 . S
C1705 C1709 1.385 . S
C1706 H1687 0.951 . S
C1706 C1704 1.388 . S
C1706 C1707 1.366 . S
C1707 C1706 1.366 . S
C1707 C1708 1.414 . S
C1707 C1710 1.499 . S
C1708 H1688 0.950 . S
C1708 C1707 1.414 . S
C1708 C1709 1.374 . S
C1709 H1689 0.950 . S
C1709 C1705 1.385 . S
C1709 C1708 1.374 . S
C1710 C1707 1.499 . S
C1710 C1711 1.373 . S
C1710 C1712 1.389 . S
C1711 H1690 0.950 . S
C1711 C1710 1.373 . S
C1711 C1727 1.377 1_545 S
C1712 C1710 1.389 . S
C1712 C1713 1.524 . S
C1712 C1726 1.377 1_545 S
C1713 C1712 1.524 . S
C1713 C1714 1.397 . S
C1713 C1718 1.363 . S
C1714 H1691 0.950 . S
C1714 C1713 1.397 . S
C1714 C1715 1.334 . S
C1715 H1692 0.950 . S
C1715 C1714 1.334 . S
C1715 C1716 1.287 . S
C1716 C1715 1.287 . S
C1716 C1717 1.524 . S
C1716 H1735 0.913 . S
C1717 H1693 0.950 . S
C1717 C1716 1.524 . S
C1717 C1718 1.415 . S
C1718 H1694 0.950 . S
C1718 C1713 1.363 . S
C1718 C1717 1.415 . S
C1719 H1695 0.951 . S
C1719 C1720 1.366 . S
C1719 C1721 1.388 . S
C1720 C1719 1.366 . S
C1720 C1724 1.385 . S
C1721 H1696 0.951 . S
C1721 C1719 1.388 . S
C1721 C1722 1.366 . S
C1722 C1721 1.366 . S
C1722 C1723 1.414 . S
C1722 C1725 1.499 . S
C1723 H1697 0.950 . S
C1723 C1722 1.414 . S
C1723 C1724 1.374 . S
C1724 H1698 0.950 . S
C1724 C1720 1.385 . S
C1724 C1723 1.374 . S
C1725 C1722 1.499 . S
C1725 C1726 1.373 . S
C1725 C1727 1.389 . S
C1726 H1699 0.950 . S
C1726 C1712 1.377 1_565 S
C1726 C1725 1.373 . S
C1727 C1711 1.377 1_565 S
C1727 C1725 1.389 . S
C1727 C1728 1.524 . S
C1728 C1727 1.524 . S
C1728 C1729 1.397 . S
C1728 C1733 1.363 . S
C1729 H1700 0.950 . S
C1729 C1728 1.397 . S
C1729 C1730 1.334 . S
C1730 H1701 0.950 . S
C1730 C1729 1.334 . S
C1730 C1731 1.287 . S
C1731 C1730 1.287 . S
C1731 C1732 1.524 . S
C1731 H1734 0.999 . S
C1732 H1702 0.950 . S
C1732 C1731 1.524 . S
C1732 C1733 1.415 . S
C1733 H1703 0.950 . S
C1733 C1728 1.363 . S
C1733 C1732 1.415 . S
H1734 C1731 0.999 . S
H1735 C1716 0.913 . S
H1736 C1754 0.951 . S
H1737 C1756 0.951 . S
H1738 C1758 0.950 . S
H1739 C1759 0.950 . S
H1740 C1761 0.950 . S
H1741 C1764 0.950 . S
H1742 C1765 0.950 . S
H1743 C1767 0.950 . S
H1744 C1768 0.950 . S
H1745 C1769 0.951 . S
H1746 C1771 0.951 . S
H1747 C1773 0.950 . S
H1748 C1774 0.950 . S
H1749 C1776 0.950 . S
H1750 C1779 0.950 . S
H1751 C1780 0.950 . S
H1752 C1782 0.950 . S
H1753 C1783 0.950 . S
C1754 H1736 0.951 . S
C1754 C1755 1.366 . S
C1754 C1756 1.388 . S
C1755 C1754 1.366 . S
C1755 C1759 1.385 . S
C1756 H1737 0.951 . S
C1756 C1754 1.388 . S
C1756 C1757 1.366 . S
C1757 C1756 1.366 . S
C1757 C1758 1.414 . S
C1757 C1760 1.499 . S
C1758 H1738 0.950 . S
C1758 C1757 1.414 . S
C1758 C1759 1.374 . S
C1759 H1739 0.950 . S
C1759 C1755 1.385 . S
C1759 C1758 1.374 . S
C1760 C1757 1.499 . S
C1760 C1761 1.373 . S
C1760 C1762 1.389 . S
C1761 H1740 0.950 . S
C1761 C1760 1.373 . S
C1761 C1777 1.377 1_565 S
C1762 C1760 1.389 . S
C1762 C1763 1.524 . S
C1762 C1776 1.377 1_565 S
C1763 C1762 1.524 . S
C1763 C1764 1.397 . S
C1763 C1768 1.363 . S
C1764 H1741 0.950 . S
C1764 C1763 1.397 . S
C1764 C1765 1.334 . S
C1765 H1742 0.950 . S
C1765 C1764 1.334 . S
C1765 C1766 1.287 . S
C1766 C1765 1.287 . S
C1766 C1767 1.524 . S
C1766 H1785 0.913 . S
C1767 H1743 0.950 . S
C1767 C1766 1.524 . S
C1767 C1768 1.415 . S
C1768 H1744 0.950 . S
C1768 C1763 1.363 . S
C1768 C1767 1.415 . S
C1769 H1745 0.951 . S
C1769 C1770 1.366 . S
C1769 C1771 1.388 . S
C1770 C1769 1.366 . S
C1770 C1774 1.385 . S
C1771 H1746 0.951 . S
C1771 C1769 1.388 . S
C1771 C1772 1.366 . S
C1772 C1771 1.366 . S
C1772 C1773 1.414 . S
C1772 C1775 1.499 . S
C1773 H1747 0.950 . S
C1773 C1772 1.414 . S
C1773 C1774 1.374 . S
C1774 H1748 0.950 . S
C1774 C1770 1.385 . S
C1774 C1773 1.374 . S
C1775 C1772 1.499 . S
C1775 C1776 1.373 . S
C1775 C1777 1.389 . S
C1776 H1749 0.950 . S
C1776 C1762 1.377 1_545 S
C1776 C1775 1.373 . S
C1777 C1761 1.377 1_545 S
C1777 C1775 1.389 . S
C1777 C1778 1.524 . S
C1778 C1777 1.524 . S
C1778 C1779 1.397 . S
C1778 C1783 1.363 . S
C1779 H1750 0.950 . S
C1779 C1778 1.397 . S
C1779 C1780 1.334 . S
C1780 H1751 0.950 . S
C1780 C1779 1.334 . S
C1780 C1781 1.287 . S
C1781 C1780 1.287 . S
C1781 C1782 1.524 . S
C1781 H1784 0.999 . S
C1782 H1752 0.950 . S
C1782 C1781 1.524 . S
C1782 C1783 1.415 . S
C1783 H1753 0.950 . S
C1783 C1778 1.363 . S
C1783 C1782 1.415 . S
H1784 C1781 0.999 . S
H1785 C1766 0.913 . S
H1786 C1804 0.951 . S
H1787 C1806 0.951 . S
H1788 C1808 0.950 . S
H1789 C1809 0.950 . S
H1790 C1811 0.950 . S
H1791 C1814 0.950 . S
H1792 C1815 0.950 . S
H1793 C1817 0.950 . S
H1794 C1818 0.950 . S
H1795 C1819 0.951 . S
H1796 C1821 0.951 . S
H1797 C1823 0.950 . S
H1798 C1824 0.950 . S
H1799 C1826 0.950 . S
H1800 C1829 0.950 . S
H1801 C1830 0.950 . S
H1802 C1832 0.950 . S
H1803 C1833 0.950 . S
C1804 H1786 0.951 . S
C1804 C1805 1.366 . S
C1804 C1806 1.388 . S
C1805 C1804 1.366 . S
C1805 C1809 1.385 . S
C1806 H1787 0.951 . S
C1806 C1804 1.388 . S
C1806 C1807 1.366 . S
C1807 C1806 1.366 . S
C1807 C1808 1.414 . S
C1807 C1810 1.499 . S
C1808 H1788 0.950 . S
C1808 C1807 1.414 . S
C1808 C1809 1.374 . S
C1809 H1789 0.950 . S
C1809 C1805 1.385 . S
C1809 C1808 1.374 . S
C1810 C1807 1.499 . S
C1810 C1811 1.373 . S
C1810 C1812 1.389 . S
C1811 H1790 0.950 . S
C1811 C1810 1.373 . S
C1811 C1827 1.377 1_655 S
C1812 C1810 1.389 . S
C1812 C1813 1.524 . S
C1812 C1826 1.377 1_655 S
C1813 C1812 1.524 . S
C1813 C1814 1.397 . S
C1813 C1818 1.363 . S
C1814 H1791 0.950 . S
C1814 C1813 1.397 . S
C1814 C1815 1.334 . S
C1815 H1792 0.950 . S
C1815 C1814 1.334 . S
C1815 C1816 1.287 . S
C1816 C1815 1.287 . S
C1816 C1817 1.524 . S
C1816 H1835 0.913 . S
C1817 H1793 0.950 . S
C1817 C1816 1.524 . S
C1817 C1818 1.415 . S
C1818 H1794 0.950 . S
C1818 C1813 1.363 . S
C1818 C1817 1.415 . S
C1819 H1795 0.951 . S
C1819 C1820 1.366 . S
C1819 C1821 1.388 . S
C1820 C1819 1.366 . S
C1820 C1824 1.385 . S
C1821 H1796 0.951 . S
C1821 C1819 1.388 . S
C1821 C1822 1.366 . S
C1822 C1821 1.366 . S
C1822 C1823 1.414 . S
C1822 C1825 1.499 . S
C1823 H1797 0.950 . S
C1823 C1822 1.414 . S
C1823 C1824 1.374 . S
C1824 H1798 0.950 . S
C1824 C1820 1.385 . S
C1824 C1823 1.374 . S
C1825 C1822 1.499 . S
C1825 C1826 1.373 . S
C1825 C1827 1.389 . S
C1826 H1799 0.950 . S
C1826 C1812 1.377 1_455 S
C1826 C1825 1.373 . S
C1827 C1811 1.377 1_455 S
C1827 C1825 1.389 . S
C1827 C1828 1.524 . S
C1828 C1827 1.524 . S
C1828 C1829 1.397 . S
C1828 C1833 1.363 . S
C1829 H1800 0.950 . S
C1829 C1828 1.397 . S
C1829 C1830 1.334 . S
C1830 H1801 0.950 . S
C1830 C1829 1.334 . S
C1830 C1831 1.287 . S
C1831 C1830 1.287 . S
C1831 C1832 1.524 . S
C1831 H1834 0.999 . S
C1832 H1802 0.950 . S
C1832 C1831 1.524 . S
C1832 C1833 1.415 . S
C1833 H1803 0.950 . S
C1833 C1828 1.363 . S
C1833 C1832 1.415 . S
H1834 C1831 0.999 . S
H1835 C1816 0.913 . S
H1836 C1854 0.951 . S
H1837 C1856 0.951 . S
H1838 C1858 0.950 . S
H1839 C1859 0.950 . S
H1840 C1861 0.950 . S
H1841 C1864 0.950 . S
H1842 C1865 0.950 . S
H1843 C1867 0.950 . S
H1844 C1868 0.950 . S
H1845 C1869 0.951 . S
H1846 C1871 0.951 . S
H1847 C1873 0.950 . S
H1848 C1874 0.950 . S
H1849 C1876 0.950 . S
H1850 C1879 0.950 . S
H1851 C1880 0.950 . S
H1852 C1882 0.950 . S
H1853 C1883 0.950 . S
C1854 H1836 0.951 . S
C1854 C1855 1.366 . S
C1854 C1856 1.388 . S
C1855 C1854 1.366 . S
C1855 C1859 1.385 . S
C1856 H1837 0.951 . S
C1856 C1854 1.388 . S
C1856 C1857 1.366 . S
C1857 C1856 1.366 . S
C1857 C1858 1.414 . S
C1857 C1860 1.499 . S
C1858 H1838 0.950 . S
C1858 C1857 1.414 . S
C1858 C1859 1.374 . S
C1859 H1839 0.950 . S
C1859 C1855 1.385 . S
C1859 C1858 1.374 . S
C1860 C1857 1.499 . S
C1860 C1861 1.373 . S
C1860 C1862 1.389 . S
C1861 H1840 0.950 . S
C1861 C1860 1.373 . S
C1861 C1877 1.377 1_565 S
C1862 C1860 1.389 . S
C1862 C1863 1.524 . S
C1862 C1876 1.377 1_565 S
C1863 C1862 1.524 . S
C1863 C1864 1.397 . S
C1863 C1868 1.363 . S
C1864 H1841 0.950 . S
C1864 C1863 1.397 . S
C1864 C1865 1.334 . S
C1865 H1842 0.950 . S
C1865 C1864 1.334 . S
C1865 C1866 1.287 . S
C1866 C1865 1.287 . S
C1866 C1867 1.524 . S
C1866 H1885 0.913 . S
C1867 H1843 0.950 . S
C1867 C1866 1.524 . S
C1867 C1868 1.415 . S
C1868 H1844 0.950 . S
C1868 C1863 1.363 . S
C1868 C1867 1.415 . S
C1869 H1845 0.951 . S
C1869 C1870 1.366 . S
C1869 C1871 1.388 . S
C1870 C1869 1.366 . S
C1870 C1874 1.385 . S
C1871 H1846 0.951 . S
C1871 C1869 1.388 . S
C1871 C1872 1.366 . S
C1872 C1871 1.366 . S
C1872 C1873 1.414 . S
C1872 C1875 1.499 . S
C1873 H1847 0.950 . S
C1873 C1872 1.414 . S
C1873 C1874 1.374 . S
C1874 H1848 0.950 . S
C1874 C1870 1.385 . S
C1874 C1873 1.374 . S
C1875 C1872 1.499 . S
C1875 C1876 1.373 . S
C1875 C1877 1.389 . S
C1876 H1849 0.950 . S
C1876 C1862 1.377 1_545 S
C1876 C1875 1.373 . S
C1877 C1861 1.377 1_545 S
C1877 C1875 1.389 . S
C1877 C1878 1.524 . S
C1878 C1877 1.524 . S
C1878 C1879 1.397 . S
C1878 C1883 1.363 . S
C1879 H1850 0.950 . S
C1879 C1878 1.397 . S
C1879 C1880 1.334 . S
C1880 H1851 0.950 . S
C1880 C1879 1.334 . S
C1880 C1881 1.287 . S
C1881 C1880 1.287 . S
C1881 C1882 1.524 . S
C1881 H1884 0.999 . S
C1882 H1852 0.950 . S
C1882 C1881 1.524 . S
C1882 C1883 1.415 . S
C1883 H1853 0.950 . S
C1883 C1878 1.363 . S
C1883 C1882 1.415 . S
H1884 C1881 0.999 . S
H1885 C1866 0.913 . S
H1886 C1904 0.951 . S
H1887 C1906 0.951 . S
H1888 C1908 0.950 . S
H1889 C1909 0.950 . S
H1890 C1911 0.950 . S
H1891 C1914 0.950 . S
H1892 C1915 0.950 . S
H1893 C1917 0.950 . S
H1894 C1918 0.950 . S
H1895 C1919 0.951 . S
H1896 C1921 0.951 . S
H1897 C1923 0.950 . S
H1898 C1924 0.950 . S
H1899 C1926 0.950 . S
H1900 C1929 0.950 . S
H1901 C1930 0.950 . S
H1902 C1932 0.950 . S
H1903 C1933 0.950 . S
C1904 H1886 0.951 . S
C1904 C1905 1.366 . S
C1904 C1906 1.388 . S
C1905 C1904 1.366 . S
C1905 C1909 1.385 . S
C1906 H1887 0.951 . S
C1906 C1904 1.388 . S
C1906 C1907 1.366 . S
C1907 C1906 1.366 . S
C1907 C1908 1.414 . S
C1907 C1910 1.499 . S
C1908 H1888 0.950 . S
C1908 C1907 1.414 . S
C1908 C1909 1.374 . S
C1909 H1889 0.950 . S
C1909 C1905 1.385 . S
C1909 C1908 1.374 . S
C1910 C1907 1.499 . S
C1910 C1911 1.373 . S
C1910 C1912 1.389 . S
C1911 H1890 0.950 . S
C1911 C1910 1.373 . S
C1911 C1927 1.377 1_655 S
C1912 C1910 1.389 . S
C1912 C1913 1.524 . S
C1912 C1926 1.377 1_655 S
C1913 C1912 1.524 . S
C1913 C1914 1.397 . S
C1913 C1918 1.363 . S
C1914 H1891 0.950 . S
C1914 C1913 1.397 . S
C1914 C1915 1.334 . S
C1915 H1892 0.950 . S
C1915 C1914 1.334 . S
C1915 C1916 1.287 . S
C1916 C1915 1.287 . S
C1916 C1917 1.524 . S
C1916 H1935 0.913 . S
C1917 H1893 0.950 . S
C1917 C1916 1.524 . S
C1917 C1918 1.415 . S
C1918 H1894 0.950 . S
C1918 C1913 1.363 . S
C1918 C1917 1.415 . S
C1919 H1895 0.951 . S
C1919 C1920 1.366 . S
C1919 C1921 1.388 . S
C1920 C1919 1.366 . S
C1920 C1924 1.385 . S
C1921 H1896 0.951 . S
C1921 C1919 1.388 . S
C1921 C1922 1.366 . S
C1922 C1921 1.366 . S
C1922 C1923 1.414 . S
C1922 C1925 1.499 . S
C1923 H1897 0.950 . S
C1923 C1922 1.414 . S
C1923 C1924 1.374 . S
C1924 H1898 0.950 . S
C1924 C1920 1.385 . S
C1924 C1923 1.374 . S
C1925 C1922 1.499 . S
C1925 C1926 1.373 . S
C1925 C1927 1.389 . S
C1926 H1899 0.950 . S
C1926 C1912 1.377 1_455 S
C1926 C1925 1.373 . S
C1927 C1911 1.377 1_455 S
C1927 C1925 1.389 . S
C1927 C1928 1.524 . S
C1928 C1927 1.524 . S
C1928 C1929 1.397 . S
C1928 C1933 1.363 . S
C1929 H1900 0.950 . S
C1929 C1928 1.397 . S
C1929 C1930 1.334 . S
C1930 H1901 0.950 . S
C1930 C1929 1.334 . S
C1930 C1931 1.287 . S
C1931 C1930 1.287 . S
C1931 C1932 1.524 . S
C1931 H1934 0.999 . S
C1932 H1902 0.950 . S
C1932 C1931 1.524 . S
C1932 C1933 1.415 . S
C1933 H1903 0.950 . S
C1933 C1928 1.363 . S
C1933 C1932 1.415 . S
H1934 C1931 0.999 . S
H1935 C1916 0.913 . S
H1936 C1954 0.951 . S
H1937 C1956 0.951 . S
H1938 C1958 0.950 . S
H1939 C1959 0.950 . S
H1940 C1961 0.950 . S
H1941 C1964 0.950 . S
H1942 C1965 0.950 . S
H1943 C1967 0.950 . S
H1944 C1968 0.950 . S
H1945 C1969 0.951 . S
H1946 C1971 0.951 . S
H1947 C1973 0.950 . S
H1948 C1974 0.950 . S
H1949 C1976 0.950 . S
H1950 C1979 0.950 . S
H1951 C1980 0.950 . S
H1952 C1982 0.950 . S
H1953 C1983 0.950 . S
C1954 H1936 0.951 . S
C1954 C1955 1.366 . S
C1954 C1956 1.388 . S
C1955 C1954 1.366 . S
C1955 C1959 1.385 . S
C1956 H1937 0.951 . S
C1956 C1954 1.388 . S
C1956 C1957 1.366 . S
C1957 C1956 1.366 . S
C1957 C1958 1.414 . S
C1957 C1960 1.499 . S
C1958 H1938 0.950 . S
C1958 C1957 1.414 . S
C1958 C1959 1.374 . S
C1959 H1939 0.950 . S
C1959 C1955 1.385 . S
C1959 C1958 1.374 . S
C1960 C1957 1.499 . S
C1960 C1961 1.373 . S
C1960 C1962 1.389 . S
C1961 H1940 0.950 . S
C1961 C1960 1.373 . S
C1961 C1977 1.377 1_556 S
C1962 C1960 1.389 . S
C1962 C1963 1.524 . S
C1962 C1976 1.377 1_556 S
C1963 C1962 1.524 . S
C1963 C1964 1.397 . S
C1963 C1968 1.363 . S
C1964 H1941 0.950 . S
C1964 C1963 1.397 . S
C1964 C1965 1.334 . S
C1965 H1942 0.950 . S
C1965 C1964 1.334 . S
C1965 C1966 1.287 . S
C1966 C1965 1.287 . S
C1966 C1967 1.524 . S
C1966 H1985 0.913 . S
C1967 H1943 0.950 . S
C1967 C1966 1.524 . S
C1967 C1968 1.415 . S
C1968 H1944 0.950 . S
C1968 C1963 1.363 . S
C1968 C1967 1.415 . S
C1969 H1945 0.951 . S
C1969 C1970 1.366 . S
C1969 C1971 1.388 . S
C1970 C1969 1.366 . S
C1970 C1974 1.385 . S
C1971 H1946 0.951 . S
C1971 C1969 1.388 . S
C1971 C1972 1.366 . S
C1972 C1971 1.366 . S
C1972 C1973 1.414 . S
C1972 C1975 1.499 . S
C1973 H1947 0.950 . S
C1973 C1972 1.414 . S
C1973 C1974 1.374 . S
C1974 H1948 0.950 . S
C1974 C1970 1.385 . S
C1974 C1973 1.374 . S
C1975 C1972 1.499 . S
C1975 C1976 1.373 . S
C1975 C1977 1.389 . S
C1976 H1949 0.950 . S
C1976 C1962 1.377 1_554 S
C1976 C1975 1.373 . S
C1977 C1961 1.377 1_554 S
C1977 C1975 1.389 . S
C1977 C1978 1.524 . S
C1978 C1977 1.524 . S
C1978 C1979 1.397 . S
C1978 C1983 1.363 . S
C1979 H1950 0.950 . S
C1979 C1978 1.397 . S
C1979 C1980 1.334 . S
C1980 H1951 0.950 . S
C1980 C1979 1.334 . S
C1980 C1981 1.287 . S
C1981 C1980 1.287 . S
C1981 C1982 1.524 . S
C1981 H1984 0.999 . S
C1982 H1952 0.950 . S
C1982 C1981 1.524 . S
C1982 C1983 1.415 . S
C1983 H1953 0.950 . S
C1983 C1978 1.363 . S
C1983 C1982 1.415 . S
H1984 C1981 0.999 . S
H1985 C1966 0.913 . S
H1986 C2004 0.951 . S
H1987 C2006 0.951 . S
H1988 C2008 0.950 . S
H1989 C2009 0.950 . S
H1990 C2011 0.950 . S
H1991 C2014 0.950 . S
H1992 C2015 0.950 . S
H1993 C2017 0.950 . S
H1994 C2018 0.950 . S
H1995 C2019 0.951 . S
H1996 C2021 0.951 . S
H1997 C2023 0.950 . S
H1998 C2024 0.950 . S
H1999 C2026 0.950 . S
H2000 C2029 0.950 . S
H2001 C2030 0.950 . S
H2002 C2032 0.950 . S
H2003 C2033 0.950 . S
C2004 H1986 0.951 . S
C2004 C2005 1.366 . S
C2004 C2006 1.388 . S
C2005 C2004 1.366 . S
C2005 C2009 1.385 . S
C2006 H1987 0.951 . S
C2006 C2004 1.388 . S
C2006 C2007 1.366 . S
C2007 C2006 1.366 . S
C2007 C2008 1.414 . S
C2007 C2010 1.499 . S
C2008 H1988 0.950 . S
C2008 C2007 1.414 . S
C2008 C2009 1.374 . S
C2009 H1989 0.950 . S
C2009 C2005 1.385 . S
C2009 C2008 1.374 . S
C2010 C2007 1.499 . S
C2010 C2011 1.373 . S
C2010 C2012 1.389 . S
C2011 H1990 0.950 . S
C2011 C2010 1.373 . S
C2011 C2027 1.377 1_556 S
C2012 C2010 1.389 . S
C2012 C2013 1.524 . S
C2012 C2026 1.377 1_556 S
C2013 C2012 1.524 . S
C2013 C2014 1.397 . S
C2013 C2018 1.363 . S
C2014 H1991 0.950 . S
C2014 C2013 1.397 . S
C2014 C2015 1.334 . S
C2015 H1992 0.950 . S
C2015 C2014 1.334 . S
C2015 C2016 1.287 . S
C2016 C2015 1.287 . S
C2016 C2017 1.524 . S
C2016 H2035 0.913 . S
C2017 H1993 0.950 . S
C2017 C2016 1.524 . S
C2017 C2018 1.415 . S
C2018 H1994 0.950 . S
C2018 C2013 1.363 . S
C2018 C2017 1.415 . S
C2019 H1995 0.951 . S
C2019 C2020 1.366 . S
C2019 C2021 1.388 . S
C2020 C2019 1.366 . S
C2020 C2024 1.385 . S
C2021 H1996 0.951 . S
C2021 C2019 1.388 . S
C2021 C2022 1.366 . S
C2022 C2021 1.366 . S
C2022 C2023 1.414 . S
C2022 C2025 1.499 . S
C2023 H1997 0.950 . S
C2023 C2022 1.414 . S
C2023 C2024 1.374 . S
C2024 H1998 0.950 . S
C2024 C2020 1.385 . S
C2024 C2023 1.374 . S
C2025 C2022 1.499 . S
C2025 C2026 1.373 . S
C2025 C2027 1.389 . S
C2026 H1999 0.950 . S
C2026 C2012 1.377 1_554 S
C2026 C2025 1.373 . S
C2027 C2011 1.377 1_554 S
C2027 C2025 1.389 . S
C2027 C2028 1.524 . S
C2028 C2027 1.524 . S
C2028 C2029 1.397 . S
C2028 C2033 1.363 . S
C2029 H2000 0.950 . S
C2029 C2028 1.397 . S
C2029 C2030 1.334 . S
C2030 H2001 0.950 . S
C2030 C2029 1.334 . S
C2030 C2031 1.287 . S
C2031 C2030 1.287 . S
C2031 C2032 1.524 . S
C2031 H2034 0.999 . S
C2032 H2002 0.950 . S
C2032 C2031 1.524 . S
C2032 C2033 1.415 . S
C2033 H2003 0.950 . S
C2033 C2028 1.363 . S
C2033 C2032 1.415 . S
H2034 C2031 0.999 . S
H2035 C2016 0.913 . S
H2036 C2054 0.951 . S
H2037 C2056 0.951 . S
H2038 C2058 0.950 . S
H2039 C2059 0.950 . S
H2040 C2061 0.950 . S
H2041 C2064 0.950 . S
H2042 C2065 0.950 . S
H2043 C2067 0.950 . S
H2044 C2068 0.950 . S
H2045 C2069 0.951 . S
H2046 C2071 0.951 . S
H2047 C2073 0.950 . S
H2048 C2074 0.950 . S
H2049 C2076 0.950 . S
H2050 C2079 0.950 . S
H2051 C2080 0.950 . S
H2052 C2082 0.950 . S
H2053 C2083 0.950 . S
C2054 H2036 0.951 . S
C2054 C2055 1.366 . S
C2054 C2056 1.388 . S
C2055 C2054 1.366 . S
C2055 C2059 1.385 . S
C2056 H2037 0.951 . S
C2056 C2054 1.388 . S
C2056 C2057 1.366 . S
C2057 C2056 1.366 . S
C2057 C2058 1.414 . S
C2057 C2060 1.499 . S
C2058 H2038 0.950 . S
C2058 C2057 1.414 . S
C2058 C2059 1.374 . S
C2059 H2039 0.950 . S
C2059 C2055 1.385 . S
C2059 C2058 1.374 . S
C2060 C2057 1.499 . S
C2060 C2061 1.373 . S
C2060 C2062 1.389 . S
C2061 H2040 0.950 . S
C2061 C2060 1.373 . S
C2061 C2077 1.377 1_556 S
C2062 C2060 1.389 . S
C2062 C2063 1.524 . S
C2062 C2076 1.377 1_556 S
C2063 C2062 1.524 . S
C2063 C2064 1.397 . S
C2063 C2068 1.363 . S
C2064 H2041 0.950 . S
C2064 C2063 1.397 . S
C2064 C2065 1.334 . S
C2065 H2042 0.950 . S
C2065 C2064 1.334 . S
C2065 C2066 1.287 . S
C2066 C2065 1.287 . S
C2066 C2067 1.524 . S
C2066 H2085 0.913 . S
C2067 H2043 0.950 . S
C2067 C2066 1.524 . S
C2067 C2068 1.415 . S
C2068 H2044 0.950 . S
C2068 C2063 1.363 . S
C2068 C2067 1.415 . S
C2069 H2045 0.951 . S
C2069 C2070 1.366 . S
C2069 C2071 1.388 . S
C2070 C2069 1.366 . S
C2070 C2074 1.385 . S
C2071 H2046 0.951 . S
C2071 C2069 1.388 . S
C2071 C2072 1.366 . S
C2072 C2071 1.366 . S
C2072 C2073 1.414 . S
C2072 C2075 1.499 . S
C2073 H2047 0.950 . S
C2073 C2072 1.414 . S
C2073 C2074 1.374 . S
C2074 H2048 0.950 . S
C2074 C2070 1.385 . S
C2074 C2073 1.374 . S
C2075 C2072 1.499 . S
C2075 C2076 1.373 . S
C2075 C2077 1.389 . S
C2076 H2049 0.950 . S
C2076 C2062 1.377 1_554 S
C2076 C2075 1.373 . S
C2077 C2061 1.377 1_554 S
C2077 C2075 1.389 . S
C2077 C2078 1.524 . S
C2078 C2077 1.524 . S
C2078 C2079 1.397 . S
C2078 C2083 1.363 . S
C2079 H2050 0.950 . S
C2079 C2078 1.397 . S
C2079 C2080 1.334 . S
C2080 H2051 0.950 . S
C2080 C2079 1.334 . S
C2080 C2081 1.287 . S
C2081 C2080 1.287 . S
C2081 C2082 1.524 . S
C2081 H2084 0.999 . S
C2082 H2052 0.950 . S
C2082 C2081 1.524 . S
C2082 C2083 1.415 . S
C2083 H2053 0.950 . S
C2083 C2078 1.363 . S
C2083 C2082 1.415 . S
H2084 C2081 0.999 . S
H2085 C2066 0.913 . S
H2086 C2104 0.951 . S
H2087 C2106 0.951 . S
H2088 C2108 0.950 . S
H2089 C2109 0.950 . S
H2090 C2111 0.950 . S
H2091 C2114 0.950 . S
H2092 C2115 0.950 . S
H2093 C2117 0.950 . S
H2094 C2118 0.950 . S
H2095 C2119 0.951 . S
H2096 C2121 0.951 . S
H2097 C2123 0.950 . S
H2098 C2124 0.950 . S
H2099 C2126 0.950 . S
H2100 C2129 0.950 . S
H2101 C2130 0.950 . S
H2102 C2132 0.950 . S
H2103 C2133 0.950 . S
C2104 H2086 0.951 . S
C2104 C2105 1.366 . S
C2104 C2106 1.388 . S
C2105 C2104 1.366 . S
C2105 C2109 1.385 . S
C2106 H2087 0.951 . S
C2106 C2104 1.388 . S
C2106 C2107 1.366 . S
C2107 C2106 1.366 . S
C2107 C2108 1.414 . S
C2107 C2110 1.499 . S
C2108 H2088 0.950 . S
C2108 C2107 1.414 . S
C2108 C2109 1.374 . S
C2109 H2089 0.950 . S
C2109 C2105 1.385 . S
C2109 C2108 1.374 . S
C2110 C2107 1.499 . S
C2110 C2111 1.373 . S
C2110 C2112 1.389 . S
C2111 H2090 0.950 . S
C2111 C2110 1.373 . S
C2111 C2127 1.377 1_556 S
C2112 C2110 1.389 . S
C2112 C2113 1.524 . S
C2112 C2126 1.377 1_556 S
C2113 C2112 1.524 . S
C2113 C2114 1.397 . S
C2113 C2118 1.363 . S
C2114 H2091 0.950 . S
C2114 C2113 1.397 . S
C2114 C2115 1.334 . S
C2115 H2092 0.950 . S
C2115 C2114 1.334 . S
C2115 C2116 1.287 . S
C2116 C2115 1.287 . S
C2116 C2117 1.524 . S
C2116 H2135 0.913 . S
C2117 H2093 0.950 . S
C2117 C2116 1.524 . S
C2117 C2118 1.415 . S
C2118 H2094 0.950 . S
C2118 C2113 1.363 . S
C2118 C2117 1.415 . S
C2119 H2095 0.951 . S
C2119 C2120 1.366 . S
C2119 C2121 1.388 . S
C2120 C2119 1.366 . S
C2120 C2124 1.385 . S
C2121 H2096 0.951 . S
C2121 C2119 1.388 . S
C2121 C2122 1.366 . S
C2122 C2121 1.366 . S
C2122 C2123 1.414 . S
C2122 C2125 1.499 . S
C2123 H2097 0.950 . S
C2123 C2122 1.414 . S
C2123 C2124 1.374 . S
C2124 H2098 0.950 . S
C2124 C2120 1.385 . S
C2124 C2123 1.374 . S
C2125 C2122 1.499 . S
C2125 C2126 1.373 . S
C2125 C2127 1.389 . S
C2126 H2099 0.950 . S
C2126 C2112 1.377 1_554 S
C2126 C2125 1.373 . S
C2127 C2111 1.377 1_554 S
C2127 C2125 1.389 . S
C2127 C2128 1.524 . S
C2128 C2127 1.524 . S
C2128 C2129 1.397 . S
C2128 C2133 1.363 . S
C2129 H2100 0.950 . S
C2129 C2128 1.397 . S
C2129 C2130 1.334 . S
C2130 H2101 0.950 . S
C2130 C2129 1.334 . S
C2130 C2131 1.287 . S
C2131 C2130 1.287 . S
C2131 C2132 1.524 . S
C2131 H2134 0.999 . S
C2132 H2102 0.950 . S
C2132 C2131 1.524 . S
C2132 C2133 1.415 . S
C2133 H2103 0.950 . S
C2133 C2128 1.363 . S
C2133 C2132 1.415 . S
H2134 C2131 0.999 . S
H2135 C2116 0.913 . S
H2136 C2154 0.951 . S
H2137 C2156 0.951 . S
H2138 C2158 0.950 . S
H2139 C2159 0.950 . S
H2140 C2161 0.950 . S
H2141 C2164 0.950 . S
H2142 C2165 0.950 . S
H2143 C2167 0.950 . S
H2144 C2168 0.950 . S
H2145 C2169 0.951 . S
H2146 C2171 0.951 . S
H2147 C2173 0.950 . S
H2148 C2174 0.950 . S
H2149 C2176 0.950 . S
H2150 C2179 0.950 . S
H2151 C2180 0.950 . S
H2152 C2182 0.950 . S
H2153 C2183 0.950 . S
C2154 H2136 0.951 . S
C2154 C2155 1.366 . S
C2154 C2156 1.388 . S
C2155 C2154 1.366 . S
C2155 C2159 1.385 . S
C2156 H2137 0.951 . S
C2156 C2154 1.388 . S
C2156 C2157 1.366 . S
C2157 C2156 1.366 . S
C2157 C2158 1.414 . S
C2157 C2160 1.499 . S
C2158 H2138 0.950 . S
C2158 C2157 1.414 . S
C2158 C2159 1.374 . S
C2159 H2139 0.950 . S
C2159 C2155 1.385 . S
C2159 C2158 1.374 . S
C2160 C2157 1.499 . S
C2160 C2161 1.373 . S
C2160 C2162 1.389 . S
C2161 H2140 0.950 . S
C2161 C2160 1.373 . S
C2161 C2177 1.377 . S
C2162 C2160 1.389 . S
C2162 C2163 1.524 . S
C2162 C2176 1.377 . S
C2163 C2162 1.524 . S
C2163 C2164 1.397 . S
C2163 C2168 1.363 . S
C2164 H2141 0.950 . S
C2164 C2163 1.397 . S
C2164 C2165 1.334 . S
C2165 H2142 0.950 . S
C2165 C2164 1.334 . S
C2165 C2166 1.287 . S
C2166 C2165 1.287 . S
C2166 C2167 1.524 . S
C2166 H2185 0.913 . S
C2167 H2143 0.950 . S
C2167 C2166 1.524 . S
C2167 C2168 1.415 . S
C2168 H2144 0.950 . S
C2168 C2163 1.363 . S
C2168 C2167 1.415 . S
C2169 H2145 0.951 . S
C2169 C2170 1.366 . S
C2169 C2171 1.388 . S
C2170 C2169 1.366 . S
C2170 C2174 1.385 . S
C2171 H2146 0.951 . S
C2171 C2169 1.388 . S
C2171 C2172 1.366 . S
C2172 C2171 1.366 . S
C2172 C2173 1.414 . S
C2172 C2175 1.499 . S
C2173 H2147 0.950 . S
C2173 C2172 1.414 . S
C2173 C2174 1.374 . S
C2174 H2148 0.950 . S
C2174 C2170 1.385 . S
C2174 C2173 1.374 . S
C2175 C2172 1.499 . S
C2175 C2176 1.373 . S
C2175 C2177 1.389 . S
C2176 H2149 0.950 . S
C2176 C2162 1.377 . S
C2176 C2175 1.373 . S
C2177 C2161 1.377 . S
C2177 C2175 1.389 . S
C2177 C2178 1.524 . S
C2178 C2177 1.524 . S
C2178 C2179 1.397 . S
C2178 C2183 1.363 . S
C2179 H2150 0.950 . S
C2179 C2178 1.397 . S
C2179 C2180 1.334 . S
C2180 H2151 0.950 . S
C2180 C2179 1.334 . S
C2180 C2181 1.287 . S
C2181 C2180 1.287 . S
C2181 C2182 1.524 . S
C2181 H2184 0.999 . S
C2182 H2152 0.950 . S
C2182 C2181 1.524 . S
C2182 C2183 1.415 . S
C2183 H2153 0.950 . S
C2183 C2178 1.363 . S
C2183 C2182 1.415 . S
H2184 C2181 0.999 . S
H2185 C2166 0.913 . S
H2186 C2204 0.951 . S
H2187 C2206 0.951 . S
H2188 C2208 0.950 . S
H2189 C2209 0.950 . S
H2190 C2211 0.950 . S
H2191 C2214 0.950 . S
H2192 C2215 0.950 . S
H2193 C2217 0.950 . S
H2194 C2218 0.950 . S
H2195 C2219 0.951 . S
H2196 C2221 0.951 . S
H2197 C2223 0.950 . S
H2198 C2224 0.950 . S
H2199 C2226 0.950 . S
H2200 C2229 0.950 . S
H2201 C2230 0.950 . S
H2202 C2232 0.950 . S
H2203 C2233 0.950 . S
C2204 H2186 0.951 . S
C2204 C2205 1.366 . S
C2204 C2206 1.388 . S
C2205 C2204 1.366 . S
C2205 C2209 1.385 . S
C2206 H2187 0.951 . S
C2206 C2204 1.388 . S
C2206 C2207 1.366 . S
C2207 C2206 1.366 . S
C2207 C2208 1.414 . S
C2207 C2210 1.499 . S
C2208 H2188 0.950 . S
C2208 C2207 1.414 . S
C2208 C2209 1.374 . S
C2209 H2189 0.950 . S
C2209 C2205 1.385 . S
C2209 C2208 1.374 . S
C2210 C2207 1.499 . S
C2210 C2211 1.373 . S
C2210 C2212 1.389 . S
C2211 H2190 0.950 . S
C2211 C2210 1.373 . S
C2211 C2227 1.377 . S
C2212 C2210 1.389 . S
C2212 C2213 1.524 . S
C2212 C2226 1.377 . S
C2213 C2212 1.524 . S
C2213 C2214 1.397 . S
C2213 C2218 1.363 . S
C2214 H2191 0.950 . S
C2214 C2213 1.397 . S
C2214 C2215 1.334 . S
C2215 H2192 0.950 . S
C2215 C2214 1.334 . S
C2215 C2216 1.287 . S
C2216 C2215 1.287 . S
C2216 C2217 1.524 . S
C2216 H2235 0.913 . S
C2217 H2193 0.950 . S
C2217 C2216 1.524 . S
C2217 C2218 1.415 . S
C2218 H2194 0.950 . S
C2218 C2213 1.363 . S
C2218 C2217 1.415 . S
C2219 H2195 0.951 . S
C2219 C2220 1.366 . S
C2219 C2221 1.388 . S
C2220 C2219 1.366 . S
C2220 C2224 1.385 . S
C2221 H2196 0.951 . S
C2221 C2219 1.388 . S
C2221 C2222 1.366 . S
C2222 C2221 1.366 . S
C2222 C2223 1.414 . S
C2222 C2225 1.499 . S
C2223 H2197 0.950 . S
C2223 C2222 1.414 . S
C2223 C2224 1.374 . S
C2224 H2198 0.950 . S
C2224 C2220 1.385 . S
C2224 C2223 1.374 . S
C2225 C2222 1.499 . S
C2225 C2226 1.373 . S
C2225 C2227 1.389 . S
C2226 H2199 0.950 . S
C2226 C2212 1.377 . S
C2226 C2225 1.373 . S
C2227 C2211 1.377 . S
C2227 C2225 1.389 . S
C2227 C2228 1.524 . S
C2228 C2227 1.524 . S
C2228 C2229 1.397 . S
C2228 C2233 1.363 . S
C2229 H2200 0.950 . S
C2229 C2228 1.397 . S
C2229 C2230 1.334 . S
C2230 H2201 0.950 . S
C2230 C2229 1.334 . S
C2230 C2231 1.287 . S
C2231 C2230 1.287 . S
C2231 C2232 1.524 . S
C2231 H2234 0.999 . S
C2232 H2202 0.950 . S
C2232 C2231 1.524 . S
C2232 C2233 1.415 . S
C2233 H2203 0.950 . S
C2233 C2228 1.363 . S
C2233 C2232 1.415 . S
H2234 C2231 0.999 . S
H2235 C2216 0.913 . S
H2236 C2254 0.951 . S
H2237 C2256 0.951 . S
H2238 C2258 0.950 . S
H2239 C2259 0.950 . S
H2240 C2261 0.950 . S
H2241 C2264 0.950 . S
H2242 C2265 0.950 . S
H2243 C2267 0.950 . S
H2244 C2268 0.950 . S
H2245 C2269 0.951 . S
H2246 C2271 0.951 . S
H2247 C2273 0.950 . S
H2248 C2274 0.950 . S
H2249 C2276 0.950 . S
H2250 C2279 0.950 . S
H2251 C2280 0.950 . S
H2252 C2282 0.950 . S
H2253 C2283 0.950 . S
C2254 H2236 0.951 . S
C2254 C2255 1.366 . S
C2254 C2256 1.388 . S
C2255 C2254 1.366 . S
C2255 C2259 1.385 . S
C2256 H2237 0.951 . S
C2256 C2254 1.388 . S
C2256 C2257 1.366 . S
C2257 C2256 1.366 . S
C2257 C2258 1.414 . S
C2257 C2260 1.499 . S
C2258 H2238 0.950 . S
C2258 C2257 1.414 . S
C2258 C2259 1.374 . S
C2259 H2239 0.950 . S
C2259 C2255 1.385 . S
C2259 C2258 1.374 . S
C2260 C2257 1.499 . S
C2260 C2261 1.373 . S
C2260 C2262 1.389 . S
C2261 H2240 0.950 . S
C2261 C2260 1.373 . S
C2261 C2277 1.377 . S
C2262 C2260 1.389 . S
C2262 C2263 1.524 . S
C2262 C2276 1.377 . S
C2263 C2262 1.524 . S
C2263 C2264 1.397 . S
C2263 C2268 1.363 . S
C2264 H2241 0.950 . S
C2264 C2263 1.397 . S
C2264 C2265 1.334 . S
C2265 H2242 0.950 . S
C2265 C2264 1.334 . S
C2265 C2266 1.287 . S
C2266 C2265 1.287 . S
C2266 C2267 1.524 . S
C2266 H2285 0.913 . S
C2267 H2243 0.950 . S
C2267 C2266 1.524 . S
C2267 C2268 1.415 . S
C2268 H2244 0.950 . S
C2268 C2263 1.363 . S
C2268 C2267 1.415 . S
C2269 H2245 0.951 . S
C2269 C2270 1.366 . S
C2269 C2271 1.388 . S
C2270 C2269 1.366 . S
C2270 C2274 1.385 . S
C2271 H2246 0.951 . S
C2271 C2269 1.388 . S
C2271 C2272 1.366 . S
C2272 C2271 1.366 . S
C2272 C2273 1.414 . S
C2272 C2275 1.499 . S
C2273 H2247 0.950 . S
C2273 C2272 1.414 . S
C2273 C2274 1.374 . S
C2274 H2248 0.950 . S
C2274 C2270 1.385 . S
C2274 C2273 1.374 . S
C2275 C2272 1.499 . S
C2275 C2276 1.373 . S
C2275 C2277 1.389 . S
C2276 H2249 0.950 . S
C2276 C2262 1.377 . S
C2276 C2275 1.373 . S
C2277 C2261 1.377 . S
C2277 C2275 1.389 . S
C2277 C2278 1.524 . S
C2278 C2277 1.524 . S
C2278 C2279 1.397 . S
C2278 C2283 1.363 . S
C2279 H2250 0.950 . S
C2279 C2278 1.397 . S
C2279 C2280 1.334 . S
C2280 H2251 0.950 . S
C2280 C2279 1.334 . S
C2280 C2281 1.287 . S
C2281 C2280 1.287 . S
C2281 C2282 1.524 . S
C2281 H2284 0.999 . S
C2282 H2252 0.950 . S
C2282 C2281 1.524 . S
C2282 C2283 1.415 . S
C2283 H2253 0.950 . S
C2283 C2278 1.363 . S
C2283 C2282 1.415 . S
H2284 C2281 0.999 . S
H2285 C2266 0.913 . S
H2286 C2304 0.951 . S
H2287 C2306 0.951 . S
H2288 C2308 0.950 . S
H2289 C2309 0.950 . S
H2290 C2311 0.950 . S
H2291 C2314 0.950 . S
H2292 C2315 0.950 . S
H2293 C2317 0.950 . S
H2294 C2318 0.950 . S
H2295 C2319 0.951 . S
H2296 C2321 0.951 . S
H2297 C2323 0.950 . S
H2298 C2324 0.950 . S
H2299 C2326 0.950 . S
H2300 C2329 0.950 . S
H2301 C2330 0.950 . S
H2302 C2332 0.950 . S
H2303 C2333 0.950 . S
C2304 H2286 0.951 . S
C2304 C2305 1.366 . S
C2304 C2306 1.388 . S
C2305 C2304 1.366 . S
C2305 C2309 1.385 . S
C2306 H2287 0.951 . S
C2306 C2304 1.388 . S
C2306 C2307 1.366 . S
C2307 C2306 1.366 . S
C2307 C2308 1.414 . S
C2307 C2310 1.499 . S
C2308 H2288 0.950 . S
C2308 C2307 1.414 . S
C2308 C2309 1.374 . S
C2309 H2289 0.950 . S
C2309 C2305 1.385 . S
C2309 C2308 1.374 . S
C2310 C2307 1.499 . S
C2310 C2311 1.373 . S
C2310 C2312 1.389 . S
C2311 H2290 0.950 . S
C2311 C2310 1.373 . S
C2311 C2327 1.377 . S
C2312 C2310 1.389 . S
C2312 C2313 1.524 . S
C2312 C2326 1.377 . S
C2313 C2312 1.524 . S
C2313 C2314 1.397 . S
C2313 C2318 1.363 . S
C2314 H2291 0.950 . S
C2314 C2313 1.397 . S
C2314 C2315 1.334 . S
C2315 H2292 0.950 . S
C2315 C2314 1.334 . S
C2315 C2316 1.287 . S
C2316 C2315 1.287 . S
C2316 C2317 1.524 . S
C2316 H2335 0.913 . S
C2317 H2293 0.950 . S
C2317 C2316 1.524 . S
C2317 C2318 1.415 . S
C2318 H2294 0.950 . S
C2318 C2313 1.363 . S
C2318 C2317 1.415 . S
C2319 H2295 0.951 . S
C2319 C2320 1.366 . S
C2319 C2321 1.388 . S
C2320 C2319 1.366 . S
C2320 C2324 1.385 . S
C2321 H2296 0.951 . S
C2321 C2319 1.388 . S
C2321 C2322 1.366 . S
C2322 C2321 1.366 . S
C2322 C2323 1.414 . S
C2322 C2325 1.499 . S
C2323 H2297 0.950 . S
C2323 C2322 1.414 . S
C2323 C2324 1.374 . S
C2324 H2298 0.950 . S
C2324 C2320 1.385 . S
C2324 C2323 1.374 . S
C2325 C2322 1.499 . S
C2325 C2326 1.373 . S
C2325 C2327 1.389 . S
C2326 H2299 0.950 . S
C2326 C2312 1.377 . S
C2326 C2325 1.373 . S
C2327 C2311 1.377 . S
C2327 C2325 1.389 . S
C2327 C2328 1.524 . S
C2328 C2327 1.524 . S
C2328 C2329 1.397 . S
C2328 C2333 1.363 . S
C2329 H2300 0.950 . S
C2329 C2328 1.397 . S
C2329 C2330 1.334 . S
C2330 H2301 0.950 . S
C2330 C2329 1.334 . S
C2330 C2331 1.287 . S
C2331 C2330 1.287 . S
C2331 C2332 1.524 . S
C2331 H2334 0.999 . S
C2332 H2302 0.950 . S
C2332 C2331 1.524 . S
C2332 C2333 1.415 . S
C2333 H2303 0.950 . S
C2333 C2328 1.363 . S
C2333 C2332 1.415 . S
H2334 C2331 0.999 . S
H2335 C2316 0.913 . S
H2336 C2354 0.951 . S
H2337 C2356 0.951 . S
H2338 C2358 0.950 . S
H2339 C2359 0.950 . S
H2340 C2361 0.950 . S
H2341 C2364 0.950 . S
H2342 C2365 0.950 . S
H2343 C2367 0.950 . S
H2344 C2368 0.950 . S
H2345 C2369 0.951 . S
H2346 C2371 0.951 . S
H2347 C2373 0.950 . S
H2348 C2374 0.950 . S
H2349 C2376 0.950 . S
H2350 C2379 0.950 . S
H2351 C2380 0.950 . S
H2352 C2382 0.950 . S
H2353 C2383 0.950 . S
C2354 H2336 0.951 . S
C2354 C2355 1.366 . S
C2354 C2356 1.388 . S
C2355 C2354 1.366 . S
C2355 C2359 1.385 . S
C2356 H2337 0.951 . S
C2356 C2354 1.388 . S
C2356 C2357 1.366 . S
C2357 C2356 1.366 . S
C2357 C2358 1.414 . S
C2357 C2360 1.499 . S
C2358 H2338 0.950 . S
C2358 C2357 1.414 . S
C2358 C2359 1.374 . S
C2359 H2339 0.950 . S
C2359 C2355 1.385 . S
C2359 C2358 1.374 . S
C2360 C2357 1.499 . S
C2360 C2361 1.373 . S
C2360 C2362 1.389 . S
C2361 H2340 0.950 . S
C2361 C2360 1.373 . S
C2361 C2377 1.377 . S
C2362 C2360 1.389 . S
C2362 C2363 1.524 . S
C2362 C2376 1.377 . S
C2363 C2362 1.524 . S
C2363 C2364 1.397 . S
C2363 C2368 1.363 . S
C2364 H2341 0.950 . S
C2364 C2363 1.397 . S
C2364 C2365 1.334 . S
C2365 H2342 0.950 . S
C2365 C2364 1.334 . S
C2365 C2366 1.287 . S
C2366 C2365 1.287 . S
C2366 C2367 1.524 . S
C2366 H2385 0.913 . S
C2367 H2343 0.950 . S
C2367 C2366 1.524 . S
C2367 C2368 1.415 . S
C2368 H2344 0.950 . S
C2368 C2363 1.363 . S
C2368 C2367 1.415 . S
C2369 H2345 0.951 . S
C2369 C2370 1.366 . S
C2369 C2371 1.388 . S
C2370 C2369 1.366 . S
C2370 C2374 1.385 . S
C2371 H2346 0.951 . S
C2371 C2369 1.388 . S
C2371 C2372 1.366 . S
C2372 C2371 1.366 . S
C2372 C2373 1.414 . S
C2372 C2375 1.499 . S
C2373 H2347 0.950 . S
C2373 C2372 1.414 . S
C2373 C2374 1.374 . S
C2374 H2348 0.950 . S
C2374 C2370 1.385 . S
C2374 C2373 1.374 . S
C2375 C2372 1.499 . S
C2375 C2376 1.373 . S
C2375 C2377 1.389 . S
C2376 H2349 0.950 . S
C2376 C2362 1.377 . S
C2376 C2375 1.373 . S
C2377 C2361 1.377 . S
C2377 C2375 1.389 . S
C2377 C2378 1.524 . S
C2378 C2377 1.524 . S
C2378 C2379 1.397 . S
C2378 C2383 1.363 . S
C2379 H2350 0.950 . S
C2379 C2378 1.397 . S
C2379 C2380 1.334 . S
C2380 H2351 0.950 . S
C2380 C2379 1.334 . S
C2380 C2381 1.287 . S
C2381 C2380 1.287 . S
C2381 C2382 1.524 . S
C2381 H2384 0.999 . S
C2382 H2352 0.950 . S
C2382 C2381 1.524 . S
C2382 C2383 1.415 . S
C2383 H2353 0.950 . S
C2383 C2378 1.363 . S
C2383 C2382 1.415 . S
H2384 C2381 0.999 . S
H2385 C2366 0.913 . S
H2386 C2404 0.951 . S
H2387 C2406 0.951 . S
H2388 C2408 0.950 . S
H2389 C2409 0.950 . S
H2390 C2411 0.950 . S
H2391 C2414 0.950 . S
H2392 C2415 0.950 . S
H2393 C2417 0.950 . S
H2394 C2418 0.950 . S
H2395 C2419 0.951 . S
H2396 C2421 0.951 . S
H2397 C2423 0.950 . S
H2398 C2424 0.950 . S
H2399 C2426 0.950 . S
H2400 C2429 0.950 . S
H2401 C2430 0.950 . S
H2402 C2432 0.950 . S
H2403 C2433 0.950 . S
C2404 H2386 0.951 . S
C2404 C2405 1.366 . S
C2404 C2406 1.388 . S
C2405 C2404 1.366 . S
C2405 C2409 1.385 . S
C2406 H2387 0.951 . S
C2406 C2404 1.388 . S
C2406 C2407 1.366 . S
C2407 C2406 1.366 . S
C2407 C2408 1.414 . S
C2407 C2410 1.499 . S
C2408 H2388 0.950 . S
C2408 C2407 1.414 . S
C2408 C2409 1.374 . S
C2409 H2389 0.950 . S
C2409 C2405 1.385 . S
C2409 C2408 1.374 . S
C2410 C2407 1.499 . S
C2410 C2411 1.373 . S
C2410 C2412 1.389 . S
C2411 H2390 0.950 . S
C2411 C2410 1.373 . S
C2411 C2427 1.377 . S
C2412 C2410 1.389 . S
C2412 C2413 1.524 . S
C2412 C2426 1.377 . S
C2413 C2412 1.524 . S
C2413 C2414 1.397 . S
C2413 C2418 1.363 . S
C2414 H2391 0.950 . S
C2414 C2413 1.397 . S
C2414 C2415 1.334 . S
C2415 H2392 0.950 . S
C2415 C2414 1.334 . S
C2415 C2416 1.287 . S
C2416 C2415 1.287 . S
C2416 C2417 1.524 . S
C2416 H2435 0.913 . S
C2417 H2393 0.950 . S
C2417 C2416 1.524 . S
C2417 C2418 1.415 . S
C2418 H2394 0.950 . S
C2418 C2413 1.363 . S
C2418 C2417 1.415 . S
C2419 H2395 0.951 . S
C2419 C2420 1.366 . S
C2419 C2421 1.388 . S
C2420 C2419 1.366 . S
C2420 C2424 1.385 . S
C2421 H2396 0.951 . S
C2421 C2419 1.388 . S
C2421 C2422 1.366 . S
C2422 C2421 1.366 . S
C2422 C2423 1.414 . S
C2422 C2425 1.499 . S
C2423 H2397 0.950 . S
C2423 C2422 1.414 . S
C2423 C2424 1.374 . S
C2424 H2398 0.950 . S
C2424 C2420 1.385 . S
C2424 C2423 1.374 . S
C2425 C2422 1.499 . S
C2425 C2426 1.373 . S
C2425 C2427 1.389 . S
C2426 H2399 0.950 . S
C2426 C2412 1.377 . S
C2426 C2425 1.373 . S
C2427 C2411 1.377 . S
C2427 C2425 1.389 . S
C2427 C2428 1.524 . S
C2428 C2427 1.524 . S
C2428 C2429 1.397 . S
C2428 C2433 1.363 . S
C2429 H2400 0.950 . S
C2429 C2428 1.397 . S
C2429 C2430 1.334 . S
C2430 H2401 0.950 . S
C2430 C2429 1.334 . S
C2430 C2431 1.287 . S
C2431 C2430 1.287 . S
C2431 C2432 1.524 . S
C2431 H2434 0.999 . S
C2432 H2402 0.950 . S
C2432 C2431 1.524 . S
C2432 C2433 1.415 . S
C2433 H2403 0.950 . S
C2433 C2428 1.363 . S
C2433 C2432 1.415 . S
H2434 C2431 0.999 . S
H2435 C2416 0.913 . S
H2436 C2454 0.951 . S
H2437 C2456 0.951 . S
H2438 C2458 0.950 . S
H2439 C2459 0.950 . S
H2440 C2461 0.950 . S
H2441 C2464 0.950 . S
H2442 C2465 0.950 . S
H2443 C2467 0.950 . S
H2444 C2468 0.950 . S
H2445 C2469 0.951 . S
H2446 C2471 0.951 . S
H2447 C2473 0.950 . S
H2448 C2474 0.950 . S
H2449 C2476 0.950 . S
H2450 C2479 0.950 . S
H2451 C2480 0.950 . S
H2452 C2482 0.950 . S
H2453 C2483 0.950 . S
C2454 H2436 0.951 . S
C2454 C2455 1.366 . S
C2454 C2456 1.388 . S
C2455 C2454 1.366 . S
C2455 C2459 1.385 . S
C2456 H2437 0.951 . S
C2456 C2454 1.388 . S
C2456 C2457 1.366 . S
C2457 C2456 1.366 . S
C2457 C2458 1.414 . S
C2457 C2460 1.499 . S
C2458 H2438 0.950 . S
C2458 C2457 1.414 . S
C2458 C2459 1.374 . S
C2459 H2439 0.950 . S
C2459 C2455 1.385 . S
C2459 C2458 1.374 . S
C2460 C2457 1.499 . S
C2460 C2461 1.373 . S
C2460 C2462 1.389 . S
C2461 H2440 0.950 . S
C2461 C2460 1.373 . S
C2461 C2477 1.377 . S
C2462 C2460 1.389 . S
C2462 C2463 1.524 . S
C2462 C2476 1.377 . S
C2463 C2462 1.524 . S
C2463 C2464 1.397 . S
C2463 C2468 1.363 . S
C2464 H2441 0.950 . S
C2464 C2463 1.397 . S
C2464 C2465 1.334 . S
C2465 H2442 0.950 . S
C2465 C2464 1.334 . S
C2465 C2466 1.287 . S
C2466 C2465 1.287 . S
C2466 C2467 1.524 . S
C2466 H2485 0.913 . S
C2467 H2443 0.950 . S
C2467 C2466 1.524 . S
C2467 C2468 1.415 . S
C2468 H2444 0.950 . S
C2468 C2463 1.363 . S
C2468 C2467 1.415 . S
C2469 H2445 0.951 . S
C2469 C2470 1.366 . S
C2469 C2471 1.388 . S
C2470 C2469 1.366 . S
C2470 C2474 1.385 . S
C2471 H2446 0.951 . S
C2471 C2469 1.388 . S
C2471 C2472 1.366 . S
C2472 C2471 1.366 . S
C2472 C2473 1.414 . S
C2472 C2475 1.499 . S
C2473 H2447 0.950 . S
C2473 C2472 1.414 . S
C2473 C2474 1.374 . S
C2474 H2448 0.950 . S
C2474 C2470 1.385 . S
C2474 C2473 1.374 . S
C2475 C2472 1.499 . S
C2475 C2476 1.373 . S
C2475 C2477 1.389 . S
C2476 H2449 0.950 . S
C2476 C2462 1.377 . S
C2476 C2475 1.373 . S
C2477 C2461 1.377 . S
C2477 C2475 1.389 . S
C2477 C2478 1.524 . S
C2478 C2477 1.524 . S
C2478 C2479 1.397 . S
C2478 C2483 1.363 . S
C2479 H2450 0.950 . S
C2479 C2478 1.397 . S
C2479 C2480 1.334 . S
C2480 H2451 0.950 . S
C2480 C2479 1.334 . S
C2480 C2481 1.287 . S
C2481 C2480 1.287 . S
C2481 C2482 1.524 . S
C2481 H2484 0.999 . S
C2482 H2452 0.950 . S
C2482 C2481 1.524 . S
C2482 C2483 1.415 . S
C2483 H2453 0.950 . S
C2483 C2478 1.363 . S
C2483 C2482 1.415 . S
H2484 C2481 0.999 . S
H2485 C2466 0.913 . S
H2486 C2504 0.951 . S
H2487 C2506 0.951 . S
H2488 C2508 0.950 . S
H2489 C2509 0.950 . S
H2490 C2511 0.950 . S
H2491 C2514 0.950 . S
H2492 C2515 0.950 . S
H2493 C2517 0.950 . S
H2494 C2518 0.950 . S
H2495 C2519 0.951 . S
H2496 C2521 0.951 . S
H2497 C2523 0.950 . S
H2498 C2524 0.950 . S
H2499 C2526 0.950 . S
H2500 C2529 0.950 . S
H2501 C2530 0.950 . S
H2502 C2532 0.950 . S
H2503 C2533 0.950 . S
C2504 H2486 0.951 . S
C2504 C2505 1.366 . S
C2504 C2506 1.388 . S
C2505 C2504 1.366 . S
C2505 C2509 1.385 . S
C2506 H2487 0.951 . S
C2506 C2504 1.388 . S
C2506 C2507 1.366 . S
C2507 C2506 1.366 . S
C2507 C2508 1.414 . S
C2507 C2510 1.499 . S
C2508 H2488 0.950 . S
C2508 C2507 1.414 . S
C2508 C2509 1.374 . S
C2509 H2489 0.950 . S
C2509 C2505 1.385 . S
C2509 C2508 1.374 . S
C2510 C2507 1.499 . S
C2510 C2511 1.373 . S
C2510 C2512 1.389 . S
C2511 H2490 0.950 . S
C2511 C2510 1.373 . S
C2511 C2527 1.377 . S
C2512 C2510 1.389 . S
C2512 C2513 1.524 . S
C2512 C2526 1.377 . S
C2513 C2512 1.524 . S
C2513 C2514 1.397 . S
C2513 C2518 1.363 . S
C2514 H2491 0.950 . S
C2514 C2513 1.397 . S
C2514 C2515 1.334 . S
C2515 H2492 0.950 . S
C2515 C2514 1.334 . S
C2515 C2516 1.287 . S
C2516 C2515 1.287 . S
C2516 C2517 1.524 . S
C2516 H2535 0.913 . S
C2517 H2493 0.950 . S
C2517 C2516 1.524 . S
C2517 C2518 1.415 . S
C2518 H2494 0.950 . S
C2518 C2513 1.363 . S
C2518 C2517 1.415 . S
C2519 H2495 0.951 . S
C2519 C2520 1.366 . S
C2519 C2521 1.388 . S
C2520 C2519 1.366 . S
C2520 C2524 1.385 . S
C2521 H2496 0.951 . S
C2521 C2519 1.388 . S
C2521 C2522 1.366 . S
C2522 C2521 1.366 . S
C2522 C2523 1.414 . S
C2522 C2525 1.499 . S
C2523 H2497 0.950 . S
C2523 C2522 1.414 . S
C2523 C2524 1.374 . S
C2524 H2498 0.950 . S
C2524 C2520 1.385 . S
C2524 C2523 1.374 . S
C2525 C2522 1.499 . S
C2525 C2526 1.373 . S
C2525 C2527 1.389 . S
C2526 H2499 0.950 . S
C2526 C2512 1.377 . S
C2526 C2525 1.373 . S
C2527 C2511 1.377 . S
C2527 C2525 1.389 . S
C2527 C2528 1.524 . S
C2528 C2527 1.524 . S
C2528 C2529 1.397 . S
C2528 C2533 1.363 . S
C2529 H2500 0.950 . S
C2529 C2528 1.397 . S
C2529 C2530 1.334 . S
C2530 H2501 0.950 . S
C2530 C2529 1.334 . S
C2530 C2531 1.287 . S
C2531 C2530 1.287 . S
C2531 C2532 1.524 . S
C2531 H2534 0.999 . S
C2532 H2502 0.950 . S
C2532 C2531 1.524 . S
C2532 C2533 1.415 . S
C2533 H2503 0.950 . S
C2533 C2528 1.363 . S
C2533 C2532 1.415 . S
H2534 C2531 0.999 . S
H2535 C2516 0.913 . S
H2536 C2554 0.951 . S
H2537 C2556 0.951 . S
H2538 C2558 0.950 . S
H2539 C2559 0.950 . S
H2540 C2561 0.950 . S
H2541 C2564 0.950 . S
H2542 C2565 0.950 . S
H2543 C2567 0.950 . S
H2544 C2568 0.950 . S
H2545 C2569 0.951 . S
H2546 C2571 0.951 . S
H2547 C2573 0.950 . S
H2548 C2574 0.950 . S
H2549 C2576 0.950 . S
H2550 C2579 0.950 . S
H2551 C2580 0.950 . S
H2552 C2582 0.950 . S
H2553 C2583 0.950 . S
C2554 H2536 0.951 . S
C2554 C2555 1.366 . S
C2554 C2556 1.388 . S
C2555 C2554 1.366 . S
C2555 C2559 1.385 . S
C2556 H2537 0.951 . S
C2556 C2554 1.388 . S
C2556 C2557 1.366 . S
C2557 C2556 1.366 . S
C2557 C2558 1.414 . S
C2557 C2560 1.499 . S
C2558 H2538 0.950 . S
C2558 C2557 1.414 . S
C2558 C2559 1.374 . S
C2559 H2539 0.950 . S
C2559 C2555 1.385 . S
C2559 C2558 1.374 . S
C2560 C2557 1.499 . S
C2560 C2561 1.373 . S
C2560 C2562 1.389 . S
C2561 H2540 0.950 . S
C2561 C2560 1.373 . S
C2561 C2577 1.377 . S
C2562 C2560 1.389 . S
C2562 C2563 1.524 . S
C2562 C2576 1.377 . S
C2563 C2562 1.524 . S
C2563 C2564 1.397 . S
C2563 C2568 1.363 . S
C2564 H2541 0.950 . S
C2564 C2563 1.397 . S
C2564 C2565 1.334 . S
C2565 H2542 0.950 . S
C2565 C2564 1.334 . S
C2565 C2566 1.287 . S
C2566 C2565 1.287 . S
C2566 C2567 1.524 . S
C2566 H2585 0.913 . S
C2567 H2543 0.950 . S
C2567 C2566 1.524 . S
C2567 C2568 1.415 . S
C2568 H2544 0.950 . S
C2568 C2563 1.363 . S
C2568 C2567 1.415 . S
C2569 H2545 0.951 . S
C2569 C2570 1.366 . S
C2569 C2571 1.388 . S
C2570 C2569 1.366 . S
C2570 C2574 1.385 . S
C2571 H2546 0.951 . S
C2571 C2569 1.388 . S
C2571 C2572 1.366 . S
C2572 C2571 1.366 . S
C2572 C2573 1.414 . S
C2572 C2575 1.499 . S
C2573 H2547 0.950 . S
C2573 C2572 1.414 . S
C2573 C2574 1.374 . S
C2574 H2548 0.950 . S
C2574 C2570 1.385 . S
C2574 C2573 1.374 . S
C2575 C2572 1.499 . S
C2575 C2576 1.373 . S
C2575 C2577 1.389 . S
C2576 H2549 0.950 . S
C2576 C2562 1.377 . S
C2576 C2575 1.373 . S
C2577 C2561 1.377 . S
C2577 C2575 1.389 . S
C2577 C2578 1.524 . S
C2578 C2577 1.524 . S
C2578 C2579 1.397 . S
C2578 C2583 1.363 . S
C2579 H2550 0.950 . S
C2579 C2578 1.397 . S
C2579 C2580 1.334 . S
C2580 H2551 0.950 . S
C2580 C2579 1.334 . S
C2580 C2581 1.287 . S
C2581 C2580 1.287 . S
C2581 C2582 1.524 . S
C2581 H2584 0.999 . S
C2582 H2552 0.950 . S
C2582 C2581 1.524 . S
C2582 C2583 1.415 . S
C2583 H2553 0.950 . S
C2583 C2578 1.363 . S
C2583 C2582 1.415 . S
H2584 C2581 0.999 . S
H2585 C2566 0.913 . S
H2586 C2604 0.951 . S
H2587 C2606 0.951 . S
H2588 C2608 0.950 . S
H2589 C2609 0.950 . S
H2590 C2611 0.950 . S
H2591 C2614 0.950 . S
H2592 C2615 0.950 . S
H2593 C2617 0.950 . S
H2594 C2618 0.950 . S
H2595 C2619 0.951 . S
H2596 C2621 0.951 . S
H2597 C2623 0.950 . S
H2598 C2624 0.950 . S
H2599 C2626 0.950 . S
H2600 C2629 0.950 . S
H2601 C2630 0.950 . S
H2602 C2632 0.950 . S
H2603 C2633 0.950 . S
C2604 H2586 0.951 . S
C2604 C2605 1.366 . S
C2604 C2606 1.388 . S
C2605 C2604 1.366 . S
C2605 C2609 1.385 . S
C2606 H2587 0.951 . S
C2606 C2604 1.388 . S
C2606 C2607 1.366 . S
C2607 C2606 1.366 . S
C2607 C2608 1.414 . S
C2607 C2610 1.499 . S
C2608 H2588 0.950 . S
C2608 C2607 1.414 . S
C2608 C2609 1.374 . S
C2609 H2589 0.950 . S
C2609 C2605 1.385 . S
C2609 C2608 1.374 . S
C2610 C2607 1.499 . S
C2610 C2611 1.373 . S
C2610 C2612 1.389 . S
C2611 H2590 0.950 . S
C2611 C2610 1.373 . S
C2611 C2627 1.377 . S
C2612 C2610 1.389 . S
C2612 C2613 1.524 . S
C2612 C2626 1.377 . S
C2613 C2612 1.524 . S
C2613 C2614 1.397 . S
C2613 C2618 1.363 . S
C2614 H2591 0.950 . S
C2614 C2613 1.397 . S
C2614 C2615 1.334 . S
C2615 H2592 0.950 . S
C2615 C2614 1.334 . S
C2615 C2616 1.287 . S
C2616 C2615 1.287 . S
C2616 C2617 1.524 . S
C2616 H2635 0.913 . S
C2617 H2593 0.950 . S
C2617 C2616 1.524 . S
C2617 C2618 1.415 . S
C2618 H2594 0.950 . S
C2618 C2613 1.363 . S
C2618 C2617 1.415 . S
C2619 H2595 0.951 . S
C2619 C2620 1.366 . S
C2619 C2621 1.388 . S
C2620 C2619 1.366 . S
C2620 C2624 1.385 . S
C2621 H2596 0.951 . S
C2621 C2619 1.388 . S
C2621 C2622 1.366 . S
C2622 C2621 1.366 . S
C2622 C2623 1.414 . S
C2622 C2625 1.499 . S
C2623 H2597 0.950 . S
C2623 C2622 1.414 . S
C2623 C2624 1.374 . S
C2624 H2598 0.950 . S
C2624 C2620 1.385 . S
C2624 C2623 1.374 . S
C2625 C2622 1.499 . S
C2625 C2626 1.373 . S
C2625 C2627 1.389 . S
C2626 H2599 0.950 . S
C2626 C2612 1.377 . S
C2626 C2625 1.373 . S
C2627 C2611 1.377 . S
C2627 C2625 1.389 . S
C2627 C2628 1.524 . S
C2628 C2627 1.524 . S
C2628 C2629 1.397 . S
C2628 C2633 1.363 . S
C2629 H2600 0.950 . S
C2629 C2628 1.397 . S
C2629 C2630 1.334 . S
C2630 H2601 0.950 . S
C2630 C2629 1.334 . S
C2630 C2631 1.287 . S
C2631 C2630 1.287 . S
C2631 C2632 1.524 . S
C2631 H2634 0.999 . S
C2632 H2602 0.950 . S
C2632 C2631 1.524 . S
C2632 C2633 1.415 . S
C2633 H2603 0.950 . S
C2633 C2628 1.363 . S
C2633 C2632 1.415 . S
H2634 C2631 0.999 . S
H2635 C2616 0.913 . S
H2636 C2654 0.951 . S
H2637 C2656 0.951 . S
H2638 C2658 0.950 . S
H2639 C2659 0.950 . S
H2640 C2661 0.950 . S
H2641 C2664 0.950 . S
H2642 C2665 0.950 . S
H2643 C2667 0.950 . S
H2644 C2668 0.950 . S
H2645 C2669 0.951 . S
H2646 C2671 0.951 . S
H2647 C2673 0.950 . S
H2648 C2674 0.950 . S
H2649 C2676 0.950 . S
H2650 C2679 0.950 . S
H2651 C2680 0.950 . S
H2652 C2682 0.950 . S
H2653 C2683 0.950 . S
C2654 H2636 0.951 . S
C2654 C2655 1.366 . S
C2654 C2656 1.388 . S
C2655 C2654 1.366 . S
C2655 C2659 1.385 . S
C2656 H2637 0.951 . S
C2656 C2654 1.388 . S
C2656 C2657 1.366 . S
C2657 C2656 1.366 . S
C2657 C2658 1.414 . S
C2657 C2660 1.499 . S
C2658 H2638 0.950 . S
C2658 C2657 1.414 . S
C2658 C2659 1.374 . S
C2659 H2639 0.950 . S
C2659 C2655 1.385 . S
C2659 C2658 1.374 . S
C2660 C2657 1.499 . S
C2660 C2661 1.373 . S
C2660 C2662 1.389 . S
C2661 H2640 0.950 . S
C2661 C2660 1.373 . S
C2661 C2677 1.377 . S
C2662 C2660 1.389 . S
C2662 C2663 1.524 . S
C2662 C2676 1.377 . S
C2663 C2662 1.524 . S
C2663 C2664 1.397 . S
C2663 C2668 1.363 . S
C2664 H2641 0.950 . S
C2664 C2663 1.397 . S
C2664 C2665 1.334 . S
C2665 H2642 0.950 . S
C2665 C2664 1.334 . S
C2665 C2666 1.287 . S
C2666 C2665 1.287 . S
C2666 C2667 1.524 . S
C2666 H2685 0.913 . S
C2667 H2643 0.950 . S
C2667 C2666 1.524 . S
C2667 C2668 1.415 . S
C2668 H2644 0.950 . S
C2668 C2663 1.363 . S
C2668 C2667 1.415 . S
C2669 H2645 0.951 . S
C2669 C2670 1.366 . S
C2669 C2671 1.388 . S
C2670 C2669 1.366 . S
C2670 C2674 1.385 . S
C2671 H2646 0.951 . S
C2671 C2669 1.388 . S
C2671 C2672 1.366 . S
C2672 C2671 1.366 . S
C2672 C2673 1.414 . S
C2672 C2675 1.499 . S
C2673 H2647 0.950 . S
C2673 C2672 1.414 . S
C2673 C2674 1.374 . S
C2674 H2648 0.950 . S
C2674 C2670 1.385 . S
C2674 C2673 1.374 . S
C2675 C2672 1.499 . S
C2675 C2676 1.373 . S
C2675 C2677 1.389 . S
C2676 H2649 0.950 . S
C2676 C2662 1.377 . S
C2676 C2675 1.373 . S
C2677 C2661 1.377 . S
C2677 C2675 1.389 . S
C2677 C2678 1.524 . S
C2678 C2677 1.524 . S
C2678 C2679 1.397 . S
C2678 C2683 1.363 . S
C2679 H2650 0.950 . S
C2679 C2678 1.397 . S
C2679 C2680 1.334 . S
C2680 H2651 0.950 . S
C2680 C2679 1.334 . S
C2680 C2681 1.287 . S
C2681 C2680 1.287 . S
C2681 C2682 1.524 . S
C2681 H2684 0.999 . S
C2682 H2652 0.950 . S
C2682 C2681 1.524 . S
C2682 C2683 1.415 . S
C2683 H2653 0.950 . S
C2683 C2678 1.363 . S
C2683 C2682 1.415 . S
H2684 C2681 0.999 . S
H2685 C2666 0.913 . S
H2686 C2704 0.951 . S
H2687 C2706 0.951 . S
H2688 C2708 0.950 . S
H2689 C2709 0.950 . S
H2690 C2711 0.950 . S
H2691 C2714 0.950 . S
H2692 C2715 0.950 . S
H2693 C2717 0.950 . S
H2694 C2718 0.950 . S
H2695 C2719 0.951 . S
H2696 C2721 0.951 . S
H2697 C2723 0.950 . S
H2698 C2724 0.950 . S
H2699 C2726 0.950 . S
H2700 C2729 0.950 . S
H2701 C2730 0.950 . S
H2702 C2732 0.950 . S
H2703 C2733 0.950 . S
C2704 H2686 0.951 . S
C2704 C2705 1.366 . S
C2704 C2706 1.388 . S
C2705 C2704 1.366 . S
C2705 C2709 1.385 . S
C2706 H2687 0.951 . S
C2706 C2704 1.388 . S
C2706 C2707 1.366 . S
C2707 C2706 1.366 . S
C2707 C2708 1.414 . S
C2707 C2710 1.499 . S
C2708 H2688 0.950 . S
C2708 C2707 1.414 . S
C2708 C2709 1.374 . S
C2709 H2689 0.950 . S
C2709 C2705 1.385 . S
C2709 C2708 1.374 . S
C2710 C2707 1.499 . S
C2710 C2711 1.373 . S
C2710 C2712 1.389 . S
C2711 H2690 0.950 . S
C2711 C2710 1.373 . S
C2711 C2727 1.377 . S
C2712 C2710 1.389 . S
C2712 C2713 1.524 . S
C2712 C2726 1.377 . S
C2713 C2712 1.524 . S
C2713 C2714 1.397 . S
C2713 C2718 1.363 . S
C2714 H2691 0.950 . S
C2714 C2713 1.397 . S
C2714 C2715 1.334 . S
C2715 H2692 0.950 . S
C2715 C2714 1.334 . S
C2715 C2716 1.287 . S
C2716 C2715 1.287 . S
C2716 C2717 1.524 . S
C2716 H2735 0.913 . S
C2717 H2693 0.950 . S
C2717 C2716 1.524 . S
C2717 C2718 1.415 . S
C2718 H2694 0.950 . S
C2718 C2713 1.363 . S
C2718 C2717 1.415 . S
C2719 H2695 0.951 . S
C2719 C2720 1.366 . S
C2719 C2721 1.388 . S
C2720 C2719 1.366 . S
C2720 C2724 1.385 . S
C2721 H2696 0.951 . S
C2721 C2719 1.388 . S
C2721 C2722 1.366 . S
C2722 C2721 1.366 . S
C2722 C2723 1.414 . S
C2722 C2725 1.499 . S
C2723 H2697 0.950 . S
C2723 C2722 1.414 . S
C2723 C2724 1.374 . S
C2724 H2698 0.950 . S
C2724 C2720 1.385 . S
C2724 C2723 1.374 . S
C2725 C2722 1.499 . S
C2725 C2726 1.373 . S
C2725 C2727 1.389 . S
C2726 H2699 0.950 . S
C2726 C2712 1.377 . S
C2726 C2725 1.373 . S
C2727 C2711 1.377 . S
C2727 C2725 1.389 . S
C2727 C2728 1.524 . S
C2728 C2727 1.524 . S
C2728 C2729 1.397 . S
C2728 C2733 1.363 . S
C2729 H2700 0.950 . S
C2729 C2728 1.397 . S
C2729 C2730 1.334 . S
C2730 H2701 0.950 . S
C2730 C2729 1.334 . S
C2730 C2731 1.287 . S
C2731 C2730 1.287 . S
C2731 C2732 1.524 . S
C2731 H2734 0.999 . S
C2732 H2702 0.950 . S
C2732 C2731 1.524 . S
C2732 C2733 1.415 . S
C2733 H2703 0.950 . S
C2733 C2728 1.363 . S
C2733 C2732 1.415 . S
H2734 C2731 0.999 . S
H2735 C2716 0.913 . S
C355 C163 1.387 . S
C370 C0 1.345 . S
C405 C14 1.346 . S
C420 C121 1.386 . S
C455 C28 1.345 . S
C470 C135 1.387 . S
C505 C42 1.346 . S
C520 C149 1.387 . S
C555 C191 1.387 . S
C570 C56 1.345 . S
C605 C70 1.345 . S
C620 C205 1.387 . S
C655 C219 1.386 . S
C670 C84 1.346 . S
C705 C177 1.387 . S
C720 C98 1.345 . S
C755 C79 1.386 . S
C770 C112 1.346 . S
C805 C93 1.387 . S
C820 C126 1.345 . S
C855 C140 1.346 . S
C870 C107 1.386 . S
C905 C65 1.387 . S
C920 C154 1.346 . S
C955 C51 1.387 . S
C970 C168 1.346 . S
C1005 C182 1.345 . S
C1020 C9 1.387 . S
C1055 C196 1.345 . S
C1070 C23 1.387 . S
C1105 C210 1.346 . S
C1120 C37 1.386 . S
C1155 C224 1.346 . S
C1170 C331 1.386 . S
C1205 C289 1.386 . S
C1220 C238 1.346 . S
C1255 C252 1.346 . S
C1270 C247 1.386 . S
C1305 C266 1.346 . S
C1320 C261 1.387 . S
C1355 C275 1.387 . S
C1370 C280 1.345 . S
C1405 C294 1.346 . S
C1420 C317 1.387 . S
C1455 C233 1.387 . S
C1470 C308 1.346 . S
C1505 C303 1.387 . S
C1520 C322 1.345 . S
C1555 C5 1.525 . S
C1570 C89 1.525 . S
C1605 C19 1.525 . S
C1620 C103 1.525 . S
C1655 C33 1.525 . S
C1670 C61 1.525 . S
C1705 C75 1.525 . S
C1720 C47 1.525 . S
C1755 C145 1.525 . S
C1770 C117 1.525 . S
C1805 C131 1.525 . S
C1820 C159 1.525 . S
C1855 C173 1.525 . S
C1870 C201 1.525 . S
C1905 C215 1.525 . S
C1920 C187 1.525 . S
C1955 C243 1.525 . S
C1970 C229 1.525 . S
C2005 C257 1.525 . S
C2020 C327 1.525 . S
C2055 C271 1.525 . S
C2070 C299 1.525 . S
C2105 C285 1.525 . S
C2120 C313 1.525 . S
C2155 C11 0.895 . S
C2170 C81 0.895 . S
C2205 C25 0.895 . S
C2220 C95 0.895 . S
C2255 C39 0.895 . S
C2270 C109 0.895 . S
C2305 C67 0.895 . S
C2320 C53 0.895 . S
C2355 C123 0.895 . S
C2370 C333 0.895 . S
C2405 C137 0.895 . S
C2420 C305 0.895 . S
C2455 C319 0.895 . S
C2470 C151 0.895 . S
C2505 C165 0.895 . S
C2520 C235 0.895 . S
C2555 C291 0.895 . S
C2570 C179 0.895 . S
C2605 C249 0.895 . S
C2620 C193 0.895 . S
C2655 C207 0.895 . S
C2670 C263 0.895 . S
C2705 C277 0.895 . S
C2720 C221 0.895 . S
