# Generated by pormake.
# Topology sxa, (6)-cn, num edge types: 1
# Building blocks:
#     Node 0, Type 0, BuildingBlock: MIFKUJ_clean_sbu_0, # of connection points: 6
#     Node 1, Type 0, BuildingBlock: MIFKUJ_clean_sbu_0, # of connection points: 6
#     Node 2, Type 0, BuildingBlock: MIFKUJ_clean_sbu_0, # of connection points: 6
#     Node 3, Type 0, BuildingBlock: MIFKUJ_clean_sbu_0, # of connection points: 6
#     Edge 4, Type (0, 0), BuildingBlock: ZUJKAS_clean_linker_0, # of connection points: 2
#     Edge 5, Type (0, 0), BuildingBlock: ZUJKAS_clean_linker_0, # of connection points: 2
#     Edge 6, Type (0, 0), BuildingBlock: ZUJKAS_clean_linker_0, # of connection points: 2
#     Edge 7, Type (0, 0), BuildingBlock: ZUJKAS_clean_linker_0, # of connection points: 2
#     Edge 8, Type (0, 0), BuildingBlock: ZUJKAS_clean_linker_0, # of connection points: 2
#     Edge 9, Type (0, 0), BuildingBlock: ZUJKAS_clean_linker_0, # of connection points: 2
#     Edge 10, Type (0, 0), BuildingBlock: ZUJKAS_clean_linker_0, # of connection points: 2
#     Edge 11, Type (0, 0), BuildingBlock: ZUJKAS_clean_linker_0, # of connection points: 2
#     Edge 12, Type (0, 0), BuildingBlock: ZUJKAS_clean_linker_0, # of connection points: 2
#     Edge 13, Type (0, 0), BuildingBlock: ZUJKAS_clean_linker_0, # of connection points: 2
#     Edge 14, Type (0, 0), BuildingBlock: ZUJKAS_clean_linker_0, # of connection points: 2
#     Edge 15, Type (0, 0), BuildingBlock: ZUJKAS_clean_linker_0, # of connection points: 2
# Relax obj value: 0.122
# Max RMSD: 0.244
# Mean RMSD: 0.244
data_MOF--net-sxa--node1-MIFKUJ_clean_sbu_0--edge1-ZUJKAS_clean_linker_0
_symmetry_space_group_name_H-M    P1
_symmetry_Int_Tables_number       1
_symmetry_cell_setting            triclinic
loop_
_symmetry_equiv_pos_as_xyz
'x, y, z'
_cell_length_a     38.783742
_cell_length_b     35.374765
_cell_length_c     18.104838
_cell_angle_alpha  97.825394
_cell_angle_beta   89.636255
_cell_angle_gamma 90.118592
loop_
_atom_site_label
_atom_site_type_symbol
_atom_site_fract_x
_atom_site_fract_y
_atom_site_fract_z
_atom_type_partial_charge
Zn0 Zn 0.94753 0.76969 0.24611 0.0
Zn1 Zn 0.05457 0.77786 0.26496 0.0
C2 C 0.88521 0.74738 0.31301 0.0
O3 O 0.89093 0.71772 0.26235 0.0
C4 C 0.07002 0.75769 0.10699 0.0
O5 O 0.03884 0.743 0.10252 0.0
O6 O 0.92528 0.76137 0.146 0.0
O7 O 0.97333 0.8193 0.24608 0.0
O8 O 0.0295 0.82842 0.26339 0.0
C9 C 0.93704 0.77362 0.08799 0.0
O10 O 0.96617 0.79273 0.09104 0.0
O11 O 0.90722 0.77444 0.32017 0.0
C12 C 0.11282 0.75395 0.34199 0.0
O13 O 0.10733 0.72367 0.29283 0.0
O14 O 0.09206 0.78199 0.34444 0.0
O15 O 0.03028 0.72642 0.25917 0.0
O16 O 0.97341 0.72108 0.2506 0.0
O17 O 0.08128 0.77329 0.1696 0.0
C18 C -0.00044 0.8411 0.25212 0.0
C19 C 0.003 0.70619 0.2543 0.0
Zn20 Zn 0.44838 0.281 0.24282 0.0
Zn21 Zn 0.55542 0.27829 0.26145 0.0
C22 C 0.38609 0.25577 0.30846 0.0
O23 O 0.39478 0.2243 0.26521 0.0
C24 C 0.56851 0.25121 0.10358 0.0
O25 O 0.53927 0.2325 0.10484 0.0
O26 O 0.43032 0.27083 0.13904 0.0
O27 O 0.47337 0.33139 0.24848 0.0
O28 O 0.53039 0.32875 0.25762 0.0
C29 C 0.42099 0.29669 0.10129 0.0
O30 O 0.42294 0.33265 0.13086 0.0
O31 O 0.40588 0.28472 0.31086 0.0
C32 C 0.61425 0.25498 0.33677 0.0
O33 O 0.60641 0.22338 0.29316 0.0
O34 O 0.59486 0.28401 0.3363 0.0
O35 O 0.53108 0.22771 0.267 0.0
O36 O 0.47483 0.23327 0.25123 0.0
O37 O 0.57945 0.27101 0.16266 0.0
C38 C 0.50273 0.34762 0.25269 0.0
C39 C 0.50112 0.21308 0.25986 0.0
Zn40 Zn 0.95256 0.24977 0.85248 0.0
Zn41 Zn 0.04212 0.2454 0.83944 0.0
C42 C 0.93748 0.27811 0.72221 0.0
O43 O 0.93778 0.3092 0.77106 0.0
C44 C 0.10953 0.21692 0.82659 0.0
O45 O 0.0934 0.18997 0.78281 0.0
O46 O 0.90151 0.24935 0.86919 0.0
O47 O 0.96845 0.2026 0.89383 0.0
O48 O 0.02481 0.19643 0.87513 0.0
C49 C 0.8857 0.22246 0.82926 0.0
O50 O 0.90375 0.19596 0.78824 0.0
O51 O 0.95185 0.24834 0.74023 0.0
C52 C 0.06503 0.27533 0.71462 0.0
O53 O 0.06593 0.30498 0.76687 0.0
O54 O 0.04822 0.24595 0.72797 0.0
O55 O 0.02674 0.29605 0.89817 0.0
O56 O 0.96983 0.29922 0.90847 0.0
O57 O 0.09214 0.24375 0.86295 0.0
C58 C 0.99631 0.18418 0.89777 0.0
C59 C -0.00053 0.31391 0.92168 0.0
Zn60 Zn 0.45348 0.75255 0.86226 0.0
Zn61 Zn 0.54315 0.75701 0.84765 0.0
C62 C 0.43354 0.78423 0.73867 0.0
O63 O 0.43212 0.81348 0.79176 0.0
C64 C 0.6144 0.73976 0.8349 0.0
O65 O 0.60252 0.70857 0.79549 0.0
O66 O 0.4029 0.74797 0.88094 0.0
O67 O 0.47359 0.70516 0.89556 0.0
O68 O 0.53058 0.7076 0.8885 0.0
C69 C 0.3873 0.72176 0.83881 0.0
O70 O 0.4055 0.69673 0.79455 0.0
O71 O 0.45047 0.75493 0.7512 0.0
C72 C 0.56335 0.78374 0.71917 0.0
O73 O 0.56254 0.81469 0.76838 0.0
O74 O 0.54748 0.75431 0.73526 0.0
O75 O 0.52368 0.80651 0.90207 0.0
O76 O 0.46757 0.80209 0.92387 0.0
O77 O 0.59339 0.76361 0.86914 0.0
C78 C 0.50302 0.69078 0.90475 0.0
C79 C 0.49577 0.82054 0.931 0.0
H80 H 0.05802 0.35623 0.95748 0.0
H81 H 0.06205 0.42074 0.02589 0.0
H82 H 0.95141 0.42483 0.04955 0.0
H83 H 0.94707 0.36036 0.98213 0.0
H84 H 0.03355 0.48762 0.98902 0.0
H85 H 0.98325 0.45838 0.2628 0.0
H86 H 0.99709 0.4209 0.19099 0.0
H87 H 0.95521 0.44219 0.18646 0.0
C88 C 0.03452 0.37069 0.97771 0.0
C89 C 0.00222 0.35287 0.96446 0.0
C90 C 0.03689 0.40762 0.0168 0.0
C91 C 0.00709 0.42744 0.04404 0.0
C92 C 0.97484 0.40982 0.03068 0.0
H93 H 0.95059 0.65368 0.24169 0.0
H94 H 0.95439 0.58566 0.19588 0.0
C95 C 0.97241 0.37296 0.99157 0.0
C96 C 0.00951 0.46716 0.08344 0.0
H97 H 0.9875 0.52387 0.24509 0.0
C98 C 0.02387 0.49549 0.04534 0.0
C99 C 0.99681 0.47744 0.15691 0.0
C100 C 0.98251 0.44809 0.20204 0.0
C101 C 0.02472 0.53398 0.07755 0.0
C102 C 0.01149 0.54438 0.1506 0.0
C103 C 0.99769 0.51592 0.18922 0.0
C104 C 0.01 0.58489 0.18603 0.0
C105 C 0.03851 0.56339 0.03185 0.0
C106 C 0.04011 0.60691 0.19867 0.0
C107 C 0.03807 0.646 0.22498 0.0
C108 C 0.00583 0.66383 0.23948 0.0
C109 C 0.97588 0.6411 0.23088 0.0
C110 C 0.97797 0.6021 0.20458 0.0
H111 H 0.04022 0.55206 0.97161 0.0
H112 H 0.02196 0.58922 0.03848 0.0
H113 H 0.06479 0.57207 0.05126 0.0
H114 H 0.06518 0.59408 0.18635 0.0
H115 H 0.06169 0.66247 0.231 0.0
H116 H 0.56084 0.38873 0.2263 0.0
H117 H 0.56344 0.4487 0.17334 0.0
H118 H 0.45262 0.45685 0.1837 0.0
H119 H 0.44966 0.39693 0.23628 0.0
H120 H 0.47985 0.46236 0.04243 0.0
H121 H 0.54829 0.56098 0.258 0.0
H122 H 0.56938 0.51604 0.23056 0.0
H123 H 0.52846 0.5172 0.27787 0.0
C124 C 0.53701 0.40372 0.21927 0.0
C125 C 0.50501 0.38768 0.23555 0.0
C126 C 0.53858 0.43813 0.18888 0.0
C127 C 0.50823 0.45746 0.17459 0.0
C128 C 0.4764 0.4425 0.19409 0.0
H129 H 0.44947 0.64864 0.94998 0.0
H130 H 0.45215 0.5921 0.01309 0.0
C131 C 0.47479 0.40819 0.22451 0.0
C132 C 0.50929 0.4913 0.13357 0.0
H133 H 0.53888 0.58295 0.14174 0.0
C134 C 0.49266 0.48877 0.06434 0.0
C135 C 0.52636 0.52564 0.16156 0.0
C136 C 0.54392 0.53044 0.23634 0.0
C137 C 0.49268 0.51943 0.02237 0.0
C138 C 0.50914 0.55409 0.05096 0.0
C139 C 0.52623 0.55647 0.11973 0.0
C140 C 0.50784 0.58849 0.01153 0.0
C141 C 0.47552 0.51411 0.94707 0.0
C142 C 0.53828 0.60605 0.99071 0.0
C143 C 0.53687 0.63877 0.95473 0.0
C144 C 0.50494 0.65482 0.93921 0.0
C145 C 0.47455 0.63707 0.96026 0.0
C146 C 0.47601 0.6045 0.99621 0.0
H147 H 0.47373 0.48345 0.92371 0.0
H148 H 0.44891 0.52563 0.95301 0.0
H149 H 0.48973 0.52945 0.90673 0.0
H150 H 0.56318 0.59439 1.00221 0.0
H151 H 0.56082 0.65169 0.93982 0.0
H152 H 0.53018 0.88299 0.89665 0.0
H153 H 0.5302 0.94737 0.96565 0.0
H154 H 0.46456 0.90901 0.13422 0.0
H155 H 0.46216 0.8454 0.06145 0.0
H156 H 0.44365 0.97275 0.11739 0.0
H157 H 0.58438 0.99074 0.13618 0.0
H158 H 0.57264 0.98213 0.03999 0.0
H159 H 0.56511 0.9458 0.09943 0.0
C160 C 0.51583 0.8884 0.94855 0.0
C161 C 0.4963 0.85925 0.97395 0.0
C162 C 0.51619 0.92515 0.98864 0.0
C163 C 0.49834 0.93319 0.05692 0.0
C164 C 0.47876 0.90384 0.08214 0.0
H165 H 0.54164 0.15866 0.31154 0.0
H166 H 0.53902 0.08932 0.27495 0.0
C167 C 0.47741 0.86741 0.04062 0.0
C168 C 0.49873 0.97248 0.1 0.0
H169 H 0.55105 0.04886 0.15507 0.0
C170 C 0.46731 0.98905 0.12657 0.0
C171 C 0.52951 0.99389 0.11461 0.0
C172 C 0.56477 0.97696 0.0968 0.0
C173 C 0.46564 0.02649 0.16429 0.0
C174 C 0.49595 0.04917 0.17203 0.0
C175 C 0.52756 0.03211 0.14822 0.0
C176 C 0.49537 0.09088 0.20114 0.0
C177 C 0.43133 0.04077 0.19651 0.0
C178 C 0.47161 0.11519 0.17305 0.0
C179 C 0.47227 0.15451 0.19618 0.0
C180 C 0.49764 0.17092 0.24576 0.0
C181 C 0.52158 0.14682 0.27388 0.0
C182 C 0.5202 0.10718 0.25249 0.0
H183 H 0.41575 0.01698 0.21356 0.0
H184 H 0.43447 0.06286 0.24578 0.0
H185 H 0.41649 0.05302 0.15326 0.0
H186 H 0.45316 0.10405 0.131 0.0
H187 H 0.45398 0.1723 0.17185 0.0
H188 H 0.95196 0.86511 0.15878 0.0
H189 H 0.95239 0.92357 0.10237 0.0
H190 H 0.03859 0.96506 0.2401 0.0
H191 H 0.04028 0.90452 0.29169 0.0
H192 H 0.94194 0.99163 0.13757 0.0
H193 H 0.079 0.98424 0.05169 0.0
H194 H 0.05835 0.94623 0.09198 0.0
H195 H 0.07484 0.98752 0.15086 0.0
C196 C 0.97103 0.88666 0.17743 0.0
C197 C 0.99635 0.87984 0.22935 0.0
C198 C 0.97126 0.92033 0.14491 0.0
C199 C 0.9962 0.94877 0.16477 0.0
C200 C 0.02001 0.94315 0.22078 0.0
H201 H 0.96213 0.17399 0.02481 0.0
H202 H 0.96311 0.11849 0.09144 0.0
C203 C 0.0206 0.90872 0.25142 0.0
C204 C 0.99692 0.98384 0.12635 0.0
H205 H 0.04978 0.04202 0.03977 0.0
C206 C 0.9656 1.00232 0.11572 0.0
C207 C 0.0275 0.99782 0.09596 0.0
C208 C 0.06171 0.97765 0.09744 0.0
C209 C 0.96387 0.03371 0.07574 0.0
C210 C 0.99471 0.04916 0.0495 0.0
C211 C 0.02607 0.03079 0.06029 0.0
C212 C 0.99508 0.08386 0.01003 0.0
C213 C 0.92864 0.0486 0.05956 0.0
C214 C 0.01445 0.0844 0.94399 0.0
C215 C 0.01522 0.11702 0.90762 0.0
C216 C 0.99587 0.14944 0.93531 0.0
C217 C 0.97665 0.14904 1.00124 0.0
C218 C 0.97693 0.11705 0.03904 0.0
H219 H 0.90875 0.02585 0.05803 0.0
H220 H 0.9212 0.07163 0.10469 0.0
H221 H 0.92818 0.06002 1.00542 0.0
H222 H 0.02892 0.05949 0.92018 0.0
H223 H 0.03044 0.11667 0.85716 0.0
H224 H 0.41002 0.71949 0.65132 0.0
H225 H 0.35673 0.71326 0.57859 0.0
H226 H 0.34062 0.83469 0.62659 0.0
H227 H 0.39377 0.84122 0.69822 0.0
H228 H 0.29188 0.73129 0.63443 0.0
H229 H 0.3206 0.81616 0.40615 0.0
H230 H 0.35388 0.80034 0.46407 0.0
H231 H 0.32873 0.84209 0.49656 0.0
C232 C 0.39571 0.74502 0.64453 0.0
C233 C 0.40631 0.7809 0.68064 0.0
C234 C 0.36505 0.74136 0.6034 0.0
C235 C 0.3447 0.77354 0.59654 0.0
C236 C 0.3561 0.80952 0.62968 0.0
H237 H 0.14001 0.81644 0.42982 0.0
H238 H 0.19526 0.82043 0.49597 0.0
C239 C 0.38659 0.81318 0.67085 0.0
C240 C 0.31035 0.76942 0.55983 0.0
H241 H 0.26124 0.80192 0.42552 0.0
C242 C 0.28529 0.74641 0.58823 0.0
C243 C 0.30161 0.78939 0.49991 0.0
C244 C 0.32773 0.81308 0.46438 0.0
C245 C 0.2516 0.74356 0.55957 0.0
C246 C 0.24281 0.76387 0.50022 0.0
C247 C 0.2679 0.78665 0.47148 0.0
C248 C 0.20812 0.76086 0.46519 0.0
C249 C 0.22538 0.71966 0.59424 0.0
C250 C 0.19694 0.72608 0.42608 0.0
C251 C 0.16553 0.72374 0.38813 0.0
C252 C 0.14453 0.75618 0.38826 0.0
C253 C 0.15542 0.79087 0.42886 0.0
C254 C 0.18703 0.79322 0.46652 0.0
H255 H 0.23425 0.71197 0.64848 0.0
H256 H 0.20047 0.73509 0.603 0.0
H257 H 0.22077 0.69284 0.55616 0.0
H258 H 0.21301 0.7009 0.42309 0.0
H259 H 0.15807 0.69657 0.35736 0.0
H260 H 0.08998 0.21077 0.6286 0.0
H261 H 0.14256 0.20589 0.55202 0.0
H262 H 0.15496 0.32806 0.59332 0.0
H263 H 0.1023 0.33324 0.66857 0.0
H264 H 0.17149 0.29875 0.44833 0.0
H265 H 0.2377 0.21725 0.64748 0.0
H266 H 0.19775 0.19697 0.61146 0.0
H267 H 0.19768 0.24231 0.66988 0.0
C268 C 0.1034 0.23668 0.61988 0.0
C269 C 0.09194 0.2724 0.65516 0.0
C270 C 0.13377 0.2338 0.5769 0.0
C271 C 0.15328 0.26653 0.56849 0.0
C272 C 0.1406 0.30236 0.59951 0.0
H273 H 0.35451 0.31863 0.38661 0.0
H274 H 0.29809 0.32135 0.44926 0.0
C275 C 0.11036 0.30526 0.64242 0.0
C276 C 0.18752 0.26369 0.53013 0.0
H277 H 0.26892 0.2276 0.53986 0.0
C278 C 0.19277 0.28316 0.46831 0.0
C279 C 0.21546 0.24365 0.55659 0.0
C280 C 0.21214 0.22411 0.62535 0.0
C281 C 0.22493 0.28265 0.43168 0.0
C282 C 0.25278 0.26254 0.45805 0.0
C283 C 0.24754 0.24296 0.51964 0.0
C284 C 0.28743 0.26103 0.42177 0.0
C285 C 0.22875 0.30318 0.36431 0.0
C286 C 0.30061 0.22611 0.38714 0.0
C287 C 0.33278 0.22446 0.35134 0.0
C288 C 0.35274 0.25767 0.35003 0.0
C289 C 0.33985 0.29252 0.3864 0.0
C290 C 0.30749 0.29417 0.42184 0.0
H291 H 0.20335 0.31019 0.34163 0.0
H292 H 0.24301 0.33025 0.38026 0.0
H293 H 0.24367 0.28564 0.31962 0.0
H294 H 0.28571 0.20014 0.38675 0.0
H295 H 0.34188 0.19709 0.32422 0.0
H296 H 0.91041 0.21275 0.64336 0.0
H297 H 0.85687 0.20771 0.57162 0.0
H298 H 0.84842 0.33035 0.60097 0.0
H299 H 0.90178 0.33565 0.67198 0.0
H300 H 0.79351 0.23322 0.62807 0.0
H301 H 0.82626 0.30393 0.38196 0.0
H302 H 0.85877 0.28815 0.44179 0.0
H303 H 0.83656 0.33258 0.46856 0.0
C304 C 0.89773 0.23869 0.63273 0.0
C305 C 0.91045 0.27464 0.66376 0.0
C306 C 0.86694 0.23574 0.5921 0.0
C307 C 0.84862 0.26865 0.58049 0.0
C308 C 0.86229 0.30454 0.60794 0.0
H309 H 0.64563 0.3183 0.41325 0.0
H310 H 0.7016 0.3212 0.47646 0.0
C311 C 0.89289 0.30751 0.64874 0.0
C312 C 0.81393 0.26564 0.5453 0.0
H313 H 0.76631 0.29498 0.40535 0.0
C314 C 0.78766 0.24634 0.57887 0.0
C315 C 0.80617 0.28311 0.48152 0.0
C316 C 0.8335 0.3028 0.4409 0.0
C317 C 0.75379 0.24461 0.55119 0.0
C318 C 0.746 0.26243 0.48793 0.0
C319 C 0.77225 0.28161 0.45422 0.0
C320 C 0.71105 0.26045 0.45419 0.0
C321 C 0.72638 0.22455 0.59085 0.0
C322 C 0.69779 0.22539 0.42073 0.0
C323 C 0.66597 0.22366 0.38447 0.0
C324 C 0.64665 0.257 0.38068 0.0
C325 C 0.6597 0.29207 0.41543 0.0
C326 C 0.69173 0.29379 0.45141 0.0
H327 H 0.73514 0.21832 0.64622 0.0
H328 H 0.70258 0.24209 0.5984 0.0
H329 H 0.71976 0.19706 0.55673 0.0
H330 H 0.71247 0.1994 0.421 0.0
H331 H 0.65681 0.19616 0.35823 0.0
H332 H 0.83436 0.69363 0.30952 0.0
H333 H 0.77859 0.69883 0.37339 0.0
H334 H 0.80545 0.81151 0.47942 0.0
H335 H 0.86137 0.80677 0.41473 0.0
H336 H 0.76104 0.71074 0.52393 0.0
H337 H 0.71346 0.82905 0.37991 0.0
H338 H 0.75126 0.80153 0.34897 0.0
H339 H 0.75378 0.83872 0.42702 0.0
C340 C 0.82856 0.71956 0.34656 0.0
C341 C 0.85236 0.74993 0.35645 0.0
C342 C 0.79659 0.72243 0.38315 0.0
C343 C 0.78749 0.75579 0.43024 0.0
C344 C 0.81156 0.78577 0.44212 0.0
H345 H 0.61136 0.83716 0.69506 0.0
H346 H 0.66408 0.8279 0.62173 0.0
C347 C 0.84365 0.78293 0.40548 0.0
C348 C 0.75271 0.75915 0.46607 0.0
H349 H 0.67868 0.81194 0.47817 0.0
C350 C 0.74292 0.73272 0.51367 0.0
C351 C 0.72896 0.78766 0.45225 0.0
C352 C 0.73716 0.81567 0.39874 0.0
C353 C 0.71053 0.73476 0.54962 0.0
C354 C 0.68697 0.76374 0.5368 0.0
C355 C 0.69664 0.78976 0.48823 0.0
C356 C 0.65319 0.76928 0.57687 0.0
C357 C 0.70239 0.70663 0.60294 0.0
C358 C 0.62858 0.73983 0.57447 0.0
C359 C 0.59825 0.74489 0.61751 0.0
C360 C 0.59164 0.77978 0.66265 0.0
C361 C 0.61537 0.80986 0.66107 0.0
C362 C 0.64576 0.8046 0.61913 0.0
H363 H 0.72592 0.6922 0.61972 0.0
H364 H 0.68934 0.72099 0.65384 0.0
H365 H 0.68489 0.68424 0.57545 0.0
H366 H 0.63306 0.71268 0.54042 0.0
H367 H 0.58058 0.72113 0.61724 0.0
H368 H 0.34615 0.67127 0.75133 0.0
H369 H 0.28319 0.67292 0.74097 0.0
H370 H 0.28028 0.77524 0.90048 0.0
H371 H 0.3428 0.77392 0.91111 0.0
H372 H 0.23843 0.66831 0.85706 0.0
H373 H 0.21459 0.80026 0.73825 0.0
H374 H 0.25685 0.77875 0.73627 0.0
H375 H 0.24278 0.81112 0.81634 0.0
C376 C 0.33206 0.69419 0.784 0.0
C377 C 0.34938 0.72224 0.83278 0.0
C378 C 0.29618 0.69522 0.77746 0.0
C379 C 0.27721 0.72462 0.81869 0.0
C380 C 0.29454 0.75287 0.86655 0.0
H381 H 0.13007 0.7955 0.09302 0.0
H382 H 0.17241 0.78394 0.99306 0.0
C383 C 0.33025 0.75176 0.87346 0.0
C384 C 0.23915 0.72369 0.82045 0.0
H385 H 0.17116 0.78502 0.83304 0.0
C386 C 0.22322 0.69312 0.84909 0.0
C387 C 0.21933 0.75575 0.80856 0.0
C388 C 0.23435 0.78807 0.77233 0.0
C389 C 0.18927 0.69616 0.87625 0.0
C390 C 0.17098 0.73051 0.87358 0.0
C391 C 0.18541 0.7589 0.83581 0.0
C392 C 0.142 0.74117 0.92543 0.0
C393 C 0.17469 0.66451 0.91523 0.0
C394 C 0.11037 0.72169 0.91943 0.0
C395 C 0.08597 0.72817 0.97713 0.0
C396 C 0.09312 0.75405 0.04137 0.0
C397 C 0.12397 0.77502 0.04477 0.0
C398 C 0.1481 0.76868 0.98734 0.0
H399 H 0.1929 0.64026 0.91462 0.0
H400 H 0.16832 0.67555 0.9741 0.0
H401 H 0.15054 0.6536 0.88746 0.0
H402 H 0.10516 0.70055 0.87169 0.0
H403 H 0.06227 0.71178 0.97287 0.0
H404 H 0.15454 0.16194 0.76454 0.0
H405 H 0.21774 0.16504 0.76542 0.0
H406 H 0.21307 0.27819 0.88853 0.0
H407 H 0.15024 0.27541 0.8884 0.0
H408 H 0.26307 0.26487 0.75826 0.0
H409 H 0.27183 0.16265 0.96683 0.0
H410 H 0.24684 0.15017 0.88355 0.0
H411 H 0.23214 0.18738 0.95382 0.0
C412 C 0.16702 0.18744 0.79187 0.0
C413 C 0.14749 0.21823 0.82741 0.0
C414 C 0.20302 0.18917 0.79201 0.0
C415 C 0.21981 0.22184 0.82694 0.0
C416 C 0.2004 0.25286 0.86088 0.0
H417 H 0.37639 0.33972 0.03237 0.0
H418 H 0.33546 0.31614 0.93572 0.0
C419 C 0.16455 0.25105 0.8614 0.0
C420 C 0.25757 0.2233 0.83416 0.0
H421 H 0.32015 0.19977 0.95015 0.0
C422 C 0.27601 0.2499 0.79861 0.0
C423 C 0.2743 0.20326 0.88586 0.0
C424 C 0.25546 0.17426 0.9251 0.0
C425 C 0.31022 0.25922 0.81807 0.0
C426 C 0.32573 0.24227 0.87593 0.0
C427 C 0.30827 0.21296 0.906 0.0
C428 C 0.35647 0.25885 0.91635 0.0
C429 C 0.3288 0.28825 0.77867 0.0
C430 C 0.38257 0.2349 0.93663 0.0
C431 C 0.40544 0.24813 0.99356 0.0
C432 C 0.40274 0.28562 0.03052 0.0
C433 C 0.37902 0.31068 1.00492 0.0
C434 C 0.3558 0.29728 0.94883 0.0
H435 H 0.32118 0.28531 0.71909 0.0
H436 H 0.32134 0.31735 0.80458 0.0
H437 H 0.35723 0.28532 0.78188 0.0
H438 H 0.38357 0.20517 0.91242 0.0
H439 H 0.42385 0.22834 0.01162 0.0
H440 H 0.61961 0.29894 0.07218 0.0
H441 H 0.66165 0.28848 0.97166 0.0
H442 H 0.60909 0.18505 0.88073 0.0
H443 H 0.56657 0.19537 0.98259 0.0
H444 H 0.67559 0.17306 0.91158 0.0
H445 H 0.67114 0.29407 0.75168 0.0
H446 H 0.66912 0.31205 0.849 0.0
H447 H 0.63499 0.28171 0.80735 0.0
C448 C 0.61646 0.2744 0.02991 0.0
C449 C 0.59012 0.24768 0.03573 0.0
C450 C 0.64025 0.26874 0.97167 0.0
C451 C 0.63821 0.2363 0.91787 0.0
C452 C 0.61081 0.21054 0.92114 0.0
H453 H 0.84505 0.17418 0.73632 0.0
H454 H 0.78194 0.17311 0.73098 0.0
C455 C 0.58667 0.21639 0.9794 0.0
C456 C 0.66841 0.2264 0.86882 0.0
H457 H 0.72997 0.27071 0.77624 0.0
C458 C 0.687 0.19356 0.8792 0.0
C459 C 0.6831 0.25293 0.82595 0.0
C460 C 0.66324 0.28692 0.80725 0.0
C461 C 0.72154 0.18918 0.8565 0.0
C462 C 0.73749 0.21828 0.82211 0.0
C463 C 0.71774 0.24881 0.8039 0.0
C464 C 0.77536 0.22097 0.81778 0.0
C465 C 0.74168 0.15552 0.87624 0.0
C466 C 0.79233 0.24877 0.86724 0.0
C467 C 0.82822 0.24942 0.87076 0.0
C468 C 0.84774 0.2222 0.8248 0.0
C469 C 0.83067 0.19511 0.77344 0.0
C470 C 0.79469 0.19452 0.76995 0.0
H471 H 0.72579 0.13661 0.90705 0.0
H472 H 0.75156 0.13843 0.82454 0.0
H473 H 0.76424 0.16561 0.91102 0.0
H474 H 0.77771 0.26933 0.90479 0.0
H475 H 0.84059 0.27086 0.91031 0.0
H476 H 0.93142 0.82572 0.99053 0.0
H477 H 0.88373 0.82982 0.90327 0.0
H478 H 0.84495 0.72146 0.95149 0.0
H479 H 0.89183 0.71756 0.03947 0.0
H480 H 0.83954 0.74957 0.78293 0.0
H481 H 0.78624 0.83815 0.03659 0.0
H482 H 0.82995 0.84443 0.00581 0.0
H483 H 0.81859 0.8027 0.04671 0.0
C484 C 0.91343 0.80215 0.98022 0.0
C485 C 0.91484 0.77155 0.02216 0.0
C486 C 0.88635 0.80451 0.93036 0.0
C487 C 0.86103 0.77594 0.92137 0.0
C488 C 0.86449 0.74359 0.95755 0.0
H489 H 0.66859 0.69079 0.80962 0.0
H490 H 0.72985 0.70709 0.81054 0.0
C491 C 0.89109 0.74152 0.00806 0.0
C492 C 0.82741 0.78273 0.88854 0.0
H493 H 0.74696 0.8116 0.94662 0.0
C494 C 0.81933 0.76403 0.81752 0.0
C495 C 0.8014 0.80211 0.93359 0.0
C496 C 0.80921 0.82314 0.00997 0.0
C497 C 0.78511 0.76207 0.79242 0.0
C498 C 0.75853 0.77777 0.8411 0.0
C499 C 0.76722 0.79921 0.90946 0.0
C500 C 0.72167 0.76829 0.82791 0.0
C501 C 0.77767 0.74258 0.71489 0.0
C502 C 0.69663 0.79714 0.83866 0.0
C503 C 0.66172 0.78779 0.84089 0.0
C504 C 0.65123 0.74941 0.83158 0.0
C505 C 0.67609 0.72058 0.81742 0.0
C506 C 0.71107 0.72993 0.8166 0.0
H507 H 0.79969 0.74574 0.67663 0.0
H508 H 0.77378 0.71162 0.71644 0.0
H509 H 0.75419 0.75447 0.69201 0.0
H510 H 0.70418 0.82691 0.84789 0.0
H511 H 0.64295 0.81061 0.85026 0.0
loop_
_geom_bond_atom_site_label_1
_geom_bond_atom_site_label_2
_geom_bond_distance
_geom_bond_site_symmetry_2
_ccdc_geom_bond_type
Zn0 O6 1.969 . S
Zn0 O7 1.965 . S
Zn0 O11 2.024 . S
Zn0 O16 1.969 . S
Zn1 O8 1.969 . S
Zn1 O14 1.969 . S
Zn1 O15 1.965 . S
Zn1 O17 2.024 . S
C2 O3 1.229 . S
C2 O11 1.058 . S
O3 C2 1.229 . S
C4 O5 1.229 . S
C4 O17 1.058 . S
O5 C4 1.229 . S
O6 Zn0 1.969 . S
O6 C9 1.267 . S
O7 Zn0 1.965 . S
O7 C18 1.260 1_655 S
O8 Zn1 1.969 . S
O8 C18 1.258 . S
C9 O6 1.267 . S
C9 O10 1.228 . S
O10 C9 1.228 . S
O11 Zn0 2.024 . S
O11 C2 1.058 . S
C12 O13 1.228 . S
C12 O14 1.267 . S
O13 C12 1.228 . S
O14 Zn1 1.969 . S
O14 C12 1.267 . S
O15 Zn1 1.965 . S
O15 C19 1.268 . S
O16 Zn0 1.969 . S
O16 C19 1.246 1_655 S
O17 Zn1 2.024 . S
O17 C4 1.058 . S
C18 O7 1.260 1_455 S
C18 O8 1.258 . S
C19 O15 1.268 . S
C19 O16 1.246 1_455 S
Zn20 O26 1.969 . S
Zn20 O27 1.965 . S
Zn20 O31 2.024 . S
Zn20 O36 1.969 . S
Zn21 O28 1.969 . S
Zn21 O34 1.969 . S
Zn21 O35 1.965 . S
Zn21 O37 2.024 . S
C22 O23 1.229 . S
C22 O31 1.058 . S
O23 C22 1.229 . S
C24 O25 1.229 . S
C24 O37 1.058 . S
O25 C24 1.229 . S
O26 Zn20 1.969 . S
O26 C29 1.267 . S
O27 Zn20 1.965 . S
O27 C38 1.260 . S
O28 Zn21 1.969 . S
O28 C38 1.258 . S
C29 O26 1.267 . S
C29 O30 1.228 . S
O30 C29 1.228 . S
O31 Zn20 2.024 . S
O31 C22 1.058 . S
C32 O33 1.228 . S
C32 O34 1.267 . S
O33 C32 1.228 . S
O34 Zn21 1.969 . S
O34 C32 1.267 . S
O35 Zn21 1.965 . S
O35 C39 1.260 . S
O36 Zn20 1.969 . S
O36 C39 1.258 . S
O37 Zn21 2.024 . S
O37 C24 1.058 . S
C38 O27 1.260 . S
C38 O28 1.258 . S
C39 O35 1.260 . S
C39 O36 1.258 . S
Zn40 O46 1.969 . S
Zn40 O47 1.965 . S
Zn40 O51 2.024 . S
Zn40 O56 1.969 . S
Zn41 O48 1.969 . S
Zn41 O54 1.969 . S
Zn41 O55 1.965 . S
Zn41 O57 2.024 . S
C42 O43 1.229 . S
C42 O51 1.058 . S
O43 C42 1.229 . S
C44 O45 1.229 . S
C44 O57 1.058 . S
O45 C44 1.229 . S
O46 Zn40 1.969 . S
O46 C49 1.267 . S
O47 Zn40 1.965 . S
O47 C58 1.260 1_655 S
O48 Zn41 1.969 . S
O48 C58 1.258 . S
C49 O46 1.267 . S
C49 O50 1.228 . S
O50 C49 1.228 . S
O51 Zn40 2.024 . S
O51 C42 1.058 . S
C52 O53 1.228 . S
C52 O54 1.267 . S
O53 C52 1.228 . S
O54 Zn41 1.969 . S
O54 C52 1.267 . S
O55 Zn41 1.965 . S
O55 C59 1.268 . S
O56 Zn40 1.969 . S
O56 C59 1.246 1_655 S
O57 Zn41 2.024 . S
O57 C44 1.058 . S
C58 O47 1.260 1_455 S
C58 O48 1.258 . S
C59 O55 1.268 . S
C59 O56 1.246 1_455 S
Zn60 O66 1.969 . S
Zn60 O67 1.965 . S
Zn60 O71 2.024 . S
Zn60 O76 1.969 . S
Zn61 O68 1.969 . S
Zn61 O74 1.969 . S
Zn61 O75 1.965 . S
Zn61 O77 2.024 . S
C62 O63 1.229 . S
C62 O71 1.058 . S
O63 C62 1.229 . S
C64 O65 1.229 . S
C64 O77 1.058 . S
O65 C64 1.229 . S
O66 Zn60 1.969 . S
O66 C69 1.267 . S
O67 Zn60 1.965 . S
O67 C78 1.260 . S
O68 Zn61 1.969 . S
O68 C78 1.258 . S
C69 O66 1.267 . S
C69 O70 1.228 . S
O70 C69 1.228 . S
O71 Zn60 2.024 . S
O71 C62 1.058 . S
C72 O73 1.228 . S
C72 O74 1.267 . S
O73 C72 1.228 . S
O74 Zn61 1.969 . S
O74 C72 1.267 . S
O75 Zn61 1.965 . S
O75 C79 1.260 . S
O76 Zn60 1.969 . S
O76 C79 1.258 . S
O77 Zn61 2.024 . S
O77 C64 1.058 . S
C78 O67 1.260 . S
C78 O68 1.258 . S
C79 O75 1.260 . S
C79 O76 1.258 . S
H80 C88 0.929 . S
H81 C90 0.930 . S
H82 C92 0.930 . S
H83 C95 0.929 . S
H84 C98 0.930 . S
H85 C100 0.960 . S
H86 C100 0.960 . S
H87 C100 0.944 1_655 S
C88 H80 0.929 . S
C88 C89 1.377 . S
C88 C90 1.384 . S
C89 C88 1.377 . S
C89 C95 1.390 1_455 S
C90 H81 0.930 . S
C90 C88 1.384 . S
C90 C91 1.372 . S
C91 C90 1.372 . S
C91 C92 1.400 1_455 S
C91 C96 1.490 . S
C92 H82 0.930 . S
C92 C91 1.400 1_655 S
C92 C95 1.386 . S
H93 C109 0.930 . S
H94 C110 0.931 . S
C95 H83 0.929 . S
C95 C89 1.390 1_655 S
C95 C92 1.386 . S
C96 C91 1.490 . S
C96 C98 1.395 . S
C96 C99 1.403 1_556 S
H97 C103 0.930 . S
C98 H84 0.930 . S
C98 C96 1.395 . S
C98 C101 1.403 . S
C99 C96 1.403 1_554 S
C99 C100 1.524 . S
C99 C103 1.400 . S
C100 H85 0.960 . S
C100 H86 0.960 . S
C100 H87 0.944 1_455 S
C100 C99 1.524 . S
C101 C98 1.403 . S
C101 C102 1.392 1_556 S
C101 C105 1.492 1_455 S
C102 C101 1.392 1_554 S
C102 C103 1.385 . S
C102 C104 1.478 . S
C103 H97 0.930 . S
C103 C99 1.400 . S
C103 C102 1.385 . S
C104 C102 1.478 . S
C104 C106 1.381 . S
C104 C110 1.383 1_455 S
C105 C101 1.492 1_655 S
C105 H111 0.962 . S
C105 H112 0.988 . S
C105 H113 0.935 1_655 S
C106 C104 1.381 . S
C106 C107 1.394 . S
C106 H114 0.930 . S
C107 C106 1.394 . S
C107 C108 1.383 . S
C107 H115 0.929 . S
C108 C107 1.383 . S
C108 C109 1.377 1_455 S
C109 H93 0.930 . S
C109 C108 1.377 1_655 S
C109 C110 1.379 . S
C110 H94 0.931 . S
C110 C104 1.383 1_655 S
C110 C109 1.379 . S
H111 C105 0.962 . S
H112 C105 0.988 . S
H113 C105 0.935 1_455 S
H114 C106 0.930 . S
H115 C107 0.929 . S
H116 C124 0.929 . S
H117 C126 0.930 . S
H118 C128 0.930 . S
H119 C131 0.929 . S
H120 C134 0.930 . S
H121 C136 0.960 . S
H122 C136 0.960 . S
H123 C136 0.960 . S
C124 H116 0.929 . S
C124 C125 1.377 . S
C124 C126 1.384 . S
C125 C124 1.377 . S
C125 C131 1.390 . S
C126 H117 0.930 . S
C126 C124 1.384 . S
C126 C127 1.372 . S
C127 C126 1.372 . S
C127 C128 1.400 . S
C127 C132 1.490 . S
C128 H118 0.930 . S
C128 C127 1.400 . S
C128 C131 1.386 . S
H129 C145 0.930 . S
H130 C146 0.931 . S
C131 H119 0.929 . S
C131 C125 1.390 . S
C131 C128 1.386 . S
C132 C127 1.490 . S
C132 C134 1.395 1_554 S
C132 C135 1.403 . S
H133 C139 0.930 . S
C134 H120 0.930 . S
C134 C132 1.395 1_556 S
C134 C137 1.403 . S
C135 C132 1.403 . S
C135 C136 1.524 . S
C135 C139 1.400 . S
C136 H121 0.960 . S
C136 H122 0.960 . S
C136 H123 0.960 . S
C136 C135 1.524 . S
C137 C134 1.403 . S
C137 C138 1.392 . S
C137 C141 1.495 . S
C138 C137 1.392 . S
C138 C139 1.385 1_556 S
C138 C140 1.478 . S
C139 H133 0.930 . S
C139 C135 1.400 . S
C139 C138 1.385 1_554 S
C140 C138 1.478 . S
C140 C142 1.381 . S
C140 C146 1.383 . S
C141 C137 1.495 . S
C141 H147 0.959 . S
C141 H148 0.961 . S
C141 H149 0.960 . S
C142 C140 1.381 . S
C142 C143 1.394 . S
C142 H150 0.930 . S
C143 C142 1.394 . S
C143 C144 1.383 . S
C143 H151 0.929 . S
C144 C143 1.383 . S
C144 C145 1.377 . S
C145 H129 0.930 . S
C145 C144 1.377 . S
C145 C146 1.379 . S
C146 H130 0.931 . S
C146 C140 1.383 . S
C146 C145 1.379 . S
H147 C141 0.959 . S
H148 C141 0.961 . S
H149 C141 0.960 . S
H150 C142 0.930 . S
H151 C143 0.929 . S
H152 C160 0.929 . S
H153 C162 0.930 . S
H154 C164 0.930 1_554 S
H155 C167 0.929 . S
H156 C170 0.930 . S
H157 C172 0.960 1_554 S
H158 C172 0.960 . S
H159 C172 0.960 1_554 S
C160 H152 0.929 . S
C160 C161 1.377 . S
C160 C162 1.384 . S
C161 C160 1.377 . S
C161 C167 1.390 . S
C162 H153 0.930 . S
C162 C160 1.384 . S
C162 C163 1.372 . S
C163 C162 1.372 . S
C163 C164 1.400 . S
C163 C168 1.490 . S
C164 H154 0.930 1_556 S
C164 C163 1.400 . S
C164 C167 1.386 . S
H165 C181 0.930 . S
H166 C182 0.931 . S
C167 H155 0.929 . S
C167 C161 1.390 . S
C167 C164 1.386 . S
C168 C163 1.490 . S
C168 C170 1.395 . S
C168 C171 1.403 . S
H169 C175 0.930 . S
C170 H156 0.930 . S
C170 C168 1.395 . S
C170 C173 1.403 1_566 S
C171 C168 1.403 . S
C171 C172 1.524 . S
C171 C175 1.400 1_566 S
C172 H157 0.960 1_556 S
C172 H158 0.960 . S
C172 H159 0.960 1_556 S
C172 C171 1.524 . S
C173 C170 1.403 1_544 S
C173 C174 1.392 . S
C173 C177 1.495 . S
C174 C173 1.392 . S
C174 C175 1.385 . S
C174 C176 1.478 . S
C175 H169 0.930 . S
C175 C171 1.400 1_544 S
C175 C174 1.385 . S
C176 C174 1.478 . S
C176 C178 1.381 . S
C176 C182 1.383 . S
C177 C173 1.495 . S
C177 H183 0.959 1_554 S
C177 H184 0.961 . S
C177 H185 0.960 1_554 S
C178 C176 1.381 . S
C178 C179 1.394 . S
C178 H186 0.930 1_554 S
C179 C178 1.394 . S
C179 C180 1.383 . S
C179 H187 0.929 . S
C180 C179 1.383 . S
C180 C181 1.377 . S
C181 H165 0.930 . S
C181 C180 1.377 . S
C181 C182 1.379 . S
C182 H166 0.931 . S
C182 C176 1.383 . S
C182 C181 1.379 . S
H183 C177 0.959 1_556 S
H184 C177 0.961 . S
H185 C177 0.960 1_556 S
H186 C178 0.930 1_556 S
H187 C179 0.929 . S
H188 C196 0.929 . S
H189 C198 0.930 1_556 S
H190 C200 0.930 . S
H191 C203 0.929 . S
H192 C206 0.930 . S
H193 C208 0.960 . S
H194 C208 0.960 . S
H195 C208 0.960 . S
C196 H188 0.929 . S
C196 C197 1.377 . S
C196 C198 1.384 . S
C197 C196 1.377 . S
C197 C203 1.390 1_655 S
C198 H189 0.930 1_554 S
C198 C196 1.384 . S
C198 C199 1.372 . S
C199 C198 1.372 . S
C199 C200 1.400 1_655 S
C199 C204 1.490 . S
C200 H190 0.930 . S
C200 C199 1.400 1_455 S
C200 C203 1.386 . S
H201 C217 0.930 . S
H202 C218 0.929 1_454 S
C203 H191 0.929 . S
C203 C197 1.390 1_455 S
C203 C200 1.386 . S
C204 C199 1.490 . S
C204 C206 1.395 . S
C204 C207 1.403 1_655 S
H205 C211 0.930 . S
C206 H192 0.930 . S
C206 C204 1.395 . S
C206 C209 1.403 1_564 S
C207 C204 1.403 1_455 S
C207 C208 1.524 . S
C207 C211 1.400 1_564 S
C208 H193 0.960 . S
C208 H194 0.960 . S
C208 H195 0.960 . S
C208 C207 1.524 . S
C209 C206 1.403 1_546 S
C209 C210 1.392 . S
C209 C213 1.495 . S
C210 C209 1.392 . S
C210 C211 1.385 1_655 S
C210 C212 1.478 . S
C211 H205 0.930 . S
C211 C207 1.400 1_546 S
C211 C210 1.385 1_455 S
C212 C210 1.478 . S
C212 C214 1.381 . S
C212 C218 1.386 . S
C213 C209 1.495 . S
C213 H219 0.959 . S
C213 H220 0.961 . S
C213 H221 0.960 . S
C214 C212 1.381 . S
C214 C215 1.394 . S
C214 H222 0.930 . S
C215 C214 1.394 . S
C215 C216 1.383 . S
C215 H223 0.929 . S
C216 C215 1.383 . S
C216 C217 1.377 1_655 S
C217 H201 0.930 . S
C217 C216 1.377 1_455 S
C217 C218 1.379 1_455 S
C218 H202 0.929 1_656 S
C218 C212 1.386 . S
C218 C217 1.379 1_655 S
H219 C213 0.959 . S
H220 C213 0.961 . S
H221 C213 0.960 . S
H222 C214 0.930 . S
H223 C215 0.929 . S
H224 C232 0.929 . S
H225 C234 0.930 . S
H226 C236 0.930 . S
H227 C239 0.929 . S
H228 C242 0.930 . S
H229 C244 0.960 . S
H230 C244 0.960 . S
H231 C244 0.960 . S
C232 H224 0.929 . S
C232 C233 1.377 . S
C232 C234 1.384 . S
C233 C232 1.377 . S
C233 C239 1.390 . S
C234 H225 0.930 . S
C234 C232 1.384 . S
C234 C235 1.372 . S
C235 C234 1.372 . S
C235 C236 1.400 . S
C235 C240 1.490 . S
C236 H226 0.930 . S
C236 C235 1.400 . S
C236 C239 1.386 . S
H237 C253 0.930 . S
H238 C254 0.931 . S
C239 H227 0.929 . S
C239 C233 1.390 . S
C239 C236 1.386 . S
C240 C235 1.490 . S
C240 C242 1.395 . S
C240 C243 1.403 . S
H241 C247 0.930 . S
C242 H228 0.930 . S
C242 C240 1.395 . S
C242 C245 1.403 . S
C243 C240 1.403 . S
C243 C244 1.524 . S
C243 C247 1.400 . S
C244 H229 0.960 . S
C244 H230 0.960 . S
C244 H231 0.960 . S
C244 C243 1.524 . S
C245 C242 1.403 . S
C245 C246 1.392 . S
C245 C249 1.495 . S
C246 C245 1.392 . S
C246 C247 1.385 . S
C246 C248 1.478 . S
C247 H241 0.930 . S
C247 C243 1.400 . S
C247 C246 1.385 . S
C248 C246 1.478 . S
C248 C250 1.381 . S
C248 C254 1.383 . S
C249 C245 1.495 . S
C249 H255 0.959 . S
C249 H256 0.961 . S
C249 H257 0.960 . S
C250 C248 1.381 . S
C250 C251 1.394 . S
C250 H258 0.930 . S
C251 C250 1.394 . S
C251 C252 1.383 . S
C251 H259 0.929 . S
C252 C251 1.383 . S
C252 C253 1.377 . S
C253 H237 0.930 . S
C253 C252 1.377 . S
C253 C254 1.379 . S
C254 H238 0.931 . S
C254 C248 1.383 . S
C254 C253 1.379 . S
H255 C249 0.959 . S
H256 C249 0.961 . S
H257 C249 0.960 . S
H258 C250 0.930 . S
H259 C251 0.929 . S
H260 C268 0.929 . S
H261 C270 0.930 . S
H262 C272 0.930 . S
H263 C275 0.929 . S
H264 C278 0.930 . S
H265 C280 0.960 . S
H266 C280 0.960 . S
H267 C280 0.960 . S
C268 H260 0.929 . S
C268 C269 1.377 . S
C268 C270 1.384 . S
C269 C268 1.377 . S
C269 C275 1.390 . S
C270 H261 0.930 . S
C270 C268 1.384 . S
C270 C271 1.372 . S
C271 C270 1.372 . S
C271 C272 1.400 . S
C271 C276 1.490 . S
C272 H262 0.930 . S
C272 C271 1.400 . S
C272 C275 1.386 . S
H273 C289 0.930 . S
H274 C290 0.931 . S
C275 H263 0.929 . S
C275 C269 1.390 . S
C275 C272 1.386 . S
C276 C271 1.490 . S
C276 C278 1.395 . S
C276 C279 1.403 . S
H277 C283 0.930 . S
C278 H264 0.930 . S
C278 C276 1.395 . S
C278 C281 1.403 . S
C279 C276 1.403 . S
C279 C280 1.524 . S
C279 C283 1.400 . S
C280 H265 0.960 . S
C280 H266 0.960 . S
C280 H267 0.960 . S
C280 C279 1.524 . S
C281 C278 1.403 . S
C281 C282 1.392 . S
C281 C285 1.495 . S
C282 C281 1.392 . S
C282 C283 1.385 . S
C282 C284 1.478 . S
C283 H277 0.930 . S
C283 C279 1.400 . S
C283 C282 1.385 . S
C284 C282 1.478 . S
C284 C286 1.381 . S
C284 C290 1.383 . S
C285 C281 1.495 . S
C285 H291 0.959 . S
C285 H292 0.961 . S
C285 H293 0.960 . S
C286 C284 1.381 . S
C286 C287 1.394 . S
C286 H294 0.930 . S
C287 C286 1.394 . S
C287 C288 1.383 . S
C287 H295 0.929 . S
C288 C287 1.383 . S
C288 C289 1.377 . S
C289 H273 0.930 . S
C289 C288 1.377 . S
C289 C290 1.379 . S
C290 H274 0.931 . S
C290 C284 1.383 . S
C290 C289 1.379 . S
H291 C285 0.959 . S
H292 C285 0.961 . S
H293 C285 0.960 . S
H294 C286 0.930 . S
H295 C287 0.929 . S
H296 C304 0.929 . S
H297 C306 0.930 . S
H298 C308 0.930 . S
H299 C311 0.929 . S
H300 C314 0.930 . S
H301 C316 0.960 . S
H302 C316 0.960 . S
H303 C316 0.960 . S
C304 H296 0.929 . S
C304 C305 1.377 . S
C304 C306 1.384 . S
C305 C304 1.377 . S
C305 C311 1.390 . S
C306 H297 0.930 . S
C306 C304 1.384 . S
C306 C307 1.372 . S
C307 C306 1.372 . S
C307 C308 1.400 . S
C307 C312 1.490 . S
C308 H298 0.930 . S
C308 C307 1.400 . S
C308 C311 1.386 . S
H309 C325 0.930 . S
H310 C326 0.931 . S
C311 H299 0.929 . S
C311 C305 1.390 . S
C311 C308 1.386 . S
C312 C307 1.490 . S
C312 C314 1.395 . S
C312 C315 1.403 . S
H313 C319 0.930 . S
C314 H300 0.930 . S
C314 C312 1.395 . S
C314 C317 1.403 . S
C315 C312 1.403 . S
C315 C316 1.524 . S
C315 C319 1.400 . S
C316 H301 0.960 . S
C316 H302 0.960 . S
C316 H303 0.960 . S
C316 C315 1.524 . S
C317 C314 1.403 . S
C317 C318 1.392 . S
C317 C321 1.495 . S
C318 C317 1.392 . S
C318 C319 1.385 . S
C318 C320 1.478 . S
C319 H313 0.930 . S
C319 C315 1.400 . S
C319 C318 1.385 . S
C320 C318 1.478 . S
C320 C322 1.381 . S
C320 C326 1.383 . S
C321 C317 1.495 . S
C321 H327 0.959 . S
C321 H328 0.961 . S
C321 H329 0.960 . S
C322 C320 1.381 . S
C322 C323 1.394 . S
C322 H330 0.930 . S
C323 C322 1.394 . S
C323 C324 1.383 . S
C323 H331 0.929 . S
C324 C323 1.383 . S
C324 C325 1.377 . S
C325 H309 0.930 . S
C325 C324 1.377 . S
C325 C326 1.379 . S
C326 H310 0.931 . S
C326 C320 1.383 . S
C326 C325 1.379 . S
H327 C321 0.959 . S
H328 C321 0.961 . S
H329 C321 0.960 . S
H330 C322 0.930 . S
H331 C323 0.929 . S
H332 C340 0.929 . S
H333 C342 0.930 . S
H334 C344 0.930 . S
H335 C347 0.929 . S
H336 C350 0.930 . S
H337 C352 0.960 . S
H338 C352 0.960 . S
H339 C352 0.960 . S
C340 H332 0.929 . S
C340 C341 1.377 . S
C340 C342 1.384 . S
C341 C340 1.377 . S
C341 C347 1.390 . S
C342 H333 0.930 . S
C342 C340 1.384 . S
C342 C343 1.372 . S
C343 C342 1.372 . S
C343 C344 1.400 . S
C343 C348 1.490 . S
C344 H334 0.930 . S
C344 C343 1.400 . S
C344 C347 1.386 . S
H345 C361 0.930 . S
H346 C362 0.931 . S
C347 H335 0.929 . S
C347 C341 1.390 . S
C347 C344 1.386 . S
C348 C343 1.490 . S
C348 C350 1.395 . S
C348 C351 1.403 . S
H349 C355 0.930 . S
C350 H336 0.930 . S
C350 C348 1.395 . S
C350 C353 1.403 . S
C351 C348 1.403 . S
C351 C352 1.524 . S
C351 C355 1.400 . S
C352 H337 0.960 . S
C352 H338 0.960 . S
C352 H339 0.960 . S
C352 C351 1.524 . S
C353 C350 1.403 . S
C353 C354 1.392 . S
C353 C357 1.495 . S
C354 C353 1.392 . S
C354 C355 1.385 . S
C354 C356 1.478 . S
C355 H349 0.930 . S
C355 C351 1.400 . S
C355 C354 1.385 . S
C356 C354 1.478 . S
C356 C358 1.381 . S
C356 C362 1.383 . S
C357 C353 1.495 . S
C357 H363 0.959 . S
C357 H364 0.961 . S
C357 H365 0.960 . S
C358 C356 1.381 . S
C358 C359 1.394 . S
C358 H366 0.930 . S
C359 C358 1.394 . S
C359 C360 1.383 . S
C359 H367 0.929 . S
C360 C359 1.383 . S
C360 C361 1.377 . S
C361 H345 0.930 . S
C361 C360 1.377 . S
C361 C362 1.379 . S
C362 H346 0.931 . S
C362 C356 1.383 . S
C362 C361 1.379 . S
H363 C357 0.959 . S
H364 C357 0.961 . S
H365 C357 0.960 . S
H366 C358 0.930 . S
H367 C359 0.929 . S
H368 C376 0.929 . S
H369 C378 0.930 . S
H370 C380 0.930 . S
H371 C383 0.929 . S
H372 C386 0.930 . S
H373 C388 0.960 . S
H374 C388 0.960 1_556 S
H375 C388 0.960 . S
C376 H368 0.929 . S
C376 C377 1.377 . S
C376 C378 1.384 . S
C377 C376 1.377 . S
C377 C383 1.390 1_556 S
C378 H369 0.930 . S
C378 C376 1.384 . S
C378 C379 1.372 . S
C379 C378 1.372 . S
C379 C380 1.400 1_556 S
C379 C384 1.490 . S
C380 H370 0.930 . S
C380 C379 1.400 1_554 S
C380 C383 1.386 . S
H381 C397 0.930 . S
H382 C398 0.931 . S
C383 H371 0.929 . S
C383 C377 1.390 1_554 S
C383 C380 1.386 . S
C384 C379 1.490 . S
C384 C386 1.395 . S
C384 C387 1.403 1_556 S
H385 C391 0.930 . S
C386 H372 0.930 . S
C386 C384 1.395 . S
C386 C389 1.404 . S
C387 C384 1.403 1_554 S
C387 C388 1.524 . S
C387 C391 1.400 . S
C388 H373 0.960 . S
C388 H374 0.960 1_554 S
C388 H375 0.960 . S
C388 C387 1.524 . S
C389 C386 1.404 . S
C389 C390 1.392 1_556 S
C389 C393 1.495 . S
C390 C389 1.392 1_554 S
C390 C391 1.385 . S
C390 C392 1.478 . S
C391 H385 0.930 . S
C391 C387 1.400 . S
C391 C390 1.385 . S
C392 C390 1.478 . S
C392 C394 1.381 1_554 S
C392 C398 1.383 . S
C393 C389 1.495 . S
C393 H399 0.959 . S
C393 H400 0.961 1_556 S
C393 H401 0.960 . S
C394 C392 1.381 1_556 S
C394 C395 1.394 . S
C394 H402 0.930 . S
C395 C394 1.394 . S
C395 C396 1.383 1_556 S
C395 H403 0.929 . S
C396 C395 1.383 1_554 S
C396 C397 1.377 . S
C397 H381 0.930 . S
C397 C396 1.377 . S
C397 C398 1.379 . S
C398 H382 0.931 . S
C398 C392 1.383 . S
C398 C397 1.379 . S
H399 C393 0.959 . S
H400 C393 0.961 1_554 S
H401 C393 0.960 . S
H402 C394 0.930 . S
H403 C395 0.929 . S
H404 C412 0.929 . S
H405 C414 0.930 . S
H406 C416 0.930 . S
H407 C419 0.929 . S
H408 C422 0.930 . S
H409 C424 0.960 . S
H410 C424 0.960 . S
H411 C424 0.960 . S
C412 H404 0.929 . S
C412 C413 1.377 . S
C412 C414 1.384 . S
C413 C412 1.377 . S
C413 C419 1.390 . S
C414 H405 0.930 . S
C414 C412 1.384 . S
C414 C415 1.372 . S
C415 C414 1.372 . S
C415 C416 1.400 . S
C415 C420 1.490 . S
C416 H406 0.930 . S
C416 C415 1.400 . S
C416 C419 1.386 . S
H417 C433 0.930 . S
H418 C434 0.931 . S
C419 H407 0.929 . S
C419 C413 1.390 . S
C419 C416 1.386 . S
C420 C415 1.490 . S
C420 C422 1.395 . S
C420 C423 1.403 1_556 S
H421 C427 0.930 . S
C422 H408 0.930 . S
C422 C420 1.395 . S
C422 C425 1.403 . S
C423 C420 1.403 1_554 S
C423 C424 1.524 . S
C423 C427 1.400 . S
C424 H409 0.960 . S
C424 H410 0.960 . S
C424 H411 0.960 . S
C424 C423 1.524 . S
C425 C422 1.403 . S
C425 C426 1.392 . S
C425 C429 1.495 . S
C426 C425 1.392 . S
C426 C427 1.385 1_556 S
C426 C428 1.478 . S
C427 H421 0.930 . S
C427 C423 1.400 . S
C427 C426 1.385 1_554 S
C428 C426 1.478 . S
C428 C430 1.381 1_556 S
C428 C434 1.383 . S
C429 C425 1.495 . S
C429 H435 0.959 . S
C429 H436 0.961 . S
C429 H437 0.960 . S
C430 C428 1.381 1_554 S
C430 C431 1.394 . S
C430 H438 0.930 . S
C431 C430 1.394 . S
C431 C432 1.383 . S
C431 H439 0.929 . S
C432 C431 1.383 . S
C432 C433 1.377 . S
C433 H417 0.930 . S
C433 C432 1.377 . S
C433 C434 1.379 1_554 S
C434 H418 0.931 . S
C434 C428 1.383 . S
C434 C433 1.379 1_556 S
H435 C429 0.959 . S
H436 C429 0.961 . S
H437 C429 0.960 . S
H438 C430 0.930 . S
H439 C431 0.929 . S
H440 C448 0.929 . S
H441 C450 0.930 . S
H442 C452 0.930 . S
H443 C455 0.929 . S
H444 C458 0.930 . S
H445 C460 0.960 . S
H446 C460 0.960 . S
H447 C460 0.960 . S
C448 H440 0.929 . S
C448 C449 1.377 . S
C448 C450 1.384 . S
C449 C448 1.377 . S
C449 C455 1.390 1_554 S
C450 H441 0.930 . S
C450 C448 1.384 . S
C450 C451 1.372 . S
C451 C450 1.372 . S
C451 C452 1.400 1_554 S
C451 C456 1.490 . S
C452 H442 0.930 . S
C452 C451 1.400 1_556 S
C452 C455 1.386 . S
H453 C469 0.930 . S
H454 C470 0.931 . S
C455 H443 0.929 . S
C455 C449 1.390 1_556 S
C455 C452 1.386 . S
C456 C451 1.490 . S
C456 C458 1.395 . S
C456 C459 1.403 1_554 S
H457 C463 0.930 . S
C458 H444 0.930 . S
C458 C456 1.395 . S
C458 C461 1.403 . S
C459 C456 1.403 1_556 S
C459 C460 1.524 . S
C459 C463 1.400 . S
C460 H445 0.960 . S
C460 H446 0.960 . S
C460 H447 0.960 . S
C460 C459 1.524 . S
C461 C458 1.403 . S
C461 C462 1.392 . S
C461 C465 1.495 . S
C462 C461 1.392 . S
C462 C463 1.385 1_554 S
C462 C464 1.478 1_554 S
C463 H457 0.930 . S
C463 C459 1.400 . S
C463 C462 1.385 1_556 S
C464 C462 1.478 1_556 S
C464 C466 1.381 1_556 S
C464 C470 1.383 . S
C465 C461 1.495 . S
C465 H471 0.959 . S
C465 H472 0.961 . S
C465 H473 0.960 . S
C466 C464 1.381 1_554 S
C466 C467 1.394 . S
C466 H474 0.930 . S
C467 C466 1.394 . S
C467 C468 1.383 1_554 S
C467 H475 0.929 . S
C468 C467 1.383 1_556 S
C468 C469 1.377 . S
C469 H453 0.930 . S
C469 C468 1.377 . S
C469 C470 1.379 . S
C470 H454 0.931 . S
C470 C464 1.383 . S
C470 C469 1.379 . S
H471 C465 0.959 . S
H472 C465 0.961 . S
H473 C465 0.960 . S
H474 C466 0.930 . S
H475 C467 0.929 . S
H476 C484 0.929 . S
H477 C486 0.930 . S
H478 C488 0.930 . S
H479 C491 0.929 . S
H480 C494 0.930 . S
H481 C496 0.960 . S
H482 C496 0.960 . S
H483 C496 0.960 . S
C484 H476 0.929 . S
C484 C485 1.377 1_556 S
C484 C486 1.384 . S
C485 C484 1.377 1_554 S
C485 C491 1.390 . S
C486 H477 0.930 . S
C486 C484 1.384 . S
C486 C487 1.372 1_556 S
C487 C486 1.372 1_554 S
C487 C488 1.400 . S
C487 C492 1.490 1_554 S
C488 H478 0.930 . S
C488 C487 1.400 . S
C488 C491 1.386 . S
H489 C505 0.930 1_554 S
H490 C506 0.931 1_554 S
C491 H479 0.929 . S
C491 C485 1.390 . S
C491 C488 1.386 . S
C492 C487 1.490 1_556 S
C492 C494 1.395 . S
C492 C495 1.403 1_556 S
H493 C499 0.930 . S
C494 H480 0.930 . S
C494 C492 1.395 . S
C494 C497 1.403 . S
C495 C492 1.403 1_554 S
C495 C496 1.524 . S
C495 C499 1.400 . S
C496 H481 0.960 . S
C496 H482 0.960 . S
C496 H483 0.960 . S
C496 C495 1.524 . S
C497 C494 1.403 . S
C497 C498 1.392 . S
C497 C501 1.495 . S
C498 C497 1.392 . S
C498 C499 1.385 1_556 S
C498 C500 1.478 . S
C499 H493 0.930 . S
C499 C495 1.400 . S
C499 C498 1.385 1_554 S
C500 C498 1.478 . S
C500 C502 1.381 . S
C500 C506 1.383 . S
C501 C497 1.495 . S
C501 H507 0.959 . S
C501 H508 0.961 . S
C501 H509 0.960 . S
C502 C500 1.381 . S
C502 C503 1.394 . S
C502 H510 0.930 . S
C503 C502 1.394 . S
C503 C504 1.383 . S
C503 H511 0.929 . S
C504 C503 1.383 . S
C504 C505 1.377 . S
C505 H489 0.930 1_556 S
C505 C504 1.377 . S
C505 C506 1.379 . S
C506 H490 0.931 1_556 S
C506 C500 1.383 . S
C506 C505 1.379 . S
H507 C501 0.959 . S
H508 C501 0.961 . S
H509 C501 0.960 . S
H510 C502 0.930 . S
H511 C503 0.929 . S
C89 C59 1.753 . S
C108 C19 1.733 . S
C125 C38 2.269 . S
C144 C78 2.288 . S
C161 C79 1.753 . S
C180 C39 1.731 . S
C197 C18 2.266 1_655 S
C216 C58 2.279 1_655 S
C233 C62 1.466 . S
C252 C12 1.532 . S
C269 C52 1.517 . S
C288 C22 1.465 . S
C305 C42 1.464 . S
C324 C32 1.493 . S
C341 C2 1.454 . S
C360 C72 1.499 . S
C377 C69 0.694 . S
C396 C4 0.732 . S
C413 C44 0.738 . S
C432 C29 0.785 . S
C449 C24 0.711 . S
C468 C49 0.748 . S
C485 C9 0.705 . S
C504 C64 0.630 . S
