# Generated by pormake.
# Topology unu, (4)-cn, num edge types: 1
# Building blocks:
#     Node 0, Type 0, BuildingBlock: QUQFOY_clean_sbu_1, # of connection points: 4
#     Node 1, Type 0, BuildingBlock: QUQFOY_clean_sbu_1, # of connection points: 4
#     Node 2, Type 0, BuildingBlock: QUQFOY_clean_sbu_1, # of connection points: 4
#     Node 3, Type 0, BuildingBlock: QUQFOY_clean_sbu_1, # of connection points: 4
#     Node 4, Type 0, BuildingBlock: QUQFOY_clean_sbu_1, # of connection points: 4
#     Node 5, Type 0, BuildingBlock: QUQFOY_clean_sbu_1, # of connection points: 4
#     Node 6, Type 0, BuildingBlock: QUQFOY_clean_sbu_1, # of connection points: 4
#     Node 7, Type 0, BuildingBlock: QUQFOY_clean_sbu_1, # of connection points: 4
#     Node 8, Type 0, BuildingBlock: QUQFOY_clean_sbu_1, # of connection points: 4
#     Node 9, Type 0, BuildingBlock: QUQFOY_clean_sbu_1, # of connection points: 4
#     Node 10, Type 0, BuildingBlock: QUQFOY_clean_sbu_1, # of connection points: 4
#     Node 11, Type 0, BuildingBlock: QUQFOY_clean_sbu_1, # of connection points: 4
#     Node 12, Type 0, BuildingBlock: QUQFOY_clean_sbu_1, # of connection points: 4
#     Node 13, Type 0, BuildingBlock: QUQFOY_clean_sbu_1, # of connection points: 4
#     Node 14, Type 0, BuildingBlock: QUQFOY_clean_sbu_1, # of connection points: 4
#     Node 15, Type 0, BuildingBlock: QUQFOY_clean_sbu_1, # of connection points: 4
#     Node 16, Type 0, BuildingBlock: QUQFOY_clean_sbu_1, # of connection points: 4
#     Node 17, Type 0, BuildingBlock: QUQFOY_clean_sbu_1, # of connection points: 4
#     Node 18, Type 0, BuildingBlock: QUQFOY_clean_sbu_1, # of connection points: 4
#     Node 19, Type 0, BuildingBlock: QUQFOY_clean_sbu_1, # of connection points: 4
#     Node 20, Type 0, BuildingBlock: QUQFOY_clean_sbu_1, # of connection points: 4
#     Node 21, Type 0, BuildingBlock: QUQFOY_clean_sbu_1, # of connection points: 4
#     Node 22, Type 0, BuildingBlock: QUQFOY_clean_sbu_1, # of connection points: 4
#     Node 23, Type 0, BuildingBlock: QUQFOY_clean_sbu_1, # of connection points: 4
#     Node 24, Type 0, BuildingBlock: QUQFOY_clean_sbu_1, # of connection points: 4
#     Node 25, Type 0, BuildingBlock: QUQFOY_clean_sbu_1, # of connection points: 4
#     Node 26, Type 0, BuildingBlock: QUQFOY_clean_sbu_1, # of connection points: 4
#     Node 27, Type 0, BuildingBlock: QUQFOY_clean_sbu_1, # of connection points: 4
#     Node 28, Type 0, BuildingBlock: QUQFOY_clean_sbu_1, # of connection points: 4
#     Node 29, Type 0, BuildingBlock: QUQFOY_clean_sbu_1, # of connection points: 4
#     Node 30, Type 0, BuildingBlock: QUQFOY_clean_sbu_1, # of connection points: 4
#     Node 31, Type 0, BuildingBlock: QUQFOY_clean_sbu_1, # of connection points: 4
#     Node 32, Type 0, BuildingBlock: QUQFOY_clean_sbu_1, # of connection points: 4
#     Node 33, Type 0, BuildingBlock: QUQFOY_clean_sbu_1, # of connection points: 4
#     Node 34, Type 0, BuildingBlock: QUQFOY_clean_sbu_1, # of connection points: 4
#     Node 35, Type 0, BuildingBlock: QUQFOY_clean_sbu_1, # of connection points: 4
#     Edge 36, Type (0, 0), BuildingBlock: KIFKEQ_clean_linker_1, # of connection points: 2
#     Edge 37, Type (0, 0), BuildingBlock: KIFKEQ_clean_linker_1, # of connection points: 2
#     Edge 38, Type (0, 0), BuildingBlock: KIFKEQ_clean_linker_1, # of connection points: 2
#     Edge 39, Type (0, 0), BuildingBlock: KIFKEQ_clean_linker_1, # of connection points: 2
#     Edge 40, Type (0, 0), BuildingBlock: KIFKEQ_clean_linker_1, # of connection points: 2
#     Edge 41, Type (0, 0), BuildingBlock: KIFKEQ_clean_linker_1, # of connection points: 2
#     Edge 42, Type (0, 0), BuildingBlock: KIFKEQ_clean_linker_1, # of connection points: 2
#     Edge 43, Type (0, 0), BuildingBlock: KIFKEQ_clean_linker_1, # of connection points: 2
#     Edge 44, Type (0, 0), BuildingBlock: KIFKEQ_clean_linker_1, # of connection points: 2
#     Edge 45, Type (0, 0), BuildingBlock: KIFKEQ_clean_linker_1, # of connection points: 2
#     Edge 46, Type (0, 0), BuildingBlock: KIFKEQ_clean_linker_1, # of connection points: 2
#     Edge 47, Type (0, 0), BuildingBlock: KIFKEQ_clean_linker_1, # of connection points: 2
#     Edge 48, Type (0, 0), BuildingBlock: KIFKEQ_clean_linker_1, # of connection points: 2
#     Edge 49, Type (0, 0), BuildingBlock: KIFKEQ_clean_linker_1, # of connection points: 2
#     Edge 50, Type (0, 0), BuildingBlock: KIFKEQ_clean_linker_1, # of connection points: 2
#     Edge 51, Type (0, 0), BuildingBlock: KIFKEQ_clean_linker_1, # of connection points: 2
#     Edge 52, Type (0, 0), BuildingBlock: KIFKEQ_clean_linker_1, # of connection points: 2
#     Edge 53, Type (0, 0), BuildingBlock: KIFKEQ_clean_linker_1, # of connection points: 2
#     Edge 54, Type (0, 0), BuildingBlock: KIFKEQ_clean_linker_1, # of connection points: 2
#     Edge 55, Type (0, 0), BuildingBlock: KIFKEQ_clean_linker_1, # of connection points: 2
#     Edge 56, Type (0, 0), BuildingBlock: KIFKEQ_clean_linker_1, # of connection points: 2
#     Edge 57, Type (0, 0), BuildingBlock: KIFKEQ_clean_linker_1, # of connection points: 2
#     Edge 58, Type (0, 0), BuildingBlock: KIFKEQ_clean_linker_1, # of connection points: 2
#     Edge 59, Type (0, 0), BuildingBlock: KIFKEQ_clean_linker_1, # of connection points: 2
#     Edge 60, Type (0, 0), BuildingBlock: KIFKEQ_clean_linker_1, # of connection points: 2
#     Edge 61, Type (0, 0), BuildingBlock: KIFKEQ_clean_linker_1, # of connection points: 2
#     Edge 62, Type (0, 0), BuildingBlock: KIFKEQ_clean_linker_1, # of connection points: 2
#     Edge 63, Type (0, 0), BuildingBlock: KIFKEQ_clean_linker_1, # of connection points: 2
#     Edge 64, Type (0, 0), BuildingBlock: KIFKEQ_clean_linker_1, # of connection points: 2
#     Edge 65, Type (0, 0), BuildingBlock: KIFKEQ_clean_linker_1, # of connection points: 2
#     Edge 66, Type (0, 0), BuildingBlock: KIFKEQ_clean_linker_1, # of connection points: 2
#     Edge 67, Type (0, 0), BuildingBlock: KIFKEQ_clean_linker_1, # of connection points: 2
#     Edge 68, Type (0, 0), BuildingBlock: KIFKEQ_clean_linker_1, # of connection points: 2
#     Edge 69, Type (0, 0), BuildingBlock: KIFKEQ_clean_linker_1, # of connection points: 2
#     Edge 70, Type (0, 0), BuildingBlock: KIFKEQ_clean_linker_1, # of connection points: 2
#     Edge 71, Type (0, 0), BuildingBlock: KIFKEQ_clean_linker_1, # of connection points: 2
#     Edge 72, Type (0, 0), BuildingBlock: KIFKEQ_clean_linker_1, # of connection points: 2
#     Edge 73, Type (0, 0), BuildingBlock: KIFKEQ_clean_linker_1, # of connection points: 2
#     Edge 74, Type (0, 0), BuildingBlock: KIFKEQ_clean_linker_1, # of connection points: 2
#     Edge 75, Type (0, 0), BuildingBlock: KIFKEQ_clean_linker_1, # of connection points: 2
#     Edge 76, Type (0, 0), BuildingBlock: KIFKEQ_clean_linker_1, # of connection points: 2
#     Edge 77, Type (0, 0), BuildingBlock: KIFKEQ_clean_linker_1, # of connection points: 2
#     Edge 78, Type (0, 0), BuildingBlock: KIFKEQ_clean_linker_1, # of connection points: 2
#     Edge 79, Type (0, 0), BuildingBlock: KIFKEQ_clean_linker_1, # of connection points: 2
#     Edge 80, Type (0, 0), BuildingBlock: KIFKEQ_clean_linker_1, # of connection points: 2
#     Edge 81, Type (0, 0), BuildingBlock: KIFKEQ_clean_linker_1, # of connection points: 2
#     Edge 82, Type (0, 0), BuildingBlock: KIFKEQ_clean_linker_1, # of connection points: 2
#     Edge 83, Type (0, 0), BuildingBlock: KIFKEQ_clean_linker_1, # of connection points: 2
#     Edge 84, Type (0, 0), BuildingBlock: KIFKEQ_clean_linker_1, # of connection points: 2
#     Edge 85, Type (0, 0), BuildingBlock: KIFKEQ_clean_linker_1, # of connection points: 2
#     Edge 86, Type (0, 0), BuildingBlock: KIFKEQ_clean_linker_1, # of connection points: 2
#     Edge 87, Type (0, 0), BuildingBlock: KIFKEQ_clean_linker_1, # of connection points: 2
#     Edge 88, Type (0, 0), BuildingBlock: KIFKEQ_clean_linker_1, # of connection points: 2
#     Edge 89, Type (0, 0), BuildingBlock: KIFKEQ_clean_linker_1, # of connection points: 2
#     Edge 90, Type (0, 0), BuildingBlock: KIFKEQ_clean_linker_1, # of connection points: 2
#     Edge 91, Type (0, 0), BuildingBlock: KIFKEQ_clean_linker_1, # of connection points: 2
#     Edge 92, Type (0, 0), BuildingBlock: KIFKEQ_clean_linker_1, # of connection points: 2
#     Edge 93, Type (0, 0), BuildingBlock: KIFKEQ_clean_linker_1, # of connection points: 2
#     Edge 94, Type (0, 0), BuildingBlock: KIFKEQ_clean_linker_1, # of connection points: 2
#     Edge 95, Type (0, 0), BuildingBlock: KIFKEQ_clean_linker_1, # of connection points: 2
#     Edge 96, Type (0, 0), BuildingBlock: KIFKEQ_clean_linker_1, # of connection points: 2
#     Edge 97, Type (0, 0), BuildingBlock: KIFKEQ_clean_linker_1, # of connection points: 2
#     Edge 98, Type (0, 0), BuildingBlock: KIFKEQ_clean_linker_1, # of connection points: 2
#     Edge 99, Type (0, 0), BuildingBlock: KIFKEQ_clean_linker_1, # of connection points: 2
#     Edge 100, Type (0, 0), BuildingBlock: KIFKEQ_clean_linker_1, # of connection points: 2
#     Edge 101, Type (0, 0), BuildingBlock: KIFKEQ_clean_linker_1, # of connection points: 2
#     Edge 102, Type (0, 0), BuildingBlock: KIFKEQ_clean_linker_1, # of connection points: 2
#     Edge 103, Type (0, 0), BuildingBlock: KIFKEQ_clean_linker_1, # of connection points: 2
#     Edge 104, Type (0, 0), BuildingBlock: KIFKEQ_clean_linker_1, # of connection points: 2
#     Edge 105, Type (0, 0), BuildingBlock: KIFKEQ_clean_linker_1, # of connection points: 2
#     Edge 106, Type (0, 0), BuildingBlock: KIFKEQ_clean_linker_1, # of connection points: 2
#     Edge 107, Type (0, 0), BuildingBlock: KIFKEQ_clean_linker_1, # of connection points: 2
# Relax obj value: 0.084
# Max RMSD: 0.132
# Mean RMSD: 0.132
data_MOF--net-unu--node1-QUQFOY_clean_sbu_1--edge1-KIFKEQ_clean_linker_1
_symmetry_space_group_name_H-M    P1
_symmetry_Int_Tables_number       1
_symmetry_cell_setting            triclinic
loop_
_symmetry_equiv_pos_as_xyz
'x, y, z'
_cell_length_a     44.140476
_cell_length_b     44.147083
_cell_length_c     127.20576
_cell_angle_alpha  90.068641
_cell_angle_beta   89.933598
_cell_angle_gamma 120.00618
loop_
_atom_site_label
_atom_site_type_symbol
_atom_site_fract_x
_atom_site_fract_y
_atom_site_fract_z
_atom_type_partial_charge
O0 O 0.191 0.01657 0.12899 0.0
Cd1 Cd 0.23536 0.06514 0.12785 0.0
Cd2 Cd 0.22872 0.06195 0.1485 0.0
O3 O 0.19501 1.009 0.14598 0.0
O4 O 0.26022 0.06575 0.11456 0.0
O5 O 0.27995 0.06473 0.13048 0.0
C6 C 0.28283 0.06329 0.12041 0.0
C7 C 0.27351 0.08882 0.16084 0.0
C8 C 0.18031 0.99722 0.13712 0.0
C9 C 0.21209 0.11137 0.13721 0.0
O10 O 0.20763 0.09286 0.14532 0.0
O11 O 0.22722 0.10785 0.12914 0.0
O12 O 0.24118 0.07123 0.16373 0.0
O13 O 0.28056 0.0881 0.15101 0.0
O14 O 1.01908 0.18191 0.13004 0.0
Cd15 Cd 0.97101 0.17872 0.12873 0.0
Cd16 Cd 0.97444 0.17436 0.14927 0.0
O17 O 0.0277 0.19457 0.14692 0.0
O18 O 0.97287 0.20337 0.11535 0.0
O19 O 0.97003 0.22333 0.13107 0.0
C20 C 0.97355 0.22802 0.12101 0.0
C21 C 0.94744 0.18823 0.16274 0.0
C22 C 0.03891 0.19084 0.13805 0.0
C23 C 0.92533 0.10892 0.13722 0.0
O24 O 0.94391 0.12268 0.14534 0.0
O25 O 0.92834 0.12799 0.12933 0.0
O26 O 0.96477 0.17245 0.16465 0.0
O27 O 0.9486 0.19954 0.1533 0.0
O28 O 0.85662 0.84594 0.12686 0.0
Cd29 Cd 0.85959 0.80136 0.12477 0.0
Cd30 Cd 0.86622 0.80631 0.14563 0.0
O31 O 0.84825 0.84167 0.14401 0.0
O32 O 0.834 0.77981 0.1114 0.0
O33 O 0.8153 0.75545 0.12702 0.0
C34 C 0.80989 0.75518 0.11702 0.0
C35 C 0.84922 0.76296 0.15844 0.0
C36 C 0.85001 0.85685 0.13532 0.0
C37 C 0.92982 0.82159 0.13269 0.0
O38 O 0.91737 0.82436 0.14141 0.0
O39 O 0.91024 0.80956 0.12463 0.0
O40 O 0.86619 0.79569 0.1609 0.0
O41 O 0.83888 0.7548 0.14882 0.0
O42 O 0.0213 0.18311 0.40938 0.0
Cd43 Cd 0.06982 0.22724 0.41113 0.0
Cd44 Cd 0.06887 0.22023 0.39025 0.0
O45 O 1.01594 0.18515 0.39218 0.0
O46 O 0.06717 0.24902 0.42465 0.0
O47 O 0.07193 0.27353 0.40912 0.0
C48 C 0.0675 0.27379 0.41917 0.0
C49 C 0.09513 0.26083 0.37667 0.0
C50 C 1.00314 0.17126 0.40106 0.0
C51 C 0.11734 0.20429 0.40286 0.0
O52 O 0.10062 0.20095 0.39444 0.0
O53 O 0.11212 0.21835 0.4109 0.0
O54 O 0.07916 0.22764 0.37489 0.0
O55 O 0.09303 0.2711 0.38602 0.0
O56 O 0.85301 0.8435 0.41107 0.0
Cd57 Cd 0.80966 0.84865 0.41337 0.0
Cd58 Cd 0.81472 0.85662 0.39234 0.0
O59 O 0.85114 0.84006 0.39375 0.0
O60 O 0.7887 0.82395 0.42691 0.0
O61 O 0.76272 0.8051 0.41151 0.0
C62 C 0.76316 0.80003 0.42151 0.0
C63 C 0.77117 0.83916 0.37959 0.0
C64 C 0.86488 0.83906 0.40245 0.0
C65 C 0.83027 0.91968 0.40553 0.0
O66 O 0.83193 0.90733 0.39667 0.0
O67 O 0.81941 0.90005 0.41361 0.0
O68 O 0.80385 0.85679 0.37711 0.0
O69 O 0.76323 0.82846 0.38918 0.0
O70 O 0.18761 1.01007 0.41171 0.0
Cd71 Cd 0.18547 0.96274 0.4134 0.0
Cd72 Cd 0.17803 0.96248 0.39244 0.0
O73 O 0.19517 0.01549 0.39452 0.0
O74 O 0.2116 0.96664 0.42663 0.0
O75 O 0.23003 0.96175 0.41087 0.0
C76 C 0.23569 0.96657 0.42088 0.0
C77 C 0.19211 0.93775 0.37833 0.0
C78 C 0.19355 0.0281 0.40339 0.0
C79 C 0.1153 0.91266 0.40567 0.0
O80 O 0.12754 0.92848 0.39703 0.0
O81 O 0.13505 0.91991 0.41367 0.0
O82 O 0.17382 0.95283 0.37702 0.0
O83 O 0.20564 0.93996 0.3875 0.0
O84 O 0.85005 1.01274 0.90882 0.0
Cd85 Cd 0.80647 0.96477 0.91155 0.0
Cd86 Cd 0.81257 0.95923 0.8903 0.0
O87 O 0.85009 1.01199 0.89145 0.0
O88 O 0.78641 0.97066 0.92499 0.0
O89 O 0.75947 0.96136 0.90967 0.0
C90 C 0.76054 0.96829 0.9196 0.0
C91 C 0.7735 0.93332 0.8763 0.0
C92 C 0.86304 0.02776 0.90011 0.0
C93 C 0.82641 0.91282 0.90483 0.0
O94 O 0.82775 0.92524 0.89575 0.0
O95 O 0.81616 0.92325 0.91269 0.0
O96 O 0.80675 0.9468 0.87506 0.0
O97 O 0.76254 0.9376 0.88531 0.0
O98 O 0.02165 0.84603 0.91106 0.0
Cd99 Cd 0.06997 0.8506 0.91312 0.0
Cd100 Cd 0.07203 0.85831 0.89215 0.0
O101 O 1.01898 0.84145 0.89377 0.0
O102 O 0.06645 0.82576 0.92661 0.0
O103 O 0.07261 0.80671 0.9111 0.0
C104 C 0.06744 0.80165 0.92112 0.0
C105 C 0.09837 0.84099 0.87941 0.0
C106 C 1.00481 0.8411 0.90254 0.0
C107 C 0.12009 0.92144 0.90518 0.0
O108 O 0.1054 0.90911 0.8964 0.0
O109 O 0.11194 0.90178 0.91324 0.0
O110 O 0.0829 0.8582 0.8769 0.0
O111 O 0.09577 0.83051 0.88902 0.0
O112 O 0.19036 0.18361 0.91009 0.0
Cd113 Cd 0.18481 0.22681 0.91212 0.0
Cd114 Cd 0.1786 0.22179 0.89119 0.0
O115 O 0.19596 0.1861 0.89282 0.0
O116 O 0.2092 0.24852 0.92565 0.0
O117 O 0.22829 0.27364 0.91014 0.0
C118 C 0.23323 0.27373 0.92017 0.0
C119 C 0.1965 0.26602 0.87866 0.0
C120 C 0.19601 0.17214 0.90158 0.0
C121 C 0.11416 0.205 0.90379 0.0
O122 O 0.12733 0.20331 0.89509 0.0
O123 O 0.13324 0.2166 0.91197 0.0
O124 O 0.17971 0.23347 0.87599 0.0
O125 O 0.20619 0.27348 0.88835 0.0
O126 O 0.022 0.84737 0.62831 0.0
Cd127 Cd 0.97365 0.80299 0.62651 0.0
Cd128 Cd 0.97395 0.81006 0.64745 0.0
O129 O 0.02673 0.84579 0.64554 0.0
O130 O 0.97677 0.78121 0.61306 0.0
O131 O 0.97165 0.7568 0.62863 0.0
C132 C 0.9763 0.75647 0.61859 0.0
C133 C 0.94868 0.77011 0.66123 0.0
C134 C 0.03981 0.8595 0.63667 0.0
C135 C 0.92467 0.82441 0.63461 0.0
O136 O 0.9411 0.82792 0.64312 0.0
O137 O 0.93089 0.81111 0.62657 0.0
O138 O 0.96383 0.80336 0.66283 0.0
O139 O 0.95103 0.75951 0.65195 0.0
O140 O 0.19071 0.18367 0.62816 0.0
Cd141 Cd 0.23543 0.18097 0.62593 0.0
Cd142 Cd 0.22887 0.17172 0.64704 0.0
O143 O 0.19252 0.1884 0.64544 0.0
O144 O 0.25638 0.20693 0.61258 0.0
O145 O 0.28162 0.22522 0.6281 0.0
C146 C 0.28143 0.23083 0.61813 0.0
C147 C 0.26711 0.1847 0.66124 0.0
C148 C 0.17848 0.18827 0.63668 0.0
C149 C 0.21572 0.11018 0.6331 0.0
O150 O 0.21299 0.12182 0.64196 0.0
O151 O 0.22725 0.13038 0.62516 0.0
O152 O 0.23372 0.16577 0.66238 0.0
O153 O 0.27876 0.19936 0.65221 0.0
O154 O 0.85416 0.01743 0.62781 0.0
Cd155 Cd 0.85688 0.06537 0.62706 0.0
Cd156 Cd 0.8587 0.05872 0.64751 0.0
O157 O 0.83877 1.00586 0.64445 0.0
O158 O 0.83333 0.06515 0.61361 0.0
O159 O 0.81177 0.06542 0.62931 0.0
C160 C 0.80799 0.06328 0.6192 0.0
C161 C 0.84329 0.08403 0.6611 0.0
C162 C 0.84403 0.99624 0.63551 0.0
C163 C 0.92547 0.10985 0.63641 0.0
O164 O 0.91082 0.08977 0.64419 0.0
O165 O 0.9073 0.10823 0.62843 0.0
O166 O 0.85874 0.06636 0.66298 0.0
O167 O 0.83308 0.08407 0.65159 0.0
O168 O 0.85888 0.34696 0.46302 0.0
Cd169 Cd 0.90183 0.39535 0.46025 0.0
Cd170 Cd 0.89752 0.4004 0.48132 0.0
O171 O 0.86116 0.34728 0.48036 0.0
O172 O 0.92149 0.39031 0.44661 0.0
O173 O 0.94912 0.39923 0.46178 0.0
C174 C 0.94767 0.39267 0.45182 0.0
C175 C 0.94124 0.42786 0.49398 0.0
C176 C 0.84727 0.33159 0.47177 0.0
C177 C 0.88084 0.44606 0.46767 0.0
O178 O 0.87982 0.43313 0.47666 0.0
O179 O 0.89145 0.43657 0.45967 0.0
O180 O 0.90858 0.41277 0.49648 0.0
O181 O 0.9491 0.42442 0.48442 0.0
O182 O 0.68693 0.51521 0.46299 0.0
Cd183 Cd 0.6386 0.51125 0.46124 0.0
Cd184 Cd 0.63913 0.50463 0.48211 0.0
O185 O 0.69205 0.52229 0.4802 0.0
O186 O 0.64163 0.53606 0.4478 0.0
O187 O 0.6368 0.55555 0.46338 0.0
C188 C 0.64138 0.56045 0.45335 0.0
C189 C 0.61302 0.51884 0.49578 0.0
C190 C 0.70496 0.5213 0.47133 0.0
C191 C 0.59039 0.44074 0.46931 0.0
O192 O 0.60704 0.45374 0.47777 0.0
O193 O 0.59599 0.46027 0.46132 0.0
O194 O 0.62881 0.50141 0.49747 0.0
O195 O 0.61521 0.53146 0.48647 0.0
O196 O 0.52358 0.17839 0.46039 0.0
Cd197 Cd 0.5268 0.13373 0.45901 0.0
Cd198 Cd 0.53055 0.13999 0.47975 0.0
O199 O 0.51149 0.17415 0.47732 0.0
O200 O 0.50218 0.11088 0.44561 0.0
O201 O 0.48226 0.08816 0.46133 0.0
C202 C 0.47754 0.08694 0.45127 0.0
C203 C 0.51275 0.09601 0.49235 0.0
C204 C 0.51499 0.18921 0.46849 0.0
C205 C 0.59612 0.15565 0.46797 0.0
O206 O 0.58245 0.15942 0.4763 0.0
O207 O 0.57751 0.14205 0.4598 0.0
O208 O 0.52812 0.12855 0.49503 0.0
O209 O 0.50417 0.08832 0.48259 0.0
O210 O 0.68546 0.51585 0.74239 0.0
Cd211 Cd 0.73387 0.55885 0.7451 0.0
Cd212 Cd 0.73909 0.55435 0.72412 0.0
O213 O 0.68597 0.51792 0.72505 0.0
O214 O 0.72885 0.57915 0.75862 0.0
O215 O 0.7378 0.60606 0.74332 0.0
C216 C 0.73125 0.60508 0.75327 0.0
C217 C 0.76647 0.59848 0.7116 0.0
C218 C 0.67017 0.50414 0.73363 0.0
C219 C 0.78486 0.53804 0.73782 0.0
O220 O 0.77201 0.53689 0.72881 0.0
O221 O 0.77517 0.54861 0.74579 0.0
O222 O 0.7517 0.56592 0.70899 0.0
O223 O 0.76277 0.60597 0.72117 0.0
O224 O 0.51555 0.18205 0.74528 0.0
Cd225 Cd 0.47049 0.18463 0.74647 0.0
Cd226 Cd 0.47662 0.18811 0.72576 0.0
O227 O 0.5107 0.16908 0.72839 0.0
O228 O 0.44546 0.15937 0.7596 0.0
O229 O 0.42645 0.13938 0.74355 0.0
C230 C 0.42327 0.1345 0.7536 0.0
C231 C 0.43284 0.1702 0.71307 0.0
C232 C 0.52609 0.17306 0.73719 0.0
C233 C 0.49205 0.25372 0.73733 0.0
O234 O 0.4962 0.24007 0.72907 0.0
O235 O 0.47813 0.23509 0.74548 0.0
O236 O 0.46543 0.18544 0.71044 0.0
O237 O 0.42499 0.16181 0.72283 0.0
O238 O 0.85311 0.34442 0.74296 0.0
Cd239 Cd 0.84845 0.29582 0.74463 0.0
Cd240 Cd 0.84309 0.29687 0.72396 0.0
O241 O 0.86257 0.35015 0.72585 0.0
O242 O 0.87253 0.29804 0.75818 0.0
O243 O 0.89267 0.29387 0.74263 0.0
C244 C 0.89716 0.29803 0.75269 0.0
C245 C 0.85951 0.26853 0.71165 0.0
C246 C 0.86072 0.36288 0.73467 0.0
C247 C 0.77799 0.24915 0.7361 0.0
O248 O 0.79143 0.26642 0.72774 0.0
O249 O 0.79727 0.25361 0.74408 0.0
O250 O 0.84458 0.28593 0.70878 0.0
O251 O 0.86832 0.27022 0.72142 0.0
O252 O 0.52075 0.3487 0.24434 0.0
Cd253 Cd 0.47673 0.30103 0.24708 0.0
Cd254 Cd 0.48276 0.29484 0.22583 0.0
O255 O 0.52097 0.34738 0.22698 0.0
O256 O 0.45639 0.30732 0.2604 0.0
O257 O 0.43001 0.29809 0.24499 0.0
C258 C 0.43078 0.30506 0.25491 0.0
C259 C 0.44417 0.26963 0.2117 0.0
C260 C 0.53396 0.36337 0.23561 0.0
C261 C 0.4949 0.24762 0.24053 0.0
O262 O 0.49648 0.25986 0.2314 0.0
O263 O 0.48541 0.25889 0.24836 0.0
O264 O 0.47739 0.28247 0.21059 0.0
O265 O 0.43306 0.2742 0.22064 0.0
O266 O 0.68752 0.17913 0.24402 0.0
Cd267 Cd 0.73644 0.18414 0.24505 0.0
Cd268 Cd 0.73167 0.18687 0.22449 0.0
O269 O 0.67858 0.16665 0.22712 0.0
O270 O 0.73651 0.1611 0.25862 0.0
O271 O 0.73807 0.13981 0.243 0.0
C272 C 0.73555 0.13605 0.2531 0.0
C273 C 0.75983 0.16961 0.21241 0.0
C274 C 0.66745 0.16989 0.23606 0.0
C275 C 0.78088 0.25356 0.23556 0.0
O276 O 0.76169 0.23904 0.22761 0.0
O277 O 0.77852 0.23526 0.24361 0.0
O278 O 0.74141 0.18323 0.20932 0.0
O279 O 0.75908 0.16236 0.22228 0.0
O280 O 0.85844 0.51947 0.24355 0.0
Cd281 Cd 0.85525 0.56397 0.24562 0.0
Cd282 Cd 0.84742 0.55741 0.22452 0.0
O283 O 0.8645 0.52146 0.2263 0.0
O284 O 0.88035 0.5849 0.2591 0.0
O285 O 0.89951 0.61031 0.24364 0.0
C286 C 0.90454 0.61003 0.25365 0.0
C287 C 0.86105 0.59603 0.21039 0.0
C288 C 0.86376 0.50737 0.23511 0.0
C289 C 0.78461 0.54308 0.238 0.0
O290 O 0.797 0.54053 0.22926 0.0
O291 O 0.80435 0.55515 0.24603 0.0
O292 O 0.84249 0.56266 0.20913 0.0
O293 O 0.87497 0.60748 0.21952 0.0
O294 O 0.68593 0.17836 0.96119 0.0
Cd295 Cd 0.63758 0.13467 0.9591 0.0
Cd296 Cd 0.6354 0.14031 0.98007 0.0
O297 O 0.68845 0.1765 0.97849 0.0
O298 O 0.64112 0.11324 0.94561 0.0
O299 O 0.63485 0.08812 0.96112 0.0
C300 C 0.64006 0.08814 0.95111 0.0
C301 C 0.60903 0.0966 0.99277 0.0
C302 C 0.70271 0.19029 0.96973 0.0
C303 C 0.58749 0.15552 0.96704 0.0
O304 O 0.60208 0.15779 0.97583 0.0
O305 O 0.59568 0.14401 0.95897 0.0
O306 O 0.62441 0.12926 0.99531 0.0
O307 O 0.61171 0.08877 0.98315 0.0
O308 O 0.85638 0.51654 0.96315 0.0
Cd309 Cd 0.90008 0.5122 0.96058 0.0
Cd310 Cd 0.89355 0.50091 0.98185 0.0
O311 O 0.85592 0.51592 0.98051 0.0
O312 O 0.92051 0.53803 0.94716 0.0
O313 O 0.94699 0.55582 0.96253 0.0
C314 C 0.94622 0.56157 0.95259 0.0
C315 C 0.932 0.5144 0.99602 0.0
C316 C 0.84316 0.51863 0.97181 0.0
C317 C 0.88036 0.44053 0.9674 0.0
O318 O 0.87884 0.45174 0.97646 0.0
O319 O 0.89058 0.46105 0.95951 0.0
O320 O 0.89873 0.49437 0.99713 0.0
O321 O 0.9433 0.52965 0.98704 0.0
O322 O 0.51619 0.34686 0.96193 0.0
Cd323 Cd 0.52147 0.39546 0.95981 0.0
Cd324 Cd 0.5281 0.39729 0.98075 0.0
O325 O 0.511 0.34423 0.97921 0.0
O326 O 0.4969 0.39233 0.9463 0.0
O327 O 0.47792 0.39872 0.96179 0.0
C328 C 0.47291 0.39363 0.95177 0.0
C329 C 0.51031 0.42391 0.99324 0.0
C330 C 0.51084 0.33001 0.97047 0.0
C331 C 0.5922 0.44476 0.96801 0.0
O332 O 0.57924 0.43013 0.97675 0.0
O333 O 0.57297 0.43695 0.95985 0.0
O334 O 0.5272 0.40829 0.99594 0.0
O335 O 0.50042 0.42133 0.98356 0.0
O336 O 0.52068 0.67866 0.794 0.0
Cd337 Cd 0.56478 0.72736 0.79273 0.0
Cd338 Cd 0.5577 0.72421 0.81337 0.0
O339 O 0.52381 0.67115 0.81102 0.0
O340 O 0.58786 0.72645 0.77925 0.0
O341 O 0.61071 0.72903 0.79493 0.0
C342 C 0.61197 0.72587 0.78485 0.0
C343 C 0.60252 0.75142 0.8257 0.0
C344 C 0.50949 0.65936 0.80212 0.0
C345 C 0.54079 0.77322 0.80181 0.0
O346 O 0.53671 0.75511 0.80998 0.0
O347 O 0.55585 0.76957 0.79374 0.0
O348 O 0.57017 0.73403 0.82859 0.0
O349 O 0.60956 0.7503 0.81589 0.0
O350 O 0.34878 0.84663 0.79414 0.0
Cd351 Cd 0.30146 0.84486 0.79295 0.0
Cd352 Cd 0.30278 0.83844 0.81378 0.0
O353 O 0.35558 0.85553 0.81126 0.0
O354 O 0.30275 0.87132 0.78003 0.0
O355 O 0.30254 0.88994 0.7962 0.0
C356 C 0.30484 0.8956 0.78618 0.0
C357 C 0.27883 0.85343 0.82788 0.0
C358 C 0.36748 0.85318 0.80234 0.0
C359 C 0.25201 0.77506 0.80111 0.0
O360 O 0.26877 0.7876 0.80959 0.0
O361 O 0.25829 0.79458 0.7931 0.0
O362 O 0.29416 0.83539 0.82926 0.0
O363 O 0.28044 0.86627 0.81864 0.0
O364 O 0.18225 0.51181 0.79507 0.0
Cd365 Cd 0.18662 0.46825 0.7922 0.0
Cd366 Cd 0.19909 0.47421 0.81349 0.0
O367 O 0.18437 0.51211 0.81243 0.0
O368 O 0.16033 0.44812 0.77883 0.0
O369 O 0.14319 0.42116 0.79415 0.0
C370 C 0.13711 0.42214 0.78425 0.0
C371 C 0.1862 0.43598 0.82769 0.0
C372 C 0.18088 0.52491 0.80384 0.0
C373 C 0.25847 0.48696 0.79865 0.0
O374 O 0.24778 0.48819 0.80781 0.0
O375 O 0.23767 0.47757 0.79084 0.0
O376 O 0.20656 0.46923 0.82871 0.0
O377 O 0.17032 0.42462 0.8188 0.0
O378 O 0.35528 0.85194 0.07771 0.0
Cd379 Cd 0.40321 0.89657 0.0794 0.0
Cd380 Cd 0.40499 0.88908 0.05832 0.0
O381 O 0.35251 0.85176 0.06036 0.0
O382 O 0.4011 0.92063 0.0925 0.0
O383 O 0.40376 0.94164 0.0765 0.0
C384 C 0.40042 0.94393 0.08653 0.0
C385 C 0.42892 0.92759 0.04413 0.0
C386 C 0.33857 0.83874 0.06923 0.0
C387 C 0.45445 0.87696 0.07182 0.0
O388 O 0.43979 0.87405 0.06301 0.0
O389 O 0.4458 0.88837 0.0798 0.0
O390 O 0.41487 0.89426 0.04291 0.0
O391 O 0.42608 0.93893 0.05324 0.0
O392 O 0.18439 0.51144 0.07897 0.0
Cd393 Cd 0.14104 0.51656 0.08127 0.0
Cd394 Cd 0.14585 0.52407 0.06027 0.0
O395 O 0.1821 0.50729 0.06167 0.0
O396 O 0.12011 0.49188 0.09481 0.0
O397 O 0.09411 0.473 0.07941 0.0
C398 C 0.09459 0.46794 0.08941 0.0
C399 C 0.1021 0.50654 0.04757 0.0
C400 C 0.19607 0.50667 0.07037 0.0
C401 C 0.1621 0.58753 0.07337 0.0
O402 O 0.16356 0.57494 0.06453 0.0
O403 O 0.15105 0.56801 0.08148 0.0
O404 O 0.13476 0.52403 0.04505 0.0
O405 O 0.09428 0.49607 0.05719 0.0
O406 O 0.52311 0.6828 0.07686 0.0
Cd407 Cd 0.51865 0.63459 0.07913 0.0
Cd408 Cd 0.50757 0.63072 0.05799 0.0
O409 O 0.52315 0.68345 0.0595 0.0
O410 O 0.54492 0.63931 0.09239 0.0
O411 O 0.56207 0.63125 0.07681 0.0
C412 C 0.5682 0.63732 0.08675 0.0
C413 C 0.52122 0.6056 0.0439 0.0
C414 C 0.52568 0.69858 0.06826 0.0
C415 C 0.44704 0.58296 0.07224 0.0
O416 O 0.45821 0.59628 0.06325 0.0
O417 O 0.46759 0.59277 0.08012 0.0
O418 O 0.50157 0.61923 0.04269 0.0
O419 O 0.53613 0.60938 0.05292 0.0
O420 O 0.187 0.67919 0.57817 0.0
Cd421 Cd 0.14149 0.63156 0.57936 0.0
Cd422 Cd 0.14928 0.63544 0.55873 0.0
O423 O 0.18322 0.6884 0.56132 0.0
O424 O 0.11862 0.63353 0.59273 0.0
O425 O 0.09643 0.63158 0.57698 0.0
C426 C 0.09504 0.63482 0.58705 0.0
C427 C 0.10943 0.61038 0.54493 0.0
C428 C 0.19818 0.6992 0.57019 0.0
C429 C 0.16358 0.58452 0.57062 0.0
O430 O 0.16877 0.60336 0.56254 0.0
O431 O 0.14824 0.58813 0.57861 0.0
O432 O 0.14271 0.62695 0.54328 0.0
O433 O 0.09862 0.61124 0.55431 0.0
O434 O 0.35728 0.51601 0.57748 0.0
Cd435 Cd 0.40547 0.51943 0.57853 0.0
Cd436 Cd 0.40018 0.52128 0.55809 0.0
O437 O 0.34694 0.50023 0.56085 0.0
O438 O 0.40505 0.49607 0.59207 0.0
O439 O 0.40592 0.47454 0.57642 0.0
C440 C 0.4035 0.47079 0.58652 0.0
C441 C 0.42821 0.50401 0.54596 0.0
C442 C 0.33655 0.50538 0.56967 0.0
C443 C 0.44994 0.58825 0.56902 0.0
O444 O 0.43013 0.57369 0.56117 0.0
O445 O 0.4481 0.56998 0.57701 0.0
O446 O 0.40963 0.51749 0.5429 0.0
O447 O 0.42779 0.497 0.55584 0.0
O448 O 0.52333 0.85262 0.5767 0.0
Cd449 Cd 0.5203 0.89748 0.57844 0.0
Cd450 Cd 0.51512 0.89055 0.55764 0.0
O451 O 0.53427 0.85653 0.55969 0.0
O452 O 0.5446 0.91878 0.59199 0.0
O453 O 0.56496 0.94342 0.5765 0.0
C454 C 0.56934 0.94348 0.58656 0.0
C455 C 0.52857 0.93009 0.5438 0.0
C456 C 0.53126 0.84156 0.5685 0.0
C457 C 0.45038 0.87481 0.57018 0.0
O458 O 0.46382 0.87071 0.56186 0.0
O459 O 0.46962 0.88959 0.57816 0.0
O460 O 0.51177 0.89678 0.54224 0.0
O461 O 0.54102 0.94115 0.5531 0.0
O462 O 0.35446 0.51436 0.29539 0.0
Cd463 Cd 0.3059 0.47016 0.29388 0.0
Cd464 Cd 0.30769 0.47701 0.31457 0.0
O465 O 0.36083 0.51112 0.31248 0.0
O466 O 0.30772 0.44765 0.28039 0.0
O467 O 0.30439 0.42428 0.29603 0.0
C468 C 0.30812 0.42341 0.28597 0.0
C469 C 0.28 0.43199 0.32679 0.0
C470 C 0.37322 0.52549 0.30362 0.0
C471 C 0.25876 0.49316 0.30267 0.0
O472 O 0.27652 0.49751 0.31095 0.0
O473 O 0.26323 0.47844 0.29465 0.0
O474 O 0.29712 0.46428 0.32974 0.0
O475 O 0.28169 0.42512 0.317 0.0
O476 O 0.52504 0.84944 0.29542 0.0
Cd477 Cd 0.56959 0.84663 0.29291 0.0
Cd478 Cd 0.56382 0.83701 0.31408 0.0
O479 O 0.5272 0.85341 0.31272 0.0
O480 O 0.58989 0.87259 0.27951 0.0
O481 O 0.61595 0.89087 0.29493 0.0
C482 C 0.61525 0.89647 0.28497 0.0
C483 C 0.60241 0.85012 0.32819 0.0
C484 C 0.51298 0.85365 0.30403 0.0
C485 C 0.55018 0.77568 0.29994 0.0
O486 O 0.54803 0.78724 0.30888 0.0
O487 O 0.56118 0.79595 0.29201 0.0
O488 O 0.56908 0.83081 0.32938 0.0
O489 O 0.61378 0.86496 0.31917 0.0
O490 O 0.1875 0.68454 0.29538 0.0
Cd491 Cd 0.1913 0.73289 0.29442 0.0
Cd492 Cd 0.19213 0.72673 0.3148 0.0
O493 O 0.17064 0.67354 0.31192 0.0
O494 O 0.16858 0.73301 0.2808 0.0
O495 O 0.14645 0.73358 0.29637 0.0
C496 C 0.1431 0.73141 0.28626 0.0
C497 C 0.17531 0.7548 0.32706 0.0
C498 C 0.17629 0.66347 0.30311 0.0
C499 C 0.25985 0.77606 0.30416 0.0
O500 O 0.24469 0.75596 0.31191 0.0
O501 O 0.24204 0.77508 0.29615 0.0
O502 O 0.18827 0.73567 0.33002 0.0
O503 O 0.16852 0.75495 0.31719 0.0
H504 H 0.33941 0.14173 0.15627 0.0
H505 H 0.26877 0.0913 0.18223 0.0
H506 H 0.38029 0.1873 0.16804 0.0
H507 H 0.3103 0.13604 0.19415 0.0
H508 H 0.37262 0.23922 0.21113 0.0
H509 H 0.33248 0.19528 0.19872 0.0
H510 H 0.42046 0.20182 0.18174 0.0
H511 H 0.4603 0.24664 0.19381 0.0
C512 C 0.33299 0.13988 0.16455 0.0
C513 C 0.3008 0.11284 0.1683 0.0
C514 C 0.35648 0.16612 0.17133 0.0
C515 C 0.34858 0.16577 0.18208 0.0
C516 C 0.31698 0.1378 0.18589 0.0
C517 C 0.29332 0.11179 0.17908 0.0
C518 C 0.38334 0.2317 0.20463 0.0
C519 C 0.41968 0.24655 0.20346 0.0
C520 C 0.36031 0.20611 0.19758 0.0
C521 C 0.37307 0.19447 0.18926 0.0
C522 C 0.4095 0.21021 0.18794 0.0
C523 C 0.43246 0.23601 0.19491 0.0
H524 H 0.76156 0.17359 0.19093 0.0
H525 H 0.81584 0.16225 0.21749 0.0
H526 H 0.80771 0.17873 0.17925 0.0
H527 H 0.86284 0.16919 0.20598 0.0
H528 H 0.92782 0.15264 0.18127 0.0
H529 H 0.88131 0.14525 0.19302 0.0
H530 H 0.86542 0.21769 0.17422 0.0
H531 H 0.91097 0.22355 0.16212 0.0
C532 C 0.78324 0.17191 0.19426 0.0
C533 C 0.7849 0.16733 0.20513 0.0
C534 C 0.81005 0.17539 0.18759 0.0
C535 C 0.83953 0.17496 0.19163 0.0
C536 C 0.84055 0.1693 0.20249 0.0
C537 C 0.81348 0.16527 0.20913 0.0
C538 C 0.91475 0.1674 0.17971 0.0
C539 C 0.92318 0.18872 0.17074 0.0
C540 C 0.88796 0.16318 0.18649 0.0
C541 C 0.86911 0.18058 0.18459 0.0
C542 C 0.87861 0.20311 0.17583 0.0
C543 C 0.90513 0.20691 0.16895 0.0
H544 H 0.90134 0.66764 0.2096 0.0
H545 H 0.82207 0.57874 0.1925 0.0
H546 H 0.89724 0.70689 0.19693 0.0
H547 H 0.81654 0.61762 0.18021 0.0
H548 H 0.83565 0.69661 0.15434 0.0
H549 H 0.84082 0.65669 0.16639 0.0
H550 H 0.86095 0.72894 0.19197 0.0
H551 H 0.85751 0.76956 0.17976 0.0
C552 C 0.88321 0.65647 0.2031 0.0
C553 C 0.86217 0.62005 0.20205 0.0
C554 C 0.88046 0.67898 0.1959 0.0
C555 C 0.85618 0.66562 0.18756 0.0
C556 C 0.83586 0.6291 0.1864 0.0
C557 C 0.83899 0.60666 0.19349 0.0
C558 C 0.84064 0.70371 0.16257 0.0
C559 C 0.84614 0.73626 0.16609 0.0
C560 C 0.84365 0.68077 0.16951 0.0
C561 C 0.85174 0.68956 0.1802 0.0
C562 C 0.85567 0.72154 0.18377 0.0
C563 C 0.85318 0.74469 0.1768 0.0
H564 H 0.12896 0.33262 0.377 0.0
H565 H 0.11636 0.2453 0.35834 0.0
H566 H 0.1738 0.37292 0.36484 0.0
H567 H 0.1622 0.2851 0.34655 0.0
H568 H 0.22568 0.36733 0.32184 0.0
H569 H 0.17923 0.32664 0.33339 0.0
H570 H 0.23203 0.39374 0.35995 0.0
H571 H 0.27754 0.43528 0.34823 0.0
C572 C 0.13558 0.32204 0.37026 0.0
C573 C 0.11893 0.28574 0.36863 0.0
C574 C 0.1617 0.34512 0.36335 0.0
C575 C 0.1722 0.33244 0.35472 0.0
C576 C 0.15474 0.2961 0.35298 0.0
C577 C 0.12834 0.27313 0.35979 0.0
C578 C 0.22765 0.37313 0.33017 0.0
C579 C 0.25536 0.40455 0.33411 0.0
C580 C 0.2009 0.34973 0.33683 0.0
C581 C 0.20141 0.35686 0.34765 0.0
C582 C 0.23006 0.38766 0.35164 0.0
C583 C 0.25653 0.41131 0.34494 0.0
H584 H 0.70437 0.82406 0.3838 0.0
H585 H 0.77756 0.84832 0.3583 0.0
H586 H 0.66389 0.82887 0.37189 0.0
H587 H 0.73644 0.85145 0.34622 0.0
H588 H 0.67392 0.89142 0.32907 0.0
H589 H 0.71357 0.8874 0.3416 0.0
H590 H 0.62494 0.80466 0.358 0.0
H591 H 0.58561 0.81004 0.34584 0.0
C592 C 0.71142 0.8295 0.37558 0.0
C593 C 0.74418 0.83578 0.372 0.0
C594 C 0.68817 0.83232 0.36872 0.0
C595 C 0.69688 0.841 0.35805 0.0
C596 C 0.72909 0.84569 0.35441 0.0
C597 C 0.75253 0.84338 0.36131 0.0
C598 C 0.66296 0.87284 0.33547 0.0
C599 C 0.62659 0.85117 0.33646 0.0
C600 C 0.68571 0.87014 0.34259 0.0
C601 C 0.67265 0.84533 0.3508 0.0
C602 C 0.63617 0.82438 0.35191 0.0
C603 C 0.61349 0.82742 0.34489 0.0
H604 H 0.15554 0.91849 0.35995 0.0
H605 H 0.22963 0.90347 0.37808 0.0
H606 H 0.149 0.87334 0.34774 0.0
H607 H 0.22441 0.85921 0.36555 0.0
H608 H 0.18021 0.75572 0.34851 0.0
H609 H 0.18527 0.8011 0.3605 0.0
H610 H 0.17377 0.85689 0.33431 0.0
H611 H 0.16713 0.8107 0.32245 0.0
C612 C 0.17113 0.90613 0.36119 0.0
C613 C 0.1931 0.91463 0.37002 0.0
C614 C 0.1674 0.88013 0.35415 0.0
C615 C 0.18586 0.86214 0.35566 0.0
C616 C 0.20905 0.87178 0.36425 0.0
C617 C 0.21247 0.89756 0.37137 0.0
C618 C 0.17812 0.77737 0.34536 0.0
C619 C 0.17311 0.77948 0.33453 0.0
C620 C 0.18155 0.80374 0.35221 0.0
C621 C 0.18051 0.83315 0.34841 0.0
C622 C 0.1744 0.83461 0.3376 0.0
C623 C 0.17054 0.80802 0.33077 0.0
H624 H 0.59794 0.75418 0.84709 0.0
H625 H 0.66832 0.80443 0.82105 0.0
H626 H 0.63951 0.79908 0.85895 0.0
H627 H 0.70922 0.8502 0.83278 0.0
H628 H 0.78945 0.91028 0.8584 0.0
H629 H 0.74956 0.86521 0.84639 0.0
H630 H 0.66165 0.85817 0.86355 0.0
H631 H 0.70187 0.90235 0.87589 0.0
C632 C 0.62244 0.77468 0.84391 0.0
C633 C 0.62984 0.77561 0.83313 0.0
C634 C 0.64613 0.80079 0.85069 0.0
C635 C 0.67767 0.82878 0.84685 0.0
C636 C 0.68547 0.82902 0.83609 0.0
C637 C 0.66196 0.80267 0.82934 0.0
C638 C 0.76161 0.89947 0.85955 0.0
C639 C 0.74889 0.90996 0.86813 0.0
C640 C 0.73861 0.87354 0.85262 0.0
C641 C 0.70219 0.85759 0.854 0.0
C642 C 0.68948 0.86915 0.86236 0.0
C643 C 0.71255 0.89486 0.86937 0.0
H644 H 0.15133 0.82792 0.88371 0.0
H645 H 0.10058 0.84896 0.85807 0.0
H646 H 0.19699 0.83344 0.87181 0.0
H647 H 0.14517 0.85267 0.84599 0.0
H648 H 0.24708 0.89332 0.82849 0.0
H649 H 0.20339 0.88913 0.84107 0.0
H650 H 0.2129 0.80964 0.85816 0.0
H651 H 0.25768 0.81534 0.84596 0.0
C652 C 0.1494 0.83277 0.87546 0.0
C653 C 0.12228 0.83796 0.87184 0.0
C654 C 0.17569 0.836 0.8686 0.0
C655 C 0.17526 0.84395 0.85789 0.0
C656 C 0.14712 0.84753 0.85421 0.0
C657 C 0.12116 0.84486 0.86111 0.0
C658 C 0.24027 0.87547 0.83506 0.0
C659 C 0.25601 0.8548 0.83623 0.0
C660 C 0.2148 0.87264 0.84221 0.0
C661 C 0.204 0.84863 0.85062 0.0
C662 C 0.22061 0.82875 0.85191 0.0
C663 C 0.24641 0.83198 0.84487 0.0
H664 H 0.18772 0.26039 0.85735 0.0
H665 H 0.2115 0.33267 0.88309 0.0
H666 H 0.18462 0.30185 0.84542 0.0
H667 H 0.20686 0.37355 0.87131 0.0
H668 H 0.22654 0.45248 0.84529 0.0
H669 H 0.23166 0.41286 0.8574 0.0
H670 H 0.14816 0.3247 0.84107 0.0
H671 H 0.14425 0.3646 0.82862 0.0
C672 C 0.19258 0.28529 0.86045 0.0
C673 C 0.19999 0.29326 0.87117 0.0
C674 C 0.1903 0.30892 0.85363 0.0
C675 C 0.19489 0.34098 0.85738 0.0
C676 C 0.20345 0.34936 0.86806 0.0
C677 C 0.20618 0.32589 0.87485 0.0
C678 C 0.20893 0.42466 0.84435 0.0
C679 C 0.185 0.41174 0.83596 0.0
C680 C 0.21184 0.40182 0.85133 0.0
C681 C 0.19061 0.36538 0.85021 0.0
C682 C 0.1656 0.35252 0.84206 0.0
C683 C 0.16299 0.37541 0.83499 0.0
H684 H 0.81868 0.66454 0.71627 0.0
H685 H 0.77006 0.59357 0.69027 0.0
H686 H 0.86474 0.70553 0.70464 0.0
H687 H 0.815 0.63529 0.67846 0.0
H688 H 0.91761 0.69849 0.66147 0.0
H689 H 0.87354 0.65805 0.67378 0.0
H690 H 0.88078 0.74571 0.69116 0.0
H691 H 0.92595 0.78573 0.67924 0.0
C692 C 0.81732 0.65812 0.708 0.0
C693 C 0.79068 0.62582 0.70419 0.0
C694 C 0.84383 0.68167 0.70129 0.0
C695 C 0.84407 0.67378 0.69056 0.0
C696 C 0.81643 0.64202 0.6867 0.0
C697 C 0.79027 0.61824 0.69345 0.0
C698 C 0.9102 0.70903 0.66804 0.0
C699 C 0.92543 0.74534 0.66938 0.0
C700 C 0.88452 0.68585 0.67504 0.0
C701 C 0.873 0.69841 0.68345 0.0
C702 C 0.88907 0.73481 0.68491 0.0
C703 C 0.91508 0.75791 0.67803 0.0
H704 H 0.43894 0.17741 0.69169 0.0
H705 H 0.36702 0.1581 0.71723 0.0
H706 H 0.39861 0.18152 0.67951 0.0
H707 H 0.32742 0.16385 0.70521 0.0
H708 H 0.24939 0.14575 0.67915 0.0
H709 H 0.28793 0.13947 0.69141 0.0
H710 H 0.37773 0.21912 0.67461 0.0
H711 H 0.33881 0.22408 0.662 0.0
C712 C 0.41435 0.17374 0.69469 0.0
C713 C 0.40615 0.16727 0.70543 0.0
C714 C 0.39139 0.17662 0.68773 0.0
C715 C 0.35982 0.17359 0.69134 0.0
C716 C 0.3512 0.166 0.70205 0.0
C717 C 0.37396 0.16265 0.70898 0.0
C718 C 0.27736 0.16229 0.67814 0.0
C719 C 0.29098 0.18544 0.66957 0.0
C720 C 0.29959 0.15871 0.68521 0.0
C721 C 0.33614 0.17851 0.68401 0.0
C722 C 0.34977 0.20275 0.67567 0.0
C723 C 0.32746 0.206 0.6685 0.0
H724 H 0.86742 0.21269 0.71651 0.0
H725 H 0.85501 0.26721 0.69021 0.0
H726 H 0.86078 0.16616 0.70482 0.0
H727 H 0.85029 0.22167 0.67835 0.0
H728 H 0.87807 0.10257 0.67978 0.0
H729 H 0.88466 0.14818 0.69178 0.0
H730 H 0.8122 0.16433 0.67306 0.0
H731 H 0.80726 0.1198 0.6607 0.0
C732 C 0.86423 0.21521 0.70817 0.0
C733 C 0.8618 0.2437 0.70429 0.0
C734 C 0.86038 0.18841 0.70142 0.0
C735 C 0.85456 0.18967 0.69058 0.0
C736 C 0.85372 0.21909 0.68667 0.0
C737 C 0.85697 0.24557 0.69344 0.0
C738 C 0.86313 0.11549 0.67829 0.0
C739 C 0.84212 0.10748 0.66926 0.0
C740 C 0.86688 0.14177 0.68521 0.0
C741 C 0.84928 0.16048 0.68341 0.0
C742 C 0.82697 0.15129 0.67461 0.0
C743 C 0.82368 0.12534 0.66757 0.0
H744 H 0.12615 0.5896 0.52674 0.0
H745 H 0.03768 0.57733 0.54471 0.0
H746 H 0.08705 0.54436 0.51467 0.0
H747 H 0.9981 0.53323 0.53225 0.0
H748 H 0.93594 0.43035 0.51532 0.0
H749 H 0.97681 0.47535 0.52727 0.0
H750 H 0.04687 0.52748 0.50123 0.0
H751 H 1.00679 0.48135 0.48946 0.0
C752 C 0.09822 0.57786 0.52796 0.0
C753 C 0.08506 0.58713 0.5367 0.0
C754 C 0.07565 0.5518 0.521 0.0
C755 C 0.03918 0.53461 0.52246 0.0
C756 C 0.02599 0.54507 0.53098 0.0
C757 C 0.04866 0.57078 0.53806 0.0
C758 C 0.96041 0.4511 0.5122 0.0
C759 C 0.96821 0.45216 0.50145 0.0
C760 C 0.9837 0.47729 0.51903 0.0
C761 C 1.01513 0.50564 0.51526 0.0
C762 C 0.02326 0.50604 0.50452 0.0
C763 C 1.00024 0.47948 0.49773 0.0
H764 H 0.48362 0.49543 0.55088 0.0
H765 H 0.42984 0.50854 0.52449 0.0
H766 H 0.53005 0.5015 0.53924 0.0
H767 H 0.47543 0.51291 0.5127 0.0
H768 H 0.5784 0.55604 0.49545 0.0
H769 H 0.53357 0.55123 0.50768 0.0
H770 H 0.54697 0.47651 0.52611 0.0
H771 H 0.59273 0.48274 0.51423 0.0
C772 C 0.48124 0.49869 0.54253 0.0
C773 C 0.45298 0.50146 0.53861 0.0
C774 C 0.50798 0.50222 0.53583 0.0
C775 C 0.50692 0.50811 0.52498 0.0
C776 C 0.47777 0.50935 0.52102 0.0
C777 C 0.45128 0.50631 0.52776 0.0
C778 C 0.57218 0.53911 0.50223 0.0
C779 C 0.58929 0.51991 0.50387 0.0
C780 C 0.54608 0.53593 0.50918 0.0
C781 C 0.5361 0.51308 0.51787 0.0
C782 C 0.55403 0.49469 0.51963 0.0
C783 C 0.58038 0.49823 0.51277 0.0
H784 H 0.50249 0.03101 0.48799 0.0
H785 H 0.51839 0.10112 0.51377 0.0
H786 H 0.50862 0.99153 0.49995 0.0
H787 H 0.52271 0.06079 0.5259 0.0
H788 H 0.49136 0.91269 0.52556 0.0
H789 H 0.48459 0.95115 0.51342 0.0
H790 H 0.56054 0.04087 0.5311 0.0
H791 H 0.56581 1.00192 0.54362 0.0
C792 C 0.50633 0.03753 0.49628 0.0
C793 C 0.50991 0.06921 0.49992 0.0
C794 C 0.50989 0.01483 0.50318 0.0
C795 C 0.5166 0.02294 0.51395 0.0
C796 C 0.51854 0.05396 0.51764 0.0
C797 C 0.51552 0.07692 0.51071 0.0
C798 C 0.50699 0.94065 0.5268 0.0
C799 C 0.52916 0.9542 0.53558 0.0
C800 C 0.50314 0.96285 0.51979 0.0
C801 C 0.52175 0.99933 0.52125 0.0
C802 C 0.54505 1.01294 0.52982 0.0
C803 C 0.5485 0.99063 0.53694 0.0
H804 H 0.45924 0.99911 0.04335 0.0
H805 H 0.45134 0.91092 0.02623 0.0
H806 H 0.50285 0.03886 0.0308 0.0
H807 H 0.49599 0.95032 1.01406 0.0
H808 H 0.55686 0.03014 0.98845 0.0
H809 H 0.51125 0.98968 1.0003 0.0
H810 H 0.56155 0.06147 0.0261 0.0
H811 H 0.60611 0.10259 1.01409 0.0
C812 C 0.46661 0.9882 0.03686 0.0
C813 C 0.45168 0.95183 0.03579 0.0
C814 C 0.49203 1.011 0.02974 0.0
C815 C 0.50354 0.998 0.02144 0.0
C816 C 0.48771 0.96152 0.02023 0.0
C817 C 0.462 0.93879 0.02725 0.0
C818 C 0.55847 0.03702 0.99669 0.0
C819 C 0.58515 0.06958 1.00032 0.0
C820 C 0.53221 1.01378 1.00352 0.0
C821 C 0.53224 0.02227 1.0142 0.0
C822 C 0.55993 0.05428 1.0179 0.0
C823 C 0.58587 0.07772 1.01103 0.0
H824 H 0.91566 0.4744 1.01369 0.0
H825 H 1.00335 0.55679 0.99698 0.0
H826 H 0.95539 0.46994 0.02591 0.0
H827 H 0.04336 0.55363 1.00957 0.0
H828 H 0.10845 0.51579 0.02628 0.0
H829 H 0.06701 0.51827 1.01419 0.0
H830 H 0.99423 0.4949 0.03984 0.0
H831 H 0.03507 0.49079 0.05177 0.0
C832 C 0.94347 0.49219 1.01276 0.0
C833 C 0.9563 0.51595 1.00433 0.0
C834 C 0.96637 0.48967 0.01982 0.0
C835 C 1.0028 0.51117 1.01873 0.0
C836 C 1.01557 0.53598 1.01053 0.0
C837 C 0.9926 0.53817 1.00338 0.0
C838 C 0.08332 0.51056 0.02929 0.0
C839 C 0.07501 0.50294 0.03998 0.0
C840 C 0.05969 0.51249 0.02238 0.0
C841 C 0.0273 0.50736 0.02601 0.0
C842 C 1.01865 0.49868 0.03668 0.0
C843 C 0.04211 0.49627 0.04355 0.0
H844 H 0.51875 0.42733 1.01456 0.0
H845 H 0.49596 0.47588 0.98867 0.0
H846 H 0.52205 0.47224 0.02641 0.0
H847 H 0.50089 0.52178 1.00036 0.0
H848 H 0.48167 0.58222 0.02613 0.0
H849 H 0.47638 0.53714 1.0141 0.0
H850 H 0.55857 0.53134 0.03082 0.0
H851 H 0.56255 0.57543 0.04321 0.0
C852 C 0.51416 0.44747 1.01142 0.0
C853 C 0.50695 0.44792 1.00068 0.0
C854 C 0.51657 0.4736 1.01818 0.0
C855 C 0.51234 0.50119 1.01437 0.0
C856 C 0.504 0.50092 1.00366 0.0
C857 C 0.50111 0.47449 0.99693 0.0
C858 C 0.49897 0.57169 0.02717 0.0
C859 C 0.52253 0.58245 0.03566 0.0
C860 C 0.49597 0.54574 0.02024 0.0
C861 C 0.51676 0.5301 0.0215 0.0
C862 C 0.54144 0.54203 0.02973 0.0
C863 C 0.54412 0.56771 0.03677 0.0
H864 H 0.31248 0.02898 0.12971 0.0
H865 H 0.30983 0.0768 0.10044 0.0
H866 H 0.34562 1.00536 0.12139 0.0
H867 H 0.34557 0.0556 0.09219 0.0
H868 H 0.366 0.97325 0.07704 0.0
H869 H 0.34271 1.007 0.08523 0.0
H870 H 0.39408 1.00852 0.11437 0.0
H871 H 0.41479 0.97221 0.10627 0.0
C872 C 0.32002 0.03541 0.12155 0.0
C873 C 0.30839 0.05464 0.11573 0.0
C874 C 0.33934 0.02195 0.11673 0.0
C875 C 0.34842 0.02808 0.10599 0.0
C876 C 0.33844 0.04923 0.10036 0.0
C877 C 0.31826 0.06187 0.10512 0.0
C878 C 0.37271 0.98129 0.08515 0.0
C879 C 0.39206 0.96991 0.09102 0.0
C880 C 0.35944 1.00092 0.0899 0.0
C881 C 0.36592 1.01051 0.1006 0.0
C882 C 0.38734 1.0009 0.10624 0.0
C883 C 0.39972 0.9804 0.10156 0.0
H884 H 0.09241 0.44824 0.10988 0.0
H885 H 0.03946 0.4107 0.08014 0.0
H886 H 0.05718 0.39027 0.11739 0.0
H887 H 1.00327 0.35267 0.08776 0.0
H888 H 0.97941 0.28628 0.13074 0.0
H889 H 1.00189 0.34453 0.12323 0.0
H890 H 1.01146 0.30549 0.09297 0.0
H891 H 0.98806 0.2473 0.10039 0.0
C892 C 0.07266 0.4278 0.10499 0.0
C893 C 0.06899 0.43416 0.09437 0.0
C894 C 0.05223 0.39444 0.10934 0.0
C895 C 0.02741 0.36647 0.10319 0.0
C896 C 0.02252 0.37333 0.0927 0.0
C897 C 0.04308 0.40673 0.08834 0.0
C898 C 0.98566 0.29 0.12243 0.0
C899 C 0.98206 0.26207 0.11619 0.0
C900 C 0.99886 0.32352 0.11813 0.0
C901 C 1.00894 0.33002 0.10749 0.0
C902 C 1.00369 0.30162 0.10115 0.0
C903 C 0.99037 0.26813 0.10544 0.0
H904 H 0.62485 0.63988 0.07689 0.0
H905 H 0.58928 0.65421 0.10715 0.0
H906 H 0.68339 0.66147 0.08411 0.0
H907 H 0.64772 0.67662 0.11426 0.0
H908 H 0.75237 0.70197 0.12676 0.0
H909 H 0.69372 0.66642 0.11949 0.0
H910 H 0.73081 0.71696 0.08939 0.0
H911 H 0.7894 0.75159 0.09656 0.0
C912 C 0.62936 0.64717 0.08512 0.0
C913 C 0.60234 0.64544 0.09142 0.0
C914 C 0.66304 0.65985 0.08924 0.0
C915 C 0.67055 0.67117 0.09976 0.0
C916 C 0.64302 0.66783 0.10617 0.0
C917 C 0.6094 0.6551 0.10206 0.0
C918 C 0.74814 0.70497 0.11854 0.0
C919 C 0.77562 0.72981 0.11228 0.0
C920 C 0.7144 0.68478 0.11437 0.0
C921 C 0.70725 0.68898 0.10385 0.0
C922 C 0.73521 0.71261 0.09748 0.0
C923 C 0.76892 0.73268 0.10162 0.0
H924 H 1.00306 0.39039 0.4608 0.0
H925 H 0.94896 0.37499 0.43129 0.0
H926 H 0.03886 0.36841 0.45293 0.0
H927 H 0.9839 0.35223 0.42353 0.0
H928 H 0.06175 0.32661 0.40973 0.0
H929 H 0.03941 0.36223 0.41749 0.0
H930 H 0.03 0.31269 0.44753 0.0
H931 H 0.05315 0.27796 0.43986 0.0
C932 C 0.99911 0.38278 0.4526 0.0
C933 C 0.97298 0.38434 0.44671 0.0
C934 C 1.01945 0.36988 0.4481 0.0
C935 C 1.01416 0.35816 0.4376 0.0
C936 C 0.98913 0.36132 0.43159 0.0
C937 C 0.96887 0.37426 0.43607 0.0
C938 C 0.05557 0.32384 0.41804 0.0
C939 C 0.05912 0.29926 0.42414 0.0
C940 C 0.04245 0.34407 0.42248 0.0
C941 C 0.03247 0.34019 0.43314 0.0
C942 C 0.03769 0.3168 0.43934 0.0
C943 C 0.05086 0.29667 0.43491 0.0
H944 H 0.65672 0.57961 0.43275 0.0
H945 H 0.64672 0.61874 0.46291 0.0
H946 H 0.68028 0.6377 0.42525 0.0
H947 H 0.66943 0.67694 0.45532 0.0
H948 H 0.70829 0.74266 0.41221 0.0
H949 H 0.67193 0.68471 0.41986 0.0
H950 H 0.72506 0.72268 0.44958 0.0
H951 H 0.7605 0.78057 0.44203 0.0
C952 C 0.65878 0.60045 0.43774 0.0
C953 C 0.65002 0.59446 0.44846 0.0
C954 C 0.67219 0.63389 0.43341 0.0
C955 C 0.67712 0.66231 0.43967 0.0
C956 C 0.66663 0.65589 0.45029 0.0
C957 C 0.6533 0.62241 0.45463 0.0
C958 C 0.71171 0.73879 0.42043 0.0
C959 C 0.73747 0.7663 0.42648 0.0
C960 C 0.69105 0.70544 0.42481 0.0
C961 C 0.69568 0.69872 0.43534 0.0
C962 C 0.72033 0.72675 0.4415 0.0
C963 C 0.74088 0.76006 0.43713 0.0
H964 H 0.42009 0.0335 0.46096 0.0
H965 H 0.45728 0.08315 0.43078 0.0
H966 H 0.36161 0.99761 0.45363 0.0
H967 H 0.3988 0.04826 0.42354 0.0
H968 H 0.25662 0.98328 0.44129 0.0
H969 H 0.31515 1.00656 0.4484 0.0
H970 H 0.35168 0.99323 0.41816 0.0
H971 H 0.29304 0.97089 0.41094 0.0
C972 C 0.41592 0.03646 0.45273 0.0
C973 C 0.44342 0.06137 0.44648 0.0
C974 C 0.38226 0.01607 0.44853 0.0
C975 C 0.37515 0.0202 0.438 0.0
C976 C 0.40314 0.04394 0.43164 0.0
C977 C 0.4368 0.06416 0.43582 0.0
C978 C 0.27697 0.98477 0.43618 0.0
C979 C 0.27008 0.97539 0.42551 0.0
C980 C 0.31066 0.99801 0.44029 0.0
C981 C 0.33846 1.0021 0.43387 0.0
C982 C 0.33115 0.99109 0.42331 0.0
C983 C 0.29741 0.97797 0.41918 0.0
H984 H 0.70606 0.9712 0.91018 0.0
H985 H 0.75808 0.98594 0.94005 0.0
H986 H 0.67005 0.99346 0.91772 0.0
H987 H 0.72292 1.00894 0.94749 0.0
H988 H 0.65583 0.08434 0.93053 0.0
H989 H 0.67907 0.04939 0.92308 0.0
H990 H 0.66696 0.99895 0.95312 0.0
H991 H 0.64449 0.03474 0.96066 0.0
C992 C 0.7095 0.97872 0.91839 0.0
C993 C 0.73511 0.97689 0.92448 0.0
C994 C 0.68904 0.99178 0.9227 0.0
C995 C 0.69368 1.00336 0.93321 0.0
C996 C 0.7182 0.99995 0.93941 0.0
C997 C 0.73858 0.98688 0.93511 0.0
C998 C 0.65753 0.06539 0.93552 0.0
C999 C 0.64849 0.06259 0.94623 0.0
C1000 C 0.67076 0.04513 0.93122 0.0
C1001 C 0.67525 0.02143 0.93749 0.0
C1002 C 0.66448 0.01734 0.94808 0.0
C1003 C 0.65129 0.03768 0.95239 0.0
H1004 H 0.94911 0.58156 0.93213 0.0
H1005 H 1.00062 0.61894 0.96207 0.0
H1006 H 0.98449 0.63965 0.92471 0.0
H1007 H 0.03689 0.67714 0.95454 0.0
H1008 H 0.05151 0.78224 0.94168 0.0
H1009 H 0.02813 0.72409 0.94914 0.0
H1010 H 0.0405 0.68553 0.91914 0.0
H1011 H 0.06309 0.74375 0.91159 0.0
C1012 C 0.96855 0.60201 0.93709 0.0
C1013 C 0.9718 0.59555 0.94773 0.0
C1014 C 0.98907 0.63542 0.93279 0.0
C1015 C 1.01352 0.66336 0.93902 0.0
C1016 C 1.01795 0.65646 0.94955 0.0
C1017 C 0.99734 0.62298 0.95385 0.0
C1018 C 0.04983 0.76154 0.9367 0.0
C1019 C 0.05897 0.7677 0.92601 0.0
C1020 C 0.03653 0.72808 0.94101 0.0
C1021 C 0.03206 0.69983 0.93474 0.0
C1022 C 0.04295 0.70645 0.92417 0.0
C1023 C 0.05621 0.73995 0.91985 0.0
H1024 H 0.45339 0.37747 0.93122 0.0
H1025 H 0.41539 0.39031 0.96124 0.0
H1026 H 0.39532 0.35462 0.92376 0.0
H1027 H 0.35725 0.36828 0.95368 0.0
H1028 H 0.25266 0.27736 0.94073 0.0
H1029 H 0.31074 0.31258 0.9482 0.0
H1030 H 0.34893 0.36392 0.91826 0.0
H1031 H 0.29079 0.32781 0.9107 0.0
C1032 C 0.43282 0.3762 0.93618 0.0
C1033 C 0.43909 0.38553 0.94686 0.0
C1034 C 0.39941 0.3632 0.93187 0.0
C1035 C 0.3713 0.35925 0.93811 0.0
C1036 C 0.37804 0.37033 0.94867 0.0
C1037 C 0.4115 0.38327 0.95299 0.0
C1038 C 0.27326 0.29657 0.93577 0.0
C1039 C 0.26702 0.29951 0.92508 0.0
C1040 C 0.30667 0.31699 0.94008 0.0
C1041 C 0.33482 0.34103 0.93383 0.0
C1042 C 0.32811 0.34527 0.92327 0.0
C1043 C 0.29465 0.32475 0.91895 0.0
H1044 H 0.99325 0.75358 0.5981 0.0
H1045 H 0.97931 0.70207 0.62801 0.0
H1046 H 1.01608 0.71836 0.59062 0.0
H1047 H 1.00115 0.6658 0.62042 0.0
H1048 H 0.09066 0.64992 0.60765 0.0
H1049 H 0.05607 0.67356 0.61508 0.0
H1050 H 1.00698 0.66333 0.58489 0.0
H1051 H 0.04263 0.64069 0.57737 0.0
C1052 C 0.99428 0.73414 0.60303 0.0
C1053 C 0.98464 0.73088 0.61369 0.0
C1054 C 1.00726 0.7137 0.59871 0.0
C1055 C 1.01081 0.68925 0.60491 0.0
C1056 C 0.99946 0.68477 0.61544 0.0
C1057 C 0.98661 0.70538 0.61978 0.0
C1058 C 0.07209 0.65216 0.60261 0.0
C1059 C 0.06967 0.64361 0.59188 0.0
C1060 C 0.05202 0.66561 0.60691 0.0
C1061 C 0.02878 0.67074 0.6006 0.0
C1062 C 0.02505 0.66043 0.58997 0.0
C1063 C 0.04529 0.64713 0.58566 0.0
H1064 H 0.2845 0.25101 0.59769 0.0
H1065 H 0.33552 0.28825 0.6277 0.0
H1066 H 0.31998 0.30907 0.5903 0.0
H1067 H 0.37201 0.34646 0.6202 0.0
H1068 H 0.39842 0.41253 0.57709 0.0
H1069 H 0.37563 0.35446 0.58472 0.0
H1070 H 0.36457 0.39394 0.61472 0.0
H1071 H 0.38834 0.45205 0.60718 0.0
C1072 C 0.30386 0.27143 0.60267 0.0
C1073 C 0.30695 0.26492 0.61332 0.0
C1074 C 0.32445 0.30485 0.5984 0.0
C1075 C 0.34889 0.33275 0.60464 0.0
C1076 C 0.3531 0.32583 0.61518 0.0
C1077 C 0.33237 0.29234 0.61947 0.0
C1078 C 0.39179 0.40896 0.58537 0.0
C1079 C 0.39505 0.43697 0.59149 0.0
C1080 C 0.3784 0.37554 0.58974 0.0
C1081 C 0.36774 0.36919 0.60033 0.0
C1082 C 0.37275 0.3977 0.60658 0.0
C1083 C 0.3863 0.43113 0.60222 0.0
H1084 H 0.74918 0.05706 0.62865 0.0
H1085 H 0.78984 0.04943 0.59848 0.0
H1086 H 0.69136 0.03485 0.62086 0.0
H1087 H 0.73207 0.02616 0.59079 0.0
H1088 H 0.5881 0.94546 0.60712 0.0
H1089 H 0.64576 0.98024 0.61485 0.0
H1090 H 0.68515 0.03391 0.58527 0.0
H1091 H 0.62743 0.99804 0.57742 0.0
C1092 C 0.74591 0.05107 0.62033 0.0
C1093 C 0.77419 0.05491 0.61422 0.0
C1094 C 0.71263 0.038 0.61586 0.0
C1095 C 0.7067 0.02822 0.60518 0.0
C1096 C 0.73547 0.0337 0.59899 0.0
C1097 C 0.76873 0.04695 0.60344 0.0
C1098 C 0.60889 0.96505 0.60229 0.0
C1099 C 0.60309 0.96874 0.59161 0.0
C1100 C 0.64208 0.98523 0.60676 0.0
C1101 C 0.67046 1.00988 0.6007 0.0
C1102 C 0.66419 0.01478 0.59015 0.0
C1103 C 0.63096 0.9944 0.58566 0.0
H1104 H 0.71315 0.60712 0.77369 0.0
H1105 H 0.7294 0.66028 0.74397 0.0
H1106 H 0.6904 0.64244 0.78116 0.0
H1107 H 0.70745 0.6965 0.75155 0.0
H1108 H 0.66465 0.72049 0.7945 0.0
H1109 H 0.70046 0.69806 0.78697 0.0
H1110 H 0.6518 0.68827 0.75674 0.0
H1111 H 0.61687 0.71157 0.76419 0.0
C1112 C 0.71262 0.62692 0.7688 0.0
C1113 C 0.72293 0.63065 0.7582 0.0
C1114 C 0.69968 0.6474 0.77312 0.0
C1115 C 0.69677 0.6723 0.76696 0.0
C1116 C 0.70872 0.67721 0.75649 0.0
C1117 C 0.72161 0.65663 0.75216 0.0
C1118 C 0.66212 0.71422 0.78619 0.0
C1119 C 0.6377 0.71768 0.77997 0.0
C1120 C 0.68246 0.70105 0.78188 0.0
C1121 C 0.67884 0.69087 0.77125 0.0
C1122 C 0.65569 0.69608 0.76492 0.0
C1123 C 0.63546 0.70936 0.76922 0.0
H1124 H 0.39592 0.11979 0.77351 0.0
H1125 H 0.39398 0.07103 0.74393 0.0
H1126 H 0.36016 0.06238 0.78145 0.0
H1127 H 0.3607 1.01377 0.75193 0.0
H1128 H 0.2907 0.91065 0.76657 0.0
H1129 H 0.31182 0.96813 0.75877 0.0
H1130 H 0.36339 0.01637 0.78806 0.0
H1131 H 0.33983 0.95891 0.79595 0.0
C1132 C 0.38765 0.09671 0.76869 0.0
C1133 C 0.39773 0.09996 0.75809 0.0
C1134 C 0.36745 0.06363 0.77327 0.0
C1135 C 0.35763 0.03284 0.76746 0.0
C1136 C 0.3669 0.03639 0.75672 0.0
C1137 C 0.38628 0.06944 0.75209 0.0
C1138 C 0.30593 0.93366 0.77137 0.0
C1139 C 0.31357 0.93025 0.78187 0.0
C1140 C 0.31852 0.96679 0.76687 0.0
C1141 C 0.34006 0.99749 0.77265 0.0
C1142 C 0.34656 0.9938 0.7833 0.0
C1143 C 0.33314 0.96067 0.78787 0.0
H1144 H 0.95557 0.30347 0.74322 0.0
H1145 H 0.91605 0.31343 0.77332 0.0
H1146 H 1.01381 0.32685 0.75081 0.0
H1147 H 0.97426 0.33763 0.78083 0.0
H1148 H 0.08022 0.36717 0.79373 0.0
H1149 H 0.0221 0.33018 0.78621 0.0
H1150 H 0.05874 0.3832 0.75643 0.0
H1151 H 0.11673 0.41931 0.76384 0.0
C1152 C 0.95916 0.31015 0.75149 0.0
C1153 C 0.9311 0.30672 0.75763 0.0
C1154 C 0.99267 0.32387 0.75584 0.0
C1155 C 0.99902 0.3346 0.76643 0.0
C1156 C 0.97049 0.3294 0.77269 0.0
C1157 C 0.937 0.31561 0.76835 0.0
C1158 C 0.07601 0.37045 0.78552 0.0
C1159 C 0.10317 0.39635 0.77941 0.0
C1160 C 0.04257 0.34942 0.78122 0.0
C1161 C 0.03547 0.35377 0.77071 0.0
C1162 C 0.06314 0.37866 0.7645 0.0
C1163 C 0.0965 0.3996 0.76878 0.0
H1164 H 0.37633 0.30758 0.2453 0.0
H1165 H 0.42793 0.3231 0.27527 0.0
H1166 H 0.33977 0.32944 0.25269 0.0
H1167 H 0.39228 0.34574 0.28256 0.0
H1168 H 0.3132 0.37051 0.29557 0.0
H1169 H 0.33623 0.33514 0.2881 0.0
H1170 H 0.34752 0.38488 0.25798 0.0
H1171 H 0.32362 0.41937 0.26537 0.0
C1172 C 0.37959 0.31522 0.2535 0.0
C1173 C 0.4052 0.31368 0.25967 0.0
C1174 C 0.3588 0.32805 0.25772 0.0
C1175 C 0.36314 0.33969 0.26822 0.0
C1176 C 0.38775 0.33667 0.27449 0.0
C1177 C 0.40843 0.32381 0.27028 0.0
C1178 C 0.31993 0.37338 0.2873 0.0
C1179 C 0.31671 0.39796 0.2811 0.0
C1180 C 0.33345 0.35329 0.28302 0.0
C1181 C 0.34422 0.35735 0.27244 0.0
C1182 C 0.33926 0.38067 0.26612 0.0
C1183 C 0.32564 0.40064 0.27038 0.0
H1184 H 0.61765 0.91643 0.26453 0.0
H1185 H 0.66952 0.95409 0.29441 0.0
H1186 H 0.6528 0.97444 0.25707 0.0
H1187 H 0.70565 1.01225 0.28683 0.0
H1188 H 0.72102 0.11753 0.27379 0.0
H1189 H 0.69771 0.05954 0.28139 0.0
H1190 H 0.70838 0.01991 0.25136 0.0
H1191 H 0.73074 0.07786 0.24369 0.0
C1192 C 0.63712 0.93693 0.26947 0.0
C1193 C 0.64056 0.93055 0.2801 0.0
C1194 C 0.65752 0.97032 0.26515 0.0
C1195 C 0.68209 0.99833 0.27133 0.0
C1196 C 0.68664 0.99154 0.28186 0.0
C1197 C 0.66611 0.95808 0.28619 0.0
C1198 C 0.719 0.09661 0.26884 0.0
C1199 C 0.72752 0.10238 0.25809 0.0
C1200 C 0.70572 0.06325 0.27322 0.0
C1201 C 0.70072 0.03472 0.26699 0.0
C1202 C 0.71116 0.041 0.25637 0.0
C1203 C 0.7243 0.07436 0.25198 0.0
H1204 H 0.92373 0.6127 0.27418 0.0
H1205 H 0.96241 0.66438 0.24433 0.0
H1206 H 0.98144 0.648 0.28182 0.0
H1207 H 1.02025 0.7007 0.25208 0.0
H1208 H 0.08438 0.72601 0.29547 0.0
H1209 H 0.02664 0.7034 0.28761 0.0
H1210 H 0.0675 0.69325 0.25775 0.0
H1211 H 0.12527 0.71685 0.26552 0.0
C1212 C 0.94438 0.63218 0.26929 0.0
C1213 C 0.93838 0.6355 0.25861 0.0
C1214 C 0.97761 0.65267 0.27371 0.0
C1215 C 1.00582 0.67723 0.26759 0.0
C1216 C 0.99939 0.68169 0.25701 0.0
C1217 C 0.9661 0.66105 0.25258 0.0
C1218 C 0.08119 0.71962 0.28718 0.0
C1219 C 0.1095 0.7231 0.28116 0.0
C1220 C 0.04795 0.70633 0.28267 0.0
C1221 C 0.04207 0.69597 0.27205 0.0
C1222 C 0.07088 0.70119 0.26591 0.0
C1223 C 0.10413 0.71465 0.2704 0.0
H1224 H 0.09061 0.2114 0.15299 0.0
H1225 H 0.06447 0.17255 0.12118 0.0
H1226 H 0.1415 0.20352 0.15237 0.0
H1227 H 0.11379 0.16293 0.12074 0.0
H1228 H 0.20656 0.14912 0.12075 0.0
H1229 H 0.17323 0.17979 0.12058 0.0
H1230 H 0.1481 0.15464 0.15344 0.0
H1231 H 0.18233 0.12595 0.1537 0.0
C1232 C 0.09592 0.20158 0.14583 0.0
C1233 C 0.07309 0.1921 0.13721 0.0
C1234 C 0.12498 0.19678 0.14548 0.0
C1235 C 0.13154 0.18184 0.13658 0.0
C1236 C 0.11001 0.17473 0.12772 0.0
C1237 C 0.08135 0.18 0.128 0.0
C1238 C 0.19454 0.15092 0.12797 0.0
C1239 C 0.19672 0.13458 0.13718 0.0
C1240 C 0.17518 0.16827 0.12788 0.0
C1241 C 0.15745 0.16944 0.13697 0.0
C1242 C 0.16157 0.15487 0.1463 0.0
C1243 C 0.18102 0.1379 0.14641 0.0
H1244 H 0.88726 0.06643 0.12063 0.0
H1245 H 0.91269 0.06358 0.15327 0.0
H1246 H 0.85787 1.00253 0.11997 0.0
H1247 H 0.8854 1.00083 0.1525 0.0
H1248 H 0.83082 0.8865 0.15113 0.0
H1249 H 0.83772 0.9449 0.15132 0.0
H1250 H 0.87562 0.96086 0.11929 0.0
H1251 H 0.86684 0.90225 0.11894 0.0
C1252 C 0.88625 0.05223 0.12768 0.0
C1253 C 0.90283 0.07025 0.13694 0.0
C1254 C 0.86965 0.01558 0.1273 0.0
C1255 C 0.86954 0.99623 0.13614 0.0
C1256 C 0.88435 0.01438 0.14554 0.0
C1257 C 0.90052 0.05072 0.14595 0.0
C1258 C 0.83988 0.90226 0.14407 0.0
C1259 C 0.84874 0.88982 0.13509 0.0
C1260 C 0.84411 0.93591 0.14418 0.0
C1261 C 0.85794 0.95815 0.13538 0.0
C1262 C 0.86462 0.94469 0.1262 0.0
C1263 C 0.85984 0.91095 0.12603 0.0
H1264 H 0.97322 0.85871 0.11653 0.0
H1265 H 0.97246 0.81848 0.14746 0.0
H1266 H 0.03665 0.895 0.11735 0.0
H1267 H 0.03605 0.85288 0.1481 0.0
H1268 H 0.13468 0.96047 0.15289 0.0
H1269 H 0.07596 0.91101 0.15107 0.0
H1270 H 0.09374 0.9058 0.11783 0.0
H1271 H 0.15199 0.95674 0.11963 0.0
C1272 C 0.98683 0.85662 0.12333 0.0
C1273 C 0.96801 0.83611 0.13196 0.0
C1274 C 0.02333 0.87741 0.12382 0.0
C1275 C 0.04177 0.87759 0.1329 0.0
C1276 C 0.02288 0.85445 0.14112 0.0
C1277 C 0.98642 0.83436 0.14072 0.0
C1278 C 0.12632 0.9483 0.14524 0.0
C1279 C 0.14784 0.96278 0.1364 0.0
C1280 C 0.09252 0.91968 0.14417 0.0
C1281 C 0.07958 0.90437 0.13425 0.0
C1282 C 0.10226 0.91733 0.12554 0.0
C1283 C 0.13584 0.94638 0.12659 0.0
H1284 H 0.13467 0.17618 0.38656 0.0
H1285 H 0.1515 0.19614 0.41991 0.0
H1286 H 0.16181 0.14064 0.38719 0.0
H1287 H 0.18098 0.16171 0.42047 0.0
H1288 H 0.173 0.05306 0.41986 0.0
H1289 H 0.16401 0.10276 0.42008 0.0
H1290 H 0.20827 0.13125 0.38885 0.0
H1291 H 0.2152 0.07978 0.38842 0.0
C1292 C 0.14496 0.17368 0.39403 0.0
C1293 C 0.14019 0.18851 0.40324 0.0
C1294 C 0.16107 0.15345 0.39437 0.0
C1295 C 0.17345 0.14773 0.4039 0.0
C1296 C 0.17105 0.16475 0.41301 0.0
C1297 C 0.15443 0.18481 0.41269 0.0
C1298 C 0.18131 0.07016 0.41307 0.0
C1299 C 0.19426 0.06203 0.40403 0.0
C1300 C 0.17642 0.09906 0.41324 0.0
C1301 C 0.18487 0.12105 0.40442 0.0
C1302 C 0.20043 0.11442 0.39568 0.0
C1303 C 0.20469 0.08502 0.39544 0.0
H1304 H 0.96774 0.1248 0.38528 0.0
H1305 H 0.96193 0.14274 0.4184 0.0
H1306 H 0.91897 0.06561 0.38713 0.0
H1307 H 0.91194 0.0839 0.42022 0.0
H1308 H 0.82623 0.96198 0.39084 0.0
H1309 H 0.8602 0.02556 0.39012 0.0
H1310 H 0.90323 0.02702 0.42078 0.0
H1311 H 0.86762 0.96346 0.42165 0.0
C1312 C 0.9553 0.11647 0.3929 0.0
C1313 C 0.96899 0.13837 0.40171 0.0
C1314 C 0.92711 0.08241 0.39398 0.0
C1315 C 0.91154 0.06954 0.40388 0.0
C1316 C 0.92371 0.09246 0.41253 0.0
C1317 C 0.95221 0.12636 0.41147 0.0
C1318 C 0.84224 0.97607 0.39755 0.0
C1319 C 0.84449 0.95784 0.40628 0.0
C1320 C 0.86205 1.01252 0.3971 0.0
C1321 C 0.88525 0.03164 0.40527 0.0
C1322 C 0.88556 1.01342 0.41434 0.0
C1323 C 0.86515 0.97689 0.41487 0.0
H1324 H 0.07257 0.86935 0.39046 0.0
H1325 H 0.07191 0.90352 0.42219 0.0
H1326 H 1.00903 0.84087 0.38982 0.0
H1327 H 1.00843 0.87671 0.42144 0.0
H1328 H 0.89274 0.82214 0.41907 0.0
H1329 H 0.95106 0.82938 0.42037 0.0
H1330 H 0.97003 0.86152 0.38779 0.0
H1331 H 0.91131 0.85276 0.38643 0.0
C1332 C 0.05866 0.87018 0.39738 0.0
C1333 C 0.07712 0.88878 0.40636 0.0
C1334 C 0.02224 0.8542 0.39698 0.0
C1335 C 1.0034 0.85711 0.40547 0.0
C1336 C 0.0218 0.87359 0.41475 0.0
C1337 C 0.05829 0.88904 0.41521 0.0
C1338 C 0.90915 0.83 0.41213 0.0
C1339 C 0.89748 0.83716 0.40266 0.0
C1340 C 0.94275 0.83444 0.4129 0.0
C1341 C 0.96571 0.84659 0.40425 0.0
C1342 C 0.95316 0.85173 0.39462 0.0
C1343 C 0.91939 0.84683 0.39381 0.0
H1344 H 0.86385 0.90899 0.92138 0.0
H1345 H 0.82346 0.86512 0.8908 0.0
H1346 H 0.90113 0.88279 0.92108 0.0
H1347 H 0.8594 0.83756 0.89063 0.0
H1348 H 0.96971 0.85119 0.88644 0.0
H1349 H 0.91949 0.85959 0.88786 0.0
H1350 H 0.91119 0.83495 0.92099 0.0
H1351 H 0.96232 0.82781 0.91961 0.0
C1352 C 0.86192 0.89256 0.91479 0.0
C1353 C 0.84105 0.88937 0.90608 0.0
C1354 C 0.88333 0.8775 0.91458 0.0
C1355 C 0.88391 0.85856 0.90571 0.0
C1356 C 0.86048 0.85278 0.89745 0.0
C1357 C 0.83956 0.86825 0.89759 0.0
C1358 C 0.95673 0.84683 0.89398 0.0
C1359 C 0.97031 0.83923 0.90292 0.0
C1360 C 0.92773 0.85153 0.89481 0.0
C1361 C 0.91132 0.84834 0.90459 0.0
C1362 C 0.92355 0.8384 0.91339 0.0
C1363 C 0.95275 0.83404 0.91257 0.0
H1364 H 0.16496 0.96396 0.89022 0.0
H1365 H 0.12793 0.96498 0.92154 0.0
H1366 H 0.1942 0.02754 0.88957 0.0
H1367 H 0.15553 0.02851 0.92076 0.0
H1368 H 0.21141 0.14409 0.91847 0.0
H1369 H 0.20356 0.08557 0.91994 0.0
H1370 H 0.17447 0.06712 0.88712 0.0
H1371 H 0.18385 0.12602 0.88559 0.0
C1372 C 0.16362 0.97795 0.89705 0.0
C1373 C 0.14401 0.95959 0.9059 0.0
C1374 C 0.18006 0.01439 0.89664 0.0
C1375 C 0.17664 0.03336 0.905 0.0
C1376 C 0.15907 0.01503 0.91418 0.0
C1377 C 0.14315 0.97851 0.91465 0.0
C1378 C 0.20413 0.12775 0.91151 0.0
C1379 C 0.19796 0.1396 0.90192 0.0
C1380 C 0.19933 0.09404 0.91238 0.0
C1381 C 0.18779 0.07116 0.90372 0.0
C1382 C 0.18375 0.08391 0.89397 0.0
C1383 C 0.18902 0.1178 0.89307 0.0
H1384 H 0.07006 0.17042 0.92018 0.0
H1385 H 0.07169 0.20423 0.88827 0.0
H1386 H 1.0066 0.13343 0.91922 0.0
H1387 H 1.00823 0.16864 0.88741 0.0
H1388 H 0.91052 0.0587 0.8842 0.0
H1389 H 0.96948 0.10835 0.8856 0.0
H1390 H 0.94926 0.12437 0.9178 0.0
H1391 H 0.89063 0.07377 0.91648 0.0
C1392 C 0.05668 0.17091 0.9131 0.0
C1393 C 0.07579 0.18986 0.90427 0.0
C1394 C 1.02023 0.1497 0.91252 0.0
C1395 C 1.00215 0.14742 0.90314 0.0
C1396 C 0.02123 0.16886 0.89465 0.0
C1397 C 0.0576 0.18956 0.89517 0.0
C1398 C 0.91838 0.07326 0.8915 0.0
C1399 C 0.89598 0.06199 0.90025 0.0
C1400 C 0.95228 0.10193 0.89232 0.0
C1401 C 0.96449 0.12033 0.90188 0.0
C1402 C 0.94115 0.11043 0.9104 0.0
C1403 C 0.90739 0.08154 0.90961 0.0
H1404 H 0.81883 0.94093 0.64932 0.0
H1405 H 0.86772 0.97495 0.61888 0.0
H1406 H 0.8266 0.89004 0.64828 0.0
H1407 H 0.87733 0.92569 0.61809 0.0
H1408 H 0.89236 0.83394 0.61734 0.0
H1409 H 0.86126 0.86683 0.61681 0.0
H1410 H 0.87417 0.88224 0.65046 0.0
H1411 H 0.90309 0.8483 0.65101 0.0
C1412 C 0.83089 0.93738 0.64237 0.0
C1413 C 0.84312 0.96235 0.63428 0.0
C1414 C 0.83563 0.90831 0.64179 0.0
C1415 C 0.85334 0.90391 0.6332 0.0
C1416 C 0.86334 0.92772 0.6248 0.0
C1417 C 0.85807 0.95635 0.6253 0.0
C1418 C 0.8877 0.84366 0.62463 0.0
C1419 C 0.90078 0.83896 0.63418 0.0
C1420 C 0.87014 0.86281 0.62434 0.0
C1421 C 0.86553 0.87783 0.63357 0.0
C1422 C 0.87665 0.87096 0.64317 0.0
C1423 C 0.89378 0.85169 0.64347 0.0
H1424 H 0.17885 0.0676 0.61672 0.0
H1425 H 0.21902 0.06683 0.64755 0.0
H1426 H 0.14229 1.0041 0.61732 0.0
H1427 H 0.1841 1.00327 0.64799 0.0
H1428 H 0.07538 0.90552 0.65254 0.0
H1429 H 0.12497 0.96429 0.65085 0.0
H1430 H 0.13202 0.94663 0.61771 0.0
H1431 H 0.08123 0.88821 0.61936 0.0
C1432 C 0.1809 0.05367 0.62344 0.0
C1433 C 0.20146 0.07208 0.63212 0.0
C1434 C 0.15992 0.01716 0.62381 0.0
C1435 C 0.15955 0.99835 0.63282 0.0
C1436 C 0.18276 0.01679 0.64107 0.0
C1437 C 0.20313 0.05323 0.64077 0.0
C1438 C 0.08795 0.91389 0.64494 0.0
C1439 C 0.07408 0.8923 0.63607 0.0
C1440 C 0.11663 0.9477 0.64395 0.0
C1441 C 0.13253 0.96063 0.63409 0.0
C1442 C 0.12005 0.93802 0.62537 0.0
C1443 C 0.09106 0.90436 0.62634 0.0
H1444 H 0.1352 0.17431 0.61987 0.0
H1445 H 0.14618 0.20359 0.65265 0.0
H1446 H 0.07624 0.16465 0.61984 0.0
H1447 H 0.08743 0.19583 0.65249 0.0
H1448 H 0.96889 0.11948 0.65277 0.0
H1449 H 0.03175 0.14748 0.65266 0.0
H1450 H 0.03383 0.18144 0.62066 0.0
H1451 H 0.96984 0.15139 0.62061 0.0
C1452 C 0.12538 0.17965 0.62703 0.0
C1453 C 0.14527 0.1891 0.63633 0.0
C1454 C 0.09143 0.17437 0.62698 0.0
C1455 C 0.07653 0.17887 0.6362 0.0
C1456 C 0.09755 0.1911 0.6453 0.0
C1457 C 0.13139 0.19583 0.64539 0.0
C1458 C 0.9826 0.13321 0.6457 0.0
C1459 C 0.96413 0.13256 0.63661 0.0
C1460 C 1.01899 0.14977 0.64569 0.0
C1461 C 0.03826 0.16665 0.63663 0.0
C1462 C 1.01992 0.16809 0.62773 0.0
C1463 C 0.98322 0.1511 0.62771 0.0
H1464 H 0.74094 0.51154 0.48719 0.0
H1465 H 0.7458 0.53301 0.45394 0.0
H1466 H 0.79024 0.50188 0.48547 0.0
H1467 H 0.79625 0.52484 0.45224 0.0
H1468 H 0.88445 0.49339 0.48195 0.0
H1469 H 0.84939 0.52186 0.4824 0.0
H1470 H 0.8059 0.47709 0.45204 0.0
H1471 H 0.84252 0.45018 0.45143 0.0
C1472 C 0.75323 0.51526 0.47956 0.0
C1473 C 0.73917 0.52266 0.47069 0.0
C1474 C 0.78173 0.50984 0.47855 0.0
C1475 C 0.79722 0.51217 0.46866 0.0
C1476 C 0.78458 0.52199 0.45993 0.0
C1477 C 0.7558 0.52697 0.46092 0.0
C1478 C 0.8681 0.49051 0.47525 0.0
C1479 C 0.86601 0.46942 0.46668 0.0
C1480 C 0.84768 0.50652 0.47555 0.0
C1481 C 0.82404 0.5012 0.46739 0.0
C1482 C 0.82388 0.48209 0.45846 0.0
C1483 C 0.84488 0.46658 0.45808 0.0
H1484 H 0.49094 0.21811 0.48316 0.0
H1485 H 0.53622 0.23496 0.45211 0.0
H1486 H 0.49727 0.27626 0.48271 0.0
H1487 H 0.54452 0.29335 0.45188 0.0
H1488 H 0.55707 0.39903 0.45207 0.0
H1489 H 0.52722 0.33512 0.45133 0.0
H1490 H 0.54373 0.33216 0.48474 0.0
H1491 H 0.57129 0.39488 0.48553 0.0
C1492 C 0.50194 0.23407 0.47621 0.0
C1493 C 0.51352 0.22201 0.46775 0.0
C1494 C 0.50585 0.26758 0.47596 0.0
C1495 C 0.52213 0.2901 0.46734 0.0
C1496 C 0.53158 0.27699 0.45863 0.0
C1497 C 0.52708 0.24336 0.4588 0.0
C1498 C 0.55346 0.38454 0.45927 0.0
C1499 C 0.56715 0.40219 0.46881 0.0
C1500 C 0.53662 0.34788 0.45886 0.0
C1501 C 0.53343 0.32816 0.46795 0.0
C1502 C 0.54513 0.34596 0.47757 0.0
C1503 C 0.56148 0.3823 0.478 0.0
H1504 H 0.80001 0.30186 0.48775 0.0
H1505 H 0.82003 0.28413 0.45576 0.0
H1506 H 0.74097 0.25238 0.48652 0.0
H1507 H 0.7614 0.23342 0.45463 0.0
H1508 H 0.64125 0.18759 0.45162 0.0
H1509 H 0.70467 0.22399 0.45275 0.0
H1510 H 0.70092 0.19298 0.48519 0.0
H1511 H 0.63742 0.15828 0.48413 0.0
C1512 C 0.79217 0.28665 0.48057 0.0
C1513 C 0.81458 0.29718 0.47182 0.0
C1514 C 0.7582 0.25806 0.47984 0.0
C1515 C 0.74596 0.23892 0.4704 0.0
C1516 C 0.76944 0.24797 0.46193 0.0
C1517 C 0.80322 0.27689 0.46261 0.0
C1518 C 0.65415 0.18794 0.45889 0.0
C1519 C 0.63445 0.17046 0.46781 0.0
C1520 C 0.69062 0.2088 0.45957 0.0
C1521 C 0.70815 0.21209 0.46915 0.0
C1522 C 0.68842 0.19204 0.47779 0.0
C1523 C 0.65201 0.17182 0.47716 0.0
H1524 H 0.78894 0.4999 0.75411 0.0
H1525 H 0.83268 0.54203 0.72366 0.0
H1526 H 0.8163 0.4637 0.75363 0.0
H1527 H 0.86168 0.50744 0.72335 0.0
H1528 H 0.85222 0.39927 0.71868 0.0
H1529 H 0.84254 0.44859 0.72029 0.0
H1530 H 0.86404 0.45425 0.75361 0.0
H1531 H 0.87214 0.40374 0.75202 0.0
C1532 C 0.80555 0.5024 0.7475 0.0
C1533 C 0.80841 0.52345 0.73888 0.0
C1534 C 0.82134 0.48165 0.7472 0.0
C1535 C 0.84077 0.482 0.73834 0.0
C1536 C 0.84609 0.50557 0.73016 0.0
C1537 C 0.82979 0.52573 0.73038 0.0
C1538 C 0.85566 0.41153 0.7263 0.0
C1539 C 0.86255 0.39731 0.73523 0.0
C1540 C 0.85021 0.44003 0.72725 0.0
C1541 C 0.85203 0.45537 0.73713 0.0
C1542 C 0.86152 0.44267 0.74593 0.0
C1543 C 0.86649 0.41387 0.745 0.0
H1544 H 0.49541 0.29523 0.72114 0.0
H1545 H 0.52376 0.29865 0.75373 0.0
H1546 H 0.53078 0.35868 0.72009 0.0
H1547 H 0.56083 0.36198 0.75262 0.0
H1548 H 0.62251 0.47731 0.7496 0.0
H1549 H 0.57128 0.41902 0.75069 0.0
H1550 H 0.59035 0.39807 0.71887 0.0
H1551 H 0.64034 0.45681 0.71767 0.0
C1552 C 0.50886 0.30973 0.72814 0.0
C1553 C 0.50704 0.29207 0.7375 0.0
C1554 C 0.52948 0.3461 0.72752 0.0
C1555 C 0.54949 0.36568 0.73619 0.0
C1556 C 0.5457 0.34806 0.74578 0.0
C1557 C 0.52444 0.31165 0.74645 0.0
C1558 C 0.6152 0.46046 0.74276 0.0
C1559 C 0.63564 0.47159 0.73357 0.0
C1560 C 0.58597 0.42687 0.74342 0.0
C1561 C 0.57676 0.40334 0.73495 0.0
C1562 C 0.59613 0.41535 0.72554 0.0
C1563 C 0.62503 0.44915 0.72484 0.0
H1564 H 0.73608 0.2141 0.75311 0.0
H1565 H 0.73223 0.23277 0.71993 0.0
H1566 H 0.67216 0.18433 0.75385 0.0
H1567 H 0.66942 0.20501 0.72074 0.0
H1568 H 0.57173 0.1934 0.75362 0.0
H1569 H 0.63036 0.20214 0.75369 0.0
H1570 H 0.61367 0.15707 0.72256 0.0
H1571 H 0.55524 0.15009 0.72229 0.0
C1572 C 0.72166 0.2115 0.74597 0.0
C1573 C 0.73938 0.22634 0.73652 0.0
C1574 C 0.685 0.19467 0.74639 0.0
C1575 C 0.66536 0.19255 0.73739 0.0
C1576 C 0.68322 0.20556 0.72783 0.0
C1577 C 0.71958 0.22199 0.7274 0.0
C1578 C 0.58026 0.1848 0.74683 0.0
C1579 C 0.55895 0.17167 0.73786 0.0
C1580 C 0.61401 0.18956 0.74691 0.0
C1581 C 0.62726 0.18088 0.73807 0.0
C1582 C 0.60481 0.16501 0.72942 0.0
C1583 C 0.57116 0.16075 0.72927 0.0
H1584 H 0.62766 0.17523 0.22051 0.0
H1585 H 0.6299 0.16104 0.25401 0.0
H1586 H 0.57845 0.18482 0.2227 0.0
H1587 H 0.57953 0.16909 0.25622 0.0
H1588 H 0.53484 0.2452 0.25653 0.0
H1589 H 0.57015 0.21689 0.25594 0.0
H1590 H 0.52026 0.16629 0.22674 0.0
H1591 H 0.48652 0.1962 0.22713 0.0
C1592 C 0.61689 0.173 0.22831 0.0
C1593 C 0.63298 0.16779 0.23709 0.0
C1594 C 0.58845 0.1784 0.2296 0.0
C1595 C 0.57505 0.17821 0.23968 0.0
C1596 C 0.58957 0.17032 0.24837 0.0
C1597 C 0.61831 0.16539 0.24709 0.0
C1598 C 0.53072 0.22717 0.25018 0.0
C1599 C 0.50823 0.22312 0.24184 0.0
C1600 C 0.55099 0.21086 0.2498 0.0
C1601 C 0.54872 0.18975 0.24116 0.0
C1602 C 0.5236 0.18316 0.23336 0.0
C1603 C 0.50391 0.19996 0.23364 0.0
H1604 H 0.82252 0.29746 0.25144 0.0
H1605 H 0.79097 0.29738 0.21928 0.0
H1606 H 0.85381 0.36148 0.2514 0.0
H1607 H 0.82024 0.36029 0.2194 0.0
H1608 H 0.87886 0.47444 0.21928 0.0
H1609 H 0.86984 0.41523 0.21955 0.0
H1610 H 0.83853 0.40507 0.25217 0.0
H1611 H 0.84943 0.46446 0.25204 0.0
C1612 C 0.82252 0.31102 0.24435 0.0
C1613 C 0.80379 0.29219 0.23543 0.0
C1614 C 0.84025 0.34774 0.24433 0.0
C1615 C 0.83939 0.36635 0.23543 0.0
C1616 C 0.82215 0.3473 0.22637 0.0
C1617 C 0.80484 0.31088 0.22635 0.0
C1618 C 0.87085 0.4598 0.22656 0.0
C1619 C 0.86435 0.47406 0.23558 0.0
C1620 C 0.86538 0.42569 0.22671 0.0
C1621 C 0.85264 0.40482 0.23582 0.0
C1622 C 0.84855 0.42012 0.24502 0.0
C1623 C 0.85456 0.45432 0.24491 0.0
H1624 H 0.74081 0.54152 0.22281 0.0
H1625 H 0.74193 0.50892 0.25469 0.0
H1626 H 0.67738 0.50502 0.22232 0.0
H1627 H 0.67853 0.47102 0.25411 0.0
H1628 H 0.56227 0.40944 0.25196 0.0
H1629 H 0.62063 0.46057 0.25302 0.0
H1630 H 0.63954 0.44449 0.22069 0.0
H1631 H 0.58084 0.39429 0.21954 0.0
C1632 C 0.72732 0.52697 0.22979 0.0
C1633 C 0.74629 0.52786 0.23877 0.0
C1634 C 0.69097 0.50572 0.22948 0.0
C1635 C 0.67271 0.48431 0.23807 0.0
C1636 C 0.69152 0.48723 0.24734 0.0
C1637 C 0.72794 0.50899 0.24771 0.0
C1638 C 0.57868 0.41727 0.24501 0.0
C1639 C 0.56695 0.39758 0.23568 0.0
C1640 C 0.61229 0.44648 0.24565 0.0
C1641 C 0.63517 0.45659 0.237 0.0
C1642 C 0.62268 0.43794 0.2275 0.0
C1643 C 0.58893 0.40893 0.22683 0.0
H1644 H 0.54285 0.15359 0.98204 0.0
H1645 H 0.57954 0.19097 0.95066 0.0
H1646 H 0.51364 0.18795 0.98267 0.0
H1647 H 0.55192 0.22691 0.95142 0.0
H1648 H 0.49552 0.2862 0.95365 0.0
H1649 H 0.50373 0.23573 0.95223 0.0
H1650 H 0.53326 0.24732 0.98503 0.0
H1651 H 0.52353 0.29665 0.9865 0.0
C1652 C 0.54413 0.16878 0.9752 0.0
C1653 C 0.56363 0.16983 0.96632 0.0
C1654 C 0.5277 0.1888 0.97559 0.0
C1655 C 0.53099 0.21098 0.9672 0.0
C1656 C 0.54848 0.21004 0.95802 0.0
C1657 C 0.56441 0.18944 0.95756 0.0
C1658 C 0.50298 0.2774 0.96061 0.0
C1659 C 0.50915 0.29563 0.97017 0.0
C1660 C 0.50799 0.24861 0.95978 0.0
C1661 C 0.51974 0.23759 0.96845 0.0
C1662 C 0.52382 0.25459 0.97818 0.0
C1663 C 0.51834 0.28309 0.97904 0.0
H1664 H 0.88331 0.39615 0.98154 0.0
H1665 H 0.84338 0.39889 0.95084 0.0
H1666 H 0.84767 0.33263 0.98175 0.0
H1667 H 0.80638 0.33539 0.95117 0.0
H1668 H 0.73749 0.23567 0.98584 0.0
H1669 H 0.78762 0.29434 0.98444 0.0
H1670 H 0.79655 0.27761 0.95135 0.0
H1671 H 0.74548 0.21929 0.95271 0.0
C1672 C 0.86737 0.38301 0.97473 0.0
C1673 C 0.86592 0.40244 0.9662 0.0
C1674 C 0.84662 0.3466 0.97489 0.0
C1675 C 0.82339 0.32874 0.9666 0.0
C1676 C 0.82402 0.34806 0.95769 0.0
C1677 C 0.84527 0.38455 0.95747 0.0
C1678 C 0.75059 0.24421 0.97832 0.0
C1679 C 0.7372 0.22291 0.96938 0.0
C1680 C 0.77955 0.27794 0.9775 0.0
C1681 C 0.7961 0.29108 0.96773 0.0
C1682 C 0.78408 0.26878 0.95894 0.0
C1683 C 0.75491 0.23519 0.95975 0.0
H1684 H 0.81558 0.53625 0.95527 0.0
H1685 H 0.79568 0.50289 0.98768 0.0
H1686 H 0.75701 0.52833 0.95386 0.0
H1687 H 0.7368 0.49368 0.9862 0.0
H1688 H 0.63477 0.48743 0.98337 0.0
H1689 H 0.69823 0.51536 0.9842 0.0
H1690 H 0.69958 0.48005 0.95257 0.0
H1691 H 0.63611 0.45352 0.95163 0.0
C1692 C 0.79884 0.52764 0.96215 0.0
C1693 C 0.81022 0.51991 0.97157 0.0
C1694 C 0.76511 0.52284 0.96131 0.0
C1695 C 0.7418 0.50988 0.96985 0.0
C1696 C 0.75399 0.5041 0.97946 0.0
C1697 C 0.78784 0.50925 0.98033 0.0
C1698 C 0.6488 0.4865 0.97649 0.0
C1699 C 0.63053 0.46809 0.96746 0.0
C1700 C 0.68517 0.50221 0.977 0.0
C1701 C 0.70416 0.49935 0.96855 0.0
C1702 C 0.68602 0.48306 0.95922 0.0
C1703 C 0.64955 0.46779 0.95866 0.0
H1704 H 0.41872 0.87287 0.81736 0.0
H1705 H 0.3926 0.83402 0.78555 0.0
H1706 H 0.46936 0.86459 0.8168 0.0
H1707 H 0.44166 0.82394 0.78518 0.0
H1708 H 0.53472 0.81036 0.78525 0.0
H1709 H 0.50102 0.84065 0.78502 0.0
H1710 H 0.47615 0.81596 0.81791 0.0
H1711 H 0.51076 0.78771 0.81824 0.0
C1712 C 0.42396 0.86289 0.81022 0.0
C1713 C 0.40128 0.85365 0.80157 0.0
C1714 C 0.45288 0.85788 0.80991 0.0
C1715 C 0.45941 0.84287 0.80101 0.0
C1716 C 0.43792 0.83581 0.79214 0.0
C1717 C 0.40943 0.84136 0.79239 0.0
C1718 C 0.52266 0.81217 0.79247 0.0
C1719 C 0.52507 0.79613 0.80171 0.0
C1720 C 0.50308 0.82929 0.79233 0.0
C1721 C 0.48534 0.83051 0.80142 0.0
C1722 C 0.48962 0.81617 0.81077 0.0
C1723 C 0.5093 0.79945 0.81093 0.0
H1724 H 0.21137 0.73225 0.81674 0.0
H1725 H 0.24079 0.73158 0.78443 0.0
H1726 H 0.18387 0.66879 0.81741 0.0
H1727 H 0.21488 0.66819 0.78518 0.0
H1728 H 0.16113 0.55231 0.78775 0.0
H1729 H 0.1679 0.61048 0.78672 0.0
H1730 H 0.2061 0.63072 0.81871 0.0
H1731 H 0.19794 0.57219 0.81983 0.0
C1732 C 0.21133 0.71835 0.80971 0.0
C1733 C 0.22838 0.7368 0.80055 0.0
C1734 C 0.19592 0.68199 0.81012 0.0
C1735 C 0.19782 0.66322 0.80145 0.0
C1736 C 0.21262 0.68155 0.79202 0.0
C1737 C 0.22753 0.71797 0.79156 0.0
C1738 C 0.1703 0.56897 0.79463 0.0
C1739 C 0.17927 0.55769 0.80385 0.0
C1740 C 0.17443 0.60248 0.79402 0.0
C1741 C 0.18801 0.6257 0.80257 0.0
C1742 C 0.19514 0.6136 0.81198 0.0
C1743 C 0.19061 0.57995 0.81263 0.0
H1744 H 0.46452 0.62089 0.81789 0.0
H1745 H 0.47997 0.62082 0.78437 0.0
H1746 H 0.40547 0.57186 0.81599 0.0
H1747 H 0.42126 0.57068 0.78247 0.0
H1748 H 0.30047 0.52638 0.78248 0.0
H1749 H 0.36412 0.56173 0.78286 0.0
H1750 H 0.36564 0.51335 0.81225 0.0
H1751 H 0.30199 0.47953 0.81206 0.0
C1752 C 0.4557 0.60967 0.81015 0.0
C1753 C 0.47683 0.62505 0.80128 0.0
C1754 C 0.42172 0.58134 0.80903 0.0
C1755 C 0.40817 0.56735 0.79903 0.0
C1756 C 0.43036 0.58119 0.79026 0.0
C1757 C 0.46418 0.6098 0.79136 0.0
C1758 C 0.31455 0.52261 0.78884 0.0
C1759 C 0.29635 0.50051 0.79728 0.0
C1760 C 0.35114 0.5429 0.78909 0.0
C1761 C 0.37023 0.54105 0.79772 0.0
C1762 C 0.35192 0.51635 0.80565 0.0
C1763 C 0.31542 0.49662 0.80548 0.0
H1764 H 0.46193 0.84164 0.08833 0.0
H1765 H 0.49941 0.87868 0.05698 0.0
H1766 H 0.48816 0.80442 0.08758 0.0
H1767 H 0.52705 0.84285 0.05634 0.0
H1768 H 0.51214 0.73201 0.05242 0.0
H1769 H 0.50423 0.78247 0.054 0.0
H1770 H 0.53582 0.79413 0.0866 0.0
H1771 H 0.54248 0.74275 0.08508 0.0
C1772 C 0.47703 0.84289 0.08145 0.0
C1773 C 0.47835 0.86273 0.07268 0.0
C1774 C 0.4921 0.82151 0.08099 0.0
C1775 C 0.50918 0.81997 0.07179 0.0
C1776 C 0.51325 0.8425 0.06343 0.0
C1777 C 0.49775 0.86337 0.06383 0.0
C1778 C 0.5181 0.74575 0.05986 0.0
C1779 C 0.52754 0.73306 0.06864 0.0
C1780 C 0.51371 0.7749 0.06078 0.0
C1781 C 0.51903 0.79236 0.07048 0.0
C1782 C 0.53074 0.78098 0.07907 0.0
C1783 C 0.5348 0.75162 0.07818 0.0
H1784 H 0.19893 0.63092 0.08964 0.0
H1785 H 0.16025 0.63049 0.05848 0.0
H1786 H 0.23583 0.69438 0.0888 0.0
H1787 H 0.19564 0.69398 0.05777 0.0
H1788 H 0.30465 0.79163 0.05345 0.0
H1789 H 0.25527 0.73271 0.05517 0.0
H1790 H 0.24552 0.75185 0.08801 0.0
H1791 H 0.29599 0.81045 0.08634 0.0
C1792 C 0.19733 0.64457 0.08278 0.0
C1793 C 0.17704 0.62581 0.07409 0.0
C1794 C 0.2185 0.68104 0.08227 0.0
C1795 C 0.21937 0.69947 0.07311 0.0
C1796 C 0.19655 0.68073 0.06482 0.0
C1797 C 0.17594 0.64433 0.06526 0.0
C1798 C 0.29155 0.78354 0.06098 0.0
C1799 C 0.30454 0.80565 0.06977 0.0
C1800 C 0.263 0.74965 0.06198 0.0
C1801 C 0.2464 0.73714 0.07178 0.0
C1802 C 0.25804 0.76018 0.0804 0.0
C1803 C 0.28686 0.79393 0.07943 0.0
H1804 H 0.40512 0.57683 0.0889 0.0
H1805 H 0.40314 0.53602 0.05792 0.0
H1806 H 0.3415 0.54918 0.08862 0.0
H1807 H 0.33952 0.50694 0.05777 0.0
H1808 H 0.24126 0.51813 0.05413 0.0
H1809 H 0.30027 0.52753 0.05536 0.0
H1810 H 0.28417 0.50058 0.08836 0.0
H1811 H 0.22549 0.49251 0.08718 0.0
C1812 C 0.39094 0.56078 0.08221 0.0
C1813 C 0.40903 0.55886 0.0734 0.0
C1814 C 0.35438 0.54486 0.08202 0.0
C1815 C 0.33521 0.52631 0.07306 0.0
C1816 C 0.35335 0.52183 0.06467 0.0
C1817 C 0.38982 0.53818 0.0648 0.0
C1818 C 0.25001 0.51344 0.06159 0.0
C1819 C 0.2288 0.50499 0.07058 0.0
C1820 C 0.28394 0.51872 0.06231 0.0
C1821 C 0.29736 0.51524 0.07201 0.0
C1822 C 0.27512 0.5043 0.08082 0.0
C1823 C 0.24133 0.4994 0.08012 0.0
H1824 H 0.19168 0.56809 0.55409 0.0
H1825 H 0.16961 0.54764 0.58724 0.0
H1826 H 0.22566 0.53912 0.5544 0.0
H1827 H 0.20268 0.5167 0.58748 0.0
H1828 H 0.31181 0.52472 0.58651 0.0
H1829 H 0.26221 0.53387 0.58704 0.0
H1830 H 0.23252 0.49039 0.55577 0.0
H1831 H 0.28367 0.48294 0.55505 0.0
C1832 C 0.19341 0.55666 0.56144 0.0
C1833 C 0.17844 0.56087 0.57071 0.0
C1834 C 0.2127 0.53953 0.56159 0.0
C1835 C 0.2174 0.5257 0.57099 0.0
C1836 C 0.20028 0.52765 0.58013 0.0
C1837 C 0.18106 0.54514 0.57999 0.0
C1838 C 0.29445 0.51653 0.57979 0.0
C1839 C 0.30223 0.50377 0.57064 0.0
C1840 C 0.26562 0.52152 0.58014 0.0
C1841 C 0.24344 0.51347 0.57139 0.0
C1842 C 0.24953 0.49784 0.56257 0.0
C1843 C 0.27874 0.4933 0.56216 0.0
H1844 H 0.46063 0.63211 0.55268 0.0
H1845 H 0.49091 0.63206 0.58497 0.0
H1846 H 0.4897 0.6951 0.55285 0.0
H1847 H 0.52178 0.69607 0.58502 0.0
H1848 H 0.51548 0.79824 0.58541 0.0
H1849 H 0.50508 0.73898 0.58558 0.0
H1850 H 0.53979 0.75032 0.55329 0.0
H1851 H 0.54856 0.80944 0.55297 0.0
C1852 C 0.47418 0.6456 0.55979 0.0
C1853 C 0.47285 0.62687 0.56889 0.0
C1854 C 0.49134 0.68203 0.55984 0.0
C1855 C 0.50805 0.701 0.56897 0.0
C1856 C 0.50865 0.68236 0.57789 0.0
C1857 C 0.49116 0.64566 0.57786 0.0
C1858 C 0.52149 0.78841 0.57837 0.0
C1859 C 0.5322 0.80845 0.5691 0.0
C1860 C 0.51577 0.7543 0.57851 0.0
C1861 C 0.52098 0.73939 0.5694 0.0
C1862 C 0.53456 0.76053 0.56038 0.0
C1863 C 0.53986 0.79458 0.5602 0.0
H1864 H 0.40506 0.84727 0.55384 0.0
H1865 H 0.40805 0.86644 0.58724 0.0
H1866 H 0.34224 0.81204 0.55447 0.0
H1867 H 0.3441 0.83212 0.58781 0.0
H1868 H 0.24356 0.72276 0.58672 0.0
H1869 H 0.30227 0.77254 0.58713 0.0
H1870 H 0.28643 0.80386 0.55636 0.0
H1871 H 0.22795 0.75255 0.55574 0.0
C1872 C 0.39221 0.84464 0.56132 0.0
C1873 C 0.41178 0.85919 0.57054 0.0
C1874 C 0.35584 0.8246 0.56166 0.0
C1875 C 0.33773 0.81873 0.57121 0.0
C1876 C 0.35713 0.8354 0.58034 0.0
C1877 C 0.39381 0.85535 0.58001 0.0
C1878 C 0.25231 0.74051 0.58009 0.0
C1879 C 0.2312 0.73323 0.5711 0.0
C1880 C 0.2861 0.76943 0.58036 0.0
C1881 C 0.29961 0.79219 0.57171 0.0
C1882 C 0.27738 0.78643 0.56306 0.0
C1883 C 0.2437 0.75711 0.56272 0.0
H1884 H 0.24161 0.52128 0.31903 0.0
H1885 H 0.22233 0.49888 0.28586 0.0
H1886 H 0.21176 0.55438 0.31854 0.0
H1887 H 0.19053 0.53109 0.28543 0.0
H1888 H 0.1963 0.63926 0.28629 0.0
H1889 H 0.20645 0.59031 0.28583 0.0
H1890 H 0.16223 0.55984 0.31698 0.0
H1891 H 0.15377 0.61037 0.31765 0.0
C1892 C 0.23029 0.52277 0.31163 0.0
C1893 C 0.23504 0.50793 0.30242 0.0
C1894 C 0.21264 0.54154 0.31138 0.0
C1895 C 0.1988 0.54584 0.30193 0.0
C1896 C 0.20143 0.52896 0.29283 0.0
C1897 C 0.21945 0.51026 0.29307 0.0
C1898 C 0.18813 0.62185 0.293 0.0
C1899 C 0.17491 0.62928 0.30211 0.0
C1900 C 0.19372 0.59339 0.29269 0.0
C1901 C 0.18581 0.57125 0.30144 0.0
C1902 C 0.16961 0.57687 0.3102 0.0
C1903 C 0.16447 0.60572 0.31057 0.0
H1904 H 0.51221 0.73335 0.28365 0.0
H1905 H 0.55413 0.73202 0.31414 0.0
H1906 H 0.47542 0.6699 0.28424 0.0
H1907 H 0.51897 0.66847 0.31456 0.0
H1908 H 0.41029 0.57085 0.31947 0.0
H1909 H 0.46011 0.62947 0.31771 0.0
H1910 H 0.46466 0.61237 0.28439 0.0
H1911 H 0.41363 0.55417 0.28614 0.0
C1912 C 0.51459 0.7193 0.29028 0.0
C1913 C 0.53574 0.73756 0.29889 0.0
C1914 C 0.49347 0.6828 0.29065 0.0
C1915 C 0.49353 0.66382 0.29956 0.0
C1916 C 0.51728 0.68211 0.30771 0.0
C1917 C 0.53781 0.71854 0.30743 0.0
C1918 C 0.42238 0.57931 0.31181 0.0
C1919 C 0.40773 0.55797 0.30294 0.0
C1920 C 0.45118 0.61304 0.31078 0.0
C1921 C 0.46643 0.62611 0.30086 0.0
C1922 C 0.45321 0.60368 0.29211 0.0
C1923 C 0.42408 0.57014 0.29313 0.0
H1924 H 0.48043 0.86711 0.32035 0.0
H1925 H 0.46988 0.84148 0.28728 0.0
H1926 H 0.42159 0.85911 0.32041 0.0
H1927 H 0.41085 0.83166 0.28744 0.0
H1928 H 0.30461 0.81906 0.28867 0.0
H1929 H 0.36856 0.84865 0.28874 0.0
H1930 H 0.36588 0.8104 0.32021 0.0
H1931 H 0.30302 0.78276 0.32031 0.0
C1932 C 0.46573 0.86012 0.31308 0.0
C1933 C 0.47975 0.85445 0.30386 0.0
C1934 C 0.43184 0.85526 0.31311 0.0
C1935 C 0.41094 0.844 0.30398 0.0
C1936 C 0.42596 0.84059 0.29462 0.0
C1937 C 0.45995 0.84598 0.29455 0.0
C1938 C 0.31784 0.81767 0.29567 0.0
C1939 C 0.29858 0.79811 0.30442 0.0
C1940 C 0.35452 0.83441 0.29569 0.0
C1941 C 0.37267 0.83172 0.30444 0.0
C1942 C 0.35325 0.81368 0.31337 0.0
C1943 C 0.31686 0.79735 0.31337 0.0
loop_
_geom_bond_atom_site_label_1
_geom_bond_atom_site_label_2
_geom_bond_distance
_geom_bond_site_symmetry_2
_ccdc_geom_bond_type
O0 Cd1 2.223 1_565 S
O0 C8 1.315 . S
Cd1 O0 2.223 1_545 S
Cd1 O4 2.297 1_545 S
Cd1 O5 2.439 . S
Cd1 O11 2.240 . S
Cd2 O3 2.240 1_545 S
Cd2 O10 2.223 . S
Cd2 O12 2.297 . S
Cd2 O13 2.439 . S
O3 Cd2 2.240 1_565 S
O3 C8 1.279 . S
O4 Cd1 2.297 1_565 S
O4 C6 1.247 1_565 S
O5 Cd1 2.439 . S
O5 C6 1.208 . S
C6 O4 1.247 1_545 S
C6 O5 1.208 . S
C7 O12 1.247 . S
C7 O13 1.208 . S
C8 O0 1.315 . S
C8 O3 1.279 . S
C9 O10 1.315 . S
C9 O11 1.279 . S
O10 Cd2 2.223 . S
O10 C9 1.315 . S
O11 Cd1 2.240 . S
O11 C9 1.279 . S
O12 Cd2 2.297 . S
O12 C7 1.247 . S
O13 Cd2 2.439 . S
O13 C7 1.208 . S
O14 Cd15 2.223 1_455 S
O14 C22 1.315 . S
Cd15 O14 2.223 1_655 S
Cd15 O18 2.297 1_655 S
Cd15 O19 2.439 . S
Cd15 O25 2.240 . S
Cd16 O17 2.240 1_655 S
Cd16 O24 2.223 . S
Cd16 O26 2.297 . S
Cd16 O27 2.439 . S
O17 Cd16 2.240 1_455 S
O17 C22 1.279 . S
O18 Cd15 2.297 1_455 S
O18 C20 1.247 1_455 S
O19 Cd15 2.439 . S
O19 C20 1.208 . S
C20 O18 1.247 1_655 S
C20 O19 1.208 . S
C21 O26 1.247 . S
C21 O27 1.208 . S
C22 O14 1.315 . S
C22 O17 1.279 . S
C23 O24 1.315 . S
C23 O25 1.279 . S
O24 Cd16 2.223 . S
O24 C23 1.315 . S
O25 Cd15 2.240 . S
O25 C23 1.279 . S
O26 Cd16 2.297 . S
O26 C21 1.247 . S
O27 Cd16 2.439 . S
O27 C21 1.208 . S
O28 Cd29 2.223 . S
O28 C36 1.315 . S
Cd29 O28 2.223 . S
Cd29 O32 2.297 . S
Cd29 O33 2.439 . S
Cd29 O39 2.240 . S
Cd30 O31 2.240 . S
Cd30 O38 2.223 . S
Cd30 O40 2.297 . S
Cd30 O41 2.439 . S
O31 Cd30 2.240 . S
O31 C36 1.279 . S
O32 Cd29 2.297 . S
O32 C34 1.247 . S
O33 Cd29 2.439 . S
O33 C34 1.208 . S
C34 O32 1.247 . S
C34 O33 1.208 . S
C35 O40 1.247 . S
C35 O41 1.208 . S
C36 O28 1.315 . S
C36 O31 1.279 . S
C37 O38 1.315 . S
C37 O39 1.279 . S
O38 Cd30 2.223 . S
O38 C37 1.315 . S
O39 Cd29 2.240 . S
O39 C37 1.279 . S
O40 Cd30 2.297 . S
O40 C35 1.247 . S
O41 Cd30 2.439 . S
O41 C35 1.208 . S
O42 Cd43 2.223 1_655 S
O42 C50 1.315 . S
Cd43 O42 2.223 1_455 S
Cd43 O46 2.297 1_455 S
Cd43 O47 2.439 . S
Cd43 O53 2.240 . S
Cd44 O45 2.240 1_455 S
Cd44 O52 2.223 . S
Cd44 O54 2.297 . S
Cd44 O55 2.439 . S
O45 Cd44 2.240 1_655 S
O45 C50 1.279 . S
O46 Cd43 2.297 1_655 S
O46 C48 1.247 1_655 S
O47 Cd43 2.439 . S
O47 C48 1.208 . S
C48 O46 1.247 1_455 S
C48 O47 1.208 . S
C49 O54 1.247 . S
C49 O55 1.208 . S
C50 O42 1.315 . S
C50 O45 1.279 . S
C51 O52 1.315 . S
C51 O53 1.279 . S
O52 Cd44 2.223 . S
O52 C51 1.315 . S
O53 Cd43 2.240 . S
O53 C51 1.279 . S
O54 Cd44 2.297 . S
O54 C49 1.247 . S
O55 Cd44 2.439 . S
O55 C49 1.208 . S
O56 Cd57 2.223 . S
O56 C64 1.315 . S
Cd57 O56 2.223 . S
Cd57 O60 2.297 . S
Cd57 O61 2.439 . S
Cd57 O67 2.240 . S
Cd58 O59 2.240 . S
Cd58 O66 2.223 . S
Cd58 O68 2.297 . S
Cd58 O69 2.439 . S
O59 Cd58 2.240 . S
O59 C64 1.279 . S
O60 Cd57 2.297 . S
O60 C62 1.247 . S
O61 Cd57 2.439 . S
O61 C62 1.208 . S
C62 O60 1.247 . S
C62 O61 1.208 . S
C63 O68 1.247 . S
C63 O69 1.208 . S
C64 O56 1.315 . S
C64 O59 1.279 . S
C65 O66 1.315 . S
C65 O67 1.279 . S
O66 Cd58 2.223 . S
O66 C65 1.315 . S
O67 Cd57 2.240 . S
O67 C65 1.279 . S
O68 Cd58 2.297 . S
O68 C63 1.247 . S
O69 Cd58 2.439 . S
O69 C63 1.208 . S
O70 Cd71 2.223 1_545 S
O70 C78 1.315 . S
Cd71 O70 2.223 1_565 S
Cd71 O74 2.297 1_565 S
Cd71 O75 2.439 . S
Cd71 O81 2.240 . S
Cd72 O73 2.240 1_565 S
Cd72 O80 2.223 . S
Cd72 O82 2.297 . S
Cd72 O83 2.439 . S
O73 Cd72 2.240 1_545 S
O73 C78 1.279 . S
O74 Cd71 2.297 1_545 S
O74 C76 1.247 1_545 S
O75 Cd71 2.439 . S
O75 C76 1.208 . S
C76 O74 1.247 1_565 S
C76 O75 1.208 . S
C77 O82 1.247 . S
C77 O83 1.208 . S
C78 O70 1.315 . S
C78 O73 1.279 . S
C79 O80 1.315 . S
C79 O81 1.279 . S
O80 Cd72 2.223 . S
O80 C79 1.315 . S
O81 Cd71 2.240 . S
O81 C79 1.279 . S
O82 Cd72 2.297 . S
O82 C77 1.247 . S
O83 Cd72 2.439 . S
O83 C77 1.208 . S
O84 Cd85 2.223 1_545 S
O84 C92 1.315 . S
Cd85 O84 2.223 1_565 S
Cd85 O88 2.297 1_565 S
Cd85 O89 2.439 . S
Cd85 O95 2.240 . S
Cd86 O87 2.240 1_565 S
Cd86 O94 2.223 . S
Cd86 O96 2.297 . S
Cd86 O97 2.439 . S
O87 Cd86 2.240 1_545 S
O87 C92 1.279 . S
O88 Cd85 2.297 1_545 S
O88 C90 1.247 1_545 S
O89 Cd85 2.439 . S
O89 C90 1.208 . S
C90 O88 1.247 1_565 S
C90 O89 1.208 . S
C91 O96 1.247 . S
C91 O97 1.208 . S
C92 O84 1.315 . S
C92 O87 1.279 . S
C93 O94 1.315 . S
C93 O95 1.279 . S
O94 Cd86 2.223 . S
O94 C93 1.315 . S
O95 Cd85 2.240 . S
O95 C93 1.279 . S
O96 Cd86 2.297 . S
O96 C91 1.247 . S
O97 Cd86 2.439 . S
O97 C91 1.208 . S
O98 Cd99 2.223 1_655 S
O98 C106 1.315 . S
Cd99 O98 2.223 1_455 S
Cd99 O102 2.297 1_455 S
Cd99 O103 2.439 . S
Cd99 O109 2.240 . S
Cd100 O101 2.240 1_455 S
Cd100 O108 2.223 . S
Cd100 O110 2.297 . S
Cd100 O111 2.439 . S
O101 Cd100 2.240 1_655 S
O101 C106 1.279 . S
O102 Cd99 2.297 1_655 S
O102 C104 1.247 1_655 S
O103 Cd99 2.439 . S
O103 C104 1.208 . S
C104 O102 1.247 1_455 S
C104 O103 1.208 . S
C105 O110 1.247 . S
C105 O111 1.208 . S
C106 O98 1.315 . S
C106 O101 1.279 . S
C107 O108 1.315 . S
C107 O109 1.279 . S
O108 Cd100 2.223 . S
O108 C107 1.315 . S
O109 Cd99 2.240 . S
O109 C107 1.279 . S
O110 Cd100 2.297 . S
O110 C105 1.247 . S
O111 Cd100 2.439 . S
O111 C105 1.208 . S
O112 Cd113 2.223 . S
O112 C120 1.315 . S
Cd113 O112 2.223 . S
Cd113 O116 2.297 . S
Cd113 O117 2.439 . S
Cd113 O123 2.240 . S
Cd114 O115 2.240 . S
Cd114 O122 2.223 . S
Cd114 O124 2.297 . S
Cd114 O125 2.439 . S
O115 Cd114 2.240 . S
O115 C120 1.279 . S
O116 Cd113 2.297 . S
O116 C118 1.247 . S
O117 Cd113 2.439 . S
O117 C118 1.208 . S
C118 O116 1.247 . S
C118 O117 1.208 . S
C119 O124 1.247 . S
C119 O125 1.208 . S
C120 O112 1.315 . S
C120 O115 1.279 . S
C121 O122 1.315 . S
C121 O123 1.279 . S
O122 Cd114 2.223 . S
O122 C121 1.315 . S
O123 Cd113 2.240 . S
O123 C121 1.279 . S
O124 Cd114 2.297 . S
O124 C119 1.247 . S
O125 Cd114 2.439 . S
O125 C119 1.208 . S
O126 Cd127 2.223 1_455 S
O126 C134 1.315 . S
Cd127 O126 2.223 1_655 S
Cd127 O130 2.297 1_655 S
Cd127 O131 2.439 . S
Cd127 O137 2.240 . S
Cd128 O129 2.240 1_655 S
Cd128 O136 2.223 . S
Cd128 O138 2.297 . S
Cd128 O139 2.439 . S
O129 Cd128 2.240 1_455 S
O129 C134 1.279 . S
O130 Cd127 2.297 1_455 S
O130 C132 1.247 1_455 S
O131 Cd127 2.439 . S
O131 C132 1.208 . S
C132 O130 1.247 1_655 S
C132 O131 1.208 . S
C133 O138 1.247 . S
C133 O139 1.208 . S
C134 O126 1.315 . S
C134 O129 1.279 . S
C135 O136 1.315 . S
C135 O137 1.279 . S
O136 Cd128 2.223 . S
O136 C135 1.315 . S
O137 Cd127 2.240 . S
O137 C135 1.279 . S
O138 Cd128 2.297 . S
O138 C133 1.247 . S
O139 Cd128 2.439 . S
O139 C133 1.208 . S
O140 Cd141 2.223 . S
O140 C148 1.315 . S
Cd141 O140 2.223 . S
Cd141 O144 2.297 . S
Cd141 O145 2.439 . S
Cd141 O151 2.240 . S
Cd142 O143 2.240 . S
Cd142 O150 2.223 . S
Cd142 O152 2.297 . S
Cd142 O153 2.439 . S
O143 Cd142 2.240 . S
O143 C148 1.279 . S
O144 Cd141 2.297 . S
O144 C146 1.247 . S
O145 Cd141 2.439 . S
O145 C146 1.208 . S
C146 O144 1.247 . S
C146 O145 1.208 . S
C147 O152 1.247 . S
C147 O153 1.208 . S
C148 O140 1.315 . S
C148 O143 1.279 . S
C149 O150 1.315 . S
C149 O151 1.279 . S
O150 Cd142 2.223 . S
O150 C149 1.315 . S
O151 Cd141 2.240 . S
O151 C149 1.279 . S
O152 Cd142 2.297 . S
O152 C147 1.247 . S
O153 Cd142 2.439 . S
O153 C147 1.208 . S
O154 Cd155 2.223 1_565 S
O154 C162 1.315 . S
Cd155 O154 2.223 1_545 S
Cd155 O158 2.297 1_545 S
Cd155 O159 2.439 . S
Cd155 O165 2.240 . S
Cd156 O157 2.240 1_545 S
Cd156 O164 2.223 . S
Cd156 O166 2.297 . S
Cd156 O167 2.439 . S
O157 Cd156 2.240 1_565 S
O157 C162 1.279 . S
O158 Cd155 2.297 1_565 S
O158 C160 1.247 1_565 S
O159 Cd155 2.439 . S
O159 C160 1.208 . S
C160 O158 1.247 1_545 S
C160 O159 1.208 . S
C161 O166 1.247 . S
C161 O167 1.208 . S
C162 O154 1.315 . S
C162 O157 1.279 . S
C163 O164 1.315 . S
C163 O165 1.279 . S
O164 Cd156 2.223 . S
O164 C163 1.315 . S
O165 Cd155 2.240 . S
O165 C163 1.279 . S
O166 Cd156 2.297 . S
O166 C161 1.247 . S
O167 Cd156 2.439 . S
O167 C161 1.208 . S
O168 Cd169 2.223 . S
O168 C176 1.315 . S
Cd169 O168 2.223 . S
Cd169 O172 2.297 . S
Cd169 O173 2.439 . S
Cd169 O179 2.240 . S
Cd170 O171 2.240 . S
Cd170 O178 2.223 . S
Cd170 O180 2.297 . S
Cd170 O181 2.439 . S
O171 Cd170 2.240 . S
O171 C176 1.279 . S
O172 Cd169 2.297 . S
O172 C174 1.247 . S
O173 Cd169 2.439 . S
O173 C174 1.208 . S
C174 O172 1.247 . S
C174 O173 1.208 . S
C175 O180 1.247 . S
C175 O181 1.208 . S
C176 O168 1.315 . S
C176 O171 1.279 . S
C177 O178 1.315 . S
C177 O179 1.279 . S
O178 Cd170 2.223 . S
O178 C177 1.315 . S
O179 Cd169 2.240 . S
O179 C177 1.279 . S
O180 Cd170 2.297 . S
O180 C175 1.247 . S
O181 Cd170 2.439 . S
O181 C175 1.208 . S
O182 Cd183 2.223 . S
O182 C190 1.315 . S
Cd183 O182 2.223 . S
Cd183 O186 2.297 . S
Cd183 O187 2.439 . S
Cd183 O193 2.240 . S
Cd184 O185 2.240 . S
Cd184 O192 2.223 . S
Cd184 O194 2.297 . S
Cd184 O195 2.439 . S
O185 Cd184 2.240 . S
O185 C190 1.279 . S
O186 Cd183 2.297 . S
O186 C188 1.247 . S
O187 Cd183 2.439 . S
O187 C188 1.208 . S
C188 O186 1.247 . S
C188 O187 1.208 . S
C189 O194 1.247 . S
C189 O195 1.208 . S
C190 O182 1.315 . S
C190 O185 1.279 . S
C191 O192 1.315 . S
C191 O193 1.279 . S
O192 Cd184 2.223 . S
O192 C191 1.315 . S
O193 Cd183 2.240 . S
O193 C191 1.279 . S
O194 Cd184 2.297 . S
O194 C189 1.247 . S
O195 Cd184 2.439 . S
O195 C189 1.208 . S
O196 Cd197 2.223 . S
O196 C204 1.315 . S
Cd197 O196 2.223 . S
Cd197 O200 2.297 . S
Cd197 O201 2.439 . S
Cd197 O207 2.240 . S
Cd198 O199 2.240 . S
Cd198 O206 2.223 . S
Cd198 O208 2.297 . S
Cd198 O209 2.439 . S
O199 Cd198 2.240 . S
O199 C204 1.279 . S
O200 Cd197 2.297 . S
O200 C202 1.247 . S
O201 Cd197 2.439 . S
O201 C202 1.208 . S
C202 O200 1.247 . S
C202 O201 1.208 . S
C203 O208 1.247 . S
C203 O209 1.208 . S
C204 O196 1.315 . S
C204 O199 1.279 . S
C205 O206 1.315 . S
C205 O207 1.279 . S
O206 Cd198 2.223 . S
O206 C205 1.315 . S
O207 Cd197 2.240 . S
O207 C205 1.279 . S
O208 Cd198 2.297 . S
O208 C203 1.247 . S
O209 Cd198 2.439 . S
O209 C203 1.208 . S
O210 Cd211 2.223 . S
O210 C218 1.315 . S
Cd211 O210 2.223 . S
Cd211 O214 2.297 . S
Cd211 O215 2.439 . S
Cd211 O221 2.240 . S
Cd212 O213 2.240 . S
Cd212 O220 2.223 . S
Cd212 O222 2.297 . S
Cd212 O223 2.439 . S
O213 Cd212 2.240 . S
O213 C218 1.279 . S
O214 Cd211 2.297 . S
O214 C216 1.247 . S
O215 Cd211 2.439 . S
O215 C216 1.208 . S
C216 O214 1.247 . S
C216 O215 1.208 . S
C217 O222 1.247 . S
C217 O223 1.208 . S
C218 O210 1.315 . S
C218 O213 1.279 . S
C219 O220 1.315 . S
C219 O221 1.279 . S
O220 Cd212 2.223 . S
O220 C219 1.315 . S
O221 Cd211 2.240 . S
O221 C219 1.279 . S
O222 Cd212 2.297 . S
O222 C217 1.247 . S
O223 Cd212 2.439 . S
O223 C217 1.208 . S
O224 Cd225 2.223 . S
O224 C232 1.315 . S
Cd225 O224 2.223 . S
Cd225 O228 2.297 . S
Cd225 O229 2.439 . S
Cd225 O235 2.240 . S
Cd226 O227 2.240 . S
Cd226 O234 2.223 . S
Cd226 O236 2.297 . S
Cd226 O237 2.439 . S
O227 Cd226 2.240 . S
O227 C232 1.279 . S
O228 Cd225 2.297 . S
O228 C230 1.247 . S
O229 Cd225 2.439 . S
O229 C230 1.208 . S
C230 O228 1.247 . S
C230 O229 1.208 . S
C231 O236 1.247 . S
C231 O237 1.208 . S
C232 O224 1.315 . S
C232 O227 1.279 . S
C233 O234 1.315 . S
C233 O235 1.279 . S
O234 Cd226 2.223 . S
O234 C233 1.315 . S
O235 Cd225 2.240 . S
O235 C233 1.279 . S
O236 Cd226 2.297 . S
O236 C231 1.247 . S
O237 Cd226 2.439 . S
O237 C231 1.208 . S
O238 Cd239 2.223 . S
O238 C246 1.315 . S
Cd239 O238 2.223 . S
Cd239 O242 2.297 . S
Cd239 O243 2.439 . S
Cd239 O249 2.240 . S
Cd240 O241 2.240 . S
Cd240 O248 2.223 . S
Cd240 O250 2.297 . S
Cd240 O251 2.439 . S
O241 Cd240 2.240 . S
O241 C246 1.279 . S
O242 Cd239 2.297 . S
O242 C244 1.247 . S
O243 Cd239 2.439 . S
O243 C244 1.208 . S
C244 O242 1.247 . S
C244 O243 1.208 . S
C245 O250 1.247 . S
C245 O251 1.208 . S
C246 O238 1.315 . S
C246 O241 1.279 . S
C247 O248 1.315 . S
C247 O249 1.279 . S
O248 Cd240 2.223 . S
O248 C247 1.315 . S
O249 Cd239 2.240 . S
O249 C247 1.279 . S
O250 Cd240 2.297 . S
O250 C245 1.247 . S
O251 Cd240 2.439 . S
O251 C245 1.208 . S
O252 Cd253 2.223 . S
O252 C260 1.315 . S
Cd253 O252 2.223 . S
Cd253 O256 2.297 . S
Cd253 O257 2.439 . S
Cd253 O263 2.240 . S
Cd254 O255 2.240 . S
Cd254 O262 2.223 . S
Cd254 O264 2.297 . S
Cd254 O265 2.439 . S
O255 Cd254 2.240 . S
O255 C260 1.279 . S
O256 Cd253 2.297 . S
O256 C258 1.247 . S
O257 Cd253 2.439 . S
O257 C258 1.208 . S
C258 O256 1.247 . S
C258 O257 1.208 . S
C259 O264 1.247 . S
C259 O265 1.208 . S
C260 O252 1.315 . S
C260 O255 1.279 . S
C261 O262 1.315 . S
C261 O263 1.279 . S
O262 Cd254 2.223 . S
O262 C261 1.315 . S
O263 Cd253 2.240 . S
O263 C261 1.279 . S
O264 Cd254 2.297 . S
O264 C259 1.247 . S
O265 Cd254 2.439 . S
O265 C259 1.208 . S
O266 Cd267 2.223 . S
O266 C274 1.315 . S
Cd267 O266 2.223 . S
Cd267 O270 2.297 . S
Cd267 O271 2.439 . S
Cd267 O277 2.240 . S
Cd268 O269 2.240 . S
Cd268 O276 2.223 . S
Cd268 O278 2.297 . S
Cd268 O279 2.439 . S
O269 Cd268 2.240 . S
O269 C274 1.279 . S
O270 Cd267 2.297 . S
O270 C272 1.247 . S
O271 Cd267 2.439 . S
O271 C272 1.208 . S
C272 O270 1.247 . S
C272 O271 1.208 . S
C273 O278 1.247 . S
C273 O279 1.208 . S
C274 O266 1.315 . S
C274 O269 1.279 . S
C275 O276 1.315 . S
C275 O277 1.279 . S
O276 Cd268 2.223 . S
O276 C275 1.315 . S
O277 Cd267 2.240 . S
O277 C275 1.279 . S
O278 Cd268 2.297 . S
O278 C273 1.247 . S
O279 Cd268 2.439 . S
O279 C273 1.208 . S
O280 Cd281 2.223 . S
O280 C288 1.315 . S
Cd281 O280 2.223 . S
Cd281 O284 2.297 . S
Cd281 O285 2.439 . S
Cd281 O291 2.240 . S
Cd282 O283 2.240 . S
Cd282 O290 2.223 . S
Cd282 O292 2.297 . S
Cd282 O293 2.439 . S
O283 Cd282 2.240 . S
O283 C288 1.279 . S
O284 Cd281 2.297 . S
O284 C286 1.247 . S
O285 Cd281 2.439 . S
O285 C286 1.208 . S
C286 O284 1.247 . S
C286 O285 1.208 . S
C287 O292 1.247 . S
C287 O293 1.208 . S
C288 O280 1.315 . S
C288 O283 1.279 . S
C289 O290 1.315 . S
C289 O291 1.279 . S
O290 Cd282 2.223 . S
O290 C289 1.315 . S
O291 Cd281 2.240 . S
O291 C289 1.279 . S
O292 Cd282 2.297 . S
O292 C287 1.247 . S
O293 Cd282 2.439 . S
O293 C287 1.208 . S
O294 Cd295 2.223 . S
O294 C302 1.315 . S
Cd295 O294 2.223 . S
Cd295 O298 2.297 . S
Cd295 O299 2.439 . S
Cd295 O305 2.240 . S
Cd296 O297 2.240 . S
Cd296 O304 2.223 . S
Cd296 O306 2.297 . S
Cd296 O307 2.439 . S
O297 Cd296 2.240 . S
O297 C302 1.279 . S
O298 Cd295 2.297 . S
O298 C300 1.247 . S
O299 Cd295 2.439 . S
O299 C300 1.208 . S
C300 O298 1.247 . S
C300 O299 1.208 . S
C301 O306 1.247 . S
C301 O307 1.208 . S
C302 O294 1.315 . S
C302 O297 1.279 . S
C303 O304 1.315 . S
C303 O305 1.279 . S
O304 Cd296 2.223 . S
O304 C303 1.315 . S
O305 Cd295 2.240 . S
O305 C303 1.279 . S
O306 Cd296 2.297 . S
O306 C301 1.247 . S
O307 Cd296 2.439 . S
O307 C301 1.208 . S
O308 Cd309 2.223 . S
O308 C316 1.315 . S
Cd309 O308 2.223 . S
Cd309 O312 2.297 . S
Cd309 O313 2.439 . S
Cd309 O319 2.240 . S
Cd310 O311 2.240 . S
Cd310 O318 2.223 . S
Cd310 O320 2.297 . S
Cd310 O321 2.439 . S
O311 Cd310 2.240 . S
O311 C316 1.279 . S
O312 Cd309 2.297 . S
O312 C314 1.247 . S
O313 Cd309 2.439 . S
O313 C314 1.208 . S
C314 O312 1.247 . S
C314 O313 1.208 . S
C315 O320 1.247 . S
C315 O321 1.208 . S
C316 O308 1.315 . S
C316 O311 1.279 . S
C317 O318 1.315 . S
C317 O319 1.279 . S
O318 Cd310 2.223 . S
O318 C317 1.315 . S
O319 Cd309 2.240 . S
O319 C317 1.279 . S
O320 Cd310 2.297 . S
O320 C315 1.247 . S
O321 Cd310 2.439 . S
O321 C315 1.208 . S
O322 Cd323 2.223 . S
O322 C330 1.315 . S
Cd323 O322 2.223 . S
Cd323 O326 2.297 . S
Cd323 O327 2.439 . S
Cd323 O333 2.240 . S
Cd324 O325 2.240 . S
Cd324 O332 2.223 . S
Cd324 O334 2.297 . S
Cd324 O335 2.439 . S
O325 Cd324 2.240 . S
O325 C330 1.279 . S
O326 Cd323 2.297 . S
O326 C328 1.247 . S
O327 Cd323 2.439 . S
O327 C328 1.208 . S
C328 O326 1.247 . S
C328 O327 1.208 . S
C329 O334 1.247 . S
C329 O335 1.208 . S
C330 O322 1.315 . S
C330 O325 1.279 . S
C331 O332 1.315 . S
C331 O333 1.279 . S
O332 Cd324 2.223 . S
O332 C331 1.315 . S
O333 Cd323 2.240 . S
O333 C331 1.279 . S
O334 Cd324 2.297 . S
O334 C329 1.247 . S
O335 Cd324 2.439 . S
O335 C329 1.208 . S
O336 Cd337 2.223 . S
O336 C344 1.315 . S
Cd337 O336 2.223 . S
Cd337 O340 2.297 . S
Cd337 O341 2.439 . S
Cd337 O347 2.240 . S
Cd338 O339 2.240 . S
Cd338 O346 2.223 . S
Cd338 O348 2.297 . S
Cd338 O349 2.439 . S
O339 Cd338 2.240 . S
O339 C344 1.279 . S
O340 Cd337 2.297 . S
O340 C342 1.247 . S
O341 Cd337 2.439 . S
O341 C342 1.208 . S
C342 O340 1.247 . S
C342 O341 1.208 . S
C343 O348 1.247 . S
C343 O349 1.208 . S
C344 O336 1.315 . S
C344 O339 1.279 . S
C345 O346 1.315 . S
C345 O347 1.279 . S
O346 Cd338 2.223 . S
O346 C345 1.315 . S
O347 Cd337 2.240 . S
O347 C345 1.279 . S
O348 Cd338 2.297 . S
O348 C343 1.247 . S
O349 Cd338 2.439 . S
O349 C343 1.208 . S
O350 Cd351 2.223 . S
O350 C358 1.315 . S
Cd351 O350 2.223 . S
Cd351 O354 2.297 . S
Cd351 O355 2.439 . S
Cd351 O361 2.240 . S
Cd352 O353 2.240 . S
Cd352 O360 2.223 . S
Cd352 O362 2.297 . S
Cd352 O363 2.439 . S
O353 Cd352 2.240 . S
O353 C358 1.279 . S
O354 Cd351 2.297 . S
O354 C356 1.247 . S
O355 Cd351 2.439 . S
O355 C356 1.208 . S
C356 O354 1.247 . S
C356 O355 1.208 . S
C357 O362 1.247 . S
C357 O363 1.208 . S
C358 O350 1.315 . S
C358 O353 1.279 . S
C359 O360 1.315 . S
C359 O361 1.279 . S
O360 Cd352 2.223 . S
O360 C359 1.315 . S
O361 Cd351 2.240 . S
O361 C359 1.279 . S
O362 Cd352 2.297 . S
O362 C357 1.247 . S
O363 Cd352 2.439 . S
O363 C357 1.208 . S
O364 Cd365 2.223 . S
O364 C372 1.315 . S
Cd365 O364 2.223 . S
Cd365 O368 2.297 . S
Cd365 O369 2.439 . S
Cd365 O375 2.240 . S
Cd366 O367 2.240 . S
Cd366 O374 2.223 . S
Cd366 O376 2.297 . S
Cd366 O377 2.439 . S
O367 Cd366 2.240 . S
O367 C372 1.279 . S
O368 Cd365 2.297 . S
O368 C370 1.247 . S
O369 Cd365 2.439 . S
O369 C370 1.208 . S
C370 O368 1.247 . S
C370 O369 1.208 . S
C371 O376 1.247 . S
C371 O377 1.208 . S
C372 O364 1.315 . S
C372 O367 1.279 . S
C373 O374 1.315 . S
C373 O375 1.279 . S
O374 Cd366 2.223 . S
O374 C373 1.315 . S
O375 Cd365 2.240 . S
O375 C373 1.279 . S
O376 Cd366 2.297 . S
O376 C371 1.247 . S
O377 Cd366 2.439 . S
O377 C371 1.208 . S
O378 Cd379 2.223 . S
O378 C386 1.315 . S
Cd379 O378 2.223 . S
Cd379 O382 2.297 . S
Cd379 O383 2.439 . S
Cd379 O389 2.240 . S
Cd380 O381 2.240 . S
Cd380 O388 2.223 . S
Cd380 O390 2.297 . S
Cd380 O391 2.439 . S
O381 Cd380 2.240 . S
O381 C386 1.279 . S
O382 Cd379 2.297 . S
O382 C384 1.247 . S
O383 Cd379 2.439 . S
O383 C384 1.208 . S
C384 O382 1.247 . S
C384 O383 1.208 . S
C385 O390 1.247 . S
C385 O391 1.208 . S
C386 O378 1.315 . S
C386 O381 1.279 . S
C387 O388 1.315 . S
C387 O389 1.279 . S
O388 Cd380 2.223 . S
O388 C387 1.315 . S
O389 Cd379 2.240 . S
O389 C387 1.279 . S
O390 Cd380 2.297 . S
O390 C385 1.247 . S
O391 Cd380 2.439 . S
O391 C385 1.208 . S
O392 Cd393 2.223 . S
O392 C400 1.315 . S
Cd393 O392 2.223 . S
Cd393 O396 2.297 . S
Cd393 O397 2.439 . S
Cd393 O403 2.240 . S
Cd394 O395 2.240 . S
Cd394 O402 2.223 . S
Cd394 O404 2.297 . S
Cd394 O405 2.439 . S
O395 Cd394 2.240 . S
O395 C400 1.279 . S
O396 Cd393 2.297 . S
O396 C398 1.247 . S
O397 Cd393 2.439 . S
O397 C398 1.208 . S
C398 O396 1.247 . S
C398 O397 1.208 . S
C399 O404 1.247 . S
C399 O405 1.208 . S
C400 O392 1.315 . S
C400 O395 1.279 . S
C401 O402 1.315 . S
C401 O403 1.279 . S
O402 Cd394 2.223 . S
O402 C401 1.315 . S
O403 Cd393 2.240 . S
O403 C401 1.279 . S
O404 Cd394 2.297 . S
O404 C399 1.247 . S
O405 Cd394 2.439 . S
O405 C399 1.208 . S
O406 Cd407 2.223 . S
O406 C414 1.315 . S
Cd407 O406 2.223 . S
Cd407 O410 2.297 . S
Cd407 O411 2.439 . S
Cd407 O417 2.240 . S
Cd408 O409 2.240 . S
Cd408 O416 2.223 . S
Cd408 O418 2.297 . S
Cd408 O419 2.439 . S
O409 Cd408 2.240 . S
O409 C414 1.279 . S
O410 Cd407 2.297 . S
O410 C412 1.247 . S
O411 Cd407 2.439 . S
O411 C412 1.208 . S
C412 O410 1.247 . S
C412 O411 1.208 . S
C413 O418 1.247 . S
C413 O419 1.208 . S
C414 O406 1.315 . S
C414 O409 1.279 . S
C415 O416 1.315 . S
C415 O417 1.279 . S
O416 Cd408 2.223 . S
O416 C415 1.315 . S
O417 Cd407 2.240 . S
O417 C415 1.279 . S
O418 Cd408 2.297 . S
O418 C413 1.247 . S
O419 Cd408 2.439 . S
O419 C413 1.208 . S
O420 Cd421 2.223 . S
O420 C428 1.315 . S
Cd421 O420 2.223 . S
Cd421 O424 2.297 . S
Cd421 O425 2.439 . S
Cd421 O431 2.240 . S
Cd422 O423 2.240 . S
Cd422 O430 2.223 . S
Cd422 O432 2.297 . S
Cd422 O433 2.439 . S
O423 Cd422 2.240 . S
O423 C428 1.279 . S
O424 Cd421 2.297 . S
O424 C426 1.247 . S
O425 Cd421 2.439 . S
O425 C426 1.208 . S
C426 O424 1.247 . S
C426 O425 1.208 . S
C427 O432 1.247 . S
C427 O433 1.208 . S
C428 O420 1.315 . S
C428 O423 1.279 . S
C429 O430 1.315 . S
C429 O431 1.279 . S
O430 Cd422 2.223 . S
O430 C429 1.315 . S
O431 Cd421 2.240 . S
O431 C429 1.279 . S
O432 Cd422 2.297 . S
O432 C427 1.247 . S
O433 Cd422 2.439 . S
O433 C427 1.208 . S
O434 Cd435 2.223 . S
O434 C442 1.315 . S
Cd435 O434 2.223 . S
Cd435 O438 2.297 . S
Cd435 O439 2.439 . S
Cd435 O445 2.240 . S
Cd436 O437 2.240 . S
Cd436 O444 2.223 . S
Cd436 O446 2.297 . S
Cd436 O447 2.439 . S
O437 Cd436 2.240 . S
O437 C442 1.279 . S
O438 Cd435 2.297 . S
O438 C440 1.247 . S
O439 Cd435 2.439 . S
O439 C440 1.208 . S
C440 O438 1.247 . S
C440 O439 1.208 . S
C441 O446 1.247 . S
C441 O447 1.208 . S
C442 O434 1.315 . S
C442 O437 1.279 . S
C443 O444 1.315 . S
C443 O445 1.279 . S
O444 Cd436 2.223 . S
O444 C443 1.315 . S
O445 Cd435 2.240 . S
O445 C443 1.279 . S
O446 Cd436 2.297 . S
O446 C441 1.247 . S
O447 Cd436 2.439 . S
O447 C441 1.208 . S
O448 Cd449 2.223 . S
O448 C456 1.315 . S
Cd449 O448 2.223 . S
Cd449 O452 2.297 . S
Cd449 O453 2.439 . S
Cd449 O459 2.240 . S
Cd450 O451 2.240 . S
Cd450 O458 2.223 . S
Cd450 O460 2.297 . S
Cd450 O461 2.439 . S
O451 Cd450 2.240 . S
O451 C456 1.279 . S
O452 Cd449 2.297 . S
O452 C454 1.247 . S
O453 Cd449 2.439 . S
O453 C454 1.208 . S
C454 O452 1.247 . S
C454 O453 1.208 . S
C455 O460 1.247 . S
C455 O461 1.208 . S
C456 O448 1.315 . S
C456 O451 1.279 . S
C457 O458 1.315 . S
C457 O459 1.279 . S
O458 Cd450 2.223 . S
O458 C457 1.315 . S
O459 Cd449 2.240 . S
O459 C457 1.279 . S
O460 Cd450 2.297 . S
O460 C455 1.247 . S
O461 Cd450 2.439 . S
O461 C455 1.208 . S
O462 Cd463 2.223 . S
O462 C470 1.315 . S
Cd463 O462 2.223 . S
Cd463 O466 2.297 . S
Cd463 O467 2.439 . S
Cd463 O473 2.240 . S
Cd464 O465 2.240 . S
Cd464 O472 2.223 . S
Cd464 O474 2.297 . S
Cd464 O475 2.439 . S
O465 Cd464 2.240 . S
O465 C470 1.279 . S
O466 Cd463 2.297 . S
O466 C468 1.247 . S
O467 Cd463 2.439 . S
O467 C468 1.208 . S
C468 O466 1.247 . S
C468 O467 1.208 . S
C469 O474 1.247 . S
C469 O475 1.208 . S
C470 O462 1.315 . S
C470 O465 1.279 . S
C471 O472 1.315 . S
C471 O473 1.279 . S
O472 Cd464 2.223 . S
O472 C471 1.315 . S
O473 Cd463 2.240 . S
O473 C471 1.279 . S
O474 Cd464 2.297 . S
O474 C469 1.247 . S
O475 Cd464 2.439 . S
O475 C469 1.208 . S
O476 Cd477 2.223 . S
O476 C484 1.315 . S
Cd477 O476 2.223 . S
Cd477 O480 2.297 . S
Cd477 O481 2.439 . S
Cd477 O487 2.240 . S
Cd478 O479 2.240 . S
Cd478 O486 2.223 . S
Cd478 O488 2.297 . S
Cd478 O489 2.439 . S
O479 Cd478 2.240 . S
O479 C484 1.279 . S
O480 Cd477 2.297 . S
O480 C482 1.247 . S
O481 Cd477 2.439 . S
O481 C482 1.208 . S
C482 O480 1.247 . S
C482 O481 1.208 . S
C483 O488 1.247 . S
C483 O489 1.208 . S
C484 O476 1.315 . S
C484 O479 1.279 . S
C485 O486 1.315 . S
C485 O487 1.279 . S
O486 Cd478 2.223 . S
O486 C485 1.315 . S
O487 Cd477 2.240 . S
O487 C485 1.279 . S
O488 Cd478 2.297 . S
O488 C483 1.247 . S
O489 Cd478 2.439 . S
O489 C483 1.208 . S
O490 Cd491 2.223 . S
O490 C498 1.315 . S
Cd491 O490 2.223 . S
Cd491 O494 2.297 . S
Cd491 O495 2.439 . S
Cd491 O501 2.240 . S
Cd492 O493 2.240 . S
Cd492 O500 2.223 . S
Cd492 O502 2.297 . S
Cd492 O503 2.439 . S
O493 Cd492 2.240 . S
O493 C498 1.279 . S
O494 Cd491 2.297 . S
O494 C496 1.247 . S
O495 Cd491 2.439 . S
O495 C496 1.208 . S
C496 O494 1.247 . S
C496 O495 1.208 . S
C497 O502 1.247 . S
C497 O503 1.208 . S
C498 O490 1.315 . S
C498 O493 1.279 . S
C499 O500 1.315 . S
C499 O501 1.279 . S
O500 Cd492 2.223 . S
O500 C499 1.315 . S
O501 Cd491 2.240 . S
O501 C499 1.279 . S
O502 Cd492 2.297 . S
O502 C497 1.247 . S
O503 Cd492 2.439 . S
O503 C497 1.208 . S
H504 C512 0.950 . S
H505 C517 0.950 . S
H506 C514 0.950 . S
H507 C516 0.950 . S
H508 C518 0.950 . S
H509 C520 0.950 . S
H510 C522 0.950 . S
H511 C523 0.950 . S
C512 H504 0.950 . S
C512 C513 1.386 . S
C512 C514 1.391 . S
C513 C512 1.386 . S
C513 C517 1.393 . S
C514 H506 0.950 . S
C514 C512 1.391 . S
C514 C515 1.400 . S
C515 C514 1.400 . S
C515 C516 1.398 . S
C515 C521 1.491 . S
C516 H507 0.950 . S
C516 C515 1.398 . S
C516 C517 1.391 . S
C517 H505 0.950 . S
C517 C513 1.393 . S
C517 C516 1.391 . S
C518 H508 0.950 . S
C518 C519 1.386 . S
C518 C520 1.391 . S
C519 C518 1.386 . S
C519 C523 1.393 . S
C520 H509 0.950 . S
C520 C518 1.391 . S
C520 C521 1.400 . S
C521 C515 1.491 . S
C521 C520 1.400 . S
C521 C522 1.398 . S
C522 H510 0.950 . S
C522 C521 1.398 . S
C522 C523 1.391 . S
C523 H511 0.950 . S
C523 C519 1.393 . S
C523 C522 1.391 . S
H524 C532 0.950 . S
H525 C537 0.950 . S
H526 C534 0.950 . S
H527 C536 0.950 . S
H528 C538 0.950 . S
H529 C540 0.950 . S
H530 C542 0.950 . S
H531 C543 0.950 . S
C532 H524 0.950 . S
C532 C533 1.386 . S
C532 C534 1.391 . S
C533 C532 1.386 . S
C533 C537 1.393 . S
C534 H526 0.950 . S
C534 C532 1.391 . S
C534 C535 1.400 . S
C535 C534 1.400 . S
C535 C536 1.398 . S
C535 C541 1.491 . S
C536 H527 0.950 . S
C536 C535 1.398 . S
C536 C537 1.391 . S
C537 H525 0.950 . S
C537 C533 1.393 . S
C537 C536 1.391 . S
C538 H528 0.950 . S
C538 C539 1.386 . S
C538 C540 1.391 . S
C539 C538 1.386 . S
C539 C543 1.393 . S
C540 H529 0.950 . S
C540 C538 1.391 . S
C540 C541 1.400 . S
C541 C535 1.491 . S
C541 C540 1.400 . S
C541 C542 1.398 . S
C542 H530 0.950 . S
C542 C541 1.398 . S
C542 C543 1.391 . S
C543 H531 0.950 . S
C543 C539 1.393 . S
C543 C542 1.391 . S
H544 C552 0.950 . S
H545 C557 0.950 . S
H546 C554 0.950 . S
H547 C556 0.950 . S
H548 C558 0.950 . S
H549 C560 0.950 . S
H550 C562 0.950 . S
H551 C563 0.950 . S
C552 H544 0.950 . S
C552 C553 1.386 . S
C552 C554 1.391 . S
C553 C552 1.386 . S
C553 C557 1.393 . S
C554 H546 0.950 . S
C554 C552 1.391 . S
C554 C555 1.400 . S
C555 C554 1.400 . S
C555 C556 1.398 . S
C555 C561 1.491 . S
C556 H547 0.950 . S
C556 C555 1.398 . S
C556 C557 1.391 . S
C557 H545 0.950 . S
C557 C553 1.393 . S
C557 C556 1.391 . S
C558 H548 0.950 . S
C558 C559 1.386 . S
C558 C560 1.391 . S
C559 C558 1.386 . S
C559 C563 1.393 . S
C560 H549 0.950 . S
C560 C558 1.391 . S
C560 C561 1.400 . S
C561 C555 1.491 . S
C561 C560 1.400 . S
C561 C562 1.398 . S
C562 H550 0.950 . S
C562 C561 1.398 . S
C562 C563 1.391 . S
C563 H551 0.950 . S
C563 C559 1.393 . S
C563 C562 1.391 . S
H564 C572 0.950 . S
H565 C577 0.950 . S
H566 C574 0.950 . S
H567 C576 0.950 . S
H568 C578 0.950 . S
H569 C580 0.950 . S
H570 C582 0.950 . S
H571 C583 0.950 . S
C572 H564 0.950 . S
C572 C573 1.386 . S
C572 C574 1.391 . S
C573 C572 1.386 . S
C573 C577 1.393 . S
C574 H566 0.950 . S
C574 C572 1.391 . S
C574 C575 1.400 . S
C575 C574 1.400 . S
C575 C576 1.398 . S
C575 C581 1.491 . S
C576 H567 0.950 . S
C576 C575 1.398 . S
C576 C577 1.391 . S
C577 H565 0.950 . S
C577 C573 1.393 . S
C577 C576 1.391 . S
C578 H568 0.950 . S
C578 C579 1.386 . S
C578 C580 1.391 . S
C579 C578 1.386 . S
C579 C583 1.393 . S
C580 H569 0.950 . S
C580 C578 1.391 . S
C580 C581 1.400 . S
C581 C575 1.491 . S
C581 C580 1.400 . S
C581 C582 1.398 . S
C582 H570 0.950 . S
C582 C581 1.398 . S
C582 C583 1.391 . S
C583 H571 0.950 . S
C583 C579 1.393 . S
C583 C582 1.391 . S
H584 C592 0.950 . S
H585 C597 0.950 . S
H586 C594 0.950 . S
H587 C596 0.950 . S
H588 C598 0.950 . S
H589 C600 0.950 . S
H590 C602 0.950 . S
H591 C603 0.950 . S
C592 H584 0.950 . S
C592 C593 1.386 . S
C592 C594 1.391 . S
C593 C592 1.386 . S
C593 C597 1.393 . S
C594 H586 0.950 . S
C594 C592 1.391 . S
C594 C595 1.400 . S
C595 C594 1.400 . S
C595 C596 1.398 . S
C595 C601 1.491 . S
C596 H587 0.950 . S
C596 C595 1.398 . S
C596 C597 1.391 . S
C597 H585 0.950 . S
C597 C593 1.393 . S
C597 C596 1.391 . S
C598 H588 0.950 . S
C598 C599 1.386 . S
C598 C600 1.391 . S
C599 C598 1.386 . S
C599 C603 1.393 . S
C600 H589 0.950 . S
C600 C598 1.391 . S
C600 C601 1.400 . S
C601 C595 1.491 . S
C601 C600 1.400 . S
C601 C602 1.398 . S
C602 H590 0.950 . S
C602 C601 1.398 . S
C602 C603 1.391 . S
C603 H591 0.950 . S
C603 C599 1.393 . S
C603 C602 1.391 . S
H604 C612 0.950 . S
H605 C617 0.950 . S
H606 C614 0.950 . S
H607 C616 0.950 . S
H608 C618 0.950 . S
H609 C620 0.950 . S
H610 C622 0.950 . S
H611 C623 0.950 . S
C612 H604 0.950 . S
C612 C613 1.386 . S
C612 C614 1.391 . S
C613 C612 1.386 . S
C613 C617 1.393 . S
C614 H606 0.950 . S
C614 C612 1.391 . S
C614 C615 1.400 . S
C615 C614 1.400 . S
C615 C616 1.398 . S
C615 C621 1.491 . S
C616 H607 0.950 . S
C616 C615 1.398 . S
C616 C617 1.391 . S
C617 H605 0.950 . S
C617 C613 1.393 . S
C617 C616 1.391 . S
C618 H608 0.950 . S
C618 C619 1.386 . S
C618 C620 1.391 . S
C619 C618 1.386 . S
C619 C623 1.393 . S
C620 H609 0.950 . S
C620 C618 1.391 . S
C620 C621 1.400 . S
C621 C615 1.491 . S
C621 C620 1.400 . S
C621 C622 1.398 . S
C622 H610 0.950 . S
C622 C621 1.398 . S
C622 C623 1.391 . S
C623 H611 0.950 . S
C623 C619 1.393 . S
C623 C622 1.391 . S
H624 C632 0.950 . S
H625 C637 0.950 . S
H626 C634 0.950 . S
H627 C636 0.950 . S
H628 C638 0.950 . S
H629 C640 0.950 . S
H630 C642 0.950 . S
H631 C643 0.950 . S
C632 H624 0.950 . S
C632 C633 1.386 . S
C632 C634 1.391 . S
C633 C632 1.386 . S
C633 C637 1.393 . S
C634 H626 0.950 . S
C634 C632 1.391 . S
C634 C635 1.400 . S
C635 C634 1.400 . S
C635 C636 1.398 . S
C635 C641 1.491 . S
C636 H627 0.950 . S
C636 C635 1.398 . S
C636 C637 1.391 . S
C637 H625 0.950 . S
C637 C633 1.393 . S
C637 C636 1.391 . S
C638 H628 0.950 . S
C638 C639 1.386 . S
C638 C640 1.391 . S
C639 C638 1.386 . S
C639 C643 1.393 . S
C640 H629 0.950 . S
C640 C638 1.391 . S
C640 C641 1.400 . S
C641 C635 1.491 . S
C641 C640 1.400 . S
C641 C642 1.398 . S
C642 H630 0.950 . S
C642 C641 1.398 . S
C642 C643 1.391 . S
C643 H631 0.950 . S
C643 C639 1.393 . S
C643 C642 1.391 . S
H644 C652 0.950 . S
H645 C657 0.950 . S
H646 C654 0.950 . S
H647 C656 0.950 . S
H648 C658 0.950 . S
H649 C660 0.950 . S
H650 C662 0.950 . S
H651 C663 0.950 . S
C652 H644 0.950 . S
C652 C653 1.386 . S
C652 C654 1.391 . S
C653 C652 1.386 . S
C653 C657 1.393 . S
C654 H646 0.950 . S
C654 C652 1.391 . S
C654 C655 1.400 . S
C655 C654 1.400 . S
C655 C656 1.398 . S
C655 C661 1.491 . S
C656 H647 0.950 . S
C656 C655 1.398 . S
C656 C657 1.391 . S
C657 H645 0.950 . S
C657 C653 1.393 . S
C657 C656 1.391 . S
C658 H648 0.950 . S
C658 C659 1.386 . S
C658 C660 1.391 . S
C659 C658 1.386 . S
C659 C663 1.393 . S
C660 H649 0.950 . S
C660 C658 1.391 . S
C660 C661 1.400 . S
C661 C655 1.491 . S
C661 C660 1.400 . S
C661 C662 1.398 . S
C662 H650 0.950 . S
C662 C661 1.398 . S
C662 C663 1.391 . S
C663 H651 0.950 . S
C663 C659 1.393 . S
C663 C662 1.391 . S
H664 C672 0.950 . S
H665 C677 0.950 . S
H666 C674 0.950 . S
H667 C676 0.950 . S
H668 C678 0.950 . S
H669 C680 0.950 . S
H670 C682 0.950 . S
H671 C683 0.950 . S
C672 H664 0.950 . S
C672 C673 1.386 . S
C672 C674 1.391 . S
C673 C672 1.386 . S
C673 C677 1.393 . S
C674 H666 0.950 . S
C674 C672 1.391 . S
C674 C675 1.400 . S
C675 C674 1.400 . S
C675 C676 1.398 . S
C675 C681 1.491 . S
C676 H667 0.950 . S
C676 C675 1.398 . S
C676 C677 1.391 . S
C677 H665 0.950 . S
C677 C673 1.393 . S
C677 C676 1.391 . S
C678 H668 0.950 . S
C678 C679 1.386 . S
C678 C680 1.391 . S
C679 C678 1.386 . S
C679 C683 1.393 . S
C680 H669 0.950 . S
C680 C678 1.391 . S
C680 C681 1.400 . S
C681 C675 1.491 . S
C681 C680 1.400 . S
C681 C682 1.398 . S
C682 H670 0.950 . S
C682 C681 1.398 . S
C682 C683 1.391 . S
C683 H671 0.950 . S
C683 C679 1.393 . S
C683 C682 1.391 . S
H684 C692 0.950 . S
H685 C697 0.950 . S
H686 C694 0.950 . S
H687 C696 0.950 . S
H688 C698 0.950 . S
H689 C700 0.950 . S
H690 C702 0.950 . S
H691 C703 0.950 . S
C692 H684 0.950 . S
C692 C693 1.386 . S
C692 C694 1.391 . S
C693 C692 1.386 . S
C693 C697 1.393 . S
C694 H686 0.950 . S
C694 C692 1.391 . S
C694 C695 1.400 . S
C695 C694 1.400 . S
C695 C696 1.398 . S
C695 C701 1.491 . S
C696 H687 0.950 . S
C696 C695 1.398 . S
C696 C697 1.391 . S
C697 H685 0.950 . S
C697 C693 1.393 . S
C697 C696 1.391 . S
C698 H688 0.950 . S
C698 C699 1.386 . S
C698 C700 1.391 . S
C699 C698 1.386 . S
C699 C703 1.393 . S
C700 H689 0.950 . S
C700 C698 1.391 . S
C700 C701 1.400 . S
C701 C695 1.491 . S
C701 C700 1.400 . S
C701 C702 1.398 . S
C702 H690 0.950 . S
C702 C701 1.398 . S
C702 C703 1.391 . S
C703 H691 0.950 . S
C703 C699 1.393 . S
C703 C702 1.391 . S
H704 C712 0.950 . S
H705 C717 0.950 . S
H706 C714 0.950 . S
H707 C716 0.950 . S
H708 C718 0.950 . S
H709 C720 0.950 . S
H710 C722 0.950 . S
H711 C723 0.950 . S
C712 H704 0.950 . S
C712 C713 1.386 . S
C712 C714 1.391 . S
C713 C712 1.386 . S
C713 C717 1.393 . S
C714 H706 0.950 . S
C714 C712 1.391 . S
C714 C715 1.400 . S
C715 C714 1.400 . S
C715 C716 1.398 . S
C715 C721 1.491 . S
C716 H707 0.950 . S
C716 C715 1.398 . S
C716 C717 1.391 . S
C717 H705 0.950 . S
C717 C713 1.393 . S
C717 C716 1.391 . S
C718 H708 0.950 . S
C718 C719 1.386 . S
C718 C720 1.391 . S
C719 C718 1.386 . S
C719 C723 1.393 . S
C720 H709 0.950 . S
C720 C718 1.391 . S
C720 C721 1.400 . S
C721 C715 1.491 . S
C721 C720 1.400 . S
C721 C722 1.398 . S
C722 H710 0.950 . S
C722 C721 1.398 . S
C722 C723 1.391 . S
C723 H711 0.950 . S
C723 C719 1.393 . S
C723 C722 1.391 . S
H724 C732 0.950 . S
H725 C737 0.950 . S
H726 C734 0.950 . S
H727 C736 0.950 . S
H728 C738 0.950 . S
H729 C740 0.950 . S
H730 C742 0.950 . S
H731 C743 0.950 . S
C732 H724 0.950 . S
C732 C733 1.386 . S
C732 C734 1.391 . S
C733 C732 1.386 . S
C733 C737 1.393 . S
C734 H726 0.950 . S
C734 C732 1.391 . S
C734 C735 1.400 . S
C735 C734 1.400 . S
C735 C736 1.398 . S
C735 C741 1.491 . S
C736 H727 0.950 . S
C736 C735 1.398 . S
C736 C737 1.391 . S
C737 H725 0.950 . S
C737 C733 1.393 . S
C737 C736 1.391 . S
C738 H728 0.950 . S
C738 C739 1.386 . S
C738 C740 1.391 . S
C739 C738 1.386 . S
C739 C743 1.393 . S
C740 H729 0.950 . S
C740 C738 1.391 . S
C740 C741 1.400 . S
C741 C735 1.491 . S
C741 C740 1.400 . S
C741 C742 1.398 . S
C742 H730 0.950 . S
C742 C741 1.398 . S
C742 C743 1.391 . S
C743 H731 0.950 . S
C743 C739 1.393 . S
C743 C742 1.391 . S
H744 C752 0.950 . S
H745 C757 0.950 . S
H746 C754 0.950 . S
H747 C756 0.950 1_655 S
H748 C758 0.950 . S
H749 C760 0.950 . S
H750 C762 0.950 1_455 S
H751 C763 0.950 . S
C752 H744 0.950 . S
C752 C753 1.386 . S
C752 C754 1.391 . S
C753 C752 1.386 . S
C753 C757 1.393 . S
C754 H746 0.950 . S
C754 C752 1.391 . S
C754 C755 1.400 . S
C755 C754 1.400 . S
C755 C756 1.398 . S
C755 C761 1.491 1_455 S
C756 H747 0.950 1_455 S
C756 C755 1.398 . S
C756 C757 1.391 . S
C757 H745 0.950 . S
C757 C753 1.393 . S
C757 C756 1.391 . S
C758 H748 0.950 . S
C758 C759 1.386 . S
C758 C760 1.391 . S
C759 C758 1.386 . S
C759 C763 1.393 . S
C760 H749 0.950 . S
C760 C758 1.391 . S
C760 C761 1.400 . S
C761 C755 1.491 1_655 S
C761 C760 1.400 . S
C761 C762 1.398 . S
C762 H750 0.950 1_655 S
C762 C761 1.398 . S
C762 C763 1.391 . S
C763 H751 0.950 . S
C763 C759 1.393 . S
C763 C762 1.391 . S
H764 C772 0.950 . S
H765 C777 0.950 . S
H766 C774 0.950 . S
H767 C776 0.950 . S
H768 C778 0.950 . S
H769 C780 0.950 . S
H770 C782 0.950 . S
H771 C783 0.950 . S
C772 H764 0.950 . S
C772 C773 1.386 . S
C772 C774 1.391 . S
C773 C772 1.386 . S
C773 C777 1.393 . S
C774 H766 0.950 . S
C774 C772 1.391 . S
C774 C775 1.400 . S
C775 C774 1.400 . S
C775 C776 1.398 . S
C775 C781 1.491 . S
C776 H767 0.950 . S
C776 C775 1.398 . S
C776 C777 1.391 . S
C777 H765 0.950 . S
C777 C773 1.393 . S
C777 C776 1.391 . S
C778 H768 0.950 . S
C778 C779 1.386 . S
C778 C780 1.391 . S
C779 C778 1.386 . S
C779 C783 1.393 . S
C780 H769 0.950 . S
C780 C778 1.391 . S
C780 C781 1.400 . S
C781 C775 1.491 . S
C781 C780 1.400 . S
C781 C782 1.398 . S
C782 H770 0.950 . S
C782 C781 1.398 . S
C782 C783 1.391 . S
C783 H771 0.950 . S
C783 C779 1.393 . S
C783 C782 1.391 . S
H784 C792 0.950 . S
H785 C797 0.950 . S
H786 C794 0.950 . S
H787 C796 0.950 . S
H788 C798 0.950 . S
H789 C800 0.950 . S
H790 C802 0.950 . S
H791 C803 0.950 . S
C792 H784 0.950 . S
C792 C793 1.386 . S
C792 C794 1.391 . S
C793 C792 1.386 . S
C793 C797 1.393 . S
C794 H786 0.950 . S
C794 C792 1.391 . S
C794 C795 1.400 . S
C795 C794 1.400 . S
C795 C796 1.398 . S
C795 C801 1.491 1_545 S
C796 H787 0.950 . S
C796 C795 1.398 . S
C796 C797 1.391 . S
C797 H785 0.950 . S
C797 C793 1.393 . S
C797 C796 1.391 . S
C798 H788 0.950 . S
C798 C799 1.386 . S
C798 C800 1.391 . S
C799 C798 1.386 . S
C799 C803 1.393 . S
C800 H789 0.950 . S
C800 C798 1.391 . S
C800 C801 1.400 . S
C801 C795 1.491 1_565 S
C801 C800 1.400 . S
C801 C802 1.398 . S
C802 H790 0.950 . S
C802 C801 1.398 . S
C802 C803 1.391 . S
C803 H791 0.950 . S
C803 C799 1.393 . S
C803 C802 1.391 . S
H804 C812 0.950 . S
H805 C817 0.950 . S
H806 C814 0.970 . S
H807 C816 0.950 . S
H808 C818 0.950 . S
H809 C820 0.970 . S
H810 C822 0.950 . S
H811 C823 0.950 . S
C812 H804 0.950 . S
C812 C813 1.386 . S
C812 C814 1.391 . S
C813 C812 1.386 . S
C813 C817 1.393 . S
C814 H806 0.970 . S
C814 C812 1.391 . S
C814 C815 1.400 . S
C815 C814 1.400 . S
C815 C816 1.398 . S
C815 C821 1.491 1_564 S
C816 H807 0.950 . S
C816 C815 1.398 . S
C816 C817 1.391 . S
C817 H805 0.950 . S
C817 C813 1.393 . S
C817 C816 1.391 . S
C818 H808 0.950 . S
C818 C819 1.386 . S
C818 C820 1.391 . S
C819 C818 1.386 . S
C819 C823 1.393 . S
C820 H809 0.970 . S
C820 C818 1.391 . S
C820 C821 1.400 . S
C821 C815 1.491 1_546 S
C821 C820 1.400 . S
C821 C822 1.398 . S
C822 H810 0.950 . S
C822 C821 1.398 . S
C822 C823 1.391 . S
C823 H811 0.950 . S
C823 C819 1.393 . S
C823 C822 1.391 . S
H824 C832 0.950 . S
H825 C837 0.950 . S
H826 C834 0.910 1_554 S
H827 C836 0.950 . S
H828 C838 0.950 . S
H829 C840 0.910 1_556 S
H830 C842 0.950 . S
H831 C843 0.950 . S
C832 H824 0.950 . S
C832 C833 1.386 . S
C832 C834 1.391 . S
C833 C832 1.386 . S
C833 C837 1.393 . S
C834 H826 0.910 1_556 S
C834 C832 1.391 . S
C834 C835 1.400 . S
C835 C834 1.400 . S
C835 C836 1.398 1_655 S
C835 C841 1.491 1_656 S
C836 H827 0.950 . S
C836 C835 1.398 1_455 S
C836 C837 1.391 1_455 S
C837 H825 0.950 . S
C837 C833 1.393 . S
C837 C836 1.391 1_655 S
C838 H828 0.950 . S
C838 C839 1.386 . S
C838 C840 1.391 . S
C839 C838 1.386 . S
C839 C843 1.393 . S
C840 H829 0.910 1_554 S
C840 C838 1.391 . S
C840 C841 1.400 . S
C841 C835 1.491 1_454 S
C841 C840 1.400 . S
C841 C842 1.398 1_455 S
C842 H830 0.950 . S
C842 C841 1.398 1_655 S
C842 C843 1.391 1_655 S
C843 H831 0.950 . S
C843 C839 1.393 . S
C843 C842 1.391 1_455 S
H844 C852 0.950 . S
H845 C857 0.950 . S
H846 C854 0.950 1_554 S
H847 C856 0.950 . S
H848 C858 0.950 . S
H849 C860 0.950 1_556 S
H850 C862 0.950 . S
H851 C863 0.950 . S
C852 H844 0.950 . S
C852 C853 1.386 . S
C852 C854 1.391 . S
C853 C852 1.386 . S
C853 C857 1.393 . S
C854 H846 0.950 1_556 S
C854 C852 1.391 . S
C854 C855 1.400 . S
C855 C854 1.400 . S
C855 C856 1.398 . S
C855 C861 1.491 1_556 S
C856 H847 0.950 . S
C856 C855 1.398 . S
C856 C857 1.391 . S
C857 H845 0.950 . S
C857 C853 1.393 . S
C857 C856 1.391 . S
C858 H848 0.950 . S
C858 C859 1.386 . S
C858 C860 1.391 . S
C859 C858 1.386 . S
C859 C863 1.393 . S
C860 H849 0.950 1_554 S
C860 C858 1.391 . S
C860 C861 1.400 . S
C861 C855 1.491 1_554 S
C861 C860 1.400 . S
C861 C862 1.398 . S
C862 H850 0.950 . S
C862 C861 1.398 . S
C862 C863 1.391 . S
C863 H851 0.950 . S
C863 C859 1.393 . S
C863 C862 1.391 . S
H864 C872 0.950 1_545 S
H865 C877 0.950 . S
H866 C874 0.950 . S
H867 C876 0.950 . S
H868 C878 0.950 . S
H869 C880 0.950 . S
H870 C882 0.950 . S
H871 C883 0.950 . S
C872 H864 0.950 1_565 S
C872 C873 1.386 . S
C872 C874 1.391 . S
C873 C872 1.386 . S
C873 C877 1.393 . S
C874 H866 0.950 . S
C874 C872 1.391 . S
C874 C875 1.400 . S
C875 C874 1.400 . S
C875 C876 1.398 . S
C875 C881 1.491 . S
C876 H867 0.950 . S
C876 C875 1.398 . S
C876 C877 1.391 . S
C877 H865 0.950 . S
C877 C873 1.393 . S
C877 C876 1.391 . S
C878 H868 0.950 . S
C878 C879 1.386 . S
C878 C880 1.391 . S
C879 C878 1.386 . S
C879 C883 1.393 . S
C880 H869 0.950 . S
C880 C878 1.391 . S
C880 C881 1.400 . S
C881 C875 1.491 . S
C881 C880 1.400 . S
C881 C882 1.398 . S
C882 H870 0.950 . S
C882 C881 1.398 . S
C882 C883 1.391 . S
C883 H871 0.950 . S
C883 C879 1.393 . S
C883 C882 1.391 . S
H884 C892 0.950 . S
H885 C897 0.950 . S
H886 C894 0.950 . S
H887 C896 0.950 . S
H888 C898 0.950 . S
H889 C900 0.924 1_655 S
H890 C902 0.950 . S
H891 C903 0.950 . S
C892 H884 0.950 . S
C892 C893 1.386 . S
C892 C894 1.391 . S
C893 C892 1.386 . S
C893 C897 1.393 . S
C894 H886 0.950 . S
C894 C892 1.391 . S
C894 C895 1.400 . S
C895 C894 1.400 . S
C895 C896 1.398 . S
C895 C901 1.491 . S
C896 H887 0.950 . S
C896 C895 1.398 . S
C896 C897 1.391 . S
C897 H885 0.950 . S
C897 C893 1.393 . S
C897 C896 1.391 . S
C898 H888 0.950 . S
C898 C899 1.386 1_655 S
C898 C900 1.391 1_655 S
C899 C898 1.386 1_455 S
C899 C903 1.393 . S
C900 H889 0.924 1_455 S
C900 C898 1.391 1_455 S
C900 C901 1.400 . S
C901 C895 1.491 . S
C901 C900 1.400 . S
C901 C902 1.398 . S
C902 H890 0.950 . S
C902 C901 1.398 . S
C902 C903 1.391 . S
C903 H891 0.950 . S
C903 C899 1.393 . S
C903 C902 1.391 . S
H904 C912 0.950 . S
H905 C917 0.950 . S
H906 C914 0.950 . S
H907 C916 0.950 . S
H908 C918 0.950 . S
H909 C920 0.950 . S
H910 C922 0.950 . S
H911 C923 0.950 . S
C912 H904 0.950 . S
C912 C913 1.386 . S
C912 C914 1.391 . S
C913 C912 1.386 . S
C913 C917 1.393 . S
C914 H906 0.950 . S
C914 C912 1.391 . S
C914 C915 1.400 . S
C915 C914 1.400 . S
C915 C916 1.398 . S
C915 C921 1.491 . S
C916 H907 0.950 . S
C916 C915 1.398 . S
C916 C917 1.391 . S
C917 H905 0.950 . S
C917 C913 1.393 . S
C917 C916 1.391 . S
C918 H908 0.950 . S
C918 C919 1.386 . S
C918 C920 1.391 . S
C919 C918 1.386 . S
C919 C923 1.393 . S
C920 H909 0.950 . S
C920 C918 1.391 . S
C920 C921 1.400 . S
C921 C915 1.491 . S
C921 C920 1.400 . S
C921 C922 1.398 . S
C922 H910 0.950 . S
C922 C921 1.398 . S
C922 C923 1.391 . S
C923 H911 0.950 . S
C923 C919 1.393 . S
C923 C922 1.391 . S
H924 C932 0.950 . S
H925 C937 0.950 . S
H926 C934 0.950 . S
H927 C936 0.950 . S
H928 C938 0.950 . S
H929 C940 0.950 . S
H930 C942 0.950 . S
H931 C943 0.950 . S
C932 H924 0.950 . S
C932 C933 1.386 . S
C932 C934 1.391 . S
C933 C932 1.386 . S
C933 C937 1.393 . S
C934 H926 0.950 . S
C934 C932 1.391 . S
C934 C935 1.400 . S
C935 C934 1.400 . S
C935 C936 1.398 . S
C935 C941 1.491 . S
C936 H927 0.950 . S
C936 C935 1.398 . S
C936 C937 1.391 . S
C937 H925 0.950 . S
C937 C933 1.393 . S
C937 C936 1.391 . S
C938 H928 0.950 . S
C938 C939 1.386 . S
C938 C940 1.391 . S
C939 C938 1.386 . S
C939 C943 1.393 . S
C940 H929 0.950 . S
C940 C938 1.391 . S
C940 C941 1.400 . S
C941 C935 1.491 . S
C941 C940 1.400 . S
C941 C942 1.398 . S
C942 H930 0.950 . S
C942 C941 1.398 . S
C942 C943 1.391 . S
C943 H931 0.950 . S
C943 C939 1.393 . S
C943 C942 1.391 . S
H944 C952 0.950 . S
H945 C957 0.950 . S
H946 C954 0.950 . S
H947 C956 0.950 . S
H948 C958 0.950 . S
H949 C960 0.950 . S
H950 C962 0.950 . S
H951 C963 0.950 . S
C952 H944 0.950 . S
C952 C953 1.386 . S
C952 C954 1.391 . S
C953 C952 1.386 . S
C953 C957 1.393 . S
C954 H946 0.950 . S
C954 C952 1.391 . S
C954 C955 1.400 . S
C955 C954 1.400 . S
C955 C956 1.398 . S
C955 C961 1.491 . S
C956 H947 0.950 . S
C956 C955 1.398 . S
C956 C957 1.391 . S
C957 H945 0.950 . S
C957 C953 1.393 . S
C957 C956 1.391 . S
C958 H948 0.950 . S
C958 C959 1.386 . S
C958 C960 1.391 . S
C959 C958 1.386 . S
C959 C963 1.393 . S
C960 H949 0.950 . S
C960 C958 1.391 . S
C960 C961 1.400 . S
C961 C955 1.491 . S
C961 C960 1.400 . S
C961 C962 1.398 . S
C962 H950 0.950 . S
C962 C961 1.398 . S
C962 C963 1.391 . S
C963 H951 0.950 . S
C963 C959 1.393 . S
C963 C962 1.391 . S
H964 C972 0.950 . S
H965 C977 0.950 . S
H966 C974 0.950 . S
H967 C976 0.950 . S
H968 C978 0.950 . S
H969 C980 0.950 . S
H970 C982 0.950 . S
H971 C983 0.950 . S
C972 H964 0.950 . S
C972 C973 1.386 . S
C972 C974 1.391 . S
C973 C972 1.386 . S
C973 C977 1.393 . S
C974 H966 0.950 . S
C974 C972 1.391 . S
C974 C975 1.400 . S
C975 C974 1.400 . S
C975 C976 1.398 . S
C975 C981 1.491 . S
C976 H967 0.950 . S
C976 C975 1.398 . S
C976 C977 1.391 . S
C977 H965 0.950 . S
C977 C973 1.393 . S
C977 C976 1.391 . S
C978 H968 0.950 . S
C978 C979 1.386 . S
C978 C980 1.391 . S
C979 C978 1.386 . S
C979 C983 1.393 1_545 S
C980 H969 0.950 . S
C980 C978 1.391 . S
C980 C981 1.400 . S
C981 C975 1.491 . S
C981 C980 1.400 . S
C981 C982 1.398 . S
C982 H970 0.950 . S
C982 C981 1.398 . S
C982 C983 1.391 1_545 S
C983 H971 0.950 . S
C983 C979 1.393 1_565 S
C983 C982 1.391 1_565 S
H984 C992 0.950 . S
H985 C997 0.950 . S
H986 C994 0.950 1_565 S
H987 C996 0.950 . S
H988 C998 0.950 . S
H989 C1000 0.950 . S
H990 C1002 0.950 . S
H991 C1003 0.950 . S
C992 H984 0.950 . S
C992 C993 1.386 1_565 S
C992 C994 1.391 1_565 S
C993 C992 1.386 1_545 S
C993 C997 1.393 . S
C994 H986 0.950 1_545 S
C994 C992 1.391 1_545 S
C994 C995 1.400 . S
C995 C994 1.400 . S
C995 C996 1.398 . S
C995 C1001 1.491 . S
C996 H987 0.950 . S
C996 C995 1.398 . S
C996 C997 1.391 . S
C997 H985 0.950 . S
C997 C993 1.393 . S
C997 C996 1.391 . S
C998 H988 0.950 . S
C998 C999 1.386 . S
C998 C1000 1.391 . S
C999 C998 1.386 . S
C999 C1003 1.393 . S
C1000 H989 0.950 . S
C1000 C998 1.391 . S
C1000 C1001 1.400 . S
C1001 C995 1.491 . S
C1001 C1000 1.400 . S
C1001 C1002 1.398 . S
C1002 H990 0.950 . S
C1002 C1001 1.398 . S
C1002 C1003 1.391 . S
C1003 H991 0.950 . S
C1003 C999 1.393 . S
C1003 C1002 1.391 . S
H1004 C1012 0.950 . S
H1005 C1017 0.950 . S
H1006 C1014 0.950 . S
H1007 C1016 0.950 . S
H1008 C1018 0.950 . S
H1009 C1020 0.950 . S
H1010 C1022 0.950 . S
H1011 C1023 0.950 . S
C1012 H1004 0.950 . S
C1012 C1013 1.386 . S
C1012 C1014 1.391 . S
C1013 C1012 1.386 . S
C1013 C1017 1.393 . S
C1014 H1006 0.950 . S
C1014 C1012 1.391 . S
C1014 C1015 1.400 . S
C1015 C1014 1.400 . S
C1015 C1016 1.398 . S
C1015 C1021 1.491 . S
C1016 H1007 0.950 . S
C1016 C1015 1.398 . S
C1016 C1017 1.391 . S
C1017 H1005 0.950 . S
C1017 C1013 1.393 . S
C1017 C1016 1.391 . S
C1018 H1008 0.950 . S
C1018 C1019 1.386 1_455 S
C1018 C1020 1.391 1_455 S
C1019 C1018 1.386 1_655 S
C1019 C1023 1.393 . S
C1020 H1009 0.950 . S
C1020 C1018 1.391 1_655 S
C1020 C1021 1.400 . S
C1021 C1015 1.491 . S
C1021 C1020 1.400 . S
C1021 C1022 1.398 . S
C1022 H1010 0.950 . S
C1022 C1021 1.398 . S
C1022 C1023 1.391 . S
C1023 H1011 0.950 . S
C1023 C1019 1.393 . S
C1023 C1022 1.391 . S
H1024 C1032 0.950 . S
H1025 C1037 0.950 . S
H1026 C1034 0.950 . S
H1027 C1036 0.950 . S
H1028 C1038 0.950 . S
H1029 C1040 0.950 . S
H1030 C1042 0.950 . S
H1031 C1043 0.950 . S
C1032 H1024 0.950 . S
C1032 C1033 1.386 . S
C1032 C1034 1.391 . S
C1033 C1032 1.386 . S
C1033 C1037 1.393 . S
C1034 H1026 0.950 . S
C1034 C1032 1.391 . S
C1034 C1035 1.400 . S
C1035 C1034 1.400 . S
C1035 C1036 1.398 . S
C1035 C1041 1.491 . S
C1036 H1027 0.950 . S
C1036 C1035 1.398 . S
C1036 C1037 1.391 . S
C1037 H1025 0.950 . S
C1037 C1033 1.393 . S
C1037 C1036 1.391 . S
C1038 H1028 0.950 . S
C1038 C1039 1.386 . S
C1038 C1040 1.391 . S
C1039 C1038 1.386 . S
C1039 C1043 1.393 . S
C1040 H1029 0.950 . S
C1040 C1038 1.391 . S
C1040 C1041 1.400 . S
C1041 C1035 1.491 . S
C1041 C1040 1.400 . S
C1041 C1042 1.398 . S
C1042 H1030 0.950 . S
C1042 C1041 1.398 . S
C1042 C1043 1.391 . S
C1043 H1031 0.950 . S
C1043 C1039 1.393 . S
C1043 C1042 1.391 . S
H1044 C1052 0.950 . S
H1045 C1057 0.950 1_655 S
H1046 C1054 0.950 . S
H1047 C1056 0.950 . S
H1048 C1058 0.950 . S
H1049 C1060 0.950 . S
H1050 C1062 0.950 . S
H1051 C1063 0.950 . S
C1052 H1044 0.950 . S
C1052 C1053 1.386 . S
C1052 C1054 1.391 . S
C1053 C1052 1.386 . S
C1053 C1057 1.393 . S
C1054 H1046 0.950 . S
C1054 C1052 1.391 . S
C1054 C1055 1.400 . S
C1055 C1054 1.400 . S
C1055 C1056 1.398 . S
C1055 C1061 1.491 . S
C1056 H1047 0.950 . S
C1056 C1055 1.398 . S
C1056 C1057 1.391 . S
C1057 H1045 0.950 1_455 S
C1057 C1053 1.393 . S
C1057 C1056 1.391 . S
C1058 H1048 0.950 . S
C1058 C1059 1.386 . S
C1058 C1060 1.391 . S
C1059 C1058 1.386 . S
C1059 C1063 1.393 . S
C1060 H1049 0.950 . S
C1060 C1058 1.391 . S
C1060 C1061 1.400 . S
C1061 C1055 1.491 . S
C1061 C1060 1.400 . S
C1061 C1062 1.398 . S
C1062 H1050 0.950 . S
C1062 C1061 1.398 . S
C1062 C1063 1.391 . S
C1063 H1051 0.950 . S
C1063 C1059 1.393 . S
C1063 C1062 1.391 . S
H1064 C1072 0.950 . S
H1065 C1077 0.950 . S
H1066 C1074 0.950 . S
H1067 C1076 0.950 . S
H1068 C1078 0.950 . S
H1069 C1080 0.950 . S
H1070 C1082 0.950 . S
H1071 C1083 0.950 . S
C1072 H1064 0.950 . S
C1072 C1073 1.386 . S
C1072 C1074 1.391 . S
C1073 C1072 1.386 . S
C1073 C1077 1.393 . S
C1074 H1066 0.950 . S
C1074 C1072 1.391 . S
C1074 C1075 1.400 . S
C1075 C1074 1.400 . S
C1075 C1076 1.398 . S
C1075 C1081 1.491 . S
C1076 H1067 0.950 . S
C1076 C1075 1.398 . S
C1076 C1077 1.391 . S
C1077 H1065 0.950 . S
C1077 C1073 1.393 . S
C1077 C1076 1.391 . S
C1078 H1068 0.950 . S
C1078 C1079 1.386 . S
C1078 C1080 1.391 . S
C1079 C1078 1.386 . S
C1079 C1083 1.393 . S
C1080 H1069 0.950 . S
C1080 C1078 1.391 . S
C1080 C1081 1.400 . S
C1081 C1075 1.491 . S
C1081 C1080 1.400 . S
C1081 C1082 1.398 . S
C1082 H1070 0.950 . S
C1082 C1081 1.398 . S
C1082 C1083 1.391 . S
C1083 H1071 0.950 . S
C1083 C1079 1.393 . S
C1083 C1082 1.391 . S
H1084 C1092 0.950 . S
H1085 C1097 0.950 . S
H1086 C1094 0.954 . S
H1087 C1096 0.950 . S
H1088 C1098 0.950 . S
H1089 C1100 0.950 . S
H1090 C1102 0.950 . S
H1091 C1103 0.950 . S
C1092 H1084 0.950 . S
C1092 C1093 1.386 1_545 S
C1092 C1094 1.391 1_545 S
C1093 C1092 1.386 1_565 S
C1093 C1097 1.393 . S
C1094 H1086 0.954 . S
C1094 C1092 1.391 1_565 S
C1094 C1095 1.400 . S
C1095 C1094 1.400 . S
C1095 C1096 1.398 . S
C1095 C1101 1.491 . S
C1096 H1087 0.950 . S
C1096 C1095 1.398 . S
C1096 C1097 1.391 . S
C1097 H1085 0.950 . S
C1097 C1093 1.393 . S
C1097 C1096 1.391 . S
C1098 H1088 0.950 . S
C1098 C1099 1.386 . S
C1098 C1100 1.391 . S
C1099 C1098 1.386 . S
C1099 C1103 1.393 . S
C1100 H1089 0.950 . S
C1100 C1098 1.391 . S
C1100 C1101 1.400 . S
C1101 C1095 1.491 . S
C1101 C1100 1.400 . S
C1101 C1102 1.398 . S
C1102 H1090 0.950 . S
C1102 C1101 1.398 . S
C1102 C1103 1.391 . S
C1103 H1091 0.950 . S
C1103 C1099 1.393 . S
C1103 C1102 1.391 . S
H1104 C1112 0.950 . S
H1105 C1117 0.950 . S
H1106 C1114 0.950 . S
H1107 C1116 0.950 . S
H1108 C1118 0.950 . S
H1109 C1120 0.950 . S
H1110 C1122 0.950 . S
H1111 C1123 0.950 . S
C1112 H1104 0.950 . S
C1112 C1113 1.386 . S
C1112 C1114 1.391 . S
C1113 C1112 1.386 . S
C1113 C1117 1.393 . S
C1114 H1106 0.950 . S
C1114 C1112 1.391 . S
C1114 C1115 1.400 . S
C1115 C1114 1.400 . S
C1115 C1116 1.398 . S
C1115 C1121 1.491 . S
C1116 H1107 0.950 . S
C1116 C1115 1.398 . S
C1116 C1117 1.391 . S
C1117 H1105 0.950 . S
C1117 C1113 1.393 . S
C1117 C1116 1.391 . S
C1118 H1108 0.950 . S
C1118 C1119 1.386 . S
C1118 C1120 1.391 . S
C1119 C1118 1.386 . S
C1119 C1123 1.393 . S
C1120 H1109 0.950 . S
C1120 C1118 1.391 . S
C1120 C1121 1.400 . S
C1121 C1115 1.491 . S
C1121 C1120 1.400 . S
C1121 C1122 1.398 . S
C1122 H1110 0.950 . S
C1122 C1121 1.398 . S
C1122 C1123 1.391 . S
C1123 H1111 0.950 . S
C1123 C1119 1.393 . S
C1123 C1122 1.391 . S
H1124 C1132 0.950 . S
H1125 C1137 0.950 . S
H1126 C1134 0.950 . S
H1127 C1136 0.950 . S
H1128 C1138 0.950 . S
H1129 C1140 0.950 . S
H1130 C1142 0.950 . S
H1131 C1143 0.950 . S
C1132 H1124 0.950 . S
C1132 C1133 1.386 . S
C1132 C1134 1.391 . S
C1133 C1132 1.386 . S
C1133 C1137 1.393 . S
C1134 H1126 0.950 . S
C1134 C1132 1.391 . S
C1134 C1135 1.400 . S
C1135 C1134 1.400 . S
C1135 C1136 1.398 . S
C1135 C1141 1.491 1_545 S
C1136 H1127 0.950 . S
C1136 C1135 1.398 . S
C1136 C1137 1.391 . S
C1137 H1125 0.950 . S
C1137 C1133 1.393 . S
C1137 C1136 1.391 . S
C1138 H1128 0.950 . S
C1138 C1139 1.386 . S
C1138 C1140 1.391 . S
C1139 C1138 1.386 . S
C1139 C1143 1.393 . S
C1140 H1129 0.950 . S
C1140 C1138 1.391 . S
C1140 C1141 1.400 . S
C1141 C1135 1.491 1_565 S
C1141 C1140 1.400 . S
C1141 C1142 1.398 . S
C1142 H1130 0.950 . S
C1142 C1141 1.398 . S
C1142 C1143 1.391 . S
C1143 H1131 0.950 . S
C1143 C1139 1.393 . S
C1143 C1142 1.391 . S
H1144 C1152 0.950 . S
H1145 C1157 0.950 . S
H1146 C1154 0.950 1_455 S
H1147 C1156 0.950 . S
H1148 C1158 0.950 . S
H1149 C1160 0.950 1_655 S
H1150 C1162 0.950 . S
H1151 C1163 0.950 . S
C1152 H1144 0.950 . S
C1152 C1153 1.386 . S
C1152 C1154 1.391 . S
C1153 C1152 1.386 . S
C1153 C1157 1.393 . S
C1154 H1146 0.950 1_655 S
C1154 C1152 1.391 . S
C1154 C1155 1.400 . S
C1155 C1154 1.400 . S
C1155 C1156 1.398 . S
C1155 C1161 1.491 1_655 S
C1156 H1147 0.950 . S
C1156 C1155 1.398 . S
C1156 C1157 1.391 . S
C1157 H1145 0.950 . S
C1157 C1153 1.393 . S
C1157 C1156 1.391 . S
C1158 H1148 0.950 . S
C1158 C1159 1.386 . S
C1158 C1160 1.391 . S
C1159 C1158 1.386 . S
C1159 C1163 1.393 . S
C1160 H1149 0.950 1_455 S
C1160 C1158 1.391 . S
C1160 C1161 1.400 . S
C1161 C1155 1.491 1_455 S
C1161 C1160 1.400 . S
C1161 C1162 1.398 . S
C1162 H1150 0.950 . S
C1162 C1161 1.398 . S
C1162 C1163 1.391 . S
C1163 H1151 0.950 . S
C1163 C1159 1.393 . S
C1163 C1162 1.391 . S
H1164 C1172 0.950 . S
H1165 C1177 0.950 . S
H1166 C1174 0.950 . S
H1167 C1176 0.950 . S
H1168 C1178 0.950 . S
H1169 C1180 0.950 . S
H1170 C1182 0.950 . S
H1171 C1183 0.950 . S
C1172 H1164 0.950 . S
C1172 C1173 1.386 . S
C1172 C1174 1.391 . S
C1173 C1172 1.386 . S
C1173 C1177 1.393 . S
C1174 H1166 0.950 . S
C1174 C1172 1.391 . S
C1174 C1175 1.400 . S
C1175 C1174 1.400 . S
C1175 C1176 1.398 . S
C1175 C1181 1.491 . S
C1176 H1167 0.950 . S
C1176 C1175 1.398 . S
C1176 C1177 1.391 . S
C1177 H1165 0.950 . S
C1177 C1173 1.393 . S
C1177 C1176 1.391 . S
C1178 H1168 0.950 . S
C1178 C1179 1.386 . S
C1178 C1180 1.391 . S
C1179 C1178 1.386 . S
C1179 C1183 1.393 . S
C1180 H1169 0.950 . S
C1180 C1178 1.391 . S
C1180 C1181 1.400 . S
C1181 C1175 1.491 . S
C1181 C1180 1.400 . S
C1181 C1182 1.398 . S
C1182 H1170 0.950 . S
C1182 C1181 1.398 . S
C1182 C1183 1.391 . S
C1183 H1171 0.950 . S
C1183 C1179 1.393 . S
C1183 C1182 1.391 . S
H1184 C1192 0.950 . S
H1185 C1197 0.950 . S
H1186 C1194 0.950 . S
H1187 C1196 0.950 1_545 S
H1188 C1198 0.950 . S
H1189 C1200 0.950 . S
H1190 C1202 0.950 1_565 S
H1191 C1203 0.950 . S
C1192 H1184 0.950 . S
C1192 C1193 1.386 . S
C1192 C1194 1.391 . S
C1193 C1192 1.386 . S
C1193 C1197 1.393 . S
C1194 H1186 0.950 . S
C1194 C1192 1.391 . S
C1194 C1195 1.400 . S
C1195 C1194 1.400 . S
C1195 C1196 1.398 . S
C1195 C1201 1.491 1_565 S
C1196 H1187 0.950 1_565 S
C1196 C1195 1.398 . S
C1196 C1197 1.391 . S
C1197 H1185 0.950 . S
C1197 C1193 1.393 . S
C1197 C1196 1.391 . S
C1198 H1188 0.950 . S
C1198 C1199 1.386 . S
C1198 C1200 1.391 . S
C1199 C1198 1.386 . S
C1199 C1203 1.393 . S
C1200 H1189 0.950 . S
C1200 C1198 1.391 . S
C1200 C1201 1.400 . S
C1201 C1195 1.491 1_545 S
C1201 C1200 1.400 . S
C1201 C1202 1.398 . S
C1202 H1190 0.950 1_545 S
C1202 C1201 1.398 . S
C1202 C1203 1.391 . S
C1203 H1191 0.950 . S
C1203 C1199 1.393 . S
C1203 C1202 1.391 . S
H1204 C1212 0.950 . S
H1205 C1217 0.950 . S
H1206 C1214 0.950 . S
H1207 C1216 0.950 . S
H1208 C1218 0.950 . S
H1209 C1220 0.950 . S
H1210 C1222 0.950 . S
H1211 C1223 0.950 . S
C1212 H1204 0.950 . S
C1212 C1213 1.386 . S
C1212 C1214 1.391 . S
C1213 C1212 1.386 . S
C1213 C1217 1.393 . S
C1214 H1206 0.950 . S
C1214 C1212 1.391 . S
C1214 C1215 1.400 . S
C1215 C1214 1.400 . S
C1215 C1216 1.398 . S
C1215 C1221 1.491 1_655 S
C1216 H1207 0.950 . S
C1216 C1215 1.398 . S
C1216 C1217 1.391 . S
C1217 H1205 0.950 . S
C1217 C1213 1.393 . S
C1217 C1216 1.391 . S
C1218 H1208 0.950 . S
C1218 C1219 1.386 . S
C1218 C1220 1.391 . S
C1219 C1218 1.386 . S
C1219 C1223 1.393 . S
C1220 H1209 0.950 . S
C1220 C1218 1.391 . S
C1220 C1221 1.400 . S
C1221 C1215 1.491 1_455 S
C1221 C1220 1.400 . S
C1221 C1222 1.398 . S
C1222 H1210 0.950 . S
C1222 C1221 1.398 . S
C1222 C1223 1.391 . S
C1223 H1211 0.950 . S
C1223 C1219 1.393 . S
C1223 C1222 1.391 . S
H1224 C1232 0.950 . S
H1225 C1237 0.950 . S
H1226 C1234 0.950 . S
H1227 C1236 0.950 . S
H1228 C1238 0.950 . S
H1229 C1240 0.950 . S
H1230 C1242 0.950 . S
H1231 C1243 0.950 . S
C1232 H1224 0.950 . S
C1232 C1233 1.386 . S
C1232 C1234 1.391 . S
C1233 C1232 1.386 . S
C1233 C1237 1.393 . S
C1234 H1226 0.950 . S
C1234 C1232 1.391 . S
C1234 C1235 1.400 . S
C1235 C1234 1.400 . S
C1235 C1236 1.398 . S
C1235 C1241 1.491 . S
C1236 H1227 0.950 . S
C1236 C1235 1.398 . S
C1236 C1237 1.391 . S
C1237 H1225 0.950 . S
C1237 C1233 1.393 . S
C1237 C1236 1.391 . S
C1238 H1228 0.950 . S
C1238 C1239 1.386 . S
C1238 C1240 1.391 . S
C1239 C1238 1.386 . S
C1239 C1243 1.393 . S
C1240 H1229 0.950 . S
C1240 C1238 1.391 . S
C1240 C1241 1.400 . S
C1241 C1235 1.491 . S
C1241 C1240 1.400 . S
C1241 C1242 1.398 . S
C1242 H1230 0.950 . S
C1242 C1241 1.398 . S
C1242 C1243 1.391 . S
C1243 H1231 0.950 . S
C1243 C1239 1.393 . S
C1243 C1242 1.391 . S
H1244 C1252 0.950 . S
H1245 C1257 0.950 . S
H1246 C1254 0.940 1_565 S
H1247 C1256 0.950 . S
H1248 C1258 0.950 . S
H1249 C1260 0.950 . S
H1250 C1262 0.950 . S
H1251 C1263 0.950 . S
C1252 H1244 0.950 . S
C1252 C1253 1.386 . S
C1252 C1254 1.391 . S
C1253 C1252 1.386 . S
C1253 C1257 1.393 . S
C1254 H1246 0.940 1_545 S
C1254 C1252 1.391 . S
C1254 C1255 1.400 1_545 S
C1255 C1254 1.400 1_565 S
C1255 C1256 1.398 1_565 S
C1255 C1261 1.491 . S
C1256 H1247 0.950 . S
C1256 C1255 1.398 1_545 S
C1256 C1257 1.391 . S
C1257 H1245 0.950 . S
C1257 C1253 1.393 . S
C1257 C1256 1.391 . S
C1258 H1248 0.950 . S
C1258 C1259 1.386 . S
C1258 C1260 1.391 . S
C1259 C1258 1.386 . S
C1259 C1263 1.393 . S
C1260 H1249 0.950 . S
C1260 C1258 1.391 . S
C1260 C1261 1.400 . S
C1261 C1255 1.491 . S
C1261 C1260 1.400 . S
C1261 C1262 1.398 . S
C1262 H1250 0.950 . S
C1262 C1261 1.398 . S
C1262 C1263 1.391 . S
C1263 H1251 0.950 . S
C1263 C1259 1.393 . S
C1263 C1262 1.391 . S
H1264 C1272 0.950 . S
H1265 C1277 0.950 . S
H1266 C1274 0.950 . S
H1267 C1276 0.950 . S
H1268 C1278 0.950 . S
H1269 C1280 0.950 . S
H1270 C1282 0.950 . S
H1271 C1283 0.950 . S
C1272 H1264 0.950 . S
C1272 C1273 1.386 . S
C1272 C1274 1.391 . S
C1273 C1272 1.386 . S
C1273 C1277 1.393 . S
C1274 H1266 0.950 . S
C1274 C1272 1.391 . S
C1274 C1275 1.400 1_655 S
C1275 C1274 1.400 1_455 S
C1275 C1276 1.398 1_455 S
C1275 C1281 1.491 . S
C1276 H1267 0.950 . S
C1276 C1275 1.398 1_655 S
C1276 C1277 1.391 . S
C1277 H1265 0.950 . S
C1277 C1273 1.393 . S
C1277 C1276 1.391 . S
C1278 H1268 0.950 . S
C1278 C1279 1.386 . S
C1278 C1280 1.391 . S
C1279 C1278 1.386 . S
C1279 C1283 1.393 . S
C1280 H1269 0.950 . S
C1280 C1278 1.391 . S
C1280 C1281 1.400 . S
C1281 C1275 1.491 . S
C1281 C1280 1.400 . S
C1281 C1282 1.398 . S
C1282 H1270 0.950 . S
C1282 C1281 1.398 . S
C1282 C1283 1.391 . S
C1283 H1271 0.950 . S
C1283 C1279 1.393 . S
C1283 C1282 1.391 . S
H1284 C1292 0.950 . S
H1285 C1297 0.950 . S
H1286 C1294 0.950 . S
H1287 C1296 0.950 . S
H1288 C1298 0.950 . S
H1289 C1300 0.950 . S
H1290 C1302 0.950 . S
H1291 C1303 0.950 . S
C1292 H1284 0.950 . S
C1292 C1293 1.386 . S
C1292 C1294 1.391 . S
C1293 C1292 1.386 . S
C1293 C1297 1.393 . S
C1294 H1286 0.950 . S
C1294 C1292 1.391 . S
C1294 C1295 1.400 . S
C1295 C1294 1.400 . S
C1295 C1296 1.398 . S
C1295 C1301 1.491 . S
C1296 H1287 0.950 . S
C1296 C1295 1.398 . S
C1296 C1297 1.391 . S
C1297 H1285 0.950 . S
C1297 C1293 1.393 . S
C1297 C1296 1.391 . S
C1298 H1288 0.950 . S
C1298 C1299 1.386 . S
C1298 C1300 1.391 . S
C1299 C1298 1.386 . S
C1299 C1303 1.393 . S
C1300 H1289 0.950 . S
C1300 C1298 1.391 . S
C1300 C1301 1.400 . S
C1301 C1295 1.491 . S
C1301 C1300 1.400 . S
C1301 C1302 1.398 . S
C1302 H1290 0.950 . S
C1302 C1301 1.398 . S
C1302 C1303 1.391 . S
C1303 H1291 0.950 . S
C1303 C1299 1.393 . S
C1303 C1302 1.391 . S
H1304 C1312 0.950 . S
H1305 C1317 0.950 . S
H1306 C1314 0.950 . S
H1307 C1316 0.950 . S
H1308 C1318 0.950 . S
H1309 C1320 0.950 1_545 S
H1310 C1322 0.950 . S
H1311 C1323 0.950 . S
C1312 H1304 0.950 . S
C1312 C1313 1.386 . S
C1312 C1314 1.391 . S
C1313 C1312 1.386 . S
C1313 C1317 1.393 . S
C1314 H1306 0.950 . S
C1314 C1312 1.391 . S
C1314 C1315 1.400 . S
C1315 C1314 1.400 . S
C1315 C1316 1.398 . S
C1315 C1321 1.491 . S
C1316 H1307 0.950 . S
C1316 C1315 1.398 . S
C1316 C1317 1.391 . S
C1317 H1305 0.950 . S
C1317 C1313 1.393 . S
C1317 C1316 1.391 . S
C1318 H1308 0.950 . S
C1318 C1319 1.386 . S
C1318 C1320 1.391 . S
C1319 C1318 1.386 . S
C1319 C1323 1.393 . S
C1320 H1309 0.950 1_565 S
C1320 C1318 1.391 . S
C1320 C1321 1.400 1_565 S
C1321 C1315 1.491 . S
C1321 C1320 1.400 1_545 S
C1321 C1322 1.398 1_545 S
C1322 H1310 0.950 . S
C1322 C1321 1.398 1_565 S
C1322 C1323 1.391 . S
C1323 H1311 0.950 . S
C1323 C1319 1.393 . S
C1323 C1322 1.391 . S
H1324 C1332 0.950 . S
H1325 C1337 0.950 . S
H1326 C1334 0.950 1_655 S
H1327 C1336 0.950 . S
H1328 C1338 0.950 . S
H1329 C1340 0.950 . S
H1330 C1342 0.950 . S
H1331 C1343 0.950 . S
C1332 H1324 0.950 . S
C1332 C1333 1.386 . S
C1332 C1334 1.391 . S
C1333 C1332 1.386 . S
C1333 C1337 1.393 . S
C1334 H1326 0.950 1_455 S
C1334 C1332 1.391 . S
C1334 C1335 1.400 1_455 S
C1335 C1334 1.400 1_655 S
C1335 C1336 1.398 1_655 S
C1335 C1341 1.491 . S
C1336 H1327 0.950 . S
C1336 C1335 1.398 1_455 S
C1336 C1337 1.391 . S
C1337 H1325 0.950 . S
C1337 C1333 1.393 . S
C1337 C1336 1.391 . S
C1338 H1328 0.950 . S
C1338 C1339 1.386 . S
C1338 C1340 1.391 . S
C1339 C1338 1.386 . S
C1339 C1343 1.393 . S
C1340 H1329 0.950 . S
C1340 C1338 1.391 . S
C1340 C1341 1.400 . S
C1341 C1335 1.491 . S
C1341 C1340 1.400 . S
C1341 C1342 1.398 . S
C1342 H1330 0.950 . S
C1342 C1341 1.398 . S
C1342 C1343 1.391 . S
C1343 H1331 0.950 . S
C1343 C1339 1.393 . S
C1343 C1342 1.391 . S
H1344 C1352 0.950 . S
H1345 C1357 0.950 . S
H1346 C1354 0.950 . S
H1347 C1356 0.950 . S
H1348 C1358 0.950 . S
H1349 C1360 0.950 . S
H1350 C1362 0.950 . S
H1351 C1363 0.950 . S
C1352 H1344 0.950 . S
C1352 C1353 1.386 . S
C1352 C1354 1.391 . S
C1353 C1352 1.386 . S
C1353 C1357 1.393 . S
C1354 H1346 0.950 . S
C1354 C1352 1.391 . S
C1354 C1355 1.400 . S
C1355 C1354 1.400 . S
C1355 C1356 1.398 . S
C1355 C1361 1.491 . S
C1356 H1347 0.950 . S
C1356 C1355 1.398 . S
C1356 C1357 1.391 . S
C1357 H1345 0.950 . S
C1357 C1353 1.393 . S
C1357 C1356 1.391 . S
C1358 H1348 0.950 . S
C1358 C1359 1.386 . S
C1358 C1360 1.391 . S
C1359 C1358 1.386 . S
C1359 C1363 1.393 . S
C1360 H1349 0.950 . S
C1360 C1358 1.391 . S
C1360 C1361 1.400 . S
C1361 C1355 1.491 . S
C1361 C1360 1.400 . S
C1361 C1362 1.398 . S
C1362 H1350 0.950 . S
C1362 C1361 1.398 . S
C1362 C1363 1.391 . S
C1363 H1351 0.950 . S
C1363 C1359 1.393 . S
C1363 C1362 1.391 . S
H1364 C1372 0.950 . S
H1365 C1377 0.950 . S
H1366 C1374 0.950 1_545 S
H1367 C1376 0.950 . S
H1368 C1378 0.950 . S
H1369 C1380 0.950 . S
H1370 C1382 0.950 . S
H1371 C1383 0.950 . S
C1372 H1364 0.950 . S
C1372 C1373 1.386 . S
C1372 C1374 1.391 . S
C1373 C1372 1.386 . S
C1373 C1377 1.393 . S
C1374 H1366 0.950 1_565 S
C1374 C1372 1.391 . S
C1374 C1375 1.400 1_565 S
C1375 C1374 1.400 1_545 S
C1375 C1376 1.398 1_545 S
C1375 C1381 1.491 . S
C1376 H1367 0.950 . S
C1376 C1375 1.398 1_565 S
C1376 C1377 1.391 . S
C1377 H1365 0.950 . S
C1377 C1373 1.393 . S
C1377 C1376 1.391 . S
C1378 H1368 0.950 . S
C1378 C1379 1.386 . S
C1378 C1380 1.391 . S
C1379 C1378 1.386 . S
C1379 C1383 1.393 . S
C1380 H1369 0.950 . S
C1380 C1378 1.391 . S
C1380 C1381 1.400 . S
C1381 C1375 1.491 . S
C1381 C1380 1.400 . S
C1381 C1382 1.398 . S
C1382 H1370 0.950 . S
C1382 C1381 1.398 . S
C1382 C1383 1.391 . S
C1383 H1371 0.950 . S
C1383 C1379 1.393 . S
C1383 C1382 1.391 . S
H1384 C1392 0.950 . S
H1385 C1397 0.950 . S
H1386 C1394 0.950 1_655 S
H1387 C1396 0.950 . S
H1388 C1398 0.950 . S
H1389 C1400 0.950 . S
H1390 C1402 0.950 . S
H1391 C1403 0.950 . S
C1392 H1384 0.950 . S
C1392 C1393 1.386 . S
C1392 C1394 1.391 . S
C1393 C1392 1.386 . S
C1393 C1397 1.393 . S
C1394 H1386 0.950 1_455 S
C1394 C1392 1.391 . S
C1394 C1395 1.400 1_455 S
C1395 C1394 1.400 1_655 S
C1395 C1396 1.398 1_655 S
C1395 C1401 1.491 . S
C1396 H1387 0.950 . S
C1396 C1395 1.398 1_455 S
C1396 C1397 1.391 . S
C1397 H1385 0.950 . S
C1397 C1393 1.393 . S
C1397 C1396 1.391 . S
C1398 H1388 0.950 . S
C1398 C1399 1.386 . S
C1398 C1400 1.391 . S
C1399 C1398 1.386 . S
C1399 C1403 1.393 . S
C1400 H1389 0.950 . S
C1400 C1398 1.391 . S
C1400 C1401 1.400 . S
C1401 C1395 1.491 . S
C1401 C1400 1.400 . S
C1401 C1402 1.398 . S
C1402 H1390 0.950 . S
C1402 C1401 1.398 . S
C1402 C1403 1.391 . S
C1403 H1391 0.950 . S
C1403 C1399 1.393 . S
C1403 C1402 1.391 . S
H1404 C1412 0.950 . S
H1405 C1417 0.950 . S
H1406 C1414 0.950 . S
H1407 C1416 0.950 . S
H1408 C1418 0.950 . S
H1409 C1420 0.950 . S
H1410 C1422 0.950 . S
H1411 C1423 0.950 . S
C1412 H1404 0.950 . S
C1412 C1413 1.386 . S
C1412 C1414 1.391 . S
C1413 C1412 1.386 . S
C1413 C1417 1.393 . S
C1414 H1406 0.950 . S
C1414 C1412 1.391 . S
C1414 C1415 1.400 . S
C1415 C1414 1.400 . S
C1415 C1416 1.398 . S
C1415 C1421 1.491 . S
C1416 H1407 0.950 . S
C1416 C1415 1.398 . S
C1416 C1417 1.391 . S
C1417 H1405 0.950 . S
C1417 C1413 1.393 . S
C1417 C1416 1.391 . S
C1418 H1408 0.950 . S
C1418 C1419 1.386 . S
C1418 C1420 1.391 . S
C1419 C1418 1.386 . S
C1419 C1423 1.393 . S
C1420 H1409 0.950 . S
C1420 C1418 1.391 . S
C1420 C1421 1.400 . S
C1421 C1415 1.491 . S
C1421 C1420 1.400 . S
C1421 C1422 1.398 . S
C1422 H1410 0.950 . S
C1422 C1421 1.398 . S
C1422 C1423 1.391 . S
C1423 H1411 0.950 . S
C1423 C1419 1.393 . S
C1423 C1422 1.391 . S
H1424 C1432 0.950 . S
H1425 C1437 0.950 . S
H1426 C1434 0.933 1_565 S
H1427 C1436 0.950 . S
H1428 C1438 0.950 . S
H1429 C1440 0.950 . S
H1430 C1442 0.950 . S
H1431 C1443 0.950 . S
C1432 H1424 0.950 . S
C1432 C1433 1.386 . S
C1432 C1434 1.391 . S
C1433 C1432 1.386 . S
C1433 C1437 1.393 . S
C1434 H1426 0.933 1_545 S
C1434 C1432 1.391 . S
C1434 C1435 1.400 1_545 S
C1435 C1434 1.400 1_565 S
C1435 C1436 1.398 1_565 S
C1435 C1441 1.491 . S
C1436 H1427 0.950 . S
C1436 C1435 1.398 1_545 S
C1436 C1437 1.391 . S
C1437 H1425 0.950 . S
C1437 C1433 1.393 . S
C1437 C1436 1.391 . S
C1438 H1428 0.950 . S
C1438 C1439 1.386 . S
C1438 C1440 1.391 . S
C1439 C1438 1.386 . S
C1439 C1443 1.393 . S
C1440 H1429 0.950 . S
C1440 C1438 1.391 . S
C1440 C1441 1.400 . S
C1441 C1435 1.491 . S
C1441 C1440 1.400 . S
C1441 C1442 1.398 . S
C1442 H1430 0.950 . S
C1442 C1441 1.398 . S
C1442 C1443 1.391 . S
C1443 H1431 0.950 . S
C1443 C1439 1.393 . S
C1443 C1442 1.391 . S
H1444 C1452 0.950 . S
H1445 C1457 0.950 . S
H1446 C1454 0.950 . S
H1447 C1456 0.950 . S
H1448 C1458 0.950 . S
H1449 C1460 0.950 . S
H1450 C1462 0.950 1_455 S
H1451 C1463 0.950 . S
C1452 H1444 0.950 . S
C1452 C1453 1.386 . S
C1452 C1454 1.391 . S
C1453 C1452 1.386 . S
C1453 C1457 1.393 . S
C1454 H1446 0.950 . S
C1454 C1452 1.391 . S
C1454 C1455 1.400 . S
C1455 C1454 1.400 . S
C1455 C1456 1.398 . S
C1455 C1461 1.491 . S
C1456 H1447 0.950 . S
C1456 C1455 1.398 . S
C1456 C1457 1.391 . S
C1457 H1445 0.950 . S
C1457 C1453 1.393 . S
C1457 C1456 1.391 . S
C1458 H1448 0.950 . S
C1458 C1459 1.386 . S
C1458 C1460 1.391 . S
C1459 C1458 1.386 . S
C1459 C1463 1.393 . S
C1460 H1449 0.950 . S
C1460 C1458 1.391 . S
C1460 C1461 1.400 1_655 S
C1461 C1455 1.491 . S
C1461 C1460 1.400 1_455 S
C1461 C1462 1.398 1_455 S
C1462 H1450 0.950 1_655 S
C1462 C1461 1.398 1_655 S
C1462 C1463 1.391 . S
C1463 H1451 0.950 . S
C1463 C1459 1.393 . S
C1463 C1462 1.391 . S
H1464 C1472 0.950 . S
H1465 C1477 0.950 . S
H1466 C1474 0.950 . S
H1467 C1476 0.950 . S
H1468 C1478 0.950 . S
H1469 C1480 0.950 . S
H1470 C1482 0.950 . S
H1471 C1483 0.950 . S
C1472 H1464 0.950 . S
C1472 C1473 1.386 . S
C1472 C1474 1.391 . S
C1473 C1472 1.386 . S
C1473 C1477 1.393 . S
C1474 H1466 0.950 . S
C1474 C1472 1.391 . S
C1474 C1475 1.400 . S
C1475 C1474 1.400 . S
C1475 C1476 1.398 . S
C1475 C1481 1.491 . S
C1476 H1467 0.950 . S
C1476 C1475 1.398 . S
C1476 C1477 1.391 . S
C1477 H1465 0.950 . S
C1477 C1473 1.393 . S
C1477 C1476 1.391 . S
C1478 H1468 0.950 . S
C1478 C1479 1.386 . S
C1478 C1480 1.391 . S
C1479 C1478 1.386 . S
C1479 C1483 1.393 . S
C1480 H1469 0.950 . S
C1480 C1478 1.391 . S
C1480 C1481 1.400 . S
C1481 C1475 1.491 . S
C1481 C1480 1.400 . S
C1481 C1482 1.398 . S
C1482 H1470 0.950 . S
C1482 C1481 1.398 . S
C1482 C1483 1.391 . S
C1483 H1471 0.950 . S
C1483 C1479 1.393 . S
C1483 C1482 1.391 . S
H1484 C1492 0.950 . S
H1485 C1497 0.950 . S
H1486 C1494 0.950 . S
H1487 C1496 0.950 . S
H1488 C1498 0.950 . S
H1489 C1500 0.950 . S
H1490 C1502 0.950 . S
H1491 C1503 0.950 . S
C1492 H1484 0.950 . S
C1492 C1493 1.386 . S
C1492 C1494 1.391 . S
C1493 C1492 1.386 . S
C1493 C1497 1.393 . S
C1494 H1486 0.950 . S
C1494 C1492 1.391 . S
C1494 C1495 1.400 . S
C1495 C1494 1.400 . S
C1495 C1496 1.398 . S
C1495 C1501 1.491 . S
C1496 H1487 0.950 . S
C1496 C1495 1.398 . S
C1496 C1497 1.391 . S
C1497 H1485 0.950 . S
C1497 C1493 1.393 . S
C1497 C1496 1.391 . S
C1498 H1488 0.950 . S
C1498 C1499 1.386 . S
C1498 C1500 1.391 . S
C1499 C1498 1.386 . S
C1499 C1503 1.393 . S
C1500 H1489 0.950 . S
C1500 C1498 1.391 . S
C1500 C1501 1.400 . S
C1501 C1495 1.491 . S
C1501 C1500 1.400 . S
C1501 C1502 1.398 . S
C1502 H1490 0.950 . S
C1502 C1501 1.398 . S
C1502 C1503 1.391 . S
C1503 H1491 0.950 . S
C1503 C1499 1.393 . S
C1503 C1502 1.391 . S
H1504 C1512 0.950 . S
H1505 C1517 0.950 . S
H1506 C1514 0.950 . S
H1507 C1516 0.950 . S
H1508 C1518 0.950 . S
H1509 C1520 0.950 . S
H1510 C1522 0.950 . S
H1511 C1523 0.950 . S
C1512 H1504 0.950 . S
C1512 C1513 1.386 . S
C1512 C1514 1.391 . S
C1513 C1512 1.386 . S
C1513 C1517 1.393 . S
C1514 H1506 0.950 . S
C1514 C1512 1.391 . S
C1514 C1515 1.400 . S
C1515 C1514 1.400 . S
C1515 C1516 1.398 . S
C1515 C1521 1.491 . S
C1516 H1507 0.950 . S
C1516 C1515 1.398 . S
C1516 C1517 1.391 . S
C1517 H1505 0.950 . S
C1517 C1513 1.393 . S
C1517 C1516 1.391 . S
C1518 H1508 0.950 . S
C1518 C1519 1.386 . S
C1518 C1520 1.391 . S
C1519 C1518 1.386 . S
C1519 C1523 1.393 . S
C1520 H1509 0.950 . S
C1520 C1518 1.391 . S
C1520 C1521 1.400 . S
C1521 C1515 1.491 . S
C1521 C1520 1.400 . S
C1521 C1522 1.398 . S
C1522 H1510 0.950 . S
C1522 C1521 1.398 . S
C1522 C1523 1.391 . S
C1523 H1511 0.950 . S
C1523 C1519 1.393 . S
C1523 C1522 1.391 . S
H1524 C1532 0.950 . S
H1525 C1537 0.950 . S
H1526 C1534 0.950 . S
H1527 C1536 0.950 . S
H1528 C1538 0.950 . S
H1529 C1540 0.950 . S
H1530 C1542 0.950 . S
H1531 C1543 0.950 . S
C1532 H1524 0.950 . S
C1532 C1533 1.386 . S
C1532 C1534 1.391 . S
C1533 C1532 1.386 . S
C1533 C1537 1.393 . S
C1534 H1526 0.950 . S
C1534 C1532 1.391 . S
C1534 C1535 1.400 . S
C1535 C1534 1.400 . S
C1535 C1536 1.398 . S
C1535 C1541 1.491 . S
C1536 H1527 0.950 . S
C1536 C1535 1.398 . S
C1536 C1537 1.391 . S
C1537 H1525 0.950 . S
C1537 C1533 1.393 . S
C1537 C1536 1.391 . S
C1538 H1528 0.950 . S
C1538 C1539 1.386 . S
C1538 C1540 1.391 . S
C1539 C1538 1.386 . S
C1539 C1543 1.393 . S
C1540 H1529 0.950 . S
C1540 C1538 1.391 . S
C1540 C1541 1.400 . S
C1541 C1535 1.491 . S
C1541 C1540 1.400 . S
C1541 C1542 1.398 . S
C1542 H1530 0.950 . S
C1542 C1541 1.398 . S
C1542 C1543 1.391 . S
C1543 H1531 0.950 . S
C1543 C1539 1.393 . S
C1543 C1542 1.391 . S
H1544 C1552 0.950 . S
H1545 C1557 0.950 . S
H1546 C1554 0.950 . S
H1547 C1556 0.950 . S
H1548 C1558 0.950 . S
H1549 C1560 0.950 . S
H1550 C1562 0.950 . S
H1551 C1563 0.950 . S
C1552 H1544 0.950 . S
C1552 C1553 1.386 . S
C1552 C1554 1.391 . S
C1553 C1552 1.386 . S
C1553 C1557 1.393 . S
C1554 H1546 0.950 . S
C1554 C1552 1.391 . S
C1554 C1555 1.400 . S
C1555 C1554 1.400 . S
C1555 C1556 1.398 . S
C1555 C1561 1.491 . S
C1556 H1547 0.950 . S
C1556 C1555 1.398 . S
C1556 C1557 1.391 . S
C1557 H1545 0.950 . S
C1557 C1553 1.393 . S
C1557 C1556 1.391 . S
C1558 H1548 0.950 . S
C1558 C1559 1.386 . S
C1558 C1560 1.391 . S
C1559 C1558 1.386 . S
C1559 C1563 1.393 . S
C1560 H1549 0.950 . S
C1560 C1558 1.391 . S
C1560 C1561 1.400 . S
C1561 C1555 1.491 . S
C1561 C1560 1.400 . S
C1561 C1562 1.398 . S
C1562 H1550 0.950 . S
C1562 C1561 1.398 . S
C1562 C1563 1.391 . S
C1563 H1551 0.950 . S
C1563 C1559 1.393 . S
C1563 C1562 1.391 . S
H1564 C1572 0.950 . S
H1565 C1577 0.950 . S
H1566 C1574 0.950 . S
H1567 C1576 0.950 . S
H1568 C1578 0.950 . S
H1569 C1580 0.950 . S
H1570 C1582 0.950 . S
H1571 C1583 0.950 . S
C1572 H1564 0.950 . S
C1572 C1573 1.386 . S
C1572 C1574 1.391 . S
C1573 C1572 1.386 . S
C1573 C1577 1.393 . S
C1574 H1566 0.950 . S
C1574 C1572 1.391 . S
C1574 C1575 1.400 . S
C1575 C1574 1.400 . S
C1575 C1576 1.398 . S
C1575 C1581 1.491 . S
C1576 H1567 0.950 . S
C1576 C1575 1.398 . S
C1576 C1577 1.391 . S
C1577 H1565 0.950 . S
C1577 C1573 1.393 . S
C1577 C1576 1.391 . S
C1578 H1568 0.950 . S
C1578 C1579 1.386 . S
C1578 C1580 1.391 . S
C1579 C1578 1.386 . S
C1579 C1583 1.393 . S
C1580 H1569 0.950 . S
C1580 C1578 1.391 . S
C1580 C1581 1.400 . S
C1581 C1575 1.491 . S
C1581 C1580 1.400 . S
C1581 C1582 1.398 . S
C1582 H1570 0.950 . S
C1582 C1581 1.398 . S
C1582 C1583 1.391 . S
C1583 H1571 0.950 . S
C1583 C1579 1.393 . S
C1583 C1582 1.391 . S
H1584 C1592 0.950 . S
H1585 C1597 0.950 . S
H1586 C1594 0.950 . S
H1587 C1596 0.950 . S
H1588 C1598 0.950 . S
H1589 C1600 0.950 . S
H1590 C1602 0.950 . S
H1591 C1603 0.950 . S
C1592 H1584 0.950 . S
C1592 C1593 1.386 . S
C1592 C1594 1.391 . S
C1593 C1592 1.386 . S
C1593 C1597 1.393 . S
C1594 H1586 0.950 . S
C1594 C1592 1.391 . S
C1594 C1595 1.400 . S
C1595 C1594 1.400 . S
C1595 C1596 1.398 . S
C1595 C1601 1.491 . S
C1596 H1587 0.950 . S
C1596 C1595 1.398 . S
C1596 C1597 1.391 . S
C1597 H1585 0.950 . S
C1597 C1593 1.393 . S
C1597 C1596 1.391 . S
C1598 H1588 0.950 . S
C1598 C1599 1.386 . S
C1598 C1600 1.391 . S
C1599 C1598 1.386 . S
C1599 C1603 1.393 . S
C1600 H1589 0.950 . S
C1600 C1598 1.391 . S
C1600 C1601 1.400 . S
C1601 C1595 1.491 . S
C1601 C1600 1.400 . S
C1601 C1602 1.398 . S
C1602 H1590 0.950 . S
C1602 C1601 1.398 . S
C1602 C1603 1.391 . S
C1603 H1591 0.950 . S
C1603 C1599 1.393 . S
C1603 C1602 1.391 . S
H1604 C1612 0.950 . S
H1605 C1617 0.950 . S
H1606 C1614 0.950 . S
H1607 C1616 0.950 . S
H1608 C1618 0.950 . S
H1609 C1620 0.950 . S
H1610 C1622 0.950 . S
H1611 C1623 0.950 . S
C1612 H1604 0.950 . S
C1612 C1613 1.386 . S
C1612 C1614 1.391 . S
C1613 C1612 1.386 . S
C1613 C1617 1.393 . S
C1614 H1606 0.950 . S
C1614 C1612 1.391 . S
C1614 C1615 1.400 . S
C1615 C1614 1.400 . S
C1615 C1616 1.398 . S
C1615 C1621 1.491 . S
C1616 H1607 0.950 . S
C1616 C1615 1.398 . S
C1616 C1617 1.391 . S
C1617 H1605 0.950 . S
C1617 C1613 1.393 . S
C1617 C1616 1.391 . S
C1618 H1608 0.950 . S
C1618 C1619 1.386 . S
C1618 C1620 1.391 . S
C1619 C1618 1.386 . S
C1619 C1623 1.393 . S
C1620 H1609 0.950 . S
C1620 C1618 1.391 . S
C1620 C1621 1.400 . S
C1621 C1615 1.491 . S
C1621 C1620 1.400 . S
C1621 C1622 1.398 . S
C1622 H1610 0.950 . S
C1622 C1621 1.398 . S
C1622 C1623 1.391 . S
C1623 H1611 0.950 . S
C1623 C1619 1.393 . S
C1623 C1622 1.391 . S
H1624 C1632 0.950 . S
H1625 C1637 0.950 . S
H1626 C1634 0.950 . S
H1627 C1636 0.950 . S
H1628 C1638 0.950 . S
H1629 C1640 0.950 . S
H1630 C1642 0.950 . S
H1631 C1643 0.950 . S
C1632 H1624 0.950 . S
C1632 C1633 1.386 . S
C1632 C1634 1.391 . S
C1633 C1632 1.386 . S
C1633 C1637 1.393 . S
C1634 H1626 0.950 . S
C1634 C1632 1.391 . S
C1634 C1635 1.400 . S
C1635 C1634 1.400 . S
C1635 C1636 1.398 . S
C1635 C1641 1.491 . S
C1636 H1627 0.950 . S
C1636 C1635 1.398 . S
C1636 C1637 1.391 . S
C1637 H1625 0.950 . S
C1637 C1633 1.393 . S
C1637 C1636 1.391 . S
C1638 H1628 0.950 . S
C1638 C1639 1.386 . S
C1638 C1640 1.391 . S
C1639 C1638 1.386 . S
C1639 C1643 1.393 . S
C1640 H1629 0.950 . S
C1640 C1638 1.391 . S
C1640 C1641 1.400 . S
C1641 C1635 1.491 . S
C1641 C1640 1.400 . S
C1641 C1642 1.398 . S
C1642 H1630 0.950 . S
C1642 C1641 1.398 . S
C1642 C1643 1.391 . S
C1643 H1631 0.950 . S
C1643 C1639 1.393 . S
C1643 C1642 1.391 . S
H1644 C1652 0.950 . S
H1645 C1657 0.950 . S
H1646 C1654 0.950 . S
H1647 C1656 0.950 . S
H1648 C1658 0.950 . S
H1649 C1660 0.950 . S
H1650 C1662 0.950 . S
H1651 C1663 0.950 . S
C1652 H1644 0.950 . S
C1652 C1653 1.386 . S
C1652 C1654 1.391 . S
C1653 C1652 1.386 . S
C1653 C1657 1.393 . S
C1654 H1646 0.950 . S
C1654 C1652 1.391 . S
C1654 C1655 1.400 . S
C1655 C1654 1.400 . S
C1655 C1656 1.398 . S
C1655 C1661 1.491 . S
C1656 H1647 0.950 . S
C1656 C1655 1.398 . S
C1656 C1657 1.391 . S
C1657 H1645 0.950 . S
C1657 C1653 1.393 . S
C1657 C1656 1.391 . S
C1658 H1648 0.950 . S
C1658 C1659 1.386 . S
C1658 C1660 1.391 . S
C1659 C1658 1.386 . S
C1659 C1663 1.393 . S
C1660 H1649 0.950 . S
C1660 C1658 1.391 . S
C1660 C1661 1.400 . S
C1661 C1655 1.491 . S
C1661 C1660 1.400 . S
C1661 C1662 1.398 . S
C1662 H1650 0.950 . S
C1662 C1661 1.398 . S
C1662 C1663 1.391 . S
C1663 H1651 0.950 . S
C1663 C1659 1.393 . S
C1663 C1662 1.391 . S
H1664 C1672 0.950 . S
H1665 C1677 0.950 . S
H1666 C1674 0.950 . S
H1667 C1676 0.950 . S
H1668 C1678 0.950 . S
H1669 C1680 0.950 . S
H1670 C1682 0.950 . S
H1671 C1683 0.950 . S
C1672 H1664 0.950 . S
C1672 C1673 1.386 . S
C1672 C1674 1.391 . S
C1673 C1672 1.386 . S
C1673 C1677 1.393 . S
C1674 H1666 0.950 . S
C1674 C1672 1.391 . S
C1674 C1675 1.400 . S
C1675 C1674 1.400 . S
C1675 C1676 1.398 . S
C1675 C1681 1.491 . S
C1676 H1667 0.950 . S
C1676 C1675 1.398 . S
C1676 C1677 1.391 . S
C1677 H1665 0.950 . S
C1677 C1673 1.393 . S
C1677 C1676 1.391 . S
C1678 H1668 0.950 . S
C1678 C1679 1.386 . S
C1678 C1680 1.391 . S
C1679 C1678 1.386 . S
C1679 C1683 1.393 . S
C1680 H1669 0.950 . S
C1680 C1678 1.391 . S
C1680 C1681 1.400 . S
C1681 C1675 1.491 . S
C1681 C1680 1.400 . S
C1681 C1682 1.398 . S
C1682 H1670 0.950 . S
C1682 C1681 1.398 . S
C1682 C1683 1.391 . S
C1683 H1671 0.950 . S
C1683 C1679 1.393 . S
C1683 C1682 1.391 . S
H1684 C1692 0.950 . S
H1685 C1697 0.950 . S
H1686 C1694 0.950 . S
H1687 C1696 0.950 . S
H1688 C1698 0.950 . S
H1689 C1700 0.950 . S
H1690 C1702 0.950 . S
H1691 C1703 0.950 . S
C1692 H1684 0.950 . S
C1692 C1693 1.386 . S
C1692 C1694 1.391 . S
C1693 C1692 1.386 . S
C1693 C1697 1.393 . S
C1694 H1686 0.950 . S
C1694 C1692 1.391 . S
C1694 C1695 1.400 . S
C1695 C1694 1.400 . S
C1695 C1696 1.398 . S
C1695 C1701 1.491 . S
C1696 H1687 0.950 . S
C1696 C1695 1.398 . S
C1696 C1697 1.391 . S
C1697 H1685 0.950 . S
C1697 C1693 1.393 . S
C1697 C1696 1.391 . S
C1698 H1688 0.950 . S
C1698 C1699 1.386 . S
C1698 C1700 1.391 . S
C1699 C1698 1.386 . S
C1699 C1703 1.393 . S
C1700 H1689 0.950 . S
C1700 C1698 1.391 . S
C1700 C1701 1.400 . S
C1701 C1695 1.491 . S
C1701 C1700 1.400 . S
C1701 C1702 1.398 . S
C1702 H1690 0.950 . S
C1702 C1701 1.398 . S
C1702 C1703 1.391 . S
C1703 H1691 0.950 . S
C1703 C1699 1.393 . S
C1703 C1702 1.391 . S
H1704 C1712 0.950 . S
H1705 C1717 0.950 . S
H1706 C1714 0.950 . S
H1707 C1716 0.950 . S
H1708 C1718 0.950 . S
H1709 C1720 0.950 . S
H1710 C1722 0.950 . S
H1711 C1723 0.950 . S
C1712 H1704 0.950 . S
C1712 C1713 1.386 . S
C1712 C1714 1.391 . S
C1713 C1712 1.386 . S
C1713 C1717 1.393 . S
C1714 H1706 0.950 . S
C1714 C1712 1.391 . S
C1714 C1715 1.400 . S
C1715 C1714 1.400 . S
C1715 C1716 1.398 . S
C1715 C1721 1.491 . S
C1716 H1707 0.950 . S
C1716 C1715 1.398 . S
C1716 C1717 1.391 . S
C1717 H1705 0.950 . S
C1717 C1713 1.393 . S
C1717 C1716 1.391 . S
C1718 H1708 0.950 . S
C1718 C1719 1.386 . S
C1718 C1720 1.391 . S
C1719 C1718 1.386 . S
C1719 C1723 1.393 . S
C1720 H1709 0.950 . S
C1720 C1718 1.391 . S
C1720 C1721 1.400 . S
C1721 C1715 1.491 . S
C1721 C1720 1.400 . S
C1721 C1722 1.398 . S
C1722 H1710 0.950 . S
C1722 C1721 1.398 . S
C1722 C1723 1.391 . S
C1723 H1711 0.950 . S
C1723 C1719 1.393 . S
C1723 C1722 1.391 . S
H1724 C1732 0.950 . S
H1725 C1737 0.950 . S
H1726 C1734 0.950 . S
H1727 C1736 0.950 . S
H1728 C1738 0.950 . S
H1729 C1740 0.950 . S
H1730 C1742 0.950 . S
H1731 C1743 0.950 . S
C1732 H1724 0.950 . S
C1732 C1733 1.386 . S
C1732 C1734 1.391 . S
C1733 C1732 1.386 . S
C1733 C1737 1.393 . S
C1734 H1726 0.950 . S
C1734 C1732 1.391 . S
C1734 C1735 1.400 . S
C1735 C1734 1.400 . S
C1735 C1736 1.398 . S
C1735 C1741 1.491 . S
C1736 H1727 0.950 . S
C1736 C1735 1.398 . S
C1736 C1737 1.391 . S
C1737 H1725 0.950 . S
C1737 C1733 1.393 . S
C1737 C1736 1.391 . S
C1738 H1728 0.950 . S
C1738 C1739 1.386 . S
C1738 C1740 1.391 . S
C1739 C1738 1.386 . S
C1739 C1743 1.393 . S
C1740 H1729 0.950 . S
C1740 C1738 1.391 . S
C1740 C1741 1.400 . S
C1741 C1735 1.491 . S
C1741 C1740 1.400 . S
C1741 C1742 1.398 . S
C1742 H1730 0.950 . S
C1742 C1741 1.398 . S
C1742 C1743 1.391 . S
C1743 H1731 0.950 . S
C1743 C1739 1.393 . S
C1743 C1742 1.391 . S
H1744 C1752 0.950 . S
H1745 C1757 0.950 . S
H1746 C1754 0.950 . S
H1747 C1756 0.950 . S
H1748 C1758 0.950 . S
H1749 C1760 0.950 . S
H1750 C1762 0.950 . S
H1751 C1763 0.950 . S
C1752 H1744 0.950 . S
C1752 C1753 1.386 . S
C1752 C1754 1.391 . S
C1753 C1752 1.386 . S
C1753 C1757 1.393 . S
C1754 H1746 0.950 . S
C1754 C1752 1.391 . S
C1754 C1755 1.400 . S
C1755 C1754 1.400 . S
C1755 C1756 1.398 . S
C1755 C1761 1.491 . S
C1756 H1747 0.950 . S
C1756 C1755 1.398 . S
C1756 C1757 1.391 . S
C1757 H1745 0.950 . S
C1757 C1753 1.393 . S
C1757 C1756 1.391 . S
C1758 H1748 0.950 . S
C1758 C1759 1.386 . S
C1758 C1760 1.391 . S
C1759 C1758 1.386 . S
C1759 C1763 1.393 . S
C1760 H1749 0.950 . S
C1760 C1758 1.391 . S
C1760 C1761 1.400 . S
C1761 C1755 1.491 . S
C1761 C1760 1.400 . S
C1761 C1762 1.398 . S
C1762 H1750 0.950 . S
C1762 C1761 1.398 . S
C1762 C1763 1.391 . S
C1763 H1751 0.950 . S
C1763 C1759 1.393 . S
C1763 C1762 1.391 . S
H1764 C1772 0.950 . S
H1765 C1777 0.950 . S
H1766 C1774 0.950 . S
H1767 C1776 0.950 . S
H1768 C1778 0.950 . S
H1769 C1780 0.950 . S
H1770 C1782 0.950 . S
H1771 C1783 0.950 . S
C1772 H1764 0.950 . S
C1772 C1773 1.386 . S
C1772 C1774 1.391 . S
C1773 C1772 1.386 . S
C1773 C1777 1.393 . S
C1774 H1766 0.950 . S
C1774 C1772 1.391 . S
C1774 C1775 1.400 . S
C1775 C1774 1.400 . S
C1775 C1776 1.398 . S
C1775 C1781 1.491 . S
C1776 H1767 0.950 . S
C1776 C1775 1.398 . S
C1776 C1777 1.391 . S
C1777 H1765 0.950 . S
C1777 C1773 1.393 . S
C1777 C1776 1.391 . S
C1778 H1768 0.950 . S
C1778 C1779 1.386 . S
C1778 C1780 1.391 . S
C1779 C1778 1.386 . S
C1779 C1783 1.393 . S
C1780 H1769 0.950 . S
C1780 C1778 1.391 . S
C1780 C1781 1.400 . S
C1781 C1775 1.491 . S
C1781 C1780 1.400 . S
C1781 C1782 1.398 . S
C1782 H1770 0.950 . S
C1782 C1781 1.398 . S
C1782 C1783 1.391 . S
C1783 H1771 0.950 . S
C1783 C1779 1.393 . S
C1783 C1782 1.391 . S
H1784 C1792 0.950 . S
H1785 C1797 0.950 . S
H1786 C1794 0.950 . S
H1787 C1796 0.950 . S
H1788 C1798 0.950 . S
H1789 C1800 0.950 . S
H1790 C1802 0.950 . S
H1791 C1803 0.950 . S
C1792 H1784 0.950 . S
C1792 C1793 1.386 . S
C1792 C1794 1.391 . S
C1793 C1792 1.386 . S
C1793 C1797 1.393 . S
C1794 H1786 0.950 . S
C1794 C1792 1.391 . S
C1794 C1795 1.400 . S
C1795 C1794 1.400 . S
C1795 C1796 1.398 . S
C1795 C1801 1.491 . S
C1796 H1787 0.950 . S
C1796 C1795 1.398 . S
C1796 C1797 1.391 . S
C1797 H1785 0.950 . S
C1797 C1793 1.393 . S
C1797 C1796 1.391 . S
C1798 H1788 0.950 . S
C1798 C1799 1.386 . S
C1798 C1800 1.391 . S
C1799 C1798 1.386 . S
C1799 C1803 1.393 . S
C1800 H1789 0.950 . S
C1800 C1798 1.391 . S
C1800 C1801 1.400 . S
C1801 C1795 1.491 . S
C1801 C1800 1.400 . S
C1801 C1802 1.398 . S
C1802 H1790 0.950 . S
C1802 C1801 1.398 . S
C1802 C1803 1.391 . S
C1803 H1791 0.950 . S
C1803 C1799 1.393 . S
C1803 C1802 1.391 . S
H1804 C1812 0.950 . S
H1805 C1817 0.950 . S
H1806 C1814 0.950 . S
H1807 C1816 0.950 . S
H1808 C1818 0.950 . S
H1809 C1820 0.950 . S
H1810 C1822 0.950 . S
H1811 C1823 0.950 . S
C1812 H1804 0.950 . S
C1812 C1813 1.386 . S
C1812 C1814 1.391 . S
C1813 C1812 1.386 . S
C1813 C1817 1.393 . S
C1814 H1806 0.950 . S
C1814 C1812 1.391 . S
C1814 C1815 1.400 . S
C1815 C1814 1.400 . S
C1815 C1816 1.398 . S
C1815 C1821 1.491 . S
C1816 H1807 0.950 . S
C1816 C1815 1.398 . S
C1816 C1817 1.391 . S
C1817 H1805 0.950 . S
C1817 C1813 1.393 . S
C1817 C1816 1.391 . S
C1818 H1808 0.950 . S
C1818 C1819 1.386 . S
C1818 C1820 1.391 . S
C1819 C1818 1.386 . S
C1819 C1823 1.393 . S
C1820 H1809 0.950 . S
C1820 C1818 1.391 . S
C1820 C1821 1.400 . S
C1821 C1815 1.491 . S
C1821 C1820 1.400 . S
C1821 C1822 1.398 . S
C1822 H1810 0.950 . S
C1822 C1821 1.398 . S
C1822 C1823 1.391 . S
C1823 H1811 0.950 . S
C1823 C1819 1.393 . S
C1823 C1822 1.391 . S
H1824 C1832 0.950 . S
H1825 C1837 0.950 . S
H1826 C1834 0.950 . S
H1827 C1836 0.950 . S
H1828 C1838 0.950 . S
H1829 C1840 0.950 . S
H1830 C1842 0.950 . S
H1831 C1843 0.950 . S
C1832 H1824 0.950 . S
C1832 C1833 1.386 . S
C1832 C1834 1.391 . S
C1833 C1832 1.386 . S
C1833 C1837 1.393 . S
C1834 H1826 0.950 . S
C1834 C1832 1.391 . S
C1834 C1835 1.400 . S
C1835 C1834 1.400 . S
C1835 C1836 1.398 . S
C1835 C1841 1.491 . S
C1836 H1827 0.950 . S
C1836 C1835 1.398 . S
C1836 C1837 1.391 . S
C1837 H1825 0.950 . S
C1837 C1833 1.393 . S
C1837 C1836 1.391 . S
C1838 H1828 0.950 . S
C1838 C1839 1.386 . S
C1838 C1840 1.391 . S
C1839 C1838 1.386 . S
C1839 C1843 1.393 . S
C1840 H1829 0.950 . S
C1840 C1838 1.391 . S
C1840 C1841 1.400 . S
C1841 C1835 1.491 . S
C1841 C1840 1.400 . S
C1841 C1842 1.398 . S
C1842 H1830 0.950 . S
C1842 C1841 1.398 . S
C1842 C1843 1.391 . S
C1843 H1831 0.950 . S
C1843 C1839 1.393 . S
C1843 C1842 1.391 . S
H1844 C1852 0.950 . S
H1845 C1857 0.950 . S
H1846 C1854 0.950 . S
H1847 C1856 0.950 . S
H1848 C1858 0.950 . S
H1849 C1860 0.950 . S
H1850 C1862 0.950 . S
H1851 C1863 0.950 . S
C1852 H1844 0.950 . S
C1852 C1853 1.386 . S
C1852 C1854 1.391 . S
C1853 C1852 1.386 . S
C1853 C1857 1.393 . S
C1854 H1846 0.950 . S
C1854 C1852 1.391 . S
C1854 C1855 1.400 . S
C1855 C1854 1.400 . S
C1855 C1856 1.398 . S
C1855 C1861 1.491 . S
C1856 H1847 0.950 . S
C1856 C1855 1.398 . S
C1856 C1857 1.391 . S
C1857 H1845 0.950 . S
C1857 C1853 1.393 . S
C1857 C1856 1.391 . S
C1858 H1848 0.950 . S
C1858 C1859 1.386 . S
C1858 C1860 1.391 . S
C1859 C1858 1.386 . S
C1859 C1863 1.393 . S
C1860 H1849 0.950 . S
C1860 C1858 1.391 . S
C1860 C1861 1.400 . S
C1861 C1855 1.491 . S
C1861 C1860 1.400 . S
C1861 C1862 1.398 . S
C1862 H1850 0.950 . S
C1862 C1861 1.398 . S
C1862 C1863 1.391 . S
C1863 H1851 0.950 . S
C1863 C1859 1.393 . S
C1863 C1862 1.391 . S
H1864 C1872 0.950 . S
H1865 C1877 0.950 . S
H1866 C1874 0.950 . S
H1867 C1876 0.950 . S
H1868 C1878 0.950 . S
H1869 C1880 0.950 . S
H1870 C1882 0.950 . S
H1871 C1883 0.950 . S
C1872 H1864 0.950 . S
C1872 C1873 1.386 . S
C1872 C1874 1.391 . S
C1873 C1872 1.386 . S
C1873 C1877 1.393 . S
C1874 H1866 0.950 . S
C1874 C1872 1.391 . S
C1874 C1875 1.400 . S
C1875 C1874 1.400 . S
C1875 C1876 1.398 . S
C1875 C1881 1.491 . S
C1876 H1867 0.950 . S
C1876 C1875 1.398 . S
C1876 C1877 1.391 . S
C1877 H1865 0.950 . S
C1877 C1873 1.393 . S
C1877 C1876 1.391 . S
C1878 H1868 0.950 . S
C1878 C1879 1.386 . S
C1878 C1880 1.391 . S
C1879 C1878 1.386 . S
C1879 C1883 1.393 . S
C1880 H1869 0.950 . S
C1880 C1878 1.391 . S
C1880 C1881 1.400 . S
C1881 C1875 1.491 . S
C1881 C1880 1.400 . S
C1881 C1882 1.398 . S
C1882 H1870 0.950 . S
C1882 C1881 1.398 . S
C1882 C1883 1.391 . S
C1883 H1871 0.950 . S
C1883 C1879 1.393 . S
C1883 C1882 1.391 . S
H1884 C1892 0.950 . S
H1885 C1897 0.950 . S
H1886 C1894 0.950 . S
H1887 C1896 0.950 . S
H1888 C1898 0.950 . S
H1889 C1900 0.950 . S
H1890 C1902 0.950 . S
H1891 C1903 0.950 . S
C1892 H1884 0.950 . S
C1892 C1893 1.386 . S
C1892 C1894 1.391 . S
C1893 C1892 1.386 . S
C1893 C1897 1.393 . S
C1894 H1886 0.950 . S
C1894 C1892 1.391 . S
C1894 C1895 1.400 . S
C1895 C1894 1.400 . S
C1895 C1896 1.398 . S
C1895 C1901 1.491 . S
C1896 H1887 0.950 . S
C1896 C1895 1.398 . S
C1896 C1897 1.391 . S
C1897 H1885 0.950 . S
C1897 C1893 1.393 . S
C1897 C1896 1.391 . S
C1898 H1888 0.950 . S
C1898 C1899 1.386 . S
C1898 C1900 1.391 . S
C1899 C1898 1.386 . S
C1899 C1903 1.393 . S
C1900 H1889 0.950 . S
C1900 C1898 1.391 . S
C1900 C1901 1.400 . S
C1901 C1895 1.491 . S
C1901 C1900 1.400 . S
C1901 C1902 1.398 . S
C1902 H1890 0.950 . S
C1902 C1901 1.398 . S
C1902 C1903 1.391 . S
C1903 H1891 0.950 . S
C1903 C1899 1.393 . S
C1903 C1902 1.391 . S
H1904 C1912 0.950 . S
H1905 C1917 0.950 . S
H1906 C1914 0.950 . S
H1907 C1916 0.950 . S
H1908 C1918 0.950 . S
H1909 C1920 0.950 . S
H1910 C1922 0.950 . S
H1911 C1923 0.950 . S
C1912 H1904 0.950 . S
C1912 C1913 1.386 . S
C1912 C1914 1.391 . S
C1913 C1912 1.386 . S
C1913 C1917 1.393 . S
C1914 H1906 0.950 . S
C1914 C1912 1.391 . S
C1914 C1915 1.400 . S
C1915 C1914 1.400 . S
C1915 C1916 1.398 . S
C1915 C1921 1.491 . S
C1916 H1907 0.950 . S
C1916 C1915 1.398 . S
C1916 C1917 1.391 . S
C1917 H1905 0.950 . S
C1917 C1913 1.393 . S
C1917 C1916 1.391 . S
C1918 H1908 0.950 . S
C1918 C1919 1.386 . S
C1918 C1920 1.391 . S
C1919 C1918 1.386 . S
C1919 C1923 1.393 . S
C1920 H1909 0.950 . S
C1920 C1918 1.391 . S
C1920 C1921 1.400 . S
C1921 C1915 1.491 . S
C1921 C1920 1.400 . S
C1921 C1922 1.398 . S
C1922 H1910 0.950 . S
C1922 C1921 1.398 . S
C1922 C1923 1.391 . S
C1923 H1911 0.950 . S
C1923 C1919 1.393 . S
C1923 C1922 1.391 . S
H1924 C1932 0.950 . S
H1925 C1937 0.950 . S
H1926 C1934 0.950 . S
H1927 C1936 0.950 . S
H1928 C1938 0.950 . S
H1929 C1940 0.950 . S
H1930 C1942 0.950 . S
H1931 C1943 0.950 . S
C1932 H1924 0.950 . S
C1932 C1933 1.386 . S
C1932 C1934 1.391 . S
C1933 C1932 1.386 . S
C1933 C1937 1.393 . S
C1934 H1926 0.950 . S
C1934 C1932 1.391 . S
C1934 C1935 1.400 . S
C1935 C1934 1.400 . S
C1935 C1936 1.398 . S
C1935 C1941 1.491 . S
C1936 H1927 0.950 . S
C1936 C1935 1.398 . S
C1936 C1937 1.391 . S
C1937 H1925 0.950 . S
C1937 C1933 1.393 . S
C1937 C1936 1.391 . S
C1938 H1928 0.950 . S
C1938 C1939 1.386 . S
C1938 C1940 1.391 . S
C1939 C1938 1.386 . S
C1939 C1943 1.393 . S
C1940 H1929 0.950 . S
C1940 C1938 1.391 . S
C1940 C1941 1.400 . S
C1941 C1935 1.491 . S
C1941 C1940 1.400 . S
C1941 C1942 1.398 . S
C1942 H1930 0.950 . S
C1942 C1941 1.398 . S
C1942 C1943 1.391 . S
C1943 H1931 0.950 . S
C1943 C1939 1.393 . S
C1943 C1942 1.391 . S
C513 C7 1.452 . S
C519 C259 1.452 . S
C533 C273 1.438 . S
C539 C21 1.438 . S
C553 C287 1.442 . S
C559 C35 1.442 . S
C573 C49 1.455 . S
C579 C469 1.455 . S
C593 C63 1.438 . S
C599 C483 1.438 . S
C613 C77 1.444 . S
C619 C497 1.444 . S
C633 C343 1.450 . S
C639 C91 1.450 . S
C653 C105 1.450 . S
C659 C357 1.450 . S
C673 C119 1.447 . S
C679 C371 1.447 . S
C693 C217 1.457 . S
C699 C133 1.457 . S
C713 C231 1.444 . S
C719 C147 1.444 . S
C733 C245 1.436 . S
C739 C161 1.436 . S
C753 C427 1.439 . S
C759 C175 1.439 . S
C773 C441 1.449 . S
C779 C189 1.449 . S
C793 C203 1.437 . S
C799 C455 1.437 . S
C813 C385 1.457 . S
C819 C301 1.457 . S
C833 C315 1.453 . S
C839 C399 1.453 . S
C853 C329 1.437 . S
C859 C413 1.437 . S
C873 C6 1.461 1_565 S
C879 C384 1.464 . S
C893 C398 1.449 . S
C899 C20 1.449 1_455 S
C913 C412 1.451 . S
C919 C34 1.455 . S
C933 C174 1.450 . S
C939 C48 1.454 1_655 S
C953 C188 1.449 . S
C959 C62 1.450 . S
C973 C202 1.464 . S
C979 C76 1.463 1_545 S
C993 C90 1.449 1_545 S
C999 C300 1.449 . S
C1013 C314 1.459 . S
C1019 C104 1.463 1_655 S
C1033 C328 1.457 . S
C1039 C118 1.461 . S
C1053 C132 1.460 1_455 S
C1059 C426 1.463 . S
C1073 C146 1.465 . S
C1079 C440 1.462 . S
C1093 C160 1.450 1_565 S
C1099 C454 1.449 . S
C1113 C216 1.451 . S
C1119 C342 1.449 . S
C1133 C230 1.464 . S
C1139 C356 1.462 . S
C1153 C244 1.455 . S
C1159 C370 1.460 . S
C1173 C258 1.452 . S
C1179 C468 1.449 . S
C1193 C482 1.456 . S
C1199 C272 1.460 . S
C1213 C286 1.464 . S
C1219 C496 1.463 . S
C1233 C22 1.172 . S
C1239 C9 1.164 . S
C1253 C23 1.174 . S
C1259 C36 1.194 . S
C1273 C37 1.169 . S
C1279 C8 1.190 . S
C1293 C51 1.191 . S
C1299 C78 1.193 . S
C1313 C50 1.176 . S
C1319 C65 1.161 . S
C1333 C79 1.191 . S
C1339 C64 1.192 . S
C1353 C93 1.173 . S
C1359 C106 1.173 . S
C1373 C107 1.161 . S
C1379 C120 1.175 . S
C1393 C121 1.163 . S
C1399 C92 1.173 . S
C1413 C162 1.175 . S
C1419 C135 1.161 . S
C1433 C149 1.174 . S
C1439 C134 1.174 . S
C1453 C148 1.173 . S
C1459 C163 1.173 . S
C1473 C190 1.175 . S
C1479 C177 1.161 . S
C1493 C204 1.189 . S
C1499 C191 1.190 . S
C1513 C176 1.176 . S
C1519 C205 1.177 . S
C1533 C219 1.162 . S
C1539 C246 1.173 . S
C1553 C233 1.183 . S
C1559 C218 1.180 . S
C1573 C247 1.188 . S
C1579 C232 1.197 . S
C1593 C274 1.173 . S
C1599 C261 1.162 . S
C1613 C275 1.166 . S
C1619 C288 1.172 . S
C1633 C289 1.168 . S
C1639 C260 1.189 . S
C1653 C303 1.177 . S
C1659 C330 1.195 . S
C1673 C317 1.161 . S
C1679 C302 1.177 . S
C1693 C316 1.176 . S
C1699 C331 1.177 . S
C1713 C358 1.193 . S
C1719 C345 1.191 . S
C1733 C359 1.188 . S
C1739 C372 1.186 . S
C1753 C344 1.185 . S
C1759 C373 1.187 . S
C1773 C387 1.187 . S
C1779 C414 1.198 . S
C1793 C401 1.162 . S
C1799 C386 1.174 . S
C1813 C415 1.181 . S
C1819 C400 1.197 . S
C1833 C429 1.185 . S
C1839 C442 1.198 . S
C1853 C443 1.187 . S
C1859 C456 1.198 . S
C1873 C457 1.181 . S
C1879 C428 1.197 . S
C1893 C471 1.161 . S
C1899 C498 1.178 . S
C1913 C485 1.184 . S
C1919 C470 1.182 . S
C1933 C484 1.195 . S
C1939 C499 1.176 . S
