# Generated by pormake.
# Topology irl, (4)-cn, num edge types: 1
# Building blocks:
#     Node 0, Type 0, BuildingBlock: ICAMEG_clean_sbu_1, # of connection points: 4
#     Node 1, Type 0, BuildingBlock: ICAMEG_clean_sbu_1, # of connection points: 4
#     Node 2, Type 0, BuildingBlock: ICAMEG_clean_sbu_1, # of connection points: 4
#     Node 3, Type 0, BuildingBlock: ICAMEG_clean_sbu_1, # of connection points: 4
#     Node 4, Type 0, BuildingBlock: ICAMEG_clean_sbu_1, # of connection points: 4
#     Node 5, Type 0, BuildingBlock: ICAMEG_clean_sbu_1, # of connection points: 4
#     Node 6, Type 0, BuildingBlock: ICAMEG_clean_sbu_1, # of connection points: 4
#     Node 7, Type 0, BuildingBlock: ICAMEG_clean_sbu_1, # of connection points: 4
#     Edge 8, Type (0, 0), BuildingBlock: MIFKUJ_clean_linker_0, # of connection points: 2
#     Edge 9, Type (0, 0), BuildingBlock: MIFKUJ_clean_linker_0, # of connection points: 2
#     Edge 10, Type (0, 0), BuildingBlock: MIFKUJ_clean_linker_0, # of connection points: 2
#     Edge 11, Type (0, 0), BuildingBlock: MIFKUJ_clean_linker_0, # of connection points: 2
#     Edge 12, Type (0, 0), BuildingBlock: MIFKUJ_clean_linker_0, # of connection points: 2
#     Edge 13, Type (0, 0), BuildingBlock: MIFKUJ_clean_linker_0, # of connection points: 2
#     Edge 14, Type (0, 0), BuildingBlock: MIFKUJ_clean_linker_0, # of connection points: 2
#     Edge 15, Type (0, 0), BuildingBlock: MIFKUJ_clean_linker_0, # of connection points: 2
#     Edge 16, Type (0, 0), BuildingBlock: MIFKUJ_clean_linker_0, # of connection points: 2
#     Edge 17, Type (0, 0), BuildingBlock: MIFKUJ_clean_linker_0, # of connection points: 2
#     Edge 18, Type (0, 0), BuildingBlock: MIFKUJ_clean_linker_0, # of connection points: 2
#     Edge 19, Type (0, 0), BuildingBlock: MIFKUJ_clean_linker_0, # of connection points: 2
#     Edge 20, Type (0, 0), BuildingBlock: MIFKUJ_clean_linker_0, # of connection points: 2
#     Edge 21, Type (0, 0), BuildingBlock: MIFKUJ_clean_linker_0, # of connection points: 2
#     Edge 22, Type (0, 0), BuildingBlock: MIFKUJ_clean_linker_0, # of connection points: 2
#     Edge 23, Type (0, 0), BuildingBlock: MIFKUJ_clean_linker_0, # of connection points: 2
# Relax obj value: 0.025
# Max RMSD: 0.078
# Mean RMSD: 0.078
data_MOF--net-irl--node1-ICAMEG_clean_sbu_1--edge1-MIFKUJ_clean_linker_0
_symmetry_space_group_name_H-M    P1
_symmetry_Int_Tables_number       1
_symmetry_cell_setting            triclinic
loop_
_symmetry_equiv_pos_as_xyz
'x, y, z'
_cell_length_a     43.923938
_cell_length_b     63.707015
_cell_length_c     39.005599
_cell_angle_alpha  90.004543
_cell_angle_beta   89.98138
_cell_angle_gamma 89.907343
loop_
_atom_site_label
_atom_site_type_symbol
_atom_site_fract_x
_atom_site_fract_y
_atom_site_fract_z
_atom_type_partial_charge
Co0 Co 0.02937 0.1506 0.0355 0.0
Co1 Co 0.10159 0.13379 0.05789 0.0
O2 O 0.07375 0.15134 0.03125 0.0
C3 C 0.04014 0.14119 0.96266 0.0
O4 O 0.06123 0.12803 0.97305 0.0
C5 C 0.12312 0.17696 0.07156 0.0
O6 O 0.09471 0.18254 0.07682 0.0
O7 O 0.08053 0.14131 0.10154 0.0
O8 O 0.03239 0.14891 0.08635 0.0
H9 H 0.12861 0.07936 0.14601 0.0
H10 H 0.05844 0.18443 0.99491 0.0
O11 O 0.02535 0.15207 0.98444 0.0
H12 H 0.00296 0.22056 0.08775 0.0
H13 H 0.92275 0.17298 0.00527 0.0
H14 H 0.98545 0.12624 0.07729 0.0
H15 H 0.0013 0.182 0.08269 0.0
H16 H 0.97879 0.17366 0.00112 0.0
O17 O 0.12963 0.15808 0.06388 0.0
H18 H 0.09391 0.10161 0.11205 0.0
H19 H 0.1692 0.12913 0.06067 0.0
H20 H 0.9295 0.12516 0.08248 0.0
H21 H 0.06049 0.22306 0.99882 0.0
H22 H 0.89776 0.14866 0.04629 0.0
H23 H 0.03269 0.24136 0.04557 0.0
O24 O 0.02878 0.11938 0.03277 0.0
H25 H 0.14902 0.14939 0.94349 0.0
H26 H 0.12324 0.09373 0.02628 0.0
H27 H 0.14777 0.08424 0.97157 0.0
H28 H 0.16086 0.1122 0.92972 0.0
H29 H 0.12414 0.15813 0.99837 0.0
H30 H 0.20476 0.10737 0.0944 0.0
H31 H 0.18449 0.08219 0.1373 0.0
O32 O 0.07455 0.10904 0.05217 0.0
C33 C 0.05299 0.14593 0.10885 0.0
C34 C 0.13773 0.09024 0.12734 0.0
C35 C 0.18046 0.10599 0.0984 0.0
N36 N 0.1295 0.11655 0.08425 0.0
C37 C 0.11818 0.10284 0.10796 0.0
C38 C 0.16022 0.11831 0.07946 0.0
C39 C 0.16907 0.09185 0.12246 0.0
C40 C 0.04603 0.19231 0.0151 0.0
N41 N 0.02965 0.18099 0.03842 0.0
C42 C 0.04738 0.21417 0.01728 0.0
C43 C 0.03181 0.22443 0.04355 0.0
C44 C 0.01514 0.21277 0.06723 0.0
C45 C 0.01434 0.19093 0.06427 0.0
C46 C 0.93633 0.1627 0.02123 0.0
C47 C 0.97179 0.13661 0.06163 0.0
C48 C 0.96806 0.16299 0.01895 0.0
N49 N 0.98535 0.15013 0.03917 0.0
C50 C 0.94012 0.13588 0.0646 0.0
C51 C 0.92232 0.14905 0.04426 0.0
C52 C 0.04775 0.10517 0.04146 0.0
C53 C 0.14344 0.13707 0.96152 0.0
C54 C 0.12865 0.10595 0.00813 0.0
C55 C 0.14267 0.1005 0.97724 0.0
C56 C 0.15004 0.11619 0.95379 0.0
N57 N 0.12217 0.12645 0.0155 0.0
C58 C 0.12945 0.14193 0.99269 0.0
Co59 Co 0.97416 0.84321 0.03476 0.0
Co60 Co 0.90388 0.86098 0.06275 0.0
O61 O 0.92963 0.84399 0.03256 0.0
C62 C 0.96166 0.85656 0.96367 0.0
O63 O 0.94127 0.8695 0.97634 0.0
C64 C 0.88027 0.81783 0.07141 0.0
O65 O 0.90847 0.81098 0.07201 0.0
O66 O 0.92612 0.85095 0.1042 0.0
O67 O 0.97298 0.84227 0.08582 0.0
H68 H 0.88339 0.91145 0.15903 0.0
H69 H 0.94167 0.81263 0.99084 0.0
O70 O 0.97651 0.84439 0.9835 0.0
H71 H 0.99792 0.76995 0.07525 0.0
H72 H 0.07823 0.81964 0.99656 0.0
H73 H 0.02092 0.86408 0.07763 0.0
H74 H 0.0017 0.80858 0.07593 0.0
H75 H 0.02209 0.82063 0.99504 0.0
O76 O 0.87463 0.83727 0.06762 0.0
H77 H 0.9155 0.89019 0.12039 0.0
H78 H 0.8368 0.86733 0.06943 0.0
H79 H 0.07702 0.86343 0.08025 0.0
H80 H 0.93741 0.77403 0.98906 0.0
H81 H 0.10606 0.84108 0.0395 0.0
H82 H 0.9656 0.75243 0.03156 0.0
O83 O 0.97665 0.87438 0.03635 0.0
H84 H 0.85116 0.85189 0.94945 0.0
H85 H 0.88373 0.90292 0.03701 0.0
H86 H 0.85795 0.91554 0.98478 0.0
H87 H 0.84143 0.88992 0.94055 0.0
H88 H 0.8774 0.84001 0.00189 0.0
H89 H 0.80383 0.8882 0.1077 0.0
H90 H 0.82713 0.91052 0.1528 0.0
O91 O 0.93214 0.8852 0.05859 0.0
C92 C 0.95345 0.84499 0.10961 0.0
C93 C 0.87297 0.90183 0.1394 0.0
C94 C 0.82832 0.88876 0.11063 0.0
N95 N 0.87805 0.87767 0.09253 0.0
C96 C 0.89104 0.88981 0.11739 0.0
C97 C 0.8471 0.87695 0.08908 0.0
C98 C 0.84141 0.90129 0.13592 0.0
C99 C 0.95423 0.80331 0.00919 0.0
N100 N 0.97202 0.81283 0.03334 0.0
C101 C 0.95164 0.78148 0.00816 0.0
C102 C 0.96742 0.76937 0.03205 0.0
C103 C 0.98554 0.77919 0.05658 0.0
C104 C 0.98754 0.80107 0.05688 0.0
C105 C 0.06584 0.8294 0.01451 0.0
C106 C 0.0334 0.8542 0.05998 0.0
C107 C 0.03406 0.83005 0.01374 0.0
N108 N 0.01826 0.84225 0.03644 0.0
C109 C 0.06516 0.85395 0.06151 0.0
C110 C 0.08144 0.84143 0.03861 0.0
C111 C 0.95892 0.88871 0.04746 0.0
C112 C 0.85822 0.8632 0.96854 0.0
C113 C 0.87681 0.89171 0.0178 0.0
C114 C 0.86209 0.89893 0.98833 0.0
C115 C 0.8528 0.88455 0.96355 0.0
N116 N 0.88214 0.87076 0.02248 0.0
C117 C 0.87299 0.85656 0.99835 0.0
Co118 Co 0.02867 0.84768 0.53296 0.0
Co119 Co 0.10031 0.86476 0.5093 0.0
O120 O 0.0729 0.84833 0.53819 0.0
C121 C 0.03751 0.86151 0.60438 0.0
O122 O 0.05769 0.87482 0.59245 0.0
C123 C 0.12412 0.82147 0.50301 0.0
O124 O 0.09602 0.81527 0.4977 0.0
O125 O 0.0806 0.85405 0.4667 0.0
O126 O 0.03255 0.84643 0.48208 0.0
H127 H 0.12698 0.91337 0.41245 0.0
H128 H 0.05883 0.81721 0.57931 0.0
O129 O 0.0238 0.84908 0.584 0.0
H130 H 0.00689 0.77428 0.49195 0.0
H131 H 0.92276 0.82462 0.56461 0.0
H132 H 0.98427 0.86821 0.48647 0.0
H133 H 0.00317 0.8129 0.49058 0.0
H134 H 0.97871 0.8256 0.56997 0.0
O135 O 0.1298 0.8408 0.50822 0.0
H136 H 0.09243 0.89291 0.44942 0.0
H137 H 0.16759 0.87088 0.50777 0.0
H138 H 0.92841 0.86756 0.48002 0.0
H139 H 0.06291 0.77861 0.58185 0.0
H140 H 0.89727 0.84564 0.51927 0.0
H141 H 0.0369 0.75689 0.53787 0.0
O142 O 0.02639 0.87887 0.53066 0.0
H143 H 0.14611 0.85808 0.62683 0.0
H144 H 0.1178 0.9073 0.53462 0.0
H145 H 0.13996 0.92104 0.58815 0.0
H146 H 0.15433 0.89634 0.63472 0.0
H147 H 0.1235 0.84504 0.57302 0.0
H148 H 0.20299 0.89096 0.47125 0.0
H149 H 0.18269 0.91246 0.42328 0.0
O150 O 0.07171 0.88909 0.50988 0.0
C151 C 0.05341 0.8485 0.45958 0.0
C152 C 0.13609 0.90411 0.43334 0.0
C153 C 0.17875 0.89151 0.46632 0.0
N154 N 0.12797 0.88085 0.48085 0.0
C155 C 0.11663 0.89255 0.45441 0.0
C156 C 0.15861 0.88014 0.48685 0.0
C157 C 0.16735 0.90358 0.43941 0.0
C158 C 0.0472 0.80785 0.5603 0.0
N159 N 0.03066 0.81729 0.53495 0.0
C160 C 0.0497 0.78601 0.56178 0.0
C161 C 0.03513 0.77383 0.53706 0.0
C162 C 0.0183 0.78358 0.51128 0.0
C163 C 0.01633 0.80545 0.51059 0.0
C164 C 0.93609 0.8342 0.54731 0.0
C165 C 0.97088 0.85854 0.50351 0.0
C166 C 0.96776 0.83485 0.55026 0.0
N167 N 0.98473 0.84682 0.52838 0.0
C168 C 0.93926 0.85827 0.4998 0.0
C169 C 0.9218 0.84599 0.52186 0.0
C170 C 0.04453 0.89293 0.51955 0.0
C171 C 0.14002 0.86899 0.60669 0.0
C172 C 0.12388 0.89646 0.55479 0.0
C173 C 0.13652 0.90433 0.58501 0.0
C174 C 0.14458 0.89046 0.61112 0.0
N175 N 0.1194 0.87538 0.55066 0.0
C176 C 0.12733 0.86169 0.57611 0.0
Co177 Co 0.9753 0.15512 0.53377 0.0
Co178 Co 0.90296 0.14046 0.50763 0.0
O179 O 0.93085 0.15637 0.53689 0.0
C180 C 0.96206 0.14223 0.60485 0.0
O181 O 0.94028 0.13039 0.59237 0.0
C182 C 0.88491 0.18502 0.4991 0.0
O183 O 0.91365 0.19037 0.5013 0.0
O184 O 0.92619 0.14811 0.46557 0.0
O185 O 0.97338 0.1566 0.48286 0.0
H186 H 0.87588 0.08879 0.41525 0.0
H187 H 0.94674 0.18673 0.57942 0.0
O188 O 0.97823 0.15343 0.58488 0.0
H189 H 0.00558 0.22751 0.49489 0.0
H190 H 0.08197 0.17336 0.57029 0.0
H191 H 0.01932 0.13281 0.48903 0.0
H192 H 0.00525 0.18882 0.49277 0.0
H193 H 0.02589 0.17487 0.57319 0.0
O194 O 0.87682 0.1659 0.50114 0.0
H195 H 0.91066 0.10899 0.4523 0.0
H196 H 0.83533 0.13853 0.50082 0.0
H197 H 0.0753 0.13099 0.48502 0.0
H198 H 0.94669 0.22539 0.5827 0.0
H199 H 0.10702 0.15137 0.52587 0.0
H200 H 0.9762 0.24605 0.54015 0.0
O201 O 0.97492 0.12391 0.53142 0.0
H202 H 0.85139 0.1554 0.62002 0.0
H203 H 0.87754 0.10059 0.53573 0.0
H204 H 0.84982 0.09086 0.58837 0.0
H205 H 0.83653 0.11839 0.63094 0.0
H206 H 0.87938 0.16437 0.56721 0.0
H207 H 0.79975 0.11889 0.46397 0.0
H208 H 0.81998 0.09372 0.42094 0.0
O209 O 0.9282 0.11465 0.5134 0.0
C210 C 0.95355 0.15369 0.4595 0.0
C211 C 0.86678 0.09967 0.43397 0.0
C212 C 0.82405 0.11658 0.46129 0.0
N213 N 0.87504 0.12479 0.47888 0.0
C214 C 0.88636 0.11109 0.4551 0.0
C215 C 0.84432 0.1277 0.48202 0.0
C216 C 0.83542 0.10245 0.43716 0.0
C217 C 0.95989 0.1956 0.56104 0.0
N218 N 0.97608 0.18553 0.53603 0.0
C219 C 0.95966 0.2175 0.56292 0.0
C220 C 0.97618 0.22907 0.539 0.0
C221 C 0.99264 0.21868 0.51358 0.0
C222 C 0.9923 0.19677 0.51245 0.0
C223 C 0.06839 0.16444 0.55231 0.0
C224 C 0.03297 0.14183 0.50676 0.0
C225 C 0.03664 0.1652 0.55387 0.0
N226 N 0.01937 0.15406 0.53113 0.0
C227 C 0.06466 0.14068 0.50442 0.0
C228 C 0.08244 0.1521 0.52737 0.0
C229 C 0.95529 0.11018 0.52267 0.0
C230 C 0.85702 0.14326 0.60165 0.0
C231 C 0.872 0.11261 0.55422 0.0
C232 C 0.8562 0.10704 0.58393 0.0
C233 C 0.84872 0.12249 0.60778 0.0
N234 N 0.88008 0.13301 0.54841 0.0
C235 C 0.87277 0.14826 0.57164 0.0
Co236 Co 0.52682 0.65434 0.03222 0.0
Co237 Co 0.59892 0.63669 0.05364 0.0
O238 O 0.57106 0.6539 0.02645 0.0
C239 C 0.53554 0.64143 0.96037 0.0
O240 O 0.55693 0.62874 0.97151 0.0
C241 C 0.62224 0.67973 0.065 0.0
O242 O 0.59433 0.68581 0.07191 0.0
O243 O 0.57889 0.64556 0.09727 0.0
O244 O 0.53129 0.65518 0.08297 0.0
H245 H 0.62639 0.5849 0.14574 0.0
H246 H 0.55642 0.6852 0.98624 0.0
O247 O 0.52132 0.65327 0.98128 0.0
H248 H 0.50471 0.72738 0.07492 0.0
H249 H 0.42034 0.67733 0.00253 0.0
H250 H 0.48314 0.63339 0.07899 0.0
H251 H 0.50136 0.68874 0.07559 0.0
H252 H 0.47624 0.67657 0.99638 0.0
O253 O 0.62773 0.66072 0.05716 0.0
H254 H 0.59153 0.60628 0.1105 0.0
H255 H 0.66644 0.63119 0.05501 0.0
H256 H 0.42735 0.63382 0.08622 0.0
H257 H 0.56019 0.72383 0.98446 0.0
H258 H 0.39556 0.65591 0.04781 0.0
H259 H 0.53427 0.74517 0.02909 0.0
O260 O 0.52473 0.62311 0.0338 0.0
H261 H 0.64415 0.64865 0.93695 0.0
H262 H 0.61917 0.59561 0.02451 0.0
H263 H 0.64217 0.58435 0.96983 0.0
H264 H 0.65484 0.61099 0.92558 0.0
H265 H 0.62078 0.65915 0.99185 0.0
H266 H 0.70214 0.61018 0.08979 0.0
H267 H 0.68214 0.58678 0.13545 0.0
O268 O 0.57112 0.61218 0.05034 0.0
C269 C 0.55212 0.65181 0.10505 0.0
C270 C 0.63538 0.59498 0.12583 0.0
C271 C 0.67789 0.6092 0.09446 0.0
N272 N 0.62692 0.61983 0.08055 0.0
C273 C 0.61574 0.60708 0.10573 0.0
C274 C 0.65757 0.62109 0.0749 0.0
C275 C 0.66666 0.59606 0.12007 0.0
C276 C 0.54486 0.6944 0.00557 0.0
N277 N 0.52855 0.68474 0.03086 0.0
C278 C 0.54717 0.71626 0.0045 0.0
C279 C 0.53265 0.72822 0.02958 0.0
C280 C 0.51608 0.71825 0.05532 0.0
C281 C 0.51431 0.69636 0.0556 0.0
C282 C 0.43395 0.66768 0.01946 0.0
C283 C 0.46947 0.64314 0.06232 0.0
C284 C 0.4656 0.66715 0.01606 0.0
N285 N 0.48293 0.65507 0.03748 0.0
C286 C 0.43789 0.64327 0.06647 0.0
C287 C 0.42006 0.65566 0.04488 0.0
C288 C 0.54353 0.6087 0.04209 0.0
C289 C 0.63873 0.63689 0.95602 0.0
C290 C 0.62438 0.60725 0.0053 0.0
C291 C 0.63755 0.6008 0.97444 0.0
C292 C 0.64469 0.61576 0.94964 0.0
N293 N 0.61848 0.62799 0.01132 0.0
C294 C 0.62558 0.64275 0.9872 0.0
Co295 Co 0.46595 0.34706 0.03579 0.0
Co296 Co 0.39619 0.36545 0.0638 0.0
O297 O 0.42153 0.34824 0.03372 0.0
C298 C 0.45519 0.36064 0.96429 0.0
O299 O 0.4382 0.37582 0.97669 0.0
C300 C 0.37229 0.32265 0.07371 0.0
O301 O 0.40057 0.31619 0.07662 0.0
O302 O 0.41815 0.35522 0.10525 0.0
O303 O 0.46516 0.34675 0.08707 0.0
H304 H 0.37655 0.41628 0.15979 0.0
H305 H 0.43229 0.31622 0.9934 0.0
O306 O 0.46763 0.34737 0.98435 0.0
H307 H 0.48853 0.27412 0.07858 0.0
H308 H 0.56911 0.32236 0.99645 0.0
H309 H 0.51359 0.36772 0.07776 0.0
H310 H 0.49326 0.3127 0.07771 0.0
H311 H 0.51298 0.32377 0.99588 0.0
O312 O 0.36652 0.34194 0.06835 0.0
H313 H 0.40829 0.39461 0.12141 0.0
H314 H 0.32925 0.37241 0.07034 0.0
H315 H 0.56971 0.3666 0.0795 0.0
H316 H 0.42706 0.27767 0.99321 0.0
H317 H 0.59784 0.34381 0.03861 0.0
H318 H 0.45524 0.25637 0.0361 0.0
O319 O 0.46905 0.37829 0.03654 0.0
H320 H 0.34307 0.35709 0.95059 0.0
H321 H 0.3775 0.40767 0.03798 0.0
H322 H 0.35167 0.42062 0.98598 0.0
H323 H 0.33421 0.39524 0.94186 0.0
H324 H 0.36926 0.34485 0.00285 0.0
H325 H 0.29662 0.39368 0.10839 0.0
H326 H 0.32028 0.41589 0.15341 0.0
O327 O 0.42503 0.3893 0.05979 0.0
C328 C 0.44553 0.34943 0.11082 0.0
C329 C 0.36597 0.40671 0.14022 0.0
C330 C 0.32111 0.39401 0.11139 0.0
N331 N 0.37065 0.38238 0.09352 0.0
C332 C 0.38383 0.39445 0.11835 0.0
C333 C 0.3397 0.38195 0.08998 0.0
C334 C 0.3344 0.40647 0.13664 0.0
C335 C 0.44485 0.30703 0.01192 0.0
N336 N 0.46316 0.31668 0.03543 0.0
C337 C 0.44171 0.28522 0.01178 0.0
C338 C 0.45749 0.27328 0.03589 0.0
C339 C 0.47616 0.28324 0.05975 0.0
C340 C 0.4787 0.30508 0.05917 0.0
C341 C 0.55711 0.3323 0.01448 0.0
C342 C 0.52567 0.35763 0.06009 0.0
C343 C 0.52534 0.3332 0.01423 0.0
N344 N 0.51004 0.34567 0.03698 0.0
C345 C 0.55745 0.35712 0.06111 0.0
C346 C 0.57322 0.34434 0.03814 0.0
C347 C 0.45164 0.39272 0.04808 0.0
C348 C 0.35052 0.3683 0.96966 0.0
C349 C 0.37009 0.39654 0.01885 0.0
C350 C 0.3554 0.40396 0.98949 0.0
C351 C 0.34559 0.38971 0.96476 0.0
N352 N 0.37482 0.37553 0.02349 0.0
C353 C 0.36527 0.36146 0.99935 0.0
Co354 Co 0.52682 0.34281 0.53706 0.0
Co355 Co 0.59485 0.36164 0.5053 0.0
O356 O 0.57124 0.34492 0.53786 0.0
C357 C 0.53884 0.35737 0.60773 0.0
O358 O 0.55522 0.37249 0.59425 0.0
C359 C 0.62201 0.31924 0.5017 0.0
O360 O 0.59431 0.31158 0.5025 0.0
O361 O 0.57329 0.34878 0.46591 0.0
O362 O 0.5263 0.34191 0.48561 0.0
H363 H 0.60906 0.40826 0.4027 0.0
H364 H 0.5621 0.31302 0.5799 0.0
O365 O 0.52625 0.34373 0.58851 0.0
H366 H 0.5061 0.26899 0.49731 0.0
H367 H 0.42557 0.3166 0.57962 0.0
H368 H 0.47748 0.36226 0.49598 0.0
H369 H 0.50026 0.3075 0.49669 0.0
H370 H 0.48161 0.31912 0.57886 0.0
O371 O 0.62638 0.33898 0.50268 0.0
H372 H 0.57966 0.38736 0.44431 0.0
H373 H 0.66103 0.37068 0.49651 0.0
H374 H 0.42141 0.36006 0.49561 0.0
H375 H 0.56836 0.27455 0.58165 0.0
H376 H 0.3951 0.3371 0.53768 0.0
H377 H 0.54032 0.25227 0.54005 0.0
O378 O 0.52262 0.3739 0.53571 0.0
H379 H 0.65106 0.36032 0.61738 0.0
H380 H 0.61008 0.40558 0.52572 0.0
H381 H 0.63636 0.42167 0.57501 0.0
H382 H 0.65703 0.39901 0.62127 0.0
H383 H 0.62459 0.34485 0.56769 0.0
H384 H 0.69136 0.39123 0.45522 0.0
H385 H 0.66533 0.41028 0.40797 0.0
O386 O 0.56411 0.38474 0.50698 0.0
C387 C 0.54569 0.34333 0.46132 0.0
C388 C 0.62065 0.40009 0.42322 0.0
C389 C 0.66684 0.39052 0.45269 0.0
N390 N 0.61858 0.37801 0.47303 0.0
C391 C 0.60412 0.3883 0.44695 0.0
C392 C 0.64956 0.37888 0.47596 0.0
C393 C 0.65222 0.4012 0.42619 0.0
C394 C 0.54957 0.30341 0.56196 0.0
N395 N 0.53078 0.31249 0.5383 0.0
C396 C 0.55332 0.28164 0.56297 0.0
C397 C 0.53762 0.26916 0.53958 0.0
C398 C 0.51844 0.27853 0.51557 0.0
C399 C 0.5153 0.30035 0.51527 0.0
C400 C 0.43678 0.32661 0.56111 0.0
C401 C 0.4662 0.35212 0.51418 0.0
C402 C 0.46849 0.32813 0.56059 0.0
N403 N 0.48279 0.34067 0.53717 0.0
C404 C 0.43444 0.35099 0.51393 0.0
C405 C 0.41969 0.33812 0.53756 0.0
C406 C 0.5383 0.3881 0.52095 0.0
C407 C 0.64219 0.37036 0.59735 0.0
C408 C 0.61897 0.39559 0.54579 0.0
C409 C 0.63385 0.40481 0.57361 0.0
C410 C 0.64549 0.39207 0.59954 0.0
N411 N 0.61598 0.37427 0.54374 0.0
C412 C 0.62727 0.36169 0.5691 0.0
Co413 Co 0.47008 0.65126 0.53084 0.0
Co414 Co 0.4011 0.63401 0.49986 0.0
O415 O 0.4256 0.6508 0.53142 0.0
C416 C 0.45577 0.64038 0.60254 0.0
O417 O 0.43671 0.62638 0.5904 0.0
C418 C 0.37629 0.6769 0.4926 0.0
O419 O 0.40446 0.68353 0.48976 0.0
O420 O 0.42341 0.64549 0.45964 0.0
O421 O 0.47084 0.65028 0.47962 0.0
H422 H 0.38372 0.58572 0.39995 0.0
H423 H 0.43661 0.68377 0.57004 0.0
O424 O 0.4706 0.65214 0.58211 0.0
H425 H 0.49637 0.7226 0.48388 0.0
H426 H 0.57313 0.67545 0.571 0.0
H427 H 0.51795 0.62834 0.49236 0.0
H428 H 0.49965 0.68402 0.48745 0.0
H429 H 0.51698 0.67496 0.57019 0.0
O430 O 0.37084 0.65743 0.49657 0.0
H431 H 0.41454 0.60664 0.44025 0.0
H432 H 0.33446 0.62656 0.49202 0.0
H433 H 0.57411 0.62845 0.49211 0.0
H434 H 0.43285 0.72239 0.56757 0.0
H435 H 0.60207 0.65213 0.53165 0.0
H436 H 0.4628 0.74205 0.52417 0.0
O437 O 0.47178 0.6201 0.53256 0.0
H438 H 0.34535 0.63863 0.61216 0.0
H439 H 0.38411 0.59086 0.52268 0.0
H440 H 0.35799 0.57618 0.57319 0.0
H441 H 0.33834 0.60013 0.61836 0.0
H442 H 0.37198 0.65264 0.56141 0.0
H443 H 0.30276 0.60599 0.45211 0.0
H444 H 0.32741 0.58531 0.40576 0.0
O445 O 0.43058 0.61015 0.50262 0.0
C446 C 0.45162 0.64935 0.45516 0.0
C447 C 0.37272 0.59461 0.4201 0.0
C448 C 0.32728 0.60601 0.44936 0.0
N449 N 0.37633 0.61766 0.46861 0.0
C450 C 0.39005 0.60644 0.44305 0.0
C451 C 0.34534 0.61766 0.47183 0.0
C452 C 0.34112 0.59441 0.42336 0.0
C453 C 0.44995 0.69225 0.55133 0.0
N454 N 0.46842 0.68167 0.52903 0.0
C455 C 0.44763 0.7141 0.54995 0.0
C456 C 0.4644 0.72512 0.52555 0.0
C457 C 0.48323 0.71421 0.50293 0.0
C458 C 0.48494 0.69236 0.50502 0.0
C459 C 0.56121 0.6651 0.55359 0.0
C460 C 0.52996 0.63879 0.50946 0.0
C461 C 0.52942 0.66473 0.55306 0.0
N462 N 0.51422 0.65178 0.53101 0.0
C463 C 0.56176 0.63874 0.50928 0.0
C464 C 0.57743 0.65202 0.5315 0.0
C465 C 0.45561 0.60614 0.51788 0.0
C466 C 0.35374 0.62804 0.59262 0.0
C467 C 0.37574 0.60139 0.54227 0.0
C468 C 0.36089 0.59298 0.57078 0.0
C469 C 0.34985 0.60643 0.5961 0.0
N470 N 0.37946 0.62261 0.53903 0.0
C471 C 0.36871 0.63589 0.56375 0.0
H472 H 0.92464 0.92408 0.05641 0.0
H473 H 0.94125 0.96045 0.05319 0.0
H474 H 0.03351 0.94005 0.03526 0.0
H475 H 0.017 0.90331 0.03747 0.0
H476 H 0.02288 0.97352 0.08838 0.0
H477 H 0.00097 0.95488 0.97158 0.0
H478 H 0.96867 0.93998 0.92616 0.0
H479 H 0.90091 0.98723 0.945 0.0
H480 H 0.93228 0.00193 0.99161 0.0
H481 H 0.08454 0.0707 0.04454 0.0
H482 H 0.06985 0.03404 0.04272 0.0
H483 H 0.9755 0.05201 0.03288 0.0
H484 H 0.99022 0.08909 0.03312 0.0
H485 H 0.98754 0.01917 0.99313 0.0
H486 H 0.00571 0.03688 0.11047 0.0
H487 H 0.03479 0.05148 0.15897 0.0
H488 H 0.10612 0.00657 0.14154 0.0
H489 H 0.07767 0.9919 0.09257 0.0
C490 C 0.94846 0.9272 0.05161 0.0
C491 C 0.96943 0.91073 0.04675 0.0
C492 C 0.95788 0.94802 0.04987 0.0
C493 C 0.98848 0.9528 0.04376 0.0
C494 C 0.00974 0.93654 0.0399 0.0
C495 C 0.00024 0.91561 0.04103 0.0
C496 C 0.99795 0.97492 0.04098 0.0
C497 C 0.01564 0.98347 0.06732 0.0
C498 C 0.98747 0.98787 0.014 0.0
C499 C 0.96887 0.97938 0.9854 0.0
C500 C 0.97904 0.96198 0.96634 0.0
C501 C 0.96091 0.95357 0.94032 0.0
C502 C 0.93279 0.96268 0.93261 0.0
C503 C 0.92271 0.98019 0.95099 0.0
C504 C 0.94063 0.98853 0.97729 0.0
C505 C 0.06066 0.06699 0.04164 0.0
C506 C 0.03854 0.0829 0.03912 0.0
C507 C 0.05229 0.04594 0.04082 0.0
C508 C 0.02154 0.04029 0.03841 0.0
C509 C 0.99938 0.05606 0.03491 0.0
C510 C 0.00781 0.07722 0.03516 0.0
C511 C 0.01269 0.0179 0.04053 0.0
C512 C 0.99497 0.00927 0.01415 0.0
C513 C 0.02277 0.0049 0.06777 0.0
C514 C 0.03967 0.01341 0.09765 0.0
C515 C 0.02768 0.03019 0.11686 0.0
C516 C 0.04404 0.03848 0.14444 0.0
C517 C 0.07232 0.03 0.15327 0.0
C518 C 0.08423 0.01314 0.13463 0.0
C519 C 0.06798 0.00482 0.10698 0.0
H520 H 0.08498 0.03645 0.1746 0.0
H521 H 0.91882 0.95617 0.91238 0.0
H522 H 0.07807 0.92778 0.50394 0.0
H523 H 0.06157 0.96429 0.50448 0.0
H524 H 0.97082 0.94508 0.53238 0.0
H525 H 0.98713 0.90827 0.53233 0.0
H526 H 0.97457 0.9766 0.4786 0.0
H527 H 0.01246 0.9628 0.59276 0.0
H528 H 0.05097 0.94995 0.63371 0.0
H529 H 0.11525 0.99496 0.59554 0.0
H530 H 0.07726 0.00785 0.55393 0.0
H531 H 0.91804 0.07593 0.52498 0.0
H532 H 0.93268 0.03906 0.52519 0.0
H533 H 0.02743 0.05668 0.52057 0.0
H534 H 0.01293 0.09375 0.52191 0.0
H535 H 0.02136 0.0254 0.5626 0.0
H536 H 0.98703 0.03929 0.44868 0.0
H537 H 0.95143 0.05227 0.40464 0.0
H538 H 0.88431 0.00769 0.43765 0.0
H539 H 0.91937 0.99466 0.48228 0.0
C540 C 0.05457 0.9312 0.51024 0.0
C541 C 0.03401 0.91503 0.51851 0.0
C542 C 0.04521 0.95212 0.51047 0.0
C543 C 0.01509 0.95733 0.51875 0.0
C544 C 0.9942 0.9413 0.526 0.0
C545 C 0.00361 0.92031 0.5261 0.0
C546 C 0.00582 0.97962 0.52077 0.0
C547 C 0.98439 0.98726 0.49725 0.0
C548 C 0.01949 0.99354 0.54442 0.0
C549 C 0.04209 0.98617 0.57004 0.0
C550 C 0.03486 0.96987 0.59295 0.0
C551 C 0.05659 0.96259 0.6163 0.0
C552 C 0.08556 0.9716 0.61717 0.0
C553 C 0.09281 0.98798 0.59481 0.0
C554 C 0.07118 0.9953 0.57136 0.0
C555 C 0.942 0.07201 0.52411 0.0
C556 C 0.9643 0.08781 0.52329 0.0
C557 C 0.95035 0.05088 0.52405 0.0
C558 C 0.98114 0.04505 0.5222 0.0
C559 C 0.00351 0.06078 0.52193 0.0
C560 C 0.99519 0.08197 0.52262 0.0
C561 C 0.98993 0.02256 0.5204 0.0
C562 C 0.01137 0.01483 0.54394 0.0
C563 C 0.97666 0.00864 0.49633 0.0
C564 C 0.95574 0.01612 0.46903 0.0
C565 C 0.96462 0.03233 0.44667 0.0
C566 C 0.94454 0.0397 0.4216 0.0
C567 C 0.91559 0.03085 0.41841 0.0
C568 C 0.90673 0.01455 0.44019 0.0
C569 C 0.92671 0.00715 0.46536 0.0
H570 H 0.90005 0.0366 0.39902 0.0
H571 H 0.10237 0.96592 0.63523 0.0
H572 H 0.57889 0.5735 0.03979 0.0
H573 H 0.56237 0.53705 0.03923 0.0
H574 H 0.46867 0.55702 0.04433 0.0
H575 H 0.48495 0.59387 0.04395 0.0
H576 H 0.49087 0.52383 0.0945 0.0
H577 H 0.48607 0.54107 0.97409 0.0
H578 H 0.50675 0.55525 0.92009 0.0
H579 H 0.57949 0.51018 0.92316 0.0
H580 H 0.55952 0.49596 0.97754 0.0
H581 H 0.41901 0.4277 0.06495 0.0
H582 H 0.43524 0.46402 0.06281 0.0
H583 H 0.52427 0.44462 0.02826 0.0
H584 H 0.50782 0.40787 0.02916 0.0
H585 H 0.50529 0.47785 0.99299 0.0
H586 H 0.51228 0.46013 0.11127 0.0
H587 H 0.49503 0.44588 0.16672 0.0
H588 H 0.42288 0.49139 0.17014 0.0
H589 H 0.43942 0.50573 0.11442 0.0
C590 C 0.55475 0.57027 0.04058 0.0
C591 C 0.53323 0.58664 0.04169 0.0
C592 C 0.54539 0.5494 0.04026 0.0
C593 C 0.51439 0.54447 0.04159 0.0
C594 C 0.49273 0.56065 0.04319 0.0
C595 C 0.50207 0.58163 0.04284 0.0
C596 C 0.50488 0.5223 0.04172 0.0
C597 C 0.49347 0.5138 0.07221 0.0
C598 C 0.5096 0.50922 0.01295 0.0
C599 C 0.52147 0.5176 0.98008 0.0
C600 C 0.50664 0.53431 0.96343 0.0
C601 C 0.5182 0.54233 0.93272 0.0
C602 C 0.54446 0.53366 0.91825 0.0
C603 C 0.55917 0.5169 0.93443 0.0
C604 C 0.54772 0.50884 0.96518 0.0
C605 C 0.44206 0.43101 0.05677 0.0
C606 C 0.46212 0.41478 0.04721 0.0
C607 C 0.45136 0.45187 0.05579 0.0
C608 C 0.4811 0.45702 0.04592 0.0
C609 C 0.50121 0.44095 0.03606 0.0
C610 C 0.49181 0.41997 0.0367 0.0
C611 C 0.49085 0.47926 0.04577 0.0
C612 C 0.50252 0.48781 0.01534 0.0
C613 C 0.48683 0.49234 0.07482 0.0
C614 C 0.47693 0.48389 0.1085 0.0
C615 C 0.4926 0.46701 0.12372 0.0
C616 C 0.48296 0.45893 0.15522 0.0
C617 C 0.45783 0.46769 0.1719 0.0
C618 C 0.44232 0.4846 0.15716 0.0
C619 C 0.45184 0.49273 0.12564 0.0
H620 H 0.4504 0.46141 0.19629 0.0
H621 H 0.55338 0.53989 0.89447 0.0
H622 H 0.55058 0.41887 0.47466 0.0
H623 H 0.53546 0.45567 0.47733 0.0
H624 H 0.48674 0.44381 0.57148 0.0
H625 H 0.50074 0.40662 0.56806 0.0
H626 H 0.45586 0.47025 0.5355 0.0
H627 H 0.5592 0.46698 0.57136 0.0
H628 H 0.61329 0.45684 0.56801 0.0
H629 H 0.62283 0.49131 0.47405 0.0
H630 H 0.56869 0.50161 0.47676 0.0
H631 H 0.49939 0.58869 0.5592 0.0
H632 H 0.51308 0.55153 0.56384 0.0
H633 H 0.44876 0.53653 0.48395 0.0
H634 H 0.43437 0.57335 0.47981 0.0
H635 H 0.53698 0.5238 0.52215 0.0
H636 H 0.41519 0.4904 0.49878 0.0
H637 H 0.362 0.50118 0.5091 0.0
H638 H 0.39082 0.54053 0.59233 0.0
H639 H 0.44408 0.52971 0.58294 0.0
C640 C 0.53644 0.42407 0.4958 0.0
C641 C 0.52701 0.40992 0.52129 0.0
C642 C 0.52796 0.44514 0.49743 0.0
C643 C 0.51063 0.45266 0.5251 0.0
C644 C 0.50027 0.43841 0.54999 0.0
C645 C 0.50826 0.41717 0.548 0.0
C646 C 0.50389 0.47544 0.5282 0.0
C647 C 0.4736 0.48194 0.53268 0.0
C648 C 0.52714 0.49077 0.52564 0.0
C649 C 0.55985 0.48494 0.52416 0.0
C650 C 0.57281 0.47232 0.54991 0.0
C651 C 0.60347 0.46654 0.54812 0.0
C652 C 0.62146 0.47334 0.52075 0.0
C653 C 0.60886 0.48604 0.49522 0.0
C654 C 0.5782 0.49191 0.49692 0.0
C655 C 0.48824 0.57747 0.54254 0.0
C656 C 0.46559 0.58397 0.51935 0.0
C657 C 0.49611 0.55625 0.54522 0.0
C658 C 0.48154 0.5412 0.52468 0.0
C659 C 0.45977 0.54778 0.50065 0.0
C660 C 0.45167 0.56889 0.49822 0.0
C661 C 0.48886 0.51857 0.52831 0.0
C662 C 0.51927 0.5121 0.52518 0.0
C663 C 0.46584 0.50332 0.53335 0.0
C664 C 0.43368 0.50935 0.53993 0.0
C665 C 0.41016 0.50123 0.51945 0.0
C666 C 0.37999 0.50737 0.52511 0.0
C667 C 0.37305 0.52158 0.55128 0.0
C668 C 0.39623 0.52957 0.572 0.0
C669 C 0.42641 0.52344 0.56651 0.0
H670 H 0.3497 0.52638 0.55554 0.0
H671 H 0.64519 0.4688 0.51938 0.0
H672 H 0.99539 0.14819 0.13484 0.0
H673 H 0.98005 0.15113 0.19449 0.0
H674 H 0.07431 0.15146 0.2256 0.0
H675 H 0.09001 0.14778 0.16561 0.0
H676 H 0.04223 0.12726 0.26694 0.0
H677 H 0.03078 0.19697 0.22366 0.0
H678 H 0.01331 0.22418 0.18321 0.0
H679 H 0.92025 0.20876 0.20544 0.0
H680 H 0.93715 0.1812 0.24561 0.0
H681 H 0.01104 0.16159 0.4358 0.0
H682 H 0.02835 0.16227 0.37645 0.0
H683 H 0.93652 0.15157 0.34166 0.0
H684 H 0.91878 0.15073 0.40116 0.0
H685 H 0.96904 0.18243 0.30322 0.0
H686 H 0.98149 0.11154 0.34445 0.0
H687 H 0.9995 0.08481 0.38546 0.0
H688 H 0.09199 0.10365 0.36765 0.0
H689 H 0.07447 0.13072 0.32688 0.0
C690 C 0.01298 0.14892 0.15425 0.0
C691 C 0.044 0.14787 0.14533 0.0
C692 C 0.00411 0.15071 0.18843 0.0
C693 C 0.02601 0.15194 0.21452 0.0
C694 C 0.05701 0.15064 0.20586 0.0
C695 C 0.06595 0.14859 0.17156 0.0
C696 C 0.01633 0.15428 0.25081 0.0
C697 C 0.02665 0.13955 0.27494 0.0
C698 C 0.99551 0.17009 0.2612 0.0
C699 C 0.98525 0.1869 0.23747 0.0
C700 C 0.00659 0.19929 0.21978 0.0
C701 C 0.99679 0.21478 0.19691 0.0
C702 C 0.96569 0.21817 0.19171 0.0
C703 C 0.94433 0.20611 0.20947 0.0
C704 C 0.95401 0.19056 0.23233 0.0
C705 C 0.99436 0.15954 0.41564 0.0
C706 C 0.96348 0.15593 0.42336 0.0
C707 C 0.00437 0.15992 0.3817 0.0
C708 C 0.98376 0.15677 0.35478 0.0
C709 C 0.95276 0.15401 0.36218 0.0
C710 C 0.9427 0.15347 0.39619 0.0
C711 C 0.99486 0.15538 0.31902 0.0
C712 C 0.98478 0.17026 0.2951 0.0
C713 C 0.01603 0.13982 0.30885 0.0
C714 C 0.02665 0.12329 0.33286 0.0
C715 C 0.00565 0.11008 0.34945 0.0
C716 C 0.01577 0.09486 0.37263 0.0
C717 C 0.04686 0.09257 0.37923 0.0
C718 C 0.06791 0.10546 0.36255 0.0
C719 C 0.0579 0.12073 0.33938 0.0
H720 H 0.05465 0.08079 0.39721 0.0
H721 H 0.95815 0.23015 0.17397 0.0
H722 H 0.99736 0.8384 0.434 0.0
H723 H 0.98236 0.83504 0.37429 0.0
H724 H 0.07477 0.84711 0.34251 0.0
H725 H 0.09001 0.85107 0.40251 0.0
H726 H 0.03661 0.8696 0.30552 0.0
H727 H 0.04313 0.79758 0.33717 0.0
H728 H 0.03379 0.76612 0.3724 0.0
H729 H 0.93777 0.77145 0.35367 0.0
H730 H 0.94647 0.80315 0.31874 0.0
H731 H 0.01183 0.84007 0.13252 0.0
H732 H 0.02939 0.838 0.1917 0.0
H733 H 0.9366 0.84078 0.22742 0.0
H734 H 0.91859 0.84322 0.16805 0.0
H735 H 0.97664 0.80948 0.2611 0.0
H736 H 0.97165 0.88301 0.23136 0.0
H737 H 0.98257 0.91365 0.19479 0.0
H738 H 0.07854 0.90405 0.20893 0.0
H739 H 0.06817 0.8731 0.24514 0.0
C740 C 0.01467 0.84019 0.41445 0.0
C741 C 0.04497 0.845 0.4232 0.0
C742 C 0.00602 0.83814 0.38021 0.0
C743 C 0.02749 0.84055 0.35387 0.0
C744 C 0.05782 0.84513 0.36243 0.0
C745 C 0.06651 0.84731 0.39676 0.0
C746 C 0.01781 0.83922 0.31744 0.0
C747 C 0.02397 0.85627 0.29573 0.0
C748 C 0.00079 0.82201 0.30472 0.0
C749 C 0.99544 0.80287 0.32556 0.0
C750 C 0.01999 0.79214 0.34077 0.0
C751 C 0.01482 0.77425 0.36066 0.0
C752 C 0.9852 0.76682 0.36534 0.0
C753 C 0.9607 0.77724 0.35006 0.0
C754 C 0.96574 0.79516 0.33017 0.0
C755 C 0.99502 0.84008 0.15283 0.0
C756 C 0.96374 0.84197 0.14547 0.0
C757 C 0.00517 0.8389 0.18666 0.0
C758 C 0.98429 0.83936 0.21381 0.0
C759 C 0.95302 0.84039 0.2067 0.0
C760 C 0.94281 0.84187 0.1728 0.0
C761 C 0.99536 0.83986 0.24962 0.0
C762 C 0.98944 0.82269 0.27106 0.0
C763 C 0.01286 0.85684 0.26204 0.0
C764 C 0.01913 0.87561 0.24065 0.0
C765 C 0.99508 0.88732 0.22642 0.0
C766 C 0.00117 0.90476 0.2058 0.0
C767 C 0.03124 0.91076 0.19945 0.0
C768 C 0.05526 0.89936 0.21382 0.0
C769 C 0.04929 0.88187 0.23441 0.0
H770 H 0.03591 0.92427 0.18348 0.0
H771 H 0.98124 0.75296 0.38075 0.0
H772 H 0.0655 0.8831 0.65623 0.0
H773 H 0.05309 0.8823 0.71738 0.0
H774 H 0.97997 0.83888 0.69721 0.0
H775 H 0.99259 0.83923 0.63629 0.0
H776 H 0.00405 0.89324 0.75261 0.0
H777 H 0.97242 0.80516 0.76348 0.0
H778 H 0.9859 0.77146 0.73618 0.0
H779 H 0.07325 0.79617 0.70783 0.0
H780 H 0.06047 0.8299 0.73538 0.0
H781 H 0.92981 0.87582 0.91207 0.0
H782 H 0.94268 0.87679 0.85103 0.0
H783 H 0.02289 0.83949 0.87075 0.0
H784 H 0.00969 0.83789 0.93138 0.0
H785 H 0.99748 0.82585 0.8159 0.0
H786 H 0.02539 0.89418 0.8571 0.0
H787 H 0.01785 0.92852 0.88509 0.0
H788 H 0.94822 0.94404 0.8121 0.0
H789 H 0.9551 0.90969 0.7839 0.0
C790 C 0.04682 0.87334 0.66483 0.0
C791 C 0.03015 0.86114 0.64141 0.0
C792 C 0.03969 0.87296 0.69977 0.0
C793 C 0.0158 0.86037 0.71195 0.0
C794 C 0.99884 0.84843 0.68852 0.0
C795 C 0.00605 0.8487 0.65365 0.0
C796 C 0.00865 0.85964 0.74916 0.0
C797 C 0.0026 0.87851 0.76647 0.0
C798 C 0.00724 0.84046 0.7674 0.0
C799 C 0.01534 0.82012 0.7512 0.0
C800 C 0.99455 0.80337 0.75155 0.0
C801 C 0.00206 0.78427 0.73601 0.0
C802 C 0.03037 0.7817 0.72018 0.0
C803 C 0.05128 0.7982 0.71998 0.0
C804 C 0.0439 0.81732 0.73553 0.0
C805 C 0.95014 0.86779 0.90335 0.0
C806 C 0.96875 0.85681 0.92658 0.0
C807 C 0.95757 0.86845 0.86847 0.0
C808 C 0.98402 0.85847 0.85629 0.0
C809 C 0.00237 0.84731 0.87945 0.0
C810 C 0.99479 0.84643 0.91418 0.0
C811 C 0.99262 0.85946 0.81944 0.0
C812 C 0.99886 0.84061 0.80211 0.0
C813 C 0.99495 0.87871 0.80144 0.0
C814 C 0.99058 0.89929 0.81857 0.0
C815 C 0.0083 0.90485 0.84718 0.0
C816 C 0.0042 0.92433 0.86304 0.0
C817 C 0.98256 0.93845 0.85038 0.0
C818 C 0.96497 0.9331 0.82187 0.0
C819 C 0.96898 0.91363 0.80592 0.0
H820 H 0.97946 0.95355 0.86261 0.0
H821 H 0.03612 0.76691 0.70813 0.0
H822 H 0.99408 0.16382 0.9334 0.0
H823 H 0.97876 0.16418 0.87326 0.0
H824 H 0.05271 0.12218 0.84846 0.0
H825 H 0.06791 0.12142 0.90875 0.0
H826 H 0.00555 0.17637 0.81614 0.0
H827 H 0.0303 0.08886 0.78536 0.0
H828 H 0.03139 0.05473 0.81527 0.0
H829 H 0.96771 0.07791 0.8898 0.0
H830 H 0.96589 0.11205 0.86008 0.0
H831 H 0.00991 0.16067 0.63763 0.0
H832 H 0.02088 0.16072 0.69887 0.0
H833 H 0.93957 0.12462 0.71782 0.0
H834 H 0.92872 0.12408 0.65625 0.0
H835 H 0.98531 0.10967 0.75456 0.0
H836 H 0.94197 0.1773 0.73515 0.0
H837 H 0.93587 0.21157 0.70658 0.0
H838 H 0.02688 0.2286 0.7354 0.0
H839 H 0.03369 0.19429 0.76373 0.0
C840 C 0.00719 0.15471 0.91517 0.0
C841 C 0.0321 0.14246 0.92591 0.0
C842 C 0.99841 0.15497 0.88077 0.0
C843 C 0.01432 0.14299 0.85645 0.0
C844 C 0.03976 0.13124 0.86691 0.0
C845 C 0.04849 0.13089 0.90136 0.0
C846 C 0.00411 0.14267 0.82021 0.0
C847 C 0.00114 0.16179 0.80267 0.0
C848 C 0.99762 0.12367 0.80287 0.0
C849 C 0.99821 0.10308 0.82066 0.0
C850 C 0.01643 0.08664 0.80805 0.0
C851 C 0.01719 0.0673 0.82498 0.0
C852 C 0.99971 0.06418 0.85448 0.0
C853 C 0.98133 0.08037 0.86703 0.0
C854 C 0.98045 0.09972 0.85016 0.0
C855 C 0.99427 0.15277 0.65478 0.0
C856 C 0.96836 0.14242 0.64208 0.0
C857 C 0.00054 0.15288 0.68983 0.0
C858 C 0.98084 0.14292 0.71299 0.0
C859 C 0.95506 0.13243 0.7004 0.0
C860 C 0.94886 0.13218 0.66523 0.0
C861 C 0.98739 0.14335 0.7503 0.0
C862 C 0.98968 0.12425 0.76804 0.0
C863 C 0.99252 0.16241 0.76806 0.0
C864 C 0.98842 0.18315 0.75133 0.0
C865 C 0.96075 0.1883 0.73521 0.0
C866 C 0.95716 0.20774 0.71908 0.0
C867 C 0.98099 0.22224 0.71912 0.0
C868 C 0.00844 0.21735 0.73537 0.0
C869 C 0.01217 0.19791 0.7515 0.0
H870 H 0.97817 0.23728 0.7066 0.0
H871 H 0.00036 0.0492 0.86757 0.0
H872 H 0.5894 0.6479 0.16132 0.0
H873 H 0.57482 0.65039 0.22171 0.0
H874 H 0.4822 0.66396 0.19217 0.0
H875 H 0.4966 0.66211 0.13203 0.0
H876 H 0.49748 0.68747 0.24494 0.0
H877 H 0.50495 0.61427 0.21615 0.0
H878 H 0.53052 0.58257 0.19395 0.0
H879 H 0.59961 0.58828 0.27123 0.0
H880 H 0.57468 0.62023 0.29358 0.0
H881 H 0.41854 0.6544 0.39601 0.0
H882 H 0.43811 0.65748 0.33743 0.0
H883 H 0.53008 0.6532 0.37539 0.0
H884 H 0.51094 0.65035 0.43392 0.0
H885 H 0.51756 0.62605 0.31988 0.0
H886 H 0.50663 0.69864 0.35056 0.0
H887 H 0.47924 0.72975 0.37217 0.0
H888 H 0.41402 0.72417 0.29071 0.0
H889 H 0.44077 0.6928 0.26891 0.0
C890 C 0.56598 0.65161 0.16765 0.0
C891 C 0.54416 0.65463 0.14172 0.0
C892 C 0.55766 0.65294 0.2022 0.0
C893 C 0.5273 0.65703 0.21148 0.0
C894 C 0.50574 0.66076 0.18567 0.0
C895 C 0.51405 0.6596 0.1512 0.0
C896 C 0.51754 0.65663 0.24793 0.0
C897 C 0.50165 0.67397 0.26122 0.0
C898 C 0.52335 0.63913 0.26937 0.0
C899 C 0.53814 0.61976 0.2563 0.0
C900 C 0.52571 0.60884 0.22827 0.0
C901 C 0.54007 0.59083 0.21567 0.0
C902 C 0.56673 0.58345 0.2311 0.0
C903 C 0.579 0.59404 0.25926 0.0
C904 C 0.56475 0.61209 0.27192 0.0
C905 C 0.44294 0.65424 0.39195 0.0
C906 C 0.46313 0.65213 0.41973 0.0
C907 C 0.45406 0.65604 0.35848 0.0
C908 C 0.48553 0.65561 0.35218 0.0
C909 C 0.50573 0.65355 0.37977 0.0
C910 C 0.49468 0.652 0.41323 0.0
C911 C 0.49739 0.65682 0.31669 0.0
C912 C 0.5136 0.6396 0.30361 0.0
C913 C 0.49157 0.67431 0.29537 0.0
C914 C 0.47554 0.69325 0.3083 0.0
C915 C 0.4863 0.70393 0.33742 0.0
C916 C 0.47091 0.72164 0.34968 0.0
C917 C 0.44486 0.7289 0.33288 0.0
C918 C 0.43419 0.71851 0.30373 0.0
C919 C 0.44946 0.70078 0.29139 0.0
H920 H 0.43299 0.74262 0.3424 0.0
H921 H 0.57783 0.56951 0.22129 0.0
H922 H 0.58059 0.34022 0.40337 0.0
H923 H 0.56319 0.33816 0.34411 0.0
H924 H 0.46989 0.33714 0.37861 0.0
H925 H 0.48709 0.3386 0.43814 0.0
H926 H 0.47707 0.31147 0.32509 0.0
H927 H 0.5036 0.38256 0.35147 0.0
H928 H 0.53685 0.41101 0.37218 0.0
H929 H 0.60196 0.39677 0.29338 0.0
H930 H 0.56937 0.36795 0.27259 0.0
H931 H 0.41011 0.34864 0.16882 0.0
H932 H 0.42704 0.34477 0.22824 0.0
H933 H 0.52006 0.33933 0.19402 0.0
H934 H 0.50348 0.34305 0.13459 0.0
H935 H 0.51259 0.36796 0.24721 0.0
H936 H 0.48461 0.29693 0.22064 0.0
H937 H 0.45037 0.26895 0.2003 0.0
H938 H 0.38622 0.28423 0.27959 0.0
H939 H 0.4199 0.31254 0.3001 0.0
C940 C 0.55636 0.33932 0.39847 0.0
C941 C 0.53524 0.33982 0.4256 0.0
C942 C 0.54644 0.33822 0.3645 0.0
C943 C 0.5152 0.33797 0.35685 0.0
C944 C 0.4941 0.33744 0.38387 0.0
C945 C 0.504 0.33833 0.41793 0.0
C946 C 0.50461 0.3393 0.32072 0.0
C947 C 0.48456 0.32396 0.30819 0.0
C948 C 0.51467 0.35545 0.29847 0.0
C949 C 0.53415 0.37296 0.31066 0.0
C950 C 0.52511 0.38539 0.3387 0.0
C951 C 0.54383 0.4016 0.35045 0.0
C952 C 0.5715 0.40568 0.33412 0.0
C953 C 0.58052 0.39358 0.30601 0.0
C954 C 0.56193 0.3773 0.29423 0.0
C955 C 0.43416 0.34649 0.17386 0.0
C956 C 0.45541 0.34617 0.14683 0.0
C957 C 0.44377 0.34423 0.20786 0.0
C958 C 0.47479 0.34169 0.21551 0.0
C959 C 0.49602 0.34128 0.18865 0.0
C960 C 0.48644 0.34334 0.15466 0.0
C961 C 0.48525 0.34008 0.25158 0.0
C962 C 0.50518 0.35545 0.26412 0.0
C963 C 0.47486 0.32408 0.27385 0.0
C964 C 0.45464 0.307 0.26168 0.0
C965 C 0.46309 0.29445 0.23356 0.0
C966 C 0.4438 0.27851 0.22203 0.0
C967 C 0.4161 0.27485 0.23859 0.0
C968 C 0.40767 0.2871 0.26676 0.0
C969 C 0.42685 0.30309 0.27837 0.0
H970 H 0.4012 0.2625 0.22963 0.0
H971 H 0.58594 0.41827 0.34319 0.0
H972 H 0.47053 0.32624 0.92643 0.0
H973 H 0.48421 0.32504 0.86572 0.0
H974 H 0.47057 0.39204 0.85836 0.0
H975 H 0.45504 0.39301 0.91854 0.0
H976 H 0.45133 0.37617 0.80344 0.0
H977 H 0.54385 0.36708 0.86604 0.0
H978 H 0.57824 0.35111 0.9087 0.0
H979 H 0.57348 0.29214 0.85567 0.0
H980 H 0.53866 0.30767 0.81298 0.0
H981 H 0.54328 0.38987 0.65309 0.0
H982 H 0.52948 0.38976 0.714 0.0
H983 H 0.50786 0.3239 0.70774 0.0
H984 H 0.52085 0.32396 0.64658 0.0
H985 H 0.54598 0.33925 0.76852 0.0
H986 H 0.45176 0.35107 0.70573 0.0
H987 H 0.42035 0.36972 0.66308 0.0
H988 H 0.43324 0.42758 0.71762 0.0
H989 H 0.46518 0.40931 0.76031 0.0
C990 C 0.47024 0.34067 0.91173 0.0
C991 C 0.46186 0.35973 0.9272 0.0
C992 C 0.47831 0.34002 0.87707 0.0
C993 C 0.47926 0.35854 0.85748 0.0
C994 C 0.47016 0.37752 0.87281 0.0
C995 C 0.4613 0.37808 0.90724 0.0
C996 C 0.48993 0.3582 0.82118 0.0
C997 C 0.47224 0.36829 0.79605 0.0
C998 C 0.51714 0.34782 0.81113 0.0
C999 C 0.53841 0.3385 0.83649 0.0
C1000 C 0.55 0.35067 0.86359 0.0
C1001 C 0.56957 0.3417 0.88777 0.0
C1002 C 0.57798 0.32061 0.88494 0.0
C1003 C 0.56691 0.30847 0.85785 0.0
C1004 C 0.54727 0.31735 0.83364 0.0
C1005 C 0.53588 0.37532 0.66475 0.0
C1006 C 0.53304 0.35694 0.64507 0.0
C1007 C 0.52796 0.3753 0.69949 0.0
C1008 C 0.51762 0.35684 0.71521 0.0
C1009 C 0.51584 0.33828 0.69599 0.0
C1010 C 0.52316 0.33838 0.66109 0.0
C1011 C 0.50734 0.35713 0.75136 0.0
C1012 C 0.52513 0.34708 0.77626 0.0
C1013 C 0.48067 0.36794 0.76135 0.0
C1014 C 0.46111 0.37886 0.73599 0.0
C1015 C 0.44812 0.3678 0.70846 0.0
C1016 C 0.43018 0.3783 0.68431 0.0
C1017 C 0.42487 0.39984 0.68759 0.0
C1018 C 0.43741 0.41091 0.71509 0.0
C1019 C 0.45541 0.40048 0.73927 0.0
H1020 H 0.41097 0.40794 0.66886 0.0
H1021 H 0.59311 0.31369 0.90371 0.0
H1022 H 0.56783 0.6252 0.90657 0.0
H1023 H 0.55396 0.62575 0.84582 0.0
H1024 H 0.4701 0.65769 0.8708 0.0
H1025 H 0.48431 0.65786 0.93126 0.0
H1026 H 0.50994 0.60921 0.81073 0.0
H1027 H 0.44866 0.68983 0.80697 0.0
H1028 H 0.4506 0.72404 0.83656 0.0
H1029 H 0.54464 0.71367 0.86154 0.0
H1030 H 0.54337 0.67955 0.8317 0.0
H1031 H 0.42892 0.61784 0.6542 0.0
H1032 H 0.44154 0.61863 0.71531 0.0
H1033 H 0.50925 0.66618 0.69607 0.0
H1034 H 0.49645 0.66579 0.63526 0.0
H1035 H 0.4792 0.67518 0.75256 0.0
H1036 H 0.52928 0.61477 0.70619 0.0
H1037 H 0.53287 0.58125 0.67482 0.0
H1038 H 0.47187 0.55254 0.74689 0.0
H1039 H 0.46757 0.586 0.77842 0.0
C1040 C 0.54649 0.63241 0.89907 0.0
C1041 C 0.52728 0.64164 0.92365 0.0
C1042 C 0.53854 0.63265 0.86436 0.0
C1043 C 0.51116 0.642 0.85363 0.0
C1044 C 0.49166 0.65082 0.87829 0.0
C1045 C 0.49978 0.65085 0.9129 0.0
C1046 C 0.50297 0.64251 0.81667 0.0
C1047 C 0.5032 0.62364 0.79806 0.0
C1048 C 0.49463 0.66138 0.79988 0.0
C1049 C 0.49581 0.68205 0.81738 0.0
C1050 C 0.46978 0.6949 0.81864 0.0
C1051 C 0.47076 0.71426 0.83548 0.0
C1052 C 0.4977 0.72099 0.85101 0.0
C1053 C 0.52376 0.70841 0.8496 0.0
C1054 C 0.52291 0.68905 0.83275 0.0
C1055 C 0.44635 0.62857 0.66302 0.0
C1056 C 0.46181 0.64165 0.63981 0.0
C1057 C 0.45362 0.62894 0.69793 0.0
C1058 C 0.47664 0.64226 0.71019 0.0
C1059 C 0.49144 0.65576 0.6872 0.0
C1060 C 0.48413 0.65547 0.65239 0.0
C1061 C 0.48589 0.64187 0.74678 0.0
C1062 C 0.48583 0.66075 0.76532 0.0
C1063 C 0.49519 0.62312 0.76324 0.0
C1064 C 0.49786 0.60295 0.74446 0.0
C1065 C 0.51645 0.60135 0.7152 0.0
C1066 C 0.51864 0.58236 0.69741 0.0
C1067 C 0.50254 0.56479 0.7088 0.0
C1068 C 0.48429 0.56617 0.73806 0.0
C1069 C 0.48198 0.58514 0.75592 0.0
H1070 H 0.50427 0.5501 0.69499 0.0
H1071 H 0.49839 0.73597 0.86408 0.0
H1072 H 0.37492 0.27967 0.07348 0.0
H1073 H 0.33197 0.25518 0.07503 0.0
H1074 H 0.26928 0.30726 0.08049 0.0
H1075 H 0.31186 0.33178 0.07906 0.0
H1076 H 0.25441 0.27543 0.1255 0.0
H1077 H 0.27967 0.28372 0.00634 0.0
H1078 H 0.31393 0.28369 0.95626 0.0
H1079 H 0.33298 0.21827 0.97203 0.0
H1080 H 0.29916 0.21799 0.02256 0.0
H1081 H 0.11884 0.21962 0.08081 0.0
H1082 H 0.1608 0.24492 0.08283 0.0
H1083 H 0.22546 0.1945 0.06963 0.0
H1084 H 0.18398 0.16931 0.06705 0.0
H1085 H 0.23887 0.22622 0.02849 0.0
H1086 H 0.21416 0.21771 0.14776 0.0
H1087 H 0.18056 0.21761 0.19841 0.0
H1088 H 0.16094 0.28299 0.18311 0.0
H1089 H 0.19412 0.28341 0.13204 0.0
C1090 C 0.352 0.28589 0.07522 0.0
C1091 C 0.34677 0.30765 0.07597 0.0
C1092 C 0.32752 0.2719 0.07601 0.0
C1093 C 0.29749 0.27946 0.07762 0.0
C1094 C 0.29229 0.30113 0.07924 0.0
C1095 C 0.31667 0.31511 0.07824 0.0
C1096 C 0.27137 0.26484 0.07665 0.0
C1097 C 0.25077 0.26481 0.10415 0.0
C1098 C 0.26699 0.25081 0.049 0.0
C1099 C 0.28713 0.25089 0.01844 0.0
C1100 C 0.29135 0.26937 0.99929 0.0
C1101 C 0.31066 0.2694 0.9708 0.0
C1102 C 0.32569 0.25101 0.96102 0.0
C1103 C 0.32136 0.23252 0.97967 0.0
C1104 C 0.30211 0.23241 0.00822 0.0
C1105 C 0.14201 0.21395 0.07849 0.0
C1106 C 0.14805 0.19246 0.07381 0.0
C1107 C 0.16595 0.2284 0.07973 0.0
C1108 C 0.19627 0.22156 0.0766 0.0
C1109 C 0.20226 0.20013 0.072 0.0
C1110 C 0.17845 0.18574 0.07063 0.0
C1111 C 0.22193 0.23662 0.07752 0.0
C1112 C 0.24245 0.2368 0.04991 0.0
C1113 C 0.22625 0.25072 0.10513 0.0
C1114 C 0.20636 0.25053 0.13587 0.0
C1115 C 0.20249 0.23202 0.15503 0.0
C1116 C 0.18355 0.23191 0.18384 0.0
C1117 C 0.16855 0.25026 0.19391 0.0
C1118 C 0.17253 0.26878 0.17524 0.0
C1119 C 0.19141 0.26896 0.14638 0.0
H1120 H 0.15391 0.25015 0.21623 0.0
H1121 H 0.34063 0.25106 0.93895 0.0
H1122 H 0.62184 0.72058 0.08757 0.0
H1123 H 0.66543 0.74445 0.09154 0.0
H1124 H 0.724 0.69638 0.04979 0.0
H1125 H 0.68101 0.67246 0.04631 0.0
H1126 H 0.75007 0.71475 0.10367 0.0
H1127 H 0.69831 0.73753 0.00076 0.0
H1128 H 0.65413 0.75018 0.96761 0.0
H1129 H 0.64846 0.8049 0.0316 0.0
H1130 H 0.69236 0.79242 0.06544 0.0
H1131 H 0.87956 0.77566 0.05777 0.0
H1132 H 0.83533 0.75228 0.05898 0.0
H1133 H 0.7789 0.80359 0.09378 0.0
H1134 H 0.82257 0.82707 0.09132 0.0
H1135 H 0.75083 0.78402 0.0457 0.0
H1136 H 0.80318 0.76222 0.14779 0.0
H1137 H 0.84685 0.74965 0.18185 0.0
H1138 H 0.851 0.69348 0.12116 0.0
H1139 H 0.80759 0.70584 0.08643 0.0
C1140 C 0.644 0.71515 0.07918 0.0
C1141 C 0.64795 0.69463 0.06667 0.0
C1142 C 0.66886 0.7288 0.0814 0.0
C1143 C 0.69793 0.72221 0.07078 0.0
C1144 C 0.70182 0.70176 0.05826 0.0
C1145 C 0.67714 0.68813 0.0562 0.0
C1146 C 0.72451 0.73646 0.07257 0.0
C1147 C 0.75038 0.72983 0.09075 0.0
C1148 C 0.7246 0.75632 0.0564 0.0
C1149 C 0.69842 0.76394 0.03583 0.0
C1150 C 0.68751 0.75219 0.0079 0.0
C1151 C 0.66254 0.75934 0.98897 0.0
C1152 C 0.64845 0.77831 0.99755 0.0
C1153 C 0.65937 0.7902 0.02501 0.0
C1154 C 0.6843 0.7831 0.04406 0.0
C1155 C 0.85775 0.78185 0.06595 0.0
C1156 C 0.85447 0.80315 0.07438 0.0
C1157 C 0.83251 0.76848 0.06675 0.0
C1158 C 0.80378 0.77612 0.0768 0.0
C1159 C 0.80074 0.79733 0.08582 0.0
C1160 C 0.82576 0.81073 0.08447 0.0
C1161 C 0.77657 0.76232 0.07676 0.0
C1162 C 0.75055 0.76902 0.05885 0.0
C1163 C 0.77631 0.74256 0.09333 0.0
C1164 C 0.8023 0.73504 0.11432 0.0
C1165 C 0.81353 0.74725 0.14156 0.0
C1166 C 0.83822 0.74015 0.16101 0.0
C1167 C 0.85174 0.7208 0.15362 0.0
C1168 C 0.84053 0.70848 0.12683 0.0
C1169 C 0.81587 0.71551 0.10728 0.0
H1170 H 0.87085 0.71534 0.1687 0.0
H1171 H 0.62911 0.78381 0.98288 0.0
H1172 H 0.18473 0.82965 0.51064 0.0
H1173 H 0.22699 0.80484 0.50853 0.0
H1174 H 0.164 0.75398 0.49191 0.0
H1175 H 0.1213 0.77876 0.49432 0.0
H1176 H 0.20808 0.74399 0.53914 0.0
H1177 H 0.2042 0.77339 0.42575 0.0
H1178 H 0.20278 0.80207 0.38333 0.0
H1179 H 0.28946 0.82425 0.41893 0.0
H1180 H 0.29119 0.79587 0.46192 0.0
H1181 H 0.31572 0.668 0.48778 0.0
H1182 H 0.2731 0.69254 0.48897 0.0
H1183 H 0.33567 0.74434 0.49866 0.0
H1184 H 0.37867 0.71983 0.49662 0.0
H1185 H 0.29151 0.75386 0.45485 0.0
H1186 H 0.2959 0.72513 0.56819 0.0
H1187 H 0.29785 0.69692 0.61141 0.0
H1188 H 0.21098 0.67416 0.57745 0.0
H1189 H 0.20872 0.70205 0.53364 0.0
C1190 C 0.17975 0.81319 0.50656 0.0
C1191 C 0.14959 0.80621 0.50241 0.0
C1192 C 0.204 0.79904 0.50525 0.0
C1193 C 0.19868 0.77761 0.49959 0.0
C1194 C 0.1686 0.77048 0.49616 0.0
C1195 C 0.14425 0.78466 0.49743 0.0
C1196 C 0.22462 0.76273 0.49718 0.0
C1197 C 0.22611 0.74595 0.5204 0.0
C1198 C 0.24855 0.76565 0.47333 0.0
C1199 C 0.24769 0.78261 0.44726 0.0
C1200 C 0.22286 0.78447 0.4247 0.0
C1201 C 0.22201 0.80066 0.40053 0.0
C1202 C 0.24598 0.81501 0.39849 0.0
C1203 C 0.27089 0.81315 0.42056 0.0
C1204 C 0.27183 0.797 0.44481 0.0
C1205 C 0.32048 0.68462 0.49011 0.0
C1206 C 0.3506 0.69196 0.49228 0.0
C1207 C 0.29604 0.69863 0.49094 0.0
C1208 C 0.30113 0.72027 0.49452 0.0
C1209 C 0.3312 0.72771 0.49599 0.0
C1210 C 0.35574 0.71368 0.49486 0.0
C1211 C 0.27502 0.73506 0.49682 0.0
C1212 C 0.2735 0.75186 0.4736 0.0
C1213 C 0.25115 0.73222 0.52082 0.0
C1214 C 0.25228 0.71557 0.54742 0.0
C1215 C 0.2773 0.71403 0.56978 0.0
C1216 C 0.27846 0.6981 0.5944 0.0
C1217 C 0.25459 0.68373 0.59712 0.0
C1218 C 0.22947 0.68529 0.57529 0.0
C1219 C 0.22823 0.70116 0.55057 0.0
H1220 H 0.25553 0.6714 0.61619 0.0
H1221 H 0.24528 0.82754 0.37977 0.0
H1222 H 0.62763 0.2805 0.53078 0.0
H1223 H 0.67327 0.25835 0.53243 0.0
H1224 H 0.72083 0.30346 0.4695 0.0
H1225 H 0.67606 0.3262 0.47005 0.0
H1226 H 0.70452 0.23778 0.4917 0.0
H1227 H 0.7949 0.30487 0.48349 0.0
H1228 H 0.80057 0.34161 0.50241 0.0
H1229 H 0.73522 0.33139 0.58256 0.0
H1230 H 0.7295 0.29452 0.56447 0.0
H1231 H 0.84148 0.18893 0.45047 0.0
H1232 H 0.79822 0.21318 0.45054 0.0
H1233 H 0.82993 0.2398 0.54595 0.0
H1234 H 0.87462 0.2167 0.54406 0.0
H1235 H 0.80607 0.26896 0.51377 0.0
H1236 H 0.77144 0.2004 0.53965 0.0
H1237 H 0.76552 0.16223 0.53164 0.0
H1238 H 0.71734 0.17289 0.43746 0.0
H1239 H 0.72345 0.21113 0.44458 0.0
C1240 C 0.64792 0.28562 0.51738 0.0
C1241 C 0.64853 0.30509 0.50058 0.0
C1242 C 0.67398 0.27297 0.51826 0.0
C1243 C 0.70088 0.27938 0.50172 0.0
C1244 C 0.70085 0.29843 0.48352 0.0
C1245 C 0.67517 0.31135 0.48356 0.0
C1246 C 0.72892 0.26622 0.50339 0.0
C1247 C 0.72667 0.24462 0.49666 0.0
C1248 C 0.75788 0.27489 0.51097 0.0
C1249 C 0.76158 0.29698 0.52238 0.0
C1250 C 0.78186 0.31043 0.50526 0.0
C1251 C 0.78506 0.33129 0.51583 0.0
C1252 C 0.7682 0.33885 0.5436 0.0
C1253 C 0.7482 0.32554 0.56098 0.0
C1254 C 0.74496 0.30467 0.55056 0.0
C1255 C 0.8394 0.20032 0.47097 0.0
C1256 C 0.86114 0.20113 0.4972 0.0
C1257 C 0.81453 0.21398 0.4713 0.0
C1258 C 0.81014 0.22792 0.49885 0.0
C1259 C 0.83262 0.22918 0.52447 0.0
C1260 C 0.85812 0.21602 0.52344 0.0
C1261 C 0.78171 0.24061 0.50145 0.0
C1262 C 0.78388 0.26211 0.509 0.0
C1263 C 0.7525 0.23162 0.49654 0.0
C1264 C 0.74812 0.20864 0.49252 0.0
C1265 C 0.75969 0.1946 0.51715 0.0
C1266 C 0.75632 0.17295 0.51276 0.0
C1267 C 0.74112 0.16514 0.48403 0.0
C1268 C 0.72914 0.17897 0.45969 0.0
C1269 C 0.73254 0.20064 0.46389 0.0
H1270 H 0.73857 0.14837 0.48064 0.0
H1271 H 0.77067 0.35501 0.5517 0.0
loop_
_geom_bond_atom_site_label_1
_geom_bond_atom_site_label_2
_geom_bond_distance
_geom_bond_site_symmetry_2
_ccdc_geom_bond_type
Co0 O2 2.143 . S
Co0 O8 2.074 . S
Co0 O11 2.093 1_554 S
Co0 O24 2.097 . S
Co0 N41 2.151 1_455 S
Co0 N49 2.214 1_455 S
Co1 O2 2.160 . S
Co1 O7 2.058 . S
Co1 O17 2.057 . S
Co1 O32 2.037 . S
Co1 N36 2.145 . S
Co1 N57 2.257 . S
O2 Co0 2.143 . S
O2 Co1 2.160 . S
C3 O4 1.278 . S
C3 O11 1.224 . S
O4 C3 1.278 . S
C5 O6 1.245 . S
C5 O17 1.232 . S
O6 C5 1.245 . S
O7 Co1 2.058 . S
O7 C33 1.269 . S
O8 Co0 2.074 . S
O8 C33 1.257 . S
H9 C34 0.930 . S
H10 C40 0.930 1_556 S
O11 Co0 2.093 1_556 S
O11 C3 1.224 . S
H12 C44 0.929 . S
H13 C46 0.930 . S
H14 C47 0.930 . S
H15 C45 0.929 . S
H16 C48 0.928 . S
O17 Co1 2.057 . S
O17 C5 1.232 . S
H18 C37 0.929 . S
H19 C38 0.929 . S
H20 C50 0.931 . S
H21 C42 0.941 1_556 S
H22 C51 0.930 . S
H23 C43 0.931 . S
O24 Co0 2.097 . S
O24 C52 1.214 . S
H25 C53 0.929 . S
H26 C54 0.929 . S
H27 C55 0.930 . S
H28 C56 0.929 . S
H29 C58 0.930 . S
H30 C35 0.930 . S
H31 C39 0.930 . S
O32 Co1 2.037 . S
O32 C52 1.234 . S
C33 O7 1.269 . S
C33 O8 1.257 . S
C34 H9 0.930 . S
C34 C37 1.388 . S
C34 C39 1.418 . S
C35 H30 0.930 . S
C35 C38 1.404 . S
C35 C39 1.353 . S
N36 Co1 2.145 . S
N36 C37 1.397 . S
N36 C38 1.334 . S
C37 H18 0.929 . S
C37 C34 1.388 . S
C37 N36 1.397 . S
C38 H19 0.929 . S
C38 C35 1.404 . S
C38 N36 1.334 . S
C39 H31 0.930 . S
C39 C34 1.418 . S
C39 C35 1.353 . S
C40 H10 0.930 1_554 S
C40 N41 1.330 1_455 S
C40 C42 1.446 1_455 S
N41 Co0 2.151 1_655 S
N41 C40 1.330 1_655 S
N41 C45 1.418 . S
C42 H21 0.941 1_554 S
C42 C40 1.446 1_655 S
C42 C43 1.332 . S
C43 H23 0.931 . S
C43 C42 1.332 . S
C43 C44 1.267 . S
C44 H12 0.929 . S
C44 C43 1.267 . S
C44 C45 1.251 . S
C45 H15 0.929 . S
C45 N41 1.418 . S
C45 C44 1.251 . S
C46 H13 0.930 . S
C46 C48 1.406 . S
C46 C51 1.261 . S
C47 H14 0.930 . S
C47 N49 1.325 . S
C47 C50 1.357 . S
C48 H16 0.928 . S
C48 C46 1.406 . S
C48 N49 1.261 . S
N49 Co0 2.214 1_655 S
N49 C47 1.325 . S
N49 C48 1.261 . S
C50 H20 0.931 . S
C50 C47 1.357 . S
C50 C51 1.312 . S
C51 H22 0.930 . S
C51 C46 1.261 . S
C51 C50 1.312 . S
C52 O24 1.214 . S
C52 O32 1.234 . S
C53 H25 0.929 . S
C53 C56 1.391 . S
C53 C58 1.391 . S
C54 H26 0.929 . S
C54 C55 1.390 1_554 S
C54 N57 1.391 . S
C55 H27 0.930 . S
C55 C54 1.390 1_556 S
C55 C56 1.392 . S
C56 H28 0.929 . S
C56 C53 1.391 . S
C56 C55 1.392 . S
N57 Co1 2.257 . S
N57 C54 1.391 . S
N57 C58 1.388 1_554 S
C58 H29 0.930 . S
C58 C53 1.391 . S
C58 N57 1.388 1_556 S
Co59 O61 2.143 . S
Co59 O67 2.074 . S
Co59 O70 2.093 1_554 S
Co59 O83 2.097 . S
Co59 N100 2.151 1_655 S
Co59 N108 2.214 1_655 S
Co60 O61 2.160 . S
Co60 O66 2.058 . S
Co60 O76 2.057 . S
Co60 O91 2.037 . S
Co60 N95 2.145 . S
Co60 N116 2.257 . S
O61 Co59 2.143 . S
O61 Co60 2.160 . S
C62 O63 1.278 . S
C62 O70 1.224 . S
O63 C62 1.278 . S
C64 O65 1.245 . S
C64 O76 1.232 . S
O65 C64 1.245 . S
O66 Co60 2.058 . S
O66 C92 1.269 . S
O67 Co59 2.074 . S
O67 C92 1.257 . S
H68 C93 0.930 . S
H69 C99 0.930 1_556 S
O70 Co59 2.093 1_556 S
O70 C62 1.224 . S
H71 C103 0.929 . S
H72 C105 0.930 . S
H73 C106 0.930 . S
H74 C104 0.929 . S
H75 C107 0.928 . S
O76 Co60 2.057 . S
O76 C64 1.232 . S
H77 C96 0.929 . S
H78 C97 0.929 . S
H79 C109 0.931 . S
H80 C101 0.941 1_556 S
H81 C110 0.930 . S
H82 C102 0.931 . S
O83 Co59 2.097 . S
O83 C111 1.214 . S
H84 C112 0.929 . S
H85 C113 0.929 . S
H86 C114 0.930 . S
H87 C115 0.929 . S
H88 C117 0.930 . S
H89 C94 0.930 . S
H90 C98 0.930 . S
O91 Co60 2.037 . S
O91 C111 1.234 . S
C92 O66 1.269 . S
C92 O67 1.257 . S
C93 H68 0.930 . S
C93 C96 1.388 . S
C93 C98 1.418 . S
C94 H89 0.930 . S
C94 C97 1.404 . S
C94 C98 1.353 . S
N95 Co60 2.145 . S
N95 C96 1.397 . S
N95 C97 1.334 . S
C96 H77 0.929 . S
C96 C93 1.388 . S
C96 N95 1.397 . S
C97 H78 0.929 . S
C97 C94 1.404 . S
C97 N95 1.334 . S
C98 H90 0.930 . S
C98 C93 1.418 . S
C98 C94 1.353 . S
C99 H69 0.930 1_554 S
C99 N100 1.330 1_655 S
C99 C101 1.446 1_655 S
N100 Co59 2.151 1_455 S
N100 C99 1.330 1_455 S
N100 C104 1.418 . S
C101 H80 0.941 1_554 S
C101 C99 1.446 1_455 S
C101 C102 1.332 . S
C102 H82 0.931 . S
C102 C101 1.332 . S
C102 C103 1.267 . S
C103 H71 0.929 . S
C103 C102 1.267 . S
C103 C104 1.251 . S
C104 H74 0.929 . S
C104 N100 1.418 . S
C104 C103 1.251 . S
C105 H72 0.930 . S
C105 C107 1.406 . S
C105 C110 1.261 . S
C106 H73 0.930 . S
C106 N108 1.325 . S
C106 C109 1.357 . S
C107 H75 0.928 . S
C107 C105 1.406 . S
C107 N108 1.261 . S
N108 Co59 2.214 1_455 S
N108 C106 1.325 . S
N108 C107 1.261 . S
C109 H79 0.931 . S
C109 C106 1.357 . S
C109 C110 1.312 . S
C110 H81 0.930 . S
C110 C105 1.261 . S
C110 C109 1.312 . S
C111 O83 1.214 . S
C111 O91 1.234 . S
C112 H84 0.929 . S
C112 C115 1.391 . S
C112 C117 1.391 . S
C113 H85 0.929 . S
C113 C114 1.390 1_554 S
C113 N116 1.391 . S
C114 H86 0.930 . S
C114 C113 1.390 1_556 S
C114 C115 1.392 . S
C115 H87 0.929 . S
C115 C112 1.391 . S
C115 C114 1.392 . S
N116 Co60 2.257 . S
N116 C113 1.391 . S
N116 C117 1.388 1_554 S
C117 H88 0.930 . S
C117 C112 1.391 . S
C117 N116 1.388 1_556 S
Co118 O120 2.143 . S
Co118 O126 2.074 . S
Co118 O129 2.093 . S
Co118 O142 2.097 . S
Co118 N159 2.151 1_455 S
Co118 N167 2.214 1_455 S
Co119 O120 2.160 . S
Co119 O125 2.058 . S
Co119 O135 2.057 . S
Co119 O150 2.037 . S
Co119 N154 2.145 . S
Co119 N175 2.257 . S
O120 Co118 2.143 . S
O120 Co119 2.160 . S
C121 O122 1.278 . S
C121 O129 1.224 . S
O122 C121 1.278 . S
C123 O124 1.245 . S
C123 O135 1.232 . S
O124 C123 1.245 . S
O125 Co119 2.058 . S
O125 C151 1.269 . S
O126 Co118 2.074 . S
O126 C151 1.257 . S
H127 C152 0.930 . S
H128 C158 0.930 . S
O129 Co118 2.093 . S
O129 C121 1.224 . S
H130 C162 0.929 . S
H131 C164 0.930 . S
H132 C165 0.930 . S
H133 C163 0.929 . S
H134 C166 0.928 . S
O135 Co119 2.057 . S
O135 C123 1.232 . S
H136 C155 0.929 . S
H137 C156 0.929 . S
H138 C168 0.931 . S
H139 C160 0.941 . S
H140 C169 0.930 . S
H141 C161 0.931 . S
O142 Co118 2.097 . S
O142 C170 1.214 . S
H143 C171 0.929 . S
H144 C172 0.929 . S
H145 C173 0.930 . S
H146 C174 0.929 . S
H147 C176 0.930 . S
H148 C153 0.930 . S
H149 C157 0.930 . S
O150 Co119 2.037 . S
O150 C170 1.234 . S
C151 O125 1.269 . S
C151 O126 1.257 . S
C152 H127 0.930 . S
C152 C155 1.388 . S
C152 C157 1.418 . S
C153 H148 0.930 . S
C153 C156 1.404 . S
C153 C157 1.353 . S
N154 Co119 2.145 . S
N154 C155 1.397 . S
N154 C156 1.334 . S
C155 H136 0.929 . S
C155 C152 1.388 . S
C155 N154 1.397 . S
C156 H137 0.929 . S
C156 C153 1.404 . S
C156 N154 1.334 . S
C157 H149 0.930 . S
C157 C152 1.418 . S
C157 C153 1.353 . S
C158 H128 0.930 . S
C158 N159 1.330 1_455 S
C158 C160 1.446 1_455 S
N159 Co118 2.151 1_655 S
N159 C158 1.330 1_655 S
N159 C163 1.418 . S
C160 H139 0.941 . S
C160 C158 1.446 1_655 S
C160 C161 1.332 . S
C161 H141 0.931 . S
C161 C160 1.332 . S
C161 C162 1.267 . S
C162 H130 0.929 . S
C162 C161 1.267 . S
C162 C163 1.251 . S
C163 H133 0.929 . S
C163 N159 1.418 . S
C163 C162 1.251 . S
C164 H131 0.930 . S
C164 C166 1.406 . S
C164 C169 1.261 . S
C165 H132 0.930 . S
C165 N167 1.325 . S
C165 C168 1.357 . S
C166 H134 0.928 . S
C166 C164 1.406 . S
C166 N167 1.261 . S
N167 Co118 2.214 1_655 S
N167 C165 1.325 . S
N167 C166 1.261 . S
C168 H138 0.931 . S
C168 C165 1.357 . S
C168 C169 1.312 . S
C169 H140 0.930 . S
C169 C164 1.261 . S
C169 C168 1.312 . S
C170 O142 1.214 . S
C170 O150 1.234 . S
C171 H143 0.929 . S
C171 C174 1.391 . S
C171 C176 1.391 . S
C172 H144 0.929 . S
C172 C173 1.390 . S
C172 N175 1.391 . S
C173 H145 0.930 . S
C173 C172 1.390 . S
C173 C174 1.392 . S
C174 H146 0.929 . S
C174 C171 1.391 . S
C174 C173 1.392 . S
N175 Co119 2.257 . S
N175 C172 1.391 . S
N175 C176 1.388 . S
C176 H147 0.930 . S
C176 C171 1.391 . S
C176 N175 1.388 . S
Co177 O179 2.143 . S
Co177 O185 2.074 . S
Co177 O188 2.093 . S
Co177 O201 2.097 . S
Co177 N218 2.151 1_655 S
Co177 N226 2.214 1_655 S
Co178 O179 2.160 . S
Co178 O184 2.058 . S
Co178 O194 2.057 . S
Co178 O209 2.037 . S
Co178 N213 2.145 . S
Co178 N234 2.257 . S
O179 Co177 2.143 . S
O179 Co178 2.160 . S
C180 O181 1.278 . S
C180 O188 1.224 . S
O181 C180 1.278 . S
C182 O183 1.245 . S
C182 O194 1.232 . S
O183 C182 1.245 . S
O184 Co178 2.058 . S
O184 C210 1.269 . S
O185 Co177 2.074 . S
O185 C210 1.257 . S
H186 C211 0.930 . S
H187 C217 0.930 . S
O188 Co177 2.093 . S
O188 C180 1.224 . S
H189 C221 0.929 . S
H190 C223 0.930 . S
H191 C224 0.930 . S
H192 C222 0.929 . S
H193 C225 0.928 . S
O194 Co178 2.057 . S
O194 C182 1.232 . S
H195 C214 0.929 . S
H196 C215 0.929 . S
H197 C227 0.931 . S
H198 C219 0.941 . S
H199 C228 0.930 . S
H200 C220 0.931 . S
O201 Co177 2.097 . S
O201 C229 1.214 . S
H202 C230 0.929 . S
H203 C231 0.929 . S
H204 C232 0.930 . S
H205 C233 0.929 . S
H206 C235 0.930 . S
H207 C212 0.930 . S
H208 C216 0.930 . S
O209 Co178 2.037 . S
O209 C229 1.234 . S
C210 O184 1.269 . S
C210 O185 1.257 . S
C211 H186 0.930 . S
C211 C214 1.388 . S
C211 C216 1.418 . S
C212 H207 0.930 . S
C212 C215 1.404 . S
C212 C216 1.353 . S
N213 Co178 2.145 . S
N213 C214 1.397 . S
N213 C215 1.334 . S
C214 H195 0.929 . S
C214 C211 1.388 . S
C214 N213 1.397 . S
C215 H196 0.929 . S
C215 C212 1.404 . S
C215 N213 1.334 . S
C216 H208 0.930 . S
C216 C211 1.418 . S
C216 C212 1.353 . S
C217 H187 0.930 . S
C217 N218 1.330 1_655 S
C217 C219 1.446 1_655 S
N218 Co177 2.151 1_455 S
N218 C217 1.330 1_455 S
N218 C222 1.418 . S
C219 H198 0.941 . S
C219 C217 1.446 1_455 S
C219 C220 1.332 . S
C220 H200 0.931 . S
C220 C219 1.332 . S
C220 C221 1.267 . S
C221 H189 0.929 . S
C221 C220 1.267 . S
C221 C222 1.251 . S
C222 H192 0.929 . S
C222 N218 1.418 . S
C222 C221 1.251 . S
C223 H190 0.930 . S
C223 C225 1.406 . S
C223 C228 1.261 . S
C224 H191 0.930 . S
C224 N226 1.325 . S
C224 C227 1.357 . S
C225 H193 0.928 . S
C225 C223 1.406 . S
C225 N226 1.261 . S
N226 Co177 2.214 1_455 S
N226 C224 1.325 . S
N226 C225 1.261 . S
C227 H197 0.931 . S
C227 C224 1.357 . S
C227 C228 1.312 . S
C228 H199 0.930 . S
C228 C223 1.261 . S
C228 C227 1.312 . S
C229 O201 1.214 . S
C229 O209 1.234 . S
C230 H202 0.929 . S
C230 C233 1.391 . S
C230 C235 1.391 . S
C231 H203 0.929 . S
C231 C232 1.390 . S
C231 N234 1.391 . S
C232 H204 0.930 . S
C232 C231 1.390 . S
C232 C233 1.392 . S
C233 H205 0.929 . S
C233 C230 1.391 . S
C233 C232 1.392 . S
N234 Co178 2.257 . S
N234 C231 1.391 . S
N234 C235 1.388 . S
C235 H206 0.930 . S
C235 C230 1.391 . S
C235 N234 1.388 . S
Co236 O238 2.143 . S
Co236 O244 2.074 . S
Co236 O247 2.093 1_554 S
Co236 O260 2.097 . S
Co236 N277 2.151 . S
Co236 N285 2.214 . S
Co237 O238 2.160 . S
Co237 O243 2.058 . S
Co237 O253 2.057 . S
Co237 O268 2.037 . S
Co237 N272 2.145 . S
Co237 N293 2.257 . S
O238 Co236 2.143 . S
O238 Co237 2.160 . S
C239 O240 1.278 . S
C239 O247 1.224 . S
O240 C239 1.278 . S
C241 O242 1.245 . S
C241 O253 1.232 . S
O242 C241 1.245 . S
O243 Co237 2.058 . S
O243 C269 1.269 . S
O244 Co236 2.074 . S
O244 C269 1.257 . S
H245 C270 0.930 . S
H246 C276 0.930 1_556 S
O247 Co236 2.093 1_556 S
O247 C239 1.224 . S
H248 C280 0.929 . S
H249 C282 0.930 . S
H250 C283 0.930 . S
H251 C281 0.929 . S
H252 C284 0.928 . S
O253 Co237 2.057 . S
O253 C241 1.232 . S
H254 C273 0.929 . S
H255 C274 0.929 . S
H256 C286 0.931 . S
H257 C278 0.929 1_556 S
H258 C287 0.930 . S
H259 C279 0.931 . S
O260 Co236 2.097 . S
O260 C288 1.214 . S
H261 C289 0.929 . S
H262 C290 0.929 . S
H263 C291 0.930 . S
H264 C292 0.929 . S
H265 C294 0.930 . S
H266 C271 0.930 . S
H267 C275 0.930 . S
O268 Co237 2.037 . S
O268 C288 1.234 . S
C269 O243 1.269 . S
C269 O244 1.257 . S
C270 H245 0.930 . S
C270 C273 1.388 . S
C270 C275 1.418 . S
C271 H266 0.930 . S
C271 C274 1.404 . S
C271 C275 1.353 . S
N272 Co237 2.145 . S
N272 C273 1.397 . S
N272 C274 1.334 . S
C273 H254 0.929 . S
C273 C270 1.388 . S
C273 N272 1.397 . S
C274 H255 0.929 . S
C274 C271 1.404 . S
C274 N272 1.334 . S
C275 H267 0.930 . S
C275 C270 1.418 . S
C275 C271 1.353 . S
C276 H246 0.930 1_554 S
C276 N277 1.330 . S
C276 C278 1.446 . S
N277 Co236 2.151 . S
N277 C276 1.330 . S
N277 C281 1.418 . S
C278 H257 0.929 1_554 S
C278 C276 1.446 . S
C278 C279 1.332 . S
C279 H259 0.931 . S
C279 C278 1.332 . S
C279 C280 1.267 . S
C280 H248 0.929 . S
C280 C279 1.267 . S
C280 C281 1.251 . S
C281 H251 0.929 . S
C281 N277 1.418 . S
C281 C280 1.251 . S
C282 H249 0.930 . S
C282 C284 1.406 . S
C282 C287 1.261 . S
C283 H250 0.930 . S
C283 N285 1.325 . S
C283 C286 1.357 . S
C284 H252 0.928 . S
C284 C282 1.406 . S
C284 N285 1.261 . S
N285 Co236 2.214 . S
N285 C283 1.325 . S
N285 C284 1.261 . S
C286 H256 0.931 . S
C286 C283 1.357 . S
C286 C287 1.312 . S
C287 H258 0.930 . S
C287 C282 1.261 . S
C287 C286 1.312 . S
C288 O260 1.214 . S
C288 O268 1.234 . S
C289 H261 0.929 . S
C289 C292 1.391 . S
C289 C294 1.391 . S
C290 H262 0.929 . S
C290 C291 1.390 1_554 S
C290 N293 1.391 . S
C291 H263 0.930 . S
C291 C290 1.390 1_556 S
C291 C292 1.392 . S
C292 H264 0.929 . S
C292 C289 1.391 . S
C292 C291 1.392 . S
N293 Co237 2.257 . S
N293 C290 1.391 . S
N293 C294 1.388 1_554 S
C294 H265 0.930 . S
C294 C289 1.391 . S
C294 N293 1.388 1_556 S
Co295 O297 2.143 . S
Co295 O303 2.074 . S
Co295 O306 2.093 1_554 S
Co295 O319 2.097 . S
Co295 N336 2.151 . S
Co295 N344 2.214 . S
Co296 O297 2.160 . S
Co296 O302 2.058 . S
Co296 O312 2.057 . S
Co296 O327 2.037 . S
Co296 N331 2.145 . S
Co296 N352 2.257 . S
O297 Co295 2.143 . S
O297 Co296 2.160 . S
C298 O299 1.278 . S
C298 O306 1.224 . S
O299 C298 1.278 . S
C300 O301 1.245 . S
C300 O312 1.232 . S
O301 C300 1.245 . S
O302 Co296 2.058 . S
O302 C328 1.269 . S
O303 Co295 2.074 . S
O303 C328 1.257 . S
H304 C329 0.930 . S
H305 C335 0.930 1_556 S
O306 Co295 2.093 1_556 S
O306 C298 1.224 . S
H307 C339 0.929 . S
H308 C341 0.930 . S
H309 C342 0.930 . S
H310 C340 0.929 . S
H311 C343 0.928 . S
O312 Co296 2.057 . S
O312 C300 1.232 . S
H313 C332 0.929 . S
H314 C333 0.929 . S
H315 C345 0.931 . S
H316 C337 0.929 1_556 S
H317 C346 0.930 . S
H318 C338 0.931 . S
O319 Co295 2.097 . S
O319 C347 1.214 . S
H320 C348 0.929 . S
H321 C349 0.929 . S
H322 C350 0.930 . S
H323 C351 0.929 . S
H324 C353 0.930 . S
H325 C330 0.930 . S
H326 C334 0.930 . S
O327 Co296 2.037 . S
O327 C347 1.234 . S
C328 O302 1.269 . S
C328 O303 1.257 . S
C329 H304 0.930 . S
C329 C332 1.388 . S
C329 C334 1.418 . S
C330 H325 0.930 . S
C330 C333 1.404 . S
C330 C334 1.353 . S
N331 Co296 2.145 . S
N331 C332 1.397 . S
N331 C333 1.334 . S
C332 H313 0.929 . S
C332 C329 1.388 . S
C332 N331 1.397 . S
C333 H314 0.929 . S
C333 C330 1.404 . S
C333 N331 1.334 . S
C334 H326 0.930 . S
C334 C329 1.418 . S
C334 C330 1.353 . S
C335 H305 0.930 1_554 S
C335 N336 1.330 . S
C335 C337 1.446 . S
N336 Co295 2.151 . S
N336 C335 1.330 . S
N336 C340 1.418 . S
C337 H316 0.929 1_554 S
C337 C335 1.446 . S
C337 C338 1.332 . S
C338 H318 0.931 . S
C338 C337 1.332 . S
C338 C339 1.267 . S
C339 H307 0.929 . S
C339 C338 1.267 . S
C339 C340 1.251 . S
C340 H310 0.929 . S
C340 N336 1.418 . S
C340 C339 1.251 . S
C341 H308 0.930 . S
C341 C343 1.406 . S
C341 C346 1.261 . S
C342 H309 0.930 . S
C342 N344 1.325 . S
C342 C345 1.357 . S
C343 H311 0.928 . S
C343 C341 1.406 . S
C343 N344 1.261 . S
N344 Co295 2.214 . S
N344 C342 1.325 . S
N344 C343 1.261 . S
C345 H315 0.931 . S
C345 C342 1.357 . S
C345 C346 1.312 . S
C346 H317 0.930 . S
C346 C341 1.261 . S
C346 C345 1.312 . S
C347 O319 1.214 . S
C347 O327 1.234 . S
C348 H320 0.929 . S
C348 C351 1.391 . S
C348 C353 1.391 . S
C349 H321 0.929 . S
C349 C350 1.390 1_554 S
C349 N352 1.391 . S
C350 H322 0.930 . S
C350 C349 1.390 1_556 S
C350 C351 1.392 . S
C351 H323 0.929 . S
C351 C348 1.391 . S
C351 C350 1.392 . S
N352 Co296 2.257 . S
N352 C349 1.391 . S
N352 C353 1.388 1_554 S
C353 H324 0.930 . S
C353 C348 1.391 . S
C353 N352 1.388 1_556 S
Co354 O356 2.143 . S
Co354 O362 2.074 . S
Co354 O365 2.093 . S
Co354 O378 2.097 . S
Co354 N395 2.151 . S
Co354 N403 2.214 . S
Co355 O356 2.160 . S
Co355 O361 2.058 . S
Co355 O371 2.057 . S
Co355 O386 2.037 . S
Co355 N390 2.145 . S
Co355 N411 2.257 . S
O356 Co354 2.143 . S
O356 Co355 2.160 . S
C357 O358 1.278 . S
C357 O365 1.224 . S
O358 C357 1.278 . S
C359 O360 1.245 . S
C359 O371 1.232 . S
O360 C359 1.245 . S
O361 Co355 2.058 . S
O361 C387 1.269 . S
O362 Co354 2.074 . S
O362 C387 1.257 . S
H363 C388 0.930 . S
H364 C394 0.930 . S
O365 Co354 2.093 . S
O365 C357 1.224 . S
H366 C398 0.929 . S
H367 C400 0.930 . S
H368 C401 0.930 . S
H369 C399 0.929 . S
H370 C402 0.928 . S
O371 Co355 2.057 . S
O371 C359 1.232 . S
H372 C391 0.929 . S
H373 C392 0.929 . S
H374 C404 0.931 . S
H375 C396 0.929 . S
H376 C405 0.930 . S
H377 C397 0.931 . S
O378 Co354 2.097 . S
O378 C406 1.214 . S
H379 C407 0.929 . S
H380 C408 0.929 . S
H381 C409 0.930 . S
H382 C410 0.929 . S
H383 C412 0.930 . S
H384 C389 0.930 . S
H385 C393 0.930 . S
O386 Co355 2.037 . S
O386 C406 1.234 . S
C387 O361 1.269 . S
C387 O362 1.257 . S
C388 H363 0.930 . S
C388 C391 1.388 . S
C388 C393 1.418 . S
C389 H384 0.930 . S
C389 C392 1.404 . S
C389 C393 1.353 . S
N390 Co355 2.145 . S
N390 C391 1.397 . S
N390 C392 1.334 . S
C391 H372 0.929 . S
C391 C388 1.388 . S
C391 N390 1.397 . S
C392 H373 0.929 . S
C392 C389 1.404 . S
C392 N390 1.334 . S
C393 H385 0.930 . S
C393 C388 1.418 . S
C393 C389 1.353 . S
C394 H364 0.930 . S
C394 N395 1.330 . S
C394 C396 1.446 . S
N395 Co354 2.151 . S
N395 C394 1.330 . S
N395 C399 1.418 . S
C396 H375 0.929 . S
C396 C394 1.446 . S
C396 C397 1.332 . S
C397 H377 0.931 . S
C397 C396 1.332 . S
C397 C398 1.267 . S
C398 H366 0.929 . S
C398 C397 1.267 . S
C398 C399 1.251 . S
C399 H369 0.929 . S
C399 N395 1.418 . S
C399 C398 1.251 . S
C400 H367 0.930 . S
C400 C402 1.406 . S
C400 C405 1.261 . S
C401 H368 0.930 . S
C401 N403 1.325 . S
C401 C404 1.357 . S
C402 H370 0.928 . S
C402 C400 1.406 . S
C402 N403 1.261 . S
N403 Co354 2.214 . S
N403 C401 1.325 . S
N403 C402 1.261 . S
C404 H374 0.931 . S
C404 C401 1.357 . S
C404 C405 1.312 . S
C405 H376 0.930 . S
C405 C400 1.261 . S
C405 C404 1.312 . S
C406 O378 1.214 . S
C406 O386 1.234 . S
C407 H379 0.929 . S
C407 C410 1.391 . S
C407 C412 1.391 . S
C408 H380 0.929 . S
C408 C409 1.390 . S
C408 N411 1.391 . S
C409 H381 0.930 . S
C409 C408 1.390 . S
C409 C410 1.392 . S
C410 H382 0.929 . S
C410 C407 1.391 . S
C410 C409 1.392 . S
N411 Co355 2.257 . S
N411 C408 1.391 . S
N411 C412 1.388 . S
C412 H383 0.930 . S
C412 C407 1.391 . S
C412 N411 1.388 . S
Co413 O415 2.143 . S
Co413 O421 2.074 . S
Co413 O424 2.093 . S
Co413 O437 2.097 . S
Co413 N454 2.151 . S
Co413 N462 2.214 . S
Co414 O415 2.160 . S
Co414 O420 2.058 . S
Co414 O430 2.057 . S
Co414 O445 2.037 . S
Co414 N449 2.145 . S
Co414 N470 2.257 . S
O415 Co413 2.143 . S
O415 Co414 2.160 . S
C416 O417 1.278 . S
C416 O424 1.224 . S
O417 C416 1.278 . S
C418 O419 1.245 . S
C418 O430 1.232 . S
O419 C418 1.245 . S
O420 Co414 2.058 . S
O420 C446 1.269 . S
O421 Co413 2.074 . S
O421 C446 1.257 . S
H422 C447 0.930 . S
H423 C453 0.930 . S
O424 Co413 2.093 . S
O424 C416 1.224 . S
H425 C457 0.929 . S
H426 C459 0.930 . S
H427 C460 0.930 . S
H428 C458 0.929 . S
H429 C461 0.928 . S
O430 Co414 2.057 . S
O430 C418 1.232 . S
H431 C450 0.929 . S
H432 C451 0.929 . S
H433 C463 0.931 . S
H434 C455 0.929 . S
H435 C464 0.930 . S
H436 C456 0.931 . S
O437 Co413 2.097 . S
O437 C465 1.214 . S
H438 C466 0.929 . S
H439 C467 0.929 . S
H440 C468 0.930 . S
H441 C469 0.929 . S
H442 C471 0.930 . S
H443 C448 0.930 . S
H444 C452 0.930 . S
O445 Co414 2.037 . S
O445 C465 1.234 . S
C446 O420 1.269 . S
C446 O421 1.257 . S
C447 H422 0.930 . S
C447 C450 1.388 . S
C447 C452 1.418 . S
C448 H443 0.930 . S
C448 C451 1.404 . S
C448 C452 1.353 . S
N449 Co414 2.145 . S
N449 C450 1.397 . S
N449 C451 1.334 . S
C450 H431 0.929 . S
C450 C447 1.388 . S
C450 N449 1.397 . S
C451 H432 0.929 . S
C451 C448 1.404 . S
C451 N449 1.334 . S
C452 H444 0.930 . S
C452 C447 1.418 . S
C452 C448 1.353 . S
C453 H423 0.930 . S
C453 N454 1.330 . S
C453 C455 1.446 . S
N454 Co413 2.151 . S
N454 C453 1.330 . S
N454 C458 1.418 . S
C455 H434 0.929 . S
C455 C453 1.446 . S
C455 C456 1.332 . S
C456 H436 0.931 . S
C456 C455 1.332 . S
C456 C457 1.267 . S
C457 H425 0.929 . S
C457 C456 1.267 . S
C457 C458 1.251 . S
C458 H428 0.929 . S
C458 N454 1.418 . S
C458 C457 1.251 . S
C459 H426 0.930 . S
C459 C461 1.406 . S
C459 C464 1.261 . S
C460 H427 0.930 . S
C460 N462 1.325 . S
C460 C463 1.357 . S
C461 H429 0.928 . S
C461 C459 1.406 . S
C461 N462 1.261 . S
N462 Co413 2.214 . S
N462 C460 1.325 . S
N462 C461 1.261 . S
C463 H433 0.931 . S
C463 C460 1.357 . S
C463 C464 1.312 . S
C464 H435 0.930 . S
C464 C459 1.261 . S
C464 C463 1.312 . S
C465 O437 1.214 . S
C465 O445 1.234 . S
C466 H438 0.929 . S
C466 C469 1.391 . S
C466 C471 1.391 . S
C467 H439 0.929 . S
C467 C468 1.390 . S
C467 N470 1.391 . S
C468 H440 0.930 . S
C468 C467 1.390 . S
C468 C469 1.392 . S
C469 H441 0.929 . S
C469 C466 1.391 . S
C469 C468 1.392 . S
N470 Co414 2.257 . S
N470 C467 1.391 . S
N470 C471 1.388 . S
C471 H442 0.930 . S
C471 C466 1.391 . S
C471 N470 1.388 . S
H472 C490 0.951 . S
H473 C492 0.951 . S
H474 C494 0.950 . S
H475 C495 0.950 1_455 S
H476 C497 0.950 . S
H477 C500 0.950 . S
H478 C501 0.950 . S
H479 C503 0.950 . S
H480 C504 0.950 1_544 S
H481 C505 0.951 . S
H482 C507 0.951 . S
H483 C509 0.950 . S
H484 C510 0.950 1_655 S
H485 C512 0.950 . S
H486 C515 0.950 . S
H487 C516 0.950 . S
H488 C518 0.950 . S
H489 C519 0.950 1_565 S
C490 H472 0.951 . S
C490 C491 1.366 . S
C490 C492 1.388 . S
C491 C490 1.366 . S
C491 C495 1.385 . S
C492 H473 0.951 . S
C492 C490 1.388 . S
C492 C493 1.366 . S
C493 C492 1.366 . S
C493 C494 1.414 1_655 S
C493 C496 1.499 . S
C494 H474 0.950 . S
C494 C493 1.414 1_455 S
C494 C495 1.374 1_455 S
C495 H475 0.950 1_655 S
C495 C491 1.385 . S
C495 C494 1.374 1_655 S
C496 C493 1.499 . S
C496 C497 1.373 1_655 S
C496 C498 1.389 . S
C497 H476 0.950 . S
C497 C496 1.373 1_455 S
C497 C513 1.377 1_565 S
C498 C496 1.389 . S
C498 C499 1.524 1_554 S
C498 C512 1.377 1_565 S
C499 C498 1.524 1_556 S
C499 C500 1.397 . S
C499 C504 1.363 . S
C500 H477 0.950 . S
C500 C499 1.397 . S
C500 C501 1.334 . S
C501 H478 0.950 . S
C501 C500 1.334 . S
C501 C502 1.287 . S
C502 C501 1.287 . S
C502 C503 1.524 . S
C502 H521 0.913 . S
C503 H479 0.950 . S
C503 C502 1.524 . S
C503 C504 1.415 . S
C504 H480 0.950 1_566 S
C504 C499 1.363 . S
C504 C503 1.415 . S
C505 H481 0.951 . S
C505 C506 1.366 . S
C505 C507 1.388 . S
C506 C505 1.366 . S
C506 C510 1.385 . S
C507 H482 0.951 . S
C507 C505 1.388 . S
C507 C508 1.366 . S
C508 C507 1.366 . S
C508 C509 1.414 1_455 S
C508 C511 1.499 . S
C509 H483 0.950 . S
C509 C508 1.414 1_655 S
C509 C510 1.374 1_655 S
C510 H484 0.950 1_455 S
C510 C506 1.385 . S
C510 C509 1.374 1_455 S
C511 C508 1.499 . S
C511 C512 1.373 1_455 S
C511 C513 1.389 . S
C512 H485 0.950 . S
C512 C498 1.377 1_545 S
C512 C511 1.373 1_655 S
C513 C497 1.377 1_545 S
C513 C511 1.389 . S
C513 C514 1.524 . S
C514 C513 1.524 . S
C514 C515 1.397 . S
C514 C519 1.363 . S
C515 H486 0.950 . S
C515 C514 1.397 . S
C515 C516 1.334 . S
C516 H487 0.950 . S
C516 C515 1.334 . S
C516 C517 1.287 . S
C517 C516 1.287 . S
C517 C518 1.524 . S
C517 H520 0.999 . S
C518 H488 0.950 . S
C518 C517 1.524 . S
C518 C519 1.415 . S
C519 H489 0.950 1_545 S
C519 C514 1.363 . S
C519 C518 1.415 . S
H520 C517 0.999 . S
H521 C502 0.913 . S
H522 C540 0.951 . S
H523 C542 0.951 . S
H524 C544 0.950 . S
H525 C545 0.950 1_655 S
H526 C547 0.950 . S
H527 C550 0.950 . S
H528 C551 0.950 . S
H529 C553 0.950 1_545 S
H530 C554 0.921 1_545 S
H531 C555 0.951 . S
H532 C557 0.951 . S
H533 C559 0.950 . S
H534 C560 0.950 1_455 S
H535 C562 0.950 . S
H536 C565 0.950 . S
H537 C566 0.950 . S
H538 C568 0.950 1_565 S
H539 C569 0.921 1_565 S
C540 H522 0.951 . S
C540 C541 1.366 . S
C540 C542 1.388 . S
C541 C540 1.366 . S
C541 C545 1.385 . S
C542 H523 0.951 . S
C542 C540 1.388 . S
C542 C543 1.366 . S
C543 C542 1.366 . S
C543 C544 1.414 1_455 S
C543 C546 1.499 . S
C544 H524 0.950 . S
C544 C543 1.414 1_655 S
C544 C545 1.374 1_655 S
C545 H525 0.950 1_455 S
C545 C541 1.385 . S
C545 C544 1.374 1_455 S
C546 C543 1.499 . S
C546 C547 1.373 1_455 S
C546 C548 1.389 . S
C547 H526 0.950 . S
C547 C546 1.373 1_655 S
C547 C563 1.377 1_565 S
C548 C546 1.389 . S
C548 C549 1.524 . S
C548 C562 1.377 1_565 S
C549 C548 1.524 . S
C549 C550 1.397 . S
C549 C554 1.385 . S
C550 H527 0.950 . S
C550 C549 1.397 . S
C550 C551 1.334 . S
C551 H528 0.950 . S
C551 C550 1.334 . S
C551 C552 1.287 . S
C552 C551 1.287 . S
C552 C553 1.524 . S
C552 H571 0.913 . S
C553 H529 0.950 1_565 S
C553 C552 1.524 . S
C553 C554 1.424 . S
C554 H530 0.921 1_565 S
C554 C549 1.385 . S
C554 C553 1.424 . S
C555 H531 0.951 . S
C555 C556 1.366 . S
C555 C557 1.388 . S
C556 C555 1.366 . S
C556 C560 1.385 . S
C557 H532 0.951 . S
C557 C555 1.388 . S
C557 C558 1.366 . S
C558 C557 1.366 . S
C558 C559 1.414 1_655 S
C558 C561 1.499 . S
C559 H533 0.950 . S
C559 C558 1.414 1_455 S
C559 C560 1.374 1_455 S
C560 H534 0.950 1_655 S
C560 C556 1.385 . S
C560 C559 1.374 1_655 S
C561 C558 1.499 . S
C561 C562 1.373 1_655 S
C561 C563 1.389 . S
C562 H535 0.950 . S
C562 C548 1.377 1_545 S
C562 C561 1.373 1_455 S
C563 C547 1.377 1_545 S
C563 C561 1.389 . S
C563 C564 1.524 . S
C564 C563 1.524 . S
C564 C565 1.397 . S
C564 C569 1.385 . S
C565 H536 0.950 . S
C565 C564 1.397 . S
C565 C566 1.334 . S
C566 H537 0.950 . S
C566 C565 1.334 . S
C566 C567 1.287 . S
C567 C566 1.287 . S
C567 C568 1.524 . S
C567 H570 0.999 . S
C568 H538 0.950 1_545 S
C568 C567 1.524 . S
C568 C569 1.424 . S
C569 H539 0.921 1_545 S
C569 C564 1.385 . S
C569 C568 1.424 . S
H570 C567 0.999 . S
H571 C552 0.913 . S
H572 C590 0.951 . S
H573 C592 0.951 . S
H574 C594 0.950 . S
H575 C595 0.950 . S
H576 C597 0.950 . S
H577 C600 0.950 . S
H578 C601 0.950 . S
H579 C603 0.950 . S
H580 C604 0.950 . S
H581 C605 0.951 . S
H582 C607 0.951 . S
H583 C609 0.950 . S
H584 C610 0.950 . S
H585 C612 0.950 . S
H586 C615 0.950 . S
H587 C616 0.950 . S
H588 C618 0.950 . S
H589 C619 0.950 . S
C590 H572 0.951 . S
C590 C591 1.366 . S
C590 C592 1.388 . S
C591 C590 1.366 . S
C591 C595 1.385 . S
C592 H573 0.951 . S
C592 C590 1.388 . S
C592 C593 1.366 . S
C593 C592 1.366 . S
C593 C594 1.414 . S
C593 C596 1.499 . S
C594 H574 0.950 . S
C594 C593 1.414 . S
C594 C595 1.374 . S
C595 H575 0.950 . S
C595 C591 1.385 . S
C595 C594 1.374 . S
C596 C593 1.499 . S
C596 C597 1.373 . S
C596 C598 1.389 . S
C597 H576 0.950 . S
C597 C596 1.373 . S
C597 C613 1.377 . S
C598 C596 1.389 . S
C598 C599 1.524 1_554 S
C598 C612 1.377 . S
C599 C598 1.524 1_556 S
C599 C600 1.397 . S
C599 C604 1.363 . S
C600 H577 0.950 . S
C600 C599 1.397 . S
C600 C601 1.334 . S
C601 H578 0.950 . S
C601 C600 1.334 . S
C601 C602 1.287 . S
C602 C601 1.287 . S
C602 C603 1.524 . S
C602 H621 0.913 . S
C603 H579 0.950 . S
C603 C602 1.524 . S
C603 C604 1.415 . S
C604 H580 0.950 . S
C604 C599 1.363 . S
C604 C603 1.415 . S
C605 H581 0.951 . S
C605 C606 1.366 . S
C605 C607 1.388 . S
C606 C605 1.366 . S
C606 C610 1.385 . S
C607 H582 0.951 . S
C607 C605 1.388 . S
C607 C608 1.366 . S
C608 C607 1.366 . S
C608 C609 1.414 . S
C608 C611 1.499 . S
C609 H583 0.950 . S
C609 C608 1.414 . S
C609 C610 1.374 . S
C610 H584 0.950 . S
C610 C606 1.385 . S
C610 C609 1.374 . S
C611 C608 1.499 . S
C611 C612 1.373 . S
C611 C613 1.389 . S
C612 H585 0.950 . S
C612 C598 1.377 . S
C612 C611 1.373 . S
C613 C597 1.377 . S
C613 C611 1.389 . S
C613 C614 1.524 . S
C614 C613 1.524 . S
C614 C615 1.397 . S
C614 C619 1.363 . S
C615 H586 0.950 . S
C615 C614 1.397 . S
C615 C616 1.334 . S
C616 H587 0.950 . S
C616 C615 1.334 . S
C616 C617 1.287 . S
C617 C616 1.287 . S
C617 C618 1.524 . S
C617 H620 0.999 . S
C618 H588 0.950 . S
C618 C617 1.524 . S
C618 C619 1.415 . S
C619 H589 0.950 . S
C619 C614 1.363 . S
C619 C618 1.415 . S
H620 C617 0.999 . S
H621 C602 0.913 . S
H622 C640 0.951 . S
H623 C642 0.951 . S
H624 C644 0.950 . S
H625 C645 0.950 . S
H626 C647 0.950 . S
H627 C650 0.950 . S
H628 C651 0.950 . S
H629 C653 0.950 . S
H630 C654 0.950 . S
H631 C655 0.951 . S
H632 C657 0.951 . S
H633 C659 0.950 . S
H634 C660 0.950 . S
H635 C662 0.950 . S
H636 C665 0.950 . S
H637 C666 0.950 . S
H638 C668 0.950 . S
H639 C669 0.950 . S
C640 H622 0.951 . S
C640 C641 1.366 . S
C640 C642 1.388 . S
C641 C640 1.366 . S
C641 C645 1.385 . S
C642 H623 0.951 . S
C642 C640 1.388 . S
C642 C643 1.366 . S
C643 C642 1.366 . S
C643 C644 1.414 . S
C643 C646 1.499 . S
C644 H624 0.950 . S
C644 C643 1.414 . S
C644 C645 1.374 . S
C645 H625 0.950 . S
C645 C641 1.385 . S
C645 C644 1.374 . S
C646 C643 1.499 . S
C646 C647 1.373 . S
C646 C648 1.389 . S
C647 H626 0.950 . S
C647 C646 1.373 . S
C647 C663 1.377 . S
C648 C646 1.389 . S
C648 C649 1.524 . S
C648 C662 1.377 . S
C649 C648 1.524 . S
C649 C650 1.397 . S
C649 C654 1.363 . S
C650 H627 0.950 . S
C650 C649 1.397 . S
C650 C651 1.334 . S
C651 H628 0.950 . S
C651 C650 1.334 . S
C651 C652 1.287 . S
C652 C651 1.287 . S
C652 C653 1.524 . S
C652 H671 0.913 . S
C653 H629 0.950 . S
C653 C652 1.524 . S
C653 C654 1.415 . S
C654 H630 0.950 . S
C654 C649 1.363 . S
C654 C653 1.415 . S
C655 H631 0.951 . S
C655 C656 1.366 . S
C655 C657 1.388 . S
C656 C655 1.366 . S
C656 C660 1.385 . S
C657 H632 0.951 . S
C657 C655 1.388 . S
C657 C658 1.366 . S
C658 C657 1.366 . S
C658 C659 1.414 . S
C658 C661 1.499 . S
C659 H633 0.950 . S
C659 C658 1.414 . S
C659 C660 1.374 . S
C660 H634 0.950 . S
C660 C656 1.385 . S
C660 C659 1.374 . S
C661 C658 1.499 . S
C661 C662 1.373 . S
C661 C663 1.389 . S
C662 H635 0.950 . S
C662 C648 1.377 . S
C662 C661 1.373 . S
C663 C647 1.377 . S
C663 C661 1.389 . S
C663 C664 1.524 . S
C664 C663 1.524 . S
C664 C665 1.397 . S
C664 C669 1.363 . S
C665 H636 0.950 . S
C665 C664 1.397 . S
C665 C666 1.334 . S
C666 H637 0.950 . S
C666 C665 1.334 . S
C666 C667 1.287 . S
C667 C666 1.287 . S
C667 C668 1.524 . S
C667 H670 0.999 . S
C668 H638 0.950 . S
C668 C667 1.524 . S
C668 C669 1.415 . S
C669 H639 0.950 . S
C669 C664 1.363 . S
C669 C668 1.415 . S
H670 C667 0.999 . S
H671 C652 0.913 . S
H672 C690 0.951 . S
H673 C692 0.951 . S
H674 C694 0.950 . S
H675 C695 0.950 . S
H676 C697 0.950 . S
H677 C700 0.950 . S
H678 C701 0.950 . S
H679 C703 0.950 . S
H680 C704 0.950 . S
H681 C705 0.951 . S
H682 C707 0.951 . S
H683 C709 0.950 . S
H684 C710 0.950 . S
H685 C712 0.950 . S
H686 C715 0.950 . S
H687 C716 0.950 . S
H688 C718 0.950 . S
H689 C719 0.950 . S
C690 H672 0.951 . S
C690 C691 1.366 1_655 S
C690 C692 1.388 . S
C691 C690 1.366 1_455 S
C691 C695 1.385 . S
C692 H673 0.951 . S
C692 C690 1.388 . S
C692 C693 1.366 1_655 S
C693 C692 1.366 1_455 S
C693 C694 1.414 . S
C693 C696 1.499 . S
C694 H674 0.950 . S
C694 C693 1.414 . S
C694 C695 1.374 . S
C695 H675 0.950 . S
C695 C691 1.385 . S
C695 C694 1.374 . S
C696 C693 1.499 . S
C696 C697 1.373 . S
C696 C698 1.389 1_455 S
C697 H676 0.950 . S
C697 C696 1.373 . S
C697 C713 1.377 . S
C698 C696 1.389 1_655 S
C698 C699 1.524 . S
C698 C712 1.377 . S
C699 C698 1.524 . S
C699 C700 1.397 . S
C699 C704 1.363 . S
C700 H677 0.950 . S
C700 C699 1.397 . S
C700 C701 1.334 . S
C701 H678 0.950 . S
C701 C700 1.334 . S
C701 C702 1.287 . S
C702 C701 1.287 . S
C702 C703 1.524 . S
C702 H721 0.913 . S
C703 H679 0.950 . S
C703 C702 1.524 . S
C703 C704 1.415 . S
C704 H680 0.950 . S
C704 C699 1.363 . S
C704 C703 1.415 . S
C705 H681 0.951 . S
C705 C706 1.366 1_455 S
C705 C707 1.388 . S
C706 C705 1.366 1_655 S
C706 C710 1.385 . S
C707 H682 0.951 . S
C707 C705 1.388 . S
C707 C708 1.366 1_455 S
C708 C707 1.366 1_655 S
C708 C709 1.414 . S
C708 C711 1.499 . S
C709 H683 0.950 . S
C709 C708 1.414 . S
C709 C710 1.374 . S
C710 H684 0.950 . S
C710 C706 1.385 . S
C710 C709 1.374 . S
C711 C708 1.499 . S
C711 C712 1.373 . S
C711 C713 1.389 1_655 S
C712 H685 0.950 . S
C712 C698 1.377 . S
C712 C711 1.373 . S
C713 C697 1.377 . S
C713 C711 1.389 1_455 S
C713 C714 1.524 . S
C714 C713 1.524 . S
C714 C715 1.397 . S
C714 C719 1.363 . S
C715 H686 0.950 . S
C715 C714 1.397 . S
C715 C716 1.334 . S
C716 H687 0.950 . S
C716 C715 1.334 . S
C716 C717 1.287 . S
C717 C716 1.287 . S
C717 C718 1.524 . S
C717 H720 0.999 . S
C718 H688 0.950 . S
C718 C717 1.524 . S
C718 C719 1.415 . S
C719 H689 0.950 . S
C719 C714 1.363 . S
C719 C718 1.415 . S
H720 C717 0.999 . S
H721 C702 0.913 . S
H722 C740 0.951 1_655 S
H723 C742 0.951 . S
H724 C744 0.950 . S
H725 C745 0.950 . S
H726 C747 0.950 . S
H727 C750 0.950 . S
H728 C751 0.950 . S
H729 C753 0.948 . S
H730 C754 0.950 . S
H731 C755 0.951 1_455 S
H732 C757 0.951 . S
H733 C759 0.950 . S
H734 C760 0.950 . S
H735 C762 0.950 . S
H736 C765 0.950 . S
H737 C766 0.950 . S
H738 C768 0.948 . S
H739 C769 0.950 . S
C740 H722 0.951 1_455 S
C740 C741 1.366 . S
C740 C742 1.388 1_455 S
C741 C740 1.366 . S
C741 C745 1.385 . S
C742 H723 0.951 . S
C742 C740 1.388 1_655 S
C742 C743 1.366 1_655 S
C743 C742 1.366 1_455 S
C743 C744 1.414 . S
C743 C746 1.499 . S
C744 H724 0.950 . S
C744 C743 1.414 . S
C744 C745 1.374 . S
C745 H725 0.950 . S
C745 C741 1.385 . S
C745 C744 1.374 . S
C746 C743 1.499 . S
C746 C747 1.373 . S
C746 C748 1.389 . S
C747 H726 0.950 . S
C747 C746 1.373 . S
C747 C763 1.377 1_455 S
C748 C746 1.389 . S
C748 C749 1.524 . S
C748 C762 1.377 1_455 S
C749 C748 1.524 . S
C749 C750 1.397 . S
C749 C754 1.363 1_455 S
C750 H727 0.950 . S
C750 C749 1.397 . S
C750 C751 1.334 . S
C751 H728 0.950 . S
C751 C750 1.334 . S
C751 C752 1.287 . S
C752 C751 1.287 . S
C752 C753 1.526 1_455 S
C752 H771 0.913 . S
C753 H729 0.948 . S
C753 C752 1.526 1_655 S
C753 C754 1.414 . S
C754 H730 0.950 . S
C754 C749 1.363 1_655 S
C754 C753 1.414 . S
C755 H731 0.951 1_655 S
C755 C756 1.366 . S
C755 C757 1.388 1_655 S
C756 C755 1.366 . S
C756 C760 1.385 . S
C757 H732 0.951 . S
C757 C755 1.388 1_455 S
C757 C758 1.366 1_455 S
C758 C757 1.366 1_655 S
C758 C759 1.414 . S
C758 C761 1.499 . S
C759 H733 0.950 . S
C759 C758 1.414 . S
C759 C760 1.374 . S
C760 H734 0.950 . S
C760 C756 1.385 . S
C760 C759 1.374 . S
C761 C758 1.499 . S
C761 C762 1.373 . S
C761 C763 1.389 . S
C762 H735 0.950 . S
C762 C748 1.377 1_655 S
C762 C761 1.373 . S
C763 C747 1.377 1_655 S
C763 C761 1.389 . S
C763 C764 1.524 . S
C764 C763 1.524 . S
C764 C765 1.397 . S
C764 C769 1.363 1_655 S
C765 H736 0.950 . S
C765 C764 1.397 . S
C765 C766 1.334 . S
C766 H737 0.950 . S
C766 C765 1.334 . S
C766 C767 1.287 . S
C767 C766 1.287 . S
C767 C768 1.526 1_655 S
C767 H770 0.999 . S
C768 H738 0.948 . S
C768 C767 1.526 1_455 S
C768 C769 1.414 . S
C769 H739 0.950 . S
C769 C764 1.363 1_455 S
C769 C768 1.414 . S
H770 C767 0.999 . S
H771 C752 0.913 . S
H772 C790 0.951 . S
H773 C792 0.951 . S
H774 C794 0.950 . S
H775 C795 0.950 . S
H776 C797 0.950 . S
H777 C800 0.950 1_655 S
H778 C801 0.950 . S
H779 C803 0.950 . S
H780 C804 0.950 . S
H781 C805 0.951 . S
H782 C807 0.951 . S
H783 C809 0.950 . S
H784 C810 0.950 . S
H785 C812 0.950 . S
H786 C815 0.950 1_455 S
H787 C816 0.950 . S
H788 C818 0.950 . S
H789 C819 0.950 . S
C790 H772 0.951 . S
C790 C791 1.366 . S
C790 C792 1.388 . S
C791 C790 1.366 . S
C791 C795 1.385 1_455 S
C792 H773 0.951 . S
C792 C790 1.388 . S
C792 C793 1.366 . S
C793 C792 1.366 . S
C793 C794 1.414 1_455 S
C793 C796 1.499 . S
C794 H774 0.950 . S
C794 C793 1.414 1_655 S
C794 C795 1.374 . S
C795 H775 0.950 . S
C795 C791 1.385 1_655 S
C795 C794 1.374 . S
C796 C793 1.499 . S
C796 C797 1.373 1_455 S
C796 C798 1.389 . S
C797 H776 0.950 . S
C797 C796 1.373 1_655 S
C797 C813 1.377 . S
C798 C796 1.389 . S
C798 C799 1.524 . S
C798 C812 1.377 . S
C799 C798 1.524 . S
C799 C800 1.397 . S
C799 C804 1.363 . S
C800 H777 0.950 1_455 S
C800 C799 1.397 . S
C800 C801 1.334 . S
C801 H778 0.950 . S
C801 C800 1.334 . S
C801 C802 1.287 . S
C802 C801 1.287 . S
C802 C803 1.524 . S
C802 H821 0.913 . S
C803 H779 0.950 . S
C803 C802 1.524 . S
C803 C804 1.415 . S
C804 H780 0.950 . S
C804 C799 1.363 . S
C804 C803 1.415 . S
C805 H781 0.951 . S
C805 C806 1.366 . S
C805 C807 1.388 . S
C806 C805 1.366 . S
C806 C810 1.385 1_655 S
C807 H782 0.951 . S
C807 C805 1.388 . S
C807 C808 1.366 . S
C808 C807 1.366 . S
C808 C809 1.414 1_655 S
C808 C811 1.499 . S
C809 H783 0.950 . S
C809 C808 1.414 1_455 S
C809 C810 1.374 . S
C810 H784 0.950 . S
C810 C806 1.385 1_455 S
C810 C809 1.374 . S
C811 C808 1.499 . S
C811 C812 1.373 1_655 S
C811 C813 1.389 . S
C812 H785 0.950 . S
C812 C798 1.377 . S
C812 C811 1.373 1_455 S
C813 C797 1.377 . S
C813 C811 1.389 . S
C813 C814 1.524 . S
C814 C813 1.524 . S
C814 C815 1.397 . S
C814 C819 1.363 . S
C815 H786 0.950 1_655 S
C815 C814 1.397 . S
C815 C816 1.334 . S
C816 H787 0.950 . S
C816 C815 1.334 . S
C816 C817 1.287 . S
C817 C816 1.287 . S
C817 C818 1.524 . S
C817 H820 0.999 . S
C818 H788 0.950 . S
C818 C817 1.524 . S
C818 C819 1.415 . S
C819 H789 0.950 . S
C819 C814 1.363 . S
C819 C818 1.415 . S
H820 C817 0.999 . S
H821 C802 0.913 . S
H822 C840 0.951 . S
H823 C842 0.951 . S
H824 C844 0.950 . S
H825 C845 0.950 . S
H826 C847 0.950 . S
H827 C850 0.950 . S
H828 C851 0.950 . S
H829 C853 0.950 . S
H830 C854 0.950 . S
H831 C855 0.951 . S
H832 C857 0.951 . S
H833 C859 0.950 . S
H834 C860 0.950 . S
H835 C862 0.950 . S
H836 C865 0.950 . S
H837 C866 0.950 . S
H838 C868 0.950 . S
H839 C869 0.950 . S
C840 H822 0.951 . S
C840 C841 1.366 1_655 S
C840 C842 1.388 . S
C841 C840 1.366 1_455 S
C841 C845 1.385 . S
C842 H823 0.951 . S
C842 C840 1.388 . S
C842 C843 1.366 1_655 S
C843 C842 1.366 1_455 S
C843 C844 1.414 . S
C843 C846 1.499 . S
C844 H824 0.950 . S
C844 C843 1.414 . S
C844 C845 1.374 . S
C845 H825 0.950 . S
C845 C841 1.385 . S
C845 C844 1.374 . S
C846 C843 1.499 . S
C846 C847 1.373 . S
C846 C848 1.384 1_455 S
C847 H826 0.950 . S
C847 C846 1.373 . S
C847 C863 1.382 . S
C848 C846 1.384 1_655 S
C848 C849 1.524 1_655 S
C848 C862 1.382 . S
C849 C848 1.524 1_455 S
C849 C850 1.407 . S
C849 C854 1.354 1_455 S
C850 H827 0.950 . S
C850 C849 1.407 . S
C850 C851 1.334 . S
C851 H828 0.950 . S
C851 C850 1.334 . S
C851 C852 1.287 . S
C852 C851 1.287 . S
C852 C853 1.524 1_455 S
C852 H871 0.913 . S
C853 H829 0.950 . S
C853 C852 1.524 1_655 S
C853 C854 1.415 . S
C854 H830 0.950 . S
C854 C849 1.354 1_655 S
C854 C853 1.415 . S
C855 H831 0.951 . S
C855 C856 1.366 1_455 S
C855 C857 1.388 . S
C856 C855 1.366 1_655 S
C856 C860 1.385 . S
C857 H832 0.951 . S
C857 C855 1.388 . S
C857 C858 1.366 1_455 S
C858 C857 1.366 1_655 S
C858 C859 1.414 . S
C858 C861 1.499 . S
C859 H833 0.950 . S
C859 C858 1.414 . S
C859 C860 1.374 . S
C860 H834 0.950 . S
C860 C856 1.385 . S
C860 C859 1.374 . S
C861 C858 1.499 . S
C861 C862 1.373 . S
C861 C863 1.384 1_655 S
C862 H835 0.950 . S
C862 C848 1.382 . S
C862 C861 1.373 . S
C863 C847 1.382 . S
C863 C861 1.384 1_455 S
C863 C864 1.524 1_455 S
C864 C863 1.524 1_655 S
C864 C865 1.407 . S
C864 C869 1.354 1_655 S
C865 H836 0.950 . S
C865 C864 1.407 . S
C865 C866 1.334 . S
C866 H837 0.950 . S
C866 C865 1.334 . S
C866 C867 1.287 . S
C867 C866 1.287 . S
C867 C868 1.524 1_655 S
C867 H870 0.999 . S
C868 H838 0.950 . S
C868 C867 1.524 1_455 S
C868 C869 1.415 . S
C869 H839 0.950 . S
C869 C864 1.354 1_455 S
C869 C868 1.415 . S
H870 C867 0.999 . S
H871 C852 0.913 . S
H872 C890 0.951 . S
H873 C892 0.951 . S
H874 C894 0.950 . S
H875 C895 0.950 . S
H876 C897 0.950 . S
H877 C900 0.950 . S
H878 C901 0.950 . S
H879 C903 0.950 . S
H880 C904 0.950 . S
H881 C905 0.951 . S
H882 C907 0.951 . S
H883 C909 0.950 . S
H884 C910 0.950 . S
H885 C912 0.950 . S
H886 C915 0.950 . S
H887 C916 0.950 . S
H888 C918 0.950 . S
H889 C919 0.950 . S
C890 H872 0.951 . S
C890 C891 1.366 . S
C890 C892 1.388 . S
C891 C890 1.366 . S
C891 C895 1.385 . S
C892 H873 0.951 . S
C892 C890 1.388 . S
C892 C893 1.366 . S
C893 C892 1.366 . S
C893 C894 1.414 . S
C893 C896 1.499 . S
C894 H874 0.950 . S
C894 C893 1.414 . S
C894 C895 1.374 . S
C895 H875 0.950 . S
C895 C891 1.385 . S
C895 C894 1.374 . S
C896 C893 1.499 . S
C896 C897 1.373 . S
C896 C898 1.389 . S
C897 H876 0.950 . S
C897 C896 1.373 . S
C897 C913 1.377 . S
C898 C896 1.389 . S
C898 C899 1.524 . S
C898 C912 1.377 . S
C899 C898 1.524 . S
C899 C900 1.397 . S
C899 C904 1.363 . S
C900 H877 0.950 . S
C900 C899 1.397 . S
C900 C901 1.334 . S
C901 H878 0.950 . S
C901 C900 1.334 . S
C901 C902 1.287 . S
C902 C901 1.287 . S
C902 C903 1.524 . S
C902 H921 0.913 . S
C903 H879 0.950 . S
C903 C902 1.524 . S
C903 C904 1.415 . S
C904 H880 0.950 . S
C904 C899 1.363 . S
C904 C903 1.415 . S
C905 H881 0.951 . S
C905 C906 1.366 . S
C905 C907 1.388 . S
C906 C905 1.366 . S
C906 C910 1.385 . S
C907 H882 0.951 . S
C907 C905 1.388 . S
C907 C908 1.366 . S
C908 C907 1.366 . S
C908 C909 1.414 . S
C908 C911 1.499 . S
C909 H883 0.950 . S
C909 C908 1.414 . S
C909 C910 1.374 . S
C910 H884 0.950 . S
C910 C906 1.385 . S
C910 C909 1.374 . S
C911 C908 1.499 . S
C911 C912 1.373 . S
C911 C913 1.389 . S
C912 H885 0.950 . S
C912 C898 1.377 . S
C912 C911 1.373 . S
C913 C897 1.377 . S
C913 C911 1.389 . S
C913 C914 1.524 . S
C914 C913 1.524 . S
C914 C915 1.397 . S
C914 C919 1.363 . S
C915 H886 0.950 . S
C915 C914 1.397 . S
C915 C916 1.334 . S
C916 H887 0.950 . S
C916 C915 1.334 . S
C916 C917 1.287 . S
C917 C916 1.287 . S
C917 C918 1.524 . S
C917 H920 0.999 . S
C918 H888 0.950 . S
C918 C917 1.524 . S
C918 C919 1.415 . S
C919 H889 0.950 . S
C919 C914 1.363 . S
C919 C918 1.415 . S
H920 C917 0.999 . S
H921 C902 0.913 . S
H922 C940 0.951 . S
H923 C942 0.951 . S
H924 C944 0.950 . S
H925 C945 0.950 . S
H926 C947 0.950 . S
H927 C950 0.950 . S
H928 C951 0.950 . S
H929 C953 0.950 . S
H930 C954 0.950 . S
H931 C955 0.951 . S
H932 C957 0.951 . S
H933 C959 0.950 . S
H934 C960 0.950 . S
H935 C962 0.950 . S
H936 C965 0.950 . S
H937 C966 0.950 . S
H938 C968 0.950 . S
H939 C969 0.950 . S
C940 H922 0.951 . S
C940 C941 1.366 . S
C940 C942 1.388 . S
C941 C940 1.366 . S
C941 C945 1.385 . S
C942 H923 0.951 . S
C942 C940 1.388 . S
C942 C943 1.366 . S
C943 C942 1.366 . S
C943 C944 1.414 . S
C943 C946 1.499 . S
C944 H924 0.950 . S
C944 C943 1.414 . S
C944 C945 1.374 . S
C945 H925 0.950 . S
C945 C941 1.385 . S
C945 C944 1.374 . S
C946 C943 1.499 . S
C946 C947 1.373 . S
C946 C948 1.389 . S
C947 H926 0.950 . S
C947 C946 1.373 . S
C947 C963 1.377 . S
C948 C946 1.389 . S
C948 C949 1.524 . S
C948 C962 1.377 . S
C949 C948 1.524 . S
C949 C950 1.397 . S
C949 C954 1.363 . S
C950 H927 0.950 . S
C950 C949 1.397 . S
C950 C951 1.334 . S
C951 H928 0.950 . S
C951 C950 1.334 . S
C951 C952 1.287 . S
C952 C951 1.287 . S
C952 C953 1.524 . S
C952 H971 0.913 . S
C953 H929 0.950 . S
C953 C952 1.524 . S
C953 C954 1.415 . S
C954 H930 0.950 . S
C954 C949 1.363 . S
C954 C953 1.415 . S
C955 H931 0.951 . S
C955 C956 1.366 . S
C955 C957 1.388 . S
C956 C955 1.366 . S
C956 C960 1.385 . S
C957 H932 0.951 . S
C957 C955 1.388 . S
C957 C958 1.366 . S
C958 C957 1.366 . S
C958 C959 1.414 . S
C958 C961 1.499 . S
C959 H933 0.950 . S
C959 C958 1.414 . S
C959 C960 1.374 . S
C960 H934 0.950 . S
C960 C956 1.385 . S
C960 C959 1.374 . S
C961 C958 1.499 . S
C961 C962 1.373 . S
C961 C963 1.389 . S
C962 H935 0.950 . S
C962 C948 1.377 . S
C962 C961 1.373 . S
C963 C947 1.377 . S
C963 C961 1.389 . S
C963 C964 1.524 . S
C964 C963 1.524 . S
C964 C965 1.397 . S
C964 C969 1.363 . S
C965 H936 0.950 . S
C965 C964 1.397 . S
C965 C966 1.334 . S
C966 H937 0.950 . S
C966 C965 1.334 . S
C966 C967 1.287 . S
C967 C966 1.287 . S
C967 C968 1.524 . S
C967 H970 0.999 . S
C968 H938 0.950 . S
C968 C967 1.524 . S
C968 C969 1.415 . S
C969 H939 0.950 . S
C969 C964 1.363 . S
C969 C968 1.415 . S
H970 C967 0.999 . S
H971 C952 0.913 . S
H972 C990 0.951 . S
H973 C992 0.951 . S
H974 C994 0.950 . S
H975 C995 0.950 . S
H976 C997 0.950 . S
H977 C1000 0.950 . S
H978 C1001 0.950 . S
H979 C1003 0.950 . S
H980 C1004 0.950 . S
H981 C1005 0.951 . S
H982 C1007 0.951 . S
H983 C1009 0.950 . S
H984 C1010 0.950 . S
H985 C1012 0.950 . S
H986 C1015 0.950 . S
H987 C1016 0.950 . S
H988 C1018 0.950 . S
H989 C1019 0.950 . S
C990 H972 0.951 . S
C990 C991 1.366 . S
C990 C992 1.388 . S
C991 C990 1.366 . S
C991 C995 1.385 . S
C992 H973 0.951 . S
C992 C990 1.388 . S
C992 C993 1.366 . S
C993 C992 1.366 . S
C993 C994 1.414 . S
C993 C996 1.499 . S
C994 H974 0.950 . S
C994 C993 1.414 . S
C994 C995 1.374 . S
C995 H975 0.950 . S
C995 C991 1.385 . S
C995 C994 1.374 . S
C996 C993 1.499 . S
C996 C997 1.373 . S
C996 C998 1.389 . S
C997 H976 0.950 . S
C997 C996 1.373 . S
C997 C1013 1.377 . S
C998 C996 1.389 . S
C998 C999 1.524 . S
C998 C1012 1.377 . S
C999 C998 1.524 . S
C999 C1000 1.397 . S
C999 C1004 1.363 . S
C1000 H977 0.950 . S
C1000 C999 1.397 . S
C1000 C1001 1.334 . S
C1001 H978 0.950 . S
C1001 C1000 1.334 . S
C1001 C1002 1.287 . S
C1002 C1001 1.287 . S
C1002 C1003 1.524 . S
C1002 H1021 0.913 . S
C1003 H979 0.950 . S
C1003 C1002 1.524 . S
C1003 C1004 1.415 . S
C1004 H980 0.950 . S
C1004 C999 1.363 . S
C1004 C1003 1.415 . S
C1005 H981 0.951 . S
C1005 C1006 1.366 . S
C1005 C1007 1.388 . S
C1006 C1005 1.366 . S
C1006 C1010 1.385 . S
C1007 H982 0.951 . S
C1007 C1005 1.388 . S
C1007 C1008 1.366 . S
C1008 C1007 1.366 . S
C1008 C1009 1.414 . S
C1008 C1011 1.499 . S
C1009 H983 0.950 . S
C1009 C1008 1.414 . S
C1009 C1010 1.374 . S
C1010 H984 0.950 . S
C1010 C1006 1.385 . S
C1010 C1009 1.374 . S
C1011 C1008 1.499 . S
C1011 C1012 1.373 . S
C1011 C1013 1.389 . S
C1012 H985 0.950 . S
C1012 C998 1.377 . S
C1012 C1011 1.373 . S
C1013 C997 1.377 . S
C1013 C1011 1.389 . S
C1013 C1014 1.524 . S
C1014 C1013 1.524 . S
C1014 C1015 1.397 . S
C1014 C1019 1.363 . S
C1015 H986 0.950 . S
C1015 C1014 1.397 . S
C1015 C1016 1.334 . S
C1016 H987 0.950 . S
C1016 C1015 1.334 . S
C1016 C1017 1.287 . S
C1017 C1016 1.287 . S
C1017 C1018 1.524 . S
C1017 H1020 0.999 . S
C1018 H988 0.950 . S
C1018 C1017 1.524 . S
C1018 C1019 1.415 . S
C1019 H989 0.950 . S
C1019 C1014 1.363 . S
C1019 C1018 1.415 . S
H1020 C1017 0.999 . S
H1021 C1002 0.913 . S
H1022 C1040 0.951 . S
H1023 C1042 0.951 . S
H1024 C1044 0.950 . S
H1025 C1045 0.950 . S
H1026 C1047 0.950 . S
H1027 C1050 0.950 . S
H1028 C1051 0.950 . S
H1029 C1053 0.950 . S
H1030 C1054 0.950 . S
H1031 C1055 0.951 . S
H1032 C1057 0.951 . S
H1033 C1059 0.950 . S
H1034 C1060 0.950 . S
H1035 C1062 0.950 . S
H1036 C1065 0.950 . S
H1037 C1066 0.950 . S
H1038 C1068 0.950 . S
H1039 C1069 0.950 . S
C1040 H1022 0.951 . S
C1040 C1041 1.366 . S
C1040 C1042 1.388 . S
C1041 C1040 1.366 . S
C1041 C1045 1.385 . S
C1042 H1023 0.951 . S
C1042 C1040 1.388 . S
C1042 C1043 1.366 . S
C1043 C1042 1.366 . S
C1043 C1044 1.414 . S
C1043 C1046 1.499 . S
C1044 H1024 0.950 . S
C1044 C1043 1.414 . S
C1044 C1045 1.374 . S
C1045 H1025 0.950 . S
C1045 C1041 1.385 . S
C1045 C1044 1.374 . S
C1046 C1043 1.499 . S
C1046 C1047 1.373 . S
C1046 C1048 1.389 . S
C1047 H1026 0.950 . S
C1047 C1046 1.373 . S
C1047 C1063 1.377 . S
C1048 C1046 1.389 . S
C1048 C1049 1.524 . S
C1048 C1062 1.377 . S
C1049 C1048 1.524 . S
C1049 C1050 1.397 . S
C1049 C1054 1.363 . S
C1050 H1027 0.950 . S
C1050 C1049 1.397 . S
C1050 C1051 1.334 . S
C1051 H1028 0.950 . S
C1051 C1050 1.334 . S
C1051 C1052 1.287 . S
C1052 C1051 1.287 . S
C1052 C1053 1.524 . S
C1052 H1071 0.913 . S
C1053 H1029 0.950 . S
C1053 C1052 1.524 . S
C1053 C1054 1.415 . S
C1054 H1030 0.950 . S
C1054 C1049 1.363 . S
C1054 C1053 1.415 . S
C1055 H1031 0.951 . S
C1055 C1056 1.366 . S
C1055 C1057 1.388 . S
C1056 C1055 1.366 . S
C1056 C1060 1.385 . S
C1057 H1032 0.951 . S
C1057 C1055 1.388 . S
C1057 C1058 1.366 . S
C1058 C1057 1.366 . S
C1058 C1059 1.414 . S
C1058 C1061 1.499 . S
C1059 H1033 0.950 . S
C1059 C1058 1.414 . S
C1059 C1060 1.374 . S
C1060 H1034 0.950 . S
C1060 C1056 1.385 . S
C1060 C1059 1.374 . S
C1061 C1058 1.499 . S
C1061 C1062 1.373 . S
C1061 C1063 1.389 . S
C1062 H1035 0.950 . S
C1062 C1048 1.377 . S
C1062 C1061 1.373 . S
C1063 C1047 1.377 . S
C1063 C1061 1.389 . S
C1063 C1064 1.524 . S
C1064 C1063 1.524 . S
C1064 C1065 1.397 . S
C1064 C1069 1.363 . S
C1065 H1036 0.950 . S
C1065 C1064 1.397 . S
C1065 C1066 1.334 . S
C1066 H1037 0.950 . S
C1066 C1065 1.334 . S
C1066 C1067 1.287 . S
C1067 C1066 1.287 . S
C1067 C1068 1.524 . S
C1067 H1070 0.999 . S
C1068 H1038 0.950 . S
C1068 C1067 1.524 . S
C1068 C1069 1.415 . S
C1069 H1039 0.950 . S
C1069 C1064 1.363 . S
C1069 C1068 1.415 . S
H1070 C1067 0.999 . S
H1071 C1052 0.913 . S
H1072 C1090 0.951 . S
H1073 C1092 0.951 . S
H1074 C1094 0.950 . S
H1075 C1095 0.950 . S
H1076 C1097 0.950 . S
H1077 C1100 0.950 . S
H1078 C1101 0.950 . S
H1079 C1103 0.950 . S
H1080 C1104 0.950 . S
H1081 C1105 0.951 . S
H1082 C1107 0.951 . S
H1083 C1109 0.950 . S
H1084 C1110 0.950 . S
H1085 C1112 0.950 . S
H1086 C1115 0.950 . S
H1087 C1116 0.950 . S
H1088 C1118 0.950 . S
H1089 C1119 0.950 . S
C1090 H1072 0.951 . S
C1090 C1091 1.366 . S
C1090 C1092 1.388 . S
C1091 C1090 1.366 . S
C1091 C1095 1.385 . S
C1092 H1073 0.951 . S
C1092 C1090 1.388 . S
C1092 C1093 1.366 . S
C1093 C1092 1.366 . S
C1093 C1094 1.414 . S
C1093 C1096 1.499 . S
C1094 H1074 0.950 . S
C1094 C1093 1.414 . S
C1094 C1095 1.374 . S
C1095 H1075 0.950 . S
C1095 C1091 1.385 . S
C1095 C1094 1.374 . S
C1096 C1093 1.499 . S
C1096 C1097 1.373 . S
C1096 C1098 1.389 . S
C1097 H1076 0.950 . S
C1097 C1096 1.373 . S
C1097 C1113 1.377 . S
C1098 C1096 1.389 . S
C1098 C1099 1.524 1_554 S
C1098 C1112 1.377 . S
C1099 C1098 1.524 1_556 S
C1099 C1100 1.397 . S
C1099 C1104 1.363 . S
C1100 H1077 0.950 . S
C1100 C1099 1.397 . S
C1100 C1101 1.334 . S
C1101 H1078 0.950 . S
C1101 C1100 1.334 . S
C1101 C1102 1.287 . S
C1102 C1101 1.287 . S
C1102 C1103 1.524 . S
C1102 H1121 0.913 . S
C1103 H1079 0.950 . S
C1103 C1102 1.524 . S
C1103 C1104 1.415 . S
C1104 H1080 0.950 . S
C1104 C1099 1.363 . S
C1104 C1103 1.415 . S
C1105 H1081 0.951 . S
C1105 C1106 1.366 . S
C1105 C1107 1.388 . S
C1106 C1105 1.366 . S
C1106 C1110 1.385 . S
C1107 H1082 0.951 . S
C1107 C1105 1.388 . S
C1107 C1108 1.366 . S
C1108 C1107 1.366 . S
C1108 C1109 1.414 . S
C1108 C1111 1.499 . S
C1109 H1083 0.950 . S
C1109 C1108 1.414 . S
C1109 C1110 1.374 . S
C1110 H1084 0.950 . S
C1110 C1106 1.385 . S
C1110 C1109 1.374 . S
C1111 C1108 1.499 . S
C1111 C1112 1.373 . S
C1111 C1113 1.389 . S
C1112 H1085 0.950 . S
C1112 C1098 1.377 . S
C1112 C1111 1.373 . S
C1113 C1097 1.377 . S
C1113 C1111 1.389 . S
C1113 C1114 1.524 . S
C1114 C1113 1.524 . S
C1114 C1115 1.397 . S
C1114 C1119 1.363 . S
C1115 H1086 0.950 . S
C1115 C1114 1.397 . S
C1115 C1116 1.334 . S
C1116 H1087 0.950 . S
C1116 C1115 1.334 . S
C1116 C1117 1.287 . S
C1117 C1116 1.287 . S
C1117 C1118 1.524 . S
C1117 H1120 0.999 . S
C1118 H1088 0.950 . S
C1118 C1117 1.524 . S
C1118 C1119 1.415 . S
C1119 H1089 0.950 . S
C1119 C1114 1.363 . S
C1119 C1118 1.415 . S
H1120 C1117 0.999 . S
H1121 C1102 0.913 . S
H1122 C1140 0.951 . S
H1123 C1142 0.951 . S
H1124 C1144 0.950 . S
H1125 C1145 0.950 . S
H1126 C1147 0.950 . S
H1127 C1150 0.950 . S
H1128 C1151 0.950 . S
H1129 C1153 0.950 . S
H1130 C1154 0.950 . S
H1131 C1155 0.951 . S
H1132 C1157 0.951 . S
H1133 C1159 0.950 . S
H1134 C1160 0.950 . S
H1135 C1162 0.950 . S
H1136 C1165 0.950 . S
H1137 C1166 0.950 . S
H1138 C1168 0.950 1_556 S
H1139 C1169 0.950 1_556 S
C1140 H1122 0.951 . S
C1140 C1141 1.366 . S
C1140 C1142 1.388 . S
C1141 C1140 1.366 . S
C1141 C1145 1.385 . S
C1142 H1123 0.951 . S
C1142 C1140 1.388 . S
C1142 C1143 1.366 . S
C1143 C1142 1.366 . S
C1143 C1144 1.414 . S
C1143 C1146 1.499 . S
C1144 H1124 0.950 . S
C1144 C1143 1.414 . S
C1144 C1145 1.374 . S
C1145 H1125 0.950 . S
C1145 C1141 1.385 . S
C1145 C1144 1.374 . S
C1146 C1143 1.499 . S
C1146 C1147 1.373 . S
C1146 C1148 1.389 . S
C1147 H1126 0.950 . S
C1147 C1146 1.373 . S
C1147 C1163 1.377 . S
C1148 C1146 1.389 . S
C1148 C1149 1.524 . S
C1148 C1162 1.377 . S
C1149 C1148 1.524 . S
C1149 C1150 1.397 . S
C1149 C1154 1.363 . S
C1150 H1127 0.950 . S
C1150 C1149 1.397 . S
C1150 C1151 1.334 . S
C1151 H1128 0.950 . S
C1151 C1150 1.334 . S
C1151 C1152 1.287 . S
C1152 C1151 1.287 . S
C1152 C1153 1.524 . S
C1152 H1171 0.913 . S
C1153 H1129 0.950 . S
C1153 C1152 1.524 . S
C1153 C1154 1.415 . S
C1154 H1130 0.950 . S
C1154 C1149 1.363 . S
C1154 C1153 1.415 . S
C1155 H1131 0.951 . S
C1155 C1156 1.366 . S
C1155 C1157 1.388 . S
C1156 C1155 1.366 . S
C1156 C1160 1.385 . S
C1157 H1132 0.951 . S
C1157 C1155 1.388 . S
C1157 C1158 1.366 . S
C1158 C1157 1.366 . S
C1158 C1159 1.414 . S
C1158 C1161 1.499 . S
C1159 H1133 0.950 . S
C1159 C1158 1.414 . S
C1159 C1160 1.374 . S
C1160 H1134 0.950 . S
C1160 C1156 1.385 . S
C1160 C1159 1.374 . S
C1161 C1158 1.499 . S
C1161 C1162 1.373 . S
C1161 C1163 1.389 . S
C1162 H1135 0.950 . S
C1162 C1148 1.377 . S
C1162 C1161 1.373 . S
C1163 C1147 1.377 . S
C1163 C1161 1.389 . S
C1163 C1164 1.524 . S
C1164 C1163 1.524 . S
C1164 C1165 1.397 . S
C1164 C1169 1.363 . S
C1165 H1136 0.950 . S
C1165 C1164 1.397 . S
C1165 C1166 1.334 . S
C1166 H1137 0.950 . S
C1166 C1165 1.334 . S
C1166 C1167 1.287 . S
C1167 C1166 1.287 . S
C1167 C1168 1.524 . S
C1167 H1170 0.999 . S
C1168 H1138 0.950 1_554 S
C1168 C1167 1.524 . S
C1168 C1169 1.415 . S
C1169 H1139 0.950 1_554 S
C1169 C1164 1.363 . S
C1169 C1168 1.415 . S
H1170 C1167 0.999 . S
H1171 C1152 0.913 . S
H1172 C1190 0.951 . S
H1173 C1192 0.951 . S
H1174 C1194 0.950 . S
H1175 C1195 0.950 . S
H1176 C1197 0.950 . S
H1177 C1200 0.950 . S
H1178 C1201 0.950 . S
H1179 C1203 0.950 . S
H1180 C1204 0.950 . S
H1181 C1205 0.951 . S
H1182 C1207 0.951 . S
H1183 C1209 0.950 . S
H1184 C1210 0.950 . S
H1185 C1212 0.950 . S
H1186 C1215 0.950 . S
H1187 C1216 0.950 . S
H1188 C1218 0.950 . S
H1189 C1219 0.950 . S
C1190 H1172 0.951 . S
C1190 C1191 1.366 . S
C1190 C1192 1.388 . S
C1191 C1190 1.366 . S
C1191 C1195 1.385 . S
C1192 H1173 0.951 . S
C1192 C1190 1.388 . S
C1192 C1193 1.366 . S
C1193 C1192 1.366 . S
C1193 C1194 1.414 . S
C1193 C1196 1.499 . S
C1194 H1174 0.950 . S
C1194 C1193 1.414 . S
C1194 C1195 1.374 . S
C1195 H1175 0.950 . S
C1195 C1191 1.385 . S
C1195 C1194 1.374 . S
C1196 C1193 1.499 . S
C1196 C1197 1.373 . S
C1196 C1198 1.389 . S
C1197 H1176 0.950 . S
C1197 C1196 1.373 . S
C1197 C1213 1.377 . S
C1198 C1196 1.389 . S
C1198 C1199 1.524 . S
C1198 C1212 1.377 . S
C1199 C1198 1.524 . S
C1199 C1200 1.397 . S
C1199 C1204 1.363 . S
C1200 H1177 0.950 . S
C1200 C1199 1.397 . S
C1200 C1201 1.334 . S
C1201 H1178 0.950 . S
C1201 C1200 1.334 . S
C1201 C1202 1.287 . S
C1202 C1201 1.287 . S
C1202 C1203 1.524 . S
C1202 H1221 0.913 . S
C1203 H1179 0.950 . S
C1203 C1202 1.524 . S
C1203 C1204 1.415 . S
C1204 H1180 0.950 . S
C1204 C1199 1.363 . S
C1204 C1203 1.415 . S
C1205 H1181 0.951 . S
C1205 C1206 1.366 . S
C1205 C1207 1.388 . S
C1206 C1205 1.366 . S
C1206 C1210 1.385 . S
C1207 H1182 0.951 . S
C1207 C1205 1.388 . S
C1207 C1208 1.366 . S
C1208 C1207 1.366 . S
C1208 C1209 1.414 . S
C1208 C1211 1.499 . S
C1209 H1183 0.950 . S
C1209 C1208 1.414 . S
C1209 C1210 1.374 . S
C1210 H1184 0.950 . S
C1210 C1206 1.385 . S
C1210 C1209 1.374 . S
C1211 C1208 1.499 . S
C1211 C1212 1.373 . S
C1211 C1213 1.389 . S
C1212 H1185 0.950 . S
C1212 C1198 1.377 . S
C1212 C1211 1.373 . S
C1213 C1197 1.377 . S
C1213 C1211 1.389 . S
C1213 C1214 1.524 . S
C1214 C1213 1.524 . S
C1214 C1215 1.397 . S
C1214 C1219 1.363 . S
C1215 H1186 0.950 . S
C1215 C1214 1.397 . S
C1215 C1216 1.334 . S
C1216 H1187 0.950 . S
C1216 C1215 1.334 . S
C1216 C1217 1.287 . S
C1217 C1216 1.287 . S
C1217 C1218 1.524 . S
C1217 H1220 0.999 . S
C1218 H1188 0.950 . S
C1218 C1217 1.524 . S
C1218 C1219 1.415 . S
C1219 H1189 0.950 . S
C1219 C1214 1.363 . S
C1219 C1218 1.415 . S
H1220 C1217 0.999 . S
H1221 C1202 0.913 . S
H1222 C1240 0.951 . S
H1223 C1242 0.951 . S
H1224 C1244 0.950 . S
H1225 C1245 0.950 . S
H1226 C1247 0.950 . S
H1227 C1250 0.950 . S
H1228 C1251 0.950 . S
H1229 C1253 0.950 . S
H1230 C1254 0.950 . S
H1231 C1255 0.951 . S
H1232 C1257 0.951 . S
H1233 C1259 0.950 . S
H1234 C1260 0.950 . S
H1235 C1262 0.950 . S
H1236 C1265 0.950 . S
H1237 C1266 0.950 . S
H1238 C1268 0.950 . S
H1239 C1269 0.950 . S
C1240 H1222 0.951 . S
C1240 C1241 1.366 . S
C1240 C1242 1.388 . S
C1241 C1240 1.366 . S
C1241 C1245 1.385 . S
C1242 H1223 0.951 . S
C1242 C1240 1.388 . S
C1242 C1243 1.366 . S
C1243 C1242 1.366 . S
C1243 C1244 1.414 . S
C1243 C1246 1.499 . S
C1244 H1224 0.950 . S
C1244 C1243 1.414 . S
C1244 C1245 1.374 . S
C1245 H1225 0.950 . S
C1245 C1241 1.385 . S
C1245 C1244 1.374 . S
C1246 C1243 1.499 . S
C1246 C1247 1.373 . S
C1246 C1248 1.389 . S
C1247 H1226 0.950 . S
C1247 C1246 1.373 . S
C1247 C1263 1.377 . S
C1248 C1246 1.389 . S
C1248 C1249 1.524 . S
C1248 C1262 1.377 . S
C1249 C1248 1.524 . S
C1249 C1250 1.397 . S
C1249 C1254 1.363 . S
C1250 H1227 0.950 . S
C1250 C1249 1.397 . S
C1250 C1251 1.334 . S
C1251 H1228 0.950 . S
C1251 C1250 1.334 . S
C1251 C1252 1.287 . S
C1252 C1251 1.287 . S
C1252 C1253 1.524 . S
C1252 H1271 0.913 . S
C1253 H1229 0.950 . S
C1253 C1252 1.524 . S
C1253 C1254 1.415 . S
C1254 H1230 0.950 . S
C1254 C1249 1.363 . S
C1254 C1253 1.415 . S
C1255 H1231 0.951 . S
C1255 C1256 1.366 . S
C1255 C1257 1.388 . S
C1256 C1255 1.366 . S
C1256 C1260 1.385 . S
C1257 H1232 0.951 . S
C1257 C1255 1.388 . S
C1257 C1258 1.366 . S
C1258 C1257 1.366 . S
C1258 C1259 1.414 . S
C1258 C1261 1.499 . S
C1259 H1233 0.950 . S
C1259 C1258 1.414 . S
C1259 C1260 1.374 . S
C1260 H1234 0.950 . S
C1260 C1256 1.385 . S
C1260 C1259 1.374 . S
C1261 C1258 1.499 . S
C1261 C1262 1.373 . S
C1261 C1263 1.389 . S
C1262 H1235 0.950 . S
C1262 C1248 1.377 . S
C1262 C1261 1.373 . S
C1263 C1247 1.377 . S
C1263 C1261 1.389 . S
C1263 C1264 1.524 . S
C1264 C1263 1.524 . S
C1264 C1265 1.397 . S
C1264 C1269 1.363 . S
C1265 H1236 0.950 . S
C1265 C1264 1.397 . S
C1265 C1266 1.334 . S
C1266 H1237 0.950 . S
C1266 C1265 1.334 . S
C1266 C1267 1.287 . S
C1267 C1266 1.287 . S
C1267 C1268 1.524 . S
C1267 H1270 0.999 . S
C1268 H1238 0.950 . S
C1268 C1267 1.524 . S
C1268 C1269 1.415 . S
C1269 H1239 0.950 . S
C1269 C1264 1.363 . S
C1269 C1268 1.415 . S
H1270 C1267 0.999 . S
H1271 C1252 0.913 . S
C491 C111 1.515 . S
C506 C52 1.514 . S
C541 C170 1.515 . S
C556 C229 1.515 . S
C591 C288 1.515 . S
C606 C347 1.514 . S
C641 C406 1.515 . S
C656 C465 1.515 . S
C691 C33 1.289 . S
C706 C210 1.289 . S
C741 C151 1.289 . S
C756 C92 1.289 . S
C791 C121 1.358 . S
C806 C62 1.359 . S
C841 C3 1.359 . S
C856 C180 1.358 . S
C891 C269 1.289 . S
C906 C446 1.289 . S
C941 C387 1.289 . S
C956 C328 1.289 . S
C991 C298 1.358 . S
C1006 C357 1.359 . S
C1041 C239 1.358 . S
C1056 C416 1.359 . S
C1091 C300 1.513 . S
C1106 C5 1.513 . S
C1141 C241 1.513 . S
C1156 C64 1.513 . S
C1191 C123 1.513 . S
C1206 C418 1.513 . S
C1241 C359 1.513 . S
C1256 C182 1.513 . S
