# Generated by pormake.
# Topology wjn, (5)-cn, num edge types: 1
# Building blocks:
#     Node 0, Type 0, BuildingBlock: BEQFEK_clean_sbu_0, # of connection points: 5
#     Node 1, Type 0, BuildingBlock: BEQFEK_clean_sbu_0, # of connection points: 5
#     Node 2, Type 0, BuildingBlock: BEQFEK_clean_sbu_0, # of connection points: 5
#     Node 3, Type 0, BuildingBlock: BEQFEK_clean_sbu_0, # of connection points: 5
#     Node 4, Type 0, BuildingBlock: BEQFEK_clean_sbu_0, # of connection points: 5
#     Node 5, Type 0, BuildingBlock: BEQFEK_clean_sbu_0, # of connection points: 5
#     Node 6, Type 0, BuildingBlock: BEQFEK_clean_sbu_0, # of connection points: 5
#     Node 7, Type 0, BuildingBlock: BEQFEK_clean_sbu_0, # of connection points: 5
#     Node 8, Type 0, BuildingBlock: BEQFEK_clean_sbu_0, # of connection points: 5
#     Node 9, Type 0, BuildingBlock: BEQFEK_clean_sbu_0, # of connection points: 5
#     Node 10, Type 0, BuildingBlock: BEQFEK_clean_sbu_0, # of connection points: 5
#     Node 11, Type 0, BuildingBlock: BEQFEK_clean_sbu_0, # of connection points: 5
#     Edge 12, Type (0, 0), BuildingBlock: ZUJKAS_clean_linker_0, # of connection points: 2
#     Edge 13, Type (0, 0), BuildingBlock: ZUJKAS_clean_linker_0, # of connection points: 2
#     Edge 14, Type (0, 0), BuildingBlock: ZUJKAS_clean_linker_0, # of connection points: 2
#     Edge 15, Type (0, 0), BuildingBlock: ZUJKAS_clean_linker_0, # of connection points: 2
#     Edge 16, Type (0, 0), BuildingBlock: ZUJKAS_clean_linker_0, # of connection points: 2
#     Edge 17, Type (0, 0), BuildingBlock: ZUJKAS_clean_linker_0, # of connection points: 2
#     Edge 18, Type (0, 0), BuildingBlock: ZUJKAS_clean_linker_0, # of connection points: 2
#     Edge 19, Type (0, 0), BuildingBlock: ZUJKAS_clean_linker_0, # of connection points: 2
#     Edge 20, Type (0, 0), BuildingBlock: ZUJKAS_clean_linker_0, # of connection points: 2
#     Edge 21, Type (0, 0), BuildingBlock: ZUJKAS_clean_linker_0, # of connection points: 2
#     Edge 22, Type (0, 0), BuildingBlock: ZUJKAS_clean_linker_0, # of connection points: 2
#     Edge 23, Type (0, 0), BuildingBlock: ZUJKAS_clean_linker_0, # of connection points: 2
#     Edge 24, Type (0, 0), BuildingBlock: ZUJKAS_clean_linker_0, # of connection points: 2
#     Edge 25, Type (0, 0), BuildingBlock: ZUJKAS_clean_linker_0, # of connection points: 2
#     Edge 26, Type (0, 0), BuildingBlock: ZUJKAS_clean_linker_0, # of connection points: 2
#     Edge 27, Type (0, 0), BuildingBlock: ZUJKAS_clean_linker_0, # of connection points: 2
#     Edge 28, Type (0, 0), BuildingBlock: ZUJKAS_clean_linker_0, # of connection points: 2
#     Edge 29, Type (0, 0), BuildingBlock: ZUJKAS_clean_linker_0, # of connection points: 2
#     Edge 30, Type (0, 0), BuildingBlock: ZUJKAS_clean_linker_0, # of connection points: 2
#     Edge 31, Type (0, 0), BuildingBlock: ZUJKAS_clean_linker_0, # of connection points: 2
#     Edge 32, Type (0, 0), BuildingBlock: ZUJKAS_clean_linker_0, # of connection points: 2
#     Edge 33, Type (0, 0), BuildingBlock: ZUJKAS_clean_linker_0, # of connection points: 2
#     Edge 34, Type (0, 0), BuildingBlock: ZUJKAS_clean_linker_0, # of connection points: 2
#     Edge 35, Type (0, 0), BuildingBlock: ZUJKAS_clean_linker_0, # of connection points: 2
#     Edge 36, Type (0, 0), BuildingBlock: ZUJKAS_clean_linker_0, # of connection points: 2
#     Edge 37, Type (0, 0), BuildingBlock: ZUJKAS_clean_linker_0, # of connection points: 2
#     Edge 38, Type (0, 0), BuildingBlock: ZUJKAS_clean_linker_0, # of connection points: 2
#     Edge 39, Type (0, 0), BuildingBlock: ZUJKAS_clean_linker_0, # of connection points: 2
#     Edge 40, Type (0, 0), BuildingBlock: ZUJKAS_clean_linker_0, # of connection points: 2
#     Edge 41, Type (0, 0), BuildingBlock: ZUJKAS_clean_linker_0, # of connection points: 2
# Relax obj value: 0.365
# Max RMSD: 0.190
# Mean RMSD: 0.190
data_MOF--net-wjn--node1-BEQFEK_clean_sbu_0--edge1-ZUJKAS_clean_linker_0
_symmetry_space_group_name_H-M    P1
_symmetry_Int_Tables_number       1
_symmetry_cell_setting            triclinic
loop_
_symmetry_equiv_pos_as_xyz
'x, y, z'
_cell_length_a     43.323627
_cell_length_b     43.333441
_cell_length_c     98.097614
_cell_angle_alpha  89.991522
_cell_angle_beta   90.020691
_cell_angle_gamma 120.00957
loop_
_atom_site_label
_atom_site_type_symbol
_atom_site_fract_x
_atom_site_fract_y
_atom_site_fract_z
_atom_type_partial_charge
Co0 Co 0.14974 0.41958 0.10442 0.0
Co1 Co 0.2122 0.41097 0.11563 0.0
C2 C 0.2042 0.47284 0.1239 0.0
O3 O 0.17639 0.4609 0.11656 0.0
O4 O 0.2218 0.45655 0.12455 0.0
C5 C 0.12898 0.45917 0.08861 0.0
O6 O 0.16356 0.48121 0.08901 0.0
C7 C 0.28574 0.42952 0.12049 0.0
C8 C 0.28157 0.37705 0.12354 0.0
C9 C 0.30579 0.4133 0.12306 0.0
N10 N 0.25132 0.4041 0.11958 0.0
N11 N 0.24891 0.37278 0.12149 0.0
C12 C 0.29904 0.46812 0.11767 0.0
H13 H 0.28037 0.47111 0.11079 0.0
H14 H 0.32594 0.48094 0.11297 0.0
H15 H 0.30066 0.48187 0.12741 0.0
C16 C 0.17821 0.41237 0.07812 0.0
N17 N 0.17954 0.41458 0.0918 0.0
N18 N 0.20681 0.41196 0.09624 0.0
C19 C 0.22413 0.40864 0.08535 0.0
C20 C 0.20665 0.40926 0.07357 0.0
C21 C 0.14861 0.41005 0.06946 0.0
H22 H 0.12298 0.39633 0.07505 0.0
H23 H 0.15468 0.4373 0.06665 0.0
H24 H 0.14588 0.39526 0.05988 0.0
O25 O 0.12389 0.37603 0.1153 0.0
O26 O 0.16826 0.37056 0.12408 0.0
H27 H 0.2506 0.38147 0.09268 0.0
H28 H 0.2649 0.40095 0.07591 0.0
C29 C 0.25643 0.40468 0.08616 0.0
H30 H 0.27854 0.42881 0.09094 0.0
H31 H 0.22505 0.34849 0.12117 0.0
O32 O 0.11603 0.42945 0.09475 0.0
C33 C 0.13504 0.35976 0.12286 0.0
Co34 Co 0.73042 0.15108 0.43733 0.0
Co35 Co 0.80183 0.21217 0.44902 0.0
C36 C 0.73239 0.20427 0.45773 0.0
O37 O 0.71648 0.17678 0.45024 0.0
O38 O 0.7663 0.22203 0.45822 0.0
C39 C 0.6708 0.1347 0.42202 0.0
O40 O 0.68521 0.16943 0.4232 0.0
C41 C 0.85848 0.28534 0.45348 0.0
C42 C 0.90583 0.27959 0.4568 0.0
C43 C 0.895 0.30465 0.45571 0.0
N44 N 0.84836 0.25058 0.45302 0.0
N45 N 0.87669 0.24723 0.45511 0.0
C46 C 0.83281 0.29893 0.4526 0.0
H47 H 0.81404 0.28813 0.4613 0.0
H48 H 0.8169 0.28904 0.4431 0.0
H49 H 0.84615 0.32835 0.45308 0.0
C50 C 0.76619 0.181 0.41127 0.0
N51 N 0.7653 0.18168 0.42496 0.0
N52 N 0.7955 0.20822 0.42956 0.0
C53 C 0.8164 0.22574 0.41873 0.0
C54 C 0.79811 0.20913 0.40687 0.0
C55 C 0.73853 0.15214 0.40247 0.0
H56 H 0.72631 0.12619 0.40784 0.0
H57 H 0.71761 0.15879 0.3999 0.0
H58 H 0.75029 0.14968 0.39276 0.0
O59 O 0.7478 0.12371 0.44734 0.0
O60 O 0.79721 0.16704 0.4569 0.0
H61 H 0.86979 0.25035 0.42631 0.0
H62 H 0.86587 0.26508 0.40945 0.0
C63 C 0.85328 0.25706 0.41966 0.0
H64 H 0.85219 0.27981 0.42431 0.0
H65 H 0.87624 0.22293 0.45516 0.0
O66 O 0.68631 0.11948 0.42747 0.0
C67 C 0.77487 0.134 0.45504 0.0
Co68 Co 0.56991 0.72476 0.76924 0.0
Co69 Co 0.58248 0.79641 0.78145 0.0
C70 C 0.51856 0.72697 0.78921 0.0
O71 O 0.52855 0.71049 0.78127 0.0
O72 O 0.53686 0.7607 0.79048 0.0
C73 C 0.52884 0.66474 0.75321 0.0
O74 O 0.50646 0.67675 0.7543 0.0
C75 C 0.5652 0.85188 0.78654 0.0
C76 C 0.61728 0.89863 0.79173 0.0
C77 C 0.5814 0.88759 0.79014 0.0
N78 N 0.59021 0.84228 0.78613 0.0
N79 N 0.6213 0.87023 0.78931 0.0
C80 C 0.52727 0.82773 0.78238 0.0
H81 H 0.52528 0.80644 0.77552 0.0
H82 H 0.51636 0.84293 0.77715 0.0
H83 H 0.51101 0.81491 0.79159 0.0
C84 C 0.57837 0.76279 0.74343 0.0
N85 N 0.57634 0.76104 0.75712 0.0
N86 N 0.58093 0.79137 0.76198 0.0
C87 C 0.58565 0.81331 0.75137 0.0
C88 C 0.58369 0.79554 0.73934 0.0
C89 C 0.57816 0.73489 0.73435 0.0
H90 H 0.59183 0.72215 0.73939 0.0
H91 H 0.55021 0.71439 0.73208 0.0
H92 H 0.5917 0.74648 0.72452 0.0
O93 O 0.61321 0.74019 0.78025 0.0
O94 O 0.62229 0.79115 0.78927 0.0
H95 H 0.61479 0.86554 0.76003 0.0
H96 H 0.59988 0.86459 0.74269 0.0
C97 C 0.59278 0.85068 0.75268 0.0
H98 H 0.56862 0.85024 0.75666 0.0
H99 H 0.64527 0.87003 0.78965 0.0
O100 O 0.55907 0.68163 0.759 0.0
C101 C 0.63114 0.76731 0.78782 0.0
Co102 Co 0.84098 0.57112 0.10317 0.0
Co103 Co 0.78046 0.58142 0.11553 0.0
C104 C 0.78993 0.51951 0.12354 0.0
O105 O 0.81622 0.5299 0.11546 0.0
O106 O 0.77348 0.53689 0.12471 0.0
C107 C 0.86757 0.53358 0.08831 0.0
O108 O 0.8362 0.50611 0.09119 0.0
C109 C 0.70651 0.56235 0.12052 0.0
C110 C 0.71117 0.61463 0.12474 0.0
C111 C 0.68662 0.57868 0.12332 0.0
N112 N 0.7411 0.58761 0.12004 0.0
N113 N 0.74376 0.61877 0.12266 0.0
C114 C 0.69356 0.52333 0.11904 0.0
H115 H 0.70773 0.51551 0.12644 0.0
H116 H 0.69995 0.51796 0.10867 0.0
H117 H 0.66461 0.50664 0.12101 0.0
C118 C 0.80854 0.57518 0.07746 0.0
N119 N 0.80922 0.57463 0.09116 0.0
N120 N 0.78346 0.57913 0.09604 0.0
C121 C 0.76549 0.58273 0.08543 0.0
C122 C 0.78068 0.57986 0.07338 0.0
C123 C 0.83565 0.57389 0.06836 0.0
H124 H 0.86281 0.59159 0.07241 0.0
H125 H 0.83067 0.5462 0.06799 0.0
H126 H 0.83433 0.58237 0.0578 0.0
O127 O 0.86735 0.61525 0.11384 0.0
O128 O 0.82483 0.62296 0.12304 0.0
H129 H 0.74275 0.61255 0.09373 0.0
H130 H 0.7275 0.59563 0.07669 0.0
C131 C 0.73516 0.58975 0.08674 0.0
H132 H 0.71186 0.566 0.09118 0.0
H133 H 0.76778 0.64291 0.12284 0.0
O134 O 0.87558 0.56427 0.09266 0.0
C135 C 0.85771 0.6329 0.12134 0.0
Co136 Co 0.26011 0.85427 0.44173 0.0
Co137 Co 0.19148 0.78479 0.4504 0.0
C138 C 0.26236 0.79982 0.46047 0.0
O139 O 0.27682 0.82929 0.45405 0.0
O140 O 0.22881 0.77874 0.45996 0.0
C141 C 0.3264 0.88643 0.429 0.0
O142 O 0.32178 0.8543 0.4307 0.0
C143 C 0.14041 0.70881 0.45389 0.0
C144 C 0.08884 0.70763 0.45339 0.0
C145 C 0.10383 0.68601 0.45451 0.0
N146 N 0.1467 0.74233 0.45255 0.0
N147 N 0.11579 0.74149 0.45235 0.0
C148 C 0.16888 0.69887 0.45323 0.0
H149 H 0.19191 0.71881 0.4472 0.0
H150 H 0.15855 0.67213 0.44859 0.0
H151 H 0.17822 0.69837 0.46372 0.0
C152 C 0.23293 0.82739 0.41436 0.0
N153 N 0.23016 0.82429 0.42799 0.0
N154 N 0.20196 0.79382 0.43128 0.0
C155 C 0.18651 0.7758 0.41965 0.0
C156 C 0.20601 0.79651 0.40855 0.0
C157 C 0.25912 0.86055 0.40698 0.0
H158 H 0.26446 0.88448 0.41291 0.0
H159 H 0.28442 0.86039 0.40554 0.0
H160 H 0.24884 0.86212 0.39679 0.0
O161 O 0.23562 0.87385 0.45209 0.0
O162 O 0.18798 0.82467 0.45966 0.0
H163 H 0.13148 0.7392 0.42354 0.0
H164 H 0.14895 0.72808 0.40874 0.0
C165 C 0.15503 0.73891 0.41925 0.0
H166 H 0.16042 0.72112 0.42568 0.0
H167 H 0.11309 0.76397 0.45123 0.0
O168 O 0.30285 0.89327 0.43331 0.0
C169 C 0.20705 0.85858 0.45902 0.0
Co170 Co 0.42239 0.26444 0.76961 0.0
Co171 Co 0.41263 0.19392 0.78195 0.0
C172 C 0.47573 0.26511 0.78917 0.0
O173 O 0.4648 0.28095 0.78129 0.0
O174 O 0.45827 0.23133 0.7905 0.0
C175 C 0.45867 0.3294 0.75501 0.0
O176 O 0.48688 0.32691 0.75804 0.0
C177 C 0.43225 0.13962 0.78559 0.0
C178 C 0.38328 0.09414 0.79404 0.0
C179 C 0.41794 0.10484 0.79015 0.0
N180 N 0.4071 0.14893 0.78663 0.0
N181 N 0.37787 0.12171 0.79168 0.0
C182 C 0.46992 0.16509 0.78149 0.0
H183 H 0.48483 0.18066 0.79058 0.0
H184 H 0.47051 0.18413 0.77378 0.0
H185 H 0.48361 0.15122 0.77747 0.0
C186 C 0.41479 0.22673 0.74393 0.0
N187 N 0.41716 0.22856 0.75759 0.0
N188 N 0.41265 0.19829 0.76247 0.0
C189 C 0.40714 0.17606 0.75188 0.0
C190 C 0.4086 0.19364 0.73985 0.0
C191 C 0.41688 0.25561 0.7349 0.0
H192 H 0.39852 0.26452 0.73871 0.0
H193 H 0.44445 0.27857 0.73511 0.0
H194 H 0.40988 0.24663 0.72418 0.0
O195 O 0.37945 0.24738 0.78098 0.0
O196 O 0.37236 0.19742 0.79022 0.0
H197 H 0.37898 0.12467 0.76134 0.0
H198 H 0.38911 0.1237 0.74346 0.0
C199 C 0.3991 0.13839 0.75321 0.0
H200 H 0.42377 0.13828 0.75614 0.0
H201 H 0.35432 0.12201 0.79357 0.0
O202 O 0.42816 0.30554 0.75911 0.0
C203 C 0.36252 0.22047 0.78874 0.0
Co204 Co 0.57857 0.84621 0.56551 0.0
Co205 Co 0.58308 0.78164 0.5538 0.0
C206 C 0.5222 0.79314 0.54673 0.0
O207 O 0.53548 0.82102 0.55408 0.0
O208 O 0.53752 0.77466 0.54568 0.0
C209 C 0.54427 0.87535 0.58067 0.0
O210 O 0.51654 0.84354 0.57865 0.0
C211 C 0.56148 0.70667 0.54935 0.0
C212 C 0.61301 0.70954 0.54519 0.0
C213 C 0.57686 0.68583 0.54667 0.0
N214 N 0.58747 0.74099 0.54968 0.0
N215 N 0.61817 0.74257 0.54711 0.0
C216 C 0.5227 0.6949 0.55074 0.0
H217 H 0.51777 0.70291 0.56089 0.0
H218 H 0.5053 0.66583 0.54927 0.0
H219 H 0.51538 0.70858 0.54293 0.0
C220 C 0.58632 0.81705 0.59147 0.0
N221 N 0.58305 0.81557 0.57782 0.0
N222 N 0.58437 0.78774 0.57322 0.0
C223 C 0.588 0.77023 0.58398 0.0
C224 C 0.58932 0.7884 0.59582 0.0
C225 C 0.58732 0.8458 0.60027 0.0
H226 H 0.56 0.84165 0.60117 0.0
H227 H 0.59715 0.84551 0.61068 0.0
H228 H 0.60486 0.87224 0.59561 0.0
O229 O 0.62081 0.86969 0.55381 0.0
O230 O 0.62389 0.82422 0.54484 0.0
H231 H 0.59575 0.7292 0.59312 0.0
H232 H 0.56598 0.71542 0.57864 0.0
C233 C 0.59096 0.73739 0.58298 0.0
H234 H 0.61315 0.74239 0.57602 0.0
H235 H 0.6427 0.76617 0.54682 0.0
O236 O 0.57427 0.88282 0.5757 0.0
C237 C 0.63572 0.85765 0.54597 0.0
Co238 Co 0.73037 0.57967 0.89877 0.0
Co239 Co 0.80048 0.58483 0.88796 0.0
C240 C 0.72964 0.52322 0.88053 0.0
O241 O 0.71434 0.53613 0.88769 0.0
O242 O 0.76346 0.53919 0.8796 0.0
C243 C 0.67061 0.54626 0.91588 0.0
O244 O 0.68317 0.52465 0.91803 0.0
C245 C 0.85473 0.56438 0.88381 0.0
C246 C 0.90374 0.6165 0.88101 0.0
C247 C 0.89125 0.58022 0.88176 0.0
N248 N 0.84622 0.59021 0.88448 0.0
N249 N 0.87556 0.62128 0.88272 0.0
C250 C 0.82764 0.52544 0.88422 0.0
H251 H 0.80899 0.51903 0.87555 0.0
H252 H 0.81186 0.51929 0.89375 0.0
H253 H 0.83974 0.50828 0.88336 0.0
C254 C 0.76775 0.59233 0.92507 0.0
N255 N 0.76548 0.58644 0.91155 0.0
N256 N 0.79421 0.58621 0.90733 0.0
C257 C 0.81488 0.59023 0.91829 0.0
C258 C 0.79869 0.59436 0.92981 0.0
C259 C 0.74174 0.5977 0.93335 0.0
H260 H 0.72886 0.60919 0.92698 0.0
H261 H 0.72119 0.57175 0.9376 0.0
H262 H 0.75513 0.61583 0.94207 0.0
O263 O 0.749 0.62163 0.88701 0.0
O264 O 0.79833 0.62505 0.87856 0.0
H265 H 0.86879 0.61414 0.91144 0.0
H266 H 0.86122 0.59368 0.92809 0.0
C267 C 0.84982 0.59118 0.91774 0.0
H268 H 0.8461 0.56648 0.91286 0.0
H269 H 0.8764 0.64576 0.88283 0.0
O270 O 0.68714 0.57272 0.90794 0.0
C271 C 0.77645 0.6366 0.87942 0.0
Co272 Co 0.1405 0.72895 0.22849 0.0
Co273 Co 0.20976 0.79897 0.22072 0.0
C274 C 0.199 0.72964 0.21109 0.0
O275 O 0.16893 0.71447 0.2171 0.0
O276 O 0.21913 0.76334 0.21159 0.0
C277 C 0.11311 0.66765 0.24413 0.0
O278 O 0.14733 0.68081 0.24639 0.0
C279 C 0.28461 0.85425 0.21659 0.0
C280 C 0.28288 0.90339 0.22101 0.0
C281 C 0.30569 0.89099 0.21748 0.0
N282 N 0.25076 0.84532 0.21935 0.0
N283 N 0.24988 0.87483 0.22191 0.0
C284 C 0.29677 0.82779 0.21448 0.0
H285 H 0.282 0.80472 0.22141 0.0
H286 H 0.32578 0.8398 0.21639 0.0
H287 H 0.29094 0.81793 0.20383 0.0
C288 C 0.16219 0.75803 0.25606 0.0
N289 N 0.16749 0.76014 0.24253 0.0
N290 N 0.19877 0.78775 0.23968 0.0
C291 C 0.21549 0.80281 0.25156 0.0
C292 C 0.19281 0.78409 0.26234 0.0
C293 C 0.12702 0.73442 0.26282 0.0
H294 H 0.10483 0.72664 0.2555 0.0
H295 H 0.12624 0.71012 0.26681 0.0
H296 H 0.1233 0.7484 0.2716 0.0
O297 O 0.12019 0.75129 0.21734 0.0
O298 O 0.16946 0.80029 0.21063 0.0
H299 H 0.25327 0.85842 0.25064 0.0
H300 H 0.2645 0.83423 0.26275 0.0
C301 C 0.25299 0.83305 0.25253 0.0
H302 H 0.26968 0.83012 0.24465 0.0
H303 H 0.22684 0.87538 0.22456 0.0
O304 O 0.10288 0.68434 0.23641 0.0
C305 C 0.13559 0.78011 0.21056 0.0
Co306 Co 0.42024 0.14994 0.56535 0.0
Co307 Co 0.41063 0.21195 0.55435 0.0
C308 C 0.47201 0.20406 0.54535 0.0
O309 O 0.46036 0.17633 0.55271 0.0
O310 O 0.45584 0.2218 0.54495 0.0
C311 C 0.46214 0.13149 0.58068 0.0
O312 O 0.48312 0.16622 0.57997 0.0
C313 C 0.42798 0.28518 0.54954 0.0
C314 C 0.37499 0.28022 0.54705 0.0
C315 C 0.41117 0.30481 0.54724 0.0
N316 N 0.40295 0.25065 0.55056 0.0
N317 N 0.37131 0.24777 0.54899 0.0
C318 C 0.46683 0.299 0.552 0.0
H319 H 0.47055 0.28051 0.55871 0.0
H320 H 0.47957 0.32586 0.55672 0.0
H321 H 0.48011 0.30088 0.54211 0.0
C322 C 0.41431 0.17873 0.59174 0.0
N323 N 0.41597 0.18 0.57805 0.0
N324 N 0.413 0.20713 0.57371 0.0
C325 C 0.41001 0.22444 0.58468 0.0
C326 C 0.41118 0.20706 0.5964 0.0
C327 C 0.41253 0.14927 0.60033 0.0
H328 H 0.39881 0.12362 0.59475 0.0
H329 H 0.43995 0.15558 0.603 0.0
H330 H 0.39802 0.14643 0.61 0.0
O331 O 0.37576 0.12339 0.55505 0.0
O332 O 0.36958 0.16746 0.5464 0.0
H333 H 0.38179 0.25015 0.57769 0.0
H334 H 0.40211 0.26484 0.59432 0.0
C335 C 0.40545 0.25639 0.584 0.0
H336 H 0.42915 0.27864 0.57906 0.0
H337 H 0.34722 0.22374 0.54948 0.0
O338 O 0.43184 0.11727 0.5749 0.0
C339 C 0.35882 0.13426 0.54772 0.0
Co340 Co 0.26489 0.41592 0.89915 0.0
Co341 Co 0.19422 0.40805 0.88778 0.0
C342 C 0.2642 0.47122 0.88066 0.0
O343 O 0.27991 0.4591 0.888 0.0
O344 O 0.23041 0.45431 0.87948 0.0
C345 C 0.32451 0.45144 0.9163 0.0
O346 O 0.31133 0.47264 0.91813 0.0
C347 C 0.13932 0.42692 0.88324 0.0
C348 C 0.09112 0.37468 0.87962 0.0
C349 C 0.10312 0.41087 0.88053 0.0
N350 N 0.14833 0.40147 0.88381 0.0
N351 N 0.11948 0.37029 0.88156 0.0
C352 C 0.16451 0.46528 0.88649 0.0
H353 H 0.18585 0.46773 0.89343 0.0
H354 H 0.15024 0.47776 0.89129 0.0
H355 H 0.17712 0.47975 0.87692 0.0
C356 C 0.22639 0.40216 0.9252 0.0
N357 N 0.22895 0.40803 0.91167 0.0
N358 N 0.19968 0.40676 0.90721 0.0
C359 C 0.17815 0.40155 0.91801 0.0
C360 C 0.19448 0.39835 0.92968 0.0
C361 C 0.2533 0.39881 0.93371 0.0
H362 H 0.27315 0.42544 0.93767 0.0
H363 H 0.24062 0.38121 0.94262 0.0
H364 H 0.26696 0.38774 0.92759 0.0
O365 O 0.24796 0.37395 0.88746 0.0
O366 O 0.19825 0.36872 0.87857 0.0
H367 H 0.1296 0.39386 0.92736 0.0
H368 H 0.14489 0.42307 0.91268 0.0
C369 C 0.14222 0.39836 0.91715 0.0
H370 H 0.12484 0.37583 0.91036 0.0
H371 H 0.11904 0.346 0.88159 0.0
O372 O 0.30836 0.42445 0.90858 0.0
C373 C 0.22091 0.35822 0.8797 0.0
Co374 Co 0.84266 0.26139 0.23289 0.0
Co375 Co 0.78008 0.1908 0.2214 0.0
C376 C 0.78703 0.26072 0.21413 0.0
O377 O 0.81467 0.27626 0.22159 0.0
O378 O 0.77011 0.22694 0.21287 0.0
C379 C 0.86611 0.32104 0.24992 0.0
O380 O 0.83167 0.30772 0.25163 0.0
C381 C 0.70679 0.13517 0.21597 0.0
C382 C 0.71133 0.08666 0.21482 0.0
C383 C 0.68708 0.09859 0.21417 0.0
N384 N 0.74118 0.14453 0.21752 0.0
N385 N 0.7438 0.11547 0.21671 0.0
C386 C 0.69295 0.16045 0.21755 0.0
H387 H 0.69441 0.17311 0.20755 0.0
H388 H 0.70963 0.18173 0.22494 0.0
H389 H 0.66484 0.14639 0.22106 0.0
C390 C 0.8172 0.22326 0.25893 0.0
N391 N 0.81428 0.22568 0.24538 0.0
N392 N 0.78629 0.19647 0.24087 0.0
C393 C 0.76959 0.17511 0.25167 0.0
C394 C 0.78885 0.19152 0.26339 0.0
C395 C 0.84753 0.24989 0.26749 0.0
H396 H 0.87237 0.26331 0.26141 0.0
H397 H 0.84105 0.26999 0.2714 0.0
H398 H 0.85204 0.23698 0.27643 0.0
O399 O 0.86808 0.24448 0.22144 0.0
O400 O 0.82379 0.19486 0.21244 0.0
H401 H 0.74269 0.12093 0.24505 0.0
H402 H 0.72667 0.12807 0.26108 0.0
C403 C 0.73667 0.13933 0.25079 0.0
H404 H 0.71571 0.14165 0.24518 0.0
H405 H 0.76764 0.11522 0.21779 0.0
O406 O 0.87724 0.30488 0.24235 0.0
C407 C 0.85695 0.21745 0.21369 0.0
H408 H 0.63687 0.52901 0.1062 0.0
H409 H 0.57196 0.5016 0.10767 0.0
H410 H 0.58332 0.56685 0.14259 0.0
H411 H 0.64844 0.59366 0.14145 0.0
H412 H 0.52831 0.46772 0.13516 0.0
H413 H 0.51853 0.57898 0.11098 0.0
H414 H 0.55482 0.57107 0.10719 0.0
H415 H 0.55301 0.5891 0.12341 0.0
C416 C 0.6255 0.5369 0.11438 0.0
C417 C 0.64751 0.56253 0.12401 0.0
C418 C 0.58853 0.52154 0.11511 0.0
C419 C 0.57308 0.53214 0.12528 0.0
C420 C 0.59494 0.55837 0.1347 0.0
H421 H 0.3514 0.47465 0.1366 0.0
H422 H 0.41637 0.50309 0.13806 0.0
C423 C 0.63197 0.5736 0.13403 0.0
C424 C 0.53397 0.51543 0.12605 0.0
H425 H 0.46495 0.52843 0.11767 0.0
C426 C 0.51433 0.48092 0.1314 0.0
C427 C 0.51616 0.53302 0.12121 0.0
C428 C 0.53648 0.57008 0.11531 0.0
C429 C 0.47699 0.46334 0.13201 0.0
C430 C 0.45897 0.48048 0.12678 0.0
C431 C 0.4788 0.5153 0.12163 0.0
C432 C 0.41955 0.46255 0.12627 0.0
C433 C 0.45731 0.42684 0.13844 0.0
C434 C 0.39982 0.43041 0.11912 0.0
C435 C 0.36274 0.41413 0.1183 0.0
C436 C 0.34487 0.43014 0.12435 0.0
C437 C 0.3646 0.46219 0.13156 0.0
C438 C 0.40165 0.47832 0.13248 0.0
H439 H 0.47468 0.42246 0.14558 0.0
H440 H 0.43339 0.42291 0.14407 0.0
H441 H 0.44854 0.4063 0.13033 0.0
H442 H 0.41313 0.4182 0.11398 0.0
H443 H 0.34812 0.38947 0.11264 0.0
H444 H 0.11902 0.64281 0.47008 0.0
H445 H 0.08643 0.57747 0.47067 0.0
H446 H 0.01061 0.57541 0.44167 0.0
H447 H 0.04324 0.6407 0.44093 0.0
H448 H 0.00847 0.53074 0.47681 0.0
H449 H 0.04967 0.51077 0.42539 0.0
H450 H 0.07446 0.55185 0.43482 0.0
H451 H 0.03365 0.54182 0.42644 0.0
C452 C 0.0957 0.6284 0.46369 0.0
C453 C 0.08403 0.64671 0.45523 0.0
C454 C 0.077 0.59117 0.46413 0.0
C455 C 0.04653 0.5718 0.45606 0.0
C456 C 0.03441 0.59001 0.44782 0.0
H457 H 0.89545 0.35351 0.4381 0.0
H458 H 0.93332 0.41831 0.43901 0.0
C459 C 0.05292 0.6272 0.44746 0.0
C460 C 0.027 0.53247 0.45634 0.0
H461 H 0.00489 0.4595 0.43662 0.0
C462 C 0.00783 0.51503 0.4681 0.0
C463 C 0.02633 0.51233 0.44491 0.0
C464 C 0.0473 0.53 0.43218 0.0
C465 C 0.98685 0.47773 0.46857 0.0
C466 C 0.98587 0.4575 0.45708 0.0
C467 C 0.00568 0.47506 0.44541 0.0
C468 C 0.96321 0.41819 0.45668 0.0
C469 C 0.96489 0.46048 0.48116 0.0
C470 C 0.9679 0.39657 0.46615 0.0
C471 C 0.94574 0.35954 0.46581 0.0
C472 C 0.91862 0.34367 0.456 0.0
C473 C 0.91505 0.36523 0.44617 0.0
C474 C 0.93698 0.40217 0.44656 0.0
H475 H 0.96165 0.47989 0.48752 0.0
H476 H 0.93804 0.43824 0.47841 0.0
H477 H 0.97846 0.44951 0.48745 0.0
H478 H 0.98869 0.4083 0.47379 0.0
H479 H 0.94949 0.34335 0.47331 0.0
H480 H 0.42053 0.067 0.81174 0.0
H481 H 0.44882 0.03003 0.81267 0.0
H482 H 0.48071 0.05532 0.77063 0.0
H483 H 0.45194 0.09167 0.76961 0.0
H484 H 0.44738 0.9811 0.77768 0.0
H485 H 0.55853 0.06795 0.81261 0.0
H486 H 0.51451 0.05653 0.81817 0.0
H487 H 0.53319 0.0838 0.8033 0.0
C488 C 0.43377 0.06472 0.80275 0.0
C489 C 0.43507 0.08287 0.79072 0.0
C490 C 0.45001 0.04383 0.8033 0.0
C491 C 0.4674 0.0406 0.79179 0.0
C492 C 0.46784 0.05796 0.77967 0.0
H493 H 0.6107 0.95722 0.78288 0.0
H494 H 0.58282 0.99441 0.78374 0.0
C495 C 0.45177 0.07894 0.77913 0.0
C496 C 0.48443 0.0184 0.79224 0.0
H497 H 0.55314 0.01257 0.80658 0.0
C498 C 0.47047 0.98789 0.784 0.0
C499 C 0.51473 0.02767 0.80041 0.0
C500 C 0.53142 0.0609 0.80906 0.0
C501 C 0.4859 0.96614 0.78379 0.0
C502 C 0.51584 0.97506 0.79214 0.0
C503 C 0.53 0.00574 0.80029 0.0
C504 C 0.53319 0.95314 0.7923 0.0
C505 C 0.47049 0.93416 0.77446 0.0
C506 C 0.5148 0.91802 0.79716 0.0
C507 C 0.53066 0.89682 0.79671 0.0
C508 C 0.56509 0.91036 0.79131 0.0
C509 C 0.58399 0.94601 0.78696 0.0
C510 C 0.56813 0.96724 0.78744 0.0
H511 H 0.45263 0.93542 0.76663 0.0
H512 H 0.49203 0.93192 0.76925 0.0
H513 H 0.45469 0.90963 0.78059 0.0
H514 H 0.48814 0.907 0.80127 0.0
H515 H 0.516 0.86996 0.80067 0.0
H516 H 0.52634 0.63693 0.56382 0.0
H517 H 0.49795 0.5719 0.56257 0.0
H518 H 0.56278 0.58134 0.52775 0.0
H519 H 0.59054 0.64652 0.52866 0.0
H520 H 0.46279 0.52691 0.53607 0.0
H521 H 0.57573 0.51783 0.55898 0.0
H522 H 0.56885 0.55495 0.56237 0.0
H523 H 0.58541 0.5511 0.54609 0.0
C524 C 0.53388 0.62512 0.55568 0.0
C525 C 0.55973 0.64662 0.54604 0.0
C526 C 0.51796 0.58807 0.55509 0.0
C527 C 0.52822 0.57204 0.54503 0.0
C528 C 0.55456 0.59339 0.53556 0.0
H529 H 0.47138 0.351 0.53324 0.0
H530 H 0.49902 0.41589 0.5319 0.0
C531 C 0.57033 0.63047 0.5361 0.0
C532 C 0.51133 0.53288 0.54449 0.0
H533 H 0.5253 0.46415 0.55228 0.0
C534 C 0.47636 0.51306 0.53957 0.0
C535 C 0.52937 0.51521 0.549 0.0
C536 C 0.56689 0.53565 0.55448 0.0
C537 C 0.45884 0.47571 0.539 0.0
C538 C 0.47655 0.45786 0.54383 0.0
C539 C 0.51174 0.47786 0.5486 0.0
C540 C 0.45896 0.41846 0.54424 0.0
C541 C 0.42183 0.45586 0.53299 0.0
C542 C 0.42732 0.39838 0.55165 0.0
C543 C 0.41148 0.36133 0.5524 0.0
C544 C 0.42745 0.34384 0.54601 0.0
C545 C 0.45898 0.3639 0.53853 0.0
C546 C 0.47464 0.40091 0.53769 0.0
H547 H 0.41674 0.47313 0.52607 0.0
H548 H 0.4176 0.432 0.52722 0.0
H549 H 0.40195 0.44696 0.54135 0.0
H550 H 0.4152 0.41139 0.55706 0.0
H551 H 0.38723 0.34644 0.55827 0.0
H552 H 0.88852 0.52822 0.89832 0.0
H553 H 0.92496 0.49963 0.8968 0.0
H554 H 0.98272 0.56765 0.86297 0.0
H555 H 0.9455 0.59564 0.86415 0.0
H556 H 0.93586 0.46712 0.86959 0.0
H557 H 0.05691 0.57612 0.89466 0.0
H558 H 0.01286 0.56922 0.89796 0.0
H559 H 0.03423 0.58765 0.88199 0.0
C560 C 0.9084 0.53646 0.89035 0.0
C561 C 0.91344 0.56324 0.88104 0.0
C562 C 0.92939 0.52042 0.8896 0.0
C563 C 0.95625 0.53148 0.87973 0.0
C564 C 0.96199 0.5588 0.87063 0.0
H565 H 0.11915 0.473 0.86759 0.0
H566 H 0.08279 0.50165 0.86656 0.0
C567 C 0.94081 0.5747 0.87132 0.0
C568 C 0.97815 0.51423 0.87896 0.0
H569 H 0.05974 0.52595 0.88727 0.0
C570 C 0.96298 0.47989 0.87341 0.0
C571 C 0.01348 0.53125 0.88388 0.0
C572 C 0.03054 0.56806 0.89003 0.0
C573 C 0.98241 0.462 0.87262 0.0
C574 C 0.01755 0.47863 0.87787 0.0
C575 C 0.03279 0.51322 0.88327 0.0
C576 C 0.03886 0.4605 0.87808 0.0
C577 C 0.96531 0.42578 0.86595 0.0
C578 C 0.02627 0.42791 0.88493 0.0
C579 C 0.04697 0.41149 0.88549 0.0
C580 C 0.08093 0.4278 0.87949 0.0
C581 C 0.09342 0.46028 0.87258 0.0
C582 C 0.07259 0.47654 0.87191 0.0
H583 H 0.94363 0.42189 0.85887 0.0
H584 H 0.98519 0.42191 0.8602 0.0
H585 H 0.95341 0.4049 0.87394 0.0
H586 H 0.0007 0.41545 0.89004 0.0
H587 H 0.03681 0.38649 0.89091 0.0
H588 H 0.35236 0.94282 0.23441 0.0
H589 H 0.41725 0.97812 0.23216 0.0
H590 H 0.41118 0.92486 0.19422 0.0
H591 H 0.34636 0.88844 0.19681 0.0
H592 H 0.46289 0.92883 0.20887 0.0
H593 H 0.47576 0.06223 0.20876 0.0
H594 H 0.45359 0.03816 0.22388 0.0
H595 H 0.43313 0.02193 0.20745 0.0
C596 C 0.36499 0.93888 0.22558 0.0
C597 C 0.34462 0.9129 0.21582 0.0
C598 C 0.40198 0.95921 0.22423 0.0
C599 C 0.41911 0.95472 0.21287 0.0
C600 C 0.3986 0.92889 0.20305 0.0
H601 H 0.64312 0.10858 0.19719 0.0
H602 H 0.57811 0.07209 0.19553 0.0
C603 C 0.36166 0.90808 0.20454 0.0
C604 C 0.45849 0.97587 0.21154 0.0
H605 H 0.52938 0.0605 0.21313 0.0
C606 C 0.4774 0.95767 0.20965 0.0
C607 C 0.47748 0.01355 0.21226 0.0
C608 C 0.45888 0.03508 0.21304 0.0
C609 C 0.51474 0.97599 0.20887 0.0
C610 C 0.53382 0.01346 0.21056 0.0
C611 C 0.51486 0.03173 0.21204 0.0
C612 C 0.57337 0.0343 0.21102 0.0
C613 C 0.53317 0.95492 0.20602 0.0
C614 C 0.59239 0.02527 0.22026 0.0
C615 C 0.62951 0.0457 0.22101 0.0
C616 C 0.64811 0.07616 0.21286 0.0
C617 C 0.62921 0.08536 0.20367 0.0
C618 C 0.59216 0.06452 0.20271 0.0
H619 H 0.51545 0.93003 0.20033 0.0
H620 H 0.55796 0.97069 0.20002 0.0
H621 H 0.54013 0.94715 0.21582 0.0
H622 H 0.57852 0.00283 0.22709 0.0
H623 H 0.64359 0.03835 0.22826 0.0
H624 H 0.92572 0.58493 0.07491 0.0
H625 H 0.97339 0.57874 0.06432 0.0
H626 H 0.91635 0.46618 0.07342 0.0
H627 H 0.8682 0.472 0.08356 0.0
H628 H 0.0114 0.56161 0.07948 0.0
H629 H 0.95919 0.46431 0.03763 0.0
H630 H 0.9355 0.48586 0.04395 0.0
H631 H 0.93035 0.44619 0.05208 0.0
C632 C 0.92301 0.55872 0.07434 0.0
C633 C 0.89364 0.52901 0.08025 0.0
C634 C 0.95008 0.55518 0.06818 0.0
C635 C 0.94832 0.52196 0.06793 0.0
C636 C 0.91791 0.49191 0.07311 0.0
H637 H 0.05643 0.4224 0.0878 0.0
H638 H 0.01752 0.44203 0.07791 0.0
C639 C 0.89059 0.49533 0.0791 0.0
C640 C 0.98067 0.51981 0.06505 0.0
H641 H 0.00692 0.46416 0.05151 0.0
C642 C 0.01099 0.54117 0.07297 0.0
C643 C 0.98017 0.49328 0.05652 0.0
C644 C 0.9496 0.47144 0.04697 0.0
C645 C 0.0391 0.53413 0.07378 0.0
C646 C 0.03696 0.50529 0.06626 0.0
C647 C 0.00827 0.48609 0.05733 0.0
C648 C 0.06054 0.49092 0.06954 0.0
C649 C 0.06915 0.55545 0.08366 0.0
C650 C 0.09751 0.51142 0.0677 0.0
C651 C 0.11991 0.50054 0.07355 0.0
C652 C 0.1055 0.46885 0.08118 0.0
C653 C 0.06833 0.44715 0.08212 0.0
C654 C 0.04605 0.45816 0.07637 0.0
H655 H 0.0644 0.57409 0.08989 0.0
H656 H 0.07283 0.5374 0.09066 0.0
H657 H 0.09433 0.57137 0.07792 0.0
H658 H 0.10908 0.53657 0.0623 0.0
H659 H 0.14847 0.51749 0.07246 0.0
H660 H 0.63389 0.06283 0.41801 0.0
H661 H 0.57307 0.02733 0.40968 0.0
H662 H 0.56923 0.12321 0.40155 0.0
H663 H 0.63014 0.15908 0.41007 0.0
H664 H 0.51937 0.07961 0.4194 0.0
H665 H 0.5153 0.00039 0.3748 0.0
H666 H 0.54312 -0.00164 0.38788 0.0
H667 H 0.55539 0.04048 0.37995 0.0
C668 C 0.62045 0.07644 0.41415 0.0
C669 C 0.63649 0.11367 0.41494 0.0
C670 C 0.58583 0.05611 0.40919 0.0
C671 C 0.56681 0.07268 0.40483 0.0
C672 C 0.58364 0.10999 0.40474 0.0
H673 H 0.33529 0.94727 0.41712 0.0
H674 H 0.38981 0.99507 0.40682 0.0
C675 C 0.61831 0.13038 0.40971 0.0
C676 C 0.5278 0.05096 0.40326 0.0
H677 H 0.46352 0.97195 0.3901 0.0
C678 C 0.50683 0.05668 0.41268 0.0
C679 C 0.51167 0.0212 0.39447 0.0
C680 C 0.53259 0.01499 0.38361 0.0
C681 C 0.47088 0.03137 0.4146 0.0
C682 C 0.45542 1e-05 0.40659 0.0
C683 C 0.47557 0.99592 0.39628 0.0
C684 C 0.4207 0.96908 0.4103 0.0
C685 C 0.45086 0.03696 0.42606 0.0
C686 C 0.41964 0.93796 0.41498 0.0
C687 C 0.38853 0.91052 0.42068 0.0
C688 C 0.35815 0.91399 0.42191 0.0
C689 C 0.35866 0.94433 0.41656 0.0
C690 C 0.38967 0.97156 0.41065 0.0
H691 H 0.46864 0.0599 0.43265 0.0
H692 H 0.43032 0.04226 0.42171 0.0
H693 H 0.43719 0.01277 0.43254 0.0
H694 H 0.44338 0.93559 0.4148 0.0
H695 H 0.38876 0.88728 0.42463 0.0
H696 H 0.5185 0.39402 0.7517 0.0
H697 H 0.52212 0.44763 0.742 0.0
H698 H 0.41112 0.38746 0.73066 0.0
H699 H 0.40696 0.3339 0.74082 0.0
H700 H 0.50749 0.46992 0.71719 0.0
H701 H 0.41296 0.45806 0.75826 0.0
H702 H 0.43284 0.43018 0.7579 0.0
H703 H 0.39735 0.42192 0.74632 0.0
C704 C 0.49502 0.39209 0.74696 0.0
C705 C 0.46225 0.36014 0.74731 0.0
C706 C 0.49716 0.42266 0.74134 0.0
C707 C 0.46668 0.42156 0.73587 0.0
C708 C 0.4347 0.38894 0.73511 0.0
H709 H 0.46584 0.62141 0.74022 0.0
H710 H 0.44673 0.56278 0.73031 0.0
C711 C 0.43237 0.35847 0.74094 0.0
C712 C 0.4677 0.45541 0.73285 0.0
H713 H 0.44253 0.51162 0.74658 0.0
C714 C 0.49271 0.47887 0.72338 0.0
C715 C 0.44811 0.46684 0.74087 0.0
C716 C 0.42145 0.44314 0.75147 0.0
C717 C 0.50052 0.51435 0.72242 0.0
C718 C 0.48314 0.52649 0.73127 0.0
C719 C 0.45582 0.50217 0.73981 0.0
C720 C 0.49697 0.56474 0.7339 0.0
C721 C 0.52843 0.53885 0.7124 0.0
C722 C 0.53175 0.58549 0.73895 0.0
C723 C 0.54265 0.61879 0.74467 0.0
C724 C 0.51881 0.63177 0.74558 0.0
C725 C 0.48469 0.61194 0.73978 0.0
C726 C 0.47381 0.57858 0.73402 0.0
H727 H 0.52847 0.52398 0.70318 0.0
H728 H 0.52408 0.561 0.70924 0.0
H729 H 0.55514 0.55036 0.71719 0.0
H730 H 0.54976 0.57498 0.73931 0.0
H731 H 0.5692 0.63356 0.74897 0.0
H732 H 0.59739 0.93599 0.59222 0.0
H733 H 0.59199 0.98433 0.60263 0.0
H734 H 0.478 0.92425 0.59672 0.0
H735 H 0.48312 0.87552 0.5868 0.0
H736 H 0.57101 0.01991 0.58802 0.0
H737 H 0.48149 0.9703 0.63227 0.0
H738 H 0.50264 0.94671 0.62546 0.0
H739 H 0.46116 0.93981 0.61841 0.0
C740 C 0.57111 0.93282 0.59344 0.0
C741 C 0.54069 0.90232 0.58852 0.0
C742 C 0.56805 0.96029 0.5995 0.0
C743 C 0.53457 0.95779 0.60062 0.0
C744 C 0.504 0.92644 0.59637 0.0
H745 H 0.42745 0.05904 0.58232 0.0
H746 H 0.45013 0.02238 0.59195 0.0
C747 C 0.507 0.89876 0.5905 0.0
C748 C 0.53203 0.98994 0.60348 0.0
H749 H 0.47704 0.0155 0.61817 0.0
C750 C 0.55141 0.01957 0.59499 0.0
C751 C 0.50664 0.98959 0.61262 0.0
C752 C 0.48716 0.95996 0.62279 0.0
C753 C 0.54324 0.04693 0.59426 0.0
C754 C 0.51528 0.0447 0.6024 0.0
C755 C 0.49826 0.01688 0.61186 0.0
C756 C 0.49934 0.06701 0.59933 0.0
C757 C 0.56228 0.07615 0.58384 0.0
C758 C 0.51907 0.10416 0.60072 0.0
C759 C 0.5064 0.12525 0.59504 0.0
C760 C 0.47372 0.10937 0.58801 0.0
C761 C 0.45291 0.07206 0.58753 0.0
C762 C 0.46568 0.05106 0.59314 0.0
H763 H 0.58054 0.07159 0.57729 0.0
H764 H 0.54271 0.07831 0.57718 0.0
H765 H 0.57829 0.10202 0.58914 0.0
H766 H 0.54494 0.11684 0.60563 0.0
H767 H 0.52275 0.15396 0.59576 0.0
H768 H 0.35314 0.48819 0.93995 0.0
H769 H 0.41089 0.50327 0.95003 0.0
H770 H 0.42926 0.44838 0.91705 0.0
H771 H 0.37117 0.43162 0.90752 0.0
H772 H 0.45271 0.4369 0.9401 0.0
H773 H 0.50161 0.58247 0.93551 0.0
H774 H 0.46463 0.55727 0.94672 0.0
H775 H 0.45919 0.54966 0.92864 0.0
C776 C 0.36955 0.47919 0.93497 0.0
C777 C 0.35807 0.45915 0.92289 0.0
C778 C 0.40251 0.48791 0.9407 0.0
C779 C 0.42476 0.47761 0.93415 0.0
C780 C 0.41257 0.45657 0.92233 0.0
H781 H 0.62376 0.56503 0.90637 0.0
H782 H 0.56623 0.55006 0.91602 0.0
C783 C 0.37943 0.44714 0.91683 0.0
C784 C 0.46181 0.49034 0.93868 0.0
H785 H 0.54388 0.56513 0.93851 0.0
C786 C 0.47274 0.46497 0.94003 0.0
C787 C 0.4877 0.52705 0.93883 0.0
C788 C 0.47791 0.55578 0.93729 0.0
C789 C 0.50888 0.47495 0.93959 0.0
C790 C 0.53475 0.51156 0.93853 0.0
C791 C 0.52388 0.53709 0.93912 0.0
C792 C 0.57153 0.52347 0.93386 0.0
C793 C 0.51856 0.44599 0.93887 0.0
C794 C 0.59406 0.51411 0.94077 0.0
C795 C 0.62661 0.52169 0.93499 0.0
C796 C 0.63748 0.53978 0.92247 0.0
C797 C 0.61594 0.551 0.91602 0.0
C798 C 0.58314 0.54261 0.92159 0.0
H799 H 0.49475 0.41907 0.93766 0.0
H800 H 0.53681 0.45066 0.93018 0.0
H801 H 0.5323 0.44598 0.94841 0.0
H802 H 0.58618 0.50029 0.95045 0.0
H803 H 0.64322 0.51338 0.94026 0.0
H804 H 0.11877 0.64353 0.26913 0.0
H805 H 0.07537 0.58761 0.28012 0.0
H806 H 0.00621 0.5618 0.24511 0.0
H807 H 0.04825 0.6185 0.23462 0.0
H808 H 0.96837 0.54202 0.26752 0.0
H809 H 0.06723 0.49547 0.26999 0.0
H810 H 0.07713 0.53429 0.27979 0.0
H811 H 0.07715 0.53619 0.26147 0.0
C812 C 0.09412 0.62586 0.26388 0.0
C813 C 0.08686 0.63484 0.25098 0.0
C814 C 0.06946 0.59395 0.27013 0.0
C815 C 0.03791 0.5701 0.26331 0.0
C816 C 0.03035 0.57977 0.2506 0.0
H817 H 0.93296 0.36694 0.24127 0.0
H818 H 0.9735 0.42615 0.25 0.0
C819 C 0.05442 0.61203 0.24455 0.0
C820 C 0.01343 0.53396 0.26866 0.0
H821 H 0.00764 0.45318 0.27298 0.0
C822 C 0.97688 0.52256 0.26896 0.0
C823 C 0.02481 0.50888 0.27083 0.0
C824 C 0.06364 0.51911 0.27044 0.0
C825 C 0.95122 0.48627 0.26948 0.0
C826 C 0.96268 0.46094 0.27043 0.0
C827 C -0.00089 0.47275 0.27207 0.0
C828 C 0.93902 0.42321 0.26659 0.0
C829 C 0.91251 0.47549 0.2676 0.0
C830 C 0.90638 0.40144 0.27316 0.0
C831 C 0.88258 0.36775 0.26787 0.0
C832 C 0.89169 0.35513 0.25623 0.0
C833 C 0.92525 0.37604 0.25024 0.0
C834 C 0.94852 0.40985 0.25528 0.0
H835 H 0.90898 0.49854 0.26508 0.0
H836 H 0.90034 0.45551 0.2593 0.0
H837 H 0.89771 0.46335 0.27716 0.0
H838 H 0.89893 0.41078 0.28211 0.0
H839 H 0.85701 0.35174 0.2728 0.0
H840 H 0.16157 0.65747 0.20778 0.0
H841 H 0.17652 0.62077 0.19363 0.0
H842 H 0.27536 0.71368 0.18204 0.0
H843 H 0.26019 0.75111 0.19606 0.0
H844 H 0.24051 0.67387 0.16018 0.0
H845 H 0.24534 0.58528 0.19943 0.0
H846 H 0.20424 0.58568 0.20049 0.0
H847 H 0.2458 0.62605 0.20369 0.0
C848 C 0.18672 0.67024 0.20236 0.0
C849 C 0.20969 0.70736 0.2031 0.0
C850 C 0.19539 0.64906 0.19434 0.0
C851 C 0.22742 0.66427 0.18698 0.0
C852 C 0.25064 0.70128 0.18774 0.0
H853 H 0.25984 0.50592 0.14215 0.0
H854 H 0.27362 0.55707 0.15688 0.0
C855 C 0.24193 0.72264 0.19577 0.0
C856 C 0.2349 0.64157 0.17774 0.0
H857 H 0.23246 0.56162 0.17639 0.0
C858 C 0.23948 0.64969 0.16377 0.0
C859 C 0.2344 0.61038 0.18239 0.0
C860 C 0.23259 0.60157 0.19735 0.0
C861 C 0.24092 0.62621 0.15425 0.0
C862 C 0.23685 0.59334 0.15879 0.0
C863 C 0.23497 0.58649 0.17285 0.0
C864 C 0.23091 0.56439 0.14914 0.0
C865 C 0.24609 0.6366 0.1394 0.0
C866 C 0.20232 0.55141 0.13994 0.0
C867 C 0.19449 0.52244 0.13153 0.0
C868 C 0.21477 0.50529 0.13222 0.0
C869 C 0.24373 0.51852 0.14133 0.0
C870 C 0.25162 0.54773 0.14976 0.0
H871 H 0.26161 0.66603 0.1382 0.0
H872 H 0.26005 0.62477 0.13388 0.0
H873 H 0.21966 0.62707 0.13457 0.0
H874 H 0.18528 0.56304 0.13953 0.0
H875 H 0.17189 0.513 0.12471 0.0
H876 H 0.75451 0.26342 0.47419 0.0
H877 H 0.71719 0.27754 0.48878 0.0
H878 H 0.62367 0.18138 0.47543 0.0
H879 H 0.6602 0.16776 0.46064 0.0
H880 H 0.61115 0.23597 0.4764 0.0
H881 H 0.67503 0.22975 0.52474 0.0
H882 H 0.70421 0.26217 0.51256 0.0
H883 H 0.68384 0.21549 0.50867 0.0
C884 C 0.72598 0.24541 0.47433 0.0
C885 C 0.71048 0.21433 0.46629 0.0
C886 C 0.70469 0.25341 0.48274 0.0
C887 C 0.66761 0.23023 0.48339 0.0
C888 C 0.65216 0.19971 0.47513 0.0
H889 H 0.50897 0.16874 0.54286 0.0
H890 H 0.55905 0.18251 0.52801 0.0
C891 C 0.67322 0.1919 0.46668 0.0
C892 C 0.64441 0.23655 0.49281 0.0
H893 H 0.62586 0.23824 0.52656 0.0
C894 C 0.61459 0.23696 0.48737 0.0
C895 C 0.64884 0.23768 0.50714 0.0
C896 C 0.6795 0.23599 0.51368 0.0
C897 C 0.58817 0.23653 0.49582 0.0
C898 C 0.59215 0.23671 0.51015 0.0
C899 C 0.62291 0.23825 0.51558 0.0
C900 C 0.56276 0.23046 0.51965 0.0
C901 C 0.55521 0.23357 0.48932 0.0
C902 C 0.54827 0.25314 0.5201 0.0
C903 C 0.51904 0.24508 0.52856 0.0
C904 C 0.50409 0.2144 0.53682 0.0
C905 C 0.51955 0.19253 0.53663 0.0
C906 C 0.5484 0.20043 0.52815 0.0
H907 H 0.55321 0.22666 0.47832 0.0
H908 H 0.53079 0.21302 0.49454 0.0
H909 H 0.55604 0.25949 0.49022 0.0
H910 H 0.55936 0.27689 0.51384 0.0
H911 H 0.508 0.26266 0.52854 0.0
H912 H 0.46494 0.65919 0.78456 0.0
H913 H 0.41647 0.6208 0.79987 0.0
H914 H 0.45158 0.70712 0.8287 0.0
H915 H 0.49979 0.74618 0.81317 0.0
H916 H 0.42697 0.60159 0.82433 0.0
H917 H 0.34462 0.66585 0.83001 0.0
H918 H 0.37721 0.67774 0.8166 0.0
H919 H 0.39105 0.69516 0.83353 0.0
C920 C 0.46199 0.67029 0.79404 0.0
C921 C 0.48638 0.70571 0.79769 0.0
C922 C 0.43421 0.64827 0.80279 0.0
C923 C 0.43019 0.66101 0.81544 0.0
C924 C 0.45363 0.69682 0.8189 0.0
H925 H 0.33434 0.52046 0.88442 0.0
H926 H 0.37321 0.56901 0.86918 0.0
C927 C 0.48132 0.71909 0.81004 0.0
C928 C 0.40403 0.63561 0.82546 0.0
H929 H 0.33306 0.61905 0.8457 0.0
C930 C 0.40635 0.6054 0.82893 0.0
C931 C 0.37692 0.64037 0.83141 0.0
C932 C 0.37198 0.67135 0.82762 0.0
C933 C 0.38265 0.58002 0.83821 0.0
C934 C 0.35633 0.58535 0.84454 0.0
C935 C 0.35354 0.61526 0.84096 0.0
C936 C 0.33155 0.55975 0.85481 0.0
C937 C 0.38569 0.54736 0.84098 0.0
C938 C 0.29479 0.53971 0.8522 0.0
C939 C 0.27227 0.51203 0.86101 0.0
C940 C 0.28628 0.50392 0.87253 0.0
C941 C 0.32274 0.52561 0.87553 0.0
C942 C 0.34506 0.55336 0.86681 0.0
H943 H 0.40048 0.54264 0.83276 0.0
H944 H 0.40042 0.55112 0.85066 0.0
H945 H 0.35897 0.52322 0.84201 0.0
H946 H 0.28379 0.54436 0.84302 0.0
H947 H 0.2443 0.49592 0.85843 0.0
H948 H 0.74833 0.49799 0.14665 0.0
H949 H 0.73964 0.45026 0.16242 0.0
H950 H 0.80016 0.4215 0.13568 0.0
H951 H 0.80958 0.46927 0.12009 0.0
H952 H 0.71149 0.37521 0.16013 0.0
H953 H 0.85633 0.44699 0.17145 0.0
H954 H 0.83499 0.46755 0.16243 0.0
H955 H 0.84642 0.43821 0.15363 0.0
C956 C 0.75941 0.48121 0.14406 0.0
C957 C 0.78017 0.48786 0.13222 0.0
C958 C 0.75439 0.45394 0.15307 0.0
C959 C 0.76991 0.43284 0.15036 0.0
C960 C 0.78864 0.43798 0.13813 0.0
H961 H 0.74649 0.24315 0.1908 0.0
H962 H 0.73806 0.28379 0.1759 0.0
C963 C 0.79392 0.4653 0.12921 0.0
C964 C 0.76874 0.40706 0.16063 0.0
H965 H 0.82272 0.38802 0.17988 0.0
C966 C 0.73574 0.37803 0.16453 0.0
C967 C 0.80038 0.4111 0.16652 0.0
C968 C 0.83652 0.44281 0.16341 0.0
C969 C 0.73366 0.35248 0.17393 0.0
C970 C 0.76546 0.35583 0.1794 0.0
C971 C 0.79832 0.38525 0.17565 0.0
C972 C 0.76585 0.32966 0.18914 0.0
C973 C 0.69746 0.3225 0.17808 0.0
C974 C 0.78409 0.34171 0.20157 0.0
C975 C 0.78944 0.31877 0.20995 0.0
C976 C 0.77651 0.28308 0.20615 0.0
C977 C 0.75659 0.27043 0.19406 0.0
C978 C 0.75159 0.29362 0.18556 0.0
H979 H 0.67628 0.32931 0.17618 0.0
H980 H 0.69104 0.29846 0.17197 0.0
H981 H 0.69701 0.31581 0.18903 0.0
H982 H 0.79528 0.36933 0.20458 0.0
H983 H 0.80467 0.32934 0.21924 0.0
H984 H 0.33426 0.83993 0.46437 0.0
H985 H 0.372 0.82658 0.47866 0.0
H986 H 0.28104 0.72578 0.48983 0.0
H987 H 0.24258 0.73926 0.47566 0.0
H988 H 0.32074 0.76124 0.51188 0.0
H989 H 0.40981 0.75969 0.47201 0.0
H990 H 0.40798 0.80008 0.47134 0.0
H991 H 0.36831 0.75803 0.46803 0.0
C992 C 0.32214 0.81474 0.46976 0.0
C993 C 0.28528 0.79064 0.46882 0.0
C994 C 0.34392 0.80702 0.47786 0.0
C995 C 0.32956 0.77485 0.4851 0.0
C996 C 0.29278 0.75064 0.48422 0.0
H997 H 0.48771 0.73893 0.52804 0.0
H998 H 0.4365 0.72711 0.51373 0.0
C999 C 0.27083 0.75839 0.47612 0.0
C1000 C 0.35289 0.76786 0.49418 0.0
H1001 H 0.43304 0.7706 0.495 0.0
C1002 C 0.34498 0.76265 0.50816 0.0
C1003 C 0.38417 0.76889 0.48933 0.0
C1004 C 0.39286 0.77158 0.47433 0.0
C1005 C 0.36862 0.76081 0.51749 0.0
C1006 C 0.40141 0.76506 0.51276 0.0
C1007 C 0.40819 0.76788 0.49869 0.0
C1008 C 0.43025 0.76973 0.52225 0.0
C1009 C 0.3584 0.75483 0.53236 0.0
C1010 C 0.44379 0.79757 0.5318 0.0
C1011 C 0.47283 0.80428 0.54 0.0
C1012 C 0.48943 0.78358 0.53875 0.0
C1013 C 0.47553 0.75531 0.52932 0.0
C1014 C 0.44629 0.74855 0.52111 0.0
H1015 H 0.32897 0.73964 0.53362 0.0
H1016 H 0.36994 0.74017 0.53758 0.0
H1017 H 0.36844 0.781 0.53746 0.0
H1018 H 0.43259 0.81493 0.53263 0.0
H1019 H 0.4828 0.82638 0.54709 0.0
H1020 H 0.74943 0.49754 0.85861 0.0
H1021 H 0.70992 0.4493 0.84316 0.0
H1022 H 0.61993 0.42694 0.86858 0.0
H1023 H 0.65887 0.47541 0.88385 0.0
H1024 H 0.66081 0.37586 0.84565 0.0
H1025 H 0.59329 0.45164 0.83195 0.0
H1026 H 0.63434 0.47118 0.84151 0.0
H1027 H 0.59246 0.44321 0.84989 0.0
C1028 C 0.72131 0.48201 0.86102 0.0
C1029 C 0.70722 0.49073 0.87235 0.0
C1030 C 0.69876 0.45445 0.85217 0.0
C1031 C 0.66186 0.43508 0.85455 0.0
C1032 C 0.64819 0.44211 0.86637 0.0
H1033 H 0.49558 0.24698 0.81311 0.0
H1034 H 0.54353 0.28691 0.82854 0.0
C1035 C 0.67055 0.46979 0.87511 0.0
C1036 C 0.63726 0.40928 0.84427 0.0
H1037 H 0.56677 0.39234 0.82382 0.0
C1038 C 0.64031 0.37946 0.84082 0.0
C1039 C 0.61094 0.41436 0.83779 0.0
C1040 C 0.6077 0.447 0.84035 0.0
C1041 C 0.61721 0.35418 0.83125 0.0
C1042 C 0.59001 0.35861 0.82518 0.0
C1043 C 0.58744 0.38875 0.82852 0.0
C1044 C 0.56391 0.33283 0.81521 0.0
C1045 C 0.62259 0.3234 0.82758 0.0
C1046 C 0.55933 0.34517 0.80256 0.0
C1047 C 0.53162 0.32264 0.79387 0.0
C1048 C 0.50791 0.28709 0.79756 0.0
C1049 C 0.51354 0.27415 0.80992 0.0
C1050 C 0.5411 0.29694 0.81873 0.0
H1051 H 0.65016 0.32942 0.82988 0.0
H1052 H 0.60398 0.29971 0.83365 0.0
H1053 H 0.6171 0.31654 0.8166 0.0
H1054 H 0.57657 0.37269 0.79959 0.0
H1055 H 0.5282 0.33341 0.78439 0.0
H1056 H 0.20021 0.45061 0.94633 0.0
H1057 H 0.20054 0.44932 0.97135 0.0
H1058 H 0.16785 0.33756 0.97034 0.0
H1059 H 0.16712 0.33884 0.94531 0.0
H1060 H 0.13737 0.35804 0.99226 0.0
H1061 H 0.28453 0.44293 0.9887 0.0
H1062 H 0.26006 0.46095 0.98038 0.0
H1063 H 0.2569 0.4205 0.97412 0.0
C1064 C 0.19167 0.42552 0.95151 0.0
C1065 C 0.18338 0.39476 0.94404 0.0
C1066 C 0.19234 0.42488 0.96575 0.0
C1067 C 0.18504 0.39353 0.97264 0.0
C1068 C 0.17375 0.36204 0.96519 0.0
H1069 H 0.20008 0.35209 0.05946 0.0
H1070 H 0.19776 0.34596 0.03446 0.0
C1071 C 0.17302 0.36268 0.95095 0.0
C1072 C 0.19234 0.39439 0.98743 0.0
H1073 H 0.25948 0.43223 0.0109 0.0
C1074 C 0.16405 0.37403 0.99636 0.0
C1075 C 0.22732 0.41497 0.99269 0.0
C1076 C 0.25905 0.43584 0.98348 0.0
C1077 C 0.1696 0.37486 0.0105 0.0
C1078 C 0.20447 0.39611 0.01577 0.0
C1079 C 0.23284 0.41587 0.00681 0.0
C1080 C 0.2114 0.40055 0.03063 0.0
C1081 C 0.13797 0.35406 0.01974 0.0
C1082 C 0.22177 0.43368 0.03664 0.0
C1083 C 0.22339 0.4372 0.0508 0.0
C1084 C 0.21512 0.40777 0.05914 0.0
C1085 C 0.20718 0.37523 0.05316 0.0
C1086 C 0.20538 0.37163 0.03894 0.0
H1087 H 0.11226 0.3442 0.01427 0.0
H1088 H 0.13886 0.3307 0.0239 0.0
H1089 H 0.13874 0.37075 0.02847 0.0
H1090 H 0.22658 0.45631 0.03041 0.0
H1091 H 0.22894 0.46234 0.05526 0.0
H1092 H 0.74594 0.20104 0.28072 0.0
H1093 H 0.74901 0.20072 0.30571 0.0
H1094 H 0.82128 0.15964 0.3033 0.0
H1095 H 0.81829 0.16016 0.27829 0.0
H1096 H 0.7389 0.14826 0.32633 0.0
H1097 H 0.87923 0.25895 0.32195 0.0
H1098 H 0.84844 0.24472 0.30781 0.0
H1099 H 0.86836 0.21877 0.31284 0.0
C1100 C 0.76124 0.19056 0.28559 0.0
C1101 C 0.78153 0.1802 0.27773 0.0
C1102 C 0.76327 0.19069 0.29981 0.0
C1103 C 0.78592 0.18081 0.3063 0.0
C1104 C 0.80404 0.1678 0.29845 0.0
H1105 H 0.84436 0.19656 0.39244 0.0
H1106 H 0.84492 0.1915 0.36746 0.0
C1107 C 0.80193 0.1676 0.28423 0.0
C1108 C 0.79285 0.18716 0.32111 0.0
H1109 H 0.85682 0.24018 0.34417 0.0
C1110 C 0.76469 0.1682 0.33024 0.0
C1111 C 0.82657 0.21333 0.32616 0.0
C1112 C 0.8574 0.23539 0.31671 0.0
C1113 C 0.76933 0.17472 0.34432 0.0
C1114 C 0.80282 0.2014 0.34934 0.0
C1115 C 0.83121 0.21987 0.34025 0.0
C1116 C 0.8082 0.21084 0.36399 0.0
C1117 C 0.73836 0.15295 0.35374 0.0
C1118 C 0.78908 0.22533 0.37015 0.0
C1119 C 0.78901 0.22846 0.3843 0.0
C1120 C 0.8084 0.21758 0.39247 0.0
C1121 C 0.8299 0.20586 0.38627 0.0
C1122 C 0.8299 0.20262 0.37206 0.0
H1123 H 0.71765 0.12812 0.34877 0.0
H1124 H 0.74745 0.14573 0.36318 0.0
H1125 H 0.72586 0.16892 0.3567 0.0
H1126 H 0.77253 0.23224 0.36406 0.0
H1127 H 0.77174 0.23692 0.38893 0.0
H1128 H 0.53521 0.74731 0.61285 0.0
H1129 H 0.53773 0.75039 0.63784 0.0
H1130 H 0.65198 0.81783 0.63603 0.0
H1131 H 0.6494 0.81445 0.61102 0.0
H1132 H 0.62515 0.76651 0.6585 0.0
H1133 H 0.5593 0.84799 0.65426 0.0
H1134 H 0.5359 0.80516 0.64612 0.0
H1135 H 0.57879 0.83825 0.6398 0.0
C1136 C 0.56093 0.76141 0.61786 0.0
C1137 C 0.59217 0.78019 0.61015 0.0
C1138 C 0.56233 0.7636 0.63207 0.0
C1139 C 0.59497 0.78493 0.63872 0.0
C1140 C 0.62655 0.80134 0.63106 0.0
H1141 H 0.64369 0.84038 0.72523 0.0
H1142 H 0.64939 0.84348 0.70023 0.0
C1143 C 0.62513 0.79911 0.61683 0.0
C1144 C 0.59572 0.7928 0.65345 0.0
H1145 H 0.56703 0.83187 0.6766 0.0
C1146 C 0.61272 0.78101 0.66248 0.0
C1147 C 0.57975 0.81209 0.65854 0.0
C1148 C 0.56267 0.82694 0.64919 0.0
C1149 C 0.61289 0.78673 0.67659 0.0
C1150 C 0.59624 0.80535 0.68171 0.0
C1151 C 0.57991 0.81778 0.67263 0.0
C1152 C 0.59289 0.8094 0.69654 0.0
C1153 C 0.62967 0.7716 0.68596 0.0
C1154 C 0.55912 0.79111 0.70264 0.0
C1155 C 0.55589 0.78973 0.71681 0.0
C1156 C 0.58631 0.80698 0.72506 0.0
C1157 C 0.61987 0.82754 0.71899 0.0
C1158 C 0.62314 0.82884 0.70477 0.0
H1159 H 0.63538 0.75238 0.68064 0.0
H1160 H 0.65519 0.79363 0.68995 0.0
H1161 H 0.612 0.75795 0.69479 0.0
H1162 H 0.53546 0.77601 0.69647 0.0
H1163 H 0.52987 0.77311 0.72134 0.0
H1164 H 0.78728 0.54052 0.94673 0.0
H1165 H 0.78667 0.54231 0.97174 0.0
H1166 H 0.82959 0.65608 0.97037 0.0
H1167 H 0.82985 0.65413 0.94534 0.0
H1168 H 0.83795 0.58131 0.99257 0.0
H1169 H 0.7313 0.61683 0.98902 0.0
H1170 H 0.7452 0.601 0.97456 0.0
H1171 H 0.77209 0.64621 0.98027 0.0
C1172 C 0.79785 0.56601 0.95183 0.0
C1173 C 0.80895 0.59724 0.94426 0.0
C1174 C 0.7972 0.56701 0.96607 0.0
C1175 C 0.80736 0.59922 0.97286 0.0
C1176 C 0.82109 0.63088 0.9653 0.0
H1177 H 0.79606 0.63996 0.05935 0.0
H1178 H 0.8003 0.64612 0.03438 0.0
C1179 C 0.82174 0.62987 0.95106 0.0
C1180 C 0.8009 0.59902 0.9877 0.0
H1181 H 0.74977 0.61163 0.01114 0.0
C1182 C 0.81879 0.58805 0.99664 0.0
C1183 C 0.77573 0.60773 0.99296 0.0
C1184 C 0.75469 0.61834 0.98373 0.0
C1185 C 0.81226 0.58561 0.01072 0.0
C1186 C 0.78669 0.59374 0.01594 0.0
C1187 C 0.76923 0.60532 0.00706 0.0
C1188 C 0.77758 0.58966 0.03062 0.0
C1189 C 0.83291 0.5745 0.01994 0.0
C1190 C 0.76151 0.55576 0.03664 0.0
C1191 C 0.75884 0.55227 0.0508 0.0
C1192 C 0.77184 0.58257 0.05911 0.0
C1193 C 0.78516 0.61623 0.05308 0.0
C1194 C 0.78791 0.61975 0.03887 0.0
H1195 H 0.857 0.57715 0.01483 0.0
H1196 H 0.84123 0.59072 0.02941 0.0
H1197 H 0.81564 0.54617 0.02288 0.0
H1198 H 0.75303 0.53221 0.03042 0.0
H1199 H 0.74913 0.52617 0.05529 0.0
H1200 H 0.14623 0.77141 0.39247 0.0
H1201 H 0.14345 0.76511 0.36752 0.0
H1202 H 0.25593 0.80041 0.36665 0.0
H1203 H 0.25792 0.80366 0.39139 0.0
H1204 H 0.17354 0.81351 0.34908 0.0
H1205 H 0.22318 0.71994 0.34142 0.0
H1206 H 0.21112 0.72814 0.35804 0.0
H1207 H 0.25491 0.7574 0.35114 0.0
C1208 C 0.16994 0.77651 0.38693 0.0
C1209 C 0.20224 0.78789 0.39382 0.0
C1210 C 0.1685 0.77336 0.37268 0.0
C1211 C 0.19941 0.78181 0.36514 0.0
C1212 C 0.23146 0.79266 0.37214 0.0
H1213 H 0.22221 0.84397 0.27866 0.0
H1214 H 0.22682 0.84554 0.30368 0.0
C1215 C 0.23269 0.79499 0.38631 0.0
C1216 C 0.19902 0.78174 0.34997 0.0
H1217 H 0.22807 0.75635 0.32213 0.0
C1218 C 0.18501 0.80057 0.34317 0.0
C1219 C 0.21369 0.76464 0.34219 0.0
C1220 C 0.22617 0.74109 0.3486 0.0
C1221 C 0.18557 0.80308 0.32887 0.0
C1222 C 0.20214 0.78774 0.32115 0.0
C1223 C 0.21593 0.76873 0.32798 0.0
C1224 C 0.20289 0.7883 0.30597 0.0
C1225 C 0.16737 0.8212 0.32225 0.0
C1226 C 0.19038 0.75613 0.29886 0.0
C1227 C 0.18926 0.7555 0.28468 0.0
C1228 C 0.1997 0.78684 0.27721 0.0
C1229 C 0.21379 0.8194 0.28419 0.0
C1230 C 0.21577 0.82017 0.29849 0.0
H1231 H 0.1474 0.82189 0.32916 0.0
H1232 H 0.18756 0.84915 0.31979 0.0
H1233 H 0.15368 0.8075 0.31269 0.0
H1234 H 0.18069 0.73119 0.30429 0.0
H1235 H 0.17941 0.73016 0.27955 0.0
H1236 H 0.45937 0.20065 0.72213 0.0
H1237 H 0.45428 0.19893 0.69719 0.0
H1238 H 0.34155 0.1605 0.70066 0.0
H1239 H 0.34679 0.16247 0.72563 0.0
H1240 H 0.40998 0.14602 0.67711 0.0
H1241 H 0.38348 0.25882 0.68132 0.0
H1242 H 0.40038 0.24475 0.69538 0.0
H1243 H 0.35416 0.21925 0.69076 0.0
C1244 C 0.43331 0.19038 0.71752 0.0
C1245 C 0.40334 0.18112 0.72566 0.0
C1246 C 0.43045 0.18973 0.70332 0.0
C1247 C 0.39767 0.18022 0.69712 0.0
C1248 C 0.36716 0.16834 0.70527 0.0
H1249 H 0.3531 0.1958 0.61106 0.0
H1250 H 0.34787 0.19074 0.63606 0.0
C1251 C 0.37002 0.16894 0.71948 0.0
C1252 C 0.39631 0.18594 0.6823 0.0
H1253 H 0.38588 0.23909 0.65916 0.0
C1254 C 0.4045 0.16619 0.67317 0.0
C1255 C 0.38925 0.21241 0.67722 0.0
C1256 C 0.38157 0.23529 0.68664 0.0
C1257 C 0.40595 0.17227 0.65908 0.0
C1258 C 0.39974 0.19931 0.65403 0.0
C1259 C 0.39073 0.21851 0.6631 0.0
C1260 C 0.4037 0.20851 0.63935 0.0
C1261 C 0.41414 0.14972 0.64967 0.0
C1262 C 0.4371 0.22209 0.63309 0.0
C1263 C 0.44008 0.2252 0.61894 0.0
C1264 C 0.40981 0.21522 0.61087 0.0
C1265 C 0.37687 0.20436 0.61716 0.0
C1266 C 0.37384 0.20114 0.63138 0.0
H1267 H 0.40937 0.12473 0.6547 0.0
H1268 H 0.39772 0.14275 0.64027 0.0
H1269 H 0.44262 0.16499 0.64665 0.0
H1270 H 0.46051 0.22837 0.6391 0.0
H1271 H 0.46558 0.233 0.61423 0.0
H1272 H 0.9214 0.22828 0.22182 0.0
H1273 H 0.97061 0.2365 0.20715 0.0
H1274 H 0.90261 0.21136 0.17188 0.0
H1275 H 0.85268 0.20105 0.18668 0.0
H1276 H 0.95141 0.18983 0.16837 0.0
H1277 H 0.01833 0.32954 0.18711 0.0
H1278 H 0.0089 0.29748 0.20033 0.0
H1279 H 0.97281 0.2977 0.1913 0.0
C1280 C 0.91676 0.2235 0.21097 0.0
C1281 C 0.88351 0.21444 0.20532 0.0
C1282 C 0.9449 0.22845 0.2026 0.0
C1283 C 0.94063 0.22579 0.18838 0.0
C1284 C 0.9066 0.21386 0.18282 0.0
H1285 H 0.06383 0.31806 0.11816 0.0
H1286 H 0.01864 0.27764 0.13423 0.0
C1287 C 0.87809 0.20794 0.19126 0.0
C1288 C 0.9722 0.23942 0.17931 0.0
H1289 H 0.04981 0.31524 0.17133 0.0
C1290 C 0.97308 0.21715 0.16909 0.0
C1291 C 0.00036 0.27525 0.18016 0.0
C1292 C 0.0 0.3015 0.19022 0.0
C1293 C 0.00117 0.22993 0.15961 0.0
C1294 C 0.02897 0.26574 0.16044 0.0
C1295 C 0.02865 0.28761 0.17088 0.0
C1296 C 0.05645 0.2828 0.14973 0.0
C1297 C 0.00073 0.20535 0.14864 0.0
C1298 C 0.09277 0.29849 0.15301 0.0
C1299 C 0.11877 0.32159 0.14381 0.0
C1300 C 0.10871 0.32989 0.13132 0.0
C1301 C 0.0724 0.31237 0.12775 0.0
C1302 C 0.04652 0.28898 0.13686 0.0
H1303 H 0.983 0.1769 0.15138 0.0
H1304 H 0.99073 0.2107 0.13902 0.0
H1305 H 0.02802 0.21005 0.14673 0.0
H1306 H 0.10088 0.29433 0.16297 0.0
H1307 H 0.14651 0.33475 0.14686 0.0
H1308 H 0.67664 0.92945 0.5494 0.0
H1309 H 0.7157 0.97302 0.5326 0.0
H1310 H 0.70004 0.88805 0.50552 0.0
H1311 H 0.66065 0.84396 0.52233 0.0
H1312 H 0.7793 0.98448 0.51567 0.0
H1313 H 0.65291 0.94333 0.48733 0.0
H1314 H 0.65305 0.93232 0.50506 0.0
H1315 H 0.66285 0.90916 0.49214 0.0
C1316 C 0.68209 0.91992 0.54001 0.0
C1317 C 0.66503 0.88323 0.53709 0.0
C1318 C 0.70464 0.9449 0.53046 0.0
C1319 C 0.71041 0.9337 0.5178 0.0
C1320 C 0.69574 0.89713 0.51525 0.0
H1321 H 0.75783 0.06784 0.44641 0.0
H1322 H 0.7511 0.01828 0.46046 0.0
C1323 C 0.67328 0.872 0.52486 0.0
C1324 C 0.72694 0.9602 0.50674 0.0
H1325 H 0.70431 0.99301 0.47934 0.0
C1326 C 0.76319 0.98613 0.50755 0.0
C1327 C 0.70574 0.96223 0.49622 0.0
C1328 C 0.66643 0.93549 0.49508 0.0
C1329 C 0.77869 0.01453 0.4982 0.0
C1330 C 0.75702 0.01752 0.48807 0.0
C1331 C 0.72106 0.99076 0.48703 0.0
C1332 C 0.76964 0.04919 0.47906 0.0
C1333 C 0.81799 0.041 0.49934 0.0
C1334 C 0.78384 0.08354 0.48466 0.0
C1335 C 0.78853 0.11214 0.47653 0.0
C1336 C 0.77812 0.10657 0.46278 0.0
C1337 C 0.7659 0.07276 0.45702 0.0
C1338 C 0.76204 0.04444 0.46504 0.0
H1339 H 0.83264 0.0283 0.50367 0.0
H1340 H 0.82976 0.05276 0.48929 0.0
H1341 H 0.82195 0.06279 0.50635 0.0
H1342 H 0.78903 0.08785 0.49548 0.0
H1343 H 0.79763 0.13787 0.48125 0.0
H1344 H 0.66396 0.72801 0.78447 0.0
H1345 H 0.70488 0.72312 0.80026 0.0
H1346 H 0.70623 0.80514 0.82552 0.0
H1347 H 0.66518 0.81039 0.80975 0.0
H1348 H 0.77626 0.77785 0.81409 0.0
H1349 H 0.65641 0.70613 0.84734 0.0
H1350 H 0.65269 0.71245 0.82936 0.0
H1351 H 0.66734 0.7493 0.84087 0.0
C1352 C 0.67349 0.74559 0.79323 0.0
C1353 C 0.66082 0.76918 0.79597 0.0
C1354 C 0.69709 0.74291 0.80218 0.0
C1355 C 0.70831 0.76361 0.81405 0.0
C1356 C 0.69778 0.78896 0.81637 0.0
H1357 H 0.76602 0.69098 0.88666 0.0
H1358 H 0.75925 0.73168 0.87135 0.0
C1359 C 0.67429 0.79185 0.80736 0.0
C1360 C 0.72629 0.7546 0.82484 0.0
H1361 H 0.70808 0.70651 0.85415 0.0
C1362 C 0.76169 0.76273 0.82299 0.0
C1363 C 0.70708 0.73487 0.83638 0.0
C1364 C 0.66872 0.7249 0.83867 0.0
C1365 C 0.7783 0.7511 0.83238 0.0
C1366 C 0.75852 0.72997 0.84363 0.0
C1367 C 0.72342 0.72286 0.8456 0.0
C1368 C 0.77202 0.71247 0.85303 0.0
C1369 C 0.81674 0.76157 0.83012 0.0
C1370 C 0.78324 0.68931 0.84795 0.0
C1371 C 0.78806 0.66667 0.85677 0.0
C1372 C 0.78074 0.66619 0.87073 0.0
C1373 C 0.77175 0.69086 0.87591 0.0
C1374 C 0.76784 0.71406 0.86716 0.0
H1375 H 0.83128 0.78738 0.82461 0.0
H1376 H 0.83064 0.76384 0.83989 0.0
H1377 H 0.8179 0.74105 0.82372 0.0
H1378 H 0.78577 0.68681 0.83708 0.0
H1379 H 0.79457 0.64753 0.85254 0.0
H1380 H 0.0776 0.78456 0.21763 0.0
H1381 H 0.0302 0.77797 0.20222 0.0
H1382 H 0.09335 0.78104 0.1677 0.0
H1383 H 0.14164 0.78969 0.18312 0.0
H1384 H 0.04924 0.80807 0.1613 0.0
H1385 H 0.97385 0.67762 0.18782 0.0
H1386 H 0.98763 0.71541 0.19876 0.0
H1387 H 0.02057 0.70762 0.19082 0.0
C1388 C 0.08188 0.78538 0.20672 0.0
C1389 C 0.11305 0.78753 0.2015 0.0
C1390 C 0.0547 0.78125 0.19794 0.0
C1391 C 0.05775 0.77777 0.18385 0.0
C1392 C 0.09032 0.7834 0.17855 0.0
H1393 H 0.92914 0.66997 0.11626 0.0
H1394 H 0.97601 0.71286 0.13118 0.0
C1395 C 0.11795 0.78847 0.18734 0.0
C1396 C 0.02574 0.76315 0.17497 0.0
H1397 H 0.94467 0.68853 0.17003 0.0
C1398 C 0.02621 0.78211 0.16327 0.0
C1399 C 0.99577 0.72904 0.17748 0.0
C1400 C 0.99442 0.70605 0.18931 0.0
C1401 C -0.00231 0.76763 0.15395 0.0
C1402 C 0.96814 0.73338 0.1564 0.0
C1403 C 0.96718 0.71501 0.16829 0.0
C1404 C 0.93984 0.71388 0.14613 0.0
C1405 C -0.00042 0.78879 0.14147 0.0
C1406 C 0.90384 0.70054 0.14948 0.0
C1407 C 0.87683 0.67587 0.14095 0.0
C1408 C 0.88548 0.66367 0.12906 0.0
C1409 C 0.92156 0.67864 0.12539 0.0
C1410 C 0.94845 0.70348 0.13384 0.0
H1411 H 0.01805 0.81777 0.14301 0.0
H1412 H 0.00964 0.77999 0.13276 0.0
H1413 H 0.97282 0.78445 0.13872 0.0
H1414 H 0.89668 0.70797 0.15901 0.0
H1415 H 0.84933 0.66483 0.14408 0.0
H1416 H 0.32817 0.14517 0.52513 0.0
H1417 H 0.28383 0.09935 0.51002 0.0
H1418 H 0.27543 0.01743 0.53728 0.0
H1419 H 0.31953 0.06277 0.55236 0.0
H1420 H 0.30051 0.04976 0.49859 0.0
H1421 H 0.17103 0.97981 0.52557 0.0
H1422 H 0.20562 0.02439 0.53001 0.0
H1423 H 0.20823 0.98639 0.53581 0.0
C1424 C 0.31613 0.11744 0.52809 0.0
C1425 C 0.32766 0.10757 0.53986 0.0
C1426 C 0.29076 0.09132 0.51946 0.0
C1427 C 0.27606 0.05502 0.52261 0.0
C1428 C 0.28586 0.04527 0.53479 0.0
H1429 H 0.19595 0.85326 0.48636 0.0
H1430 H 0.20484 0.90224 0.50138 0.0
C1431 C 0.31141 0.07126 0.54332 0.0
C1432 C 0.25568 0.02736 0.51223 0.0
H1433 H 0.17946 0.94757 0.50731 0.0
C1434 C 0.2737 0.02781 0.50031 0.0
C1435 C 0.22097 -0.00144 0.51465 0.0
C1436 C 0.20016 0.99731 0.52716 0.0
C1437 C 0.25892 -0.00074 0.49111 0.0
C1438 C 0.22441 0.9699 0.49365 0.0
C1439 C 0.20574 0.97012 0.50532 0.0
C1440 C 0.20925 0.93757 0.48493 0.0
C1441 C 0.2816 -0.00013 0.47929 0.0
C1442 C 0.20619 0.94022 0.47079 0.0
C1443 C 0.20197 0.91263 0.46222 0.0
C1444 C 0.19928 0.88147 0.46772 0.0
C1445 C 0.19765 0.87695 0.48192 0.0
C1446 C 0.20286 0.90499 0.49049 0.0
H1447 H 0.31018 0.02007 0.48073 0.0
H1448 H 0.27948 0.97345 0.4779 0.0
H1449 H 0.27239 0.00669 0.4698 0.0
H1450 H 0.20998 0.96472 0.46631 0.0
H1451 H 0.20326 0.9166 0.45129 0.0
H1452 H 0.23152 0.30426 0.88748 0.0
H1453 H 0.23985 0.26379 0.87254 0.0
H1454 H 0.21536 0.30813 0.83757 0.0
H1455 H 0.20491 0.3472 0.85263 0.0
H1456 H 0.19374 0.238 0.83361 0.0
H1457 H 0.33316 0.3097 0.85268 0.0
H1458 H 0.30099 0.2867 0.86583 0.0
H1459 H 0.30135 0.32332 0.85699 0.0
C1460 C 0.22691 0.30455 0.87663 0.0
C1461 C 0.21798 0.32898 0.87114 0.0
C1462 C 0.23191 0.28166 0.8681 0.0
C1463 C 0.22948 0.28385 0.85391 0.0
C1464 C 0.21769 0.3062 0.84849 0.0
H1465 H 0.32343 0.25279 0.78389 0.0
H1466 H 0.28335 0.25892 0.79972 0.0
C1467 C 0.21169 0.32848 0.85708 0.0
C1468 C 0.24315 0.26619 0.84472 0.0
H1469 H 0.31878 0.26394 0.83683 0.0
C1470 C 0.22098 0.24345 0.83437 0.0
C1471 C 0.27891 0.27364 0.84562 0.0
C1472 C 0.3051 0.29993 0.85578 0.0
C1473 C 0.23376 0.2282 0.82487 0.0
C1474 C 0.26942 0.23583 0.8258 0.0
C1475 C 0.29124 0.25775 0.83632 0.0
C1476 C 0.28636 0.225 0.8152 0.0
C1477 C 0.20934 0.20449 0.81377 0.0
C1478 C 0.30073 0.20326 0.81857 0.0
C1479 C 0.32361 0.19956 0.8095 0.0
C1480 C 0.33302 0.21822 0.79707 0.0
C1481 C 0.31687 0.23826 0.79343 0.0
C1482 C 0.29369 0.24155 0.80241 0.0
H1483 H 0.18087 0.19456 0.81625 0.0
H1484 H 0.21568 0.21985 0.80412 0.0
H1485 H 0.21329 0.18136 0.81205 0.0
H1486 H 0.29567 0.19063 0.82849 0.0
H1487 H 0.33568 0.18401 0.81262 0.0
loop_
_geom_bond_atom_site_label_1
_geom_bond_atom_site_label_2
_geom_bond_distance
_geom_bond_site_symmetry_2
_ccdc_geom_bond_type
Co0 O3 1.970 . S
Co0 N17 1.989 . S
Co0 O25 1.967 . S
Co0 O32 1.920 . S
Co1 O4 1.966 . S
Co1 N10 2.022 . S
Co1 N18 1.993 . S
Co1 O26 1.941 . S
C2 O3 1.258 . S
C2 O4 1.263 . S
O3 Co0 1.970 . S
O3 C2 1.258 . S
O4 Co1 1.966 . S
O4 C2 1.263 . S
C5 O6 1.235 . S
C5 O32 1.289 . S
O6 C5 1.235 . S
C7 C9 1.400 . S
C7 N10 1.351 . S
C7 C12 1.501 . S
C8 C9 1.387 . S
C8 N11 1.341 . S
C9 C7 1.400 . S
C9 C8 1.387 . S
N10 Co1 2.022 . S
N10 C7 1.351 . S
N10 N11 1.365 . S
N11 C8 1.341 . S
N11 N10 1.365 . S
N11 H31 0.862 . S
C12 C7 1.501 . S
C12 H13 0.961 . S
C12 H14 0.961 . S
C12 H15 0.960 . S
H13 C12 0.961 . S
H14 C12 0.961 . S
H15 C12 0.960 . S
C16 N17 1.342 . S
C16 C20 1.401 . S
C16 C21 1.499 . S
N17 Co0 1.989 . S
N17 C16 1.342 . S
N17 N18 1.388 . S
N18 Co1 1.993 . S
N18 N17 1.388 . S
N18 C19 1.346 . S
C19 N18 1.346 . S
C19 C20 1.396 . S
C19 C29 1.510 . S
C20 C16 1.401 . S
C20 C19 1.396 . S
C21 C16 1.499 . S
C21 H22 0.959 . S
C21 H23 0.960 . S
C21 H24 0.961 . S
H22 C21 0.959 . S
H23 C21 0.960 . S
H24 C21 0.961 . S
O25 Co0 1.967 . S
O25 C33 1.258 . S
O26 Co1 1.941 . S
O26 C33 1.266 . S
H27 C29 0.959 . S
H28 C29 0.961 . S
C29 C19 1.510 . S
C29 H27 0.959 . S
C29 H28 0.961 . S
C29 H30 0.960 . S
H30 C29 0.960 . S
H31 N11 0.862 . S
O32 Co0 1.920 . S
O32 C5 1.289 . S
C33 O25 1.258 . S
C33 O26 1.266 . S
Co34 O37 1.970 . S
Co34 N51 1.989 . S
Co34 O59 1.967 . S
Co34 O66 1.920 . S
Co35 O38 1.966 . S
Co35 N44 2.022 . S
Co35 N52 1.993 . S
Co35 O60 1.941 . S
C36 O37 1.258 . S
C36 O38 1.263 . S
O37 Co34 1.970 . S
O37 C36 1.258 . S
O38 Co35 1.966 . S
O38 C36 1.263 . S
C39 O40 1.235 . S
C39 O66 1.289 . S
O40 C39 1.235 . S
C41 C43 1.400 . S
C41 N44 1.351 . S
C41 C46 1.501 . S
C42 C43 1.387 . S
C42 N45 1.341 . S
C43 C41 1.400 . S
C43 C42 1.387 . S
N44 Co35 2.022 . S
N44 C41 1.351 . S
N44 N45 1.365 . S
N45 C42 1.341 . S
N45 N44 1.365 . S
N45 H65 0.862 . S
C46 C41 1.501 . S
C46 H47 0.961 . S
C46 H48 0.961 . S
C46 H49 0.960 . S
H47 C46 0.961 . S
H48 C46 0.961 . S
H49 C46 0.960 . S
C50 N51 1.342 . S
C50 C54 1.401 . S
C50 C55 1.499 . S
N51 Co34 1.989 . S
N51 C50 1.342 . S
N51 N52 1.388 . S
N52 Co35 1.993 . S
N52 N51 1.388 . S
N52 C53 1.346 . S
C53 N52 1.346 . S
C53 C54 1.396 . S
C53 C63 1.510 . S
C54 C50 1.401 . S
C54 C53 1.396 . S
C55 C50 1.499 . S
C55 H56 0.959 . S
C55 H57 0.960 . S
C55 H58 0.961 . S
H56 C55 0.959 . S
H57 C55 0.960 . S
H58 C55 0.961 . S
O59 Co34 1.967 . S
O59 C67 1.258 . S
O60 Co35 1.941 . S
O60 C67 1.266 . S
H61 C63 0.959 . S
H62 C63 0.961 . S
C63 C53 1.510 . S
C63 H61 0.959 . S
C63 H62 0.961 . S
C63 H64 0.960 . S
H64 C63 0.960 . S
H65 N45 0.862 . S
O66 Co34 1.920 . S
O66 C39 1.289 . S
C67 O59 1.258 . S
C67 O60 1.266 . S
Co68 O71 1.970 . S
Co68 N85 1.989 . S
Co68 O93 1.967 . S
Co68 O100 1.920 . S
Co69 O72 1.966 . S
Co69 N78 2.022 . S
Co69 N86 1.993 . S
Co69 O94 1.941 . S
C70 O71 1.258 . S
C70 O72 1.263 . S
O71 Co68 1.970 . S
O71 C70 1.258 . S
O72 Co69 1.966 . S
O72 C70 1.263 . S
C73 O74 1.235 . S
C73 O100 1.289 . S
O74 C73 1.235 . S
C75 C77 1.400 . S
C75 N78 1.351 . S
C75 C80 1.501 . S
C76 C77 1.387 . S
C76 N79 1.341 . S
C77 C75 1.400 . S
C77 C76 1.387 . S
N78 Co69 2.022 . S
N78 C75 1.351 . S
N78 N79 1.365 . S
N79 C76 1.341 . S
N79 N78 1.365 . S
N79 H99 0.862 . S
C80 C75 1.501 . S
C80 H81 0.961 . S
C80 H82 0.961 . S
C80 H83 0.960 . S
H81 C80 0.961 . S
H82 C80 0.961 . S
H83 C80 0.960 . S
C84 N85 1.342 . S
C84 C88 1.401 . S
C84 C89 1.499 . S
N85 Co68 1.989 . S
N85 C84 1.342 . S
N85 N86 1.388 . S
N86 Co69 1.993 . S
N86 N85 1.388 . S
N86 C87 1.346 . S
C87 N86 1.346 . S
C87 C88 1.396 . S
C87 C97 1.510 . S
C88 C84 1.401 . S
C88 C87 1.396 . S
C89 C84 1.499 . S
C89 H90 0.959 . S
C89 H91 0.960 . S
C89 H92 0.961 . S
H90 C89 0.959 . S
H91 C89 0.960 . S
H92 C89 0.961 . S
O93 Co68 1.967 . S
O93 C101 1.258 . S
O94 Co69 1.941 . S
O94 C101 1.266 . S
H95 C97 0.959 . S
H96 C97 0.961 . S
C97 C87 1.510 . S
C97 H95 0.959 . S
C97 H96 0.961 . S
C97 H98 0.960 . S
H98 C97 0.960 . S
H99 N79 0.862 . S
O100 Co68 1.920 . S
O100 C73 1.289 . S
C101 O93 1.258 . S
C101 O94 1.266 . S
Co102 O105 1.970 . S
Co102 N119 1.989 . S
Co102 O127 1.967 . S
Co102 O134 1.920 . S
Co103 O106 1.966 . S
Co103 N112 2.022 . S
Co103 N120 1.993 . S
Co103 O128 1.941 . S
C104 O105 1.258 . S
C104 O106 1.263 . S
O105 Co102 1.970 . S
O105 C104 1.258 . S
O106 Co103 1.966 . S
O106 C104 1.263 . S
C107 O108 1.235 . S
C107 O134 1.289 . S
O108 C107 1.235 . S
C109 C111 1.400 . S
C109 N112 1.351 . S
C109 C114 1.501 . S
C110 C111 1.387 . S
C110 N113 1.341 . S
C111 C109 1.400 . S
C111 C110 1.387 . S
N112 Co103 2.022 . S
N112 C109 1.351 . S
N112 N113 1.365 . S
N113 C110 1.341 . S
N113 N112 1.365 . S
N113 H133 0.862 . S
C114 C109 1.501 . S
C114 H115 0.961 . S
C114 H116 0.961 . S
C114 H117 0.960 . S
H115 C114 0.961 . S
H116 C114 0.961 . S
H117 C114 0.960 . S
C118 N119 1.342 . S
C118 C122 1.401 . S
C118 C123 1.499 . S
N119 Co102 1.989 . S
N119 C118 1.342 . S
N119 N120 1.388 . S
N120 Co103 1.993 . S
N120 N119 1.388 . S
N120 C121 1.346 . S
C121 N120 1.346 . S
C121 C122 1.396 . S
C121 C131 1.510 . S
C122 C118 1.401 . S
C122 C121 1.396 . S
C123 C118 1.499 . S
C123 H124 0.959 . S
C123 H125 0.960 . S
C123 H126 0.961 . S
H124 C123 0.959 . S
H125 C123 0.960 . S
H126 C123 0.961 . S
O127 Co102 1.967 . S
O127 C135 1.258 . S
O128 Co103 1.941 . S
O128 C135 1.266 . S
H129 C131 0.959 . S
H130 C131 0.961 . S
C131 C121 1.510 . S
C131 H129 0.959 . S
C131 H130 0.961 . S
C131 H132 0.960 . S
H132 C131 0.960 . S
H133 N113 0.862 . S
O134 Co102 1.920 . S
O134 C107 1.289 . S
C135 O127 1.258 . S
C135 O128 1.266 . S
Co136 O139 1.970 . S
Co136 N153 1.989 . S
Co136 O161 1.967 . S
Co136 O168 1.920 . S
Co137 O140 1.966 . S
Co137 N146 2.022 . S
Co137 N154 1.993 . S
Co137 O162 1.941 . S
C138 O139 1.258 . S
C138 O140 1.263 . S
O139 Co136 1.970 . S
O139 C138 1.258 . S
O140 Co137 1.966 . S
O140 C138 1.263 . S
C141 O142 1.235 . S
C141 O168 1.289 . S
O142 C141 1.235 . S
C143 C145 1.400 . S
C143 N146 1.351 . S
C143 C148 1.501 . S
C144 C145 1.387 . S
C144 N147 1.341 . S
C145 C143 1.400 . S
C145 C144 1.387 . S
N146 Co137 2.022 . S
N146 C143 1.351 . S
N146 N147 1.365 . S
N147 C144 1.341 . S
N147 N146 1.365 . S
N147 H167 0.862 . S
C148 C143 1.501 . S
C148 H149 0.961 . S
C148 H150 0.961 . S
C148 H151 0.960 . S
H149 C148 0.961 . S
H150 C148 0.961 . S
H151 C148 0.960 . S
C152 N153 1.342 . S
C152 C156 1.401 . S
C152 C157 1.499 . S
N153 Co136 1.989 . S
N153 C152 1.342 . S
N153 N154 1.388 . S
N154 Co137 1.993 . S
N154 N153 1.388 . S
N154 C155 1.346 . S
C155 N154 1.346 . S
C155 C156 1.396 . S
C155 C165 1.510 . S
C156 C152 1.401 . S
C156 C155 1.396 . S
C157 C152 1.499 . S
C157 H158 0.959 . S
C157 H159 0.960 . S
C157 H160 0.961 . S
H158 C157 0.959 . S
H159 C157 0.960 . S
H160 C157 0.961 . S
O161 Co136 1.967 . S
O161 C169 1.258 . S
O162 Co137 1.941 . S
O162 C169 1.266 . S
H163 C165 0.959 . S
H164 C165 0.961 . S
C165 C155 1.510 . S
C165 H163 0.959 . S
C165 H164 0.961 . S
C165 H166 0.960 . S
H166 C165 0.960 . S
H167 N147 0.862 . S
O168 Co136 1.920 . S
O168 C141 1.289 . S
C169 O161 1.258 . S
C169 O162 1.266 . S
Co170 O173 1.970 . S
Co170 N187 1.989 . S
Co170 O195 1.967 . S
Co170 O202 1.920 . S
Co171 O174 1.966 . S
Co171 N180 2.022 . S
Co171 N188 1.993 . S
Co171 O196 1.941 . S
C172 O173 1.258 . S
C172 O174 1.263 . S
O173 Co170 1.970 . S
O173 C172 1.258 . S
O174 Co171 1.966 . S
O174 C172 1.263 . S
C175 O176 1.235 . S
C175 O202 1.289 . S
O176 C175 1.235 . S
C177 C179 1.400 . S
C177 N180 1.351 . S
C177 C182 1.501 . S
C178 C179 1.387 . S
C178 N181 1.341 . S
C179 C177 1.400 . S
C179 C178 1.387 . S
N180 Co171 2.022 . S
N180 C177 1.351 . S
N180 N181 1.365 . S
N181 C178 1.341 . S
N181 N180 1.365 . S
N181 H201 0.862 . S
C182 C177 1.501 . S
C182 H183 0.961 . S
C182 H184 0.961 . S
C182 H185 0.960 . S
H183 C182 0.961 . S
H184 C182 0.961 . S
H185 C182 0.960 . S
C186 N187 1.342 . S
C186 C190 1.401 . S
C186 C191 1.499 . S
N187 Co170 1.989 . S
N187 C186 1.342 . S
N187 N188 1.388 . S
N188 Co171 1.993 . S
N188 N187 1.388 . S
N188 C189 1.346 . S
C189 N188 1.346 . S
C189 C190 1.396 . S
C189 C199 1.510 . S
C190 C186 1.401 . S
C190 C189 1.396 . S
C191 C186 1.499 . S
C191 H192 0.959 . S
C191 H193 0.960 . S
C191 H194 0.961 . S
H192 C191 0.959 . S
H193 C191 0.960 . S
H194 C191 0.961 . S
O195 Co170 1.967 . S
O195 C203 1.258 . S
O196 Co171 1.941 . S
O196 C203 1.266 . S
H197 C199 0.959 . S
H198 C199 0.961 . S
C199 C189 1.510 . S
C199 H197 0.959 . S
C199 H198 0.961 . S
C199 H200 0.960 . S
H200 C199 0.960 . S
H201 N181 0.862 . S
O202 Co170 1.920 . S
O202 C175 1.289 . S
C203 O195 1.258 . S
C203 O196 1.266 . S
Co204 O207 1.970 . S
Co204 N221 1.989 . S
Co204 O229 1.967 . S
Co204 O236 1.920 . S
Co205 O208 1.966 . S
Co205 N214 2.022 . S
Co205 N222 1.993 . S
Co205 O230 1.941 . S
C206 O207 1.258 . S
C206 O208 1.263 . S
O207 Co204 1.970 . S
O207 C206 1.258 . S
O208 Co205 1.966 . S
O208 C206 1.263 . S
C209 O210 1.235 . S
C209 O236 1.289 . S
O210 C209 1.235 . S
C211 C213 1.400 . S
C211 N214 1.351 . S
C211 C216 1.501 . S
C212 C213 1.387 . S
C212 N215 1.341 . S
C213 C211 1.400 . S
C213 C212 1.387 . S
N214 Co205 2.022 . S
N214 C211 1.351 . S
N214 N215 1.365 . S
N215 C212 1.341 . S
N215 N214 1.365 . S
N215 H235 0.862 . S
C216 C211 1.501 . S
C216 H217 0.961 . S
C216 H218 0.961 . S
C216 H219 0.960 . S
H217 C216 0.961 . S
H218 C216 0.961 . S
H219 C216 0.960 . S
C220 N221 1.342 . S
C220 C224 1.401 . S
C220 C225 1.499 . S
N221 Co204 1.989 . S
N221 C220 1.342 . S
N221 N222 1.388 . S
N222 Co205 1.993 . S
N222 N221 1.388 . S
N222 C223 1.346 . S
C223 N222 1.346 . S
C223 C224 1.396 . S
C223 C233 1.510 . S
C224 C220 1.401 . S
C224 C223 1.396 . S
C225 C220 1.499 . S
C225 H226 0.959 . S
C225 H227 0.960 . S
C225 H228 0.961 . S
H226 C225 0.959 . S
H227 C225 0.960 . S
H228 C225 0.961 . S
O229 Co204 1.967 . S
O229 C237 1.258 . S
O230 Co205 1.941 . S
O230 C237 1.266 . S
H231 C233 0.959 . S
H232 C233 0.961 . S
C233 C223 1.510 . S
C233 H231 0.959 . S
C233 H232 0.961 . S
C233 H234 0.960 . S
H234 C233 0.960 . S
H235 N215 0.862 . S
O236 Co204 1.920 . S
O236 C209 1.289 . S
C237 O229 1.258 . S
C237 O230 1.266 . S
Co238 O241 1.970 . S
Co238 N255 1.989 . S
Co238 O263 1.967 . S
Co238 O270 1.920 . S
Co239 O242 1.966 . S
Co239 N248 2.022 . S
Co239 N256 1.993 . S
Co239 O264 1.941 . S
C240 O241 1.258 . S
C240 O242 1.263 . S
O241 Co238 1.970 . S
O241 C240 1.258 . S
O242 Co239 1.966 . S
O242 C240 1.263 . S
C243 O244 1.235 . S
C243 O270 1.289 . S
O244 C243 1.235 . S
C245 C247 1.400 . S
C245 N248 1.351 . S
C245 C250 1.501 . S
C246 C247 1.387 . S
C246 N249 1.341 . S
C247 C245 1.400 . S
C247 C246 1.387 . S
N248 Co239 2.022 . S
N248 C245 1.351 . S
N248 N249 1.365 . S
N249 C246 1.341 . S
N249 N248 1.365 . S
N249 H269 0.862 . S
C250 C245 1.501 . S
C250 H251 0.961 . S
C250 H252 0.961 . S
C250 H253 0.960 . S
H251 C250 0.961 . S
H252 C250 0.961 . S
H253 C250 0.960 . S
C254 N255 1.342 . S
C254 C258 1.401 . S
C254 C259 1.499 . S
N255 Co238 1.989 . S
N255 C254 1.342 . S
N255 N256 1.388 . S
N256 Co239 1.993 . S
N256 N255 1.388 . S
N256 C257 1.346 . S
C257 N256 1.346 . S
C257 C258 1.396 . S
C257 C267 1.510 . S
C258 C254 1.401 . S
C258 C257 1.396 . S
C259 C254 1.499 . S
C259 H260 0.959 . S
C259 H261 0.960 . S
C259 H262 0.961 . S
H260 C259 0.959 . S
H261 C259 0.960 . S
H262 C259 0.961 . S
O263 Co238 1.967 . S
O263 C271 1.258 . S
O264 Co239 1.941 . S
O264 C271 1.266 . S
H265 C267 0.959 . S
H266 C267 0.961 . S
C267 C257 1.510 . S
C267 H265 0.959 . S
C267 H266 0.961 . S
C267 H268 0.960 . S
H268 C267 0.960 . S
H269 N249 0.862 . S
O270 Co238 1.920 . S
O270 C243 1.289 . S
C271 O263 1.258 . S
C271 O264 1.266 . S
Co272 O275 1.970 . S
Co272 N289 1.989 . S
Co272 O297 1.967 . S
Co272 O304 1.920 . S
Co273 O276 1.966 . S
Co273 N282 2.022 . S
Co273 N290 1.993 . S
Co273 O298 1.941 . S
C274 O275 1.258 . S
C274 O276 1.263 . S
O275 Co272 1.970 . S
O275 C274 1.258 . S
O276 Co273 1.966 . S
O276 C274 1.263 . S
C277 O278 1.235 . S
C277 O304 1.289 . S
O278 C277 1.235 . S
C279 C281 1.400 . S
C279 N282 1.351 . S
C279 C284 1.501 . S
C280 C281 1.387 . S
C280 N283 1.341 . S
C281 C279 1.400 . S
C281 C280 1.387 . S
N282 Co273 2.022 . S
N282 C279 1.351 . S
N282 N283 1.365 . S
N283 C280 1.341 . S
N283 N282 1.365 . S
N283 H303 0.862 . S
C284 C279 1.501 . S
C284 H285 0.961 . S
C284 H286 0.961 . S
C284 H287 0.960 . S
H285 C284 0.961 . S
H286 C284 0.961 . S
H287 C284 0.960 . S
C288 N289 1.342 . S
C288 C292 1.401 . S
C288 C293 1.499 . S
N289 Co272 1.989 . S
N289 C288 1.342 . S
N289 N290 1.388 . S
N290 Co273 1.993 . S
N290 N289 1.388 . S
N290 C291 1.346 . S
C291 N290 1.346 . S
C291 C292 1.396 . S
C291 C301 1.510 . S
C292 C288 1.401 . S
C292 C291 1.396 . S
C293 C288 1.499 . S
C293 H294 0.959 . S
C293 H295 0.960 . S
C293 H296 0.961 . S
H294 C293 0.959 . S
H295 C293 0.960 . S
H296 C293 0.961 . S
O297 Co272 1.967 . S
O297 C305 1.258 . S
O298 Co273 1.941 . S
O298 C305 1.266 . S
H299 C301 0.959 . S
H300 C301 0.961 . S
C301 C291 1.510 . S
C301 H299 0.959 . S
C301 H300 0.961 . S
C301 H302 0.960 . S
H302 C301 0.960 . S
H303 N283 0.862 . S
O304 Co272 1.920 . S
O304 C277 1.289 . S
C305 O297 1.258 . S
C305 O298 1.266 . S
Co306 O309 1.970 . S
Co306 N323 1.989 . S
Co306 O331 1.967 . S
Co306 O338 1.920 . S
Co307 O310 1.966 . S
Co307 N316 2.022 . S
Co307 N324 1.993 . S
Co307 O332 1.941 . S
C308 O309 1.258 . S
C308 O310 1.263 . S
O309 Co306 1.970 . S
O309 C308 1.258 . S
O310 Co307 1.966 . S
O310 C308 1.263 . S
C311 O312 1.235 . S
C311 O338 1.289 . S
O312 C311 1.235 . S
C313 C315 1.400 . S
C313 N316 1.351 . S
C313 C318 1.501 . S
C314 C315 1.387 . S
C314 N317 1.341 . S
C315 C313 1.400 . S
C315 C314 1.387 . S
N316 Co307 2.022 . S
N316 C313 1.351 . S
N316 N317 1.365 . S
N317 C314 1.341 . S
N317 N316 1.365 . S
N317 H337 0.862 . S
C318 C313 1.501 . S
C318 H319 0.961 . S
C318 H320 0.961 . S
C318 H321 0.960 . S
H319 C318 0.961 . S
H320 C318 0.961 . S
H321 C318 0.960 . S
C322 N323 1.342 . S
C322 C326 1.401 . S
C322 C327 1.499 . S
N323 Co306 1.989 . S
N323 C322 1.342 . S
N323 N324 1.388 . S
N324 Co307 1.993 . S
N324 N323 1.388 . S
N324 C325 1.346 . S
C325 N324 1.346 . S
C325 C326 1.396 . S
C325 C335 1.510 . S
C326 C322 1.401 . S
C326 C325 1.396 . S
C327 C322 1.499 . S
C327 H328 0.959 . S
C327 H329 0.960 . S
C327 H330 0.961 . S
H328 C327 0.959 . S
H329 C327 0.960 . S
H330 C327 0.961 . S
O331 Co306 1.967 . S
O331 C339 1.258 . S
O332 Co307 1.941 . S
O332 C339 1.266 . S
H333 C335 0.959 . S
H334 C335 0.961 . S
C335 C325 1.510 . S
C335 H333 0.959 . S
C335 H334 0.961 . S
C335 H336 0.960 . S
H336 C335 0.960 . S
H337 N317 0.862 . S
O338 Co306 1.920 . S
O338 C311 1.289 . S
C339 O331 1.258 . S
C339 O332 1.266 . S
Co340 O343 1.970 . S
Co340 N357 1.989 . S
Co340 O365 1.967 . S
Co340 O372 1.920 . S
Co341 O344 1.966 . S
Co341 N350 2.022 . S
Co341 N358 1.993 . S
Co341 O366 1.941 . S
C342 O343 1.258 . S
C342 O344 1.263 . S
O343 Co340 1.970 . S
O343 C342 1.258 . S
O344 Co341 1.966 . S
O344 C342 1.263 . S
C345 O346 1.235 . S
C345 O372 1.289 . S
O346 C345 1.235 . S
C347 C349 1.400 . S
C347 N350 1.351 . S
C347 C352 1.501 . S
C348 C349 1.387 . S
C348 N351 1.341 . S
C349 C347 1.400 . S
C349 C348 1.387 . S
N350 Co341 2.022 . S
N350 C347 1.351 . S
N350 N351 1.365 . S
N351 C348 1.341 . S
N351 N350 1.365 . S
N351 H371 0.862 . S
C352 C347 1.501 . S
C352 H353 0.961 . S
C352 H354 0.961 . S
C352 H355 0.960 . S
H353 C352 0.961 . S
H354 C352 0.961 . S
H355 C352 0.960 . S
C356 N357 1.342 . S
C356 C360 1.401 . S
C356 C361 1.499 . S
N357 Co340 1.989 . S
N357 C356 1.342 . S
N357 N358 1.388 . S
N358 Co341 1.993 . S
N358 N357 1.388 . S
N358 C359 1.346 . S
C359 N358 1.346 . S
C359 C360 1.396 . S
C359 C369 1.510 . S
C360 C356 1.401 . S
C360 C359 1.396 . S
C361 C356 1.499 . S
C361 H362 0.959 . S
C361 H363 0.960 . S
C361 H364 0.961 . S
H362 C361 0.959 . S
H363 C361 0.960 . S
H364 C361 0.961 . S
O365 Co340 1.967 . S
O365 C373 1.258 . S
O366 Co341 1.941 . S
O366 C373 1.266 . S
H367 C369 0.959 . S
H368 C369 0.961 . S
C369 C359 1.510 . S
C369 H367 0.959 . S
C369 H368 0.961 . S
C369 H370 0.960 . S
H370 C369 0.960 . S
H371 N351 0.862 . S
O372 Co340 1.920 . S
O372 C345 1.289 . S
C373 O365 1.258 . S
C373 O366 1.266 . S
Co374 O377 1.970 . S
Co374 N391 1.989 . S
Co374 O399 1.967 . S
Co374 O406 1.920 . S
Co375 O378 1.966 . S
Co375 N384 2.022 . S
Co375 N392 1.993 . S
Co375 O400 1.941 . S
C376 O377 1.258 . S
C376 O378 1.263 . S
O377 Co374 1.970 . S
O377 C376 1.258 . S
O378 Co375 1.966 . S
O378 C376 1.263 . S
C379 O380 1.235 . S
C379 O406 1.289 . S
O380 C379 1.235 . S
C381 C383 1.400 . S
C381 N384 1.351 . S
C381 C386 1.501 . S
C382 C383 1.387 . S
C382 N385 1.341 . S
C383 C381 1.400 . S
C383 C382 1.387 . S
N384 Co375 2.022 . S
N384 C381 1.351 . S
N384 N385 1.365 . S
N385 C382 1.341 . S
N385 N384 1.365 . S
N385 H405 0.862 . S
C386 C381 1.501 . S
C386 H387 0.961 . S
C386 H388 0.961 . S
C386 H389 0.960 . S
H387 C386 0.961 . S
H388 C386 0.961 . S
H389 C386 0.960 . S
C390 N391 1.342 . S
C390 C394 1.401 . S
C390 C395 1.499 . S
N391 Co374 1.989 . S
N391 C390 1.342 . S
N391 N392 1.388 . S
N392 Co375 1.993 . S
N392 N391 1.388 . S
N392 C393 1.346 . S
C393 N392 1.346 . S
C393 C394 1.396 . S
C393 C403 1.510 . S
C394 C390 1.401 . S
C394 C393 1.396 . S
C395 C390 1.499 . S
C395 H396 0.959 . S
C395 H397 0.960 . S
C395 H398 0.961 . S
H396 C395 0.959 . S
H397 C395 0.960 . S
H398 C395 0.961 . S
O399 Co374 1.967 . S
O399 C407 1.258 . S
O400 Co375 1.941 . S
O400 C407 1.266 . S
H401 C403 0.959 . S
H402 C403 0.961 . S
C403 C393 1.510 . S
C403 H401 0.959 . S
C403 H402 0.961 . S
C403 H404 0.960 . S
H404 C403 0.960 . S
H405 N385 0.862 . S
O406 Co374 1.920 . S
O406 C379 1.289 . S
C407 O399 1.258 . S
C407 O400 1.266 . S
H408 C416 0.929 . S
H409 C418 0.930 . S
H410 C420 0.930 . S
H411 C423 0.929 . S
H412 C426 0.930 . S
H413 C428 0.960 . S
H414 C428 0.960 . S
H415 C428 0.960 . S
C416 H408 0.929 . S
C416 C417 1.377 . S
C416 C418 1.384 . S
C417 C416 1.377 . S
C417 C423 1.390 . S
C418 H409 0.930 . S
C418 C416 1.384 . S
C418 C419 1.372 . S
C419 C418 1.372 . S
C419 C420 1.400 . S
C419 C424 1.490 . S
C420 H410 0.930 . S
C420 C419 1.400 . S
C420 C423 1.386 . S
H421 C437 0.930 . S
H422 C438 0.931 . S
C423 H411 0.929 . S
C423 C417 1.390 . S
C423 C420 1.386 . S
C424 C419 1.490 . S
C424 C426 1.395 . S
C424 C427 1.403 . S
H425 C431 0.930 . S
C426 H412 0.930 . S
C426 C424 1.395 . S
C426 C429 1.403 . S
C427 C424 1.403 . S
C427 C428 1.524 . S
C427 C431 1.400 . S
C428 H413 0.960 . S
C428 H414 0.960 . S
C428 H415 0.960 . S
C428 C427 1.524 . S
C429 C426 1.403 . S
C429 C430 1.392 . S
C429 C433 1.495 . S
C430 C429 1.392 . S
C430 C431 1.385 . S
C430 C432 1.478 . S
C431 H425 0.930 . S
C431 C427 1.400 . S
C431 C430 1.385 . S
C432 C430 1.478 . S
C432 C434 1.381 . S
C432 C438 1.383 . S
C433 C429 1.495 . S
C433 H439 0.959 . S
C433 H440 0.961 . S
C433 H441 0.960 . S
C434 C432 1.381 . S
C434 C435 1.394 . S
C434 H442 0.930 . S
C435 C434 1.394 . S
C435 C436 1.383 . S
C435 H443 0.929 . S
C436 C435 1.383 . S
C436 C437 1.377 . S
C437 H421 0.930 . S
C437 C436 1.377 . S
C437 C438 1.379 . S
C438 H422 0.931 . S
C438 C432 1.383 . S
C438 C437 1.379 . S
H439 C433 0.959 . S
H440 C433 0.961 . S
H441 C433 0.960 . S
H442 C434 0.930 . S
H443 C435 0.929 . S
H444 C452 0.929 . S
H445 C454 0.930 . S
H446 C456 0.930 . S
H447 C459 0.929 . S
H448 C462 0.930 . S
H449 C464 0.958 1_655 S
H450 C464 0.960 . S
H451 C464 0.960 . S
C452 H444 0.929 . S
C452 C453 1.377 . S
C452 C454 1.384 . S
C453 C452 1.377 . S
C453 C459 1.390 . S
C454 H445 0.930 . S
C454 C452 1.384 . S
C454 C455 1.372 . S
C455 C454 1.372 . S
C455 C456 1.400 . S
C455 C460 1.490 . S
C456 H446 0.930 . S
C456 C455 1.400 . S
C456 C459 1.386 . S
H457 C473 0.930 . S
H458 C474 0.931 . S
C459 H447 0.929 . S
C459 C453 1.390 . S
C459 C456 1.386 . S
C460 C455 1.490 . S
C460 C462 1.395 . S
C460 C463 1.403 . S
H461 C467 0.930 . S
C462 H448 0.930 . S
C462 C460 1.395 . S
C462 C465 1.403 1_455 S
C463 C460 1.403 . S
C463 C464 1.524 . S
C463 C467 1.400 1_455 S
C464 H449 0.958 1_455 S
C464 H450 0.960 . S
C464 H451 0.960 . S
C464 C463 1.524 . S
C465 C462 1.403 1_655 S
C465 C466 1.392 . S
C465 C469 1.495 . S
C466 C465 1.392 . S
C466 C467 1.385 . S
C466 C468 1.478 . S
C467 H461 0.930 . S
C467 C463 1.400 1_655 S
C467 C466 1.385 . S
C468 C466 1.478 . S
C468 C470 1.381 . S
C468 C474 1.383 . S
C469 C465 1.495 . S
C469 H475 0.959 1_655 S
C469 H476 0.961 . S
C469 H477 0.960 . S
C470 C468 1.381 . S
C470 C471 1.394 . S
C470 H478 0.930 . S
C471 C470 1.394 . S
C471 C472 1.383 . S
C471 H479 0.929 . S
C472 C471 1.383 . S
C472 C473 1.377 . S
C473 H457 0.930 . S
C473 C472 1.377 . S
C473 C474 1.379 . S
C474 H458 0.931 . S
C474 C468 1.383 . S
C474 C473 1.379 . S
H475 C469 0.959 1_455 S
H476 C469 0.961 . S
H477 C469 0.960 . S
H478 C470 0.930 . S
H479 C471 0.929 . S
H480 C488 0.929 . S
H481 C490 0.930 . S
H482 C492 0.930 . S
H483 C495 0.929 . S
H484 C498 0.930 . S
H485 C500 0.960 . S
H486 C500 0.960 . S
H487 C500 0.960 . S
C488 H480 0.929 . S
C488 C489 1.377 . S
C488 C490 1.384 . S
C489 C488 1.377 . S
C489 C495 1.390 . S
C490 H481 0.930 . S
C490 C488 1.384 . S
C490 C491 1.372 . S
C491 C490 1.372 . S
C491 C492 1.400 . S
C491 C496 1.490 . S
C492 H482 0.930 . S
C492 C491 1.400 . S
C492 C495 1.386 . S
H493 C509 0.930 . S
H494 C510 0.931 . S
C495 H483 0.929 . S
C495 C489 1.390 . S
C495 C492 1.386 . S
C496 C491 1.490 . S
C496 C498 1.395 1_545 S
C496 C499 1.403 . S
H497 C503 0.930 . S
C498 H484 0.930 . S
C498 C496 1.395 1_565 S
C498 C501 1.403 . S
C499 C496 1.403 . S
C499 C500 1.524 . S
C499 C503 1.400 . S
C500 H485 0.960 . S
C500 H486 0.960 . S
C500 H487 0.960 . S
C500 C499 1.524 . S
C501 C498 1.403 . S
C501 C502 1.392 . S
C501 C505 1.495 . S
C502 C501 1.392 . S
C502 C503 1.385 1_565 S
C502 C504 1.478 . S
C503 H497 0.930 . S
C503 C499 1.400 . S
C503 C502 1.385 1_545 S
C504 C502 1.478 . S
C504 C506 1.381 . S
C504 C510 1.383 . S
C505 C501 1.495 . S
C505 H511 0.959 . S
C505 H512 0.961 . S
C505 H513 0.960 . S
C506 C504 1.381 . S
C506 C507 1.394 . S
C506 H514 0.930 . S
C507 C506 1.394 . S
C507 C508 1.383 . S
C507 H515 0.929 . S
C508 C507 1.383 . S
C508 C509 1.377 . S
C509 H493 0.930 . S
C509 C508 1.377 . S
C509 C510 1.379 . S
C510 H494 0.931 . S
C510 C504 1.383 . S
C510 C509 1.379 . S
H511 C505 0.959 . S
H512 C505 0.961 . S
H513 C505 0.960 . S
H514 C506 0.930 . S
H515 C507 0.929 . S
H516 C524 0.929 . S
H517 C526 0.930 . S
H518 C528 0.930 . S
H519 C531 0.929 . S
H520 C534 0.930 . S
H521 C536 0.960 . S
H522 C536 0.960 . S
H523 C536 0.960 . S
C524 H516 0.929 . S
C524 C525 1.377 . S
C524 C526 1.384 . S
C525 C524 1.377 . S
C525 C531 1.390 . S
C526 H517 0.930 . S
C526 C524 1.384 . S
C526 C527 1.372 . S
C527 C526 1.372 . S
C527 C528 1.400 . S
C527 C532 1.490 . S
C528 H518 0.930 . S
C528 C527 1.400 . S
C528 C531 1.386 . S
H529 C545 0.930 . S
H530 C546 0.931 . S
C531 H519 0.929 . S
C531 C525 1.390 . S
C531 C528 1.386 . S
C532 C527 1.490 . S
C532 C534 1.395 . S
C532 C535 1.403 . S
H533 C539 0.930 . S
C534 H520 0.930 . S
C534 C532 1.395 . S
C534 C537 1.403 . S
C535 C532 1.403 . S
C535 C536 1.524 . S
C535 C539 1.400 . S
C536 H521 0.960 . S
C536 H522 0.960 . S
C536 H523 0.960 . S
C536 C535 1.524 . S
C537 C534 1.403 . S
C537 C538 1.392 . S
C537 C541 1.495 . S
C538 C537 1.392 . S
C538 C539 1.385 . S
C538 C540 1.478 . S
C539 H533 0.930 . S
C539 C535 1.400 . S
C539 C538 1.385 . S
C540 C538 1.478 . S
C540 C542 1.381 . S
C540 C546 1.383 . S
C541 C537 1.495 . S
C541 H547 0.959 . S
C541 H548 0.961 . S
C541 H549 0.960 . S
C542 C540 1.381 . S
C542 C543 1.394 . S
C542 H550 0.930 . S
C543 C542 1.394 . S
C543 C544 1.383 . S
C543 H551 0.929 . S
C544 C543 1.383 . S
C544 C545 1.377 . S
C545 H529 0.930 . S
C545 C544 1.377 . S
C545 C546 1.379 . S
C546 H530 0.931 . S
C546 C540 1.383 . S
C546 C545 1.379 . S
H547 C541 0.959 . S
H548 C541 0.961 . S
H549 C541 0.960 . S
H550 C542 0.930 . S
H551 C543 0.929 . S
H552 C560 0.929 . S
H553 C562 0.930 . S
H554 C564 0.930 . S
H555 C567 0.929 . S
H556 C570 0.930 . S
H557 C572 0.960 . S
H558 C572 0.960 . S
H559 C572 0.960 . S
C560 H552 0.929 . S
C560 C561 1.377 . S
C560 C562 1.384 . S
C561 C560 1.377 . S
C561 C567 1.390 . S
C562 H553 0.930 . S
C562 C560 1.384 . S
C562 C563 1.372 . S
C563 C562 1.372 . S
C563 C564 1.400 . S
C563 C568 1.490 . S
C564 H554 0.930 . S
C564 C563 1.400 . S
C564 C567 1.386 . S
H565 C581 0.930 . S
H566 C582 0.931 . S
C567 H555 0.929 . S
C567 C561 1.390 . S
C567 C564 1.386 . S
C568 C563 1.490 . S
C568 C570 1.395 . S
C568 C571 1.403 1_655 S
H569 C575 0.930 . S
C570 H556 0.930 . S
C570 C568 1.395 . S
C570 C573 1.403 . S
C571 C568 1.403 1_455 S
C571 C572 1.524 . S
C571 C575 1.400 . S
C572 H557 0.960 . S
C572 H558 0.960 . S
C572 H559 0.960 . S
C572 C571 1.524 . S
C573 C570 1.403 . S
C573 C574 1.392 1_655 S
C573 C577 1.495 . S
C574 C573 1.392 1_455 S
C574 C575 1.385 . S
C574 C576 1.478 . S
C575 H569 0.930 . S
C575 C571 1.400 . S
C575 C574 1.385 . S
C576 C574 1.478 . S
C576 C578 1.381 . S
C576 C582 1.383 . S
C577 C573 1.495 . S
C577 H583 0.959 . S
C577 H584 0.961 . S
C577 H585 0.960 . S
C578 C576 1.381 . S
C578 C579 1.394 . S
C578 H586 0.930 . S
C579 C578 1.394 . S
C579 C580 1.383 . S
C579 H587 0.929 . S
C580 C579 1.383 . S
C580 C581 1.377 . S
C581 H565 0.930 . S
C581 C580 1.377 . S
C581 C582 1.379 . S
C582 H566 0.931 . S
C582 C576 1.383 . S
C582 C581 1.379 . S
H583 C577 0.959 . S
H584 C577 0.961 . S
H585 C577 0.960 . S
H586 C578 0.930 . S
H587 C579 0.929 . S
H588 C596 0.929 . S
H589 C598 0.930 . S
H590 C600 0.930 . S
H591 C603 0.929 . S
H592 C606 0.930 . S
H593 C608 0.960 . S
H594 C608 0.960 . S
H595 C608 0.960 . S
C596 H588 0.929 . S
C596 C597 1.377 . S
C596 C598 1.384 . S
C597 C596 1.377 . S
C597 C603 1.390 . S
C598 H589 0.930 . S
C598 C596 1.384 . S
C598 C599 1.372 . S
C599 C598 1.372 . S
C599 C600 1.400 . S
C599 C604 1.490 . S
C600 H590 0.930 . S
C600 C599 1.400 . S
C600 C603 1.386 . S
H601 C617 0.930 . S
H602 C618 0.931 . S
C603 H591 0.929 . S
C603 C597 1.390 . S
C603 C600 1.386 . S
C604 C599 1.490 . S
C604 C606 1.395 . S
C604 C607 1.403 1_565 S
H605 C611 0.930 . S
C606 H592 0.930 . S
C606 C604 1.395 . S
C606 C609 1.403 . S
C607 C604 1.403 1_545 S
C607 C608 1.524 . S
C607 C611 1.400 . S
C608 H593 0.960 . S
C608 H594 0.960 . S
C608 H595 0.960 . S
C608 C607 1.524 . S
C609 C606 1.403 . S
C609 C610 1.392 1_565 S
C609 C613 1.495 . S
C610 C609 1.392 1_545 S
C610 C611 1.385 . S
C610 C612 1.478 . S
C611 H605 0.930 . S
C611 C607 1.400 . S
C611 C610 1.385 . S
C612 C610 1.478 . S
C612 C614 1.381 . S
C612 C618 1.383 . S
C613 C609 1.495 . S
C613 H619 0.959 . S
C613 H620 0.961 . S
C613 H621 0.960 . S
C614 C612 1.381 . S
C614 C615 1.394 . S
C614 H622 0.930 . S
C615 C614 1.394 . S
C615 C616 1.383 . S
C615 H623 0.929 . S
C616 C615 1.383 . S
C616 C617 1.377 . S
C617 H601 0.930 . S
C617 C616 1.377 . S
C617 C618 1.379 . S
C618 H602 0.931 . S
C618 C612 1.383 . S
C618 C617 1.379 . S
H619 C613 0.959 . S
H620 C613 0.961 . S
H621 C613 0.960 . S
H622 C614 0.930 . S
H623 C615 0.929 . S
H624 C632 0.929 . S
H625 C634 0.930 . S
H626 C636 0.930 . S
H627 C639 0.929 . S
H628 C642 0.930 . S
H629 C644 0.960 . S
H630 C644 0.960 . S
H631 C644 0.960 . S
C632 H624 0.929 . S
C632 C633 1.377 . S
C632 C634 1.384 . S
C633 C632 1.377 . S
C633 C639 1.390 . S
C634 H625 0.930 . S
C634 C632 1.384 . S
C634 C635 1.372 . S
C635 C634 1.372 . S
C635 C636 1.400 . S
C635 C640 1.490 . S
C636 H626 0.930 . S
C636 C635 1.400 . S
C636 C639 1.386 . S
H637 C653 0.930 . S
H638 C654 0.931 . S
C639 H627 0.929 . S
C639 C633 1.390 . S
C639 C636 1.386 . S
C640 C635 1.490 . S
C640 C642 1.395 1_655 S
C640 C643 1.403 . S
H641 C647 0.930 . S
C642 H628 0.930 . S
C642 C640 1.395 1_455 S
C642 C645 1.403 . S
C643 C640 1.403 . S
C643 C644 1.524 . S
C643 C647 1.400 . S
C644 H629 0.960 . S
C644 H630 0.960 . S
C644 H631 0.960 . S
C644 C643 1.524 . S
C645 C642 1.403 . S
C645 C646 1.392 . S
C645 C649 1.495 . S
C646 C645 1.392 . S
C646 C647 1.385 1_455 S
C646 C648 1.478 . S
C647 H641 0.930 . S
C647 C643 1.400 . S
C647 C646 1.385 1_655 S
C648 C646 1.478 . S
C648 C650 1.381 . S
C648 C654 1.383 . S
C649 C645 1.495 . S
C649 H655 0.959 . S
C649 H656 0.961 . S
C649 H657 0.960 . S
C650 C648 1.381 . S
C650 C651 1.394 . S
C650 H658 0.930 . S
C651 C650 1.394 . S
C651 C652 1.383 . S
C651 H659 0.929 . S
C652 C651 1.383 . S
C652 C653 1.377 . S
C653 H637 0.930 . S
C653 C652 1.377 . S
C653 C654 1.379 . S
C654 H638 0.931 . S
C654 C648 1.383 . S
C654 C653 1.379 . S
H655 C649 0.959 . S
H656 C649 0.961 . S
H657 C649 0.960 . S
H658 C650 0.930 . S
H659 C651 0.929 . S
H660 C668 0.929 . S
H661 C670 0.930 . S
H662 C672 0.930 . S
H663 C675 0.929 . S
H664 C678 0.930 . S
H665 C680 0.960 . S
H666 C680 0.960 . S
H667 C680 0.960 1_545 S
C668 H660 0.929 . S
C668 C669 1.377 . S
C668 C670 1.384 . S
C669 C668 1.377 . S
C669 C675 1.390 . S
C670 H661 0.930 . S
C670 C668 1.384 . S
C670 C671 1.372 . S
C671 C670 1.372 . S
C671 C672 1.400 . S
C671 C676 1.490 . S
C672 H662 0.930 . S
C672 C671 1.400 . S
C672 C675 1.386 . S
H673 C689 0.930 . S
H674 C690 0.931 . S
C675 H663 0.929 . S
C675 C669 1.390 . S
C675 C672 1.386 . S
C676 C671 1.490 . S
C676 C678 1.395 . S
C676 C679 1.403 1_545 S
H677 C683 0.930 . S
C678 H664 0.930 . S
C678 C676 1.395 . S
C678 C681 1.403 . S
C679 C676 1.403 1_565 S
C679 C680 1.524 . S
C679 C683 1.400 . S
C680 H665 0.960 . S
C680 H666 0.960 . S
C680 H667 0.960 1_565 S
C680 C679 1.524 . S
C681 C678 1.403 . S
C681 C682 1.392 1_545 S
C681 C685 1.495 . S
C682 C681 1.392 1_565 S
C682 C683 1.385 . S
C682 C684 1.478 . S
C683 H677 0.930 . S
C683 C679 1.400 . S
C683 C682 1.385 . S
C684 C682 1.478 . S
C684 C686 1.381 . S
C684 C690 1.383 . S
C685 C681 1.495 . S
C685 H691 0.959 . S
C685 H692 0.961 . S
C685 H693 0.960 1_545 S
C686 C684 1.381 . S
C686 C687 1.394 . S
C686 H694 0.930 . S
C687 C686 1.394 . S
C687 C688 1.383 . S
C687 H695 0.929 . S
C688 C687 1.383 . S
C688 C689 1.377 . S
C689 H673 0.930 . S
C689 C688 1.377 . S
C689 C690 1.379 . S
C690 H674 0.931 . S
C690 C684 1.383 . S
C690 C689 1.379 . S
H691 C685 0.959 . S
H692 C685 0.961 . S
H693 C685 0.960 1_565 S
H694 C686 0.930 . S
H695 C687 0.929 . S
H696 C704 0.929 . S
H697 C706 0.930 . S
H698 C708 0.930 . S
H699 C711 0.929 . S
H700 C714 0.930 . S
H701 C716 0.960 . S
H702 C716 0.960 . S
H703 C716 0.960 . S
C704 H696 0.929 . S
C704 C705 1.377 . S
C704 C706 1.384 . S
C705 C704 1.377 . S
C705 C711 1.390 . S
C706 H697 0.930 . S
C706 C704 1.384 . S
C706 C707 1.372 . S
C707 C706 1.372 . S
C707 C708 1.400 . S
C707 C712 1.490 . S
C708 H698 0.930 . S
C708 C707 1.400 . S
C708 C711 1.386 . S
H709 C725 0.930 . S
H710 C726 0.931 . S
C711 H699 0.929 . S
C711 C705 1.390 . S
C711 C708 1.386 . S
C712 C707 1.490 . S
C712 C714 1.395 . S
C712 C715 1.403 . S
H713 C719 0.930 . S
C714 H700 0.930 . S
C714 C712 1.395 . S
C714 C717 1.403 . S
C715 C712 1.403 . S
C715 C716 1.524 . S
C715 C719 1.400 . S
C716 H701 0.960 . S
C716 H702 0.960 . S
C716 H703 0.960 . S
C716 C715 1.524 . S
C717 C714 1.403 . S
C717 C718 1.392 . S
C717 C721 1.495 . S
C718 C717 1.392 . S
C718 C719 1.385 . S
C718 C720 1.478 . S
C719 H713 0.930 . S
C719 C715 1.400 . S
C719 C718 1.385 . S
C720 C718 1.478 . S
C720 C722 1.381 . S
C720 C726 1.383 . S
C721 C717 1.495 . S
C721 H727 0.959 . S
C721 H728 0.961 . S
C721 H729 0.960 . S
C722 C720 1.381 . S
C722 C723 1.394 . S
C722 H730 0.930 . S
C723 C722 1.394 . S
C723 C724 1.383 . S
C723 H731 0.929 . S
C724 C723 1.383 . S
C724 C725 1.377 . S
C725 H709 0.930 . S
C725 C724 1.377 . S
C725 C726 1.379 . S
C726 H710 0.931 . S
C726 C720 1.383 . S
C726 C725 1.379 . S
H727 C721 0.959 . S
H728 C721 0.961 . S
H729 C721 0.960 . S
H730 C722 0.930 . S
H731 C723 0.929 . S
H732 C740 0.929 . S
H733 C742 0.930 . S
H734 C744 0.930 . S
H735 C747 0.929 . S
H736 C750 0.930 . S
H737 C752 0.960 . S
H738 C752 0.960 . S
H739 C752 0.960 . S
C740 H732 0.929 . S
C740 C741 1.377 . S
C740 C742 1.384 . S
C741 C740 1.377 . S
C741 C747 1.390 . S
C742 H733 0.930 . S
C742 C740 1.384 . S
C742 C743 1.372 . S
C743 C742 1.372 . S
C743 C744 1.400 . S
C743 C748 1.490 . S
C744 H734 0.930 . S
C744 C743 1.400 . S
C744 C747 1.386 . S
H745 C761 0.930 . S
H746 C762 0.931 . S
C747 H735 0.929 . S
C747 C741 1.390 . S
C747 C744 1.386 . S
C748 C743 1.490 . S
C748 C750 1.395 1_565 S
C748 C751 1.403 . S
H749 C755 0.930 . S
C750 H736 0.930 . S
C750 C748 1.395 1_545 S
C750 C753 1.403 . S
C751 C748 1.403 . S
C751 C752 1.524 . S
C751 C755 1.400 . S
C752 H737 0.960 . S
C752 H738 0.960 . S
C752 H739 0.960 . S
C752 C751 1.524 . S
C753 C750 1.403 . S
C753 C754 1.392 . S
C753 C757 1.495 . S
C754 C753 1.392 . S
C754 C755 1.385 1_545 S
C754 C756 1.478 . S
C755 H749 0.930 . S
C755 C751 1.400 . S
C755 C754 1.385 1_565 S
C756 C754 1.478 . S
C756 C758 1.381 . S
C756 C762 1.383 . S
C757 C753 1.495 . S
C757 H763 0.959 . S
C757 H764 0.961 . S
C757 H765 0.960 . S
C758 C756 1.381 . S
C758 C759 1.394 . S
C758 H766 0.930 . S
C759 C758 1.394 . S
C759 C760 1.383 . S
C759 H767 0.929 . S
C760 C759 1.383 . S
C760 C761 1.377 . S
C761 H745 0.930 . S
C761 C760 1.377 . S
C761 C762 1.379 . S
C762 H746 0.931 . S
C762 C756 1.383 . S
C762 C761 1.379 . S
H763 C757 0.959 . S
H764 C757 0.961 . S
H765 C757 0.960 . S
H766 C758 0.930 . S
H767 C759 0.929 . S
H768 C776 0.929 . S
H769 C778 0.930 . S
H770 C780 0.930 . S
H771 C783 0.929 . S
H772 C786 0.930 . S
H773 C788 0.960 . S
H774 C788 0.960 . S
H775 C788 0.960 . S
C776 H768 0.929 . S
C776 C777 1.377 . S
C776 C778 1.384 . S
C777 C776 1.377 . S
C777 C783 1.390 . S
C778 H769 0.930 . S
C778 C776 1.384 . S
C778 C779 1.372 . S
C779 C778 1.372 . S
C779 C780 1.400 . S
C779 C784 1.490 . S
C780 H770 0.930 . S
C780 C779 1.400 . S
C780 C783 1.386 . S
H781 C797 0.930 . S
H782 C798 0.931 . S
C783 H771 0.929 . S
C783 C777 1.390 . S
C783 C780 1.386 . S
C784 C779 1.490 . S
C784 C786 1.395 . S
C784 C787 1.403 . S
H785 C791 0.930 . S
C786 H772 0.930 . S
C786 C784 1.395 . S
C786 C789 1.403 . S
C787 C784 1.403 . S
C787 C788 1.524 . S
C787 C791 1.400 . S
C788 H773 0.960 . S
C788 H774 0.960 . S
C788 H775 0.960 . S
C788 C787 1.524 . S
C789 C786 1.403 . S
C789 C790 1.392 . S
C789 C793 1.495 . S
C790 C789 1.392 . S
C790 C791 1.385 . S
C790 C792 1.478 . S
C791 H785 0.930 . S
C791 C787 1.400 . S
C791 C790 1.385 . S
C792 C790 1.478 . S
C792 C794 1.381 . S
C792 C798 1.383 . S
C793 C789 1.495 . S
C793 H799 0.959 . S
C793 H800 0.961 . S
C793 H801 0.960 . S
C794 C792 1.381 . S
C794 C795 1.394 . S
C794 H802 0.930 . S
C795 C794 1.394 . S
C795 C796 1.383 . S
C795 H803 0.929 . S
C796 C795 1.383 . S
C796 C797 1.377 . S
C797 H781 0.930 . S
C797 C796 1.377 . S
C797 C798 1.379 . S
C798 H782 0.931 . S
C798 C792 1.383 . S
C798 C797 1.379 . S
H799 C793 0.959 . S
H800 C793 0.961 . S
H801 C793 0.960 . S
H802 C794 0.930 . S
H803 C795 0.929 . S
H804 C812 0.929 . S
H805 C814 0.930 . S
H806 C816 0.930 . S
H807 C819 0.929 . S
H808 C822 0.930 . S
H809 C824 0.960 . S
H810 C824 0.960 . S
H811 C824 0.960 . S
C812 H804 0.929 . S
C812 C813 1.377 . S
C812 C814 1.384 . S
C813 C812 1.377 . S
C813 C819 1.390 . S
C814 H805 0.930 . S
C814 C812 1.384 . S
C814 C815 1.372 . S
C815 C814 1.372 . S
C815 C816 1.400 . S
C815 C820 1.490 . S
C816 H806 0.930 . S
C816 C815 1.400 . S
C816 C819 1.386 . S
H817 C833 0.930 . S
H818 C834 0.931 . S
C819 H807 0.929 . S
C819 C813 1.390 . S
C819 C816 1.386 . S
C820 C815 1.490 . S
C820 C822 1.395 1_455 S
C820 C823 1.403 . S
H821 C827 0.930 . S
C822 H808 0.930 . S
C822 C820 1.395 1_655 S
C822 C825 1.403 . S
C823 C820 1.403 . S
C823 C824 1.524 . S
C823 C827 1.400 . S
C824 H809 0.960 . S
C824 H810 0.960 . S
C824 H811 0.960 . S
C824 C823 1.524 . S
C825 C822 1.403 . S
C825 C826 1.392 . S
C825 C829 1.495 . S
C826 C825 1.392 . S
C826 C827 1.385 1_655 S
C826 C828 1.478 . S
C827 H821 0.930 . S
C827 C823 1.400 . S
C827 C826 1.385 1_455 S
C828 C826 1.478 . S
C828 C830 1.381 . S
C828 C834 1.383 . S
C829 C825 1.495 . S
C829 H835 0.959 . S
C829 H836 0.961 . S
C829 H837 0.960 . S
C830 C828 1.381 . S
C830 C831 1.394 . S
C830 H838 0.930 . S
C831 C830 1.394 . S
C831 C832 1.383 . S
C831 H839 0.929 . S
C832 C831 1.383 . S
C832 C833 1.377 . S
C833 H817 0.930 . S
C833 C832 1.377 . S
C833 C834 1.379 . S
C834 H818 0.931 . S
C834 C828 1.383 . S
C834 C833 1.379 . S
H835 C829 0.959 . S
H836 C829 0.961 . S
H837 C829 0.960 . S
H838 C830 0.930 . S
H839 C831 0.929 . S
H840 C848 0.929 . S
H841 C850 0.930 . S
H842 C852 0.930 . S
H843 C855 0.929 . S
H844 C858 0.930 . S
H845 C860 0.960 . S
H846 C860 0.960 . S
H847 C860 0.960 . S
C848 H840 0.929 . S
C848 C849 1.377 . S
C848 C850 1.384 . S
C849 C848 1.377 . S
C849 C855 1.390 . S
C850 H841 0.930 . S
C850 C848 1.384 . S
C850 C851 1.372 . S
C851 C850 1.372 . S
C851 C852 1.400 . S
C851 C856 1.490 . S
C852 H842 0.930 . S
C852 C851 1.400 . S
C852 C855 1.386 . S
H853 C869 0.930 . S
H854 C870 0.931 . S
C855 H843 0.929 . S
C855 C849 1.390 . S
C855 C852 1.386 . S
C856 C851 1.490 . S
C856 C858 1.395 . S
C856 C859 1.403 . S
H857 C863 0.930 . S
C858 H844 0.930 . S
C858 C856 1.395 . S
C858 C861 1.403 . S
C859 C856 1.403 . S
C859 C860 1.524 . S
C859 C863 1.400 . S
C860 H845 0.960 . S
C860 H846 0.960 . S
C860 H847 0.960 . S
C860 C859 1.524 . S
C861 C858 1.403 . S
C861 C862 1.392 . S
C861 C865 1.495 . S
C862 C861 1.392 . S
C862 C863 1.385 . S
C862 C864 1.478 . S
C863 H857 0.930 . S
C863 C859 1.400 . S
C863 C862 1.385 . S
C864 C862 1.478 . S
C864 C866 1.381 . S
C864 C870 1.383 . S
C865 C861 1.495 . S
C865 H871 0.959 . S
C865 H872 0.961 . S
C865 H873 0.960 . S
C866 C864 1.381 . S
C866 C867 1.394 . S
C866 H874 0.930 . S
C867 C866 1.394 . S
C867 C868 1.383 . S
C867 H875 0.929 . S
C868 C867 1.383 . S
C868 C869 1.377 . S
C869 H853 0.930 . S
C869 C868 1.377 . S
C869 C870 1.379 . S
C870 H854 0.931 . S
C870 C864 1.383 . S
C870 C869 1.379 . S
H871 C865 0.959 . S
H872 C865 0.961 . S
H873 C865 0.960 . S
H874 C866 0.930 . S
H875 C867 0.929 . S
H876 C884 0.929 . S
H877 C886 0.930 . S
H878 C888 0.930 . S
H879 C891 0.929 . S
H880 C894 0.930 . S
H881 C896 0.960 . S
H882 C896 0.960 . S
H883 C896 0.960 . S
C884 H876 0.929 . S
C884 C885 1.377 . S
C884 C886 1.384 . S
C885 C884 1.377 . S
C885 C891 1.390 . S
C886 H877 0.930 . S
C886 C884 1.384 . S
C886 C887 1.372 . S
C887 C886 1.372 . S
C887 C888 1.400 . S
C887 C892 1.490 . S
C888 H878 0.930 . S
C888 C887 1.400 . S
C888 C891 1.386 . S
H889 C905 0.930 . S
H890 C906 0.931 . S
C891 H879 0.929 . S
C891 C885 1.390 . S
C891 C888 1.386 . S
C892 C887 1.490 . S
C892 C894 1.395 . S
C892 C895 1.403 . S
H893 C899 0.930 . S
C894 H880 0.930 . S
C894 C892 1.395 . S
C894 C897 1.403 . S
C895 C892 1.403 . S
C895 C896 1.524 . S
C895 C899 1.400 . S
C896 H881 0.960 . S
C896 H882 0.960 . S
C896 H883 0.960 . S
C896 C895 1.524 . S
C897 C894 1.403 . S
C897 C898 1.392 . S
C897 C901 1.495 . S
C898 C897 1.392 . S
C898 C899 1.385 . S
C898 C900 1.478 . S
C899 H893 0.930 . S
C899 C895 1.400 . S
C899 C898 1.385 . S
C900 C898 1.478 . S
C900 C902 1.381 . S
C900 C906 1.383 . S
C901 C897 1.495 . S
C901 H907 0.959 . S
C901 H908 0.961 . S
C901 H909 0.960 . S
C902 C900 1.381 . S
C902 C903 1.394 . S
C902 H910 0.930 . S
C903 C902 1.394 . S
C903 C904 1.383 . S
C903 H911 0.929 . S
C904 C903 1.383 . S
C904 C905 1.377 . S
C905 H889 0.930 . S
C905 C904 1.377 . S
C905 C906 1.379 . S
C906 H890 0.931 . S
C906 C900 1.383 . S
C906 C905 1.379 . S
H907 C901 0.959 . S
H908 C901 0.961 . S
H909 C901 0.960 . S
H910 C902 0.930 . S
H911 C903 0.929 . S
H912 C920 0.929 . S
H913 C922 0.930 . S
H914 C924 0.930 . S
H915 C927 0.929 . S
H916 C930 0.930 . S
H917 C932 0.960 . S
H918 C932 0.960 . S
H919 C932 0.960 . S
C920 H912 0.929 . S
C920 C921 1.377 . S
C920 C922 1.384 . S
C921 C920 1.377 . S
C921 C927 1.390 . S
C922 H913 0.930 . S
C922 C920 1.384 . S
C922 C923 1.372 . S
C923 C922 1.372 . S
C923 C924 1.400 . S
C923 C928 1.490 . S
C924 H914 0.930 . S
C924 C923 1.400 . S
C924 C927 1.386 . S
H925 C941 0.930 . S
H926 C942 0.931 . S
C927 H915 0.929 . S
C927 C921 1.390 . S
C927 C924 1.386 . S
C928 C923 1.490 . S
C928 C930 1.395 . S
C928 C931 1.403 . S
H929 C935 0.930 . S
C930 H916 0.930 . S
C930 C928 1.395 . S
C930 C933 1.403 . S
C931 C928 1.403 . S
C931 C932 1.524 . S
C931 C935 1.400 . S
C932 H917 0.960 . S
C932 H918 0.960 . S
C932 H919 0.960 . S
C932 C931 1.524 . S
C933 C930 1.403 . S
C933 C934 1.392 . S
C933 C937 1.495 . S
C934 C933 1.392 . S
C934 C935 1.385 . S
C934 C936 1.478 . S
C935 H929 0.930 . S
C935 C931 1.400 . S
C935 C934 1.385 . S
C936 C934 1.478 . S
C936 C938 1.381 . S
C936 C942 1.383 . S
C937 C933 1.495 . S
C937 H943 0.959 . S
C937 H944 0.961 . S
C937 H945 0.960 . S
C938 C936 1.381 . S
C938 C939 1.394 . S
C938 H946 0.930 . S
C939 C938 1.394 . S
C939 C940 1.383 . S
C939 H947 0.929 . S
C940 C939 1.383 . S
C940 C941 1.377 . S
C941 H925 0.930 . S
C941 C940 1.377 . S
C941 C942 1.379 . S
C942 H926 0.931 . S
C942 C936 1.383 . S
C942 C941 1.379 . S
H943 C937 0.959 . S
H944 C937 0.961 . S
H945 C937 0.960 . S
H946 C938 0.930 . S
H947 C939 0.929 . S
H948 C956 0.929 . S
H949 C958 0.930 . S
H950 C960 0.930 . S
H951 C963 0.929 . S
H952 C966 0.930 . S
H953 C968 0.960 . S
H954 C968 0.960 . S
H955 C968 0.960 . S
C956 H948 0.929 . S
C956 C957 1.377 . S
C956 C958 1.384 . S
C957 C956 1.377 . S
C957 C963 1.390 . S
C958 H949 0.930 . S
C958 C956 1.384 . S
C958 C959 1.372 . S
C959 C958 1.372 . S
C959 C960 1.400 . S
C959 C964 1.490 . S
C960 H950 0.930 . S
C960 C959 1.400 . S
C960 C963 1.386 . S
H961 C977 0.930 . S
H962 C978 0.931 . S
C963 H951 0.929 . S
C963 C957 1.390 . S
C963 C960 1.386 . S
C964 C959 1.490 . S
C964 C966 1.395 . S
C964 C967 1.403 . S
H965 C971 0.930 . S
C966 H952 0.930 . S
C966 C964 1.395 . S
C966 C969 1.403 . S
C967 C964 1.403 . S
C967 C968 1.524 . S
C967 C971 1.400 . S
C968 H953 0.960 . S
C968 H954 0.960 . S
C968 H955 0.960 . S
C968 C967 1.524 . S
C969 C966 1.403 . S
C969 C970 1.392 . S
C969 C973 1.495 . S
C970 C969 1.392 . S
C970 C971 1.385 . S
C970 C972 1.478 . S
C971 H965 0.930 . S
C971 C967 1.400 . S
C971 C970 1.385 . S
C972 C970 1.478 . S
C972 C974 1.381 . S
C972 C978 1.383 . S
C973 C969 1.495 . S
C973 H979 0.959 . S
C973 H980 0.961 . S
C973 H981 0.960 . S
C974 C972 1.381 . S
C974 C975 1.394 . S
C974 H982 0.930 . S
C975 C974 1.394 . S
C975 C976 1.383 . S
C975 H983 0.929 . S
C976 C975 1.383 . S
C976 C977 1.377 . S
C977 H961 0.930 . S
C977 C976 1.377 . S
C977 C978 1.379 . S
C978 H962 0.931 . S
C978 C972 1.383 . S
C978 C977 1.379 . S
H979 C973 0.959 . S
H980 C973 0.961 . S
H981 C973 0.960 . S
H982 C974 0.930 . S
H983 C975 0.929 . S
H984 C992 0.929 . S
H985 C994 0.930 . S
H986 C996 0.930 . S
H987 C999 0.929 . S
H988 C1002 0.930 . S
H989 C1004 0.960 . S
H990 C1004 0.960 . S
H991 C1004 0.960 . S
C992 H984 0.929 . S
C992 C993 1.377 . S
C992 C994 1.384 . S
C993 C992 1.377 . S
C993 C999 1.390 . S
C994 H985 0.930 . S
C994 C992 1.384 . S
C994 C995 1.372 . S
C995 C994 1.372 . S
C995 C996 1.400 . S
C995 C1000 1.490 . S
C996 H986 0.930 . S
C996 C995 1.400 . S
C996 C999 1.386 . S
H997 C1013 0.930 . S
H998 C1014 0.931 . S
C999 H987 0.929 . S
C999 C993 1.390 . S
C999 C996 1.386 . S
C1000 C995 1.490 . S
C1000 C1002 1.395 . S
C1000 C1003 1.403 . S
H1001 C1007 0.930 . S
C1002 H988 0.930 . S
C1002 C1000 1.395 . S
C1002 C1005 1.403 . S
C1003 C1000 1.403 . S
C1003 C1004 1.524 . S
C1003 C1007 1.400 . S
C1004 H989 0.960 . S
C1004 H990 0.960 . S
C1004 H991 0.960 . S
C1004 C1003 1.524 . S
C1005 C1002 1.403 . S
C1005 C1006 1.392 . S
C1005 C1009 1.495 . S
C1006 C1005 1.392 . S
C1006 C1007 1.385 . S
C1006 C1008 1.478 . S
C1007 H1001 0.930 . S
C1007 C1003 1.400 . S
C1007 C1006 1.385 . S
C1008 C1006 1.478 . S
C1008 C1010 1.381 . S
C1008 C1014 1.383 . S
C1009 C1005 1.495 . S
C1009 H1015 0.959 . S
C1009 H1016 0.961 . S
C1009 H1017 0.960 . S
C1010 C1008 1.381 . S
C1010 C1011 1.394 . S
C1010 H1018 0.930 . S
C1011 C1010 1.394 . S
C1011 C1012 1.383 . S
C1011 H1019 0.929 . S
C1012 C1011 1.383 . S
C1012 C1013 1.377 . S
C1013 H997 0.930 . S
C1013 C1012 1.377 . S
C1013 C1014 1.379 . S
C1014 H998 0.931 . S
C1014 C1008 1.383 . S
C1014 C1013 1.379 . S
H1015 C1009 0.959 . S
H1016 C1009 0.961 . S
H1017 C1009 0.960 . S
H1018 C1010 0.930 . S
H1019 C1011 0.929 . S
H1020 C1028 0.929 . S
H1021 C1030 0.930 . S
H1022 C1032 0.930 . S
H1023 C1035 0.929 . S
H1024 C1038 0.930 . S
H1025 C1040 0.960 . S
H1026 C1040 0.960 . S
H1027 C1040 0.960 . S
C1028 H1020 0.929 . S
C1028 C1029 1.377 . S
C1028 C1030 1.384 . S
C1029 C1028 1.377 . S
C1029 C1035 1.390 . S
C1030 H1021 0.930 . S
C1030 C1028 1.384 . S
C1030 C1031 1.372 . S
C1031 C1030 1.372 . S
C1031 C1032 1.400 . S
C1031 C1036 1.490 . S
C1032 H1022 0.930 . S
C1032 C1031 1.400 . S
C1032 C1035 1.386 . S
H1033 C1049 0.930 . S
H1034 C1050 0.931 . S
C1035 H1023 0.929 . S
C1035 C1029 1.390 . S
C1035 C1032 1.386 . S
C1036 C1031 1.490 . S
C1036 C1038 1.395 . S
C1036 C1039 1.403 . S
H1037 C1043 0.930 . S
C1038 H1024 0.930 . S
C1038 C1036 1.395 . S
C1038 C1041 1.403 . S
C1039 C1036 1.403 . S
C1039 C1040 1.524 . S
C1039 C1043 1.400 . S
C1040 H1025 0.960 . S
C1040 H1026 0.960 . S
C1040 H1027 0.960 . S
C1040 C1039 1.524 . S
C1041 C1038 1.403 . S
C1041 C1042 1.392 . S
C1041 C1045 1.495 . S
C1042 C1041 1.392 . S
C1042 C1043 1.385 . S
C1042 C1044 1.478 . S
C1043 H1037 0.930 . S
C1043 C1039 1.400 . S
C1043 C1042 1.385 . S
C1044 C1042 1.478 . S
C1044 C1046 1.381 . S
C1044 C1050 1.383 . S
C1045 C1041 1.495 . S
C1045 H1051 0.959 . S
C1045 H1052 0.961 . S
C1045 H1053 0.960 . S
C1046 C1044 1.381 . S
C1046 C1047 1.394 . S
C1046 H1054 0.930 . S
C1047 C1046 1.394 . S
C1047 C1048 1.383 . S
C1047 H1055 0.929 . S
C1048 C1047 1.383 . S
C1048 C1049 1.377 . S
C1049 H1033 0.930 . S
C1049 C1048 1.377 . S
C1049 C1050 1.379 . S
C1050 H1034 0.931 . S
C1050 C1044 1.383 . S
C1050 C1049 1.379 . S
H1051 C1045 0.959 . S
H1052 C1045 0.961 . S
H1053 C1045 0.960 . S
H1054 C1046 0.930 . S
H1055 C1047 0.929 . S
H1056 C1064 0.929 . S
H1057 C1066 0.930 . S
H1058 C1068 0.930 . S
H1059 C1071 0.929 . S
H1060 C1074 0.930 . S
H1061 C1076 0.960 . S
H1062 C1076 0.960 . S
H1063 C1076 0.960 . S
C1064 H1056 0.929 . S
C1064 C1065 1.377 . S
C1064 C1066 1.384 . S
C1065 C1064 1.377 . S
C1065 C1071 1.390 . S
C1066 H1057 0.930 . S
C1066 C1064 1.384 . S
C1066 C1067 1.372 . S
C1067 C1066 1.372 . S
C1067 C1068 1.400 . S
C1067 C1072 1.490 . S
C1068 H1058 0.930 . S
C1068 C1067 1.400 . S
C1068 C1071 1.386 . S
H1069 C1085 0.930 . S
H1070 C1086 0.931 . S
C1071 H1059 0.929 . S
C1071 C1065 1.390 . S
C1071 C1068 1.386 . S
C1072 C1067 1.490 . S
C1072 C1074 1.395 . S
C1072 C1075 1.403 . S
H1073 C1079 0.930 . S
C1074 H1060 0.930 . S
C1074 C1072 1.395 . S
C1074 C1077 1.403 1_556 S
C1075 C1072 1.403 . S
C1075 C1076 1.524 . S
C1075 C1079 1.400 1_556 S
C1076 H1061 0.960 . S
C1076 H1062 0.960 . S
C1076 H1063 0.960 . S
C1076 C1075 1.524 . S
C1077 C1074 1.403 1_554 S
C1077 C1078 1.392 . S
C1077 C1081 1.495 . S
C1078 C1077 1.392 . S
C1078 C1079 1.385 . S
C1078 C1080 1.478 . S
C1079 H1073 0.930 . S
C1079 C1075 1.400 1_554 S
C1079 C1078 1.385 . S
C1080 C1078 1.478 . S
C1080 C1082 1.381 . S
C1080 C1086 1.383 . S
C1081 C1077 1.495 . S
C1081 H1087 0.959 . S
C1081 H1088 0.961 . S
C1081 H1089 0.960 . S
C1082 C1080 1.381 . S
C1082 C1083 1.394 . S
C1082 H1090 0.930 . S
C1083 C1082 1.394 . S
C1083 C1084 1.383 . S
C1083 H1091 0.929 . S
C1084 C1083 1.383 . S
C1084 C1085 1.377 . S
C1085 H1069 0.930 . S
C1085 C1084 1.377 . S
C1085 C1086 1.379 . S
C1086 H1070 0.931 . S
C1086 C1080 1.383 . S
C1086 C1085 1.379 . S
H1087 C1081 0.959 . S
H1088 C1081 0.961 . S
H1089 C1081 0.960 . S
H1090 C1082 0.930 . S
H1091 C1083 0.929 . S
H1092 C1100 0.929 . S
H1093 C1102 0.930 . S
H1094 C1104 0.930 . S
H1095 C1107 0.929 . S
H1096 C1110 0.930 . S
H1097 C1112 0.960 . S
H1098 C1112 0.960 . S
H1099 C1112 0.960 . S
C1100 H1092 0.929 . S
C1100 C1101 1.377 . S
C1100 C1102 1.384 . S
C1101 C1100 1.377 . S
C1101 C1107 1.390 . S
C1102 H1093 0.930 . S
C1102 C1100 1.384 . S
C1102 C1103 1.372 . S
C1103 C1102 1.372 . S
C1103 C1104 1.400 . S
C1103 C1108 1.490 . S
C1104 H1094 0.930 . S
C1104 C1103 1.400 . S
C1104 C1107 1.386 . S
H1105 C1121 0.930 . S
H1106 C1122 0.931 . S
C1107 H1095 0.929 . S
C1107 C1101 1.390 . S
C1107 C1104 1.386 . S
C1108 C1103 1.490 . S
C1108 C1110 1.395 . S
C1108 C1111 1.403 . S
H1109 C1115 0.930 . S
C1110 H1096 0.930 . S
C1110 C1108 1.395 . S
C1110 C1113 1.403 . S
C1111 C1108 1.403 . S
C1111 C1112 1.524 . S
C1111 C1115 1.400 . S
C1112 H1097 0.960 . S
C1112 H1098 0.960 . S
C1112 H1099 0.960 . S
C1112 C1111 1.524 . S
C1113 C1110 1.403 . S
C1113 C1114 1.392 . S
C1113 C1117 1.495 . S
C1114 C1113 1.392 . S
C1114 C1115 1.385 . S
C1114 C1116 1.478 . S
C1115 H1109 0.930 . S
C1115 C1111 1.400 . S
C1115 C1114 1.385 . S
C1116 C1114 1.478 . S
C1116 C1118 1.381 . S
C1116 C1122 1.383 . S
C1117 C1113 1.495 . S
C1117 H1123 0.959 . S
C1117 H1124 0.961 . S
C1117 H1125 0.960 . S
C1118 C1116 1.381 . S
C1118 C1119 1.394 . S
C1118 H1126 0.930 . S
C1119 C1118 1.394 . S
C1119 C1120 1.383 . S
C1119 H1127 0.929 . S
C1120 C1119 1.383 . S
C1120 C1121 1.377 . S
C1121 H1105 0.930 . S
C1121 C1120 1.377 . S
C1121 C1122 1.379 . S
C1122 H1106 0.931 . S
C1122 C1116 1.383 . S
C1122 C1121 1.379 . S
H1123 C1117 0.959 . S
H1124 C1117 0.961 . S
H1125 C1117 0.960 . S
H1126 C1118 0.930 . S
H1127 C1119 0.929 . S
H1128 C1136 0.929 . S
H1129 C1138 0.930 . S
H1130 C1140 0.930 . S
H1131 C1143 0.929 . S
H1132 C1146 0.930 . S
H1133 C1148 0.960 . S
H1134 C1148 0.960 . S
H1135 C1148 0.960 . S
C1136 H1128 0.929 . S
C1136 C1137 1.377 . S
C1136 C1138 1.384 . S
C1137 C1136 1.377 . S
C1137 C1143 1.390 . S
C1138 H1129 0.930 . S
C1138 C1136 1.384 . S
C1138 C1139 1.372 . S
C1139 C1138 1.372 . S
C1139 C1140 1.400 . S
C1139 C1144 1.490 . S
C1140 H1130 0.930 . S
C1140 C1139 1.400 . S
C1140 C1143 1.386 . S
H1141 C1157 0.930 . S
H1142 C1158 0.931 . S
C1143 H1131 0.929 . S
C1143 C1137 1.390 . S
C1143 C1140 1.386 . S
C1144 C1139 1.490 . S
C1144 C1146 1.395 . S
C1144 C1147 1.403 . S
H1145 C1151 0.930 . S
C1146 H1132 0.930 . S
C1146 C1144 1.395 . S
C1146 C1149 1.403 . S
C1147 C1144 1.403 . S
C1147 C1148 1.524 . S
C1147 C1151 1.400 . S
C1148 H1133 0.960 . S
C1148 H1134 0.960 . S
C1148 H1135 0.960 . S
C1148 C1147 1.524 . S
C1149 C1146 1.403 . S
C1149 C1150 1.392 . S
C1149 C1153 1.495 . S
C1150 C1149 1.392 . S
C1150 C1151 1.385 . S
C1150 C1152 1.478 . S
C1151 H1145 0.930 . S
C1151 C1147 1.400 . S
C1151 C1150 1.385 . S
C1152 C1150 1.478 . S
C1152 C1154 1.381 . S
C1152 C1158 1.383 . S
C1153 C1149 1.495 . S
C1153 H1159 0.959 . S
C1153 H1160 0.961 . S
C1153 H1161 0.960 . S
C1154 C1152 1.381 . S
C1154 C1155 1.394 . S
C1154 H1162 0.930 . S
C1155 C1154 1.394 . S
C1155 C1156 1.383 . S
C1155 H1163 0.929 . S
C1156 C1155 1.383 . S
C1156 C1157 1.377 . S
C1157 H1141 0.930 . S
C1157 C1156 1.377 . S
C1157 C1158 1.379 . S
C1158 H1142 0.931 . S
C1158 C1152 1.383 . S
C1158 C1157 1.379 . S
H1159 C1153 0.959 . S
H1160 C1153 0.961 . S
H1161 C1153 0.960 . S
H1162 C1154 0.930 . S
H1163 C1155 0.929 . S
H1164 C1172 0.929 . S
H1165 C1174 0.930 . S
H1166 C1176 0.930 . S
H1167 C1179 0.929 . S
H1168 C1182 0.930 . S
H1169 C1184 0.960 . S
H1170 C1184 0.960 . S
H1171 C1184 0.960 . S
C1172 H1164 0.929 . S
C1172 C1173 1.377 . S
C1172 C1174 1.384 . S
C1173 C1172 1.377 . S
C1173 C1179 1.390 . S
C1174 H1165 0.930 . S
C1174 C1172 1.384 . S
C1174 C1175 1.372 . S
C1175 C1174 1.372 . S
C1175 C1176 1.400 . S
C1175 C1180 1.490 . S
C1176 H1166 0.930 . S
C1176 C1175 1.400 . S
C1176 C1179 1.386 . S
H1177 C1193 0.930 . S
H1178 C1194 0.931 . S
C1179 H1167 0.929 . S
C1179 C1173 1.390 . S
C1179 C1176 1.386 . S
C1180 C1175 1.490 . S
C1180 C1182 1.395 . S
C1180 C1183 1.403 . S
H1181 C1187 0.930 . S
C1182 H1168 0.930 . S
C1182 C1180 1.395 . S
C1182 C1185 1.403 1_556 S
C1183 C1180 1.403 . S
C1183 C1184 1.524 . S
C1183 C1187 1.400 1_556 S
C1184 H1169 0.960 . S
C1184 H1170 0.960 . S
C1184 H1171 0.960 . S
C1184 C1183 1.524 . S
C1185 C1182 1.403 1_554 S
C1185 C1186 1.392 . S
C1185 C1189 1.495 . S
C1186 C1185 1.392 . S
C1186 C1187 1.385 . S
C1186 C1188 1.478 . S
C1187 H1181 0.930 . S
C1187 C1183 1.400 1_554 S
C1187 C1186 1.385 . S
C1188 C1186 1.478 . S
C1188 C1190 1.381 . S
C1188 C1194 1.383 . S
C1189 C1185 1.495 . S
C1189 H1195 0.959 . S
C1189 H1196 0.961 . S
C1189 H1197 0.960 . S
C1190 C1188 1.381 . S
C1190 C1191 1.394 . S
C1190 H1198 0.930 . S
C1191 C1190 1.394 . S
C1191 C1192 1.383 . S
C1191 H1199 0.929 . S
C1192 C1191 1.383 . S
C1192 C1193 1.377 . S
C1193 H1177 0.930 . S
C1193 C1192 1.377 . S
C1193 C1194 1.379 . S
C1194 H1178 0.931 . S
C1194 C1188 1.383 . S
C1194 C1193 1.379 . S
H1195 C1189 0.959 . S
H1196 C1189 0.961 . S
H1197 C1189 0.960 . S
H1198 C1190 0.930 . S
H1199 C1191 0.929 . S
H1200 C1208 0.929 . S
H1201 C1210 0.930 . S
H1202 C1212 0.930 . S
H1203 C1215 0.929 . S
H1204 C1218 0.930 . S
H1205 C1220 0.960 . S
H1206 C1220 0.960 . S
H1207 C1220 0.960 . S
C1208 H1200 0.929 . S
C1208 C1209 1.377 . S
C1208 C1210 1.384 . S
C1209 C1208 1.377 . S
C1209 C1215 1.390 . S
C1210 H1201 0.930 . S
C1210 C1208 1.384 . S
C1210 C1211 1.372 . S
C1211 C1210 1.372 . S
C1211 C1212 1.400 . S
C1211 C1216 1.490 . S
C1212 H1202 0.930 . S
C1212 C1211 1.400 . S
C1212 C1215 1.386 . S
H1213 C1229 0.930 . S
H1214 C1230 0.931 . S
C1215 H1203 0.929 . S
C1215 C1209 1.390 . S
C1215 C1212 1.386 . S
C1216 C1211 1.490 . S
C1216 C1218 1.395 . S
C1216 C1219 1.403 . S
H1217 C1223 0.930 . S
C1218 H1204 0.930 . S
C1218 C1216 1.395 . S
C1218 C1221 1.403 . S
C1219 C1216 1.403 . S
C1219 C1220 1.524 . S
C1219 C1223 1.400 . S
C1220 H1205 0.960 . S
C1220 H1206 0.960 . S
C1220 H1207 0.960 . S
C1220 C1219 1.524 . S
C1221 C1218 1.403 . S
C1221 C1222 1.392 . S
C1221 C1225 1.495 . S
C1222 C1221 1.392 . S
C1222 C1223 1.385 . S
C1222 C1224 1.478 . S
C1223 H1217 0.930 . S
C1223 C1219 1.400 . S
C1223 C1222 1.385 . S
C1224 C1222 1.478 . S
C1224 C1226 1.381 . S
C1224 C1230 1.383 . S
C1225 C1221 1.495 . S
C1225 H1231 0.959 . S
C1225 H1232 0.961 . S
C1225 H1233 0.960 . S
C1226 C1224 1.381 . S
C1226 C1227 1.394 . S
C1226 H1234 0.930 . S
C1227 C1226 1.394 . S
C1227 C1228 1.383 . S
C1227 H1235 0.929 . S
C1228 C1227 1.383 . S
C1228 C1229 1.377 . S
C1229 H1213 0.930 . S
C1229 C1228 1.377 . S
C1229 C1230 1.379 . S
C1230 H1214 0.931 . S
C1230 C1224 1.383 . S
C1230 C1229 1.379 . S
H1231 C1225 0.959 . S
H1232 C1225 0.961 . S
H1233 C1225 0.960 . S
H1234 C1226 0.930 . S
H1235 C1227 0.929 . S
H1236 C1244 0.929 . S
H1237 C1246 0.930 . S
H1238 C1248 0.930 . S
H1239 C1251 0.929 . S
H1240 C1254 0.930 . S
H1241 C1256 0.960 . S
H1242 C1256 0.960 . S
H1243 C1256 0.960 . S
C1244 H1236 0.929 . S
C1244 C1245 1.377 . S
C1244 C1246 1.384 . S
C1245 C1244 1.377 . S
C1245 C1251 1.390 . S
C1246 H1237 0.930 . S
C1246 C1244 1.384 . S
C1246 C1247 1.372 . S
C1247 C1246 1.372 . S
C1247 C1248 1.400 . S
C1247 C1252 1.490 . S
C1248 H1238 0.930 . S
C1248 C1247 1.400 . S
C1248 C1251 1.386 . S
H1249 C1265 0.930 . S
H1250 C1266 0.931 . S
C1251 H1239 0.929 . S
C1251 C1245 1.390 . S
C1251 C1248 1.386 . S
C1252 C1247 1.490 . S
C1252 C1254 1.395 . S
C1252 C1255 1.403 . S
H1253 C1259 0.930 . S
C1254 H1240 0.930 . S
C1254 C1252 1.395 . S
C1254 C1257 1.403 . S
C1255 C1252 1.403 . S
C1255 C1256 1.524 . S
C1255 C1259 1.400 . S
C1256 H1241 0.960 . S
C1256 H1242 0.960 . S
C1256 H1243 0.960 . S
C1256 C1255 1.524 . S
C1257 C1254 1.403 . S
C1257 C1258 1.392 . S
C1257 C1261 1.495 . S
C1258 C1257 1.392 . S
C1258 C1259 1.385 . S
C1258 C1260 1.478 . S
C1259 H1253 0.930 . S
C1259 C1255 1.400 . S
C1259 C1258 1.385 . S
C1260 C1258 1.478 . S
C1260 C1262 1.381 . S
C1260 C1266 1.383 . S
C1261 C1257 1.495 . S
C1261 H1267 0.959 . S
C1261 H1268 0.961 . S
C1261 H1269 0.960 . S
C1262 C1260 1.381 . S
C1262 C1263 1.394 . S
C1262 H1270 0.930 . S
C1263 C1262 1.394 . S
C1263 C1264 1.383 . S
C1263 H1271 0.929 . S
C1264 C1263 1.383 . S
C1264 C1265 1.377 . S
C1265 H1249 0.930 . S
C1265 C1264 1.377 . S
C1265 C1266 1.379 . S
C1266 H1250 0.931 . S
C1266 C1260 1.383 . S
C1266 C1265 1.379 . S
H1267 C1261 0.959 . S
H1268 C1261 0.961 . S
H1269 C1261 0.960 . S
H1270 C1262 0.930 . S
H1271 C1263 0.929 . S
H1272 C1280 0.929 . S
H1273 C1282 0.930 . S
H1274 C1284 0.930 . S
H1275 C1287 0.929 . S
H1276 C1290 0.930 . S
H1277 C1292 0.960 1_455 S
H1278 C1292 0.960 . S
H1279 C1292 0.960 . S
C1280 H1272 0.929 . S
C1280 C1281 1.377 . S
C1280 C1282 1.384 . S
C1281 C1280 1.377 . S
C1281 C1287 1.390 . S
C1282 H1273 0.930 . S
C1282 C1280 1.384 . S
C1282 C1283 1.372 . S
C1283 C1282 1.372 . S
C1283 C1284 1.400 . S
C1283 C1288 1.490 . S
C1284 H1274 0.930 . S
C1284 C1283 1.400 . S
C1284 C1287 1.386 . S
H1285 C1301 0.930 . S
H1286 C1302 0.931 . S
C1287 H1275 0.929 . S
C1287 C1281 1.390 . S
C1287 C1284 1.386 . S
C1288 C1283 1.490 . S
C1288 C1290 1.395 . S
C1288 C1291 1.403 . S
H1289 C1295 0.930 . S
C1290 H1276 0.930 . S
C1290 C1288 1.395 . S
C1290 C1293 1.403 1_655 S
C1291 C1288 1.403 . S
C1291 C1292 1.524 . S
C1291 C1295 1.400 1_655 S
C1292 H1277 0.960 1_655 S
C1292 H1278 0.960 . S
C1292 H1279 0.960 . S
C1292 C1291 1.524 . S
C1293 C1290 1.403 1_455 S
C1293 C1294 1.392 . S
C1293 C1297 1.495 . S
C1294 C1293 1.392 . S
C1294 C1295 1.385 . S
C1294 C1296 1.478 . S
C1295 H1289 0.930 . S
C1295 C1291 1.400 1_455 S
C1295 C1294 1.385 . S
C1296 C1294 1.478 . S
C1296 C1298 1.381 . S
C1296 C1302 1.383 . S
C1297 C1293 1.495 . S
C1297 H1303 0.959 1_455 S
C1297 H1304 0.961 . S
C1297 H1305 0.960 . S
C1298 C1296 1.381 . S
C1298 C1299 1.394 . S
C1298 H1306 0.930 . S
C1299 C1298 1.394 . S
C1299 C1300 1.383 . S
C1299 H1307 0.929 . S
C1300 C1299 1.383 . S
C1300 C1301 1.377 . S
C1301 H1285 0.930 . S
C1301 C1300 1.377 . S
C1301 C1302 1.379 . S
C1302 H1286 0.931 . S
C1302 C1296 1.383 . S
C1302 C1301 1.379 . S
H1303 C1297 0.959 1_655 S
H1304 C1297 0.961 . S
H1305 C1297 0.960 . S
H1306 C1298 0.930 . S
H1307 C1299 0.929 . S
H1308 C1316 0.929 . S
H1309 C1318 0.930 . S
H1310 C1320 0.930 . S
H1311 C1323 0.929 . S
H1312 C1326 0.930 . S
H1313 C1328 0.960 . S
H1314 C1328 0.960 . S
H1315 C1328 0.960 . S
C1316 H1308 0.929 . S
C1316 C1317 1.377 . S
C1316 C1318 1.384 . S
C1317 C1316 1.377 . S
C1317 C1323 1.390 . S
C1318 H1309 0.930 . S
C1318 C1316 1.384 . S
C1318 C1319 1.372 . S
C1319 C1318 1.372 . S
C1319 C1320 1.400 . S
C1319 C1324 1.490 . S
C1320 H1310 0.930 . S
C1320 C1319 1.400 . S
C1320 C1323 1.386 . S
H1321 C1337 0.930 . S
H1322 C1338 0.931 . S
C1323 H1311 0.929 . S
C1323 C1317 1.390 . S
C1323 C1320 1.386 . S
C1324 C1319 1.490 . S
C1324 C1326 1.395 . S
C1324 C1327 1.403 . S
H1325 C1331 0.930 . S
C1326 H1312 0.930 . S
C1326 C1324 1.395 . S
C1326 C1329 1.403 1_565 S
C1327 C1324 1.403 . S
C1327 C1328 1.524 . S
C1327 C1331 1.400 1_565 S
C1328 H1313 0.960 . S
C1328 H1314 0.960 . S
C1328 H1315 0.960 . S
C1328 C1327 1.524 . S
C1329 C1326 1.403 1_545 S
C1329 C1330 1.392 . S
C1329 C1333 1.495 . S
C1330 C1329 1.392 . S
C1330 C1331 1.385 . S
C1330 C1332 1.478 . S
C1331 H1325 0.930 . S
C1331 C1327 1.400 1_545 S
C1331 C1330 1.385 . S
C1332 C1330 1.478 . S
C1332 C1334 1.381 . S
C1332 C1338 1.383 . S
C1333 C1329 1.495 . S
C1333 H1339 0.959 . S
C1333 H1340 0.961 . S
C1333 H1341 0.960 . S
C1334 C1332 1.381 . S
C1334 C1335 1.394 . S
C1334 H1342 0.930 . S
C1335 C1334 1.394 . S
C1335 C1336 1.383 . S
C1335 H1343 0.929 . S
C1336 C1335 1.383 . S
C1336 C1337 1.377 . S
C1337 H1321 0.930 . S
C1337 C1336 1.377 . S
C1337 C1338 1.379 . S
C1338 H1322 0.931 . S
C1338 C1332 1.383 . S
C1338 C1337 1.379 . S
H1339 C1333 0.959 . S
H1340 C1333 0.961 . S
H1341 C1333 0.960 . S
H1342 C1334 0.930 . S
H1343 C1335 0.929 . S
H1344 C1352 0.929 . S
H1345 C1354 0.930 . S
H1346 C1356 0.930 . S
H1347 C1359 0.929 . S
H1348 C1362 0.930 . S
H1349 C1364 0.960 . S
H1350 C1364 0.960 . S
H1351 C1364 0.960 . S
C1352 H1344 0.929 . S
C1352 C1353 1.377 . S
C1352 C1354 1.384 . S
C1353 C1352 1.377 . S
C1353 C1359 1.390 . S
C1354 H1345 0.930 . S
C1354 C1352 1.384 . S
C1354 C1355 1.372 . S
C1355 C1354 1.372 . S
C1355 C1356 1.400 . S
C1355 C1360 1.490 . S
C1356 H1346 0.930 . S
C1356 C1355 1.400 . S
C1356 C1359 1.386 . S
H1357 C1373 0.930 . S
H1358 C1374 0.931 . S
C1359 H1347 0.929 . S
C1359 C1353 1.390 . S
C1359 C1356 1.386 . S
C1360 C1355 1.490 . S
C1360 C1362 1.395 . S
C1360 C1363 1.403 . S
H1361 C1367 0.930 . S
C1362 H1348 0.930 . S
C1362 C1360 1.395 . S
C1362 C1365 1.403 . S
C1363 C1360 1.403 . S
C1363 C1364 1.524 . S
C1363 C1367 1.400 . S
C1364 H1349 0.960 . S
C1364 H1350 0.960 . S
C1364 H1351 0.960 . S
C1364 C1363 1.524 . S
C1365 C1362 1.403 . S
C1365 C1366 1.392 . S
C1365 C1369 1.495 . S
C1366 C1365 1.392 . S
C1366 C1367 1.385 . S
C1366 C1368 1.478 . S
C1367 H1361 0.930 . S
C1367 C1363 1.400 . S
C1367 C1366 1.385 . S
C1368 C1366 1.478 . S
C1368 C1370 1.381 . S
C1368 C1374 1.383 . S
C1369 C1365 1.495 . S
C1369 H1375 0.959 . S
C1369 H1376 0.961 . S
C1369 H1377 0.960 . S
C1370 C1368 1.381 . S
C1370 C1371 1.394 . S
C1370 H1378 0.930 . S
C1371 C1370 1.394 . S
C1371 C1372 1.383 . S
C1371 H1379 0.929 . S
C1372 C1371 1.383 . S
C1372 C1373 1.377 . S
C1373 H1357 0.930 . S
C1373 C1372 1.377 . S
C1373 C1374 1.379 . S
C1374 H1358 0.931 . S
C1374 C1368 1.383 . S
C1374 C1373 1.379 . S
H1375 C1369 0.959 . S
H1376 C1369 0.961 . S
H1377 C1369 0.960 . S
H1378 C1370 0.930 . S
H1379 C1371 0.929 . S
H1380 C1388 0.929 . S
H1381 C1390 0.930 . S
H1382 C1392 0.930 . S
H1383 C1395 0.929 . S
H1384 C1398 0.930 . S
H1385 C1400 0.960 . S
H1386 C1400 0.960 . S
H1387 C1400 0.960 1_455 S
C1388 H1380 0.929 . S
C1388 C1389 1.377 . S
C1388 C1390 1.384 . S
C1389 C1388 1.377 . S
C1389 C1395 1.390 . S
C1390 H1381 0.930 . S
C1390 C1388 1.384 . S
C1390 C1391 1.372 . S
C1391 C1390 1.372 . S
C1391 C1392 1.400 . S
C1391 C1396 1.490 . S
C1392 H1382 0.930 . S
C1392 C1391 1.400 . S
C1392 C1395 1.386 . S
H1393 C1409 0.930 . S
H1394 C1410 0.931 . S
C1395 H1383 0.929 . S
C1395 C1389 1.390 . S
C1395 C1392 1.386 . S
C1396 C1391 1.490 . S
C1396 C1398 1.395 . S
C1396 C1399 1.406 . S
H1397 C1403 0.930 . S
C1398 H1384 0.930 . S
C1398 C1396 1.395 . S
C1398 C1401 1.403 . S
C1399 C1396 1.406 . S
C1399 C1400 1.525 1_455 S
C1399 C1403 1.395 1_455 S
C1400 H1385 0.960 . S
C1400 H1386 0.960 . S
C1400 H1387 0.960 1_655 S
C1400 C1399 1.525 1_655 S
C1401 C1398 1.403 . S
C1401 C1402 1.392 1_455 S
C1401 C1405 1.495 . S
C1402 C1401 1.392 1_655 S
C1402 C1403 1.385 . S
C1402 C1404 1.478 . S
C1403 H1397 0.930 . S
C1403 C1399 1.395 1_655 S
C1403 C1402 1.385 . S
C1404 C1402 1.478 . S
C1404 C1406 1.381 . S
C1404 C1410 1.383 . S
C1405 C1401 1.495 . S
C1405 H1411 0.959 . S
C1405 H1412 0.961 . S
C1405 H1413 0.960 1_455 S
C1406 C1404 1.381 . S
C1406 C1407 1.394 . S
C1406 H1414 0.930 . S
C1407 C1406 1.394 . S
C1407 C1408 1.383 . S
C1407 H1415 0.929 . S
C1408 C1407 1.383 . S
C1408 C1409 1.377 . S
C1409 H1393 0.930 . S
C1409 C1408 1.377 . S
C1409 C1410 1.379 . S
C1410 H1394 0.931 . S
C1410 C1404 1.383 . S
C1410 C1409 1.379 . S
H1411 C1405 0.959 . S
H1412 C1405 0.961 . S
H1413 C1405 0.960 1_655 S
H1414 C1406 0.930 . S
H1415 C1407 0.929 . S
H1416 C1424 0.929 . S
H1417 C1426 0.930 . S
H1418 C1428 0.930 . S
H1419 C1431 0.929 . S
H1420 C1434 0.930 . S
H1421 C1436 0.960 . S
H1422 C1436 0.960 . S
H1423 C1436 0.960 . S
C1424 H1416 0.929 . S
C1424 C1425 1.377 . S
C1424 C1426 1.384 . S
C1425 C1424 1.377 . S
C1425 C1431 1.390 . S
C1426 H1417 0.930 . S
C1426 C1424 1.384 . S
C1426 C1427 1.372 . S
C1427 C1426 1.372 . S
C1427 C1428 1.400 . S
C1427 C1432 1.490 . S
C1428 H1418 0.930 . S
C1428 C1427 1.400 . S
C1428 C1431 1.386 . S
H1429 C1445 0.930 . S
H1430 C1446 0.931 . S
C1431 H1419 0.929 . S
C1431 C1425 1.390 . S
C1431 C1428 1.386 . S
C1432 C1427 1.490 . S
C1432 C1434 1.395 . S
C1432 C1435 1.403 1_545 S
H1433 C1439 0.930 . S
C1434 H1420 0.930 . S
C1434 C1432 1.395 . S
C1434 C1437 1.403 . S
C1435 C1432 1.403 1_565 S
C1435 C1436 1.524 . S
C1435 C1439 1.400 . S
C1436 H1421 0.960 . S
C1436 H1422 0.960 . S
C1436 H1423 0.960 . S
C1436 C1435 1.524 . S
C1437 C1434 1.403 . S
C1437 C1438 1.392 1_545 S
C1437 C1441 1.495 . S
C1438 C1437 1.392 1_565 S
C1438 C1439 1.385 . S
C1438 C1440 1.478 . S
C1439 H1433 0.930 . S
C1439 C1435 1.400 . S
C1439 C1438 1.385 . S
C1440 C1438 1.478 . S
C1440 C1442 1.381 . S
C1440 C1446 1.383 . S
C1441 C1437 1.495 . S
C1441 H1447 0.959 . S
C1441 H1448 0.961 . S
C1441 H1449 0.960 . S
C1442 C1440 1.381 . S
C1442 C1443 1.394 . S
C1442 H1450 0.930 . S
C1443 C1442 1.394 . S
C1443 C1444 1.383 . S
C1443 H1451 0.929 . S
C1444 C1443 1.383 . S
C1444 C1445 1.377 . S
C1445 H1429 0.930 . S
C1445 C1444 1.377 . S
C1445 C1446 1.379 . S
C1446 H1430 0.931 . S
C1446 C1440 1.383 . S
C1446 C1445 1.379 . S
H1447 C1441 0.959 . S
H1448 C1441 0.961 . S
H1449 C1441 0.960 . S
H1450 C1442 0.930 . S
H1451 C1443 0.929 . S
H1452 C1460 0.929 . S
H1453 C1462 0.930 . S
H1454 C1464 0.930 . S
H1455 C1467 0.929 . S
H1456 C1470 0.930 . S
H1457 C1472 0.960 . S
H1458 C1472 0.960 . S
H1459 C1472 0.960 . S
C1460 H1452 0.929 . S
C1460 C1461 1.377 . S
C1460 C1462 1.384 . S
C1461 C1460 1.377 . S
C1461 C1467 1.390 . S
C1462 H1453 0.930 . S
C1462 C1460 1.384 . S
C1462 C1463 1.372 . S
C1463 C1462 1.372 . S
C1463 C1464 1.400 . S
C1463 C1468 1.490 . S
C1464 H1454 0.930 . S
C1464 C1463 1.400 . S
C1464 C1467 1.386 . S
H1465 C1481 0.930 . S
H1466 C1482 0.931 . S
C1467 H1455 0.929 . S
C1467 C1461 1.390 . S
C1467 C1464 1.386 . S
C1468 C1463 1.490 . S
C1468 C1470 1.395 . S
C1468 C1471 1.403 . S
H1469 C1475 0.930 . S
C1470 H1456 0.930 . S
C1470 C1468 1.395 . S
C1470 C1473 1.403 . S
C1471 C1468 1.403 . S
C1471 C1472 1.524 . S
C1471 C1475 1.400 . S
C1472 H1457 0.960 . S
C1472 H1458 0.960 . S
C1472 H1459 0.960 . S
C1472 C1471 1.524 . S
C1473 C1470 1.403 . S
C1473 C1474 1.392 . S
C1473 C1477 1.495 . S
C1474 C1473 1.392 . S
C1474 C1475 1.385 . S
C1474 C1476 1.478 . S
C1475 H1469 0.930 . S
C1475 C1471 1.400 . S
C1475 C1474 1.385 . S
C1476 C1474 1.478 . S
C1476 C1478 1.381 . S
C1476 C1482 1.383 . S
C1477 C1473 1.495 . S
C1477 H1483 0.959 . S
C1477 H1484 0.961 . S
C1477 H1485 0.960 . S
C1478 C1476 1.381 . S
C1478 C1479 1.394 . S
C1478 H1486 0.930 . S
C1479 C1478 1.394 . S
C1479 C1480 1.383 . S
C1479 H1487 0.929 . S
C1480 C1479 1.383 . S
C1480 C1481 1.377 . S
C1481 H1465 0.930 . S
C1481 C1480 1.377 . S
C1481 C1482 1.379 . S
C1482 H1466 0.931 . S
C1482 C1476 1.383 . S
C1482 C1481 1.379 . S
H1483 C1477 0.959 . S
H1484 C1477 0.961 . S
H1485 C1477 0.960 . S
H1486 C1478 0.930 . S
H1487 C1479 0.929 . S
C417 C111 1.392 . S
C436 C9 1.381 . S
C453 C145 1.394 . S
C472 C43 1.388 . S
C489 C179 1.392 . S
C508 C77 1.398 . S
C525 C213 1.391 . S
C544 C315 1.379 . S
C561 C247 1.392 . S
C580 C349 1.380 . S
C597 C281 1.391 . S
C616 C383 1.380 . S
C633 C107 0.381 . S
C652 C5 0.282 . S
C669 C39 0.391 . S
C688 C141 0.406 . S
C705 C175 0.356 . S
C724 C73 0.441 . S
C741 C209 0.373 . S
C760 C311 0.279 . S
C777 C345 0.363 . S
C796 C243 0.306 . S
C813 C277 0.365 . S
C832 C379 0.300 . S
C849 C274 1.172 . S
C868 C2 1.154 . S
C885 C36 1.183 . S
C904 C308 1.182 . S
C921 C70 1.177 . S
C940 C342 1.154 . S
C957 C104 1.176 . S
C976 C376 1.188 . S
C993 C138 1.172 . S
C1012 C206 1.160 . S
C1029 C240 1.178 . S
C1048 C172 1.197 . S
C1065 C360 1.669 . S
C1084 C20 1.671 . S
C1101 C394 1.668 . S
C1120 C54 1.663 . S
C1137 C224 1.669 . S
C1156 C88 1.671 . S
C1173 C258 1.668 . S
C1192 C122 1.658 . S
C1209 C156 1.670 . S
C1228 C292 1.674 . S
C1245 C190 1.668 . S
C1264 C326 1.660 . S
C1281 C407 0.944 . S
C1300 C33 0.981 . S
C1317 C237 0.940 . S
C1336 C67 0.986 . S
C1353 C101 0.938 . S
C1372 C271 0.963 . S
C1389 C305 0.948 . S
C1408 C135 0.969 . S
C1425 C339 0.953 . S
C1444 C169 0.941 . S
C1461 C373 0.948 . S
C1480 C203 0.973 . S
