# Generated by pormake.
# Topology umb, (4)-cn, num edge types: 1
# Building blocks:
#     Node 0, Type 0, BuildingBlock: KOZSID_clean_sbu_0, # of connection points: 4
#     Node 1, Type 0, BuildingBlock: KOZSID_clean_sbu_0, # of connection points: 4
#     Node 2, Type 0, BuildingBlock: KOZSID_clean_sbu_0, # of connection points: 4
#     Node 3, Type 0, BuildingBlock: KOZSID_clean_sbu_0, # of connection points: 4
#     Node 4, Type 0, BuildingBlock: KOZSID_clean_sbu_0, # of connection points: 4
#     Node 5, Type 0, BuildingBlock: KOZSID_clean_sbu_0, # of connection points: 4
#     Node 6, Type 0, BuildingBlock: KOZSID_clean_sbu_0, # of connection points: 4
#     Node 7, Type 0, BuildingBlock: KOZSID_clean_sbu_0, # of connection points: 4
#     Node 8, Type 0, BuildingBlock: KOZSID_clean_sbu_0, # of connection points: 4
#     Node 9, Type 0, BuildingBlock: KOZSID_clean_sbu_0, # of connection points: 4
#     Node 10, Type 0, BuildingBlock: KOZSID_clean_sbu_0, # of connection points: 4
#     Node 11, Type 0, BuildingBlock: KOZSID_clean_sbu_0, # of connection points: 4
#     Edge 12, Type (0, 0), BuildingBlock: XUDNAN_clean_linker_2, # of connection points: 2
#     Edge 13, Type (0, 0), BuildingBlock: XUDNAN_clean_linker_2, # of connection points: 2
#     Edge 14, Type (0, 0), BuildingBlock: XUDNAN_clean_linker_2, # of connection points: 2
#     Edge 15, Type (0, 0), BuildingBlock: XUDNAN_clean_linker_2, # of connection points: 2
#     Edge 16, Type (0, 0), BuildingBlock: XUDNAN_clean_linker_2, # of connection points: 2
#     Edge 17, Type (0, 0), BuildingBlock: XUDNAN_clean_linker_2, # of connection points: 2
#     Edge 18, Type (0, 0), BuildingBlock: XUDNAN_clean_linker_2, # of connection points: 2
#     Edge 19, Type (0, 0), BuildingBlock: XUDNAN_clean_linker_2, # of connection points: 2
#     Edge 20, Type (0, 0), BuildingBlock: XUDNAN_clean_linker_2, # of connection points: 2
#     Edge 21, Type (0, 0), BuildingBlock: XUDNAN_clean_linker_2, # of connection points: 2
#     Edge 22, Type (0, 0), BuildingBlock: XUDNAN_clean_linker_2, # of connection points: 2
#     Edge 23, Type (0, 0), BuildingBlock: XUDNAN_clean_linker_2, # of connection points: 2
#     Edge 24, Type (0, 0), BuildingBlock: XUDNAN_clean_linker_2, # of connection points: 2
#     Edge 25, Type (0, 0), BuildingBlock: XUDNAN_clean_linker_2, # of connection points: 2
#     Edge 26, Type (0, 0), BuildingBlock: XUDNAN_clean_linker_2, # of connection points: 2
#     Edge 27, Type (0, 0), BuildingBlock: XUDNAN_clean_linker_2, # of connection points: 2
#     Edge 28, Type (0, 0), BuildingBlock: XUDNAN_clean_linker_2, # of connection points: 2
#     Edge 29, Type (0, 0), BuildingBlock: XUDNAN_clean_linker_2, # of connection points: 2
#     Edge 30, Type (0, 0), BuildingBlock: XUDNAN_clean_linker_2, # of connection points: 2
#     Edge 31, Type (0, 0), BuildingBlock: XUDNAN_clean_linker_2, # of connection points: 2
#     Edge 32, Type (0, 0), BuildingBlock: XUDNAN_clean_linker_2, # of connection points: 2
#     Edge 33, Type (0, 0), BuildingBlock: XUDNAN_clean_linker_2, # of connection points: 2
#     Edge 34, Type (0, 0), BuildingBlock: XUDNAN_clean_linker_2, # of connection points: 2
#     Edge 35, Type (0, 0), BuildingBlock: XUDNAN_clean_linker_2, # of connection points: 2
# Relax obj value: 0.206
# Max RMSD: 0.233
# Mean RMSD: 0.232
data_MOF--net-umb--node1-KOZSID_clean_sbu_0--edge1-XUDNAN_clean_linker_2
_symmetry_space_group_name_H-M    P1
_symmetry_Int_Tables_number       1
_symmetry_cell_setting            triclinic
loop_
_symmetry_equiv_pos_as_xyz
'x, y, z'
_cell_length_a     61.382613
_cell_length_b     61.565253
_cell_length_c     42.158612
_cell_angle_alpha  89.974203
_cell_angle_beta   89.902683
_cell_angle_gamma 119.96375
loop_
_atom_site_label
_atom_site_type_symbol
_atom_site_fract_x
_atom_site_fract_y
_atom_site_fract_z
_atom_type_partial_charge
C0 C 0.57672 0.20612 0.25017 0.0
C1 C 0.5944 0.20952 0.22726 0.0
C2 C 0.60822 0.19934 0.2393 0.0
C3 C 0.59842 0.19035 0.26894 0.0
N4 N 0.57919 0.19409 0.27591 0.0
Co5 Co 0.56197 0.18744 0.3175 0.0
N6 N 0.59041 0.18818 0.3405 0.0
C7 C 0.60826 0.18468 0.32684 0.0
C8 C 0.625 0.18481 0.34853 0.0
C9 C 0.61696 0.18833 0.37755 0.0
C10 C 0.59571 0.19029 0.37203 0.0
N11 N 0.5445 0.18151 0.35897 0.0
C12 C 0.55365 0.18487 0.38907 0.0
C13 C 0.53447 0.17868 0.41094 0.0
C14 C 0.51269 0.17058 0.3939 0.0
C15 C 0.51964 0.17242 0.36259 0.0
N16 N 0.53387 0.18698 0.294 0.0
C17 C 0.51 0.17667 0.30417 0.0
C18 C 0.49543 0.18166 0.28396 0.0
C19 C 0.51131 0.19631 0.26004 0.0
C20 C 0.53481 0.19958 0.26699 0.0
N21 N 0.54754 0.15049 0.3121 0.0
C22 C 0.53692 0.1 0.30647 0.0
C23 C 0.54102 0.11185 0.33597 0.0
C24 C 0.54635 0.13667 0.33824 0.0
C25 C 0.53643 0.11358 0.27977 0.0
C26 C 0.54171 0.13876 0.28311 0.0
N27 N 0.57686 0.22355 0.32336 0.0
C28 C 0.57332 0.26006 0.33444 0.0
C29 C 0.59877 0.27564 0.32691 0.0
C30 C 0.61306 0.26457 0.31847 0.0
C31 C 0.60185 0.23866 0.31702 0.0
C32 C 0.56267 0.23398 0.3324 0.0
H33 H 0.61344 0.23085 0.3103 0.0
H34 H 0.54295 0.22227 0.33772 0.0
H35 H 0.55093 0.14494 0.36143 0.0
H36 H 0.54216 0.14906 0.2621 0.0
C37 C 0.61066 0.18513 0.29352 0.0
C38 C 0.55761 0.21415 0.24734 0.0
C39 C 0.57972 0.1916 0.39742 0.0
C40 C 0.50441 0.16966 0.33621 0.0
H41 H 0.59761 0.21904 0.20472 0.0
H42 H 0.62477 0.20033 0.22871 0.0
H43 H 0.64144 0.18314 0.34381 0.0
H44 H 0.62548 0.18889 0.40021 0.0
H45 H 0.53588 0.17967 0.43651 0.0
H46 H 0.49416 0.16484 0.40327 0.0
H47 H 0.47614 0.17712 0.28756 0.0
H48 H 0.50639 0.2043 0.24034 0.0
H49 H 0.54116 0.10228 0.35747 0.0
H50 H 0.53324 0.10532 0.25637 0.0
H51 H 0.56173 0.26794 0.34145 0.0
H52 H 0.63299 0.27587 0.31342 0.0
C53 C 0.37236 0.56631 0.58426 0.0
C54 C 0.3839 0.58254 0.559 0.0
C55 C 0.40828 0.59901 0.56815 0.0
C56 C 0.41057 0.59189 0.59834 0.0
N57 N 0.38917 0.57191 0.6084 0.0
Co58 Co 0.3844 0.5563 0.65079 0.0
N59 N 0.4123 0.58683 0.67044 0.0
C60 C 0.43059 0.60601 0.65399 0.0
C61 C 0.44549 0.62595 0.67323 0.0
C62 C 0.43614 0.61865 0.70349 0.0
C63 C 0.41614 0.59422 0.70152 0.0
N64 N 0.37918 0.54007 0.69264 0.0
C65 C 0.38883 0.55011 0.72134 0.0
C66 C 0.38518 0.53131 0.74268 0.0
C67 C 0.37188 0.50891 0.72704 0.0
C68 C 0.36878 0.51522 0.69687 0.0
N69 N 0.35612 0.52609 0.63148 0.0
C70 C 0.34553 0.50283 0.64384 0.0
C71 C 0.32284 0.48682 0.63021 0.0
C72 C 0.31905 0.50081 0.60794 0.0
C73 C 0.3403 0.52463 0.60783 0.0
N74 N 0.40853 0.54464 0.64013 0.0
C75 C 0.44483 0.52968 0.62676 0.0
C76 C 0.42713 0.52783 0.60381 0.0
C77 C 0.40912 0.53509 0.61103 0.0
C78 C 0.44341 0.53921 0.65651 0.0
C79 C 0.42577 0.54686 0.66239 0.0
N80 N 0.36147 0.56857 0.66168 0.0
C81 C 0.32246 0.56319 0.68264 0.0
C82 C 0.32995 0.58804 0.67457 0.0
C83 C 0.35331 0.60283 0.66034 0.0
C84 C 0.36869 0.59284 0.65418 0.0
C85 C 0.33867 0.55376 0.676 0.0
H86 H 0.3865 0.60494 0.6431 0.0
H87 H 0.33284 0.53459 0.68219 0.0
H88 H 0.39584 0.53328 0.59295 0.0
H89 H 0.4263 0.5547 0.68536 0.0
C90 C 0.42934 0.60672 0.62056 0.0
C91 C 0.34588 0.5451 0.58429 0.0
C92 C 0.40232 0.57726 0.72881 0.0
C93 C 0.35341 0.49868 0.6733 0.0
H94 H 0.37554 0.58275 0.53651 0.0
H95 H 0.42209 0.61523 0.55508 0.0
H96 H 0.46032 0.64431 0.66595 0.0
H97 H 0.44315 0.63065 0.72391 0.0
H98 H 0.39149 0.53349 0.76702 0.0
H99 H 0.36492 0.49031 0.73672 0.0
H100 H 0.30942 0.46794 0.6377 0.0
H101 H 0.30183 0.49406 0.59475 0.0
H102 H 0.42716 0.52113 0.58013 0.0
H103 H 0.45566 0.54071 0.67578 0.0
H104 H 0.30444 0.55132 0.69388 0.0
H105 H 0.35969 0.62216 0.65396 0.0
C106 C 0.81058 0.38059 0.91239 0.0
C107 C 0.80987 0.39616 0.88901 0.0
C108 C 0.81809 0.4193 0.90277 0.0
C109 C 0.82455 0.41711 0.93331 0.0
N110 N 0.82116 0.39424 0.93911 0.0
Co111 Co 0.83184 0.3847 0.97823 0.0
N112 N 0.82958 0.41027 1.00426 0.0
C113 C 0.82857 0.43 0.99219 0.0
C114 C 0.8224 0.442 0.01483 0.0
C115 C 0.82002 0.42937 0.04272 0.0
C116 C 0.82593 0.41075 0.03615 0.0
N117 N 0.8427 0.37474 0.01681 0.0
C118 C 0.84259 0.38121 0.04764 0.0
C119 C 0.85771 0.37489 0.06551 0.0
C120 C 0.86655 0.36344 0.04543 0.0
C121 C 0.85705 0.36386 0.01619 0.0
N122 N 0.83347 0.35896 0.95201 0.0
C123 C 0.8485 0.34947 0.95791 0.0
C124 C 0.84688 0.33306 0.93469 0.0
C125 C 0.82952 0.33217 0.91319 0.0
C126 C 0.82077 0.34748 0.92497 0.0
N127 N 0.86778 0.4096 0.96892 0.0
C128 C 0.9192 0.44647 0.95737 0.0
C129 C 0.90309 0.43131 0.93278 0.0
C130 C 0.87776 0.41301 0.93904 0.0
C131 C 0.90844 0.44233 0.98782 0.0
C132 C 0.88306 0.42436 0.99292 0.0
N133 N 0.79671 0.36084 0.98771 0.0
C134 C 0.76332 0.3192 1.00054 0.0
C135 C 0.74569 0.32709 0.99675 0.0
C136 C 0.754 0.35202 0.98886 0.0
C137 C 0.77946 0.36852 0.98441 0.0
C138 C 0.78896 0.33654 0.99603 0.0
H139 H 0.78513 0.38748 0.9777 0.0
H140 H 0.80249 0.33033 0.99873 0.0
H141 H 0.86615 0.40177 0.91961 0.0
H142 H 0.87588 0.42254 0.01667 0.0
C143 C 0.82795 0.43311 0.95902 0.0
C144 C 0.8029 0.35352 0.90867 0.0
C145 C 0.83051 0.39543 0.06009 0.0
C146 C 0.85978 0.35304 0.98798 0.0
H147 H 0.80403 0.39143 0.8646 0.0
H148 H 0.81825 0.43537 0.8921 0.0
H149 H 0.81821 0.45693 0.01117 0.0
H150 H 0.81342 0.43309 0.06459 0.0
H151 H 0.86268 0.37886 0.09026 0.0
H152 H 0.87865 0.35596 0.05146 0.0
H153 H 0.85658 0.32244 0.93384 0.0
H154 H 0.82455 0.32195 0.89106 0.0
H155 H 0.90969 0.43359 0.90856 0.0
H156 H 0.91947 0.45265 1.00813 0.0
H157 H 0.75737 0.29996 1.00679 0.0
H158 H 0.74077 0.35866 0.98582 0.0
C159 C 0.44597 0.8087 0.24616 0.0
C160 C 0.42628 0.80184 0.2251 0.0
C161 C 0.41076 0.80944 0.23818 0.0
C162 C 0.42161 0.82041 0.26655 0.0
N163 N 0.44363 0.82102 0.27179 0.0
Co164 Co 0.46327 0.83093 0.31241 0.0
N165 N 0.43573 0.83221 0.33659 0.0
C166 C 0.41433 0.8297 0.32403 0.0
C167 C 0.39859 0.83087 0.34625 0.0
C168 C 0.41058 0.83414 0.37468 0.0
C169 C 0.43304 0.8347 0.36828 0.0
N170 N 0.48289 0.84004 0.35292 0.0
C171 C 0.47599 0.84171 0.38315 0.0
C172 C 0.49538 0.84718 0.40432 0.0
C173 C 0.51515 0.84933 0.38692 0.0
C174 C 0.5068 0.84484 0.35621 0.0
N175 N 0.49031 0.82865 0.28832 0.0
C176 C 0.51363 0.83553 0.29888 0.0
C177 C 0.52696 0.82897 0.27871 0.0
C178 C 0.51084 0.81627 0.25443 0.0
C179 C 0.48848 0.81572 0.26124 0.0
N180 N 0.47849 0.86804 0.30194 0.0
C181 C 0.49841 0.92145 0.29885 0.0
C182 C 0.51389 0.91092 0.30381 0.0
C183 C 0.50374 0.8847 0.30529 0.0
C184 C 0.47301 0.90436 0.29302 0.0
C185 C 0.46374 0.87828 0.29417 0.0
N186 N 0.44813 0.79498 0.32291 0.0
C187 C 0.45181 0.75861 0.33568 0.0
C188 C 0.42622 0.74283 0.32947 0.0
C189 C 0.41169 0.75367 0.32166 0.0
C190 C 0.42286 0.77949 0.31876 0.0
C191 C 0.46241 0.78466 0.33218 0.0
H192 H 0.41076 0.78653 0.31238 0.0
H193 H 0.4822 0.79617 0.33638 0.0
H194 H 0.51682 0.87852 0.30962 0.0
H195 H 0.44434 0.86699 0.28919 0.0
C196 C 0.40885 0.82436 0.29162 0.0
C197 C 0.46553 0.80155 0.24229 0.0
C198 C 0.45139 0.83813 0.39302 0.0
C199 C 0.52004 0.84261 0.33054 0.0
H200 H 0.42265 0.79112 0.2035 0.0
H201 H 0.3925 0.80528 0.22942 0.0
H202 H 0.38031 0.82901 0.34234 0.0
H203 H 0.4035 0.83577 0.39756 0.0
H204 H 0.49521 0.84902 0.42982 0.0
H205 H 0.53318 0.85288 0.39578 0.0
H206 H 0.54539 0.83117 0.28257 0.0
H207 H 0.51463 0.80726 0.23486 0.0
H208 H 0.53397 0.92278 0.30688 0.0
H209 H 0.45986 0.91086 0.28853 0.0
H210 H 0.4636 0.75091 0.3424 0.0
H211 H 0.39163 0.7422 0.31774 0.0
C212 C 0.64945 0.4458 0.5848 0.0
C213 C 0.63598 0.42852 0.56131 0.0
C214 C 0.61159 0.41457 0.57221 0.0
C215 C 0.61138 0.42411 0.60166 0.0
N216 N 0.63408 0.44326 0.60957 0.0
Co217 Co 0.64271 0.46112 0.6506 0.0
N218 N 0.61388 0.43317 0.6729 0.0
C219 C 0.59322 0.41505 0.65852 0.0
C220 C 0.57606 0.39831 0.67986 0.0
C221 C 0.58657 0.40664 0.70935 0.0
C222 C 0.60965 0.42809 0.70444 0.0
N223 N 0.65207 0.47909 0.69167 0.0
C224 C 0.64513 0.47021 0.7217 0.0
C225 C 0.65607 0.48963 0.74348 0.0
C226 C 0.67019 0.51128 0.72633 0.0
C227 C 0.66709 0.50396 0.69508 0.0
N228 N 0.67151 0.48889 0.62787 0.0
C229 C 0.68451 0.51275 0.63798 0.0
C230 C 0.70526 0.52711 0.61943 0.0
C231 C 0.70537 0.51124 0.59655 0.0
C232 C 0.68441 0.48787 0.60201 0.0
N233 N 0.6208 0.47559 0.64096 0.0
C234 C 0.584 0.48945 0.62739 0.0
C235 C 0.58811 0.48415 0.65841 0.0
C236 C 0.60622 0.47712 0.6646 0.0
C237 C 0.59955 0.48853 0.6034 0.0
C238 C 0.61798 0.48194 0.6107 0.0
N239 N 0.66359 0.44635 0.66037 0.0
C240 C 0.70329 0.45026 0.67517 0.0
C241 C 0.69349 0.42467 0.6697 0.0
C242 C 0.66852 0.41009 0.66016 0.0
C243 C 0.65391 0.42124 0.65565 0.0
C244 C 0.68789 0.46078 0.67051 0.0
H245 H 0.63484 0.40956 0.64775 0.0
H246 H 0.69568 0.48058 0.67461 0.0
H247 H 0.60765 0.472 0.6886 0.0
H248 H 0.62945 0.48124 0.5917 0.0
C249 C 0.59278 0.41217 0.62526 0.0
C250 C 0.67657 0.46496 0.58258 0.0
C251 C 0.62641 0.44412 0.72999 0.0
C252 C 0.68104 0.51875 0.6691 0.0
H253 H 0.64316 0.426 0.53898 0.0
H254 H 0.59633 0.39834 0.56087 0.0
H255 H 0.55843 0.38153 0.67462 0.0
H256 H 0.57817 0.398 0.73182 0.0
H257 H 0.65379 0.4883 0.769 0.0
H258 H 0.68197 0.52996 0.73566 0.0
H259 H 0.71988 0.54627 0.62365 0.0
H260 H 0.7199 0.51645 0.57895 0.0
H261 H 0.57657 0.48429 0.67779 0.0
H262 H 0.59738 0.49271 0.57904 0.0
H263 H 0.72257 0.46195 0.68281 0.0
H264 H 0.66042 0.39016 0.6559 0.0
C265 C 0.20782 0.64557 0.91661 0.0
C266 C 0.20915 0.6313 0.89201 0.0
C267 C 0.1974 0.6068 0.90251 0.0
C268 C 0.18923 0.60726 0.93279 0.0
N269 N 0.19495 0.63048 0.94157 0.0
Co270 Co 0.18748 0.63963 0.98345 0.0
N271 N 0.18481 0.60963 1.00462 0.0
C272 C 0.18048 0.58864 0.98938 0.0
C273 C 0.17843 0.57033 0.00987 0.0
C274 C 0.18134 0.58039 0.03977 0.0
C275 C 0.18508 0.60442 0.03598 0.0
N276 N 0.18056 0.64954 0.02534 0.0
C277 C 0.18194 0.64172 0.05504 0.0
C278 C 0.17588 0.65438 0.07753 0.0
C279 C 0.16982 0.66991 0.06124 0.0
C280 C 0.17271 0.66616 0.0298 0.0
N281 N 0.19042 0.66967 0.96182 0.0
C282 C 0.18143 0.68406 0.97324 0.0
C283 C 0.19014 0.70597 0.9566 0.0
C284 C 0.20571 0.70547 0.93365 0.0
C285 C 0.20521 0.6827 0.93656 0.0
N286 N 0.15065 0.61985 0.97473 0.0
C287 C 0.09941 0.58437 0.96149 0.0
C288 C 0.10908 0.58791 0.99236 0.0
C289 C 0.13445 0.60543 0.99839 0.0
C290 C 0.11592 0.6001 0.93763 0.0
C291 C 0.14122 0.61783 0.94476 0.0
N292 N 0.22356 0.65818 0.99211 0.0
C293 C 0.26164 0.69627 1.00551 0.0
C294 C 0.27602 0.68516 0.99731 0.0
C295 C 0.26345 0.66003 0.98784 0.0
C296 C 0.23741 0.64695 0.9855 0.0
C297 C 0.23536 0.68242 1.00272 0.0
H298 H 0.22852 0.62782 0.97752 0.0
H299 H 0.22463 0.69143 1.0084 0.0
H300 H 0.14112 0.60635 0.02222 0.0
H301 H 0.1534 0.62925 0.92576 0.0
C302 C 0.18192 0.58832 0.95595 0.0
C303 C 0.21826 0.67323 0.9154 0.0
C304 C 0.18607 0.62059 0.06259 0.0
C305 C 0.17263 0.68087 1.00453 0.0
H306 H 0.21808 0.63796 0.86915 0.0
H307 H 0.19641 0.5909 0.89024 0.0
H308 H 0.17568 0.55205 1.00383 0.0
H309 H 0.18033 0.57096 0.06186 0.0
H310 H 0.17553 0.6524 0.10306 0.0
H311 H 0.16483 0.68303 0.07122 0.0
H312 H 0.1879 0.72183 0.96271 0.0
H313 H 0.21712 0.72121 0.9186 0.0
H314 H 0.09744 0.57631 0.01169 0.0
H315 H 0.10945 0.59854 0.91342 0.0
H316 H 0.27061 0.71559 0.01328 0.0
H317 H 0.27368 0.65038 0.98227 0.0
C318 C 0.81526 0.43999 0.44101 0.0
C319 C 0.8153 0.42628 0.46718 0.0
C320 C 0.82255 0.4097 0.45644 0.0
C321 C 0.82761 0.41488 0.42468 0.0
N322 N 0.82431 0.4338 0.41523 0.0
Co323 Co 0.83325 0.44952 0.37289 0.0
N324 N 0.8295 0.41896 0.35244 0.0
C325 C 0.82739 0.39897 0.36825 0.0
C326 C 0.81877 0.37827 0.34921 0.0
C327 C 0.81607 0.38604 0.31967 0.0
C328 C 0.82455 0.41162 0.32156 0.0
N329 N 0.84301 0.466 0.33084 0.0
C330 C 0.84267 0.45641 0.30153 0.0
C331 C 0.85719 0.47591 0.2806 0.0
C332 C 0.86592 0.49797 0.29701 0.0
C333 C 0.85699 0.49106 0.32731 0.0
N334 N 0.83562 0.4794 0.39381 0.0
C335 C 0.84989 0.50298 0.38353 0.0
C336 C 0.8486 0.52 0.40341 0.0
C337 C 0.8322 0.50597 0.42738 0.0
C338 C 0.82359 0.48094 0.42033 0.0
N339 N 0.8694 0.46106 0.38119 0.0
C340 C 0.92086 0.47561 0.39206 0.0
C341 C 0.90836 0.4635 0.364 0.0
C342 C 0.88313 0.45671 0.35899 0.0
C343 C 0.90658 0.48036 0.41451 0.0
C344 C 0.88106 0.47283 0.40878 0.0
N345 N 0.79789 0.4379 0.3644 0.0
C346 C 0.76508 0.4451 0.34518 0.0
C347 C 0.747 0.42098 0.35481 0.0
C348 C 0.75474 0.4055 0.36901 0.0
C349 C 0.78021 0.41422 0.37342 0.0
C350 C 0.79059 0.45331 0.3504 0.0
H351 H 0.78555 0.40178 0.38436 0.0
H352 H 0.8044 0.47211 0.34337 0.0
H353 H 0.87472 0.44756 0.33695 0.0
H354 H 0.87071 0.47645 0.42675 0.0
C355 C 0.82865 0.3989 0.40167 0.0
C356 C 0.80698 0.45898 0.44083 0.0
C357 C 0.83115 0.42917 0.29379 0.0
C358 C 0.86013 0.50734 0.35271 0.0
H359 H 0.80981 0.42748 0.49122 0.0
H360 H 0.82253 0.39466 0.46979 0.0
H361 H 0.81352 0.35937 0.3563 0.0
H362 H 0.80844 0.37386 0.29936 0.0
H363 H 0.8622 0.47464 0.25638 0.0
H364 H 0.87774 0.51678 0.28799 0.0
H365 H 0.85797 0.54015 0.40056 0.0
H366 H 0.82817 0.51363 0.44814 0.0
H367 H 0.9177 0.45867 0.3459 0.0
H368 H 0.91494 0.48998 0.43646 0.0
H369 H 0.75957 0.45743 0.33389 0.0
H370 H 0.74113 0.38661 0.37639 0.0
C371 C 0.37594 0.81115 0.76636 0.0
C372 C 0.38946 0.81013 0.79212 0.0
C373 C 0.41433 0.82174 0.78289 0.0
C374 C 0.41482 0.82953 0.75217 0.0
N375 N 0.39185 0.82373 0.7419 0.0
Co376 Co 0.38403 0.83082 0.699 0.0
N377 N 0.41486 0.83351 0.68004 0.0
C378 C 0.43533 0.83783 0.6967 0.0
C379 C 0.45442 0.83984 0.67761 0.0
C380 C 0.44548 0.83698 0.6471 0.0
C381 C 0.42133 0.83344 0.64914 0.0
N382 N 0.37539 0.83732 0.65602 0.0
C383 C 0.38457 0.83631 0.62701 0.0
C384 C 0.37337 0.84317 0.60343 0.0
C385 C 0.35699 0.84891 0.61828 0.0
C386 C 0.35904 0.8453 0.65002 0.0
N387 N 0.35319 0.82797 0.71848 0.0
C388 C 0.33912 0.8368 0.70554 0.0
C389 C 0.31663 0.82822 0.72096 0.0
C390 C 0.31643 0.81291 0.74472 0.0
C391 C 0.33934 0.81341 0.74347 0.0
N392 N 0.40354 0.86763 0.70734 0.0
C393 C 0.43912 0.91871 0.72059 0.0
C394 C 0.43619 0.90885 0.68992 0.0
C395 C 0.41862 0.88357 0.68389 0.0
C396 C 0.42269 0.90252 0.74419 0.0
C397 C 0.40491 0.87729 0.73703 0.0
N398 N 0.36574 0.79475 0.69077 0.0
C399 C 0.32768 0.75657 0.67761 0.0
C400 C 0.33855 0.74229 0.68726 0.0
C401 C 0.36366 0.75499 0.69719 0.0
C402 C 0.37682 0.78102 0.69875 0.0
C403 C 0.34164 0.78283 0.67946 0.0
H404 H 0.39586 0.79 0.70733 0.0
H405 H 0.33276 0.79345 0.67263 0.0
H406 H 0.41827 0.87677 0.6603 0.0
H407 H 0.39296 0.86533 0.75584 0.0
C408 C 0.43454 0.83661 0.73015 0.0
C409 C 0.34818 0.80062 0.76598 0.0
C410 C 0.40614 0.83247 0.6213 0.0
C411 C 0.34342 0.84547 0.67414 0.0
H412 H 0.38206 0.80148 0.81492 0.0
H413 H 0.42988 0.82289 0.79633 0.0
H414 H 0.47249 0.84253 0.68495 0.0
H415 H 0.45573 0.83786 0.62578 0.0
H416 H 0.37711 0.84452 0.57819 0.0
H417 H 0.34466 0.85449 0.60717 0.0
H418 H 0.30094 0.83041 0.71359 0.0
H419 H 0.3002 0.8017 0.75921 0.0
H420 H 0.44834 0.92024 0.6708 0.0
H421 H 0.42377 0.90916 0.76822 0.0
H422 H 0.30839 0.74757 0.66947 0.0
H423 H 0.37322 0.74489 0.70383 0.0
C424 C 0.5748 0.36979 0.10154 0.0
C425 C 0.59217 0.38222 0.12535 0.0
C426 C 0.60619 0.40695 0.11594 0.0
C427 C 0.59676 0.40838 0.08687 0.0
N428 N 0.57759 0.3861 0.07779 0.0
Co429 Co 0.56089 0.37875 0.03574 0.0
N430 N 0.58944 0.40809 0.01528 0.0
C431 C 0.60707 0.42829 0.03092 0.0
C432 C 0.62426 0.44621 0.01071 0.0
C433 C 0.61676 0.43669 0.98063 0.0
C434 C 0.59538 0.41331 0.98406 0.0
N435 N 0.54402 0.37048 0.99381 0.0
C436 C 0.55369 0.37825 0.96418 0.0
C437 C 0.53487 0.36687 0.94157 0.0
C438 C 0.51281 0.35218 0.95774 0.0
C439 C 0.51923 0.35508 0.98927 0.0
N440 N 0.53255 0.34947 0.0566 0.0
C441 C 0.50882 0.3368 0.04584 0.0
C442 C 0.49383 0.31612 0.06424 0.0
C443 C 0.50927 0.31574 0.08765 0.0
C444 C 0.53291 0.33619 0.0822 0.0
N445 N 0.54589 0.40025 0.04549 0.0
C446 C 0.5292 0.43526 0.05876 0.0
C447 C 0.53586 0.43186 0.02795 0.0
C448 C 0.54436 0.41486 0.02202 0.0
C449 C 0.53071 0.41985 0.08266 0.0
C450 C 0.53867 0.40241 0.07552 0.0
N451 N 0.57621 0.35834 0.02584 0.0
C452 C 0.57321 0.31928 0.01018 0.0
C453 C 0.59852 0.32866 0.01814 0.0
C454 C 0.61256 0.35346 0.02861 0.0
C455 C 0.60117 0.36792 0.03212 0.0
C456 C 0.56234 0.33445 0.01436 0.0
H457 H 0.61254 0.38678 0.04068 0.0
H458 H 0.54267 0.32673 1.00897 0.0
H459 H 0.55016 0.41401 0.99816 0.0
H460 H 0.53954 0.39107 0.0945 0.0
C461 C 0.60917 0.42763 0.06423 0.0
C462 C 0.55531 0.3428 0.10185 0.0
C463 C 0.58004 0.39762 0.95724 0.0
C464 C 0.50365 0.34065 0.01451 0.0
H465 H 0.59488 0.37429 0.14683 0.0
H466 H 0.62256 0.42163 0.1278 0.0
H467 H 0.64076 0.46374 0.01704 0.0
H468 H 0.6258 0.44599 0.9587 0.0
H469 H 0.53669 0.36883 0.91608 0.0
H470 H 0.49447 0.34004 0.94756 0.0
H471 H 0.47454 0.30186 0.05974 0.0
H472 H 0.50398 0.30171 0.10605 0.0
H473 H 0.53466 0.44221 1.00799 0.0
H474 H 0.52631 0.42136 0.10709 0.0
H475 H 0.56181 0.30027 1.00163 0.0
H476 H 0.63238 0.36175 0.03406 0.0
C477 C 0.20961 0.55889 0.4319 0.0
C478 C 0.21156 0.57267 0.45885 0.0
C479 C 0.20126 0.58745 0.45141 0.0
C480 C 0.1933 0.58179 0.42048 0.0
N481 N 0.19779 0.56424 0.40831 0.0
Co482 Co 0.19011 0.55153 0.36419 0.0
N483 N 0.18957 0.58158 0.34827 0.0
C484 C 0.1865 0.59768 0.36673 0.0
C485 C 0.18589 0.61632 0.34947 0.0
C486 C 0.18838 0.61136 0.31826 0.0
C487 C 0.19037 0.58987 0.31807 0.0
N488 N 0.18272 0.53848 0.32014 0.0
C489 C 0.18445 0.55026 0.29221 0.0
C490 C 0.17655 0.53329 0.26722 0.0
C491 C 0.16939 0.51024 0.28008 0.0
C492 C 0.17327 0.51429 0.31209 0.0
N493 N 0.19116 0.52181 0.3804 0.0
C494 C 0.18172 0.49967 0.36524 0.0
C495 C 0.19013 0.48469 0.37782 0.0
C496 C 0.20583 0.49821 0.40212 0.0
C497 C 0.20543 0.52058 0.40441 0.0
N498 N 0.15333 0.5355 0.37275 0.0
C499 C 0.10166 0.51863 0.38619 0.0
C500 C 0.11288 0.53025 0.35729 0.0
C501 C 0.13822 0.53813 0.35099 0.0
C502 C 0.11718 0.51497 0.40781 0.0
C503 C 0.14278 0.52358 0.40075 0.0
N504 N 0.22617 0.56795 0.35555 0.0
C505 C 0.2628 0.56712 0.3365 0.0
C506 C 0.27823 0.59134 0.34823 0.0
C507 C 0.26722 0.60382 0.36283 0.0
C508 C 0.24124 0.59192 0.36603 0.0
C509 C 0.23667 0.55567 0.34049 0.0
H510 H 0.23336 0.60205 0.37754 0.0
H511 H 0.225 0.53683 0.33185 0.0
H512 H 0.14569 0.54719 0.32858 0.0
H513 H 0.1542 0.52102 0.4182 0.0
C514 C 0.1875 0.59633 0.40007 0.0
C515 C 0.21803 0.54006 0.42975 0.0
C516 C 0.19037 0.57648 0.28883 0.0
C517 C 0.17261 0.49709 0.33426 0.0
H518 H 0.21983 0.57237 0.48136 0.0
H519 H 0.20109 0.60172 0.4662 0.0
H520 H 0.18432 0.63194 0.35848 0.0
H521 H 0.18826 0.62204 0.29793 0.0
H522 H 0.17558 0.53707 0.24234 0.0
H523 H 0.1629 0.49277 0.26745 0.0
H524 H 0.18761 0.4673 0.36815 0.0
H525 H 0.21727 0.49241 0.41488 0.0
H526 H 0.10255 0.53416 0.33962 0.0
H527 H 0.10979 0.50562 0.43025 0.0
H528 H 0.27085 0.55712 0.32474 0.0
H529 H 0.27869 0.62273 0.37174 0.0
C530 C 0.64354 0.20689 0.77011 0.0
C531 C 0.62996 0.21054 0.79371 0.0
C532 C 0.60549 0.1998 0.78305 0.0
C533 C 0.60535 0.19005 0.7536 0.0
N534 N 0.62817 0.19386 0.74554 0.0
Co535 Co 0.63727 0.18554 0.70415 0.0
N536 N 0.60847 0.18485 0.68214 0.0
C537 C 0.58758 0.18184 0.69662 0.0
C538 C 0.5705 0.18168 0.67541 0.0
C539 C 0.58132 0.18454 0.6459 0.0
C540 C 0.60448 0.18627 0.65068 0.0
N541 N 0.64722 0.17793 0.66281 0.0
C542 C 0.64051 0.18042 0.63293 0.0
C543 C 0.65179 0.17248 0.6108 0.0
C544 C 0.6659 0.16473 0.62761 0.0
C545 C 0.66244 0.16827 0.65901 0.0
N546 N 0.66605 0.18645 0.72665 0.0
C547 C 0.6793 0.17587 0.71626 0.0
C548 C 0.70005 0.18227 0.73478 0.0
C549 C 0.6999 0.19801 0.75785 0.0
C550 C 0.67882 0.20028 0.7525 0.0
N551 N 0.61554 0.14895 0.71263 0.0
C552 C 0.57944 0.0974 0.72402 0.0
C553 C 0.58398 0.10793 0.69344 0.0
C554 C 0.60157 0.13336 0.6884 0.0
C555 C 0.59434 0.11363 0.74868 0.0
C556 C 0.61232 0.13902 0.74247 0.0
N557 N 0.65789 0.22134 0.69544 0.0
C558 C 0.6976 0.25761 0.6821 0.0
C559 C 0.68787 0.27329 0.6896 0.0
C560 C 0.66263 0.26236 0.69869 0.0
C561 C 0.64801 0.23649 0.70131 0.0
C562 C 0.68224 0.23159 0.68526 0.0
H563 H 0.62879 0.22879 0.70887 0.0
H564 H 0.69018 0.2198 0.68015 0.0
H565 H 0.60332 0.14044 0.66462 0.0
H566 H 0.62316 0.1508 0.76201 0.0
C567 C 0.58687 0.18366 0.72997 0.0
C568 C 0.67081 0.2153 0.77187 0.0
C569 C 0.62165 0.18774 0.62508 0.0
C570 C 0.67621 0.16698 0.68489 0.0
H571 H 0.63713 0.22041 0.81588 0.0
H572 H 0.59015 0.20071 0.79445 0.0
H573 H 0.55273 0.18058 0.68076 0.0
H574 H 0.57305 0.18516 0.62352 0.0
H575 H 0.64973 0.17201 0.58528 0.0
H576 H 0.67789 0.15811 0.61797 0.0
H577 H 0.71487 0.17797 0.73036 0.0
H578 H 0.71433 0.20728 0.77549 0.0
H579 H 0.57402 0.09675 0.67304 0.0
H580 H 0.5919 0.10716 0.77295 0.0
H581 H 0.71696 0.2654 0.67457 0.0
H582 H 0.65414 0.27374 0.70376 0.0
C583 C 0.44664 0.64357 0.10461 0.0
C584 C 0.42959 0.63291 0.1293 0.0
C585 C 0.41353 0.60832 0.12097 0.0
C586 C 0.42151 0.60522 0.09164 0.0
N587 N 0.44176 0.62629 0.08144 0.0
Co588 Co 0.45735 0.63135 0.03879 0.0
N589 N 0.42675 0.60361 0.01947 0.0
C590 C 0.4069 0.58607 0.03598 0.0
C591 C 0.38608 0.57319 0.01726 0.0
C592 C 0.39352 0.58286 0.98732 0.0
C593 C 0.41909 0.60039 0.98863 0.0
N594 N 0.47355 0.63702 0.9966 0.0
C595 C 0.46359 0.62754 0.96758 0.0
C596 C 0.48283 0.63239 0.9462 0.0
C597 C 0.50517 0.64608 0.96201 0.0
C598 C 0.49863 0.64836 0.99241 0.0
N599 N 0.48748 0.65944 0.05825 0.0
C600 C 0.51105 0.66958 0.04716 0.0
C601 C 0.5276 0.69046 0.06417 0.0
C602 C 0.51331 0.69357 0.08709 0.0
C603 C 0.4888 0.67442 0.08274 0.0
N604 N 0.46923 0.60731 0.04885 0.0
C605 C 0.48406 0.57107 0.06164 0.0
C606 C 0.47451 0.57245 0.03202 0.0
C607 C 0.46701 0.59023 0.02631 0.0
C608 C 0.4861 0.58855 0.08482 0.0
C609 C 0.47887 0.6066 0.07788 0.0
N610 N 0.44515 0.65439 0.02845 0.0
C611 C 0.41157 0.66365 0.03099 0.0
C612 C 0.42678 0.68696 0.01695 0.0
C613 C 0.4514 0.69379 1.00824 0.0
C614 C 0.4603 0.67712 0.0143 0.0
C615 C 0.421 0.64769 0.03639 0.0
H616 H 0.47941 0.68262 1.00788 0.0
H617 H 0.40866 0.62996 0.04737 0.0
H618 H 0.459 0.58976 1.00347 0.0
H619 H 0.4808 0.6198 0.09609 0.0
C620 C 0.40632 0.58698 0.06935 0.0
C621 C 0.46726 0.66998 0.10303 0.0
C622 C 0.43623 0.61185 0.96052 0.0
C623 C 0.51523 0.66285 0.01681 0.0
H624 H 0.42816 0.64201 0.15047 0.0
H625 H 0.39659 0.59511 0.13342 0.0
H626 H 0.36714 0.55996 0.0249 0.0
H627 H 0.38095 0.57792 0.96735 0.0
H628 H 0.48118 0.626 0.92199 0.0
H629 H 0.52393 0.65342 0.95243 0.0
H630 H 0.54733 0.70297 0.05921 0.0
H631 H 0.52001 0.70834 0.10464 0.0
H632 H 0.47202 0.55925 0.01346 0.0
H633 H 0.49337 0.5884 0.10814 0.0
H634 H 0.39235 0.65776 0.03774 0.0
H635 H 0.46357 0.71172 0.9971 0.0
H636 H 0.56112 0.15889 0.4491 0.0
H637 H 0.61961 0.23344 0.42225 0.0
H638 H 0.63627 0.24078 0.47711 0.0
H639 H 0.55014 0.17562 0.52841 0.0
H640 H 0.54469 0.14671 0.54624 0.0
H641 H 0.53736 0.14741 0.505 0.0
H642 H 0.56591 0.12924 0.48953 0.0
H643 H 0.57336 0.12854 0.5307 0.0
H644 H 0.59825 0.14508 0.50225 0.0
H645 H 0.64728 0.23961 0.53519 0.0
H646 H 0.65117 0.23031 0.59147 0.0
H647 H 0.58486 0.15705 0.58189 0.0
C648 C 0.57717 0.17691 0.45494 0.0
C649 C 0.58879 0.19584 0.43138 0.0
C650 C 0.61024 0.21883 0.43988 0.0
C651 C 0.61983 0.22313 0.47102 0.0
C652 C 0.60783 0.20424 0.49375 0.0
C653 C 0.58689 0.18159 0.48613 0.0
C654 C 0.57761 0.16437 0.51501 0.0
C655 C 0.55086 0.15816 0.5242 0.0
C656 C 0.57886 0.14039 0.50901 0.0
C657 C 0.59663 0.18077 0.54003 0.0
C658 C 0.61394 0.2037 0.5272 0.0
C659 C 0.63367 0.22179 0.54543 0.0
C660 C 0.63575 0.21639 0.57741 0.0
C661 C 0.61815 0.19319 0.59122 0.0
C662 C 0.59835 0.17514 0.57213 0.0
H663 H 0.44159 0.61482 0.76875 0.0
H664 H 0.36293 0.55619 0.76998 0.0
H665 H 0.364 0.55653 0.82818 0.0
H666 H 0.46528 0.60645 0.83679 0.0
H667 H 0.48073 0.63802 0.85199 0.0
H668 H 0.4758 0.63264 0.80995 0.0
H669 H 0.45195 0.65732 0.80795 0.0
H670 H 0.45753 0.66355 0.84982 0.0
H671 H 0.42591 0.64894 0.83458 0.0
H672 H 0.38147 0.55439 0.88405 0.0
H673 H 0.40102 0.56477 0.93646 0.0
H674 H 0.45423 0.63969 0.90345 0.0
C675 C 0.42387 0.60317 0.78032 0.0
C676 C 0.40237 0.58461 0.76352 0.0
C677 C 0.3802 0.56958 0.78162 0.0
C678 C 0.38051 0.56962 0.81489 0.0
C679 C 0.40231 0.58693 0.83036 0.0
C680 C 0.42266 0.60504 0.81376 0.0
C681 C 0.44186 0.6241 0.83692 0.0
C682 C 0.46743 0.62537 0.83369 0.0
C683 C 0.44447 0.65002 0.83203 0.0
C684 C 0.42957 0.6128 0.86887 0.0
C685 C 0.40761 0.59047 0.86419 0.0
C686 C 0.39684 0.57312 0.88868 0.0
C687 C 0.40767 0.57957 0.91902 0.0
C688 C 0.42712 0.60429 0.92627 0.0
C689 C 0.43849 0.62099 0.90004 0.0
H690 H 0.82289 0.44752 0.23593 0.0
H691 H 0.84373 0.39408 0.27076 0.0
H692 H 0.83645 0.37519 0.21801 0.0
H693 H 0.78718 0.41985 0.16653 0.0
H694 H 0.80518 0.44599 0.14033 0.0
H695 H 0.80385 0.45128 0.18217 0.0
H696 H 0.85243 0.47436 0.18564 0.0
H697 H 0.85386 0.4698 0.14364 0.0
H698 H 0.86905 0.45913 0.17107 0.0
H699 H 0.81812 0.35812 0.16078 0.0
H700 H 0.81595 0.35671 0.10249 0.0
H701 H 0.8372 0.43553 0.10193 0.0
C702 C 0.82619 0.43196 0.23285 0.0
C703 C 0.8308 0.42046 0.2595 0.0
C704 C 0.83631 0.40105 0.25273 0.0
C705 C 0.83299 0.39055 0.22224 0.0
C706 C 0.82723 0.40156 0.19723 0.0
C707 C 0.82648 0.42335 0.20175 0.0
C708 C 0.82798 0.43572 0.16976 0.0
C709 C 0.80465 0.43836 0.1644 0.0
C710 C 0.85228 0.46127 0.16738 0.0
C711 C 0.82838 0.41671 0.14678 0.0
C712 C 0.82613 0.3964 0.16329 0.0
C713 C 0.82155 0.37462 0.14759 0.0
C714 C 0.82057 0.37413 0.11422 0.0
C715 C 0.82684 0.39602 0.09609 0.0
C716 C 0.83091 0.41775 0.11333 0.0
H717 H 0.417 0.80367 0.43607 0.0
H718 H 0.47567 0.88134 0.42745 0.0
H719 H 0.47119 0.88787 0.48448 0.0
H720 H 0.37802 0.81519 0.49207 0.0
H721 H 0.36835 0.7867 0.5141 0.0
H722 H 0.37601 0.78819 0.47258 0.0
H723 H 0.40868 0.77464 0.48578 0.0
H724 H 0.40128 0.77334 0.52736 0.0
H725 H 0.43326 0.79258 0.51396 0.0
H726 H 0.46144 0.88574 0.54316 0.0
H727 H 0.44497 0.87593 0.59811 0.0
H728 H 0.39144 0.79999 0.56976 0.0
C729 C 0.42873 0.82207 0.44624 0.0
C730 C 0.44691 0.84199 0.42729 0.0
C731 C 0.46181 0.86581 0.44148 0.0
C732 C 0.4594 0.86966 0.47391 0.0
C733 C 0.44172 0.84959 0.4921 0.0
C734 C 0.42639 0.82631 0.47874 0.0
C735 C 0.40868 0.80805 0.5037 0.0
C736 C 0.38113 0.799 0.4951 0.0
C737 C 0.41325 0.78584 0.50794 0.0
C738 C 0.41659 0.8246 0.53316 0.0
C739 C 0.4358 0.84847 0.52587 0.0
C740 C 0.44642 0.8671 0.54904 0.0
C741 C 0.43707 0.86134 0.58027 0.0
C742 C 0.41724 0.83714 0.58838 0.0
C743 C 0.40686 0.81856 0.56437 0.0
H744 H 0.56338 0.4135 0.90512 0.0
H745 H 0.62067 0.39606 0.93372 0.0
H746 H 0.63857 0.40579 0.87938 0.0
H747 H 0.55357 0.38618 0.8261 0.0
H748 H 0.54873 0.40988 0.80774 0.0
H749 H 0.54073 0.40194 0.84891 0.0
H750 H 0.56946 0.44846 0.86439 0.0
H751 H 0.57757 0.45653 0.8233 0.0
H752 H 0.60199 0.46453 0.85225 0.0
H753 H 0.65058 0.4179 0.82127 0.0
H754 H 0.65527 0.43081 0.76478 0.0
H755 H 0.58938 0.43896 0.77255 0.0
C756 C 0.57945 0.41134 0.8998 0.0
C757 C 0.59032 0.40347 0.92373 0.0
C758 C 0.61186 0.40177 0.91587 0.0
C759 C 0.62214 0.40726 0.88499 0.0
C760 C 0.61077 0.41454 0.86185 0.0
C761 C 0.58983 0.41655 0.86888 0.0
C762 C 0.58116 0.42469 0.83959 0.0
C763 C 0.55446 0.40447 0.83002 0.0
C764 C 0.58264 0.45006 0.84523 0.0
C765 C 0.60046 0.42701 0.81502 0.0
C766 C 0.61744 0.42115 0.82842 0.0
C767 C 0.63726 0.42235 0.81062 0.0
C768 C 0.63979 0.42968 0.7785 0.0
C769 C 0.62256 0.43556 0.7641 0.0
C770 C 0.60265 0.43423 0.78277 0.0
H771 H 0.22374 0.59636 0.23815 0.0
H772 H 0.14742 0.57347 0.26654 0.0
H773 H 0.13789 0.58084 0.21185 0.0
H774 H 0.23115 0.64642 0.18344 0.0
H775 H 0.24961 0.64041 0.15525 0.0
H776 H 0.25054 0.63386 0.19673 0.0
H777 H 0.23783 0.5881 0.18282 0.0
H778 H 0.2365 0.5944 0.14134 0.0
H779 H 0.20945 0.56916 0.1606 0.0
H780 H 0.13571 0.58793 0.15322 0.0
H781 H 0.14239 0.59946 0.09637 0.0
H782 H 0.22075 0.62026 0.10501 0.0
C783 C 0.20521 0.59345 0.23288 0.0
C784 C 0.18638 0.58476 0.25679 0.0
C785 C 0.1622 0.58059 0.24882 0.0
C786 C 0.15659 0.58452 0.21772 0.0
C787 C 0.17538 0.59278 0.19459 0.0
C788 C 0.19936 0.59763 0.20184 0.0
C789 C 0.2161 0.60666 0.1724 0.0
C790 C 0.23816 0.63343 0.17725 0.0
C791 C 0.22553 0.58849 0.16379 0.0
C792 C 0.19781 0.60606 0.14751 0.0
C793 C 0.17433 0.59767 0.16087 0.0
C794 C 0.15409 0.59482 0.14269 0.0
C795 C 0.15802 0.60132 0.11036 0.0
C796 C 0.1821 0.61105 0.09629 0.0
C797 C 0.20217 0.61302 0.11511 0.0
H798 H 0.72173 0.39904 0.30133 0.0
H799 H 0.71209 0.41713 0.3974 0.0
H800 H 0.66645 0.38733 0.39404 0.0
H801 H 0.65401 0.38061 0.27073 0.0
H802 H 0.65333 0.35555 0.24786 0.0
H803 H 0.68252 0.3846 0.25298 0.0
H804 H 0.70312 0.3599 0.27509 0.0
H805 H 0.67421 0.33102 0.27039 0.0
H806 H 0.68905 0.33946 0.30878 0.0
H807 H 0.62637 0.34797 0.38668 0.0
H808 H 0.59636 0.3033 0.37618 0.0
H809 H 0.6308 0.30993 0.28433 0.0
C810 C 0.70956 0.39784 0.3207 0.0
C811 C 0.71997 0.41074 0.3492 0.0
C812 C 0.70411 0.40788 0.37506 0.0
C813 C 0.67819 0.39097 0.3733 0.0
C814 C 0.66852 0.37717 0.34548 0.0
C815 C 0.6837 0.38079 0.31931 0.0
C816 C 0.67015 0.36034 0.29488 0.0
C817 C 0.66467 0.37091 0.26483 0.0
C818 C 0.68501 0.3469 0.28688 0.0
C819 C 0.6461 0.34337 0.31271 0.0
C820 C 0.64503 0.35381 0.34131 0.0
C821 C 0.62654 0.33995 0.36391 0.0
C822 C 0.6095 0.31457 0.35777 0.0
C823 C 0.61136 0.3033 0.32946 0.0
C824 C 0.62897 0.31826 0.30606 0.0
H825 H 0.33987 0.71038 0.73128 0.0
H826 H 0.30628 0.71119 0.64125 0.0
H827 H 0.28945 0.66559 0.63605 0.0
H828 H 0.36396 0.67531 0.70678 0.0
H829 H 0.3595 0.65824 0.74323 0.0
H830 H 0.36218 0.68857 0.74416 0.0
H831 H 0.31928 0.66966 0.77337 0.0
H832 H 0.31643 0.63905 0.77217 0.0
H833 H 0.29183 0.64363 0.75604 0.0
H834 H 0.28511 0.62311 0.6344 0.0
H835 H 0.29601 0.58952 0.63492 0.0
H836 H 0.33311 0.61611 0.72518 0.0
C837 C 0.32841 0.70084 0.71083 0.0
C838 C 0.32445 0.71438 0.68662 0.0
C839 C 0.30929 0.70121 0.66032 0.0
C840 C 0.29963 0.67525 0.6572 0.0
C841 C 0.305 0.66267 0.68078 0.0
C842 C 0.31892 0.67508 0.70726 0.0
C843 C 0.32579 0.65861 0.72653 0.0
C844 C 0.35454 0.67091 0.73035 0.0
C845 C 0.31253 0.65237 0.75895 0.0
C846 C 0.31521 0.6356 0.70557 0.0
C847 C 0.30248 0.6379 0.67985 0.0
C848 C 0.29421 0.62067 0.65496 0.0
C849 C 0.30026 0.60148 0.65552 0.0
C850 C 0.31456 0.59984 0.68067 0.0
C851 C 0.32109 0.61637 0.70658 0.0
H852 H 0.62873 0.32419 0.06134 0.0
H853 H 0.5978 0.30054 0.96725 0.0
H854 H 0.62742 0.28506 0.95744 0.0
H855 H 0.68762 0.35202 0.03994 0.0
H856 H 0.70014 0.3442 0.07396 0.0
H857 H 0.67146 0.34493 0.07757 0.0
H858 H 0.64864 0.29907 0.09805 0.0
H859 H 0.6775 0.29823 0.09442 0.0
H860 H 0.64943 0.27489 0.07482 0.0
H861 H 0.66698 0.28356 0.95239 0.0
H862 H 0.71234 0.29737 0.9521 0.0
H863 H 0.71854 0.32267 0.04892 0.0
C864 C 0.62757 0.31478 0.03917 0.0
C865 C 0.61106 0.3135 0.01504 0.0
C866 C 0.61008 0.30136 0.98619 0.0
C867 C 0.62687 0.29251 0.98048 0.0
C868 C 0.6442 0.29563 1.00404 0.0
C869 C 0.64436 0.3062 0.03308 0.0
C870 C 0.66751 0.31194 0.05214 0.0
C871 C 0.68255 0.33991 0.06138 0.0
C872 C 0.66033 0.29501 0.0816 0.0
C873 C 0.68151 0.3051 0.02825 0.0
C874 C 0.66737 0.29479 1.00109 0.0
C875 C 0.67784 0.29067 0.97392 0.0
C876 C 0.70358 0.29841 0.97395 0.0
C877 C 0.71848 0.31026 1.00087 0.0
C878 C 0.7071 0.31258 0.02869 0.0
H879 H 0.39563 0.70905 0.28593 0.0
H880 H 0.42737 0.71477 0.37921 0.0
H881 H 0.39718 0.66985 0.38867 0.0
H882 H 0.33682 0.67847 0.30796 0.0
H883 H 0.32377 0.65842 0.27385 0.0
H884 H 0.35258 0.68761 0.27008 0.0
H885 H 0.3751 0.66454 0.2485 0.0
H886 H 0.34607 0.63507 0.25186 0.0
H887 H 0.37413 0.63915 0.27096 0.0
H888 H 0.35719 0.62938 0.39376 0.0
H889 H 0.31205 0.59725 0.39357 0.0
H890 H 0.30552 0.61737 0.29726 0.0
C891 C 0.39689 0.70045 0.30776 0.0
C892 C 0.41377 0.71518 0.33182 0.0
C893 C 0.41481 0.70364 0.36032 0.0
C894 C 0.39768 0.67814 0.36585 0.0
C895 C 0.37998 0.66446 0.34243 0.0
C896 C 0.3798 0.67517 0.31363 0.0
C897 C 0.35647 0.6582 0.29464 0.0
C898 C 0.34155 0.67146 0.28619 0.0
C899 C 0.36336 0.64867 0.26472 0.0
C900 C 0.34246 0.63719 0.31828 0.0
C901 C 0.35666 0.64071 0.34532 0.0
C902 C 0.34629 0.62587 0.37229 0.0
C903 C 0.32068 0.60765 0.37203 0.0
C904 C 0.30579 0.6045 0.34502 0.0
C905 C 0.31697 0.61882 0.31755 0.0
H906 H 0.69429 0.39927 0.72118 0.0
H907 H 0.72309 0.41986 0.62574 0.0
H908 H 0.73587 0.38761 0.6263 0.0
H909 H 0.74039 0.37632 0.74903 0.0
H910 H 0.71513 0.35127 0.77103 0.0
H911 H 0.71672 0.38124 0.76757 0.0
H912 H 0.67143 0.3591 0.74516 0.0
H913 H 0.66976 0.3293 0.74813 0.0
H914 H 0.66426 0.33958 0.71045 0.0
H915 H 0.73388 0.34653 0.63118 0.0
H916 H 0.71775 0.30133 0.64015 0.0
H917 H 0.69097 0.30718 0.73306 0.0
C918 C 0.70481 0.39795 0.70135 0.0
C919 C 0.70851 0.41233 0.67383 0.0
C920 C 0.72096 0.40945 0.64736 0.0
C921 C 0.7282 0.39115 0.64752 0.0
C922 C 0.72298 0.37609 0.67444 0.0
C923 C 0.712 0.37967 0.70122 0.0
C924 C 0.704 0.35833 0.7246 0.0
C925 C 0.72003 0.36733 0.75485 0.0
C926 C 0.67571 0.34585 0.73248 0.0
C927 C 0.70997 0.34111 0.70561 0.0
C928 C 0.72168 0.35196 0.6772 0.0
C929 C 0.72553 0.33815 0.65379 0.0
C930 C 0.71634 0.31249 0.65905 0.0
C931 C 0.70318 0.30093 0.68728 0.0
C932 C 0.70114 0.31573 0.71135 0.0
H933 H 0.30884 0.68438 0.95439 0.0
H934 H 0.30594 0.71588 0.0451 0.0
H935 H 0.35117 0.7309 0.05293 0.0
H936 H 0.34075 0.65753 0.97949 0.0
H937 H 0.35934 0.66242 0.94424 0.0
H938 H 0.32972 0.66138 0.94143 0.0
H939 H 0.35168 0.70522 0.91474 0.0
H940 H 0.38157 0.7064 0.91767 0.0
H941 H 0.37772 0.73124 0.93431 0.0
H942 H 0.39253 0.73273 0.05709 0.0
H943 H 0.42466 0.71972 0.05803 0.0
H944 H 0.40093 0.68651 0.96523 0.0
C945 C 0.31796 0.69516 0.97544 0.0
C946 C 0.30392 0.69895 0.99917 0.0
C947 C 0.31641 0.71306 0.02642 0.0
C948 C 0.34213 0.72167 0.03102 0.0
C949 C 0.35514 0.71634 1.00794 0.0
C950 C 0.34346 0.70361 0.98045 0.0
C951 C 0.35998 0.69633 0.96188 0.0
C952 C 0.34666 0.66774 0.9565 0.0
C953 C 0.36823 0.71066 0.93028 0.0
C954 C 0.38199 0.70515 0.98438 0.0
C955 C 0.37931 0.71746 0.01031 0.0
C956 C 0.39533 0.72399 0.03642 0.0
C957 C 0.41366 0.7167 0.03673 0.0
C958 C 0.41566 0.70295 0.01119 0.0
C959 C 0.40041 0.69808 0.98423 0.0
H960 H 0.50311 0.05554 0.27386 0.0
H961 H 0.56845 0.08723 0.33537 0.0
H962 H 0.56594 0.04622 0.33876 0.0
H963 H 0.46946 0.99585 0.31289 0.0
H964 H 0.45732 0.9775 0.27729 0.0
H965 H 0.46446 0.00966 0.27791 0.0
H966 H 0.49395 0.01958 0.22955 0.0
H967 H 0.48677 0.98739 0.22866 0.0
H968 H 0.51899 0.01234 0.23125 0.0
H969 H 0.55526 1.00149 0.33918 0.0
H970 H 0.53854 0.95629 0.33419 0.0
H971 H 0.48094 0.95149 0.26988 0.0
C972 C 0.51709 0.05389 0.28762 0.0
C973 C 0.53587 0.07491 0.30465 0.0
C974 C 0.55363 0.07162 0.3225 0.0
C975 C 0.55244 0.04829 0.32452 0.0
C976 C 0.53346 0.02793 0.30835 0.0
C977 C 0.5162 0.03039 0.28992 0.0
C978 C 0.49755 1.005 0.27544 0.0
C979 C 0.4706 0.99651 0.28655 0.0
C980 C 0.49943 1.00615 0.23906 0.0
C981 C 0.50689 0.98803 0.28902 0.0
C982 C 0.52765 1.00184 0.30789 0.0
C983 C 0.53927 0.99057 0.32395 0.0
C984 C 0.52964 0.96462 0.32063 0.0
C985 C 0.50851 0.94962 0.30107 0.0
C986 C 0.49705 0.96187 0.2851 0.0
H987 H 0.49072 0.54412 0.6579 0.0
H988 H 0.44422 0.49653 0.58095 0.0
H989 H 0.47545 0.48349 0.57093 0.0
H990 H 0.55121 0.56249 0.62444 0.0
H991 H 0.56468 0.56048 0.66153 0.0
H992 H 0.53962 0.5677 0.66131 0.0
H993 H 0.51335 0.5302 0.69883 0.0
H994 H 0.53837 0.52295 0.6993 0.0
H995 H 0.50712 0.49934 0.68774 0.0
H996 H 0.51261 0.47516 0.56919 0.0
H997 H 0.54954 0.47001 0.57891 0.0
H998 H 0.56961 0.5196 0.66002 0.0
C999 C 0.48653 0.53069 0.6391 0.0
C1000 C 0.46436 0.52173 0.62025 0.0
C1001 C 0.46088 0.50451 0.59556 0.0
C1002 C 0.4786 0.4967 0.58974 0.0
C1003 C 0.49989 0.5058 0.60896 0.0
C1004 C 0.50373 0.52222 0.63341 0.0
C1005 C 0.52749 0.52829 0.65174 0.0
C1006 C 0.54689 0.55641 0.64962 0.0
C1007 C 0.5212 0.51968 0.68646 0.0
C1008 C 0.53646 0.51273 0.63383 0.0
C1009 C 0.52047 0.50014 0.60893 0.0
C1010 C 0.52513 0.48492 0.58873 0.0
C1011 C 0.54634 0.48222 0.59432 0.0
C1012 C 0.5627 0.49434 0.62023 0.0
C1013 C 0.55753 0.5099 0.6401 0.0
H1014 H 0.95121 0.48965 0.9929 0.0
H1015 H 0.95132 0.44849 0.90911 0.0
H1016 H 0.99567 0.47982 0.89988 0.0
H1017 H 0.99335 0.55194 0.96429 0.0
H1018 H 1.00929 0.56311 1.00168 0.0
H1019 H 0.97696 0.53828 1.00091 0.0
H1020 H 0.98857 0.50989 0.03352 0.0
H1021 H 0.02091 0.53466 0.03452 0.0
H1022 H 0.01302 0.50424 0.01933 0.0
H1023 H 0.04122 0.51635 0.89955 0.0
H1024 H 0.08348 0.55233 0.91032 0.0
H1025 H 0.05512 0.56819 0.99635 0.0
C1026 C 0.96031 0.48676 0.97269 0.0
C1027 C 0.94679 0.46607 0.95168 0.0
C1028 C 0.96027 0.46407 0.92538 0.0
C1029 C 0.98584 0.48184 0.91999 0.0
C1030 C 0.99834 0.50172 0.94119 0.0
C1031 C 0.98604 0.50411 0.96722 0.0
C1032 C 1.00407 0.52667 0.98716 0.0
C1033 C 0.99539 0.54615 0.98858 0.0
C1034 C 1.0068 0.51836 0.02061 0.0
C1035 C 0.02844 0.5366 0.96833 0.0
C1036 C 0.02465 0.52208 0.94167 0.0
C1037 C 0.04428 0.52775 0.92041 0.0
C1038 C 0.06832 0.54845 0.92665 0.0
C1039 C 0.073 0.56343 0.95417 0.0
C1040 C 0.05249 0.55723 0.97516 0.0
H1041 H 0.06145 0.50688 0.34457 0.0
H1042 H 0.07919 0.51401 0.44518 0.0
H1043 H 0.03577 0.50338 0.45746 0.0
H1044 H 0.02331 0.53642 0.3489 0.0
H1045 H 1.00151 0.51651 0.31901 0.0
H1046 H 0.03366 0.52332 0.31811 0.0
H1047 H 0.01841 0.4758 0.3186 0.0
H1048 H 0.98622 0.46885 0.3196 0.0
H1049 H 0.9977 0.45639 0.3498 0.0
H1050 H 0.98916 0.49158 0.45897 0.0
H1051 H 0.94539 0.48094 0.44952 0.0
H1052 H 0.95925 0.48592 0.34788 0.0
C1053 C 0.05661 0.50655 0.3693 0.0
C1054 C 0.07451 0.51133 0.39376 0.0
C1055 C 0.06632 0.50999 0.42567 0.0
C1056 C 0.0415 0.50415 0.433 0.0
C1057 C 0.02467 0.49985 0.40832 0.0
C1058 C 0.03199 0.50115 0.37707 0.0
C1059 C 1.01049 0.49643 0.35486 0.0
C1060 C 0.01768 0.51955 0.33399 0.0
C1061 C 1.00275 0.47297 0.33452 0.0
C1062 C 0.98988 0.49215 0.37844 0.0
C1063 C 0.99837 0.49406 0.40917 0.0
C1064 C 0.98251 0.49032 0.43491 0.0
C1065 C 0.95749 0.48447 0.4292 0.0
C1066 C 0.94811 0.48256 0.39785 0.0
C1067 C 0.96502 0.4867 0.37225 0.0
H1068 H 0.53658 0.06558 0.68783 0.0
H1069 H 0.57621 0.06559 0.77329 0.0
H1070 H 0.54402 0.02169 0.7829 0.0
H1071 H 0.47356 0.02491 0.7153 0.0
H1072 H 0.46267 0.00862 0.67809 0.0
H1073 H 0.48803 0.04065 0.67864 0.0
H1074 H 0.51638 0.02789 0.64778 0.0
H1075 H 0.49107 0.99585 0.64698 0.0
H1076 H 0.52117 1.00327 0.66318 0.0
H1077 H 0.50667 0.97659 0.7835 0.0
H1078 H 0.47023 0.93466 0.77274 0.0
H1079 H 0.45655 0.96262 0.68495 0.0
C1080 C 0.539 0.05659 0.70847 0.0
C1081 C 0.55951 0.07001 0.72981 0.0
C1082 C 0.56082 0.0567 0.75669 0.0
C1083 C 0.54254 0.03139 0.76233 0.0
C1084 C 0.52285 0.01898 0.7408 0.0
C1085 C 0.52115 0.03112 0.71419 0.0
C1086 C 0.49868 0.01323 0.694 0.0
C1087 C 0.47961 0.02241 0.69136 0.0
C1088 C 0.50735 0.00986 0.66103 0.0
C1089 C 0.48799 0.98912 0.71335 0.0
C1090 C 0.50205 0.99293 0.74048 0.0
C1091 C 0.49564 0.97352 0.76226 0.0
C1092 C 0.47467 0.94968 0.75603 0.0
C1093 C 0.46019 0.94498 0.728 0.0
C1094 C 0.46712 0.96527 0.70653 0.0
H1095 H 0.50994 0.55447 0.02351 0.0
H1096 H 0.47247 0.54101 0.11462 0.0
H1097 H 0.47994 0.50556 0.1241 0.0
H1098 H 0.48737 0.49043 1.00248 0.0
H1099 H 0.51643 0.49605 0.98461 0.0
H1100 H 0.50853 0.52057 0.98517 0.0
H1101 H 0.55056 0.55015 0.01332 0.0
H1102 H 0.55866 0.52578 0.01262 0.0
H1103 H 0.5583 0.54016 0.0497 0.0
H1104 H 0.48896 0.46894 0.12165 0.0
H1105 H 0.50167 0.43779 0.11028 0.0
H1106 H 0.53711 0.47745 0.0228 0.0
C1107 C 0.50337 0.54415 0.04555 0.0
C1108 C 0.4905 0.55075 0.06831 0.0
C1109 C 0.48253 0.5367 0.0969 0.0
C1110 C 0.48657 0.51633 0.1024 0.0
C1111 C 0.49901 0.51019 0.07935 0.0
C1112 C 0.50765 0.52399 0.05169 0.0
C1113 C 0.52092 0.51381 0.03099 0.0
C1114 C 0.50751 0.50468 0.99891 0.0
C1115 C 0.54876 0.53366 0.0264 0.0
C1116 C 0.5181 0.49191 0.05104 0.0
C1117 C 0.50522 0.49002 0.07871 0.0
C1118 C 0.49946 0.47064 0.10025 0.0
C1119 C 0.5071 0.45294 0.09355 0.0
C1120 C 0.52093 0.45453 0.0656 0.0
C1121 C 0.52642 0.47472 0.04427 0.0
H1122 H 0.56088 0.26104 0.25185 0.0
H1123 H 0.55457 0.20606 0.18294 0.0
H1124 H 0.55499 0.23333 0.1395 0.0
H1125 H 0.52073 0.27941 0.21081 0.0
H1126 H 0.53913 0.31215 0.22098 0.0
H1127 H 0.5391 0.28874 0.2467 0.0
H1128 H 0.58759 0.31094 0.24307 0.0
H1129 H 0.58778 0.33439 0.21725 0.0
H1130 H 0.60247 0.31676 0.20469 0.0
H1131 H 0.55513 0.2664 0.10285 0.0
H1132 H 0.55432 0.30181 0.07638 0.0
H1133 H 0.56014 0.33647 0.16775 0.0
C1134 C 0.55974 0.25485 0.22756 0.0
C1135 C 0.55822 0.2314 0.22096 0.0
C1136 C 0.55636 0.224 0.18879 0.0
C1137 C 0.55647 0.23942 0.16387 0.0
C1138 C 0.5583 0.26246 0.17107 0.0
C1139 C 0.55987 0.27019 0.20218 0.0
C1140 C 0.56126 0.29574 0.20324 0.0
C1141 C 0.53871 0.2939 0.22152 0.0
C1142 C 0.58626 0.31563 0.21794 0.0
C1143 C 0.56 0.30106 0.16797 0.0
C1144 C 0.55838 0.28156 0.14992 0.0
C1145 C 0.55652 0.28175 0.11688 0.0
C1146 C 0.55611 0.30207 0.10194 0.0
C1147 C 0.55769 0.32244 0.11954 0.0
C1148 C 0.55965 0.32174 0.15324 0.0
H1149 H 0.26243 0.57769 0.46008 0.0
H1150 H 0.2092 0.49803 0.46442 0.0
H1151 H 0.23922 0.49151 0.4955 0.0
H1152 H 0.32172 0.58051 0.46816 0.0
H1153 H 0.33437 0.60392 0.49892 0.0
H1154 H 0.31131 0.60308 0.47172 0.0
H1155 H 0.28262 0.59972 0.51868 0.0
H1156 H 0.30579 0.60099 0.54603 0.0
H1157 H 0.27391 0.57523 0.54774 0.0
H1158 H 0.28086 0.49404 0.51377 0.0
H1159 H 0.31792 0.50371 0.54587 0.0
H1160 H 0.33418 0.58035 0.55647 0.0
C1161 C 0.25705 0.55883 0.46749 0.0
C1162 C 0.2345 0.5378 0.45557 0.0
C1163 C 0.22763 0.51399 0.46872 0.0
C1164 C 0.24442 0.51014 0.48726 0.0
C1165 C 0.26727 0.53075 0.49603 0.0
C1166 C 0.27263 0.55482 0.48908 0.0
C1167 C 0.29597 0.57354 0.50789 0.0
C1168 C 0.31709 0.59132 0.48532 0.0
C1169 C 0.28917 0.58825 0.53149 0.0
C1170 C 0.30316 0.55608 0.52531 0.0
C1171 C 0.28699 0.53165 0.51632 0.0
C1172 C 0.2922 0.51265 0.52353 0.0
C1173 C 0.31311 0.51823 0.54262 0.0
C1174 C 0.32723 0.54182 0.55782 0.0
C1175 C 0.32284 0.5615 0.54743 0.0
H1176 H 0.78268 0.30082 0.89687 0.0
H1177 H 0.76574 0.36011 0.87828 0.0
H1178 H 0.73344 0.33313 0.84077 0.0
H1179 H 0.77161 0.27348 0.81852 0.0
H1180 H 0.75568 0.24155 0.83257 0.0
H1181 H 0.77909 0.26616 0.85698 0.0
H1182 H 0.7468 0.25353 0.90266 0.0
H1183 H 0.72332 0.22884 0.87846 0.0
H1184 H 0.71717 0.25211 0.89549 0.0
H1185 H 0.70356 0.29983 0.80112 0.0
H1186 H 0.67544 0.26176 0.77046 0.0
H1187 H 0.70635 0.22133 0.81953 0.0
C1188 C 0.77337 0.30896 0.88396 0.0
C1189 C 0.78022 0.33473 0.88821 0.0
C1190 C 0.76413 0.34222 0.87333 0.0
C1191 C 0.74482 0.3265 0.85219 0.0
C1192 C 0.74018 0.30222 0.84679 0.0
C1193 C 0.75345 0.29315 0.86309 0.0
C1194 C 0.74307 0.26545 0.85498 0.0
C1195 C 0.76359 0.26143 0.83987 0.0
C1196 C 0.73193 0.24901 0.88466 0.0
C1197 C 0.72246 0.26066 0.83094 0.0
C1198 C 0.72126 0.28225 0.82646 0.0
C1199 C 0.70429 0.28281 0.80481 0.0
C1200 C 0.68826 0.26094 0.7874 0.0
C1201 C 0.68878 0.23831 0.79144 0.0
C1202 C 0.70601 0.23832 0.8142 0.0
H1203 H 0.46439 0.67877 0.1683 0.0
H1204 H 0.4691 0.71079 0.07529 0.0
H1205 H 0.46806 0.7467 0.10002 0.0
H1206 H 0.42163 0.69787 0.20349 0.0
H1207 H 0.4366 0.70477 0.24179 0.0
H1208 H 0.43712 0.68122 0.21692 0.0
H1209 H 0.48571 0.70449 0.22011 0.0
H1210 H 0.4853 0.72809 0.24497 0.0
H1211 H 0.50348 0.73707 0.20883 0.0
H1212 H 0.46699 0.78002 0.13525 0.0
H1213 H 0.46686 0.80784 0.17762 0.0
H1214 H 0.46267 0.75507 0.24868 0.0
C1215 C 0.46471 0.69308 0.15309 0.0
C1216 C 0.46634 0.6915 0.1195 0.0
C1217 C 0.46768 0.71131 0.10085 0.0
C1218 C 0.46705 0.73184 0.11479 0.0
C1219 C 0.46525 0.73276 0.14778 0.0
C1220 C 0.46414 0.71391 0.16677 0.0
C1221 C 0.46282 0.71985 0.20173 0.0
C1222 C 0.43807 0.69973 0.21688 0.0
C1223 C 0.48569 0.72254 0.21999 0.0
C1224 C 0.46352 0.74499 0.19945 0.0
C1225 C 0.46479 0.752 0.16804 0.0
C1226 C 0.46583 0.77453 0.15986 0.0
C1227 C 0.46562 0.79024 0.18413 0.0
C1228 C 0.46429 0.78361 0.21657 0.0
C1229 C 0.46337 0.76061 0.22415 0.0
H1230 H 0.71175 0.49515 0.53462 0.0
H1231 H 0.68149 0.42335 0.58235 0.0
H1232 H 0.70898 0.41357 0.54976 0.0
H1233 H 0.72186 0.47657 0.45761 0.0
H1234 H 0.75152 0.50465 0.45046 0.0
H1235 H 0.72843 0.50569 0.47588 0.0
H1236 H 0.76103 0.52405 0.52121 0.0
H1237 H 0.78426 0.5232 0.49584 0.0
H1238 H 0.77695 0.50762 0.53381 0.0
H1239 H 0.73754 0.41017 0.50831 0.0
H1240 H 0.76949 0.4156 0.46988 0.0
H1241 H 0.78767 0.49256 0.45447 0.0
C1242 C 0.71149 0.47778 0.53931 0.0
C1243 C 0.69451 0.46031 0.56216 0.0
C1244 C 0.69405 0.43713 0.56531 0.0
C1245 C 0.70972 0.43139 0.54681 0.0
C1246 C 0.72638 0.4491 0.52508 0.0
C1247 C 0.72772 0.47203 0.5216 0.0
C1248 C 0.74823 0.48807 0.49742 0.0
C1249 C 0.73683 0.4941 0.46864 0.0
C1250 C 0.76884 0.51217 0.513 0.0
C1251 C 0.75831 0.47067 0.48807 0.0
C1252 C 0.74492 0.44811 0.50385 0.0
C1253 C 0.74905 0.42831 0.4973 0.0
C1254 C 0.76808 0.43193 0.47559 0.0
C1255 C 0.78445 0.45567 0.4613 0.0
C1256 C 0.77808 0.47486 0.46666 0.0
H1257 H 0.22545 0.71308 0.87379 0.0
H1258 H 0.26062 0.67011 0.90213 0.0
H1259 H 0.29567 0.69525 0.86506 0.0
H1260 H 0.24708 0.73118 0.79713 0.0
H1261 H 0.25523 0.76353 0.80086 0.0
H1262 H 0.23095 0.74001 0.82561 0.0
H1263 H 0.25433 0.76416 0.87619 0.0
H1264 H 0.27822 0.7882 0.85156 0.0
H1265 H 0.28685 0.773 0.88154 0.0
H1266 H 0.32555 0.72435 0.81897 0.0
H1267 H 0.35134 0.7588 0.7816 0.0
H1268 H 0.30667 0.79332 0.80484 0.0
C1269 C 0.24112 0.70987 0.87471 0.0
C1270 C 0.24003 0.68973 0.89274 0.0
C1271 C 0.26037 0.68504 0.88883 0.0
C1272 C 0.2806 0.69942 0.8678 0.0
C1273 C 0.28133 0.71961 0.85158 0.0
C1274 C 0.2626 0.72549 0.85614 0.0
C1275 C 0.26927 0.75002 0.83939 0.0
C1276 C 0.24944 0.74592 0.81427 0.0
C1277 C 0.27236 0.77003 0.86361 0.0
C1278 C 0.29431 0.7567 0.82386 0.0
C1279 C 0.30042 0.73836 0.82995 0.0
C1280 C 0.32117 0.73912 0.81504 0.0
C1281 C 0.33592 0.75903 0.79383 0.0
C1282 C 0.33103 0.77904 0.78845 0.0
C1283 C 0.31021 0.77788 0.80507 0.0
loop_
_geom_bond_atom_site_label_1
_geom_bond_atom_site_label_2
_geom_bond_distance
_geom_bond_site_symmetry_2
_ccdc_geom_bond_type
C0 C1 1.443 . S
C0 N4 1.376 . S
C0 C38 1.389 . S
C1 C0 1.443 . S
C1 C2 1.340 . S
C1 H41 0.951 . S
C2 C1 1.340 . S
C2 C3 1.439 . S
C2 H42 0.950 . S
C3 C2 1.439 . S
C3 N4 1.374 . S
C3 C37 1.395 . S
N4 C0 1.376 . S
N4 C3 1.374 . S
N4 Co5 2.008 . S
Co5 N4 2.008 . S
Co5 N6 1.995 . S
Co5 N11 2.008 . S
Co5 N16 1.995 . S
Co5 N21 2.282 . S
Co5 N27 2.282 . S
N6 Co5 1.995 . S
N6 C7 1.376 . S
N6 C10 1.383 . S
C7 N6 1.376 . S
C7 C8 1.446 . S
C7 C37 1.391 . S
C8 C7 1.446 . S
C8 C9 1.339 . S
C8 H43 0.949 . S
C9 C8 1.339 . S
C9 C10 1.439 . S
C9 H44 0.950 . S
C10 N6 1.383 . S
C10 C9 1.439 . S
C10 C39 1.392 . S
N11 Co5 2.008 . S
N11 C12 1.376 . S
N11 C15 1.374 . S
C12 N11 1.376 . S
C12 C13 1.443 . S
C12 C39 1.389 . S
C13 C12 1.443 . S
C13 C14 1.340 . S
C13 H45 0.951 . S
C14 C13 1.340 . S
C14 C15 1.439 . S
C14 H46 0.950 . S
C15 N11 1.374 . S
C15 C14 1.439 . S
C15 C40 1.395 . S
N16 Co5 1.995 . S
N16 C17 1.376 . S
N16 C20 1.383 . S
C17 N16 1.376 . S
C17 C18 1.446 . S
C17 C40 1.391 . S
C18 C17 1.446 . S
C18 C19 1.339 . S
C18 H47 0.949 . S
C19 C18 1.339 . S
C19 C20 1.439 . S
C19 H48 0.950 . S
C20 N16 1.383 . S
C20 C19 1.439 . S
C20 C38 1.392 . S
N21 Co5 2.282 . S
N21 C24 1.332 . S
N21 C26 1.332 . S
C22 C23 1.386 . S
C22 C25 1.388 . S
C23 C22 1.386 . S
C23 C24 1.382 . S
C23 H49 0.950 . S
C24 N21 1.332 . S
C24 C23 1.382 . S
C24 H35 0.952 . S
C25 C22 1.388 . S
C25 C26 1.382 . S
C25 H50 0.950 . S
C26 N21 1.332 . S
C26 C25 1.382 . S
C26 H36 0.948 . S
N27 Co5 2.282 . S
N27 C31 1.332 . S
N27 C32 1.332 . S
C28 C29 1.388 . S
C28 C32 1.382 . S
C28 H51 0.950 . S
C29 C28 1.388 . S
C29 C30 1.386 . S
C30 C29 1.386 . S
C30 C31 1.382 . S
C30 H52 0.950 . S
C31 N27 1.332 . S
C31 C30 1.382 . S
C31 H33 0.952 . S
C32 N27 1.332 . S
C32 C28 1.382 . S
C32 H34 0.948 . S
H33 C31 0.952 . S
H34 C32 0.948 . S
H35 C24 0.952 . S
H36 C26 0.948 . S
C37 C3 1.395 . S
C37 C7 1.391 . S
C38 C0 1.389 . S
C38 C20 1.392 . S
C39 C10 1.392 . S
C39 C12 1.389 . S
C40 C15 1.395 . S
C40 C17 1.391 . S
H41 C1 0.951 . S
H42 C2 0.950 . S
H43 C8 0.949 . S
H44 C9 0.950 . S
H45 C13 0.951 . S
H46 C14 0.950 . S
H47 C18 0.949 . S
H48 C19 0.950 . S
H49 C23 0.950 . S
H50 C25 0.950 . S
H51 C28 0.950 . S
H52 C30 0.950 . S
C53 C54 1.443 . S
C53 N57 1.376 . S
C53 C91 1.389 . S
C54 C53 1.443 . S
C54 C55 1.340 . S
C54 H94 0.951 . S
C55 C54 1.340 . S
C55 C56 1.439 . S
C55 H95 0.950 . S
C56 C55 1.439 . S
C56 N57 1.374 . S
C56 C90 1.395 . S
N57 C53 1.376 . S
N57 C56 1.374 . S
N57 Co58 2.008 . S
Co58 N57 2.008 . S
Co58 N59 1.995 . S
Co58 N64 2.008 . S
Co58 N69 1.995 . S
Co58 N74 2.282 . S
Co58 N80 2.282 . S
N59 Co58 1.995 . S
N59 C60 1.376 . S
N59 C63 1.383 . S
C60 N59 1.376 . S
C60 C61 1.446 . S
C60 C90 1.391 . S
C61 C60 1.446 . S
C61 C62 1.339 . S
C61 H96 0.949 . S
C62 C61 1.339 . S
C62 C63 1.439 . S
C62 H97 0.950 . S
C63 N59 1.383 . S
C63 C62 1.439 . S
C63 C92 1.392 . S
N64 Co58 2.008 . S
N64 C65 1.376 . S
N64 C68 1.374 . S
C65 N64 1.376 . S
C65 C66 1.443 . S
C65 C92 1.389 . S
C66 C65 1.443 . S
C66 C67 1.340 . S
C66 H98 0.951 . S
C67 C66 1.340 . S
C67 C68 1.439 . S
C67 H99 0.950 . S
C68 N64 1.374 . S
C68 C67 1.439 . S
C68 C93 1.395 . S
N69 Co58 1.995 . S
N69 C70 1.376 . S
N69 C73 1.383 . S
C70 N69 1.376 . S
C70 C71 1.446 . S
C70 C93 1.391 . S
C71 C70 1.446 . S
C71 C72 1.339 . S
C71 H100 0.949 . S
C72 C71 1.339 . S
C72 C73 1.439 . S
C72 H101 0.950 . S
C73 N69 1.383 . S
C73 C72 1.439 . S
C73 C91 1.392 . S
N74 Co58 2.282 . S
N74 C77 1.332 . S
N74 C79 1.332 . S
C75 C76 1.386 . S
C75 C78 1.388 . S
C76 C75 1.386 . S
C76 C77 1.382 . S
C76 H102 0.950 . S
C77 N74 1.332 . S
C77 C76 1.382 . S
C77 H88 0.952 . S
C78 C75 1.388 . S
C78 C79 1.382 . S
C78 H103 0.950 . S
C79 N74 1.332 . S
C79 C78 1.382 . S
C79 H89 0.948 . S
N80 Co58 2.282 . S
N80 C84 1.332 . S
N80 C85 1.332 . S
C81 C82 1.388 . S
C81 C85 1.382 . S
C81 H104 0.950 . S
C82 C81 1.388 . S
C82 C83 1.386 . S
C83 C82 1.386 . S
C83 C84 1.382 . S
C83 H105 0.950 . S
C84 N80 1.332 . S
C84 C83 1.382 . S
C84 H86 0.952 . S
C85 N80 1.332 . S
C85 C81 1.382 . S
C85 H87 0.948 . S
H86 C84 0.952 . S
H87 C85 0.948 . S
H88 C77 0.952 . S
H89 C79 0.948 . S
C90 C56 1.395 . S
C90 C60 1.391 . S
C91 C53 1.389 . S
C91 C73 1.392 . S
C92 C63 1.392 . S
C92 C65 1.389 . S
C93 C68 1.395 . S
C93 C70 1.391 . S
H94 C54 0.951 . S
H95 C55 0.950 . S
H96 C61 0.949 . S
H97 C62 0.950 . S
H98 C66 0.951 . S
H99 C67 0.950 . S
H100 C71 0.949 . S
H101 C72 0.950 . S
H102 C76 0.950 . S
H103 C78 0.950 . S
H104 C81 0.950 . S
H105 C83 0.950 . S
C106 C107 1.443 . S
C106 N110 1.376 . S
C106 C144 1.389 . S
C107 C106 1.443 . S
C107 C108 1.340 . S
C107 H147 0.951 . S
C108 C107 1.340 . S
C108 C109 1.439 . S
C108 H148 0.950 . S
C109 C108 1.439 . S
C109 N110 1.374 . S
C109 C143 1.395 . S
N110 C106 1.376 . S
N110 C109 1.374 . S
N110 Co111 2.008 . S
Co111 N110 2.008 . S
Co111 N112 1.995 1_556 S
Co111 N117 2.008 1_556 S
Co111 N122 1.995 . S
Co111 N127 2.282 . S
Co111 N133 2.282 1_556 S
N112 Co111 1.995 1_554 S
N112 C113 1.382 . S
N112 C116 1.383 . S
C113 N112 1.382 . S
C113 C114 1.454 . S
C113 C143 1.379 1_554 S
C114 C113 1.454 . S
C114 C115 1.339 . S
C114 H149 0.949 . S
C115 C114 1.339 . S
C115 C116 1.439 . S
C115 H150 0.950 . S
C116 N112 1.383 . S
C116 C115 1.439 . S
C116 C145 1.392 . S
N117 Co111 2.008 1_554 S
N117 C118 1.376 . S
N117 C121 1.374 . S
C118 N117 1.376 . S
C118 C119 1.443 . S
C118 C145 1.389 . S
C119 C118 1.443 . S
C119 C120 1.340 . S
C119 H151 0.951 . S
C120 C119 1.340 . S
C120 C121 1.439 . S
C120 H152 0.950 . S
C121 N117 1.374 . S
C121 C120 1.439 . S
C121 C146 1.395 . S
N122 Co111 1.995 . S
N122 C123 1.387 . S
N122 C126 1.383 . S
C123 N122 1.387 . S
C123 C124 1.459 . S
C123 C146 1.370 1_556 S
C124 C123 1.459 . S
C124 C125 1.339 . S
C124 H153 0.949 . S
C125 C124 1.339 . S
C125 C126 1.439 . S
C125 H154 0.950 . S
C126 N122 1.383 . S
C126 C125 1.439 . S
C126 C144 1.392 . S
N127 Co111 2.282 . S
N127 C130 1.332 1_556 S
N127 C132 1.332 . S
C128 C129 1.386 . S
C128 C131 1.388 1_554 S
C129 C128 1.386 . S
C129 C130 1.382 . S
C129 H155 0.950 . S
C130 N127 1.332 1_554 S
C130 C129 1.382 . S
C130 H141 0.952 . S
C131 C128 1.388 1_556 S
C131 C132 1.382 . S
C131 H156 0.950 . S
C132 N127 1.332 . S
C132 C131 1.382 . S
C132 H142 0.948 . S
N133 Co111 2.282 1_554 S
N133 C137 1.332 1_554 S
N133 C138 1.332 . S
C134 C135 1.388 1_554 S
C134 C138 1.382 . S
C134 H157 0.950 . S
C135 C134 1.388 1_556 S
C135 C136 1.386 . S
C136 C135 1.386 . S
C136 C137 1.382 . S
C136 H158 0.950 . S
C137 N133 1.332 1_556 S
C137 C136 1.382 . S
C137 H139 0.952 . S
C138 N133 1.332 . S
C138 C134 1.382 . S
C138 H140 0.948 . S
H139 C137 0.952 . S
H140 C138 0.948 . S
H141 C130 0.952 . S
H142 C132 0.948 . S
C143 C109 1.395 . S
C143 C113 1.379 1_556 S
C144 C106 1.389 . S
C144 C126 1.392 . S
C145 C116 1.392 . S
C145 C118 1.389 . S
C146 C121 1.395 . S
C146 C123 1.370 1_554 S
H147 C107 0.951 . S
H148 C108 0.950 . S
H149 C114 0.949 . S
H150 C115 0.950 . S
H151 C119 0.951 . S
H152 C120 0.950 . S
H153 C124 0.949 . S
H154 C125 0.950 . S
H155 C129 0.950 . S
H156 C131 0.950 . S
H157 C134 0.950 . S
H158 C136 0.950 . S
C159 C160 1.443 . S
C159 N163 1.376 . S
C159 C197 1.389 . S
C160 C159 1.443 . S
C160 C161 1.340 . S
C160 H200 0.951 . S
C161 C160 1.340 . S
C161 C162 1.439 . S
C161 H201 0.950 . S
C162 C161 1.439 . S
C162 N163 1.374 . S
C162 C196 1.395 . S
N163 C159 1.376 . S
N163 C162 1.374 . S
N163 Co164 2.008 . S
Co164 N163 2.008 . S
Co164 N165 1.995 . S
Co164 N170 2.008 . S
Co164 N175 1.995 . S
Co164 N180 2.282 . S
Co164 N186 2.282 . S
N165 Co164 1.995 . S
N165 C166 1.376 . S
N165 C169 1.383 . S
C166 N165 1.376 . S
C166 C167 1.446 . S
C166 C196 1.391 . S
C167 C166 1.446 . S
C167 C168 1.339 . S
C167 H202 0.949 . S
C168 C167 1.339 . S
C168 C169 1.439 . S
C168 H203 0.950 . S
C169 N165 1.383 . S
C169 C168 1.439 . S
C169 C198 1.392 . S
N170 Co164 2.008 . S
N170 C171 1.376 . S
N170 C174 1.374 . S
C171 N170 1.376 . S
C171 C172 1.443 . S
C171 C198 1.389 . S
C172 C171 1.443 . S
C172 C173 1.340 . S
C172 H204 0.951 . S
C173 C172 1.340 . S
C173 C174 1.439 . S
C173 H205 0.950 . S
C174 N170 1.374 . S
C174 C173 1.439 . S
C174 C199 1.395 . S
N175 Co164 1.995 . S
N175 C176 1.376 . S
N175 C179 1.383 . S
C176 N175 1.376 . S
C176 C177 1.446 . S
C176 C199 1.391 . S
C177 C176 1.446 . S
C177 C178 1.339 . S
C177 H206 0.949 . S
C178 C177 1.339 . S
C178 C179 1.439 . S
C178 H207 0.950 . S
C179 N175 1.383 . S
C179 C178 1.439 . S
C179 C197 1.392 . S
N180 Co164 2.282 . S
N180 C183 1.332 . S
N180 C185 1.332 . S
C181 C182 1.386 . S
C181 C184 1.388 . S
C182 C181 1.386 . S
C182 C183 1.382 . S
C182 H208 0.950 . S
C183 N180 1.332 . S
C183 C182 1.382 . S
C183 H194 0.952 . S
C184 C181 1.388 . S
C184 C185 1.382 . S
C184 H209 0.950 . S
C185 N180 1.332 . S
C185 C184 1.382 . S
C185 H195 0.948 . S
N186 Co164 2.282 . S
N186 C190 1.332 . S
N186 C191 1.332 . S
C187 C188 1.388 . S
C187 C191 1.382 . S
C187 H210 0.950 . S
C188 C187 1.388 . S
C188 C189 1.386 . S
C189 C188 1.386 . S
C189 C190 1.382 . S
C189 H211 0.950 . S
C190 N186 1.332 . S
C190 C189 1.382 . S
C190 H192 0.952 . S
C191 N186 1.332 . S
C191 C187 1.382 . S
C191 H193 0.948 . S
H192 C190 0.952 . S
H193 C191 0.948 . S
H194 C183 0.952 . S
H195 C185 0.948 . S
C196 C162 1.395 . S
C196 C166 1.391 . S
C197 C159 1.389 . S
C197 C179 1.392 . S
C198 C169 1.392 . S
C198 C171 1.389 . S
C199 C174 1.395 . S
C199 C176 1.391 . S
H200 C160 0.951 . S
H201 C161 0.950 . S
H202 C167 0.949 . S
H203 C168 0.950 . S
H204 C172 0.951 . S
H205 C173 0.950 . S
H206 C177 0.949 . S
H207 C178 0.950 . S
H208 C182 0.950 . S
H209 C184 0.950 . S
H210 C187 0.950 . S
H211 C189 0.950 . S
C212 C213 1.443 . S
C212 N216 1.376 . S
C212 C250 1.389 . S
C213 C212 1.443 . S
C213 C214 1.340 . S
C213 H253 0.951 . S
C214 C213 1.340 . S
C214 C215 1.439 . S
C214 H254 0.950 . S
C215 C214 1.439 . S
C215 N216 1.374 . S
C215 C249 1.395 . S
N216 C212 1.376 . S
N216 C215 1.374 . S
N216 Co217 2.008 . S
Co217 N216 2.008 . S
Co217 N218 1.995 . S
Co217 N223 2.008 . S
Co217 N228 1.995 . S
Co217 N233 2.282 . S
Co217 N239 2.282 . S
N218 Co217 1.995 . S
N218 C219 1.376 . S
N218 C222 1.383 . S
C219 N218 1.376 . S
C219 C220 1.446 . S
C219 C249 1.391 . S
C220 C219 1.446 . S
C220 C221 1.339 . S
C220 H255 0.949 . S
C221 C220 1.339 . S
C221 C222 1.439 . S
C221 H256 0.950 . S
C222 N218 1.383 . S
C222 C221 1.439 . S
C222 C251 1.392 . S
N223 Co217 2.008 . S
N223 C224 1.376 . S
N223 C227 1.374 . S
C224 N223 1.376 . S
C224 C225 1.443 . S
C224 C251 1.389 . S
C225 C224 1.443 . S
C225 C226 1.340 . S
C225 H257 0.951 . S
C226 C225 1.340 . S
C226 C227 1.439 . S
C226 H258 0.950 . S
C227 N223 1.374 . S
C227 C226 1.439 . S
C227 C252 1.395 . S
N228 Co217 1.995 . S
N228 C229 1.376 . S
N228 C232 1.383 . S
C229 N228 1.376 . S
C229 C230 1.446 . S
C229 C252 1.391 . S
C230 C229 1.446 . S
C230 C231 1.339 . S
C230 H259 0.949 . S
C231 C230 1.339 . S
C231 C232 1.439 . S
C231 H260 0.950 . S
C232 N228 1.383 . S
C232 C231 1.439 . S
C232 C250 1.392 . S
N233 Co217 2.282 . S
N233 C236 1.332 . S
N233 C238 1.332 . S
C234 C235 1.386 . S
C234 C237 1.388 . S
C235 C234 1.386 . S
C235 C236 1.382 . S
C235 H261 0.950 . S
C236 N233 1.332 . S
C236 C235 1.382 . S
C236 H247 0.952 . S
C237 C234 1.388 . S
C237 C238 1.382 . S
C237 H262 0.950 . S
C238 N233 1.332 . S
C238 C237 1.382 . S
C238 H248 0.948 . S
N239 Co217 2.282 . S
N239 C243 1.332 . S
N239 C244 1.332 . S
C240 C241 1.388 . S
C240 C244 1.382 . S
C240 H263 0.950 . S
C241 C240 1.388 . S
C241 C242 1.386 . S
C242 C241 1.386 . S
C242 C243 1.382 . S
C242 H264 0.950 . S
C243 N239 1.332 . S
C243 C242 1.382 . S
C243 H245 0.952 . S
C244 N239 1.332 . S
C244 C240 1.382 . S
C244 H246 0.948 . S
H245 C243 0.952 . S
H246 C244 0.948 . S
H247 C236 0.952 . S
H248 C238 0.948 . S
C249 C215 1.395 . S
C249 C219 1.391 . S
C250 C212 1.389 . S
C250 C232 1.392 . S
C251 C222 1.392 . S
C251 C224 1.389 . S
C252 C227 1.395 . S
C252 C229 1.391 . S
H253 C213 0.951 . S
H254 C214 0.950 . S
H255 C220 0.949 . S
H256 C221 0.950 . S
H257 C225 0.951 . S
H258 C226 0.950 . S
H259 C230 0.949 . S
H260 C231 0.950 . S
H261 C235 0.950 . S
H262 C237 0.950 . S
H263 C240 0.950 . S
H264 C242 0.950 . S
C265 C266 1.443 . S
C265 N269 1.376 . S
C265 C303 1.389 . S
C266 C265 1.443 . S
C266 C267 1.340 . S
C266 H306 0.951 . S
C267 C266 1.340 . S
C267 C268 1.439 . S
C267 H307 0.950 . S
C268 C267 1.439 . S
C268 N269 1.374 . S
C268 C302 1.395 . S
N269 C265 1.376 . S
N269 C268 1.374 . S
N269 Co270 2.008 . S
Co270 N269 2.008 . S
Co270 N271 1.995 1_556 S
Co270 N276 2.008 1_556 S
Co270 N281 1.995 . S
Co270 N286 2.282 . S
Co270 N292 2.282 1_556 S
N271 Co270 1.995 1_554 S
N271 C272 1.382 . S
N271 C275 1.383 . S
C272 N271 1.382 . S
C272 C273 1.454 . S
C272 C302 1.379 1_554 S
C273 C272 1.454 . S
C273 C274 1.339 . S
C273 H308 0.949 . S
C274 C273 1.339 . S
C274 C275 1.439 . S
C274 H309 0.950 . S
C275 N271 1.383 . S
C275 C274 1.439 . S
C275 C304 1.392 . S
N276 Co270 2.008 1_554 S
N276 C277 1.376 . S
N276 C280 1.374 . S
C277 N276 1.376 . S
C277 C278 1.443 . S
C277 C304 1.389 . S
C278 C277 1.443 . S
C278 C279 1.340 . S
C278 H310 0.951 . S
C279 C278 1.340 . S
C279 C280 1.439 . S
C279 H311 0.950 . S
C280 N276 1.374 . S
C280 C279 1.439 . S
C280 C305 1.395 . S
N281 Co270 1.995 . S
N281 C282 1.387 . S
N281 C285 1.383 . S
C282 N281 1.387 . S
C282 C283 1.459 . S
C282 C305 1.370 1_556 S
C283 C282 1.459 . S
C283 C284 1.339 . S
C283 H312 0.949 . S
C284 C283 1.339 . S
C284 C285 1.439 . S
C284 H313 0.950 . S
C285 N281 1.383 . S
C285 C284 1.439 . S
C285 C303 1.392 . S
N286 Co270 2.282 . S
N286 C289 1.332 1_556 S
N286 C291 1.332 . S
C287 C288 1.386 . S
C287 C290 1.388 1_554 S
C288 C287 1.386 . S
C288 C289 1.382 . S
C288 H314 0.950 . S
C289 N286 1.332 1_554 S
C289 C288 1.382 . S
C289 H300 0.952 . S
C290 C287 1.388 1_556 S
C290 C291 1.382 . S
C290 H315 0.950 . S
C291 N286 1.332 . S
C291 C290 1.382 . S
C291 H301 0.948 . S
N292 Co270 2.282 1_554 S
N292 C296 1.332 1_554 S
N292 C297 1.332 . S
C293 C294 1.388 1_554 S
C293 C297 1.382 . S
C293 H316 0.950 . S
C294 C293 1.388 1_556 S
C294 C295 1.386 . S
C295 C294 1.386 . S
C295 C296 1.382 . S
C295 H317 0.950 . S
C296 N292 1.332 1_556 S
C296 C295 1.382 . S
C296 H298 0.952 . S
C297 N292 1.332 . S
C297 C293 1.382 . S
C297 H299 0.948 . S
H298 C296 0.952 . S
H299 C297 0.948 . S
H300 C289 0.952 . S
H301 C291 0.948 . S
C302 C268 1.395 . S
C302 C272 1.379 1_556 S
C303 C265 1.389 . S
C303 C285 1.392 . S
C304 C275 1.392 . S
C304 C277 1.389 . S
C305 C280 1.395 . S
C305 C282 1.370 1_554 S
H306 C266 0.951 . S
H307 C267 0.950 . S
H308 C273 0.949 . S
H309 C274 0.950 . S
H310 C278 0.951 . S
H311 C279 0.950 . S
H312 C283 0.949 . S
H313 C284 0.950 . S
H314 C288 0.950 . S
H315 C290 0.950 . S
H316 C293 0.950 . S
H317 C295 0.950 . S
C318 C319 1.443 . S
C318 N322 1.376 . S
C318 C356 1.389 . S
C319 C318 1.443 . S
C319 C320 1.340 . S
C319 H359 0.951 . S
C320 C319 1.340 . S
C320 C321 1.439 . S
C320 H360 0.950 . S
C321 C320 1.439 . S
C321 N322 1.374 . S
C321 C355 1.395 . S
N322 C318 1.376 . S
N322 C321 1.374 . S
N322 Co323 2.008 . S
Co323 N322 2.008 . S
Co323 N324 1.995 . S
Co323 N329 2.008 . S
Co323 N334 1.995 . S
Co323 N339 2.282 . S
Co323 N345 2.282 . S
N324 Co323 1.995 . S
N324 C325 1.376 . S
N324 C328 1.383 . S
C325 N324 1.376 . S
C325 C326 1.446 . S
C325 C355 1.391 . S
C326 C325 1.446 . S
C326 C327 1.339 . S
C326 H361 0.949 . S
C327 C326 1.339 . S
C327 C328 1.439 . S
C327 H362 0.950 . S
C328 N324 1.383 . S
C328 C327 1.439 . S
C328 C357 1.392 . S
N329 Co323 2.008 . S
N329 C330 1.376 . S
N329 C333 1.374 . S
C330 N329 1.376 . S
C330 C331 1.443 . S
C330 C357 1.389 . S
C331 C330 1.443 . S
C331 C332 1.340 . S
C331 H363 0.951 . S
C332 C331 1.340 . S
C332 C333 1.439 . S
C332 H364 0.950 . S
C333 N329 1.374 . S
C333 C332 1.439 . S
C333 C358 1.395 . S
N334 Co323 1.995 . S
N334 C335 1.376 . S
N334 C338 1.383 . S
C335 N334 1.376 . S
C335 C336 1.446 . S
C335 C358 1.391 . S
C336 C335 1.446 . S
C336 C337 1.339 . S
C336 H365 0.949 . S
C337 C336 1.339 . S
C337 C338 1.439 . S
C337 H366 0.950 . S
C338 N334 1.383 . S
C338 C337 1.439 . S
C338 C356 1.392 . S
N339 Co323 2.282 . S
N339 C342 1.332 . S
N339 C344 1.332 . S
C340 C341 1.386 . S
C340 C343 1.388 . S
C341 C340 1.386 . S
C341 C342 1.382 . S
C341 H367 0.950 . S
C342 N339 1.332 . S
C342 C341 1.382 . S
C342 H353 0.952 . S
C343 C340 1.388 . S
C343 C344 1.382 . S
C343 H368 0.950 . S
C344 N339 1.332 . S
C344 C343 1.382 . S
C344 H354 0.948 . S
N345 Co323 2.282 . S
N345 C349 1.332 . S
N345 C350 1.332 . S
C346 C347 1.388 . S
C346 C350 1.382 . S
C346 H369 0.950 . S
C347 C346 1.388 . S
C347 C348 1.386 . S
C348 C347 1.386 . S
C348 C349 1.382 . S
C348 H370 0.950 . S
C349 N345 1.332 . S
C349 C348 1.382 . S
C349 H351 0.952 . S
C350 N345 1.332 . S
C350 C346 1.382 . S
C350 H352 0.948 . S
H351 C349 0.952 . S
H352 C350 0.948 . S
H353 C342 0.952 . S
H354 C344 0.948 . S
C355 C321 1.395 . S
C355 C325 1.391 . S
C356 C318 1.389 . S
C356 C338 1.392 . S
C357 C328 1.392 . S
C357 C330 1.389 . S
C358 C333 1.395 . S
C358 C335 1.391 . S
H359 C319 0.951 . S
H360 C320 0.950 . S
H361 C326 0.949 . S
H362 C327 0.950 . S
H363 C331 0.951 . S
H364 C332 0.950 . S
H365 C336 0.949 . S
H366 C337 0.950 . S
H367 C341 0.950 . S
H368 C343 0.950 . S
H369 C346 0.950 . S
H370 C348 0.950 . S
C371 C372 1.443 . S
C371 N375 1.376 . S
C371 C409 1.389 . S
C372 C371 1.443 . S
C372 C373 1.340 . S
C372 H412 0.951 . S
C373 C372 1.340 . S
C373 C374 1.439 . S
C373 H413 0.950 . S
C374 C373 1.439 . S
C374 N375 1.374 . S
C374 C408 1.395 . S
N375 C371 1.376 . S
N375 C374 1.374 . S
N375 Co376 2.008 . S
Co376 N375 2.008 . S
Co376 N377 1.995 . S
Co376 N382 2.008 . S
Co376 N387 1.995 . S
Co376 N392 2.282 . S
Co376 N398 2.282 . S
N377 Co376 1.995 . S
N377 C378 1.376 . S
N377 C381 1.383 . S
C378 N377 1.376 . S
C378 C379 1.446 . S
C378 C408 1.391 . S
C379 C378 1.446 . S
C379 C380 1.339 . S
C379 H414 0.949 . S
C380 C379 1.339 . S
C380 C381 1.439 . S
C380 H415 0.950 . S
C381 N377 1.383 . S
C381 C380 1.439 . S
C381 C410 1.392 . S
N382 Co376 2.008 . S
N382 C383 1.376 . S
N382 C386 1.374 . S
C383 N382 1.376 . S
C383 C384 1.443 . S
C383 C410 1.389 . S
C384 C383 1.443 . S
C384 C385 1.340 . S
C384 H416 0.951 . S
C385 C384 1.340 . S
C385 C386 1.439 . S
C385 H417 0.950 . S
C386 N382 1.374 . S
C386 C385 1.439 . S
C386 C411 1.395 . S
N387 Co376 1.995 . S
N387 C388 1.376 . S
N387 C391 1.383 . S
C388 N387 1.376 . S
C388 C389 1.446 . S
C388 C411 1.391 . S
C389 C388 1.446 . S
C389 C390 1.339 . S
C389 H418 0.949 . S
C390 C389 1.339 . S
C390 C391 1.439 . S
C390 H419 0.950 . S
C391 N387 1.383 . S
C391 C390 1.439 . S
C391 C409 1.392 . S
N392 Co376 2.282 . S
N392 C395 1.332 . S
N392 C397 1.332 . S
C393 C394 1.386 . S
C393 C396 1.388 . S
C394 C393 1.386 . S
C394 C395 1.382 . S
C394 H420 0.950 . S
C395 N392 1.332 . S
C395 C394 1.382 . S
C395 H406 0.952 . S
C396 C393 1.388 . S
C396 C397 1.382 . S
C396 H421 0.950 . S
C397 N392 1.332 . S
C397 C396 1.382 . S
C397 H407 0.948 . S
N398 Co376 2.282 . S
N398 C402 1.332 . S
N398 C403 1.332 . S
C399 C400 1.388 . S
C399 C403 1.382 . S
C399 H422 0.950 . S
C400 C399 1.388 . S
C400 C401 1.386 . S
C401 C400 1.386 . S
C401 C402 1.382 . S
C401 H423 0.950 . S
C402 N398 1.332 . S
C402 C401 1.382 . S
C402 H404 0.952 . S
C403 N398 1.332 . S
C403 C399 1.382 . S
C403 H405 0.948 . S
H404 C402 0.952 . S
H405 C403 0.948 . S
H406 C395 0.952 . S
H407 C397 0.948 . S
C408 C374 1.395 . S
C408 C378 1.391 . S
C409 C371 1.389 . S
C409 C391 1.392 . S
C410 C381 1.392 . S
C410 C383 1.389 . S
C411 C386 1.395 . S
C411 C388 1.391 . S
H412 C372 0.951 . S
H413 C373 0.950 . S
H414 C379 0.949 . S
H415 C380 0.950 . S
H416 C384 0.951 . S
H417 C385 0.950 . S
H418 C389 0.949 . S
H419 C390 0.950 . S
H420 C394 0.950 . S
H421 C396 0.950 . S
H422 C399 0.950 . S
H423 C401 0.950 . S
C424 C425 1.443 . S
C424 N428 1.376 . S
C424 C462 1.389 . S
C425 C424 1.443 . S
C425 C426 1.340 . S
C425 H465 0.951 . S
C426 C425 1.340 . S
C426 C427 1.439 . S
C426 H466 0.950 . S
C427 C426 1.439 . S
C427 N428 1.374 . S
C427 C461 1.395 . S
N428 C424 1.376 . S
N428 C427 1.374 . S
N428 Co429 2.008 . S
Co429 N428 2.008 . S
Co429 N430 1.995 1_554 S
Co429 N435 2.008 1_554 S
Co429 N440 1.995 . S
Co429 N445 2.282 . S
Co429 N451 2.282 1_554 S
N430 Co429 1.995 1_556 S
N430 C431 1.382 . S
N430 C434 1.383 . S
C431 N430 1.382 . S
C431 C432 1.454 . S
C431 C461 1.379 1_556 S
C432 C431 1.454 . S
C432 C433 1.339 . S
C432 H467 0.949 . S
C433 C432 1.339 . S
C433 C434 1.439 . S
C433 H468 0.950 . S
C434 N430 1.383 . S
C434 C433 1.439 . S
C434 C463 1.392 . S
N435 Co429 2.008 1_556 S
N435 C436 1.376 . S
N435 C439 1.374 . S
C436 N435 1.376 . S
C436 C437 1.443 . S
C436 C463 1.389 . S
C437 C436 1.443 . S
C437 C438 1.340 . S
C437 H469 0.951 . S
C438 C437 1.340 . S
C438 C439 1.439 . S
C438 H470 0.950 . S
C439 N435 1.374 . S
C439 C438 1.439 . S
C439 C464 1.395 . S
N440 Co429 1.995 . S
N440 C441 1.387 . S
N440 C444 1.383 . S
C441 N440 1.387 . S
C441 C442 1.459 . S
C441 C464 1.370 1_554 S
C442 C441 1.459 . S
C442 C443 1.339 . S
C442 H471 0.949 . S
C443 C442 1.339 . S
C443 C444 1.439 . S
C443 H472 0.950 . S
C444 N440 1.383 . S
C444 C443 1.439 . S
C444 C462 1.392 . S
N445 Co429 2.282 . S
N445 C448 1.332 1_554 S
N445 C450 1.332 . S
C446 C447 1.386 . S
C446 C449 1.388 1_556 S
C447 C446 1.386 . S
C447 C448 1.382 . S
C447 H473 0.950 . S
C448 N445 1.332 1_556 S
C448 C447 1.382 . S
C448 H459 0.952 . S
C449 C446 1.388 1_554 S
C449 C450 1.382 . S
C449 H474 0.950 . S
C450 N445 1.332 . S
C450 C449 1.382 . S
C450 H460 0.948 . S
N451 Co429 2.282 1_556 S
N451 C455 1.332 1_556 S
N451 C456 1.332 . S
C452 C453 1.388 1_556 S
C452 C456 1.382 . S
C452 H475 0.950 . S
C453 C452 1.388 1_554 S
C453 C454 1.386 . S
C454 C453 1.386 . S
C454 C455 1.382 . S
C454 H476 0.950 . S
C455 N451 1.332 1_554 S
C455 C454 1.382 . S
C455 H457 0.952 . S
C456 N451 1.332 . S
C456 C452 1.382 . S
C456 H458 0.948 . S
H457 C455 0.952 . S
H458 C456 0.948 . S
H459 C448 0.952 . S
H460 C450 0.948 . S
C461 C427 1.395 . S
C461 C431 1.379 1_554 S
C462 C424 1.389 . S
C462 C444 1.392 . S
C463 C434 1.392 . S
C463 C436 1.389 . S
C464 C439 1.395 . S
C464 C441 1.370 1_556 S
H465 C425 0.951 . S
H466 C426 0.950 . S
H467 C432 0.949 . S
H468 C433 0.950 . S
H469 C437 0.951 . S
H470 C438 0.950 . S
H471 C442 0.949 . S
H472 C443 0.950 . S
H473 C447 0.950 . S
H474 C449 0.950 . S
H475 C452 0.950 . S
H476 C454 0.950 . S
C477 C478 1.443 . S
C477 N481 1.376 . S
C477 C515 1.389 . S
C478 C477 1.443 . S
C478 C479 1.340 . S
C478 H518 0.951 . S
C479 C478 1.340 . S
C479 C480 1.439 . S
C479 H519 0.950 . S
C480 C479 1.439 . S
C480 N481 1.374 . S
C480 C514 1.395 . S
N481 C477 1.376 . S
N481 C480 1.374 . S
N481 Co482 2.008 . S
Co482 N481 2.008 . S
Co482 N483 1.995 . S
Co482 N488 2.008 . S
Co482 N493 1.995 . S
Co482 N498 2.282 . S
Co482 N504 2.282 . S
N483 Co482 1.995 . S
N483 C484 1.376 . S
N483 C487 1.383 . S
C484 N483 1.376 . S
C484 C485 1.446 . S
C484 C514 1.391 . S
C485 C484 1.446 . S
C485 C486 1.339 . S
C485 H520 0.949 . S
C486 C485 1.339 . S
C486 C487 1.439 . S
C486 H521 0.950 . S
C487 N483 1.383 . S
C487 C486 1.439 . S
C487 C516 1.392 . S
N488 Co482 2.008 . S
N488 C489 1.376 . S
N488 C492 1.374 . S
C489 N488 1.376 . S
C489 C490 1.443 . S
C489 C516 1.389 . S
C490 C489 1.443 . S
C490 C491 1.340 . S
C490 H522 0.951 . S
C491 C490 1.340 . S
C491 C492 1.439 . S
C491 H523 0.950 . S
C492 N488 1.374 . S
C492 C491 1.439 . S
C492 C517 1.395 . S
N493 Co482 1.995 . S
N493 C494 1.376 . S
N493 C497 1.383 . S
C494 N493 1.376 . S
C494 C495 1.446 . S
C494 C517 1.391 . S
C495 C494 1.446 . S
C495 C496 1.339 . S
C495 H524 0.949 . S
C496 C495 1.339 . S
C496 C497 1.439 . S
C496 H525 0.950 . S
C497 N493 1.383 . S
C497 C496 1.439 . S
C497 C515 1.392 . S
N498 Co482 2.282 . S
N498 C501 1.332 . S
N498 C503 1.332 . S
C499 C500 1.386 . S
C499 C502 1.388 . S
C500 C499 1.386 . S
C500 C501 1.382 . S
C500 H526 0.950 . S
C501 N498 1.332 . S
C501 C500 1.382 . S
C501 H512 0.952 . S
C502 C499 1.388 . S
C502 C503 1.382 . S
C502 H527 0.950 . S
C503 N498 1.332 . S
C503 C502 1.382 . S
C503 H513 0.948 . S
N504 Co482 2.282 . S
N504 C508 1.332 . S
N504 C509 1.332 . S
C505 C506 1.388 . S
C505 C509 1.382 . S
C505 H528 0.950 . S
C506 C505 1.388 . S
C506 C507 1.386 . S
C507 C506 1.386 . S
C507 C508 1.382 . S
C507 H529 0.950 . S
C508 N504 1.332 . S
C508 C507 1.382 . S
C508 H510 0.952 . S
C509 N504 1.332 . S
C509 C505 1.382 . S
C509 H511 0.948 . S
H510 C508 0.952 . S
H511 C509 0.948 . S
H512 C501 0.952 . S
H513 C503 0.948 . S
C514 C480 1.395 . S
C514 C484 1.391 . S
C515 C477 1.389 . S
C515 C497 1.392 . S
C516 C487 1.392 . S
C516 C489 1.389 . S
C517 C492 1.395 . S
C517 C494 1.391 . S
H518 C478 0.951 . S
H519 C479 0.950 . S
H520 C485 0.949 . S
H521 C486 0.950 . S
H522 C490 0.951 . S
H523 C491 0.950 . S
H524 C495 0.949 . S
H525 C496 0.950 . S
H526 C500 0.950 . S
H527 C502 0.950 . S
H528 C505 0.950 . S
H529 C507 0.950 . S
C530 C531 1.443 . S
C530 N534 1.376 . S
C530 C568 1.389 . S
C531 C530 1.443 . S
C531 C532 1.340 . S
C531 H571 0.951 . S
C532 C531 1.340 . S
C532 C533 1.439 . S
C532 H572 0.950 . S
C533 C532 1.439 . S
C533 N534 1.374 . S
C533 C567 1.395 . S
N534 C530 1.376 . S
N534 C533 1.374 . S
N534 Co535 2.008 . S
Co535 N534 2.008 . S
Co535 N536 1.995 . S
Co535 N541 2.008 . S
Co535 N546 1.995 . S
Co535 N551 2.282 . S
Co535 N557 2.282 . S
N536 Co535 1.995 . S
N536 C537 1.376 . S
N536 C540 1.383 . S
C537 N536 1.376 . S
C537 C538 1.446 . S
C537 C567 1.391 . S
C538 C537 1.446 . S
C538 C539 1.339 . S
C538 H573 0.949 . S
C539 C538 1.339 . S
C539 C540 1.439 . S
C539 H574 0.950 . S
C540 N536 1.383 . S
C540 C539 1.439 . S
C540 C569 1.392 . S
N541 Co535 2.008 . S
N541 C542 1.376 . S
N541 C545 1.374 . S
C542 N541 1.376 . S
C542 C543 1.443 . S
C542 C569 1.389 . S
C543 C542 1.443 . S
C543 C544 1.340 . S
C543 H575 0.951 . S
C544 C543 1.340 . S
C544 C545 1.439 . S
C544 H576 0.950 . S
C545 N541 1.374 . S
C545 C544 1.439 . S
C545 C570 1.395 . S
N546 Co535 1.995 . S
N546 C547 1.376 . S
N546 C550 1.383 . S
C547 N546 1.376 . S
C547 C548 1.446 . S
C547 C570 1.391 . S
C548 C547 1.446 . S
C548 C549 1.339 . S
C548 H577 0.949 . S
C549 C548 1.339 . S
C549 C550 1.439 . S
C549 H578 0.950 . S
C550 N546 1.383 . S
C550 C549 1.439 . S
C550 C568 1.392 . S
N551 Co535 2.282 . S
N551 C554 1.332 . S
N551 C556 1.332 . S
C552 C553 1.386 . S
C552 C555 1.388 . S
C553 C552 1.386 . S
C553 C554 1.382 . S
C553 H579 0.950 . S
C554 N551 1.332 . S
C554 C553 1.382 . S
C554 H565 0.952 . S
C555 C552 1.388 . S
C555 C556 1.382 . S
C555 H580 0.950 . S
C556 N551 1.332 . S
C556 C555 1.382 . S
C556 H566 0.948 . S
N557 Co535 2.282 . S
N557 C561 1.332 . S
N557 C562 1.332 . S
C558 C559 1.388 . S
C558 C562 1.382 . S
C558 H581 0.950 . S
C559 C558 1.388 . S
C559 C560 1.386 . S
C560 C559 1.386 . S
C560 C561 1.382 . S
C560 H582 0.950 . S
C561 N557 1.332 . S
C561 C560 1.382 . S
C561 H563 0.952 . S
C562 N557 1.332 . S
C562 C558 1.382 . S
C562 H564 0.948 . S
H563 C561 0.952 . S
H564 C562 0.948 . S
H565 C554 0.952 . S
H566 C556 0.948 . S
C567 C533 1.395 . S
C567 C537 1.391 . S
C568 C530 1.389 . S
C568 C550 1.392 . S
C569 C540 1.392 . S
C569 C542 1.389 . S
C570 C545 1.395 . S
C570 C547 1.391 . S
H571 C531 0.951 . S
H572 C532 0.950 . S
H573 C538 0.949 . S
H574 C539 0.950 . S
H575 C543 0.951 . S
H576 C544 0.950 . S
H577 C548 0.949 . S
H578 C549 0.950 . S
H579 C553 0.950 . S
H580 C555 0.950 . S
H581 C558 0.950 . S
H582 C560 0.950 . S
C583 C584 1.443 . S
C583 N587 1.376 . S
C583 C621 1.389 . S
C584 C583 1.443 . S
C584 C585 1.340 . S
C584 H624 0.951 . S
C585 C584 1.340 . S
C585 C586 1.439 . S
C585 H625 0.950 . S
C586 C585 1.439 . S
C586 N587 1.374 . S
C586 C620 1.395 . S
N587 C583 1.376 . S
N587 C586 1.374 . S
N587 Co588 2.008 . S
Co588 N587 2.008 . S
Co588 N589 1.995 1_554 S
Co588 N594 2.008 1_554 S
Co588 N599 1.995 . S
Co588 N604 2.282 . S
Co588 N610 2.282 1_554 S
N589 Co588 1.995 1_556 S
N589 C590 1.382 . S
N589 C593 1.383 . S
C590 N589 1.382 . S
C590 C591 1.454 . S
C590 C620 1.379 1_556 S
C591 C590 1.454 . S
C591 C592 1.339 . S
C591 H626 0.949 . S
C592 C591 1.339 . S
C592 C593 1.439 . S
C592 H627 0.950 . S
C593 N589 1.383 . S
C593 C592 1.439 . S
C593 C622 1.392 . S
N594 Co588 2.008 1_556 S
N594 C595 1.376 . S
N594 C598 1.374 . S
C595 N594 1.376 . S
C595 C596 1.443 . S
C595 C622 1.389 . S
C596 C595 1.443 . S
C596 C597 1.340 . S
C596 H628 0.951 . S
C597 C596 1.340 . S
C597 C598 1.439 . S
C597 H629 0.950 . S
C598 N594 1.374 . S
C598 C597 1.439 . S
C598 C623 1.395 . S
N599 Co588 1.995 . S
N599 C600 1.387 . S
N599 C603 1.383 . S
C600 N599 1.387 . S
C600 C601 1.459 . S
C600 C623 1.370 1_554 S
C601 C600 1.459 . S
C601 C602 1.339 . S
C601 H630 0.949 . S
C602 C601 1.339 . S
C602 C603 1.439 . S
C602 H631 0.950 . S
C603 N599 1.383 . S
C603 C602 1.439 . S
C603 C621 1.392 . S
N604 Co588 2.282 . S
N604 C607 1.332 1_554 S
N604 C609 1.332 . S
C605 C606 1.386 . S
C605 C608 1.388 1_556 S
C606 C605 1.386 . S
C606 C607 1.382 . S
C606 H632 0.950 . S
C607 N604 1.332 1_556 S
C607 C606 1.382 . S
C607 H618 0.952 . S
C608 C605 1.388 1_554 S
C608 C609 1.382 . S
C608 H633 0.950 . S
C609 N604 1.332 . S
C609 C608 1.382 . S
C609 H619 0.948 . S
N610 Co588 2.282 1_556 S
N610 C614 1.332 1_556 S
N610 C615 1.332 . S
C611 C612 1.388 1_556 S
C611 C615 1.382 . S
C611 H634 0.950 . S
C612 C611 1.388 1_554 S
C612 C613 1.386 . S
C613 C612 1.386 . S
C613 C614 1.382 . S
C613 H635 0.950 . S
C614 N610 1.332 1_554 S
C614 C613 1.382 . S
C614 H616 0.952 . S
C615 N610 1.332 . S
C615 C611 1.382 . S
C615 H617 0.948 . S
H616 C614 0.952 . S
H617 C615 0.948 . S
H618 C607 0.952 . S
H619 C609 0.948 . S
C620 C586 1.395 . S
C620 C590 1.379 1_554 S
C621 C583 1.389 . S
C621 C603 1.392 . S
C622 C593 1.392 . S
C622 C595 1.389 . S
C623 C598 1.395 . S
C623 C600 1.370 1_556 S
H624 C584 0.951 . S
H625 C585 0.950 . S
H626 C591 0.949 . S
H627 C592 0.950 . S
H628 C596 0.951 . S
H629 C597 0.950 . S
H630 C601 0.949 . S
H631 C602 0.950 . S
H632 C606 0.950 . S
H633 C608 0.950 . S
H634 C611 0.950 . S
H635 C613 0.950 . S
H636 C648 0.930 . S
H637 C650 0.930 . S
H638 C651 0.930 . S
H639 C655 0.959 . S
H640 C655 0.959 . S
H641 C655 0.961 . S
H642 C656 0.960 . S
H643 C656 0.961 . S
H644 C656 0.959 . S
H645 C659 0.929 . S
H646 C660 0.931 . S
H647 C662 0.930 . S
C648 H636 0.930 . S
C648 C649 1.399 . S
C648 C653 1.399 . S
C649 C648 1.399 . S
C649 C650 1.376 . S
C650 H637 0.930 . S
C650 C649 1.376 . S
C650 C651 1.388 . S
C651 H638 0.930 . S
C651 C650 1.388 . S
C651 C652 1.390 . S
C652 C651 1.390 . S
C652 C653 1.394 . S
C652 C658 1.465 . S
C653 C648 1.399 . S
C653 C652 1.394 . S
C653 C654 1.516 . S
C654 C653 1.516 . S
C654 C655 1.502 . S
C654 C656 1.561 . S
C654 C657 1.526 . S
C655 H639 0.959 . S
C655 H640 0.959 . S
C655 H641 0.961 . S
C655 C654 1.502 . S
C656 H642 0.960 . S
C656 H643 0.961 . S
C656 H644 0.959 . S
C656 C654 1.561 . S
C657 C654 1.526 . S
C657 C658 1.396 . S
C657 C662 1.390 . S
C658 C652 1.465 . S
C658 C657 1.396 . S
C658 C659 1.399 . S
C659 H645 0.929 . S
C659 C658 1.399 . S
C659 C660 1.385 . S
C660 H646 0.931 . S
C660 C659 1.385 . S
C660 C661 1.389 . S
C661 C660 1.389 . S
C661 C662 1.387 . S
C662 H647 0.930 . S
C662 C657 1.390 . S
C662 C661 1.387 . S
H663 C675 0.930 . S
H664 C677 0.930 . S
H665 C678 0.930 . S
H666 C682 0.959 . S
H667 C682 0.959 . S
H668 C682 0.961 . S
H669 C683 0.960 . S
H670 C683 0.961 . S
H671 C683 0.959 . S
H672 C686 0.929 . S
H673 C687 0.931 . S
H674 C689 0.930 . S
C675 H663 0.930 . S
C675 C676 1.399 . S
C675 C680 1.399 . S
C676 C675 1.399 . S
C676 C677 1.376 . S
C677 H664 0.930 . S
C677 C676 1.376 . S
C677 C678 1.388 . S
C678 H665 0.930 . S
C678 C677 1.388 . S
C678 C679 1.390 . S
C679 C678 1.390 . S
C679 C680 1.394 . S
C679 C685 1.465 . S
C680 C675 1.399 . S
C680 C679 1.394 . S
C680 C681 1.516 . S
C681 C680 1.516 . S
C681 C682 1.502 . S
C681 C683 1.561 . S
C681 C684 1.526 . S
C682 H666 0.959 . S
C682 H667 0.959 . S
C682 H668 0.961 . S
C682 C681 1.502 . S
C683 H669 0.960 . S
C683 H670 0.961 . S
C683 H671 0.959 . S
C683 C681 1.561 . S
C684 C681 1.526 . S
C684 C685 1.396 . S
C684 C689 1.390 . S
C685 C679 1.465 . S
C685 C684 1.396 . S
C685 C686 1.399 . S
C686 H672 0.929 . S
C686 C685 1.399 . S
C686 C687 1.385 . S
C687 H673 0.931 . S
C687 C686 1.385 . S
C687 C688 1.389 . S
C688 C687 1.389 . S
C688 C689 1.387 . S
C689 H674 0.930 . S
C689 C684 1.390 . S
C689 C688 1.387 . S
H690 C702 0.930 . S
H691 C704 0.930 . S
H692 C705 0.930 . S
H693 C709 0.959 . S
H694 C709 0.959 . S
H695 C709 0.961 . S
H696 C710 0.960 . S
H697 C710 0.961 . S
H698 C710 0.959 . S
H699 C713 0.929 . S
H700 C714 0.931 . S
H701 C716 0.930 . S
C702 H690 0.930 . S
C702 C703 1.399 . S
C702 C707 1.399 . S
C703 C702 1.399 . S
C703 C704 1.376 . S
C704 H691 0.930 . S
C704 C703 1.376 . S
C704 C705 1.388 . S
C705 H692 0.930 . S
C705 C704 1.388 . S
C705 C706 1.390 . S
C706 C705 1.390 . S
C706 C707 1.394 . S
C706 C712 1.465 . S
C707 C702 1.399 . S
C707 C706 1.394 . S
C707 C708 1.516 . S
C708 C707 1.516 . S
C708 C709 1.502 . S
C708 C710 1.561 . S
C708 C711 1.526 . S
C709 H693 0.959 . S
C709 H694 0.959 . S
C709 H695 0.961 . S
C709 C708 1.502 . S
C710 H696 0.960 . S
C710 H697 0.961 . S
C710 H698 0.959 . S
C710 C708 1.561 . S
C711 C708 1.526 . S
C711 C712 1.396 . S
C711 C716 1.390 . S
C712 C706 1.465 . S
C712 C711 1.396 . S
C712 C713 1.399 . S
C713 H699 0.929 . S
C713 C712 1.399 . S
C713 C714 1.385 . S
C714 H700 0.931 . S
C714 C713 1.385 . S
C714 C715 1.389 . S
C715 C714 1.389 . S
C715 C716 1.387 . S
C716 H701 0.930 . S
C716 C711 1.390 . S
C716 C715 1.387 . S
H717 C729 0.930 . S
H718 C731 0.930 . S
H719 C732 0.930 . S
H720 C736 0.959 . S
H721 C736 0.959 . S
H722 C736 0.961 . S
H723 C737 0.960 . S
H724 C737 0.961 . S
H725 C737 0.959 . S
H726 C740 0.929 . S
H727 C741 0.931 . S
H728 C743 0.930 . S
C729 H717 0.930 . S
C729 C730 1.399 . S
C729 C734 1.399 . S
C730 C729 1.399 . S
C730 C731 1.376 . S
C731 H718 0.930 . S
C731 C730 1.376 . S
C731 C732 1.388 . S
C732 H719 0.930 . S
C732 C731 1.388 . S
C732 C733 1.390 . S
C733 C732 1.390 . S
C733 C734 1.394 . S
C733 C739 1.465 . S
C734 C729 1.399 . S
C734 C733 1.394 . S
C734 C735 1.516 . S
C735 C734 1.516 . S
C735 C736 1.502 . S
C735 C737 1.561 . S
C735 C738 1.526 . S
C736 H720 0.959 . S
C736 H721 0.959 . S
C736 H722 0.961 . S
C736 C735 1.502 . S
C737 H723 0.960 . S
C737 H724 0.961 . S
C737 H725 0.959 . S
C737 C735 1.561 . S
C738 C735 1.526 . S
C738 C739 1.396 . S
C738 C743 1.390 . S
C739 C733 1.465 . S
C739 C738 1.396 . S
C739 C740 1.399 . S
C740 H726 0.929 . S
C740 C739 1.399 . S
C740 C741 1.385 . S
C741 H727 0.931 . S
C741 C740 1.385 . S
C741 C742 1.389 . S
C742 C741 1.389 . S
C742 C743 1.387 . S
C743 H728 0.930 . S
C743 C738 1.390 . S
C743 C742 1.387 . S
H744 C756 0.930 . S
H745 C758 0.930 . S
H746 C759 0.930 . S
H747 C763 0.959 . S
H748 C763 0.959 . S
H749 C763 0.961 . S
H750 C764 0.960 . S
H751 C764 0.961 . S
H752 C764 0.959 . S
H753 C767 0.929 . S
H754 C768 0.931 . S
H755 C770 0.930 . S
C756 H744 0.930 . S
C756 C757 1.399 . S
C756 C761 1.399 . S
C757 C756 1.399 . S
C757 C758 1.376 . S
C758 H745 0.930 . S
C758 C757 1.376 . S
C758 C759 1.388 . S
C759 H746 0.930 . S
C759 C758 1.388 . S
C759 C760 1.390 . S
C760 C759 1.390 . S
C760 C761 1.394 . S
C760 C766 1.465 . S
C761 C756 1.399 . S
C761 C760 1.394 . S
C761 C762 1.516 . S
C762 C761 1.516 . S
C762 C763 1.502 . S
C762 C764 1.561 . S
C762 C765 1.526 . S
C763 H747 0.959 . S
C763 H748 0.959 . S
C763 H749 0.961 . S
C763 C762 1.502 . S
C764 H750 0.960 . S
C764 H751 0.961 . S
C764 H752 0.959 . S
C764 C762 1.561 . S
C765 C762 1.526 . S
C765 C766 1.396 . S
C765 C770 1.390 . S
C766 C760 1.465 . S
C766 C765 1.396 . S
C766 C767 1.399 . S
C767 H753 0.929 . S
C767 C766 1.399 . S
C767 C768 1.385 . S
C768 H754 0.931 . S
C768 C767 1.385 . S
C768 C769 1.389 . S
C769 C768 1.389 . S
C769 C770 1.387 . S
C770 H755 0.930 . S
C770 C765 1.390 . S
C770 C769 1.387 . S
H771 C783 0.930 . S
H772 C785 0.930 . S
H773 C786 0.930 . S
H774 C790 0.959 . S
H775 C790 0.959 . S
H776 C790 0.961 . S
H777 C791 0.960 . S
H778 C791 0.961 . S
H779 C791 0.959 . S
H780 C794 0.929 . S
H781 C795 0.931 . S
H782 C797 0.930 . S
C783 H771 0.930 . S
C783 C784 1.399 . S
C783 C788 1.399 . S
C784 C783 1.399 . S
C784 C785 1.376 . S
C785 H772 0.930 . S
C785 C784 1.376 . S
C785 C786 1.388 . S
C786 H773 0.930 . S
C786 C785 1.388 . S
C786 C787 1.390 . S
C787 C786 1.390 . S
C787 C788 1.394 . S
C787 C793 1.465 . S
C788 C783 1.399 . S
C788 C787 1.394 . S
C788 C789 1.516 . S
C789 C788 1.516 . S
C789 C790 1.502 . S
C789 C791 1.561 . S
C789 C792 1.526 . S
C790 H774 0.959 . S
C790 H775 0.959 . S
C790 H776 0.961 . S
C790 C789 1.502 . S
C791 H777 0.960 . S
C791 H778 0.961 . S
C791 H779 0.959 . S
C791 C789 1.561 . S
C792 C789 1.526 . S
C792 C793 1.396 . S
C792 C797 1.390 . S
C793 C787 1.465 . S
C793 C792 1.396 . S
C793 C794 1.399 . S
C794 H780 0.929 . S
C794 C793 1.399 . S
C794 C795 1.385 . S
C795 H781 0.931 . S
C795 C794 1.385 . S
C795 C796 1.389 . S
C796 C795 1.389 . S
C796 C797 1.387 . S
C797 H782 0.930 . S
C797 C792 1.390 . S
C797 C796 1.387 . S
H798 C810 0.930 . S
H799 C812 0.930 . S
H800 C813 0.930 . S
H801 C817 0.959 . S
H802 C817 0.959 . S
H803 C817 0.961 . S
H804 C818 0.960 . S
H805 C818 0.961 . S
H806 C818 0.959 . S
H807 C821 0.929 . S
H808 C822 0.931 . S
H809 C824 0.930 . S
C810 H798 0.930 . S
C810 C811 1.399 . S
C810 C815 1.399 . S
C811 C810 1.399 . S
C811 C812 1.376 . S
C812 H799 0.930 . S
C812 C811 1.376 . S
C812 C813 1.388 . S
C813 H800 0.930 . S
C813 C812 1.388 . S
C813 C814 1.390 . S
C814 C813 1.390 . S
C814 C815 1.394 . S
C814 C820 1.465 . S
C815 C810 1.399 . S
C815 C814 1.394 . S
C815 C816 1.516 . S
C816 C815 1.516 . S
C816 C817 1.502 . S
C816 C818 1.561 . S
C816 C819 1.526 . S
C817 H801 0.959 . S
C817 H802 0.959 . S
C817 H803 0.961 . S
C817 C816 1.502 . S
C818 H804 0.960 . S
C818 H805 0.961 . S
C818 H806 0.959 . S
C818 C816 1.561 . S
C819 C816 1.526 . S
C819 C820 1.396 . S
C819 C824 1.390 . S
C820 C814 1.465 . S
C820 C819 1.396 . S
C820 C821 1.399 . S
C821 H807 0.929 . S
C821 C820 1.399 . S
C821 C822 1.385 . S
C822 H808 0.931 . S
C822 C821 1.385 . S
C822 C823 1.389 . S
C823 C822 1.389 . S
C823 C824 1.387 . S
C824 H809 0.930 . S
C824 C819 1.390 . S
C824 C823 1.387 . S
H825 C837 0.930 . S
H826 C839 0.930 . S
H827 C840 0.930 . S
H828 C844 0.959 . S
H829 C844 0.959 . S
H830 C844 0.961 . S
H831 C845 0.960 . S
H832 C845 0.961 . S
H833 C845 0.959 . S
H834 C848 0.929 . S
H835 C849 0.931 . S
H836 C851 0.930 . S
C837 H825 0.930 . S
C837 C838 1.399 . S
C837 C842 1.399 . S
C838 C837 1.399 . S
C838 C839 1.376 . S
C839 H826 0.930 . S
C839 C838 1.376 . S
C839 C840 1.388 . S
C840 H827 0.930 . S
C840 C839 1.388 . S
C840 C841 1.390 . S
C841 C840 1.390 . S
C841 C842 1.394 . S
C841 C847 1.465 . S
C842 C837 1.399 . S
C842 C841 1.394 . S
C842 C843 1.516 . S
C843 C842 1.516 . S
C843 C844 1.502 . S
C843 C845 1.561 . S
C843 C846 1.526 . S
C844 H828 0.959 . S
C844 H829 0.959 . S
C844 H830 0.961 . S
C844 C843 1.502 . S
C845 H831 0.960 . S
C845 H832 0.961 . S
C845 H833 0.959 . S
C845 C843 1.561 . S
C846 C843 1.526 . S
C846 C847 1.396 . S
C846 C851 1.390 . S
C847 C841 1.465 . S
C847 C846 1.396 . S
C847 C848 1.399 . S
C848 H834 0.929 . S
C848 C847 1.399 . S
C848 C849 1.385 . S
C849 H835 0.931 . S
C849 C848 1.385 . S
C849 C850 1.389 . S
C850 C849 1.389 . S
C850 C851 1.387 . S
C851 H836 0.930 . S
C851 C846 1.390 . S
C851 C850 1.387 . S
H852 C864 0.930 . S
H853 C866 0.930 . S
H854 C867 0.930 . S
H855 C871 0.959 . S
H856 C871 0.959 . S
H857 C871 0.961 . S
H858 C872 0.960 . S
H859 C872 0.961 . S
H860 C872 0.959 . S
H861 C875 0.929 . S
H862 C876 0.931 . S
H863 C878 0.930 . S
C864 H852 0.930 . S
C864 C865 1.399 . S
C864 C869 1.399 . S
C865 C864 1.399 . S
C865 C866 1.376 1_554 S
C866 H853 0.930 . S
C866 C865 1.376 1_556 S
C866 C867 1.388 . S
C867 H854 0.930 . S
C867 C866 1.388 . S
C867 C868 1.390 . S
C868 C867 1.390 . S
C868 C869 1.394 1_556 S
C868 C874 1.465 . S
C869 C864 1.399 . S
C869 C868 1.394 1_554 S
C869 C870 1.516 . S
C870 C869 1.516 . S
C870 C871 1.502 . S
C870 C872 1.561 1_554 S
C870 C873 1.526 . S
C871 H855 0.959 . S
C871 H856 0.959 . S
C871 H857 0.961 . S
C871 C870 1.502 . S
C872 H858 0.960 . S
C872 H859 0.961 . S
C872 H860 0.959 . S
C872 C870 1.561 1_556 S
C873 C870 1.526 . S
C873 C874 1.396 1_554 S
C873 C878 1.390 . S
C874 C868 1.465 . S
C874 C873 1.396 1_556 S
C874 C875 1.399 . S
C875 H861 0.929 . S
C875 C874 1.399 . S
C875 C876 1.385 . S
C876 H862 0.931 . S
C876 C875 1.385 . S
C876 C877 1.389 . S
C877 C876 1.389 . S
C877 C878 1.387 1_556 S
C878 H863 0.930 . S
C878 C873 1.390 . S
C878 C877 1.387 1_554 S
H879 C891 0.930 . S
H880 C893 0.930 . S
H881 C894 0.930 . S
H882 C898 0.959 . S
H883 C898 0.959 . S
H884 C898 0.961 . S
H885 C899 0.960 . S
H886 C899 0.961 . S
H887 C899 0.959 . S
H888 C902 0.929 . S
H889 C903 0.931 . S
H890 C905 0.930 . S
C891 H879 0.930 . S
C891 C892 1.399 . S
C891 C896 1.399 . S
C892 C891 1.399 . S
C892 C893 1.376 . S
C893 H880 0.930 . S
C893 C892 1.376 . S
C893 C894 1.388 . S
C894 H881 0.930 . S
C894 C893 1.388 . S
C894 C895 1.390 . S
C895 C894 1.390 . S
C895 C896 1.394 . S
C895 C901 1.465 . S
C896 C891 1.399 . S
C896 C895 1.394 . S
C896 C897 1.516 . S
C897 C896 1.516 . S
C897 C898 1.502 . S
C897 C899 1.561 . S
C897 C900 1.526 . S
C898 H882 0.959 . S
C898 H883 0.959 . S
C898 H884 0.961 . S
C898 C897 1.502 . S
C899 H885 0.960 . S
C899 H886 0.961 . S
C899 H887 0.959 . S
C899 C897 1.561 . S
C900 C897 1.526 . S
C900 C901 1.396 . S
C900 C905 1.390 . S
C901 C895 1.465 . S
C901 C900 1.396 . S
C901 C902 1.399 . S
C902 H888 0.929 . S
C902 C901 1.399 . S
C902 C903 1.385 . S
C903 H889 0.931 . S
C903 C902 1.385 . S
C903 C904 1.389 . S
C904 C903 1.389 . S
C904 C905 1.387 . S
C905 H890 0.930 . S
C905 C900 1.390 . S
C905 C904 1.387 . S
H906 C918 0.930 . S
H907 C920 0.930 . S
H908 C921 0.930 . S
H909 C925 0.959 . S
H910 C925 0.959 . S
H911 C925 0.961 . S
H912 C926 0.960 . S
H913 C926 0.961 . S
H914 C926 0.959 . S
H915 C929 0.929 . S
H916 C930 0.931 . S
H917 C932 0.930 . S
C918 H906 0.930 . S
C918 C919 1.399 . S
C918 C923 1.399 . S
C919 C918 1.399 . S
C919 C920 1.376 . S
C920 H907 0.930 . S
C920 C919 1.376 . S
C920 C921 1.388 . S
C921 H908 0.930 . S
C921 C920 1.388 . S
C921 C922 1.390 . S
C922 C921 1.390 . S
C922 C923 1.394 . S
C922 C928 1.465 . S
C923 C918 1.399 . S
C923 C922 1.394 . S
C923 C924 1.516 . S
C924 C923 1.516 . S
C924 C925 1.502 . S
C924 C926 1.561 . S
C924 C927 1.526 . S
C925 H909 0.959 . S
C925 H910 0.959 . S
C925 H911 0.961 . S
C925 C924 1.502 . S
C926 H912 0.960 . S
C926 H913 0.961 . S
C926 H914 0.959 . S
C926 C924 1.561 . S
C927 C924 1.526 . S
C927 C928 1.396 . S
C927 C932 1.390 . S
C928 C922 1.465 . S
C928 C927 1.396 . S
C928 C929 1.399 . S
C929 H915 0.929 . S
C929 C928 1.399 . S
C929 C930 1.385 . S
C930 H916 0.931 . S
C930 C929 1.385 . S
C930 C931 1.389 . S
C931 C930 1.389 . S
C931 C932 1.387 . S
C932 H917 0.930 . S
C932 C927 1.390 . S
C932 C931 1.387 . S
H933 C945 0.930 . S
H934 C947 0.930 . S
H935 C948 0.930 . S
H936 C952 0.959 . S
H937 C952 0.959 . S
H938 C952 0.961 . S
H939 C953 0.960 . S
H940 C953 0.961 . S
H941 C953 0.959 . S
H942 C956 0.929 . S
H943 C957 0.931 . S
H944 C959 0.930 . S
C945 H933 0.930 . S
C945 C946 1.399 . S
C945 C950 1.399 1_556 S
C946 C945 1.399 . S
C946 C947 1.375 1_556 S
C947 H934 0.930 . S
C947 C946 1.375 1_554 S
C947 C948 1.390 . S
C948 H935 0.930 . S
C948 C947 1.390 . S
C948 C949 1.390 . S
C949 C948 1.390 . S
C949 C950 1.394 . S
C949 C955 1.465 . S
C950 C945 1.399 1_554 S
C950 C949 1.394 . S
C950 C951 1.516 . S
C951 C950 1.516 . S
C951 C952 1.502 1_554 S
C951 C953 1.561 . S
C951 C954 1.526 . S
C952 H936 0.959 . S
C952 H937 0.959 . S
C952 H938 0.961 . S
C952 C951 1.502 1_556 S
C953 H939 0.960 . S
C953 H940 0.961 . S
C953 H941 0.959 . S
C953 C951 1.561 . S
C954 C951 1.526 . S
C954 C955 1.396 . S
C954 C959 1.390 . S
C955 C949 1.465 . S
C955 C954 1.396 . S
C955 C956 1.399 . S
C956 H942 0.929 . S
C956 C955 1.399 . S
C956 C957 1.385 . S
C957 H943 0.931 . S
C957 C956 1.385 . S
C957 C958 1.389 . S
C958 C957 1.389 . S
C958 C959 1.387 . S
C959 H944 0.930 . S
C959 C954 1.390 . S
C959 C958 1.387 . S
H960 C972 0.930 . S
H961 C974 0.930 . S
H962 C975 0.930 . S
H963 C979 0.959 . S
H964 C979 0.959 . S
H965 C979 0.961 . S
H966 C980 0.960 . S
H967 C980 0.961 . S
H968 C980 0.959 . S
H969 C983 0.929 . S
H970 C984 0.931 . S
H971 C986 0.930 . S
C972 H960 0.930 . S
C972 C973 1.399 . S
C972 C977 1.399 . S
C973 C972 1.399 . S
C973 C974 1.376 . S
C974 H961 0.930 . S
C974 C973 1.376 . S
C974 C975 1.388 . S
C975 H962 0.930 . S
C975 C974 1.388 . S
C975 C976 1.390 . S
C976 C975 1.390 . S
C976 C977 1.394 . S
C976 C982 1.465 1_545 S
C977 C972 1.399 . S
C977 C976 1.394 . S
C977 C978 1.516 1_545 S
C978 C977 1.516 1_565 S
C978 C979 1.502 . S
C978 C980 1.561 1_565 S
C978 C981 1.526 . S
C979 H963 0.959 . S
C979 H964 0.959 . S
C979 H965 0.961 . S
C979 C978 1.502 . S
C980 H966 0.960 . S
C980 H967 0.961 . S
C980 H968 0.959 . S
C980 C978 1.561 1_545 S
C981 C978 1.526 . S
C981 C982 1.396 . S
C981 C986 1.390 . S
C982 C976 1.465 1_565 S
C982 C981 1.396 . S
C982 C983 1.399 . S
C983 H969 0.929 . S
C983 C982 1.399 . S
C983 C984 1.385 . S
C984 H970 0.931 . S
C984 C983 1.385 . S
C984 C985 1.389 . S
C985 C984 1.389 . S
C985 C986 1.387 . S
C986 H971 0.930 . S
C986 C981 1.390 . S
C986 C985 1.387 . S
H987 C999 0.930 . S
H988 C1001 0.930 . S
H989 C1002 0.930 . S
H990 C1006 0.959 . S
H991 C1006 0.959 . S
H992 C1006 0.961 . S
H993 C1007 0.960 . S
H994 C1007 0.961 . S
H995 C1007 0.959 . S
H996 C1010 0.929 . S
H997 C1011 0.931 . S
H998 C1013 0.930 . S
C999 H987 0.930 . S
C999 C1000 1.399 . S
C999 C1004 1.399 . S
C1000 C999 1.399 . S
C1000 C1001 1.376 . S
C1001 H988 0.930 . S
C1001 C1000 1.376 . S
C1001 C1002 1.388 . S
C1002 H989 0.930 . S
C1002 C1001 1.388 . S
C1002 C1003 1.390 . S
C1003 C1002 1.390 . S
C1003 C1004 1.394 . S
C1003 C1009 1.465 . S
C1004 C999 1.399 . S
C1004 C1003 1.394 . S
C1004 C1005 1.516 . S
C1005 C1004 1.516 . S
C1005 C1006 1.502 . S
C1005 C1007 1.561 . S
C1005 C1008 1.526 . S
C1006 H990 0.959 . S
C1006 H991 0.959 . S
C1006 H992 0.961 . S
C1006 C1005 1.502 . S
C1007 H993 0.960 . S
C1007 H994 0.961 . S
C1007 H995 0.959 . S
C1007 C1005 1.561 . S
C1008 C1005 1.526 . S
C1008 C1009 1.396 . S
C1008 C1013 1.390 . S
C1009 C1003 1.465 . S
C1009 C1008 1.396 . S
C1009 C1010 1.399 . S
C1010 H996 0.929 . S
C1010 C1009 1.399 . S
C1010 C1011 1.385 . S
C1011 H997 0.931 . S
C1011 C1010 1.385 . S
C1011 C1012 1.389 . S
C1012 C1011 1.389 . S
C1012 C1013 1.387 . S
C1013 H998 0.930 . S
C1013 C1008 1.390 . S
C1013 C1012 1.387 . S
H1014 C1026 0.930 . S
H1015 C1028 0.930 . S
H1016 C1029 0.930 . S
H1017 C1033 0.959 . S
H1018 C1033 0.959 . S
H1019 C1033 0.961 1_655 S
H1020 C1034 0.960 . S
H1021 C1034 0.961 . S
H1022 C1034 0.959 . S
H1023 C1037 0.929 . S
H1024 C1038 0.931 . S
H1025 C1040 0.930 . S
C1026 H1014 0.930 . S
C1026 C1027 1.399 1_556 S
C1026 C1031 1.399 . S
C1027 C1026 1.399 1_554 S
C1027 C1028 1.376 . S
C1028 H1015 0.930 . S
C1028 C1027 1.376 . S
C1028 C1029 1.388 . S
C1029 H1016 0.930 . S
C1029 C1028 1.388 . S
C1029 C1030 1.390 . S
C1030 C1029 1.390 . S
C1030 C1031 1.394 1_554 S
C1030 C1036 1.465 1_655 S
C1031 C1026 1.399 . S
C1031 C1030 1.394 1_556 S
C1031 C1032 1.516 . S
C1032 C1031 1.516 . S
C1032 C1033 1.502 1_655 S
C1032 C1034 1.561 . S
C1032 C1035 1.526 1_655 S
C1033 H1017 0.959 . S
C1033 H1018 0.959 . S
C1033 H1019 0.961 1_455 S
C1033 C1032 1.502 1_455 S
C1034 H1020 0.960 . S
C1034 H1021 0.961 . S
C1034 H1022 0.959 . S
C1034 C1032 1.561 . S
C1035 C1032 1.526 1_455 S
C1035 C1036 1.396 1_556 S
C1035 C1040 1.390 . S
C1036 C1030 1.465 1_455 S
C1036 C1035 1.396 1_554 S
C1036 C1037 1.399 . S
C1037 H1023 0.929 . S
C1037 C1036 1.399 . S
C1037 C1038 1.385 . S
C1038 H1024 0.931 . S
C1038 C1037 1.385 . S
C1038 C1039 1.389 . S
C1039 C1038 1.389 . S
C1039 C1040 1.387 1_554 S
C1040 H1025 0.930 . S
C1040 C1035 1.390 . S
C1040 C1039 1.387 1_556 S
H1041 C1053 0.930 . S
H1042 C1055 0.930 . S
H1043 C1056 0.930 . S
H1044 C1060 0.959 . S
H1045 C1060 0.959 . S
H1046 C1060 0.961 . S
H1047 C1061 0.960 1_455 S
H1048 C1061 0.961 . S
H1049 C1061 0.959 . S
H1050 C1064 0.929 . S
H1051 C1065 0.931 . S
H1052 C1067 0.930 . S
C1053 H1041 0.930 . S
C1053 C1054 1.399 . S
C1053 C1058 1.399 . S
C1054 C1053 1.399 . S
C1054 C1055 1.376 . S
C1055 H1042 0.930 . S
C1055 C1054 1.376 . S
C1055 C1056 1.388 . S
C1056 H1043 0.930 . S
C1056 C1055 1.388 . S
C1056 C1057 1.390 . S
C1057 C1056 1.390 . S
C1057 C1058 1.394 . S
C1057 C1063 1.465 1_455 S
C1058 C1053 1.399 . S
C1058 C1057 1.394 . S
C1058 C1059 1.516 . S
C1059 C1058 1.516 . S
C1059 C1060 1.502 . S
C1059 C1061 1.561 1_455 S
C1059 C1062 1.526 1_455 S
C1060 H1044 0.959 . S
C1060 H1045 0.959 . S
C1060 H1046 0.961 . S
C1060 C1059 1.502 . S
C1061 H1047 0.960 1_655 S
C1061 H1048 0.961 . S
C1061 H1049 0.959 . S
C1061 C1059 1.561 1_655 S
C1062 C1059 1.526 1_655 S
C1062 C1063 1.396 . S
C1062 C1067 1.390 . S
C1063 C1057 1.465 1_655 S
C1063 C1062 1.396 . S
C1063 C1064 1.399 . S
C1064 H1050 0.929 . S
C1064 C1063 1.399 . S
C1064 C1065 1.385 . S
C1065 H1051 0.931 . S
C1065 C1064 1.385 . S
C1065 C1066 1.389 . S
C1066 C1065 1.389 . S
C1066 C1067 1.387 . S
C1067 H1052 0.930 . S
C1067 C1062 1.390 . S
C1067 C1066 1.387 . S
H1068 C1080 0.930 . S
H1069 C1082 0.930 . S
H1070 C1083 0.930 . S
H1071 C1087 0.959 . S
H1072 C1087 0.959 . S
H1073 C1087 0.961 . S
H1074 C1088 0.960 . S
H1075 C1088 0.961 . S
H1076 C1088 0.959 . S
H1077 C1091 0.929 . S
H1078 C1092 0.931 . S
H1079 C1094 0.930 . S
C1080 H1068 0.930 . S
C1080 C1081 1.399 . S
C1080 C1085 1.399 . S
C1081 C1080 1.399 . S
C1081 C1082 1.376 . S
C1082 H1069 0.930 . S
C1082 C1081 1.376 . S
C1082 C1083 1.388 1_545 S
C1083 H1070 0.930 . S
C1083 C1082 1.388 1_565 S
C1083 C1084 1.398 . S
C1084 C1083 1.398 . S
C1084 C1085 1.381 1_565 S
C1084 C1090 1.468 . S
C1085 C1080 1.399 . S
C1085 C1084 1.381 1_545 S
C1085 C1086 1.516 . S
C1086 C1085 1.516 . S
C1086 C1087 1.502 . S
C1086 C1088 1.561 . S
C1086 C1089 1.526 1_545 S
C1087 H1071 0.959 . S
C1087 H1072 0.959 . S
C1087 H1073 0.961 . S
C1087 C1086 1.502 . S
C1088 H1074 0.960 . S
C1088 H1075 0.961 . S
C1088 H1076 0.959 . S
C1088 C1086 1.561 . S
C1089 C1086 1.526 1_565 S
C1089 C1090 1.396 . S
C1089 C1094 1.390 . S
C1090 C1084 1.468 . S
C1090 C1089 1.396 . S
C1090 C1091 1.399 . S
C1091 H1077 0.929 . S
C1091 C1090 1.399 . S
C1091 C1092 1.385 . S
C1092 H1078 0.931 . S
C1092 C1091 1.385 . S
C1092 C1093 1.389 . S
C1093 C1092 1.389 . S
C1093 C1094 1.387 . S
C1094 H1079 0.930 . S
C1094 C1089 1.390 . S
C1094 C1093 1.387 . S
H1095 C1107 0.930 . S
H1096 C1109 0.930 . S
H1097 C1110 0.930 . S
H1098 C1114 0.959 . S
H1099 C1114 0.959 . S
H1100 C1114 0.961 . S
H1101 C1115 0.960 . S
H1102 C1115 0.961 . S
H1103 C1115 0.959 . S
H1104 C1118 0.929 . S
H1105 C1119 0.931 . S
H1106 C1121 0.930 . S
C1107 H1095 0.930 . S
C1107 C1108 1.424 . S
C1107 C1112 1.399 . S
C1108 C1107 1.424 . S
C1108 C1109 1.345 1_556 S
C1109 H1096 0.930 . S
C1109 C1108 1.345 1_554 S
C1109 C1110 1.388 . S
C1110 H1097 0.930 . S
C1110 C1109 1.388 . S
C1110 C1111 1.390 . S
C1111 C1110 1.390 . S
C1111 C1112 1.394 1_554 S
C1111 C1117 1.465 . S
C1112 C1107 1.399 . S
C1112 C1111 1.394 1_556 S
C1112 C1113 1.516 . S
C1113 C1112 1.516 . S
C1113 C1114 1.502 . S
C1113 C1115 1.561 . S
C1113 C1116 1.526 . S
C1114 H1098 0.959 . S
C1114 H1099 0.959 . S
C1114 H1100 0.961 . S
C1114 C1113 1.502 . S
C1115 H1101 0.960 . S
C1115 H1102 0.961 . S
C1115 H1103 0.959 . S
C1115 C1113 1.561 . S
C1116 C1113 1.526 . S
C1116 C1117 1.396 1_556 S
C1116 C1121 1.390 . S
C1117 C1111 1.465 . S
C1117 C1116 1.396 1_554 S
C1117 C1118 1.399 . S
C1118 H1104 0.929 . S
C1118 C1117 1.399 . S
C1118 C1119 1.385 . S
C1119 H1105 0.931 . S
C1119 C1118 1.385 . S
C1119 C1120 1.359 1_554 S
C1120 C1119 1.359 1_556 S
C1120 C1121 1.411 . S
C1121 H1106 0.930 . S
C1121 C1116 1.390 . S
C1121 C1120 1.411 . S
H1122 C1134 0.930 . S
H1123 C1136 0.930 . S
H1124 C1137 0.930 . S
H1125 C1141 0.959 . S
H1126 C1141 0.959 . S
H1127 C1141 0.961 . S
H1128 C1142 0.960 . S
H1129 C1142 0.961 . S
H1130 C1142 0.959 . S
H1131 C1145 0.929 . S
H1132 C1146 0.931 . S
H1133 C1148 0.930 . S
C1134 H1122 0.930 . S
C1134 C1135 1.399 . S
C1134 C1139 1.399 . S
C1135 C1134 1.399 . S
C1135 C1136 1.376 . S
C1136 H1123 0.930 . S
C1136 C1135 1.376 . S
C1136 C1137 1.388 . S
C1137 H1124 0.930 . S
C1137 C1136 1.388 . S
C1137 C1138 1.390 . S
C1138 C1137 1.390 . S
C1138 C1139 1.394 . S
C1138 C1144 1.465 . S
C1139 C1134 1.399 . S
C1139 C1138 1.394 . S
C1139 C1140 1.516 . S
C1140 C1139 1.516 . S
C1140 C1141 1.502 . S
C1140 C1142 1.561 . S
C1140 C1143 1.526 . S
C1141 H1125 0.959 . S
C1141 H1126 0.959 . S
C1141 H1127 0.961 . S
C1141 C1140 1.502 . S
C1142 H1128 0.960 . S
C1142 H1129 0.961 . S
C1142 H1130 0.959 . S
C1142 C1140 1.561 . S
C1143 C1140 1.526 . S
C1143 C1144 1.396 . S
C1143 C1148 1.390 . S
C1144 C1138 1.465 . S
C1144 C1143 1.396 . S
C1144 C1145 1.399 . S
C1145 H1131 0.929 . S
C1145 C1144 1.399 . S
C1145 C1146 1.385 . S
C1146 H1132 0.931 . S
C1146 C1145 1.385 . S
C1146 C1147 1.389 . S
C1147 C1146 1.389 . S
C1147 C1148 1.387 . S
C1148 H1133 0.930 . S
C1148 C1143 1.390 . S
C1148 C1147 1.387 . S
H1149 C1161 0.930 . S
H1150 C1163 0.930 . S
H1151 C1164 0.930 . S
H1152 C1168 0.959 . S
H1153 C1168 0.959 . S
H1154 C1168 0.961 . S
H1155 C1169 0.960 . S
H1156 C1169 0.961 . S
H1157 C1169 0.959 . S
H1158 C1172 0.929 . S
H1159 C1173 0.931 . S
H1160 C1175 0.930 . S
C1161 H1149 0.930 . S
C1161 C1162 1.399 . S
C1161 C1166 1.399 . S
C1162 C1161 1.399 . S
C1162 C1163 1.376 . S
C1163 H1150 0.930 . S
C1163 C1162 1.376 . S
C1163 C1164 1.388 . S
C1164 H1151 0.930 . S
C1164 C1163 1.388 . S
C1164 C1165 1.390 . S
C1165 C1164 1.390 . S
C1165 C1166 1.394 . S
C1165 C1171 1.465 . S
C1166 C1161 1.399 . S
C1166 C1165 1.394 . S
C1166 C1167 1.516 . S
C1167 C1166 1.516 . S
C1167 C1168 1.502 . S
C1167 C1169 1.561 . S
C1167 C1170 1.526 . S
C1168 H1152 0.959 . S
C1168 H1153 0.959 . S
C1168 H1154 0.961 . S
C1168 C1167 1.502 . S
C1169 H1155 0.960 . S
C1169 H1156 0.961 . S
C1169 H1157 0.959 . S
C1169 C1167 1.561 . S
C1170 C1167 1.526 . S
C1170 C1171 1.396 . S
C1170 C1175 1.390 . S
C1171 C1165 1.465 . S
C1171 C1170 1.396 . S
C1171 C1172 1.399 . S
C1172 H1158 0.929 . S
C1172 C1171 1.399 . S
C1172 C1173 1.385 . S
C1173 H1159 0.931 . S
C1173 C1172 1.385 . S
C1173 C1174 1.389 . S
C1174 C1173 1.389 . S
C1174 C1175 1.387 . S
C1175 H1160 0.930 . S
C1175 C1170 1.390 . S
C1175 C1174 1.387 . S
H1176 C1188 0.930 . S
H1177 C1190 0.930 . S
H1178 C1191 0.930 . S
H1179 C1195 0.959 . S
H1180 C1195 0.959 . S
H1181 C1195 0.961 . S
H1182 C1196 0.960 . S
H1183 C1196 0.961 . S
H1184 C1196 0.959 . S
H1185 C1199 0.929 . S
H1186 C1200 0.931 . S
H1187 C1202 0.930 . S
C1188 H1176 0.930 . S
C1188 C1189 1.399 . S
C1188 C1193 1.399 . S
C1189 C1188 1.399 . S
C1189 C1190 1.376 . S
C1190 H1177 0.930 . S
C1190 C1189 1.376 . S
C1190 C1191 1.388 . S
C1191 H1178 0.930 . S
C1191 C1190 1.388 . S
C1191 C1192 1.390 . S
C1192 C1191 1.390 . S
C1192 C1193 1.394 . S
C1192 C1198 1.465 . S
C1193 C1188 1.399 . S
C1193 C1192 1.394 . S
C1193 C1194 1.516 . S
C1194 C1193 1.516 . S
C1194 C1195 1.502 . S
C1194 C1196 1.561 . S
C1194 C1197 1.526 . S
C1195 H1179 0.959 . S
C1195 H1180 0.959 . S
C1195 H1181 0.961 . S
C1195 C1194 1.502 . S
C1196 H1182 0.960 . S
C1196 H1183 0.961 . S
C1196 H1184 0.959 . S
C1196 C1194 1.561 . S
C1197 C1194 1.526 . S
C1197 C1198 1.396 . S
C1197 C1202 1.390 . S
C1198 C1192 1.465 . S
C1198 C1197 1.396 . S
C1198 C1199 1.399 . S
C1199 H1185 0.929 . S
C1199 C1198 1.399 . S
C1199 C1200 1.385 . S
C1200 H1186 0.931 . S
C1200 C1199 1.385 . S
C1200 C1201 1.389 . S
C1201 C1200 1.389 . S
C1201 C1202 1.387 . S
C1202 H1187 0.930 . S
C1202 C1197 1.390 . S
C1202 C1201 1.387 . S
H1203 C1215 0.930 . S
H1204 C1217 0.930 . S
H1205 C1218 0.930 . S
H1206 C1222 0.959 . S
H1207 C1222 0.959 . S
H1208 C1222 0.961 . S
H1209 C1223 0.960 . S
H1210 C1223 0.961 . S
H1211 C1223 0.959 . S
H1212 C1226 0.929 . S
H1213 C1227 0.931 . S
H1214 C1229 0.930 . S
C1215 H1203 0.930 . S
C1215 C1216 1.399 . S
C1215 C1220 1.399 . S
C1216 C1215 1.399 . S
C1216 C1217 1.376 . S
C1217 H1204 0.930 . S
C1217 C1216 1.376 . S
C1217 C1218 1.388 . S
C1218 H1205 0.930 . S
C1218 C1217 1.388 . S
C1218 C1219 1.390 . S
C1219 C1218 1.390 . S
C1219 C1220 1.394 . S
C1219 C1225 1.465 . S
C1220 C1215 1.399 . S
C1220 C1219 1.394 . S
C1220 C1221 1.516 . S
C1221 C1220 1.516 . S
C1221 C1222 1.502 . S
C1221 C1223 1.561 . S
C1221 C1224 1.526 . S
C1222 H1206 0.959 . S
C1222 H1207 0.959 . S
C1222 H1208 0.961 . S
C1222 C1221 1.502 . S
C1223 H1209 0.960 . S
C1223 H1210 0.961 . S
C1223 H1211 0.959 . S
C1223 C1221 1.561 . S
C1224 C1221 1.526 . S
C1224 C1225 1.396 . S
C1224 C1229 1.390 . S
C1225 C1219 1.465 . S
C1225 C1224 1.396 . S
C1225 C1226 1.399 . S
C1226 H1212 0.929 . S
C1226 C1225 1.399 . S
C1226 C1227 1.385 . S
C1227 H1213 0.931 . S
C1227 C1226 1.385 . S
C1227 C1228 1.389 . S
C1228 C1227 1.389 . S
C1228 C1229 1.387 . S
C1229 H1214 0.930 . S
C1229 C1224 1.390 . S
C1229 C1228 1.387 . S
H1230 C1242 0.930 . S
H1231 C1244 0.930 . S
H1232 C1245 0.930 . S
H1233 C1249 0.959 . S
H1234 C1249 0.959 . S
H1235 C1249 0.961 . S
H1236 C1250 0.960 . S
H1237 C1250 0.961 . S
H1238 C1250 0.959 . S
H1239 C1253 0.929 . S
H1240 C1254 0.931 . S
H1241 C1256 0.930 . S
C1242 H1230 0.930 . S
C1242 C1243 1.399 . S
C1242 C1247 1.399 . S
C1243 C1242 1.399 . S
C1243 C1244 1.376 . S
C1244 H1231 0.930 . S
C1244 C1243 1.376 . S
C1244 C1245 1.388 . S
C1245 H1232 0.930 . S
C1245 C1244 1.388 . S
C1245 C1246 1.390 . S
C1246 C1245 1.390 . S
C1246 C1247 1.394 . S
C1246 C1252 1.465 . S
C1247 C1242 1.399 . S
C1247 C1246 1.394 . S
C1247 C1248 1.516 . S
C1248 C1247 1.516 . S
C1248 C1249 1.502 . S
C1248 C1250 1.561 . S
C1248 C1251 1.526 . S
C1249 H1233 0.959 . S
C1249 H1234 0.959 . S
C1249 H1235 0.961 . S
C1249 C1248 1.502 . S
C1250 H1236 0.960 . S
C1250 H1237 0.961 . S
C1250 H1238 0.959 . S
C1250 C1248 1.561 . S
C1251 C1248 1.526 . S
C1251 C1252 1.396 . S
C1251 C1256 1.390 . S
C1252 C1246 1.465 . S
C1252 C1251 1.396 . S
C1252 C1253 1.399 . S
C1253 H1239 0.929 . S
C1253 C1252 1.399 . S
C1253 C1254 1.385 . S
C1254 H1240 0.931 . S
C1254 C1253 1.385 . S
C1254 C1255 1.389 . S
C1255 C1254 1.389 . S
C1255 C1256 1.387 . S
C1256 H1241 0.930 . S
C1256 C1251 1.390 . S
C1256 C1255 1.387 . S
H1257 C1269 0.930 . S
H1258 C1271 0.930 . S
H1259 C1272 0.930 . S
H1260 C1276 0.959 . S
H1261 C1276 0.959 . S
H1262 C1276 0.961 . S
H1263 C1277 0.960 . S
H1264 C1277 0.961 . S
H1265 C1277 0.959 . S
H1266 C1280 0.929 . S
H1267 C1281 0.931 . S
H1268 C1283 0.930 . S
C1269 H1257 0.930 . S
C1269 C1270 1.399 . S
C1269 C1274 1.399 . S
C1270 C1269 1.399 . S
C1270 C1271 1.376 . S
C1271 H1258 0.930 . S
C1271 C1270 1.376 . S
C1271 C1272 1.388 . S
C1272 H1259 0.930 . S
C1272 C1271 1.388 . S
C1272 C1273 1.390 . S
C1273 C1272 1.390 . S
C1273 C1274 1.394 . S
C1273 C1279 1.465 . S
C1274 C1269 1.399 . S
C1274 C1273 1.394 . S
C1274 C1275 1.516 . S
C1275 C1274 1.516 . S
C1275 C1276 1.502 . S
C1275 C1277 1.561 . S
C1275 C1278 1.526 . S
C1276 H1260 0.959 . S
C1276 H1261 0.959 . S
C1276 H1262 0.961 . S
C1276 C1275 1.502 . S
C1277 H1263 0.960 . S
C1277 H1264 0.961 . S
C1277 H1265 0.959 . S
C1277 C1275 1.561 . S
C1278 C1275 1.526 . S
C1278 C1279 1.396 . S
C1278 C1283 1.390 . S
C1279 C1273 1.465 . S
C1279 C1278 1.396 . S
C1279 C1280 1.399 . S
C1280 H1266 0.929 . S
C1280 C1279 1.399 . S
C1280 C1281 1.385 . S
C1281 H1267 0.931 . S
C1281 C1280 1.385 . S
C1281 C1282 1.389 . S
C1282 C1281 1.389 . S
C1282 C1283 1.387 . S
C1283 H1268 0.930 . S
C1283 C1278 1.390 . S
C1283 C1282 1.387 . S
C649 C39 1.296 . S
C661 C569 1.325 . S
C676 C92 1.459 . S
C688 C622 1.437 . S
C703 C357 1.449 . S
C715 C145 1.473 . S
C730 C198 1.317 . S
C742 C410 1.343 . S
C757 C463 1.422 . S
C769 C251 1.445 . S
C784 C516 1.455 . S
C796 C304 1.478 . S
C811 C347 1.360 . S
C823 C29 1.361 . S
C838 C400 1.393 . S
C850 C82 1.392 . S
C865 C453 1.352 . S
C877 C135 1.356 . S
C892 C188 1.413 . S
C904 C506 1.413 . S
C919 C241 1.356 . S
C931 C559 1.357 . S
C946 C294 1.347 . S
C958 C612 1.350 . S
C973 C22 2.927 . S
C985 C181 2.958 . S
C1000 C75 2.933 . S
C1012 C234 2.955 . S
C1027 C128 2.919 . S
C1039 C287 2.923 . S
C1054 C499 2.964 . S
C1066 C340 2.929 . S
C1081 C552 2.973 . S
C1093 C393 2.916 . S
C1108 C605 2.927 . S
C1120 C446 2.923 . S
C1135 C38 2.302 . S
C1147 C462 2.286 . S
C1162 C515 2.429 . S
C1174 C91 2.418 . S
C1189 C144 2.293 . S
C1201 C568 2.284 . S
C1216 C621 2.304 . S
C1228 C197 2.308 . S
C1243 C250 2.404 . S
C1255 C356 2.415 . S
C1270 C303 2.288 . S
C1282 C409 2.292 . S
