# Generated by pormake.
# Topology ume, (4)-cn, num edge types: 1
# Building blocks:
#     Node 0, Type 0, BuildingBlock: ICAMEG_clean_sbu_1, # of connection points: 4
#     Node 1, Type 0, BuildingBlock: ICAMEG_clean_sbu_1, # of connection points: 4
#     Node 2, Type 0, BuildingBlock: ICAMEG_clean_sbu_1, # of connection points: 4
#     Node 3, Type 0, BuildingBlock: ICAMEG_clean_sbu_1, # of connection points: 4
#     Node 4, Type 0, BuildingBlock: ICAMEG_clean_sbu_1, # of connection points: 4
#     Node 5, Type 0, BuildingBlock: ICAMEG_clean_sbu_1, # of connection points: 4
#     Node 6, Type 0, BuildingBlock: ICAMEG_clean_sbu_1, # of connection points: 4
#     Node 7, Type 0, BuildingBlock: ICAMEG_clean_sbu_1, # of connection points: 4
#     Node 8, Type 0, BuildingBlock: ICAMEG_clean_sbu_1, # of connection points: 4
#     Node 9, Type 0, BuildingBlock: ICAMEG_clean_sbu_1, # of connection points: 4
#     Node 10, Type 0, BuildingBlock: ICAMEG_clean_sbu_1, # of connection points: 4
#     Node 11, Type 0, BuildingBlock: ICAMEG_clean_sbu_1, # of connection points: 4
#     Node 12, Type 0, BuildingBlock: ICAMEG_clean_sbu_1, # of connection points: 4
#     Node 13, Type 0, BuildingBlock: ICAMEG_clean_sbu_1, # of connection points: 4
#     Node 14, Type 0, BuildingBlock: ICAMEG_clean_sbu_1, # of connection points: 4
#     Node 15, Type 0, BuildingBlock: ICAMEG_clean_sbu_1, # of connection points: 4
#     Edge 16, Type (0, 0), BuildingBlock: MIFKUJ_clean_linker_0, # of connection points: 2
#     Edge 17, Type (0, 0), BuildingBlock: MIFKUJ_clean_linker_0, # of connection points: 2
#     Edge 18, Type (0, 0), BuildingBlock: MIFKUJ_clean_linker_0, # of connection points: 2
#     Edge 19, Type (0, 0), BuildingBlock: MIFKUJ_clean_linker_0, # of connection points: 2
#     Edge 20, Type (0, 0), BuildingBlock: MIFKUJ_clean_linker_0, # of connection points: 2
#     Edge 21, Type (0, 0), BuildingBlock: MIFKUJ_clean_linker_0, # of connection points: 2
#     Edge 22, Type (0, 0), BuildingBlock: MIFKUJ_clean_linker_0, # of connection points: 2
#     Edge 23, Type (0, 0), BuildingBlock: MIFKUJ_clean_linker_0, # of connection points: 2
#     Edge 24, Type (0, 0), BuildingBlock: MIFKUJ_clean_linker_0, # of connection points: 2
#     Edge 25, Type (0, 0), BuildingBlock: MIFKUJ_clean_linker_0, # of connection points: 2
#     Edge 26, Type (0, 0), BuildingBlock: MIFKUJ_clean_linker_0, # of connection points: 2
#     Edge 27, Type (0, 0), BuildingBlock: MIFKUJ_clean_linker_0, # of connection points: 2
#     Edge 28, Type (0, 0), BuildingBlock: MIFKUJ_clean_linker_0, # of connection points: 2
#     Edge 29, Type (0, 0), BuildingBlock: MIFKUJ_clean_linker_0, # of connection points: 2
#     Edge 30, Type (0, 0), BuildingBlock: MIFKUJ_clean_linker_0, # of connection points: 2
#     Edge 31, Type (0, 0), BuildingBlock: MIFKUJ_clean_linker_0, # of connection points: 2
#     Edge 32, Type (0, 0), BuildingBlock: MIFKUJ_clean_linker_0, # of connection points: 2
#     Edge 33, Type (0, 0), BuildingBlock: MIFKUJ_clean_linker_0, # of connection points: 2
#     Edge 34, Type (0, 0), BuildingBlock: MIFKUJ_clean_linker_0, # of connection points: 2
#     Edge 35, Type (0, 0), BuildingBlock: MIFKUJ_clean_linker_0, # of connection points: 2
#     Edge 36, Type (0, 0), BuildingBlock: MIFKUJ_clean_linker_0, # of connection points: 2
#     Edge 37, Type (0, 0), BuildingBlock: MIFKUJ_clean_linker_0, # of connection points: 2
#     Edge 38, Type (0, 0), BuildingBlock: MIFKUJ_clean_linker_0, # of connection points: 2
#     Edge 39, Type (0, 0), BuildingBlock: MIFKUJ_clean_linker_0, # of connection points: 2
#     Edge 40, Type (0, 0), BuildingBlock: MIFKUJ_clean_linker_0, # of connection points: 2
#     Edge 41, Type (0, 0), BuildingBlock: MIFKUJ_clean_linker_0, # of connection points: 2
#     Edge 42, Type (0, 0), BuildingBlock: MIFKUJ_clean_linker_0, # of connection points: 2
#     Edge 43, Type (0, 0), BuildingBlock: MIFKUJ_clean_linker_0, # of connection points: 2
#     Edge 44, Type (0, 0), BuildingBlock: MIFKUJ_clean_linker_0, # of connection points: 2
#     Edge 45, Type (0, 0), BuildingBlock: MIFKUJ_clean_linker_0, # of connection points: 2
#     Edge 46, Type (0, 0), BuildingBlock: MIFKUJ_clean_linker_0, # of connection points: 2
#     Edge 47, Type (0, 0), BuildingBlock: MIFKUJ_clean_linker_0, # of connection points: 2
# Relax obj value: 0.071
# Max RMSD: 0.098
# Mean RMSD: 0.098
data_MOF--net-ume--node1-ICAMEG_clean_sbu_1--edge1-MIFKUJ_clean_linker_0
_symmetry_space_group_name_H-M    P1
_symmetry_Int_Tables_number       1
_symmetry_cell_setting            triclinic
loop_
_symmetry_equiv_pos_as_xyz
'x, y, z'
_cell_length_a     37.758442
_cell_length_b     37.752884
_cell_length_c     153.64005
_cell_angle_alpha  89.994729
_cell_angle_beta   90.00498
_cell_angle_gamma 89.990365
loop_
_atom_site_label
_atom_site_type_symbol
_atom_site_fract_x
_atom_site_fract_y
_atom_site_fract_z
_atom_type_partial_charge
Co0 Co 0.26404 0.11087 0.31165 0.0
Co1 Co 0.25003 0.02767 0.30278 0.0
O2 O 0.23625 0.06757 0.31013 0.0
C3 C 0.25835 0.08039 0.32922 0.0
O4 O 0.26543 0.04986 0.32554 0.0
C5 C 0.18023 0.04969 0.29602 0.0
O6 O 0.19081 0.08273 0.29657 0.0
O7 O 0.26294 0.06 0.29302 0.0
O8 O 0.2726 0.1138 0.29884 0.0
H9 H 0.32912 0.96193 0.28203 0.0
H10 H 0.19202 0.10603 0.31924 0.0
O11 O 0.25624 0.10834 0.32459 0.0
H12 H 0.18711 0.20595 0.2986 0.0
H13 H 0.28991 0.23 0.32491 0.0
H14 H 0.33082 0.13896 0.3042 0.0
H15 H 0.24277 0.17303 0.30087 0.0
H16 H 0.25548 0.17519 0.32269 0.0
O17 O 0.20085 0.02451 0.29816 0.0
H18 H 0.31208 0.01141 0.29166 0.0
H19 H 0.216 0.95899 0.29804 0.0
H20 H 0.36592 0.1935 0.30615 0.0
H21 H 0.13585 0.13841 0.31722 0.0
H22 H 0.34549 0.23947 0.31657 0.0
H23 H 0.13314 0.18868 0.30681 0.0
O24 O 0.3089 0.08364 0.31312 0.0
H25 H 0.17228 0.98349 0.327 0.0
H26 H 0.28445 0.96531 0.31119 0.0
H27 H 0.26963 0.9264 0.32357 0.0
H28 H 0.21316 0.9354 0.33156 0.0
H29 H 0.18838 0.02203 0.31465 0.0
H30 H 0.23218 0.90885 0.28855 0.0
H31 H 0.28921 0.91008 0.28049 0.0
O32 O 0.29916 0.02971 0.30735 0.0
C33 C 0.27143 0.09262 0.29237 0.0
C34 C 0.30438 0.96097 0.28557 0.0
C35 C 0.2499 0.93122 0.2892 0.0
N36 N 0.26321 0.98796 0.29545 0.0
C37 C 0.29459 0.98888 0.29103 0.0
C38 C 0.24086 0.95972 0.29456 0.0
C39 C 0.2819 0.93192 0.28469 0.0
C40 C 0.19112 0.12812 0.31477 0.0
N41 N 0.22066 0.13775 0.31022 0.0
C42 C 0.15921 0.14625 0.31362 0.0
C43 C 0.1577 0.17443 0.30777 0.0
C44 C 0.18797 0.18412 0.30316 0.0
C45 C 0.2194 0.16534 0.30446 0.0
C46 C 0.29905 0.21019 0.32034 0.0
C47 C 0.32166 0.15895 0.3087 0.0
C48 C 0.27971 0.17908 0.31907 0.0
N49 N 0.29103 0.15404 0.31328 0.0
C50 C 0.34169 0.18972 0.3098 0.0
C51 C 0.33023 0.21549 0.31566 0.0
C52 C 0.31874 0.05232 0.31118 0.0
C53 C 0.19696 0.97931 0.32357 0.0
C54 C 0.25998 0.96953 0.31468 0.0
C55 C 0.25164 0.94732 0.32166 0.0
C56 C 0.21993 0.95236 0.32613 0.0
N57 N 0.2374 0.996 0.31223 0.0
C58 C 0.20617 0.00097 0.31655 0.0
Co59 Co 0.87757 0.76983 0.56095 0.0
Co60 Co 0.95939 0.756 0.55142 0.0
O61 O 0.92192 0.74369 0.55963 0.0
C62 C 0.91019 0.77258 0.57834 0.0
O63 O 0.93952 0.78169 0.57434 0.0
C64 C 0.94301 0.68177 0.54682 0.0
O65 O 0.90927 0.69014 0.54654 0.0
O66 O 0.92455 0.76057 0.54172 0.0
O67 O 0.87243 0.7736 0.54805 0.0
H68 H 0.01569 0.82725 0.52753 0.0
H69 H 0.88734 0.70101 0.56992 0.0
O70 O 0.88218 0.76659 0.57395 0.0
H71 H 0.78447 0.68418 0.55059 0.0
H72 H 0.75901 0.79487 0.57461 0.0
H73 H 0.84539 0.83241 0.55238 0.0
H74 H 0.81494 0.7419 0.5513 0.0
H75 H 0.81514 0.7623 0.57268 0.0
O76 O 0.96614 0.70506 0.54863 0.0
H77 H 0.96889 0.81182 0.53806 0.0
H78 H 0.02993 0.72481 0.54714 0.0
H79 H 0.78949 0.86554 0.55403 0.0
H80 H 0.85757 0.64288 0.56944 0.0
H81 H 0.74585 0.8468 0.56522 0.0
H82 H 0.80578 0.63418 0.5597 0.0
O83 O 0.90272 0.81628 0.56117 0.0
H84 H 0.01259 0.69733 0.57771 0.0
H85 H 0.02005 0.79961 0.55785 0.0
H86 H 0.06139 0.79543 0.57023 0.0
H87 H 0.05779 0.74397 0.58027 0.0
H88 H 0.97158 0.7028 0.56529 0.0
H89 H 0.07727 0.73913 0.53665 0.0
H90 H 0.07036 0.79077 0.52677 0.0
O91 O 0.95402 0.8071 0.55412 0.0
C92 C 0.89176 0.76877 0.54134 0.0
C93 C 0.01906 0.80476 0.53181 0.0
C94 C 0.0536 0.75526 0.53693 0.0
N95 N 0.9968 0.76763 0.54326 0.0
C96 C 0.9927 0.79595 0.53781 0.0
C97 C 0.02667 0.74723 0.54284 0.0
C98 C 0.04971 0.78425 0.53139 0.0
C99 C 0.86463 0.6975 0.56573 0.0
N100 N 0.85276 0.72486 0.56069 0.0
C101 C 0.84796 0.6645 0.56546 0.0
C102 C 0.81894 0.65962 0.55998 0.0
C103 C 0.80698 0.68766 0.55486 0.0
C104 C 0.82436 0.72027 0.55529 0.0
C105 C 0.77779 0.80325 0.56971 0.0
C106 C 0.82643 0.82397 0.55722 0.0
C107 C 0.80964 0.78497 0.5686 0.0
N108 N 0.83337 0.7953 0.56238 0.0
C109 C 0.79487 0.84289 0.55815 0.0
C110 C 0.77041 0.83238 0.56443 0.0
C111 C 0.93199 0.82715 0.558 0.0
C112 C 0.01443 0.71988 0.57338 0.0
C113 C 0.01816 0.77732 0.56222 0.0
C114 C 0.04175 0.77498 0.5692 0.0
C115 C 0.03975 0.74608 0.57482 0.0
N116 N 0.99329 0.75163 0.56087 0.0
C117 C 0.99134 0.72307 0.56632 0.0
Co118 Co 0.23578 0.38263 0.81139 0.0
Co119 Co 0.25059 0.46262 0.80112 0.0
O120 O 0.26303 0.42601 0.80956 0.0
C121 C 0.23784 0.41634 0.82863 0.0
O122 O 0.22907 0.44575 0.82461 0.0
C123 C 0.3245 0.44457 0.79675 0.0
O124 O 0.31555 0.41099 0.7971 0.0
O125 O 0.24558 0.42671 0.79172 0.0
O126 O 0.22864 0.37682 0.79856 0.0
H127 H 0.17903 0.51658 0.77694 0.0
H128 H 0.30677 0.38996 0.81942 0.0
O129 O 0.24212 0.38787 0.82429 0.0
H130 H 0.31533 0.28591 0.80013 0.0
H131 H 0.21001 0.26591 0.8259 0.0
H132 H 0.16985 0.35246 0.80397 0.0
H133 H 0.25909 0.31867 0.80153 0.0
H134 H 0.24409 0.32058 0.8232 0.0
O135 O 0.30156 0.46856 0.79814 0.0
H136 H 0.19454 0.47083 0.78776 0.0
H137 H 0.28186 0.53252 0.79634 0.0
H138 H 0.13512 0.29799 0.8064 0.0
H139 H 0.36347 0.35781 0.81826 0.0
H140 H 0.15518 0.25428 0.81743 0.0
H141 H 0.36802 0.30545 0.80854 0.0
O142 O 0.19062 0.4096 0.81219 0.0
H143 H 0.31065 0.52005 0.82667 0.0
H144 H 0.20622 0.52291 0.80742 0.0
H145 H 0.2107 0.56572 0.81948 0.0
H146 H 0.26325 0.56449 0.8292 0.0
H147 H 0.30483 0.47736 0.8146 0.0
H148 H 0.26747 0.57882 0.78557 0.0
H149 H 0.21563 0.57104 0.7758 0.0
O150 O 0.19948 0.45788 0.80394 0.0
C151 C 0.23464 0.39472 0.79166 0.0
C152 C 0.20161 0.52032 0.78118 0.0
C153 C 0.25128 0.55523 0.78602 0.0
N154 N 0.23891 0.49913 0.79271 0.0
C155 C 0.21047 0.49455 0.78733 0.0
C156 C 0.25935 0.52889 0.79209 0.0
C157 C 0.22219 0.55086 0.78054 0.0
C158 C 0.30847 0.36698 0.81524 0.0
N159 N 0.27963 0.35609 0.81059 0.0
C160 C 0.34067 0.34898 0.81458 0.0
C161 C 0.34322 0.31963 0.80912 0.0
C162 C 0.31367 0.30867 0.80439 0.0
C163 C 0.28192 0.32736 0.8052 0.0
C164 C 0.20105 0.28471 0.82106 0.0
C165 C 0.17887 0.33342 0.80873 0.0
C166 C 0.2202 0.31573 0.81951 0.0
N167 N 0.20913 0.33949 0.81338 0.0
C168 C 0.15904 0.3027 0.8101 0.0
C169 C 0.17029 0.2782 0.8163 0.0
C170 C 0.17976 0.43791 0.80854 0.0
C171 C 0.28767 0.52091 0.82246 0.0
C172 C 0.22909 0.52209 0.81163 0.0
C173 C 0.23154 0.54649 0.81844 0.0
C174 C 0.26104 0.5458 0.82389 0.0
N175 N 0.25525 0.49766 0.81029 0.0
C176 C 0.28432 0.49691 0.81559 0.0
Co177 Co 0.61605 0.73268 0.06199 0.0
Co178 Co 0.53679 0.74637 0.05141 0.0
O179 O 0.57258 0.75957 0.05999 0.0
C180 C 0.58251 0.73704 0.07921 0.0
O181 O 0.55314 0.7276 0.07527 0.0
C182 C 0.55294 0.82098 0.04737 0.0
O183 O 0.58667 0.81257 0.04762 0.0
O184 O 0.57332 0.74303 0.04215 0.0
O185 O 0.62178 0.72362 0.04919 0.0
H186 H 0.4864 0.67461 0.02681 0.0
H187 H 0.60892 0.80476 0.06942 0.0
O188 O 0.61095 0.74084 0.07484 0.0
H189 H 0.71261 0.81054 0.04996 0.0
H190 H 0.73301 0.709 0.07658 0.0
H191 H 0.64601 0.66564 0.05515 0.0
H192 H 0.67986 0.75455 0.05187 0.0
H193 H 0.67827 0.74267 0.07366 0.0
O194 O 0.52942 0.79742 0.04862 0.0
H195 H 0.53112 0.69095 0.03781 0.0
H196 H 0.46621 0.77572 0.04652 0.0
H197 H 0.70053 0.63127 0.05781 0.0
H198 H 0.64107 0.86124 0.06776 0.0
H199 H 0.74448 0.65294 0.0686 0.0
H200 H 0.69325 0.86438 0.05794 0.0
O201 O 0.58892 0.68787 0.06321 0.0
H202 H 0.47513 0.80319 0.07682 0.0
H203 H 0.47811 0.69927 0.05739 0.0
H204 H 0.43399 0.70183 0.0692 0.0
H205 H 0.43231 0.75406 0.07902 0.0
H206 H 0.51907 0.79943 0.06498 0.0
H207 H 0.4209 0.76047 0.03558 0.0
H208 H 0.43081 0.70949 0.02565 0.0
O209 O 0.54306 0.69511 0.05407 0.0
C210 C 0.60473 0.7306 0.04221 0.0
C211 C 0.48172 0.69681 0.03112 0.0
C212 C 0.44498 0.74503 0.03603 0.0
N213 N 0.50114 0.73406 0.04285 0.0
C214 C 0.5069 0.70613 0.03737 0.0
C215 C 0.47076 0.75358 0.0422 0.0
C216 C 0.45056 0.71641 0.03047 0.0
C217 C 0.63182 0.80585 0.06521 0.0
N218 N 0.6426 0.77637 0.06078 0.0
C219 C 0.64983 0.83793 0.06426 0.0
C220 C 0.67907 0.83969 0.05875 0.0
C221 C 0.68993 0.80949 0.05426 0.0
C222 C 0.67124 0.77788 0.05536 0.0
C223 C 0.71411 0.69933 0.07185 0.0
C224 C 0.66515 0.67535 0.0598 0.0
C225 C 0.68306 0.71825 0.07018 0.0
N226 N 0.65918 0.70629 0.06417 0.0
C227 C 0.6959 0.65573 0.0613 0.0
C228 C 0.72053 0.66789 0.06737 0.0
C229 C 0.5619 0.6762 0.05915 0.0
C230 C 0.47554 0.78034 0.07257 0.0
C231 C 0.47762 0.72208 0.06164 0.0
C232 C 0.45252 0.72339 0.06831 0.0
C233 C 0.45156 0.75273 0.07381 0.0
N234 N 0.50109 0.74925 0.06047 0.0
C235 C 0.50025 0.77814 0.06583 0.0
Co236 Co 0.26786 0.38516 0.93942 0.0
Co237 Co 0.25035 0.4655 0.9493 0.0
O238 O 0.23885 0.42746 0.94117 0.0
C239 C 0.26327 0.4177 0.92209 0.0
O240 O 0.27075 0.44766 0.92601 0.0
C241 C 0.17783 0.4444 0.95438 0.0
O242 O 0.18823 0.4112 0.95432 0.0
O243 O 0.25835 0.43081 0.95887 0.0
O244 O 0.27593 0.38062 0.95225 0.0
H245 H 0.32182 0.52546 0.97261 0.0
H246 H 0.19616 0.38892 0.93162 0.0
O247 O 0.26061 0.38925 0.92651 0.0
H248 H 0.19319 0.28596 0.95136 0.0
H249 H 0.29786 0.26858 0.92535 0.0
H250 H 0.33547 0.35846 0.94672 0.0
H251 H 0.24786 0.32101 0.94963 0.0
H252 H 0.26157 0.32193 0.92792 0.0
O253 O 0.19952 0.46911 0.9526 0.0
H254 H 0.30755 0.478 0.96215 0.0
H255 H 0.21585 0.53403 0.95396 0.0
H256 H 0.37243 0.3054 0.94441 0.0
H257 H 0.14099 0.35443 0.9331 0.0
H258 H 0.35366 0.26 0.93365 0.0
H259 H 0.13926 0.3026 0.94305 0.0
O260 O 0.31179 0.41389 0.93836 0.0
H261 H 0.18403 0.51703 0.92392 0.0
H262 H 0.29024 0.5278 0.9424 0.0
H263 H 0.2816 0.56946 0.93022 0.0
H264 H 0.22816 0.56422 0.92089 0.0
H265 H 0.19392 0.47569 0.93611 0.0
H266 H 0.22895 0.58194 0.96439 0.0
H267 H 0.28235 0.57789 0.97378 0.0
O268 O 0.30133 0.46321 0.9461 0.0
C269 C 0.27016 0.39913 0.95906 0.0
C270 C 0.29853 0.52758 0.96854 0.0
C271 C 0.24638 0.55926 0.96393 0.0
N272 N 0.26106 0.50338 0.95741 0.0
C273 C 0.29037 0.50085 0.96258 0.0
C274 C 0.23906 0.53201 0.95805 0.0
C275 C 0.27636 0.55698 0.9692 0.0
C276 C 0.19569 0.36619 0.93589 0.0
N277 N 0.22523 0.35687 0.94049 0.0
C278 C 0.16435 0.34685 0.93673 0.0
C279 C 0.16338 0.3178 0.94233 0.0
C280 C 0.19362 0.30846 0.947 0.0
C281 C 0.22448 0.32845 0.946 0.0
C282 C 0.30627 0.28812 0.93007 0.0
C283 C 0.32701 0.33868 0.94208 0.0
C284 C 0.28586 0.31839 0.93154 0.0
N285 N 0.29624 0.34307 0.93753 0.0
C286 C 0.3481 0.30876 0.94078 0.0
C287 C 0.33757 0.28332 0.93473 0.0
C288 C 0.32161 0.44329 0.94164 0.0
C289 C 0.20739 0.51962 0.92795 0.0
C290 C 0.26702 0.52524 0.93835 0.0
C291 C 0.2622 0.54899 0.93148 0.0
C292 C 0.23219 0.54606 0.92625 0.0
N293 N 0.24263 0.49932 0.93997 0.0
C294 C 0.21307 0.49638 0.93489 0.0
Co295 Co 0.62442 0.76393 0.18957 0.0
Co296 Co 0.54707 0.75267 0.20102 0.0
O297 O 0.57983 0.73924 0.19175 0.0
C298 C 0.58814 0.76447 0.17262 0.0
O299 O 0.55993 0.77511 0.17687 0.0
C300 C 0.55806 0.67621 0.20366 0.0
O301 O 0.59225 0.68234 0.20324 0.0
O302 O 0.58557 0.75036 0.20974 0.0
O303 O 0.63289 0.77048 0.20239 0.0
H304 H 0.50855 0.82038 0.22753 0.0
H305 H 0.612 0.69365 0.18155 0.0
O306 O 0.61682 0.7582 0.17672 0.0
H307 H 0.71882 0.67915 0.19968 0.0
H308 H 0.73983 0.78412 0.17394 0.0
H309 H 0.65925 0.82784 0.19681 0.0
H310 H 0.68876 0.73703 0.19872 0.0
H311 H 0.68394 0.75283 0.17712 0.0
O312 O 0.53612 0.70164 0.20301 0.0
H313 H 0.54901 0.80421 0.21558 0.0
H314 H 0.47548 0.72759 0.20645 0.0
H315 H 0.71502 0.85977 0.1939 0.0
H316 H 0.64138 0.63534 0.18228 0.0
H317 H 0.75574 0.83792 0.18239 0.0
H318 H 0.69513 0.62781 0.19141 0.0
O319 O 0.59943 0.81021 0.18906 0.0
H320 H 0.47551 0.70848 0.17567 0.0
H321 H 0.49138 0.80595 0.19667 0.0
H322 H 0.44469 0.81036 0.18551 0.0
H323 H 0.43649 0.76137 0.17491 0.0
H324 H 0.52215 0.70533 0.18688 0.0
H325 H 0.43427 0.74285 0.21833 0.0
H326 H 0.45069 0.78963 0.22896 0.0
O327 O 0.55704 0.804 0.19922 0.0
C328 C 0.61722 0.76204 0.20946 0.0
C329 C 0.50104 0.80005 0.22292 0.0
C330 C 0.45937 0.75649 0.21777 0.0
N331 N 0.51449 0.76518 0.21028 0.0
C332 C 0.52379 0.79083 0.21613 0.0
C333 C 0.48283 0.74793 0.21106 0.0
C334 C 0.4686 0.78275 0.22373 0.0
C335 C 0.63558 0.69064 0.18548 0.0
N336 N 0.64874 0.71872 0.19006 0.0
C337 C 0.65201 0.65754 0.18589 0.0
C338 C 0.68214 0.65332 0.19103 0.0
C339 C 0.69543 0.68211 0.19567 0.0
C340 C 0.67825 0.7148 0.19512 0.0
C341 C 0.72235 0.79386 0.17899 0.0
C342 C 0.67696 0.81805 0.19183 0.0
C343 C 0.69064 0.7763 0.1808 0.0
N344 N 0.66853 0.78835 0.18719 0.0
C345 C 0.70844 0.83629 0.19019 0.0
C346 C 0.73126 0.82404 0.18373 0.0
C347 C 0.57517 0.82261 0.19394 0.0
C348 C 0.47874 0.72994 0.18027 0.0
C349 C 0.48805 0.78455 0.19207 0.0
C350 C 0.46151 0.78717 0.18577 0.0
C351 C 0.4569 0.75965 0.17983 0.0
N352 N 0.50939 0.75533 0.19245 0.0
C353 C 0.50499 0.72823 0.18666 0.0
Co354 Co 0.23458 0.11225 0.44016 0.0
Co355 Co 0.25283 0.03163 0.44989 0.0
O356 O 0.26455 0.07066 0.44206 0.0
C357 C 0.24203 0.08083 0.42275 0.0
O358 O 0.23562 0.05034 0.42654 0.0
C359 C 0.32316 0.0552 0.45608 0.0
O360 O 0.31168 0.08802 0.45587 0.0
O361 O 0.24108 0.06524 0.45947 0.0
O362 O 0.2247 0.11598 0.45291 0.0
H363 H 0.17741 0.96697 0.47164 0.0
H364 H 0.30732 0.1105 0.43293 0.0
O365 O 0.24346 0.10905 0.4273 0.0
H366 H 0.30541 0.21238 0.45302 0.0
H367 H 0.20374 0.2289 0.42622 0.0
H368 H 0.16534 0.13692 0.44696 0.0
H369 H 0.25171 0.1764 0.45069 0.0
H370 H 0.24088 0.17623 0.42891 0.0
O371 O 0.30283 0.02979 0.45396 0.0
H372 H 0.19282 0.01589 0.4617 0.0
H373 H 0.28887 0.96423 0.45491 0.0
H374 H 0.12752 0.18928 0.44453 0.0
H375 H 0.36161 0.14586 0.43504 0.0
H376 H 0.14669 0.23573 0.43409 0.0
H377 H 0.36087 0.19717 0.44516 0.0
O378 O 0.19143 0.08248 0.43867 0.0
H379 H 0.32732 0.9852 0.42532 0.0
H380 H 0.21796 0.96766 0.44229 0.0
H381 H 0.23143 0.92732 0.43012 0.0
H382 H 0.2865 0.93597 0.42153 0.0
H383 H 0.31255 0.02517 0.43748 0.0
H384 H 0.27473 0.91495 0.46487 0.0
H385 H 0.21856 0.91605 0.47328 0.0
O386 O 0.20282 0.03211 0.44592 0.0
C387 C 0.22902 0.09682 0.45968 0.0
C388 C 0.20194 0.96614 0.468 0.0
C389 C 0.25658 0.93698 0.4642 0.0
N390 N 0.24159 0.9928 0.45769 0.0
C391 C 0.21076 0.99372 0.46234 0.0
C392 C 0.2645 0.96501 0.4586 0.0
C393 C 0.22505 0.9376 0.46892 0.0
C394 C 0.30673 0.133 0.43728 0.0
N395 N 0.27636 0.14151 0.44164 0.0
C396 C 0.33757 0.15283 0.43848 0.0
C397 C 0.33715 0.18158 0.44416 0.0
C398 C 0.30605 0.19013 0.44858 0.0
C399 C 0.27574 0.16963 0.44724 0.0
C400 C 0.19515 0.20889 0.4308 0.0
C401 C 0.17397 0.15715 0.44246 0.0
C402 C 0.21604 0.179 0.43234 0.0
N403 N 0.20543 0.15373 0.43815 0.0
C404 C 0.15239 0.18668 0.44109 0.0
C405 C 0.16315 0.21271 0.43522 0.0
C406 C 0.18241 0.05207 0.44151 0.0
C407 C 0.30324 0.98115 0.42901 0.0
C408 C 0.24179 0.97175 0.43855 0.0
C409 C 0.24939 0.94872 0.43169 0.0
C410 C 0.28031 0.95356 0.42688 0.0
N411 N 0.26434 0.99883 0.44058 0.0
C412 C 0.2948 0.00362 0.43592 0.0
Co413 Co 0.87642 0.72684 0.6888 0.0
Co414 Co 0.95437 0.74449 0.69958 0.0
O415 O 0.91837 0.75608 0.69091 0.0
C416 C 0.91005 0.73329 0.67161 0.0
O417 O 0.93981 0.72527 0.67555 0.0
C418 C 0.93613 0.81894 0.70357 0.0
O419 O 0.90245 0.81052 0.70305 0.0
O420 O 0.91754 0.74011 0.70872 0.0
O421 O 0.87074 0.71727 0.70161 0.0
H422 H 0.00599 0.67519 0.72446 0.0
H423 H 0.8798 0.79928 0.68143 0.0
O424 O 0.88139 0.73549 0.67596 0.0
H425 H 0.77508 0.79901 0.70061 0.0
H426 H 0.76145 0.69672 0.67396 0.0
H427 H 0.8502 0.65806 0.69551 0.0
H428 H 0.81114 0.74503 0.6988 0.0
H429 H 0.81398 0.73353 0.67705 0.0
O430 O 0.9599 0.79562 0.70237 0.0
H431 H 0.96129 0.68968 0.7133 0.0
H432 H 0.02377 0.77631 0.70462 0.0
H433 H 0.79798 0.62053 0.69267 0.0
H434 H 0.84431 0.85378 0.68299 0.0
H435 H 0.75315 0.63983 0.68183 0.0
H436 H 0.79158 0.85388 0.69266 0.0
O437 O 0.90597 0.68359 0.68758 0.0
H438 H 0.01466 0.80353 0.6743 0.0
H439 H 0.01537 0.69985 0.69382 0.0
H440 H 0.05994 0.70421 0.68215 0.0
H441 H 0.05979 0.75636 0.67229 0.0
H442 H 0.97033 0.79793 0.68601 0.0
H443 H 0.06885 0.76308 0.71578 0.0
H444 H 0.06013 0.71211 0.72578 0.0
O445 O 0.95038 0.69306 0.69699 0.0
C446 C 0.88693 0.72584 0.70861 0.0
C447 C 0.01006 0.69747 0.72014 0.0
C448 C 0.04536 0.74679 0.71527 0.0
N449 N 0.99005 0.73364 0.70827 0.0
C450 C 0.98493 0.70572 0.71379 0.0
C451 C 0.0197 0.7542 0.70898 0.0
C452 C 0.04045 0.71819 0.72088 0.0
C453 C 0.8567 0.79904 0.68558 0.0
N454 N 0.84746 0.76899 0.68999 0.0
C455 C 0.83679 0.83001 0.68647 0.0
C456 C 0.80724 0.83006 0.6919 0.0
C457 C 0.79798 0.79929 0.69637 0.0
C458 C 0.81855 0.76883 0.69534 0.0
C459 C 0.78074 0.68808 0.67872 0.0
C460 C 0.83066 0.66675 0.69084 0.0
C461 C 0.81054 0.70879 0.68049 0.0
N462 N 0.8349 0.69811 0.68652 0.0
C463 C 0.80121 0.64534 0.68923 0.0
C464 C 0.7761 0.65616 0.68314 0.0
C465 C 0.93315 0.67327 0.69179 0.0
C466 C 0.01506 0.78073 0.67857 0.0
C467 C 0.01505 0.72258 0.68955 0.0
C468 C 0.04042 0.72495 0.68296 0.0
C469 C 0.04034 0.75423 0.67743 0.0
N470 N 0.99032 0.74868 0.69061 0.0
C471 C 0.99013 0.7775 0.68523 0.0
Co472 Co 0.76754 0.61832 0.81191 0.0
Co473 Co 0.75818 0.53486 0.80291 0.0
O474 O 0.74294 0.57326 0.8105 0.0
C475 C 0.76778 0.58769 0.82949 0.0
O476 O 0.78003 0.5588 0.82583 0.0
C477 C 0.68655 0.55215 0.79665 0.0
O478 O 0.69606 0.58559 0.79668 0.0
O479 O 0.76676 0.56837 0.7931 0.0
O480 O 0.77519 0.62216 0.79907 0.0
H481 H 0.83589 0.47611 0.78062 0.0
H482 H 0.69658 0.60777 0.81976 0.0
O483 O 0.7605 0.61477 0.82487 0.0
H484 H 0.68256 0.70726 0.79925 0.0
H485 H 0.78492 0.73896 0.82517 0.0
H486 H 0.83195 0.65124 0.80438 0.0
H487 H 0.74084 0.67891 0.80131 0.0
H488 H 0.75465 0.68169 0.82301 0.0
O489 O 0.70841 0.52823 0.79893 0.0
H490 H 0.81828 0.52365 0.79079 0.0
H491 H 0.72862 0.46377 0.79866 0.0
H492 H 0.8629 0.70827 0.80628 0.0
H493 H 0.63784 0.63539 0.81791 0.0
H494 H 0.83937 0.75259 0.81674 0.0
H495 H 0.63055 0.68546 0.80758 0.0
O496 O 0.81443 0.59436 0.81307 0.0
H497 H 0.68966 0.48518 0.82816 0.0
H498 H 0.79919 0.47549 0.81084 0.0
H499 H 0.79039 0.43601 0.82345 0.0
H500 H 0.73533 0.44082 0.83223 0.0
H501 H 0.69968 0.52431 0.81554 0.0
H502 H 0.74582 0.41526 0.78877 0.0
H503 H 0.79989 0.42129 0.77968 0.0
O504 O 0.80794 0.5406 0.80687 0.0
C505 C 0.77394 0.60135 0.79252 0.0
C506 C 0.81257 0.47304 0.78464 0.0
C507 C 0.7619 0.43893 0.78917 0.0
N508 N 0.77262 0.49636 0.79535 0.0
C509 C 0.80243 0.49986 0.79039 0.0
C510 C 0.75231 0.46648 0.79476 0.0
C511 C 0.79224 0.44232 0.78408 0.0
C512 C 0.69369 0.62979 0.81532 0.0
N513 N 0.72214 0.64186 0.81069 0.0
C514 C 0.66034 0.64523 0.81427 0.0
C515 C 0.65625 0.67327 0.80846 0.0
C516 C 0.68542 0.68551 0.80378 0.0
C517 C 0.71835 0.66934 0.80497 0.0
C518 C 0.79538 0.7199 0.82058 0.0
C519 C 0.82143 0.6705 0.8089 0.0
C520 C 0.7784 0.68742 0.81934 0.0
N521 N 0.79136 0.66333 0.81351 0.0
C522 C 0.83913 0.70269 0.80996 0.0
C523 C 0.82593 0.72753 0.81584 0.0
C524 C 0.82628 0.56418 0.81073 0.0
C525 C 0.71375 0.48282 0.82439 0.0
C526 C 0.77519 0.47775 0.81463 0.0
C527 C 0.77031 0.45527 0.82176 0.0
C528 C 0.7394 0.45795 0.82667 0.0
N529 N 0.75001 0.50221 0.81247 0.0
C530 C 0.71952 0.50482 0.81721 0.0
Co531 Co 0.3742 0.26895 0.06215 0.0
Co532 Co 0.45394 0.25719 0.05162 0.0
O533 O 0.41845 0.24334 0.06019 0.0
C534 C 0.40812 0.26653 0.07938 0.0
O535 O 0.43706 0.27709 0.07543 0.0
C536 C 0.43856 0.18279 0.04733 0.0
O537 O 0.40482 0.19122 0.04747 0.0
O538 O 0.41743 0.26016 0.04237 0.0
O539 O 0.36788 0.27727 0.04933 0.0
H540 H 0.50329 0.33072 0.02722 0.0
H541 H 0.38412 0.1975 0.06976 0.0
O542 O 0.37983 0.26149 0.07502 0.0
H543 H 0.2802 0.18709 0.05049 0.0
H544 H 0.25675 0.28928 0.07681 0.0
H545 H 0.3419 0.33468 0.05517 0.0
H546 H 0.31089 0.24436 0.05221 0.0
H547 H 0.31256 0.25737 0.07391 0.0
O548 O 0.462 0.20628 0.04877 0.0
H549 H 0.45874 0.31315 0.03813 0.0
H550 H 0.52483 0.2289 0.04662 0.0
H551 H 0.28627 0.36727 0.0578 0.0
H552 H 0.35414 0.13977 0.06826 0.0
H553 H 0.24325 0.34457 0.06869 0.0
H554 H 0.30183 0.1343 0.05855 0.0
O555 O 0.39986 0.31475 0.0632 0.0
H556 H 0.51638 0.20079 0.07697 0.0
H557 H 0.51199 0.30497 0.05763 0.0
H558 H 0.55631 0.3027 0.0694 0.0
H559 H 0.55867 0.25037 0.07918 0.0
H560 H 0.47233 0.2042 0.06514 0.0
H561 H 0.56985 0.2452 0.03569 0.0
H562 H 0.55924 0.29655 0.02592 0.0
O563 O 0.44679 0.30823 0.05435 0.0
C564 C 0.38548 0.2711 0.04238 0.0
C565 C 0.50821 0.3083 0.03144 0.0
C566 C 0.54558 0.26031 0.0362 0.0
N567 N 0.48934 0.27025 0.04306 0.0
C568 C 0.48316 0.29833 0.03766 0.0
C569 C 0.51996 0.25115 0.04236 0.0
C570 C 0.53961 0.28912 0.03072 0.0
C571 C 0.36116 0.1954 0.06559 0.0
N572 N 0.34915 0.22429 0.06111 0.0
C573 C 0.34439 0.16261 0.06474 0.0
C574 C 0.31508 0.15955 0.05927 0.0
C575 C 0.30294 0.18916 0.05475 0.0
C576 C 0.32045 0.2215 0.05574 0.0
C577 C 0.27524 0.29939 0.07203 0.0
C578 C 0.32317 0.32451 0.05987 0.0
C579 C 0.30689 0.28147 0.07037 0.0
N580 N 0.33025 0.29398 0.06432 0.0
C581 C 0.29179 0.34314 0.06135 0.0
C582 C 0.26768 0.3304 0.06747 0.0
C583 C 0.42695 0.3269 0.05925 0.0
C584 C 0.51567 0.2237 0.07274 0.0
C585 C 0.51282 0.28209 0.06186 0.0
C586 C 0.53801 0.28095 0.06851 0.0
C587 C 0.53935 0.25155 0.07399 0.0
N588 N 0.48969 0.25465 0.06067 0.0
C589 C 0.49089 0.2257 0.06601 0.0
Co590 Co 0.73514 0.88525 0.31084 0.0
Co591 Co 0.74446 0.96832 0.30164 0.0
O592 O 0.75944 0.9305 0.30945 0.0
C593 C 0.73321 0.91666 0.32836 0.0
O594 O 0.72236 0.94578 0.32453 0.0
C595 C 0.81665 0.9514 0.29581 0.0
O596 O 0.80717 0.91795 0.29583 0.0
O597 O 0.73722 0.93435 0.29188 0.0
O598 O 0.7293 0.88071 0.29795 0.0
H599 H 0.66588 0.02625 0.27941 0.0
H600 H 0.80496 0.89699 0.31917 0.0
O601 O 0.74032 0.88929 0.32382 0.0
H602 H 0.82256 0.79646 0.29915 0.0
H603 H 0.7169 0.76513 0.32432 0.0
H604 H 0.67228 0.85129 0.30282 0.0
H605 H 0.76375 0.82426 0.30068 0.0
H606 H 0.747 0.82253 0.32224 0.0
O607 O 0.79458 0.97534 0.29795 0.0
H608 H 0.68466 0.97859 0.28939 0.0
H609 H 0.77394 0.03926 0.29716 0.0
H610 H 0.64153 0.79411 0.30464 0.0
H611 H 0.86419 0.86992 0.31787 0.0
H612 H 0.66385 0.75057 0.31545 0.0
H613 H 0.87329 0.81934 0.30777 0.0
O614 O 0.68793 0.90884 0.31162 0.0
H615 H 0.81046 0.0213 0.32688 0.0
H616 H 0.7013 0.02673 0.30931 0.0
H617 H 0.70858 0.06733 0.32176 0.0
H618 H 0.76351 0.06478 0.33063 0.0
H619 H 0.8019 0.98093 0.31443 0.0
H620 H 0.75628 0.08747 0.28722 0.0
H621 H 0.70181 0.08117 0.27829 0.0
O622 O 0.69442 0.96198 0.30521 0.0
C623 C 0.73076 0.90122 0.29135 0.0
C624 C 0.6896 0.02935 0.28329 0.0
C625 C 0.74037 0.06369 0.28766 0.0
N626 N 0.7302 0.00627 0.29389 0.0
C627 C 0.70031 0.00251 0.28897 0.0
C628 C 0.75028 0.03628 0.29326 0.0
C629 C 0.7098 0.06014 0.28266 0.0
C630 C 0.80864 0.87475 0.31483 0.0
N631 N 0.7809 0.8621 0.31004 0.0
C632 C 0.84226 0.85962 0.3141 0.0
C633 C 0.84736 0.83129 0.30842 0.0
C634 C 0.81891 0.81845 0.30358 0.0
C635 C 0.78568 0.83431 0.30446 0.0
C636 C 0.70697 0.78385 0.31958 0.0
C637 C 0.68226 0.83238 0.3075 0.0
C638 C 0.72385 0.81641 0.31838 0.0
N639 N 0.71155 0.84008 0.31237 0.0
C640 C 0.66469 0.80009 0.30852 0.0
C641 C 0.67721 0.77569 0.3146 0.0
C642 C 0.67574 0.93856 0.30902 0.0
C643 C 0.78644 0.02273 0.32305 0.0
C644 C 0.72522 0.02539 0.31316 0.0
C645 C 0.72924 0.04851 0.32018 0.0
C646 C 0.76007 0.04708 0.32516 0.0
N647 N 0.75117 0.00153 0.31113 0.0
C648 C 0.78151 3e-05 0.31597 0.0
Co649 Co 0.11671 0.23484 0.56141 0.0
Co650 Co 0.03706 0.25386 0.55122 0.0
O651 O 0.07549 0.26518 0.55929 0.0
C652 C 0.08316 0.24173 0.57863 0.0
O653 O 0.053 0.23572 0.57464 0.0
C654 C 0.0621 0.32439 0.54535 0.0
O655 O 0.09498 0.31422 0.54657 0.0
O656 O 0.07146 0.24104 0.5419 0.0
O657 O 0.12208 0.22582 0.54866 0.0
H658 H 0.97393 0.17903 0.52909 0.0
H659 H 0.11453 0.30704 0.56896 0.0
O660 O 0.11186 0.24296 0.57427 0.0
H661 H 0.2192 0.30577 0.54977 0.0
H662 H 0.23109 0.20226 0.57621 0.0
H663 H 0.14212 0.16609 0.55446 0.0
H664 H 0.18228 0.25231 0.55147 0.0
H665 H 0.17906 0.23992 0.57324 0.0
O666 O 0.03652 0.30348 0.54692 0.0
H667 H 0.02162 0.19367 0.53946 0.0
H668 H 0.97094 0.29093 0.54563 0.0
H669 H 0.19388 0.12778 0.55718 0.0
H670 H 0.15086 0.36103 0.5675 0.0
H671 H 0.23881 0.14581 0.56813 0.0
H672 H 0.20356 0.36062 0.55783 0.0
O673 O 0.08662 0.19169 0.56249 0.0
H674 H 0.99005 0.33025 0.57537 0.0
H675 H 0.97081 0.2215 0.55827 0.0
H676 H 0.92941 0.23646 0.57013 0.0
H677 H 0.93891 0.29124 0.57877 0.0
H678 H 0.03103 0.31396 0.56353 0.0
H679 H 0.92289 0.27751 0.53527 0.0
H680 H 0.92412 0.22113 0.52694 0.0
O681 O 0.03604 0.20414 0.5554 0.0
C682 C 0.10329 0.22965 0.54182 0.0
C683 C 0.97303 0.20363 0.5327 0.0
C684 C 0.94442 0.25892 0.53616 0.0
N685 N 0.99892 0.24298 0.54319 0.0
C686 C -0.0001 0.21201 0.5386 0.0
C687 C 0.97175 0.26642 0.542 0.0
C688 C 0.94511 0.22728 0.53149 0.0
C689 C 0.13762 0.30658 0.56481 0.0
N690 N 0.14638 0.27653 0.56034 0.0
C691 C 0.158 0.33726 0.56398 0.0
C692 C 0.18754 0.33703 0.55854 0.0
C693 C 0.19632 0.30627 0.55401 0.0
C694 C 0.17528 0.2761 0.55498 0.0
C695 C 0.21174 0.19416 0.57141 0.0
C696 C 0.16169 0.17423 0.55919 0.0
C697 C 0.1822 0.21533 0.56971 0.0
N698 N 0.15776 0.20534 0.56363 0.0
C699 C 0.19088 0.15237 0.56072 0.0
C700 C 0.21606 0.16249 0.56687 0.0
C701 C 0.05593 0.18332 0.55971 0.0
C702 C 0.98565 0.30628 0.57166 0.0
C703 C 0.97532 0.24512 0.56206 0.0
C704 C 0.95168 0.2536 0.56873 0.0
C705 C 0.95699 0.28436 0.57357 0.0
N706 N 0.00348 0.26662 0.56026 0.0
C707 C 0.00872 0.29696 0.56494 0.0
Co708 Co 0.76588 0.88173 0.43905 0.0
Co709 Co 0.75666 0.96384 0.44883 0.0
O710 O 0.7411 0.92661 0.44089 0.0
C711 C 0.76463 0.91445 0.42168 0.0
O712 O 0.77604 0.94326 0.42555 0.0
C713 C 0.68378 0.94783 0.45464 0.0
O714 O 0.6915 0.91397 0.45414 0.0
O715 O 0.76407 0.92881 0.45838 0.0
O716 O 0.77443 0.87641 0.45182 0.0
H717 H 0.83713 0.0189 0.47107 0.0
H718 H 0.6945 0.89237 0.43143 0.0
O719 O 0.75827 0.8867 0.42615 0.0
H720 H 0.68245 0.79047 0.4513 0.0
H721 H 0.78284 0.76271 0.4249 0.0
H722 H 0.83102 0.84827 0.44605 0.0
H723 H 0.74021 0.81998 0.44937 0.0
H724 H 0.75253 0.8196 0.42756 0.0
O725 O 0.70694 0.97106 0.45277 0.0
H726 H 0.81735 0.97251 0.46086 0.0
H727 H 0.72786 0.03455 0.45391 0.0
H728 H 0.86202 0.79159 0.44366 0.0
H729 H 0.6363 0.86347 0.43311 0.0
H730 H 0.83791 0.74834 0.43301 0.0
H731 H 0.63 0.81221 0.44312 0.0
O732 O 0.81246 0.90595 0.4379 0.0
H733 H 0.68962 0.01833 0.42395 0.0
H734 H 0.79821 0.02453 0.4417 0.0
H735 H 0.79008 0.06648 0.42955 0.0
H736 H 0.73541 0.06353 0.42058 0.0
H737 H 0.69909 0.97666 0.4361 0.0
H738 H 0.74646 0.08144 0.46411 0.0
H739 H 0.80155 0.07383 0.47275 0.0
O740 O 0.8066 0.95793 0.44494 0.0
C741 C 0.77218 0.89599 0.45858 0.0
C742 C 0.81313 0.02257 0.46732 0.0
C743 C 0.76221 0.05765 0.46343 0.0
N744 N 0.77164 0.00094 0.45675 0.0
C745 C 0.80187 0.99645 0.46151 0.0
C746 C 0.75175 0.03096 0.45768 0.0
C747 C 0.79313 0.05337 0.46827 0.0
C748 C 0.69203 0.86985 0.43573 0.0
N749 N 0.72073 0.85775 0.44026 0.0
C750 C 0.65898 0.85369 0.43668 0.0
C751 C 0.65546 0.82496 0.44231 0.0
C752 C 0.68487 0.81277 0.44691 0.0
C753 C 0.71749 0.82962 0.4458 0.0
C754 C 0.79355 0.78129 0.42957 0.0
C755 C 0.82023 0.82946 0.44147 0.0
C756 C 0.77654 0.81355 0.4311 0.0
N757 N 0.7898 0.83703 0.43703 0.0
C758 C 0.83796 0.79747 0.44011 0.0
C759 C 0.82444 0.77323 0.43413 0.0
C760 C 0.82474 0.93527 0.4407 0.0
C761 C 0.71357 0.01986 0.42781 0.0
C762 C 0.77456 0.02289 0.43777 0.0
C763 C 0.76998 0.04683 0.43094 0.0
C764 C 0.73929 0.04519 0.42591 0.0
N765 N 0.74931 0.99801 0.43956 0.0
C766 C 0.71904 0.99639 0.4347 0.0
Co767 Co 0.12331 0.2652 0.68921 0.0
Co768 Co 0.04514 0.25164 0.70026 0.0
O769 O 0.07983 0.23852 0.69141 0.0
C770 C 0.08809 0.26245 0.67216 0.0
O771 O 0.05913 0.27174 0.6763 0.0
C772 C 0.06041 0.17673 0.70424 0.0
O773 O 0.09431 0.18446 0.70407 0.0
O774 O 0.08271 0.25397 0.70927 0.0
O775 O 0.13057 0.2735 0.702 0.0
H776 H 0.99823 0.32284 0.72537 0.0
H777 H 0.11444 0.19358 0.68165 0.0
O778 O 0.11682 0.25787 0.67638 0.0
H779 H 0.22052 0.18573 0.70028 0.0
H780 H 0.23875 0.28893 0.67391 0.0
H781 H 0.15435 0.33176 0.69603 0.0
H782 H 0.18819 0.24219 0.69877 0.0
H783 H 0.18427 0.2553 0.67714 0.0
O784 O 0.03737 0.20067 0.70292 0.0
H785 H 0.04165 0.30638 0.71408 0.0
H786 H 0.97478 0.22284 0.70555 0.0
H787 H 0.20862 0.3661 0.69306 0.0
H788 H 0.14605 0.13661 0.68295 0.0
H789 H 0.25126 0.34468 0.68192 0.0
H790 H 0.19946 0.13244 0.69233 0.0
O791 O 0.09641 0.3103 0.68831 0.0
H792 H 0.98013 0.19663 0.67513 0.0
H793 H 0.98626 0.2996 0.69482 0.0
H794 H 0.94074 0.29797 0.68332 0.0
H795 H 0.93744 0.24619 0.67338 0.0
H796 H 0.02548 0.1995 0.68666 0.0
H797 H 0.93095 0.238 0.71686 0.0
H798 H 0.94253 0.28843 0.72685 0.0
O799 O 0.05165 0.30288 0.69775 0.0
C800 C 0.11424 0.26605 0.70905 0.0
C801 C 0.99292 0.30081 0.72106 0.0
C802 C 0.95514 0.2532 0.71628 0.0
N803 N 0.0106 0.26389 0.70911 0.0
C804 C 0.01731 0.29147 0.71463 0.0
C805 C 0.98009 0.24469 0.7099 0.0
C806 C 0.96165 0.2815 0.72188 0.0
C807 C 0.13785 0.19202 0.68568 0.0
N808 N 0.14957 0.22119 0.69009 0.0
C809 C 0.15556 0.15968 0.68642 0.0
C810 C 0.18549 0.15734 0.6917 0.0
C811 C 0.19731 0.18723 0.69616 0.0
C812 C 0.17887 0.21911 0.69529 0.0
C813 C 0.22043 0.29847 0.67879 0.0
C814 C 0.17294 0.32215 0.69123 0.0
C815 C 0.18954 0.27957 0.68064 0.0
N816 N 0.16639 0.29138 0.68683 0.0
C817 C 0.20355 0.34176 0.68955 0.0
C818 C 0.22744 0.32975 0.68329 0.0
C819 C 0.06997 0.32191 0.69259 0.0
C820 C 0.98123 0.21929 0.67943 0.0
C821 C 0.98507 0.27701 0.69051 0.0
C822 C 0.95917 0.2762 0.68402 0.0
C823 C 0.95733 0.24713 0.67845 0.0
N824 N 0.00844 0.2496 0.69143 0.0
C825 C 0.00675 0.22098 0.686 0.0
Co826 Co 0.73699 0.61694 0.93998 0.0
Co827 Co 0.74775 0.53672 0.95061 0.0
O828 O 0.76266 0.57282 0.94228 0.0
C829 C 0.73732 0.58142 0.92288 0.0
O830 O 0.72594 0.553 0.92692 0.0
C831 C 0.81927 0.55686 0.95661 0.0
O832 O 0.81065 0.59021 0.95543 0.0
O833 O 0.73814 0.57321 0.95963 0.0
O834 O 0.72917 0.62495 0.9527 0.0
H835 H 0.6677 0.48467 0.97336 0.0
H836 H 0.80816 0.60567 0.93232 0.0
O837 O 0.74408 0.60959 0.92714 0.0
H838 H 0.81949 0.71222 0.95067 0.0
H839 H 0.71656 0.7321 0.92425 0.0
H840 H 0.67171 0.65071 0.94681 0.0
H841 H 0.76213 0.68142 0.94934 0.0
H842 H 0.74846 0.67676 0.92765 0.0
O843 O 0.79715 0.53236 0.95498 0.0
H844 H 0.68641 0.52879 0.96244 0.0
H845 H 0.77832 0.46816 0.95677 0.0
H846 H 0.63917 0.70594 0.94369 0.0
H847 H 0.86598 0.63576 0.93342 0.0
H848 H 0.66157 0.74706 0.93234 0.0
H849 H 0.87191 0.68939 0.94268 0.0
O850 O 0.69068 0.59168 0.93927 0.0
H851 H 0.82079 0.47825 0.92736 0.0
H852 H 0.70894 0.4735 0.94388 0.0
H853 H 0.72075 0.42856 0.93259 0.0
H854 H 0.77712 0.43069 0.92427 0.0
H855 H 0.8076 0.52297 0.9386 0.0
H856 H 0.76065 0.42341 0.96764 0.0
H857 H 0.70495 0.43151 0.97601 0.0
O858 O 0.69822 0.53991 0.94633 0.0
C859 C 0.73076 0.60617 0.9596 0.0
C860 C 0.69194 0.48076 0.96973 0.0
C861 C 0.74415 0.44641 0.96652 0.0
N862 N 0.73324 0.50089 0.95892 0.0
C863 C 0.70262 0.50559 0.96352 0.0
C864 C 0.75404 0.47186 0.96039 0.0
C865 C 0.71289 0.45097 0.97122 0.0
C866 C 0.81047 0.62918 0.93629 0.0
N867 N 0.78178 0.64188 0.94072 0.0
C868 C 0.8433 0.64602 0.93692 0.0
C869 C 0.84663 0.67608 0.94212 0.0
C870 C 0.81723 0.68889 0.94662 0.0
C871 C 0.78483 0.67131 0.94585 0.0
C872 C 0.70659 0.71446 0.92924 0.0
C873 C 0.68179 0.66863 0.94192 0.0
C874 C 0.72451 0.68307 0.93118 0.0
N875 N 0.71215 0.66073 0.93749 0.0
C876 C 0.66318 0.6998 0.94016 0.0
C877 C 0.67574 0.72284 0.93378 0.0
C878 C 0.67941 0.56194 0.94207 0.0
C879 C 0.79612 0.47705 0.93094 0.0
C880 C 0.7333 0.47483 0.94021 0.0
C881 C 0.73995 0.4492 0.93386 0.0
C882 C 0.7716 0.45039 0.9292 0.0
N883 N 0.75745 0.50092 0.94187 0.0
C884 C 0.78854 0.50226 0.93732 0.0
Co885 Co 0.37316 0.22549 0.18981 0.0
Co886 Co 0.45218 0.24256 0.20023 0.0
O887 O 0.41629 0.25322 0.19147 0.0
C888 C 0.40717 0.22579 0.17257 0.0
O889 O 0.43653 0.21738 0.17665 0.0
C890 C 0.43445 0.31743 0.20349 0.0
O891 O 0.40088 0.30834 0.20335 0.0
O892 O 0.41572 0.24011 0.20951 0.0
O893 O 0.36703 0.21985 0.2027 0.0
H894 H 0.50345 0.17722 0.22578 0.0
H895 H 0.38039 0.29554 0.18129 0.0
O896 O 0.37863 0.23033 0.17686 0.0
H897 H 0.27551 0.3058 0.20024 0.0
H898 H 0.25698 0.19691 0.17536 0.0
H899 H 0.3432 0.1605 0.19776 0.0
H900 H 0.30861 0.24959 0.19932 0.0
H901 H 0.3114 0.23167 0.17782 0.0
O902 O 0.45843 0.29419 0.20241 0.0
H903 H 0.4587 0.1903 0.21455 0.0
H904 H 0.52221 0.27416 0.20476 0.0
H905 H 0.289 0.12513 0.19557 0.0
H906 H 0.34796 0.3522 0.18197 0.0
H907 H 0.24544 0.1433 0.1843 0.0
H908 H 0.29516 0.3576 0.19152 0.0
O909 O 0.40064 0.18048 0.1894 0.0
H910 H 0.51251 0.29585 0.17418 0.0
H911 H 0.51188 0.19568 0.19479 0.0
H912 H 0.55598 0.197 0.18296 0.0
H913 H 0.55648 0.24736 0.17255 0.0
H914 H 0.46869 0.29334 0.18607 0.0
H915 H 0.56758 0.26217 0.21594 0.0
H916 H 0.5584 0.21331 0.22653 0.0
O917 O 0.44691 0.19083 0.19824 0.0
C918 C 0.38427 0.22778 0.20959 0.0
C919 C 0.50785 0.19849 0.22118 0.0
C920 C 0.5438 0.24621 0.21566 0.0
N921 N 0.488 0.23272 0.20895 0.0
C922 C 0.48265 0.20594 0.21479 0.0
C923 C 0.518 0.25291 0.20936 0.0
C924 C 0.53864 0.21878 0.2216 0.0
C925 C 0.35724 0.2976 0.18539 0.0
N926 N 0.34631 0.26926 0.19023 0.0
C927 C 0.33907 0.32979 0.18578 0.0
C928 C 0.30948 0.33281 0.19115 0.0
C929 C 0.29845 0.30376 0.19605 0.0
C930 C 0.31734 0.27202 0.19552 0.0
C931 C 0.27572 0.18876 0.1803 0.0
C932 C 0.32426 0.16869 0.19288 0.0
C933 C 0.3066 0.2083 0.18171 0.0
N934 N 0.33028 0.19826 0.18797 0.0
C935 C 0.29367 0.14851 0.19165 0.0
C936 C 0.26926 0.15869 0.18532 0.0
C937 C 0.42783 0.1703 0.19363 0.0
C938 C 0.51264 0.27383 0.17869 0.0
C939 C 0.5119 0.21767 0.19028 0.0
C940 C 0.53698 0.2183 0.18361 0.0
C941 C 0.53727 0.24658 0.17777 0.0
N942 N 0.48784 0.2445 0.19115 0.0
C943 C 0.488 0.27235 0.18546 0.0
H944 H 0.87165 0.90799 0.29123 0.0
H945 H 0.93357 0.92485 0.28906 0.0
H946 H 0.90693 0.03419 0.29396 0.0
H947 H 0.84503 0.0178 0.29595 0.0
H948 H 0.95517 0.02857 0.28101 0.0
H949 H 0.93887 0.98296 0.31005 0.0
H950 H 0.91962 0.9382 0.32074 0.0
H951 H 0.99261 0.863 0.30988 0.0
H952 H 0.01187 0.90716 0.29902 0.0
H953 H 0.123 0.09429 0.29557 0.0
H954 H 0.06088 0.07758 0.29349 0.0
H955 H 0.09231 0.96908 0.28918 0.0
H956 H 0.15409 0.98537 0.29138 0.0
H957 H 0.0418 0.97294 0.30109 0.0
H958 H 0.06095 0.02098 0.27254 0.0
H959 H 0.07911 0.06629 0.26188 0.0
H960 H 0.00098 0.13794 0.272 0.0
H961 H 0.98267 0.09322 0.28281 0.0
C962 C 0.87891 0.93566 0.29175 0.0
C963 C 0.85353 0.9615 0.29385 0.0
C964 C 0.91427 0.94524 0.29051 0.0
C965 C 0.92483 0.9807 0.29147 0.0
C966 C 0.8993 0.0067 0.2932 0.0
C967 C 0.86396 0.99721 0.29438 0.0
C968 C 0.96273 0.99049 0.29129 0.0
C969 C 0.97415 0.01662 0.28543 0.0
C970 C 0.98742 0.97452 0.297 0.0
C971 C 0.97655 0.94824 0.30367 0.0
C972 C 0.95068 0.95681 0.30991 0.0
C973 C 0.93977 0.93155 0.316 0.0
C974 C 0.95481 0.89774 0.31598 0.0
C975 C 0.98093 0.88918 0.30989 0.0
C976 C 0.99187 0.91432 0.30376 0.0
C977 C 0.11667 0.06702 0.29403 0.0
C978 C 0.14333 0.0411 0.29369 0.0
C979 C 0.08121 0.05751 0.29283 0.0
C980 C 0.07203 0.02207 0.29117 0.0
C981 C 0.09881 0.99652 0.29049 0.0
C982 C 0.1341 0.00591 0.29174 0.0
C983 C 0.03448 0.01097 0.29077 0.0
C984 C 0.02302 0.98469 0.29659 0.0
C985 C 0.00982 0.02697 0.28506 0.0
C986 C 0.02065 0.05384 0.27854 0.0
C987 C 0.04782 0.04649 0.27254 0.0
C988 C 0.05811 0.07206 0.26646 0.0
C989 C 0.04127 0.10501 0.26628 0.0
C990 C 0.01403 0.11242 0.27215 0.0
C991 C 0.00365 0.08696 0.27825 0.0
H992 H 0.04928 0.12476 0.26157 0.0
H993 H 0.94628 0.8782 0.32068 0.0
H994 H 0.90359 0.62478 0.54138 0.0
H995 H 0.92444 0.56396 0.53914 0.0
H996 H 0.02994 0.59532 0.54672 0.0
H997 H 0.00973 0.65586 0.54875 0.0
H998 H 0.03316 0.55193 0.53328 0.0
H999 H 0.97368 0.55436 0.56099 0.0
H1000 H 0.92351 0.56558 0.57089 0.0
H1001 H 0.85961 0.49153 0.55663 0.0
H1002 H 0.90926 0.48027 0.54656 0.0
H1003 H 0.10335 0.38377 0.5472 0.0
H1004 H 0.08397 0.44542 0.54542 0.0
H1005 H 0.98193 0.40919 0.53644 0.0
H1006 H 0.00084 0.348 0.53826 0.0
H1007 H 0.9758 0.45468 0.54978 0.0
H1008 H 0.039 0.44948 0.52263 0.0
H1009 H 0.09074 0.4387 0.5132 0.0
H1010 H 0.14981 0.51781 0.52707 0.0
H1011 H 0.09857 0.52874 0.53666 0.0
C1012 C 0.93123 0.61869 0.54252 0.0
C1013 C 0.95494 0.64508 0.54527 0.0
C1014 C 0.9431 0.58398 0.54125 0.0
C1015 C 0.9787 0.57511 0.54284 0.0
C1016 C 0.00243 0.6016 0.54542 0.0
C1017 C 0.99072 0.6362 0.54662 0.0
C1018 C 0.99122 0.53807 0.54217 0.0
C1019 C 0.02078 0.53066 0.53692 0.0
C1020 C 0.9748 0.51033 0.54686 0.0
C1021 C 0.94505 0.51677 0.55296 0.0
C1022 C 0.94884 0.54066 0.55993 0.0
C1023 C 0.92052 0.547 0.56557 0.0
C1024 C 0.88836 0.52936 0.56437 0.0
C1025 C 0.88451 0.50523 0.55754 0.0
C1026 C 0.91274 0.49885 0.55186 0.0
C1027 C 0.07711 0.38905 0.54466 0.0
C1028 C 0.05347 0.36118 0.54296 0.0
C1029 C 0.06606 0.42421 0.54365 0.0
C1030 C 0.03144 0.43178 0.54083 0.0
C1031 C 0.00863 0.40389 0.53868 0.0
C1032 C 0.01952 0.36895 0.53973 0.0
C1033 C 0.0177 0.46846 0.54086 0.0
C1034 C 0.98798 0.47584 0.54605 0.0
C1035 C 0.03423 0.49614 0.5362 0.0
C1036 C 0.06504 0.48969 0.53041 0.0
C1037 C 0.06312 0.46438 0.52372 0.0
C1038 C 0.09234 0.45828 0.51833 0.0
C1039 C 0.12357 0.4775 0.51955 0.0
C1040 C 0.12562 0.50292 0.52614 0.0
C1041 C 0.09648 0.5091 0.53155 0.0
H1042 H 0.14617 0.47274 0.51538 0.0
H1043 H 0.86645 0.53431 0.56875 0.0
H1044 H 0.63017 0.59577 0.79331 0.0
H1045 H 0.56824 0.57827 0.79138 0.0
H1046 H 0.59784 0.46829 0.79369 0.0
H1047 H 0.65965 0.48536 0.79546 0.0
H1048 H 0.54684 0.47768 0.78137 0.0
H1049 H 0.56866 0.51241 0.81112 0.0
H1050 H 0.58936 0.55351 0.82251 0.0
H1051 H 0.51256 0.63056 0.81435 0.0
H1052 H 0.4918 0.5901 0.8028 0.0
H1053 H 0.38335 0.40209 0.79579 0.0
H1054 H 0.44501 0.42119 0.79412 0.0
H1055 H 0.41075 0.53003 0.79247 0.0
H1056 H 0.34947 0.51138 0.79423 0.0
H1057 H 0.46374 0.52283 0.8038 0.0
H1058 H 0.43937 0.48607 0.77451 0.0
H1059 H 0.41956 0.44481 0.76306 0.0
H1060 H 0.50089 0.37111 0.77039 0.0
H1061 H 0.52089 0.41173 0.78198 0.0
C1062 C 0.62355 0.56785 0.79328 0.0
C1063 C 0.64973 0.54198 0.79464 0.0
C1064 C 0.58819 0.55791 0.79219 0.0
C1065 C 0.5785 0.52201 0.79251 0.0
C1066 C 0.6048 0.49612 0.79343 0.0
C1067 C 0.64009 0.50598 0.7945 0.0
C1068 C 0.54081 0.51142 0.79258 0.0
C1069 C 0.52865 0.48733 0.7863 0.0
C1070 C 0.51713 0.5244 0.79896 0.0
C1071 C 0.52892 0.54838 0.80605 0.0
C1072 C 0.55632 0.53819 0.81173 0.0
C1073 C 0.56806 0.56137 0.81821 0.0
C1074 C 0.55235 0.59467 0.81914 0.0
C1075 C 0.52474 0.60478 0.81361 0.0
C1076 C 0.51297 0.58173 0.8071 0.0
C1077 C 0.38897 0.43003 0.79499 0.0
C1078 C 0.36156 0.45521 0.79517 0.0
C1079 C 0.42416 0.4409 0.79401 0.0
C1080 C 0.43237 0.47703 0.79313 0.0
C1081 C 0.40498 0.50205 0.79316 0.0
C1082 C 0.36995 0.49128 0.79416 0.0
C1083 C 0.46958 0.48911 0.79257 0.0
C1084 C 0.48174 0.51337 0.79881 0.0
C1085 C 0.49321 0.47617 0.78617 0.0
C1086 C 0.48141 0.45181 0.77917 0.0
C1087 C 0.45287 0.46095 0.77373 0.0
C1088 C 0.44163 0.4377 0.76721 0.0
C1089 C 0.45889 0.40532 0.76602 0.0
C1090 C 0.48751 0.39618 0.77133 0.0
C1091 C 0.49883 0.41932 0.77787 0.0
H1092 H 0.45014 0.38735 0.76097 0.0
H1093 H 0.56153 0.6126 0.82415 0.0
H1094 H 0.39647 0.12436 0.04514 0.0
H1095 H 0.41562 0.06263 0.04388 0.0
H1096 H 0.52481 0.09567 0.04545 0.0
H1097 H 0.50606 0.15729 0.04656 0.0
H1098 H 0.51633 0.04424 0.03343 0.0
H1099 H 0.4827 0.06475 0.06321 0.0
H1100 H 0.44226 0.08382 0.07491 0.0
H1101 H 0.36679 0.00488 0.06712 0.0
H1102 H 0.40657 0.9857 0.05528 0.0
H1103 H 0.59465 0.88039 0.04665 0.0
H1104 H 0.57487 0.94202 0.04553 0.0
H1105 H 0.46624 0.90697 0.0442 0.0
H1106 H 0.48561 0.84562 0.04543 0.0
H1107 H 0.47376 0.9593 0.05574 0.0
H1108 H 0.50901 0.93745 0.02617 0.0
H1109 H 0.54987 0.91904 0.01449 0.0
H1110 H 0.6231 0.00048 0.02201 0.0
H1111 H 0.58289 0.01908 0.03382 0.0
C1112 C 0.42455 0.11851 0.04513 0.0
C1113 C 0.44972 0.14569 0.04601 0.0
C1114 C 0.43544 0.08324 0.04444 0.0
C1115 C 0.47162 0.0746 0.04468 0.0
C1116 C 0.49678 0.10178 0.04525 0.0
C1117 C 0.48596 0.13698 0.04593 0.0
C1118 C 0.48335 0.03719 0.04474 0.0
C1119 C 0.50729 0.0257 0.03835 0.0
C1120 C 0.47114 0.01297 0.05109 0.0
C1121 C 0.44746 0.02403 0.05831 0.0
C1122 C 0.45738 0.05161 0.06396 0.0
C1123 C 0.43459 0.06243 0.07062 0.0
C1124 C 0.40194 0.04564 0.07175 0.0
C1125 C 0.39207 0.0179 0.06623 0.0
C1126 C 0.41473 0.00703 0.05955 0.0
C1127 C 0.56659 0.88582 0.04604 0.0
C1128 C 0.54172 0.85813 0.04613 0.0
C1129 C 0.55533 0.92102 0.04538 0.0
C1130 C 0.51908 0.92902 0.04473 0.0
C1131 C 0.49432 0.90137 0.04471 0.0
C1132 C 0.50549 0.8663 0.04539 0.0
C1133 C 0.50667 0.96621 0.0444 0.0
C1134 C 0.48268 0.97772 0.05078 0.0
C1135 C 0.51895 0.99043 0.03806 0.0
C1136 C 0.54308 0.97943 0.03093 0.0
C1137 C 0.53395 0.95126 0.02537 0.0
C1138 C 0.55697 0.94082 0.01873 0.0
C1139 C 0.5891 0.95852 0.01753 0.0
C1140 C 0.59822 0.98677 0.02296 0.0
C1141 C 0.57531 0.99729 0.02962 0.0
H1142 H 0.60689 0.95039 0.01238 0.0
H1143 H 0.38432 0.05408 0.0769 0.0
H1144 H 0.14903 0.5104 0.95449 0.0
H1145 H 0.08771 0.52678 0.95698 0.0
H1146 H 0.06049 0.41696 0.96094 0.0
H1147 H 0.12232 0.40001 0.95828 0.0
H1148 H 0.01426 0.44952 0.95024 0.0
H1149 H 0.06375 0.47392 0.97815 0.0
H1150 H 0.10696 0.49859 0.98854 0.0
H1151 H 0.08166 0.60392 0.98002 0.0
H1152 H 0.03865 0.57986 0.96948 0.0
H1153 H 0.84142 0.49291 0.96259 0.0
H1154 H 0.90225 0.47284 0.96451 0.0
H1155 H 0.94045 0.57709 0.9579 0.0
H1156 H 0.87928 0.59767 0.95602 0.0
H1157 H 0.97991 0.54344 0.97123 0.0
H1158 H 0.93496 0.51839 0.94247 0.0
H1159 H 0.89066 0.49423 0.93228 0.0
H1160 H 0.90761 0.38984 0.94256 0.0
H1161 H 0.95154 0.41352 0.95294 0.0
C1162 C 0.13018 0.4896 0.95595 0.0
C1163 C 0.14062 0.45384 0.95622 0.0
C1164 C 0.0951 0.4991 0.95742 0.0
C1165 C 0.06967 0.47317 0.95929 0.0
C1166 C 0.07984 0.43739 0.95956 0.0
C1167 C 0.11512 0.42777 0.95806 0.0
C1168 C 0.03227 0.48374 0.96056 0.0
C1169 C 0.00663 0.46949 0.95496 0.0
C1170 C 0.02251 0.51041 0.96659 0.0
C1171 C 0.04811 0.52504 0.97298 0.0
C1172 C 0.06755 0.50233 0.97845 0.0
C1173 C 0.092 0.51621 0.98437 0.0
C1174 C 0.0971 0.55279 0.98493 0.0
C1175 C 0.07769 0.57558 0.97958 0.0
C1176 C 0.05323 0.56184 0.97364 0.0
C1177 C 0.8627 0.51177 0.96166 0.0
C1178 C 0.85567 0.54674 0.95902 0.0
C1179 C 0.89741 0.50024 0.96278 0.0
C1180 C 0.92571 0.52334 0.9612 0.0
C1181 C 0.91883 0.5589 0.95913 0.0
C1182 C 0.88395 0.57058 0.95804 0.0
C1183 C 0.96224 0.50941 0.96088 0.0
C1184 C 0.9876 0.52312 0.96661 0.0
C1185 C 0.9718 0.48225 0.95498 0.0
C1186 C 0.94628 0.46778 0.94854 0.0
C1187 C 0.9291 0.49031 0.94259 0.0
C1188 C 0.90405 0.47671 0.93678 0.0
C1189 C 0.89626 0.44054 0.93679 0.0
C1190 C 0.91363 0.41787 0.94258 0.0
C1191 C 0.93862 0.43136 0.94842 0.0
H1192 H 0.8768 0.43007 0.9323 0.0
H1193 H 0.11605 0.56348 0.98951 0.0
H1194 H 0.39155 0.37591 0.20475 0.0
H1195 H 0.4102 0.43793 0.20585 0.0
H1196 H 0.5197 0.40526 0.20552 0.0
H1197 H 0.50148 0.34356 0.20458 0.0
H1198 H 0.50908 0.45611 0.2174 0.0
H1199 H 0.47983 0.43586 0.18726 0.0
H1200 H 0.44097 0.41773 0.17515 0.0
H1201 H 0.36575 0.49794 0.18228 0.0
H1202 H 0.40396 0.51622 0.19452 0.0
H1203 H 0.59611 0.61445 0.20432 0.0
H1204 H 0.57277 0.55408 0.20525 0.0
H1205 H 0.46617 0.59517 0.20589 0.0
H1206 H 0.4891 0.65539 0.20488 0.0
H1207 H 0.47225 0.54124 0.19451 0.0
H1208 H 0.50421 0.56376 0.22423 0.0
H1209 H 0.54392 0.58146 0.2362 0.0
H1210 H 0.61511 0.4968 0.2297 0.0
H1211 H 0.57605 0.47888 0.2176 0.0
C1212 C 0.41957 0.38196 0.20498 0.0
C1213 C 0.44501 0.35484 0.20454 0.0
C1214 C 0.43018 0.41737 0.20558 0.0
C1215 C 0.46634 0.42615 0.20568 0.0
C1216 C 0.49168 0.39905 0.20546 0.0
C1217 C 0.48116 0.36378 0.20488 0.0
C1218 C 0.47813 0.46353 0.20575 0.0
C1219 C 0.50125 0.47469 0.21236 0.0
C1220 C 0.46737 0.48784 0.19927 0.0
C1221 C 0.44456 0.47714 0.19186 0.0
C1222 C 0.45488 0.44946 0.18628 0.0
C1223 C 0.43299 0.43918 0.17939 0.0
C1224 C 0.40086 0.4566 0.17796 0.0
C1225 C 0.39061 0.48443 0.18341 0.0
C1226 C 0.41238 0.49477 0.19032 0.0
C1227 C 0.56772 0.61063 0.20471 0.0
C1228 C 0.54449 0.6397 0.20454 0.0
C1229 C 0.55443 0.57615 0.20527 0.0
C1230 C 0.51775 0.57023 0.20571 0.0
C1231 C 0.49455 0.5992 0.20556 0.0
C1232 C 0.50777 0.6336 0.205 0.0
C1233 C 0.50342 0.53378 0.20612 0.0
C1234 C 0.47985 0.52278 0.19959 0.0
C1235 C 0.5139 0.50958 0.21266 0.0
C1236 C 0.53735 0.52018 0.21996 0.0
C1237 C 0.52847 0.54908 0.22531 0.0
C1238 C 0.55084 0.55913 0.23213 0.0
C1239 C 0.58206 0.54032 0.2337 0.0
C1240 C 0.59093 0.51136 0.22847 0.0
C1241 C 0.56867 0.50123 0.22164 0.0
H1242 H 0.59935 0.54814 0.23898 0.0
H1243 H 0.38395 0.44859 0.17263 0.0
H1244 H 0.37751 0.10173 0.4594 0.0
H1245 H 0.44016 0.08703 0.46158 0.0
H1246 H 0.41545 0.97578 0.45943 0.0
H1247 H 0.35324 0.99 0.45748 0.0
H1248 H 0.46401 0.98593 0.47169 0.0
H1249 H 0.44472 0.02377 0.44194 0.0
H1250 H 0.42536 0.06591 0.43063 0.0
H1251 H 0.5003 0.1426 0.43994 0.0
H1252 H 0.51973 0.10106 0.4514 0.0
H1253 H 0.62344 0.90773 0.45596 0.0
H1254 H 0.56303 0.92917 0.45842 0.0
H1255 H 0.60228 0.03608 0.46078 0.0
H1256 H 0.66237 0.01508 0.45823 0.0
H1257 H 0.54813 0.03315 0.44977 0.0
H1258 H 0.57223 0.99086 0.47857 0.0
H1259 H 0.59099 0.94737 0.48962 0.0
H1260 H 0.50712 0.87744 0.48183 0.0
H1261 H 0.48814 0.9203 0.47064 0.0
C1262 C 0.38541 0.07415 0.45952 0.0
C1263 C 0.36046 0.04708 0.45818 0.0
C1264 C 0.42118 0.0658 0.46074 0.0
C1265 C 0.43247 0.03031 0.46056 0.0
C1266 C 0.40734 0.00331 0.4596 0.0
C1267 C 0.37175 0.01157 0.45843 0.0
C1268 C 0.47055 0.02095 0.46073 0.0
C1269 C 0.48243 0.99615 0.46689 0.0
C1270 C 0.49465 0.03473 0.45455 0.0
C1271 C 0.48338 0.05949 0.44758 0.0
C1272 C 0.4569 0.04971 0.44161 0.0
C1273 C 0.44593 0.07347 0.43517 0.0
C1274 C 0.46151 0.10696 0.43459 0.0
C1275 C 0.4882 0.11669 0.44042 0.0
C1276 C 0.49921 0.09305 0.44688 0.0
C1277 C 0.61922 0.93572 0.45712 0.0
C1278 C 0.64764 0.95971 0.45686 0.0
C1279 C 0.58473 0.94793 0.45855 0.0
C1280 C 0.57823 0.98422 0.45983 0.0
C1281 C 0.6067 0.00801 0.45979 0.0
C1282 C 0.64104 0.9959 0.45833 0.0
C1283 C 0.54159 0.99778 0.46067 0.0
C1284 C 0.52994 0.02331 0.45468 0.0
C1285 C 0.5177 0.98445 0.46696 0.0
C1286 C 0.52894 0.9587 0.47372 0.0
C1287 C 0.55794 0.9661 0.47917 0.0
C1288 C 0.56859 0.94157 0.48547 0.0
C1289 C 0.55031 0.90963 0.48641 0.0
C1290 C 0.52127 0.90218 0.48108 0.0
C1291 C 0.51053 0.9266 0.47477 0.0
H1292 H 0.5586 0.89068 0.49129 0.0
H1293 H 0.45296 0.12533 0.4296 0.0
H1294 H 0.1007 0.1174 0.70719 0.0
H1295 H 0.07964 0.05626 0.70855 0.0
H1296 H 0.97187 0.09201 0.70534 0.0
H1297 H 0.9924 0.15286 0.7042 0.0
H1298 H 0.9752 0.04219 0.71753 0.0
H1299 H 0.01854 0.05793 0.68831 0.0
H1300 H 0.06303 0.07388 0.67723 0.0
H1301 H 0.1328 0.99318 0.68693 0.0
H1302 H 0.0889 0.9771 0.69816 0.0
H1303 H 0.89549 0.87932 0.70335 0.0
H1304 H 0.91647 0.94057 0.70479 0.0
H1305 H 0.02308 0.90265 0.70873 0.0
H1306 H 0.00264 0.84191 0.70723 0.0
H1307 H 0.02092 0.95332 0.69657 0.0
H1308 H 0.97525 0.93612 0.72552 0.0
H1309 H 0.92987 0.9208 0.73642 0.0
H1310 H 0.86303 0.00433 0.72692 0.0
H1311 H 0.90784 0.01984 0.71588 0.0
C1312 C 0.07252 0.11222 0.70685 0.0
C1313 C 0.04828 0.13993 0.70553 0.0
C1314 C 0.06053 0.07732 0.7076 0.0
C1315 C 0.02421 0.06962 0.70694 0.0
C1316 C -2e-05 0.09737 0.70588 0.0
C1317 C 0.01185 0.13216 0.70519 0.0
C1318 C 0.01133 0.03261 0.70693 0.0
C1319 C 0.98497 0.02279 0.71291 0.0
C1320 C 0.02439 0.00728 0.70096 0.0
C1321 C 0.0506 0.01657 0.69413 0.0
C1322 C 0.04347 0.04374 0.68812 0.0
C1323 C 0.06856 0.05279 0.68181 0.0
C1324 C 0.10076 0.03463 0.6814 0.0
C1325 C 0.10787 0.00727 0.68727 0.0
C1326 C 0.08289 0.99817 0.69361 0.0
C1327 C 0.9233 0.8841 0.70462 0.0
C1328 C 0.94741 0.85582 0.70513 0.0
C1329 C 0.93523 0.91904 0.70546 0.0
C1330 C 0.97134 0.92606 0.70687 0.0
C1331 C 0.99517 0.8978 0.70759 0.0
C1332 C 0.98337 0.86307 0.70674 0.0
C1333 C 0.98488 0.9628 0.7072 0.0
C1334 C 0.01128 0.97262 0.70124 0.0
C1335 C 0.97167 0.98811 0.71315 0.0
C1336 C 0.94476 0.97891 0.71981 0.0
C1337 C 0.95076 0.95104 0.72571 0.0
C1338 C 0.92516 0.94236 0.73192 0.0
C1339 C 0.89354 0.96152 0.73235 0.0
C1340 C 0.88751 0.98947 0.72658 0.0
C1341 C 0.91301 0.99824 0.72034 0.0
H1342 H 0.87376 0.95476 0.73717 0.0
H1343 H 0.12017 0.04169 0.67651 0.0
H1344 H 0.64269 0.00165 0.3061 0.0
H1345 H 0.58154 0.01718 0.30909 0.0
H1346 H 0.56182 0.91168 0.31869 0.0
H1347 H 0.62372 0.89564 0.3158 0.0
H1348 H 0.5114 0.93784 0.30635 0.0
H1349 H 0.56579 0.97366 0.33303 0.0
H1350 H 0.6113 0.00312 0.34197 0.0
H1351 H 0.58197 0.10388 0.33119 0.0
H1352 H 0.53667 0.07495 0.32207 0.0
H1353 H 0.33867 0.98753 0.31696 0.0
H1354 H 0.39877 0.96593 0.3193 0.0
H1355 H 0.44005 0.0694 0.31297 0.0
H1356 H 0.37949 0.09149 0.31091 0.0
H1357 H 0.479 0.03881 0.32548 0.0
H1358 H 0.43378 0.00486 0.2974 0.0
H1359 H 0.39032 0.97823 0.28739 0.0
H1360 H 0.40445 0.87708 0.2997 0.0
H1361 H 0.44781 0.90328 0.30986 0.0
C1362 C 0.62563 0.98164 0.3089 0.0
C1363 C 0.63827 0.94739 0.31076 0.0
C1364 C 0.59065 0.99068 0.31063 0.0
C1365 C 0.56747 0.96572 0.31422 0.0
C1366 C 0.57958 0.93133 0.31598 0.0
C1367 C 0.61487 0.92227 0.31433 0.0
C1368 C 0.53023 0.9757 0.31575 0.0
C1369 C 0.50409 0.95929 0.3107 0.0
C1370 C 0.52117 0.00444 0.32122 0.0
C1371 C 0.54792 0.02207 0.32683 0.0
C1372 C 0.56917 0.00207 0.33253 0.0
C1373 C 0.59493 0.01868 0.33763 0.0
C1374 C 0.59955 0.05534 0.33714 0.0
C1375 C 0.57835 0.07548 0.33157 0.0
C1376 C 0.55259 0.05899 0.32644 0.0
C1377 C 0.36054 0.00573 0.31614 0.0
C1378 C 0.35464 0.04093 0.31357 0.0
C1379 C 0.39483 0.9934 0.3175 0.0
C1380 C 0.42386 0.01582 0.31609 0.0
C1381 C 0.41796 0.05162 0.31404 0.0
C1382 C 0.38347 0.06418 0.31284 0.0
C1383 C 0.46019 0.00118 0.31601 0.0
C1384 C 0.48615 0.01683 0.32129 0.0
C1385 C 0.4693 0.97207 0.31064 0.0
C1386 C 0.44374 0.95609 0.30444 0.0
C1387 C 0.42747 0.97698 0.298 0.0
C1388 C 0.40286 0.96196 0.2923 0.0
C1389 C 0.3945 0.92599 0.29293 0.0
C1390 C 0.41089 0.90494 0.29923 0.0
C1391 C 0.43552 0.91985 0.30496 0.0
H1392 H 0.37542 0.9144 0.28851 0.0
H1393 H 0.61953 0.06815 0.34109 0.0
H1394 H 0.88926 0.88337 0.56238 0.0
H1395 H 0.9071 0.94564 0.564 0.0
H1396 H 0.01485 0.91764 0.55777 0.0
H1397 H 0.99742 0.85624 0.55588 0.0
H1398 H 0.0043 0.962 0.57341 0.0
H1399 H 0.97701 0.95324 0.54261 0.0
H1400 H 0.94055 0.94223 0.52957 0.0
H1401 H 0.86246 0.01586 0.53882 0.0
H1402 H 0.8985 0.02723 0.55194 0.0
H1403 H 0.09346 0.12211 0.56226 0.0
H1404 H 0.06934 0.06214 0.56367 0.0
H1405 H 0.96317 0.1045 0.56294 0.0
H1406 H 0.98699 0.16385 0.56123 0.0
H1407 H 0.96845 0.0533 0.55193 0.0
H1408 H -3e-05 0.06885 0.58173 0.0
H1409 H 0.03908 0.08358 0.59401 0.0
H1410 H 0.10902 0.99861 0.58697 0.0
H1411 H 0.07056 0.9837 0.57452 0.0
C1412 C 0.91673 0.89051 0.56137 0.0
C1413 C 0.94195 0.86474 0.55906 0.0
C1414 C 0.92682 0.92599 0.56229 0.0
C1415 C 0.96228 0.93589 0.56105 0.0
C1416 C 0.98743 0.91029 0.55882 0.0
C1417 C 0.97732 0.87517 0.55773 0.0
C1418 C 0.97354 0.97305 0.56192 0.0
C1419 C 0.99659 0.9821 0.56873 0.0
C1420 C 0.96283 0.99908 0.55589 0.0
C1421 C 0.94017 0.99069 0.5483 0.0
C1422 C 0.95181 0.96665 0.54192 0.0
C1423 C 0.93133 0.96053 0.5345 0.0
C1424 C 0.89922 0.97835 0.53337 0.0
C1425 C 0.88736 0.0021 0.5397 0.0
C1426 C 0.9078 0.00842 0.54713 0.0
C1427 C 0.06501 0.11858 0.56252 0.0
C1428 C 0.04209 0.14761 0.56154 0.0
C1429 C 0.05125 0.08437 0.56336 0.0
C1430 C 0.01441 0.07888 0.56344 0.0
C1431 C 0.99164 0.10808 0.56283 0.0
C1432 C 0.00533 0.14203 0.56185 0.0
C1433 C -0.0006 0.04267 0.56344 0.0
C1434 C 0.97573 0.03362 0.55676 0.0
C1435 C 0.00945 0.01676 0.56962 0.0
C1436 C 0.03252 0.02536 0.57715 0.0
C1437 C 0.02382 0.05345 0.58276 0.0
C1438 C 0.04587 0.06181 0.58977 0.0
C1439 C 0.07657 0.0421 0.59128 0.0
C1440 C 0.08524 0.01389 0.58579 0.0
C1441 C 0.0633 0.00545 0.57876 0.0
H1442 H 0.0936 0.04866 0.59671 0.0
H1443 H 0.8836 0.97387 0.52757 0.0
H1444 H 0.14863 0.49868 0.80271 0.0
H1445 H 0.08875 0.51933 0.80545 0.0
H1446 H 0.06636 0.42439 0.82004 0.0
H1447 H 0.12691 0.40332 0.81745 0.0
H1448 H 0.01436 0.44397 0.8072 0.0
H1449 H 0.07768 0.49539 0.83115 0.0
H1450 H 0.12711 0.52848 0.83777 0.0
H1451 H 0.09852 0.62095 0.82309 0.0
H1452 H 0.04926 0.58823 0.81626 0.0
H1453 H 0.84747 0.50464 0.81888 0.0
H1454 H 0.9081 0.48394 0.82099 0.0
H1455 H 0.94769 0.58086 0.80968 0.0
H1456 H 0.88658 0.60222 0.80786 0.0
H1457 H 0.99121 0.55774 0.82241 0.0
H1458 H 0.9378 0.50823 0.79688 0.0
H1459 H 0.89083 0.47809 0.78862 0.0
H1460 H 0.90268 0.38556 0.80462 0.0
H1461 H 0.94992 0.41534 0.813 0.0
C1462 C 0.13122 0.48209 0.80655 0.0
C1463 C 0.14278 0.44942 0.80994 0.0
C1464 C 0.09698 0.49407 0.80812 0.0
C1465 C 0.07349 0.47361 0.81305 0.0
C1466 C 0.0844 0.44061 0.81628 0.0
C1467 C 0.11892 0.42866 0.81478 0.0
C1468 C 0.03723 0.48669 0.81458 0.0
C1469 C 0.00912 0.46835 0.81071 0.0
C1470 C 0.03085 0.5192 0.81889 0.0
C1471 C 0.05987 0.53926 0.82316 0.0
C1472 C 0.08203 0.52273 0.8293 0.0
C1473 C 0.11003 0.54142 0.83309 0.0
C1474 C 0.11599 0.57678 0.83084 0.0
C1475 C 0.09387 0.59355 0.82482 0.0
C1476 C 0.06587 0.57496 0.821 0.0
C1477 C 0.86916 0.52164 0.81694 0.0
C1478 C 0.86267 0.55459 0.81305 0.0
C1479 C 0.90372 0.50988 0.81816 0.0
C1480 C 0.93232 0.53048 0.81528 0.0
C1481 C 0.92594 0.5645 0.81191 0.0
C1482 C 0.89118 0.57662 0.81084 0.0
C1483 C 0.9683 0.51501 0.81502 0.0
C1484 C 0.99634 0.53297 0.81906 0.0
C1485 C 0.97488 0.48247 0.81072 0.0
C1486 C 0.94709 0.46411 0.80561 0.0
C1487 C 0.93028 0.48151 0.79866 0.0
C1488 C 0.9036 0.46448 0.79395 0.0
C1489 C 0.89354 0.42998 0.79612 0.0
C1490 C 0.91042 0.41233 0.80296 0.0
C1491 C 0.93723 0.42922 0.80768 0.0
H1492 H 0.87277 0.41689 0.79249 0.0
H1493 H 0.13772 0.59119 0.83376 0.0
H1494 H 0.51448 0.63833 0.0496 0.0
H1495 H 0.49163 0.57944 0.05259 0.0
H1496 H 0.55899 0.5716 0.07519 0.0
H1497 H 0.58277 0.63077 0.07214 0.0
H1498 H 0.55839 0.51077 0.06633 0.0
H1499 H 0.47205 0.58716 0.07798 0.0
H1500 H 0.43231 0.63893 0.07833 0.0
H1501 H 0.37316 0.59673 0.05684 0.0
H1502 H 0.41293 0.54497 0.05625 0.0
H1503 H 0.40534 0.37202 0.07223 0.0
H1504 H 0.42805 0.43172 0.07521 0.0
H1505 H 0.49439 0.42525 0.0524 0.0
H1506 H 0.47262 0.36591 0.04948 0.0
H1507 H 0.42803 0.49321 0.06638 0.0
H1508 H 0.57312 0.4593 0.05603 0.0
H1509 H 0.61299 0.40759 0.05649 0.0
H1510 H 0.55468 0.36495 0.07807 0.0
H1511 H 0.51482 0.41664 0.07784 0.0
C1512 C 0.52462 0.62416 0.0552 0.0
C1513 C 0.55028 0.63938 0.06067 0.0
C1514 C 0.51134 0.59054 0.05693 0.0
C1515 C 0.52298 0.57155 0.06423 0.0
C1516 C 0.54945 0.58603 0.06957 0.0
C1517 C 0.56303 0.61975 0.0678 0.0
C1518 C 0.50744 0.53641 0.06611 0.0
C1519 C 0.52993 0.50691 0.06645 0.0
C1520 C 0.4703 0.53157 0.0666 0.0
C1521 C 0.44559 0.56217 0.06706 0.0
C1522 C 0.45065 0.58896 0.0733 0.0
C1523 C 0.42813 0.61833 0.07354 0.0
C1524 C 0.40025 0.62113 0.06761 0.0
C1525 C 0.39476 0.5945 0.06144 0.0
C1526 C 0.41726 0.56509 0.06116 0.0
C1527 C 0.42458 0.38349 0.06783 0.0
C1528 C 0.43748 0.36409 0.06068 0.0
C1529 C 0.43754 0.41751 0.06955 0.0
C1530 C 0.46351 0.43248 0.06414 0.0
C1531 C 0.47508 0.41378 0.05679 0.0
C1532 C 0.46244 0.37988 0.05511 0.0
C1533 C 0.47897 0.46761 0.06606 0.0
C1534 C 0.45648 0.49709 0.06647 0.0
C1535 C 0.51612 0.47245 0.06652 0.0
C1536 C 0.54087 0.44186 0.06689 0.0
C1537 C 0.56899 0.43908 0.06093 0.0
C1538 C 0.59155 0.40971 0.06114 0.0
C1539 C 0.58633 0.38297 0.06729 0.0
C1540 C 0.55865 0.38563 0.07329 0.0
C1541 C 0.53606 0.41496 0.07312 0.0
H1542 H 0.60375 0.36021 0.06742 0.0
H1543 H 0.38288 0.64393 0.06779 0.0
H1544 H 0.37668 0.40654 0.93426 0.0
H1545 H 0.43779 0.42683 0.93235 0.0
H1546 H 0.41049 0.52775 0.94365 0.0
H1547 H 0.34979 0.50784 0.9457 0.0
H1548 H 0.45418 0.53262 0.92855 0.0
H1549 H 0.44699 0.4703 0.95616 0.0
H1550 H 0.43302 0.41861 0.96535 0.0
H1551 H 0.50595 0.35494 0.95069 0.0
H1552 H 0.51996 0.40618 0.94131 0.0
H1553 H 0.61977 0.60273 0.94251 0.0
H1554 H 0.55857 0.58248 0.94056 0.0
H1555 H 0.59659 0.47723 0.93468 0.0
H1556 H 0.65727 0.49709 0.93699 0.0
H1557 H 0.54723 0.47225 0.94586 0.0
H1558 H 0.55916 0.5344 0.91894 0.0
H1559 H 0.57311 0.5849 0.90936 0.0
H1560 H 0.49244 0.64707 0.92179 0.0
H1561 H 0.47833 0.5971 0.93154 0.0
C1562 C 0.3836 0.43313 0.93628 0.0
C1563 C 0.3583 0.45551 0.94015 0.0
C1564 C 0.41847 0.44466 0.93517 0.0
C1565 C 0.42845 0.47875 0.93786 0.0
C1566 C 0.40313 0.50144 0.94149 0.0
C1567 C 0.36846 0.48987 0.94269 0.0
C1568 C 0.46576 0.49018 0.93746 0.0
C1569 C 0.47464 0.51963 0.93234 0.0
C1570 C 0.49231 0.4726 0.94228 0.0
C1571 C 0.48421 0.44194 0.94798 0.0
C1572 C 0.45984 0.4452 0.95485 0.0
C1573 C 0.45194 0.41601 0.9601 0.0
C1574 C 0.4685 0.38348 0.95859 0.0
C1575 C 0.49309 0.38013 0.95184 0.0
C1576 C 0.50103 0.40924 0.94656 0.0
C1577 C 0.61489 0.57542 0.94071 0.0
C1578 C 0.64298 0.55129 0.94001 0.0
C1579 C 0.58002 0.56388 0.93955 0.0
C1580 C 0.57296 0.52831 0.93743 0.0
C1581 C 0.60131 0.50468 0.93638 0.0
C1582 C 0.63596 0.51601 0.93772 0.0
C1583 C 0.53611 0.51494 0.93691 0.0
C1584 C 0.52714 0.48513 0.94192 0.0
C1585 C 0.50964 0.53202 0.93191 0.0
C1586 C 0.51789 0.56207 0.92602 0.0
C1587 C 0.54456 0.55892 0.91967 0.0
C1588 C 0.55247 0.58744 0.91421 0.0
C1589 C 0.53372 0.6192 0.91498 0.0
C1590 C 0.50696 0.62246 0.92121 0.0
C1591 C 0.49896 0.59403 0.9267 0.0
H1592 H 0.5399 0.64125 0.91074 0.0
H1593 H 0.46235 0.3609 0.96266 0.0
H1594 H 0.56099 0.85906 0.17914 0.0
H1595 H 0.53412 0.91794 0.17813 0.0
H1596 H 0.5411 0.92889 0.20608 0.0
H1597 H 0.56546 0.86904 0.20709 0.0
H1598 H 0.48045 0.94789 0.20169 0.0
H1599 H 0.59562 0.97613 0.19046 0.0
H1600 H 0.64752 0.97001 0.18083 0.0
H1601 H 0.58226 0.99101 0.15853 0.0
H1602 H 0.52985 0.99683 0.16802 0.0
H1603 H 0.46388 0.13321 0.20586 0.0
H1604 H 0.4865 0.07293 0.2048 0.0
H1605 H 0.44049 0.06265 0.17923 0.0
H1606 H 0.41723 0.12339 0.18027 0.0
H1607 H 0.51617 0.04274 0.18115 0.0
H1608 H 0.40152 0.0194 0.1939 0.0
H1609 H 0.35385 0.02965 0.20458 0.0
H1610 H 0.42499 0.00409 0.22546 0.0
H1611 H 0.47321 0.99404 0.2149 0.0
C1612 C 0.55738 0.87451 0.18502 0.0
C1613 C 0.56542 0.85999 0.19318 0.0
C1614 C 0.54209 0.90813 0.18445 0.0
C1615 C 0.53581 0.92814 0.19202 0.0
C1616 C 0.54542 0.91398 0.20015 0.0
C1617 C 0.55963 0.88001 0.20073 0.0
C1618 C 0.51732 0.96282 0.19159 0.0
C1619 C 0.48865 0.96866 0.19725 0.0
C1620 C 0.52724 0.98979 0.18565 0.0
C1621 C 0.55875 0.98654 0.17994 0.0
C1622 C 0.59229 0.9792 0.18349 0.0
C1623 C 0.62181 0.97583 0.17806 0.0
C1624 C 0.61817 0.98002 0.16907 0.0
C1625 C 0.58503 0.98772 0.16549 0.0
C1626 C 0.55541 0.99109 0.1709 0.0
C1627 C 0.45835 0.11812 0.20002 0.0
C1628 C 0.43886 0.13296 0.19314 0.0
C1629 C 0.47123 0.08369 0.19944 0.0
C1630 C 0.4651 0.06354 0.19194 0.0
C1631 C 0.4454 0.078 0.18506 0.0
C1632 C 0.43199 0.11246 0.18569 0.0
C1633 C 0.48016 0.0276 0.19134 0.0
C1634 C 0.50803 0.02161 0.1855 0.0
C1635 C 0.47019 0.00081 0.19726 0.0
C1636 C 0.441 0.00607 0.20361 0.0
C1637 C 0.40703 0.01608 0.20077 0.0
C1638 C 0.3799 0.02181 0.2068 0.0
C1639 C 0.38637 0.01743 0.21569 0.0
C1640 C 0.41998 0.00732 0.21857 0.0
C1641 C 0.4472 0.00154 0.21256 0.0
H1642 H 0.36536 0.02198 0.22035 0.0
H1643 H 0.64105 0.97738 0.16488 0.0
H1644 H 0.85196 0.00022 0.43719 0.0
H1645 H 0.91409 0.01611 0.43529 0.0
H1646 H 0.94389 0.9065 0.4383 0.0
H1647 H 0.88126 0.89023 0.44006 0.0
H1648 H 0.97848 0.95814 0.44978 0.0
H1649 H 0.95434 0.9368 0.41963 0.0
H1650 H 0.92092 0.94276 0.40592 0.0
H1651 H 0.94045 0.05479 0.40581 0.0
H1652 H 0.97352 0.04961 0.4196 0.0
H1653 H 0.15842 0.98449 0.44344 0.0
H1654 H 0.09882 0.96243 0.44126 0.0
H1655 H 0.06433 0.06675 0.43353 0.0
H1656 H 0.12487 0.08908 0.43538 0.0
H1657 H 0.0324 0.0153 0.42387 0.0
H1658 H 0.05173 0.03917 0.45408 0.0
H1659 H 0.08426 0.03605 0.46798 0.0
H1660 H 0.07145 0.92306 0.46843 0.0
H1661 H 0.03931 0.92544 0.45445 0.0
C1662 C 0.87166 0.97946 0.43739 0.0
C1663 C 0.86192 0.94407 0.43886 0.0
C1664 C 0.90708 0.98854 0.43624 0.0
C1665 C 0.93335 0.96243 0.43664 0.0
C1666 C 0.92377 0.92691 0.43794 0.0
C1667 C 0.88815 0.91769 0.43893 0.0
C1668 C 0.97089 0.97299 0.43639 0.0
C1669 C 0.99058 0.96996 0.44407 0.0
C1670 C 0.98588 0.98964 0.42902 0.0
C1671 C 0.96615 0.99285 0.4207 0.0
C1672 C 0.95124 0.96277 0.41673 0.0
C1673 C 0.9324 0.96599 0.40893 0.0
C1674 C 0.92849 0.99914 0.40501 0.0
C1675 C 0.94348 0.02913 0.40886 0.0
C1676 C 0.9623 0.02606 0.41666 0.0
C1677 C 0.13845 0.00282 0.44116 0.0
C1678 C 0.14644 0.03868 0.43965 0.0
C1679 C 0.10428 0.9901 0.43994 0.0
C1680 C 0.07708 0.0131 0.4374 0.0
C1681 C 0.08503 0.04862 0.43553 0.0
C1682 C 0.11955 0.06134 0.43663 0.0
C1683 C 0.04011 0.00026 0.43726 0.0
C1684 C 0.02044 0.00313 0.42955 0.0
C1685 C 0.02482 0.98392 0.44466 0.0
C1686 C 0.04339 0.98246 0.45318 0.0
C1687 C 0.05602 0.01363 0.45712 0.0
C1688 C 0.07438 0.012 0.46501 0.0
C1689 C 0.08001 0.97936 0.46907 0.0
C1690 C 0.06712 0.94831 0.46526 0.0
C1691 C 0.04879 0.94979 0.45736 0.0
H1692 H 0.09429 0.97814 0.47517 0.0
H1693 H 0.9139 0.00158 0.39897 0.0
H1694 H 0.08665 0.36688 0.67918 0.0
H1695 H 0.06312 0.42658 0.6767 0.0
H1696 H 0.00386 0.41963 0.70067 0.0
H1697 H 0.0264 0.36016 0.70307 0.0
H1698 H 0.96344 0.44546 0.68824 0.0
H1699 H 0.08235 0.46592 0.69913 0.0
H1700 H 0.14741 0.46011 0.69884 0.0
H1701 H 0.15043 0.50884 0.67359 0.0
H1702 H 0.08529 0.5145 0.67369 0.0
H1703 H 0.98463 0.63968 0.70105 0.0
H1704 H 0.00809 0.58055 0.69881 0.0
H1705 H 0.9369 0.5653 0.67716 0.0
H1706 H 0.91253 0.62475 0.67945 0.0
H1707 H 0.04197 0.55024 0.68564 0.0
H1708 H 0.91344 0.47694 0.67708 0.0
H1709 H 0.84886 0.48306 0.67911 0.0
H1710 H 0.86612 0.54077 0.70282 0.0
H1711 H 0.93073 0.53454 0.70098 0.0
C1712 C 0.06881 0.37825 0.68394 0.0
C1713 C 0.0584 0.35884 0.69132 0.0
C1714 C 0.05533 0.41226 0.6825 0.0
C1715 C 0.03169 0.42745 0.6885 0.0
C1716 C 0.02174 0.40825 0.69591 0.0
C1717 C 0.03487 0.37431 0.6973 0.0
C1718 C 0.01745 0.46357 0.68725 0.0
C1719 C 0.98059 0.46836 0.68758 0.0
C1720 C 0.03984 0.49339 0.6864 0.0
C1721 C 0.07897 0.49024 0.68637 0.0
C1722 C 0.09688 0.47516 0.69349 0.0
C1723 C 0.13376 0.47192 0.69336 0.0
C1724 C 0.15303 0.48399 0.68619 0.0
C1725 C 0.13546 0.49943 0.67914 0.0
C1726 C 0.09857 0.50267 0.67922 0.0
C1727 C 0.97382 0.6239 0.6958 0.0
C1728 C 0.94653 0.63693 0.69045 0.0
C1729 C 0.98751 0.59013 0.69449 0.0
C1730 C 0.9743 0.5686 0.68781 0.0
C1731 C 0.94729 0.5815 0.68239 0.0
C1732 C 0.93334 0.61537 0.68373 0.0
C1733 C 0.98806 0.53214 0.68691 0.0
C1734 C 0.02479 0.52728 0.6861 0.0
C1735 C 0.96564 0.50229 0.68757 0.0
C1736 C 0.92686 0.50567 0.68882 0.0
C1737 C 0.90341 0.49084 0.68273 0.0
C1738 C 0.86682 0.49433 0.68385 0.0
C1739 C 0.8534 0.51243 0.69107 0.0
C1740 C 0.87654 0.52689 0.69721 0.0
C1741 C 0.91314 0.5234 0.69613 0.0
H1742 H 0.82508 0.51516 0.69191 0.0
H1743 H 0.18159 0.48146 0.6861 0.0
H1744 H 0.25237 0.13978 0.3394 0.0
H1745 H 0.24826 0.1425 0.35529 0.0
H1746 H 0.25108 0.0284 0.35656 0.0
H1747 H 0.25492 0.02538 0.34071 0.0
H1748 H 0.20105 0.05623 0.36742 0.0
H1749 H 0.32446 0.07614 0.36076 0.0
H1750 H 0.37435 0.10659 0.3536 0.0
H1751 H 0.34483 0.20427 0.36594 0.0
H1752 H 0.29445 0.17447 0.37309 0.0
H1753 H 0.24436 0.02564 0.41128 0.0
H1754 H 0.24623 0.02851 0.39542 0.0
H1755 H 0.24843 0.14266 0.39659 0.0
H1756 H 0.24714 0.14004 0.4125 0.0
H1757 H 0.29357 0.11865 0.38448 0.0
H1758 H 0.17214 0.0992 0.39168 0.0
H1759 H 0.12167 0.06974 0.39884 0.0
H1760 H 0.14595 0.97292 0.38544 0.0
H1761 H 0.19693 0.00167 0.3783 0.0
C1762 C 0.25192 0.11526 0.34306 0.0
C1763 C 0.25419 0.08236 0.33879 0.0
C1764 C 0.24972 0.11687 0.35214 0.0
C1765 C 0.24975 0.08565 0.35711 0.0
C1766 C 0.25108 0.05281 0.35285 0.0
C1767 C 0.25342 0.05116 0.34379 0.0
C1768 C 0.24897 0.08701 0.36676 0.0
C1769 C 0.22146 0.06957 0.37115 0.0
C1770 C 0.27506 0.10529 0.37162 0.0
C1771 C 0.30547 0.12316 0.36738 0.0
C1772 C 0.32845 0.10417 0.36189 0.0
C1773 C 0.35684 0.1213 0.35784 0.0
C1774 C 0.3627 0.15737 0.35929 0.0
C1775 C 0.34023 0.17635 0.36481 0.0
C1776 C 0.31177 0.15935 0.36887 0.0
C1777 C 0.24537 0.05138 0.40818 0.0
C1778 C 0.24532 0.08262 0.41316 0.0
C1779 C 0.24629 0.05298 0.3991 0.0
C1780 C 0.24682 0.08581 0.39481 0.0
C1781 C 0.24786 0.11704 0.39976 0.0
C1782 C 0.24708 0.11548 0.40886 0.0
C1783 C 0.24589 0.08742 0.38515 0.0
C1784 C 0.27303 0.10546 0.38075 0.0
C1785 C 0.21933 0.06987 0.38027 0.0
C1786 C 0.18855 0.05252 0.38451 0.0
C1787 C 0.16688 0.07156 0.39031 0.0
C1788 C 0.13816 0.05499 0.39436 0.0
C1789 C 0.13066 0.01946 0.39261 0.0
C1790 C 0.15182 0.00044 0.3868 0.0
C1791 C 0.18061 0.01686 0.38274 0.0
H1792 H 0.1084 0.00668 0.39575 0.0
H1793 H 0.38469 0.17059 0.35615 0.0
H1794 H 0.96625 0.77755 0.58953 0.0
H1795 H 0.9655 0.77185 0.60538 0.0
H1796 H 0.85268 0.75417 0.60475 0.0
H1797 H 0.85308 0.76012 0.58889 0.0
H1798 H 0.87219 0.80085 0.61766 0.0
H1799 H 0.90764 0.68564 0.6075 0.0
H1800 H 0.94426 0.64398 0.59903 0.0
H1801 H 0.03698 0.67778 0.61292 0.0
H1802 H 0.00096 0.72005 0.62139 0.0
H1803 H 0.8525 0.73678 0.66082 0.0
H1804 H 0.85224 0.74412 0.64502 0.0
H1805 H 0.96635 0.75063 0.64504 0.0
H1806 H 0.96685 0.7422 0.66082 0.0
H1807 H 0.94584 0.70981 0.63233 0.0
H1808 H 0.91185 0.82501 0.64244 0.0
H1809 H 0.87649 0.86819 0.65077 0.0
H1810 H 0.78282 0.83649 0.63697 0.0
H1811 H 0.81754 0.79274 0.62863 0.0
C1812 C 0.94123 0.77251 0.59276 0.0
C1813 C 0.90973 0.76921 0.58794 0.0
C1814 C 0.94089 0.76914 0.60181 0.0
C1815 C 0.90908 0.76228 0.60623 0.0
C1816 C 0.87751 0.75945 0.60146 0.0
C1817 C 0.87783 0.7627 0.5924 0.0
C1818 C 0.90883 0.7578 0.61583 0.0
C1819 C 0.88792 0.78066 0.62088 0.0
C1820 C 0.93004 0.73202 0.62002 0.0
C1821 C 0.95165 0.70623 0.61503 0.0
C1822 C 0.93587 0.68435 0.60871 0.0
C1823 C 0.95652 0.66061 0.60391 0.0
C1824 C 0.99294 0.6583 0.60542 0.0
C1825 C 0.00877 0.67964 0.61175 0.0
C1826 C 0.98825 0.70346 0.61656 0.0
C1827 C 0.87754 0.73993 0.65747 0.0
C1828 C 0.9097 0.73895 0.66207 0.0
C1829 C 0.87735 0.74428 0.64843 0.0
C1830 C 0.90926 0.7484 0.64383 0.0
C1831 C 0.94139 0.74749 0.64843 0.0
C1832 C 0.94163 0.74275 0.65746 0.0
C1833 C 0.90925 0.75297 0.63421 0.0
C1834 C 0.9301 0.73007 0.62914 0.0
C1835 C 0.88816 0.7789 0.63001 0.0
C1836 C 0.86725 0.80536 0.63497 0.0
C1837 C 0.88367 0.82707 0.64122 0.0
C1838 C 0.86374 0.85167 0.64594 0.0
C1839 C 0.82741 0.85502 0.64442 0.0
C1840 C 0.81095 0.83384 0.63815 0.0
C1841 C 0.83075 0.80915 0.63342 0.0
H1842 H 0.81203 0.87408 0.64808 0.0
H1843 H 0.00888 0.63992 0.60169 0.0
H1844 H 0.246 0.35889 0.8393 0.0
H1845 H 0.25041 0.35857 0.85519 0.0
H1846 H 0.24279 0.47255 0.85552 0.0
H1847 H 0.23845 0.47319 0.83964 0.0
H1848 H 0.29536 0.44712 0.8664 0.0
H1849 H 0.17214 0.42448 0.86057 0.0
H1850 H 0.12199 0.39296 0.85382 0.0
H1851 H 0.15397 0.29642 0.86634 0.0
H1852 H 0.20465 0.32727 0.87307 0.0
H1853 H 0.25982 0.47404 0.91098 0.0
H1854 H 0.25541 0.47277 0.89513 0.0
H1855 H 0.2537 0.35852 0.89563 0.0
H1856 H 0.25737 0.35955 0.91153 0.0
H1857 H 0.20667 0.38282 0.88425 0.0
H1858 H 0.32916 0.40424 0.89019 0.0
H1859 H 0.38026 0.43449 0.89687 0.0
H1860 H 0.35135 0.53139 0.88407 0.0
H1861 H 0.29975 0.50184 0.87741 0.0
C1862 C 0.24539 0.38392 0.84275 0.0
C1863 C 0.2417 0.41607 0.83821 0.0
C1864 C 0.24777 0.38366 0.85183 0.0
C1865 C 0.24657 0.41551 0.85653 0.0
C1866 C 0.24369 0.44768 0.85201 0.0
C1867 C 0.24108 0.44797 0.84294 0.0
C1868 C 0.24807 0.41531 0.86617 0.0
C1869 C 0.27575 0.43344 0.87032 0.0
C1870 C 0.22298 0.39664 0.87125 0.0
C1871 C 0.19239 0.3781 0.86725 0.0
C1872 C 0.16864 0.39646 0.86183 0.0
C1873 C 0.14009 0.37873 0.85801 0.0
C1874 C 0.13485 0.34269 0.85963 0.0
C1875 C 0.15809 0.32433 0.86508 0.0
C1876 C 0.18672 0.34193 0.86891 0.0
C1877 C 0.25846 0.44861 0.90773 0.0
C1878 C 0.25922 0.41688 0.91251 0.0
C1879 C 0.25606 0.44794 0.89866 0.0
C1880 C 0.25485 0.41554 0.89418 0.0
C1881 C 0.25474 0.38382 0.89895 0.0
C1882 C 0.2569 0.38446 0.90804 0.0
C1883 C 0.25392 0.4148 0.88451 0.0
C1884 C 0.22636 0.39647 0.88035 0.0
C1885 C 0.27927 0.43309 0.87941 0.0
C1886 C 0.3104 0.4509 0.88337 0.0
C1887 C 0.33355 0.43207 0.88885 0.0
C1888 C 0.36262 0.44908 0.89263 0.0
C1889 C 0.369 0.48486 0.89091 0.0
C1890 C 0.34635 0.50369 0.8854 0.0
C1891 C 0.31721 0.48681 0.88162 0.0
H1892 H 0.39152 0.49798 0.89384 0.0
H1893 H 0.11273 0.32901 0.85667 0.0
H1894 H 0.64007 0.74417 0.08988 0.0
H1895 H 0.64043 0.74893 0.10575 0.0
H1896 H 0.52616 0.74675 0.10598 0.0
H1897 H 0.52562 0.74102 0.09014 0.0
H1898 H 0.6163 0.79603 0.11689 0.0
H1899 H 0.49625 0.70488 0.12397 0.0
H1900 H 0.46579 0.65359 0.1174 0.0
H1901 H 0.56217 0.62251 0.10469 0.0
H1902 H 0.59332 0.67329 0.11127 0.0
H1903 H 0.52987 0.76618 0.16206 0.0
H1904 H 0.52835 0.76215 0.14616 0.0
H1905 H 0.64196 0.75062 0.14562 0.0
H1906 H 0.64379 0.75455 0.1615 0.0
H1907 H 0.55162 0.70839 0.13498 0.0
H1908 H 0.67227 0.79757 0.12784 0.0
H1909 H 0.70423 0.84774 0.13449 0.0
H1910 H 0.60902 0.88072 0.14745 0.0
H1911 H 0.57639 0.83109 0.14078 0.0
C1912 C 0.61501 0.74478 0.09331 0.0
C1913 C 0.58282 0.74188 0.08876 0.0
C1914 C 0.61526 0.74756 0.10238 0.0
C1915 C 0.58336 0.74762 0.10708 0.0
C1916 C 0.55115 0.74593 0.10252 0.0
C1917 C 0.55088 0.7428 0.09346 0.0
C1918 C 0.5838 0.74911 0.11675 0.0
C1919 C 0.60252 0.77658 0.12084 0.0
C1920 C 0.56531 0.72412 0.12192 0.0
C1921 C 0.54699 0.69312 0.11804 0.0
C1922 C 0.51097 0.68701 0.1198 0.0
C1923 C 0.49358 0.65804 0.11607 0.0
C1924 C 0.512 0.63488 0.11061 0.0
C1925 C 0.5479 0.64054 0.10889 0.0
C1926 C 0.56542 0.66943 0.11262 0.0
C1927 C 0.55454 0.76273 0.15856 0.0
C1928 C 0.58698 0.76084 0.16304 0.0
C1929 C 0.55359 0.76031 0.14948 0.0
C1930 C 0.58506 0.75642 0.14472 0.0
C1931 C 0.61742 0.754 0.14918 0.0
C1932 C 0.61838 0.75612 0.15825 0.0
C1933 C 0.58413 0.75521 0.13508 0.0
C1934 C 0.56534 0.7278 0.13101 0.0
C1935 C 0.6028 0.78006 0.12994 0.0
C1936 C 0.62201 0.81037 0.13387 0.0
C1937 C 0.65813 0.81562 0.13208 0.0
C1938 C 0.67636 0.84395 0.13586 0.0
C1939 C 0.65869 0.86732 0.14141 0.0
C1940 C 0.62271 0.86251 0.14317 0.0
C1941 C 0.60435 0.83425 0.1394 0.0
H1942 H 0.67286 0.88921 0.14434 0.0
H1943 H 0.49848 0.61251 0.10772 0.0
H1944 H 0.80549 0.55112 0.84153 0.0
H1945 H 0.79841 0.5519 0.8573 0.0
H1946 H 0.71187 0.626 0.85476 0.0
H1947 H 0.72054 0.62696 0.83894 0.0
H1948 H 0.74639 0.64353 0.8681 0.0
H1949 H 0.69982 0.53385 0.85861 0.0
H1950 H 0.69886 0.47717 0.85064 0.0
H1951 H 0.78684 0.43975 0.86577 0.0
H1952 H 0.78878 0.49647 0.87372 0.0
H1953 H 0.69969 0.54138 0.91142 0.0
H1954 H 0.70121 0.54408 0.89554 0.0
H1955 H 0.78402 0.62282 0.89685 0.0
H1956 H 0.78081 0.62179 0.91274 0.0
H1957 H 0.74392 0.52901 0.88393 0.0
H1958 H 0.78394 0.67743 0.87986 0.0
H1959 H 0.77483 0.73425 0.88747 0.0
H1960 H 0.67966 0.6939 0.89911 0.0
H1961 H 0.68789 0.63705 0.89147 0.0
C1962 C 0.78499 0.56762 0.84434 0.0
C1963 C 0.76335 0.58875 0.83903 0.0
C1964 C 0.78081 0.56791 0.85336 0.0
C1965 C 0.75397 0.58828 0.85725 0.0
C1966 C 0.73268 0.60993 0.85194 0.0
C1967 C 0.73755 0.6104 0.8429 0.0
C1968 C 0.74819 0.58671 0.86683 0.0
C1969 C 0.74572 0.61848 0.87155 0.0
C1970 C 0.7461 0.55405 0.87136 0.0
C1971 C 0.7446 0.51955 0.86672 0.0
C1972 C 0.71908 0.5136 0.86021 0.0
C1973 C 0.71837 0.48147 0.85569 0.0
C1974 C 0.74281 0.4549 0.85769 0.0
C1975 C 0.76794 0.46037 0.86423 0.0
C1976 C 0.76885 0.4925 0.86875 0.0
C1977 C 0.71819 0.55928 0.9083 0.0
C1978 C 0.73998 0.58154 0.91329 0.0
C1979 C 0.71909 0.56079 0.89922 0.0
C1980 C 0.74229 0.58411 0.89493 0.0
C1981 C 0.76506 0.6054 0.89995 0.0
C1982 C 0.76346 0.6046 0.90904 0.0
C1983 C 0.74284 0.58587 0.88523 0.0
C1984 C 0.74433 0.55409 0.88049 0.0
C1985 C 0.74225 0.61849 0.88066 0.0
C1986 C 0.73675 0.65285 0.88516 0.0
C1987 C 0.76097 0.68075 0.88401 0.0
C1988 C 0.75598 0.71295 0.88834 0.0
C1989 C 0.72675 0.71764 0.89379 0.0
C1990 C 0.70235 0.69019 0.89491 0.0
C1991 C 0.70718 0.65797 0.89058 0.0
H1992 H 0.72297 0.74257 0.89715 0.0
H1993 H 0.74225 0.43006 0.85417 0.0
H1994 H 0.46443 0.23011 0.16175 0.0
H1995 H 0.46433 0.23666 0.1459 0.0
H1996 H 0.35012 0.23692 0.14587 0.0
H1997 H 0.34991 0.23049 0.16173 0.0
H1998 H 0.37973 0.19268 0.13309 0.0
H1999 H 0.39125 0.31236 0.14344 0.0
H2000 H 0.41815 0.36029 0.1521 0.0
H2001 H 0.51713 0.3452 0.13885 0.0
H2002 H 0.49095 0.29677 0.13019 0.0
H2003 H 0.3514 0.25353 0.09 0.0
H2004 H 0.35155 0.24615 0.10579 0.0
H2005 H 0.46504 0.25949 0.10617 0.0
H2006 H 0.46501 0.2677 0.09039 0.0
H2007 H 0.43602 0.29642 0.11888 0.0
H2008 H 0.42597 0.17734 0.10853 0.0
H2009 H 0.40064 0.12831 0.09995 0.0
H2010 H 0.30126 0.14048 0.1132 0.0
H2011 H 0.32585 0.18996 0.12178 0.0
C2012 C 0.43927 0.23152 0.15837 0.0
C2013 C 0.40717 0.22983 0.16299 0.0
C2014 C 0.43928 0.23536 0.14932 0.0
C2015 C 0.40722 0.23744 0.14472 0.0
C2016 C 0.37513 0.23535 0.1493 0.0
C2017 C 0.37509 0.23185 0.15836 0.0
C2018 C 0.40718 0.24194 0.13514 0.0
C2019 C 0.39162 0.21556 0.12997 0.0
C2020 C 0.42353 0.27136 0.13109 0.0
C2021 C 0.43923 0.30069 0.13623 0.0
C2022 C 0.41883 0.31906 0.14242 0.0
C2023 C 0.43393 0.34636 0.14732 0.0
C2024 C 0.46935 0.35572 0.14604 0.0
C2025 C 0.48971 0.33788 0.13984 0.0
C2026 C 0.47475 0.31052 0.13493 0.0
C2027 C 0.37642 0.25477 0.09343 0.0
C2028 C 0.40821 0.26115 0.08893 0.0
C2029 C 0.37648 0.25042 0.10247 0.0
C2030 C 0.40836 0.25185 0.10717 0.0
C2031 C 0.44011 0.25829 0.10269 0.0
C2032 C 0.44006 0.26289 0.09366 0.0
C2033 C 0.40855 0.24711 0.11678 0.0
C2034 C 0.42415 0.27347 0.12197 0.0
C2035 C 0.39247 0.2175 0.12084 0.0
C2036 C 0.37766 0.18759 0.11574 0.0
C2037 C 0.39864 0.16974 0.10957 0.0
C2038 C 0.38443 0.14184 0.10472 0.0
C2039 C 0.34934 0.13135 0.10602 0.0
C2040 C 0.32842 0.14867 0.11219 0.0
C2041 C 0.34249 0.17663 0.11706 0.0
H2042 H 0.33838 0.10974 0.10225 0.0
H2043 H 0.481 0.37685 0.14985 0.0
H2044 H 0.71057 0.96621 0.34005 0.0
H2045 H 0.71534 0.9643 0.3559 0.0
H2046 H 0.76743 0.86285 0.35431 0.0
H2047 H 0.76265 0.8644 0.33841 0.0
H2048 H 0.68904 0.91521 0.36786 0.0
H2049 H 0.83196 0.86325 0.37048 0.0
H2050 H 0.88718 0.8629 0.36189 0.0
H2051 H 0.85658 0.96021 0.34952 0.0
H2052 H 0.80147 0.96139 0.35812 0.0
H2053 H 0.73188 0.86416 0.41165 0.0
H2054 H 0.72608 0.8635 0.39575 0.0
H2055 H 0.78279 0.96243 0.3942 0.0
H2056 H 0.78841 0.96355 0.41005 0.0
H2057 H 0.80671 0.91124 0.38223 0.0
H2058 H 0.69765 0.9647 0.39199 0.0
H2059 H 0.64252 0.96728 0.40057 0.0
H2060 H 0.60543 0.87237 0.38816 0.0
H2061 H 0.66063 0.86894 0.3796 0.0
C2062 C 0.72307 0.94346 0.34305 0.0
C2063 C 0.73634 0.91549 0.33796 0.0
C2064 C 0.72558 0.94235 0.35212 0.0
C2065 C 0.74181 0.91351 0.35627 0.0
C2066 C 0.75498 0.88545 0.35122 0.0
C2067 C 0.7522 0.88638 0.34214 0.0
C2068 C 0.74549 0.91321 0.36587 0.0
C2069 C 0.71475 0.91418 0.37101 0.0
C2070 C 0.77904 0.91219 0.36996 0.0
C2071 C 0.81243 0.91217 0.36488 0.0
C2072 C 0.8371 0.88463 0.36595 0.0
C2073 C 0.86837 0.88429 0.36108 0.0
C2074 C 0.87533 0.91145 0.35514 0.0
C2075 C 0.8511 0.93911 0.35409 0.0
C2076 C 0.81983 0.93961 0.35896 0.0
C2077 C 0.74307 0.88579 0.40792 0.0
C2078 C 0.76052 0.91396 0.41211 0.0
C2079 C 0.73971 0.88538 0.39885 0.0
C2080 C 0.754 0.91294 0.39382 0.0
C2081 C 0.77168 0.94087 0.39797 0.0
C2082 C 0.77468 0.94154 0.40703 0.0
C2083 C 0.75026 0.91297 0.38422 0.0
C2084 C 0.78099 0.91194 0.37909 0.0
C2085 C 0.71672 0.91419 0.38013 0.0
C2086 C 0.68342 0.91637 0.38522 0.0
C2087 C 0.67787 0.94422 0.39115 0.0
C2088 C 0.64659 0.94586 0.396 0.0
C2089 C 0.62053 0.91995 0.39493 0.0
C2090 C 0.62566 0.89239 0.38899 0.0
C2091 C 0.65693 0.8906 0.38413 0.0
H2092 H 0.59633 0.92127 0.39869 0.0
H2093 H 0.89952 0.9111 0.35136 0.0
H2094 H 0.14488 0.25571 0.66123 0.0
H2095 H 0.14419 0.25255 0.64533 0.0
H2096 H 0.03011 0.2582 0.64549 0.0
H2097 H 0.03049 0.26138 0.6614 0.0
H2098 H 0.05626 0.20652 0.63432 0.0
H2099 H 0.07591 0.32991 0.64053 0.0
H2100 H 0.10652 0.3804 0.64739 0.0
H2101 H 0.20304 0.35191 0.63438 0.0
H2102 H 0.17312 0.30089 0.62754 0.0
H2103 H 0.02692 0.24329 0.58982 0.0
H2104 H 0.02841 0.24693 0.60569 0.0
H2105 H 0.14254 0.25164 0.60505 0.0
H2106 H 0.14129 0.24857 0.58916 0.0
H2107 H 0.11716 0.29787 0.61655 0.0
H2108 H 0.10012 0.17469 0.61067 0.0
H2109 H 0.0723 0.1218 0.60424 0.0
H2110 H 0.97388 0.14768 0.61674 0.0
H2111 H 0.00117 0.20091 0.62322 0.0
C2112 C 0.11962 0.25612 0.65789 0.0
C2113 C 0.08773 0.25895 0.66258 0.0
C2114 C 0.1193 0.25448 0.64881 0.0
C2115 C 0.08712 0.25552 0.64424 0.0
C2116 C 0.05522 0.25747 0.6489 0.0
C2117 C 0.05551 0.25939 0.65798 0.0
C2118 C 0.0867 0.25469 0.6346 0.0
C2119 C 0.06914 0.22674 0.63042 0.0
C2120 C 0.1044 0.28055 0.62954 0.0
C2121 C 0.12236 0.31138 0.63359 0.0
C2122 C 0.10374 0.33424 0.63919 0.0
C2123 C 0.12095 0.36298 0.64306 0.0
C2124 C 0.15673 0.3693 0.64134 0.0
C2125 C 0.17534 0.34695 0.63571 0.0
C2126 C 0.15826 0.31813 0.63183 0.0
C2127 C 0.05236 0.24518 0.59305 0.0
C2128 C 0.084 0.24542 0.58822 0.0
C2129 C 0.05317 0.24711 0.60213 0.0
C2130 C 0.08562 0.249 0.60658 0.0
C2131 C 0.11721 0.25009 0.60177 0.0
C2132 C 0.11643 0.24827 0.59268 0.0
C2133 C 0.08655 0.24971 0.61624 0.0
C2134 C 0.10423 0.27763 0.62043 0.0
C2135 C 0.06923 0.22364 0.62132 0.0
C2136 C 0.05258 0.19196 0.61735 0.0
C2137 C 0.07245 0.16927 0.61198 0.0
C2138 C 0.05679 0.13918 0.60834 0.0
C2139 C 0.02127 0.13144 0.61005 0.0
C2140 C 0.00137 0.15374 0.61541 0.0
C2141 C 0.01694 0.18384 0.61908 0.0
H2142 H 0.00916 0.10809 0.60725 0.0
H2143 H 0.17001 0.39157 0.64434 0.0
H2144 H 0.28985 0.16062 0.28802 0.0
H2145 H 0.30491 0.18364 0.27365 0.0
H2146 H 0.28849 0.08014 0.26248 0.0
H2147 H 0.27374 0.05663 0.27685 0.0
H2148 H 0.34771 0.10958 0.2562 0.0
H2149 H 0.22716 0.14442 0.25977 0.0
H2150 H 0.17608 0.1712 0.2673 0.0
H2151 H 0.22704 0.27283 0.26666 0.0
H2152 H 0.27869 0.24655 0.25925 0.0
H2153 H 0.31608 0.20654 0.213 0.0
H2154 H 0.29238 0.18499 0.22685 0.0
H2155 H 0.3922 0.20719 0.23932 0.0
H2156 H 0.41608 0.22912 0.2256 0.0
H2157 H 0.28605 0.21459 0.24397 0.0
H2158 H 0.41178 0.13132 0.25125 0.0
H2159 H 0.46026 0.10302 0.24302 0.0
H2160 H 0.39267 0.0934 0.22067 0.0
H2161 H 0.34351 0.12053 0.22884 0.0
C2162 C 0.28932 0.14267 0.28252 0.0
C2163 C 0.28037 0.10674 0.28362 0.0
C2164 C 0.29785 0.15595 0.27429 0.0
C2165 C 0.29745 0.13371 0.26697 0.0
C2166 C 0.28891 0.0978 0.26804 0.0
C2167 C 0.28035 0.08445 0.27627 0.0
C2168 C 0.30624 0.14797 0.25822 0.0
C2169 C 0.33416 0.13248 0.25353 0.0
C2170 C 0.28811 0.17743 0.25464 0.0
C2171 C 0.25693 0.19344 0.25901 0.0
C2172 C 0.22758 0.17243 0.26129 0.0
C2173 C 0.19851 0.18753 0.26553 0.0
C2174 C 0.19835 0.22368 0.26747 0.0
C2175 C 0.22722 0.24483 0.26516 0.0
C2176 C 0.25639 0.22985 0.26093 0.0
C2177 C 0.33285 0.20743 0.21871 0.0
C2178 C 0.36813 0.21931 0.21815 0.0
C2179 C 0.31919 0.19518 0.22662 0.0
C2180 C 0.3407 0.19416 0.23406 0.0
C2181 C 0.3753 0.20752 0.23362 0.0
C2182 C 0.38886 0.2201 0.22576 0.0
C2183 C 0.32807 0.17683 0.24213 0.0
C2184 C 0.29947 0.19166 0.24666 0.0
C2185 C 0.34507 0.14631 0.24548 0.0
C2186 C 0.37405 0.12836 0.24064 0.0
C2187 C 0.40716 0.12285 0.24461 0.0
C2188 C 0.43475 0.10697 0.23995 0.0
C2189 C 0.42955 0.09643 0.23132 0.0
C2190 C 0.39666 0.10151 0.22735 0.0
C2191 C 0.36892 0.11712 0.232 0.0
H2192 H 0.45098 0.08429 0.22772 0.0
H2193 H 0.17582 0.23532 0.27076 0.0
H2194 H 0.82231 0.84631 0.46199 0.0
H2195 H 0.8386 0.82138 0.47605 0.0
H2196 H 0.75631 0.88292 0.48841 0.0
H2197 H 0.74175 0.90991 0.47435 0.0
H2198 H 0.80798 0.8847 0.49834 0.0
H2199 H 0.75165 0.78806 0.48434 0.0
H2200 H 0.73866 0.74523 0.47266 0.0
H2201 H 0.84428 0.70376 0.47454 0.0
H2202 H 0.8581 0.74671 0.48615 0.0
H2203 H 0.8237 0.78933 0.53777 0.0
H2204 H 0.79863 0.80503 0.52366 0.0
H2205 H 0.89697 0.77748 0.51112 0.0
H2206 H 0.92255 0.76161 0.52523 0.0
H2207 H 0.83242 0.7563 0.50183 0.0
H2208 H 0.88454 0.85862 0.51654 0.0
H2209 H 0.88879 0.89597 0.52965 0.0
H2210 H 0.7789 0.92356 0.52725 0.0
H2211 H 0.77366 0.88524 0.5143 0.0
C2212 C 0.80758 0.85436 0.4677 0.0
C2213 C 0.78063 0.87985 0.46708 0.0
C2214 C 0.81672 0.83987 0.47575 0.0
C2215 C 0.79816 0.84945 0.48333 0.0
C2216 C 0.77106 0.87493 0.48269 0.0
C2217 C 0.76264 0.89027 0.47466 0.0
C2218 C 0.80793 0.83379 0.49192 0.0
C2219 C 0.8127 0.85653 0.49908 0.0
C2220 C 0.81425 0.79696 0.49301 0.0
C2221 C 0.806 0.77083 0.48607 0.0
C2222 C 0.77219 0.76996 0.48223 0.0
C2223 C 0.76467 0.74565 0.47562 0.0
C2224 C 0.79065 0.72184 0.47285 0.0
C2225 C 0.82419 0.72224 0.47669 0.0
C2226 C 0.83187 0.74654 0.48329 0.0
C2227 C 0.83999 0.78611 0.53202 0.0
C2228 C 0.87539 0.77458 0.53267 0.0
C2229 C 0.8255 0.79504 0.52395 0.0
C2230 C 0.84606 0.7927 0.51638 0.0
C2231 C 0.8807 0.77943 0.51691 0.0
C2232 C 0.89531 0.77057 0.52499 0.0
C2233 C 0.83266 0.80729 0.50805 0.0
C2234 C 0.82735 0.78438 0.501 0.0
C2235 C 0.82472 0.84371 0.50713 0.0
C2236 C 0.82863 0.86881 0.5145 0.0
C2237 C 0.86126 0.87259 0.51882 0.0
C2238 C 0.86382 0.89385 0.52624 0.0
C2239 C 0.83412 0.9121 0.52929 0.0
C2240 C 0.80186 0.90934 0.52489 0.0
C2241 C 0.79906 0.88779 0.51752 0.0
H2242 H 0.8361 0.92842 0.53506 0.0
H2243 H 0.78478 0.70305 0.46773 0.0
H2244 H 0.09863 0.23877 0.72507 0.0
H2245 H 0.12399 0.2559 0.73907 0.0
H2246 H 0.19396 0.32915 0.72606 0.0
H2247 H 0.16981 0.31097 0.712 0.0
H2248 H 0.2276 0.30087 0.73909 0.0
H2249 H 0.1143 0.35595 0.73565 0.0
H2250 H 0.05011 0.35817 0.73277 0.0
H2251 H 0.03076 0.29181 0.75497 0.0
H2252 H 0.09494 0.28883 0.75792 0.0
H2253 H 0.25232 0.4187 0.77537 0.0
H2254 H 0.23636 0.39238 0.76135 0.0
H2255 H 0.18338 0.30681 0.7746 0.0
H2256 H 0.19944 0.33255 0.78864 0.0
H2257 H 0.14219 0.3405 0.76163 0.0
H2258 H 0.25841 0.28974 0.76517 0.0
H2259 H 0.32279 0.29199 0.76781 0.0
H2260 H 0.33653 0.35652 0.74504 0.0
H2261 H 0.27213 0.35509 0.74234 0.0
C2262 C 0.11969 0.25824 0.72518 0.0
C2263 C 0.13192 0.27381 0.71743 0.0
C2264 C 0.13408 0.26814 0.73319 0.0
C2265 C 0.16028 0.29451 0.73365 0.0
C2266 C 0.17366 0.3089 0.72589 0.0
C2267 C 0.15974 0.29852 0.71785 0.0
C2268 C 0.17242 0.3083 0.74221 0.0
C2269 C 0.20891 0.30985 0.74398 0.0
C2270 C 0.1481 0.31982 0.74864 0.0
C2271 C 0.10945 0.3219 0.74696 0.0
C2272 C 0.09637 0.34166 0.73989 0.0
C2273 C 0.05998 0.34307 0.73825 0.0
C2274 C 0.03637 0.32506 0.74367 0.0
C2275 C 0.04909 0.3057 0.75077 0.0
C2276 C 0.08547 0.30417 0.75243 0.0
C2277 C 0.23754 0.39411 0.77531 0.0
C2278 C 0.2271 0.37782 0.78315 0.0
C2279 C 0.22855 0.37907 0.76729 0.0
C2280 C 0.20877 0.34764 0.76696 0.0
C2281 C 0.19866 0.33109 0.77474 0.0
C2282 C 0.20797 0.34585 0.78276 0.0
C2283 C 0.19721 0.33283 0.75849 0.0
C2284 C 0.1608 0.3313 0.75674 0.0
C2285 C 0.22162 0.322 0.75204 0.0
C2286 C 0.26039 0.32258 0.7536 0.0
C2287 C 0.27512 0.30465 0.76077 0.0
C2288 C 0.31162 0.30573 0.76227 0.0
C2289 C 0.33373 0.32446 0.75661 0.0
C2290 C 0.31937 0.34205 0.74942 0.0
C2291 C 0.28287 0.34109 0.7479 0.0
H2292 H 0.36198 0.32529 0.75778 0.0
H2293 H 0.0082 0.32617 0.74239 0.0
H2294 H 0.75272 0.58538 0.97572 0.0
H2295 H 0.73591 0.6106 0.98975 0.0
H2296 H 0.67257 0.68951 0.97666 0.0
H2297 H 0.69077 0.66542 0.96258 0.0
H2298 H 0.70218 0.71837 0.99017 0.0
H2299 H 0.63655 0.61172 0.98543 0.0
H2300 H 0.62929 0.5484 0.98191 0.0
H2301 H 0.68947 0.52003 0.00458 0.0
H2302 H 0.69766 0.58323 0.00815 0.0
H2303 H 0.58387 0.75154 0.02591 0.0
H2304 H 0.60944 0.73386 0.01194 0.0
H2305 H 0.6885 0.67198 0.02531 0.0
H2306 H 0.66353 0.68983 0.03932 0.0
H2307 H 0.65123 0.6352 0.01183 0.0
H2308 H 0.71412 0.7447 0.01648 0.0
H2309 H 0.71871 0.80861 0.01958 0.0
H2310 H 0.65799 0.83201 0.99666 0.0
H2311 H 0.65258 0.76817 0.99349 0.0
C2312 C 0.73544 0.60829 0.97583 0.0
C2313 C 0.72269 0.62314 0.96804 0.0
C2314 C 0.72572 0.62262 0.98386 0.0
C2315 C 0.70218 0.6514 0.98429 0.0
C2316 C 0.69059 0.66718 0.97651 0.0
C2317 C 0.70093 0.65332 0.96846 0.0
C2318 C 0.68852 0.66398 0.99282 0.0
C2319 C 0.69069 0.70021 0.99485 0.0
C2320 C 0.67374 0.6403 0.999 0.0
C2321 C 0.66799 0.60223 0.99701 0.0
C2322 C 0.64837 0.59198 0.98965 0.0
C2323 C 0.6441 0.55611 0.98764 0.0
C2324 C 0.65898 0.53021 0.99301 0.0
C2325 C 0.67801 0.54013 1.00042 0.0
C2326 C 0.68246 0.57597 0.00244 0.0
C2327 C 0.6069 0.73443 0.0259 0.0
C2328 C 0.6216 0.72208 0.03375 0.0
C2329 C 0.6215 0.72442 0.0179 0.0
C2330 C 0.65084 0.70165 0.01761 0.0
C2331 C 0.66582 0.68956 0.02542 0.0
C2332 C 0.65157 0.69993 0.03341 0.0
C2333 C 0.66512 0.6894 0.00915 0.0
C2334 C 0.66285 0.65325 0.00713 0.0
C2335 C 0.67916 0.71322 0.00294 0.0
C2336 C 0.68266 0.75163 0.00479 0.0
C2337 C 0.70149 0.76345 0.01214 0.0
C2338 C 0.70429 0.79967 0.0139 0.0
C2339 C 0.68857 0.82435 0.00833 0.0
C2340 C 0.67012 0.81286 0.00097 0.0
C2341 C 0.66721 0.77666 0.99919 0.0
H2342 H 0.69076 0.85238 0.00971 0.0
H2343 H 0.65571 0.50246 0.99143 0.0
H2344 H 0.40562 0.24729 0.02633 0.0
H2345 H 0.38212 0.26521 0.0122 0.0
H2346 H 0.30529 0.33202 0.02496 0.0
H2347 H 0.32774 0.31307 0.03914 0.0
H2348 H 0.27613 0.30317 0.01126 0.0
H2349 H 0.38482 0.36464 0.01665 0.0
H2350 H 0.44816 0.37051 0.02028 0.0
H2351 H 0.4759 0.3103 0.99758 0.0
H2352 H 0.41266 0.30351 0.99389 0.0
H2353 H 0.24944 0.42196 0.97523 0.0
H2354 H 0.2655 0.39659 0.98936 0.0
H2355 H 0.32648 0.31553 0.97648 0.0
H2356 H 0.31025 0.34025 0.96233 0.0
H2357 H 0.36286 0.35163 0.99012 0.0
H2358 H 0.25217 0.2922 0.9848 0.0
H2359 H 0.18851 0.28929 0.98132 0.0
H2360 H 0.16443 0.35043 0.00413 0.0
H2361 H 0.22805 0.35419 0.00768 0.0
C2362 C 0.38346 0.2655 0.02614 0.0
C2363 C 0.36883 0.27907 0.03387 0.0
C2364 C 0.37014 0.27587 0.01805 0.0
C2365 C 0.34252 0.3007 0.0175 0.0
C2366 C 0.32676 0.313 0.02521 0.0
C2367 C 0.33968 0.30218 0.03332 0.0
C2368 C 0.33117 0.31496 0.00891 0.0
C2369 C 0.29508 0.31412 0.00669 0.0
C2370 C 0.35588 0.32898 0.00288 0.0
C2371 C 0.39397 0.33329 0.00504 0.0
C2372 C 0.40441 0.35244 0.01247 0.0
C2373 C 0.4403 0.35595 0.01453 0.0
C2374 C 0.46603 0.34074 0.00917 0.0
C2375 C 0.45593 0.32203 0.00173 0.0
C2376 C 0.42007 0.31835 0.99965 0.0
C2377 C 0.2661 0.39862 0.97539 0.0
C2378 C 0.27856 0.38318 0.96764 0.0
C2379 C 0.27516 0.38412 0.98347 0.0
C2380 C 0.29709 0.35416 0.98395 0.0
C2381 C 0.30951 0.33865 0.97624 0.0
C2382 C 0.30008 0.35279 0.96816 0.0
C2383 C 0.30801 0.33959 0.99249 0.0
C2384 C 0.34401 0.34056 0.99471 0.0
C2385 C 0.2832 0.32621 0.99855 0.0
C2386 C 0.24492 0.32379 0.99645 0.0
C2387 C 0.23334 0.3053 0.98903 0.0
C2388 C 0.19725 0.30344 0.98705 0.0
C2389 C 0.17244 0.31974 0.99248 0.0
C2390 C 0.18368 0.33786 0.99992 0.0
C2391 C 0.21975 0.33984 0.00192 0.0
H2392 H 0.14451 0.31827 0.99094 0.0
H2393 H 0.49381 0.34353 0.01077 0.0
H2394 H 0.7204 0.83139 0.28714 0.0
H2395 H 0.70701 0.80651 0.27286 0.0
H2396 H 0.71226 0.91081 0.26148 0.0
H2397 H 0.72548 0.93611 0.27575 0.0
H2398 H 0.65389 0.87542 0.25617 0.0
H2399 H 0.77832 0.85294 0.25811 0.0
H2400 H 0.83318 0.83092 0.26494 0.0
H2401 H 0.79217 0.72486 0.26454 0.0
H2402 H 0.73682 0.74632 0.25783 0.0
H2403 H 0.68444 0.78786 0.21207 0.0
H2404 H 0.70993 0.80868 0.2258 0.0
H2405 H 0.61641 0.77435 0.2395 0.0
H2406 H 0.59068 0.75345 0.2259 0.0
H2407 H 0.72346 0.77806 0.24274 0.0
H2408 H 0.59113 0.84381 0.25195 0.0
H2409 H 0.53745 0.86577 0.24453 0.0
H2410 H 0.59863 0.88946 0.22171 0.0
H2411 H 0.6527 0.86814 0.22903 0.0
C2412 C 0.71895 0.8491 0.28161 0.0
C2413 C 0.72411 0.88581 0.28262 0.0
C2414 C 0.7114 0.83477 0.27343 0.0
C2415 C 0.70889 0.85678 0.2661 0.0
C2416 C 0.71411 0.89336 0.26706 0.0
C2417 C 0.7218 0.90773 0.27523 0.0
C2418 C 0.6997 0.84173 0.25747 0.0
C2419 C 0.66921 0.85424 0.25324 0.0
C2420 C 0.7199 0.81435 0.25357 0.0
C2421 C 0.75329 0.8013 0.25753 0.0
C2422 C 0.78089 0.82495 0.25954 0.0
C2423 C 0.81209 0.81257 0.26338 0.0
C2424 C 0.81613 0.77653 0.26519 0.0
C2425 C 0.789 0.75278 0.26314 0.0
C2426 C 0.75771 0.76503 0.25931 0.0
C2427 C 0.66954 0.7841 0.21802 0.0
C2428 C 0.63526 0.76939 0.21784 0.0
C2429 C 0.68424 0.7959 0.22586 0.0
C2430 C 0.66483 0.79341 0.23362 0.0
C2431 C 0.63165 0.77675 0.23355 0.0
C2432 C 0.617 0.76483 0.22575 0.0
C2433 C 0.67737 0.81129 0.24161 0.0
C2434 C 0.70835 0.79934 0.2457 0.0
C2435 C 0.65796 0.83956 0.24533 0.0
C2436 C 0.6259 0.85414 0.24103 0.0
C2437 C 0.59316 0.85399 0.24538 0.0
C2438 C 0.56266 0.86626 0.24118 0.0
C2439 C 0.56461 0.87892 0.23265 0.0
C2440 C 0.59712 0.87956 0.22831 0.0
C2441 C 0.62769 0.86738 0.23248 0.0
H2442 H 0.54095 0.88825 0.2294 0.0
H2443 H 0.8403 0.76699 0.26816 0.0
H2444 H 0.18585 0.15355 0.46275 0.0
H2445 H 0.16714 0.17728 0.47675 0.0
H2446 H 0.23102 0.0992 0.48998 0.0
H2447 H 0.24861 0.0742 0.47594 0.0
H2448 H 0.17153 0.10379 0.49786 0.0
H2449 H 0.25509 0.18982 0.48819 0.0
H2450 H 0.28245 0.23223 0.478 0.0
H2451 H 0.18741 0.2947 0.47805 0.0
H2452 H 0.15926 0.25235 0.48814 0.0
H2453 H 0.16312 0.1903 0.53903 0.0
H2454 H 0.18685 0.16981 0.52512 0.0
H2455 H 0.10347 0.22478 0.51152 0.0
H2456 H 0.07905 0.24507 0.52542 0.0
H2457 H 0.17505 0.23263 0.50422 0.0
H2458 H 0.09229 0.14285 0.51389 0.0
H2459 H 0.06825 0.10057 0.5246 0.0
H2460 H 0.16769 0.0454 0.52515 0.0
H2461 H 0.19251 0.08774 0.51454 0.0
C2462 C 0.19609 0.14147 0.46863 0.0
C2463 C 0.21884 0.11201 0.46821 0.0
C2464 C 0.1855 0.15524 0.47665 0.0
C2465 C 0.19815 0.14052 0.48446 0.0
C2466 C 0.22092 0.11111 0.48406 0.0
C2467 C 0.23104 0.09689 0.47603 0.0
C2468 C 0.18678 0.15519 0.49301 0.0
C2469 C 0.1729 0.13191 0.49928 0.0
C2470 C 0.18801 0.19199 0.49487 0.0
C2471 C 0.20496 0.21772 0.48886 0.0
C2472 C 0.23994 0.21247 0.48598 0.0
C2473 C 0.25559 0.23651 0.48023 0.0
C2474 C 0.23665 0.26609 0.47737 0.0
C2475 C 0.20204 0.27175 0.48027 0.0
C2476 C 0.18623 0.24775 0.48601 0.0
C2477 C 0.14988 0.19829 0.53309 0.0
C2478 C 0.119 0.21918 0.53336 0.0
C2479 C 0.1635 0.1865 0.52515 0.0
C2480 C 0.14679 0.19566 0.51732 0.0
C2481 C 0.11672 0.21747 0.51751 0.0
C2482 C 0.10274 0.22889 0.52546 0.0
C2483 C 0.15986 0.18122 0.50895 0.0
C2484 C 0.17398 0.20454 0.50276 0.0
C2485 C 0.15943 0.14445 0.50721 0.0
C2486 C 0.14436 0.11867 0.51349 0.0
C2487 C 0.10912 0.12187 0.51635 0.0
C2488 C 0.09534 0.09787 0.52239 0.0
C2489 C 0.11646 0.07037 0.52557 0.0
C2490 C 0.15137 0.06675 0.52269 0.0
C2491 C 0.1653 0.09072 0.51665 0.0
H2492 H 0.10575 0.05182 0.53025 0.0
H2493 H 0.24881 0.28467 0.47291 0.0
H2494 H 0.9016 0.75442 0.72454 0.0
H2495 H 0.87823 0.73612 0.73865 0.0
H2496 H 0.8127 0.65781 0.72603 0.0
H2497 H 0.83487 0.67706 0.71184 0.0
H2498 H 0.77769 0.68469 0.73903 0.0
H2499 H 0.89382 0.6364 0.7357 0.0
H2500 H 0.9579 0.63779 0.73265 0.0
H2501 H 0.97415 0.70733 0.7544 0.0
H2502 H 0.91003 0.7067 0.75752 0.0
H2503 H 0.76055 0.5717 0.77656 0.0
H2504 H 0.77602 0.59553 0.76223 0.0
H2505 H 0.82158 0.6878 0.77438 0.0
H2506 H 0.80579 0.66461 0.78872 0.0
H2507 H 0.86589 0.65328 0.7617 0.0
H2508 H 0.7469 0.69806 0.76496 0.0
H2509 H 0.68283 0.69249 0.76772 0.0
H2510 H 0.67252 0.62318 0.74571 0.0
H2511 H 0.73668 0.6279 0.74289 0.0
C2512 C 0.88196 0.73352 0.72475 0.0
C2513 C 0.87038 0.71695 0.71707 0.0
C2514 C 0.86872 0.72295 0.73284 0.0
C2515 C 0.84435 0.69493 0.73344 0.0
C2516 C 0.83162 0.67935 0.72575 0.0
C2517 C 0.84438 0.69036 0.71764 0.0
C2518 C 0.8333 0.68102 0.74209 0.0
C2519 C 0.79703 0.67746 0.74394 0.0
C2520 C 0.85844 0.67174 0.74856 0.0
C2521 C 0.89709 0.67176 0.74679 0.0
C2522 C 0.91104 0.65214 0.7398 0.0
C2523 C 0.94736 0.65279 0.73806 0.0
C2524 C 0.97008 0.67273 0.74331 0.0
C2525 C 0.95651 0.69194 0.75033 0.0
C2526 C 0.92018 0.69142 0.7521 0.0
C2527 C 0.77368 0.59716 0.77619 0.0
C2528 C 0.78194 0.61621 0.78381 0.0
C2529 C 0.78241 0.61076 0.768 0.0
C2530 C 0.79987 0.64343 0.76727 0.0
C2531 C 0.80811 0.66253 0.77483 0.0
C2532 C 0.79894 0.64924 0.78301 0.0
C2533 C 0.81045 0.65728 0.75862 0.0
C2534 C 0.84665 0.66065 0.75678 0.0
C2535 C 0.78528 0.66568 0.75212 0.0
C2536 C 0.74666 0.66305 0.75377 0.0
C2537 C 0.73103 0.68138 0.76075 0.0
C2538 C 0.69468 0.67843 0.76232 0.0
C2539 C 0.67363 0.65742 0.75691 0.0
C2540 C 0.68887 0.6394 0.7499 0.0
C2541 C 0.72522 0.64223 0.74831 0.0
H2542 H 0.64549 0.65516 0.75814 0.0
H2543 H 0.9982 0.67323 0.74195 0.0
loop_
_geom_bond_atom_site_label_1
_geom_bond_atom_site_label_2
_geom_bond_distance
_geom_bond_site_symmetry_2
_ccdc_geom_bond_type
Co0 O2 2.143 . S
Co0 O8 2.074 . S
Co0 O11 2.093 . S
Co0 O24 2.097 . S
Co0 N41 2.151 . S
Co0 N49 2.214 . S
Co1 O2 2.160 . S
Co1 O7 2.058 . S
Co1 O17 2.057 . S
Co1 O32 2.037 . S
Co1 N36 2.145 . S
Co1 N57 2.257 . S
O2 Co0 2.143 . S
O2 Co1 2.160 . S
C3 O4 1.278 . S
C3 O11 1.224 . S
O4 C3 1.278 . S
C5 O6 1.245 . S
C5 O17 1.232 . S
O6 C5 1.245 . S
O7 Co1 2.058 . S
O7 C33 1.269 . S
O8 Co0 2.074 . S
O8 C33 1.257 . S
H9 C34 0.929 1_565 S
H10 C40 0.930 . S
O11 Co0 2.093 . S
O11 C3 1.224 . S
H12 C44 0.929 . S
H13 C46 0.930 . S
H14 C47 0.930 . S
H15 C45 0.929 . S
H16 C48 0.928 . S
O17 Co1 2.057 . S
O17 C5 1.232 . S
H18 C37 0.929 . S
H19 C38 0.929 . S
H20 C50 0.931 . S
H21 C42 0.929 . S
H22 C51 0.930 . S
H23 C43 0.931 . S
O24 Co0 2.097 . S
O24 C52 1.214 . S
H25 C53 0.929 . S
H26 C54 0.929 . S
H27 C55 0.930 . S
H28 C56 0.929 . S
H29 C58 0.930 . S
H30 C35 0.930 . S
H31 C39 0.930 . S
O32 Co1 2.037 . S
O32 C52 1.234 . S
C33 O7 1.269 . S
C33 O8 1.257 . S
C34 H9 0.929 1_545 S
C34 C37 1.400 . S
C34 C39 1.406 1_545 S
C35 H30 0.930 . S
C35 C38 1.404 1_565 S
C35 C39 1.353 . S
N36 Co1 2.145 . S
N36 C37 1.397 . S
N36 C38 1.334 . S
C37 H18 0.929 . S
C37 C34 1.400 . S
C37 N36 1.397 . S
C38 H19 0.929 . S
C38 C35 1.404 1_545 S
C38 N36 1.334 . S
C39 H31 0.930 . S
C39 C34 1.406 1_565 S
C39 C35 1.353 . S
C40 H10 0.930 . S
C40 N41 1.330 . S
C40 C42 1.446 . S
N41 Co0 2.151 . S
N41 C40 1.330 . S
N41 C45 1.418 . S
C42 H21 0.929 . S
C42 C40 1.446 . S
C42 C43 1.332 . S
C43 H23 0.931 . S
C43 C42 1.332 . S
C43 C44 1.267 . S
C44 H12 0.929 . S
C44 C43 1.267 . S
C44 C45 1.251 . S
C45 H15 0.929 . S
C45 N41 1.418 . S
C45 C44 1.251 . S
C46 H13 0.930 . S
C46 C48 1.406 . S
C46 C51 1.261 . S
C47 H14 0.930 . S
C47 N49 1.325 . S
C47 C50 1.357 . S
C48 H16 0.928 . S
C48 C46 1.406 . S
C48 N49 1.261 . S
N49 Co0 2.214 . S
N49 C47 1.325 . S
N49 C48 1.261 . S
C50 H20 0.931 . S
C50 C47 1.357 . S
C50 C51 1.312 . S
C51 H22 0.930 . S
C51 C46 1.261 . S
C51 C50 1.312 . S
C52 O24 1.214 . S
C52 O32 1.234 . S
C53 H25 0.929 . S
C53 C56 1.391 1_545 S
C53 C58 1.391 . S
C54 H26 0.929 . S
C54 C55 1.390 1_545 S
C54 N57 1.391 . S
C55 H27 0.930 . S
C55 C54 1.390 1_565 S
C55 C56 1.392 . S
C56 H28 0.929 . S
C56 C53 1.391 1_565 S
C56 C55 1.392 . S
N57 Co1 2.257 . S
N57 C54 1.391 . S
N57 C58 1.388 . S
C58 H29 0.930 . S
C58 C53 1.391 . S
C58 N57 1.388 . S
Co59 O61 2.143 . S
Co59 O67 2.074 . S
Co59 O70 2.093 . S
Co59 O83 2.097 . S
Co59 N100 2.151 . S
Co59 N108 2.214 . S
Co60 O61 2.160 . S
Co60 O66 2.058 . S
Co60 O76 2.057 . S
Co60 O91 2.037 . S
Co60 N95 2.145 . S
Co60 N116 2.257 . S
O61 Co59 2.143 . S
O61 Co60 2.160 . S
C62 O63 1.278 . S
C62 O70 1.224 . S
O63 C62 1.278 . S
C64 O65 1.245 . S
C64 O76 1.232 . S
O65 C64 1.245 . S
O66 Co60 2.058 . S
O66 C92 1.269 . S
O67 Co59 2.074 . S
O67 C92 1.257 . S
H68 C93 0.929 1_455 S
H69 C99 0.930 . S
O70 Co59 2.093 . S
O70 C62 1.224 . S
H71 C103 0.929 . S
H72 C105 0.930 . S
H73 C106 0.930 . S
H74 C104 0.929 . S
H75 C107 0.928 . S
O76 Co60 2.057 . S
O76 C64 1.232 . S
H77 C96 0.929 . S
H78 C97 0.929 . S
H79 C109 0.931 . S
H80 C101 0.929 . S
H81 C110 0.930 . S
H82 C102 0.931 . S
O83 Co59 2.097 . S
O83 C111 1.214 . S
H84 C112 0.929 . S
H85 C113 0.929 . S
H86 C114 0.930 . S
H87 C115 0.929 . S
H88 C117 0.930 . S
H89 C94 0.930 . S
H90 C98 0.930 . S
O91 Co60 2.037 . S
O91 C111 1.234 . S
C92 O66 1.269 . S
C92 O67 1.257 . S
C93 H68 0.929 1_655 S
C93 C96 1.400 . S
C93 C98 1.407 1_655 S
C94 H89 0.930 . S
C94 C97 1.404 1_455 S
C94 C98 1.353 . S
N95 Co60 2.145 . S
N95 C96 1.397 . S
N95 C97 1.334 . S
C96 H77 0.929 . S
C96 C93 1.400 . S
C96 N95 1.397 . S
C97 H78 0.929 . S
C97 C94 1.404 1_655 S
C97 N95 1.334 . S
C98 H90 0.930 . S
C98 C93 1.407 1_455 S
C98 C94 1.353 . S
C99 H69 0.930 . S
C99 N100 1.330 . S
C99 C101 1.446 . S
N100 Co59 2.151 . S
N100 C99 1.330 . S
N100 C104 1.418 . S
C101 H80 0.929 . S
C101 C99 1.446 . S
C101 C102 1.332 . S
C102 H82 0.931 . S
C102 C101 1.332 . S
C102 C103 1.267 . S
C103 H71 0.929 . S
C103 C102 1.267 . S
C103 C104 1.251 . S
C104 H74 0.929 . S
C104 N100 1.418 . S
C104 C103 1.251 . S
C105 H72 0.930 . S
C105 C107 1.406 . S
C105 C110 1.261 . S
C106 H73 0.930 . S
C106 N108 1.325 . S
C106 C109 1.357 . S
C107 H75 0.928 . S
C107 C105 1.406 . S
C107 N108 1.261 . S
N108 Co59 2.214 . S
N108 C106 1.325 . S
N108 C107 1.261 . S
C109 H79 0.931 . S
C109 C106 1.357 . S
C109 C110 1.312 . S
C110 H81 0.930 . S
C110 C105 1.261 . S
C110 C109 1.312 . S
C111 O83 1.214 . S
C111 O91 1.234 . S
C112 H84 0.929 . S
C112 C115 1.391 1_655 S
C112 C117 1.391 . S
C113 H85 0.929 . S
C113 C114 1.390 1_655 S
C113 N116 1.391 . S
C114 H86 0.930 . S
C114 C113 1.390 1_455 S
C114 C115 1.392 . S
C115 H87 0.929 . S
C115 C112 1.391 1_455 S
C115 C114 1.392 . S
N116 Co60 2.257 . S
N116 C113 1.391 . S
N116 C117 1.388 . S
C117 H88 0.930 . S
C117 C112 1.391 . S
C117 N116 1.388 . S
Co118 O120 2.143 . S
Co118 O126 2.074 . S
Co118 O129 2.093 . S
Co118 O142 2.097 . S
Co118 N159 2.151 . S
Co118 N167 2.214 . S
Co119 O120 2.160 . S
Co119 O125 2.058 . S
Co119 O135 2.057 . S
Co119 O150 2.037 . S
Co119 N154 2.145 . S
Co119 N175 2.257 . S
O120 Co118 2.143 . S
O120 Co119 2.160 . S
C121 O122 1.278 . S
C121 O129 1.224 . S
O122 C121 1.278 . S
C123 O124 1.245 . S
C123 O135 1.232 . S
O124 C123 1.245 . S
O125 Co119 2.058 . S
O125 C151 1.269 . S
O126 Co118 2.074 . S
O126 C151 1.257 . S
H127 C152 0.930 . S
H128 C158 0.930 . S
O129 Co118 2.093 . S
O129 C121 1.224 . S
H130 C162 0.929 . S
H131 C164 0.930 . S
H132 C165 0.930 . S
H133 C163 0.929 . S
H134 C166 0.928 . S
O135 Co119 2.057 . S
O135 C123 1.232 . S
H136 C155 0.929 . S
H137 C156 0.929 . S
H138 C168 0.931 . S
H139 C160 0.929 . S
H140 C169 0.930 . S
H141 C161 0.931 . S
O142 Co118 2.097 . S
O142 C170 1.214 . S
H143 C171 0.929 . S
H144 C172 0.929 . S
H145 C173 0.930 . S
H146 C174 0.929 . S
H147 C176 0.930 . S
H148 C153 0.930 . S
H149 C157 0.930 . S
O150 Co119 2.037 . S
O150 C170 1.234 . S
C151 O125 1.269 . S
C151 O126 1.257 . S
C152 H127 0.930 . S
C152 C155 1.388 . S
C152 C157 1.418 . S
C153 H148 0.930 . S
C153 C156 1.404 . S
C153 C157 1.353 . S
N154 Co119 2.145 . S
N154 C155 1.397 . S
N154 C156 1.334 . S
C155 H136 0.929 . S
C155 C152 1.388 . S
C155 N154 1.397 . S
C156 H137 0.929 . S
C156 C153 1.404 . S
C156 N154 1.334 . S
C157 H149 0.930 . S
C157 C152 1.418 . S
C157 C153 1.353 . S
C158 H128 0.930 . S
C158 N159 1.330 . S
C158 C160 1.446 . S
N159 Co118 2.151 . S
N159 C158 1.330 . S
N159 C163 1.418 . S
C160 H139 0.929 . S
C160 C158 1.446 . S
C160 C161 1.332 . S
C161 H141 0.931 . S
C161 C160 1.332 . S
C161 C162 1.267 . S
C162 H130 0.929 . S
C162 C161 1.267 . S
C162 C163 1.251 . S
C163 H133 0.929 . S
C163 N159 1.418 . S
C163 C162 1.251 . S
C164 H131 0.930 . S
C164 C166 1.406 . S
C164 C169 1.261 . S
C165 H132 0.930 . S
C165 N167 1.325 . S
C165 C168 1.357 . S
C166 H134 0.928 . S
C166 C164 1.406 . S
C166 N167 1.261 . S
N167 Co118 2.214 . S
N167 C165 1.325 . S
N167 C166 1.261 . S
C168 H138 0.931 . S
C168 C165 1.357 . S
C168 C169 1.312 . S
C169 H140 0.930 . S
C169 C164 1.261 . S
C169 C168 1.312 . S
C170 O142 1.214 . S
C170 O150 1.234 . S
C171 H143 0.929 . S
C171 C174 1.391 . S
C171 C176 1.391 . S
C172 H144 0.929 . S
C172 C173 1.390 . S
C172 N175 1.391 . S
C173 H145 0.930 . S
C173 C172 1.390 . S
C173 C174 1.392 . S
C174 H146 0.929 . S
C174 C171 1.391 . S
C174 C173 1.392 . S
N175 Co119 2.257 . S
N175 C172 1.391 . S
N175 C176 1.388 . S
C176 H147 0.930 . S
C176 C171 1.391 . S
C176 N175 1.388 . S
Co177 O179 2.143 . S
Co177 O185 2.074 . S
Co177 O188 2.093 . S
Co177 O201 2.097 . S
Co177 N218 2.151 . S
Co177 N226 2.214 . S
Co178 O179 2.160 . S
Co178 O184 2.058 . S
Co178 O194 2.057 . S
Co178 O209 2.037 . S
Co178 N213 2.145 . S
Co178 N234 2.257 . S
O179 Co177 2.143 . S
O179 Co178 2.160 . S
C180 O181 1.278 . S
C180 O188 1.224 . S
O181 C180 1.278 . S
C182 O183 1.245 . S
C182 O194 1.232 . S
O183 C182 1.245 . S
O184 Co178 2.058 . S
O184 C210 1.269 . S
O185 Co177 2.074 . S
O185 C210 1.257 . S
H186 C211 0.930 . S
H187 C217 0.930 . S
O188 Co177 2.093 . S
O188 C180 1.224 . S
H189 C221 0.929 . S
H190 C223 0.930 . S
H191 C224 0.930 . S
H192 C222 0.929 . S
H193 C225 0.928 . S
O194 Co178 2.057 . S
O194 C182 1.232 . S
H195 C214 0.929 . S
H196 C215 0.929 . S
H197 C227 0.931 . S
H198 C219 0.929 . S
H199 C228 0.930 . S
H200 C220 0.931 . S
O201 Co177 2.097 . S
O201 C229 1.214 . S
H202 C230 0.929 . S
H203 C231 0.929 . S
H204 C232 0.930 . S
H205 C233 0.929 . S
H206 C235 0.930 . S
H207 C212 0.930 . S
H208 C216 0.930 . S
O209 Co178 2.037 . S
O209 C229 1.234 . S
C210 O184 1.269 . S
C210 O185 1.257 . S
C211 H186 0.930 . S
C211 C214 1.388 . S
C211 C216 1.418 . S
C212 H207 0.930 . S
C212 C215 1.404 . S
C212 C216 1.353 . S
N213 Co178 2.145 . S
N213 C214 1.397 . S
N213 C215 1.334 . S
C214 H195 0.929 . S
C214 C211 1.388 . S
C214 N213 1.397 . S
C215 H196 0.929 . S
C215 C212 1.404 . S
C215 N213 1.334 . S
C216 H208 0.930 . S
C216 C211 1.418 . S
C216 C212 1.353 . S
C217 H187 0.930 . S
C217 N218 1.330 . S
C217 C219 1.446 . S
N218 Co177 2.151 . S
N218 C217 1.330 . S
N218 C222 1.418 . S
C219 H198 0.929 . S
C219 C217 1.446 . S
C219 C220 1.332 . S
C220 H200 0.931 . S
C220 C219 1.332 . S
C220 C221 1.267 . S
C221 H189 0.929 . S
C221 C220 1.267 . S
C221 C222 1.251 . S
C222 H192 0.929 . S
C222 N218 1.418 . S
C222 C221 1.251 . S
C223 H190 0.930 . S
C223 C225 1.406 . S
C223 C228 1.261 . S
C224 H191 0.930 . S
C224 N226 1.325 . S
C224 C227 1.357 . S
C225 H193 0.928 . S
C225 C223 1.406 . S
C225 N226 1.261 . S
N226 Co177 2.214 . S
N226 C224 1.325 . S
N226 C225 1.261 . S
C227 H197 0.931 . S
C227 C224 1.357 . S
C227 C228 1.312 . S
C228 H199 0.930 . S
C228 C223 1.261 . S
C228 C227 1.312 . S
C229 O201 1.214 . S
C229 O209 1.234 . S
C230 H202 0.929 . S
C230 C233 1.391 . S
C230 C235 1.391 . S
C231 H203 0.929 . S
C231 C232 1.390 . S
C231 N234 1.391 . S
C232 H204 0.930 . S
C232 C231 1.390 . S
C232 C233 1.392 . S
C233 H205 0.929 . S
C233 C230 1.391 . S
C233 C232 1.392 . S
N234 Co178 2.257 . S
N234 C231 1.391 . S
N234 C235 1.388 . S
C235 H206 0.930 . S
C235 C230 1.391 . S
C235 N234 1.388 . S
Co236 O238 2.143 . S
Co236 O244 2.074 . S
Co236 O247 2.093 . S
Co236 O260 2.097 . S
Co236 N277 2.151 . S
Co236 N285 2.214 . S
Co237 O238 2.160 . S
Co237 O243 2.058 . S
Co237 O253 2.057 . S
Co237 O268 2.037 . S
Co237 N272 2.145 . S
Co237 N293 2.257 . S
O238 Co236 2.143 . S
O238 Co237 2.160 . S
C239 O240 1.278 . S
C239 O247 1.224 . S
O240 C239 1.278 . S
C241 O242 1.245 . S
C241 O253 1.232 . S
O242 C241 1.245 . S
O243 Co237 2.058 . S
O243 C269 1.269 . S
O244 Co236 2.074 . S
O244 C269 1.257 . S
H245 C270 0.930 . S
H246 C276 0.930 . S
O247 Co236 2.093 . S
O247 C239 1.224 . S
H248 C280 0.929 . S
H249 C282 0.930 . S
H250 C283 0.930 . S
H251 C281 0.929 . S
H252 C284 0.928 . S
O253 Co237 2.057 . S
O253 C241 1.232 . S
H254 C273 0.929 . S
H255 C274 0.929 . S
H256 C286 0.931 . S
H257 C278 0.929 . S
H258 C287 0.930 . S
H259 C279 0.931 . S
O260 Co236 2.097 . S
O260 C288 1.214 . S
H261 C289 0.929 . S
H262 C290 0.929 . S
H263 C291 0.930 . S
H264 C292 0.929 . S
H265 C294 0.930 . S
H266 C271 0.930 . S
H267 C275 0.930 . S
O268 Co237 2.037 . S
O268 C288 1.234 . S
C269 O243 1.269 . S
C269 O244 1.257 . S
C270 H245 0.930 . S
C270 C273 1.388 . S
C270 C275 1.418 . S
C271 H266 0.930 . S
C271 C274 1.404 . S
C271 C275 1.353 . S
N272 Co237 2.145 . S
N272 C273 1.397 . S
N272 C274 1.334 . S
C273 H254 0.929 . S
C273 C270 1.388 . S
C273 N272 1.397 . S
C274 H255 0.929 . S
C274 C271 1.404 . S
C274 N272 1.334 . S
C275 H267 0.930 . S
C275 C270 1.418 . S
C275 C271 1.353 . S
C276 H246 0.930 . S
C276 N277 1.330 . S
C276 C278 1.446 . S
N277 Co236 2.151 . S
N277 C276 1.330 . S
N277 C281 1.418 . S
C278 H257 0.929 . S
C278 C276 1.446 . S
C278 C279 1.332 . S
C279 H259 0.931 . S
C279 C278 1.332 . S
C279 C280 1.267 . S
C280 H248 0.929 . S
C280 C279 1.267 . S
C280 C281 1.251 . S
C281 H251 0.929 . S
C281 N277 1.418 . S
C281 C280 1.251 . S
C282 H249 0.930 . S
C282 C284 1.406 . S
C282 C287 1.261 . S
C283 H250 0.930 . S
C283 N285 1.325 . S
C283 C286 1.357 . S
C284 H252 0.928 . S
C284 C282 1.406 . S
C284 N285 1.261 . S
N285 Co236 2.214 . S
N285 C283 1.325 . S
N285 C284 1.261 . S
C286 H256 0.931 . S
C286 C283 1.357 . S
C286 C287 1.312 . S
C287 H258 0.930 . S
C287 C282 1.261 . S
C287 C286 1.312 . S
C288 O260 1.214 . S
C288 O268 1.234 . S
C289 H261 0.929 . S
C289 C292 1.391 . S
C289 C294 1.391 . S
C290 H262 0.929 . S
C290 C291 1.390 . S
C290 N293 1.391 . S
C291 H263 0.930 . S
C291 C290 1.390 . S
C291 C292 1.392 . S
C292 H264 0.929 . S
C292 C289 1.391 . S
C292 C291 1.392 . S
N293 Co237 2.257 . S
N293 C290 1.391 . S
N293 C294 1.388 . S
C294 H265 0.930 . S
C294 C289 1.391 . S
C294 N293 1.388 . S
Co295 O297 2.143 . S
Co295 O303 2.074 . S
Co295 O306 2.093 . S
Co295 O319 2.097 . S
Co295 N336 2.151 . S
Co295 N344 2.214 . S
Co296 O297 2.160 . S
Co296 O302 2.058 . S
Co296 O312 2.057 . S
Co296 O327 2.037 . S
Co296 N331 2.145 . S
Co296 N352 2.257 . S
O297 Co295 2.143 . S
O297 Co296 2.160 . S
C298 O299 1.278 . S
C298 O306 1.224 . S
O299 C298 1.278 . S
C300 O301 1.245 . S
C300 O312 1.232 . S
O301 C300 1.245 . S
O302 Co296 2.058 . S
O302 C328 1.269 . S
O303 Co295 2.074 . S
O303 C328 1.257 . S
H304 C329 0.930 . S
H305 C335 0.930 . S
O306 Co295 2.093 . S
O306 C298 1.224 . S
H307 C339 0.929 . S
H308 C341 0.930 . S
H309 C342 0.930 . S
H310 C340 0.929 . S
H311 C343 0.928 . S
O312 Co296 2.057 . S
O312 C300 1.232 . S
H313 C332 0.929 . S
H314 C333 0.929 . S
H315 C345 0.931 . S
H316 C337 0.929 . S
H317 C346 0.930 . S
H318 C338 0.931 . S
O319 Co295 2.097 . S
O319 C347 1.214 . S
H320 C348 0.929 . S
H321 C349 0.929 . S
H322 C350 0.930 . S
H323 C351 0.929 . S
H324 C353 0.930 . S
H325 C330 0.930 . S
H326 C334 0.930 . S
O327 Co296 2.037 . S
O327 C347 1.234 . S
C328 O302 1.269 . S
C328 O303 1.257 . S
C329 H304 0.930 . S
C329 C332 1.388 . S
C329 C334 1.418 . S
C330 H325 0.930 . S
C330 C333 1.404 . S
C330 C334 1.353 . S
N331 Co296 2.145 . S
N331 C332 1.397 . S
N331 C333 1.334 . S
C332 H313 0.929 . S
C332 C329 1.388 . S
C332 N331 1.397 . S
C333 H314 0.929 . S
C333 C330 1.404 . S
C333 N331 1.334 . S
C334 H326 0.930 . S
C334 C329 1.418 . S
C334 C330 1.353 . S
C335 H305 0.930 . S
C335 N336 1.330 . S
C335 C337 1.446 . S
N336 Co295 2.151 . S
N336 C335 1.330 . S
N336 C340 1.418 . S
C337 H316 0.929 . S
C337 C335 1.446 . S
C337 C338 1.332 . S
C338 H318 0.931 . S
C338 C337 1.332 . S
C338 C339 1.267 . S
C339 H307 0.929 . S
C339 C338 1.267 . S
C339 C340 1.251 . S
C340 H310 0.929 . S
C340 N336 1.418 . S
C340 C339 1.251 . S
C341 H308 0.930 . S
C341 C343 1.406 . S
C341 C346 1.261 . S
C342 H309 0.930 . S
C342 N344 1.325 . S
C342 C345 1.357 . S
C343 H311 0.928 . S
C343 C341 1.406 . S
C343 N344 1.261 . S
N344 Co295 2.214 . S
N344 C342 1.325 . S
N344 C343 1.261 . S
C345 H315 0.931 . S
C345 C342 1.357 . S
C345 C346 1.312 . S
C346 H317 0.930 . S
C346 C341 1.261 . S
C346 C345 1.312 . S
C347 O319 1.214 . S
C347 O327 1.234 . S
C348 H320 0.929 . S
C348 C351 1.391 . S
C348 C353 1.391 . S
C349 H321 0.929 . S
C349 C350 1.390 . S
C349 N352 1.391 . S
C350 H322 0.930 . S
C350 C349 1.390 . S
C350 C351 1.392 . S
C351 H323 0.929 . S
C351 C348 1.391 . S
C351 C350 1.392 . S
N352 Co296 2.257 . S
N352 C349 1.391 . S
N352 C353 1.388 . S
C353 H324 0.930 . S
C353 C348 1.391 . S
C353 N352 1.388 . S
Co354 O356 2.143 . S
Co354 O362 2.074 . S
Co354 O365 2.093 . S
Co354 O378 2.097 . S
Co354 N395 2.151 . S
Co354 N403 2.214 . S
Co355 O356 2.160 . S
Co355 O361 2.058 . S
Co355 O371 2.057 . S
Co355 O386 2.037 . S
Co355 N390 2.145 . S
Co355 N411 2.257 . S
O356 Co354 2.143 . S
O356 Co355 2.160 . S
C357 O358 1.278 . S
C357 O365 1.224 . S
O358 C357 1.278 . S
C359 O360 1.245 . S
C359 O371 1.232 . S
O360 C359 1.245 . S
O361 Co355 2.058 . S
O361 C387 1.269 . S
O362 Co354 2.074 . S
O362 C387 1.257 . S
H363 C388 0.929 1_565 S
H364 C394 0.930 . S
O365 Co354 2.093 . S
O365 C357 1.224 . S
H366 C398 0.929 . S
H367 C400 0.930 . S
H368 C401 0.930 . S
H369 C399 0.929 . S
H370 C402 0.928 . S
O371 Co355 2.057 . S
O371 C359 1.232 . S
H372 C391 0.929 . S
H373 C392 0.929 . S
H374 C404 0.931 . S
H375 C396 0.929 . S
H376 C405 0.930 . S
H377 C397 0.931 . S
O378 Co354 2.097 . S
O378 C406 1.214 . S
H379 C407 0.929 . S
H380 C408 0.929 . S
H381 C409 0.930 . S
H382 C410 0.929 . S
H383 C412 0.930 . S
H384 C389 0.930 . S
H385 C393 0.930 . S
O386 Co355 2.037 . S
O386 C406 1.234 . S
C387 O361 1.269 . S
C387 O362 1.257 . S
C388 H363 0.929 1_545 S
C388 C391 1.400 . S
C388 C393 1.406 1_545 S
C389 H384 0.930 . S
C389 C392 1.404 1_565 S
C389 C393 1.353 . S
N390 Co355 2.145 . S
N390 C391 1.397 . S
N390 C392 1.334 . S
C391 H372 0.929 . S
C391 C388 1.400 . S
C391 N390 1.397 . S
C392 H373 0.929 . S
C392 C389 1.404 1_545 S
C392 N390 1.334 . S
C393 H385 0.930 . S
C393 C388 1.406 1_565 S
C393 C389 1.353 . S
C394 H364 0.930 . S
C394 N395 1.330 . S
C394 C396 1.446 . S
N395 Co354 2.151 . S
N395 C394 1.330 . S
N395 C399 1.418 . S
C396 H375 0.929 . S
C396 C394 1.446 . S
C396 C397 1.332 . S
C397 H377 0.931 . S
C397 C396 1.332 . S
C397 C398 1.267 . S
C398 H366 0.929 . S
C398 C397 1.267 . S
C398 C399 1.251 . S
C399 H369 0.929 . S
C399 N395 1.418 . S
C399 C398 1.251 . S
C400 H367 0.930 . S
C400 C402 1.406 . S
C400 C405 1.261 . S
C401 H368 0.930 . S
C401 N403 1.325 . S
C401 C404 1.357 . S
C402 H370 0.928 . S
C402 C400 1.406 . S
C402 N403 1.261 . S
N403 Co354 2.214 . S
N403 C401 1.325 . S
N403 C402 1.261 . S
C404 H374 0.931 . S
C404 C401 1.357 . S
C404 C405 1.312 . S
C405 H376 0.930 . S
C405 C400 1.261 . S
C405 C404 1.312 . S
C406 O378 1.214 . S
C406 O386 1.234 . S
C407 H379 0.929 . S
C407 C410 1.391 1_545 S
C407 C412 1.391 . S
C408 H380 0.929 . S
C408 C409 1.390 1_545 S
C408 N411 1.391 . S
C409 H381 0.930 . S
C409 C408 1.390 1_565 S
C409 C410 1.392 . S
C410 H382 0.929 . S
C410 C407 1.391 1_565 S
C410 C409 1.392 . S
N411 Co355 2.257 . S
N411 C408 1.391 . S
N411 C412 1.388 . S
C412 H383 0.930 . S
C412 C407 1.391 . S
C412 N411 1.388 . S
Co413 O415 2.143 . S
Co413 O421 2.074 . S
Co413 O424 2.093 . S
Co413 O437 2.097 . S
Co413 N454 2.151 . S
Co413 N462 2.214 . S
Co414 O415 2.160 . S
Co414 O420 2.058 . S
Co414 O430 2.057 . S
Co414 O445 2.037 . S
Co414 N449 2.145 . S
Co414 N470 2.257 . S
O415 Co413 2.143 . S
O415 Co414 2.160 . S
C416 O417 1.278 . S
C416 O424 1.224 . S
O417 C416 1.278 . S
C418 O419 1.245 . S
C418 O430 1.232 . S
O419 C418 1.245 . S
O420 Co414 2.058 . S
O420 C446 1.269 . S
O421 Co413 2.074 . S
O421 C446 1.257 . S
H422 C447 0.929 1_455 S
H423 C453 0.930 . S
O424 Co413 2.093 . S
O424 C416 1.224 . S
H425 C457 0.929 . S
H426 C459 0.930 . S
H427 C460 0.930 . S
H428 C458 0.929 . S
H429 C461 0.928 . S
O430 Co414 2.057 . S
O430 C418 1.232 . S
H431 C450 0.929 . S
H432 C451 0.929 . S
H433 C463 0.931 . S
H434 C455 0.929 . S
H435 C464 0.930 . S
H436 C456 0.931 . S
O437 Co413 2.097 . S
O437 C465 1.214 . S
H438 C466 0.929 . S
H439 C467 0.929 . S
H440 C468 0.930 . S
H441 C469 0.929 . S
H442 C471 0.930 . S
H443 C448 0.930 . S
H444 C452 0.930 . S
O445 Co414 2.037 . S
O445 C465 1.234 . S
C446 O420 1.269 . S
C446 O421 1.257 . S
C447 H422 0.929 1_655 S
C447 C450 1.400 . S
C447 C452 1.406 1_655 S
C448 H443 0.930 . S
C448 C451 1.404 1_455 S
C448 C452 1.353 . S
N449 Co414 2.145 . S
N449 C450 1.397 . S
N449 C451 1.334 . S
C450 H431 0.929 . S
C450 C447 1.400 . S
C450 N449 1.397 . S
C451 H432 0.929 . S
C451 C448 1.404 1_655 S
C451 N449 1.334 . S
C452 H444 0.930 . S
C452 C447 1.406 1_455 S
C452 C448 1.353 . S
C453 H423 0.930 . S
C453 N454 1.330 . S
C453 C455 1.446 . S
N454 Co413 2.151 . S
N454 C453 1.330 . S
N454 C458 1.418 . S
C455 H434 0.929 . S
C455 C453 1.446 . S
C455 C456 1.332 . S
C456 H436 0.931 . S
C456 C455 1.332 . S
C456 C457 1.267 . S
C457 H425 0.929 . S
C457 C456 1.267 . S
C457 C458 1.251 . S
C458 H428 0.929 . S
C458 N454 1.418 . S
C458 C457 1.251 . S
C459 H426 0.930 . S
C459 C461 1.406 . S
C459 C464 1.261 . S
C460 H427 0.930 . S
C460 N462 1.325 . S
C460 C463 1.357 . S
C461 H429 0.928 . S
C461 C459 1.406 . S
C461 N462 1.261 . S
N462 Co413 2.214 . S
N462 C460 1.325 . S
N462 C461 1.261 . S
C463 H433 0.931 . S
C463 C460 1.357 . S
C463 C464 1.312 . S
C464 H435 0.930 . S
C464 C459 1.261 . S
C464 C463 1.312 . S
C465 O437 1.214 . S
C465 O445 1.234 . S
C466 H438 0.929 . S
C466 C469 1.391 1_655 S
C466 C471 1.391 . S
C467 H439 0.929 . S
C467 C468 1.390 1_655 S
C467 N470 1.391 . S
C468 H440 0.930 . S
C468 C467 1.390 1_455 S
C468 C469 1.392 . S
C469 H441 0.929 . S
C469 C466 1.391 1_455 S
C469 C468 1.392 . S
N470 Co414 2.257 . S
N470 C467 1.391 . S
N470 C471 1.388 . S
C471 H442 0.930 . S
C471 C466 1.391 . S
C471 N470 1.388 . S
Co472 O474 2.143 . S
Co472 O480 2.074 . S
Co472 O483 2.093 . S
Co472 O496 2.097 . S
Co472 N513 2.151 . S
Co472 N521 2.214 . S
Co473 O474 2.160 . S
Co473 O479 2.058 . S
Co473 O489 2.057 . S
Co473 O504 2.037 . S
Co473 N508 2.145 . S
Co473 N529 2.257 . S
O474 Co472 2.143 . S
O474 Co473 2.160 . S
C475 O476 1.278 . S
C475 O483 1.224 . S
O476 C475 1.278 . S
C477 O478 1.245 . S
C477 O489 1.232 . S
O478 C477 1.245 . S
O479 Co473 2.058 . S
O479 C505 1.269 . S
O480 Co472 2.074 . S
O480 C505 1.257 . S
H481 C506 0.930 . S
H482 C512 0.930 . S
O483 Co472 2.093 . S
O483 C475 1.224 . S
H484 C516 0.929 . S
H485 C518 0.930 . S
H486 C519 0.930 . S
H487 C517 0.929 . S
H488 C520 0.928 . S
O489 Co473 2.057 . S
O489 C477 1.232 . S
H490 C509 0.929 . S
H491 C510 0.929 . S
H492 C522 0.931 . S
H493 C514 0.929 . S
H494 C523 0.930 . S
H495 C515 0.931 . S
O496 Co472 2.097 . S
O496 C524 1.214 . S
H497 C525 0.929 . S
H498 C526 0.929 . S
H499 C527 0.930 . S
H500 C528 0.929 . S
H501 C530 0.930 . S
H502 C507 0.930 . S
H503 C511 0.930 . S
O504 Co473 2.037 . S
O504 C524 1.234 . S
C505 O479 1.269 . S
C505 O480 1.257 . S
C506 H481 0.930 . S
C506 C509 1.388 . S
C506 C511 1.418 . S
C507 H502 0.930 . S
C507 C510 1.404 . S
C507 C511 1.353 . S
N508 Co473 2.145 . S
N508 C509 1.397 . S
N508 C510 1.334 . S
C509 H490 0.929 . S
C509 C506 1.388 . S
C509 N508 1.397 . S
C510 H491 0.929 . S
C510 C507 1.404 . S
C510 N508 1.334 . S
C511 H503 0.930 . S
C511 C506 1.418 . S
C511 C507 1.353 . S
C512 H482 0.930 . S
C512 N513 1.330 . S
C512 C514 1.446 . S
N513 Co472 2.151 . S
N513 C512 1.330 . S
N513 C517 1.418 . S
C514 H493 0.929 . S
C514 C512 1.446 . S
C514 C515 1.332 . S
C515 H495 0.931 . S
C515 C514 1.332 . S
C515 C516 1.267 . S
C516 H484 0.929 . S
C516 C515 1.267 . S
C516 C517 1.251 . S
C517 H487 0.929 . S
C517 N513 1.418 . S
C517 C516 1.251 . S
C518 H485 0.930 . S
C518 C520 1.406 . S
C518 C523 1.261 . S
C519 H486 0.930 . S
C519 N521 1.325 . S
C519 C522 1.357 . S
C520 H488 0.928 . S
C520 C518 1.406 . S
C520 N521 1.261 . S
N521 Co472 2.214 . S
N521 C519 1.325 . S
N521 C520 1.261 . S
C522 H492 0.931 . S
C522 C519 1.357 . S
C522 C523 1.312 . S
C523 H494 0.930 . S
C523 C518 1.261 . S
C523 C522 1.312 . S
C524 O496 1.214 . S
C524 O504 1.234 . S
C525 H497 0.929 . S
C525 C528 1.391 . S
C525 C530 1.391 . S
C526 H498 0.929 . S
C526 C527 1.390 . S
C526 N529 1.391 . S
C527 H499 0.930 . S
C527 C526 1.390 . S
C527 C528 1.392 . S
C528 H500 0.929 . S
C528 C525 1.391 . S
C528 C527 1.392 . S
N529 Co473 2.257 . S
N529 C526 1.391 . S
N529 C530 1.388 . S
C530 H501 0.930 . S
C530 C525 1.391 . S
C530 N529 1.388 . S
Co531 O533 2.143 . S
Co531 O539 2.074 . S
Co531 O542 2.093 . S
Co531 O555 2.097 . S
Co531 N572 2.151 . S
Co531 N580 2.214 . S
Co532 O533 2.160 . S
Co532 O538 2.058 . S
Co532 O548 2.057 . S
Co532 O563 2.037 . S
Co532 N567 2.145 . S
Co532 N588 2.257 . S
O533 Co531 2.143 . S
O533 Co532 2.160 . S
C534 O535 1.278 . S
C534 O542 1.224 . S
O535 C534 1.278 . S
C536 O537 1.245 . S
C536 O548 1.232 . S
O537 C536 1.245 . S
O538 Co532 2.058 . S
O538 C564 1.269 . S
O539 Co531 2.074 . S
O539 C564 1.257 . S
H540 C565 0.930 . S
H541 C571 0.930 . S
O542 Co531 2.093 . S
O542 C534 1.224 . S
H543 C575 0.929 . S
H544 C577 0.930 . S
H545 C578 0.930 . S
H546 C576 0.929 . S
H547 C579 0.928 . S
O548 Co532 2.057 . S
O548 C536 1.232 . S
H549 C568 0.929 . S
H550 C569 0.929 . S
H551 C581 0.931 . S
H552 C573 0.929 . S
H553 C582 0.930 . S
H554 C574 0.931 . S
O555 Co531 2.097 . S
O555 C583 1.214 . S
H556 C584 0.929 . S
H557 C585 0.929 . S
H558 C586 0.930 . S
H559 C587 0.929 . S
H560 C589 0.930 . S
H561 C566 0.930 . S
H562 C570 0.930 . S
O563 Co532 2.037 . S
O563 C583 1.234 . S
C564 O538 1.269 . S
C564 O539 1.257 . S
C565 H540 0.930 . S
C565 C568 1.388 . S
C565 C570 1.418 . S
C566 H561 0.930 . S
C566 C569 1.404 . S
C566 C570 1.353 . S
N567 Co532 2.145 . S
N567 C568 1.397 . S
N567 C569 1.334 . S
C568 H549 0.929 . S
C568 C565 1.388 . S
C568 N567 1.397 . S
C569 H550 0.929 . S
C569 C566 1.404 . S
C569 N567 1.334 . S
C570 H562 0.930 . S
C570 C565 1.418 . S
C570 C566 1.353 . S
C571 H541 0.930 . S
C571 N572 1.330 . S
C571 C573 1.446 . S
N572 Co531 2.151 . S
N572 C571 1.330 . S
N572 C576 1.418 . S
C573 H552 0.929 . S
C573 C571 1.446 . S
C573 C574 1.332 . S
C574 H554 0.931 . S
C574 C573 1.332 . S
C574 C575 1.267 . S
C575 H543 0.929 . S
C575 C574 1.267 . S
C575 C576 1.251 . S
C576 H546 0.929 . S
C576 N572 1.418 . S
C576 C575 1.251 . S
C577 H544 0.930 . S
C577 C579 1.406 . S
C577 C582 1.261 . S
C578 H545 0.930 . S
C578 N580 1.325 . S
C578 C581 1.357 . S
C579 H547 0.928 . S
C579 C577 1.406 . S
C579 N580 1.261 . S
N580 Co531 2.214 . S
N580 C578 1.325 . S
N580 C579 1.261 . S
C581 H551 0.931 . S
C581 C578 1.357 . S
C581 C582 1.312 . S
C582 H553 0.930 . S
C582 C577 1.261 . S
C582 C581 1.312 . S
C583 O555 1.214 . S
C583 O563 1.234 . S
C584 H556 0.929 . S
C584 C587 1.391 . S
C584 C589 1.391 . S
C585 H557 0.929 . S
C585 C586 1.390 . S
C585 N588 1.391 . S
C586 H558 0.930 . S
C586 C585 1.390 . S
C586 C587 1.392 . S
C587 H559 0.929 . S
C587 C584 1.391 . S
C587 C586 1.392 . S
N588 Co532 2.257 . S
N588 C585 1.391 . S
N588 C589 1.388 . S
C589 H560 0.930 . S
C589 C584 1.391 . S
C589 N588 1.388 . S
Co590 O592 2.143 . S
Co590 O598 2.074 . S
Co590 O601 2.093 . S
Co590 O614 2.097 . S
Co590 N631 2.151 . S
Co590 N639 2.214 . S
Co591 O592 2.160 . S
Co591 O597 2.058 . S
Co591 O607 2.057 . S
Co591 O622 2.037 . S
Co591 N626 2.145 . S
Co591 N647 2.257 . S
O592 Co590 2.143 . S
O592 Co591 2.160 . S
C593 O594 1.278 . S
C593 O601 1.224 . S
O594 C593 1.278 . S
C595 O596 1.245 . S
C595 O607 1.232 . S
O596 C595 1.245 . S
O597 Co591 2.058 . S
O597 C623 1.269 . S
O598 Co590 2.074 . S
O598 C623 1.257 . S
H599 C624 0.929 1_545 S
H600 C630 0.930 . S
O601 Co590 2.093 . S
O601 C593 1.224 . S
H602 C634 0.929 . S
H603 C636 0.930 . S
H604 C637 0.930 . S
H605 C635 0.929 . S
H606 C638 0.928 . S
O607 Co591 2.057 . S
O607 C595 1.232 . S
H608 C627 0.929 . S
H609 C628 0.929 . S
H610 C640 0.931 . S
H611 C632 0.929 . S
H612 C641 0.930 . S
H613 C633 0.931 . S
O614 Co590 2.097 . S
O614 C642 1.214 . S
H615 C643 0.929 . S
H616 C644 0.929 . S
H617 C645 0.930 . S
H618 C646 0.929 . S
H619 C648 0.930 . S
H620 C625 0.930 . S
H621 C629 0.930 . S
O622 Co591 2.037 . S
O622 C642 1.234 . S
C623 O597 1.269 . S
C623 O598 1.257 . S
C624 H599 0.929 1_565 S
C624 C627 1.401 . S
C624 C629 1.405 1_565 S
C625 H620 0.930 . S
C625 C628 1.404 1_545 S
C625 C629 1.353 . S
N626 Co591 2.145 . S
N626 C627 1.397 . S
N626 C628 1.334 . S
C627 H608 0.929 . S
C627 C624 1.401 . S
C627 N626 1.397 . S
C628 H609 0.929 . S
C628 C625 1.404 1_565 S
C628 N626 1.334 . S
C629 H621 0.930 . S
C629 C624 1.405 1_545 S
C629 C625 1.353 . S
C630 H600 0.930 . S
C630 N631 1.330 . S
C630 C632 1.446 . S
N631 Co590 2.151 . S
N631 C630 1.330 . S
N631 C635 1.418 . S
C632 H611 0.929 . S
C632 C630 1.446 . S
C632 C633 1.332 . S
C633 H613 0.931 . S
C633 C632 1.332 . S
C633 C634 1.267 . S
C634 H602 0.929 . S
C634 C633 1.267 . S
C634 C635 1.251 . S
C635 H605 0.929 . S
C635 N631 1.418 . S
C635 C634 1.251 . S
C636 H603 0.930 . S
C636 C638 1.406 . S
C636 C641 1.261 . S
C637 H604 0.930 . S
C637 N639 1.325 . S
C637 C640 1.357 . S
C638 H606 0.928 . S
C638 C636 1.406 . S
C638 N639 1.261 . S
N639 Co590 2.214 . S
N639 C637 1.325 . S
N639 C638 1.261 . S
C640 H610 0.931 . S
C640 C637 1.357 . S
C640 C641 1.312 . S
C641 H612 0.930 . S
C641 C636 1.261 . S
C641 C640 1.312 . S
C642 O614 1.214 . S
C642 O622 1.234 . S
C643 H615 0.929 . S
C643 C646 1.391 1_565 S
C643 C648 1.391 . S
C644 H616 0.929 . S
C644 C645 1.390 1_565 S
C644 N647 1.391 . S
C645 H617 0.930 . S
C645 C644 1.390 1_545 S
C645 C646 1.392 . S
C646 H618 0.929 . S
C646 C643 1.391 1_545 S
C646 C645 1.392 . S
N647 Co591 2.257 . S
N647 C644 1.391 . S
N647 C648 1.388 . S
C648 H619 0.930 . S
C648 C643 1.391 . S
C648 N647 1.388 . S
Co649 O651 2.143 . S
Co649 O657 2.074 . S
Co649 O660 2.093 . S
Co649 O673 2.097 . S
Co649 N690 2.151 . S
Co649 N698 2.214 . S
Co650 O651 2.160 . S
Co650 O656 2.058 . S
Co650 O666 2.057 . S
Co650 O681 2.037 . S
Co650 N685 2.145 . S
Co650 N706 2.257 . S
O651 Co649 2.143 . S
O651 Co650 2.160 . S
C652 O653 1.278 . S
C652 O660 1.224 . S
O653 C652 1.278 . S
C654 O655 1.245 . S
C654 O666 1.232 . S
O655 C654 1.245 . S
O656 Co650 2.058 . S
O656 C682 1.269 . S
O657 Co649 2.074 . S
O657 C682 1.257 . S
H658 C683 0.929 1_655 S
H659 C689 0.930 . S
O660 Co649 2.093 . S
O660 C652 1.224 . S
H661 C693 0.929 . S
H662 C695 0.930 . S
H663 C696 0.930 . S
H664 C694 0.929 . S
H665 C697 0.928 . S
O666 Co650 2.057 . S
O666 C654 1.232 . S
H667 C686 0.929 . S
H668 C687 0.929 . S
H669 C699 0.931 . S
H670 C691 0.929 . S
H671 C700 0.930 . S
H672 C692 0.931 . S
O673 Co649 2.097 . S
O673 C701 1.214 . S
H674 C702 0.929 . S
H675 C703 0.929 . S
H676 C704 0.930 . S
H677 C705 0.929 . S
H678 C707 0.930 . S
H679 C684 0.930 . S
H680 C688 0.930 . S
O681 Co650 2.037 . S
O681 C701 1.234 . S
C682 O656 1.269 . S
C682 O657 1.257 . S
C683 H658 0.929 1_455 S
C683 C686 1.402 . S
C683 C688 1.405 1_455 S
C684 H679 0.930 . S
C684 C687 1.404 1_655 S
C684 C688 1.353 . S
N685 Co650 2.145 . S
N685 C686 1.397 . S
N685 C687 1.334 . S
C686 H667 0.929 . S
C686 C683 1.402 . S
C686 N685 1.397 . S
C687 H668 0.929 . S
C687 C684 1.404 1_455 S
C687 N685 1.334 . S
C688 H680 0.930 . S
C688 C683 1.405 1_655 S
C688 C684 1.353 . S
C689 H659 0.930 . S
C689 N690 1.330 . S
C689 C691 1.446 . S
N690 Co649 2.151 . S
N690 C689 1.330 . S
N690 C694 1.418 . S
C691 H670 0.929 . S
C691 C689 1.446 . S
C691 C692 1.332 . S
C692 H672 0.931 . S
C692 C691 1.332 . S
C692 C693 1.267 . S
C693 H661 0.929 . S
C693 C692 1.267 . S
C693 C694 1.251 . S
C694 H664 0.929 . S
C694 N690 1.418 . S
C694 C693 1.251 . S
C695 H662 0.930 . S
C695 C697 1.406 . S
C695 C700 1.261 . S
C696 H663 0.930 . S
C696 N698 1.325 . S
C696 C699 1.357 . S
C697 H665 0.928 . S
C697 C695 1.406 . S
C697 N698 1.261 . S
N698 Co649 2.214 . S
N698 C696 1.325 . S
N698 C697 1.261 . S
C699 H669 0.931 . S
C699 C696 1.357 . S
C699 C700 1.312 . S
C700 H671 0.930 . S
C700 C695 1.261 . S
C700 C699 1.312 . S
C701 O673 1.214 . S
C701 O681 1.234 . S
C702 H674 0.929 . S
C702 C705 1.391 1_455 S
C702 C707 1.391 . S
C703 H675 0.929 . S
C703 C704 1.390 1_455 S
C703 N706 1.391 . S
C704 H676 0.930 . S
C704 C703 1.390 1_655 S
C704 C705 1.392 . S
C705 H677 0.929 . S
C705 C702 1.391 1_655 S
C705 C704 1.392 . S
N706 Co650 2.257 . S
N706 C703 1.391 . S
N706 C707 1.388 . S
C707 H678 0.930 . S
C707 C702 1.391 . S
C707 N706 1.388 . S
Co708 O710 2.143 . S
Co708 O716 2.074 . S
Co708 O719 2.093 . S
Co708 O732 2.097 . S
Co708 N749 2.151 . S
Co708 N757 2.214 . S
Co709 O710 2.160 . S
Co709 O715 2.058 . S
Co709 O725 2.057 . S
Co709 O740 2.037 . S
Co709 N744 2.145 . S
Co709 N765 2.257 . S
O710 Co708 2.143 . S
O710 Co709 2.160 . S
C711 O712 1.278 . S
C711 O719 1.224 . S
O712 C711 1.278 . S
C713 O714 1.245 . S
C713 O725 1.232 . S
O714 C713 1.245 . S
O715 Co709 2.058 . S
O715 C741 1.269 . S
O716 Co708 2.074 . S
O716 C741 1.257 . S
H717 C742 0.929 1_545 S
H718 C748 0.930 . S
O719 Co708 2.093 . S
O719 C711 1.224 . S
H720 C752 0.929 . S
H721 C754 0.930 . S
H722 C755 0.930 . S
H723 C753 0.929 . S
H724 C756 0.928 . S
O725 Co709 2.057 . S
O725 C713 1.232 . S
H726 C745 0.929 . S
H727 C746 0.929 . S
H728 C758 0.931 . S
H729 C750 0.929 . S
H730 C759 0.930 . S
H731 C751 0.931 . S
O732 Co708 2.097 . S
O732 C760 1.214 . S
H733 C761 0.929 . S
H734 C762 0.929 . S
H735 C763 0.930 . S
H736 C764 0.929 . S
H737 C766 0.930 . S
H738 C743 0.930 . S
H739 C747 0.930 . S
O740 Co709 2.037 . S
O740 C760 1.234 . S
C741 O715 1.269 . S
C741 O716 1.257 . S
C742 H717 0.929 1_565 S
C742 C745 1.402 . S
C742 C747 1.405 1_565 S
C743 H738 0.930 . S
C743 C746 1.404 1_545 S
C743 C747 1.353 . S
N744 Co709 2.145 . S
N744 C745 1.397 . S
N744 C746 1.334 . S
C745 H726 0.929 . S
C745 C742 1.402 . S
C745 N744 1.397 . S
C746 H727 0.929 . S
C746 C743 1.404 1_565 S
C746 N744 1.334 . S
C747 H739 0.930 . S
C747 C742 1.405 1_545 S
C747 C743 1.353 . S
C748 H718 0.930 . S
C748 N749 1.330 . S
C748 C750 1.446 . S
N749 Co708 2.151 . S
N749 C748 1.330 . S
N749 C753 1.418 . S
C750 H729 0.929 . S
C750 C748 1.446 . S
C750 C751 1.332 . S
C751 H731 0.931 . S
C751 C750 1.332 . S
C751 C752 1.267 . S
C752 H720 0.929 . S
C752 C751 1.267 . S
C752 C753 1.251 . S
C753 H723 0.929 . S
C753 N749 1.418 . S
C753 C752 1.251 . S
C754 H721 0.930 . S
C754 C756 1.406 . S
C754 C759 1.261 . S
C755 H722 0.930 . S
C755 N757 1.325 . S
C755 C758 1.357 . S
C756 H724 0.928 . S
C756 C754 1.406 . S
C756 N757 1.261 . S
N757 Co708 2.214 . S
N757 C755 1.325 . S
N757 C756 1.261 . S
C758 H728 0.931 . S
C758 C755 1.357 . S
C758 C759 1.312 . S
C759 H730 0.930 . S
C759 C754 1.261 . S
C759 C758 1.312 . S
C760 O732 1.214 . S
C760 O740 1.234 . S
C761 H733 0.929 . S
C761 C764 1.391 1_565 S
C761 C766 1.391 . S
C762 H734 0.929 . S
C762 C763 1.390 1_565 S
C762 N765 1.391 . S
C763 H735 0.930 . S
C763 C762 1.390 1_545 S
C763 C764 1.392 . S
C764 H736 0.929 . S
C764 C761 1.391 1_545 S
C764 C763 1.392 . S
N765 Co709 2.257 . S
N765 C762 1.391 . S
N765 C766 1.388 . S
C766 H737 0.930 . S
C766 C761 1.391 . S
C766 N765 1.388 . S
Co767 O769 2.143 . S
Co767 O775 2.074 . S
Co767 O778 2.093 . S
Co767 O791 2.097 . S
Co767 N808 2.151 . S
Co767 N816 2.214 . S
Co768 O769 2.160 . S
Co768 O774 2.058 . S
Co768 O784 2.057 . S
Co768 O799 2.037 . S
Co768 N803 2.145 . S
Co768 N824 2.257 . S
O769 Co767 2.143 . S
O769 Co768 2.160 . S
C770 O771 1.278 . S
C770 O778 1.224 . S
O771 C770 1.278 . S
C772 O773 1.245 . S
C772 O784 1.232 . S
O773 C772 1.245 . S
O774 Co768 2.058 . S
O774 C800 1.269 . S
O775 Co767 2.074 . S
O775 C800 1.257 . S
H776 C801 0.929 1_655 S
H777 C807 0.930 . S
O778 Co767 2.093 . S
O778 C770 1.224 . S
H779 C811 0.929 . S
H780 C813 0.930 . S
H781 C814 0.930 . S
H782 C812 0.929 . S
H783 C815 0.928 . S
O784 Co768 2.057 . S
O784 C772 1.232 . S
H785 C804 0.929 . S
H786 C805 0.929 . S
H787 C817 0.931 . S
H788 C809 0.929 . S
H789 C818 0.930 . S
H790 C810 0.931 . S
O791 Co767 2.097 . S
O791 C819 1.214 . S
H792 C820 0.929 . S
H793 C821 0.929 . S
H794 C822 0.930 . S
H795 C823 0.929 . S
H796 C825 0.930 . S
H797 C802 0.930 . S
H798 C806 0.930 . S
O799 Co768 2.037 . S
O799 C819 1.234 . S
C800 O774 1.269 . S
C800 O775 1.257 . S
C801 H776 0.929 1_455 S
C801 C804 1.401 . S
C801 C806 1.405 1_455 S
C802 H797 0.930 . S
C802 C805 1.404 1_655 S
C802 C806 1.353 . S
N803 Co768 2.145 . S
N803 C804 1.397 . S
N803 C805 1.334 . S
C804 H785 0.929 . S
C804 C801 1.401 . S
C804 N803 1.397 . S
C805 H786 0.929 . S
C805 C802 1.404 1_455 S
C805 N803 1.334 . S
C806 H798 0.930 . S
C806 C801 1.405 1_655 S
C806 C802 1.353 . S
C807 H777 0.930 . S
C807 N808 1.330 . S
C807 C809 1.446 . S
N808 Co767 2.151 . S
N808 C807 1.330 . S
N808 C812 1.418 . S
C809 H788 0.929 . S
C809 C807 1.446 . S
C809 C810 1.332 . S
C810 H790 0.931 . S
C810 C809 1.332 . S
C810 C811 1.267 . S
C811 H779 0.929 . S
C811 C810 1.267 . S
C811 C812 1.251 . S
C812 H782 0.929 . S
C812 N808 1.418 . S
C812 C811 1.251 . S
C813 H780 0.930 . S
C813 C815 1.406 . S
C813 C818 1.261 . S
C814 H781 0.930 . S
C814 N816 1.325 . S
C814 C817 1.357 . S
C815 H783 0.928 . S
C815 C813 1.406 . S
C815 N816 1.261 . S
N816 Co767 2.214 . S
N816 C814 1.325 . S
N816 C815 1.261 . S
C817 H787 0.931 . S
C817 C814 1.357 . S
C817 C818 1.312 . S
C818 H789 0.930 . S
C818 C813 1.261 . S
C818 C817 1.312 . S
C819 O791 1.214 . S
C819 O799 1.234 . S
C820 H792 0.929 . S
C820 C823 1.391 1_455 S
C820 C825 1.391 . S
C821 H793 0.929 . S
C821 C822 1.390 1_455 S
C821 N824 1.391 . S
C822 H794 0.930 . S
C822 C821 1.390 1_655 S
C822 C823 1.392 . S
C823 H795 0.929 . S
C823 C820 1.391 1_655 S
C823 C822 1.392 . S
N824 Co768 2.257 . S
N824 C821 1.391 . S
N824 C825 1.388 . S
C825 H796 0.930 . S
C825 C820 1.391 . S
C825 N824 1.388 . S
Co826 O828 2.143 . S
Co826 O834 2.074 . S
Co826 O837 2.093 . S
Co826 O850 2.097 . S
Co826 N867 2.151 . S
Co826 N875 2.214 . S
Co827 O828 2.160 . S
Co827 O833 2.058 . S
Co827 O843 2.057 . S
Co827 O858 2.037 . S
Co827 N862 2.145 . S
Co827 N883 2.257 . S
O828 Co826 2.143 . S
O828 Co827 2.160 . S
C829 O830 1.278 . S
C829 O837 1.224 . S
O830 C829 1.278 . S
C831 O832 1.245 . S
C831 O843 1.232 . S
O832 C831 1.245 . S
O833 Co827 2.058 . S
O833 C859 1.269 . S
O834 Co826 2.074 . S
O834 C859 1.257 . S
H835 C860 0.930 . S
H836 C866 0.930 . S
O837 Co826 2.093 . S
O837 C829 1.224 . S
H838 C870 0.929 . S
H839 C872 0.930 . S
H840 C873 0.930 . S
H841 C871 0.929 . S
H842 C874 0.928 . S
O843 Co827 2.057 . S
O843 C831 1.232 . S
H844 C863 0.929 . S
H845 C864 0.929 . S
H846 C876 0.931 . S
H847 C868 0.929 . S
H848 C877 0.930 . S
H849 C869 0.931 . S
O850 Co826 2.097 . S
O850 C878 1.214 . S
H851 C879 0.929 . S
H852 C880 0.929 . S
H853 C881 0.930 . S
H854 C882 0.929 . S
H855 C884 0.930 . S
H856 C861 0.930 . S
H857 C865 0.930 . S
O858 Co827 2.037 . S
O858 C878 1.234 . S
C859 O833 1.269 . S
C859 O834 1.257 . S
C860 H835 0.930 . S
C860 C863 1.388 . S
C860 C865 1.418 . S
C861 H856 0.930 . S
C861 C864 1.404 . S
C861 C865 1.353 . S
N862 Co827 2.145 . S
N862 C863 1.397 . S
N862 C864 1.334 . S
C863 H844 0.929 . S
C863 C860 1.388 . S
C863 N862 1.397 . S
C864 H845 0.929 . S
C864 C861 1.404 . S
C864 N862 1.334 . S
C865 H857 0.930 . S
C865 C860 1.418 . S
C865 C861 1.353 . S
C866 H836 0.930 . S
C866 N867 1.330 . S
C866 C868 1.446 . S
N867 Co826 2.151 . S
N867 C866 1.330 . S
N867 C871 1.418 . S
C868 H847 0.929 . S
C868 C866 1.446 . S
C868 C869 1.332 . S
C869 H849 0.931 . S
C869 C868 1.332 . S
C869 C870 1.267 . S
C870 H838 0.929 . S
C870 C869 1.267 . S
C870 C871 1.251 . S
C871 H841 0.929 . S
C871 N867 1.418 . S
C871 C870 1.251 . S
C872 H839 0.930 . S
C872 C874 1.406 . S
C872 C877 1.261 . S
C873 H840 0.930 . S
C873 N875 1.325 . S
C873 C876 1.357 . S
C874 H842 0.928 . S
C874 C872 1.406 . S
C874 N875 1.261 . S
N875 Co826 2.214 . S
N875 C873 1.325 . S
N875 C874 1.261 . S
C876 H846 0.931 . S
C876 C873 1.357 . S
C876 C877 1.312 . S
C877 H848 0.930 . S
C877 C872 1.261 . S
C877 C876 1.312 . S
C878 O850 1.214 . S
C878 O858 1.234 . S
C879 H851 0.929 . S
C879 C882 1.391 . S
C879 C884 1.391 . S
C880 H852 0.929 . S
C880 C881 1.390 . S
C880 N883 1.391 . S
C881 H853 0.930 . S
C881 C880 1.390 . S
C881 C882 1.392 . S
C882 H854 0.929 . S
C882 C879 1.391 . S
C882 C881 1.392 . S
N883 Co827 2.257 . S
N883 C880 1.391 . S
N883 C884 1.388 . S
C884 H855 0.930 . S
C884 C879 1.391 . S
C884 N883 1.388 . S
Co885 O887 2.143 . S
Co885 O893 2.074 . S
Co885 O896 2.093 . S
Co885 O909 2.097 . S
Co885 N926 2.151 . S
Co885 N934 2.214 . S
Co886 O887 2.160 . S
Co886 O892 2.058 . S
Co886 O902 2.057 . S
Co886 O917 2.037 . S
Co886 N921 2.145 . S
Co886 N942 2.257 . S
O887 Co885 2.143 . S
O887 Co886 2.160 . S
C888 O889 1.278 . S
C888 O896 1.224 . S
O889 C888 1.278 . S
C890 O891 1.245 . S
C890 O902 1.232 . S
O891 C890 1.245 . S
O892 Co886 2.058 . S
O892 C918 1.269 . S
O893 Co885 2.074 . S
O893 C918 1.257 . S
H894 C919 0.930 . S
H895 C925 0.930 . S
O896 Co885 2.093 . S
O896 C888 1.224 . S
H897 C929 0.929 . S
H898 C931 0.930 . S
H899 C932 0.930 . S
H900 C930 0.929 . S
H901 C933 0.928 . S
O902 Co886 2.057 . S
O902 C890 1.232 . S
H903 C922 0.929 . S
H904 C923 0.929 . S
H905 C935 0.931 . S
H906 C927 0.929 . S
H907 C936 0.930 . S
H908 C928 0.931 . S
O909 Co885 2.097 . S
O909 C937 1.214 . S
H910 C938 0.929 . S
H911 C939 0.929 . S
H912 C940 0.930 . S
H913 C941 0.929 . S
H914 C943 0.930 . S
H915 C920 0.930 . S
H916 C924 0.930 . S
O917 Co886 2.037 . S
O917 C937 1.234 . S
C918 O892 1.269 . S
C918 O893 1.257 . S
C919 H894 0.930 . S
C919 C922 1.388 . S
C919 C924 1.418 . S
C920 H915 0.930 . S
C920 C923 1.404 . S
C920 C924 1.353 . S
N921 Co886 2.145 . S
N921 C922 1.397 . S
N921 C923 1.334 . S
C922 H903 0.929 . S
C922 C919 1.388 . S
C922 N921 1.397 . S
C923 H904 0.929 . S
C923 C920 1.404 . S
C923 N921 1.334 . S
C924 H916 0.930 . S
C924 C919 1.418 . S
C924 C920 1.353 . S
C925 H895 0.930 . S
C925 N926 1.330 . S
C925 C927 1.446 . S
N926 Co885 2.151 . S
N926 C925 1.330 . S
N926 C930 1.418 . S
C927 H906 0.929 . S
C927 C925 1.446 . S
C927 C928 1.332 . S
C928 H908 0.931 . S
C928 C927 1.332 . S
C928 C929 1.267 . S
C929 H897 0.929 . S
C929 C928 1.267 . S
C929 C930 1.251 . S
C930 H900 0.929 . S
C930 N926 1.418 . S
C930 C929 1.251 . S
C931 H898 0.930 . S
C931 C933 1.406 . S
C931 C936 1.261 . S
C932 H899 0.930 . S
C932 N934 1.325 . S
C932 C935 1.357 . S
C933 H901 0.928 . S
C933 C931 1.406 . S
C933 N934 1.261 . S
N934 Co885 2.214 . S
N934 C932 1.325 . S
N934 C933 1.261 . S
C935 H905 0.931 . S
C935 C932 1.357 . S
C935 C936 1.312 . S
C936 H907 0.930 . S
C936 C931 1.261 . S
C936 C935 1.312 . S
C937 O909 1.214 . S
C937 O917 1.234 . S
C938 H910 0.929 . S
C938 C941 1.391 . S
C938 C943 1.391 . S
C939 H911 0.929 . S
C939 C940 1.390 . S
C939 N942 1.391 . S
C940 H912 0.930 . S
C940 C939 1.390 . S
C940 C941 1.392 . S
C941 H913 0.929 . S
C941 C938 1.391 . S
C941 C940 1.392 . S
N942 Co886 2.257 . S
N942 C939 1.391 . S
N942 C943 1.388 . S
C943 H914 0.930 . S
C943 C938 1.391 . S
C943 N942 1.388 . S
H944 C962 0.951 . S
H945 C964 0.951 . S
H946 C966 0.950 1_545 S
H947 C967 0.950 . S
H948 C969 0.950 . S
H949 C972 0.950 . S
H950 C973 0.950 . S
H951 C975 0.950 . S
H952 C976 0.950 . S
H953 C977 0.951 . S
H954 C979 0.951 . S
H955 C981 0.950 1_565 S
H956 C982 0.950 . S
H957 C984 0.950 . S
H958 C987 0.950 . S
H959 C988 0.950 . S
H960 C990 0.950 . S
H961 C991 0.950 . S
C962 H944 0.951 . S
C962 C963 1.366 . S
C962 C964 1.388 . S
C963 C962 1.366 . S
C963 C967 1.385 . S
C964 H945 0.951 . S
C964 C962 1.388 . S
C964 C965 1.366 . S
C965 C964 1.366 . S
C965 C966 1.414 . S
C965 C968 1.499 . S
C966 H946 0.950 1_565 S
C966 C965 1.414 . S
C966 C967 1.374 . S
C967 H947 0.950 . S
C967 C963 1.385 . S
C967 C966 1.374 . S
C968 C965 1.499 . S
C968 C969 1.373 1_565 S
C968 C970 1.389 . S
C969 H948 0.950 . S
C969 C968 1.373 1_545 S
C969 C985 1.377 1_655 S
C970 C968 1.389 . S
C970 C971 1.524 . S
C970 C984 1.377 1_655 S
C971 C970 1.524 . S
C971 C972 1.397 . S
C971 C976 1.363 1_655 S
C972 H949 0.950 . S
C972 C971 1.397 . S
C972 C973 1.334 . S
C973 H950 0.950 . S
C973 C972 1.334 . S
C973 C974 1.287 . S
C974 C973 1.287 . S
C974 C975 1.524 1_655 S
C974 H993 0.913 . S
C975 H951 0.950 . S
C975 C974 1.524 1_455 S
C975 C976 1.415 . S
C976 H952 0.950 . S
C976 C971 1.363 1_455 S
C976 C975 1.415 . S
C977 H953 0.951 . S
C977 C978 1.366 . S
C977 C979 1.388 . S
C978 C977 1.366 . S
C978 C982 1.385 . S
C979 H954 0.951 . S
C979 C977 1.388 . S
C979 C980 1.366 . S
C980 C979 1.366 . S
C980 C981 1.414 . S
C980 C983 1.499 . S
C981 H955 0.950 1_545 S
C981 C980 1.414 . S
C981 C982 1.374 . S
C982 H956 0.950 . S
C982 C978 1.385 . S
C982 C981 1.374 . S
C983 C980 1.499 . S
C983 C984 1.373 1_545 S
C983 C985 1.389 . S
C984 H957 0.950 . S
C984 C970 1.377 1_455 S
C984 C983 1.373 1_565 S
C985 C969 1.377 1_455 S
C985 C983 1.389 . S
C985 C986 1.524 . S
C986 C985 1.524 . S
C986 C987 1.397 . S
C986 C991 1.363 1_455 S
C987 H958 0.950 . S
C987 C986 1.397 . S
C987 C988 1.334 . S
C988 H959 0.950 . S
C988 C987 1.334 . S
C988 C989 1.287 . S
C989 C988 1.287 . S
C989 C990 1.524 1_455 S
C989 H992 0.999 . S
C990 H960 0.950 . S
C990 C989 1.524 1_655 S
C990 C991 1.415 . S
C991 H961 0.950 . S
C991 C986 1.363 1_655 S
C991 C990 1.415 . S
H992 C989 0.999 . S
H993 C974 0.913 . S
H994 C1012 0.951 . S
H995 C1014 0.951 . S
H996 C1016 0.950 1_455 S
H997 C1017 0.950 . S
H998 C1019 0.950 . S
H999 C1022 0.950 . S
H1000 C1023 0.950 . S
H1001 C1025 0.950 . S
H1002 C1026 0.950 . S
H1003 C1027 0.951 . S
H1004 C1029 0.951 . S
H1005 C1031 0.950 1_655 S
H1006 C1032 0.950 . S
H1007 C1034 0.950 . S
H1008 C1037 0.950 . S
H1009 C1038 0.950 . S
H1010 C1040 0.950 . S
H1011 C1041 0.950 . S
C1012 H994 0.951 . S
C1012 C1013 1.366 . S
C1012 C1014 1.388 . S
C1013 C1012 1.366 . S
C1013 C1017 1.385 . S
C1014 H995 0.951 . S
C1014 C1012 1.388 . S
C1014 C1015 1.366 . S
C1015 C1014 1.366 . S
C1015 C1016 1.414 . S
C1015 C1018 1.499 . S
C1016 H996 0.950 1_655 S
C1016 C1015 1.414 . S
C1016 C1017 1.374 . S
C1017 H997 0.950 . S
C1017 C1013 1.385 . S
C1017 C1016 1.374 . S
C1018 C1015 1.499 . S
C1018 C1019 1.373 1_655 S
C1018 C1020 1.389 . S
C1019 H998 0.950 . S
C1019 C1018 1.373 1_455 S
C1019 C1035 1.377 . S
C1020 C1018 1.389 . S
C1020 C1021 1.524 . S
C1020 C1034 1.377 . S
C1021 C1020 1.524 . S
C1021 C1022 1.397 . S
C1021 C1026 1.363 . S
C1022 H999 0.950 . S
C1022 C1021 1.397 . S
C1022 C1023 1.334 . S
C1023 H1000 0.950 . S
C1023 C1022 1.334 . S
C1023 C1024 1.287 . S
C1024 C1023 1.287 . S
C1024 C1025 1.524 . S
C1024 H1043 0.913 . S
C1025 H1001 0.950 . S
C1025 C1024 1.524 . S
C1025 C1026 1.415 . S
C1026 H1002 0.950 . S
C1026 C1021 1.363 . S
C1026 C1025 1.415 . S
C1027 H1003 0.951 . S
C1027 C1028 1.366 . S
C1027 C1029 1.388 . S
C1028 C1027 1.366 . S
C1028 C1032 1.385 . S
C1029 H1004 0.951 . S
C1029 C1027 1.388 . S
C1029 C1030 1.366 . S
C1030 C1029 1.366 . S
C1030 C1031 1.414 . S
C1030 C1033 1.499 . S
C1031 H1005 0.950 1_455 S
C1031 C1030 1.414 . S
C1031 C1032 1.374 . S
C1032 H1006 0.950 . S
C1032 C1028 1.385 . S
C1032 C1031 1.374 . S
C1033 C1030 1.499 . S
C1033 C1034 1.373 1_455 S
C1033 C1035 1.389 . S
C1034 H1007 0.950 . S
C1034 C1020 1.377 . S
C1034 C1033 1.373 1_655 S
C1035 C1019 1.377 . S
C1035 C1033 1.389 . S
C1035 C1036 1.524 . S
C1036 C1035 1.524 . S
C1036 C1037 1.397 . S
C1036 C1041 1.363 . S
C1037 H1008 0.950 . S
C1037 C1036 1.397 . S
C1037 C1038 1.334 . S
C1038 H1009 0.950 . S
C1038 C1037 1.334 . S
C1038 C1039 1.287 . S
C1039 C1038 1.287 . S
C1039 C1040 1.524 . S
C1039 H1042 0.999 . S
C1040 H1010 0.950 . S
C1040 C1039 1.524 . S
C1040 C1041 1.415 . S
C1041 H1011 0.950 . S
C1041 C1036 1.363 . S
C1041 C1040 1.415 . S
H1042 C1039 0.999 . S
H1043 C1024 0.913 . S
H1044 C1062 0.951 . S
H1045 C1064 0.951 . S
H1046 C1066 0.950 . S
H1047 C1067 0.950 . S
H1048 C1069 0.950 . S
H1049 C1072 0.950 . S
H1050 C1073 0.950 . S
H1051 C1075 0.950 . S
H1052 C1076 0.950 . S
H1053 C1077 0.951 . S
H1054 C1079 0.951 . S
H1055 C1081 0.950 . S
H1056 C1082 0.950 . S
H1057 C1084 0.950 . S
H1058 C1087 0.950 . S
H1059 C1088 0.950 . S
H1060 C1090 0.950 . S
H1061 C1091 0.950 . S
C1062 H1044 0.951 . S
C1062 C1063 1.366 . S
C1062 C1064 1.388 . S
C1063 C1062 1.366 . S
C1063 C1067 1.385 . S
C1064 H1045 0.951 . S
C1064 C1062 1.388 . S
C1064 C1065 1.366 . S
C1065 C1064 1.366 . S
C1065 C1066 1.414 . S
C1065 C1068 1.499 . S
C1066 H1046 0.950 . S
C1066 C1065 1.414 . S
C1066 C1067 1.374 . S
C1067 H1047 0.950 . S
C1067 C1063 1.385 . S
C1067 C1066 1.374 . S
C1068 C1065 1.499 . S
C1068 C1069 1.373 . S
C1068 C1070 1.389 . S
C1069 H1048 0.950 . S
C1069 C1068 1.373 . S
C1069 C1085 1.377 . S
C1070 C1068 1.389 . S
C1070 C1071 1.524 . S
C1070 C1084 1.377 . S
C1071 C1070 1.524 . S
C1071 C1072 1.397 . S
C1071 C1076 1.363 . S
C1072 H1049 0.950 . S
C1072 C1071 1.397 . S
C1072 C1073 1.334 . S
C1073 H1050 0.950 . S
C1073 C1072 1.334 . S
C1073 C1074 1.287 . S
C1074 C1073 1.287 . S
C1074 C1075 1.524 . S
C1074 H1093 0.913 . S
C1075 H1051 0.950 . S
C1075 C1074 1.524 . S
C1075 C1076 1.415 . S
C1076 H1052 0.950 . S
C1076 C1071 1.363 . S
C1076 C1075 1.415 . S
C1077 H1053 0.951 . S
C1077 C1078 1.366 . S
C1077 C1079 1.388 . S
C1078 C1077 1.366 . S
C1078 C1082 1.385 . S
C1079 H1054 0.951 . S
C1079 C1077 1.388 . S
C1079 C1080 1.366 . S
C1080 C1079 1.366 . S
C1080 C1081 1.414 . S
C1080 C1083 1.499 . S
C1081 H1055 0.950 . S
C1081 C1080 1.414 . S
C1081 C1082 1.374 . S
C1082 H1056 0.950 . S
C1082 C1078 1.385 . S
C1082 C1081 1.374 . S
C1083 C1080 1.499 . S
C1083 C1084 1.373 . S
C1083 C1085 1.389 . S
C1084 H1057 0.950 . S
C1084 C1070 1.377 . S
C1084 C1083 1.373 . S
C1085 C1069 1.377 . S
C1085 C1083 1.389 . S
C1085 C1086 1.524 . S
C1086 C1085 1.524 . S
C1086 C1087 1.397 . S
C1086 C1091 1.363 . S
C1087 H1058 0.950 . S
C1087 C1086 1.397 . S
C1087 C1088 1.334 . S
C1088 H1059 0.950 . S
C1088 C1087 1.334 . S
C1088 C1089 1.287 . S
C1089 C1088 1.287 . S
C1089 C1090 1.524 . S
C1089 H1092 0.999 . S
C1090 H1060 0.950 . S
C1090 C1089 1.524 . S
C1090 C1091 1.415 . S
C1091 H1061 0.950 . S
C1091 C1086 1.363 . S
C1091 C1090 1.415 . S
H1092 C1089 0.999 . S
H1093 C1074 0.913 . S
H1094 C1112 0.951 . S
H1095 C1114 0.951 . S
H1096 C1116 0.950 . S
H1097 C1117 0.950 . S
H1098 C1119 0.950 . S
H1099 C1122 0.950 . S
H1100 C1123 0.950 . S
H1101 C1125 0.950 . S
H1102 C1126 0.950 . S
H1103 C1127 0.951 . S
H1104 C1129 0.951 . S
H1105 C1131 0.950 . S
H1106 C1132 0.950 . S
H1107 C1134 0.950 . S
H1108 C1137 0.950 . S
H1109 C1138 0.950 . S
H1110 C1140 0.950 . S
H1111 C1141 0.950 . S
C1112 H1094 0.951 . S
C1112 C1113 1.366 . S
C1112 C1114 1.388 . S
C1113 C1112 1.366 . S
C1113 C1117 1.385 . S
C1114 H1095 0.951 . S
C1114 C1112 1.388 . S
C1114 C1115 1.366 . S
C1115 C1114 1.366 . S
C1115 C1116 1.414 . S
C1115 C1118 1.499 . S
C1116 H1096 0.950 . S
C1116 C1115 1.414 . S
C1116 C1117 1.374 . S
C1117 H1097 0.950 . S
C1117 C1113 1.385 . S
C1117 C1116 1.374 . S
C1118 C1115 1.499 . S
C1118 C1119 1.373 . S
C1118 C1120 1.389 . S
C1119 H1098 0.950 . S
C1119 C1118 1.373 . S
C1119 C1135 1.377 1_545 S
C1120 C1118 1.389 . S
C1120 C1121 1.524 . S
C1120 C1134 1.377 1_545 S
C1121 C1120 1.524 . S
C1121 C1122 1.397 . S
C1121 C1126 1.363 1_545 S
C1122 H1099 0.950 . S
C1122 C1121 1.397 . S
C1122 C1123 1.334 . S
C1123 H1100 0.950 . S
C1123 C1122 1.334 . S
C1123 C1124 1.287 . S
C1124 C1123 1.287 . S
C1124 C1125 1.524 1_545 S
C1124 H1143 0.913 . S
C1125 H1101 0.950 . S
C1125 C1124 1.524 1_565 S
C1125 C1126 1.415 . S
C1126 H1102 0.950 . S
C1126 C1121 1.363 1_565 S
C1126 C1125 1.415 . S
C1127 H1103 0.951 . S
C1127 C1128 1.366 . S
C1127 C1129 1.388 . S
C1128 C1127 1.366 . S
C1128 C1132 1.385 . S
C1129 H1104 0.951 . S
C1129 C1127 1.388 . S
C1129 C1130 1.366 . S
C1130 C1129 1.366 . S
C1130 C1131 1.414 . S
C1130 C1133 1.499 . S
C1131 H1105 0.950 . S
C1131 C1130 1.414 . S
C1131 C1132 1.374 . S
C1132 H1106 0.950 . S
C1132 C1128 1.385 . S
C1132 C1131 1.374 . S
C1133 C1130 1.499 . S
C1133 C1134 1.373 . S
C1133 C1135 1.389 . S
C1134 H1107 0.950 . S
C1134 C1120 1.377 1_565 S
C1134 C1133 1.373 . S
C1135 C1119 1.377 1_565 S
C1135 C1133 1.389 . S
C1135 C1136 1.524 . S
C1136 C1135 1.524 . S
C1136 C1137 1.397 . S
C1136 C1141 1.363 1_565 S
C1137 H1108 0.950 . S
C1137 C1136 1.397 . S
C1137 C1138 1.334 . S
C1138 H1109 0.950 . S
C1138 C1137 1.334 . S
C1138 C1139 1.287 . S
C1139 C1138 1.287 . S
C1139 C1140 1.524 1_565 S
C1139 H1142 0.999 . S
C1140 H1110 0.950 . S
C1140 C1139 1.524 1_545 S
C1140 C1141 1.415 . S
C1141 H1111 0.950 . S
C1141 C1136 1.363 1_545 S
C1141 C1140 1.415 . S
H1142 C1139 0.999 . S
H1143 C1124 0.913 . S
H1144 C1162 0.951 . S
H1145 C1164 0.951 . S
H1146 C1166 0.950 . S
H1147 C1167 0.950 . S
H1148 C1169 0.950 . S
H1149 C1172 0.950 . S
H1150 C1173 0.950 . S
H1151 C1175 0.950 . S
H1152 C1176 0.950 . S
H1153 C1177 0.951 . S
H1154 C1179 0.951 . S
H1155 C1181 0.950 . S
H1156 C1182 0.950 . S
H1157 C1184 0.950 . S
H1158 C1187 0.950 . S
H1159 C1188 0.950 . S
H1160 C1190 0.950 . S
H1161 C1191 0.950 . S
C1162 H1144 0.951 . S
C1162 C1163 1.366 . S
C1162 C1164 1.388 . S
C1163 C1162 1.366 . S
C1163 C1167 1.385 . S
C1164 H1145 0.951 . S
C1164 C1162 1.388 . S
C1164 C1165 1.366 . S
C1165 C1164 1.366 . S
C1165 C1166 1.414 . S
C1165 C1168 1.499 . S
C1166 H1146 0.950 . S
C1166 C1165 1.414 . S
C1166 C1167 1.374 . S
C1167 H1147 0.950 . S
C1167 C1163 1.385 . S
C1167 C1166 1.374 . S
C1168 C1165 1.499 . S
C1168 C1169 1.373 . S
C1168 C1170 1.389 . S
C1169 H1148 0.950 . S
C1169 C1168 1.373 . S
C1169 C1185 1.377 1_455 S
C1170 C1168 1.389 . S
C1170 C1171 1.524 . S
C1170 C1184 1.377 1_455 S
C1171 C1170 1.524 . S
C1171 C1172 1.397 . S
C1171 C1176 1.363 . S
C1172 H1149 0.950 . S
C1172 C1171 1.397 . S
C1172 C1173 1.334 . S
C1173 H1150 0.950 . S
C1173 C1172 1.334 . S
C1173 C1174 1.287 . S
C1174 C1173 1.287 . S
C1174 C1175 1.524 . S
C1174 H1193 0.913 . S
C1175 H1151 0.950 . S
C1175 C1174 1.524 . S
C1175 C1176 1.415 . S
C1176 H1152 0.950 . S
C1176 C1171 1.363 . S
C1176 C1175 1.415 . S
C1177 H1153 0.951 . S
C1177 C1178 1.366 . S
C1177 C1179 1.388 . S
C1178 C1177 1.366 . S
C1178 C1182 1.385 . S
C1179 H1154 0.951 . S
C1179 C1177 1.388 . S
C1179 C1180 1.366 . S
C1180 C1179 1.366 . S
C1180 C1181 1.414 . S
C1180 C1183 1.499 . S
C1181 H1155 0.950 . S
C1181 C1180 1.414 . S
C1181 C1182 1.374 . S
C1182 H1156 0.950 . S
C1182 C1178 1.385 . S
C1182 C1181 1.374 . S
C1183 C1180 1.499 . S
C1183 C1184 1.373 . S
C1183 C1185 1.389 . S
C1184 H1157 0.950 . S
C1184 C1170 1.377 1_655 S
C1184 C1183 1.373 . S
C1185 C1169 1.377 1_655 S
C1185 C1183 1.389 . S
C1185 C1186 1.524 . S
C1186 C1185 1.524 . S
C1186 C1187 1.397 . S
C1186 C1191 1.363 . S
C1187 H1158 0.950 . S
C1187 C1186 1.397 . S
C1187 C1188 1.334 . S
C1188 H1159 0.950 . S
C1188 C1187 1.334 . S
C1188 C1189 1.287 . S
C1189 C1188 1.287 . S
C1189 C1190 1.524 . S
C1189 H1192 0.999 . S
C1190 H1160 0.950 . S
C1190 C1189 1.524 . S
C1190 C1191 1.415 . S
C1191 H1161 0.950 . S
C1191 C1186 1.363 . S
C1191 C1190 1.415 . S
H1192 C1189 0.999 . S
H1193 C1174 0.913 . S
H1194 C1212 0.951 . S
H1195 C1214 0.951 . S
H1196 C1216 0.950 . S
H1197 C1217 0.950 . S
H1198 C1219 0.950 . S
H1199 C1222 0.950 . S
H1200 C1223 0.950 . S
H1201 C1225 0.950 . S
H1202 C1226 0.950 . S
H1203 C1227 0.951 . S
H1204 C1229 0.951 . S
H1205 C1231 0.950 . S
H1206 C1232 0.950 . S
H1207 C1234 0.950 . S
H1208 C1237 0.950 . S
H1209 C1238 0.950 . S
H1210 C1240 0.950 . S
H1211 C1241 0.950 . S
C1212 H1194 0.951 . S
C1212 C1213 1.366 . S
C1212 C1214 1.388 . S
C1213 C1212 1.366 . S
C1213 C1217 1.385 . S
C1214 H1195 0.951 . S
C1214 C1212 1.388 . S
C1214 C1215 1.366 . S
C1215 C1214 1.366 . S
C1215 C1216 1.414 . S
C1215 C1218 1.499 . S
C1216 H1196 0.950 . S
C1216 C1215 1.414 . S
C1216 C1217 1.374 . S
C1217 H1197 0.950 . S
C1217 C1213 1.385 . S
C1217 C1216 1.374 . S
C1218 C1215 1.499 . S
C1218 C1219 1.373 . S
C1218 C1220 1.389 . S
C1219 H1198 0.950 . S
C1219 C1218 1.373 . S
C1219 C1235 1.377 . S
C1220 C1218 1.389 . S
C1220 C1221 1.524 . S
C1220 C1234 1.377 . S
C1221 C1220 1.524 . S
C1221 C1222 1.397 . S
C1221 C1226 1.363 . S
C1222 H1199 0.950 . S
C1222 C1221 1.397 . S
C1222 C1223 1.334 . S
C1223 H1200 0.950 . S
C1223 C1222 1.334 . S
C1223 C1224 1.287 . S
C1224 C1223 1.287 . S
C1224 C1225 1.524 . S
C1224 H1243 0.913 . S
C1225 H1201 0.950 . S
C1225 C1224 1.524 . S
C1225 C1226 1.415 . S
C1226 H1202 0.950 . S
C1226 C1221 1.363 . S
C1226 C1225 1.415 . S
C1227 H1203 0.951 . S
C1227 C1228 1.366 . S
C1227 C1229 1.388 . S
C1228 C1227 1.366 . S
C1228 C1232 1.385 . S
C1229 H1204 0.951 . S
C1229 C1227 1.388 . S
C1229 C1230 1.366 . S
C1230 C1229 1.366 . S
C1230 C1231 1.414 . S
C1230 C1233 1.499 . S
C1231 H1205 0.950 . S
C1231 C1230 1.414 . S
C1231 C1232 1.374 . S
C1232 H1206 0.950 . S
C1232 C1228 1.385 . S
C1232 C1231 1.374 . S
C1233 C1230 1.499 . S
C1233 C1234 1.373 . S
C1233 C1235 1.389 . S
C1234 H1207 0.950 . S
C1234 C1220 1.377 . S
C1234 C1233 1.373 . S
C1235 C1219 1.377 . S
C1235 C1233 1.389 . S
C1235 C1236 1.524 . S
C1236 C1235 1.524 . S
C1236 C1237 1.397 . S
C1236 C1241 1.363 . S
C1237 H1208 0.950 . S
C1237 C1236 1.397 . S
C1237 C1238 1.334 . S
C1238 H1209 0.950 . S
C1238 C1237 1.334 . S
C1238 C1239 1.287 . S
C1239 C1238 1.287 . S
C1239 C1240 1.524 . S
C1239 H1242 0.999 . S
C1240 H1210 0.950 . S
C1240 C1239 1.524 . S
C1240 C1241 1.415 . S
C1241 H1211 0.950 . S
C1241 C1236 1.363 . S
C1241 C1240 1.415 . S
H1242 C1239 0.999 . S
H1243 C1224 0.913 . S
H1244 C1262 0.951 . S
H1245 C1264 0.951 . S
H1246 C1266 0.950 1_565 S
H1247 C1267 0.950 . S
H1248 C1269 0.950 . S
H1249 C1272 0.950 . S
H1250 C1273 0.950 . S
H1251 C1275 0.950 . S
H1252 C1276 0.950 . S
H1253 C1277 0.951 . S
H1254 C1279 0.951 . S
H1255 C1281 0.950 1_545 S
H1256 C1282 0.950 . S
H1257 C1284 0.950 . S
H1258 C1287 0.950 . S
H1259 C1288 0.950 . S
H1260 C1290 0.950 . S
H1261 C1291 0.950 . S
C1262 H1244 0.951 . S
C1262 C1263 1.366 . S
C1262 C1264 1.388 . S
C1263 C1262 1.366 . S
C1263 C1267 1.385 . S
C1264 H1245 0.951 . S
C1264 C1262 1.388 . S
C1264 C1265 1.366 . S
C1265 C1264 1.366 . S
C1265 C1266 1.414 . S
C1265 C1268 1.499 . S
C1266 H1246 0.950 1_545 S
C1266 C1265 1.414 . S
C1266 C1267 1.374 . S
C1267 H1247 0.950 . S
C1267 C1263 1.385 . S
C1267 C1266 1.374 . S
C1268 C1265 1.499 . S
C1268 C1269 1.373 1_545 S
C1268 C1270 1.389 . S
C1269 H1248 0.950 . S
C1269 C1268 1.373 1_565 S
C1269 C1285 1.377 . S
C1270 C1268 1.389 . S
C1270 C1271 1.524 . S
C1270 C1284 1.377 . S
C1271 C1270 1.524 . S
C1271 C1272 1.397 . S
C1271 C1276 1.363 . S
C1272 H1249 0.950 . S
C1272 C1271 1.397 . S
C1272 C1273 1.334 . S
C1273 H1250 0.950 . S
C1273 C1272 1.334 . S
C1273 C1274 1.287 . S
C1274 C1273 1.287 . S
C1274 C1275 1.524 . S
C1274 H1293 0.913 . S
C1275 H1251 0.950 . S
C1275 C1274 1.524 . S
C1275 C1276 1.415 . S
C1276 H1252 0.950 . S
C1276 C1271 1.363 . S
C1276 C1275 1.415 . S
C1277 H1253 0.951 . S
C1277 C1278 1.366 . S
C1277 C1279 1.388 . S
C1278 C1277 1.366 . S
C1278 C1282 1.385 . S
C1279 H1254 0.951 . S
C1279 C1277 1.388 . S
C1279 C1280 1.366 . S
C1280 C1279 1.366 . S
C1280 C1281 1.414 . S
C1280 C1283 1.499 . S
C1281 H1255 0.950 1_565 S
C1281 C1280 1.414 . S
C1281 C1282 1.374 . S
C1282 H1256 0.950 . S
C1282 C1278 1.385 . S
C1282 C1281 1.374 . S
C1283 C1280 1.499 . S
C1283 C1284 1.373 1_565 S
C1283 C1285 1.389 . S
C1284 H1257 0.950 . S
C1284 C1270 1.377 . S
C1284 C1283 1.373 1_545 S
C1285 C1269 1.377 . S
C1285 C1283 1.389 . S
C1285 C1286 1.524 . S
C1286 C1285 1.524 . S
C1286 C1287 1.397 . S
C1286 C1291 1.363 . S
C1287 H1258 0.950 . S
C1287 C1286 1.397 . S
C1287 C1288 1.334 . S
C1288 H1259 0.950 . S
C1288 C1287 1.334 . S
C1288 C1289 1.287 . S
C1289 C1288 1.287 . S
C1289 C1290 1.524 . S
C1289 H1292 0.999 . S
C1290 H1260 0.950 . S
C1290 C1289 1.524 . S
C1290 C1291 1.415 . S
C1291 H1261 0.950 . S
C1291 C1286 1.363 . S
C1291 C1290 1.415 . S
H1292 C1289 0.999 . S
H1293 C1274 0.913 . S
H1294 C1312 0.951 . S
H1295 C1314 0.951 . S
H1296 C1316 0.950 1_655 S
H1297 C1317 0.950 . S
H1298 C1319 0.950 . S
H1299 C1322 0.950 . S
H1300 C1323 0.950 . S
H1301 C1325 0.950 . S
H1302 C1326 0.950 . S
H1303 C1327 0.951 . S
H1304 C1329 0.951 . S
H1305 C1331 0.950 1_455 S
H1306 C1332 0.950 . S
H1307 C1334 0.950 . S
H1308 C1337 0.950 . S
H1309 C1338 0.950 . S
H1310 C1340 0.950 . S
H1311 C1341 0.950 . S
C1312 H1294 0.951 . S
C1312 C1313 1.366 . S
C1312 C1314 1.388 . S
C1313 C1312 1.366 . S
C1313 C1317 1.385 . S
C1314 H1295 0.951 . S
C1314 C1312 1.388 . S
C1314 C1315 1.366 . S
C1315 C1314 1.366 . S
C1315 C1316 1.414 . S
C1315 C1318 1.499 . S
C1316 H1296 0.950 1_455 S
C1316 C1315 1.414 . S
C1316 C1317 1.374 . S
C1317 H1297 0.950 . S
C1317 C1313 1.385 . S
C1317 C1316 1.374 . S
C1318 C1315 1.499 . S
C1318 C1319 1.373 1_455 S
C1318 C1320 1.389 . S
C1319 H1298 0.950 . S
C1319 C1318 1.373 1_655 S
C1319 C1335 1.377 1_545 S
C1320 C1318 1.389 . S
C1320 C1321 1.524 . S
C1320 C1334 1.377 1_545 S
C1321 C1320 1.524 . S
C1321 C1322 1.397 . S
C1321 C1326 1.363 1_545 S
C1322 H1299 0.950 . S
C1322 C1321 1.397 . S
C1322 C1323 1.334 . S
C1323 H1300 0.950 . S
C1323 C1322 1.334 . S
C1323 C1324 1.287 . S
C1324 C1323 1.287 . S
C1324 C1325 1.524 1_545 S
C1324 H1343 0.913 . S
C1325 H1301 0.950 . S
C1325 C1324 1.524 1_565 S
C1325 C1326 1.415 . S
C1326 H1302 0.950 . S
C1326 C1321 1.363 1_565 S
C1326 C1325 1.415 . S
C1327 H1303 0.951 . S
C1327 C1328 1.366 . S
C1327 C1329 1.388 . S
C1328 C1327 1.366 . S
C1328 C1332 1.385 . S
C1329 H1304 0.951 . S
C1329 C1327 1.388 . S
C1329 C1330 1.366 . S
C1330 C1329 1.366 . S
C1330 C1331 1.414 . S
C1330 C1333 1.499 . S
C1331 H1305 0.950 1_655 S
C1331 C1330 1.414 . S
C1331 C1332 1.374 . S
C1332 H1306 0.950 . S
C1332 C1328 1.385 . S
C1332 C1331 1.374 . S
C1333 C1330 1.499 . S
C1333 C1334 1.373 1_655 S
C1333 C1335 1.389 . S
C1334 H1307 0.950 . S
C1334 C1320 1.377 1_565 S
C1334 C1333 1.373 1_455 S
C1335 C1319 1.377 1_565 S
C1335 C1333 1.389 . S
C1335 C1336 1.524 . S
C1336 C1335 1.524 . S
C1336 C1337 1.397 . S
C1336 C1341 1.363 1_565 S
C1337 H1308 0.950 . S
C1337 C1336 1.397 . S
C1337 C1338 1.334 . S
C1338 H1309 0.950 . S
C1338 C1337 1.334 . S
C1338 C1339 1.287 . S
C1339 C1338 1.287 . S
C1339 C1340 1.524 1_565 S
C1339 H1342 0.999 . S
C1340 H1310 0.950 . S
C1340 C1339 1.524 1_545 S
C1340 C1341 1.415 . S
C1341 H1311 0.950 . S
C1341 C1336 1.363 1_545 S
C1341 C1340 1.415 . S
H1342 C1339 0.999 . S
H1343 C1324 0.913 . S
H1344 C1362 0.951 . S
H1345 C1364 0.951 1_545 S
H1346 C1366 0.950 . S
H1347 C1367 0.950 . S
H1348 C1369 0.950 . S
H1349 C1372 0.950 1_565 S
H1350 C1373 0.931 1_565 S
H1351 C1375 0.950 . S
H1352 C1376 0.950 . S
H1353 C1377 0.951 . S
H1354 C1379 0.951 1_565 S
H1355 C1381 0.950 . S
H1356 C1382 0.950 . S
H1357 C1384 0.950 . S
H1358 C1387 0.950 1_545 S
H1359 C1388 0.932 1_545 S
H1360 C1390 0.950 . S
H1361 C1391 0.950 . S
C1362 H1344 0.951 . S
C1362 C1363 1.366 . S
C1362 C1364 1.388 . S
C1363 C1362 1.366 . S
C1363 C1367 1.385 . S
C1364 H1345 0.951 1_565 S
C1364 C1362 1.388 . S
C1364 C1365 1.366 . S
C1365 C1364 1.366 . S
C1365 C1366 1.414 . S
C1365 C1368 1.499 . S
C1366 H1346 0.950 . S
C1366 C1365 1.414 . S
C1366 C1367 1.374 . S
C1367 H1347 0.950 . S
C1367 C1363 1.385 . S
C1367 C1366 1.374 . S
C1368 C1365 1.499 . S
C1368 C1369 1.373 . S
C1368 C1370 1.389 1_565 S
C1369 H1348 0.950 . S
C1369 C1368 1.373 . S
C1369 C1385 1.377 . S
C1370 C1368 1.389 1_545 S
C1370 C1371 1.524 . S
C1370 C1384 1.377 . S
C1371 C1370 1.524 . S
C1371 C1372 1.397 . S
C1371 C1376 1.363 . S
C1372 H1349 0.950 1_545 S
C1372 C1371 1.397 . S
C1372 C1373 1.334 . S
C1373 H1350 0.931 1_545 S
C1373 C1372 1.334 . S
C1373 C1374 1.287 . S
C1374 C1373 1.287 . S
C1374 C1375 1.524 . S
C1374 H1393 0.913 . S
C1375 H1351 0.950 . S
C1375 C1374 1.524 . S
C1375 C1376 1.415 . S
C1376 H1352 0.950 . S
C1376 C1371 1.363 . S
C1376 C1375 1.415 . S
C1377 H1353 0.951 . S
C1377 C1378 1.366 . S
C1377 C1379 1.388 . S
C1378 C1377 1.366 . S
C1378 C1382 1.385 . S
C1379 H1354 0.951 1_545 S
C1379 C1377 1.388 . S
C1379 C1380 1.366 . S
C1380 C1379 1.366 . S
C1380 C1381 1.414 . S
C1380 C1383 1.499 . S
C1381 H1355 0.950 . S
C1381 C1380 1.414 . S
C1381 C1382 1.374 . S
C1382 H1356 0.950 . S
C1382 C1378 1.385 . S
C1382 C1381 1.374 . S
C1383 C1380 1.499 . S
C1383 C1384 1.373 . S
C1383 C1385 1.389 1_545 S
C1384 H1357 0.950 . S
C1384 C1370 1.377 . S
C1384 C1383 1.373 . S
C1385 C1369 1.377 . S
C1385 C1383 1.389 1_565 S
C1385 C1386 1.524 . S
C1386 C1385 1.524 . S
C1386 C1387 1.397 . S
C1386 C1391 1.363 . S
C1387 H1358 0.950 1_565 S
C1387 C1386 1.397 . S
C1387 C1388 1.334 . S
C1388 H1359 0.932 1_565 S
C1388 C1387 1.334 . S
C1388 C1389 1.287 . S
C1389 C1388 1.287 . S
C1389 C1390 1.524 . S
C1389 H1392 0.999 . S
C1390 H1360 0.950 . S
C1390 C1389 1.524 . S
C1390 C1391 1.415 . S
C1391 H1361 0.950 . S
C1391 C1386 1.363 . S
C1391 C1390 1.415 . S
H1392 C1389 0.999 . S
H1393 C1374 0.913 . S
H1394 C1412 0.951 . S
H1395 C1414 0.951 . S
H1396 C1416 0.950 1_455 S
H1397 C1417 0.950 . S
H1398 C1419 0.950 . S
H1399 C1422 0.950 . S
H1400 C1423 0.950 . S
H1401 C1425 0.950 . S
H1402 C1426 0.950 . S
H1403 C1427 0.951 . S
H1404 C1429 0.951 . S
H1405 C1431 0.950 1_655 S
H1406 C1432 0.950 . S
H1407 C1434 0.950 . S
H1408 C1437 0.950 . S
H1409 C1438 0.950 . S
H1410 C1440 0.950 . S
H1411 C1441 0.950 . S
C1412 H1394 0.951 . S
C1412 C1413 1.366 . S
C1412 C1414 1.388 . S
C1413 C1412 1.366 . S
C1413 C1417 1.385 . S
C1414 H1395 0.951 . S
C1414 C1412 1.388 . S
C1414 C1415 1.366 . S
C1415 C1414 1.366 . S
C1415 C1416 1.414 . S
C1415 C1418 1.499 . S
C1416 H1396 0.950 1_655 S
C1416 C1415 1.414 . S
C1416 C1417 1.374 . S
C1417 H1397 0.950 . S
C1417 C1413 1.385 . S
C1417 C1416 1.374 . S
C1418 C1415 1.499 . S
C1418 C1419 1.373 1_655 S
C1418 C1420 1.389 . S
C1419 H1398 0.950 . S
C1419 C1418 1.373 1_455 S
C1419 C1435 1.377 1_565 S
C1420 C1418 1.389 . S
C1420 C1421 1.524 . S
C1420 C1434 1.377 1_565 S
C1421 C1420 1.524 . S
C1421 C1422 1.397 . S
C1421 C1426 1.363 1_565 S
C1422 H1399 0.950 . S
C1422 C1421 1.397 . S
C1422 C1423 1.334 . S
C1423 H1400 0.950 . S
C1423 C1422 1.334 . S
C1423 C1424 1.287 . S
C1424 C1423 1.287 . S
C1424 C1425 1.524 1_565 S
C1424 H1443 0.913 . S
C1425 H1401 0.950 . S
C1425 C1424 1.524 1_545 S
C1425 C1426 1.415 . S
C1426 H1402 0.950 . S
C1426 C1421 1.363 1_545 S
C1426 C1425 1.415 . S
C1427 H1403 0.951 . S
C1427 C1428 1.366 . S
C1427 C1429 1.388 . S
C1428 C1427 1.366 . S
C1428 C1432 1.385 . S
C1429 H1404 0.951 . S
C1429 C1427 1.388 . S
C1429 C1430 1.366 . S
C1430 C1429 1.366 . S
C1430 C1431 1.414 . S
C1430 C1433 1.499 . S
C1431 H1405 0.950 1_455 S
C1431 C1430 1.414 . S
C1431 C1432 1.374 . S
C1432 H1406 0.950 . S
C1432 C1428 1.385 . S
C1432 C1431 1.374 . S
C1433 C1430 1.499 . S
C1433 C1434 1.373 1_455 S
C1433 C1435 1.389 . S
C1434 H1407 0.950 . S
C1434 C1420 1.377 1_545 S
C1434 C1433 1.373 1_655 S
C1435 C1419 1.377 1_545 S
C1435 C1433 1.389 . S
C1435 C1436 1.524 . S
C1436 C1435 1.524 . S
C1436 C1437 1.397 . S
C1436 C1441 1.363 1_545 S
C1437 H1408 0.950 . S
C1437 C1436 1.397 . S
C1437 C1438 1.334 . S
C1438 H1409 0.950 . S
C1438 C1437 1.334 . S
C1438 C1439 1.287 . S
C1439 C1438 1.287 . S
C1439 C1440 1.524 1_545 S
C1439 H1442 0.999 . S
C1440 H1410 0.950 . S
C1440 C1439 1.524 1_565 S
C1440 C1441 1.415 . S
C1441 H1411 0.950 . S
C1441 C1436 1.363 1_565 S
C1441 C1440 1.415 . S
H1442 C1439 0.999 . S
H1443 C1424 0.913 . S
H1444 C1462 0.951 . S
H1445 C1464 0.951 . S
H1446 C1466 0.950 . S
H1447 C1467 0.950 . S
H1448 C1469 0.950 . S
H1449 C1472 0.950 . S
H1450 C1473 0.950 . S
H1451 C1475 0.950 . S
H1452 C1476 0.950 . S
H1453 C1477 0.951 . S
H1454 C1479 0.951 . S
H1455 C1481 0.950 . S
H1456 C1482 0.950 . S
H1457 C1484 0.950 . S
H1458 C1487 0.950 . S
H1459 C1488 0.950 . S
H1460 C1490 0.950 . S
H1461 C1491 0.950 . S
C1462 H1444 0.951 . S
C1462 C1463 1.366 . S
C1462 C1464 1.388 . S
C1463 C1462 1.366 . S
C1463 C1467 1.385 . S
C1464 H1445 0.951 . S
C1464 C1462 1.388 . S
C1464 C1465 1.366 . S
C1465 C1464 1.366 . S
C1465 C1466 1.414 . S
C1465 C1468 1.499 . S
C1466 H1446 0.950 . S
C1466 C1465 1.414 . S
C1466 C1467 1.374 . S
C1467 H1447 0.950 . S
C1467 C1463 1.385 . S
C1467 C1466 1.374 . S
C1468 C1465 1.499 . S
C1468 C1469 1.373 . S
C1468 C1470 1.389 . S
C1469 H1448 0.950 . S
C1469 C1468 1.373 . S
C1469 C1485 1.377 1_455 S
C1470 C1468 1.389 . S
C1470 C1471 1.524 . S
C1470 C1484 1.377 1_455 S
C1471 C1470 1.524 . S
C1471 C1472 1.397 . S
C1471 C1476 1.363 . S
C1472 H1449 0.950 . S
C1472 C1471 1.397 . S
C1472 C1473 1.334 . S
C1473 H1450 0.950 . S
C1473 C1472 1.334 . S
C1473 C1474 1.287 . S
C1474 C1473 1.287 . S
C1474 C1475 1.524 . S
C1474 H1493 0.913 . S
C1475 H1451 0.950 . S
C1475 C1474 1.524 . S
C1475 C1476 1.415 . S
C1476 H1452 0.950 . S
C1476 C1471 1.363 . S
C1476 C1475 1.415 . S
C1477 H1453 0.951 . S
C1477 C1478 1.366 . S
C1477 C1479 1.388 . S
C1478 C1477 1.366 . S
C1478 C1482 1.385 . S
C1479 H1454 0.951 . S
C1479 C1477 1.388 . S
C1479 C1480 1.366 . S
C1480 C1479 1.366 . S
C1480 C1481 1.414 . S
C1480 C1483 1.499 . S
C1481 H1455 0.950 . S
C1481 C1480 1.414 . S
C1481 C1482 1.374 . S
C1482 H1456 0.950 . S
C1482 C1478 1.385 . S
C1482 C1481 1.374 . S
C1483 C1480 1.499 . S
C1483 C1484 1.373 . S
C1483 C1485 1.389 . S
C1484 H1457 0.950 . S
C1484 C1470 1.377 1_655 S
C1484 C1483 1.373 . S
C1485 C1469 1.377 1_655 S
C1485 C1483 1.389 . S
C1485 C1486 1.524 . S
C1486 C1485 1.524 . S
C1486 C1487 1.397 . S
C1486 C1491 1.363 . S
C1487 H1458 0.950 . S
C1487 C1486 1.397 . S
C1487 C1488 1.334 . S
C1488 H1459 0.950 . S
C1488 C1487 1.334 . S
C1488 C1489 1.287 . S
C1489 C1488 1.287 . S
C1489 C1490 1.524 . S
C1489 H1492 0.999 . S
C1490 H1460 0.950 . S
C1490 C1489 1.524 . S
C1490 C1491 1.415 . S
C1491 H1461 0.950 . S
C1491 C1486 1.363 . S
C1491 C1490 1.415 . S
H1492 C1489 0.999 . S
H1493 C1474 0.913 . S
H1494 C1512 0.951 . S
H1495 C1514 0.951 . S
H1496 C1516 0.950 . S
H1497 C1517 0.950 . S
H1498 C1519 0.950 . S
H1499 C1522 0.950 . S
H1500 C1523 0.950 . S
H1501 C1525 0.950 . S
H1502 C1526 0.950 . S
H1503 C1527 0.951 . S
H1504 C1529 0.951 . S
H1505 C1531 0.950 . S
H1506 C1532 0.950 . S
H1507 C1534 0.950 . S
H1508 C1537 0.950 . S
H1509 C1538 0.950 . S
H1510 C1540 0.950 . S
H1511 C1541 0.950 . S
C1512 H1494 0.951 . S
C1512 C1513 1.366 . S
C1512 C1514 1.388 . S
C1513 C1512 1.366 . S
C1513 C1517 1.385 . S
C1514 H1495 0.951 . S
C1514 C1512 1.388 . S
C1514 C1515 1.366 . S
C1515 C1514 1.366 . S
C1515 C1516 1.414 . S
C1515 C1518 1.499 . S
C1516 H1496 0.950 . S
C1516 C1515 1.414 . S
C1516 C1517 1.374 . S
C1517 H1497 0.950 . S
C1517 C1513 1.385 . S
C1517 C1516 1.374 . S
C1518 C1515 1.499 . S
C1518 C1519 1.373 . S
C1518 C1520 1.389 . S
C1519 H1498 0.950 . S
C1519 C1518 1.373 . S
C1519 C1535 1.377 . S
C1520 C1518 1.389 . S
C1520 C1521 1.524 . S
C1520 C1534 1.377 . S
C1521 C1520 1.524 . S
C1521 C1522 1.397 . S
C1521 C1526 1.363 . S
C1522 H1499 0.950 . S
C1522 C1521 1.397 . S
C1522 C1523 1.334 . S
C1523 H1500 0.950 . S
C1523 C1522 1.334 . S
C1523 C1524 1.287 . S
C1524 C1523 1.287 . S
C1524 C1525 1.524 . S
C1524 H1543 0.913 . S
C1525 H1501 0.950 . S
C1525 C1524 1.524 . S
C1525 C1526 1.415 . S
C1526 H1502 0.950 . S
C1526 C1521 1.363 . S
C1526 C1525 1.415 . S
C1527 H1503 0.951 . S
C1527 C1528 1.366 . S
C1527 C1529 1.388 . S
C1528 C1527 1.366 . S
C1528 C1532 1.385 . S
C1529 H1504 0.951 . S
C1529 C1527 1.388 . S
C1529 C1530 1.366 . S
C1530 C1529 1.366 . S
C1530 C1531 1.414 . S
C1530 C1533 1.499 . S
C1531 H1505 0.950 . S
C1531 C1530 1.414 . S
C1531 C1532 1.374 . S
C1532 H1506 0.950 . S
C1532 C1528 1.385 . S
C1532 C1531 1.374 . S
C1533 C1530 1.499 . S
C1533 C1534 1.373 . S
C1533 C1535 1.389 . S
C1534 H1507 0.950 . S
C1534 C1520 1.377 . S
C1534 C1533 1.373 . S
C1535 C1519 1.377 . S
C1535 C1533 1.389 . S
C1535 C1536 1.524 . S
C1536 C1535 1.524 . S
C1536 C1537 1.397 . S
C1536 C1541 1.363 . S
C1537 H1508 0.950 . S
C1537 C1536 1.397 . S
C1537 C1538 1.334 . S
C1538 H1509 0.950 . S
C1538 C1537 1.334 . S
C1538 C1539 1.287 . S
C1539 C1538 1.287 . S
C1539 C1540 1.524 . S
C1539 H1542 0.999 . S
C1540 H1510 0.950 . S
C1540 C1539 1.524 . S
C1540 C1541 1.415 . S
C1541 H1511 0.950 . S
C1541 C1536 1.363 . S
C1541 C1540 1.415 . S
H1542 C1539 0.999 . S
H1543 C1524 0.913 . S
H1544 C1562 0.951 . S
H1545 C1564 0.951 . S
H1546 C1566 0.950 . S
H1547 C1567 0.950 . S
H1548 C1569 0.950 . S
H1549 C1572 0.950 . S
H1550 C1573 0.950 . S
H1551 C1575 0.950 . S
H1552 C1576 0.950 . S
H1553 C1577 0.951 . S
H1554 C1579 0.951 . S
H1555 C1581 0.950 . S
H1556 C1582 0.950 . S
H1557 C1584 0.950 . S
H1558 C1587 0.950 . S
H1559 C1588 0.950 . S
H1560 C1590 0.950 . S
H1561 C1591 0.950 . S
C1562 H1544 0.951 . S
C1562 C1563 1.366 . S
C1562 C1564 1.388 . S
C1563 C1562 1.366 . S
C1563 C1567 1.385 . S
C1564 H1545 0.951 . S
C1564 C1562 1.388 . S
C1564 C1565 1.366 . S
C1565 C1564 1.366 . S
C1565 C1566 1.414 . S
C1565 C1568 1.499 . S
C1566 H1546 0.950 . S
C1566 C1565 1.414 . S
C1566 C1567 1.374 . S
C1567 H1547 0.950 . S
C1567 C1563 1.385 . S
C1567 C1566 1.374 . S
C1568 C1565 1.499 . S
C1568 C1569 1.373 . S
C1568 C1570 1.389 . S
C1569 H1548 0.950 . S
C1569 C1568 1.373 . S
C1569 C1585 1.377 . S
C1570 C1568 1.389 . S
C1570 C1571 1.524 . S
C1570 C1584 1.377 . S
C1571 C1570 1.524 . S
C1571 C1572 1.397 . S
C1571 C1576 1.363 . S
C1572 H1549 0.950 . S
C1572 C1571 1.397 . S
C1572 C1573 1.334 . S
C1573 H1550 0.950 . S
C1573 C1572 1.334 . S
C1573 C1574 1.287 . S
C1574 C1573 1.287 . S
C1574 C1575 1.524 . S
C1574 H1593 0.913 . S
C1575 H1551 0.950 . S
C1575 C1574 1.524 . S
C1575 C1576 1.415 . S
C1576 H1552 0.950 . S
C1576 C1571 1.363 . S
C1576 C1575 1.415 . S
C1577 H1553 0.951 . S
C1577 C1578 1.366 . S
C1577 C1579 1.388 . S
C1578 C1577 1.366 . S
C1578 C1582 1.385 . S
C1579 H1554 0.951 . S
C1579 C1577 1.388 . S
C1579 C1580 1.366 . S
C1580 C1579 1.366 . S
C1580 C1581 1.414 . S
C1580 C1583 1.499 . S
C1581 H1555 0.950 . S
C1581 C1580 1.414 . S
C1581 C1582 1.374 . S
C1582 H1556 0.950 . S
C1582 C1578 1.385 . S
C1582 C1581 1.374 . S
C1583 C1580 1.499 . S
C1583 C1584 1.373 . S
C1583 C1585 1.389 . S
C1584 H1557 0.950 . S
C1584 C1570 1.377 . S
C1584 C1583 1.373 . S
C1585 C1569 1.377 . S
C1585 C1583 1.389 . S
C1585 C1586 1.524 . S
C1586 C1585 1.524 . S
C1586 C1587 1.397 . S
C1586 C1591 1.363 . S
C1587 H1558 0.950 . S
C1587 C1586 1.397 . S
C1587 C1588 1.334 . S
C1588 H1559 0.950 . S
C1588 C1587 1.334 . S
C1588 C1589 1.287 . S
C1589 C1588 1.287 . S
C1589 C1590 1.524 . S
C1589 H1592 0.999 . S
C1590 H1560 0.950 . S
C1590 C1589 1.524 . S
C1590 C1591 1.415 . S
C1591 H1561 0.950 . S
C1591 C1586 1.363 . S
C1591 C1590 1.415 . S
H1592 C1589 0.999 . S
H1593 C1574 0.913 . S
H1594 C1612 0.951 . S
H1595 C1614 0.951 . S
H1596 C1616 0.950 . S
H1597 C1617 0.950 . S
H1598 C1619 0.950 . S
H1599 C1622 0.950 . S
H1600 C1623 0.950 . S
H1601 C1625 0.950 . S
H1602 C1626 0.950 . S
H1603 C1627 0.951 . S
H1604 C1629 0.951 . S
H1605 C1631 0.950 . S
H1606 C1632 0.950 . S
H1607 C1634 0.950 . S
H1608 C1637 0.950 . S
H1609 C1638 0.950 . S
H1610 C1640 0.950 . S
H1611 C1641 0.950 . S
C1612 H1594 0.951 . S
C1612 C1613 1.366 . S
C1612 C1614 1.388 . S
C1613 C1612 1.366 . S
C1613 C1617 1.385 . S
C1614 H1595 0.951 . S
C1614 C1612 1.388 . S
C1614 C1615 1.366 . S
C1615 C1614 1.366 . S
C1615 C1616 1.414 . S
C1615 C1618 1.499 . S
C1616 H1596 0.950 . S
C1616 C1615 1.414 . S
C1616 C1617 1.374 . S
C1617 H1597 0.950 . S
C1617 C1613 1.385 . S
C1617 C1616 1.374 . S
C1618 C1615 1.499 . S
C1618 C1619 1.373 . S
C1618 C1620 1.389 . S
C1619 H1598 0.950 . S
C1619 C1618 1.373 . S
C1619 C1635 1.377 1_565 S
C1620 C1618 1.389 . S
C1620 C1621 1.524 . S
C1620 C1634 1.377 1_565 S
C1621 C1620 1.524 . S
C1621 C1622 1.397 . S
C1621 C1626 1.363 . S
C1622 H1599 0.950 . S
C1622 C1621 1.397 . S
C1622 C1623 1.334 . S
C1623 H1600 0.950 . S
C1623 C1622 1.334 . S
C1623 C1624 1.287 . S
C1624 C1623 1.287 . S
C1624 C1625 1.524 . S
C1624 H1643 0.913 . S
C1625 H1601 0.950 . S
C1625 C1624 1.524 . S
C1625 C1626 1.415 . S
C1626 H1602 0.950 . S
C1626 C1621 1.363 . S
C1626 C1625 1.415 . S
C1627 H1603 0.951 . S
C1627 C1628 1.366 . S
C1627 C1629 1.388 . S
C1628 C1627 1.366 . S
C1628 C1632 1.385 . S
C1629 H1604 0.951 . S
C1629 C1627 1.388 . S
C1629 C1630 1.366 . S
C1630 C1629 1.366 . S
C1630 C1631 1.414 . S
C1630 C1633 1.499 . S
C1631 H1605 0.950 . S
C1631 C1630 1.414 . S
C1631 C1632 1.374 . S
C1632 H1606 0.950 . S
C1632 C1628 1.385 . S
C1632 C1631 1.374 . S
C1633 C1630 1.499 . S
C1633 C1634 1.373 . S
C1633 C1635 1.389 . S
C1634 H1607 0.950 . S
C1634 C1620 1.377 1_545 S
C1634 C1633 1.373 . S
C1635 C1619 1.377 1_545 S
C1635 C1633 1.389 . S
C1635 C1636 1.524 . S
C1636 C1635 1.524 . S
C1636 C1637 1.397 . S
C1636 C1641 1.363 . S
C1637 H1608 0.950 . S
C1637 C1636 1.397 . S
C1637 C1638 1.334 . S
C1638 H1609 0.950 . S
C1638 C1637 1.334 . S
C1638 C1639 1.287 . S
C1639 C1638 1.287 . S
C1639 C1640 1.524 . S
C1639 H1642 0.999 . S
C1640 H1610 0.950 . S
C1640 C1639 1.524 . S
C1640 C1641 1.415 . S
C1641 H1611 0.950 . S
C1641 C1636 1.363 . S
C1641 C1640 1.415 . S
H1642 C1639 0.999 . S
H1643 C1624 0.913 . S
H1644 C1662 0.951 . S
H1645 C1664 0.951 1_545 S
H1646 C1666 0.950 . S
H1647 C1667 0.950 . S
H1648 C1669 0.950 . S
H1649 C1672 0.950 . S
H1650 C1673 0.950 . S
H1651 C1675 0.950 . S
H1652 C1676 0.950 . S
H1653 C1677 0.951 . S
H1654 C1679 0.951 1_565 S
H1655 C1681 0.950 . S
H1656 C1682 0.950 . S
H1657 C1684 0.950 . S
H1658 C1687 0.950 . S
H1659 C1688 0.950 . S
H1660 C1690 0.950 . S
H1661 C1691 0.950 . S
C1662 H1644 0.951 . S
C1662 C1663 1.366 . S
C1662 C1664 1.388 . S
C1663 C1662 1.366 . S
C1663 C1667 1.385 . S
C1664 H1645 0.951 1_565 S
C1664 C1662 1.388 . S
C1664 C1665 1.366 . S
C1665 C1664 1.366 . S
C1665 C1666 1.414 . S
C1665 C1668 1.499 . S
C1666 H1646 0.950 . S
C1666 C1665 1.414 . S
C1666 C1667 1.374 . S
C1667 H1647 0.950 . S
C1667 C1663 1.385 . S
C1667 C1666 1.374 . S
C1668 C1665 1.499 . S
C1668 C1669 1.373 . S
C1668 C1670 1.389 . S
C1669 H1648 0.950 . S
C1669 C1668 1.373 . S
C1669 C1685 1.377 1_665 S
C1670 C1668 1.389 . S
C1670 C1671 1.524 . S
C1670 C1684 1.377 1_665 S
C1671 C1670 1.524 . S
C1671 C1672 1.397 . S
C1671 C1676 1.363 1_565 S
C1672 H1649 0.950 . S
C1672 C1671 1.397 . S
C1672 C1673 1.334 . S
C1673 H1650 0.950 . S
C1673 C1672 1.334 . S
C1673 C1674 1.287 . S
C1674 C1673 1.287 . S
C1674 C1675 1.524 1_565 S
C1674 H1693 0.913 . S
C1675 H1651 0.950 . S
C1675 C1674 1.524 1_545 S
C1675 C1676 1.415 . S
C1676 H1652 0.950 . S
C1676 C1671 1.363 1_545 S
C1676 C1675 1.415 . S
C1677 H1653 0.951 . S
C1677 C1678 1.366 . S
C1677 C1679 1.388 . S
C1678 C1677 1.366 . S
C1678 C1682 1.385 . S
C1679 H1654 0.951 1_545 S
C1679 C1677 1.388 . S
C1679 C1680 1.366 . S
C1680 C1679 1.366 . S
C1680 C1681 1.414 . S
C1680 C1683 1.499 . S
C1681 H1655 0.950 . S
C1681 C1680 1.414 . S
C1681 C1682 1.374 . S
C1682 H1656 0.950 . S
C1682 C1678 1.385 . S
C1682 C1681 1.374 . S
C1683 C1680 1.499 . S
C1683 C1684 1.373 . S
C1683 C1685 1.389 . S
C1684 H1657 0.950 . S
C1684 C1670 1.377 1_445 S
C1684 C1683 1.373 . S
C1685 C1669 1.377 1_445 S
C1685 C1683 1.389 . S
C1685 C1686 1.524 . S
C1686 C1685 1.524 . S
C1686 C1687 1.397 . S
C1686 C1691 1.363 1_545 S
C1687 H1658 0.950 . S
C1687 C1686 1.397 . S
C1687 C1688 1.334 . S
C1688 H1659 0.950 . S
C1688 C1687 1.334 . S
C1688 C1689 1.287 . S
C1689 C1688 1.287 . S
C1689 C1690 1.524 1_545 S
C1689 H1692 0.999 . S
C1690 H1660 0.950 . S
C1690 C1689 1.524 1_565 S
C1690 C1691 1.415 . S
C1691 H1661 0.950 . S
C1691 C1686 1.363 1_565 S
C1691 C1690 1.415 . S
H1692 C1689 0.999 . S
H1693 C1674 0.913 . S
H1694 C1712 0.951 . S
H1695 C1714 0.951 . S
H1696 C1716 0.950 . S
H1697 C1717 0.950 . S
H1698 C1719 0.950 . S
H1699 C1722 0.950 . S
H1700 C1723 0.950 . S
H1701 C1725 0.950 . S
H1702 C1726 0.950 . S
H1703 C1727 0.951 . S
H1704 C1729 0.951 . S
H1705 C1731 0.950 . S
H1706 C1732 0.950 . S
H1707 C1734 0.950 . S
H1708 C1737 0.950 . S
H1709 C1738 0.950 . S
H1710 C1740 0.950 . S
H1711 C1741 0.950 . S
C1712 H1694 0.951 . S
C1712 C1713 1.366 . S
C1712 C1714 1.388 . S
C1713 C1712 1.366 . S
C1713 C1717 1.385 . S
C1714 H1695 0.951 . S
C1714 C1712 1.388 . S
C1714 C1715 1.366 . S
C1715 C1714 1.366 . S
C1715 C1716 1.414 . S
C1715 C1718 1.499 . S
C1716 H1696 0.950 . S
C1716 C1715 1.414 . S
C1716 C1717 1.374 . S
C1717 H1697 0.950 . S
C1717 C1713 1.385 . S
C1717 C1716 1.374 . S
C1718 C1715 1.499 . S
C1718 C1719 1.373 1_455 S
C1718 C1720 1.389 . S
C1719 H1698 0.950 . S
C1719 C1718 1.373 1_655 S
C1719 C1735 1.377 . S
C1720 C1718 1.389 . S
C1720 C1721 1.524 . S
C1720 C1734 1.377 . S
C1721 C1720 1.524 . S
C1721 C1722 1.397 . S
C1721 C1726 1.363 . S
C1722 H1699 0.950 . S
C1722 C1721 1.397 . S
C1722 C1723 1.334 . S
C1723 H1700 0.950 . S
C1723 C1722 1.334 . S
C1723 C1724 1.287 . S
C1724 C1723 1.287 . S
C1724 C1725 1.524 . S
C1724 H1743 0.913 . S
C1725 H1701 0.950 . S
C1725 C1724 1.524 . S
C1725 C1726 1.415 . S
C1726 H1702 0.950 . S
C1726 C1721 1.363 . S
C1726 C1725 1.415 . S
C1727 H1703 0.951 . S
C1727 C1728 1.366 . S
C1727 C1729 1.388 . S
C1728 C1727 1.366 . S
C1728 C1732 1.385 . S
C1729 H1704 0.951 . S
C1729 C1727 1.388 . S
C1729 C1730 1.366 . S
C1730 C1729 1.366 . S
C1730 C1731 1.414 . S
C1730 C1733 1.499 . S
C1731 H1705 0.950 . S
C1731 C1730 1.414 . S
C1731 C1732 1.374 . S
C1732 H1706 0.950 . S
C1732 C1728 1.385 . S
C1732 C1731 1.374 . S
C1733 C1730 1.499 . S
C1733 C1734 1.373 1_655 S
C1733 C1735 1.389 . S
C1734 H1707 0.950 . S
C1734 C1720 1.377 . S
C1734 C1733 1.373 1_455 S
C1735 C1719 1.377 . S
C1735 C1733 1.389 . S
C1735 C1736 1.524 . S
C1736 C1735 1.524 . S
C1736 C1737 1.397 . S
C1736 C1741 1.363 . S
C1737 H1708 0.950 . S
C1737 C1736 1.397 . S
C1737 C1738 1.334 . S
C1738 H1709 0.950 . S
C1738 C1737 1.334 . S
C1738 C1739 1.287 . S
C1739 C1738 1.287 . S
C1739 C1740 1.524 . S
C1739 H1742 0.999 . S
C1740 H1710 0.950 . S
C1740 C1739 1.524 . S
C1740 C1741 1.415 . S
C1741 H1711 0.950 . S
C1741 C1736 1.363 . S
C1741 C1740 1.415 . S
H1742 C1739 0.999 . S
H1743 C1724 0.913 . S
H1744 C1762 0.951 . S
H1745 C1764 0.951 . S
H1746 C1766 0.950 . S
H1747 C1767 0.950 . S
H1748 C1769 0.950 . S
H1749 C1772 0.950 . S
H1750 C1773 0.950 . S
H1751 C1775 0.950 . S
H1752 C1776 0.950 . S
H1753 C1777 0.951 . S
H1754 C1779 0.951 . S
H1755 C1781 0.950 . S
H1756 C1782 0.950 . S
H1757 C1784 0.950 . S
H1758 C1787 0.950 . S
H1759 C1788 0.950 . S
H1760 C1790 0.950 1_565 S
H1761 C1791 0.950 . S
C1762 H1744 0.951 . S
C1762 C1763 1.366 . S
C1762 C1764 1.388 . S
C1763 C1762 1.366 . S
C1763 C1767 1.385 . S
C1764 H1745 0.951 . S
C1764 C1762 1.388 . S
C1764 C1765 1.366 . S
C1765 C1764 1.366 . S
C1765 C1766 1.414 . S
C1765 C1768 1.499 . S
C1766 H1746 0.950 . S
C1766 C1765 1.414 . S
C1766 C1767 1.374 . S
C1767 H1747 0.950 . S
C1767 C1763 1.385 . S
C1767 C1766 1.374 . S
C1768 C1765 1.499 . S
C1768 C1769 1.373 . S
C1768 C1770 1.389 . S
C1769 H1748 0.950 . S
C1769 C1768 1.373 . S
C1769 C1785 1.377 . S
C1770 C1768 1.389 . S
C1770 C1771 1.524 . S
C1770 C1784 1.377 . S
C1771 C1770 1.524 . S
C1771 C1772 1.397 . S
C1771 C1776 1.363 . S
C1772 H1749 0.950 . S
C1772 C1771 1.397 . S
C1772 C1773 1.334 . S
C1773 H1750 0.950 . S
C1773 C1772 1.334 . S
C1773 C1774 1.287 . S
C1774 C1773 1.287 . S
C1774 C1775 1.524 . S
C1774 H1793 0.913 . S
C1775 H1751 0.950 . S
C1775 C1774 1.524 . S
C1775 C1776 1.415 . S
C1776 H1752 0.950 . S
C1776 C1771 1.363 . S
C1776 C1775 1.415 . S
C1777 H1753 0.951 . S
C1777 C1778 1.366 . S
C1777 C1779 1.388 . S
C1778 C1777 1.366 . S
C1778 C1782 1.385 . S
C1779 H1754 0.951 . S
C1779 C1777 1.388 . S
C1779 C1780 1.366 . S
C1780 C1779 1.366 . S
C1780 C1781 1.414 . S
C1780 C1783 1.499 . S
C1781 H1755 0.950 . S
C1781 C1780 1.414 . S
C1781 C1782 1.374 . S
C1782 H1756 0.950 . S
C1782 C1778 1.385 . S
C1782 C1781 1.374 . S
C1783 C1780 1.499 . S
C1783 C1784 1.373 . S
C1783 C1785 1.389 . S
C1784 H1757 0.950 . S
C1784 C1770 1.377 . S
C1784 C1783 1.373 . S
C1785 C1769 1.377 . S
C1785 C1783 1.389 . S
C1785 C1786 1.524 . S
C1786 C1785 1.524 . S
C1786 C1787 1.397 . S
C1786 C1791 1.363 . S
C1787 H1758 0.950 . S
C1787 C1786 1.397 . S
C1787 C1788 1.334 . S
C1788 H1759 0.950 . S
C1788 C1787 1.334 . S
C1788 C1789 1.287 . S
C1789 C1788 1.287 . S
C1789 C1790 1.524 . S
C1789 H1792 0.999 . S
C1790 H1760 0.950 1_545 S
C1790 C1789 1.524 . S
C1790 C1791 1.415 . S
C1791 H1761 0.950 . S
C1791 C1786 1.363 . S
C1791 C1790 1.415 . S
H1792 C1789 0.999 . S
H1793 C1774 0.913 . S
H1794 C1812 0.951 . S
H1795 C1814 0.951 . S
H1796 C1816 0.950 . S
H1797 C1817 0.950 . S
H1798 C1819 0.950 . S
H1799 C1822 0.950 . S
H1800 C1823 0.950 . S
H1801 C1825 0.950 1_455 S
H1802 C1826 0.950 . S
H1803 C1827 0.951 . S
H1804 C1829 0.951 . S
H1805 C1831 0.950 . S
H1806 C1832 0.950 . S
H1807 C1834 0.950 . S
H1808 C1837 0.950 . S
H1809 C1838 0.950 . S
H1810 C1840 0.950 . S
H1811 C1841 0.950 . S
C1812 H1794 0.951 . S
C1812 C1813 1.366 . S
C1812 C1814 1.388 . S
C1813 C1812 1.366 . S
C1813 C1817 1.385 . S
C1814 H1795 0.951 . S
C1814 C1812 1.388 . S
C1814 C1815 1.366 . S
C1815 C1814 1.366 . S
C1815 C1816 1.414 . S
C1815 C1818 1.499 . S
C1816 H1796 0.950 . S
C1816 C1815 1.414 . S
C1816 C1817 1.374 . S
C1817 H1797 0.950 . S
C1817 C1813 1.385 . S
C1817 C1816 1.374 . S
C1818 C1815 1.499 . S
C1818 C1819 1.373 . S
C1818 C1820 1.389 . S
C1819 H1798 0.950 . S
C1819 C1818 1.373 . S
C1819 C1835 1.377 . S
C1820 C1818 1.389 . S
C1820 C1821 1.524 . S
C1820 C1834 1.377 . S
C1821 C1820 1.524 . S
C1821 C1822 1.397 . S
C1821 C1826 1.363 . S
C1822 H1799 0.950 . S
C1822 C1821 1.397 . S
C1822 C1823 1.334 . S
C1823 H1800 0.950 . S
C1823 C1822 1.334 . S
C1823 C1824 1.307 . S
C1824 C1823 1.307 . S
C1824 C1825 1.532 . S
C1824 H1843 0.883 1_655 S
C1825 H1801 0.950 1_655 S
C1825 C1824 1.532 . S
C1825 C1826 1.415 . S
C1826 H1802 0.950 . S
C1826 C1821 1.363 . S
C1826 C1825 1.415 . S
C1827 H1803 0.951 . S
C1827 C1828 1.366 . S
C1827 C1829 1.388 . S
C1828 C1827 1.366 . S
C1828 C1832 1.385 . S
C1829 H1804 0.951 . S
C1829 C1827 1.388 . S
C1829 C1830 1.366 . S
C1830 C1829 1.366 . S
C1830 C1831 1.414 . S
C1830 C1833 1.499 . S
C1831 H1805 0.950 . S
C1831 C1830 1.414 . S
C1831 C1832 1.374 . S
C1832 H1806 0.950 . S
C1832 C1828 1.385 . S
C1832 C1831 1.374 . S
C1833 C1830 1.499 . S
C1833 C1834 1.373 . S
C1833 C1835 1.389 . S
C1834 H1807 0.950 . S
C1834 C1820 1.377 . S
C1834 C1833 1.373 . S
C1835 C1819 1.377 . S
C1835 C1833 1.389 . S
C1835 C1836 1.524 . S
C1836 C1835 1.524 . S
C1836 C1837 1.397 . S
C1836 C1841 1.363 . S
C1837 H1808 0.950 . S
C1837 C1836 1.397 . S
C1837 C1838 1.334 . S
C1838 H1809 0.950 . S
C1838 C1837 1.334 . S
C1838 C1839 1.287 . S
C1839 C1838 1.287 . S
C1839 C1840 1.524 . S
C1839 H1842 0.999 . S
C1840 H1810 0.950 . S
C1840 C1839 1.524 . S
C1840 C1841 1.415 . S
C1841 H1811 0.950 . S
C1841 C1836 1.363 . S
C1841 C1840 1.415 . S
H1842 C1839 0.999 . S
H1843 C1824 0.883 1_455 S
H1844 C1862 0.951 . S
H1845 C1864 0.951 . S
H1846 C1866 0.950 . S
H1847 C1867 0.950 . S
H1848 C1869 0.950 . S
H1849 C1872 0.950 . S
H1850 C1873 0.950 . S
H1851 C1875 0.950 . S
H1852 C1876 0.950 . S
H1853 C1877 0.951 . S
H1854 C1879 0.951 . S
H1855 C1881 0.950 . S
H1856 C1882 0.950 . S
H1857 C1884 0.950 . S
H1858 C1887 0.950 . S
H1859 C1888 0.950 . S
H1860 C1890 0.950 . S
H1861 C1891 0.950 . S
C1862 H1844 0.951 . S
C1862 C1863 1.366 . S
C1862 C1864 1.388 . S
C1863 C1862 1.366 . S
C1863 C1867 1.385 . S
C1864 H1845 0.951 . S
C1864 C1862 1.388 . S
C1864 C1865 1.366 . S
C1865 C1864 1.366 . S
C1865 C1866 1.414 . S
C1865 C1868 1.499 . S
C1866 H1846 0.950 . S
C1866 C1865 1.414 . S
C1866 C1867 1.374 . S
C1867 H1847 0.950 . S
C1867 C1863 1.385 . S
C1867 C1866 1.374 . S
C1868 C1865 1.499 . S
C1868 C1869 1.373 . S
C1868 C1870 1.389 . S
C1869 H1848 0.950 . S
C1869 C1868 1.373 . S
C1869 C1885 1.377 . S
C1870 C1868 1.389 . S
C1870 C1871 1.524 . S
C1870 C1884 1.377 . S
C1871 C1870 1.524 . S
C1871 C1872 1.397 . S
C1871 C1876 1.363 . S
C1872 H1849 0.950 . S
C1872 C1871 1.397 . S
C1872 C1873 1.334 . S
C1873 H1850 0.950 . S
C1873 C1872 1.334 . S
C1873 C1874 1.287 . S
C1874 C1873 1.287 . S
C1874 C1875 1.524 . S
C1874 H1893 0.913 . S
C1875 H1851 0.950 . S
C1875 C1874 1.524 . S
C1875 C1876 1.415 . S
C1876 H1852 0.950 . S
C1876 C1871 1.363 . S
C1876 C1875 1.415 . S
C1877 H1853 0.951 . S
C1877 C1878 1.366 . S
C1877 C1879 1.388 . S
C1878 C1877 1.366 . S
C1878 C1882 1.385 . S
C1879 H1854 0.951 . S
C1879 C1877 1.388 . S
C1879 C1880 1.366 . S
C1880 C1879 1.366 . S
C1880 C1881 1.414 . S
C1880 C1883 1.499 . S
C1881 H1855 0.950 . S
C1881 C1880 1.414 . S
C1881 C1882 1.374 . S
C1882 H1856 0.950 . S
C1882 C1878 1.385 . S
C1882 C1881 1.374 . S
C1883 C1880 1.499 . S
C1883 C1884 1.373 . S
C1883 C1885 1.389 . S
C1884 H1857 0.950 . S
C1884 C1870 1.377 . S
C1884 C1883 1.373 . S
C1885 C1869 1.377 . S
C1885 C1883 1.389 . S
C1885 C1886 1.524 . S
C1886 C1885 1.524 . S
C1886 C1887 1.397 . S
C1886 C1891 1.363 . S
C1887 H1858 0.950 . S
C1887 C1886 1.397 . S
C1887 C1888 1.334 . S
C1888 H1859 0.950 . S
C1888 C1887 1.334 . S
C1888 C1889 1.287 . S
C1889 C1888 1.287 . S
C1889 C1890 1.524 . S
C1889 H1892 0.999 . S
C1890 H1860 0.950 . S
C1890 C1889 1.524 . S
C1890 C1891 1.415 . S
C1891 H1861 0.950 . S
C1891 C1886 1.363 . S
C1891 C1890 1.415 . S
H1892 C1889 0.999 . S
H1893 C1874 0.913 . S
H1894 C1912 0.951 . S
H1895 C1914 0.951 . S
H1896 C1916 0.950 . S
H1897 C1917 0.950 . S
H1898 C1919 0.950 . S
H1899 C1922 0.950 . S
H1900 C1923 0.950 . S
H1901 C1925 0.950 . S
H1902 C1926 0.950 . S
H1903 C1927 0.951 . S
H1904 C1929 0.951 . S
H1905 C1931 0.950 . S
H1906 C1932 0.950 . S
H1907 C1934 0.950 . S
H1908 C1937 0.950 . S
H1909 C1938 0.950 . S
H1910 C1940 0.950 . S
H1911 C1941 0.950 . S
C1912 H1894 0.951 . S
C1912 C1913 1.366 . S
C1912 C1914 1.388 . S
C1913 C1912 1.366 . S
C1913 C1917 1.385 . S
C1914 H1895 0.951 . S
C1914 C1912 1.388 . S
C1914 C1915 1.366 . S
C1915 C1914 1.366 . S
C1915 C1916 1.414 . S
C1915 C1918 1.499 . S
C1916 H1896 0.950 . S
C1916 C1915 1.414 . S
C1916 C1917 1.374 . S
C1917 H1897 0.950 . S
C1917 C1913 1.385 . S
C1917 C1916 1.374 . S
C1918 C1915 1.499 . S
C1918 C1919 1.373 . S
C1918 C1920 1.389 . S
C1919 H1898 0.950 . S
C1919 C1918 1.373 . S
C1919 C1935 1.377 . S
C1920 C1918 1.389 . S
C1920 C1921 1.524 . S
C1920 C1934 1.377 . S
C1921 C1920 1.524 . S
C1921 C1922 1.397 . S
C1921 C1926 1.363 . S
C1922 H1899 0.950 . S
C1922 C1921 1.397 . S
C1922 C1923 1.334 . S
C1923 H1900 0.950 . S
C1923 C1922 1.334 . S
C1923 C1924 1.287 . S
C1924 C1923 1.287 . S
C1924 C1925 1.524 . S
C1924 H1943 0.913 . S
C1925 H1901 0.950 . S
C1925 C1924 1.524 . S
C1925 C1926 1.415 . S
C1926 H1902 0.950 . S
C1926 C1921 1.363 . S
C1926 C1925 1.415 . S
C1927 H1903 0.951 . S
C1927 C1928 1.366 . S
C1927 C1929 1.388 . S
C1928 C1927 1.366 . S
C1928 C1932 1.385 . S
C1929 H1904 0.951 . S
C1929 C1927 1.388 . S
C1929 C1930 1.366 . S
C1930 C1929 1.366 . S
C1930 C1931 1.414 . S
C1930 C1933 1.499 . S
C1931 H1905 0.950 . S
C1931 C1930 1.414 . S
C1931 C1932 1.374 . S
C1932 H1906 0.950 . S
C1932 C1928 1.385 . S
C1932 C1931 1.374 . S
C1933 C1930 1.499 . S
C1933 C1934 1.373 . S
C1933 C1935 1.389 . S
C1934 H1907 0.950 . S
C1934 C1920 1.377 . S
C1934 C1933 1.373 . S
C1935 C1919 1.377 . S
C1935 C1933 1.389 . S
C1935 C1936 1.524 . S
C1936 C1935 1.524 . S
C1936 C1937 1.397 . S
C1936 C1941 1.363 . S
C1937 H1908 0.950 . S
C1937 C1936 1.397 . S
C1937 C1938 1.334 . S
C1938 H1909 0.950 . S
C1938 C1937 1.334 . S
C1938 C1939 1.287 . S
C1939 C1938 1.287 . S
C1939 C1940 1.524 . S
C1939 H1942 0.999 . S
C1940 H1910 0.950 . S
C1940 C1939 1.524 . S
C1940 C1941 1.415 . S
C1941 H1911 0.950 . S
C1941 C1936 1.363 . S
C1941 C1940 1.415 . S
H1942 C1939 0.999 . S
H1943 C1924 0.913 . S
H1944 C1962 0.951 . S
H1945 C1964 0.951 . S
H1946 C1966 0.950 . S
H1947 C1967 0.950 . S
H1948 C1969 0.950 . S
H1949 C1972 0.950 . S
H1950 C1973 0.950 . S
H1951 C1975 0.950 . S
H1952 C1976 0.950 . S
H1953 C1977 0.951 . S
H1954 C1979 0.951 . S
H1955 C1981 0.950 . S
H1956 C1982 0.950 . S
H1957 C1984 0.950 . S
H1958 C1987 0.950 . S
H1959 C1988 0.950 . S
H1960 C1990 0.950 . S
H1961 C1991 0.950 . S
C1962 H1944 0.951 . S
C1962 C1963 1.366 . S
C1962 C1964 1.388 . S
C1963 C1962 1.366 . S
C1963 C1967 1.385 . S
C1964 H1945 0.951 . S
C1964 C1962 1.388 . S
C1964 C1965 1.366 . S
C1965 C1964 1.366 . S
C1965 C1966 1.414 . S
C1965 C1968 1.499 . S
C1966 H1946 0.950 . S
C1966 C1965 1.414 . S
C1966 C1967 1.374 . S
C1967 H1947 0.950 . S
C1967 C1963 1.385 . S
C1967 C1966 1.374 . S
C1968 C1965 1.499 . S
C1968 C1969 1.373 . S
C1968 C1970 1.389 . S
C1969 H1948 0.950 . S
C1969 C1968 1.373 . S
C1969 C1985 1.377 . S
C1970 C1968 1.389 . S
C1970 C1971 1.524 . S
C1970 C1984 1.377 . S
C1971 C1970 1.524 . S
C1971 C1972 1.397 . S
C1971 C1976 1.363 . S
C1972 H1949 0.950 . S
C1972 C1971 1.397 . S
C1972 C1973 1.334 . S
C1973 H1950 0.950 . S
C1973 C1972 1.334 . S
C1973 C1974 1.287 . S
C1974 C1973 1.287 . S
C1974 C1975 1.524 . S
C1974 H1993 0.913 . S
C1975 H1951 0.950 . S
C1975 C1974 1.524 . S
C1975 C1976 1.415 . S
C1976 H1952 0.950 . S
C1976 C1971 1.363 . S
C1976 C1975 1.415 . S
C1977 H1953 0.951 . S
C1977 C1978 1.366 . S
C1977 C1979 1.388 . S
C1978 C1977 1.366 . S
C1978 C1982 1.385 . S
C1979 H1954 0.951 . S
C1979 C1977 1.388 . S
C1979 C1980 1.366 . S
C1980 C1979 1.366 . S
C1980 C1981 1.414 . S
C1980 C1983 1.499 . S
C1981 H1955 0.950 . S
C1981 C1980 1.414 . S
C1981 C1982 1.374 . S
C1982 H1956 0.950 . S
C1982 C1978 1.385 . S
C1982 C1981 1.374 . S
C1983 C1980 1.499 . S
C1983 C1984 1.373 . S
C1983 C1985 1.389 . S
C1984 H1957 0.950 . S
C1984 C1970 1.377 . S
C1984 C1983 1.373 . S
C1985 C1969 1.377 . S
C1985 C1983 1.389 . S
C1985 C1986 1.524 . S
C1986 C1985 1.524 . S
C1986 C1987 1.397 . S
C1986 C1991 1.363 . S
C1987 H1958 0.950 . S
C1987 C1986 1.397 . S
C1987 C1988 1.334 . S
C1988 H1959 0.950 . S
C1988 C1987 1.334 . S
C1988 C1989 1.287 . S
C1989 C1988 1.287 . S
C1989 C1990 1.524 . S
C1989 H1992 0.999 . S
C1990 H1960 0.950 . S
C1990 C1989 1.524 . S
C1990 C1991 1.415 . S
C1991 H1961 0.950 . S
C1991 C1986 1.363 . S
C1991 C1990 1.415 . S
H1992 C1989 0.999 . S
H1993 C1974 0.913 . S
H1994 C2012 0.951 . S
H1995 C2014 0.951 . S
H1996 C2016 0.950 . S
H1997 C2017 0.950 . S
H1998 C2019 0.950 . S
H1999 C2022 0.950 . S
H2000 C2023 0.950 . S
H2001 C2025 0.950 . S
H2002 C2026 0.950 . S
H2003 C2027 0.951 . S
H2004 C2029 0.951 . S
H2005 C2031 0.950 . S
H2006 C2032 0.950 . S
H2007 C2034 0.950 . S
H2008 C2037 0.950 . S
H2009 C2038 0.950 . S
H2010 C2040 0.950 . S
H2011 C2041 0.950 . S
C2012 H1994 0.951 . S
C2012 C2013 1.366 . S
C2012 C2014 1.388 . S
C2013 C2012 1.366 . S
C2013 C2017 1.385 . S
C2014 H1995 0.951 . S
C2014 C2012 1.388 . S
C2014 C2015 1.366 . S
C2015 C2014 1.366 . S
C2015 C2016 1.414 . S
C2015 C2018 1.499 . S
C2016 H1996 0.950 . S
C2016 C2015 1.414 . S
C2016 C2017 1.374 . S
C2017 H1997 0.950 . S
C2017 C2013 1.385 . S
C2017 C2016 1.374 . S
C2018 C2015 1.499 . S
C2018 C2019 1.373 . S
C2018 C2020 1.389 . S
C2019 H1998 0.950 . S
C2019 C2018 1.373 . S
C2019 C2035 1.377 . S
C2020 C2018 1.389 . S
C2020 C2021 1.524 . S
C2020 C2034 1.377 . S
C2021 C2020 1.524 . S
C2021 C2022 1.397 . S
C2021 C2026 1.363 . S
C2022 H1999 0.950 . S
C2022 C2021 1.397 . S
C2022 C2023 1.334 . S
C2023 H2000 0.950 . S
C2023 C2022 1.334 . S
C2023 C2024 1.287 . S
C2024 C2023 1.287 . S
C2024 C2025 1.524 . S
C2024 H2043 0.913 . S
C2025 H2001 0.950 . S
C2025 C2024 1.524 . S
C2025 C2026 1.415 . S
C2026 H2002 0.950 . S
C2026 C2021 1.363 . S
C2026 C2025 1.415 . S
C2027 H2003 0.951 . S
C2027 C2028 1.366 . S
C2027 C2029 1.388 . S
C2028 C2027 1.366 . S
C2028 C2032 1.385 . S
C2029 H2004 0.951 . S
C2029 C2027 1.388 . S
C2029 C2030 1.366 . S
C2030 C2029 1.366 . S
C2030 C2031 1.414 . S
C2030 C2033 1.499 . S
C2031 H2005 0.950 . S
C2031 C2030 1.414 . S
C2031 C2032 1.374 . S
C2032 H2006 0.950 . S
C2032 C2028 1.385 . S
C2032 C2031 1.374 . S
C2033 C2030 1.499 . S
C2033 C2034 1.373 . S
C2033 C2035 1.389 . S
C2034 H2007 0.950 . S
C2034 C2020 1.377 . S
C2034 C2033 1.373 . S
C2035 C2019 1.377 . S
C2035 C2033 1.389 . S
C2035 C2036 1.524 . S
C2036 C2035 1.524 . S
C2036 C2037 1.397 . S
C2036 C2041 1.363 . S
C2037 H2008 0.950 . S
C2037 C2036 1.397 . S
C2037 C2038 1.334 . S
C2038 H2009 0.950 . S
C2038 C2037 1.334 . S
C2038 C2039 1.287 . S
C2039 C2038 1.287 . S
C2039 C2040 1.524 . S
C2039 H2042 0.999 . S
C2040 H2010 0.950 . S
C2040 C2039 1.524 . S
C2040 C2041 1.415 . S
C2041 H2011 0.950 . S
C2041 C2036 1.363 . S
C2041 C2040 1.415 . S
H2042 C2039 0.999 . S
H2043 C2024 0.913 . S
H2044 C2062 0.951 . S
H2045 C2064 0.951 . S
H2046 C2066 0.950 . S
H2047 C2067 0.950 . S
H2048 C2069 0.950 . S
H2049 C2072 0.950 . S
H2050 C2073 0.950 . S
H2051 C2075 0.950 . S
H2052 C2076 0.950 . S
H2053 C2077 0.951 . S
H2054 C2079 0.951 . S
H2055 C2081 0.950 . S
H2056 C2082 0.950 . S
H2057 C2084 0.950 . S
H2058 C2087 0.950 . S
H2059 C2088 0.950 . S
H2060 C2090 0.950 . S
H2061 C2091 0.950 . S
C2062 H2044 0.951 . S
C2062 C2063 1.366 . S
C2062 C2064 1.388 . S
C2063 C2062 1.366 . S
C2063 C2067 1.385 . S
C2064 H2045 0.951 . S
C2064 C2062 1.388 . S
C2064 C2065 1.366 . S
C2065 C2064 1.366 . S
C2065 C2066 1.414 . S
C2065 C2068 1.499 . S
C2066 H2046 0.950 . S
C2066 C2065 1.414 . S
C2066 C2067 1.374 . S
C2067 H2047 0.950 . S
C2067 C2063 1.385 . S
C2067 C2066 1.374 . S
C2068 C2065 1.499 . S
C2068 C2069 1.373 . S
C2068 C2070 1.389 . S
C2069 H2048 0.950 . S
C2069 C2068 1.373 . S
C2069 C2085 1.377 . S
C2070 C2068 1.389 . S
C2070 C2071 1.524 . S
C2070 C2084 1.377 . S
C2071 C2070 1.524 . S
C2071 C2072 1.397 . S
C2071 C2076 1.363 . S
C2072 H2049 0.950 . S
C2072 C2071 1.397 . S
C2072 C2073 1.334 . S
C2073 H2050 0.950 . S
C2073 C2072 1.334 . S
C2073 C2074 1.287 . S
C2074 C2073 1.287 . S
C2074 C2075 1.524 . S
C2074 H2093 0.913 . S
C2075 H2051 0.950 . S
C2075 C2074 1.524 . S
C2075 C2076 1.415 . S
C2076 H2052 0.950 . S
C2076 C2071 1.363 . S
C2076 C2075 1.415 . S
C2077 H2053 0.951 . S
C2077 C2078 1.366 . S
C2077 C2079 1.388 . S
C2078 C2077 1.366 . S
C2078 C2082 1.385 . S
C2079 H2054 0.951 . S
C2079 C2077 1.388 . S
C2079 C2080 1.366 . S
C2080 C2079 1.366 . S
C2080 C2081 1.414 . S
C2080 C2083 1.499 . S
C2081 H2055 0.950 . S
C2081 C2080 1.414 . S
C2081 C2082 1.374 . S
C2082 H2056 0.950 . S
C2082 C2078 1.385 . S
C2082 C2081 1.374 . S
C2083 C2080 1.499 . S
C2083 C2084 1.373 . S
C2083 C2085 1.389 . S
C2084 H2057 0.950 . S
C2084 C2070 1.377 . S
C2084 C2083 1.373 . S
C2085 C2069 1.377 . S
C2085 C2083 1.389 . S
C2085 C2086 1.524 . S
C2086 C2085 1.524 . S
C2086 C2087 1.397 . S
C2086 C2091 1.363 . S
C2087 H2058 0.950 . S
C2087 C2086 1.397 . S
C2087 C2088 1.334 . S
C2088 H2059 0.950 . S
C2088 C2087 1.334 . S
C2088 C2089 1.287 . S
C2089 C2088 1.287 . S
C2089 C2090 1.524 . S
C2089 H2092 0.999 . S
C2090 H2060 0.950 . S
C2090 C2089 1.524 . S
C2090 C2091 1.415 . S
C2091 H2061 0.950 . S
C2091 C2086 1.363 . S
C2091 C2090 1.415 . S
H2092 C2089 0.999 . S
H2093 C2074 0.913 . S
H2094 C2112 0.951 . S
H2095 C2114 0.951 . S
H2096 C2116 0.950 . S
H2097 C2117 0.950 . S
H2098 C2119 0.950 . S
H2099 C2122 0.950 . S
H2100 C2123 0.950 . S
H2101 C2125 0.950 . S
H2102 C2126 0.950 . S
H2103 C2127 0.951 . S
H2104 C2129 0.951 . S
H2105 C2131 0.950 . S
H2106 C2132 0.950 . S
H2107 C2134 0.950 . S
H2108 C2137 0.950 . S
H2109 C2138 0.950 . S
H2110 C2140 0.950 . S
H2111 C2141 0.950 . S
C2112 H2094 0.951 . S
C2112 C2113 1.366 . S
C2112 C2114 1.388 . S
C2113 C2112 1.366 . S
C2113 C2117 1.385 . S
C2114 H2095 0.951 . S
C2114 C2112 1.388 . S
C2114 C2115 1.366 . S
C2115 C2114 1.366 . S
C2115 C2116 1.414 . S
C2115 C2118 1.499 . S
C2116 H2096 0.950 . S
C2116 C2115 1.414 . S
C2116 C2117 1.374 . S
C2117 H2097 0.950 . S
C2117 C2113 1.385 . S
C2117 C2116 1.374 . S
C2118 C2115 1.499 . S
C2118 C2119 1.373 . S
C2118 C2120 1.389 . S
C2119 H2098 0.950 . S
C2119 C2118 1.373 . S
C2119 C2135 1.377 . S
C2120 C2118 1.389 . S
C2120 C2121 1.524 . S
C2120 C2134 1.377 . S
C2121 C2120 1.524 . S
C2121 C2122 1.397 . S
C2121 C2126 1.363 . S
C2122 H2099 0.950 . S
C2122 C2121 1.397 . S
C2122 C2123 1.334 . S
C2123 H2100 0.950 . S
C2123 C2122 1.334 . S
C2123 C2124 1.287 . S
C2124 C2123 1.287 . S
C2124 C2125 1.524 . S
C2124 H2143 0.913 . S
C2125 H2101 0.950 . S
C2125 C2124 1.524 . S
C2125 C2126 1.415 . S
C2126 H2102 0.950 . S
C2126 C2121 1.363 . S
C2126 C2125 1.415 . S
C2127 H2103 0.951 . S
C2127 C2128 1.366 . S
C2127 C2129 1.388 . S
C2128 C2127 1.366 . S
C2128 C2132 1.385 . S
C2129 H2104 0.951 . S
C2129 C2127 1.388 . S
C2129 C2130 1.366 . S
C2130 C2129 1.366 . S
C2130 C2131 1.414 . S
C2130 C2133 1.499 . S
C2131 H2105 0.950 . S
C2131 C2130 1.414 . S
C2131 C2132 1.374 . S
C2132 H2106 0.950 . S
C2132 C2128 1.385 . S
C2132 C2131 1.374 . S
C2133 C2130 1.499 . S
C2133 C2134 1.373 . S
C2133 C2135 1.389 . S
C2134 H2107 0.950 . S
C2134 C2120 1.377 . S
C2134 C2133 1.373 . S
C2135 C2119 1.377 . S
C2135 C2133 1.389 . S
C2135 C2136 1.524 . S
C2136 C2135 1.524 . S
C2136 C2137 1.397 . S
C2136 C2141 1.363 . S
C2137 H2108 0.950 . S
C2137 C2136 1.397 . S
C2137 C2138 1.334 . S
C2138 H2109 0.950 . S
C2138 C2137 1.334 . S
C2138 C2139 1.287 . S
C2139 C2138 1.287 . S
C2139 C2140 1.524 . S
C2139 H2142 0.999 . S
C2140 H2110 0.950 . S
C2140 C2139 1.524 . S
C2140 C2141 1.415 . S
C2141 H2111 0.950 . S
C2141 C2136 1.363 . S
C2141 C2140 1.415 . S
H2142 C2139 0.999 . S
H2143 C2124 0.913 . S
H2144 C2162 0.951 . S
H2145 C2164 0.951 . S
H2146 C2166 0.950 . S
H2147 C2167 0.950 . S
H2148 C2169 0.950 . S
H2149 C2172 0.950 . S
H2150 C2173 0.950 . S
H2151 C2175 0.950 . S
H2152 C2176 0.950 . S
H2153 C2177 0.951 . S
H2154 C2179 0.951 . S
H2155 C2181 0.950 . S
H2156 C2182 0.950 . S
H2157 C2184 0.950 . S
H2158 C2187 0.950 . S
H2159 C2188 0.950 . S
H2160 C2190 0.950 . S
H2161 C2191 0.950 . S
C2162 H2144 0.951 . S
C2162 C2163 1.366 . S
C2162 C2164 1.388 . S
C2163 C2162 1.366 . S
C2163 C2167 1.385 . S
C2164 H2145 0.951 . S
C2164 C2162 1.388 . S
C2164 C2165 1.366 . S
C2165 C2164 1.366 . S
C2165 C2166 1.414 . S
C2165 C2168 1.499 . S
C2166 H2146 0.950 . S
C2166 C2165 1.414 . S
C2166 C2167 1.374 . S
C2167 H2147 0.950 . S
C2167 C2163 1.385 . S
C2167 C2166 1.374 . S
C2168 C2165 1.499 . S
C2168 C2169 1.373 . S
C2168 C2170 1.389 . S
C2169 H2148 0.950 . S
C2169 C2168 1.373 . S
C2169 C2185 1.377 . S
C2170 C2168 1.389 . S
C2170 C2171 1.524 . S
C2170 C2184 1.377 . S
C2171 C2170 1.524 . S
C2171 C2172 1.397 . S
C2171 C2176 1.363 . S
C2172 H2149 0.950 . S
C2172 C2171 1.397 . S
C2172 C2173 1.334 . S
C2173 H2150 0.950 . S
C2173 C2172 1.334 . S
C2173 C2174 1.287 . S
C2174 C2173 1.287 . S
C2174 C2175 1.524 . S
C2174 H2193 0.913 . S
C2175 H2151 0.950 . S
C2175 C2174 1.524 . S
C2175 C2176 1.415 . S
C2176 H2152 0.950 . S
C2176 C2171 1.363 . S
C2176 C2175 1.415 . S
C2177 H2153 0.951 . S
C2177 C2178 1.366 . S
C2177 C2179 1.388 . S
C2178 C2177 1.366 . S
C2178 C2182 1.385 . S
C2179 H2154 0.951 . S
C2179 C2177 1.388 . S
C2179 C2180 1.366 . S
C2180 C2179 1.366 . S
C2180 C2181 1.414 . S
C2180 C2183 1.499 . S
C2181 H2155 0.950 . S
C2181 C2180 1.414 . S
C2181 C2182 1.374 . S
C2182 H2156 0.950 . S
C2182 C2178 1.385 . S
C2182 C2181 1.374 . S
C2183 C2180 1.499 . S
C2183 C2184 1.373 . S
C2183 C2185 1.389 . S
C2184 H2157 0.950 . S
C2184 C2170 1.377 . S
C2184 C2183 1.373 . S
C2185 C2169 1.377 . S
C2185 C2183 1.389 . S
C2185 C2186 1.524 . S
C2186 C2185 1.524 . S
C2186 C2187 1.397 . S
C2186 C2191 1.363 . S
C2187 H2158 0.950 . S
C2187 C2186 1.397 . S
C2187 C2188 1.334 . S
C2188 H2159 0.950 . S
C2188 C2187 1.334 . S
C2188 C2189 1.287 . S
C2189 C2188 1.287 . S
C2189 C2190 1.524 . S
C2189 H2192 0.999 . S
C2190 H2160 0.950 . S
C2190 C2189 1.524 . S
C2190 C2191 1.415 . S
C2191 H2161 0.950 . S
C2191 C2186 1.363 . S
C2191 C2190 1.415 . S
H2192 C2189 0.999 . S
H2193 C2174 0.913 . S
H2194 C2212 0.951 . S
H2195 C2214 0.951 . S
H2196 C2216 0.950 . S
H2197 C2217 0.950 . S
H2198 C2219 0.950 . S
H2199 C2222 0.950 . S
H2200 C2223 0.950 . S
H2201 C2225 0.950 . S
H2202 C2226 0.950 . S
H2203 C2227 0.951 . S
H2204 C2229 0.951 . S
H2205 C2231 0.950 . S
H2206 C2232 0.950 . S
H2207 C2234 0.950 . S
H2208 C2237 0.950 . S
H2209 C2238 0.950 . S
H2210 C2240 0.950 . S
H2211 C2241 0.950 . S
C2212 H2194 0.951 . S
C2212 C2213 1.366 . S
C2212 C2214 1.388 . S
C2213 C2212 1.366 . S
C2213 C2217 1.385 . S
C2214 H2195 0.951 . S
C2214 C2212 1.388 . S
C2214 C2215 1.366 . S
C2215 C2214 1.366 . S
C2215 C2216 1.414 . S
C2215 C2218 1.499 . S
C2216 H2196 0.950 . S
C2216 C2215 1.414 . S
C2216 C2217 1.374 . S
C2217 H2197 0.950 . S
C2217 C2213 1.385 . S
C2217 C2216 1.374 . S
C2218 C2215 1.499 . S
C2218 C2219 1.373 . S
C2218 C2220 1.389 . S
C2219 H2198 0.950 . S
C2219 C2218 1.373 . S
C2219 C2235 1.377 . S
C2220 C2218 1.389 . S
C2220 C2221 1.524 . S
C2220 C2234 1.377 . S
C2221 C2220 1.524 . S
C2221 C2222 1.397 . S
C2221 C2226 1.363 . S
C2222 H2199 0.950 . S
C2222 C2221 1.397 . S
C2222 C2223 1.334 . S
C2223 H2200 0.950 . S
C2223 C2222 1.334 . S
C2223 C2224 1.287 . S
C2224 C2223 1.287 . S
C2224 C2225 1.524 . S
C2224 H2243 0.913 . S
C2225 H2201 0.950 . S
C2225 C2224 1.524 . S
C2225 C2226 1.415 . S
C2226 H2202 0.950 . S
C2226 C2221 1.363 . S
C2226 C2225 1.415 . S
C2227 H2203 0.951 . S
C2227 C2228 1.366 . S
C2227 C2229 1.388 . S
C2228 C2227 1.366 . S
C2228 C2232 1.385 . S
C2229 H2204 0.951 . S
C2229 C2227 1.388 . S
C2229 C2230 1.366 . S
C2230 C2229 1.366 . S
C2230 C2231 1.414 . S
C2230 C2233 1.499 . S
C2231 H2205 0.950 . S
C2231 C2230 1.414 . S
C2231 C2232 1.374 . S
C2232 H2206 0.950 . S
C2232 C2228 1.385 . S
C2232 C2231 1.374 . S
C2233 C2230 1.499 . S
C2233 C2234 1.373 . S
C2233 C2235 1.389 . S
C2234 H2207 0.950 . S
C2234 C2220 1.377 . S
C2234 C2233 1.373 . S
C2235 C2219 1.377 . S
C2235 C2233 1.389 . S
C2235 C2236 1.524 . S
C2236 C2235 1.524 . S
C2236 C2237 1.397 . S
C2236 C2241 1.363 . S
C2237 H2208 0.950 . S
C2237 C2236 1.397 . S
C2237 C2238 1.334 . S
C2238 H2209 0.950 . S
C2238 C2237 1.334 . S
C2238 C2239 1.287 . S
C2239 C2238 1.287 . S
C2239 C2240 1.524 . S
C2239 H2242 0.999 . S
C2240 H2210 0.950 . S
C2240 C2239 1.524 . S
C2240 C2241 1.415 . S
C2241 H2211 0.950 . S
C2241 C2236 1.363 . S
C2241 C2240 1.415 . S
H2242 C2239 0.999 . S
H2243 C2224 0.913 . S
H2244 C2262 0.951 . S
H2245 C2264 0.951 . S
H2246 C2266 0.950 . S
H2247 C2267 0.950 . S
H2248 C2269 0.950 . S
H2249 C2272 0.950 . S
H2250 C2273 0.950 . S
H2251 C2275 0.950 . S
H2252 C2276 0.950 . S
H2253 C2277 0.951 . S
H2254 C2279 0.951 . S
H2255 C2281 0.950 . S
H2256 C2282 0.950 . S
H2257 C2284 0.950 . S
H2258 C2287 0.950 . S
H2259 C2288 0.950 . S
H2260 C2290 0.950 . S
H2261 C2291 0.950 . S
C2262 H2244 0.951 . S
C2262 C2263 1.366 . S
C2262 C2264 1.388 . S
C2263 C2262 1.366 . S
C2263 C2267 1.385 . S
C2264 H2245 0.951 . S
C2264 C2262 1.388 . S
C2264 C2265 1.366 . S
C2265 C2264 1.366 . S
C2265 C2266 1.414 . S
C2265 C2268 1.499 . S
C2266 H2246 0.950 . S
C2266 C2265 1.414 . S
C2266 C2267 1.374 . S
C2267 H2247 0.950 . S
C2267 C2263 1.385 . S
C2267 C2266 1.374 . S
C2268 C2265 1.499 . S
C2268 C2269 1.373 . S
C2268 C2270 1.389 . S
C2269 H2248 0.950 . S
C2269 C2268 1.373 . S
C2269 C2285 1.377 . S
C2270 C2268 1.389 . S
C2270 C2271 1.524 . S
C2270 C2284 1.377 . S
C2271 C2270 1.524 . S
C2271 C2272 1.397 . S
C2271 C2276 1.363 . S
C2272 H2249 0.950 . S
C2272 C2271 1.397 . S
C2272 C2273 1.334 . S
C2273 H2250 0.950 . S
C2273 C2272 1.334 . S
C2273 C2274 1.287 . S
C2274 C2273 1.287 . S
C2274 C2275 1.524 . S
C2274 H2293 0.913 . S
C2275 H2251 0.950 . S
C2275 C2274 1.524 . S
C2275 C2276 1.415 . S
C2276 H2252 0.950 . S
C2276 C2271 1.363 . S
C2276 C2275 1.415 . S
C2277 H2253 0.951 . S
C2277 C2278 1.366 . S
C2277 C2279 1.388 . S
C2278 C2277 1.366 . S
C2278 C2282 1.385 . S
C2279 H2254 0.951 . S
C2279 C2277 1.388 . S
C2279 C2280 1.366 . S
C2280 C2279 1.366 . S
C2280 C2281 1.414 . S
C2280 C2283 1.499 . S
C2281 H2255 0.950 . S
C2281 C2280 1.414 . S
C2281 C2282 1.374 . S
C2282 H2256 0.950 . S
C2282 C2278 1.385 . S
C2282 C2281 1.374 . S
C2283 C2280 1.499 . S
C2283 C2284 1.373 . S
C2283 C2285 1.389 . S
C2284 H2257 0.950 . S
C2284 C2270 1.377 . S
C2284 C2283 1.373 . S
C2285 C2269 1.377 . S
C2285 C2283 1.389 . S
C2285 C2286 1.524 . S
C2286 C2285 1.524 . S
C2286 C2287 1.397 . S
C2286 C2291 1.363 . S
C2287 H2258 0.950 . S
C2287 C2286 1.397 . S
C2287 C2288 1.334 . S
C2288 H2259 0.950 . S
C2288 C2287 1.334 . S
C2288 C2289 1.287 . S
C2289 C2288 1.287 . S
C2289 C2290 1.524 . S
C2289 H2292 0.999 . S
C2290 H2260 0.950 . S
C2290 C2289 1.524 . S
C2290 C2291 1.415 . S
C2291 H2261 0.950 . S
C2291 C2286 1.363 . S
C2291 C2290 1.415 . S
H2292 C2289 0.999 . S
H2293 C2274 0.913 . S
H2294 C2312 0.951 . S
H2295 C2314 0.951 . S
H2296 C2316 0.950 . S
H2297 C2317 0.950 . S
H2298 C2319 0.950 . S
H2299 C2322 0.950 . S
H2300 C2323 0.950 . S
H2301 C2325 0.962 . S
H2302 C2326 0.950 . S
H2303 C2327 0.951 . S
H2304 C2329 0.951 . S
H2305 C2331 0.950 . S
H2306 C2332 0.950 . S
H2307 C2334 0.950 . S
H2308 C2337 0.950 . S
H2309 C2338 0.950 . S
H2310 C2340 0.962 . S
H2311 C2341 0.950 . S
C2312 H2294 0.951 . S
C2312 C2313 1.366 . S
C2312 C2314 1.388 . S
C2313 C2312 1.366 . S
C2313 C2317 1.385 . S
C2314 H2295 0.951 . S
C2314 C2312 1.388 . S
C2314 C2315 1.366 . S
C2315 C2314 1.366 . S
C2315 C2316 1.414 . S
C2315 C2318 1.499 . S
C2316 H2296 0.950 . S
C2316 C2315 1.414 . S
C2316 C2317 1.374 . S
C2317 H2297 0.950 . S
C2317 C2313 1.385 . S
C2317 C2316 1.374 . S
C2318 C2315 1.499 . S
C2318 C2319 1.373 . S
C2318 C2320 1.389 . S
C2319 H2298 0.950 . S
C2319 C2318 1.373 . S
C2319 C2335 1.377 1_556 S
C2320 C2318 1.389 . S
C2320 C2321 1.524 . S
C2320 C2334 1.377 1_556 S
C2321 C2320 1.524 . S
C2321 C2322 1.397 . S
C2321 C2326 1.363 1_556 S
C2322 H2299 0.950 . S
C2322 C2321 1.397 . S
C2322 C2323 1.334 . S
C2323 H2300 0.950 . S
C2323 C2322 1.334 . S
C2323 C2324 1.287 . S
C2324 C2323 1.287 . S
C2324 C2325 1.506 1_556 S
C2324 H2343 0.913 . S
C2325 H2301 0.962 . S
C2325 C2324 1.506 1_554 S
C2325 C2326 1.418 . S
C2326 H2302 0.950 . S
C2326 C2321 1.363 1_554 S
C2326 C2325 1.418 . S
C2327 H2303 0.951 . S
C2327 C2328 1.366 . S
C2327 C2329 1.388 . S
C2328 C2327 1.366 . S
C2328 C2332 1.385 . S
C2329 H2304 0.951 . S
C2329 C2327 1.388 . S
C2329 C2330 1.366 . S
C2330 C2329 1.366 . S
C2330 C2331 1.414 . S
C2330 C2333 1.499 . S
C2331 H2305 0.950 . S
C2331 C2330 1.414 . S
C2331 C2332 1.374 . S
C2332 H2306 0.950 . S
C2332 C2328 1.385 . S
C2332 C2331 1.374 . S
C2333 C2330 1.499 . S
C2333 C2334 1.373 . S
C2333 C2335 1.389 . S
C2334 H2307 0.950 . S
C2334 C2320 1.377 1_554 S
C2334 C2333 1.373 . S
C2335 C2319 1.377 1_554 S
C2335 C2333 1.389 . S
C2335 C2336 1.524 . S
C2336 C2335 1.524 . S
C2336 C2337 1.397 . S
C2336 C2341 1.363 1_554 S
C2337 H2308 0.950 . S
C2337 C2336 1.397 . S
C2337 C2338 1.334 . S
C2338 H2309 0.950 . S
C2338 C2337 1.334 . S
C2338 C2339 1.287 . S
C2339 C2338 1.287 . S
C2339 C2340 1.506 1_554 S
C2339 H2342 0.999 . S
C2340 H2310 0.962 . S
C2340 C2339 1.506 1_556 S
C2340 C2341 1.418 . S
C2341 H2311 0.950 . S
C2341 C2336 1.363 1_556 S
C2341 C2340 1.418 . S
H2342 C2339 0.999 . S
H2343 C2324 0.913 . S
H2344 C2362 0.951 . S
H2345 C2364 0.951 . S
H2346 C2366 0.950 . S
H2347 C2367 0.950 . S
H2348 C2369 0.950 . S
H2349 C2372 0.950 . S
H2350 C2373 0.950 . S
H2351 C2375 0.950 . S
H2352 C2376 0.950 1_556 S
H2353 C2377 0.951 . S
H2354 C2379 0.951 . S
H2355 C2381 0.950 . S
H2356 C2382 0.950 . S
H2357 C2384 0.950 . S
H2358 C2387 0.950 . S
H2359 C2388 0.950 . S
H2360 C2390 0.950 . S
H2361 C2391 0.950 1_554 S
C2362 H2344 0.951 . S
C2362 C2363 1.366 . S
C2362 C2364 1.388 . S
C2363 C2362 1.366 . S
C2363 C2367 1.385 . S
C2364 H2345 0.951 . S
C2364 C2362 1.388 . S
C2364 C2365 1.366 . S
C2365 C2364 1.366 . S
C2365 C2366 1.414 . S
C2365 C2368 1.499 . S
C2366 H2346 0.950 . S
C2366 C2365 1.414 . S
C2366 C2367 1.374 . S
C2367 H2347 0.950 . S
C2367 C2363 1.385 . S
C2367 C2366 1.374 . S
C2368 C2365 1.499 . S
C2368 C2369 1.373 . S
C2368 C2370 1.389 . S
C2369 H2348 0.950 . S
C2369 C2368 1.373 . S
C2369 C2385 1.377 1_554 S
C2370 C2368 1.389 . S
C2370 C2371 1.524 . S
C2370 C2384 1.377 1_554 S
C2371 C2370 1.524 . S
C2371 C2372 1.397 . S
C2371 C2376 1.363 . S
C2372 H2349 0.950 . S
C2372 C2371 1.397 . S
C2372 C2373 1.334 . S
C2373 H2350 0.950 . S
C2373 C2372 1.334 . S
C2373 C2374 1.287 . S
C2374 C2373 1.287 . S
C2374 C2375 1.524 . S
C2374 H2393 0.913 . S
C2375 H2351 0.950 . S
C2375 C2374 1.524 . S
C2375 C2376 1.415 . S
C2376 H2352 0.950 1_554 S
C2376 C2371 1.363 . S
C2376 C2375 1.415 . S
C2377 H2353 0.951 . S
C2377 C2378 1.366 . S
C2377 C2379 1.388 . S
C2378 C2377 1.366 . S
C2378 C2382 1.385 . S
C2379 H2354 0.951 . S
C2379 C2377 1.388 . S
C2379 C2380 1.366 . S
C2380 C2379 1.366 . S
C2380 C2381 1.414 . S
C2380 C2383 1.499 . S
C2381 H2355 0.950 . S
C2381 C2380 1.414 . S
C2381 C2382 1.374 . S
C2382 H2356 0.950 . S
C2382 C2378 1.385 . S
C2382 C2381 1.374 . S
C2383 C2380 1.499 . S
C2383 C2384 1.373 . S
C2383 C2385 1.389 . S
C2384 H2357 0.950 . S
C2384 C2370 1.377 1_556 S
C2384 C2383 1.373 . S
C2385 C2369 1.377 1_556 S
C2385 C2383 1.389 . S
C2385 C2386 1.524 . S
C2386 C2385 1.524 . S
C2386 C2387 1.397 . S
C2386 C2391 1.363 . S
C2387 H2358 0.950 . S
C2387 C2386 1.397 . S
C2387 C2388 1.334 . S
C2388 H2359 0.950 . S
C2388 C2387 1.334 . S
C2388 C2389 1.287 . S
C2389 C2388 1.287 . S
C2389 C2390 1.524 . S
C2389 H2392 0.999 . S
C2390 H2360 0.950 . S
C2390 C2389 1.524 . S
C2390 C2391 1.415 . S
C2391 H2361 0.950 1_556 S
C2391 C2386 1.363 . S
C2391 C2390 1.415 . S
H2392 C2389 0.999 . S
H2393 C2374 0.913 . S
H2394 C2412 0.951 . S
H2395 C2414 0.951 . S
H2396 C2416 0.950 . S
H2397 C2417 0.950 . S
H2398 C2419 0.950 . S
H2399 C2422 0.950 . S
H2400 C2423 0.950 . S
H2401 C2425 0.950 . S
H2402 C2426 0.950 . S
H2403 C2427 0.951 . S
H2404 C2429 0.951 . S
H2405 C2431 0.950 . S
H2406 C2432 0.950 . S
H2407 C2434 0.950 . S
H2408 C2437 0.950 . S
H2409 C2438 0.950 . S
H2410 C2440 0.950 . S
H2411 C2441 0.950 . S
C2412 H2394 0.951 . S
C2412 C2413 1.366 . S
C2412 C2414 1.388 . S
C2413 C2412 1.366 . S
C2413 C2417 1.385 . S
C2414 H2395 0.951 . S
C2414 C2412 1.388 . S
C2414 C2415 1.366 . S
C2415 C2414 1.366 . S
C2415 C2416 1.414 . S
C2415 C2418 1.499 . S
C2416 H2396 0.950 . S
C2416 C2415 1.414 . S
C2416 C2417 1.374 . S
C2417 H2397 0.950 . S
C2417 C2413 1.385 . S
C2417 C2416 1.374 . S
C2418 C2415 1.499 . S
C2418 C2419 1.373 . S
C2418 C2420 1.389 . S
C2419 H2398 0.950 . S
C2419 C2418 1.373 . S
C2419 C2435 1.377 . S
C2420 C2418 1.389 . S
C2420 C2421 1.524 . S
C2420 C2434 1.377 . S
C2421 C2420 1.524 . S
C2421 C2422 1.397 . S
C2421 C2426 1.363 . S
C2422 H2399 0.950 . S
C2422 C2421 1.397 . S
C2422 C2423 1.334 . S
C2423 H2400 0.950 . S
C2423 C2422 1.334 . S
C2423 C2424 1.287 . S
C2424 C2423 1.287 . S
C2424 C2425 1.524 . S
C2424 H2443 0.913 . S
C2425 H2401 0.950 . S
C2425 C2424 1.524 . S
C2425 C2426 1.415 . S
C2426 H2402 0.950 . S
C2426 C2421 1.363 . S
C2426 C2425 1.415 . S
C2427 H2403 0.951 . S
C2427 C2428 1.366 . S
C2427 C2429 1.388 . S
C2428 C2427 1.366 . S
C2428 C2432 1.385 . S
C2429 H2404 0.951 . S
C2429 C2427 1.388 . S
C2429 C2430 1.366 . S
C2430 C2429 1.366 . S
C2430 C2431 1.414 . S
C2430 C2433 1.499 . S
C2431 H2405 0.950 . S
C2431 C2430 1.414 . S
C2431 C2432 1.374 . S
C2432 H2406 0.950 . S
C2432 C2428 1.385 . S
C2432 C2431 1.374 . S
C2433 C2430 1.499 . S
C2433 C2434 1.373 . S
C2433 C2435 1.389 . S
C2434 H2407 0.950 . S
C2434 C2420 1.377 . S
C2434 C2433 1.373 . S
C2435 C2419 1.377 . S
C2435 C2433 1.389 . S
C2435 C2436 1.524 . S
C2436 C2435 1.524 . S
C2436 C2437 1.397 . S
C2436 C2441 1.363 . S
C2437 H2408 0.950 . S
C2437 C2436 1.397 . S
C2437 C2438 1.334 . S
C2438 H2409 0.950 . S
C2438 C2437 1.334 . S
C2438 C2439 1.287 . S
C2439 C2438 1.287 . S
C2439 C2440 1.524 . S
C2439 H2442 0.999 . S
C2440 H2410 0.950 . S
C2440 C2439 1.524 . S
C2440 C2441 1.415 . S
C2441 H2411 0.950 . S
C2441 C2436 1.363 . S
C2441 C2440 1.415 . S
H2442 C2439 0.999 . S
H2443 C2424 0.913 . S
H2444 C2462 0.951 . S
H2445 C2464 0.951 . S
H2446 C2466 0.950 . S
H2447 C2467 0.950 . S
H2448 C2469 0.950 . S
H2449 C2472 0.950 . S
H2450 C2473 0.950 . S
H2451 C2475 0.950 . S
H2452 C2476 0.950 . S
H2453 C2477 0.951 . S
H2454 C2479 0.951 . S
H2455 C2481 0.950 . S
H2456 C2482 0.950 . S
H2457 C2484 0.950 . S
H2458 C2487 0.950 . S
H2459 C2488 0.950 . S
H2460 C2490 0.950 . S
H2461 C2491 0.950 . S
C2462 H2444 0.951 . S
C2462 C2463 1.366 . S
C2462 C2464 1.388 . S
C2463 C2462 1.366 . S
C2463 C2467 1.385 . S
C2464 H2445 0.951 . S
C2464 C2462 1.388 . S
C2464 C2465 1.366 . S
C2465 C2464 1.366 . S
C2465 C2466 1.414 . S
C2465 C2468 1.499 . S
C2466 H2446 0.950 . S
C2466 C2465 1.414 . S
C2466 C2467 1.374 . S
C2467 H2447 0.950 . S
C2467 C2463 1.385 . S
C2467 C2466 1.374 . S
C2468 C2465 1.499 . S
C2468 C2469 1.373 . S
C2468 C2470 1.389 . S
C2469 H2448 0.950 . S
C2469 C2468 1.373 . S
C2469 C2485 1.377 . S
C2470 C2468 1.389 . S
C2470 C2471 1.524 . S
C2470 C2484 1.377 . S
C2471 C2470 1.524 . S
C2471 C2472 1.397 . S
C2471 C2476 1.363 . S
C2472 H2449 0.950 . S
C2472 C2471 1.397 . S
C2472 C2473 1.334 . S
C2473 H2450 0.950 . S
C2473 C2472 1.334 . S
C2473 C2474 1.287 . S
C2474 C2473 1.287 . S
C2474 C2475 1.524 . S
C2474 H2493 0.913 . S
C2475 H2451 0.950 . S
C2475 C2474 1.524 . S
C2475 C2476 1.415 . S
C2476 H2452 0.950 . S
C2476 C2471 1.363 . S
C2476 C2475 1.415 . S
C2477 H2453 0.951 . S
C2477 C2478 1.366 . S
C2477 C2479 1.388 . S
C2478 C2477 1.366 . S
C2478 C2482 1.385 . S
C2479 H2454 0.951 . S
C2479 C2477 1.388 . S
C2479 C2480 1.366 . S
C2480 C2479 1.366 . S
C2480 C2481 1.414 . S
C2480 C2483 1.499 . S
C2481 H2455 0.950 . S
C2481 C2480 1.414 . S
C2481 C2482 1.374 . S
C2482 H2456 0.950 . S
C2482 C2478 1.385 . S
C2482 C2481 1.374 . S
C2483 C2480 1.499 . S
C2483 C2484 1.373 . S
C2483 C2485 1.389 . S
C2484 H2457 0.950 . S
C2484 C2470 1.377 . S
C2484 C2483 1.373 . S
C2485 C2469 1.377 . S
C2485 C2483 1.389 . S
C2485 C2486 1.524 . S
C2486 C2485 1.524 . S
C2486 C2487 1.397 . S
C2486 C2491 1.363 . S
C2487 H2458 0.950 . S
C2487 C2486 1.397 . S
C2487 C2488 1.334 . S
C2488 H2459 0.950 . S
C2488 C2487 1.334 . S
C2488 C2489 1.287 . S
C2489 C2488 1.287 . S
C2489 C2490 1.524 . S
C2489 H2492 0.999 . S
C2490 H2460 0.950 . S
C2490 C2489 1.524 . S
C2490 C2491 1.415 . S
C2491 H2461 0.950 . S
C2491 C2486 1.363 . S
C2491 C2490 1.415 . S
H2492 C2489 0.999 . S
H2493 C2474 0.913 . S
H2494 C2512 0.951 . S
H2495 C2514 0.951 . S
H2496 C2516 0.950 . S
H2497 C2517 0.950 . S
H2498 C2519 0.950 . S
H2499 C2522 0.950 . S
H2500 C2523 0.950 . S
H2501 C2525 0.950 . S
H2502 C2526 0.950 . S
H2503 C2527 0.951 . S
H2504 C2529 0.951 . S
H2505 C2531 0.950 . S
H2506 C2532 0.950 . S
H2507 C2534 0.950 . S
H2508 C2537 0.950 . S
H2509 C2538 0.950 . S
H2510 C2540 0.950 . S
H2511 C2541 0.950 . S
C2512 H2494 0.951 . S
C2512 C2513 1.366 . S
C2512 C2514 1.388 . S
C2513 C2512 1.366 . S
C2513 C2517 1.385 . S
C2514 H2495 0.951 . S
C2514 C2512 1.388 . S
C2514 C2515 1.366 . S
C2515 C2514 1.366 . S
C2515 C2516 1.414 . S
C2515 C2518 1.499 . S
C2516 H2496 0.950 . S
C2516 C2515 1.414 . S
C2516 C2517 1.374 . S
C2517 H2497 0.950 . S
C2517 C2513 1.385 . S
C2517 C2516 1.374 . S
C2518 C2515 1.499 . S
C2518 C2519 1.373 . S
C2518 C2520 1.389 . S
C2519 H2498 0.950 . S
C2519 C2518 1.373 . S
C2519 C2535 1.377 . S
C2520 C2518 1.389 . S
C2520 C2521 1.524 . S
C2520 C2534 1.377 . S
C2521 C2520 1.524 . S
C2521 C2522 1.397 . S
C2521 C2526 1.363 . S
C2522 H2499 0.950 . S
C2522 C2521 1.397 . S
C2522 C2523 1.334 . S
C2523 H2500 0.950 . S
C2523 C2522 1.334 . S
C2523 C2524 1.287 . S
C2524 C2523 1.287 . S
C2524 C2525 1.524 . S
C2524 H2543 0.913 . S
C2525 H2501 0.950 . S
C2525 C2524 1.524 . S
C2525 C2526 1.415 . S
C2526 H2502 0.950 . S
C2526 C2521 1.363 . S
C2526 C2525 1.415 . S
C2527 H2503 0.951 . S
C2527 C2528 1.366 . S
C2527 C2529 1.388 . S
C2528 C2527 1.366 . S
C2528 C2532 1.385 . S
C2529 H2504 0.951 . S
C2529 C2527 1.388 . S
C2529 C2530 1.366 . S
C2530 C2529 1.366 . S
C2530 C2531 1.414 . S
C2530 C2533 1.499 . S
C2531 H2505 0.950 . S
C2531 C2530 1.414 . S
C2531 C2532 1.374 . S
C2532 H2506 0.950 . S
C2532 C2528 1.385 . S
C2532 C2531 1.374 . S
C2533 C2530 1.499 . S
C2533 C2534 1.373 . S
C2533 C2535 1.389 . S
C2534 H2507 0.950 . S
C2534 C2520 1.377 . S
C2534 C2533 1.373 . S
C2535 C2519 1.377 . S
C2535 C2533 1.389 . S
C2535 C2536 1.524 . S
C2536 C2535 1.524 . S
C2536 C2537 1.397 . S
C2536 C2541 1.363 . S
C2537 H2508 0.950 . S
C2537 C2536 1.397 . S
C2537 C2538 1.334 . S
C2538 H2509 0.950 . S
C2538 C2537 1.334 . S
C2538 C2539 1.287 . S
C2539 C2538 1.287 . S
C2539 C2540 1.524 . S
C2539 H2542 0.999 . S
C2540 H2510 0.950 . S
C2540 C2539 1.524 . S
C2540 C2541 1.415 . S
C2541 H2511 0.950 . S
C2541 C2536 1.363 . S
C2541 C2540 1.415 . S
H2542 C2539 0.999 . S
H2543 C2524 0.913 . S
C963 C595 1.434 . S
C978 C5 1.434 . S
C1013 C64 1.435 . S
C1028 C654 1.434 . S
C1063 C477 1.435 . S
C1078 C123 1.435 . S
C1113 C536 1.435 . S
C1128 C182 1.435 . S
C1163 C241 1.435 . S
C1178 C831 1.435 . S
C1213 C890 1.435 . S
C1228 C300 1.434 . S
C1263 C359 1.435 . S
C1278 C713 1.434 . S
C1313 C772 1.434 . S
C1328 C418 1.434 . S
C1363 C642 1.673 . S
C1378 C52 1.672 . S
C1413 C111 1.672 . S
C1428 C701 1.673 . S
C1463 C170 1.672 . S
C1478 C524 1.672 . S
C1513 C229 1.673 . S
C1528 C583 1.673 . S
C1563 C288 1.672 . S
C1578 C878 1.672 . S
C1613 C347 1.672 . S
C1628 C937 1.672 . S
C1663 C760 1.673 . S
C1678 C406 1.672 . S
C1713 C819 1.672 . S
C1728 C465 1.672 . S
C1763 C3 1.351 . S
C1778 C357 1.351 . S
C1813 C62 1.351 . S
C1828 C416 1.351 . S
C1863 C121 1.352 . S
C1878 C239 1.352 . S
C1913 C180 1.352 . S
C1928 C298 1.351 . S
C1963 C475 1.352 . S
C1978 C829 1.351 . S
C2013 C888 1.351 . S
C2028 C534 1.351 . S
C2063 C593 1.351 . S
C2078 C711 1.352 . S
C2113 C770 1.351 . S
C2128 C652 1.352 . S
C2163 C33 1.207 . S
C2178 C918 1.208 . S
C2213 C741 1.207 . S
C2228 C92 1.208 . S
C2263 C800 1.208 . S
C2278 C151 1.207 . S
C2313 C859 1.208 . S
C2328 C210 1.207 . S
C2363 C564 1.208 . S
C2378 C269 1.207 . S
C2413 C623 1.208 . S
C2428 C328 1.208 . S
C2463 C387 1.207 . S
C2478 C682 1.208 . S
C2513 C446 1.208 . S
C2528 C505 1.207 . S
