# Generated by pormake.
# Topology cbo, (4)-cn, num edge types: 1
# Building blocks:
#     Node 0, Type 0, BuildingBlock: GALJAG_clean_sbu_0, # of connection points: 4
#     Node 1, Type 0, BuildingBlock: GALJAG_clean_sbu_0, # of connection points: 4
#     Node 2, Type 0, BuildingBlock: GALJAG_clean_sbu_0, # of connection points: 4
#     Node 3, Type 0, BuildingBlock: GALJAG_clean_sbu_0, # of connection points: 4
#     Node 4, Type 0, BuildingBlock: GALJAG_clean_sbu_0, # of connection points: 4
#     Node 5, Type 0, BuildingBlock: GALJAG_clean_sbu_0, # of connection points: 4
#     Node 6, Type 0, BuildingBlock: GALJAG_clean_sbu_0, # of connection points: 4
#     Node 7, Type 0, BuildingBlock: GALJAG_clean_sbu_0, # of connection points: 4
#     Node 8, Type 0, BuildingBlock: GALJAG_clean_sbu_0, # of connection points: 4
#     Node 9, Type 0, BuildingBlock: GALJAG_clean_sbu_0, # of connection points: 4
#     Node 10, Type 0, BuildingBlock: GALJAG_clean_sbu_0, # of connection points: 4
#     Node 11, Type 0, BuildingBlock: GALJAG_clean_sbu_0, # of connection points: 4
#     Node 12, Type 0, BuildingBlock: GALJAG_clean_sbu_0, # of connection points: 4
#     Node 13, Type 0, BuildingBlock: GALJAG_clean_sbu_0, # of connection points: 4
#     Node 14, Type 0, BuildingBlock: GALJAG_clean_sbu_0, # of connection points: 4
#     Node 15, Type 0, BuildingBlock: GALJAG_clean_sbu_0, # of connection points: 4
#     Node 16, Type 0, BuildingBlock: GALJAG_clean_sbu_0, # of connection points: 4
#     Node 17, Type 0, BuildingBlock: GALJAG_clean_sbu_0, # of connection points: 4
#     Node 18, Type 0, BuildingBlock: GALJAG_clean_sbu_0, # of connection points: 4
#     Node 19, Type 0, BuildingBlock: GALJAG_clean_sbu_0, # of connection points: 4
#     Node 20, Type 0, BuildingBlock: GALJAG_clean_sbu_0, # of connection points: 4
#     Node 21, Type 0, BuildingBlock: GALJAG_clean_sbu_0, # of connection points: 4
#     Node 22, Type 0, BuildingBlock: GALJAG_clean_sbu_0, # of connection points: 4
#     Node 23, Type 0, BuildingBlock: GALJAG_clean_sbu_0, # of connection points: 4
#     Edge 24, Type (0, 0), BuildingBlock: XIVTED_clean_linker_0, # of connection points: 2
#     Edge 25, Type (0, 0), BuildingBlock: XIVTED_clean_linker_0, # of connection points: 2
#     Edge 26, Type (0, 0), BuildingBlock: XIVTED_clean_linker_0, # of connection points: 2
#     Edge 27, Type (0, 0), BuildingBlock: XIVTED_clean_linker_0, # of connection points: 2
#     Edge 28, Type (0, 0), BuildingBlock: XIVTED_clean_linker_0, # of connection points: 2
#     Edge 29, Type (0, 0), BuildingBlock: XIVTED_clean_linker_0, # of connection points: 2
#     Edge 30, Type (0, 0), BuildingBlock: XIVTED_clean_linker_0, # of connection points: 2
#     Edge 31, Type (0, 0), BuildingBlock: XIVTED_clean_linker_0, # of connection points: 2
#     Edge 32, Type (0, 0), BuildingBlock: XIVTED_clean_linker_0, # of connection points: 2
#     Edge 33, Type (0, 0), BuildingBlock: XIVTED_clean_linker_0, # of connection points: 2
#     Edge 34, Type (0, 0), BuildingBlock: XIVTED_clean_linker_0, # of connection points: 2
#     Edge 35, Type (0, 0), BuildingBlock: XIVTED_clean_linker_0, # of connection points: 2
#     Edge 36, Type (0, 0), BuildingBlock: XIVTED_clean_linker_0, # of connection points: 2
#     Edge 37, Type (0, 0), BuildingBlock: XIVTED_clean_linker_0, # of connection points: 2
#     Edge 38, Type (0, 0), BuildingBlock: XIVTED_clean_linker_0, # of connection points: 2
#     Edge 39, Type (0, 0), BuildingBlock: XIVTED_clean_linker_0, # of connection points: 2
#     Edge 40, Type (0, 0), BuildingBlock: XIVTED_clean_linker_0, # of connection points: 2
#     Edge 41, Type (0, 0), BuildingBlock: XIVTED_clean_linker_0, # of connection points: 2
#     Edge 42, Type (0, 0), BuildingBlock: XIVTED_clean_linker_0, # of connection points: 2
#     Edge 43, Type (0, 0), BuildingBlock: XIVTED_clean_linker_0, # of connection points: 2
#     Edge 44, Type (0, 0), BuildingBlock: XIVTED_clean_linker_0, # of connection points: 2
#     Edge 45, Type (0, 0), BuildingBlock: XIVTED_clean_linker_0, # of connection points: 2
#     Edge 46, Type (0, 0), BuildingBlock: XIVTED_clean_linker_0, # of connection points: 2
#     Edge 47, Type (0, 0), BuildingBlock: XIVTED_clean_linker_0, # of connection points: 2
#     Edge 48, Type (0, 0), BuildingBlock: XIVTED_clean_linker_0, # of connection points: 2
#     Edge 49, Type (0, 0), BuildingBlock: XIVTED_clean_linker_0, # of connection points: 2
#     Edge 50, Type (0, 0), BuildingBlock: XIVTED_clean_linker_0, # of connection points: 2
#     Edge 51, Type (0, 0), BuildingBlock: XIVTED_clean_linker_0, # of connection points: 2
#     Edge 52, Type (0, 0), BuildingBlock: XIVTED_clean_linker_0, # of connection points: 2
#     Edge 53, Type (0, 0), BuildingBlock: XIVTED_clean_linker_0, # of connection points: 2
#     Edge 54, Type (0, 0), BuildingBlock: XIVTED_clean_linker_0, # of connection points: 2
#     Edge 55, Type (0, 0), BuildingBlock: XIVTED_clean_linker_0, # of connection points: 2
#     Edge 56, Type (0, 0), BuildingBlock: XIVTED_clean_linker_0, # of connection points: 2
#     Edge 57, Type (0, 0), BuildingBlock: XIVTED_clean_linker_0, # of connection points: 2
#     Edge 58, Type (0, 0), BuildingBlock: XIVTED_clean_linker_0, # of connection points: 2
#     Edge 59, Type (0, 0), BuildingBlock: XIVTED_clean_linker_0, # of connection points: 2
#     Edge 60, Type (0, 0), BuildingBlock: XIVTED_clean_linker_0, # of connection points: 2
#     Edge 61, Type (0, 0), BuildingBlock: XIVTED_clean_linker_0, # of connection points: 2
#     Edge 62, Type (0, 0), BuildingBlock: XIVTED_clean_linker_0, # of connection points: 2
#     Edge 63, Type (0, 0), BuildingBlock: XIVTED_clean_linker_0, # of connection points: 2
#     Edge 64, Type (0, 0), BuildingBlock: XIVTED_clean_linker_0, # of connection points: 2
#     Edge 65, Type (0, 0), BuildingBlock: XIVTED_clean_linker_0, # of connection points: 2
#     Edge 66, Type (0, 0), BuildingBlock: XIVTED_clean_linker_0, # of connection points: 2
#     Edge 67, Type (0, 0), BuildingBlock: XIVTED_clean_linker_0, # of connection points: 2
#     Edge 68, Type (0, 0), BuildingBlock: XIVTED_clean_linker_0, # of connection points: 2
#     Edge 69, Type (0, 0), BuildingBlock: XIVTED_clean_linker_0, # of connection points: 2
#     Edge 70, Type (0, 0), BuildingBlock: XIVTED_clean_linker_0, # of connection points: 2
#     Edge 71, Type (0, 0), BuildingBlock: XIVTED_clean_linker_0, # of connection points: 2
# Relax obj value: 0.104
# Max RMSD: 0.140
# Mean RMSD: 0.140
data_MOF--net-cbo--node1-GALJAG_clean_sbu_0--edge1-XIVTED_clean_linker_0
_symmetry_space_group_name_H-M    P1
_symmetry_Int_Tables_number       1
_symmetry_cell_setting            triclinic
loop_
_symmetry_equiv_pos_as_xyz
'x, y, z'
_cell_length_a     52.587794
_cell_length_b     52.512599
_cell_length_c     52.623342
_cell_angle_alpha  89.999454
_cell_angle_beta   89.920209
_cell_angle_gamma 90.007415
loop_
_atom_site_label
_atom_site_type_symbol
_atom_site_fract_x
_atom_site_fract_y
_atom_site_fract_z
_atom_type_partial_charge
In0 In 0.06649 0.1325 0.28258 0.0
O1 O 0.03323 0.10439 0.2835 0.0
O2 O 0.02592 0.14327 0.29233 0.0
C3 C 0.10548 0.10164 0.26936 0.0
C4 C 0.07822 0.14394 0.33086 0.0
C5 C 0.06606 0.16574 0.24343 0.0
O6 O 0.08267 0.09623 0.26419 0.0
O7 O 0.10836 0.12212 0.28145 0.0
O8 O 0.07208 0.17218 0.2657 0.0
O9 O 0.05994 0.14268 0.24099 0.0
C10 C 0.01716 0.12104 0.29008 0.0
O11 O 0.08143 0.15947 0.3128 0.0
O12 O 0.06928 0.12253 0.32451 0.0
In13 In 0.44802 0.83951 0.78094 0.0
O14 O 0.42543 0.81156 0.80526 0.0
O15 O 0.45304 0.83462 0.82369 0.0
C16 C 0.44986 0.80843 0.74 0.0
C17 C 0.49459 0.85933 0.78864 0.0
C18 C 0.40936 0.87219 0.77133 0.0
O19 O 0.44956 0.80002 0.76244 0.0
O20 O 0.44977 0.83236 0.7383 0.0
O21 O 0.43115 0.8749 0.7617 0.0
O22 O 0.40732 0.85348 0.7861 0.0
C23 C 0.43599 0.81786 0.82584 0.0
O24 O 0.47441 0.87156 0.79315 0.0
O25 O 0.49129 0.83709 0.78015 0.0
In26 In 0.54741 0.36033 0.70362 0.0
O27 O 0.51659 0.39073 0.69913 0.0
O28 O 0.50504 0.35211 0.70285 0.0
C29 C 0.58724 0.39174 0.71257 0.0
C30 C 0.55673 0.34332 0.65627 0.0
C31 C 0.54873 0.32861 0.74398 0.0
O32 O 0.56517 0.3964 0.72079 0.0
O33 O 0.58898 0.37168 0.6996 0.0
O34 O 0.54941 0.32069 0.72137 0.0
O35 O 0.54712 0.35245 0.74622 0.0
C36 C 0.49843 0.37502 0.69999 0.0
O37 O 0.56333 0.33118 0.67589 0.0
O38 O 0.54529 0.36403 0.66052 0.0
In39 In 0.9311 0.64256 0.21711 0.0
O40 O 0.95843 0.60912 0.21184 0.0
O41 O 0.9742 0.64606 0.21657 0.0
C42 C 0.88977 0.61673 0.23294 0.0
C43 C 0.92246 0.65354 0.16787 0.0
C44 C 0.93 0.67787 0.25431 0.0
O45 O 0.91203 0.61002 0.23896 0.0
O46 O 0.88855 0.6361 0.21887 0.0
O47 O 0.92338 0.68275 0.23177 0.0
O48 O 0.9377 0.65541 0.25788 0.0
C49 C 0.9782 0.62267 0.213 0.0
O50 O 0.93092 0.66997 0.18323 0.0
O51 O 0.91876 0.6318 0.17732 0.0
In52 In 0.29508 0.05168 0.14054 0.0
O53 O 0.3297 0.05493 0.1665 0.0
O54 O 0.33312 0.06825 0.12843 0.0
C55 C 0.25771 0.04648 0.17558 0.0
C56 C 0.30202 0.00552 0.11915 0.0
C57 C 0.27841 0.09396 0.11684 0.0
O58 O 0.27949 0.05489 0.18102 0.0
O59 O 0.25507 0.03994 0.15271 0.0
O60 O 0.27892 0.07253 0.10592 0.0
O61 O 0.2863 0.09391 0.13945 0.0
C62 C 0.34357 0.06525 0.1498 0.0
O63 O 0.29005 0.02313 0.10808 0.0
O64 O 0.31028 0.01117 0.14091 0.0
In65 In 0.21433 0.92827 0.65424 0.0
O66 O 0.18095 0.92939 0.68236 0.0
O67 O 0.17588 0.91006 0.64726 0.0
C68 C 0.25328 0.93071 0.68737 0.0
C69 C 0.20746 0.97436 0.63264 0.0
C70 C 0.23219 0.88752 0.62871 0.0
O71 O 0.23147 0.92291 0.69377 0.0
O72 O 0.25516 0.93777 0.66454 0.0
O73 O 0.23375 0.90984 0.61984 0.0
O74 O 0.22156 0.88594 0.65015 0.0
C75 C 0.16637 0.91653 0.66827 0.0
O76 O 0.20557 0.95389 0.62022 0.0
O77 O 0.21277 0.97153 0.6558 0.0
In78 In 0.78374 0.44236 0.82675 0.0
O79 O 0.78025 0.47093 0.85924 0.0
O80 O 0.79977 0.48253 0.82574 0.0
C81 C 0.76683 0.39993 0.85 0.0
C82 C 0.83188 0.42762 0.81777 0.0
C83 C 0.74537 0.44882 0.79325 0.0
O84 O 0.76807 0.42108 0.86141 0.0
O85 O 0.77397 0.4004 0.82713 0.0
O86 O 0.76682 0.44019 0.78675 0.0
O87 O 0.74371 0.45507 0.8163 0.0
C88 C 0.79238 0.48825 0.84783 0.0
O89 O 0.81805 0.437 0.8005 0.0
O90 O 0.82151 0.42613 0.83935 0.0
In91 In 0.69652 0.57563 0.36366 0.0
O92 O 0.70475 0.53365 0.36957 0.0
O93 O 0.67801 0.55071 0.39452 0.0
C94 C 0.71228 0.61723 0.38934 0.0
C95 C 0.65025 0.58469 0.34373 0.0
C96 C 0.73546 0.57264 0.33053 0.0
O97 O 0.70322 0.61803 0.36722 0.0
O98 O 0.71323 0.59522 0.39901 0.0
O99 O 0.71317 0.57821 0.32356 0.0
O100 O 0.7379 0.5684 0.35398 0.0
C101 C 0.68966 0.53077 0.38791 0.0
O102 O 0.66499 0.56809 0.33451 0.0
O103 O 0.65875 0.59621 0.36293 0.0
In104 In 0.14708 0.28125 0.05341 0.0
O105 O 0.11597 0.2797 0.02341 0.0
O106 O 0.15332 0.28994 0.01154 0.0
C107 C 0.11708 0.26471 0.0918 0.0
C108 C 0.15741 0.33058 0.06217 0.0
C109 C 0.18398 0.24546 0.0556 0.0
O110 O 0.11526 0.25618 0.06949 0.0
O111 O 0.13345 0.28198 0.09452 0.0
O112 O 0.18517 0.26617 0.06761 0.0
O113 O 0.16456 0.24311 0.04181 0.0
C114 C 0.13043 0.28625 0.00539 0.0
O115 O 0.17454 0.31373 0.0613 0.0
O116 O 0.13507 0.32254 0.05853 0.0
In117 In 0.64263 0.21062 0.92438 0.0
O118 O 0.61289 0.21152 0.95585 0.0
O119 O 0.65107 0.2029 0.96607 0.0
C120 C 0.6077 0.22785 0.8909 0.0
C121 C 0.65688 0.16229 0.91514 0.0
C122 C 0.67886 0.24631 0.91703 0.0
O123 O 0.61214 0.23872 0.91177 0.0
O124 O 0.62019 0.2077 0.88729 0.0
O125 O 0.67538 0.22791 0.90208 0.0
O126 O 0.66454 0.24638 0.93627 0.0
C127 C 0.62836 0.20585 0.97326 0.0
O128 O 0.67226 0.18072 0.91438 0.0
O129 O 0.63421 0.16822 0.92042 0.0
In130 In 0.85063 0.80269 0.4417 0.0
O131 O 0.82411 0.83733 0.44427 0.0
O132 O 0.8586 0.84098 0.42348 0.0
C133 C 0.81404 0.76671 0.44195 0.0
C134 C 0.87168 0.80802 0.48816 0.0
C135 C 0.87706 0.78268 0.40247 0.0
O136 O 0.81026 0.78885 0.43336 0.0
O137 O 0.83599 0.76302 0.45082 0.0
O138 O 0.88385 0.77953 0.42527 0.0
O139 O 0.85744 0.79615 0.39965 0.0
C140 C 0.83833 0.85139 0.43092 0.0
O141 O 0.84927 0.80029 0.48477 0.0
O142 O 0.88374 0.81314 0.46805 0.0
In143 In 0.3572 0.69709 0.55465 0.0
O144 O 0.38663 0.68806 0.52415 0.0
O145 O 0.35005 0.70018 0.51201 0.0
C146 C 0.39082 0.71125 0.59089 0.0
C147 C 0.33943 0.64936 0.56099 0.0
C148 C 0.32356 0.73508 0.56232 0.0
O149 O 0.39079 0.72077 0.56892 0.0
O150 O 0.37451 0.69402 0.5943 0.0
O151 O 0.32151 0.71357 0.57282 0.0
O152 O 0.34225 0.73725 0.54741 0.0
C153 C 0.37203 0.69286 0.50577 0.0
O154 O 0.32493 0.66844 0.55946 0.0
O155 O 0.36283 0.65434 0.55929 0.0
In156 In 0.94018 0.8474 0.7154 0.0
O157 O 0.97201 0.87695 0.71545 0.0
O158 O 0.98178 0.83838 0.70783 0.0
C159 C 0.90293 0.87905 0.73175 0.0
C160 C 0.93038 0.83669 0.66639 0.0
C161 C 0.93635 0.81106 0.75166 0.0
O162 O 0.92514 0.87963 0.74068 0.0
O163 O 0.8998 0.86321 0.71409 0.0
O164 O 0.9257 0.8092 0.7303 0.0
O165 O 0.94961 0.83084 0.75445 0.0
C166 C 0.98926 0.86109 0.71017 0.0
O167 O 0.92951 0.82003 0.68368 0.0
O168 O 0.93632 0.85879 0.67379 0.0
In169 In 0.56021 0.15935 0.19987 0.0
O170 O 0.56201 0.18528 0.16518 0.0
O171 O 0.57754 0.14796 0.16199 0.0
C172 C 0.55653 0.19525 0.23659 0.0
C173 C 0.51437 0.13792 0.19148 0.0
C174 C 0.60104 0.13412 0.21777 0.0
O175 O 0.567 0.19941 0.21545 0.0
O176 O 0.54719 0.17328 0.23891 0.0
O177 O 0.5787 0.12567 0.22041 0.0
O178 O 0.60263 0.155 0.20606 0.0
C179 C 0.5732 0.16908 0.15141 0.0
O180 O 0.5325 0.12579 0.20146 0.0
O181 O 0.51929 0.16079 0.1861 0.0
In182 In 0.42552 0.63698 0.27741 0.0
O183 O 0.45798 0.60828 0.28049 0.0
O184 O 0.46695 0.64774 0.28274 0.0
C185 C 0.38823 0.60431 0.26365 0.0
C186 C 0.41602 0.65043 0.32579 0.0
C187 C 0.42218 0.67029 0.23847 0.0
O188 O 0.41058 0.60262 0.25513 0.0
O189 O 0.38501 0.62177 0.2797 0.0
O190 O 0.41291 0.67483 0.26012 0.0
O191 O 0.43369 0.64932 0.23671 0.0
C192 C 0.47492 0.62508 0.28331 0.0
O193 O 0.41309 0.66565 0.30743 0.0
O194 O 0.42363 0.62844 0.31971 0.0
In195 In 0.05 0.32974 0.78252 0.0
O196 O 0.02086 0.36126 0.77534 0.0
O197 O 0.01012 0.33042 0.79919 0.0
C198 C 0.09146 0.35459 0.76542 0.0
C199 C 0.06369 0.32056 0.83089 0.0
C200 C 0.0452 0.29337 0.74643 0.0
O201 O 0.07012 0.36542 0.7676 0.0
O202 O 0.09173 0.33145 0.77178 0.0
O203 O 0.0549 0.28908 0.76789 0.0
O204 O 0.03723 0.31579 0.74344 0.0
C205 C 0.00387 0.35122 0.789 0.0
O206 O 0.05194 0.30436 0.81763 0.0
O207 O 0.06808 0.34147 0.81992 0.0
In208 In 0.71152 0.93346 0.86215 0.0
O209 O 0.6862 0.91526 0.83199 0.0
O210 O 0.66829 0.93492 0.86248 0.0
C211 C 0.75252 0.93349 0.83128 0.0
C212 C 0.70445 0.98196 0.87729 0.0
C213 C 0.72231 0.89523 0.89493 0.0
O214 O 0.7301 0.93172 0.82293 0.0
O215 O 0.75418 0.93566 0.85509 0.0
O216 O 0.73021 0.91765 0.89826 0.0
O217 O 0.7086 0.89235 0.87557 0.0
C218 C 0.66566 0.92219 0.84233 0.0
O219 O 0.69931 0.96317 0.89133 0.0
O220 O 0.71349 0.97631 0.85581 0.0
In221 In 0.78824 0.07381 0.35083 0.0
O222 O 0.82135 0.07371 0.32292 0.0
O223 O 0.82812 0.08792 0.36019 0.0
C224 C 0.75089 0.0748 0.31566 0.0
C225 C 0.79484 0.02634 0.36929 0.0
C226 C 0.77126 0.11369 0.37838 0.0
O227 O 0.77234 0.08493 0.31212 0.0
O228 O 0.74849 0.06354 0.33668 0.0
O229 O 0.7662 0.09093 0.3843 0.0
O230 O 0.78538 0.11614 0.35915 0.0
C231 C 0.83703 0.08315 0.33841 0.0
O232 O 0.79052 0.0451 0.38367 0.0
O233 O 0.79535 0.03155 0.34593 0.0
In234 In 0.19553 0.55737 0.13463 0.0
O235 O 0.1821 0.52924 0.10449 0.0
O236 O 0.20134 0.51455 0.13689 0.0
C237 C 0.20516 0.59693 0.10296 0.0
C238 C 0.15009 0.56603 0.15688 0.0
C239 C 0.23678 0.55548 0.16498 0.0
O240 O 0.2115 0.57438 0.0978 0.0
O241 O 0.19342 0.59939 0.12367 0.0
O242 O 0.2144 0.55541 0.17368 0.0
O243 O 0.23828 0.55626 0.14107 0.0
C244 C 0.19046 0.50991 0.11605 0.0
O245 O 0.17054 0.57539 0.16522 0.0
O246 O 0.15257 0.55225 0.13741 0.0
In247 In 0.27386 0.43004 0.63406 0.0
O248 O 0.28982 0.45507 0.6022 0.0
O249 O 0.26998 0.4731 0.63246 0.0
C250 C 0.25501 0.39694 0.59945 0.0
C251 C 0.31928 0.41898 0.65501 0.0
C252 C 0.23979 0.42508 0.67231 0.0
O253 O 0.24194 0.41461 0.60901 0.0
O254 O 0.27796 0.39683 0.60624 0.0
O255 O 0.26045 0.41298 0.67168 0.0
O256 O 0.23668 0.44038 0.65413 0.0
C257 C 0.28205 0.47563 0.61191 0.0
O258 O 0.31014 0.44121 0.65538 0.0
O259 O 0.30539 0.40251 0.64447 0.0
In260 In 0.84563 0.70282 0.94454 0.0
O261 O 0.87659 0.70521 0.9751 0.0
O262 O 0.84236 0.68563 0.98396 0.0
C263 C 0.87136 0.71975 0.90354 0.0
C264 C 0.83462 0.65548 0.92847 0.0
C265 C 0.81197 0.74132 0.95022 0.0
O266 O 0.88162 0.71821 0.9252 0.0
O267 O 0.84842 0.71281 0.90277 0.0
O268 O 0.80575 0.71977 0.9417 0.0
O269 O 0.83499 0.74323 0.95651 0.0
C270 C 0.864 0.69276 0.99132 0.0
O271 O 0.81802 0.67006 0.93794 0.0
O272 O 0.85681 0.66463 0.92753 0.0
In273 In 0.33882 0.78005 0.04237 0.0
O274 O 0.37343 0.78072 0.01623 0.0
O275 O 0.33686 0.78263 -0.0008 0.0
C276 C 0.36217 0.76186 0.08417 0.0
C277 C 0.33224 0.83007 0.05181 0.0
C278 C 0.30119 0.74514 0.04143 0.0
O279 O 0.37015 0.75712 0.06202 0.0
O280 O 0.34262 0.7757 0.0851 0.0
O281 O 0.29769 0.76762 0.04921 0.0
O282 O 0.32338 0.7406 0.03354 0.0
C283 C 0.36063 0.78224 -0.00397 0.0
O284 O 0.31467 0.81643 0.04274 0.0
O285 O 0.35293 0.81858 0.05551 0.0
In286 In 0.13972 0.19263 0.55851 0.0
O287 O 0.11033 0.18106 0.5289 0.0
O288 O 0.14627 0.19443 0.51588 0.0
C289 C 0.10726 0.20088 0.59752 0.0
C290 C 0.16089 0.1471 0.56906 0.0
C291 C 0.16672 0.23632 0.55733 0.0
O292 O 0.10194 0.20692 0.57495 0.0
O293 O 0.12857 0.1903 0.60023 0.0
O294 O 0.17729 0.21472 0.55782 0.0
O295 O 0.14276 0.23574 0.55738 0.0
C296 C 0.12455 0.18599 0.51019 0.0
O297 O 0.17074 0.16783 0.57622 0.0
O298 O 0.14068 0.14943 0.55642 0.0
In299 In 0.63413 0.30155 0.43309 0.0
O300 O 0.66396 0.33317 0.43257 0.0
O301 O 0.62514 0.34373 0.42876 0.0
C302 C 0.66893 0.26381 0.43095 0.0
C303 C 0.61379 0.30323 0.48006 0.0
C304 C 0.60707 0.28834 0.39148 0.0
O305 O 0.67355 0.28615 0.42335 0.0
O306 O 0.64693 0.26066 0.44004 0.0
O307 O 0.60123 0.28094 0.41352 0.0
O308 O 0.6262 0.30275 0.39051 0.0
C309 C 0.64798 0.35091 0.42996 0.0
O310 O 0.60075 0.30659 0.46025 0.0
O311 O 0.63702 0.29862 0.47617 0.0
H312 H 0.0848 0.22386 0.09174 0.0
H313 H 0.08188 0.21533 0.2434 0.0
H314 H 0.11845 0.2799 0.14137 0.0
H315 H 0.05461 0.1559 0.19378 0.0
H316 H 0.08915 0.24244 0.20632 0.0
H317 H 0.06722 0.2021 0.12891 0.0
C318 C 0.08817 0.23179 0.11044 0.0
C319 C 0.10332 0.25353 0.11354 0.0
C320 C 0.08134 0.22356 0.20355 0.0
C321 C 0.08349 0.22867 0.15611 0.0
C322 C 0.07716 0.2081 0.22471 0.0
C323 C 0.0679 0.18326 0.2216 0.0
C324 C 0.07625 0.21407 0.17911 0.0
C325 C 0.06199 0.17488 0.19699 0.0
C326 C 0.0782 0.21932 0.13166 0.0
C327 C 0.10704 0.26304 0.13816 0.0
N328 N 0.06647 0.19018 0.17666 0.0
N329 N 0.0974 0.25041 0.15853 0.0
H330 H 0.45496 0.82207 0.69025 0.0
H331 H 0.39505 0.69306 0.63937 0.0
H332 H 0.44037 0.7572 0.73843 0.0
H333 H 0.42137 0.75334 0.59022 0.0
H334 H 0.41525 0.71433 0.6754 0.0
H335 H 0.44648 0.79569 0.65301 0.0
C336 C 0.45027 0.80216 0.69296 0.0
C337 C 0.4481 0.79184 0.71744 0.0
C338 C 0.41695 0.72273 0.65668 0.0
C339 C 0.43807 0.76158 0.67492 0.0
C340 C 0.40543 0.71058 0.6361 0.0
C341 C 0.40632 0.72161 0.61184 0.0
C342 C 0.42918 0.74623 0.653 0.0
C343 C 0.4201 0.74426 0.60864 0.0
C344 C 0.44545 0.78709 0.67169 0.0
C345 C 0.44211 0.76592 0.71987 0.0
N346 N 0.43069 0.75601 0.62906 0.0
N347 N 0.43696 0.75175 0.69887 0.0
H348 H 0.5566 0.27712 0.74394 0.0
H349 H 0.58107 0.27237 0.89368 0.0
H350 H 0.5468 0.34127 0.79426 0.0
H351 H 0.59884 0.2105 0.84269 0.0
H352 H 0.56109 0.29514 0.85852 0.0
H353 H 0.56512 0.25002 0.78079 0.0
C354 C 0.55597 0.28543 0.76277 0.0
C355 C 0.55128 0.31151 0.76607 0.0
C356 C 0.56907 0.27645 0.85507 0.0
C357 C 0.56104 0.2807 0.80824 0.0
C358 C 0.5804 0.2634 0.87516 0.0
C359 C 0.59189 0.23966 0.871 0.0
C360 C 0.56933 0.26572 0.83062 0.0
C361 C 0.59037 0.22887 0.84666 0.0
C362 C 0.56085 0.26997 0.78378 0.0
C363 C 0.55057 0.32129 0.79086 0.0
N364 N 0.57958 0.24212 0.82729 0.0
N365 N 0.55561 0.30591 0.81098 0.0
H366 H 0.90956 0.72569 0.25236 0.0
H367 H 0.91367 0.74549 0.40329 0.0
H368 H 0.94335 0.67174 0.30414 0.0
H369 H 0.86896 0.79143 0.35213 0.0
H370 H 0.93073 0.72215 0.36666 0.0
H371 H 0.90063 0.75392 0.28823 0.0
C372 C 0.91536 0.71992 0.27125 0.0
C373 C 0.92702 0.69626 0.27533 0.0
C374 C 0.91736 0.7375 0.36347 0.0
C375 C 0.91676 0.72838 0.31647 0.0
C376 C 0.90771 0.75086 0.38434 0.0
C377 C 0.88974 0.77025 0.38071 0.0
C378 C 0.90905 0.74371 0.33886 0.0
C379 C 0.88263 0.77646 0.35578 0.0
C380 C 0.91019 0.736 0.29173 0.0
C381 C 0.93417 0.68976 0.30018 0.0
N382 N 0.8922 0.76315 0.33583 0.0
N383 N 0.92878 0.70565 0.31985 0.0
H384 H 0.25764 0.06419 0.22442 0.0
H385 H 0.10584 0.06316 0.23411 0.0
H386 H 0.20868 0.03114 0.16754 0.0
H387 H 0.15508 0.10666 0.2832 0.0
H388 H 0.14345 0.04355 0.21465 0.0
H389 H 0.22046 0.07188 0.25126 0.0
C390 C 0.2391 0.05817 0.21776 0.0
C391 C 0.23617 0.04732 0.19359 0.0
C392 C 0.14598 0.05714 0.22991 0.0
C393 C 0.19353 0.05627 0.22407 0.0
C394 C 0.12454 0.06825 0.24107 0.0
C395 C 0.12741 0.08678 0.26005 0.0
C396 C 0.17038 0.06458 0.2379 0.0
C397 C 0.15204 0.09267 0.2684 0.0
C398 C 0.21787 0.06264 0.23305 0.0
C399 C 0.21174 0.03979 0.18596 0.0
N400 N 0.17257 0.08178 0.25713 0.0
N401 N 0.1913 0.04467 0.20103 0.0
H402 H 0.40734 0.90984 0.73541 0.0
H403 H 0.25553 0.9113 0.73558 0.0
H404 H 0.36097 0.8695 0.78985 0.0
H405 H 0.30183 0.94613 0.67741 0.0
H406 H 0.29394 0.90292 0.76037 0.0
H407 H 0.36904 0.93031 0.71874 0.0
C408 C 0.38914 0.90561 0.74412 0.0
C409 C 0.38724 0.8877 0.76378 0.0
C410 C 0.29567 0.9127 0.74234 0.0
C411 C 0.34339 0.91082 0.74472 0.0
C412 C 0.27375 0.91754 0.72822 0.0
C413 C 0.27558 0.9291 0.70427 0.0
C414 C 0.31957 0.9194 0.73237 0.0
C415 C 0.29961 0.93691 0.69568 0.0
C416 C 0.36728 0.91724 0.73456 0.0
C417 C 0.36323 0.883 0.77446 0.0
N418 N 0.3207 0.93165 0.70958 0.0
N419 N 0.3422 0.89425 0.76459 0.0
H420 H 0.74226 0.42973 0.74496 0.0
H421 H 0.59031 0.43106 0.74667 0.0
H422 H 0.69734 0.46578 0.80345 0.0
H423 H 0.63559 0.38665 0.69454 0.0
H424 H 0.62919 0.45142 0.76226 0.0
H425 H 0.70337 0.42161 0.72085 0.0
C426 C 0.72426 0.43637 0.7525 0.0
C427 C 0.72296 0.44812 0.77639 0.0
C428 C 0.63058 0.43746 0.74717 0.0
C429 C 0.67839 0.43866 0.74908 0.0
C430 C 0.60839 0.4259 0.73823 0.0
C431 C 0.60981 0.40691 0.71955 0.0
C432 C 0.65429 0.42996 0.73732 0.0
C433 C 0.63369 0.401 0.7092 0.0
C434 C 0.70205 0.43163 0.73879 0.0
C435 C 0.69916 0.4564 0.78522 0.0
N436 N 0.65501 0.41228 0.7184 0.0
N437 N 0.67777 0.45123 0.77172 0.0
H438 H 0.84075 0.62428 0.21809 0.0
H439 H 0.78376 0.55668 0.34041 0.0
H440 H 0.88636 0.58145 0.27111 0.0
H441 H 0.73727 0.58934 0.28129 0.0
H442 H 0.82116 0.562 0.31341 0.0
H443 H 0.80239 0.60822 0.23874 0.0
C444 C 0.84267 0.61124 0.23393 0.0
C445 C 0.86673 0.60441 0.24314 0.0
C446 C 0.80276 0.56772 0.30618 0.0
C447 C 0.82293 0.58616 0.26703 0.0
C448 C 0.7814 0.56473 0.3216 0.0
C449 C 0.75747 0.57288 0.31315 0.0
C450 C 0.8002 0.57925 0.28224 0.0
C451 C 0.75543 0.58297 0.28858 0.0
C452 C 0.82076 0.60205 0.24569 0.0
C453 C 0.86815 0.5873 0.26353 0.0
N454 N 0.77661 0.58619 0.27409 0.0
N455 N 0.84652 0.57903 0.27505 0.0
H456 H 0.28197 0.14262 0.13424 0.0
H457 H 0.18478 0.19858 0.03288 0.0
H458 H 0.2525 0.09825 0.07186 0.0
H459 H 0.22434 0.24458 0.0881 0.0
H460 H 0.21141 0.16224 0.04465 0.0
H461 H 0.26291 0.18068 0.11583 0.0
C462 C 0.27159 0.14094 0.11655 0.0
C463 C 0.26859 0.11724 0.10465 0.0
C464 C 0.21449 0.18037 0.05395 0.0
C465 C 0.24655 0.16074 0.0835 0.0
C466 C 0.19933 0.20112 0.04722 0.0
C467 C 0.20222 0.22454 0.05972 0.0
C468 C 0.23249 0.18305 0.07347 0.0
C469 C 0.22137 0.22682 0.07809 0.0
C470 C 0.26077 0.1627 0.10599 0.0
C471 C 0.25515 0.11617 0.08167 0.0
N472 N 0.23557 0.20625 0.08462 0.0
N473 N 0.24436 0.1376 0.07196 0.0
H474 H 0.76729 0.35211 0.83024 0.0
H475 H 0.68573 0.29107 0.94294 0.0
H476 H 0.74512 0.39418 0.89713 0.0
H477 H 0.71128 0.24973 0.87679 0.0
H478 H 0.71052 0.32799 0.92885 0.0
H479 H 0.74978 0.31354 0.84906 0.0
C480 C 0.75879 0.35319 0.84897 0.0
C481 C 0.75744 0.3764 0.86207 0.0
C482 C 0.71092 0.31074 0.91758 0.0
C483 C 0.73723 0.33225 0.88377 0.0
C484 C 0.69685 0.28965 0.92566 0.0
C485 C 0.69631 0.26742 0.91088 0.0
C486 C 0.72443 0.30952 0.89456 0.0
C487 C 0.71103 0.26657 0.88867 0.0
C488 C 0.74884 0.33113 0.85975 0.0
C489 C 0.74642 0.37666 0.88636 0.0
N490 N 0.7243 0.28738 0.88108 0.0
N491 N 0.73652 0.35492 0.89638 0.0
H492 H 0.81673 0.71887 0.4621 0.0
H493 H 0.70494 0.66653 0.3754 0.0
H494 H 0.7688 0.76724 0.41636 0.0
H495 H 0.74319 0.62019 0.43121 0.0
H496 H 0.72605 0.70414 0.3925 0.0
H497 H 0.7882 0.68313 0.45361 0.0
C498 C 0.80001 0.72203 0.45052 0.0
C499 C 0.79523 0.74598 0.4397 0.0
C500 C 0.72963 0.68583 0.40126 0.0
C501 C 0.76266 0.70513 0.4297 0.0
C502 C 0.71761 0.66433 0.39147 0.0
C503 C 0.72254 0.6402 0.40178 0.0
C504 C 0.74703 0.68317 0.4213 0.0
C505 C 0.73896 0.63845 0.42267 0.0
C506 C 0.78372 0.70163 0.4457 0.0
C507 C 0.77325 0.74906 0.42496 0.0
N508 N 0.75091 0.65964 0.43155 0.0
N509 N 0.75795 0.72878 0.42013 0.0
H510 H 0.26116 0.88589 0.58534 0.0
H511 H 0.28361 0.73535 0.59547 0.0
H512 H 0.22738 0.83784 0.64272 0.0
H513 H 0.32525 0.78382 0.54389 0.0
H514 H 0.25863 0.77209 0.60906 0.0
H515 H 0.28081 0.84814 0.56616 0.0
C516 C 0.25772 0.86739 0.59376 0.0
C517 C 0.24279 0.86498 0.61573 0.0
C518 C 0.2731 0.77469 0.59463 0.0
C519 C 0.26512 0.82184 0.59398 0.0
C520 C 0.28732 0.7537 0.58682 0.0
C521 C 0.30664 0.7566 0.56866 0.0
C522 C 0.27824 0.79881 0.58426 0.0
C523 C 0.31059 0.78079 0.55804 0.0
C524 C 0.26896 0.84587 0.58285 0.0
C525 C 0.23891 0.84058 0.62587 0.0
N526 N 0.29662 0.80103 0.56612 0.0
N527 N 0.25009 0.81999 0.61498 0.0
H528 H 0.91723 0.74458 0.90096 0.0
H529 H 0.90483 0.76977 0.75136 0.0
H530 H 0.85555 0.71708 0.85444 0.0
H531 H 0.95608 0.81171 0.79977 0.0
H532 H 0.89215 0.74391 0.78782 0.0
H533 H 0.93687 0.76332 0.86295 0.0
C534 C 0.90797 0.74229 0.88272 0.0
C535 C 0.88463 0.72951 0.88083 0.0
C536 C 0.90635 0.75861 0.79043 0.0
C537 C 0.90694 0.75066 0.83745 0.0
C538 C 0.91367 0.7733 0.7696 0.0
C539 C 0.93133 0.79307 0.77263 0.0
C540 C 0.91676 0.7637 0.81447 0.0
C541 C 0.94225 0.79676 0.79668 0.0
C542 C 0.91914 0.753 0.86109 0.0
C543 C 0.87343 0.72701 0.85678 0.0
N544 N 0.93463 0.78235 0.81676 0.0
N545 N 0.88464 0.73757 0.83607 0.0
H546 H 0.57951 0.24193 0.23743 0.0
H547 H 0.5681 0.25399 0.38841 0.0
H548 H 0.53704 0.18967 0.28444 0.0
H549 H 0.61668 0.30133 0.34213 0.0
H550 H 0.55059 0.23495 0.34979 0.0
H551 H 0.58716 0.26861 0.27472 0.0
C552 C 0.57146 0.23628 0.25553 0.0
C553 C 0.55787 0.21342 0.25794 0.0
C554 C 0.56488 0.24971 0.34807 0.0
C555 C 0.56674 0.2437 0.30069 0.0
C556 C 0.57484 0.26061 0.37011 0.0
C557 C 0.59406 0.27904 0.36844 0.0
C558 C 0.57425 0.25728 0.32422 0.0
C559 C 0.60203 0.287 0.34426 0.0
C560 C 0.5759 0.25147 0.27683 0.0
C561 C 0.5478 0.20705 0.2818 0.0
N562 N 0.59226 0.2759 0.3231 0.0
N563 N 0.55267 0.22197 0.30232 0.0
H564 H 0.44033 0.66435 0.19017 0.0
H565 H 0.35014 0.77246 0.13343 0.0
H566 H 0.3937 0.71377 0.23628 0.0
H567 H 0.4012 0.72747 0.08748 0.0
H568 H 0.36804 0.75306 0.17155 0.0
H569 H 0.42872 0.6892 0.15267 0.0
C570 C 0.42787 0.68062 0.19243 0.0
C571 C 0.4178 0.68692 0.21631 0.0
C572 C 0.37549 0.74754 0.15317 0.0
C573 C 0.40424 0.71527 0.17349 0.0
C574 C 0.36524 0.75858 0.13139 0.0
C575 C 0.37409 0.7514 0.10728 0.0
C576 C 0.39461 0.72902 0.15084 0.0
C577 C 0.39377 0.73345 0.10573 0.0
C578 C 0.42123 0.69478 0.17101 0.0
C579 C 0.40181 0.7082 0.2182 0.0
N580 N 0.40325 0.72271 0.12723 0.0
N581 N 0.39533 0.72148 0.19702 0.0
H582 H 0.11251 0.18576 0.64678 0.0
H583 H 0.02666 0.29866 0.6982 0.0
H584 H 0.06631 0.23304 0.59823 0.0
H585 H 0.0668 0.24608 0.74672 0.0
H586 H 0.03561 0.2711 0.66185 0.0
H587 H 0.0909 0.2035 0.68383 0.0
C588 C 0.09752 0.19962 0.64392 0.0
C589 C 0.09141 0.20824 0.61946 0.0
C590 C 0.0421 0.26535 0.68051 0.0
C591 C 0.06683 0.22891 0.66178 0.0
C592 C 0.03697 0.28108 0.70127 0.0
C593 C 0.04634 0.27482 0.72541 0.0
C594 C 0.05693 0.24336 0.68391 0.0
C595 C 0.05945 0.25175 0.72837 0.0
C596 C 0.08517 0.20975 0.66508 0.0
C597 C 0.07171 0.22604 0.6168 0.0
N598 N 0.06469 0.23705 0.70779 0.0
N599 N 0.06039 0.23612 0.63775 0.0
H600 H 0.80233 0.93945 0.84461 0.0
H601 H 0.8541 0.88206 0.71448 0.0
H602 H 0.75416 0.92246 0.7805 0.0
H603 H 0.90299 0.90802 0.77495 0.0
H604 H 0.81762 0.90034 0.73673 0.0
H605 H 0.83968 0.9315 0.81811 0.0
C606 C 0.79963 0.93429 0.82487 0.0
C607 C 0.77514 0.93138 0.81477 0.0
C608 C 0.83636 0.90235 0.74499 0.0
C609 C 0.81777 0.92205 0.78438 0.0
C610 C 0.8572 0.89194 0.73228 0.0
C611 C 0.88155 0.89334 0.74302 0.0
C612 C 0.83986 0.91401 0.76876 0.0
C613 C 0.88451 0.90643 0.76606 0.0
C614 C 0.82096 0.92978 0.80973 0.0
C615 C 0.77272 0.92479 0.78906 0.0
N616 N 0.86385 0.91598 0.77833 0.0
N617 N 0.79378 0.92007 0.77481 0.0
H618 H 0.65075 0.14564 0.20904 0.0
H619 H 0.70241 0.05631 0.31985 0.0
H620 H 0.60268 0.09389 0.25093 0.0
H621 H 0.75074 0.10143 0.27114 0.0
H622 H 0.66606 0.06701 0.29291 0.0
H623 H 0.68793 0.12715 0.22961 0.0
C624 C 0.64805 0.13023 0.22247 0.0
C625 C 0.62361 0.12141 0.22849 0.0
C626 C 0.68467 0.07431 0.28793 0.0
C627 C 0.6661 0.10025 0.25229 0.0
C628 C 0.70542 0.06819 0.30329 0.0
C629 C 0.72955 0.07821 0.29783 0.0
C630 C 0.68808 0.09071 0.26711 0.0
C631 C 0.73242 0.09343 0.27613 0.0
C632 C 0.6693 0.11963 0.23418 0.0
C633 C 0.62121 0.10129 0.24585 0.0
N634 N 0.71188 0.09944 0.26172 0.0
N635 N 0.6422 0.09155 0.25738 0.0
H636 H 0.33955 0.60203 0.28152 0.0
H637 H 0.28637 0.55011 0.15071 0.0
H638 H 0.38791 0.57401 0.22142 0.0
H639 H 0.23882 0.56249 0.21644 0.0
H640 H 0.32397 0.55568 0.17733 0.0
H641 H 0.30268 0.58429 0.25958 0.0
C642 C 0.34245 0.59174 0.26391 0.0
C643 C 0.36675 0.5897 0.2531 0.0
C644 C 0.30534 0.55686 0.18603 0.0
C645 C 0.32465 0.56974 0.22768 0.0
C646 C 0.28387 0.55376 0.17082 0.0
C647 C 0.25949 0.55612 0.18137 0.0
C648 C 0.30239 0.56271 0.21191 0.0
C649 C 0.2573 0.56067 0.20754 0.0
C650 C 0.32139 0.58163 0.25137 0.0
C651 C 0.36947 0.5761 0.23033 0.0
N652 N 0.2785 0.56416 0.22188 0.0
N653 N 0.3486 0.56699 0.21815 0.0
H654 H 0.19305 0.44758 0.67671 0.0
H655 H 0.14009 0.33689 0.76541 0.0
H656 H 0.24022 0.38902 0.70962 0.0
H657 H 0.09489 0.40179 0.74338 0.0
H658 H 0.17749 0.35719 0.74694 0.0
H659 H 0.15753 0.4331 0.70311 0.0
C660 C 0.19603 0.43193 0.68978 0.0
C661 C 0.21952 0.41931 0.69083 0.0
C662 C 0.15947 0.36714 0.74631 0.0
C663 C 0.17896 0.40246 0.72078 0.0
C664 C 0.13808 0.35551 0.75678 0.0
C665 C 0.11435 0.3676 0.7557 0.0
C666 C 0.15709 0.39095 0.73439 0.0
C667 C 0.11286 0.39178 0.74449 0.0
C668 C 0.17574 0.42365 0.70481 0.0
C669 C 0.22238 0.39919 0.70811 0.0
N670 N 0.13391 0.40258 0.73401 0.0
N671 N 0.20224 0.39119 0.72218 0.0
H672 H 0.76255 0.74257 0.93433 0.0
H673 H 0.75888 0.89456 0.93194 0.0
H674 H 0.82194 0.79028 0.96482 0.0
H675 H 0.70526 0.84626 0.89291 0.0
H676 H 0.77725 0.85679 0.95213 0.0
H677 H 0.73653 0.78045 0.92723 0.0
C678 C 0.76995 0.76099 0.93991 0.0
C679 C 0.79457 0.76336 0.94983 0.0
C680 C 0.76122 0.85451 0.93943 0.0
C681 C 0.76503 0.80679 0.94155 0.0
C682 C 0.75068 0.87606 0.92798 0.0
C683 C 0.73077 0.87345 0.91048 0.0
C684 C 0.75173 0.83025 0.9333 0.0
C685 C 0.72082 0.84907 0.90607 0.0
C686 C 0.75512 0.78262 0.93579 0.0
C687 C 0.80315 0.78765 0.95687 0.0
N688 N 0.73157 0.82839 0.91718 0.0
N689 N 0.78852 0.80848 0.9523 0.0
H690 H 0.2356 0.59697 0.06078 0.0
H691 H 0.25482 0.74788 0.06499 0.0
H692 H 0.19405 0.64715 0.11075 0.0
H693 H 0.30387 0.69623 0.02413 0.0
H694 H 0.22642 0.71227 0.07482 0.0
H695 H 0.2546 0.63413 0.04015 0.0
C696 C 0.23016 0.61582 0.06713 0.0
C697 C 0.21351 0.61901 0.08772 0.0
C698 C 0.24322 0.7088 0.06341 0.0
C699 C 0.23529 0.66156 0.06438 0.0
C700 C 0.25938 0.72913 0.05773 0.0
C701 C 0.28188 0.7249 0.04403 0.0
C702 C 0.24963 0.68412 0.0553 0.0
C703 C 0.28685 0.70026 0.03501 0.0
C704 C 0.24107 0.63703 0.05541 0.0
C705 C 0.20702 0.64385 0.09511 0.0
N706 N 0.27099 0.68074 0.04102 0.0
N707 N 0.21815 0.66418 0.08363 0.0
H708 H 0.20592 0.3927 0.58313 0.0
H709 H 0.21839 0.24316 0.55922 0.0
H710 H 0.27746 0.35249 0.58421 0.0
H711 H 0.14756 0.28453 0.55633 0.0
H712 H 0.24118 0.28364 0.56319 0.0
H713 H 0.18514 0.35425 0.56741 0.0
C714 C 0.21734 0.3759 0.5796 0.0
C715 C 0.24339 0.37569 0.58522 0.0
C716 C 0.22067 0.28387 0.56144 0.0
C717 C 0.21967 0.33143 0.56769 0.0
C718 C 0.20767 0.26077 0.55921 0.0
C719 C 0.18104 0.2605 0.55772 0.0
C720 C 0.20691 0.30681 0.56227 0.0
C721 C 0.16809 0.28385 0.55765 0.0
C722 C 0.20545 0.35389 0.57072 0.0
C723 C 0.25729 0.35342 0.58024 0.0
N724 N 0.18112 0.30603 0.56012 0.0
N725 N 0.24519 0.33206 0.5721 0.0
H726 H 0.71584 0.26507 0.40852 0.0
H727 H 0.73467 0.11388 0.41551 0.0
H728 H 0.66328 0.21427 0.44595 0.0
H729 H 0.78127 0.16398 0.3701 0.0
H730 H 0.71217 0.15107 0.4324 0.0
H731 H 0.74377 0.22889 0.39977 0.0
C732 C 0.7103 0.24633 0.41513 0.0
C733 C 0.68711 0.24261 0.42778 0.0
C734 C 0.72749 0.15393 0.41893 0.0
C735 C 0.71891 0.2011 0.41776 0.0
C736 C 0.74039 0.13272 0.40937 0.0
C737 C 0.7597 0.13587 0.39123 0.0
C738 C 0.734 0.17841 0.4103 0.0
C739 C 0.76636 0.16069 0.38392 0.0
C740 C 0.72623 0.22567 0.41008 0.0
C741 C 0.68092 0.21795 0.43598 0.0
N742 N 0.75342 0.18099 0.39334 0.0
N743 N 0.69664 0.19809 0.43067 0.0
H744 H 0.1476 0.20316 0.46703 0.0
H745 H 0.06424 0.11828 0.37377 0.0
H746 H 0.0843 0.15789 0.49324 0.0
H747 H 0.10604 0.18422 0.34817 0.0
H748 H 0.0746 0.12942 0.41774 0.0
H749 H 0.1357 0.19354 0.42312 0.0
C750 C 0.13115 0.19126 0.46351 0.0
C751 C 0.11688 0.18128 0.48371 0.0
C752 C 0.08141 0.14147 0.40248 0.0
C753 C 0.1034 0.17 0.43371 0.0
C754 C 0.07562 0.13508 0.37743 0.0
C755 C 0.08433 0.15037 0.35739 0.0
C756 C 0.09633 0.16308 0.40744 0.0
C757 C 0.09893 0.17196 0.36312 0.0
C758 C 0.12435 0.18584 0.43849 0.0
C759 C 0.09573 0.16601 0.47816 0.0
N760 N 0.10462 0.1776 0.38765 0.0
N761 N 0.08973 0.16064 0.45363 0.0
H762 H 0.33753 0.77855 0.94976 0.0
H763 H 0.45877 0.82432 0.87201 0.0
H764 H 0.41076 0.79018 0.98479 0.0
H765 H 0.39324 0.79026 0.83632 0.0
H766 H 0.44155 0.81254 0.91361 0.0
H767 H 0.35731 0.78365 0.90797 0.0
C768 C 0.3578 0.78207 0.94862 0.0
C769 C 0.37254 0.78407 0.97072 0.0
C770 C 0.43108 0.80739 0.89666 0.0
C771 C 0.39524 0.79008 0.92307 0.0
C772 C 0.44089 0.81412 0.87294 0.0
C773 C 0.42733 0.80834 0.85075 0.0
C774 C 0.40738 0.79516 0.89817 0.0
C775 C 0.40428 0.79508 0.85299 0.0
C776 C 0.36909 0.78488 0.92479 0.0
C777 C 0.39872 0.78854 0.9682 0.0
N778 N 0.39487 0.78919 0.87632 0.0
N779 N 0.40921 0.79164 0.94479 0.0
H780 H 0.56776 0.32324 0.49341 0.0
H781 H 0.58929 0.30523 0.64261 0.0
H782 H 0.6356 0.28977 0.52516 0.0
H783 H 0.53855 0.36159 0.61121 0.0
H784 H 0.6015 0.29276 0.59946 0.0
H785 H 0.55182 0.33076 0.53652 0.0
C786 C 0.57917 0.31725 0.50946 0.0
C787 C 0.60309 0.30601 0.50579 0.0
C788 C 0.58761 0.30777 0.60205 0.0
C789 C 0.58497 0.31445 0.55495 0.0
C790 C 0.58057 0.31483 0.62662 0.0
C791 C 0.56302 0.33457 0.63041 0.0
C792 C 0.57676 0.32034 0.58117 0.0
C793 C 0.55229 0.34639 0.60907 0.0
C794 C 0.57012 0.32164 0.534 0.0
C795 C 0.61713 0.29864 0.5272 0.0
N796 N 0.55934 0.33909 0.58532 0.0
N797 N 0.60786 0.303 0.55091 0.0
H798 H 0.93387 0.69656 0.14046 0.0
H799 H 0.84521 0.65782 0.02447 0.0
H800 H 0.89617 0.62378 0.1348 0.0
H801 H 0.90463 0.71391 0.01628 0.0
H802 H 0.86083 0.64798 0.06699 0.0
H803 H 0.92088 0.70609 0.09663 0.0
C804 C 0.92297 0.68258 0.12997 0.0
C805 C 0.91603 0.65938 0.14123 0.0
C806 C 0.87053 0.66238 0.05588 0.0
C807 C 0.90096 0.67022 0.09151 0.0
C808 C 0.86156 0.66808 0.03166 0.0
C809 C 0.87367 0.68669 0.01689 0.0
C810 C 0.89154 0.67565 0.06559 0.0
C811 C 0.89483 0.69936 0.02709 0.0
C812 C 0.91564 0.68799 0.10501 0.0
C813 C 0.90194 0.64189 0.12684 0.0
N814 N 0.90302 0.69374 0.05096 0.0
N815 N 0.8947 0.64776 0.10281 0.0
H816 H 0.37235 0.0972 0.12089 0.0
H817 H 0.49499 0.09299 0.20956 0.0
H818 H 0.37367 0.05434 0.19085 0.0
H819 H 0.47746 0.15621 0.16022 0.0
H820 H 0.4536 0.07399 0.19914 0.0
H821 H 0.41442 0.11421 0.13094 0.0
C822 C 0.38159 0.09123 0.13829 0.0
C823 C 0.36953 0.07441 0.15513 0.0
C824 C 0.45887 0.09204 0.19067 0.0
C825 C 0.41762 0.09372 0.16666 0.0
C826 C 0.48244 0.10283 0.19654 0.0
C827 C 0.48955 0.12622 0.18578 0.0
C828 C 0.44264 0.10453 0.17357 0.0
C829 C 0.47264 0.13821 0.16903 0.0
C830 C 0.40551 0.10104 0.14406 0.0
C831 C 0.38232 0.06736 0.17743 0.0
N832 N 0.45003 0.12716 0.16332 0.0
N833 N 0.40577 0.07701 0.18255 0.0
H834 H 0.02685 0.83292 0.6883 0.0
H835 H 0.13683 0.93574 0.7068 0.0
H836 H 0.01224 0.90632 0.72218 0.0
H837 H 0.13725 0.87953 0.64699 0.0
H838 H 0.09368 0.922 0.71858 0.0
H839 H 0.07046 0.84633 0.67924 0.0
C840 C 0.03289 0.8518 0.69399 0.0
C841 C 0.01594 0.86861 0.70589 0.0
C842 C 0.1033 0.91275 0.70288 0.0
C843 C 0.06574 0.88397 0.69571 0.0
C844 C 0.12785 0.92051 0.69621 0.0
C845 C 0.1405 0.9088 0.67584 0.0
C846 C 0.09166 0.89285 0.68938 0.0
C847 C 0.12809 0.88917 0.66272 0.0
C848 C 0.05771 0.85947 0.68871 0.0
C849 C 0.02473 0.89286 0.71284 0.0
N850 N 0.10442 0.88171 0.6698 0.0
N851 N 0.04911 0.89984 0.7077 0.0
H852 H 0.96835 0.33787 0.8242 0.0
H853 H 0.86141 0.43338 0.77508 0.0
H854 H 0.98225 0.39103 0.7632 0.0
H855 H 0.86114 0.39963 0.84987 0.0
H856 H 0.90392 0.4154 0.76775 0.0
H857 H 0.92678 0.35735 0.83115 0.0
C858 C 0.96261 0.35364 0.81224 0.0
C859 C 0.97872 0.3629 0.79312 0.0
C860 C 0.89454 0.41208 0.78578 0.0
C861 C 0.93115 0.3852 0.80089 0.0
C862 C 0.87033 0.42227 0.78995 0.0
C863 C 0.85779 0.41795 0.8131 0.0
C864 C 0.906 0.39722 0.80478 0.0
C865 C 0.87015 0.40346 0.83175 0.0
C866 C 0.93894 0.36482 0.81628 0.0
C867 C 0.97037 0.3834 0.7782 0.0
N868 N 0.89348 0.39347 0.82712 0.0
N869 N 0.94704 0.39383 0.78231 0.0
H870 H 0.49819 0.57839 0.28139 0.0
H871 H 0.62192 0.62697 0.35244 0.0
H872 H 0.51245 0.65762 0.2979 0.0
H873 H 0.62167 0.55642 0.31042 0.0
H874 H 0.58012 0.63706 0.33518 0.0
H875 H 0.54202 0.56842 0.29397 0.0
C876 C 0.5106 0.59368 0.28747 0.0
C877 C 0.50171 0.61885 0.28873 0.0
C878 C 0.58923 0.61942 0.32961 0.0
C879 C 0.55147 0.60757 0.30336 0.0
C880 C 0.61302 0.61359 0.33956 0.0
C881 C 0.62518 0.5908 0.33287 0.0
C882 C 0.57726 0.60216 0.31315 0.0
C883 C 0.61287 0.5742 0.31599 0.0
C884 C 0.53556 0.58799 0.29457 0.0
C885 C 0.51853 0.63796 0.29668 0.0
N886 N 0.5894 0.5801 0.30685 0.0
N887 N 0.54251 0.63188 0.30394 0.0
H888 H 0.12619 0.37164 0.05592 0.0
H889 H 0.21534 0.46706 0.13132 0.0
H890 H 0.20119 0.35052 0.08154 0.0
H891 H 0.1579 0.49345 0.07911 0.0
H892 H 0.20834 0.42349 0.11639 0.0
H893 H 0.13527 0.41596 0.06729 0.0
C894 C 0.14458 0.37637 0.06386 0.0
C895 C 0.16297 0.35746 0.06787 0.0
C896 C 0.1974 0.43885 0.10809 0.0
C897 C 0.17333 0.40786 0.08111 0.0
C898 C 0.20131 0.46366 0.11666 0.0
C899 C 0.18713 0.4838 0.10642 0.0
C900 C 0.17887 0.43413 0.08951 0.0
C901 C 0.16925 0.47841 0.08742 0.0
C902 C 0.14977 0.40163 0.07024 0.0
C903 C 0.18652 0.36457 0.07813 0.0
N904 N 0.16543 0.45401 0.07973 0.0
N905 N 0.19095 0.3892 0.08464 0.0
H906 H 0.67382 -0.00156 0.91586 0.0
H907 H 0.70082 0.14599 0.89284 0.0
H908 H 0.72238 0.02557 0.85548 0.0
H909 H 0.63121 0.11855 0.92662 0.0
H910 H 0.71367 0.10188 0.88475 0.0
H911 H 0.66279 0.04263 0.92609 0.0
C912 C 0.68233 0.01372 0.90492 0.0
C913 C 0.69897 0.00843 0.88476 0.0
C914 C 0.6956 0.10556 0.89394 0.0
C915 C 0.68657 0.05877 0.89641 0.0
C916 C 0.68829 0.13066 0.89861 0.0
C917 C 0.66488 0.13584 0.91031 0.0
C918 C 0.67957 0.08555 0.90143 0.0
C919 C 0.64934 0.11533 0.91741 0.0
C920 C 0.67592 0.03885 0.91067 0.0
C921 C 0.70938 0.02887 0.87111 0.0
N922 N 0.65702 0.09102 0.91297 0.0
N923 N 0.70307 0.05319 0.87723 0.0
H924 H 0.81594 0.98713 0.3431 0.0
H925 H 0.80128 0.88235 0.45103 0.0
H926 H 0.78604 0.00675 0.41695 0.0
H927 H 0.85976 0.87981 0.39349 0.0
H928 H 0.78997 0.92554 0.43675 0.0
H929 H 0.82622 0.94469 0.35891 0.0
C930 C 0.81141 0.98244 0.36263 0.0
C931 C 0.80018 0.00046 0.37878 0.0
C932 C 0.80532 0.91547 0.42741 0.0
C933 C 0.81178 0.95187 0.39694 0.0
C934 C 0.81172 0.89089 0.43546 0.0
C935 C 0.83148 0.87757 0.4234 0.0
C936 C 0.81845 0.9264 0.40687 0.0
C937 C 0.84446 0.88944 0.40335 0.0
C938 C 0.8174 0.95827 0.37167 0.0
C939 C 0.79479 0.99338 0.40395 0.0
N940 N 0.83758 0.91308 0.39558 0.0
N941 N 0.80053 0.96951 0.41228 0.0
H942 H 0.25962 0.521 0.62327 0.0
H943 H 0.36536 0.6046 0.55587 0.0
H944 H 0.31825 0.48763 0.5765 0.0
H945 H 0.29181 0.63497 0.57604 0.0
H946 H 0.34973 0.5617 0.56531 0.0
H947 H 0.27213 0.56323 0.60811 0.0
C948 C 0.27501 0.52258 0.60965 0.0
C949 C 0.28799 0.50086 0.60115 0.0
C950 C 0.33697 0.57774 0.56745 0.0
C951 C 0.30261 0.54903 0.58405 0.0
C952 C 0.34589 0.6022 0.56218 0.0
C953 C 0.32986 0.62332 0.5653 0.0
C954 C 0.31199 0.57445 0.57631 0.0
C955 C 0.30478 0.61917 0.57341 0.0
C956 C 0.28209 0.54665 0.60097 0.0
C957 C 0.30774 0.50393 0.58347 0.0
N958 N 0.29668 0.59522 0.57891 0.0
N959 N 0.31468 0.52763 0.57572 0.0
H960 H 0.91332 0.83602 0.50223 0.0
H961 H 0.90644 0.7945 0.64796 0.0
H962 H 0.8547 0.78698 0.53226 0.0
H963 H 0.93961 0.86584 0.62427 0.0
H964 H 0.89386 0.78627 0.60395 0.0
H965 H 0.92962 0.84212 0.54555 0.0
C966 C 0.90403 0.82641 0.51791 0.0
C967 C 0.88259 0.81108 0.51377 0.0
C968 C 0.90397 0.80367 0.60841 0.0
C969 C 0.90119 0.8177 0.563 0.0
C970 C 0.91123 0.80833 0.63345 0.0
C971 C 0.92393 0.83095 0.63973 0.0
C972 C 0.9098 0.82157 0.58946 0.0
C973 C 0.92967 0.84824 0.62021 0.0
C974 C 0.91324 0.82997 0.54256 0.0
C975 C 0.87118 0.79909 0.53469 0.0
N976 N 0.9226 0.84318 0.59589 0.0
N977 N 0.88068 0.80258 0.55841 0.0
H978 H 0.5839 0.22073 -0.00432 0.0
H979 H 0.60756 0.14289 0.1228 0.0
H980 H 0.65445 0.1817 0.01093 0.0
H981 H 0.55724 0.20775 0.1205 0.0
H982 H 0.62143 0.15269 0.07947 0.0
H983 H 0.57032 0.21233 0.0395 0.0
C984 C 0.59653 0.21046 0.00829 0.0
C985 C 0.62032 0.2019 -0.00022 0.0
C986 C 0.60739 0.16478 0.08849 0.0
C987 C 0.60481 0.19195 0.04952 0.0
C988 C 0.59937 0.15913 0.11311 0.0
C989 C 0.58126 0.17457 0.12516 0.0
C990 C 0.59687 0.18573 0.07572 0.0
C991 C 0.57132 0.19545 0.11185 0.0
C992 C 0.58881 0.20574 0.03323 0.0
C993 C 0.636 0.1887 0.01682 0.0
N994 N 0.57914 0.20035 0.08771 0.0
N995 N 0.62787 0.18392 0.04085 0.0
H996 H 0.43093 0.62568 0.36881 0.0
H997 H 0.34801 0.70977 0.46295 0.0
H998 H 0.38917 0.69152 0.34308 0.0
H999 H 0.4131 0.66657 0.48802 0.0
H1000 H 0.35976 0.70072 0.41876 0.0
H1001 H 0.42143 0.63752 0.41279 0.0
C1002 C 0.41976 0.64263 0.37244 0.0
C1003 C 0.41078 0.65765 0.35235 0.0
C1004 C 0.37154 0.6934 0.43396 0.0
C1005 C 0.39969 0.67114 0.40247 0.0
C1006 C 0.36483 0.69849 0.45912 0.0
C1007 C 0.37962 0.68887 0.47909 0.0
C1008 C 0.39289 0.6782 0.42882 0.0
C1009 C 0.40123 0.67439 0.47315 0.0
C1010 C 0.41445 0.64943 0.39751 0.0
C1011 C 0.39648 0.67947 0.35807 0.0
N1012 N 0.40709 0.66927 0.44853 0.0
N1013 N 0.39117 0.68547 0.38265 0.0
H1014 H 0.15438 0.31113 0.96673 0.0
H1015 H 0.04886 0.28194 0.86249 0.0
H1016 H 0.08522 0.27081 0.98497 0.0
H1017 H 0.09907 0.3468 0.85809 0.0
H1018 H 0.06518 0.27282 0.9052 0.0
H1019 H 0.13783 0.31935 0.92407 0.0
C1020 C 0.13578 0.30388 0.96168 0.0
C1021 C 0.12109 0.29033 0.97934 0.0
C1022 C 0.07251 0.28908 0.89486 0.0
C1023 C 0.10216 0.29953 0.9307 0.0
C1024 C 0.06327 0.29425 0.87054 0.0
C1025 C 0.07261 0.31517 0.85686 0.0
C1026 C 0.09153 0.30467 0.90525 0.0
C1027 C 0.09128 0.33055 0.8681 0.0
C1028 C 0.12631 0.30869 0.93743 0.0
C1029 C 0.09707 0.28142 0.97189 0.0
N1030 N 0.10027 0.32488 0.89159 0.0
N1031 N 0.08836 0.28609 0.94803 0.0
H1032 H 0.61931 0.93969 0.85775 0.0
H1033 H 0.5408 0.83902 0.77611 0.0
H1034 H 0.65475 0.88821 0.8045 0.0
H1035 H 0.50617 0.90341 0.81355 0.0
H1036 H 0.58278 0.85579 0.78722 0.0
H1037 H 0.57759 0.92578 0.84276 0.0
C1038 C 0.61829 0.92554 0.8428 0.0
C1039 C 0.64047 0.91501 0.83238 0.0
C1040 C 0.56599 0.86633 0.79285 0.0
C1041 C 0.59285 0.89887 0.81529 0.0
C1042 C 0.54206 0.85675 0.78657 0.0
C1043 C 0.52003 0.86983 0.79401 0.0
C1044 C 0.56786 0.88898 0.80692 0.0
C1045 C 0.52269 0.89273 0.80746 0.0
C1046 C 0.59448 0.91765 0.83422 0.0
C1047 C 0.63809 0.8968 0.81302 0.0
N1048 N 0.54618 0.90148 0.81366 0.0
N1049 N 0.61467 0.88914 0.80523 0.0
H1050 H 0.87067 0.114 0.36303 0.0
H1051 H 0.99021 0.07816 0.27755 0.0
H1052 H 0.86387 0.06428 0.2981 0.0
H1053 H 0.9836 0.1501 0.31664 0.0
H1054 H 0.94596 0.06847 0.28914 0.0
H1055 H 0.91469 0.12311 0.35079 0.0
C1056 C 0.87849 0.10494 0.34626 0.0
C1057 C 0.86367 0.08844 0.33149 0.0
C1058 C 0.95425 0.0864 0.29505 0.0
C1059 C 0.9139 0.09855 0.31758 0.0
C1060 C 0.97943 0.09189 0.28852 0.0
C1061 C 0.99046 0.11498 0.2961 0.0
C1062 C 0.94034 0.1039 0.30969 0.0
C1063 C 0.97574 0.13214 0.3103 0.0
C1064 C 0.90352 0.11023 0.33924 0.0
C1065 C 0.87468 0.07723 0.30991 0.0
N1066 N 0.95149 0.12617 0.31681 0.0
N1067 N 0.89924 0.08237 0.30365 0.0
H1068 H 0.10455 0.54339 0.14643 0.0
H1069 H 0.0235 0.64636 0.22163 0.0
H1070 H 0.13879 0.60165 0.193 0.0
H1071 H 0.99137 0.57579 0.19459 0.0
H1072 H 0.06592 0.63057 0.21098 0.0
H1073 H 0.0628 0.55509 0.16335 0.0
C1074 C 0.10327 0.55854 0.16034 0.0
C1075 C 0.12509 0.57169 0.16824 0.0
C1076 C 0.04963 0.61843 0.20762 0.0
C1077 C 0.07747 0.58529 0.18749 0.0
C1078 C 0.02542 0.62745 0.21363 0.0
C1079 C 0.00395 0.61239 0.20884 0.0
C1080 C 0.05231 0.59433 0.19636 0.0
C1081 C 0.00747 0.588 0.19855 0.0
C1082 C 0.07948 0.56515 0.17005 0.0
C1083 C 0.12242 0.59108 0.18637 0.0
N1084 N 0.03121 0.57982 0.19237 0.0
N1085 N 0.09899 0.59748 0.1952 0.0
H1086 H 0.33976 0.37185 0.66155 0.0
H1087 H 0.4788 0.42305 0.69429 0.0
H1088 H 0.35663 0.45171 0.67094 0.0
H1089 H 0.45706 0.34388 0.69796 0.0
H1090 H 0.43432 0.43436 0.68616 0.0
H1091 H 0.38279 0.3615 0.67528 0.0
C1092 C 0.35252 0.38722 0.66666 0.0
C1093 C 0.34469 0.41268 0.66503 0.0
C1094 C 0.43928 0.41454 0.68894 0.0
C1095 C 0.39411 0.401 0.68058 0.0
C1096 C 0.46464 0.40809 0.69354 0.0
C1097 C 0.4716 0.38249 0.69666 0.0
C1098 C 0.42087 0.39522 0.68726 0.0
C1099 C 0.45253 0.36385 0.69557 0.0
C1100 C 0.37709 0.3813 0.67454 0.0
C1101 C 0.36195 0.43183 0.67195 0.0
N1102 N 0.42809 0.37058 0.69079 0.0
N1103 N 0.38597 0.42561 0.67923 0.0
H1104 H 0.79108 0.62785 0.93551 0.0
H1105 H 0.8268 0.52356 0.83181 0.0
H1106 H 0.8638 0.62589 0.89747 0.0
H1107 H 0.77154 0.50903 0.89076 0.0
H1108 H 0.83733 0.56403 0.85224 0.0
H1109 H 0.78047 0.58668 0.9162 0.0
C1110 C 0.80482 0.6187 0.92317 0.0
C1111 C 0.82835 0.6302 0.91806 0.0
C1112 C 0.82293 0.55196 0.86071 0.0
C1113 C 0.81623 0.58354 0.89574 0.0
C1114 C 0.81681 0.52896 0.849 0.0
C1115 C 0.79829 0.51298 0.85966 0.0
C1116 C 0.81016 0.55919 0.88301 0.0
C1117 C 0.78599 0.52082 0.882 0.0
C1118 C 0.79878 0.59524 0.91223 0.0
C1119 C 0.84549 0.61759 0.90197 0.0
N1120 N 0.79205 0.5435 0.8929 0.0
N1121 N 0.83901 0.59502 0.8912 0.0
H1122 H 0.36507 0.85992 0.07829 0.0
H1123 H 0.27848 0.98465 0.07762 0.0
H1124 H 0.29128 0.86119 0.04251 0.0
H1125 H 0.33558 0.96922 0.13438 0.0
H1126 H 0.28617 0.94231 0.05925 0.0
H1127 H 0.35808 0.9033 0.09329 0.0
C1128 C 0.34745 0.86942 0.07342 0.0
C1129 C 0.32865 0.85692 0.05925 0.0
C1130 C 0.29697 0.94827 0.07572 0.0
C1131 C 0.32056 0.90659 0.07637 0.0
C1132 C 0.29266 0.97238 0.08615 0.0
C1133 C 0.30638 0.98033 0.10758 0.0
C1134 C 0.31541 0.93232 0.08659 0.0
C1135 C 0.3245 0.96376 0.11793 0.0
C1136 C 0.34344 0.89413 0.0821 0.0
C1137 C 0.30619 0.87015 0.0535 0.0
N1138 N 0.32857 0.94059 0.10727 0.0
N1139 N 0.30274 0.89435 0.0621 0.0
H1140 H 0.18782 0.9854 0.58582 0.0
H1141 H 0.19754 0.1364 0.60432 0.0
H1142 H 0.21752 0.02079 0.65358 0.0
H1143 H 0.14735 0.1007 0.55016 0.0
H1144 H 0.21147 0.09414 0.61832 0.0
H1145 H 0.17909 0.02773 0.56828 0.0
C1146 C 0.19265 0.00209 0.59691 0.0
C1147 C 0.20324 -0.00035 0.62123 0.0
C1148 C 0.19753 0.0956 0.60326 0.0
C1149 C 0.19348 0.04796 0.6013 0.0
C1150 C 0.18967 0.11967 0.59521 0.0
C1151 C 0.17117 0.12198 0.57619 0.0
C1152 C 0.18699 0.07376 0.59202 0.0
C1153 C 0.16154 0.09972 0.56502 0.0
C1154 C 0.18762 0.0262 0.58694 0.0
C1155 C 0.20916 0.02185 0.63482 0.0
N1156 N 0.16954 0.07652 0.57313 0.0
N1157 N 0.20419 0.04511 0.62467 0.0
H1158 H 0.69577 0.37057 0.42424 0.0
H1159 H 0.64881 0.51541 0.41642 0.0
H1160 H 0.617 0.39265 0.4309 0.0
H1161 H 0.71969 0.48876 0.38476 0.0
H1162 H 0.63941 0.47182 0.43052 0.0
H1163 H 0.70725 0.41536 0.41823 0.0
C1164 C 0.68093 0.38487 0.42461 0.0
C1165 C 0.65538 0.37792 0.42781 0.0
C1166 C 0.65712 0.47563 0.4207 0.0
C1167 C 0.66837 0.42907 0.42113 0.0
C1168 C 0.66254 0.50046 0.4128 0.0
C1169 C 0.68495 0.50555 0.39927 0.0
C1170 C 0.67442 0.45596 0.41528 0.0
C1171 C 0.70208 0.48555 0.39496 0.0
C1172 C 0.68748 0.41039 0.42115 0.0
C1173 C 0.6369 0.39721 0.42825 0.0
N1174 N 0.69644 0.46161 0.40288 0.0
N1175 N 0.64375 0.42193 0.42488 0.0
loop_
_geom_bond_atom_site_label_1
_geom_bond_atom_site_label_2
_geom_bond_distance
_geom_bond_site_symmetry_2
_ccdc_geom_bond_type
In0 O1 2.294 . S
In0 O2 2.326 . S
In0 O6 2.266 . S
In0 O7 2.326 . S
In0 O8 2.266 . S
In0 O9 2.326 . S
In0 O11 2.294 . S
In0 O12 2.326 . S
O1 In0 2.294 . S
O1 C10 1.240 . S
O2 In0 2.326 . S
O2 C10 1.252 . S
C3 O6 1.252 . S
C3 O7 1.260 . S
C4 O11 1.240 . S
C4 O12 1.252 . S
C5 O8 1.252 . S
C5 O9 1.260 . S
O6 In0 2.266 . S
O6 C3 1.252 . S
O7 In0 2.326 . S
O7 C3 1.260 . S
O8 In0 2.266 . S
O8 C5 1.252 . S
O9 In0 2.326 . S
O9 C5 1.260 . S
C10 O1 1.240 . S
C10 O2 1.252 . S
O11 In0 2.294 . S
O11 C4 1.240 . S
O12 In0 2.326 . S
O12 C4 1.252 . S
In13 O14 2.294 . S
In13 O15 2.326 . S
In13 O19 2.266 . S
In13 O20 2.326 . S
In13 O21 2.266 . S
In13 O22 2.326 . S
In13 O24 2.294 . S
In13 O25 2.326 . S
O14 In13 2.294 . S
O14 C23 1.240 . S
O15 In13 2.326 . S
O15 C23 1.252 . S
C16 O19 1.252 . S
C16 O20 1.260 . S
C17 O24 1.240 . S
C17 O25 1.252 . S
C18 O21 1.252 . S
C18 O22 1.260 . S
O19 In13 2.266 . S
O19 C16 1.252 . S
O20 In13 2.326 . S
O20 C16 1.260 . S
O21 In13 2.266 . S
O21 C18 1.252 . S
O22 In13 2.326 . S
O22 C18 1.260 . S
C23 O14 1.240 . S
C23 O15 1.252 . S
O24 In13 2.294 . S
O24 C17 1.240 . S
O25 In13 2.326 . S
O25 C17 1.252 . S
In26 O27 2.294 . S
In26 O28 2.326 . S
In26 O32 2.266 . S
In26 O33 2.326 . S
In26 O34 2.266 . S
In26 O35 2.326 . S
In26 O37 2.294 . S
In26 O38 2.326 . S
O27 In26 2.294 . S
O27 C36 1.240 . S
O28 In26 2.326 . S
O28 C36 1.252 . S
C29 O32 1.252 . S
C29 O33 1.260 . S
C30 O37 1.240 . S
C30 O38 1.252 . S
C31 O34 1.252 . S
C31 O35 1.260 . S
O32 In26 2.266 . S
O32 C29 1.252 . S
O33 In26 2.326 . S
O33 C29 1.260 . S
O34 In26 2.266 . S
O34 C31 1.252 . S
O35 In26 2.326 . S
O35 C31 1.260 . S
C36 O27 1.240 . S
C36 O28 1.252 . S
O37 In26 2.294 . S
O37 C30 1.240 . S
O38 In26 2.326 . S
O38 C30 1.252 . S
In39 O40 2.294 . S
In39 O41 2.326 . S
In39 O45 2.266 . S
In39 O46 2.326 . S
In39 O47 2.266 . S
In39 O48 2.326 . S
In39 O50 2.294 . S
In39 O51 2.326 . S
O40 In39 2.294 . S
O40 C49 1.240 . S
O41 In39 2.326 . S
O41 C49 1.252 . S
C42 O45 1.252 . S
C42 O46 1.260 . S
C43 O50 1.240 . S
C43 O51 1.252 . S
C44 O47 1.252 . S
C44 O48 1.260 . S
O45 In39 2.266 . S
O45 C42 1.252 . S
O46 In39 2.326 . S
O46 C42 1.260 . S
O47 In39 2.266 . S
O47 C44 1.252 . S
O48 In39 2.326 . S
O48 C44 1.260 . S
C49 O40 1.240 . S
C49 O41 1.252 . S
O50 In39 2.294 . S
O50 C43 1.240 . S
O51 In39 2.326 . S
O51 C43 1.252 . S
In52 O53 2.294 . S
In52 O54 2.326 . S
In52 O58 2.266 . S
In52 O59 2.326 . S
In52 O60 2.266 . S
In52 O61 2.326 . S
In52 O63 2.294 . S
In52 O64 2.326 . S
O53 In52 2.294 . S
O53 C62 1.240 . S
O54 In52 2.326 . S
O54 C62 1.252 . S
C55 O58 1.252 . S
C55 O59 1.260 . S
C56 O63 1.240 . S
C56 O64 1.252 . S
C57 O60 1.252 . S
C57 O61 1.260 . S
O58 In52 2.266 . S
O58 C55 1.252 . S
O59 In52 2.326 . S
O59 C55 1.260 . S
O60 In52 2.266 . S
O60 C57 1.252 . S
O61 In52 2.326 . S
O61 C57 1.260 . S
C62 O53 1.240 . S
C62 O54 1.252 . S
O63 In52 2.294 . S
O63 C56 1.240 . S
O64 In52 2.326 . S
O64 C56 1.252 . S
In65 O66 2.294 . S
In65 O67 2.326 . S
In65 O71 2.266 . S
In65 O72 2.326 . S
In65 O73 2.266 . S
In65 O74 2.326 . S
In65 O76 2.294 . S
In65 O77 2.326 . S
O66 In65 2.294 . S
O66 C75 1.240 . S
O67 In65 2.326 . S
O67 C75 1.252 . S
C68 O71 1.252 . S
C68 O72 1.260 . S
C69 O76 1.240 . S
C69 O77 1.252 . S
C70 O73 1.252 . S
C70 O74 1.260 . S
O71 In65 2.266 . S
O71 C68 1.252 . S
O72 In65 2.326 . S
O72 C68 1.260 . S
O73 In65 2.266 . S
O73 C70 1.252 . S
O74 In65 2.326 . S
O74 C70 1.260 . S
C75 O66 1.240 . S
C75 O67 1.252 . S
O76 In65 2.294 . S
O76 C69 1.240 . S
O77 In65 2.326 . S
O77 C69 1.252 . S
In78 O79 2.294 . S
In78 O80 2.326 . S
In78 O84 2.266 . S
In78 O85 2.326 . S
In78 O86 2.266 . S
In78 O87 2.326 . S
In78 O89 2.294 . S
In78 O90 2.326 . S
O79 In78 2.294 . S
O79 C88 1.240 . S
O80 In78 2.326 . S
O80 C88 1.252 . S
C81 O84 1.252 . S
C81 O85 1.260 . S
C82 O89 1.240 . S
C82 O90 1.252 . S
C83 O86 1.252 . S
C83 O87 1.260 . S
O84 In78 2.266 . S
O84 C81 1.252 . S
O85 In78 2.326 . S
O85 C81 1.260 . S
O86 In78 2.266 . S
O86 C83 1.252 . S
O87 In78 2.326 . S
O87 C83 1.260 . S
C88 O79 1.240 . S
C88 O80 1.252 . S
O89 In78 2.294 . S
O89 C82 1.240 . S
O90 In78 2.326 . S
O90 C82 1.252 . S
In91 O92 2.294 . S
In91 O93 2.326 . S
In91 O97 2.266 . S
In91 O98 2.326 . S
In91 O99 2.266 . S
In91 O100 2.326 . S
In91 O102 2.294 . S
In91 O103 2.326 . S
O92 In91 2.294 . S
O92 C101 1.240 . S
O93 In91 2.326 . S
O93 C101 1.252 . S
C94 O97 1.252 . S
C94 O98 1.260 . S
C95 O102 1.240 . S
C95 O103 1.252 . S
C96 O99 1.252 . S
C96 O100 1.260 . S
O97 In91 2.266 . S
O97 C94 1.252 . S
O98 In91 2.326 . S
O98 C94 1.260 . S
O99 In91 2.266 . S
O99 C96 1.252 . S
O100 In91 2.326 . S
O100 C96 1.260 . S
C101 O92 1.240 . S
C101 O93 1.252 . S
O102 In91 2.294 . S
O102 C95 1.240 . S
O103 In91 2.326 . S
O103 C95 1.252 . S
In104 O105 2.294 . S
In104 O106 2.326 . S
In104 O110 2.266 . S
In104 O111 2.326 . S
In104 O112 2.266 . S
In104 O113 2.326 . S
In104 O115 2.294 . S
In104 O116 2.326 . S
O105 In104 2.294 . S
O105 C114 1.240 . S
O106 In104 2.326 . S
O106 C114 1.252 . S
C107 O110 1.252 . S
C107 O111 1.260 . S
C108 O115 1.240 . S
C108 O116 1.252 . S
C109 O112 1.252 . S
C109 O113 1.260 . S
O110 In104 2.266 . S
O110 C107 1.252 . S
O111 In104 2.326 . S
O111 C107 1.260 . S
O112 In104 2.266 . S
O112 C109 1.252 . S
O113 In104 2.326 . S
O113 C109 1.260 . S
C114 O105 1.240 . S
C114 O106 1.252 . S
O115 In104 2.294 . S
O115 C108 1.240 . S
O116 In104 2.326 . S
O116 C108 1.252 . S
In117 O118 2.294 . S
In117 O119 2.326 . S
In117 O123 2.266 . S
In117 O124 2.326 . S
In117 O125 2.266 . S
In117 O126 2.326 . S
In117 O128 2.294 . S
In117 O129 2.326 . S
O118 In117 2.294 . S
O118 C127 1.240 . S
O119 In117 2.326 . S
O119 C127 1.252 . S
C120 O123 1.252 . S
C120 O124 1.260 . S
C121 O128 1.240 . S
C121 O129 1.252 . S
C122 O125 1.252 . S
C122 O126 1.260 . S
O123 In117 2.266 . S
O123 C120 1.252 . S
O124 In117 2.326 . S
O124 C120 1.260 . S
O125 In117 2.266 . S
O125 C122 1.252 . S
O126 In117 2.326 . S
O126 C122 1.260 . S
C127 O118 1.240 . S
C127 O119 1.252 . S
O128 In117 2.294 . S
O128 C121 1.240 . S
O129 In117 2.326 . S
O129 C121 1.252 . S
In130 O131 2.294 . S
In130 O132 2.326 . S
In130 O136 2.266 . S
In130 O137 2.326 . S
In130 O138 2.266 . S
In130 O139 2.326 . S
In130 O141 2.294 . S
In130 O142 2.326 . S
O131 In130 2.294 . S
O131 C140 1.240 . S
O132 In130 2.326 . S
O132 C140 1.252 . S
C133 O136 1.252 . S
C133 O137 1.260 . S
C134 O141 1.240 . S
C134 O142 1.252 . S
C135 O138 1.252 . S
C135 O139 1.260 . S
O136 In130 2.266 . S
O136 C133 1.252 . S
O137 In130 2.326 . S
O137 C133 1.260 . S
O138 In130 2.266 . S
O138 C135 1.252 . S
O139 In130 2.326 . S
O139 C135 1.260 . S
C140 O131 1.240 . S
C140 O132 1.252 . S
O141 In130 2.294 . S
O141 C134 1.240 . S
O142 In130 2.326 . S
O142 C134 1.252 . S
In143 O144 2.294 . S
In143 O145 2.326 . S
In143 O149 2.266 . S
In143 O150 2.326 . S
In143 O151 2.266 . S
In143 O152 2.326 . S
In143 O154 2.294 . S
In143 O155 2.326 . S
O144 In143 2.294 . S
O144 C153 1.240 . S
O145 In143 2.326 . S
O145 C153 1.252 . S
C146 O149 1.252 . S
C146 O150 1.260 . S
C147 O154 1.240 . S
C147 O155 1.252 . S
C148 O151 1.252 . S
C148 O152 1.260 . S
O149 In143 2.266 . S
O149 C146 1.252 . S
O150 In143 2.326 . S
O150 C146 1.260 . S
O151 In143 2.266 . S
O151 C148 1.252 . S
O152 In143 2.326 . S
O152 C148 1.260 . S
C153 O144 1.240 . S
C153 O145 1.252 . S
O154 In143 2.294 . S
O154 C147 1.240 . S
O155 In143 2.326 . S
O155 C147 1.252 . S
In156 O157 2.294 . S
In156 O158 2.326 . S
In156 O162 2.266 . S
In156 O163 2.326 . S
In156 O164 2.266 . S
In156 O165 2.326 . S
In156 O167 2.294 . S
In156 O168 2.326 . S
O157 In156 2.294 . S
O157 C166 1.240 . S
O158 In156 2.326 . S
O158 C166 1.252 . S
C159 O162 1.252 . S
C159 O163 1.260 . S
C160 O167 1.240 . S
C160 O168 1.252 . S
C161 O164 1.252 . S
C161 O165 1.260 . S
O162 In156 2.266 . S
O162 C159 1.252 . S
O163 In156 2.326 . S
O163 C159 1.260 . S
O164 In156 2.266 . S
O164 C161 1.252 . S
O165 In156 2.326 . S
O165 C161 1.260 . S
C166 O157 1.240 . S
C166 O158 1.252 . S
O167 In156 2.294 . S
O167 C160 1.240 . S
O168 In156 2.326 . S
O168 C160 1.252 . S
In169 O170 2.294 . S
In169 O171 2.326 . S
In169 O175 2.266 . S
In169 O176 2.326 . S
In169 O177 2.266 . S
In169 O178 2.326 . S
In169 O180 2.294 . S
In169 O181 2.326 . S
O170 In169 2.294 . S
O170 C179 1.240 . S
O171 In169 2.326 . S
O171 C179 1.252 . S
C172 O175 1.252 . S
C172 O176 1.260 . S
C173 O180 1.240 . S
C173 O181 1.252 . S
C174 O177 1.252 . S
C174 O178 1.260 . S
O175 In169 2.266 . S
O175 C172 1.252 . S
O176 In169 2.326 . S
O176 C172 1.260 . S
O177 In169 2.266 . S
O177 C174 1.252 . S
O178 In169 2.326 . S
O178 C174 1.260 . S
C179 O170 1.240 . S
C179 O171 1.252 . S
O180 In169 2.294 . S
O180 C173 1.240 . S
O181 In169 2.326 . S
O181 C173 1.252 . S
In182 O183 2.294 . S
In182 O184 2.326 . S
In182 O188 2.266 . S
In182 O189 2.326 . S
In182 O190 2.266 . S
In182 O191 2.326 . S
In182 O193 2.294 . S
In182 O194 2.326 . S
O183 In182 2.294 . S
O183 C192 1.240 . S
O184 In182 2.326 . S
O184 C192 1.252 . S
C185 O188 1.252 . S
C185 O189 1.260 . S
C186 O193 1.240 . S
C186 O194 1.252 . S
C187 O190 1.252 . S
C187 O191 1.260 . S
O188 In182 2.266 . S
O188 C185 1.252 . S
O189 In182 2.326 . S
O189 C185 1.260 . S
O190 In182 2.266 . S
O190 C187 1.252 . S
O191 In182 2.326 . S
O191 C187 1.260 . S
C192 O183 1.240 . S
C192 O184 1.252 . S
O193 In182 2.294 . S
O193 C186 1.240 . S
O194 In182 2.326 . S
O194 C186 1.252 . S
In195 O196 2.294 . S
In195 O197 2.326 . S
In195 O201 2.266 . S
In195 O202 2.326 . S
In195 O203 2.266 . S
In195 O204 2.326 . S
In195 O206 2.294 . S
In195 O207 2.326 . S
O196 In195 2.294 . S
O196 C205 1.240 . S
O197 In195 2.326 . S
O197 C205 1.252 . S
C198 O201 1.252 . S
C198 O202 1.260 . S
C199 O206 1.240 . S
C199 O207 1.252 . S
C200 O203 1.252 . S
C200 O204 1.260 . S
O201 In195 2.266 . S
O201 C198 1.252 . S
O202 In195 2.326 . S
O202 C198 1.260 . S
O203 In195 2.266 . S
O203 C200 1.252 . S
O204 In195 2.326 . S
O204 C200 1.260 . S
C205 O196 1.240 . S
C205 O197 1.252 . S
O206 In195 2.294 . S
O206 C199 1.240 . S
O207 In195 2.326 . S
O207 C199 1.252 . S
In208 O209 2.294 . S
In208 O210 2.326 . S
In208 O214 2.266 . S
In208 O215 2.326 . S
In208 O216 2.266 . S
In208 O217 2.326 . S
In208 O219 2.294 . S
In208 O220 2.326 . S
O209 In208 2.294 . S
O209 C218 1.240 . S
O210 In208 2.326 . S
O210 C218 1.252 . S
C211 O214 1.252 . S
C211 O215 1.260 . S
C212 O219 1.240 . S
C212 O220 1.252 . S
C213 O216 1.252 . S
C213 O217 1.260 . S
O214 In208 2.266 . S
O214 C211 1.252 . S
O215 In208 2.326 . S
O215 C211 1.260 . S
O216 In208 2.266 . S
O216 C213 1.252 . S
O217 In208 2.326 . S
O217 C213 1.260 . S
C218 O209 1.240 . S
C218 O210 1.252 . S
O219 In208 2.294 . S
O219 C212 1.240 . S
O220 In208 2.326 . S
O220 C212 1.252 . S
In221 O222 2.294 . S
In221 O223 2.326 . S
In221 O227 2.266 . S
In221 O228 2.326 . S
In221 O229 2.266 . S
In221 O230 2.326 . S
In221 O232 2.294 . S
In221 O233 2.326 . S
O222 In221 2.294 . S
O222 C231 1.240 . S
O223 In221 2.326 . S
O223 C231 1.252 . S
C224 O227 1.252 . S
C224 O228 1.260 . S
C225 O232 1.240 . S
C225 O233 1.252 . S
C226 O229 1.252 . S
C226 O230 1.260 . S
O227 In221 2.266 . S
O227 C224 1.252 . S
O228 In221 2.326 . S
O228 C224 1.260 . S
O229 In221 2.266 . S
O229 C226 1.252 . S
O230 In221 2.326 . S
O230 C226 1.260 . S
C231 O222 1.240 . S
C231 O223 1.252 . S
O232 In221 2.294 . S
O232 C225 1.240 . S
O233 In221 2.326 . S
O233 C225 1.252 . S
In234 O235 2.294 . S
In234 O236 2.326 . S
In234 O240 2.266 . S
In234 O241 2.326 . S
In234 O242 2.266 . S
In234 O243 2.326 . S
In234 O245 2.294 . S
In234 O246 2.326 . S
O235 In234 2.294 . S
O235 C244 1.240 . S
O236 In234 2.326 . S
O236 C244 1.252 . S
C237 O240 1.252 . S
C237 O241 1.260 . S
C238 O245 1.240 . S
C238 O246 1.252 . S
C239 O242 1.252 . S
C239 O243 1.260 . S
O240 In234 2.266 . S
O240 C237 1.252 . S
O241 In234 2.326 . S
O241 C237 1.260 . S
O242 In234 2.266 . S
O242 C239 1.252 . S
O243 In234 2.326 . S
O243 C239 1.260 . S
C244 O235 1.240 . S
C244 O236 1.252 . S
O245 In234 2.294 . S
O245 C238 1.240 . S
O246 In234 2.326 . S
O246 C238 1.252 . S
In247 O248 2.294 . S
In247 O249 2.326 . S
In247 O253 2.266 . S
In247 O254 2.326 . S
In247 O255 2.266 . S
In247 O256 2.326 . S
In247 O258 2.294 . S
In247 O259 2.326 . S
O248 In247 2.294 . S
O248 C257 1.240 . S
O249 In247 2.326 . S
O249 C257 1.252 . S
C250 O253 1.252 . S
C250 O254 1.260 . S
C251 O258 1.240 . S
C251 O259 1.252 . S
C252 O255 1.252 . S
C252 O256 1.260 . S
O253 In247 2.266 . S
O253 C250 1.252 . S
O254 In247 2.326 . S
O254 C250 1.260 . S
O255 In247 2.266 . S
O255 C252 1.252 . S
O256 In247 2.326 . S
O256 C252 1.260 . S
C257 O248 1.240 . S
C257 O249 1.252 . S
O258 In247 2.294 . S
O258 C251 1.240 . S
O259 In247 2.326 . S
O259 C251 1.252 . S
In260 O261 2.294 . S
In260 O262 2.326 . S
In260 O266 2.266 . S
In260 O267 2.326 . S
In260 O268 2.266 . S
In260 O269 2.326 . S
In260 O271 2.294 . S
In260 O272 2.326 . S
O261 In260 2.294 . S
O261 C270 1.240 . S
O262 In260 2.326 . S
O262 C270 1.252 . S
C263 O266 1.252 . S
C263 O267 1.260 . S
C264 O271 1.240 . S
C264 O272 1.252 . S
C265 O268 1.252 . S
C265 O269 1.260 . S
O266 In260 2.266 . S
O266 C263 1.252 . S
O267 In260 2.326 . S
O267 C263 1.260 . S
O268 In260 2.266 . S
O268 C265 1.252 . S
O269 In260 2.326 . S
O269 C265 1.260 . S
C270 O261 1.240 . S
C270 O262 1.252 . S
O271 In260 2.294 . S
O271 C264 1.240 . S
O272 In260 2.326 . S
O272 C264 1.252 . S
In273 O274 2.294 . S
In273 O275 2.326 . S
In273 O279 2.266 . S
In273 O280 2.326 . S
In273 O281 2.266 . S
In273 O282 2.326 . S
In273 O284 2.294 . S
In273 O285 2.326 . S
O274 In273 2.294 . S
O274 C283 1.240 . S
O275 In273 2.326 . S
O275 C283 1.252 . S
C276 O279 1.252 . S
C276 O280 1.260 . S
C277 O284 1.240 . S
C277 O285 1.252 . S
C278 O281 1.252 . S
C278 O282 1.260 . S
O279 In273 2.266 . S
O279 C276 1.252 . S
O280 In273 2.326 . S
O280 C276 1.260 . S
O281 In273 2.266 . S
O281 C278 1.252 . S
O282 In273 2.326 . S
O282 C278 1.260 . S
C283 O274 1.240 . S
C283 O275 1.252 . S
O284 In273 2.294 . S
O284 C277 1.240 . S
O285 In273 2.326 . S
O285 C277 1.252 . S
In286 O287 2.294 . S
In286 O288 2.326 . S
In286 O292 2.266 . S
In286 O293 2.326 . S
In286 O294 2.266 . S
In286 O295 2.326 . S
In286 O297 2.294 . S
In286 O298 2.326 . S
O287 In286 2.294 . S
O287 C296 1.240 . S
O288 In286 2.326 . S
O288 C296 1.252 . S
C289 O292 1.252 . S
C289 O293 1.260 . S
C290 O297 1.240 . S
C290 O298 1.252 . S
C291 O294 1.252 . S
C291 O295 1.260 . S
O292 In286 2.266 . S
O292 C289 1.252 . S
O293 In286 2.326 . S
O293 C289 1.260 . S
O294 In286 2.266 . S
O294 C291 1.252 . S
O295 In286 2.326 . S
O295 C291 1.260 . S
C296 O287 1.240 . S
C296 O288 1.252 . S
O297 In286 2.294 . S
O297 C290 1.240 . S
O298 In286 2.326 . S
O298 C290 1.252 . S
In299 O300 2.294 . S
In299 O301 2.326 . S
In299 O305 2.266 . S
In299 O306 2.326 . S
In299 O307 2.266 . S
In299 O308 2.326 . S
In299 O310 2.294 . S
In299 O311 2.326 . S
O300 In299 2.294 . S
O300 C309 1.240 . S
O301 In299 2.326 . S
O301 C309 1.252 . S
C302 O305 1.252 . S
C302 O306 1.260 . S
C303 O310 1.240 . S
C303 O311 1.252 . S
C304 O307 1.252 . S
C304 O308 1.260 . S
O305 In299 2.266 . S
O305 C302 1.252 . S
O306 In299 2.326 . S
O306 C302 1.260 . S
O307 In299 2.266 . S
O307 C304 1.252 . S
O308 In299 2.326 . S
O308 C304 1.260 . S
C309 O300 1.240 . S
C309 O301 1.252 . S
O310 In299 2.294 . S
O310 C303 1.240 . S
O311 In299 2.326 . S
O311 C303 1.252 . S
H312 C318 0.930 . S
H313 C322 0.930 . S
H314 C327 0.929 . S
H315 C325 0.929 . S
H316 C320 0.929 . S
H317 C326 0.929 . S
C318 H312 0.930 . S
C318 C319 1.367 . S
C318 C326 1.378 . S
C319 C318 1.367 . S
C319 C327 1.433 . S
C320 H316 0.929 . S
C320 C322 1.378 . S
C320 C324 1.350 . S
C321 C324 1.463 . S
C321 C326 1.350 . S
C321 N329 1.427 . S
C322 H313 0.930 . S
C322 C320 1.378 . S
C322 C323 1.367 . S
C323 C322 1.367 . S
C323 C325 1.433 . S
C324 C320 1.350 . S
C324 C321 1.463 . S
C324 N328 1.427 . S
C325 H315 0.929 . S
C325 C323 1.433 . S
C325 N328 1.384 . S
C326 H317 0.929 . S
C326 C318 1.378 . S
C326 C321 1.350 . S
C327 H314 0.929 . S
C327 C319 1.433 . S
C327 N329 1.384 . S
N328 C324 1.427 . S
N328 C325 1.384 . S
N329 C321 1.427 . S
N329 C327 1.384 . S
H330 C336 0.930 . S
H331 C340 0.930 . S
H332 C345 0.929 . S
H333 C343 0.929 . S
H334 C338 0.929 . S
H335 C344 0.929 . S
C336 H330 0.930 . S
C336 C337 1.367 . S
C336 C344 1.378 . S
C337 C336 1.367 . S
C337 C345 1.433 . S
C338 H334 0.929 . S
C338 C340 1.378 . S
C338 C342 1.350 . S
C339 C342 1.463 . S
C339 C344 1.350 . S
C339 N347 1.427 . S
C340 H331 0.930 . S
C340 C338 1.378 . S
C340 C341 1.367 . S
C341 C340 1.367 . S
C341 C343 1.433 . S
C342 C338 1.350 . S
C342 C339 1.463 . S
C342 N346 1.427 . S
C343 H333 0.929 . S
C343 C341 1.433 . S
C343 N346 1.384 . S
C344 H335 0.929 . S
C344 C336 1.378 . S
C344 C339 1.350 . S
C345 H332 0.929 . S
C345 C337 1.433 . S
C345 N347 1.384 . S
N346 C342 1.427 . S
N346 C343 1.384 . S
N347 C339 1.427 . S
N347 C345 1.384 . S
H348 C354 0.930 . S
H349 C358 0.930 . S
H350 C363 0.929 . S
H351 C361 0.929 . S
H352 C356 0.929 . S
H353 C362 0.929 . S
C354 H348 0.930 . S
C354 C355 1.367 . S
C354 C362 1.378 . S
C355 C354 1.367 . S
C355 C363 1.433 . S
C356 H352 0.929 . S
C356 C358 1.378 . S
C356 C360 1.350 . S
C357 C360 1.463 . S
C357 C362 1.350 . S
C357 N365 1.427 . S
C358 H349 0.930 . S
C358 C356 1.378 . S
C358 C359 1.367 . S
C359 C358 1.367 . S
C359 C361 1.433 . S
C360 C356 1.350 . S
C360 C357 1.463 . S
C360 N364 1.427 . S
C361 H351 0.929 . S
C361 C359 1.433 . S
C361 N364 1.384 . S
C362 H353 0.929 . S
C362 C354 1.378 . S
C362 C357 1.350 . S
C363 H350 0.929 . S
C363 C355 1.433 . S
C363 N365 1.384 . S
N364 C360 1.427 . S
N364 C361 1.384 . S
N365 C357 1.427 . S
N365 C363 1.384 . S
H366 C372 0.930 . S
H367 C376 0.930 . S
H368 C381 0.929 . S
H369 C379 0.929 . S
H370 C374 0.929 . S
H371 C380 0.929 . S
C372 H366 0.930 . S
C372 C373 1.367 . S
C372 C380 1.378 . S
C373 C372 1.367 . S
C373 C381 1.433 . S
C374 H370 0.929 . S
C374 C376 1.378 . S
C374 C378 1.350 . S
C375 C378 1.463 . S
C375 C380 1.350 . S
C375 N383 1.427 . S
C376 H367 0.930 . S
C376 C374 1.378 . S
C376 C377 1.367 . S
C377 C376 1.367 . S
C377 C379 1.433 . S
C378 C374 1.350 . S
C378 C375 1.463 . S
C378 N382 1.427 . S
C379 H369 0.929 . S
C379 C377 1.433 . S
C379 N382 1.384 . S
C380 H371 0.929 . S
C380 C372 1.378 . S
C380 C375 1.350 . S
C381 H368 0.929 . S
C381 C373 1.433 . S
C381 N383 1.384 . S
N382 C378 1.427 . S
N382 C379 1.384 . S
N383 C375 1.427 . S
N383 C381 1.384 . S
H384 C390 0.930 . S
H385 C394 0.930 . S
H386 C399 0.929 . S
H387 C397 0.929 . S
H388 C392 0.929 . S
H389 C398 0.929 . S
C390 H384 0.930 . S
C390 C391 1.367 . S
C390 C398 1.378 . S
C391 C390 1.367 . S
C391 C399 1.433 . S
C392 H388 0.929 . S
C392 C394 1.378 . S
C392 C396 1.350 . S
C393 C396 1.463 . S
C393 C398 1.350 . S
C393 N401 1.427 . S
C394 H385 0.930 . S
C394 C392 1.378 . S
C394 C395 1.367 . S
C395 C394 1.367 . S
C395 C397 1.433 . S
C396 C392 1.350 . S
C396 C393 1.463 . S
C396 N400 1.427 . S
C397 H387 0.929 . S
C397 C395 1.433 . S
C397 N400 1.384 . S
C398 H389 0.929 . S
C398 C390 1.378 . S
C398 C393 1.350 . S
C399 H386 0.929 . S
C399 C391 1.433 . S
C399 N401 1.384 . S
N400 C396 1.427 . S
N400 C397 1.384 . S
N401 C393 1.427 . S
N401 C399 1.384 . S
H402 C408 0.930 . S
H403 C412 0.930 . S
H404 C417 0.929 . S
H405 C415 0.929 . S
H406 C410 0.929 . S
H407 C416 0.929 . S
C408 H402 0.930 . S
C408 C409 1.367 . S
C408 C416 1.378 . S
C409 C408 1.367 . S
C409 C417 1.433 . S
C410 H406 0.929 . S
C410 C412 1.378 . S
C410 C414 1.350 . S
C411 C414 1.463 . S
C411 C416 1.350 . S
C411 N419 1.427 . S
C412 H403 0.930 . S
C412 C410 1.378 . S
C412 C413 1.367 . S
C413 C412 1.367 . S
C413 C415 1.433 . S
C414 C410 1.350 . S
C414 C411 1.463 . S
C414 N418 1.427 . S
C415 H405 0.929 . S
C415 C413 1.433 . S
C415 N418 1.384 . S
C416 H407 0.929 . S
C416 C408 1.378 . S
C416 C411 1.350 . S
C417 H404 0.929 . S
C417 C409 1.433 . S
C417 N419 1.384 . S
N418 C414 1.427 . S
N418 C415 1.384 . S
N419 C411 1.427 . S
N419 C417 1.384 . S
H420 C426 0.930 . S
H421 C430 0.930 . S
H422 C435 0.929 . S
H423 C433 0.929 . S
H424 C428 0.929 . S
H425 C434 0.929 . S
C426 H420 0.930 . S
C426 C427 1.367 . S
C426 C434 1.378 . S
C427 C426 1.367 . S
C427 C435 1.433 . S
C428 H424 0.929 . S
C428 C430 1.378 . S
C428 C432 1.350 . S
C429 C432 1.463 . S
C429 C434 1.350 . S
C429 N437 1.427 . S
C430 H421 0.930 . S
C430 C428 1.378 . S
C430 C431 1.367 . S
C431 C430 1.367 . S
C431 C433 1.433 . S
C432 C428 1.350 . S
C432 C429 1.463 . S
C432 N436 1.427 . S
C433 H423 0.929 . S
C433 C431 1.433 . S
C433 N436 1.384 . S
C434 H425 0.929 . S
C434 C426 1.378 . S
C434 C429 1.350 . S
C435 H422 0.929 . S
C435 C427 1.433 . S
C435 N437 1.384 . S
N436 C432 1.427 . S
N436 C433 1.384 . S
N437 C429 1.427 . S
N437 C435 1.384 . S
H438 C444 0.930 . S
H439 C448 0.930 . S
H440 C453 0.929 . S
H441 C451 0.929 . S
H442 C446 0.929 . S
H443 C452 0.929 . S
C444 H438 0.930 . S
C444 C445 1.367 . S
C444 C452 1.378 . S
C445 C444 1.367 . S
C445 C453 1.433 . S
C446 H442 0.929 . S
C446 C448 1.378 . S
C446 C450 1.350 . S
C447 C450 1.463 . S
C447 C452 1.350 . S
C447 N455 1.427 . S
C448 H439 0.930 . S
C448 C446 1.378 . S
C448 C449 1.367 . S
C449 C448 1.367 . S
C449 C451 1.433 . S
C450 C446 1.350 . S
C450 C447 1.463 . S
C450 N454 1.427 . S
C451 H441 0.929 . S
C451 C449 1.433 . S
C451 N454 1.384 . S
C452 H443 0.929 . S
C452 C444 1.378 . S
C452 C447 1.350 . S
C453 H440 0.929 . S
C453 C445 1.433 . S
C453 N455 1.384 . S
N454 C450 1.427 . S
N454 C451 1.384 . S
N455 C447 1.427 . S
N455 C453 1.384 . S
H456 C462 0.930 . S
H457 C466 0.930 . S
H458 C471 0.929 . S
H459 C469 0.929 . S
H460 C464 0.929 . S
H461 C470 0.929 . S
C462 H456 0.930 . S
C462 C463 1.367 . S
C462 C470 1.378 . S
C463 C462 1.367 . S
C463 C471 1.433 . S
C464 H460 0.929 . S
C464 C466 1.378 . S
C464 C468 1.350 . S
C465 C468 1.463 . S
C465 C470 1.350 . S
C465 N473 1.427 . S
C466 H457 0.930 . S
C466 C464 1.378 . S
C466 C467 1.367 . S
C467 C466 1.367 . S
C467 C469 1.433 . S
C468 C464 1.350 . S
C468 C465 1.463 . S
C468 N472 1.427 . S
C469 H459 0.929 . S
C469 C467 1.433 . S
C469 N472 1.384 . S
C470 H461 0.929 . S
C470 C462 1.378 . S
C470 C465 1.350 . S
C471 H458 0.929 . S
C471 C463 1.433 . S
C471 N473 1.384 . S
N472 C468 1.427 . S
N472 C469 1.384 . S
N473 C465 1.427 . S
N473 C471 1.384 . S
H474 C480 0.930 . S
H475 C484 0.930 . S
H476 C489 0.929 . S
H477 C487 0.929 . S
H478 C482 0.929 . S
H479 C488 0.929 . S
C480 H474 0.930 . S
C480 C481 1.367 . S
C480 C488 1.378 . S
C481 C480 1.367 . S
C481 C489 1.433 . S
C482 H478 0.929 . S
C482 C484 1.378 . S
C482 C486 1.350 . S
C483 C486 1.463 . S
C483 C488 1.350 . S
C483 N491 1.427 . S
C484 H475 0.930 . S
C484 C482 1.378 . S
C484 C485 1.367 . S
C485 C484 1.367 . S
C485 C487 1.433 . S
C486 C482 1.350 . S
C486 C483 1.463 . S
C486 N490 1.427 . S
C487 H477 0.929 . S
C487 C485 1.433 . S
C487 N490 1.384 . S
C488 H479 0.929 . S
C488 C480 1.378 . S
C488 C483 1.350 . S
C489 H476 0.929 . S
C489 C481 1.433 . S
C489 N491 1.384 . S
N490 C486 1.427 . S
N490 C487 1.384 . S
N491 C483 1.427 . S
N491 C489 1.384 . S
H492 C498 0.930 . S
H493 C502 0.930 . S
H494 C507 0.929 . S
H495 C505 0.929 . S
H496 C500 0.929 . S
H497 C506 0.929 . S
C498 H492 0.930 . S
C498 C499 1.367 . S
C498 C506 1.378 . S
C499 C498 1.367 . S
C499 C507 1.433 . S
C500 H496 0.929 . S
C500 C502 1.378 . S
C500 C504 1.350 . S
C501 C504 1.463 . S
C501 C506 1.350 . S
C501 N509 1.427 . S
C502 H493 0.930 . S
C502 C500 1.378 . S
C502 C503 1.367 . S
C503 C502 1.367 . S
C503 C505 1.433 . S
C504 C500 1.350 . S
C504 C501 1.463 . S
C504 N508 1.427 . S
C505 H495 0.929 . S
C505 C503 1.433 . S
C505 N508 1.384 . S
C506 H497 0.929 . S
C506 C498 1.378 . S
C506 C501 1.350 . S
C507 H494 0.929 . S
C507 C499 1.433 . S
C507 N509 1.384 . S
N508 C504 1.427 . S
N508 C505 1.384 . S
N509 C501 1.427 . S
N509 C507 1.384 . S
H510 C516 0.930 . S
H511 C520 0.930 . S
H512 C525 0.929 . S
H513 C523 0.929 . S
H514 C518 0.929 . S
H515 C524 0.929 . S
C516 H510 0.930 . S
C516 C517 1.367 . S
C516 C524 1.378 . S
C517 C516 1.367 . S
C517 C525 1.433 . S
C518 H514 0.929 . S
C518 C520 1.378 . S
C518 C522 1.350 . S
C519 C522 1.463 . S
C519 C524 1.350 . S
C519 N527 1.427 . S
C520 H511 0.930 . S
C520 C518 1.378 . S
C520 C521 1.367 . S
C521 C520 1.367 . S
C521 C523 1.433 . S
C522 C518 1.350 . S
C522 C519 1.463 . S
C522 N526 1.427 . S
C523 H513 0.929 . S
C523 C521 1.433 . S
C523 N526 1.384 . S
C524 H515 0.929 . S
C524 C516 1.378 . S
C524 C519 1.350 . S
C525 H512 0.929 . S
C525 C517 1.433 . S
C525 N527 1.384 . S
N526 C522 1.427 . S
N526 C523 1.384 . S
N527 C519 1.427 . S
N527 C525 1.384 . S
H528 C534 0.930 . S
H529 C538 0.930 . S
H530 C543 0.929 . S
H531 C541 0.929 . S
H532 C536 0.929 . S
H533 C542 0.929 . S
C534 H528 0.930 . S
C534 C535 1.367 . S
C534 C542 1.378 . S
C535 C534 1.367 . S
C535 C543 1.433 . S
C536 H532 0.929 . S
C536 C538 1.378 . S
C536 C540 1.350 . S
C537 C540 1.463 . S
C537 C542 1.350 . S
C537 N545 1.427 . S
C538 H529 0.930 . S
C538 C536 1.378 . S
C538 C539 1.367 . S
C539 C538 1.367 . S
C539 C541 1.433 . S
C540 C536 1.350 . S
C540 C537 1.463 . S
C540 N544 1.427 . S
C541 H531 0.929 . S
C541 C539 1.433 . S
C541 N544 1.384 . S
C542 H533 0.929 . S
C542 C534 1.378 . S
C542 C537 1.350 . S
C543 H530 0.929 . S
C543 C535 1.433 . S
C543 N545 1.384 . S
N544 C540 1.427 . S
N544 C541 1.384 . S
N545 C537 1.427 . S
N545 C543 1.384 . S
H546 C552 0.930 . S
H547 C556 0.930 . S
H548 C561 0.929 . S
H549 C559 0.929 . S
H550 C554 0.929 . S
H551 C560 0.929 . S
C552 H546 0.930 . S
C552 C553 1.367 . S
C552 C560 1.378 . S
C553 C552 1.367 . S
C553 C561 1.433 . S
C554 H550 0.929 . S
C554 C556 1.378 . S
C554 C558 1.350 . S
C555 C558 1.463 . S
C555 C560 1.350 . S
C555 N563 1.427 . S
C556 H547 0.930 . S
C556 C554 1.378 . S
C556 C557 1.367 . S
C557 C556 1.367 . S
C557 C559 1.433 . S
C558 C554 1.350 . S
C558 C555 1.463 . S
C558 N562 1.427 . S
C559 H549 0.929 . S
C559 C557 1.433 . S
C559 N562 1.384 . S
C560 H551 0.929 . S
C560 C552 1.378 . S
C560 C555 1.350 . S
C561 H548 0.929 . S
C561 C553 1.433 . S
C561 N563 1.384 . S
N562 C558 1.427 . S
N562 C559 1.384 . S
N563 C555 1.427 . S
N563 C561 1.384 . S
H564 C570 0.930 . S
H565 C574 0.930 . S
H566 C579 0.929 . S
H567 C577 0.929 . S
H568 C572 0.929 . S
H569 C578 0.929 . S
C570 H564 0.930 . S
C570 C571 1.367 . S
C570 C578 1.378 . S
C571 C570 1.367 . S
C571 C579 1.433 . S
C572 H568 0.929 . S
C572 C574 1.378 . S
C572 C576 1.350 . S
C573 C576 1.463 . S
C573 C578 1.350 . S
C573 N581 1.427 . S
C574 H565 0.930 . S
C574 C572 1.378 . S
C574 C575 1.367 . S
C575 C574 1.367 . S
C575 C577 1.433 . S
C576 C572 1.350 . S
C576 C573 1.463 . S
C576 N580 1.427 . S
C577 H567 0.929 . S
C577 C575 1.433 . S
C577 N580 1.384 . S
C578 H569 0.929 . S
C578 C570 1.378 . S
C578 C573 1.350 . S
C579 H566 0.929 . S
C579 C571 1.433 . S
C579 N581 1.384 . S
N580 C576 1.427 . S
N580 C577 1.384 . S
N581 C573 1.427 . S
N581 C579 1.384 . S
H582 C588 0.930 . S
H583 C592 0.930 . S
H584 C597 0.929 . S
H585 C595 0.929 . S
H586 C590 0.929 . S
H587 C596 0.929 . S
C588 H582 0.930 . S
C588 C589 1.367 . S
C588 C596 1.378 . S
C589 C588 1.367 . S
C589 C597 1.433 . S
C590 H586 0.929 . S
C590 C592 1.378 . S
C590 C594 1.350 . S
C591 C594 1.463 . S
C591 C596 1.350 . S
C591 N599 1.427 . S
C592 H583 0.930 . S
C592 C590 1.378 . S
C592 C593 1.367 . S
C593 C592 1.367 . S
C593 C595 1.433 . S
C594 C590 1.350 . S
C594 C591 1.463 . S
C594 N598 1.427 . S
C595 H585 0.929 . S
C595 C593 1.433 . S
C595 N598 1.384 . S
C596 H587 0.929 . S
C596 C588 1.378 . S
C596 C591 1.350 . S
C597 H584 0.929 . S
C597 C589 1.433 . S
C597 N599 1.384 . S
N598 C594 1.427 . S
N598 C595 1.384 . S
N599 C591 1.427 . S
N599 C597 1.384 . S
H600 C606 0.930 . S
H601 C610 0.930 . S
H602 C615 0.929 . S
H603 C613 0.929 . S
H604 C608 0.929 . S
H605 C614 0.929 . S
C606 H600 0.930 . S
C606 C607 1.367 . S
C606 C614 1.378 . S
C607 C606 1.367 . S
C607 C615 1.433 . S
C608 H604 0.929 . S
C608 C610 1.378 . S
C608 C612 1.350 . S
C609 C612 1.463 . S
C609 C614 1.350 . S
C609 N617 1.427 . S
C610 H601 0.930 . S
C610 C608 1.378 . S
C610 C611 1.367 . S
C611 C610 1.367 . S
C611 C613 1.433 . S
C612 C608 1.350 . S
C612 C609 1.463 . S
C612 N616 1.427 . S
C613 H603 0.929 . S
C613 C611 1.433 . S
C613 N616 1.384 . S
C614 H605 0.929 . S
C614 C606 1.378 . S
C614 C609 1.350 . S
C615 H602 0.929 . S
C615 C607 1.433 . S
C615 N617 1.384 . S
N616 C612 1.427 . S
N616 C613 1.384 . S
N617 C609 1.427 . S
N617 C615 1.384 . S
H618 C624 0.930 . S
H619 C628 0.930 . S
H620 C633 0.929 . S
H621 C631 0.929 . S
H622 C626 0.929 . S
H623 C632 0.929 . S
C624 H618 0.930 . S
C624 C625 1.367 . S
C624 C632 1.378 . S
C625 C624 1.367 . S
C625 C633 1.433 . S
C626 H622 0.929 . S
C626 C628 1.378 . S
C626 C630 1.350 . S
C627 C630 1.463 . S
C627 C632 1.350 . S
C627 N635 1.427 . S
C628 H619 0.930 . S
C628 C626 1.378 . S
C628 C629 1.367 . S
C629 C628 1.367 . S
C629 C631 1.433 . S
C630 C626 1.350 . S
C630 C627 1.463 . S
C630 N634 1.427 . S
C631 H621 0.929 . S
C631 C629 1.433 . S
C631 N634 1.384 . S
C632 H623 0.929 . S
C632 C624 1.378 . S
C632 C627 1.350 . S
C633 H620 0.929 . S
C633 C625 1.433 . S
C633 N635 1.384 . S
N634 C630 1.427 . S
N634 C631 1.384 . S
N635 C627 1.427 . S
N635 C633 1.384 . S
H636 C642 0.930 . S
H637 C646 0.930 . S
H638 C651 0.929 . S
H639 C649 0.929 . S
H640 C644 0.929 . S
H641 C650 0.929 . S
C642 H636 0.930 . S
C642 C643 1.367 . S
C642 C650 1.378 . S
C643 C642 1.367 . S
C643 C651 1.433 . S
C644 H640 0.929 . S
C644 C646 1.378 . S
C644 C648 1.350 . S
C645 C648 1.463 . S
C645 C650 1.350 . S
C645 N653 1.427 . S
C646 H637 0.930 . S
C646 C644 1.378 . S
C646 C647 1.367 . S
C647 C646 1.367 . S
C647 C649 1.433 . S
C648 C644 1.350 . S
C648 C645 1.463 . S
C648 N652 1.427 . S
C649 H639 0.929 . S
C649 C647 1.433 . S
C649 N652 1.384 . S
C650 H641 0.929 . S
C650 C642 1.378 . S
C650 C645 1.350 . S
C651 H638 0.929 . S
C651 C643 1.433 . S
C651 N653 1.384 . S
N652 C648 1.427 . S
N652 C649 1.384 . S
N653 C645 1.427 . S
N653 C651 1.384 . S
H654 C660 0.930 . S
H655 C664 0.930 . S
H656 C669 0.929 . S
H657 C667 0.929 . S
H658 C662 0.929 . S
H659 C668 0.929 . S
C660 H654 0.930 . S
C660 C661 1.367 . S
C660 C668 1.378 . S
C661 C660 1.367 . S
C661 C669 1.433 . S
C662 H658 0.929 . S
C662 C664 1.378 . S
C662 C666 1.350 . S
C663 C666 1.463 . S
C663 C668 1.350 . S
C663 N671 1.427 . S
C664 H655 0.930 . S
C664 C662 1.378 . S
C664 C665 1.367 . S
C665 C664 1.367 . S
C665 C667 1.433 . S
C666 C662 1.350 . S
C666 C663 1.463 . S
C666 N670 1.427 . S
C667 H657 0.929 . S
C667 C665 1.433 . S
C667 N670 1.384 . S
C668 H659 0.929 . S
C668 C660 1.378 . S
C668 C663 1.350 . S
C669 H656 0.929 . S
C669 C661 1.433 . S
C669 N671 1.384 . S
N670 C666 1.427 . S
N670 C667 1.384 . S
N671 C663 1.427 . S
N671 C669 1.384 . S
H672 C678 0.930 . S
H673 C682 0.930 . S
H674 C687 0.929 . S
H675 C685 0.929 . S
H676 C680 0.929 . S
H677 C686 0.929 . S
C678 H672 0.930 . S
C678 C679 1.367 . S
C678 C686 1.378 . S
C679 C678 1.367 . S
C679 C687 1.433 . S
C680 H676 0.929 . S
C680 C682 1.378 . S
C680 C684 1.350 . S
C681 C684 1.463 . S
C681 C686 1.350 . S
C681 N689 1.427 . S
C682 H673 0.930 . S
C682 C680 1.378 . S
C682 C683 1.367 . S
C683 C682 1.367 . S
C683 C685 1.433 . S
C684 C680 1.350 . S
C684 C681 1.463 . S
C684 N688 1.427 . S
C685 H675 0.929 . S
C685 C683 1.433 . S
C685 N688 1.384 . S
C686 H677 0.929 . S
C686 C678 1.378 . S
C686 C681 1.350 . S
C687 H674 0.929 . S
C687 C679 1.433 . S
C687 N689 1.384 . S
N688 C684 1.427 . S
N688 C685 1.384 . S
N689 C681 1.427 . S
N689 C687 1.384 . S
H690 C696 0.930 . S
H691 C700 0.930 . S
H692 C705 0.929 . S
H693 C703 0.929 . S
H694 C698 0.929 . S
H695 C704 0.929 . S
C696 H690 0.930 . S
C696 C697 1.367 . S
C696 C704 1.378 . S
C697 C696 1.367 . S
C697 C705 1.433 . S
C698 H694 0.929 . S
C698 C700 1.378 . S
C698 C702 1.350 . S
C699 C702 1.463 . S
C699 C704 1.350 . S
C699 N707 1.427 . S
C700 H691 0.930 . S
C700 C698 1.378 . S
C700 C701 1.367 . S
C701 C700 1.367 . S
C701 C703 1.433 . S
C702 C698 1.350 . S
C702 C699 1.463 . S
C702 N706 1.427 . S
C703 H693 0.929 . S
C703 C701 1.433 . S
C703 N706 1.384 . S
C704 H695 0.929 . S
C704 C696 1.378 . S
C704 C699 1.350 . S
C705 H692 0.929 . S
C705 C697 1.433 . S
C705 N707 1.384 . S
N706 C702 1.427 . S
N706 C703 1.384 . S
N707 C699 1.427 . S
N707 C705 1.384 . S
H708 C714 0.930 . S
H709 C718 0.930 . S
H710 C723 0.929 . S
H711 C721 0.929 . S
H712 C716 0.929 . S
H713 C722 0.929 . S
C714 H708 0.930 . S
C714 C715 1.367 . S
C714 C722 1.378 . S
C715 C714 1.367 . S
C715 C723 1.433 . S
C716 H712 0.929 . S
C716 C718 1.378 . S
C716 C720 1.350 . S
C717 C720 1.463 . S
C717 C722 1.350 . S
C717 N725 1.427 . S
C718 H709 0.930 . S
C718 C716 1.378 . S
C718 C719 1.367 . S
C719 C718 1.367 . S
C719 C721 1.433 . S
C720 C716 1.350 . S
C720 C717 1.463 . S
C720 N724 1.427 . S
C721 H711 0.929 . S
C721 C719 1.433 . S
C721 N724 1.384 . S
C722 H713 0.929 . S
C722 C714 1.378 . S
C722 C717 1.350 . S
C723 H710 0.929 . S
C723 C715 1.433 . S
C723 N725 1.384 . S
N724 C720 1.427 . S
N724 C721 1.384 . S
N725 C717 1.427 . S
N725 C723 1.384 . S
H726 C732 0.930 . S
H727 C736 0.930 . S
H728 C741 0.929 . S
H729 C739 0.929 . S
H730 C734 0.929 . S
H731 C740 0.929 . S
C732 H726 0.930 . S
C732 C733 1.367 . S
C732 C740 1.378 . S
C733 C732 1.367 . S
C733 C741 1.433 . S
C734 H730 0.929 . S
C734 C736 1.378 . S
C734 C738 1.350 . S
C735 C738 1.463 . S
C735 C740 1.350 . S
C735 N743 1.427 . S
C736 H727 0.930 . S
C736 C734 1.378 . S
C736 C737 1.367 . S
C737 C736 1.367 . S
C737 C739 1.433 . S
C738 C734 1.350 . S
C738 C735 1.463 . S
C738 N742 1.427 . S
C739 H729 0.929 . S
C739 C737 1.433 . S
C739 N742 1.384 . S
C740 H731 0.929 . S
C740 C732 1.378 . S
C740 C735 1.350 . S
C741 H728 0.929 . S
C741 C733 1.433 . S
C741 N743 1.384 . S
N742 C738 1.427 . S
N742 C739 1.384 . S
N743 C735 1.427 . S
N743 C741 1.384 . S
H744 C750 0.930 . S
H745 C754 0.930 . S
H746 C759 0.929 . S
H747 C757 0.929 . S
H748 C752 0.929 . S
H749 C758 0.929 . S
C750 H744 0.930 . S
C750 C751 1.367 . S
C750 C758 1.378 . S
C751 C750 1.367 . S
C751 C759 1.433 . S
C752 H748 0.929 . S
C752 C754 1.378 . S
C752 C756 1.350 . S
C753 C756 1.463 . S
C753 C758 1.350 . S
C753 N761 1.427 . S
C754 H745 0.930 . S
C754 C752 1.378 . S
C754 C755 1.367 . S
C755 C754 1.367 . S
C755 C757 1.433 . S
C756 C752 1.350 . S
C756 C753 1.463 . S
C756 N760 1.427 . S
C757 H747 0.929 . S
C757 C755 1.433 . S
C757 N760 1.384 . S
C758 H749 0.929 . S
C758 C750 1.378 . S
C758 C753 1.350 . S
C759 H746 0.929 . S
C759 C751 1.433 . S
C759 N761 1.384 . S
N760 C756 1.427 . S
N760 C757 1.384 . S
N761 C753 1.427 . S
N761 C759 1.384 . S
H762 C768 0.930 . S
H763 C772 0.930 . S
H764 C777 0.929 . S
H765 C775 0.929 . S
H766 C770 0.929 . S
H767 C776 0.929 . S
C768 H762 0.930 . S
C768 C769 1.367 . S
C768 C776 1.378 1_554 S
C769 C768 1.367 . S
C769 C777 1.433 . S
C770 H766 0.929 . S
C770 C772 1.378 . S
C770 C774 1.350 . S
C771 C774 1.463 . S
C771 C776 1.350 . S
C771 N779 1.427 . S
C772 H763 0.930 . S
C772 C770 1.378 . S
C772 C773 1.367 . S
C773 C772 1.367 . S
C773 C775 1.433 . S
C774 C770 1.350 . S
C774 C771 1.463 . S
C774 N778 1.427 . S
C775 H765 0.929 . S
C775 C773 1.433 . S
C775 N778 1.384 . S
C776 H767 0.929 . S
C776 C768 1.378 1_556 S
C776 C771 1.350 . S
C777 H764 0.929 . S
C777 C769 1.433 . S
C777 N779 1.384 1_554 S
N778 C774 1.427 . S
N778 C775 1.384 . S
N779 C771 1.427 . S
N779 C777 1.384 1_556 S
H780 C786 0.930 . S
H781 C790 0.930 . S
H782 C795 0.929 . S
H783 C793 0.929 . S
H784 C788 0.929 . S
H785 C794 0.929 . S
C786 H780 0.930 . S
C786 C787 1.367 . S
C786 C794 1.378 . S
C787 C786 1.367 . S
C787 C795 1.433 . S
C788 H784 0.929 . S
C788 C790 1.378 . S
C788 C792 1.350 . S
C789 C792 1.463 . S
C789 C794 1.350 . S
C789 N797 1.427 . S
C790 H781 0.930 . S
C790 C788 1.378 . S
C790 C791 1.367 . S
C791 C790 1.367 . S
C791 C793 1.433 . S
C792 C788 1.350 . S
C792 C789 1.463 . S
C792 N796 1.427 . S
C793 H783 0.929 . S
C793 C791 1.433 . S
C793 N796 1.384 . S
C794 H785 0.929 . S
C794 C786 1.378 . S
C794 C789 1.350 . S
C795 H782 0.929 . S
C795 C787 1.433 . S
C795 N797 1.384 . S
N796 C792 1.427 . S
N796 C793 1.384 . S
N797 C789 1.427 . S
N797 C795 1.384 . S
H798 C804 0.930 . S
H799 C808 0.930 . S
H800 C813 0.929 . S
H801 C811 0.929 . S
H802 C806 0.929 . S
H803 C812 0.929 . S
C804 H798 0.930 . S
C804 C805 1.367 . S
C804 C812 1.378 . S
C805 C804 1.367 . S
C805 C813 1.433 . S
C806 H802 0.929 . S
C806 C808 1.378 1_554 S
C806 C810 1.350 . S
C807 C810 1.463 . S
C807 C812 1.350 . S
C807 N815 1.427 . S
C808 H799 0.930 . S
C808 C806 1.378 1_556 S
C808 C809 1.367 . S
C809 C808 1.367 . S
C809 C811 1.433 . S
C810 C806 1.350 . S
C810 C807 1.463 . S
C810 N814 1.427 . S
C811 H801 0.929 . S
C811 C809 1.433 . S
C811 N814 1.384 1_556 S
C812 H803 0.929 . S
C812 C804 1.378 . S
C812 C807 1.350 . S
C813 H800 0.929 . S
C813 C805 1.433 . S
C813 N815 1.384 . S
N814 C810 1.427 . S
N814 C811 1.384 1_554 S
N815 C807 1.427 . S
N815 C813 1.384 . S
H816 C822 0.930 . S
H817 C826 0.930 . S
H818 C831 0.929 . S
H819 C829 0.929 . S
H820 C824 0.929 . S
H821 C830 0.929 . S
C822 H816 0.930 . S
C822 C823 1.367 . S
C822 C830 1.378 . S
C823 C822 1.367 . S
C823 C831 1.433 . S
C824 H820 0.929 . S
C824 C826 1.378 . S
C824 C828 1.350 . S
C825 C828 1.463 . S
C825 C830 1.350 . S
C825 N833 1.427 . S
C826 H817 0.930 . S
C826 C824 1.378 . S
C826 C827 1.367 . S
C827 C826 1.367 . S
C827 C829 1.433 . S
C828 C824 1.350 . S
C828 C825 1.463 . S
C828 N832 1.427 . S
C829 H819 0.929 . S
C829 C827 1.433 . S
C829 N832 1.384 . S
C830 H821 0.929 . S
C830 C822 1.378 . S
C830 C825 1.350 . S
C831 H818 0.929 . S
C831 C823 1.433 . S
C831 N833 1.384 . S
N832 C828 1.427 . S
N832 C829 1.384 . S
N833 C825 1.427 . S
N833 C831 1.384 . S
H834 C840 0.930 . S
H835 C844 0.930 . S
H836 C849 0.929 . S
H837 C847 0.929 . S
H838 C842 0.929 . S
H839 C848 0.929 . S
C840 H834 0.930 . S
C840 C841 1.367 . S
C840 C848 1.378 1_655 S
C841 C840 1.367 . S
C841 C849 1.433 . S
C842 H838 0.929 . S
C842 C844 1.378 . S
C842 C846 1.350 . S
C843 C846 1.463 . S
C843 C848 1.350 . S
C843 N851 1.427 . S
C844 H835 0.930 . S
C844 C842 1.378 . S
C844 C845 1.367 . S
C845 C844 1.367 . S
C845 C847 1.433 . S
C846 C842 1.350 . S
C846 C843 1.463 . S
C846 N850 1.427 . S
C847 H837 0.929 . S
C847 C845 1.433 . S
C847 N850 1.384 . S
C848 H839 0.929 . S
C848 C840 1.378 1_455 S
C848 C843 1.350 . S
C849 H836 0.929 . S
C849 C841 1.433 . S
C849 N851 1.384 1_655 S
N850 C846 1.427 . S
N850 C847 1.384 . S
N851 C843 1.427 . S
N851 C849 1.384 1_455 S
H852 C858 0.930 . S
H853 C862 0.930 . S
H854 C867 0.929 . S
H855 C865 0.929 . S
H856 C860 0.929 . S
H857 C866 0.929 . S
C858 H852 0.930 . S
C858 C859 1.367 . S
C858 C866 1.378 1_455 S
C859 C858 1.367 . S
C859 C867 1.433 . S
C860 H856 0.929 . S
C860 C862 1.378 . S
C860 C864 1.350 . S
C861 C864 1.463 . S
C861 C866 1.350 . S
C861 N869 1.427 . S
C862 H853 0.930 . S
C862 C860 1.378 . S
C862 C863 1.367 . S
C863 C862 1.367 . S
C863 C865 1.433 . S
C864 C860 1.350 . S
C864 C861 1.463 . S
C864 N868 1.427 . S
C865 H855 0.929 . S
C865 C863 1.433 . S
C865 N868 1.384 . S
C866 H857 0.929 . S
C866 C858 1.378 1_655 S
C866 C861 1.350 . S
C867 H854 0.929 . S
C867 C859 1.433 . S
C867 N869 1.384 1_455 S
N868 C864 1.427 . S
N868 C865 1.384 . S
N869 C861 1.427 . S
N869 C867 1.384 1_655 S
H870 C876 0.930 . S
H871 C880 0.930 . S
H872 C885 0.929 . S
H873 C883 0.929 . S
H874 C878 0.929 . S
H875 C884 0.929 . S
C876 H870 0.930 . S
C876 C877 1.367 . S
C876 C884 1.378 . S
C877 C876 1.367 . S
C877 C885 1.433 . S
C878 H874 0.929 . S
C878 C880 1.378 . S
C878 C882 1.350 . S
C879 C882 1.463 . S
C879 C884 1.350 . S
C879 N887 1.427 . S
C880 H871 0.930 . S
C880 C878 1.378 . S
C880 C881 1.367 . S
C881 C880 1.367 . S
C881 C883 1.433 . S
C882 C878 1.350 . S
C882 C879 1.463 . S
C882 N886 1.427 . S
C883 H873 0.929 . S
C883 C881 1.433 . S
C883 N886 1.384 . S
C884 H875 0.929 . S
C884 C876 1.378 . S
C884 C879 1.350 . S
C885 H872 0.929 . S
C885 C877 1.433 . S
C885 N887 1.384 . S
N886 C882 1.427 . S
N886 C883 1.384 . S
N887 C879 1.427 . S
N887 C885 1.384 . S
H888 C894 0.930 . S
H889 C898 0.930 . S
H890 C903 0.929 . S
H891 C901 0.929 . S
H892 C896 0.929 . S
H893 C902 0.929 . S
C894 H888 0.930 . S
C894 C895 1.367 . S
C894 C902 1.378 . S
C895 C894 1.367 . S
C895 C903 1.433 . S
C896 H892 0.929 . S
C896 C898 1.378 . S
C896 C900 1.350 . S
C897 C900 1.463 . S
C897 C902 1.350 . S
C897 N905 1.427 . S
C898 H889 0.930 . S
C898 C896 1.378 . S
C898 C899 1.367 . S
C899 C898 1.367 . S
C899 C901 1.433 . S
C900 C896 1.350 . S
C900 C897 1.463 . S
C900 N904 1.427 . S
C901 H891 0.929 . S
C901 C899 1.433 . S
C901 N904 1.384 . S
C902 H893 0.929 . S
C902 C894 1.378 . S
C902 C897 1.350 . S
C903 H890 0.929 . S
C903 C895 1.433 . S
C903 N905 1.384 . S
N904 C900 1.427 . S
N904 C901 1.384 . S
N905 C897 1.427 . S
N905 C903 1.384 . S
H906 C912 0.930 . S
H907 C916 0.930 . S
H908 C921 0.929 . S
H909 C919 0.929 . S
H910 C914 0.929 . S
H911 C920 0.929 . S
C912 H906 0.930 . S
C912 C913 1.367 . S
C912 C920 1.378 1_565 S
C913 C912 1.367 . S
C913 C921 1.433 . S
C914 H910 0.929 . S
C914 C916 1.378 . S
C914 C918 1.350 . S
C915 C918 1.463 . S
C915 C920 1.350 . S
C915 N923 1.427 . S
C916 H907 0.930 . S
C916 C914 1.378 . S
C916 C917 1.367 . S
C917 C916 1.367 . S
C917 C919 1.433 . S
C918 C914 1.350 . S
C918 C915 1.463 . S
C918 N922 1.427 . S
C919 H909 0.929 . S
C919 C917 1.433 . S
C919 N922 1.384 . S
C920 H911 0.929 . S
C920 C912 1.378 1_545 S
C920 C915 1.350 . S
C921 H908 0.929 . S
C921 C913 1.433 . S
C921 N923 1.384 1_565 S
N922 C918 1.427 . S
N922 C919 1.384 . S
N923 C915 1.427 . S
N923 C921 1.384 1_545 S
H924 C930 0.930 . S
H925 C934 0.930 . S
H926 C939 0.929 . S
H927 C937 0.929 . S
H928 C932 0.929 . S
H929 C938 0.929 . S
C930 H924 0.930 . S
C930 C931 1.367 . S
C930 C938 1.378 1_545 S
C931 C930 1.367 . S
C931 C939 1.433 . S
C932 H928 0.929 . S
C932 C934 1.378 . S
C932 C936 1.350 . S
C933 C936 1.463 . S
C933 C938 1.350 . S
C933 N941 1.427 . S
C934 H925 0.930 . S
C934 C932 1.378 . S
C934 C935 1.367 . S
C935 C934 1.367 . S
C935 C937 1.433 . S
C936 C932 1.350 . S
C936 C933 1.463 . S
C936 N940 1.427 . S
C937 H927 0.929 . S
C937 C935 1.433 . S
C937 N940 1.384 . S
C938 H929 0.929 . S
C938 C930 1.378 1_565 S
C938 C933 1.350 . S
C939 H926 0.929 . S
C939 C931 1.433 . S
C939 N941 1.384 1_545 S
N940 C936 1.427 . S
N940 C937 1.384 . S
N941 C933 1.427 . S
N941 C939 1.384 1_565 S
H942 C948 0.930 . S
H943 C952 0.930 . S
H944 C957 0.929 . S
H945 C955 0.929 . S
H946 C950 0.929 . S
H947 C956 0.929 . S
C948 H942 0.930 . S
C948 C949 1.367 . S
C948 C956 1.378 . S
C949 C948 1.367 . S
C949 C957 1.433 . S
C950 H946 0.929 . S
C950 C952 1.378 . S
C950 C954 1.350 . S
C951 C954 1.463 . S
C951 C956 1.350 . S
C951 N959 1.427 . S
C952 H943 0.930 . S
C952 C950 1.378 . S
C952 C953 1.367 . S
C953 C952 1.367 . S
C953 C955 1.433 . S
C954 C950 1.350 . S
C954 C951 1.463 . S
C954 N958 1.427 . S
C955 H945 0.929 . S
C955 C953 1.433 . S
C955 N958 1.384 . S
C956 H947 0.929 . S
C956 C948 1.378 . S
C956 C951 1.350 . S
C957 H944 0.929 . S
C957 C949 1.433 . S
C957 N959 1.384 . S
N958 C954 1.427 . S
N958 C955 1.384 . S
N959 C951 1.427 . S
N959 C957 1.384 . S
H960 C966 0.930 . S
H961 C970 0.930 . S
H962 C975 0.929 . S
H963 C973 0.929 . S
H964 C968 0.929 . S
H965 C974 0.929 . S
C966 H960 0.930 . S
C966 C967 1.367 . S
C966 C974 1.378 . S
C967 C966 1.367 . S
C967 C975 1.433 . S
C968 H964 0.929 . S
C968 C970 1.378 . S
C968 C972 1.350 . S
C969 C972 1.463 . S
C969 C974 1.350 . S
C969 N977 1.427 . S
C970 H961 0.930 . S
C970 C968 1.378 . S
C970 C971 1.367 . S
C971 C970 1.367 . S
C971 C973 1.433 . S
C972 C968 1.350 . S
C972 C969 1.463 . S
C972 N976 1.427 . S
C973 H963 0.929 . S
C973 C971 1.433 . S
C973 N976 1.384 . S
C974 H965 0.929 . S
C974 C966 1.378 . S
C974 C969 1.350 . S
C975 H962 0.929 . S
C975 C967 1.433 . S
C975 N977 1.384 . S
N976 C972 1.427 . S
N976 C973 1.384 . S
N977 C969 1.427 . S
N977 C975 1.384 . S
H978 C984 0.930 . S
H979 C988 0.930 . S
H980 C993 0.929 . S
H981 C991 0.929 . S
H982 C986 0.929 . S
H983 C992 0.929 . S
C984 H978 0.930 . S
C984 C985 1.367 . S
C984 C992 1.378 1_556 S
C985 C984 1.367 . S
C985 C993 1.433 . S
C986 H982 0.929 . S
C986 C988 1.378 . S
C986 C990 1.350 . S
C987 C990 1.463 . S
C987 C992 1.350 . S
C987 N995 1.427 . S
C988 H979 0.930 . S
C988 C986 1.378 . S
C988 C989 1.367 . S
C989 C988 1.367 . S
C989 C991 1.433 . S
C990 C986 1.350 . S
C990 C987 1.463 . S
C990 N994 1.427 . S
C991 H981 0.929 . S
C991 C989 1.433 . S
C991 N994 1.384 . S
C992 H983 0.929 . S
C992 C984 1.378 1_554 S
C992 C987 1.350 . S
C993 H980 0.929 . S
C993 C985 1.433 . S
C993 N995 1.384 1_556 S
N994 C990 1.427 . S
N994 C991 1.384 . S
N995 C987 1.427 . S
N995 C993 1.384 1_554 S
H996 C1002 0.930 . S
H997 C1006 0.930 . S
H998 C1011 0.929 . S
H999 C1009 0.929 . S
H1000 C1004 0.929 . S
H1001 C1010 0.929 . S
C1002 H996 0.930 . S
C1002 C1003 1.367 . S
C1002 C1010 1.378 . S
C1003 C1002 1.367 . S
C1003 C1011 1.433 . S
C1004 H1000 0.929 . S
C1004 C1006 1.378 . S
C1004 C1008 1.350 . S
C1005 C1008 1.463 . S
C1005 C1010 1.350 . S
C1005 N1013 1.427 . S
C1006 H997 0.930 . S
C1006 C1004 1.378 . S
C1006 C1007 1.367 . S
C1007 C1006 1.367 . S
C1007 C1009 1.433 . S
C1008 C1004 1.350 . S
C1008 C1005 1.463 . S
C1008 N1012 1.427 . S
C1009 H999 0.929 . S
C1009 C1007 1.433 . S
C1009 N1012 1.384 . S
C1010 H1001 0.929 . S
C1010 C1002 1.378 . S
C1010 C1005 1.350 . S
C1011 H998 0.929 . S
C1011 C1003 1.433 . S
C1011 N1013 1.384 . S
N1012 C1008 1.427 . S
N1012 C1009 1.384 . S
N1013 C1005 1.427 . S
N1013 C1011 1.384 . S
H1014 C1020 0.930 . S
H1015 C1024 0.930 . S
H1016 C1029 0.929 . S
H1017 C1027 0.929 . S
H1018 C1022 0.929 . S
H1019 C1028 0.929 . S
C1020 H1014 0.930 . S
C1020 C1021 1.367 . S
C1020 C1028 1.378 1_554 S
C1021 C1020 1.367 . S
C1021 C1029 1.433 . S
C1022 H1018 0.929 . S
C1022 C1024 1.378 . S
C1022 C1026 1.350 . S
C1023 C1026 1.463 . S
C1023 C1028 1.350 . S
C1023 N1031 1.427 . S
C1024 H1015 0.930 . S
C1024 C1022 1.378 . S
C1024 C1025 1.367 . S
C1025 C1024 1.367 . S
C1025 C1027 1.433 . S
C1026 C1022 1.350 . S
C1026 C1023 1.463 . S
C1026 N1030 1.427 . S
C1027 H1017 0.929 . S
C1027 C1025 1.433 . S
C1027 N1030 1.384 . S
C1028 H1019 0.929 . S
C1028 C1020 1.378 1_556 S
C1028 C1023 1.350 . S
C1029 H1016 0.929 . S
C1029 C1021 1.433 . S
C1029 N1031 1.384 1_554 S
N1030 C1026 1.427 . S
N1030 C1027 1.384 . S
N1031 C1023 1.427 . S
N1031 C1029 1.384 1_556 S
H1032 C1038 0.930 . S
H1033 C1042 0.930 . S
H1034 C1047 0.929 . S
H1035 C1045 0.929 . S
H1036 C1040 0.929 . S
H1037 C1046 0.929 . S
C1038 H1032 0.930 . S
C1038 C1039 1.367 . S
C1038 C1046 1.378 . S
C1039 C1038 1.367 . S
C1039 C1047 1.433 . S
C1040 H1036 0.929 . S
C1040 C1042 1.378 . S
C1040 C1044 1.350 . S
C1041 C1044 1.463 . S
C1041 C1046 1.350 . S
C1041 N1049 1.427 . S
C1042 H1033 0.930 . S
C1042 C1040 1.378 . S
C1042 C1043 1.367 . S
C1043 C1042 1.367 . S
C1043 C1045 1.433 . S
C1044 C1040 1.350 . S
C1044 C1041 1.463 . S
C1044 N1048 1.427 . S
C1045 H1035 0.929 . S
C1045 C1043 1.433 . S
C1045 N1048 1.384 . S
C1046 H1037 0.929 . S
C1046 C1038 1.378 . S
C1046 C1041 1.350 . S
C1047 H1034 0.929 . S
C1047 C1039 1.433 . S
C1047 N1049 1.384 . S
N1048 C1044 1.427 . S
N1048 C1045 1.384 . S
N1049 C1041 1.427 . S
N1049 C1047 1.384 . S
H1050 C1056 0.930 . S
H1051 C1060 0.930 . S
H1052 C1065 0.929 . S
H1053 C1063 0.929 . S
H1054 C1058 0.929 . S
H1055 C1064 0.929 . S
C1056 H1050 0.930 . S
C1056 C1057 1.367 . S
C1056 C1064 1.378 . S
C1057 C1056 1.367 . S
C1057 C1065 1.433 . S
C1058 H1054 0.929 . S
C1058 C1060 1.378 1_655 S
C1058 C1062 1.350 . S
C1059 C1062 1.463 . S
C1059 C1064 1.350 . S
C1059 N1067 1.427 . S
C1060 H1051 0.930 . S
C1060 C1058 1.378 1_455 S
C1060 C1061 1.367 . S
C1061 C1060 1.367 . S
C1061 C1063 1.433 . S
C1062 C1058 1.350 . S
C1062 C1059 1.463 . S
C1062 N1066 1.427 . S
C1063 H1053 0.929 . S
C1063 C1061 1.433 . S
C1063 N1066 1.384 1_455 S
C1064 H1055 0.929 . S
C1064 C1056 1.378 . S
C1064 C1059 1.350 . S
C1065 H1052 0.929 . S
C1065 C1057 1.433 . S
C1065 N1067 1.384 . S
N1066 C1062 1.427 . S
N1066 C1063 1.384 1_655 S
N1067 C1059 1.427 . S
N1067 C1065 1.384 . S
H1068 C1074 0.930 . S
H1069 C1078 0.930 . S
H1070 C1083 0.929 . S
H1071 C1081 0.929 . S
H1072 C1076 0.929 . S
H1073 C1082 0.929 . S
C1074 H1068 0.930 . S
C1074 C1075 1.367 . S
C1074 C1082 1.378 . S
C1075 C1074 1.367 . S
C1075 C1083 1.433 . S
C1076 H1072 0.929 . S
C1076 C1078 1.378 1_455 S
C1076 C1080 1.350 . S
C1077 C1080 1.463 . S
C1077 C1082 1.350 . S
C1077 N1085 1.427 . S
C1078 H1069 0.930 . S
C1078 C1076 1.378 1_655 S
C1078 C1079 1.367 . S
C1079 C1078 1.367 . S
C1079 C1081 1.433 . S
C1080 C1076 1.350 . S
C1080 C1077 1.463 . S
C1080 N1084 1.427 . S
C1081 H1071 0.929 . S
C1081 C1079 1.433 . S
C1081 N1084 1.384 1_655 S
C1082 H1073 0.929 . S
C1082 C1074 1.378 . S
C1082 C1077 1.350 . S
C1083 H1070 0.929 . S
C1083 C1075 1.433 . S
C1083 N1085 1.384 . S
N1084 C1080 1.427 . S
N1084 C1081 1.384 1_455 S
N1085 C1077 1.427 . S
N1085 C1083 1.384 . S
H1086 C1092 0.930 . S
H1087 C1096 0.930 . S
H1088 C1101 0.929 . S
H1089 C1099 0.929 . S
H1090 C1094 0.929 . S
H1091 C1100 0.929 . S
C1092 H1086 0.930 . S
C1092 C1093 1.367 . S
C1092 C1100 1.378 . S
C1093 C1092 1.367 . S
C1093 C1101 1.433 . S
C1094 H1090 0.929 . S
C1094 C1096 1.378 . S
C1094 C1098 1.350 . S
C1095 C1098 1.463 . S
C1095 C1100 1.350 . S
C1095 N1103 1.427 . S
C1096 H1087 0.930 . S
C1096 C1094 1.378 . S
C1096 C1097 1.367 . S
C1097 C1096 1.367 . S
C1097 C1099 1.433 . S
C1098 C1094 1.350 . S
C1098 C1095 1.463 . S
C1098 N1102 1.427 . S
C1099 H1089 0.929 . S
C1099 C1097 1.433 . S
C1099 N1102 1.384 . S
C1100 H1091 0.929 . S
C1100 C1092 1.378 . S
C1100 C1095 1.350 . S
C1101 H1088 0.929 . S
C1101 C1093 1.433 . S
C1101 N1103 1.384 . S
N1102 C1098 1.427 . S
N1102 C1099 1.384 . S
N1103 C1095 1.427 . S
N1103 C1101 1.384 . S
H1104 C1110 0.930 . S
H1105 C1114 0.930 . S
H1106 C1119 0.929 . S
H1107 C1117 0.929 . S
H1108 C1112 0.929 . S
H1109 C1118 0.929 . S
C1110 H1104 0.930 . S
C1110 C1111 1.367 . S
C1110 C1118 1.378 . S
C1111 C1110 1.367 . S
C1111 C1119 1.433 . S
C1112 H1108 0.929 . S
C1112 C1114 1.378 . S
C1112 C1116 1.350 . S
C1113 C1116 1.463 . S
C1113 C1118 1.350 . S
C1113 N1121 1.427 . S
C1114 H1105 0.930 . S
C1114 C1112 1.378 . S
C1114 C1115 1.367 . S
C1115 C1114 1.367 . S
C1115 C1117 1.433 . S
C1116 C1112 1.350 . S
C1116 C1113 1.463 . S
C1116 N1120 1.427 . S
C1117 H1107 0.929 . S
C1117 C1115 1.433 . S
C1117 N1120 1.384 . S
C1118 H1109 0.929 . S
C1118 C1110 1.378 . S
C1118 C1113 1.350 . S
C1119 H1106 0.929 . S
C1119 C1111 1.433 . S
C1119 N1121 1.384 . S
N1120 C1116 1.427 . S
N1120 C1117 1.384 . S
N1121 C1113 1.427 . S
N1121 C1119 1.384 . S
H1122 C1128 0.930 . S
H1123 C1132 0.930 . S
H1124 C1137 0.929 . S
H1125 C1135 0.929 . S
H1126 C1130 0.929 . S
H1127 C1136 0.929 . S
C1128 H1122 0.930 . S
C1128 C1129 1.367 . S
C1128 C1136 1.378 . S
C1129 C1128 1.367 . S
C1129 C1137 1.433 . S
C1130 H1126 0.929 . S
C1130 C1132 1.378 1_565 S
C1130 C1134 1.350 . S
C1131 C1134 1.463 . S
C1131 C1136 1.350 . S
C1131 N1139 1.427 . S
C1132 H1123 0.930 . S
C1132 C1130 1.378 1_545 S
C1132 C1133 1.367 . S
C1133 C1132 1.367 . S
C1133 C1135 1.433 . S
C1134 C1130 1.350 . S
C1134 C1131 1.463 . S
C1134 N1138 1.427 . S
C1135 H1125 0.929 . S
C1135 C1133 1.433 . S
C1135 N1138 1.384 1_545 S
C1136 H1127 0.929 . S
C1136 C1128 1.378 . S
C1136 C1131 1.350 . S
C1137 H1124 0.929 . S
C1137 C1129 1.433 . S
C1137 N1139 1.384 . S
N1138 C1134 1.427 . S
N1138 C1135 1.384 1_565 S
N1139 C1131 1.427 . S
N1139 C1137 1.384 . S
H1140 C1146 0.930 . S
H1141 C1150 0.930 . S
H1142 C1155 0.929 . S
H1143 C1153 0.929 . S
H1144 C1148 0.929 . S
H1145 C1154 0.929 . S
C1146 H1140 0.930 . S
C1146 C1147 1.367 . S
C1146 C1154 1.378 1_565 S
C1147 C1146 1.367 . S
C1147 C1155 1.433 . S
C1148 H1144 0.929 . S
C1148 C1150 1.378 . S
C1148 C1152 1.350 . S
C1149 C1152 1.463 . S
C1149 C1154 1.350 . S
C1149 N1157 1.427 . S
C1150 H1141 0.930 . S
C1150 C1148 1.378 . S
C1150 C1151 1.367 . S
C1151 C1150 1.367 . S
C1151 C1153 1.433 . S
C1152 C1148 1.350 . S
C1152 C1149 1.463 . S
C1152 N1156 1.427 . S
C1153 H1143 0.929 . S
C1153 C1151 1.433 . S
C1153 N1156 1.384 . S
C1154 H1145 0.929 . S
C1154 C1146 1.378 1_545 S
C1154 C1149 1.350 . S
C1155 H1142 0.929 . S
C1155 C1147 1.433 . S
C1155 N1157 1.384 1_565 S
N1156 C1152 1.427 . S
N1156 C1153 1.384 . S
N1157 C1149 1.427 . S
N1157 C1155 1.384 1_545 S
H1158 C1164 0.930 . S
H1159 C1168 0.930 . S
H1160 C1173 0.929 . S
H1161 C1171 0.929 . S
H1162 C1166 0.929 . S
H1163 C1172 0.929 . S
C1164 H1158 0.930 . S
C1164 C1165 1.367 . S
C1164 C1172 1.378 . S
C1165 C1164 1.367 . S
C1165 C1173 1.433 . S
C1166 H1162 0.929 . S
C1166 C1168 1.378 . S
C1166 C1170 1.350 . S
C1167 C1170 1.463 . S
C1167 C1172 1.350 . S
C1167 N1175 1.427 . S
C1168 H1159 0.930 . S
C1168 C1166 1.378 . S
C1168 C1169 1.367 . S
C1169 C1168 1.367 . S
C1169 C1171 1.433 . S
C1170 C1166 1.350 . S
C1170 C1167 1.463 . S
C1170 N1174 1.427 . S
C1171 H1161 0.929 . S
C1171 C1169 1.433 . S
C1171 N1174 1.384 . S
C1172 H1163 0.929 . S
C1172 C1164 1.378 . S
C1172 C1167 1.350 . S
C1173 H1160 0.929 . S
C1173 C1165 1.433 . S
C1173 N1175 1.384 . S
N1174 C1170 1.427 . S
N1174 C1171 1.384 . S
N1175 C1167 1.427 . S
N1175 C1173 1.384 . S
C319 C107 1.165 . S
C323 C5 1.173 . S
C337 C16 1.176 . S
C341 C146 1.156 . S
C355 C31 1.174 . S
C359 C120 1.162 . S
C373 C44 1.178 . S
C377 C135 1.155 . S
C391 C55 1.178 . S
C395 C3 1.152 . S
C409 C18 1.165 . S
C413 C68 1.173 . S
C427 C83 1.174 . S
C431 C29 1.163 . S
C445 C42 1.152 . S
C449 C96 1.178 . S
C463 C57 1.158 . S
C467 C109 1.175 . S
C481 C81 1.153 . S
C485 C122 1.178 . S
C499 C133 1.178 . S
C503 C94 1.152 . S
C517 C70 1.163 . S
C521 C148 1.174 . S
C535 C263 1.158 . S
C539 C161 1.176 . S
C553 C172 1.178 . S
C557 C304 1.152 . S
C571 C187 1.173 . S
C575 C276 1.166 . S
C589 C289 1.162 . S
C593 C200 1.174 . S
C607 C211 1.178 . S
C611 C159 1.153 . S
C625 C174 1.155 . S
C629 C224 1.177 . S
C643 C185 1.166 . S
C647 C239 1.173 . S
C661 C252 1.175 . S
C665 C198 1.158 . S
C679 C265 1.175 . S
C683 C213 1.160 . S
C697 C237 1.163 . S
C701 C278 1.174 . S
C715 C250 1.154 . S
C719 C291 1.178 . S
C733 C302 1.174 . S
C737 C226 1.163 . S
C751 C296 1.483 . S
C755 C4 1.484 . S
C769 C283 1.483 . S
C773 C23 1.484 . S
C787 C303 1.484 . S
C791 C30 1.483 . S
C805 C43 1.482 . S
C809 C270 1.483 . S
C823 C62 1.484 . S
C827 C173 1.485 . S
C841 C166 1.484 . S
C845 C75 1.482 . S
C859 C205 1.483 . S
C863 C82 1.482 . S
C877 C192 1.485 . S
C881 C95 1.485 . S
C895 C108 1.483 . S
C899 C244 1.482 . S
C913 C212 1.485 . S
C917 C121 1.483 . S
C931 C225 1.482 . S
C935 C140 1.483 . S
C949 C257 1.483 . S
C953 C147 1.484 . S
C967 C134 1.483 . S
C971 C160 1.482 . S
C985 C127 1.484 . S
C989 C179 1.485 . S
C1003 C186 1.484 . S
C1007 C153 1.482 . S
C1021 C114 1.483 . S
C1025 C199 1.483 . S
C1039 C218 1.485 . S
C1043 C17 1.483 . S
C1057 C231 1.485 . S
C1061 C10 1.484 . S
C1075 C238 1.484 . S
C1079 C49 1.483 . S
C1093 C251 1.485 . S
C1097 C36 1.484 . S
C1111 C264 1.482 . S
C1115 C88 1.483 . S
C1129 C277 1.485 . S
C1133 C56 1.484 . S
C1147 C69 1.485 . S
C1151 C290 1.484 . S
C1165 C309 1.482 . S
C1169 C101 1.483 . S
