# Generated by pormake.
# Topology noo, (5)-cn, num edge types: 1
# Building blocks:
#     Node 0, Type 0, BuildingBlock: XOMCOT_clean_sbu_0, # of connection points: 5
#     Node 1, Type 0, BuildingBlock: XOMCOT_clean_sbu_0, # of connection points: 5
#     Node 2, Type 0, BuildingBlock: XOMCOT_clean_sbu_0, # of connection points: 5
#     Node 3, Type 0, BuildingBlock: XOMCOT_clean_sbu_0, # of connection points: 5
#     Node 4, Type 0, BuildingBlock: XOMCOT_clean_sbu_0, # of connection points: 5
#     Node 5, Type 0, BuildingBlock: XOMCOT_clean_sbu_0, # of connection points: 5
#     Node 6, Type 0, BuildingBlock: XOMCOT_clean_sbu_0, # of connection points: 5
#     Node 7, Type 0, BuildingBlock: XOMCOT_clean_sbu_0, # of connection points: 5
#     Edge 8, Type (0, 0), BuildingBlock: CIFDUS_clean_linker_0, # of connection points: 2
#     Edge 9, Type (0, 0), BuildingBlock: CIFDUS_clean_linker_0, # of connection points: 2
#     Edge 10, Type (0, 0), BuildingBlock: CIFDUS_clean_linker_0, # of connection points: 2
#     Edge 11, Type (0, 0), BuildingBlock: CIFDUS_clean_linker_0, # of connection points: 2
#     Edge 12, Type (0, 0), BuildingBlock: CIFDUS_clean_linker_0, # of connection points: 2
#     Edge 13, Type (0, 0), BuildingBlock: CIFDUS_clean_linker_0, # of connection points: 2
#     Edge 14, Type (0, 0), BuildingBlock: CIFDUS_clean_linker_0, # of connection points: 2
#     Edge 15, Type (0, 0), BuildingBlock: CIFDUS_clean_linker_0, # of connection points: 2
#     Edge 16, Type (0, 0), BuildingBlock: CIFDUS_clean_linker_0, # of connection points: 2
#     Edge 17, Type (0, 0), BuildingBlock: CIFDUS_clean_linker_0, # of connection points: 2
#     Edge 18, Type (0, 0), BuildingBlock: CIFDUS_clean_linker_0, # of connection points: 2
#     Edge 19, Type (0, 0), BuildingBlock: CIFDUS_clean_linker_0, # of connection points: 2
#     Edge 20, Type (0, 0), BuildingBlock: CIFDUS_clean_linker_0, # of connection points: 2
#     Edge 21, Type (0, 0), BuildingBlock: CIFDUS_clean_linker_0, # of connection points: 2
#     Edge 22, Type (0, 0), BuildingBlock: CIFDUS_clean_linker_0, # of connection points: 2
#     Edge 23, Type (0, 0), BuildingBlock: CIFDUS_clean_linker_0, # of connection points: 2
#     Edge 24, Type (0, 0), BuildingBlock: CIFDUS_clean_linker_0, # of connection points: 2
#     Edge 25, Type (0, 0), BuildingBlock: CIFDUS_clean_linker_0, # of connection points: 2
#     Edge 26, Type (0, 0), BuildingBlock: CIFDUS_clean_linker_0, # of connection points: 2
#     Edge 27, Type (0, 0), BuildingBlock: CIFDUS_clean_linker_0, # of connection points: 2
# Relax obj value: 0.061
# Max RMSD: 0.107
# Mean RMSD: 0.107
data_MOF--net-noo--node1-XOMCOT_clean_sbu_0--edge1-CIFDUS_clean_linker_0
_symmetry_space_group_name_H-M    P1
_symmetry_Int_Tables_number       1
_symmetry_cell_setting            triclinic
loop_
_symmetry_equiv_pos_as_xyz
'x, y, z'
_cell_length_a     34.822942
_cell_length_b     34.813475
_cell_length_c     26.513701
_cell_angle_alpha  90.114196
_cell_angle_beta   90.389315
_cell_angle_gamma 90.601089
loop_
_atom_site_label
_atom_site_type_symbol
_atom_site_fract_x
_atom_site_fract_y
_atom_site_fract_z
_atom_type_partial_charge
Co0 Co 0.44106 0.23395 0.05473 0.0
C1 C 0.47656 0.16171 0.09139 0.0
C2 C 0.51908 0.20196 0.06596 0.0
C3 C 0.53676 0.16757 0.07597 0.0
N4 N 0.48117 0.19841 0.07543 0.0
N5 N 0.50992 0.14224 0.09166 0.0
H6 H 0.449 0.14835 0.09873 0.0
H7 H 0.53292 0.22682 0.04967 0.0
C8 C 0.49101 0.30136 0.07572 0.0
O9 O 0.47096 0.30523 0.11711 0.0
N10 N 0.40054 0.26823 0.03265 0.0
C11 C 0.37287 0.25726 0.9997 0.0
C12 C 0.34622 0.28569 0.99575 0.0
C13 C 0.38994 0.30355 0.04889 0.0
N14 N 0.35667 0.31474 0.02671 0.0
C15 C 0.43588 0.17831 0.97681 0.0
C16 C 0.4507 0.22699 0.89682 0.0
C17 C 0.43772 0.1894 0.88721 0.0
C18 C 0.43118 0.16473 0.92776 0.0
C19 C 0.45454 0.23975 0.94683 0.0
N20 N 0.4462 0.21563 0.98596 0.0
H21 H 0.42902 0.15927 1.00756 0.0
H22 H 0.4619 0.2695 0.95393 0.0
H23 H 0.37124 0.22963 0.9811 0.0
H24 H 0.4048 0.31977 0.07797 0.0
O25 O 0.40162 0.19833 0.07684 0.0
O26 O 0.42829 0.2431 0.12505 0.0
O27 O 0.48175 0.27508 0.04399 0.0
C28 C 0.40397 0.21462 0.1208 0.0
H29 H 0.56676 0.16125 0.07002 0.0
H30 H 0.32037 0.28466 0.97284 0.0
H31 H 0.45577 0.24682 0.86609 0.0
H32 H 0.42126 0.13548 0.92155 0.0
Co33 Co 0.80168 0.44318 0.08054 0.0
C34 C 0.8787 0.47991 0.07611 0.0
C35 C 0.83636 0.51883 0.10406 0.0
C36 C 0.87132 0.53759 0.10318 0.0
N37 N 0.8409 0.4828 0.08662 0.0
N38 N 0.89793 0.51313 0.0857 0.0
H39 H 0.89176 0.45408 0.06168 0.0
H40 H 0.80977 0.53061 0.11753 0.0
C41 C 0.74096 0.50157 0.08708 0.0
O42 O 0.73689 0.49071 0.13412 0.0
N43 N 0.76241 0.40282 0.07419 0.0
C44 C 0.76892 0.36475 0.0782 0.0
C45 C 0.73547 0.3448 0.06859 0.0
C46 C 0.72441 0.40533 0.06285 0.0
N47 N 0.70753 0.37019 0.05902 0.0
C48 C 0.83376 0.39975 0.9995 0.0
C49 C 0.82465 0.45434 0.92497 0.0
C50 C 0.84063 0.41879 0.91209 0.0
C51 C 0.84539 0.39148 0.95037 0.0
C52 C 0.81345 0.46151 0.97474 0.0
N53 N 0.81724 0.434 0.01109 0.0
H54 H 0.83823 0.37845 0.02833 0.0
H55 H 0.80232 0.48946 0.98389 0.0
H56 H 0.79619 0.35189 0.08721 0.0
H57 H 0.70945 0.43192 0.05638 0.0
O58 O 0.83583 0.40795 0.11512 0.0
O59 O 0.79385 0.44516 0.15283 0.0
O60 O 0.76393 0.4835 0.05827 0.0
C61 C 0.82061 0.41965 0.15697 0.0
H62 H 0.87693 0.56671 0.11585 0.0
H63 H 0.73179 0.31388 0.06909 0.0
H64 H 0.8213 0.4767 0.89699 0.0
H65 H 0.8575 0.36361 0.9424 0.0
Co66 Co 0.59139 0.8107 0.05722 0.0
C67 C 0.5735 0.89345 0.06803 0.0
C68 C 0.52871 0.85703 0.097 0.0
C69 C 0.51812 0.8947 0.10322 0.0
N70 N 0.56328 0.85631 0.07479 0.0
N71 N 0.54629 0.91774 0.08509 0.0
H72 H 0.6004 0.9023 0.05125 0.0
H73 H 0.51222 0.83188 0.10772 0.0
C74 C 0.52849 0.75474 0.05671 0.0
O75 O 0.54821 0.73841 0.09305 0.0
N76 N 0.61854 0.76419 0.03839 0.0
C77 C 0.61625 0.74814 0.99212 0.0
C78 C 0.63363 0.71303 0.99292 0.0
C79 C 0.63697 0.7379 0.06714 0.0
N80 N 0.64666 0.70633 0.04004 0.0
C81 C 0.63689 0.83838 0.9754 0.0
C82 C 0.57734 0.85035 0.90785 0.0
C83 C 0.61525 0.85659 0.89178 0.0
C84 C 0.64515 0.85111 0.92663 0.0
C85 C 0.57025 0.83817 0.95733 0.0
N86 N 0.59995 0.83133 0.98991 0.0
H87 H 0.66034 0.83299 1.00124 0.0
H88 H 0.5409 0.83385 0.96914 0.0
H89 H 0.60099 0.76006 0.96027 0.0
H90 H 0.64199 0.74111 0.10721 0.0
O91 O 0.63647 0.83183 0.09123 0.0
O92 O 0.59171 0.79646 0.12799 0.0
O93 O 0.54191 0.78491 0.03555 0.0
C94 C 0.62309 0.81682 0.13252 0.0
H95 H 0.49126 0.90417 0.11901 0.0
H96 H 0.63444 0.69302 0.96168 0.0
H97 H 0.55337 0.85481 0.88236 0.0
H98 H 0.67483 0.85531 0.91578 0.0
Co99 Co 0.22291 0.59356 0.05598 0.0
C100 C 0.14423 0.55707 0.06559 0.0
C101 C 0.18608 0.53294 0.11558 0.0
C102 C 0.1514 0.51478 0.12372 0.0
N103 N 0.1819 0.55911 0.07855 0.0
N104 N 0.12507 0.53002 0.09233 0.0
H105 H 0.13067 0.57471 0.03753 0.0
H106 H 0.21267 0.52759 0.13557 0.0
C107 C 0.24845 0.51434 0.03177 0.0
O108 O 0.21356 0.50817 0.01416 0.0
N109 N 0.26359 0.62816 0.03517 0.0
C110 C 0.25893 0.66042 1.00804 0.0
C111 C 0.29373 0.67915 1.00459 0.0
C112 C 0.30114 0.62774 0.04817 0.0
N113 N 0.32044 0.65872 0.02983 0.0
C114 C 0.17336 0.6132 0.97425 0.0
C115 C 0.21725 0.58365 0.89748 0.0
C116 C 0.1851 0.6059 0.88491 0.0
C117 C 0.16295 0.62033 0.92443 0.0
C118 C 0.22723 0.57794 0.94815 0.0
N119 N 0.20495 0.59202 0.98606 0.0
H120 H 0.15698 0.62698 1.00334 0.0
H121 H 0.25409 0.56408 0.95638 0.0
H122 H 0.23182 0.67036 0.9932 0.0
H123 H 0.31369 0.60555 0.07132 0.0
O124 O 0.19364 0.63696 0.0784 0.0
O125 O 0.23464 0.60495 0.12614 0.0
O126 O 0.25824 0.54792 0.04723 0.0
C127 C 0.20991 0.63264 0.12212 0.0
H128 H 0.14578 0.49278 0.15159 0.0
H129 H 0.2984 0.70665 0.9866 0.0
H130 H 0.23551 0.57182 0.86861 0.0
H131 H 0.13886 0.63902 0.91745 0.0
Co132 Co 0.9483 0.31345 0.47604 0.0
C133 C 0.98239 0.39038 0.4443 0.0
C134 C 1.01477 0.36122 0.50144 0.0
C135 C 0.03247 0.39569 0.49189 0.0
N136 N 0.9837 0.35718 0.47121 0.0
N137 N 1.01232 0.41416 0.45601 0.0
H138 H 0.96004 0.39736 0.41743 0.0
H139 H 0.02315 0.3412 0.53049 0.0
C140 C 1.00379 0.2465 0.50223 0.0
O141 O 0.97725 0.2205 0.51135 0.0
N142 N 0.91233 0.27032 0.48236 0.0
C143 C 0.88114 0.27048 0.51223 0.0
C144 C 0.86236 0.23575 0.50825 0.0
C145 C 0.91079 0.23587 0.45836 0.0
N146 N 0.88115 0.21367 0.4749 0.0
C147 C 0.92527 0.36247 0.55624 0.0
C148 C 0.93956 0.31245 0.63485 0.0
C149 C 0.92383 0.34853 0.64581 0.0
C150 C 0.91704 0.37376 0.60557 0.0
C151 C 0.94754 0.30235 0.58489 0.0
N152 N 0.9401 0.32716 0.54633 0.0
H153 H 0.91958 0.38213 0.52566 0.0
H154 H 0.95847 0.27412 0.57721 0.0
H155 H 0.87237 0.29433 0.53546 0.0
H156 H 0.93163 0.22678 0.43081 0.0
O157 O 0.90751 0.34261 0.44437 0.0
O158 O 0.94936 0.30638 0.40406 0.0
O159 O 0.99498 0.28127 0.49224 0.0
C160 C 0.92005 0.32914 0.40166 0.0
H161 H 0.05749 0.40708 0.51149 0.0
H162 H 0.8365 0.22756 0.52811 0.0
H163 H 0.94476 0.29173 0.66445 0.0
H164 H 0.90561 0.40213 0.61203 0.0
Co165 Co 0.73632 0.93972 0.45262 0.0
C166 C 0.66022 0.97013 0.42175 0.0
C167 C 0.69566 1.01396 0.45529 0.0
C168 C 0.65939 0.02841 0.44789 0.0
N169 N 0.69634 0.97728 0.4389 0.0
N170 N 0.63689 1.00069 0.42723 0.0
H171 H 0.65051 0.94241 0.40818 0.0
H172 H 0.71884 0.02865 0.47483 0.0
C173 C 0.79357 1.00261 0.44044 0.0
O174 O 0.79458 0.99261 0.39274 0.0
N175 N 0.77497 0.90154 0.46749 0.0
C176 C 0.76707 0.86934 0.49373 0.0
C177 C 0.79867 0.84631 0.49386 0.0
C178 C 0.81162 0.89753 0.45143 0.0
N179 N 0.82665 0.86383 0.46739 0.0
C180 C 0.68186 0.92501 0.53154 0.0
C181 C 0.73203 0.93759 0.6113 0.0
C182 C 0.69413 0.92596 0.62201 0.0
C183 C 0.66888 0.92009 0.58102 0.0
C184 C 0.74366 0.94281 0.56132 0.0
N185 N 0.71874 0.93636 0.52216 0.0
H186 H 0.66235 0.91908 0.50062 0.0
H187 H 0.77323 0.95059 0.5541 0.0
H188 H 0.73952 0.86234 0.5101 0.0
H189 H 0.82612 0.91758 0.42671 0.0
O190 O 0.70494 0.89919 0.42141 0.0
O191 O 0.74695 0.93563 0.38134 0.0
O192 O 0.77308 0.98305 0.47128 0.0
C193 C 0.72146 0.90823 0.37907 0.0
H194 H 0.64979 0.05628 0.4604 0.0
H195 H 0.80057 0.818 0.5105 0.0
H196 H 0.75308 0.9416 0.64111 0.0
H197 H 0.63925 0.91164 0.58684 0.0
Co198 Co 0.10359 0.73021 0.45148 0.0
C199 C 0.0636 0.65421 0.43449 0.0
C200 C 0.03813 0.6993 0.3914 0.0
C201 C 1.01837 0.6655 0.38131 0.0
N202 N 0.06599 0.6925 0.42587 0.0
N203 N 0.03467 0.63719 0.40828 0.0
H204 H 0.08242 0.6385 0.45899 0.0
H205 H 0.03252 0.72703 0.37474 0.0
C206 C 0.02678 0.76076 0.4771 0.0
O207 O 1.01831 0.72593 0.49279 0.0
N208 N 0.14204 0.76672 0.47602 0.0
C209 C 0.17419 0.75558 0.50013 0.0
C210 C 0.19531 0.78734 0.51361 0.0
C211 C 0.14427 0.80568 0.47461 0.0
N212 N 0.17669 0.81896 0.49796 0.0
C213 C 0.11889 0.67613 0.52961 0.0
C214 C 0.09071 0.71809 0.60938 0.0
C215 C 0.10899 0.68316 0.61895 0.0
C216 C 0.12292 0.66208 0.57834 0.0
C217 C 0.08761 0.73144 0.55965 0.0
N218 N 0.1005 0.70988 0.52009 0.0
H219 H 0.1325 0.66036 0.49983 0.0
H220 H 0.07659 0.7599 0.55359 0.0
H221 H 0.18186 0.72611 0.50753 0.0
H222 H 0.12261 0.82379 0.45782 0.0
O223 O 0.14415 0.69811 0.42713 0.0
O224 O 0.11577 0.74326 0.38214 0.0
O225 O 0.06091 0.76882 0.46251 0.0
C226 C 0.14106 0.71597 0.3845 0.0
H227 H 0.99446 0.66185 0.35538 0.0
H228 H 0.22272 0.78716 0.53314 0.0
H229 H 0.08074 0.7358 0.64017 0.0
H230 H 0.13789 0.63532 0.5843 0.0
Co231 Co 0.31251 0.09837 0.45243 0.0
C232 C 0.39235 0.07013 0.43983 0.0
C233 C 0.35116 0.03116 0.4074 0.0
C234 C 0.38751 1.01752 0.39791 0.0
N235 N 0.35412 0.06375 0.4349 0.0
N236 N 0.41334 0.04228 0.41815 0.0
H237 H 0.405 0.09521 0.45717 0.0
H238 H 0.32447 1.01878 0.39361 0.0
C239 C 0.28311 0.02102 0.48526 0.0
O240 O 0.3161 1.01613 0.50863 0.0
N241 N 0.27192 0.13362 0.46931 0.0
C242 C 0.27826 0.16816 0.49085 0.0
C243 C 0.24372 0.18542 0.49915 0.0
C244 C 0.23329 0.13019 0.46478 0.0
N245 N 0.21531 0.1618 0.48264 0.0
C246 C 0.36091 0.12204 0.5344 0.0
C247 C 0.31616 0.09502 0.61225 0.0
C248 C 0.34966 0.11626 0.6241 0.0
C249 C 0.37181 0.12995 0.58393 0.0
C250 C 0.30571 0.0886 0.56171 0.0
N251 N 0.32887 0.10063 0.52324 0.0
H252 H 0.3772 0.1358 0.50516 0.0
H253 H 0.27817 0.07535 0.55387 0.0
H254 H 0.30624 0.17988 0.50049 0.0
H255 H 0.21877 0.10542 0.44854 0.0
O256 O 0.3427 0.14106 0.42766 0.0
O257 O 0.30289 0.10612 0.38075 0.0
O258 O 0.27633 0.05276 0.46273 0.0
C259 C 0.32773 0.13432 0.38359 0.0
H260 H 0.39439 0.99229 0.37595 0.0
H261 H 0.23988 0.21309 0.517 0.0
H262 H 0.2975 0.08416 0.64152 0.0
H263 H 0.39652 0.1485 0.59014 0.0
H264 H 0.50329 0.96617 0.14097 0.0
H265 H 0.58928 0.96398 0.0244 0.0
H266 H 0.58735 0.03377 0.01857 0.0
H267 H 0.55879 0.09536 0.04321 0.0
H268 H 0.47069 0.09718 0.15658 0.0
H269 H 0.47535 0.02749 0.16625 0.0
C270 C 0.52145 0.98071 0.11392 0.0
C271 C 0.54627 0.95934 0.08301 0.0
C272 C 0.51965 0.02092 0.10997 0.0
C273 C 0.57013 0.97929 0.04909 0.0
C274 C 0.56888 0.01935 0.04545 0.0
C275 C 0.54102 0.08058 0.07055 0.0
C276 C 0.51447 0.10148 0.09927 0.0
C277 C 0.54351 0.04044 0.07536 0.0
C278 C 0.49112 0.08173 0.13383 0.0
C279 C 0.49386 0.04192 0.13942 0.0
H280 H 0.95631 0.46375 0.09996 0.0
H281 H 0.93086 0.5808 0.06036 0.0
H282 H 0.99937 0.59624 0.05699 0.0
H283 H 0.06661 0.57724 0.06883 0.0
H284 H 0.09237 0.46056 0.11013 0.0
H285 H 0.02394 0.44422 0.10938 0.0
C286 C 0.96583 0.49246 0.08995 0.0
C287 C 0.93849 0.5211 0.08055 0.0
C288 C 1.0054 0.50129 0.08876 0.0
C289 C 0.95129 0.55836 0.06832 0.0
C290 C 0.99049 0.56718 0.06625 0.0
C291 C 0.0573 0.54813 0.07701 0.0
C292 C 0.08467 0.52021 0.08961 0.0
C293 C 1.01782 0.53901 0.07694 0.0
C294 C 0.07194 0.48274 0.10093 0.0
C295 C 0.03279 0.47331 0.10028 0.0
H296 H 0.96267 0.47127 0.43211 0.0
H297 H 0.08281 0.44311 0.43968 0.0
H298 H 0.10045 0.50981 0.42349 0.0
H299 H 0.08217 0.57712 0.41395 0.0
H300 H 0.96267 0.60687 0.40485 0.0
H301 H 0.94426 0.53898 0.41412 0.0
C302 C 0.99261 0.47971 0.42913 0.0
C303 C 0.0214 0.45228 0.43782 0.0
C304 C 1.00268 0.51856 0.42007 0.0
C305 C 0.06014 0.46373 0.43402 0.0
C306 C 0.07028 0.50191 0.42476 0.0
C307 C 0.05211 0.5687 0.41391 0.0
C308 C 0.02384 0.59701 0.40943 0.0
C309 C 0.04186 0.52974 0.41909 0.0
C310 C 0.98498 0.58558 0.40825 0.0
C311 C 0.97447 0.54677 0.41375 0.0
H312 H 0.59264 0.0637 0.4168 0.0
H313 H 0.58689 0.93982 0.42308 0.0
H314 H 0.51722 0.94179 0.41766 0.0
H315 H 0.45712 0.97874 0.41641 0.0
H316 H 0.46301 0.10248 0.41338 0.0
H317 H 0.533 0.10043 0.4134 0.0
C318 C 0.57629 0.03707 0.41721 0.0
C319 C 0.59553 1.00172 0.42054 0.0
C320 C 0.53593 0.03834 0.41522 0.0
C321 C 0.57344 0.96756 0.41997 0.0
C322 C 0.53331 0.96861 0.41729 0.0
C323 C 0.47376 1.0052 0.41521 0.0
C324 C 0.45474 0.04069 0.4154 0.0
C325 C 0.51419 1.00384 0.41555 0.0
C326 C 0.47679 0.07477 0.41425 0.0
C327 C 0.51689 0.07363 0.41394 0.0
H328 H 0.22952 0.43934 0.03746 0.0
H329 H 0.32763 0.51579 0.03551 0.0
H330 H 0.37085 0.46042 0.03809 0.0
H331 H 0.38026 0.38917 0.03554 0.0
H332 H 0.28053 0.31489 0.03923 0.0
H333 H 0.23855 0.37029 0.04201 0.0
C334 C 0.26038 0.444 0.03753 0.0
C335 C 0.27532 0.4816 0.03541 0.0
C336 C 0.28481 0.41224 0.03955 0.0
C337 C 0.31539 0.48708 0.03675 0.0
C338 C 0.34009 0.45541 0.03823 0.0
C339 C 0.3494 0.38536 0.03792 0.0
C340 C 0.33346 0.34798 0.03657 0.0
C341 C 0.32513 0.41771 0.03906 0.0
C342 C 0.29339 0.34334 0.03946 0.0
C343 C 0.26935 0.37501 0.041 0.0
H344 H 0.55066 0.2884 0.01122 0.0
H345 H 0.51321 0.36549 0.12818 0.0
H346 H 0.576 0.39732 0.12881 0.0
H347 H 0.64428 0.39856 0.10304 0.0
H348 H 0.68268 0.31804 0.9914 0.0
H349 H 0.6173 0.2925 0.98151 0.0
C350 C 0.55602 0.31245 0.03643 0.0
C351 C 0.52722 0.32411 0.07002 0.0
C352 C 0.59272 0.32994 0.03778 0.0
C353 C 0.53484 0.35556 0.10219 0.0
C354 C 0.57086 0.37381 0.10268 0.0
C355 C 0.63794 0.37608 0.07579 0.0
C356 C 0.66808 0.36022 0.04785 0.0
C357 C 0.60041 0.3606 0.07166 0.0
C358 C 0.65982 0.33059 0.01325 0.0
C359 C 0.62249 0.31592 1.00774 0.0
H360 H 0.68489 0.65458 0.98403 0.0
H361 H 0.64627 0.67736 0.13539 0.0
H362 H 0.67106 0.61538 0.16294 0.0
H363 H 0.70277 0.5542 0.14369 0.0
H364 H 0.74019 0.53139 0.99169 0.0
H365 H 0.71565 0.59349 0.96451 0.0
C366 C 0.68148 0.64599 0.02299 0.0
C367 C 0.66342 0.6708 0.05742 0.0
C368 C 0.69521 0.61002 0.03836 0.0
C369 C 0.6603 0.65927 0.10805 0.0
C370 C 0.67418 0.62358 0.12376 0.0
C371 C 0.70527 0.56259 0.10448 0.0
C372 C 0.72322 0.53792 0.06976 0.0
C373 C 0.69144 0.59861 0.08915 0.0
C374 C 0.72648 0.54961 0.01924 0.0
C375 C 0.71256 0.58524 1.00369 0.0
H376 H 0.36261 0.71038 0.97655 0.0
H377 H 0.36893 0.63236 0.10279 0.0
H378 H 0.43447 0.65376 0.12013 0.0
H379 H 0.48891 0.69689 0.1025 0.0
H380 H 0.48149 0.77732 0.97917 0.0
H381 H 0.41716 0.75306 0.95835 0.0
C382 C 0.37798 0.69815 1.00818 0.0
C383 C 0.3602 0.66984 0.03846 0.0
C384 C 0.41553 0.71123 0.01874 0.0
C385 C 0.38149 0.65388 0.07844 0.0
C386 C 0.41906 0.66634 0.08868 0.0
C387 C 0.47337 0.70905 0.07086 0.0
C388 C 0.4901 0.739 0.04252 0.0
C389 C 0.4362 0.6953 0.05947 0.0
C390 C 0.46937 0.75436 1.00173 0.0
C391 C 0.43255 0.74048 0.9898 0.0
H392 H 0.83721 0.05183 0.38375 0.0
H393 H 0.79158 0.03673 0.53355 0.0
H394 H 0.81635 0.10006 0.55777 0.0
H395 H 0.84785 0.16101 0.53538 0.0
H396 H 0.89286 0.17712 0.38576 0.0
H397 H 0.87196 0.11187 0.36273 0.0
C398 C 0.83294 0.06217 0.42188 0.0
C399 C 0.81226 0.03939 0.45667 0.0
C400 C 0.84704 0.0989 0.43552 0.0
C401 C 0.80727 0.05343 0.50592 0.0
C402 C 0.82134 0.08978 0.51978 0.0
C403 C 0.85296 0.15038 0.49761 0.0
C404 C 0.87144 0.17428 0.46208 0.0
C405 C 0.84067 0.113 0.48467 0.0
C406 C 0.87877 0.15946 0.41381 0.0
C407 C 0.86663 0.12219 0.4006 0.0
H408 H 0.95708 0.74583 0.43846 0.0
H409 H 0.02597 0.83774 0.50129 0.0
H410 H 0.97018 0.88065 0.49846 0.0
H411 H 0.8993 0.88927 0.48574 0.0
H412 H 0.83285 0.79637 0.42096 0.0
H413 H 0.89011 0.7568 0.41569 0.0
C414 C 0.95993 0.77539 0.45117 0.0
C415 C 0.9952 0.78851 0.47092 0.0
C416 C 0.92811 0.7997 0.44874 0.0
C417 C 0.9989 0.82702 0.48625 0.0
C418 C 0.967 0.85146 0.48468 0.0
C419 C 0.89787 0.86082 0.46912 0.0
C420 C 0.86201 0.84558 0.45373 0.0
C421 C 0.93114 0.83787 0.46693 0.0
C422 C 0.86022 0.8085 0.43289 0.0
C423 C 0.89285 0.78582 0.43026 0.0
H424 H 0.27207 0.96574 0.5553 0.0
H425 H 0.23109 1.00353 0.41021 0.0
H426 H 0.19093 0.94538 0.40245 0.0
H427 H 0.1724 0.88013 0.43409 0.0
H428 H 0.21253 0.84537 0.58108 0.0
H429 H 0.24744 0.9058 0.59116 0.0
C430 C 0.25403 0.96146 0.5222 0.0
C431 C 0.25493 0.98867 0.48317 0.0
C432 C 0.23086 0.92823 0.51825 0.0
C433 C 0.23094 0.98298 0.44084 0.0
C434 C 0.20808 0.94962 0.4363 0.0
C435 C 0.18807 0.88628 0.46868 0.0
C436 C 0.19044 0.85784 0.50636 0.0
C437 C 0.20839 0.92153 0.47435 0.0
C438 C 0.21091 0.86632 0.55104 0.0
C439 C 0.23092 0.90094 0.5569 0.0
H440 H 0.03531 0.17415 0.5037 0.0
H441 H 0.06555 0.29465 0.49502 0.0
H442 H 0.13271 0.27871 0.48671 0.0
H443 H 0.18303 0.23143 0.48013 0.0
H444 H 0.15569 0.11062 0.48913 0.0
H445 H 0.08729 0.12576 0.49751 0.0
C446 C 0.05663 0.1969 0.50046 0.0
C447 C 0.04503 0.23567 0.50049 0.0
C448 C 0.09577 0.1875 0.49496 0.0
C449 C 0.07323 0.26465 0.49558 0.0
C450 C 0.11185 0.25558 0.49054 0.0
C451 C 0.16231 0.20828 0.48452 0.0
C452 C 0.17469 0.16994 0.48456 0.0
C453 C 0.12341 0.21721 0.48997 0.0
C454 C 0.14703 0.14039 0.48871 0.0
C455 C 0.10793 0.14908 0.49391 0.0
H456 H 0.40957 0.23655 0.21928 0.0
H457 H 0.35048 0.15695 0.12004 0.0
H458 H 0.31946 0.12655 0.19216 0.0
H459 H 0.31229 0.11972 0.28416 0.0
H460 H 0.37288 0.19841 0.38316 0.0
H461 H 0.39974 0.23195 0.31072 0.0
C462 C 0.38956 0.21285 0.2134 0.0
C463 C 0.38249 0.19902 0.16435 0.0
C464 C 0.37215 0.1951 0.25515 0.0
C465 C 0.35655 0.16817 0.15742 0.0
C466 C 0.3388 0.15067 0.19868 0.0
C467 C 0.33099 0.14448 0.2898 0.0
C468 C 0.34064 0.1564 0.33901 0.0
C469 C 0.34685 0.16346 0.24783 0.0
C470 C 0.36508 0.18848 0.34569 0.0
C471 C 0.38053 0.20772 0.30425 0.0
H472 H 0.87435 0.36535 0.1759 0.0
H473 H 0.79612 0.442 0.25007 0.0
H474 H 0.81899 0.42011 0.33238 0.0
H475 H 0.86259 0.38028 0.38353 0.0
H476 H 0.94074 0.30386 0.30867 0.0
H477 H 0.91647 0.32444 0.22674 0.0
C478 C 0.8622 0.37719 0.21006 0.0
C479 C 0.83364 0.40534 0.20677 0.0
C480 C 0.87552 0.36451 0.2573 0.0
C481 C 0.81817 0.42031 0.25146 0.0
C482 C 0.83126 0.40782 0.29861 0.0
C483 C 0.87412 0.36798 0.34929 0.0
C484 C 0.90349 0.3406 0.35234 0.0
C485 C 0.8601 0.38008 0.30203 0.0
C486 C 0.91817 0.32501 0.30754 0.0
C487 C 0.90433 0.33679 0.26055 0.0
H488 H 0.66505 0.85446 0.36013 0.0
H489 H 0.7526 0.9227 0.28718 0.0
H490 H 0.73173 0.89852 0.20505 0.0
H491 H 0.6862 0.86116 0.15306 0.0
H492 H 0.59815 0.7931 0.22505 0.0
H493 H 0.6218 0.81364 0.30795 0.0
C494 C 0.67979 0.86372 0.3263 0.0
C495 C 0.71025 0.89055 0.32998 0.0
C496 C 0.66747 0.84979 0.27878 0.0
C497 C 0.72899 0.90222 0.28564 0.0
C498 C 0.71705 0.88842 0.2385 0.0
C499 C 0.67245 0.85042 0.18687 0.0
C500 C 0.64035 0.8257 0.18269 0.0
C501 C 0.68598 0.86265 0.23449 0.0
C502 C 0.62291 0.81214 0.22703 0.0
C503 C 0.63634 0.824 0.27455 0.0
H504 H 0.12955 0.73473 0.28592 0.0
H505 H 0.20112 0.66689 0.38406 0.0
H506 H 0.23133 0.63728 0.31124 0.0
H507 H 0.23315 0.62607 0.21987 0.0
H508 H 0.16033 0.69254 0.12165 0.0
H509 H 0.13524 0.72731 0.19401 0.0
C510 C 0.15222 0.71398 0.29128 0.0
C511 C 0.16285 0.70283 0.34024 0.0
C512 C 0.16906 0.69646 0.24917 0.0
C513 C 0.1922 0.67579 0.34668 0.0
C514 C 0.20947 0.65873 0.30506 0.0
C515 C 0.21217 0.64851 0.21428 0.0
C516 C 0.1984 0.65642 0.16556 0.0
C517 C 0.19745 0.66811 0.25615 0.0
C518 C 0.17126 0.68566 0.15887 0.0
C519 C 0.15682 0.70558 0.20024 0.0
H520 H 0.66408 0.91252 0.85761 0.0
H521 H 0.58596 0.82365 0.80618 0.0
H522 H 0.60287 0.83738 0.71863 0.0
H523 H 0.64208 0.87247 0.657 0.0
H524 H 0.71744 0.96416 0.70814 0.0
H525 H 0.70001 0.95082 0.79519 0.0
C526 C 0.65072 0.89624 0.82718 0.0
C527 C 0.62386 0.86701 0.83849 0.0
C528 C 0.66041 0.90447 0.77679 0.0
C529 C 0.60646 0.84649 0.79857 0.0
C530 C 0.6163 0.85419 0.74847 0.0
C531 C 0.65429 0.89013 0.68687 0.0
C532 C 0.68151 0.91911 0.67532 0.0
C533 C 0.64347 0.88292 0.73712 0.0
C534 C 0.69721 0.94103 0.71534 0.0
C535 C 0.687 0.93366 0.76538 0.0
H536 H 0.1774 0.6638 0.65905 0.0
H537 H 0.05723 0.67222 0.69468 0.0
H538 H 0.06972 0.64607 0.77906 0.0
H539 H 0.11481 0.62021 0.84157 0.0
H540 H 0.23612 0.6181 0.8077 0.0
H541 H 0.2228 0.6406 0.72282 0.0
C542 C 0.15398 0.65984 0.68539 0.0
C543 C 0.11645 0.66965 0.6709 0.0
C544 C 0.16147 0.64528 0.73367 0.0
C545 C 0.08635 0.66498 0.70533 0.0
C546 C 0.09348 0.64984 0.7533 0.0
C547 C 0.13855 0.62507 0.81607 0.0
C548 C 0.1765 0.61716 0.83167 0.0
C549 C 0.13096 0.63984 0.76781 0.0
C550 C 0.20651 0.62286 0.79703 0.0
C551 C 0.19902 0.63635 0.74845 0.0
H552 H 0.42171 0.12905 0.66402 0.0
H553 H 0.30164 0.12822 0.7049 0.0
H554 H 0.31875 0.14917 0.78969 0.0
H555 H 0.36743 0.17063 0.85171 0.0
H556 H 0.48615 0.1788 0.80821 0.0
H557 H 0.46974 0.15368 0.72408 0.0
C558 C 0.399 0.13398 0.69091 0.0
C559 C 0.36026 0.1269 0.67723 0.0
C560 C 0.40879 0.14797 0.73908 0.0
C561 C 0.33173 0.13246 0.71388 0.0
C562 C 0.34143 0.14503 0.76248 0.0
C563 C 0.38957 0.16697 0.82356 0.0
C564 C 0.42788 0.17639 0.83567 0.0
C565 C 0.37977 0.15325 0.77529 0.0
C566 C 0.45648 0.17184 0.79927 0.0
C567 C 0.44709 0.15734 0.75146 0.0
H568 H 0.86151 0.38858 0.6783 0.0
H569 H 0.96423 0.33344 0.7326 0.0
H570 H 0.94782 0.35044 0.81913 0.0
H571 H 0.90439 0.38103 0.87961 0.0
H572 H 0.80194 0.43649 0.82515 0.0
H573 H 0.81886 0.42033 0.7385 0.0
C574 C 0.88062 0.38065 0.70892 0.0
C575 C 0.91407 0.35961 0.69864 0.0
C576 C 0.87119 0.39081 0.75868 0.0
C577 C 0.93802 0.34909 0.73919 0.0
C578 C 0.92878 0.35903 0.78877 0.0
C579 C 0.88561 0.3894 0.84884 0.0
C580 C 0.85186 0.40994 0.85911 0.0
C581 C 0.89537 0.37976 0.799 0.0
C582 C 0.82829 0.42109 0.81851 0.0
C583 C 0.83782 0.41162 0.76888 0.0
loop_
_geom_bond_atom_site_label_1
_geom_bond_atom_site_label_2
_geom_bond_distance
_geom_bond_site_symmetry_2
_ccdc_geom_bond_type
Co0 N4 2.148 . S
Co0 N10 2.128 . S
Co0 N20 2.194 1_554 S
Co0 O25 2.351 . S
Co0 O26 2.155 . S
Co0 O27 2.096 . S
C1 N4 1.301 . S
C1 N5 1.328 . S
C1 H6 0.930 . S
C2 C3 1.333 . S
C2 N4 1.317 . S
C2 H7 0.930 . S
C3 C2 1.333 . S
C3 N5 1.350 . S
C3 H29 0.931 . S
N4 Co0 2.148 . S
N4 C1 1.301 . S
N4 C2 1.317 . S
N5 C1 1.328 . S
N5 C3 1.350 . S
H6 C1 0.930 . S
H7 C2 0.930 . S
C8 O9 1.224 1_554 S
C8 O27 1.247 . S
O9 C8 1.224 1_556 S
N10 Co0 2.128 . S
N10 C11 1.355 . S
N10 C13 1.311 . S
C11 N10 1.355 . S
C11 C12 1.363 . S
C11 H23 0.929 . S
C12 C11 1.363 . S
C12 N14 1.375 . S
C12 H30 0.931 . S
C13 N10 1.311 . S
C13 N14 1.347 . S
C13 H24 0.929 . S
N14 C12 1.375 . S
N14 C13 1.347 . S
C15 C18 1.365 . S
C15 N20 1.328 . S
C15 H21 0.929 1_556 S
C16 C17 1.362 . S
C16 C19 1.378 . S
C16 H31 0.929 . S
C17 C16 1.362 . S
C17 C18 1.366 . S
C18 C15 1.365 . S
C18 C17 1.366 . S
C18 H32 0.930 . S
C19 C16 1.378 . S
C19 N20 1.315 . S
C19 H22 0.930 . S
N20 Co0 2.194 1_556 S
N20 C15 1.328 . S
N20 C19 1.315 . S
H21 C15 0.929 1_554 S
H22 C19 0.930 . S
H23 C11 0.929 . S
H24 C13 0.929 . S
O25 Co0 2.351 . S
O25 C28 1.244 . S
O26 Co0 2.155 . S
O26 C28 1.240 . S
O27 Co0 2.096 . S
O27 C8 1.247 . S
C28 O25 1.244 . S
C28 O26 1.240 . S
H29 C3 0.931 . S
H30 C12 0.931 . S
H31 C16 0.929 . S
H32 C18 0.930 . S
Co33 N37 2.148 . S
Co33 N43 2.128 . S
Co33 N53 2.194 1_554 S
Co33 O58 2.351 . S
Co33 O59 2.155 . S
Co33 O60 2.096 . S
C34 N37 1.301 . S
C34 N38 1.328 . S
C34 H39 0.930 . S
C35 C36 1.333 . S
C35 N37 1.317 . S
C35 H40 0.930 . S
C36 C35 1.333 . S
C36 N38 1.350 . S
C36 H62 0.931 . S
N37 Co33 2.148 . S
N37 C34 1.301 . S
N37 C35 1.317 . S
N38 C34 1.328 . S
N38 C36 1.350 . S
H39 C34 0.930 . S
H40 C35 0.930 . S
C41 O42 1.224 1_554 S
C41 O60 1.247 . S
O42 C41 1.224 1_556 S
N43 Co33 2.128 . S
N43 C44 1.355 . S
N43 C46 1.311 . S
C44 N43 1.355 . S
C44 C45 1.363 . S
C44 H56 0.929 . S
C45 C44 1.363 . S
C45 N47 1.375 . S
C45 H63 0.931 . S
C46 N43 1.311 . S
C46 N47 1.347 . S
C46 H57 0.929 . S
N47 C45 1.375 . S
N47 C46 1.347 . S
C48 C51 1.365 . S
C48 N53 1.328 . S
C48 H54 0.929 1_556 S
C49 C50 1.362 . S
C49 C52 1.378 . S
C49 H64 0.929 . S
C50 C49 1.362 . S
C50 C51 1.366 . S
C51 C48 1.365 . S
C51 C50 1.366 . S
C51 H65 0.930 . S
C52 C49 1.378 . S
C52 N53 1.315 . S
C52 H55 0.930 . S
N53 Co33 2.194 1_556 S
N53 C48 1.328 . S
N53 C52 1.315 . S
H54 C48 0.929 1_554 S
H55 C52 0.930 . S
H56 C44 0.929 . S
H57 C46 0.929 . S
O58 Co33 2.351 . S
O58 C61 1.244 . S
O59 Co33 2.155 . S
O59 C61 1.240 . S
O60 Co33 2.096 . S
O60 C41 1.247 . S
C61 O58 1.244 . S
C61 O59 1.240 . S
H62 C36 0.931 . S
H63 C45 0.931 . S
H64 C49 0.929 . S
H65 C51 0.930 . S
Co66 N70 2.148 . S
Co66 N76 2.128 . S
Co66 N86 2.194 1_554 S
Co66 O91 2.351 . S
Co66 O92 2.155 . S
Co66 O93 2.096 . S
C67 N70 1.301 . S
C67 N71 1.328 . S
C67 H72 0.930 . S
C68 C69 1.333 . S
C68 N70 1.317 . S
C68 H73 0.930 . S
C69 C68 1.333 . S
C69 N71 1.350 . S
C69 H95 0.931 . S
N70 Co66 2.148 . S
N70 C67 1.301 . S
N70 C68 1.317 . S
N71 C67 1.328 . S
N71 C69 1.350 . S
H72 C67 0.930 . S
H73 C68 0.930 . S
C74 O75 1.224 1_554 S
C74 O93 1.247 . S
O75 C74 1.224 1_556 S
N76 Co66 2.128 . S
N76 C77 1.355 . S
N76 C79 1.311 . S
C77 N76 1.355 . S
C77 C78 1.363 . S
C77 H89 0.929 . S
C78 C77 1.363 . S
C78 N80 1.375 . S
C78 H96 0.931 . S
C79 N76 1.311 . S
C79 N80 1.347 . S
C79 H90 0.929 . S
N80 C78 1.375 . S
N80 C79 1.347 . S
C81 C84 1.365 . S
C81 N86 1.328 . S
C81 H87 0.929 1_556 S
C82 C83 1.362 . S
C82 C85 1.378 . S
C82 H97 0.929 . S
C83 C82 1.362 . S
C83 C84 1.366 . S
C84 C81 1.365 . S
C84 C83 1.366 . S
C84 H98 0.930 . S
C85 C82 1.378 . S
C85 N86 1.315 . S
C85 H88 0.930 . S
N86 Co66 2.194 1_556 S
N86 C81 1.328 . S
N86 C85 1.315 . S
H87 C81 0.929 1_554 S
H88 C85 0.930 . S
H89 C77 0.929 . S
H90 C79 0.929 . S
O91 Co66 2.351 . S
O91 C94 1.244 . S
O92 Co66 2.155 . S
O92 C94 1.240 . S
O93 Co66 2.096 . S
O93 C74 1.247 . S
C94 O91 1.244 . S
C94 O92 1.240 . S
H95 C69 0.931 . S
H96 C78 0.931 . S
H97 C82 0.929 . S
H98 C84 0.930 . S
Co99 N103 2.148 . S
Co99 N109 2.128 . S
Co99 N119 2.194 1_554 S
Co99 O124 2.351 . S
Co99 O125 2.155 . S
Co99 O126 2.096 . S
C100 N103 1.301 . S
C100 N104 1.328 . S
C100 H105 0.930 . S
C101 C102 1.333 . S
C101 N103 1.317 . S
C101 H106 0.930 . S
C102 C101 1.333 . S
C102 N104 1.350 . S
C102 H128 0.931 . S
N103 Co99 2.148 . S
N103 C100 1.301 . S
N103 C101 1.317 . S
N104 C100 1.328 . S
N104 C102 1.350 . S
H105 C100 0.930 . S
H106 C101 0.930 . S
C107 O108 1.224 1_554 S
C107 O126 1.247 . S
O108 C107 1.224 1_556 S
N109 Co99 2.128 . S
N109 C110 1.355 . S
N109 C112 1.311 . S
C110 N109 1.355 . S
C110 C111 1.363 . S
C110 H122 0.929 . S
C111 C110 1.363 . S
C111 N113 1.375 . S
C111 H129 0.931 . S
C112 N109 1.311 . S
C112 N113 1.347 . S
C112 H123 0.929 . S
N113 C111 1.375 . S
N113 C112 1.347 . S
C114 C117 1.365 . S
C114 N119 1.328 . S
C114 H120 0.929 1_556 S
C115 C116 1.362 . S
C115 C118 1.378 . S
C115 H130 0.929 . S
C116 C115 1.362 . S
C116 C117 1.366 . S
C117 C114 1.365 . S
C117 C116 1.366 . S
C117 H131 0.930 . S
C118 C115 1.378 . S
C118 N119 1.315 . S
C118 H121 0.930 . S
N119 Co99 2.194 1_556 S
N119 C114 1.328 . S
N119 C118 1.315 . S
H120 C114 0.929 1_554 S
H121 C118 0.930 . S
H122 C110 0.929 . S
H123 C112 0.929 . S
O124 Co99 2.351 . S
O124 C127 1.244 . S
O125 Co99 2.155 . S
O125 C127 1.240 . S
O126 Co99 2.096 . S
O126 C107 1.247 . S
C127 O124 1.244 . S
C127 O125 1.240 . S
H128 C102 0.931 . S
H129 C111 0.931 . S
H130 C115 0.929 . S
H131 C117 0.930 . S
Co132 N136 2.148 . S
Co132 N142 2.128 . S
Co132 N152 2.194 . S
Co132 O157 2.351 . S
Co132 O158 2.155 . S
Co132 O159 2.096 . S
C133 N136 1.301 . S
C133 N137 1.328 . S
C133 H138 0.930 . S
C134 C135 1.333 1_655 S
C134 N136 1.317 . S
C134 H139 0.930 1_655 S
C135 C134 1.333 1_455 S
C135 N137 1.350 1_455 S
C135 H161 0.931 . S
N136 Co132 2.148 . S
N136 C133 1.301 . S
N136 C134 1.317 . S
N137 C133 1.328 . S
N137 C135 1.350 1_655 S
H138 C133 0.930 . S
H139 C134 0.930 1_455 S
C140 O141 1.224 . S
C140 O159 1.247 . S
O141 C140 1.224 . S
N142 Co132 2.128 . S
N142 C143 1.355 . S
N142 C145 1.311 . S
C143 N142 1.355 . S
C143 C144 1.363 . S
C143 H155 0.929 . S
C144 C143 1.363 . S
C144 N146 1.375 . S
C144 H162 0.931 . S
C145 N142 1.311 . S
C145 N146 1.347 . S
C145 H156 0.929 . S
N146 C144 1.375 . S
N146 C145 1.347 . S
C147 C150 1.365 . S
C147 N152 1.328 . S
C147 H153 0.929 . S
C148 C149 1.362 . S
C148 C151 1.378 . S
C148 H163 0.929 . S
C149 C148 1.362 . S
C149 C150 1.366 . S
C150 C147 1.365 . S
C150 C149 1.366 . S
C150 H164 0.930 . S
C151 C148 1.378 . S
C151 N152 1.315 . S
C151 H154 0.930 . S
N152 Co132 2.194 . S
N152 C147 1.328 . S
N152 C151 1.315 . S
H153 C147 0.929 . S
H154 C151 0.930 . S
H155 C143 0.929 . S
H156 C145 0.929 . S
O157 Co132 2.351 . S
O157 C160 1.244 . S
O158 Co132 2.155 . S
O158 C160 1.240 . S
O159 Co132 2.096 . S
O159 C140 1.247 . S
C160 O157 1.244 . S
C160 O158 1.240 . S
H161 C135 0.931 . S
H162 C144 0.931 . S
H163 C148 0.929 . S
H164 C150 0.930 . S
Co165 N169 2.148 . S
Co165 N175 2.128 . S
Co165 N185 2.194 . S
Co165 O190 2.351 . S
Co165 O191 2.155 . S
Co165 O192 2.096 . S
C166 N169 1.301 . S
C166 N170 1.328 . S
C166 H171 0.930 . S
C167 C168 1.333 1_565 S
C167 N169 1.317 . S
C167 H172 0.930 1_565 S
C168 C167 1.333 1_545 S
C168 N170 1.350 1_545 S
C168 H194 0.931 . S
N169 Co165 2.148 . S
N169 C166 1.301 . S
N169 C167 1.317 . S
N170 C166 1.328 . S
N170 C168 1.350 1_565 S
H171 C166 0.930 . S
H172 C167 0.930 1_545 S
C173 O174 1.224 . S
C173 O192 1.247 . S
O174 C173 1.224 . S
N175 Co165 2.128 . S
N175 C176 1.355 . S
N175 C178 1.311 . S
C176 N175 1.355 . S
C176 C177 1.363 . S
C176 H188 0.929 . S
C177 C176 1.363 . S
C177 N179 1.375 . S
C177 H195 0.931 . S
C178 N175 1.311 . S
C178 N179 1.347 . S
C178 H189 0.929 . S
N179 C177 1.375 . S
N179 C178 1.347 . S
C180 C183 1.365 . S
C180 N185 1.328 . S
C180 H186 0.929 . S
C181 C182 1.362 . S
C181 C184 1.378 . S
C181 H196 0.929 . S
C182 C181 1.362 . S
C182 C183 1.366 . S
C183 C180 1.365 . S
C183 C182 1.366 . S
C183 H197 0.930 . S
C184 C181 1.378 . S
C184 N185 1.315 . S
C184 H187 0.930 . S
N185 Co165 2.194 . S
N185 C180 1.328 . S
N185 C184 1.315 . S
H186 C180 0.929 . S
H187 C184 0.930 . S
H188 C176 0.929 . S
H189 C178 0.929 . S
O190 Co165 2.351 . S
O190 C193 1.244 . S
O191 Co165 2.155 . S
O191 C193 1.240 . S
O192 Co165 2.096 . S
O192 C173 1.247 . S
C193 O190 1.244 . S
C193 O191 1.240 . S
H194 C168 0.931 . S
H195 C177 0.931 . S
H196 C181 0.929 . S
H197 C183 0.930 . S
Co198 N202 2.148 . S
Co198 N208 2.128 . S
Co198 N218 2.194 . S
Co198 O223 2.351 . S
Co198 O224 2.155 . S
Co198 O225 2.096 . S
C199 N202 1.301 . S
C199 N203 1.328 . S
C199 H204 0.930 . S
C200 C201 1.333 1_455 S
C200 N202 1.317 . S
C200 H205 0.930 1_455 S
C201 C200 1.333 1_655 S
C201 N203 1.350 1_655 S
C201 H227 0.931 . S
N202 Co198 2.148 . S
N202 C199 1.301 . S
N202 C200 1.317 . S
N203 C199 1.328 . S
N203 C201 1.350 1_455 S
H204 C199 0.930 . S
H205 C200 0.930 1_655 S
C206 O207 1.224 . S
C206 O225 1.247 . S
O207 C206 1.224 . S
N208 Co198 2.128 . S
N208 C209 1.355 . S
N208 C211 1.311 . S
C209 N208 1.355 . S
C209 C210 1.363 . S
C209 H221 0.929 . S
C210 C209 1.363 . S
C210 N212 1.375 . S
C210 H228 0.931 . S
C211 N208 1.311 . S
C211 N212 1.347 . S
C211 H222 0.929 . S
N212 C210 1.375 . S
N212 C211 1.347 . S
C213 C216 1.365 . S
C213 N218 1.328 . S
C213 H219 0.929 . S
C214 C215 1.362 . S
C214 C217 1.378 . S
C214 H229 0.929 . S
C215 C214 1.362 . S
C215 C216 1.366 . S
C216 C213 1.365 . S
C216 C215 1.366 . S
C216 H230 0.930 . S
C217 C214 1.378 . S
C217 N218 1.315 . S
C217 H220 0.930 . S
N218 Co198 2.194 . S
N218 C213 1.328 . S
N218 C217 1.315 . S
H219 C213 0.929 . S
H220 C217 0.930 . S
H221 C209 0.929 . S
H222 C211 0.929 . S
O223 Co198 2.351 . S
O223 C226 1.244 . S
O224 Co198 2.155 . S
O224 C226 1.240 . S
O225 Co198 2.096 . S
O225 C206 1.247 . S
C226 O223 1.244 . S
C226 O224 1.240 . S
H227 C201 0.931 . S
H228 C210 0.931 . S
H229 C214 0.929 . S
H230 C216 0.930 . S
Co231 N235 2.148 . S
Co231 N241 2.128 . S
Co231 N251 2.194 . S
Co231 O256 2.351 . S
Co231 O257 2.155 . S
Co231 O258 2.096 . S
C232 N235 1.301 . S
C232 N236 1.328 . S
C232 H237 0.930 . S
C233 C234 1.333 1_545 S
C233 N235 1.317 . S
C233 H238 0.930 1_545 S
C234 C233 1.333 1_565 S
C234 N236 1.350 1_565 S
C234 H260 0.931 . S
N235 Co231 2.148 . S
N235 C232 1.301 . S
N235 C233 1.317 . S
N236 C232 1.328 . S
N236 C234 1.350 1_545 S
H237 C232 0.930 . S
H238 C233 0.930 1_565 S
C239 O240 1.224 . S
C239 O258 1.247 . S
O240 C239 1.224 . S
N241 Co231 2.128 . S
N241 C242 1.355 . S
N241 C244 1.311 . S
C242 N241 1.355 . S
C242 C243 1.363 . S
C242 H254 0.929 . S
C243 C242 1.363 . S
C243 N245 1.375 . S
C243 H261 0.931 . S
C244 N241 1.311 . S
C244 N245 1.347 . S
C244 H255 0.929 . S
N245 C243 1.375 . S
N245 C244 1.347 . S
C246 C249 1.365 . S
C246 N251 1.328 . S
C246 H252 0.929 . S
C247 C248 1.362 . S
C247 C250 1.378 . S
C247 H262 0.929 . S
C248 C247 1.362 . S
C248 C249 1.366 . S
C249 C246 1.365 . S
C249 C248 1.366 . S
C249 H263 0.930 . S
C250 C247 1.378 . S
C250 N251 1.315 . S
C250 H253 0.930 . S
N251 Co231 2.194 . S
N251 C246 1.328 . S
N251 C250 1.315 . S
H252 C246 0.929 . S
H253 C250 0.930 . S
H254 C242 0.929 . S
H255 C244 0.929 . S
O256 Co231 2.351 . S
O256 C259 1.244 . S
O257 Co231 2.155 . S
O257 C259 1.240 . S
O258 Co231 2.096 . S
O258 C239 1.247 . S
C259 O256 1.244 . S
C259 O257 1.240 . S
H260 C234 0.931 . S
H261 C243 0.931 . S
H262 C247 0.929 . S
H263 C249 0.930 . S
H264 C270 0.930 . S
H265 C273 0.930 1_556 S
H266 C274 0.930 1_556 S
H267 C275 0.930 . S
H268 C278 0.930 . S
H269 C279 0.930 . S
C270 H264 0.930 . S
C270 C271 1.355 . S
C270 C272 1.415 . S
C271 C270 1.355 . S
C271 C273 1.419 . S
C272 C270 1.415 . S
C272 C277 1.425 1_565 S
C272 C279 1.409 1_565 S
C273 H265 0.930 1_554 S
C273 C271 1.419 . S
C273 C274 1.362 . S
C274 H266 0.930 1_554 S
C274 C273 1.362 . S
C274 C277 1.409 1_565 S
C275 H267 0.930 . S
C275 C276 1.355 . S
C275 C277 1.415 . S
C276 C275 1.355 . S
C276 C278 1.419 . S
C277 C272 1.425 1_545 S
C277 C274 1.409 1_545 S
C277 C275 1.415 . S
C278 H268 0.930 . S
C278 C276 1.419 . S
C278 C279 1.362 . S
C279 H269 0.930 . S
C279 C272 1.409 1_545 S
C279 C278 1.362 . S
H280 C286 0.930 . S
H281 C289 0.930 . S
H282 C290 0.930 . S
H283 C291 0.930 . S
H284 C294 0.930 . S
H285 C295 0.930 . S
C286 H280 0.930 . S
C286 C287 1.355 . S
C286 C288 1.415 . S
C287 C286 1.355 . S
C287 C289 1.419 . S
C288 C286 1.415 . S
C288 C293 1.425 1_655 S
C288 C295 1.409 1_655 S
C289 H281 0.930 . S
C289 C287 1.419 . S
C289 C290 1.362 . S
C290 H282 0.930 . S
C290 C289 1.362 . S
C290 C293 1.409 1_655 S
C291 H283 0.930 . S
C291 C292 1.355 . S
C291 C293 1.415 . S
C292 C291 1.355 . S
C292 C294 1.419 . S
C293 C288 1.425 1_455 S
C293 C290 1.409 1_455 S
C293 C291 1.415 . S
C294 H284 0.930 . S
C294 C292 1.419 . S
C294 C295 1.362 . S
C295 H285 0.930 . S
C295 C288 1.409 1_455 S
C295 C294 1.362 . S
H296 C302 0.930 . S
H297 C305 0.930 . S
H298 C306 0.930 . S
H299 C307 0.930 . S
H300 C310 0.930 . S
H301 C311 0.930 . S
C302 H296 0.930 . S
C302 C303 1.355 . S
C302 C304 1.415 . S
C303 C302 1.355 . S
C303 C305 1.419 1_655 S
C304 C302 1.415 . S
C304 C309 1.425 1_655 S
C304 C311 1.409 . S
C305 H297 0.930 . S
C305 C303 1.419 1_455 S
C305 C306 1.362 . S
C306 H298 0.930 . S
C306 C305 1.362 . S
C306 C309 1.409 . S
C307 H299 0.930 . S
C307 C308 1.355 . S
C307 C309 1.415 . S
C308 C307 1.355 . S
C308 C310 1.419 1_455 S
C309 C304 1.425 1_455 S
C309 C306 1.409 . S
C309 C307 1.415 . S
C310 H300 0.930 . S
C310 C308 1.419 1_655 S
C310 C311 1.362 . S
C311 H301 0.930 . S
C311 C304 1.409 . S
C311 C310 1.362 . S
H312 C318 0.930 . S
H313 C321 0.930 . S
H314 C322 0.930 . S
H315 C323 0.930 . S
H316 C326 0.930 . S
H317 C327 0.930 . S
C318 H312 0.930 . S
C318 C319 1.355 1_545 S
C318 C320 1.415 . S
C319 C318 1.355 1_565 S
C319 C321 1.419 . S
C320 C318 1.415 . S
C320 C325 1.425 1_545 S
C320 C327 1.409 . S
C321 H313 0.930 . S
C321 C319 1.419 . S
C321 C322 1.362 . S
C322 H314 0.930 . S
C322 C321 1.362 . S
C322 C325 1.409 . S
C323 H315 0.930 . S
C323 C324 1.355 1_565 S
C323 C325 1.415 . S
C324 C323 1.355 1_545 S
C324 C326 1.419 . S
C325 C320 1.425 1_565 S
C325 C322 1.409 . S
C325 C323 1.415 . S
C326 H316 0.930 . S
C326 C324 1.419 . S
C326 C327 1.362 . S
C327 H317 0.930 . S
C327 C320 1.409 . S
C327 C326 1.362 . S
H328 C334 0.930 . S
H329 C337 0.930 . S
H330 C338 0.930 . S
H331 C339 0.930 . S
H332 C342 0.930 . S
H333 C343 0.930 . S
C334 H328 0.930 . S
C334 C335 1.355 . S
C334 C336 1.415 . S
C335 C334 1.355 . S
C335 C337 1.419 . S
C336 C334 1.415 . S
C336 C341 1.425 . S
C336 C343 1.409 . S
C337 H329 0.930 . S
C337 C335 1.419 . S
C337 C338 1.362 . S
C338 H330 0.930 . S
C338 C337 1.362 . S
C338 C341 1.409 . S
C339 H331 0.930 . S
C339 C340 1.355 . S
C339 C341 1.415 . S
C340 C339 1.355 . S
C340 C342 1.419 . S
C341 C336 1.425 . S
C341 C338 1.409 . S
C341 C339 1.415 . S
C342 H332 0.930 . S
C342 C340 1.419 . S
C342 C343 1.362 . S
C343 H333 0.930 . S
C343 C336 1.409 . S
C343 C342 1.362 . S
H344 C350 0.930 . S
H345 C353 0.930 . S
H346 C354 0.930 . S
H347 C355 0.930 . S
H348 C358 0.930 . S
H349 C359 0.930 . S
C350 H344 0.930 . S
C350 C351 1.355 . S
C350 C352 1.415 . S
C351 C350 1.355 . S
C351 C353 1.419 . S
C352 C350 1.415 . S
C352 C357 1.425 . S
C352 C359 1.409 . S
C353 H345 0.930 . S
C353 C351 1.419 . S
C353 C354 1.362 . S
C354 H346 0.930 . S
C354 C353 1.362 . S
C354 C357 1.409 . S
C355 H347 0.930 . S
C355 C356 1.355 . S
C355 C357 1.415 . S
C356 C355 1.355 . S
C356 C358 1.419 . S
C357 C352 1.425 . S
C357 C354 1.409 . S
C357 C355 1.415 . S
C358 H348 0.930 . S
C358 C356 1.419 . S
C358 C359 1.362 . S
C359 H349 0.930 . S
C359 C352 1.409 . S
C359 C358 1.362 . S
H360 C366 0.930 . S
H361 C369 0.930 . S
H362 C370 0.930 . S
H363 C371 0.930 1_556 S
H364 C374 0.930 . S
H365 C375 0.930 . S
C366 H360 0.930 . S
C366 C367 1.355 . S
C366 C368 1.415 . S
C367 C366 1.355 . S
C367 C369 1.419 1_554 S
C368 C366 1.415 . S
C368 C373 1.425 . S
C368 C375 1.409 . S
C369 H361 0.930 . S
C369 C367 1.419 1_556 S
C369 C370 1.362 . S
C370 H362 0.930 . S
C370 C369 1.362 . S
C370 C373 1.409 1_556 S
C371 H363 0.930 1_554 S
C371 C372 1.355 . S
C371 C373 1.415 . S
C372 C371 1.355 . S
C372 C374 1.419 . S
C373 C368 1.425 . S
C373 C370 1.409 1_554 S
C373 C371 1.415 . S
C374 H364 0.930 . S
C374 C372 1.419 . S
C374 C375 1.362 . S
C375 H365 0.930 . S
C375 C368 1.409 . S
C375 C374 1.362 . S
H376 C382 0.930 . S
H377 C385 0.930 . S
H378 C386 0.930 . S
H379 C387 0.930 1_556 S
H380 C390 0.930 . S
H381 C391 0.930 . S
C382 H376 0.930 . S
C382 C383 1.355 . S
C382 C384 1.415 . S
C383 C382 1.355 . S
C383 C385 1.419 1_554 S
C384 C382 1.415 . S
C384 C389 1.425 . S
C384 C391 1.409 . S
C385 H377 0.930 . S
C385 C383 1.419 1_556 S
C385 C386 1.362 . S
C386 H378 0.930 . S
C386 C385 1.362 . S
C386 C389 1.409 1_556 S
C387 H379 0.930 1_554 S
C387 C388 1.355 . S
C387 C389 1.415 . S
C388 C387 1.355 . S
C388 C390 1.419 . S
C389 C384 1.425 . S
C389 C386 1.409 1_554 S
C389 C387 1.415 . S
C390 H380 0.930 . S
C390 C388 1.419 . S
C390 C391 1.362 . S
C391 H381 0.930 . S
C391 C384 1.409 . S
C391 C390 1.362 . S
H392 C398 0.930 . S
H393 C401 0.930 . S
H394 C402 0.930 . S
H395 C403 0.930 . S
H396 C406 0.930 . S
H397 C407 0.930 . S
C398 H392 0.930 . S
C398 C399 1.355 . S
C398 C400 1.415 . S
C399 C398 1.355 . S
C399 C401 1.419 . S
C400 C398 1.415 . S
C400 C405 1.425 . S
C400 C407 1.409 . S
C401 H393 0.930 . S
C401 C399 1.419 . S
C401 C402 1.362 . S
C402 H394 0.930 . S
C402 C401 1.362 . S
C402 C405 1.409 . S
C403 H395 0.930 . S
C403 C404 1.355 . S
C403 C405 1.415 . S
C404 C403 1.355 . S
C404 C406 1.419 . S
C405 C400 1.425 . S
C405 C402 1.409 . S
C405 C403 1.415 . S
C406 H396 0.930 . S
C406 C404 1.419 . S
C406 C407 1.362 . S
C407 H397 0.930 . S
C407 C400 1.409 . S
C407 C406 1.362 . S
H408 C414 0.930 . S
H409 C417 0.930 1_455 S
H410 C418 0.930 . S
H411 C419 0.930 . S
H412 C422 0.930 . S
H413 C423 0.930 . S
C414 H408 0.930 . S
C414 C415 1.355 . S
C414 C416 1.415 . S
C415 C414 1.355 . S
C415 C417 1.419 . S
C416 C414 1.415 . S
C416 C421 1.425 . S
C416 C423 1.409 . S
C417 H409 0.930 1_655 S
C417 C415 1.419 . S
C417 C418 1.362 . S
C418 H410 0.930 . S
C418 C417 1.362 . S
C418 C421 1.409 . S
C419 H411 0.930 . S
C419 C420 1.355 . S
C419 C421 1.415 . S
C420 C419 1.355 . S
C420 C422 1.419 . S
C421 C416 1.425 . S
C421 C418 1.409 . S
C421 C419 1.415 . S
C422 H412 0.930 . S
C422 C420 1.419 . S
C422 C423 1.362 . S
C423 H413 0.930 . S
C423 C416 1.409 . S
C423 C422 1.362 . S
H424 C430 0.930 . S
H425 C433 0.930 1_545 S
H426 C434 0.930 . S
H427 C435 0.930 . S
H428 C438 0.930 . S
H429 C439 0.930 . S
C430 H424 0.930 . S
C430 C431 1.355 . S
C430 C432 1.415 . S
C431 C430 1.355 . S
C431 C433 1.419 . S
C432 C430 1.415 . S
C432 C437 1.425 . S
C432 C439 1.409 . S
C433 H425 0.930 1_565 S
C433 C431 1.419 . S
C433 C434 1.362 . S
C434 H426 0.930 . S
C434 C433 1.362 . S
C434 C437 1.409 . S
C435 H427 0.930 . S
C435 C436 1.355 . S
C435 C437 1.415 . S
C436 C435 1.355 . S
C436 C438 1.419 . S
C437 C432 1.425 . S
C437 C434 1.409 . S
C437 C435 1.415 . S
C438 H428 0.930 . S
C438 C436 1.419 . S
C438 C439 1.362 . S
C439 H429 0.930 . S
C439 C432 1.409 . S
C439 C438 1.362 . S
H440 C446 0.930 . S
H441 C449 0.930 . S
H442 C450 0.930 . S
H443 C451 0.930 . S
H444 C454 0.930 . S
H445 C455 0.930 . S
C446 H440 0.930 . S
C446 C447 1.355 . S
C446 C448 1.415 . S
C447 C446 1.355 . S
C447 C449 1.419 . S
C448 C446 1.415 . S
C448 C453 1.425 . S
C448 C455 1.409 . S
C449 H441 0.930 . S
C449 C447 1.419 . S
C449 C450 1.362 . S
C450 H442 0.930 . S
C450 C449 1.362 . S
C450 C453 1.409 . S
C451 H443 0.930 . S
C451 C452 1.355 . S
C451 C453 1.415 . S
C452 C451 1.355 . S
C452 C454 1.419 . S
C453 C448 1.425 . S
C453 C450 1.409 . S
C453 C451 1.415 . S
C454 H444 0.930 . S
C454 C452 1.419 . S
C454 C455 1.362 . S
C455 H445 0.930 . S
C455 C448 1.409 . S
C455 C454 1.362 . S
H456 C462 0.930 . S
H457 C465 0.930 . S
H458 C466 0.930 . S
H459 C467 0.930 . S
H460 C470 0.930 . S
H461 C471 0.930 . S
C462 H456 0.930 . S
C462 C463 1.355 . S
C462 C464 1.415 . S
C463 C462 1.355 . S
C463 C465 1.419 . S
C464 C462 1.415 . S
C464 C469 1.425 . S
C464 C471 1.409 . S
C465 H457 0.930 . S
C465 C463 1.419 . S
C465 C466 1.362 . S
C466 H458 0.930 . S
C466 C465 1.362 . S
C466 C469 1.409 . S
C467 H459 0.930 . S
C467 C468 1.355 . S
C467 C469 1.415 . S
C468 C467 1.355 . S
C468 C470 1.419 . S
C469 C464 1.425 . S
C469 C466 1.409 . S
C469 C467 1.415 . S
C470 H460 0.930 . S
C470 C468 1.419 . S
C470 C471 1.362 . S
C471 H461 0.930 . S
C471 C464 1.409 . S
C471 C470 1.362 . S
H472 C478 0.930 . S
H473 C481 0.930 . S
H474 C482 0.930 . S
H475 C483 0.930 . S
H476 C486 0.930 . S
H477 C487 0.930 . S
C478 H472 0.930 . S
C478 C479 1.355 . S
C478 C480 1.415 . S
C479 C478 1.355 . S
C479 C481 1.419 . S
C480 C478 1.415 . S
C480 C485 1.425 . S
C480 C487 1.409 . S
C481 H473 0.930 . S
C481 C479 1.419 . S
C481 C482 1.362 . S
C482 H474 0.930 . S
C482 C481 1.362 . S
C482 C485 1.409 . S
C483 H475 0.930 . S
C483 C484 1.355 . S
C483 C485 1.415 . S
C484 C483 1.355 . S
C484 C486 1.419 . S
C485 C480 1.425 . S
C485 C482 1.409 . S
C485 C483 1.415 . S
C486 H476 0.930 . S
C486 C484 1.419 . S
C486 C487 1.362 . S
C487 H477 0.930 . S
C487 C480 1.409 . S
C487 C486 1.362 . S
H488 C494 0.930 . S
H489 C497 0.930 . S
H490 C498 0.930 . S
H491 C499 0.930 . S
H492 C502 0.930 . S
H493 C503 0.930 . S
C494 H488 0.930 . S
C494 C495 1.355 . S
C494 C496 1.415 . S
C495 C494 1.355 . S
C495 C497 1.419 . S
C496 C494 1.415 . S
C496 C501 1.425 . S
C496 C503 1.409 . S
C497 H489 0.930 . S
C497 C495 1.419 . S
C497 C498 1.362 . S
C498 H490 0.930 . S
C498 C497 1.362 . S
C498 C501 1.409 . S
C499 H491 0.930 . S
C499 C500 1.355 . S
C499 C501 1.415 . S
C500 C499 1.355 . S
C500 C502 1.419 . S
C501 C496 1.425 . S
C501 C498 1.409 . S
C501 C499 1.415 . S
C502 H492 0.930 . S
C502 C500 1.419 . S
C502 C503 1.362 . S
C503 H493 0.930 . S
C503 C496 1.409 . S
C503 C502 1.362 . S
H504 C510 0.930 . S
H505 C513 0.930 . S
H506 C514 0.930 . S
H507 C515 0.930 . S
H508 C518 0.930 . S
H509 C519 0.930 . S
C510 H504 0.930 . S
C510 C511 1.355 . S
C510 C512 1.415 . S
C511 C510 1.355 . S
C511 C513 1.419 . S
C512 C510 1.415 . S
C512 C517 1.425 . S
C512 C519 1.409 . S
C513 H505 0.930 . S
C513 C511 1.419 . S
C513 C514 1.362 . S
C514 H506 0.930 . S
C514 C513 1.362 . S
C514 C517 1.409 . S
C515 H507 0.930 . S
C515 C516 1.355 . S
C515 C517 1.415 . S
C516 C515 1.355 . S
C516 C518 1.419 . S
C517 C512 1.425 . S
C517 C514 1.409 . S
C517 C515 1.415 . S
C518 H508 0.930 . S
C518 C516 1.419 . S
C518 C519 1.362 . S
C519 H509 0.930 . S
C519 C512 1.409 . S
C519 C518 1.362 . S
H520 C526 0.930 . S
H521 C529 0.930 . S
H522 C530 0.930 . S
H523 C531 0.930 . S
H524 C534 0.930 . S
H525 C535 0.930 . S
C526 H520 0.930 . S
C526 C527 1.355 . S
C526 C528 1.415 . S
C527 C526 1.355 . S
C527 C529 1.419 . S
C528 C526 1.415 . S
C528 C533 1.425 . S
C528 C535 1.409 . S
C529 H521 0.930 . S
C529 C527 1.419 . S
C529 C530 1.362 . S
C530 H522 0.930 . S
C530 C529 1.362 . S
C530 C533 1.409 . S
C531 H523 0.930 . S
C531 C532 1.355 . S
C531 C533 1.415 . S
C532 C531 1.355 . S
C532 C534 1.419 . S
C533 C528 1.425 . S
C533 C530 1.409 . S
C533 C531 1.415 . S
C534 H524 0.930 . S
C534 C532 1.419 . S
C534 C535 1.362 . S
C535 H525 0.930 . S
C535 C528 1.409 . S
C535 C534 1.362 . S
H536 C542 0.930 . S
H537 C545 0.930 . S
H538 C546 0.930 . S
H539 C547 0.930 . S
H540 C550 0.930 . S
H541 C551 0.930 . S
C542 H536 0.930 . S
C542 C543 1.355 . S
C542 C544 1.415 . S
C543 C542 1.355 . S
C543 C545 1.419 . S
C544 C542 1.415 . S
C544 C549 1.425 . S
C544 C551 1.409 . S
C545 H537 0.930 . S
C545 C543 1.419 . S
C545 C546 1.362 . S
C546 H538 0.930 . S
C546 C545 1.362 . S
C546 C549 1.409 . S
C547 H539 0.930 . S
C547 C548 1.355 . S
C547 C549 1.415 . S
C548 C547 1.355 . S
C548 C550 1.419 . S
C549 C544 1.425 . S
C549 C546 1.409 . S
C549 C547 1.415 . S
C550 H540 0.930 . S
C550 C548 1.419 . S
C550 C551 1.362 . S
C551 H541 0.930 . S
C551 C544 1.409 . S
C551 C550 1.362 . S
H552 C558 0.930 . S
H553 C561 0.930 . S
H554 C562 0.930 . S
H555 C563 0.930 . S
H556 C566 0.930 . S
H557 C567 0.930 . S
C558 H552 0.930 . S
C558 C559 1.355 . S
C558 C560 1.415 . S
C559 C558 1.355 . S
C559 C561 1.419 . S
C560 C558 1.415 . S
C560 C565 1.425 . S
C560 C567 1.409 . S
C561 H553 0.930 . S
C561 C559 1.419 . S
C561 C562 1.362 . S
C562 H554 0.930 . S
C562 C561 1.362 . S
C562 C565 1.409 . S
C563 H555 0.930 . S
C563 C564 1.355 . S
C563 C565 1.415 . S
C564 C563 1.355 . S
C564 C566 1.419 . S
C565 C560 1.425 . S
C565 C562 1.409 . S
C565 C563 1.415 . S
C566 H556 0.930 . S
C566 C564 1.419 . S
C566 C567 1.362 . S
C567 H557 0.930 . S
C567 C560 1.409 . S
C567 C566 1.362 . S
H568 C574 0.930 . S
H569 C577 0.930 . S
H570 C578 0.930 . S
H571 C579 0.930 . S
H572 C582 0.930 . S
H573 C583 0.930 . S
C574 H568 0.930 . S
C574 C575 1.355 . S
C574 C576 1.415 . S
C575 C574 1.355 . S
C575 C577 1.419 . S
C576 C574 1.415 . S
C576 C581 1.425 . S
C576 C583 1.409 . S
C577 H569 0.930 . S
C577 C575 1.419 . S
C577 C578 1.362 . S
C578 H570 0.930 . S
C578 C577 1.362 . S
C578 C581 1.409 . S
C579 H571 0.930 . S
C579 C580 1.355 . S
C579 C581 1.415 . S
C580 C579 1.355 . S
C580 C582 1.419 . S
C581 C576 1.425 . S
C581 C578 1.409 . S
C581 C579 1.415 . S
C582 H572 0.930 . S
C582 C580 1.419 . S
C582 C583 1.362 . S
C583 H573 0.930 . S
C583 C576 1.409 . S
C583 C582 1.362 . S
C271 N71 1.537 . S
C276 N5 1.543 . S
C287 N38 1.523 . S
C292 N104 1.523 . S
C303 N137 1.524 . S
C308 N203 1.522 . S
C319 N170 1.538 . S
C324 N236 1.543 . S
C335 C107 1.595 . S
C340 N14 1.494 . S
C351 C8 1.596 . S
C356 N47 1.501 . S
C367 N80 1.511 . S
C372 C41 1.596 . S
C383 N113 1.536 . S
C388 C74 1.595 . S
C399 C173 1.588 1_545 S
C404 N146 1.515 . S
C415 C206 1.594 1_655 S
C420 N179 1.493 . S
C431 C239 1.596 1_565 S
C436 N212 1.507 . S
C447 C140 1.589 1_455 S
C452 N245 1.565 . S
C463 C28 1.388 . S
C468 C259 1.387 . S
C479 C61 1.367 . S
C484 C160 1.366 . S
C495 C193 1.380 . S
C500 C94 1.378 . S
C511 C226 1.387 . S
C516 C127 1.388 . S
C527 C83 1.464 . S
C532 C182 1.457 . S
C543 C215 1.460 . S
C548 C116 1.476 . S
C559 C248 1.478 . S
C564 C17 1.449 . S
C575 C149 1.450 . S
C580 C50 1.479 . S
