# Generated by pormake.
# Topology ure, (4)-cn, num edge types: 1
# Building blocks:
#     Node 0, Type 0, BuildingBlock: QUQFOY_clean_sbu_1, # of connection points: 4
#     Node 1, Type 0, BuildingBlock: QUQFOY_clean_sbu_1, # of connection points: 4
#     Node 2, Type 0, BuildingBlock: QUQFOY_clean_sbu_1, # of connection points: 4
#     Node 3, Type 0, BuildingBlock: QUQFOY_clean_sbu_1, # of connection points: 4
#     Node 4, Type 0, BuildingBlock: QUQFOY_clean_sbu_1, # of connection points: 4
#     Node 5, Type 0, BuildingBlock: QUQFOY_clean_sbu_1, # of connection points: 4
#     Node 6, Type 0, BuildingBlock: QUQFOY_clean_sbu_1, # of connection points: 4
#     Node 7, Type 0, BuildingBlock: QUQFOY_clean_sbu_1, # of connection points: 4
#     Node 8, Type 0, BuildingBlock: QUQFOY_clean_sbu_1, # of connection points: 4
#     Node 9, Type 0, BuildingBlock: QUQFOY_clean_sbu_1, # of connection points: 4
#     Node 10, Type 0, BuildingBlock: QUQFOY_clean_sbu_1, # of connection points: 4
#     Node 11, Type 0, BuildingBlock: QUQFOY_clean_sbu_1, # of connection points: 4
#     Node 12, Type 0, BuildingBlock: QUQFOY_clean_sbu_1, # of connection points: 4
#     Node 13, Type 0, BuildingBlock: QUQFOY_clean_sbu_1, # of connection points: 4
#     Node 14, Type 0, BuildingBlock: QUQFOY_clean_sbu_1, # of connection points: 4
#     Node 15, Type 0, BuildingBlock: QUQFOY_clean_sbu_1, # of connection points: 4
#     Edge 16, Type (0, 0), BuildingBlock: AJUNOK_clean_linker_0, # of connection points: 2
#     Edge 17, Type (0, 0), BuildingBlock: AJUNOK_clean_linker_0, # of connection points: 2
#     Edge 18, Type (0, 0), BuildingBlock: AJUNOK_clean_linker_0, # of connection points: 2
#     Edge 19, Type (0, 0), BuildingBlock: AJUNOK_clean_linker_0, # of connection points: 2
#     Edge 20, Type (0, 0), BuildingBlock: AJUNOK_clean_linker_0, # of connection points: 2
#     Edge 21, Type (0, 0), BuildingBlock: AJUNOK_clean_linker_0, # of connection points: 2
#     Edge 22, Type (0, 0), BuildingBlock: AJUNOK_clean_linker_0, # of connection points: 2
#     Edge 23, Type (0, 0), BuildingBlock: AJUNOK_clean_linker_0, # of connection points: 2
#     Edge 24, Type (0, 0), BuildingBlock: AJUNOK_clean_linker_0, # of connection points: 2
#     Edge 25, Type (0, 0), BuildingBlock: AJUNOK_clean_linker_0, # of connection points: 2
#     Edge 26, Type (0, 0), BuildingBlock: AJUNOK_clean_linker_0, # of connection points: 2
#     Edge 27, Type (0, 0), BuildingBlock: AJUNOK_clean_linker_0, # of connection points: 2
#     Edge 28, Type (0, 0), BuildingBlock: AJUNOK_clean_linker_0, # of connection points: 2
#     Edge 29, Type (0, 0), BuildingBlock: AJUNOK_clean_linker_0, # of connection points: 2
#     Edge 30, Type (0, 0), BuildingBlock: AJUNOK_clean_linker_0, # of connection points: 2
#     Edge 31, Type (0, 0), BuildingBlock: AJUNOK_clean_linker_0, # of connection points: 2
#     Edge 32, Type (0, 0), BuildingBlock: AJUNOK_clean_linker_0, # of connection points: 2
#     Edge 33, Type (0, 0), BuildingBlock: AJUNOK_clean_linker_0, # of connection points: 2
#     Edge 34, Type (0, 0), BuildingBlock: AJUNOK_clean_linker_0, # of connection points: 2
#     Edge 35, Type (0, 0), BuildingBlock: AJUNOK_clean_linker_0, # of connection points: 2
#     Edge 36, Type (0, 0), BuildingBlock: AJUNOK_clean_linker_0, # of connection points: 2
#     Edge 37, Type (0, 0), BuildingBlock: AJUNOK_clean_linker_0, # of connection points: 2
#     Edge 38, Type (0, 0), BuildingBlock: AJUNOK_clean_linker_0, # of connection points: 2
#     Edge 39, Type (0, 0), BuildingBlock: AJUNOK_clean_linker_0, # of connection points: 2
#     Edge 40, Type (0, 0), BuildingBlock: AJUNOK_clean_linker_0, # of connection points: 2
#     Edge 41, Type (0, 0), BuildingBlock: AJUNOK_clean_linker_0, # of connection points: 2
#     Edge 42, Type (0, 0), BuildingBlock: AJUNOK_clean_linker_0, # of connection points: 2
#     Edge 43, Type (0, 0), BuildingBlock: AJUNOK_clean_linker_0, # of connection points: 2
#     Edge 44, Type (0, 0), BuildingBlock: AJUNOK_clean_linker_0, # of connection points: 2
#     Edge 45, Type (0, 0), BuildingBlock: AJUNOK_clean_linker_0, # of connection points: 2
#     Edge 46, Type (0, 0), BuildingBlock: AJUNOK_clean_linker_0, # of connection points: 2
#     Edge 47, Type (0, 0), BuildingBlock: AJUNOK_clean_linker_0, # of connection points: 2
# Relax obj value: 0.276
# Max RMSD: 0.318
# Mean RMSD: 0.225
data_MOF--net-ure--node1-QUQFOY_clean_sbu_1--edge1-AJUNOK_clean_linker_0
_symmetry_space_group_name_H-M    P1
_symmetry_Int_Tables_number       1
_symmetry_cell_setting            triclinic
loop_
_symmetry_equiv_pos_as_xyz
'x, y, z'
_cell_length_a     23.244833
_cell_length_b     25.81081
_cell_length_c     24.449532
_cell_angle_alpha  93.503652
_cell_angle_beta   93.956654
_cell_angle_gamma 97.033111
loop_
_atom_site_label
_atom_site_type_symbol
_atom_site_fract_x
_atom_site_fract_y
_atom_site_fract_z
_atom_type_partial_charge
O0 O 0.34402 0.22167 0.25 0.0
Cd1 Cd 0.25914 0.21517 0.26945 0.0
Cd2 Cd 0.28084 0.32871 0.28675 0.0
O3 O 0.3592 0.30786 0.263 0.0
O4 O 0.21735 0.14916 0.23246 0.0
O5 O 0.19739 0.22804 0.21283 0.0
C6 C 0.18687 0.17776 0.20358 0.0
C7 C 0.27195 0.41802 0.27644 0.0
C8 C 0.37738 0.26448 0.25044 0.0
C9 C 0.24092 0.26082 0.38014 0.0
O10 O 0.25197 0.30507 0.36042 0.0
O11 O 0.24345 0.21866 0.3513 0.0
O12 O 0.30957 0.40293 0.31081 0.0
O13 O 0.23833 0.38211 0.24662 0.0
O14 O 0.0253 0.98751 0.58095 0.0
Cd15 Cd 0.99597 0.97526 0.49897 0.0
Cd16 Cd 0.98292 0.08427 0.52674 0.0
O17 O 0.03387 0.07319 0.59642 0.0
O18 O 0.01977 0.90494 0.48065 0.0
O19 O 0.05347 0.97524 0.44019 0.0
C20 C 0.05393 0.926 0.44665 0.0
C21 C 0.981 0.17112 0.50171 0.0
C22 C 0.04061 0.02841 0.61282 0.0
C23 C 0.87612 0.99992 0.50177 0.0
O24 O 0.90027 0.04473 0.52095 0.0
O25 O 0.9064 0.9659 0.48334 0.0
O26 O 0.96217 0.15531 0.54673 0.0
O27 O 0.00377 0.138 0.47096 0.0
O28 O 0.20976 0.78527 0.76549 0.0
Cd29 Cd 0.29886 0.794 0.77663 0.0
Cd30 Cd 0.27214 0.68478 0.78423 0.0
O31 O 0.18985 0.699 0.75545 0.0
O32 O 0.32842 0.85894 0.74174 0.0
O33 O 0.34454 0.77974 0.71173 0.0
C34 C 0.35022 0.82958 0.70605 0.0
C35 C 0.29604 0.59892 0.77609 0.0
C36 C 0.17333 0.74421 0.75605 0.0
C37 C 0.32192 0.75888 0.88571 0.0
O38 O 0.29959 0.71519 0.86224 0.0
O39 O 0.33069 0.79885 0.85815 0.0
O40 O 0.25618 0.61176 0.80609 0.0
O41 O 0.32039 0.63405 0.74684 0.0
O42 O 0.56072 0.97271 0.90395 0.0
Cd43 Cd 0.47413 0.95589 0.91616 0.0
Cd44 Cd 0.51498 0.9751 0.01979 0.0
O45 O 0.58517 0.0135 0.98546 0.0
O46 O 0.42385 0.98481 0.85898 0.0
O47 O 0.43567 0.01537 0.94637 0.0
C48 C 0.41389 0.01919 0.8968 0.0
C49 C 0.49763 1.00025 0.10975 0.0
C50 C 0.59861 0.99915 0.93793 0.0
C51 C 0.4775 0.86251 0.97504 0.0
O52 O 0.50665 0.89508 0.01051 0.0
O53 O 0.45185 0.87846 0.93277 0.0
O54 O 0.54577 0.98447 0.09786 0.0
O55 O 0.45949 0.00496 0.07013 0.0
O56 O 0.26991 0.66991 0.31557 0.0
Cd57 Cd 0.29083 0.75036 0.32458 0.0
Cd58 Cd 0.30441 0.72872 0.21303 0.0
O59 O 0.25365 0.65966 0.22548 0.0
O60 O 0.25097 0.77631 0.38826 0.0
O61 O 0.23482 0.80092 0.30389 0.0
C62 C 0.22347 0.80341 0.35497 0.0
C63 C 0.31508 0.74591 0.12014 0.0
C64 C 0.25406 0.64059 0.27211 0.0
C65 C 0.4094 0.75564 0.3 0.0
O66 O 0.38525 0.73768 0.25349 0.0
O67 O 0.37935 0.77215 0.33722 0.0
O68 O 0.28949 0.77661 0.15114 0.0
O69 O 0.33203 0.70571 0.14137 0.0
O70 O 0.46944 0.95987 0.36439 0.0
Cd71 Cd 0.50396 0.94539 0.44128 0.0
Cd72 Cd 0.53113 0.051 0.45778 0.0
O73 O 0.51575 0.04006 0.37385 0.0
O74 O 0.46427 0.88302 0.47416 0.0
O75 O 0.46743 0.96443 0.50998 0.0
C76 C 0.45264 0.91483 0.51367 0.0
C77 C 0.51291 0.13493 0.48934 0.0
C78 C 0.48698 1.00252 0.3438 0.0
C79 C 0.62501 0.98235 0.4774 0.0
O80 O 0.60458 0.02426 0.49153 0.0
O81 O 0.59284 0.94527 0.44965 0.0
O82 O 0.55884 0.1276 0.46519 0.0
O83 O 0.47739 0.09428 0.49779 0.0
O84 O 0.30776 0.35461 0.81899 0.0
Cd85 Cd 0.2643 0.27997 0.82423 0.0
Cd86 Cd 0.23079 0.28947 0.7117 0.0
O87 O 0.28355 0.3584 0.73065 0.0
O88 O 0.30217 0.24047 0.88142 0.0
O89 O 0.29137 0.21435 0.79288 0.0
C90 C 0.30828 0.20565 0.84267 0.0
C91 C 0.2209 0.27104 0.61538 0.0
C92 C 0.30873 0.37948 0.77557 0.0
C93 C 0.13921 0.2811 0.79686 0.0
O94 O 0.15307 0.28353 0.74761 0.0
O95 O 0.17731 0.27818 0.83593 0.0
O96 O 0.19958 0.30915 0.63907 0.0
O97 O 0.24699 0.2413 0.64662 0.0
O98 O 0.00932 0.03893 0.87225 0.0
Cd99 Cd 0.97115 0.038 0.9458 0.0
Cd100 Cd 0.94926 0.93115 0.91963 0.0
O101 O 0.99413 0.95367 0.85231 0.0
O102 O 0.0022 0.10468 0.9884 0.0
O103 O 0.0182 0.02714 0.01528 0.0
C104 C 0.02608 0.07753 0.02398 0.0
C105 C 0.96553 0.84929 0.95248 0.0
C106 C 0.0143 0.99932 0.84021 0.0
C107 C 0.84644 0.99319 0.93077 0.0
O108 O 0.86509 0.9494 0.92177 0.0
O109 O 0.882 0.0344 0.94249 0.0
O110 O 0.93434 0.85332 0.90781 0.0
O111 O 0.9876 0.89234 0.97978 0.0
O112 O 0.75225 0.14147 0.79595 0.0
Cd113 Cd 0.7733 0.22032 0.81716 0.0
Cd114 Cd 0.80159 0.22975 0.70903 0.0
O115 O 0.79135 0.14991 0.71694 0.0
O116 O 0.72968 0.24008 0.88061 0.0
O117 O 0.7198 0.27351 0.79953 0.0
C118 C 0.70575 0.27159 0.84972 0.0
C119 C 0.79628 0.24846 0.61599 0.0
C120 C 0.76981 0.1211 0.7526 0.0
C121 C 0.89226 0.26837 0.80086 0.0
O122 O 0.8716 0.27267 0.75219 0.0
O123 O 0.86116 0.24467 0.8346 0.0
O124 O 0.83694 0.22513 0.63739 0.0
O125 O 0.75788 0.26251 0.64747 0.0
O126 O 0.99102 0.45856 0.89529 0.0
Cd127 Cd 0.01529 0.45363 0.97671 0.0
Cd128 Cd 0.04959 0.56148 0.97889 0.0
O129 O 0.02654 0.54213 0.89604 0.0
O130 O 0.97148 0.39186 0.00658 0.0
O131 O 0.96621 0.47387 0.03649 0.0
C132 C 0.95099 0.42434 0.04012 0.0
C133 C 0.0309 0.64695 0.00332 0.0
C134 C 0.00262 0.49983 0.87031 0.0
C135 C 0.13888 0.49007 0.0101 0.0
O136 O 0.12439 0.53607 0.01207 0.0
O137 O 0.10219 0.45074 0.99387 0.0
O138 O 0.07532 0.63826 0.97736 0.0
O139 O 0.99839 0.60703 0.01849 0.0
O140 O 0.8114 0.88571 0.30677 0.0
Cd141 Cd 0.78187 0.80933 0.32232 0.0
Cd142 Cd 0.7445 0.79227 0.21363 0.0
O143 O 0.7652 0.87225 0.22465 0.0
O144 O 0.82838 0.7764 0.37943 0.0
O145 O 0.81768 0.74828 0.2914 0.0
C146 C 0.83782 0.7424 0.34102 0.0
C147 C 0.75083 0.76686 0.12057 0.0
C148 C 0.79304 0.90339 0.26225 0.0
C149 C 0.65757 0.77143 0.2977 0.0
O150 O 0.67203 0.76049 0.24953 0.0
O151 O 0.69439 0.79603 0.33388 0.0
O152 O 0.71082 0.79284 0.13682 0.0
O153 O 0.78622 0.75181 0.15751 0.0
O154 O 0.09321 0.50846 0.42833 0.0
Cd155 Cd 0.00424 0.49332 0.42488 0.0
Cd156 Cd 0.02895 0.49054 0.5404 0.0
O157 O 0.10947 0.52201 0.51853 0.0
O158 O 0.97005 0.52951 0.36273 0.0
O159 O 0.95974 0.55116 0.45017 0.0
C160 C 0.95074 0.56021 0.39898 0.0
C161 C 0.01597 0.49839 0.63505 0.0
C162 C 0.12788 0.52145 0.47078 0.0
C163 C 0.97921 0.39025 0.46709 0.0
O164 O 0.99948 0.4148 0.51216 0.0
O165 O 0.97336 0.41434 0.42362 0.0
O166 O 0.05349 0.47151 0.61525 0.0
O167 O 0.98687 0.52374 0.60133 0.0
O168 O 0.52742 0.45884 0.09274 0.0
Cd169 Cd 0.49989 0.45331 0.01042 0.0
Cd170 Cd 0.50246 0.56071 0.04378 0.0
O171 O 0.5556 0.54336 0.10934 0.0
O172 O 0.51527 0.38145 0.98638 0.0
O173 O 0.55676 0.45228 0.9515 0.0
C174 C 0.55128 0.40205 0.95367 0.0
C175 C 0.50285 0.64798 0.02074 0.0
C176 C 0.55078 0.49717 0.1252 0.0
C177 C 0.38728 0.4882 0.02155 0.0
O178 O 0.41774 0.52882 0.0444 0.0
O179 O 0.41135 0.45331 0.99609 0.0
O180 O 0.4906 0.63342 0.06829 0.0
O181 O 0.5194 0.61368 0.98668 0.0
O182 O 0.89084 0.72269 0.75627 0.0
Cd183 Cd 0.80492 0.71975 0.77471 0.0
Cd184 Cd 0.83089 0.82597 0.79371 0.0
O185 O 0.91152 0.80789 0.77427 0.0
O186 O 0.76239 0.65436 0.73736 0.0
O187 O 0.7454 0.73363 0.71635 0.0
C188 C 0.73365 0.68342 0.70746 0.0
C189 C 0.80467 0.90536 0.76446 0.0
C190 C 0.92735 0.7638 0.7607 0.0
C191 C 0.78982 0.7634 0.88828 0.0
O192 O 0.80644 0.80766 0.87058 0.0
O193 O 0.78531 0.72208 0.85642 0.0
O194 O 0.84718 0.90372 0.80055 0.0
O195 O 0.77634 0.86168 0.74378 0.0
O196 O 0.65966 0.30076 0.25846 0.0
Cd197 Cd 0.7482 0.30904 0.27552 0.0
Cd198 Cd 0.72535 0.20065 0.27387 0.0
O199 O 0.64413 0.21486 0.24242 0.0
O200 O 0.78295 0.37328 0.24293 0.0
O201 O 0.79919 0.2933 0.21554 0.0
C202 C 0.80742 0.34317 0.21006 0.0
C203 C 0.75625 0.11891 0.25497 0.0
C204 C 0.62536 0.25917 0.24412 0.0
C205 C 0.76927 0.2668 0.38138 0.0
O206 O 0.7484 0.22417 0.35474 0.0
O207 O 0.77654 0.30903 0.3573 0.0
O208 O 0.71218 0.12402 0.28278 0.0
O209 O 0.78148 0.15973 0.23434 0.0
O210 O 0.53134 0.52898 0.38681 0.0
Cd211 Cd 0.50092 0.54 0.46369 0.0
Cd212 Cd 0.46096 0.43118 0.44591 0.0
O213 O 0.49852 0.44482 0.37363 0.0
O214 O 0.54233 0.60779 0.49666 0.0
O215 O 0.55179 0.53179 0.53127 0.0
C216 C 0.5654 0.58205 0.53412 0.0
C217 C 0.46963 0.34828 0.47781 0.0
C218 C 0.52488 0.48631 0.35695 0.0
C219 C 0.37294 0.507 0.46446 0.0
O220 O 0.38379 0.46029 0.45582 0.0
O221 O 0.41348 0.5451 0.46955 0.0
O222 O 0.43403 0.35437 0.43676 0.0
O223 O 0.49996 0.38964 0.50196 0.0
C224 C 0.13726 0.09872 0.14707 0.0
C225 C 0.14265 0.15314 0.15995 0.0
C226 C 0.09845 0.07448 0.10401 0.0
C227 C 0.0634 0.10362 0.07197 0.0
H228 H 0.16403 0.07453 0.16971 0.0
H229 H 0.09697 0.03269 0.09508 0.0
S230 S 0.05688 0.24669 0.09174 0.0
N231 N 0.10683 0.23504 0.13915 0.0
N232 N 0.03377 0.18954 0.0585 0.0
C233 C 0.06687 0.15785 0.08553 0.0
C234 C 0.10648 0.18257 0.1294 0.0
C235 C 0.1094 0.84926 0.44347 0.0
C236 C 0.09523 0.8949 0.41984 0.0
C237 C 0.15081 0.82027 0.42204 0.0
C238 C 0.17912 0.83498 0.37535 0.0
H239 H 0.08934 0.83627 0.4798 0.0
H240 H 0.16053 0.78582 0.44229 0.0
S241 S 0.15662 0.95024 0.29661 0.0
N242 N 0.1124 0.95314 0.3465 0.0
N243 N 0.18936 0.89767 0.30524 0.0
C244 C 0.16459 0.87984 0.35037 0.0
C245 C 0.12298 0.91007 0.3729 0.0
C246 C 0.40724 0.84055 0.56443 0.0
C247 C 0.42577 0.89449 0.56297 0.0
C248 C 0.384 0.81984 0.61116 0.0
C249 C 0.37805 0.85217 0.65837 0.0
H250 H 0.41069 0.81389 0.52919 0.0
H251 H 0.36981 0.77818 0.60986 0.0
S252 S 0.42335 0.99558 0.67738 0.0
N253 N 0.43873 0.97951 0.61417 0.0
N254 N 0.39492 0.94067 0.70162 0.0
C255 C 0.39696 0.90609 0.65779 0.0
C256 C 0.42078 0.9272 0.61024 0.0
C257 C 0.38718 0.10857 0.92065 0.0
C258 C 0.38274 0.0644 0.8831 0.0
C259 C 0.36291 0.15378 0.90721 0.0
C260 C 0.3332 0.15692 0.85557 0.0
H261 H 0.41078 0.10885 0.96048 0.0
H262 H 0.36832 0.18685 0.93741 0.0
S263 S 0.30367 0.05013 0.74465 0.0
N264 N 0.34239 0.02535 0.79341 0.0
N265 N 0.29699 0.11025 0.76815 0.0
C266 C 0.32691 0.11251 0.81818 0.0
C267 C 0.35155 0.06633 0.83193 0.0
C268 C 0.63288 0.28797 0.91671 0.0
C269 C 0.66381 0.30456 0.87218 0.0
C270 C 0.59531 0.31917 0.94131 0.0
C271 C 0.58787 0.36882 0.92316 0.0
H272 H 0.6379 0.25054 0.93302 0.0
H273 H 0.57318 0.30469 0.97595 0.0
S274 S 0.65782 0.43009 0.80695 0.0
N275 N 0.68327 0.3732 0.8096 0.0
N276 N 0.6135 0.43258 0.85678 0.0
C277 C 0.61789 0.38571 0.8781 0.0
C278 C 0.65554 0.35337 0.85233 0.0
C279 C 0.90969 0.35201 0.09516 0.0
C280 C 0.91291 0.40481 0.08274 0.0
C281 C 0.87566 0.33257 0.13635 0.0
C282 C 0.84329 0.36506 0.16684 0.0
H283 H 0.93424 0.32542 0.07338 0.0
H284 H 0.87509 0.29173 0.14448 0.0
S285 S 0.83353 0.50558 0.14783 0.0
N286 N 0.87877 0.4888 0.10271 0.0
N287 N 0.8147 0.45239 0.17993 0.0
C288 C 0.84543 0.41783 0.1543 0.0
C289 C 0.88023 0.43765 0.11236 0.0
C290 C 0.90358 0.64029 0.42325 0.0
C291 C 0.92133 0.60585 0.38264 0.0
C292 C 0.87769 0.68462 0.40941 0.0
C293 C 0.86809 0.69648 0.35429 0.0
H294 H 0.90987 0.63318 0.46632 0.0
H295 H 0.86453 0.70946 0.44237 0.0
S296 S 0.90797 0.6201 0.23204 0.0
N297 N 0.92833 0.58756 0.28458 0.0
N298 N 0.87955 0.67051 0.25877 0.0
C299 C 0.8858 0.66257 0.31319 0.0
C300 C 0.91238 0.61744 0.32728 0.0
C301 C 0.63617 0.57989 0.61548 0.0
C302 C 0.60678 0.60926 0.57867 0.0
C303 C 0.67659 0.60433 0.65709 0.0
C304 C 0.68925 0.65922 0.66383 0.0
H305 H 0.62842 0.53753 0.61194 0.0
H306 H 0.69829 0.57974 0.68399 0.0
S307 S 0.62273 0.75441 0.57943 0.0
N308 N 0.59213 0.69656 0.55249 0.0
N309 N 0.66802 0.7424 0.63075 0.0
C310 C 0.65959 0.68921 0.62782 0.0
C311 C 0.61844 0.66428 0.58525 0.0
C312 C 0.24967 0.22186 0.47117 0.0
C313 C 0.22845 0.25942 0.43848 0.0
C314 C 0.24532 0.22464 0.52827 0.0
C315 C 0.21894 0.26469 0.55447 0.0
H316 H 0.27225 0.19161 0.45295 0.0
H317 H 0.26436 0.19616 0.55214 0.0
S318 S 0.14991 0.36867 0.48547 0.0
N319 N 0.17595 0.3351 0.43531 0.0
N320 N 0.16653 0.34001 0.54193 0.0
C321 C 0.19459 0.3007 0.52147 0.0
C322 C 0.19971 0.29818 0.46366 0.0
C323 C 0.04553 0.05789 0.7664 0.0
C324 C 0.03727 0.00725 0.7855 0.0
C325 C 0.05373 0.06542 0.71092 0.0
C326 C 0.05375 0.02248 0.67242 0.0
H327 H 0.04128 0.0919 0.79341 0.0
H328 H 0.05467 0.10466 0.69747 0.0
S329 S 0.05169 0.88366 0.70448 0.0
N330 N 0.04225 0.91481 0.76352 0.0
N331 N 0.0586 0.92897 0.65991 0.0
C332 C 0.05372 0.97257 0.69255 0.0
C333 C 0.04493 0.96484 0.74884 0.0
C334 C 0.34068 0.71556 0.97145 0.0
C335 C 0.33149 0.76172 0.9463 0.0
C336 C 0.33707 0.71188 0.02779 0.0
C337 C 0.32348 0.75405 0.0616 0.0
H338 H 0.34873 0.68109 0.94701 0.0
H339 H 0.34292 0.67476 0.04443 0.0
S340 S 0.30405 0.88627 0.01757 0.0
N341 N 0.31446 0.8525 0.96025 0.0
N342 N 0.30753 0.8456 0.067 0.0
C343 C 0.31788 0.80167 0.0378 0.0
C344 C 0.32211 0.80556 0.97998 0.0
C345 C 0.52597 0.03908 0.26032 0.0
C346 C 0.48221 0.00679 0.28367 0.0
C347 C 0.52865 0.03892 0.20345 0.0
C348 C 0.48634 0.00828 0.16772 0.0
H349 H 0.56059 0.06247 0.28611 0.0
H350 H 0.56518 0.06171 0.1873 0.0
S351 S 0.3605 0.91972 0.20709 0.0
N352 N 0.39428 0.94471 0.2663 0.0
N353 N 0.39805 0.94646 0.1587 0.0
C354 C 0.44046 0.97806 0.19003 0.0
C355 C 0.43867 0.97685 0.24824 0.0
C356 C 0.48023 0.30473 0.2678 0.0
C357 C 0.43981 0.26411 0.24214 0.0
C358 C 0.53997 0.30408 0.26528 0.0
C359 C 0.56201 0.26207 0.23792 0.0
H360 H 0.46572 0.33614 0.29246 0.0
H361 H 0.56904 0.33559 0.28751 0.0
S362 S 0.47434 0.14857 0.1589 0.0
N363 N 0.42562 0.1828 0.18441 0.0
N364 N 0.53852 0.18063 0.1808 0.0
C365 C 0.52211 0.22189 0.21038 0.0
C366 C 0.46092 0.22301 0.21239 0.0
C367 C 0.94574 0.31066 0.51315 0.0
C368 C 0.96861 0.33263 0.46688 0.0
C369 C 0.94904 0.25832 0.52294 0.0
C370 C 0.97535 0.22541 0.48689 0.0
H371 H 0.92751 0.33488 0.54358 0.0
H372 H 0.93226 0.24416 0.56025 0.0
S373 S 0.03922 0.26335 0.35785 0.0
N374 N 0.01632 0.31735 0.38316 0.0
N375 N 0.02199 0.21819 0.40107 0.0
C376 C 0.99595 0.24617 0.43887 0.0
C377 C 0.9925 0.2999 0.42888 0.0
C378 C 0.00965 0.72379 0.71976 0.0
C379 C 0.99005 0.75968 0.75773 0.0
C380 C 0.0692 0.71852 0.71885 0.0
C381 C 0.1108 0.74962 0.75537 0.0
H382 H 0.97886 0.69986 0.6905 0.0
H383 H 0.08278 0.69044 0.68921 0.0
S384 S 0.0814 0.84472 0.86666 0.0
N385 N 0.01691 0.82331 0.83546 0.0
N386 N 0.12799 0.81428 0.83306 0.0
C387 C 0.09152 0.78478 0.794 0.0
C388 C 0.03135 0.78962 0.79534 0.0
C389 C 0.49156 0.74014 0.04901 0.0
C390 C 0.49552 0.7019 0.0064 0.0
C391 C 0.48306 0.7912 0.0379 0.0
C392 C 0.47752 0.8063 0.98368 0.0
H393 H 0.49571 0.73084 0.09161 0.0
H394 H 0.48154 0.81938 0.07233 0.0
S395 S 0.47982 0.72035 0.85694 0.0
N396 N 0.4898 0.68187 0.90743 0.0
N397 N 0.47389 0.77851 0.88662 0.0
C398 C 0.47949 0.76828 0.94043 0.0
C399 C 0.48868 0.71599 0.95177 0.0
C400 C 0.56969 0.79691 0.34132 0.0
C401 C 0.59566 0.76088 0.3084 0.0
C402 C 0.50883 0.79372 0.34158 0.0
C403 C 0.47261 0.75423 0.30915 0.0
H404 H 0.59624 0.82976 0.36399 0.0
H405 H 0.49019 0.82398 0.36448 0.0
S406 S 0.51969 0.64465 0.2248 0.0
N407 N 0.5807 0.68101 0.24855 0.0
N408 N 0.46722 0.67372 0.25054 0.0
C409 C 0.49845 0.71536 0.28032 0.0
C410 C 0.55981 0.71902 0.27951 0.0
C411 C 0.44344 0.20095 0.48339 0.0
C412 C 0.49898 0.18874 0.49995 0.0
C413 C 0.43336 0.25316 0.4793 0.0
C414 C 0.47815 0.29487 0.49286 0.0
H415 H 0.40871 0.17003 0.46957 0.0
H416 H 0.39085 0.26077 0.46314 0.0
S417 S 0.62878 0.28318 0.5465 0.0
N418 N 0.5976 0.22211 0.5352 0.0
N419 N 0.57825 0.32027 0.52943 0.0
C420 C 0.53245 0.28312 0.514 0.0
C421 C 0.543 0.22998 0.51696 0.0
C422 C 0.0459 0.31426 0.77316 0.0
C423 C 0.07817 0.28495 0.80755 0.0
C424 C 0.98611 0.31335 0.77595 0.0
C425 C 0.9558 0.28217 0.81251 0.0
H426 H 0.06668 0.33672 0.74228 0.0
H427 H 0.96297 0.33456 0.74649 0.0
S428 S 0.02197 0.20468 0.91731 0.0
N429 N 0.07741 0.22959 0.88436 0.0
N430 N 0.96388 0.22648 0.88885 0.0
C431 C 0.98831 0.25637 0.85064 0.0
C432 C 0.04982 0.25793 0.84819 0.0
C433 C 0.017 0.7924 0.01538 0.0
C434 C 0.97781 0.79693 0.96962 0.0
C435 C 0.03276 0.74334 0.02876 0.0
C436 C 0.00826 0.69727 0.99787 0.0
H437 H 0.03726 0.82708 0.03982 0.0
H438 H 0.06517 0.74157 0.06239 0.0
S439 S 0.90713 0.68655 0.8737 0.0
N440 N 0.91774 0.74972 0.89239 0.0
N441 N 0.94513 0.65848 0.91992 0.0
C442 C 0.96847 0.70096 0.95334 0.0
C443 C 0.95369 0.75049 0.93864 0.0
C444 C 0.21659 0.49236 0.25042 0.0
C445 C 0.26753 0.47472 0.27317 0.0
C446 C 0.21129 0.54623 0.25055 0.0
C447 C 0.25637 0.58385 0.27432 0.0
H448 H 0.18043 0.46445 0.23295 0.0
H449 H 0.17181 0.55848 0.2323 0.0
S450 S 0.40143 0.55896 0.33172 0.0
N451 N 0.36608 0.50018 0.31457 0.0
N452 N 0.35523 0.60039 0.31604 0.0
C453 C 0.30786 0.56678 0.29567 0.0
C454 C 0.31369 0.51249 0.29477 0.0
C455 C 0.73122 0.02794 0.76665 0.0
C456 C 0.77378 0.06425 0.74715 0.0
C457 C 0.73832 0.97461 0.76653 0.0
C458 C 0.78932 0.95657 0.74944 0.0
H459 H 0.69282 0.04092 0.78295 0.0
H460 H 0.70509 0.94806 0.78252 0.0
S461 S 0.90965 0.03402 0.6882 0.0
N462 N 0.86551 0.07696 0.70443 0.0
N463 N 0.87963 0.97734 0.70719 0.0
C464 C 0.83049 0.99179 0.72732 0.0
C465 C 0.82264 0.04556 0.72571 0.0
C466 C 0.28608 0.44708 0.98923 0.0
C467 C 0.32342 0.4836 0.02438 0.0
C468 C 0.22559 0.44705 0.98726 0.0
C469 C 0.20067 0.48362 0.02029 0.0
H470 H 0.30366 0.41976 0.96154 0.0
H471 H 0.19848 0.42016 0.95757 0.0
S472 S 0.27818 0.58077 0.12611 0.0
N473 N 0.33005 0.55235 0.09849 0.0
N474 N 0.21674 0.55254 0.09365 0.0
C475 C 0.23707 0.51776 0.05813 0.0
C476 C 0.29836 0.51764 0.06052 0.0
C477 C 0.75299 0.03026 0.20903 0.0
C478 C 0.77791 0.06784 0.25028 0.0
C479 C 0.76203 0.97775 0.21138 0.0
C480 C 0.79533 0.96062 0.25583 0.0
H481 H 0.7238 0.04099 0.17632 0.0
H482 H 0.73965 0.95 0.17958 0.0
S483 S 0.87594 0.04641 0.37045 0.0
N484 N 0.84179 0.08655 0.33367 0.0
N485 N 0.85853 0.98757 0.33885 0.0
C486 C 0.82354 0.99883 0.29551 0.0
C487 C 0.81468 0.05249 0.29265 0.0
C488 C 0.76126 0.04107 0.94964 0.0
C489 C 0.78282 0.9961 0.92772 0.0
C490 C 0.70125 0.04325 0.95052 0.0
C491 C 0.66071 1.00116 0.92809 0.0
H492 H 0.79086 0.0742 0.96804 0.0
H493 H 0.68649 0.07753 0.97004 0.0
S494 S 0.69359 0.87509 0.86423 0.0
N495 N 0.75784 0.90898 0.8819 0.0
N496 N 0.64579 0.91365 0.88271 0.0
C497 C 0.68149 0.95688 0.90423 0.0
C498 C 0.74233 0.95418 0.90432 0.0
C499 C 0.30831 0.51946 0.82597 0.0
C500 C 0.31311 0.54568 0.77732 0.0
C501 C 0.31463 0.46627 0.82695 0.0
C502 C 0.32473 0.43701 0.77896 0.0
H503 H 0.29693 0.53963 0.86311 0.0
H504 H 0.30623 0.44713 0.8643 0.0
S505 S 0.35007 0.48931 0.64322 0.0
N506 N 0.33643 0.54038 0.68203 0.0
N507 N 0.347 0.43986 0.68321 0.0
C508 C 0.33483 0.46393 0.7313 0.0
C509 C 0.32923 0.51842 0.73059 0.0
C510 C 0.21165 0.49174 0.42625 0.0
C511 C 0.19104 0.52556 0.46547 0.0
C512 C 0.27069 0.48654 0.42645 0.0
C513 C 0.31173 0.51645 0.46422 0.0
H514 H 0.18165 0.46667 0.39719 0.0
H515 H 0.28423 0.45811 0.39733 0.0
S516 S 0.28097 0.61383 0.57249 0.0
N517 N 0.21638 0.59087 0.54209 0.0
N518 N 0.32851 0.58332 0.53994 0.0
C519 C 0.29235 0.55259 0.50175 0.0
C520 C 0.23168 0.55659 0.50296 0.0
C521 C 0.76397 0.80579 0.97584 0.0
C522 C 0.77818 0.76086 0.9471 0.0
C523 C 0.75404 0.80628 0.03142 0.0
C524 C 0.76017 0.76249 0.06156 0.0
H525 H 0.76066 0.8413 0.95558 0.0
H526 H 0.74298 0.84203 0.05136 0.0
S527 S 0.79987 0.63548 0.00771 0.0
N528 N 0.79838 0.67091 0.95368 0.0
N529 N 0.78317 0.6732 0.05984 0.0
C530 C 0.77572 0.71744 0.0343 0.0
C531 C 0.78382 0.71625 0.97668 0.0
C532 C 0.50778 0.44968 0.2604 0.0
C533 C 0.54056 0.48574 0.29932 0.0
C534 C 0.51556 0.45105 0.20451 0.0
C535 C 0.55558 0.48952 0.18473 0.0
H536 H 0.47305 0.42209 0.27271 0.0
H537 H 0.4867 0.42394 0.17642 0.0
S538 S 0.65959 0.58734 0.27018 0.0
N539 N 0.62023 0.55674 0.31506 0.0
N540 N 0.63375 0.56049 0.20888 0.0
C541 C 0.59124 0.52406 0.22325 0.0
C542 C 0.58383 0.52208 0.28076 0.0
C543 C 0.7726 0.30654 0.47817 0.0
C544 C 0.78309 0.26551 0.44106 0.0
C545 C 0.77689 0.3012 0.53521 0.0
C546 C 0.79253 0.25503 0.55648 0.0
H547 H 0.75865 0.34193 0.46304 0.0
H548 H 0.76751 0.33307 0.56272 0.0
S549 S 0.82786 0.13794 0.47652 0.0
N550 N 0.81266 0.17863 0.42979 0.0
N551 N 0.82066 0.16875 0.53629 0.0
C552 C 0.80516 0.21477 0.51978 0.0
C553 C 0.80052 0.22001 0.46221 0.0
C554 C 0.02752 0.45851 0.72463 0.0
C555 C 0.00658 0.49797 0.69431 0.0
C556 C 0.02272 0.45779 0.78126 0.0
C557 C 0.99758 0.49688 0.80989 0.0
H558 H 0.04866 0.42817 0.70467 0.0
H559 H 0.04138 0.42787 0.80322 0.0
S560 S 0.9303 0.60528 0.74982 0.0
N561 N 0.95494 0.57445 0.69683 0.0
N562 N 0.94768 0.57377 0.80415 0.0
C563 C 0.97463 0.53548 0.78022 0.0
C564 C 0.97852 0.53576 0.72215 0.0
C565 C 0.7797 0.95354 0.46064 0.0
C566 C 0.81189 0.98914 0.50064 0.0
C567 C 0.71857 0.94895 0.45508 0.0
C568 C 0.68787 0.97981 0.48942 0.0
H569 H 0.80183 0.93098 0.43181 0.0
H570 H 0.69553 0.92312 0.42196 0.0
S571 S 0.75124 0.07292 0.60545 0.0
N572 N 0.80785 0.05106 0.57909 0.0
N573 N 0.69383 0.04261 0.56826 0.0
C574 C 0.71948 0.01278 0.53171 0.0
C575 C 0.78124 0.01738 0.53744 0.0
loop_
_geom_bond_atom_site_label_1
_geom_bond_atom_site_label_2
_geom_bond_distance
_geom_bond_site_symmetry_2
_ccdc_geom_bond_type
O0 Cd1 2.223 . S
O0 C8 1.315 . S
Cd1 O0 2.223 . S
Cd1 O4 2.297 . S
Cd1 O5 2.439 . S
Cd1 O11 2.240 . S
Cd2 O3 2.240 . S
Cd2 O10 2.223 . S
Cd2 O12 2.297 . S
Cd2 O13 2.439 . S
O3 Cd2 2.240 . S
O3 C8 1.279 . S
O4 Cd1 2.297 . S
O4 C6 1.247 . S
O5 Cd1 2.439 . S
O5 C6 1.208 . S
C6 O4 1.247 . S
C6 O5 1.208 . S
C7 O12 1.247 . S
C7 O13 1.208 . S
C8 O0 1.315 . S
C8 O3 1.279 . S
C9 O10 1.315 . S
C9 O11 1.279 . S
O10 Cd2 2.223 . S
O10 C9 1.315 . S
O11 Cd1 2.240 . S
O11 C9 1.279 . S
O12 Cd2 2.297 . S
O12 C7 1.247 . S
O13 Cd2 2.439 . S
O13 C7 1.208 . S
O14 Cd15 2.223 . S
O14 C22 1.315 . S
Cd15 O14 2.223 . S
Cd15 O18 2.297 1_655 S
Cd15 O19 2.439 1_655 S
Cd15 O25 2.240 1_565 S
Cd16 O17 2.240 1_655 S
Cd16 O24 2.223 . S
Cd16 O26 2.297 . S
Cd16 O27 2.439 1_655 S
O17 Cd16 2.240 1_455 S
O17 C22 1.279 1_445 S
O18 Cd15 2.297 1_455 S
O18 C20 1.247 . S
O19 Cd15 2.439 1_455 S
O19 C20 1.208 . S
C20 O18 1.247 . S
C20 O19 1.208 . S
C21 O26 1.247 . S
C21 O27 1.208 1_655 S
C22 O14 1.315 . S
C22 O17 1.279 1_665 S
C23 O24 1.315 . S
C23 O25 1.279 . S
O24 Cd16 2.223 . S
O24 C23 1.315 . S
O25 Cd15 2.240 1_545 S
O25 C23 1.279 . S
O26 Cd16 2.297 . S
O26 C21 1.247 . S
O27 Cd16 2.439 1_455 S
O27 C21 1.208 1_455 S
O28 Cd29 2.223 . S
O28 C36 1.315 . S
Cd29 O28 2.223 . S
Cd29 O32 2.297 . S
Cd29 O33 2.439 . S
Cd29 O39 2.240 . S
Cd30 O31 2.240 . S
Cd30 O38 2.223 . S
Cd30 O40 2.297 . S
Cd30 O41 2.439 . S
O31 Cd30 2.240 . S
O31 C36 1.279 . S
O32 Cd29 2.297 . S
O32 C34 1.247 . S
O33 Cd29 2.439 . S
O33 C34 1.208 . S
C34 O32 1.247 . S
C34 O33 1.208 . S
C35 O40 1.247 . S
C35 O41 1.208 . S
C36 O28 1.315 . S
C36 O31 1.279 . S
C37 O38 1.315 . S
C37 O39 1.279 . S
O38 Cd30 2.223 . S
O38 C37 1.315 . S
O39 Cd29 2.240 . S
O39 C37 1.279 . S
O40 Cd30 2.297 . S
O40 C35 1.247 . S
O41 Cd30 2.439 . S
O41 C35 1.208 . S
O42 Cd43 2.223 . S
O42 C50 1.315 . S
Cd43 O42 2.223 . S
Cd43 O46 2.309 . S
Cd43 O47 2.439 1_565 S
Cd43 O53 2.240 . S
Cd44 O45 2.240 1_554 S
Cd44 O52 2.223 . S
Cd44 O54 2.297 . S
Cd44 O55 2.439 . S
O45 Cd44 2.240 1_556 S
O45 C50 1.279 . S
O46 Cd43 2.309 . S
O46 C48 1.239 1_565 S
O47 Cd43 2.439 1_545 S
O47 C48 1.208 . S
C48 O46 1.239 1_545 S
C48 O47 1.208 . S
C49 O54 1.247 . S
C49 O55 1.208 . S
C50 O42 1.315 . S
C50 O45 1.279 . S
C51 O52 1.315 . S
C51 O53 1.279 1_554 S
O52 Cd44 2.223 . S
O52 C51 1.315 . S
O53 Cd43 2.240 . S
O53 C51 1.279 1_556 S
O54 Cd44 2.297 . S
O54 C49 1.247 . S
O55 Cd44 2.439 . S
O55 C49 1.208 . S
O56 Cd57 2.223 . S
O56 C64 1.315 . S
Cd57 O56 2.223 . S
Cd57 O60 2.297 . S
Cd57 O61 2.439 . S
Cd57 O67 2.240 . S
Cd58 O59 2.240 . S
Cd58 O66 2.223 . S
Cd58 O68 2.297 . S
Cd58 O69 2.439 . S
O59 Cd58 2.240 . S
O59 C64 1.279 . S
O60 Cd57 2.297 . S
O60 C62 1.247 . S
O61 Cd57 2.439 . S
O61 C62 1.208 . S
C62 O60 1.247 . S
C62 O61 1.208 . S
C63 O68 1.247 . S
C63 O69 1.208 . S
C64 O56 1.315 . S
C64 O59 1.279 . S
C65 O66 1.315 . S
C65 O67 1.279 . S
O66 Cd58 2.223 . S
O66 C65 1.315 . S
O67 Cd57 2.240 . S
O67 C65 1.279 . S
O68 Cd58 2.297 . S
O68 C63 1.247 . S
O69 Cd58 2.439 . S
O69 C63 1.208 . S
O70 Cd71 2.223 . S
O70 C78 1.315 . S
Cd71 O70 2.223 . S
Cd71 O74 2.297 . S
Cd71 O75 2.439 . S
Cd71 O81 2.240 1_565 S
Cd72 O73 2.240 1_545 S
Cd72 O80 2.223 . S
Cd72 O82 2.297 . S
Cd72 O83 2.439 . S
O73 Cd72 2.240 1_565 S
O73 C78 1.279 . S
O74 Cd71 2.297 . S
O74 C76 1.247 . S
O75 Cd71 2.439 . S
O75 C76 1.208 . S
C76 O74 1.247 . S
C76 O75 1.208 . S
C77 O82 1.247 . S
C77 O83 1.208 . S
C78 O70 1.315 . S
C78 O73 1.279 . S
C79 O80 1.315 . S
C79 O81 1.279 . S
O80 Cd72 2.223 . S
O80 C79 1.315 . S
O81 Cd71 2.240 1_545 S
O81 C79 1.279 . S
O82 Cd72 2.297 . S
O82 C77 1.247 . S
O83 Cd72 2.439 . S
O83 C77 1.208 . S
O84 Cd85 2.223 . S
O84 C92 1.315 . S
Cd85 O84 2.223 . S
Cd85 O88 2.297 . S
Cd85 O89 2.439 . S
Cd85 O95 2.240 . S
Cd86 O87 2.240 . S
Cd86 O94 2.223 . S
Cd86 O96 2.297 . S
Cd86 O97 2.439 . S
O87 Cd86 2.240 . S
O87 C92 1.279 . S
O88 Cd85 2.297 . S
O88 C90 1.247 . S
O89 Cd85 2.439 . S
O89 C90 1.208 . S
C90 O88 1.247 . S
C90 O89 1.208 . S
C91 O96 1.247 . S
C91 O97 1.208 . S
C92 O84 1.315 . S
C92 O87 1.279 . S
C93 O94 1.315 . S
C93 O95 1.279 . S
O94 Cd86 2.223 . S
O94 C93 1.315 . S
O95 Cd85 2.240 . S
O95 C93 1.279 . S
O96 Cd86 2.297 . S
O96 C91 1.247 . S
O97 Cd86 2.439 . S
O97 C91 1.208 . S
O98 Cd99 2.223 . S
O98 C106 1.315 . S
Cd99 O98 2.223 . S
Cd99 O102 2.298 1_655 S
Cd99 O103 2.439 1_656 S
Cd99 O109 2.240 1_545 S
Cd100 O101 2.240 1_655 S
Cd100 O108 2.223 . S
Cd100 O110 2.297 . S
Cd100 O111 2.439 1_655 S
O101 Cd100 2.240 1_455 S
O101 C106 1.279 1_465 S
O102 Cd99 2.298 1_455 S
O102 C104 1.244 1_556 S
O103 Cd99 2.439 1_454 S
O103 C104 1.208 . S
C104 O102 1.244 1_554 S
C104 O103 1.208 . S
C105 O110 1.247 . S
C105 O111 1.208 1_655 S
C106 O98 1.315 . S
C106 O101 1.279 1_645 S
C107 O108 1.315 . S
C107 O109 1.279 . S
O108 Cd100 2.223 . S
O108 C107 1.315 . S
O109 Cd99 2.240 1_565 S
O109 C107 1.279 . S
O110 Cd100 2.297 . S
O110 C105 1.247 . S
O111 Cd100 2.439 1_455 S
O111 C105 1.208 1_455 S
O112 Cd113 2.223 . S
O112 C120 1.315 . S
Cd113 O112 2.223 . S
Cd113 O116 2.297 . S
Cd113 O117 2.439 . S
Cd113 O123 2.240 . S
Cd114 O115 2.240 . S
Cd114 O122 2.223 . S
Cd114 O124 2.297 . S
Cd114 O125 2.439 . S
O115 Cd114 2.240 . S
O115 C120 1.279 . S
O116 Cd113 2.297 . S
O116 C118 1.247 . S
O117 Cd113 2.439 . S
O117 C118 1.208 . S
C118 O116 1.247 . S
C118 O117 1.208 . S
C119 O124 1.247 . S
C119 O125 1.208 . S
C120 O112 1.315 . S
C120 O115 1.279 . S
C121 O122 1.315 . S
C121 O123 1.279 . S
O122 Cd114 2.223 . S
O122 C121 1.315 . S
O123 Cd113 2.240 . S
O123 C121 1.279 . S
O124 Cd114 2.297 . S
O124 C119 1.247 . S
O125 Cd114 2.439 . S
O125 C119 1.208 . S
O126 Cd127 2.223 1_556 S
O126 C134 1.315 1_455 S
Cd127 O126 2.223 1_554 S
Cd127 O130 2.297 1_455 S
Cd127 O131 2.439 1_455 S
Cd127 O137 2.240 . S
Cd128 O129 2.240 1_455 S
Cd128 O136 2.223 . S
Cd128 O138 2.297 . S
Cd128 O139 2.439 1_456 S
O129 Cd128 2.240 1_655 S
O129 C134 1.279 . S
O130 Cd127 2.297 1_655 S
O130 C132 1.247 . S
O131 Cd127 2.439 1_655 S
O131 C132 1.208 . S
C132 O130 1.247 . S
C132 O131 1.208 . S
C133 O138 1.247 1_654 S
C133 O139 1.208 . S
C134 O126 1.315 1_655 S
C134 O129 1.279 . S
C135 O136 1.315 . S
C135 O137 1.279 1_556 S
O136 Cd128 2.223 . S
O136 C135 1.315 . S
O137 Cd127 2.240 . S
O137 C135 1.279 1_554 S
O138 Cd128 2.297 . S
O138 C133 1.247 1_456 S
O139 Cd128 2.439 1_654 S
O139 C133 1.208 . S
O140 Cd141 2.223 . S
O140 C148 1.315 . S
Cd141 O140 2.223 . S
Cd141 O144 2.297 . S
Cd141 O145 2.439 . S
Cd141 O151 2.240 . S
Cd142 O143 2.240 . S
Cd142 O150 2.223 . S
Cd142 O152 2.297 . S
Cd142 O153 2.439 . S
O143 Cd142 2.240 . S
O143 C148 1.279 . S
O144 Cd141 2.297 . S
O144 C146 1.247 . S
O145 Cd141 2.439 . S
O145 C146 1.208 . S
C146 O144 1.247 . S
C146 O145 1.208 . S
C147 O152 1.247 . S
C147 O153 1.208 . S
C148 O140 1.315 . S
C148 O143 1.279 . S
C149 O150 1.315 . S
C149 O151 1.279 . S
O150 Cd142 2.223 . S
O150 C149 1.315 . S
O151 Cd141 2.240 . S
O151 C149 1.279 . S
O152 Cd142 2.297 . S
O152 C147 1.247 . S
O153 Cd142 2.439 . S
O153 C147 1.208 . S
O154 Cd155 2.223 1_455 S
O154 C162 1.315 . S
Cd155 O154 2.223 1_655 S
Cd155 O158 2.297 . S
Cd155 O159 2.439 . S
Cd155 O165 2.240 . S
Cd156 O157 2.240 . S
Cd156 O164 2.223 . S
Cd156 O166 2.297 . S
Cd156 O167 2.439 1_455 S
O157 Cd156 2.240 . S
O157 C162 1.279 . S
O158 Cd155 2.297 . S
O158 C160 1.247 . S
O159 Cd155 2.439 . S
O159 C160 1.208 . S
C160 O158 1.247 . S
C160 O159 1.208 . S
C161 O166 1.247 1_655 S
C161 O167 1.208 . S
C162 O154 1.315 . S
C162 O157 1.279 . S
C163 O164 1.315 . S
C163 O165 1.279 1_455 S
O164 Cd156 2.223 . S
O164 C163 1.315 . S
O165 Cd155 2.240 . S
O165 C163 1.279 1_655 S
O166 Cd156 2.297 . S
O166 C161 1.247 1_455 S
O167 Cd156 2.439 1_655 S
O167 C161 1.208 . S
O168 Cd169 2.223 1_554 S
O168 C176 1.315 . S
Cd169 O168 2.223 1_556 S
Cd169 O172 2.297 . S
Cd169 O173 2.439 . S
Cd169 O179 2.240 . S
Cd170 O171 2.240 . S
Cd170 O178 2.223 . S
Cd170 O180 2.297 . S
Cd170 O181 2.439 1_554 S
O171 Cd170 2.240 . S
O171 C176 1.279 . S
O172 Cd169 2.297 . S
O172 C174 1.247 . S
O173 Cd169 2.439 . S
O173 C174 1.208 . S
C174 O172 1.247 . S
C174 O173 1.208 . S
C175 O180 1.247 1_556 S
C175 O181 1.208 . S
C176 O168 1.315 . S
C176 O171 1.279 . S
C177 O178 1.315 . S
C177 O179 1.279 1_554 S
O178 Cd170 2.223 . S
O178 C177 1.315 . S
O179 Cd169 2.240 . S
O179 C177 1.279 1_556 S
O180 Cd170 2.297 . S
O180 C175 1.247 1_554 S
O181 Cd170 2.439 1_556 S
O181 C175 1.208 . S
O182 Cd183 2.223 . S
O182 C190 1.315 . S
Cd183 O182 2.223 . S
Cd183 O186 2.297 . S
Cd183 O187 2.439 . S
Cd183 O193 2.240 . S
Cd184 O185 2.240 . S
Cd184 O192 2.223 . S
Cd184 O194 2.297 . S
Cd184 O195 2.439 . S
O185 Cd184 2.240 . S
O185 C190 1.279 . S
O186 Cd183 2.297 . S
O186 C188 1.247 . S
O187 Cd183 2.439 . S
O187 C188 1.208 . S
C188 O186 1.247 . S
C188 O187 1.208 . S
C189 O194 1.247 . S
C189 O195 1.208 . S
C190 O182 1.315 . S
C190 O185 1.279 . S
C191 O192 1.315 . S
C191 O193 1.279 . S
O192 Cd184 2.223 . S
O192 C191 1.315 . S
O193 Cd183 2.240 . S
O193 C191 1.279 . S
O194 Cd184 2.297 . S
O194 C189 1.247 . S
O195 Cd184 2.439 . S
O195 C189 1.208 . S
O196 Cd197 2.223 . S
O196 C204 1.315 . S
Cd197 O196 2.223 . S
Cd197 O200 2.297 . S
Cd197 O201 2.439 . S
Cd197 O207 2.240 . S
Cd198 O199 2.240 . S
Cd198 O206 2.223 . S
Cd198 O208 2.297 . S
Cd198 O209 2.439 . S
O199 Cd198 2.240 . S
O199 C204 1.279 . S
O200 Cd197 2.297 . S
O200 C202 1.247 . S
O201 Cd197 2.439 . S
O201 C202 1.208 . S
C202 O200 1.247 . S
C202 O201 1.208 . S
C203 O208 1.247 . S
C203 O209 1.208 . S
C204 O196 1.315 . S
C204 O199 1.279 . S
C205 O206 1.315 . S
C205 O207 1.279 . S
O206 Cd198 2.223 . S
O206 C205 1.315 . S
O207 Cd197 2.240 . S
O207 C205 1.279 . S
O208 Cd198 2.297 . S
O208 C203 1.247 . S
O209 Cd198 2.439 . S
O209 C203 1.208 . S
O210 Cd211 2.223 . S
O210 C218 1.315 . S
Cd211 O210 2.223 . S
Cd211 O214 2.297 . S
Cd211 O215 2.439 . S
Cd211 O221 2.240 . S
Cd212 O213 2.240 . S
Cd212 O220 2.223 . S
Cd212 O222 2.297 . S
Cd212 O223 2.439 . S
O213 Cd212 2.240 . S
O213 C218 1.279 . S
O214 Cd211 2.297 . S
O214 C216 1.247 . S
O215 Cd211 2.439 . S
O215 C216 1.208 . S
C216 O214 1.247 . S
C216 O215 1.208 . S
C217 O222 1.247 . S
C217 O223 1.208 . S
C218 O210 1.315 . S
C218 O213 1.279 . S
C219 O220 1.315 . S
C219 O221 1.279 . S
O220 Cd212 2.223 . S
O220 C219 1.315 . S
O221 Cd211 2.240 . S
O221 C219 1.279 . S
O222 Cd212 2.297 . S
O222 C217 1.247 . S
O223 Cd212 2.439 . S
O223 C217 1.208 . S
C224 C225 1.369 . S
C224 C226 1.419 . S
C224 H228 0.930 . S
C225 C224 1.369 . S
C225 C234 1.429 . S
C226 C224 1.419 . S
C226 C227 1.363 . S
C226 H229 0.929 . S
C227 C226 1.363 . S
C227 C233 1.428 . S
H228 C224 0.930 . S
H229 C226 0.929 . S
S230 N231 1.613 . S
S230 N232 1.610 . S
N231 S230 1.613 . S
N231 C234 1.350 . S
N232 S230 1.610 . S
N232 C233 1.351 . S
C233 C227 1.428 . S
C233 N232 1.351 . S
C233 C234 1.434 . S
C234 C225 1.429 . S
C234 N231 1.350 . S
C234 C233 1.434 . S
C235 C236 1.369 . S
C235 C237 1.419 . S
C235 H239 0.930 . S
C236 C235 1.369 . S
C236 C245 1.429 . S
C237 C235 1.419 . S
C237 C238 1.363 . S
C237 H240 0.929 . S
C238 C237 1.363 . S
C238 C244 1.428 . S
H239 C235 0.930 . S
H240 C237 0.929 . S
S241 N242 1.613 . S
S241 N243 1.610 . S
N242 S241 1.613 . S
N242 C245 1.350 . S
N243 S241 1.610 . S
N243 C244 1.351 . S
C244 C238 1.428 . S
C244 N243 1.351 . S
C244 C245 1.434 . S
C245 C236 1.429 . S
C245 N242 1.350 . S
C245 C244 1.434 . S
C246 C247 1.369 . S
C246 C248 1.419 . S
C246 H250 0.930 . S
C247 C246 1.369 . S
C247 C256 1.429 . S
C248 C246 1.419 . S
C248 C249 1.363 . S
C248 H251 0.929 . S
C249 C248 1.363 . S
C249 C255 1.428 . S
H250 C246 0.930 . S
H251 C248 0.929 . S
S252 N253 1.613 . S
S252 N254 1.610 . S
N253 S252 1.613 . S
N253 C256 1.350 . S
N254 S252 1.610 . S
N254 C255 1.351 . S
C255 C249 1.428 . S
C255 N254 1.351 . S
C255 C256 1.434 . S
C256 C247 1.429 . S
C256 N253 1.350 . S
C256 C255 1.434 . S
C257 C258 1.369 . S
C257 C259 1.419 . S
C257 H261 0.930 . S
C258 C257 1.369 . S
C258 C267 1.429 . S
C259 C257 1.419 . S
C259 C260 1.363 . S
C259 H262 0.929 . S
C260 C259 1.363 . S
C260 C266 1.428 . S
H261 C257 0.930 . S
H262 C259 0.929 . S
S263 N264 1.613 . S
S263 N265 1.610 . S
N264 S263 1.613 . S
N264 C267 1.350 . S
N265 S263 1.610 . S
N265 C266 1.351 . S
C266 C260 1.428 . S
C266 N265 1.351 . S
C266 C267 1.434 . S
C267 C258 1.429 . S
C267 N264 1.350 . S
C267 C266 1.434 . S
C268 C269 1.369 . S
C268 C270 1.419 . S
C268 H272 0.930 . S
C269 C268 1.369 . S
C269 C278 1.429 . S
C270 C268 1.419 . S
C270 C271 1.363 . S
C270 H273 0.929 . S
C271 C270 1.363 . S
C271 C277 1.428 . S
H272 C268 0.930 . S
H273 C270 0.929 . S
S274 N275 1.613 . S
S274 N276 1.610 . S
N275 S274 1.613 . S
N275 C278 1.350 . S
N276 S274 1.610 . S
N276 C277 1.351 . S
C277 C271 1.428 . S
C277 N276 1.351 . S
C277 C278 1.434 . S
C278 C269 1.429 . S
C278 N275 1.350 . S
C278 C277 1.434 . S
C279 C280 1.369 . S
C279 C281 1.419 . S
C279 H283 0.930 . S
C280 C279 1.369 . S
C280 C289 1.429 . S
C281 C279 1.419 . S
C281 C282 1.363 . S
C281 H284 0.929 . S
C282 C281 1.363 . S
C282 C288 1.428 . S
H283 C279 0.930 . S
H284 C281 0.929 . S
S285 N286 1.613 . S
S285 N287 1.610 . S
N286 S285 1.613 . S
N286 C289 1.350 . S
N287 S285 1.610 . S
N287 C288 1.351 . S
C288 C282 1.428 . S
C288 N287 1.351 . S
C288 C289 1.434 . S
C289 C280 1.429 . S
C289 N286 1.350 . S
C289 C288 1.434 . S
C290 C291 1.369 . S
C290 C292 1.419 . S
C290 H294 0.930 . S
C291 C290 1.369 . S
C291 C300 1.429 . S
C292 C290 1.419 . S
C292 C293 1.363 . S
C292 H295 0.929 . S
C293 C292 1.363 . S
C293 C299 1.428 . S
H294 C290 0.930 . S
H295 C292 0.929 . S
S296 N297 1.613 . S
S296 N298 1.610 . S
N297 S296 1.613 . S
N297 C300 1.350 . S
N298 S296 1.610 . S
N298 C299 1.351 . S
C299 C293 1.428 . S
C299 N298 1.351 . S
C299 C300 1.434 . S
C300 C291 1.429 . S
C300 N297 1.350 . S
C300 C299 1.434 . S
C301 C302 1.369 . S
C301 C303 1.419 . S
C301 H305 0.930 . S
C302 C301 1.369 . S
C302 C311 1.429 . S
C303 C301 1.419 . S
C303 C304 1.363 . S
C303 H306 0.929 . S
C304 C303 1.363 . S
C304 C310 1.428 . S
H305 C301 0.930 . S
H306 C303 0.929 . S
S307 N308 1.613 . S
S307 N309 1.610 . S
N308 S307 1.613 . S
N308 C311 1.350 . S
N309 S307 1.610 . S
N309 C310 1.351 . S
C310 C304 1.428 . S
C310 N309 1.351 . S
C310 C311 1.434 . S
C311 C302 1.429 . S
C311 N308 1.350 . S
C311 C310 1.434 . S
C312 C313 1.369 . S
C312 C314 1.419 . S
C312 H316 0.930 . S
C313 C312 1.369 . S
C313 C322 1.429 . S
C314 C312 1.419 . S
C314 C315 1.363 . S
C314 H317 0.929 . S
C315 C314 1.363 . S
C315 C321 1.428 . S
H316 C312 0.930 . S
H317 C314 0.929 . S
S318 N319 1.613 . S
S318 N320 1.610 . S
N319 S318 1.613 . S
N319 C322 1.350 . S
N320 S318 1.610 . S
N320 C321 1.351 . S
C321 C315 1.428 . S
C321 N320 1.351 . S
C321 C322 1.434 . S
C322 C313 1.429 . S
C322 N319 1.350 . S
C322 C321 1.434 . S
C323 C324 1.369 1_455 S
C323 C325 1.419 . S
C323 H327 0.930 . S
C324 C323 1.369 1_655 S
C324 C333 1.429 1_545 S
C325 C323 1.419 . S
C325 C326 1.363 1_445 S
C325 H328 0.929 . S
C326 C325 1.363 1_665 S
C326 C332 1.428 . S
H327 C323 0.930 . S
H328 C325 0.929 . S
S329 N330 1.613 . S
S329 N331 1.610 . S
N330 S329 1.613 . S
N330 C333 1.350 . S
N331 S329 1.610 . S
N331 C332 1.351 . S
C332 C326 1.428 . S
C332 N331 1.351 . S
C332 C333 1.434 . S
C333 C324 1.429 1_565 S
C333 N330 1.350 . S
C333 C332 1.434 . S
C334 C335 1.369 . S
C334 C336 1.419 1_556 S
C334 H338 0.930 . S
C335 C334 1.369 . S
C335 C344 1.429 . S
C336 C334 1.419 1_554 S
C336 C337 1.363 . S
C336 H339 0.929 . S
C337 C336 1.363 . S
C337 C343 1.428 . S
H338 C334 0.930 . S
H339 C336 0.929 . S
S340 N341 1.613 . S
S340 N342 1.610 1_556 S
N341 S340 1.613 . S
N341 C344 1.350 . S
N342 S340 1.610 1_554 S
N342 C343 1.351 . S
C343 C337 1.428 . S
C343 N342 1.351 . S
C343 C344 1.434 1_554 S
C344 C335 1.429 . S
C344 N341 1.350 . S
C344 C343 1.434 1_556 S
C345 C346 1.369 . S
C345 C347 1.419 . S
C345 H349 0.930 1_565 S
C346 C345 1.369 . S
C346 C355 1.429 . S
C347 C345 1.419 . S
C347 C348 1.363 . S
C347 H350 0.929 1_565 S
C348 C347 1.363 . S
C348 C354 1.428 . S
H349 C345 0.930 1_545 S
H350 C347 0.929 1_545 S
S351 N352 1.613 . S
S351 N353 1.610 . S
N352 S351 1.613 . S
N352 C355 1.350 . S
N353 S351 1.610 . S
N353 C354 1.351 . S
C354 C348 1.428 . S
C354 N353 1.351 . S
C354 C355 1.434 . S
C355 C346 1.429 . S
C355 N352 1.350 . S
C355 C354 1.434 . S
C356 C357 1.369 . S
C356 C358 1.419 . S
C356 H360 0.930 . S
C357 C356 1.369 . S
C357 C366 1.429 . S
C358 C356 1.419 . S
C358 C359 1.363 . S
C358 H361 0.929 . S
C359 C358 1.363 . S
C359 C365 1.428 . S
H360 C356 0.930 . S
H361 C358 0.929 . S
S362 N363 1.613 . S
S362 N364 1.610 . S
N363 S362 1.613 . S
N363 C366 1.350 . S
N364 S362 1.610 . S
N364 C365 1.351 . S
C365 C359 1.428 . S
C365 N364 1.351 . S
C365 C366 1.434 . S
C366 C357 1.429 . S
C366 N363 1.350 . S
C366 C365 1.434 . S
C367 C368 1.369 1_655 S
C367 C369 1.419 . S
C367 H371 0.930 . S
C368 C367 1.369 1_455 S
C368 C377 1.429 . S
C369 C367 1.419 . S
C369 C370 1.363 1_655 S
C369 H372 0.929 . S
C370 C369 1.363 1_455 S
C370 C376 1.428 . S
H371 C367 0.930 . S
H372 C369 0.929 . S
S373 N374 1.613 . S
S373 N375 1.610 . S
N374 S373 1.613 . S
N374 C377 1.350 . S
N375 S373 1.610 . S
N375 C376 1.351 . S
C376 C370 1.428 . S
C376 N375 1.351 . S
C376 C377 1.434 . S
C377 C368 1.429 . S
C377 N374 1.350 . S
C377 C376 1.434 . S
C378 C379 1.369 . S
C378 C380 1.419 1_655 S
C378 H382 0.930 . S
C379 C378 1.369 . S
C379 C388 1.429 . S
C380 C378 1.419 1_455 S
C380 C381 1.363 . S
C380 H383 0.929 . S
C381 C380 1.363 . S
C381 C387 1.428 . S
H382 C378 0.930 . S
H383 C380 0.929 . S
S384 N385 1.613 1_455 S
S384 N386 1.610 . S
N385 S384 1.613 1_655 S
N385 C388 1.350 . S
N386 S384 1.610 . S
N386 C387 1.351 . S
C387 C381 1.428 . S
C387 N386 1.351 . S
C387 C388 1.434 1_455 S
C388 C379 1.429 . S
C388 N385 1.350 . S
C388 C387 1.434 1_655 S
C389 C390 1.369 1_554 S
C389 C391 1.419 . S
C389 H393 0.930 . S
C390 C389 1.369 1_556 S
C390 C399 1.429 . S
C391 C389 1.419 . S
C391 C392 1.363 1_554 S
C391 H394 0.929 . S
C392 C391 1.363 1_556 S
C392 C398 1.428 . S
H393 C389 0.930 . S
H394 C391 0.929 . S
S395 N396 1.613 . S
S395 N397 1.610 . S
N396 S395 1.613 . S
N396 C399 1.350 . S
N397 S395 1.610 . S
N397 C398 1.351 . S
C398 C392 1.428 . S
C398 N397 1.351 . S
C398 C399 1.434 . S
C399 C390 1.429 . S
C399 N396 1.350 . S
C399 C398 1.434 . S
C400 C401 1.369 . S
C400 C402 1.419 . S
C400 H404 0.930 . S
C401 C400 1.369 . S
C401 C410 1.429 . S
C402 C400 1.419 . S
C402 C403 1.363 . S
C402 H405 0.929 . S
C403 C402 1.363 . S
C403 C409 1.428 . S
H404 C400 0.930 . S
H405 C402 0.929 . S
S406 N407 1.613 . S
S406 N408 1.610 . S
N407 S406 1.613 . S
N407 C410 1.350 . S
N408 S406 1.610 . S
N408 C409 1.351 . S
C409 C403 1.428 . S
C409 N408 1.351 . S
C409 C410 1.434 . S
C410 C401 1.429 . S
C410 N407 1.350 . S
C410 C409 1.434 . S
C411 C412 1.369 . S
C411 C413 1.419 . S
C411 H415 0.930 . S
C412 C411 1.369 . S
C412 C421 1.429 . S
C413 C411 1.419 . S
C413 C414 1.363 . S
C413 H416 0.929 . S
C414 C413 1.363 . S
C414 C420 1.428 . S
H415 C411 0.930 . S
H416 C413 0.929 . S
S417 N418 1.613 . S
S417 N419 1.610 . S
N418 S417 1.613 . S
N418 C421 1.350 . S
N419 S417 1.610 . S
N419 C420 1.351 . S
C420 C414 1.428 . S
C420 N419 1.351 . S
C420 C421 1.434 . S
C421 C412 1.429 . S
C421 N418 1.350 . S
C421 C420 1.434 . S
C422 C423 1.369 . S
C422 C424 1.419 . S
C422 H426 0.930 . S
C423 C422 1.369 . S
C423 C432 1.429 . S
C424 C422 1.419 . S
C424 C425 1.363 1_455 S
C424 H427 0.929 1_455 S
C425 C424 1.363 1_655 S
C425 C431 1.428 1_655 S
H426 C422 0.930 . S
H427 C424 0.929 1_655 S
S428 N429 1.613 . S
S428 N430 1.610 . S
N429 S428 1.613 . S
N429 C432 1.350 . S
N430 S428 1.610 . S
N430 C431 1.351 . S
C431 C425 1.428 1_455 S
C431 N430 1.351 . S
C431 C432 1.434 . S
C432 C423 1.429 . S
C432 N429 1.350 . S
C432 C431 1.434 . S
C433 C434 1.369 1_554 S
C433 C435 1.419 . S
C433 H437 0.930 . S
C434 C433 1.369 1_556 S
C434 C443 1.429 . S
C435 C433 1.419 . S
C435 C436 1.363 . S
C435 H438 0.929 . S
C436 C435 1.363 . S
C436 C442 1.428 1_554 S
H437 C433 0.930 . S
H438 C435 0.929 . S
S439 N440 1.613 . S
S439 N441 1.610 . S
N440 S439 1.613 . S
N440 C443 1.350 . S
N441 S439 1.610 . S
N441 C442 1.351 . S
C442 C436 1.428 1_556 S
C442 N441 1.351 . S
C442 C443 1.434 . S
C443 C434 1.429 . S
C443 N440 1.350 . S
C443 C442 1.434 . S
C444 C445 1.369 . S
C444 C446 1.419 . S
C444 H448 0.930 . S
C445 C444 1.369 . S
C445 C454 1.429 . S
C446 C444 1.419 . S
C446 C447 1.363 . S
C446 H449 0.929 . S
C447 C446 1.363 . S
C447 C453 1.428 . S
H448 C444 0.930 . S
H449 C446 0.929 . S
S450 N451 1.613 . S
S450 N452 1.610 . S
N451 S450 1.613 . S
N451 C454 1.350 . S
N452 S450 1.610 . S
N452 C453 1.351 . S
C453 C447 1.428 . S
C453 N452 1.351 . S
C453 C454 1.434 . S
C454 C445 1.429 . S
C454 N451 1.350 . S
C454 C453 1.434 . S
C455 C456 1.369 . S
C455 C457 1.419 . S
C455 H459 0.930 . S
C456 C455 1.369 . S
C456 C465 1.429 . S
C457 C455 1.419 . S
C457 C458 1.363 1_545 S
C457 H460 0.919 1_545 S
C458 C457 1.363 1_565 S
C458 C464 1.428 1_565 S
H459 C455 0.930 . S
H460 C457 0.919 1_565 S
S461 N462 1.613 . S
S461 N463 1.610 . S
N462 S461 1.613 . S
N462 C465 1.350 . S
N463 S461 1.610 . S
N463 C464 1.351 . S
C464 C458 1.428 1_545 S
C464 N463 1.351 . S
C464 C465 1.434 . S
C465 C456 1.429 . S
C465 N462 1.350 . S
C465 C464 1.434 . S
C466 C467 1.369 1_556 S
C466 C468 1.419 . S
C466 H470 0.930 . S
C467 C466 1.369 1_554 S
C467 C476 1.429 . S
C468 C466 1.419 . S
C468 C469 1.363 . S
C468 H471 0.929 . S
C469 C468 1.363 . S
C469 C475 1.428 1_556 S
H470 C466 0.930 . S
H471 C468 0.929 . S
S472 N473 1.613 . S
S472 N474 1.610 . S
N473 S472 1.613 . S
N473 C476 1.350 . S
N474 S472 1.610 . S
N474 C475 1.351 . S
C475 C469 1.428 1_554 S
C475 N474 1.351 . S
C475 C476 1.434 . S
C476 C467 1.429 . S
C476 N473 1.350 . S
C476 C475 1.434 . S
C477 C478 1.369 1_565 S
C477 C479 1.419 . S
C477 H481 0.930 . S
C478 C477 1.369 1_545 S
C478 C487 1.429 . S
C479 C477 1.419 . S
C479 C480 1.363 . S
C479 H482 0.929 . S
C480 C479 1.363 . S
C480 C486 1.428 . S
H481 C477 0.930 . S
H482 C479 0.929 . S
S483 N484 1.613 . S
S483 N485 1.610 1_545 S
N484 S483 1.613 . S
N484 C487 1.350 . S
N485 S483 1.610 1_565 S
N485 C486 1.351 . S
C486 C480 1.428 . S
C486 N485 1.351 . S
C486 C487 1.434 1_565 S
C487 C478 1.429 . S
C487 N484 1.350 . S
C487 C486 1.434 1_545 S
C488 C489 1.369 . S
C488 C490 1.419 . S
C488 H492 0.930 1_565 S
C489 C488 1.369 . S
C489 C498 1.429 . S
C490 C488 1.419 . S
C490 C491 1.363 . S
C490 H493 0.929 1_565 S
C491 C490 1.363 . S
C491 C497 1.428 . S
H492 C488 0.930 1_545 S
H493 C490 0.929 1_545 S
S494 N495 1.613 . S
S494 N496 1.610 . S
N495 S494 1.613 . S
N495 C498 1.350 . S
N496 S494 1.610 . S
N496 C497 1.351 . S
C497 C491 1.428 . S
C497 N496 1.351 . S
C497 C498 1.434 . S
C498 C489 1.429 . S
C498 N495 1.350 . S
C498 C497 1.434 . S
C499 C500 1.369 . S
C499 C501 1.419 . S
C499 H503 0.930 . S
C500 C499 1.369 . S
C500 C509 1.429 . S
C501 C499 1.419 . S
C501 C502 1.363 . S
C501 H504 0.929 . S
C502 C501 1.363 . S
C502 C508 1.428 . S
H503 C499 0.930 . S
H504 C501 0.929 . S
S505 N506 1.613 . S
S505 N507 1.610 . S
N506 S505 1.613 . S
N506 C509 1.350 . S
N507 S505 1.610 . S
N507 C508 1.351 . S
C508 C502 1.428 . S
C508 N507 1.351 . S
C508 C509 1.434 . S
C509 C500 1.429 . S
C509 N506 1.350 . S
C509 C508 1.434 . S
C510 C511 1.369 . S
C510 C512 1.419 . S
C510 H514 0.930 . S
C511 C510 1.369 . S
C511 C520 1.429 . S
C512 C510 1.419 . S
C512 C513 1.363 . S
C512 H515 0.929 . S
C513 C512 1.363 . S
C513 C519 1.428 . S
H514 C510 0.930 . S
H515 C512 0.929 . S
S516 N517 1.613 . S
S516 N518 1.610 . S
N517 S516 1.613 . S
N517 C520 1.350 . S
N518 S516 1.610 . S
N518 C519 1.351 . S
C519 C513 1.428 . S
C519 N518 1.351 . S
C519 C520 1.434 . S
C520 C511 1.429 . S
C520 N517 1.350 . S
C520 C519 1.434 . S
C521 C522 1.369 . S
C521 C523 1.419 1_556 S
C521 H525 0.930 . S
C522 C521 1.369 . S
C522 C531 1.429 . S
C523 C521 1.419 1_554 S
C523 C524 1.363 . S
C523 H526 0.929 . S
C524 C523 1.363 . S
C524 C530 1.428 1_554 S
H525 C521 0.930 . S
H526 C523 0.929 . S
S527 N528 1.613 . S
S527 N529 1.610 . S
N528 S527 1.613 . S
N528 C531 1.350 . S
N529 S527 1.610 . S
N529 C530 1.351 . S
C530 C524 1.428 1_556 S
C530 N529 1.351 . S
C530 C531 1.434 . S
C531 C522 1.429 . S
C531 N528 1.350 . S
C531 C530 1.434 . S
C532 C533 1.369 . S
C532 C534 1.419 . S
C532 H536 0.930 . S
C533 C532 1.369 . S
C533 C542 1.429 . S
C534 C532 1.419 . S
C534 C535 1.363 . S
C534 H537 0.929 . S
C535 C534 1.363 . S
C535 C541 1.428 . S
H536 C532 0.930 . S
H537 C534 0.929 . S
S538 N539 1.613 . S
S538 N540 1.610 . S
N539 S538 1.613 . S
N539 C542 1.350 . S
N540 S538 1.610 . S
N540 C541 1.351 . S
C541 C535 1.428 . S
C541 N540 1.351 . S
C541 C542 1.434 . S
C542 C533 1.429 . S
C542 N539 1.350 . S
C542 C541 1.434 . S
C543 C544 1.369 . S
C543 C545 1.419 . S
C543 H547 0.930 . S
C544 C543 1.369 . S
C544 C553 1.429 . S
C545 C543 1.419 . S
C545 C546 1.363 . S
C545 H548 0.929 . S
C546 C545 1.363 . S
C546 C552 1.428 . S
H547 C543 0.930 . S
H548 C545 0.929 . S
S549 N550 1.613 . S
S549 N551 1.610 . S
N550 S549 1.613 . S
N550 C553 1.350 . S
N551 S549 1.610 . S
N551 C552 1.351 . S
C552 C546 1.428 . S
C552 N551 1.351 . S
C552 C553 1.434 . S
C553 C544 1.429 . S
C553 N550 1.350 . S
C553 C552 1.434 . S
C554 C555 1.369 . S
C554 C556 1.419 . S
C554 H558 0.930 . S
C555 C554 1.369 . S
C555 C564 1.429 . S
C556 C554 1.419 . S
C556 C557 1.363 . S
C556 H559 0.929 1_655 S
C557 C556 1.363 . S
C557 C563 1.428 . S
H558 C554 0.930 . S
H559 C556 0.929 1_455 S
S560 N561 1.613 . S
S560 N562 1.610 . S
N561 S560 1.613 . S
N561 C564 1.350 . S
N562 S560 1.610 . S
N562 C563 1.351 . S
C563 C557 1.428 . S
C563 N562 1.351 . S
C563 C564 1.434 . S
C564 C555 1.429 . S
C564 N561 1.350 . S
C564 C563 1.434 . S
C565 C566 1.369 . S
C565 C567 1.419 . S
C565 H569 0.930 1_545 S
C566 C565 1.369 . S
C566 C575 1.429 . S
C567 C565 1.419 . S
C567 C568 1.363 . S
C567 H570 0.929 1_545 S
C568 C567 1.363 . S
C568 C574 1.428 . S
H569 C565 0.930 1_565 S
H570 C567 0.929 1_565 S
S571 N572 1.613 . S
S571 N573 1.610 . S
N572 S571 1.613 . S
N572 C575 1.350 . S
N573 S571 1.610 . S
N573 C574 1.351 . S
C574 C568 1.428 . S
C574 N573 1.351 . S
C574 C575 1.434 . S
C575 C566 1.429 . S
C575 N572 1.350 . S
C575 C574 1.434 . S
C225 C6 1.672 . S
C227 C104 1.625 . S
C236 C20 1.755 . S
C238 C62 1.753 . S
C247 C76 1.548 . S
C249 C34 1.619 . S
C258 C48 1.879 . S
C260 C90 1.732 . S
C269 C118 1.753 . S
C271 C174 1.754 . S
C280 C132 1.554 . S
C282 C202 1.620 . S
C291 C160 1.879 . S
C293 C146 1.736 . S
C302 C216 1.625 . S
C304 C188 1.674 . S
C313 C9 1.311 . S
C315 C91 1.138 . S
C324 C106 1.785 . S
C326 C22 1.790 . S
C335 C37 1.314 . S
C337 C63 1.160 . S
C346 C78 1.793 . S
C348 C49 1.666 . S
C357 C8 1.480 . S
C359 C204 1.483 . S
C368 C163 1.014 . S
C370 C21 0.958 1_455 S
C379 C190 1.479 . S
C381 C36 1.484 . S
C390 C175 0.960 . S
C392 C51 1.016 1_556 S
C401 C149 1.854 . S
C403 C65 1.821 . S
C412 C77 1.053 . S
C414 C217 1.136 . S
C423 C93 1.855 . S
C425 C121 1.824 . S
C434 C105 1.129 . S
C436 C133 1.043 . S
C445 C7 1.572 . S
C447 C64 1.680 . S
C456 C120 1.679 . S
C458 C189 1.575 . S
C467 C177 1.609 . S
C469 C135 1.632 . S
C478 C203 1.405 . S
C480 C148 1.446 . S
C489 C107 1.578 . S
C491 C50 1.590 . S
C500 C35 1.403 . S
C502 C92 1.441 . S
C511 C162 1.589 . S
C513 C219 1.580 . S
C522 C191 1.308 . S
C524 C147 1.152 . S
C533 C218 1.789 . S
C535 C176 1.788 . S
C544 C205 1.316 . S
C546 C119 1.147 . S
C555 C161 1.668 . S
C557 C134 1.789 . S
C566 C23 1.607 . S
C568 C79 1.634 . S
