# Generated by pormake.
# Topology una, (4)-cn, num edge types: 1
# Building blocks:
#     Node 0, Type 0, BuildingBlock: QUQFOY_clean_sbu_1, # of connection points: 4
#     Node 1, Type 0, BuildingBlock: QUQFOY_clean_sbu_1, # of connection points: 4
#     Node 2, Type 0, BuildingBlock: QUQFOY_clean_sbu_1, # of connection points: 4
#     Node 3, Type 0, BuildingBlock: QUQFOY_clean_sbu_1, # of connection points: 4
#     Node 4, Type 0, BuildingBlock: QUQFOY_clean_sbu_1, # of connection points: 4
#     Node 5, Type 0, BuildingBlock: QUQFOY_clean_sbu_1, # of connection points: 4
#     Node 6, Type 0, BuildingBlock: QUQFOY_clean_sbu_1, # of connection points: 4
#     Node 7, Type 0, BuildingBlock: QUQFOY_clean_sbu_1, # of connection points: 4
#     Node 8, Type 0, BuildingBlock: QUQFOY_clean_sbu_1, # of connection points: 4
#     Node 9, Type 0, BuildingBlock: QUQFOY_clean_sbu_1, # of connection points: 4
#     Node 10, Type 0, BuildingBlock: QUQFOY_clean_sbu_1, # of connection points: 4
#     Node 11, Type 0, BuildingBlock: QUQFOY_clean_sbu_1, # of connection points: 4
#     Edge 12, Type (0, 0), BuildingBlock: MIFKUJ_clean_linker_0, # of connection points: 2
#     Edge 13, Type (0, 0), BuildingBlock: MIFKUJ_clean_linker_0, # of connection points: 2
#     Edge 14, Type (0, 0), BuildingBlock: MIFKUJ_clean_linker_0, # of connection points: 2
#     Edge 15, Type (0, 0), BuildingBlock: MIFKUJ_clean_linker_0, # of connection points: 2
#     Edge 16, Type (0, 0), BuildingBlock: MIFKUJ_clean_linker_0, # of connection points: 2
#     Edge 17, Type (0, 0), BuildingBlock: MIFKUJ_clean_linker_0, # of connection points: 2
#     Edge 18, Type (0, 0), BuildingBlock: MIFKUJ_clean_linker_0, # of connection points: 2
#     Edge 19, Type (0, 0), BuildingBlock: MIFKUJ_clean_linker_0, # of connection points: 2
#     Edge 20, Type (0, 0), BuildingBlock: MIFKUJ_clean_linker_0, # of connection points: 2
#     Edge 21, Type (0, 0), BuildingBlock: MIFKUJ_clean_linker_0, # of connection points: 2
#     Edge 22, Type (0, 0), BuildingBlock: MIFKUJ_clean_linker_0, # of connection points: 2
#     Edge 23, Type (0, 0), BuildingBlock: MIFKUJ_clean_linker_0, # of connection points: 2
#     Edge 24, Type (0, 0), BuildingBlock: MIFKUJ_clean_linker_0, # of connection points: 2
#     Edge 25, Type (0, 0), BuildingBlock: MIFKUJ_clean_linker_0, # of connection points: 2
#     Edge 26, Type (0, 0), BuildingBlock: MIFKUJ_clean_linker_0, # of connection points: 2
#     Edge 27, Type (0, 0), BuildingBlock: MIFKUJ_clean_linker_0, # of connection points: 2
#     Edge 28, Type (0, 0), BuildingBlock: MIFKUJ_clean_linker_0, # of connection points: 2
#     Edge 29, Type (0, 0), BuildingBlock: MIFKUJ_clean_linker_0, # of connection points: 2
#     Edge 30, Type (0, 0), BuildingBlock: MIFKUJ_clean_linker_0, # of connection points: 2
#     Edge 31, Type (0, 0), BuildingBlock: MIFKUJ_clean_linker_0, # of connection points: 2
#     Edge 32, Type (0, 0), BuildingBlock: MIFKUJ_clean_linker_0, # of connection points: 2
#     Edge 33, Type (0, 0), BuildingBlock: MIFKUJ_clean_linker_0, # of connection points: 2
#     Edge 34, Type (0, 0), BuildingBlock: MIFKUJ_clean_linker_0, # of connection points: 2
#     Edge 35, Type (0, 0), BuildingBlock: MIFKUJ_clean_linker_0, # of connection points: 2
# Relax obj value: 0.085
# Max RMSD: 0.102
# Mean RMSD: 0.102
data_MOF--net-una--node1-QUQFOY_clean_sbu_1--edge1-MIFKUJ_clean_linker_0
_symmetry_space_group_name_H-M    P1
_symmetry_Int_Tables_number       1
_symmetry_cell_setting            triclinic
loop_
_symmetry_equiv_pos_as_xyz
'x, y, z'
_cell_length_a     77.358189
_cell_length_b     77.764923
_cell_length_c     28.529768
_cell_angle_alpha  89.9453
_cell_angle_beta   90.147039
_cell_angle_gamma 119.74401
loop_
_atom_site_label
_atom_site_type_symbol
_atom_site_fract_x
_atom_site_fract_y
_atom_site_fract_z
_atom_type_partial_charge
O0 O 0.13082 0.46317 0.1203 0.0
Cd1 Cd 0.12908 0.43617 0.10691 0.0
Cd2 Cd 0.16653 0.46005 0.06886 0.0
O3 O 0.16004 0.48198 0.08708 0.0
O4 O 0.10015 0.416 0.10068 0.0
O5 O 0.12122 0.42552 0.04124 0.0
C6 C 0.10317 0.41512 0.05645 0.0
C7 C 0.18464 0.46403 1.0003 0.0
C8 C 0.1448 0.48019 0.10835 0.0
C9 C 0.16272 0.43305 0.15052 0.0
O10 O 0.17347 0.44605 0.12058 0.0
O11 O 0.14402 0.42656 0.15199 0.0
O12 O 0.19269 0.47483 0.03678 0.0
O13 O 0.16584 0.45134 1.00182 0.0
O14 O 0.67858 0.12337 0.28113 0.0
Cd15 Cd 0.70465 0.12261 0.26623 0.0
Cd16 Cd 0.71613 0.15971 0.23506 0.0
O17 O 0.68683 0.15158 0.24534 0.0
O18 O 0.69686 0.09398 0.25974 0.0
O19 O 0.70723 0.1149 0.20015 0.0
C20 C 0.70035 0.09701 0.21539 0.0
C21 C 0.73313 0.17845 0.16957 0.0
C22 C 0.67416 0.13632 0.26746 0.0
C23 C 0.73798 0.15589 0.31862 0.0
O24 O 0.73366 0.16675 0.2937 0.0
O25 O 0.72928 0.13727 0.31148 0.0
O26 O 0.72802 0.1859 0.20345 0.0
O27 O 0.72776 0.15987 0.17165 0.0
O28 O 0.56576 0.66811 0.4459 0.0
Cd29 Cd 0.59283 0.69362 0.4347 0.0
Cd30 Cd 0.56985 0.70659 0.39224 0.0
O31 O 0.54777 0.67778 0.40532 0.0
O32 O 0.61395 0.68584 0.43036 0.0
O33 O 0.60417 0.69667 0.36977 0.0
C34 C 0.61498 0.68958 0.38599 0.0
C35 C 0.57059 0.72137 0.32046 0.0
C36 C 0.54907 0.66464 0.42918 0.0
C37 C 0.59312 0.72901 0.47817 0.0
O38 O 0.58025 0.72637 0.44704 0.0
O39 O 0.60086 0.71786 0.4795 0.0
O40 O 0.55666 0.71721 0.3505 0.0
O41 O 0.58384 0.71642 0.33028 0.0
O42 O 0.91299 0.55974 0.61777 0.0
Cd43 Cd 0.91427 0.58666 0.60635 0.0
Cd44 Cd 0.87831 0.5638 0.56388 0.0
O45 O 0.88524 0.5418 0.5779 0.0
O46 O 0.9431 0.60741 0.60222 0.0
O47 O 0.92258 0.59807 0.54149 0.0
C48 C 0.94045 0.60858 0.55784 0.0
C49 C 0.86331 0.56341 0.49252 0.0
C50 C 0.89981 0.54311 0.60151 0.0
C51 C 0.8792 0.58741 0.64924 0.0
O52 O 0.86906 0.57477 0.61792 0.0
O53 O 0.89804 0.59476 0.65121 0.0
O54 O 0.85408 0.55006 0.52393 0.0
O55 O 0.88154 0.57674 0.50073 0.0
O56 O 0.3648 0.90075 0.78656 0.0
Cd57 Cd 0.33875 0.9013 0.77111 0.0
Cd58 Cd 0.32919 0.86777 0.72661 0.0
O59 O 0.35932 0.87814 0.73321 0.0
O60 O 0.34508 0.92958 0.76537 0.0
O61 O 0.33688 0.90917 0.70494 0.0
C62 C 0.34258 0.92678 0.72064 0.0
C63 C 0.31288 0.85259 0.65689 0.0
C64 C 0.37079 0.89078 0.76314 0.0
C65 C 0.30577 0.86486 0.81335 0.0
O66 O 0.31159 0.85616 0.78511 0.0
O67 O 0.31335 0.88361 0.81137 0.0
O68 O 0.31994 0.84443 0.68439 0.0
O69 O 0.31569 0.86988 0.66802 0.0
O70 O 0.47654 0.35407 0.95094 0.0
Cd71 Cd 0.44981 0.32857 0.93665 0.0
Cd72 Cd 0.4737 0.31686 0.89387 0.0
O73 O 0.49534 0.34549 0.91039 0.0
O74 O 0.42844 0.33598 0.93144 0.0
O75 O 0.43947 0.32649 0.87088 0.0
C76 C 0.42817 0.33302 0.88682 0.0
C77 C 0.47414 0.30328 0.8213 0.0
C78 C 0.4935 0.35806 0.9352 0.0
C79 C 0.44931 0.29254 0.97655 0.0
O80 O 0.46262 0.29598 0.9462 0.0
O81 O 0.44142 0.30354 0.97893 0.0
O82 O 0.48768 0.30713 0.85239 0.0
O83 O 0.4607 0.30803 0.83046 0.0
O84 O 0.57029 0.90262 0.83757 0.0
Cd85 Cd 0.59733 0.90419 0.85054 0.0
Cd86 Cd 0.57474 0.86975 0.89818 0.0
O87 O 0.55328 0.87792 0.88643 0.0
O88 O 0.6183 0.93281 0.85557 0.0
O89 O 0.6081 0.91223 0.91597 0.0
C90 C 0.61896 0.93003 0.90007 0.0
C91 C 0.57396 0.85384 0.96835 0.0
C92 C 0.55413 0.8911 0.85859 0.0
C93 C 0.59725 0.86868 0.81152 0.0
O94 O 0.58458 0.85946 0.8435 0.0
O95 O 0.60528 0.88743 0.80788 0.0
O96 O 0.56023 0.84547 0.93713 0.0
O97 O 0.58785 0.87184 0.96092 0.0
O98 O 0.6782 0.55728 0.01049 0.0
Cd99 Cd 0.70374 0.58426 0.02247 0.0
Cd100 Cd 0.71649 0.5615 0.06695 0.0
O101 O 0.68766 0.53957 0.0526 0.0
O102 O 0.69591 0.60523 0.02803 0.0
O103 O 0.70671 0.59504 0.08793 0.0
C104 C 0.69961 0.60592 0.07241 0.0
C105 C 0.73125 0.5612 0.13819 0.0
C106 C 0.67463 0.54075 0.02772 0.0
C107 C 0.73977 0.58486 0.98181 0.0
O108 O 0.73679 0.57212 0.01326 0.0
O109 O 0.72849 0.59245 0.97891 0.0
O110 O 0.72687 0.54768 0.10705 0.0
O111 O 0.72638 0.57458 0.12997 0.0
O112 O 0.13439 0.66769 0.18121 0.0
Cd113 Cd 0.13387 0.69389 0.19385 0.0
Cd114 Cd 0.17028 0.70542 0.22813 0.0
O115 O 0.16169 0.67596 0.22191 0.0
O116 O 0.10519 0.68672 0.20023 0.0
O117 O 0.1264 0.69708 0.2596 0.0
C118 C 0.10841 0.69039 0.24452 0.0
C119 C 0.18612 0.72293 0.29604 0.0
C120 C 0.14688 0.66324 0.19839 0.0
C121 C 0.16829 0.72622 0.14167 0.0
O122 O 0.17886 0.72184 0.16773 0.0
O123 O 0.14957 0.71813 0.14839 0.0
O124 O 0.19487 0.71701 0.26721 0.0
O125 O 0.16795 0.71834 0.28711 0.0
O126 O 0.4735 0.12056 0.34483 0.0
Cd127 Cd 0.44641 0.11926 0.3557 0.0
Cd128 Cd 0.46951 0.15539 0.39739 0.0
O129 O 0.49154 0.14833 0.38402 0.0
O130 O 0.42568 0.09057 0.36071 0.0
O131 O 0.43494 0.11135 0.42061 0.0
C132 C 0.42446 0.09347 0.40488 0.0
C133 C 0.47057 0.17147 0.46731 0.0
C134 C 0.49022 0.13375 0.36091 0.0
C135 C 0.4455 0.15387 0.31155 0.0
O136 O 0.45826 0.1641 0.34267 0.0
O137 O 0.43814 0.13513 0.3101 0.0
O138 O 0.48379 0.18005 0.4352 0.0
O139 O 0.457 0.15326 0.46074 0.0
O140 O 0.36415 0.46562 0.5075 0.0
Cd141 Cd 0.33915 0.43847 0.52126 0.0
Cd142 Cd 0.32549 0.46221 0.56096 0.0
O143 O 0.35372 0.48421 0.54212 0.0
O144 O 0.34808 0.41839 0.52755 0.0
O145 O 0.33661 0.42801 0.58704 0.0
C146 C 0.34425 0.41757 0.57181 0.0
C147 C 0.31121 0.46651 0.62893 0.0
C148 C 0.36709 0.48257 0.52 0.0
C149 C 0.30198 0.43493 0.47966 0.0
O150 O 0.30435 0.44788 0.50991 0.0
O151 O 0.31432 0.42862 0.47704 0.0
O152 O 0.31406 0.47717 0.59216 0.0
O153 O 0.31745 0.45388 0.62819 0.0
O154 O 0.90897 0.35452 0.67405 0.0
Cd155 Cd 0.90973 0.32862 0.68909 0.0
Cd156 Cd 0.87376 0.31782 0.72742 0.0
O157 O 0.8816 0.34672 0.71377 0.0
O158 O 0.93839 0.33584 0.69522 0.0
O159 O 0.91763 0.32643 0.75524 0.0
C160 C 0.93549 0.33283 0.73976 0.0
C161 C 0.85725 0.30292 0.79706 0.0
C162 C 0.8963 0.35905 0.68945 0.0
C163 C 0.87466 0.29421 0.64406 0.0
O164 O 0.86467 0.29865 0.67181 0.0
O165 O 0.89362 0.30354 0.64629 0.0
O166 O 0.84869 0.30724 0.76402 0.0
O167 O 0.8757 0.30786 0.79153 0.0
H168 H 0.19582 0.43018 0.13563 0.0
H169 H 0.21559 0.42419 0.1934 0.0
H170 H 0.173 0.41601 0.30062 0.0
H171 H 0.1528 0.42164 0.24234 0.0
H172 H 0.21355 0.4452 0.32087 0.0
H173 H 0.17628 0.37756 0.27089 0.0
H174 H 0.16208 0.35033 0.21332 0.0
H175 H 0.22083 0.36626 0.16621 0.0
H176 H 0.23539 0.39378 0.22305 0.0
H177 H 0.26546 0.42955 0.49983 0.0
H178 H 0.23861 0.4233 0.44544 0.0
H179 H 0.27302 0.41961 0.33107 0.0
H180 H 0.29976 0.42502 0.38629 0.0
H181 H 0.23479 0.39459 0.31584 0.0
H182 H 0.27233 0.4631 0.35642 0.0
H183 H 0.2883 0.49205 0.40898 0.0
H184 H 0.23134 0.47695 0.46707 0.0
H185 H 0.21506 0.44773 0.41528 0.0
C186 C 0.19043 0.42671 0.17132 0.0
C187 C 0.17275 0.4264 0.18448 0.0
C188 C 0.20173 0.42323 0.20427 0.0
C189 C 0.19578 0.41962 0.25131 0.0
C190 C 0.17782 0.4187 0.26442 0.0
C191 C 0.16624 0.42181 0.23112 0.0
C192 C 0.20934 0.41869 0.28707 0.0
C193 C 0.21785 0.43388 0.32048 0.0
C194 C 0.21562 0.40441 0.28516 0.0
C195 C 0.20692 0.38785 0.251 0.0
C196 C 0.18617 0.37537 0.24798 0.0
C197 C 0.17806 0.35986 0.21553 0.0
C198 C 0.19054 0.35659 0.18605 0.0
C199 C 0.21117 0.36882 0.18904 0.0
C200 C 0.21937 0.38436 0.22142 0.0
C201 C 0.26718 0.42705 0.46319 0.0
C202 C 0.28479 0.42796 0.44721 0.0
C203 C 0.25185 0.4236 0.43203 0.0
C204 C 0.25397 0.42158 0.3838 0.0
C205 C 0.27106 0.42128 0.36804 0.0
C206 C 0.28633 0.42434 0.39957 0.0
C207 C 0.23893 0.42106 0.35001 0.0
C208 C 0.23029 0.40576 0.31671 0.0
C209 C 0.23279 0.4355 0.35126 0.0
C210 C 0.24251 0.45311 0.38232 0.0
C211 C 0.26323 0.46587 0.38064 0.0
C212 C 0.27233 0.48234 0.41026 0.0
C213 C 0.26085 0.4863 0.44144 0.0
C214 C 0.24022 0.47384 0.44296 0.0
C215 C 0.23105 0.45733 0.41346 0.0
H216 H 0.26792 0.49906 0.46434 0.0
H217 H 0.18423 0.34457 0.16096 0.0
H218 H 0.88745 0.27219 0.59336 0.0
H219 H 0.86728 0.24417 0.54056 0.0
H220 H 0.81673 0.25239 0.56359 0.0
H221 H 0.83635 0.27961 0.6165 0.0
H222 H 0.80498 0.21518 0.57026 0.0
H223 H 0.84622 0.26732 0.46054 0.0
H224 H 0.87799 0.29224 0.42537 0.0
H225 H 0.89264 0.24692 0.39471 0.0
H226 H 0.86103 0.22176 0.43023 0.0
H227 H 0.74476 0.18808 0.3688 0.0
H228 H 0.77078 0.20628 0.42668 0.0
H229 H 0.79201 0.1648 0.41082 0.0
H230 H 0.76535 0.14595 0.35299 0.0
H231 H 0.82179 0.21208 0.40401 0.0
H232 H 0.77551 0.15921 0.50317 0.0
H233 H 0.74214 0.13606 0.53408 0.0
H234 H 0.73578 0.18502 0.5814 0.0
H235 H 0.76899 0.20848 0.55011 0.0
C236 C 0.87206 0.26802 0.58685 0.0
C237 C 0.86352 0.27809 0.60945 0.0
C238 C 0.86053 0.25202 0.55666 0.0
C239 C 0.84037 0.24604 0.54807 0.0
C240 C 0.83211 0.25643 0.56994 0.0
C241 C 0.84344 0.27213 0.6002 0.0
C242 C 0.82744 0.22898 0.51687 0.0
C243 C 0.80877 0.21452 0.53398 0.0
C244 C 0.83243 0.22762 0.46976 0.0
C245 C 0.85142 0.24273 0.4486 0.0
C246 C 0.8563 0.26271 0.44666 0.0
C247 C 0.87426 0.27686 0.4266 0.0
C248 C 0.88736 0.27118 0.40798 0.0
C249 C 0.8825 0.25131 0.40927 0.0
C250 C 0.86457 0.2371 0.42935 0.0
C251 C 0.75484 0.18267 0.37779 0.0
C252 C 0.75299 0.16556 0.35634 0.0
C253 C 0.76972 0.19312 0.41085 0.0
C254 C 0.78336 0.18695 0.42284 0.0
C255 C 0.78162 0.1698 0.40186 0.0
C256 C 0.76634 0.159 0.36921 0.0
C257 C 0.79929 0.19888 0.45727 0.0
C258 C 0.81838 0.21242 0.44075 0.0
C259 C 0.79462 0.19964 0.50478 0.0
C260 C 0.7747 0.18559 0.52404 0.0
C261 C 0.76693 0.16504 0.51984 0.0
C262 C 0.74805 0.15186 0.53749 0.0
C263 C 0.73683 0.15906 0.55963 0.0
C264 C 0.74449 0.17946 0.56425 0.0
C265 C 0.76335 0.1927 0.54662 0.0
H266 H 0.72222 0.14884 0.57327 0.0
H267 H 0.90125 0.28216 0.39244 0.0
H268 H 0.59103 0.76265 0.46699 0.0
H269 H 0.59665 0.78777 0.52561 0.0
H270 H 0.61216 0.75674 0.62766 0.0
H271 H 0.60688 0.73154 0.5685 0.0
H272 H 0.58231 0.7665 0.65722 0.0
H273 H 0.64785 0.79844 0.5907 0.0
H274 H 0.67228 0.81126 0.52637 0.0
H275 H 0.65114 0.85071 0.485 0.0
H276 H 0.62639 0.83794 0.54872 0.0
H277 H 0.60171 0.83707 0.83216 0.0
H278 H 0.60606 0.81528 0.7779 0.0
H279 H 0.6065 0.85106 0.66162 0.0
H280 H 0.60352 0.87374 0.71661 0.0
H281 H 0.63027 0.83836 0.64147 0.0
H282 H 0.56307 0.80529 0.69875 0.0
H283 H 0.53686 0.79243 0.75919 0.0
H284 H 0.55842 0.7549 0.81271 0.0
H285 H 0.58488 0.76767 0.75281 0.0
C286 C 0.59587 0.76125 0.50174 0.0
C287 C 0.59848 0.74506 0.5131 0.0
C288 C 0.59913 0.77568 0.53519 0.0
C289 C 0.60487 0.77418 0.581 0.0
C290 C 0.60779 0.7582 0.59245 0.0
C291 C 0.60486 0.74388 0.5586 0.0
C292 C 0.60666 0.78878 0.61718 0.0
C293 C 0.59306 0.78217 0.65438 0.0
C294 C 0.62019 0.80931 0.61245 0.0
C295 C 0.63515 0.81711 0.57428 0.0
C296 C 0.6483 0.80974 0.56767 0.0
C297 C 0.66223 0.81702 0.53136 0.0
C298 C 0.66324 0.83176 0.50156 0.0
C299 C 0.65034 0.83929 0.5081 0.0
C300 C 0.63638 0.83205 0.54435 0.0
C301 C 0.60303 0.84044 0.79504 0.0
C302 C 0.60214 0.85702 0.77853 0.0
C303 C 0.60533 0.82785 0.76391 0.0
C304 C 0.60593 0.83102 0.71527 0.0
C305 C 0.60593 0.84812 0.69887 0.0
C306 C 0.60422 0.8611 0.73026 0.0
C307 C 0.6058 0.81615 0.68172 0.0
C308 C 0.61962 0.82269 0.64478 0.0
C309 C 0.59217 0.79555 0.68609 0.0
C310 C 0.57606 0.78757 0.72159 0.0
C311 C 0.56226 0.79435 0.72353 0.0
C312 C 0.54736 0.78707 0.75767 0.0
C313 C 0.54601 0.7729 0.78985 0.0
C314 C 0.5595 0.7659 0.78779 0.0
C315 C 0.57443 0.77312 0.75371 0.0
H316 H 0.5345 0.76732 0.81632 0.0
H317 H 0.67403 0.83738 0.47346 0.0
H318 H 0.84576 0.58979 0.63436 0.0
H319 H 0.82528 0.59449 0.69253 0.0
H320 H 0.86686 0.60073 0.80107 0.0
H321 H 0.88786 0.5966 0.74248 0.0
H322 H 0.82404 0.57 0.81416 0.0
H323 H 0.86583 0.63921 0.78017 0.0
H324 H 0.8825 0.66842 0.72868 0.0
H325 H 0.82575 0.65766 0.67743 0.0
H326 H 0.80874 0.6282 0.72814 0.0
H327 H 0.77417 0.58473 0.99913 0.0
H328 H 0.80025 0.58977 0.944 0.0
H329 H 0.76917 0.60138 0.83366 0.0
H330 H 0.74323 0.59712 0.88979 0.0
H331 H 0.8078 0.62418 0.82149 0.0
H332 H 0.76565 0.55502 0.8476 0.0
H333 H 0.74717 0.52434 0.89361 0.0
H334 H 0.80197 0.53268 0.95231 0.0
H335 H 0.82078 0.56357 0.90706 0.0
C336 C 0.85075 0.59253 0.6705 0.0
C337 C 0.86843 0.59283 0.68389 0.0
C338 C 0.83904 0.59525 0.70366 0.0
C339 C 0.84454 0.59796 0.75109 0.0
C340 C 0.86241 0.59872 0.76456 0.0
C341 C 0.87442 0.59646 0.7311 0.0
C342 C 0.83074 0.59839 0.78669 0.0
C343 C 0.82078 0.58202 0.81649 0.0
C344 C 0.82584 0.61366 0.78814 0.0
C345 C 0.83602 0.63137 0.75763 0.0
C346 C 0.85691 0.64295 0.75758 0.0
C347 C 0.86642 0.65958 0.72861 0.0
C348 C 0.85519 0.66486 0.69971 0.0
C349 C 0.83443 0.65354 0.6998 0.0
C350 C 0.82484 0.63688 0.72869 0.0
C351 C 0.77295 0.58857 0.96323 0.0
C352 C 0.75649 0.5903 0.9487 0.0
C353 C 0.78787 0.59135 0.9316 0.0
C354 C 0.78647 0.59539 0.88419 0.0
C355 C 0.77055 0.59812 0.86995 0.0
C356 C 0.75572 0.59569 0.90201 0.0
C357 C 0.80118 0.59583 0.8496 0.0
C358 C 0.81117 0.61222 0.81963 0.0
C359 C 0.80584 0.58034 0.84719 0.0
C360 C 0.79461 0.56172 0.87429 0.0
C361 C 0.77375 0.55039 0.87056 0.0
C362 C 0.76322 0.53295 0.89647 0.0
C363 C 0.77338 0.52659 0.92596 0.0
C364 C 0.79412 0.53764 0.9295 0.0
C365 C 0.80473 0.5551 0.90369 0.0
H366 H 0.7652 0.51309 0.946 0.0
H367 H 0.86258 0.67775 0.67732 0.0
H368 H 0.2942 0.82719 0.84045 0.0
H369 H 0.26747 0.80599 0.89329 0.0
H370 H 0.25416 0.85297 0.91708 0.0
H371 H 0.28164 0.87474 0.86468 0.0
H372 H 0.25083 0.83407 0.99692 0.0
H373 H 0.22422 0.81316 0.84485 0.0
H374 H 0.22311 0.80311 0.76248 0.0
H375 H 0.22635 0.75199 0.80672 0.0
H376 H 0.22778 0.76188 0.88937 0.0
H377 H 0.16065 0.7551 0.10822 0.0
H378 H 0.18036 0.7809 0.0498 0.0
H379 H 0.21803 0.75522 0.03026 0.0
H380 H 0.199 0.73005 0.08909 0.0
H381 H 0.2034 0.76574 0.94386 0.0
H382 H 0.23553 0.7915 0.09586 0.0
H383 H 0.23567 0.802 0.17747 0.0
H384 H 0.21945 0.84454 0.13023 0.0
H385 H 0.21893 0.83406 0.04832 0.0
C386 C 0.28566 0.83312 0.85684 0.0
C387 C 0.28998 0.85265 0.84784 0.0
C388 C 0.27023 0.82088 0.88697 0.0
C389 C 0.25834 0.82761 0.90831 0.0
C390 C 0.26296 0.84733 0.9007 0.0
C391 C 0.27868 0.85976 0.87076 0.0
C392 C 0.24127 0.81383 0.93848 0.0
C393 C 0.24019 0.8193 0.98487 0.0
C394 C 0.22722 0.79448 0.92305 0.0
C395 C 0.2262 0.78834 0.87336 0.0
C396 C 0.22481 0.79984 0.83703 0.0
C397 C 0.22412 0.79416 0.79027 0.0
C398 C 0.22469 0.77694 0.77937 0.0
C399 C 0.22591 0.76533 0.81522 0.0
C400 C 0.22663 0.77095 0.86204 0.0
C401 C 0.173 0.75489 0.09097 0.0
C402 C 0.17832 0.7406 0.1032 0.0
C403 C 0.18428 0.76965 0.05785 0.0
C404 C 0.20068 0.76997 0.03581 0.0
C405 C 0.20545 0.75524 0.04679 0.0
C406 C 0.19457 0.74089 0.08048 0.0
C407 C 0.21351 0.78583 1.00229 0.0
C408 C 0.21377 0.7807 0.95532 0.0
C409 C 0.22653 0.80551 0.01696 0.0
C410 C 0.22691 0.81181 0.0661 0.0
C411 C 0.23178 0.80294 0.10293 0.0
C412 C 0.23198 0.80892 0.14922 0.0
C413 C 0.2275 0.82387 0.15905 0.0
C414 C 0.22287 0.83292 0.12258 0.0
C415 C 0.22262 0.82697 0.07623 0.0
H416 H 0.22767 0.82849 0.19491 0.0
H417 H 0.22416 0.77257 0.74315 0.0
H418 H 0.43568 0.14475 0.21866 0.0
H419 H 0.43152 0.16549 0.15949 0.0
H420 H 0.43867 0.20755 0.26674 0.0
H421 H 0.44335 0.18728 0.32549 0.0
H422 H 0.40727 0.19912 0.19625 0.0
H423 H 0.47719 0.21829 0.21138 0.0
H424 H 0.50524 0.21168 0.21135 0.0
H425 H 0.49132 0.19037 0.06976 0.0
H426 H 0.46297 0.1966 0.06925 0.0
H427 H 0.43614 0.28848 0.06765 0.0
H428 H 0.43096 0.26221 0.12311 0.0
H429 H 0.44376 0.23196 0.01348 0.0
H430 H 0.44988 0.25855 0.95908 0.0
H431 H 0.46317 0.23231 0.08399 0.0
H432 H 0.3951 0.21493 0.0638 0.0
H433 H 0.3661 0.22004 0.06185 0.0
H434 H 0.37443 0.23566 0.20776 0.0
H435 H 0.40366 0.23089 0.21044 0.0
C436 C 0.43597 0.15822 0.22966 0.0
C437 C 0.43993 0.16444 0.27663 0.0
C438 C 0.43365 0.17007 0.19587 0.0
C439 C 0.43483 0.18809 0.20876 0.0
C440 C 0.43763 0.1937 0.25606 0.0
C441 C 0.44039 0.18213 0.28953 0.0
C442 C 0.435 0.20202 0.17276 0.0
C443 C 0.41949 0.20647 0.17172 0.0
C444 C 0.45075 0.21131 0.14027 0.0
C445 C 0.46783 0.20767 0.14048 0.0
C446 C 0.48 0.21202 0.18041 0.0
C447 C 0.49597 0.20838 0.18046 0.0
C448 C 0.50002 0.20054 0.14063 0.0
C449 C 0.48813 0.1964 0.10062 0.0
C450 C 0.47212 0.19998 0.10043 0.0
C451 C 0.43756 0.27607 0.05537 0.0
C452 C 0.44351 0.27564 0.00909 0.0
C453 C 0.43452 0.26097 0.08704 0.0
C454 C 0.43685 0.24489 0.07267 0.0
C455 C 0.44201 0.24418 0.02582 0.0
C456 C 0.44544 0.25939 0.99461 0.0
C457 C 0.43527 0.2295 0.10667 0.0
C458 C 0.45068 0.22484 0.10777 0.0
C459 C 0.41924 0.21983 0.13865 0.0
C460 C 0.40169 0.22274 0.1372 0.0
C461 C 0.39085 0.21961 0.09539 0.0
C462 C 0.37435 0.22241 0.09417 0.0
C463 C 0.36846 0.22822 0.13463 0.0
C464 C 0.37903 0.23119 0.17643 0.0
C465 C 0.39555 0.22841 0.17783 0.0
H466 H 0.35568 0.23039 0.13361 0.0
H467 H 0.5124 0.19774 0.14073 0.0
H468 H 0.11128 0.48258 0.12642 0.0
H469 H 0.10922 0.5125 0.14286 0.0
H470 H 0.17306 0.54804 0.13212 0.0
H471 H 0.17523 0.51836 0.11461 0.0
H472 H 0.15425 0.55472 0.21543 0.0
H473 H 0.14949 0.54989 0.04545 0.0
H474 H 0.13447 0.53261 0.97124 0.0
H475 H 0.0783 0.52663 0.01159 0.0
H476 H 0.09294 0.54362 0.0864 0.0
H477 H 0.17573 0.65304 0.20506 0.0
H478 H 0.17281 0.62084 0.19125 0.0
H479 H 0.11025 0.59607 0.16059 0.0
H480 H 0.11335 0.62875 0.17234 0.0
H481 H 0.12476 0.58147 0.10219 0.0
H482 H 0.12809 0.58747 0.26791 0.0
H483 H 0.14091 0.6031 0.34486 0.0
H484 H 0.19621 0.60452 0.31831 0.0
H485 H 0.18383 0.58914 0.24088 0.0
C486 C 0.12487 0.49677 0.12761 0.0
C487 C 0.14342 0.49811 0.11916 0.0
C488 C 0.12366 0.51383 0.13688 0.0
C489 C 0.14099 0.53244 0.13862 0.0
C490 C 0.15952 0.53379 0.13092 0.0
C491 C 0.16072 0.51683 0.12077 0.0
C492 C 0.13992 0.55061 0.14845 0.0
C493 C 0.14797 0.56071 0.1906 0.0
C494 C 0.131 0.55791 0.11679 0.0
C495 C 0.12225 0.5478 0.07174 0.0
C496 C 0.13389 0.54471 0.0387 0.0
C497 C 0.12546 0.53501 0.99649 0.0
C498 C 0.10542 0.52846 0.98677 0.0
C499 C 0.0938 0.53167 0.0192 0.0
C500 C 0.10216 0.54135 0.06149 0.0
C501 C 0.1613 0.64075 0.19555 0.0
C502 C 0.14472 0.64344 0.19019 0.0
C503 C 0.15962 0.62225 0.1879 0.0
C504 C 0.14119 0.6058 0.176 0.0
C505 C 0.12461 0.60847 0.17002 0.0
C506 C 0.12638 0.62714 0.17684 0.0
C507 C 0.13951 0.58601 0.16905 0.0
C508 C 0.1309 0.5755 0.12746 0.0
C509 C 0.14756 0.57809 0.20176 0.0
C510 C 0.15507 0.58728 0.24841 0.0
C511 C 0.14303 0.59123 0.27833 0.0
C512 C 0.15022 0.60003 0.32207 0.0
C513 C 0.16937 0.60483 0.33643 0.0
C514 C 0.18138 0.6008 0.30713 0.0
C515 C 0.17427 0.59202 0.26333 0.0
H516 H 0.17491 0.61165 0.3703 0.0
H517 H 0.09892 0.52096 0.95407 0.0
H518 H 0.63947 0.10241 0.29016 0.0
H519 H 0.60697 0.09938 0.30787 0.0
H520 H 0.63205 0.16227 0.28836 0.0
H521 H 0.66428 0.16539 0.2697 0.0
H522 H 0.60872 0.14546 0.37433 0.0
H523 H 0.60582 0.13564 0.20535 0.0
H524 H 0.6073 0.11873 0.13367 0.0
H525 H 0.55948 0.06364 0.18461 0.0
H526 H 0.55791 0.0802 0.25695 0.0
H527 H 0.5288 0.16363 0.36315 0.0
H528 H 0.55878 0.16156 0.34918 0.0
H529 H 0.52289 0.09847 0.32759 0.0
H530 H 0.49269 0.10069 0.33925 0.0
H531 H 0.55071 0.11177 0.26723 0.0
H532 H 0.55084 0.12001 0.43219 0.0
H533 H 0.54887 0.13487 0.50687 0.0
H534 H 0.60092 0.18958 0.46995 0.0
H535 H 0.60305 0.17513 0.39473 0.0
C536 C 0.63803 0.11557 0.28961 0.0
C537 C 0.65443 0.13413 0.27839 0.0
C538 C 0.61948 0.11381 0.29965 0.0
C539 C 0.61716 0.13061 0.29939 0.0
C540 C 0.63356 0.14914 0.28878 0.0
C541 C 0.65194 0.15086 0.27792 0.0
C542 C 0.5977 0.12909 0.31012 0.0
C543 C 0.59604 0.13822 0.35086 0.0
C544 C 0.58101 0.11901 0.28031 0.0
C545 C 0.58192 0.1091 0.23678 0.0
C546 C 0.59575 0.11988 0.20147 0.0
C547 C 0.59658 0.11037 0.16068 0.0
C548 C 0.58354 0.09011 0.15466 0.0
C549 C 0.5696 0.07933 0.18936 0.0
C550 C 0.56873 0.08877 0.23025 0.0
C551 C 0.52728 0.1493 0.35553 0.0
C552 C 0.50836 0.13231 0.35259 0.0
C553 C 0.54447 0.14809 0.34783 0.0
C554 C 0.54323 0.12977 0.33842 0.0
C555 C 0.52431 0.11278 0.33499 0.0
C556 C 0.50705 0.11405 0.34174 0.0
C557 C 0.56168 0.12852 0.3313 0.0
C558 C 0.56322 0.11885 0.29123 0.0
C559 C 0.57817 0.13777 0.36234 0.0
C560 C 0.57701 0.14652 0.40764 0.0
C561 C 0.56179 0.13525 0.43985 0.0
C562 C 0.56066 0.1436 0.48231 0.0
C563 C 0.57474 0.16317 0.49311 0.0
C564 C 0.59001 0.17442 0.46152 0.0
C565 C 0.59121 0.16615 0.41899 0.0
H566 H 0.57383 0.1696 0.52599 0.0
H567 H 0.5842 0.08277 0.12305 0.0
H568 H 0.403 0.48531 0.49979 0.0
H569 H 0.4347 0.51544 0.48329 0.0
H570 H 0.40602 0.55058 0.49768 0.0
H571 H 0.37444 0.52068 0.51522 0.0
H572 H 0.43132 0.55825 0.41392 0.0
H573 H 0.4319 0.552 0.58328 0.0
H574 H 0.42987 0.53413 0.65635 0.0
H575 H 0.47981 0.52827 0.61292 0.0
H576 H 0.48194 0.54586 0.53922 0.0
H577 H 0.51041 0.65609 0.42379 0.0
H578 H 0.48044 0.62443 0.43803 0.0
H579 H 0.51648 0.59744 0.46645 0.0
H580 H 0.54665 0.62946 0.4544 0.0
H581 H 0.48804 0.58372 0.52549 0.0
H582 H 0.48965 0.59032 0.35968 0.0
H583 H 0.4922 0.6064 0.28349 0.0
H584 H 0.43932 0.60918 0.31416 0.0
H585 H 0.43661 0.59335 0.39085 0.0
C586 C 0.40344 0.49945 0.49935 0.0
C587 C 0.38621 0.50062 0.5089 0.0
C588 C 0.42156 0.51663 0.49004 0.0
C589 C 0.42267 0.5352 0.48936 0.0
C590 C 0.40544 0.53637 0.49804 0.0
C591 C 0.38744 0.51928 0.50822 0.0
C592 C 0.44179 0.5535 0.47989 0.0
C593 C 0.4437 0.56397 0.43843 0.0
C594 C 0.45812 0.56049 0.51111 0.0
C595 C 0.45692 0.55003 0.55552 0.0
C596 C 0.44232 0.54673 0.58911 0.0
C597 C 0.44118 0.53669 0.63068 0.0
C598 C 0.45466 0.53001 0.6392 0.0
C599 C 0.46935 0.53342 0.60623 0.0
C600 C 0.47054 0.54343 0.56457 0.0
C601 C 0.51197 0.64341 0.43298 0.0
C602 C 0.53092 0.64527 0.43768 0.0
C603 C 0.49478 0.62524 0.44085 0.0
C604 C 0.49607 0.60832 0.45229 0.0
C605 C 0.51501 0.6102 0.45749 0.0
C606 C 0.53227 0.62851 0.4505 0.0
C607 C 0.47764 0.58884 0.45952 0.0
C608 C 0.47582 0.57805 0.50059 0.0
C609 C 0.4615 0.58132 0.42737 0.0
C610 C 0.46303 0.5908 0.3812 0.0
C611 C 0.47864 0.59449 0.35032 0.0
C612 C 0.48011 0.60354 0.30702 0.0
C613 C 0.46596 0.60885 0.29404 0.0
C614 C 0.45028 0.60507 0.32429 0.0
C615 C 0.44876 0.59604 0.36765 0.0
H616 H 0.46711 0.61585 0.2605 0.0
H617 H 0.45376 0.52224 0.67141 0.0
H618 H 0.86996 0.50464 0.59648 0.0
H619 H 0.87196 0.47476 0.61246 0.0
H620 H 0.9347 0.51055 0.64166 0.0
H621 H 0.93278 0.54067 0.62669 0.0
H622 H 0.92165 0.47521 0.57761 0.0
H623 H 0.90968 0.4941 0.73015 0.0
H624 H 0.8919 0.50393 0.78612 0.0
H625 H 0.83767 0.44952 0.7599 0.0
H626 H 0.85507 0.43951 0.70321 0.0
H627 H 0.93019 0.39378 0.66744 0.0
H628 H 0.93322 0.42626 0.65348 0.0
H629 H 0.86976 0.40063 0.6716 0.0
H630 H 0.86689 0.36856 0.68793 0.0
H631 H 0.88609 0.4331 0.71438 0.0
H632 H 0.8952 0.41424 0.56004 0.0
H633 H 0.91057 0.40363 0.49931 0.0
H634 H 0.9669 0.45618 0.52235 0.0
H635 H 0.9519 0.46698 0.58366 0.0
C636 C 0.88421 0.50619 0.6062 0.0
C637 C 0.90121 0.52504 0.61044 0.0
C638 C 0.88531 0.48911 0.61536 0.0
C639 C 0.90347 0.49049 0.62827 0.0
C640 C 0.92057 0.50922 0.63168 0.0
C641 C 0.91941 0.52638 0.62335 0.0
C642 C 0.90433 0.47227 0.63903 0.0
C643 C 0.91418 0.4661 0.60789 0.0
C644 C 0.8941 0.46021 0.67779 0.0
C645 C 0.88364 0.46614 0.71212 0.0
C646 C 0.89392 0.48431 0.73601 0.0
C647 C 0.88392 0.4899 0.76793 0.0
C648 C 0.86365 0.47738 0.77648 0.0
C649 C 0.85336 0.45921 0.75321 0.0
C650 C 0.86329 0.45357 0.72122 0.0
C651 C 0.91691 0.39512 0.66827 0.0
C652 C 0.89832 0.37862 0.67885 0.0
C653 C 0.91862 0.41368 0.66004 0.0
C654 C 0.90168 0.41597 0.66088 0.0
C655 C 0.8831 0.39938 0.67095 0.0
C656 C 0.88146 0.381 0.68016 0.0
C657 C 0.90314 0.4356 0.65244 0.0
C658 C 0.89372 0.44214 0.68413 0.0
C659 C 0.91344 0.44777 0.61358 0.0
C660 C 0.92248 0.4413 0.5768 0.0
C661 C 0.9109 0.42346 0.55241 0.0
C662 C 0.91953 0.41742 0.51784 0.0
C663 C 0.93971 0.42919 0.50709 0.0
C664 C 0.95128 0.44705 0.53079 0.0
C665 C 0.94272 0.45315 0.56542 0.0
H666 H 0.94637 0.4245 0.48031 0.0
H667 H 0.85594 0.48173 0.8012 0.0
H668 H 0.39708 0.91092 0.83453 0.0
H669 H 0.42904 0.91266 0.85049 0.0
H670 H 0.42184 0.87804 0.72638 0.0
H671 H 0.38979 0.87581 0.71094 0.0
H672 H 0.43311 0.86409 0.79464 0.0
H673 H 0.45532 0.9289 0.73235 0.0
H674 H 0.45759 0.9616 0.72652 0.0
H675 H 0.48102 0.97562 0.86653 0.0
H676 H 0.47863 0.94288 0.87342 0.0
H677 H 0.54883 0.91406 0.79345 0.0
H678 H 0.5185 0.91548 0.77728 0.0
H679 H 0.4884 0.87389 0.8891 0.0
H680 H 0.51846 0.87199 0.90471 0.0
H681 H 0.49631 0.92644 0.82452 0.0
H682 H 0.44019 0.84384 0.86104 0.0
H683 H 0.43869 0.81141 0.8578 0.0
H684 H 0.48437 0.83355 0.75276 0.0
H685 H 0.48595 0.866 0.75493 0.0
C686 C 0.40239 0.90381 0.81045 0.0
C687 C 0.39083 0.89318 0.77152 0.0
C688 C 0.42071 0.90487 0.81954 0.0
C689 C 0.42795 0.89556 0.78952 0.0
C690 C 0.41657 0.88526 0.75023 0.0
C691 C 0.39823 0.88406 0.74137 0.0
C692 C 0.44701 0.89586 0.79964 0.0
C693 C 0.4469 0.87775 0.80123 0.0
C694 C 0.46514 0.91366 0.80759 0.0
C695 C 0.46661 0.93336 0.80355 0.0
C696 C 0.46081 0.93889 0.76203 0.0
C697 C 0.46214 0.95745 0.75851 0.0
C698 C 0.46939 0.97066 0.79618 0.0
C699 C 0.47537 0.96536 0.83741 0.0
C700 C 0.47405 0.94681 0.84112 0.0
C701 C 0.53577 0.90524 0.81469 0.0
C702 C 0.53605 0.89276 0.8501 0.0
C703 C 0.51845 0.90613 0.8055 0.0
C704 C 0.50105 0.8946 0.83152 0.0
C705 C 0.5015 0.88263 0.8679 0.0
C706 C 0.51874 0.88161 0.87687 0.0
C707 C 0.48231 0.89467 0.81982 0.0
C708 C 0.48248 0.91281 0.81807 0.0
C709 C 0.4643 0.87693 0.81051 0.0
C710 C 0.46332 0.8574 0.80854 0.0
C711 C 0.44986 0.84175 0.83715 0.0
C712 C 0.449 0.82338 0.83551 0.0
C713 C 0.46148 0.82045 0.80521 0.0
C714 C 0.47477 0.83586 0.77634 0.0
C715 C 0.47567 0.85426 0.7778 0.0
H716 H 0.4608 0.80622 0.80403 0.0
H717 H 0.47042 0.98502 0.79339 0.0
H718 H 0.49507 0.39285 0.96017 0.0
H719 H 0.52488 0.42483 0.97683 0.0
H720 H 0.56189 0.39873 0.95256 0.0
H721 H 0.53232 0.36693 0.9347 0.0
H722 H 0.56912 0.42268 0.0406 0.0
H723 H 0.5618 0.42457 0.87137 0.0
H724 H 0.54313 0.42275 0.79959 0.0
H725 H 0.53578 0.4709 0.84879 0.0
H726 H 0.55417 0.4728 0.92123 0.0
H727 H 0.66661 0.50248 0.03099 0.0
H728 H 0.63497 0.47248 0.01639 0.0
H729 H 0.60694 0.50778 0.99132 0.0
H730 H 0.639 0.538 1.00351 0.0
H731 H 0.59292 0.47981 0.93194 0.0
H732 H 0.60074 0.4805 0.09718 0.0
H733 H 0.61744 0.48286 0.17257 0.0
H734 H 0.62111 0.43104 0.13802 0.0
H735 H 0.60467 0.42851 0.06212 0.0
C736 C 0.50956 0.39394 0.9584 0.0
C737 C 0.51135 0.37738 0.94603 0.0
C738 C 0.52655 0.4122 0.96782 0.0
C739 C 0.54554 0.41409 0.96587 0.0
C740 C 0.54735 0.39754 0.95426 0.0
C741 C 0.53044 0.37942 0.9439 0.0
C742 C 0.56364 0.43332 0.97583 0.0
C743 C 0.57448 0.43516 0.01675 0.0
C744 C 0.5701 0.44976 0.94554 0.0
C745 C 0.55914 0.44867 0.90194 0.0
C746 C 0.55603 0.43463 0.86709 0.0
C747 C 0.54554 0.43362 0.82624 0.0
C748 C 0.53822 0.44666 0.8197 0.0
C749 C 0.54143 0.46078 0.85394 0.0
C750 C 0.55189 0.46184 0.89488 0.0
C751 C 0.65371 0.50387 0.02243 0.0
C752 C 0.65528 0.52262 0.01871 0.0
C753 C 0.63554 0.48666 0.01439 0.0
C754 C 0.61832 0.48772 1.00388 0.0
C755 C 0.61993 0.50648 0.99958 0.0
C756 C 0.63825 0.52376 0.00663 0.0
C757 C 0.59883 0.46925 0.99666 0.0
C758 C 0.58762 0.46749 0.95625 0.0
C759 C 0.59176 0.453 0.02808 0.0
C760 C 0.60161 0.45442 0.07377 0.0
C761 C 0.60523 0.46968 0.10551 0.0
C762 C 0.61464 0.47104 0.14836 0.0
C763 C 0.62038 0.45714 0.16003 0.0
C764 C 0.61668 0.44181 0.12892 0.0
C765 C 0.60729 0.44039 0.086 0.0
H766 H 0.62766 0.45821 0.19322 0.0
H767 H 0.5301 0.44585 0.78805 0.0
H768 H 0.3039 0.44781 0.7143 0.0
H769 H 0.28253 0.44828 0.777 0.0
H770 H 0.27056 0.4879 0.69498 0.0
H771 H 0.29232 0.48805 0.63339 0.0
H772 H 0.27486 0.49905 0.78034 0.0
H773 H 0.2371 0.4369 0.70189 0.0
H774 H 0.23028 0.40462 0.6702 0.0
H775 H 0.23469 0.38529 0.80853 0.0
H776 H 0.2418 0.41757 0.84096 0.0
H777 H 0.1725 0.44579 0.91459 0.0
H778 H 0.19372 0.44728 0.84917 0.0
H779 H 0.24598 0.4861 0.92997 0.0
H780 H 0.22501 0.48523 0.99433 0.0
H781 H 0.21992 0.43568 0.8413 0.0
H782 H 0.2834 0.51739 0.86196 0.0
H783 H 0.28751 0.54968 0.88592 0.0
H784 H 0.22665 0.53 0.84919 0.0
H785 H 0.22224 0.49769 0.82443 0.0
C786 C 0.29688 0.45678 0.70996 0.0
C787 C 0.29977 0.46785 0.66885 0.0
C788 C 0.28455 0.45693 0.74563 0.0
C789 C 0.27464 0.46786 0.7404 0.0
C790 C 0.278 0.47934 0.69991 0.0
C791 C 0.29046 0.47938 0.66463 0.0
C792 C 0.2605 0.46722 0.77649 0.0
C793 C 0.26288 0.48518 0.79371 0.0
C794 C 0.24451 0.44915 0.79311 0.0
C795 C 0.24017 0.42971 0.77377 0.0
C796 C 0.23676 0.42581 0.7255 0.0
C797 C 0.23282 0.40751 0.70741 0.0
C798 C 0.23211 0.39294 0.73732 0.0
C799 C 0.23528 0.39661 0.7854 0.0
C800 C 0.23925 0.4149 0.80366 0.0
C801 C 0.18851 0.45483 0.91808 0.0
C802 C 0.19706 0.46551 0.95948 0.0
C803 C 0.20062 0.45559 0.88081 0.0
C804 C 0.22146 0.46699 0.8844 0.0
C805 C 0.22996 0.47756 0.92585 0.0
C806 C 0.21791 0.47699 0.96276 0.0
C807 C 0.23445 0.46751 0.84551 0.0
C808 C 0.23189 0.44954 0.82788 0.0
C809 C 0.2499 0.48558 0.82737 0.0
C810 C 0.25246 0.50505 0.84176 0.0
C811 C 0.27092 0.51998 0.85882 0.0
C812 C 0.27329 0.53828 0.87258 0.0
C813 C 0.25733 0.54187 0.86922 0.0
C814 C 0.23898 0.52718 0.85194 0.0
C815 C 0.23653 0.50886 0.8381 0.0
H816 H 0.2592 0.55604 0.87991 0.0
H817 H 0.22906 0.37878 0.72325 0.0
H818 H 0.73993 0.16747 0.08314 0.0
H819 H 0.76188 0.18932 0.02146 0.0
H820 H 0.77782 0.2401 0.10985 0.0
H821 H 0.75527 0.21855 0.17012 0.0
H822 H 0.77331 0.24935 0.02867 0.0
H823 H 0.80911 0.21899 0.09104 0.0
H824 H 0.81436 0.19142 0.11487 0.0
H825 H 0.80502 0.17028 0.97295 0.0
H826 H 0.79947 0.19759 0.94837 0.0
H827 H 0.87098 0.29382 0.87688 0.0
H828 H 0.85116 0.27386 0.94349 0.0
H829 H 0.79768 0.26575 0.87572 0.0
H830 H 0.81731 0.28608 0.8103 0.0
H831 H 0.8233 0.23682 0.95095 0.0
H832 H 0.76386 0.26203 0.95271 0.0
H833 H 0.76179 0.29214 0.93672 0.0
H834 H 0.8243 0.32831 0.96506 0.0
H835 H 0.8267 0.29844 0.98184 0.0
C836 C 0.74805 0.18331 0.08915 0.0
C837 C 0.74584 0.1913 0.13135 0.0
C838 C 0.76072 0.19578 0.05407 0.0
C839 C 0.77179 0.2164 0.06118 0.0
C840 C 0.76944 0.2243 0.10331 0.0
C841 C 0.75652 0.21193 0.13783 0.0
C842 C 0.78565 0.22988 0.02479 0.0
C843 C 0.78424 0.24657 0.01178 0.0
C844 C 0.80028 0.22662 1.00336 0.0
C845 C 0.80369 0.21023 0.01797 0.0
C846 C 0.80805 0.20838 0.06498 0.0
C847 C 0.81109 0.19282 0.07861 0.0
C848 C 0.80998 0.17908 0.04546 0.0
C849 C 0.80586 0.18092 0.99859 0.0
C850 C 0.80278 0.19645 0.98478 0.0
C851 C 0.85502 0.28795 0.87652 0.0
C852 C 0.84574 0.29168 0.83853 0.0
C853 C 0.84371 0.27646 0.91445 0.0
C854 C 0.82295 0.26849 0.91491 0.0
C855 C 0.81371 0.27209 0.87675 0.0
C856 C 0.82498 0.2837 0.83923 0.0
C857 C 0.81076 0.25609 0.95468 0.0
C858 C 0.81242 0.2396 0.96811 0.0
C859 C 0.79682 0.2599 0.97774 0.0
C860 C 0.79548 0.27797 0.96811 0.0
C861 C 0.77715 0.27641 0.95572 0.0
C862 C 0.77592 0.29343 0.94648 0.0
C863 C 0.79292 0.31212 0.94973 0.0
C864 C 0.81117 0.31382 0.96238 0.0
C865 C 0.81247 0.29685 0.97169 0.0
H866 H 0.79194 0.32528 0.94253 0.0
H867 H 0.81234 0.16703 0.05609 0.0
H868 H 0.60404 0.74645 0.27147 0.0
H869 H 0.60673 0.76937 0.20888 0.0
H870 H 0.5431 0.7452 0.21166 0.0
H871 H 0.54036 0.72272 0.275 0.0
H872 H 0.56302 0.75274 0.11684 0.0
H873 H 0.56567 0.78315 0.26853 0.0
H874 H 0.57978 0.79462 0.34745 0.0
H875 H 0.63714 0.83312 0.28734 0.0
H876 H 0.62341 0.82161 0.20804 0.0
H877 H 0.54312 0.82033 1.00445 0.0
H878 H 0.54467 0.7984 0.06339 0.0
H879 H 0.60762 0.83856 0.08114 0.0
H880 H 0.60598 0.86101 0.02311 0.0
H881 H 0.59175 0.82331 0.16261 0.0
H882 H 0.59027 0.79677 0.01205 0.0
H883 H 0.5783 0.78554 0.93158 0.0
H884 H 0.52232 0.74012 0.98539 0.0
H885 H 0.53383 0.75127 0.0662 0.0
C886 C 0.59061 0.74579 0.25808 0.0
C887 C 0.57199 0.73288 0.27808 0.0
C888 C 0.59218 0.75891 0.22255 0.0
C889 C 0.57511 0.75897 0.20597 0.0
C890 C 0.55641 0.74532 0.22405 0.0
C891 C 0.55489 0.73254 0.26022 0.0
C892 C 0.57674 0.77411 0.17213 0.0
C893 C 0.56917 0.76816 0.12676 0.0
C894 C 0.58539 0.79429 0.18487 0.0
C895 C 0.59358 0.80134 0.23245 0.0
C896 C 0.58134 0.79391 0.27218 0.0
C897 C 0.58925 0.80045 0.31697 0.0
C898 C 0.60936 0.81454 0.32243 0.0
C899 C 0.62158 0.82217 0.28307 0.0
C900 C 0.61374 0.81565 0.23821 0.0
C901 C 0.55724 0.82465 0.02142 0.0
C902 C 0.57447 0.8423 0.00893 0.0
C903 C 0.55814 0.81202 0.05484 0.0
C904 C 0.57638 0.81653 0.07568 0.0
C905 C 0.59342 0.83468 0.0652 0.0
C906 C 0.59246 0.84752 0.03215 0.0
C907 C 0.57761 0.80194 0.1072 0.0
C908 C 0.58576 0.80797 0.15222 0.0
C909 C 0.56983 0.78187 0.09377 0.0
C910 C 0.56287 0.77497 0.04521 0.0
C911 C 0.57536 0.78447 0.00673 0.0
C912 C 0.56866 0.77811 0.96105 0.0
C913 C 0.54955 0.76216 0.95337 0.0
C914 C 0.53712 0.75249 0.99139 0.0
C915 C 0.54373 0.75881 0.03715 0.0
H916 H 0.54439 0.75727 0.91797 0.0
H917 H 0.61547 0.81958 0.35713 0.0
H918 H 0.87084 0.59568 0.43957 0.0
H919 H 0.84971 0.59717 0.37705 0.0
H920 H 0.81052 0.53412 0.38826 0.0
H921 H 0.8312 0.53259 0.45135 0.0
H922 H 0.82097 0.55072 0.29209 0.0
H923 H 0.79652 0.55955 0.44248 0.0
H924 H 0.80064 0.57635 0.51834 0.0
H925 H 0.81854 0.6313 0.44708 0.0
H926 H 0.81483 0.61486 0.37077 0.0
H927 H 0.73326 0.53073 0.17936 0.0
H928 H 0.75671 0.53284 0.23954 0.0
H929 H 0.78062 0.59606 0.24836 0.0
H930 H 0.75644 0.59384 0.18952 0.0
H931 H 0.78092 0.58261 0.33143 0.0
H932 H 0.80351 0.57519 0.18194 0.0
H933 H 0.8013 0.56035 0.10424 0.0
H934 H 0.79002 0.50595 0.16937 0.0
H935 H 0.79188 0.52037 0.24748 0.0
C936 C 0.85792 0.58211 0.42806 0.0
C937 C 0.85259 0.56402 0.4503 0.0
C938 C 0.84585 0.583 0.3926 0.0
C939 C 0.82854 0.56577 0.37842 0.0
C940 C 0.82382 0.54756 0.39882 0.0
C941 C 0.83562 0.54672 0.43484 0.0
C942 C 0.81462 0.56671 0.34432 0.0
C943 C 0.8121 0.55756 0.30064 0.0
C944 C 0.80358 0.57622 0.35518 0.0
C945 C 0.80563 0.58604 0.40099 0.0
C946 C 0.80152 0.57525 0.44302 0.0
C947 C 0.80374 0.5847 0.48609 0.0
C948 C 0.80991 0.6049 0.48754 0.0
C949 C 0.81381 0.61567 0.44591 0.0
C950 C 0.81164 0.6063 0.40274 0.0
C951 C 0.74328 0.54503 0.19475 0.0
C952 C 0.74315 0.56214 0.17958 0.0
C953 C 0.75681 0.54625 0.22884 0.0
C954 C 0.77089 0.5647 0.2474 0.0
C955 C 0.77003 0.58169 0.23424 0.0
C956 C 0.75618 0.5804 0.20073 0.0
C957 C 0.78688 0.56624 0.2791 0.0
C958 C 0.78987 0.5759 0.3224 0.0
C959 C 0.79865 0.55752 0.26749 0.0
C960 C 0.79768 0.54882 0.22057 0.0
C961 C 0.80044 0.56002 0.17969 0.0
C962 C 0.79926 0.55169 0.13557 0.0
C963 C 0.79548 0.53221 0.13187 0.0
C964 C 0.79293 0.52104 0.17229 0.0
C965 C 0.79407 0.52929 0.2165 0.0
H966 H 0.79457 0.52578 0.09768 0.0
H967 H 0.81162 0.61219 0.52092 0.0
H968 H 0.22087 0.72831 0.33334 0.0
H969 H 0.24051 0.75085 0.39638 0.0
H970 H 0.1964 0.7689 0.41268 0.0
H971 H 0.17644 0.74613 0.34966 0.0
H972 H 0.2369 0.8009 0.40584 0.0
H973 H 0.19807 0.74109 0.4934 0.0
H974 H 0.1838 0.70555 0.51082 0.0
H975 H 0.24257 0.7134 0.52488 0.0
H976 H 0.2572 0.74895 0.50687 0.0
H977 H 0.28378 0.85693 0.6133 0.0
H978 H 0.26074 0.83554 0.55257 0.0
H979 H 0.29199 0.80249 0.54673 0.0
H980 H 0.31432 0.82317 0.60897 0.0
H981 H 0.25494 0.77796 0.55054 0.0
H982 H 0.29432 0.83629 0.45772 0.0
H983 H 0.30981 0.87171 0.43737 0.0
H984 H 0.2521 0.86683 0.42957 0.0
H985 H 0.23628 0.83143 0.45045 0.0
C986 C 0.21523 0.73693 0.35059 0.0
C987 C 0.19709 0.73543 0.33663 0.0
C988 C 0.22647 0.74978 0.38661 0.0
C989 C 0.21987 0.76149 0.40916 0.0
C990 C 0.20171 0.75997 0.39562 0.0
C991 C 0.19029 0.74688 0.35988 0.0
C992 C 0.23231 0.77558 0.44617 0.0
C993 C 0.24062 0.79595 0.43793 0.0
C994 C 0.2375 0.76904 0.4873 0.0
C995 C 0.22873 0.74767 0.49842 0.0
C996 C 0.20796 0.73522 0.49984 0.0
C997 C 0.1998 0.71507 0.50989 0.0
C998 C 0.21227 0.70721 0.51886 0.0
C999 C 0.23292 0.7195 0.5179 0.0
C1000 C 0.24116 0.73966 0.50783 0.0
C1001 C 0.28588 0.84528 0.59846 0.0
C1002 C 0.3008 0.84167 0.6158 0.0
C1003 C 0.27273 0.83307 0.56367 0.0
C1004 C 0.27465 0.81741 0.54473 0.0
C1005 C 0.29008 0.81435 0.56093 0.0
C1006 C 0.30291 0.82625 0.59633 0.0
C1007 C 0.26006 0.80348 0.50995 0.0
C1008 C 0.25123 0.78305 0.51865 0.0
C1009 C 0.25465 0.81001 0.46894 0.0
C1010 C 0.26413 0.83127 0.45614 0.0
C1011 C 0.28494 0.84281 0.452 0.0
C1012 C 0.29378 0.86287 0.44031 0.0
C1013 C 0.28195 0.87153 0.43233 0.0
C1014 C 0.26125 0.86012 0.43585 0.0
C1015 C 0.25234 0.84005 0.44756 0.0
H1016 H 0.28882 0.88707 0.42332 0.0
H1017 H 0.20592 0.69161 0.52663 0.0
H1018 H 0.4415 0.27971 0.76775 0.0
H1019 H 0.43931 0.25714 0.70494 0.0
H1020 H 0.50244 0.27906 0.71631 0.0
H1021 H 0.50467 0.30127 0.77968 0.0
H1022 H 0.48599 0.27338 0.62031 0.0
H1023 H 0.47571 0.2399 0.77065 0.0
H1024 H 0.4586 0.22776 0.84638 0.0
H1025 H 0.40303 0.19264 0.77464 0.0
H1026 H 0.41979 0.20484 0.69846 0.0
H1027 H 0.50206 0.20342 0.50693 0.0
H1028 H 0.50121 0.22541 0.56672 0.0
H1029 H 0.43743 0.18834 0.57717 0.0
H1030 H 0.43841 0.16569 0.5189 0.0
H1031 H 0.45135 0.20175 0.65942 0.0
H1032 H 0.46008 0.23223 0.50994 0.0
H1033 H 0.47526 0.24454 0.43242 0.0
H1034 H 0.53064 0.28546 0.49816 0.0
H1035 H 0.51587 0.27319 0.57608 0.0
C1036 C 0.45496 0.27998 0.75619 0.0
C1037 C 0.47325 0.29218 0.77861 0.0
C1038 C 0.45366 0.26703 0.72055 0.0
C1039 C 0.4707 0.26639 0.70639 0.0
C1040 C 0.48915 0.27937 0.72686 0.0
C1041 C 0.49038 0.29201 0.76304 0.0
C1042 C 0.46922 0.25138 0.67239 0.0
C1043 C 0.47855 0.25773 0.62881 0.0
C1044 C 0.45896 0.23094 0.68319 0.0
C1045 C 0.44895 0.22346 0.72892 0.0
C1046 C 0.45981 0.22973 0.77105 0.0
C1047 C 0.45018 0.22281 0.81404 0.0
C1048 C 0.42973 0.20949 0.81533 0.0
C1049 C 0.41887 0.203 0.7736 0.0
C1050 C 0.42842 0.2099 0.73051 0.0
C1051 C 0.48791 0.19979 0.52258 0.0
C1052 C 0.47028 0.18295 0.50813 0.0
C1053 C 0.4874 0.21247 0.55642 0.0
C1054 C 0.46917 0.20892 0.57537 0.0
C1055 C 0.45165 0.19151 0.56277 0.0
C1056 C 0.45222 0.17855 0.52958 0.0
C1057 C 0.46843 0.2237 0.60714 0.0
C1058 C 0.45866 0.21735 0.65041 0.0
C1059 C 0.47798 0.24414 0.59565 0.0
C1060 C 0.4869 0.25167 0.54885 0.0
C1061 C 0.47553 0.24376 0.50786 0.0
C1062 C 0.48406 0.25075 0.46385 0.0
C1063 C 0.50391 0.26575 0.46037 0.0
C1064 C 0.51527 0.27383 0.50091 0.0
C1065 C 0.50682 0.26688 0.54501 0.0
H1066 H 0.51049 0.27113 0.42626 0.0
H1067 H 0.4223 0.20415 0.84865 0.0
H1068 H 0.10438 0.40962 0.96168 0.0
H1069 H 0.07621 0.39308 0.90756 0.0
H1070 H 0.03539 0.37866 0.02299 0.0
H1071 H 0.06344 0.39472 0.07733 0.0
H1072 H 1.02148 0.34848 0.96452 0.0
H1073 H 0.04728 0.41855 0.94847 0.0
H1074 H 0.07305 0.45324 0.93419 0.0
H1075 H 0.08294 0.43773 0.79637 0.0
H1076 H 0.05739 0.40288 0.81008 0.0
H1077 H 0.93517 0.3321 0.83595 0.0
H1078 H 0.9637 0.34357 0.88896 0.0
H1079 H 1.00277 0.35664 0.7704 0.0
H1080 H 0.97438 0.34558 0.71722 0.0
H1081 H 1.01795 0.38673 0.82922 0.0
H1082 H 0.99041 0.31643 0.84511 0.0
H1083 H 0.96405 0.28209 0.86047 0.0
H1084 H 0.9567 0.29837 0.99969 0.0
H1085 H 0.98285 0.33288 0.98496 0.0
C1086 C 0.08941 0.40275 0.97563 0.0
C1087 C 0.08621 0.4036 0.02389 0.0
C1088 C 0.07328 0.39339 0.94457 0.0
C1089 C 0.05359 0.38489 0.96095 0.0
C1090 C 0.05039 0.38512 0.00933 0.0
C1091 C 0.06649 0.39436 0.04042 0.0
C1092 C 0.03634 0.37631 0.92773 0.0
C1093 C 1.02064 0.35693 0.9352 0.0
C1094 C 0.03528 0.38712 0.88888 0.0
C1095 C 0.05058 0.40808 0.88049 0.0
C1096 C 0.05505 0.42251 0.91525 0.0
C1097 C 0.0696 0.44221 0.90724 0.0
C1098 C 0.07967 0.44767 0.86445 0.0
C1099 C 0.07516 0.43347 0.82953 0.0
C1100 C 0.06064 0.41375 0.83738 0.0
C1101 C 0.94979 0.33718 0.82114 0.0
C1102 C 0.95244 0.33788 0.77225 0.0
C1103 C 0.96613 0.3437 0.85156 0.0
C1104 C 0.98546 0.35087 0.83384 0.0
C1105 C 0.98805 0.35122 0.78505 0.0
C1106 C 0.97176 0.34479 0.75464 0.0
C1107 C 1.00309 0.35887 0.86589 0.0
C1108 C 1.01884 0.3782 0.85831 0.0
C1109 C 1.00412 0.34805 0.90476 0.0
C1110 C 0.98847 0.32728 0.91378 0.0
C1111 C 0.98307 0.31272 0.87889 0.0
C1112 C 0.96819 0.29321 0.8875 0.0
C1113 C 0.95867 0.28806 0.93099 0.0
C1114 C 0.96407 0.30239 0.966 0.0
C1115 C 0.97894 0.32192 0.95756 0.0
H1116 H 0.94715 0.27295 0.93758 0.0
H1117 H 0.09092 0.46293 0.85831 0.0
H1118 H 0.62375 0.92917 0.99524 0.0
H1119 H 0.6402 0.95737 0.04875 0.0
H1120 H 0.65641 0.99756 0.93172 0.0
H1121 H 0.6404 0.96945 0.87796 0.0
H1122 H 0.68613 1.01131 0.9929 0.0
H1123 H 0.61571 0.98665 1.00206 0.0
H1124 H 0.5805 0.96144 0.01385 0.0
H1125 H 0.59365 0.95152 0.1543 0.0
H1126 H 0.62902 0.9765 0.14312 0.0
H1127 H 0.7024 0.09765 0.11924 0.0
H1128 H 0.69116 0.06938 0.06608 0.0
H1129 H 0.6756 0.03001 0.18463 0.0
H1130 H 0.68647 0.05813 0.23787 0.0
H1131 H 0.64617 0.01567 0.12324 0.0
H1132 H 0.71683 0.04174 0.11417 0.0
H1133 H 0.75178 0.06746 0.10146 0.0
H1134 H 0.73795 0.0754 0.96003 0.0
H1135 H 0.70284 0.0499 0.97208 0.0
C1136 C 0.63102 0.944 0.98079 0.0
C1137 C 0.63064 0.94701 0.93224 0.0
C1138 C 0.64033 0.96015 0.01151 0.0
C1139 C 0.64926 0.97968 0.99449 0.0
C1140 C 0.64959 0.98269 0.94585 0.0
C1141 C 0.64038 0.96655 0.9151 0.0
C1142 C 0.65763 0.99695 0.0273 0.0
C1143 C 0.67732 0.01234 0.02112 0.0
C1144 C 0.64631 0.99826 0.06471 0.0
C1145 C 0.62505 0.98329 0.07158 0.0
C1146 C 0.61112 0.97899 0.03534 0.0
C1147 C 0.59113 0.96476 0.04193 0.0
C1148 C 0.58485 0.95484 0.08475 0.0
C1149 C 0.59855 0.95919 0.12112 0.0
C1150 C 0.61856 0.97339 0.11469 0.0
C1151 C 0.69682 0.08301 0.13402 0.0
C1152 C 0.69537 0.0802 0.1829 0.0
C1153 C 0.69043 0.06682 0.10353 0.0
C1154 C 0.68261 0.04748 0.1212 0.0
C1155 C 0.68152 0.04473 0.17001 0.0
C1156 C 0.68784 0.06088 0.20047 0.0
C1157 C 0.67473 0.03002 0.08906 0.0
C1158 C 0.65506 0.0146 0.09525 0.0
C1159 C 0.68604 0.02876 0.05157 0.0
C1160 C 0.70716 0.04404 0.04418 0.0
C1161 C 0.72121 0.04907 0.08047 0.0
C1162 C 0.74105 0.0636 0.07336 0.0
C1163 C 0.74707 0.07309 0.03001 0.0
C1164 C 0.73326 0.06805 0.99361 0.0
C1165 C 0.71339 0.05355 1.00055 0.0
H1166 H 0.76244 0.08434 0.02458 0.0
H1167 H 0.56937 0.94383 0.08979 0.0
H1168 H 0.6829 0.62883 0.05062 0.0
H1169 H 0.67149 0.64549 0.10452 0.0
H1170 H 0.69306 0.62636 0.22172 0.0
H1171 H 0.70423 0.60935 0.16795 0.0
H1172 H 0.65648 0.61933 0.23848 0.0
H1173 H 0.71662 0.67552 0.18462 0.0
H1174 H 0.74056 0.69803 0.12605 0.0
H1175 H 0.69655 0.71124 0.07229 0.0
H1176 H 0.67225 0.6886 0.13015 0.0
H1177 H 0.63931 0.67467 0.40994 0.0
H1178 H 0.65642 0.66317 0.35757 0.0
H1179 H 0.63468 0.6807 0.23781 0.0
H1180 H 0.61777 0.69257 0.2901 0.0
H1181 H 0.67243 0.68925 0.22355 0.0
H1182 H 0.61203 0.63225 0.27426 0.0
H1183 H 0.58766 0.6095 0.33181 0.0
H1184 H 0.63184 0.59755 0.39022 0.0
H1185 H 0.65657 0.62046 0.33339 0.0
C1186 C 0.68546 0.62836 0.08782 0.0
C1187 C 0.69453 0.61774 0.10486 0.0
C1188 C 0.67897 0.63798 0.11868 0.0
C1189 C 0.68152 0.63738 0.16735 0.0
C1190 C 0.6909 0.62708 0.18439 0.0
C1191 C 0.69737 0.61742 0.15353 0.0
C1192 C 0.67353 0.6466 0.2005 0.0
C1193 C 0.66028 0.63473 0.23566 0.0
C1194 C 0.67796 0.66655 0.19621 0.0
C1195 C 0.69256 0.68022 0.16147 0.0
C1196 C 0.712 0.68311 0.16008 0.0
C1197 C 0.72564 0.69592 0.12705 0.0
C1198 C 0.72007 0.70602 0.0954 0.0
C1199 C 0.70084 0.70339 0.0968 0.0
C1200 C 0.68713 0.69058 0.12974 0.0
C1201 C 0.63832 0.6763 0.37248 0.0
C1202 C 0.62704 0.68447 0.35429 0.0
C1203 C 0.64805 0.6696 0.3425 0.0
C1204 C 0.64658 0.67071 0.29358 0.0
C1205 C 0.63601 0.6796 0.27536 0.0
C1206 C 0.62631 0.68637 0.30536 0.0
C1207 C 0.65546 0.66199 0.26153 0.0
C1208 C 0.66878 0.67391 0.22651 0.0
C1209 C 0.65106 0.64205 0.26579 0.0
C1210 C 0.6362 0.62822 0.29989 0.0
C1211 C 0.61659 0.62488 0.29961 0.0
C1212 C 0.6027 0.61195 0.33206 0.0
C1213 C 0.60821 0.60213 0.36473 0.0
C1214 C 0.6276 0.60519 0.36494 0.0
C1215 C 0.64156 0.61814 0.3326 0.0
H1216 H 0.59744 0.59211 0.38982 0.0
H1217 H 0.73065 0.71593 0.06985 0.0
H1218 H 0.06925 0.67711 0.22297 0.0
H1219 H 0.04126 0.66623 0.27703 0.0
H1220 H 0.08147 0.68162 0.39448 0.0
H1221 H 0.10955 0.69242 0.34055 0.0
H1222 H 0.04994 0.64517 0.40501 0.0
H1223 H 0.05952 0.70925 0.36674 0.0
H1224 H 0.06341 0.73627 0.31473 0.0
H1225 H 1.0053 0.69861 0.25669 0.0
H1226 H 1.00116 0.67124 0.30793 0.0
H1227 H 0.9799 0.63007 0.5815 0.0
H1228 H 1.00846 0.64653 0.52899 0.0
H1229 H 0.96886 0.63008 0.41011 0.0
H1230 H 0.94012 0.61362 0.46257 0.0
H1231 H 1.00027 0.66786 0.40108 0.0
H1232 H 0.99111 0.60362 0.43659 0.0
H1233 H 0.98699 0.57626 0.4877 0.0
H1234 H 0.04428 0.61397 0.54966 0.0
H1235 H 0.04861 0.64166 0.49935 0.0
C1236 C 0.0722 0.67844 0.2603 0.0
C1237 C 0.0917 0.68568 0.27734 0.0
C1238 C 0.05615 0.67224 0.29124 0.0
C1239 C 0.0592 0.67318 0.33998 0.0
C1240 C 0.0787 0.68073 0.35708 0.0
C1241 C 0.09478 0.687 0.32615 0.0
C1242 C 0.04197 0.66536 0.37296 0.0
C1243 C 0.03929 0.6504 0.40465 0.0
C1244 C 0.02768 0.67172 0.37173 0.0
C1245 C 0.03011 0.68813 0.34087 0.0
C1246 C 0.04764 0.70667 0.34261 0.0
C1247 C 0.04988 0.72206 0.31332 0.0
C1248 C 0.03464 0.71914 0.28234 0.0
C1249 C 1.0171 0.70084 0.28067 0.0
C1250 C 1.01479 0.68539 0.30986 0.0
C1251 C 0.97721 0.63012 0.54425 0.0
C1252 C 0.95767 0.62041 0.5263 0.0
C1253 C 0.9936 0.63948 0.51419 0.0
C1254 C 0.99087 0.63932 0.46544 0.0
C1255 C 0.97137 0.63037 0.44755 0.0
C1256 C 0.95494 0.62094 0.47762 0.0
C1257 C 1.00835 0.64777 0.43319 0.0
C1258 C 1.01101 0.66274 0.40157 0.0
C1259 C 0.02263 0.6414 0.43432 0.0
C1260 C 1.02009 0.62478 0.46457 0.0
C1261 C 1.00275 0.60613 0.4614 0.0
C1262 C 1.0004 0.59055 0.49017 0.0
C1263 C 1.01534 0.59339 0.52201 0.0
C1264 C 0.0327 0.6118 0.52504 0.0
C1265 C 0.03512 0.62744 0.49639 0.0
H1266 H 1.01349 0.58131 0.54424 0.0
H1267 H 0.0364 0.73108 0.2597 0.0
H1268 H 0.41735 0.09456 0.49879 0.0
H1269 H 0.40059 0.06652 0.5526 0.0
H1270 H 0.38881 0.026 0.43797 0.0
H1271 H 0.405 0.05391 0.38387 0.0
H1272 H 0.35791 1.01112 0.49364 0.0
H1273 H 0.42839 0.03949 0.51676 0.0
H1274 H 0.4626 0.06612 0.53367 0.0
H1275 H 0.44407 0.07514 0.6688 0.0
H1276 H 0.40967 0.04872 0.65242 0.0
H1277 H 0.34323 0.92664 0.62456 0.0
H1278 H 0.35444 0.95493 0.57168 0.0
H1279 H 0.36432 0.9933 0.68991 0.0
H1280 H 0.35357 0.96513 0.74308 0.0
H1281 H 0.39524 1.00966 0.63377 0.0
H1282 H 0.32448 0.97926 0.61054 0.0
H1283 H 0.29084 0.9518 0.5924 0.0
H1284 H 0.31051 0.9456 0.45607 0.0
H1285 H 0.34434 0.97289 0.4736 0.0
C1286 C 0.41099 0.07968 0.48493 0.0
C1287 C 0.41263 0.07653 0.43698 0.0
C1288 C 0.40151 0.06362 0.51583 0.0
C1289 C 0.39373 0.04406 0.49967 0.0
C1290 C 0.3947 0.04089 0.45149 0.0
C1291 C 0.40402 0.05692 0.42053 0.0
C1292 C 0.3852 0.02693 0.53293 0.0
C1293 C 0.36616 1.01074 0.52405 0.0
C1294 C 0.39574 0.02644 0.57317 0.0
C1295 C 0.41642 0.04228 0.58316 0.0
C1296 C 0.43158 0.04725 0.54994 0.0
C1297 C 0.45101 0.06229 0.55945 0.0
C1298 C 0.45549 0.07235 0.60223 0.0
C1299 C 0.44057 0.06736 0.63564 0.0
C1300 C 0.42111 0.05234 0.62628 0.0
C1301 C 0.34754 0.94105 0.63932 0.0
C1302 C 0.34745 0.94357 0.68815 0.0
C1303 C 0.35391 0.95725 0.60895 0.0
C1304 C 0.36009 0.97632 0.62659 0.0
C1305 C 0.35965 0.97878 0.6753 0.0
C1306 C 0.3534 0.96261 0.70571 0.0
C1307 C 0.36792 0.99384 0.59461 0.0
C1308 C 0.38689 1.01009 0.60362 0.0
C1309 C 0.35737 0.99428 0.55434 0.0
C1310 C 0.33698 0.97802 0.54355 0.0
C1311 C 0.32166 0.97197 0.5768 0.0
C1312 C 0.30255 0.95645 0.56661 0.0
C1313 C 0.29855 0.94693 0.52315 0.0
C1314 C 0.31363 0.95297 0.48973 0.0
C1315 C 0.33277 0.96849 0.49975 0.0
H1316 H 0.28375 0.93491 0.51534 0.0
H1317 H 0.47054 0.08399 0.60952 0.0
H1318 H 0.33762 0.41215 0.66661 0.0
H1319 H 0.34899 0.39531 0.7206 0.0
H1320 H 0.37512 0.38058 0.60505 0.0
H1321 H 0.36339 0.39694 0.55084 0.0
H1322 H 0.35846 0.3503 0.66313 0.0
H1323 H 0.40334 0.42018 0.68014 0.0
H1324 H 0.41265 0.45497 0.69492 0.0
H1325 H 0.3871 0.43944 0.83251 0.0
H1326 H 0.3774 0.40449 0.81831 0.0
H1327 H 0.42754 0.33239 0.79067 0.0
H1328 H 0.41071 0.34431 0.73818 0.0
H1329 H 0.3853 0.35775 0.85739 0.0
H1330 H 0.40242 0.34624 0.9101 0.0
H1331 H 0.40032 0.38789 0.79889 0.0
H1332 H 0.35699 0.31777 0.78216 0.0
H1333 H 0.34859 0.2833 0.76635 0.0
H1334 H 0.37222 0.29957 0.62719 0.0
H1335 H 0.38101 0.3342 0.64238 0.0
C1336 C 0.34562 0.40517 0.65261 0.0
C1337 C 0.34966 0.406 0.60434 0.0
C1338 C 0.35223 0.39562 0.6836 0.0
C1339 C 0.36326 0.38693 0.66715 0.0
C1340 C 0.36671 0.38718 0.61876 0.0
C1341 C 0.36 0.3966 0.58775 0.0
C1342 C 0.37169 0.37806 0.70027 0.0
C1343 C 0.36777 0.3586 0.69256 0.0
C1344 C 0.38358 0.38868 0.73928 0.0
C1345 C 0.38946 0.40969 0.74797 0.0
C1346 C 0.39958 0.42416 0.71341 0.0
C1347 C 0.40495 0.44391 0.72171 0.0
C1348 C 0.40042 0.4494 0.76458 0.0
C1349 C 0.39056 0.43516 0.7993 0.0
C1350 C 0.38514 0.41538 0.79116 0.0
C1351 C 0.41817 0.33764 0.80575 0.0
C1352 C 0.41633 0.33831 0.85468 0.0
C1353 C 0.40848 0.34442 0.77561 0.0
C1354 C 0.39654 0.35182 0.79365 0.0
C1355 C 0.39441 0.35214 0.84249 0.0
C1356 C 0.40415 0.34546 0.87264 0.0
C1357 C 0.38708 0.36009 0.76185 0.0
C1358 C 0.39088 0.3795 0.76971 0.0
C1359 C 0.37519 0.34945 0.72286 0.0
C1360 C 0.36981 0.32861 0.71356 0.0
C1361 C 0.36052 0.31402 0.7483 0.0
C1362 C 0.35567 0.29445 0.73943 0.0
C1363 C 0.35991 0.28926 0.69583 0.0
C1364 C 0.36896 0.30362 0.66096 0.0
C1365 C 0.37386 0.32321 0.66966 0.0
H1366 H 0.35615 0.2741 0.68904 0.0
H1367 H 0.40459 0.4647 0.77093 0.0
loop_
_geom_bond_atom_site_label_1
_geom_bond_atom_site_label_2
_geom_bond_distance
_geom_bond_site_symmetry_2
_ccdc_geom_bond_type
O0 Cd1 2.223 . S
O0 C8 1.315 . S
Cd1 O0 2.223 . S
Cd1 O4 2.297 . S
Cd1 O5 2.439 . S
Cd1 O11 2.240 . S
Cd2 O3 2.240 . S
Cd2 O10 2.223 . S
Cd2 O12 2.297 1_554 S
Cd2 O13 2.439 1_554 S
O3 Cd2 2.240 . S
O3 C8 1.279 . S
O4 Cd1 2.297 . S
O4 C6 1.247 . S
O5 Cd1 2.439 . S
O5 C6 1.208 . S
C6 O4 1.247 . S
C6 O5 1.208 . S
C7 O12 1.247 . S
C7 O13 1.208 . S
C8 O0 1.315 . S
C8 O3 1.279 . S
C9 O10 1.315 . S
C9 O11 1.279 . S
O10 Cd2 2.223 . S
O10 C9 1.315 . S
O11 Cd1 2.240 . S
O11 C9 1.279 . S
O12 Cd2 2.297 1_556 S
O12 C7 1.247 . S
O13 Cd2 2.439 1_556 S
O13 C7 1.208 . S
O14 Cd15 2.223 . S
O14 C22 1.315 . S
Cd15 O14 2.223 . S
Cd15 O18 2.297 . S
Cd15 O19 2.439 . S
Cd15 O25 2.240 . S
Cd16 O17 2.240 . S
Cd16 O24 2.223 . S
Cd16 O26 2.297 . S
Cd16 O27 2.439 . S
O17 Cd16 2.240 . S
O17 C22 1.279 . S
O18 Cd15 2.297 . S
O18 C20 1.247 . S
O19 Cd15 2.439 . S
O19 C20 1.208 . S
C20 O18 1.247 . S
C20 O19 1.208 . S
C21 O26 1.247 . S
C21 O27 1.208 . S
C22 O14 1.315 . S
C22 O17 1.279 . S
C23 O24 1.315 . S
C23 O25 1.279 . S
O24 Cd16 2.223 . S
O24 C23 1.315 . S
O25 Cd15 2.240 . S
O25 C23 1.279 . S
O26 Cd16 2.297 . S
O26 C21 1.247 . S
O27 Cd16 2.439 . S
O27 C21 1.208 . S
O28 Cd29 2.223 . S
O28 C36 1.315 . S
Cd29 O28 2.223 . S
Cd29 O32 2.297 . S
Cd29 O33 2.439 . S
Cd29 O39 2.240 . S
Cd30 O31 2.240 . S
Cd30 O38 2.223 . S
Cd30 O40 2.297 . S
Cd30 O41 2.439 . S
O31 Cd30 2.240 . S
O31 C36 1.279 . S
O32 Cd29 2.297 . S
O32 C34 1.247 . S
O33 Cd29 2.439 . S
O33 C34 1.208 . S
C34 O32 1.247 . S
C34 O33 1.208 . S
C35 O40 1.247 . S
C35 O41 1.208 . S
C36 O28 1.315 . S
C36 O31 1.279 . S
C37 O38 1.315 . S
C37 O39 1.279 . S
O38 Cd30 2.223 . S
O38 C37 1.315 . S
O39 Cd29 2.240 . S
O39 C37 1.279 . S
O40 Cd30 2.297 . S
O40 C35 1.247 . S
O41 Cd30 2.439 . S
O41 C35 1.208 . S
O42 Cd43 2.223 . S
O42 C50 1.315 . S
Cd43 O42 2.223 . S
Cd43 O46 2.297 . S
Cd43 O47 2.439 . S
Cd43 O53 2.240 . S
Cd44 O45 2.240 . S
Cd44 O52 2.223 . S
Cd44 O54 2.297 . S
Cd44 O55 2.439 . S
O45 Cd44 2.240 . S
O45 C50 1.279 . S
O46 Cd43 2.297 . S
O46 C48 1.247 . S
O47 Cd43 2.439 . S
O47 C48 1.208 . S
C48 O46 1.247 . S
C48 O47 1.208 . S
C49 O54 1.247 . S
C49 O55 1.208 . S
C50 O42 1.315 . S
C50 O45 1.279 . S
C51 O52 1.315 . S
C51 O53 1.279 . S
O52 Cd44 2.223 . S
O52 C51 1.315 . S
O53 Cd43 2.240 . S
O53 C51 1.279 . S
O54 Cd44 2.297 . S
O54 C49 1.247 . S
O55 Cd44 2.439 . S
O55 C49 1.208 . S
O56 Cd57 2.223 . S
O56 C64 1.315 . S
Cd57 O56 2.223 . S
Cd57 O60 2.297 . S
Cd57 O61 2.439 . S
Cd57 O67 2.240 . S
Cd58 O59 2.240 . S
Cd58 O66 2.223 . S
Cd58 O68 2.297 . S
Cd58 O69 2.439 . S
O59 Cd58 2.240 . S
O59 C64 1.279 . S
O60 Cd57 2.297 . S
O60 C62 1.247 . S
O61 Cd57 2.439 . S
O61 C62 1.208 . S
C62 O60 1.247 . S
C62 O61 1.208 . S
C63 O68 1.247 . S
C63 O69 1.208 . S
C64 O56 1.315 . S
C64 O59 1.279 . S
C65 O66 1.315 . S
C65 O67 1.279 . S
O66 Cd58 2.223 . S
O66 C65 1.315 . S
O67 Cd57 2.240 . S
O67 C65 1.279 . S
O68 Cd58 2.297 . S
O68 C63 1.247 . S
O69 Cd58 2.439 . S
O69 C63 1.208 . S
O70 Cd71 2.223 . S
O70 C78 1.315 . S
Cd71 O70 2.223 . S
Cd71 O74 2.297 . S
Cd71 O75 2.439 . S
Cd71 O81 2.240 . S
Cd72 O73 2.240 . S
Cd72 O80 2.223 . S
Cd72 O82 2.297 . S
Cd72 O83 2.439 . S
O73 Cd72 2.240 . S
O73 C78 1.279 . S
O74 Cd71 2.297 . S
O74 C76 1.247 . S
O75 Cd71 2.439 . S
O75 C76 1.208 . S
C76 O74 1.247 . S
C76 O75 1.208 . S
C77 O82 1.247 . S
C77 O83 1.208 . S
C78 O70 1.315 . S
C78 O73 1.279 . S
C79 O80 1.315 . S
C79 O81 1.279 . S
O80 Cd72 2.223 . S
O80 C79 1.315 . S
O81 Cd71 2.240 . S
O81 C79 1.279 . S
O82 Cd72 2.297 . S
O82 C77 1.247 . S
O83 Cd72 2.439 . S
O83 C77 1.208 . S
O84 Cd85 2.223 . S
O84 C92 1.315 . S
Cd85 O84 2.223 . S
Cd85 O88 2.297 . S
Cd85 O89 2.439 . S
Cd85 O95 2.240 . S
Cd86 O87 2.240 . S
Cd86 O94 2.223 . S
Cd86 O96 2.297 . S
Cd86 O97 2.439 . S
O87 Cd86 2.240 . S
O87 C92 1.279 . S
O88 Cd85 2.297 . S
O88 C90 1.247 . S
O89 Cd85 2.439 . S
O89 C90 1.208 . S
C90 O88 1.247 . S
C90 O89 1.208 . S
C91 O96 1.247 . S
C91 O97 1.208 . S
C92 O84 1.315 . S
C92 O87 1.279 . S
C93 O94 1.315 . S
C93 O95 1.279 . S
O94 Cd86 2.223 . S
O94 C93 1.315 . S
O95 Cd85 2.240 . S
O95 C93 1.279 . S
O96 Cd86 2.297 . S
O96 C91 1.247 . S
O97 Cd86 2.439 . S
O97 C91 1.208 . S
O98 Cd99 2.221 1_556 S
O98 C106 1.312 1_556 S
Cd99 O98 2.221 1_554 S
Cd99 O102 2.297 . S
Cd99 O103 2.439 . S
Cd99 O109 2.240 . S
Cd100 O101 2.240 . S
Cd100 O108 2.223 . S
Cd100 O110 2.297 . S
Cd100 O111 2.439 . S
O101 Cd100 2.240 . S
O101 C106 1.279 . S
O102 Cd99 2.297 . S
O102 C104 1.247 . S
O103 Cd99 2.439 . S
O103 C104 1.208 . S
C104 O102 1.247 . S
C104 O103 1.208 . S
C105 O110 1.247 . S
C105 O111 1.208 . S
C106 O98 1.312 1_554 S
C106 O101 1.279 . S
C107 O108 1.315 . S
C107 O109 1.279 . S
O108 Cd100 2.223 . S
O108 C107 1.315 . S
O109 Cd99 2.240 . S
O109 C107 1.279 . S
O110 Cd100 2.297 . S
O110 C105 1.247 . S
O111 Cd100 2.439 . S
O111 C105 1.208 . S
O112 Cd113 2.223 . S
O112 C120 1.315 . S
Cd113 O112 2.223 . S
Cd113 O116 2.297 . S
Cd113 O117 2.439 . S
Cd113 O123 2.240 . S
Cd114 O115 2.240 . S
Cd114 O122 2.223 . S
Cd114 O124 2.297 . S
Cd114 O125 2.439 . S
O115 Cd114 2.240 . S
O115 C120 1.279 . S
O116 Cd113 2.297 . S
O116 C118 1.247 . S
O117 Cd113 2.439 . S
O117 C118 1.208 . S
C118 O116 1.247 . S
C118 O117 1.208 . S
C119 O124 1.247 . S
C119 O125 1.208 . S
C120 O112 1.315 . S
C120 O115 1.279 . S
C121 O122 1.315 . S
C121 O123 1.279 . S
O122 Cd114 2.223 . S
O122 C121 1.315 . S
O123 Cd113 2.240 . S
O123 C121 1.279 . S
O124 Cd114 2.297 . S
O124 C119 1.247 . S
O125 Cd114 2.439 . S
O125 C119 1.208 . S
O126 Cd127 2.223 . S
O126 C134 1.315 . S
Cd127 O126 2.223 . S
Cd127 O130 2.297 . S
Cd127 O131 2.439 . S
Cd127 O137 2.240 . S
Cd128 O129 2.240 . S
Cd128 O136 2.223 . S
Cd128 O138 2.297 . S
Cd128 O139 2.439 . S
O129 Cd128 2.240 . S
O129 C134 1.279 . S
O130 Cd127 2.297 . S
O130 C132 1.247 . S
O131 Cd127 2.439 . S
O131 C132 1.208 . S
C132 O130 1.247 . S
C132 O131 1.208 . S
C133 O138 1.247 . S
C133 O139 1.208 . S
C134 O126 1.315 . S
C134 O129 1.279 . S
C135 O136 1.315 . S
C135 O137 1.279 . S
O136 Cd128 2.223 . S
O136 C135 1.315 . S
O137 Cd127 2.240 . S
O137 C135 1.279 . S
O138 Cd128 2.297 . S
O138 C133 1.247 . S
O139 Cd128 2.439 . S
O139 C133 1.208 . S
O140 Cd141 2.223 . S
O140 C148 1.315 . S
Cd141 O140 2.223 . S
Cd141 O144 2.297 . S
Cd141 O145 2.439 . S
Cd141 O151 2.240 . S
Cd142 O143 2.240 . S
Cd142 O150 2.223 . S
Cd142 O152 2.297 . S
Cd142 O153 2.439 . S
O143 Cd142 2.240 . S
O143 C148 1.279 . S
O144 Cd141 2.297 . S
O144 C146 1.247 . S
O145 Cd141 2.439 . S
O145 C146 1.208 . S
C146 O144 1.247 . S
C146 O145 1.208 . S
C147 O152 1.247 . S
C147 O153 1.208 . S
C148 O140 1.315 . S
C148 O143 1.279 . S
C149 O150 1.315 . S
C149 O151 1.279 . S
O150 Cd142 2.223 . S
O150 C149 1.315 . S
O151 Cd141 2.240 . S
O151 C149 1.279 . S
O152 Cd142 2.297 . S
O152 C147 1.247 . S
O153 Cd142 2.439 . S
O153 C147 1.208 . S
O154 Cd155 2.223 . S
O154 C162 1.315 . S
Cd155 O154 2.223 . S
Cd155 O158 2.297 . S
Cd155 O159 2.439 . S
Cd155 O165 2.240 . S
Cd156 O157 2.240 . S
Cd156 O164 2.223 . S
Cd156 O166 2.297 . S
Cd156 O167 2.439 . S
O157 Cd156 2.240 . S
O157 C162 1.279 . S
O158 Cd155 2.297 . S
O158 C160 1.247 . S
O159 Cd155 2.439 . S
O159 C160 1.208 . S
C160 O158 1.247 . S
C160 O159 1.208 . S
C161 O166 1.247 . S
C161 O167 1.208 . S
C162 O154 1.315 . S
C162 O157 1.279 . S
C163 O164 1.315 . S
C163 O165 1.279 . S
O164 Cd156 2.223 . S
O164 C163 1.315 . S
O165 Cd155 2.240 . S
O165 C163 1.279 . S
O166 Cd156 2.297 . S
O166 C161 1.247 . S
O167 Cd156 2.439 . S
O167 C161 1.208 . S
H168 C186 0.951 . S
H169 C188 0.951 . S
H170 C190 0.950 . S
H171 C191 0.950 . S
H172 C193 0.950 . S
H173 C196 0.950 . S
H174 C197 0.950 . S
H175 C199 0.950 . S
H176 C200 0.950 . S
H177 C201 0.951 . S
H178 C203 0.951 . S
H179 C205 0.950 . S
H180 C206 0.950 . S
H181 C208 0.950 . S
H182 C211 0.950 . S
H183 C212 0.950 . S
H184 C214 0.950 . S
H185 C215 0.950 . S
C186 H168 0.951 . S
C186 C187 1.366 . S
C186 C188 1.388 . S
C187 C186 1.366 . S
C187 C191 1.385 . S
C188 H169 0.951 . S
C188 C186 1.388 . S
C188 C189 1.366 . S
C189 C188 1.366 . S
C189 C190 1.414 . S
C189 C192 1.499 . S
C190 H170 0.950 . S
C190 C189 1.414 . S
C190 C191 1.374 . S
C191 H171 0.950 . S
C191 C187 1.385 . S
C191 C190 1.374 . S
C192 C189 1.499 . S
C192 C193 1.373 . S
C192 C194 1.389 . S
C193 H172 0.950 . S
C193 C192 1.373 . S
C193 C209 1.377 . S
C194 C192 1.389 . S
C194 C195 1.524 . S
C194 C208 1.377 . S
C195 C194 1.524 . S
C195 C196 1.397 . S
C195 C200 1.363 . S
C196 H173 0.950 . S
C196 C195 1.397 . S
C196 C197 1.334 . S
C197 H174 0.950 . S
C197 C196 1.334 . S
C197 C198 1.287 . S
C198 C197 1.287 . S
C198 C199 1.524 . S
C198 H217 0.913 . S
C199 H175 0.950 . S
C199 C198 1.524 . S
C199 C200 1.415 . S
C200 H176 0.950 . S
C200 C195 1.363 . S
C200 C199 1.415 . S
C201 H177 0.951 . S
C201 C202 1.366 . S
C201 C203 1.388 . S
C202 C201 1.366 . S
C202 C206 1.385 . S
C203 H178 0.951 . S
C203 C201 1.388 . S
C203 C204 1.366 . S
C204 C203 1.366 . S
C204 C205 1.414 . S
C204 C207 1.499 . S
C205 H179 0.950 . S
C205 C204 1.414 . S
C205 C206 1.374 . S
C206 H180 0.950 . S
C206 C202 1.385 . S
C206 C205 1.374 . S
C207 C204 1.499 . S
C207 C208 1.373 . S
C207 C209 1.389 . S
C208 H181 0.950 . S
C208 C194 1.377 . S
C208 C207 1.373 . S
C209 C193 1.377 . S
C209 C207 1.389 . S
C209 C210 1.524 . S
C210 C209 1.524 . S
C210 C211 1.397 . S
C210 C215 1.363 . S
C211 H182 0.950 . S
C211 C210 1.397 . S
C211 C212 1.334 . S
C212 H183 0.950 . S
C212 C211 1.334 . S
C212 C213 1.287 . S
C213 C212 1.287 . S
C213 C214 1.524 . S
C213 H216 0.999 . S
C214 H184 0.950 . S
C214 C213 1.524 . S
C214 C215 1.415 . S
C215 H185 0.950 . S
C215 C210 1.363 . S
C215 C214 1.415 . S
H216 C213 0.999 . S
H217 C198 0.913 . S
H218 C236 0.951 . S
H219 C238 0.951 . S
H220 C240 0.950 . S
H221 C241 0.950 . S
H222 C243 0.950 . S
H223 C246 0.950 . S
H224 C247 0.950 . S
H225 C249 0.950 . S
H226 C250 0.950 . S
H227 C251 0.951 . S
H228 C253 0.951 . S
H229 C255 0.950 . S
H230 C256 0.950 . S
H231 C258 0.950 . S
H232 C261 0.950 . S
H233 C262 0.950 . S
H234 C264 0.950 . S
H235 C265 0.950 . S
C236 H218 0.951 . S
C236 C237 1.366 . S
C236 C238 1.388 . S
C237 C236 1.366 . S
C237 C241 1.385 . S
C238 H219 0.951 . S
C238 C236 1.388 . S
C238 C239 1.366 . S
C239 C238 1.366 . S
C239 C240 1.414 . S
C239 C242 1.499 . S
C240 H220 0.950 . S
C240 C239 1.414 . S
C240 C241 1.374 . S
C241 H221 0.950 . S
C241 C237 1.385 . S
C241 C240 1.374 . S
C242 C239 1.499 . S
C242 C243 1.373 . S
C242 C244 1.389 . S
C243 H222 0.950 . S
C243 C242 1.373 . S
C243 C259 1.377 . S
C244 C242 1.389 . S
C244 C245 1.524 . S
C244 C258 1.377 . S
C245 C244 1.524 . S
C245 C246 1.397 . S
C245 C250 1.363 . S
C246 H223 0.950 . S
C246 C245 1.397 . S
C246 C247 1.334 . S
C247 H224 0.950 . S
C247 C246 1.334 . S
C247 C248 1.287 . S
C248 C247 1.287 . S
C248 C249 1.524 . S
C248 H267 0.913 . S
C249 H225 0.950 . S
C249 C248 1.524 . S
C249 C250 1.415 . S
C250 H226 0.950 . S
C250 C245 1.363 . S
C250 C249 1.415 . S
C251 H227 0.951 . S
C251 C252 1.366 . S
C251 C253 1.388 . S
C252 C251 1.366 . S
C252 C256 1.385 . S
C253 H228 0.951 . S
C253 C251 1.388 . S
C253 C254 1.366 . S
C254 C253 1.366 . S
C254 C255 1.414 . S
C254 C257 1.499 . S
C255 H229 0.950 . S
C255 C254 1.414 . S
C255 C256 1.374 . S
C256 H230 0.950 . S
C256 C252 1.385 . S
C256 C255 1.374 . S
C257 C254 1.499 . S
C257 C258 1.373 . S
C257 C259 1.389 . S
C258 H231 0.950 . S
C258 C244 1.377 . S
C258 C257 1.373 . S
C259 C243 1.377 . S
C259 C257 1.389 . S
C259 C260 1.524 . S
C260 C259 1.524 . S
C260 C261 1.397 . S
C260 C265 1.363 . S
C261 H232 0.950 . S
C261 C260 1.397 . S
C261 C262 1.334 . S
C262 H233 0.950 . S
C262 C261 1.334 . S
C262 C263 1.287 . S
C263 C262 1.287 . S
C263 C264 1.524 . S
C263 H266 0.999 . S
C264 H234 0.950 . S
C264 C263 1.524 . S
C264 C265 1.415 . S
C265 H235 0.950 . S
C265 C260 1.363 . S
C265 C264 1.415 . S
H266 C263 0.999 . S
H267 C248 0.913 . S
H268 C286 0.951 . S
H269 C288 0.951 . S
H270 C290 0.950 . S
H271 C291 0.950 . S
H272 C293 0.950 . S
H273 C296 0.950 . S
H274 C297 0.950 . S
H275 C299 0.950 . S
H276 C300 0.950 . S
H277 C301 0.951 . S
H278 C303 0.951 . S
H279 C305 0.950 . S
H280 C306 0.950 . S
H281 C308 0.950 . S
H282 C311 0.950 . S
H283 C312 0.950 . S
H284 C314 0.950 . S
H285 C315 0.950 . S
C286 H268 0.951 . S
C286 C287 1.366 . S
C286 C288 1.388 . S
C287 C286 1.366 . S
C287 C291 1.385 . S
C288 H269 0.951 . S
C288 C286 1.388 . S
C288 C289 1.366 . S
C289 C288 1.366 . S
C289 C290 1.414 . S
C289 C292 1.499 . S
C290 H270 0.950 . S
C290 C289 1.414 . S
C290 C291 1.374 . S
C291 H271 0.950 . S
C291 C287 1.385 . S
C291 C290 1.374 . S
C292 C289 1.499 . S
C292 C293 1.373 . S
C292 C294 1.389 . S
C293 H272 0.950 . S
C293 C292 1.373 . S
C293 C309 1.377 . S
C294 C292 1.389 . S
C294 C295 1.524 . S
C294 C308 1.377 . S
C295 C294 1.524 . S
C295 C296 1.397 . S
C295 C300 1.363 . S
C296 H273 0.950 . S
C296 C295 1.397 . S
C296 C297 1.334 . S
C297 H274 0.950 . S
C297 C296 1.334 . S
C297 C298 1.287 . S
C298 C297 1.287 . S
C298 C299 1.524 . S
C298 H317 0.913 . S
C299 H275 0.950 . S
C299 C298 1.524 . S
C299 C300 1.415 . S
C300 H276 0.950 . S
C300 C295 1.363 . S
C300 C299 1.415 . S
C301 H277 0.951 . S
C301 C302 1.366 . S
C301 C303 1.388 . S
C302 C301 1.366 . S
C302 C306 1.385 . S
C303 H278 0.951 . S
C303 C301 1.388 . S
C303 C304 1.366 . S
C304 C303 1.366 . S
C304 C305 1.414 . S
C304 C307 1.499 . S
C305 H279 0.950 . S
C305 C304 1.414 . S
C305 C306 1.374 . S
C306 H280 0.950 . S
C306 C302 1.385 . S
C306 C305 1.374 . S
C307 C304 1.499 . S
C307 C308 1.373 . S
C307 C309 1.389 . S
C308 H281 0.950 . S
C308 C294 1.377 . S
C308 C307 1.373 . S
C309 C293 1.377 . S
C309 C307 1.389 . S
C309 C310 1.524 . S
C310 C309 1.524 . S
C310 C311 1.397 . S
C310 C315 1.363 . S
C311 H282 0.950 . S
C311 C310 1.397 . S
C311 C312 1.334 . S
C312 H283 0.950 . S
C312 C311 1.334 . S
C312 C313 1.287 . S
C313 C312 1.287 . S
C313 C314 1.524 . S
C313 H316 0.999 . S
C314 H284 0.950 . S
C314 C313 1.524 . S
C314 C315 1.415 . S
C315 H285 0.950 . S
C315 C310 1.363 . S
C315 C314 1.415 . S
H316 C313 0.999 . S
H317 C298 0.913 . S
H318 C336 0.951 . S
H319 C338 0.951 . S
H320 C340 0.950 . S
H321 C341 0.950 . S
H322 C343 0.950 . S
H323 C346 0.950 . S
H324 C347 0.950 . S
H325 C349 0.950 . S
H326 C350 0.950 . S
H327 C351 0.951 . S
H328 C353 0.951 . S
H329 C355 0.950 . S
H330 C356 0.950 . S
H331 C358 0.950 . S
H332 C361 0.950 . S
H333 C362 0.950 . S
H334 C364 0.950 . S
H335 C365 0.950 . S
C336 H318 0.951 . S
C336 C337 1.366 . S
C336 C338 1.388 . S
C337 C336 1.366 . S
C337 C341 1.385 . S
C338 H319 0.951 . S
C338 C336 1.388 . S
C338 C339 1.366 . S
C339 C338 1.366 . S
C339 C340 1.414 . S
C339 C342 1.499 . S
C340 H320 0.950 . S
C340 C339 1.414 . S
C340 C341 1.374 . S
C341 H321 0.950 . S
C341 C337 1.385 . S
C341 C340 1.374 . S
C342 C339 1.499 . S
C342 C343 1.373 . S
C342 C344 1.389 . S
C343 H322 0.950 . S
C343 C342 1.373 . S
C343 C359 1.377 . S
C344 C342 1.389 . S
C344 C345 1.524 . S
C344 C358 1.377 . S
C345 C344 1.524 . S
C345 C346 1.397 . S
C345 C350 1.363 . S
C346 H323 0.950 . S
C346 C345 1.397 . S
C346 C347 1.334 . S
C347 H324 0.950 . S
C347 C346 1.334 . S
C347 C348 1.287 . S
C348 C347 1.287 . S
C348 C349 1.524 . S
C348 H367 0.913 . S
C349 H325 0.950 . S
C349 C348 1.524 . S
C349 C350 1.415 . S
C350 H326 0.950 . S
C350 C345 1.363 . S
C350 C349 1.415 . S
C351 H327 0.951 . S
C351 C352 1.366 . S
C351 C353 1.388 . S
C352 C351 1.366 . S
C352 C356 1.385 . S
C353 H328 0.951 . S
C353 C351 1.388 . S
C353 C354 1.366 . S
C354 C353 1.366 . S
C354 C355 1.414 . S
C354 C357 1.499 . S
C355 H329 0.950 . S
C355 C354 1.414 . S
C355 C356 1.374 . S
C356 H330 0.950 . S
C356 C352 1.385 . S
C356 C355 1.374 . S
C357 C354 1.499 . S
C357 C358 1.373 . S
C357 C359 1.389 . S
C358 H331 0.950 . S
C358 C344 1.377 . S
C358 C357 1.373 . S
C359 C343 1.377 . S
C359 C357 1.389 . S
C359 C360 1.524 . S
C360 C359 1.524 . S
C360 C361 1.397 . S
C360 C365 1.363 . S
C361 H332 0.950 . S
C361 C360 1.397 . S
C361 C362 1.334 . S
C362 H333 0.950 . S
C362 C361 1.334 . S
C362 C363 1.287 . S
C363 C362 1.287 . S
C363 C364 1.524 . S
C363 H366 0.999 . S
C364 H334 0.950 . S
C364 C363 1.524 . S
C364 C365 1.415 . S
C365 H335 0.950 . S
C365 C360 1.363 . S
C365 C364 1.415 . S
H366 C363 0.999 . S
H367 C348 0.913 . S
H368 C386 0.951 . S
H369 C388 0.951 . S
H370 C390 0.950 . S
H371 C391 0.950 . S
H372 C393 0.950 . S
H373 C396 0.950 . S
H374 C397 0.950 . S
H375 C399 0.950 . S
H376 C400 0.950 . S
H377 C401 0.951 . S
H378 C403 0.951 . S
H379 C405 0.950 . S
H380 C406 0.950 . S
H381 C408 0.950 . S
H382 C411 0.950 . S
H383 C412 0.950 . S
H384 C414 0.950 . S
H385 C415 0.950 . S
C386 H368 0.951 . S
C386 C387 1.366 . S
C386 C388 1.388 . S
C387 C386 1.366 . S
C387 C391 1.385 . S
C388 H369 0.951 . S
C388 C386 1.388 . S
C388 C389 1.366 . S
C389 C388 1.366 . S
C389 C390 1.414 . S
C389 C392 1.499 . S
C390 H370 0.950 . S
C390 C389 1.414 . S
C390 C391 1.374 . S
C391 H371 0.950 . S
C391 C387 1.385 . S
C391 C390 1.374 . S
C392 C389 1.499 . S
C392 C393 1.373 . S
C392 C394 1.389 . S
C393 H372 0.950 . S
C393 C392 1.373 . S
C393 C409 1.377 1_556 S
C394 C392 1.389 . S
C394 C395 1.524 . S
C394 C408 1.377 . S
C395 C394 1.524 . S
C395 C396 1.397 . S
C395 C400 1.363 . S
C396 H373 0.950 . S
C396 C395 1.397 . S
C396 C397 1.334 . S
C397 H374 0.950 . S
C397 C396 1.334 . S
C397 C398 1.287 . S
C398 C397 1.287 . S
C398 C399 1.524 . S
C398 H417 0.913 . S
C399 H375 0.950 . S
C399 C398 1.524 . S
C399 C400 1.415 . S
C400 H376 0.950 . S
C400 C395 1.363 . S
C400 C399 1.415 . S
C401 H377 0.951 . S
C401 C402 1.366 . S
C401 C403 1.388 . S
C402 C401 1.366 . S
C402 C406 1.385 . S
C403 H378 0.951 . S
C403 C401 1.388 . S
C403 C404 1.366 . S
C404 C403 1.366 . S
C404 C405 1.414 . S
C404 C407 1.499 . S
C405 H379 0.950 . S
C405 C404 1.414 . S
C405 C406 1.374 . S
C406 H380 0.950 . S
C406 C402 1.385 . S
C406 C405 1.374 . S
C407 C404 1.499 . S
C407 C408 1.373 1_554 S
C407 C409 1.389 . S
C408 H381 0.950 . S
C408 C394 1.377 . S
C408 C407 1.373 1_556 S
C409 C393 1.377 1_554 S
C409 C407 1.389 . S
C409 C410 1.524 . S
C410 C409 1.524 . S
C410 C411 1.397 . S
C410 C415 1.363 . S
C411 H382 0.950 . S
C411 C410 1.397 . S
C411 C412 1.334 . S
C412 H383 0.950 . S
C412 C411 1.334 . S
C412 C413 1.287 . S
C413 C412 1.287 . S
C413 C414 1.524 . S
C413 H416 0.999 . S
C414 H384 0.950 . S
C414 C413 1.524 . S
C414 C415 1.415 . S
C415 H385 0.950 . S
C415 C410 1.363 . S
C415 C414 1.415 . S
H416 C413 0.999 . S
H417 C398 0.913 . S
H418 C436 0.951 . S
H419 C438 0.951 . S
H420 C440 0.950 . S
H421 C441 0.950 . S
H422 C443 0.950 . S
H423 C446 0.950 . S
H424 C447 0.950 . S
H425 C449 0.950 . S
H426 C450 0.950 . S
H427 C451 0.951 . S
H428 C453 0.951 . S
H429 C455 0.950 . S
H430 C456 0.950 . S
H431 C458 0.950 . S
H432 C461 0.950 . S
H433 C462 0.950 . S
H434 C464 0.950 . S
H435 C465 0.950 . S
C436 H418 0.951 . S
C436 C437 1.366 . S
C436 C438 1.388 . S
C437 C436 1.366 . S
C437 C441 1.385 . S
C438 H419 0.951 . S
C438 C436 1.388 . S
C438 C439 1.366 . S
C439 C438 1.366 . S
C439 C440 1.414 . S
C439 C442 1.499 . S
C440 H420 0.950 . S
C440 C439 1.414 . S
C440 C441 1.374 . S
C441 H421 0.950 . S
C441 C437 1.385 . S
C441 C440 1.374 . S
C442 C439 1.499 . S
C442 C443 1.373 . S
C442 C444 1.389 . S
C443 H422 0.950 . S
C443 C442 1.373 . S
C443 C459 1.377 . S
C444 C442 1.389 . S
C444 C445 1.524 . S
C444 C458 1.377 . S
C445 C444 1.524 . S
C445 C446 1.397 . S
C445 C450 1.363 . S
C446 H423 0.950 . S
C446 C445 1.397 . S
C446 C447 1.334 . S
C447 H424 0.950 . S
C447 C446 1.334 . S
C447 C448 1.287 . S
C448 C447 1.287 . S
C448 C449 1.524 . S
C448 H467 0.913 . S
C449 H425 0.950 . S
C449 C448 1.524 . S
C449 C450 1.415 . S
C450 H426 0.950 . S
C450 C445 1.363 . S
C450 C449 1.415 . S
C451 H427 0.951 . S
C451 C452 1.366 . S
C451 C453 1.388 . S
C452 C451 1.366 . S
C452 C456 1.385 1_554 S
C453 H428 0.951 . S
C453 C451 1.388 . S
C453 C454 1.366 . S
C454 C453 1.366 . S
C454 C455 1.414 . S
C454 C457 1.499 . S
C455 H429 0.950 . S
C455 C454 1.414 . S
C455 C456 1.374 1_554 S
C456 H430 0.950 . S
C456 C452 1.385 1_556 S
C456 C455 1.374 1_556 S
C457 C454 1.499 . S
C457 C458 1.373 . S
C457 C459 1.389 . S
C458 H431 0.950 . S
C458 C444 1.377 . S
C458 C457 1.373 . S
C459 C443 1.377 . S
C459 C457 1.389 . S
C459 C460 1.524 . S
C460 C459 1.524 . S
C460 C461 1.397 . S
C460 C465 1.363 . S
C461 H432 0.950 . S
C461 C460 1.397 . S
C461 C462 1.334 . S
C462 H433 0.950 . S
C462 C461 1.334 . S
C462 C463 1.287 . S
C463 C462 1.287 . S
C463 C464 1.524 . S
C463 H466 0.999 . S
C464 H434 0.950 . S
C464 C463 1.524 . S
C464 C465 1.415 . S
C465 H435 0.950 . S
C465 C460 1.363 . S
C465 C464 1.415 . S
H466 C463 0.999 . S
H467 C448 0.913 . S
H468 C486 0.951 . S
H469 C488 0.951 . S
H470 C490 0.950 . S
H471 C491 0.950 . S
H472 C493 0.950 . S
H473 C496 0.950 . S
H474 C497 0.950 . S
H475 C499 0.950 . S
H476 C500 0.950 . S
H477 C501 0.951 . S
H478 C503 0.951 . S
H479 C505 0.950 . S
H480 C506 0.950 . S
H481 C508 0.950 . S
H482 C511 0.950 . S
H483 C512 0.950 . S
H484 C514 0.950 . S
H485 C515 0.950 . S
C486 H468 0.951 . S
C486 C487 1.366 . S
C486 C488 1.388 . S
C487 C486 1.366 . S
C487 C491 1.385 . S
C488 H469 0.951 . S
C488 C486 1.388 . S
C488 C489 1.366 . S
C489 C488 1.366 . S
C489 C490 1.414 . S
C489 C492 1.499 . S
C490 H470 0.950 . S
C490 C489 1.414 . S
C490 C491 1.374 . S
C491 H471 0.950 . S
C491 C487 1.385 . S
C491 C490 1.374 . S
C492 C489 1.499 . S
C492 C493 1.373 . S
C492 C494 1.389 . S
C493 H472 0.950 . S
C493 C492 1.373 . S
C493 C509 1.377 . S
C494 C492 1.389 . S
C494 C495 1.524 . S
C494 C508 1.377 . S
C495 C494 1.524 . S
C495 C496 1.397 . S
C495 C500 1.363 . S
C496 H473 0.950 . S
C496 C495 1.397 . S
C496 C497 1.334 1_554 S
C497 H474 0.950 . S
C497 C496 1.334 1_556 S
C497 C498 1.287 . S
C498 C497 1.287 . S
C498 C499 1.524 . S
C498 H517 0.913 . S
C499 H475 0.950 . S
C499 C498 1.524 . S
C499 C500 1.415 1_556 S
C500 H476 0.950 . S
C500 C495 1.363 . S
C500 C499 1.415 1_554 S
C501 H477 0.951 . S
C501 C502 1.366 . S
C501 C503 1.388 . S
C502 C501 1.366 . S
C502 C506 1.385 . S
C503 H478 0.951 . S
C503 C501 1.388 . S
C503 C504 1.366 . S
C504 C503 1.366 . S
C504 C505 1.414 . S
C504 C507 1.499 . S
C505 H479 0.950 . S
C505 C504 1.414 . S
C505 C506 1.374 . S
C506 H480 0.950 . S
C506 C502 1.385 . S
C506 C505 1.374 . S
C507 C504 1.499 . S
C507 C508 1.373 . S
C507 C509 1.389 . S
C508 H481 0.950 . S
C508 C494 1.377 . S
C508 C507 1.373 . S
C509 C493 1.377 . S
C509 C507 1.389 . S
C509 C510 1.524 . S
C510 C509 1.524 . S
C510 C511 1.397 . S
C510 C515 1.363 . S
C511 H482 0.950 . S
C511 C510 1.397 . S
C511 C512 1.334 . S
C512 H483 0.950 . S
C512 C511 1.334 . S
C512 C513 1.287 . S
C513 C512 1.287 . S
C513 C514 1.524 . S
C513 H516 0.999 . S
C514 H484 0.950 . S
C514 C513 1.524 . S
C514 C515 1.415 . S
C515 H485 0.950 . S
C515 C510 1.363 . S
C515 C514 1.415 . S
H516 C513 0.999 . S
H517 C498 0.913 . S
H518 C536 0.951 . S
H519 C538 0.951 . S
H520 C540 0.950 . S
H521 C541 0.950 . S
H522 C543 0.950 . S
H523 C546 0.950 . S
H524 C547 0.950 . S
H525 C549 0.950 . S
H526 C550 0.950 . S
H527 C551 0.951 . S
H528 C553 0.951 . S
H529 C555 0.950 . S
H530 C556 0.950 . S
H531 C558 0.950 . S
H532 C561 0.950 . S
H533 C562 0.950 . S
H534 C564 0.950 . S
H535 C565 0.950 . S
C536 H518 0.951 . S
C536 C537 1.366 . S
C536 C538 1.388 . S
C537 C536 1.366 . S
C537 C541 1.385 . S
C538 H519 0.951 . S
C538 C536 1.388 . S
C538 C539 1.366 . S
C539 C538 1.366 . S
C539 C540 1.414 . S
C539 C542 1.499 . S
C540 H520 0.950 . S
C540 C539 1.414 . S
C540 C541 1.374 . S
C541 H521 0.950 . S
C541 C537 1.385 . S
C541 C540 1.374 . S
C542 C539 1.499 . S
C542 C543 1.373 . S
C542 C544 1.389 . S
C543 H522 0.950 . S
C543 C542 1.373 . S
C543 C559 1.377 . S
C544 C542 1.389 . S
C544 C545 1.524 . S
C544 C558 1.377 . S
C545 C544 1.524 . S
C545 C546 1.397 . S
C545 C550 1.363 . S
C546 H523 0.950 . S
C546 C545 1.397 . S
C546 C547 1.334 . S
C547 H524 0.950 . S
C547 C546 1.334 . S
C547 C548 1.287 . S
C548 C547 1.287 . S
C548 C549 1.524 . S
C548 H567 0.913 . S
C549 H525 0.950 . S
C549 C548 1.524 . S
C549 C550 1.415 . S
C550 H526 0.950 . S
C550 C545 1.363 . S
C550 C549 1.415 . S
C551 H527 0.951 . S
C551 C552 1.366 . S
C551 C553 1.388 . S
C552 C551 1.366 . S
C552 C556 1.385 . S
C553 H528 0.951 . S
C553 C551 1.388 . S
C553 C554 1.366 . S
C554 C553 1.366 . S
C554 C555 1.414 . S
C554 C557 1.499 . S
C555 H529 0.950 . S
C555 C554 1.414 . S
C555 C556 1.374 . S
C556 H530 0.950 . S
C556 C552 1.385 . S
C556 C555 1.374 . S
C557 C554 1.499 . S
C557 C558 1.373 . S
C557 C559 1.389 . S
C558 H531 0.950 . S
C558 C544 1.377 . S
C558 C557 1.373 . S
C559 C543 1.377 . S
C559 C557 1.389 . S
C559 C560 1.524 . S
C560 C559 1.524 . S
C560 C561 1.397 . S
C560 C565 1.363 . S
C561 H532 0.950 . S
C561 C560 1.397 . S
C561 C562 1.334 . S
C562 H533 0.950 . S
C562 C561 1.334 . S
C562 C563 1.287 . S
C563 C562 1.287 . S
C563 C564 1.524 . S
C563 H566 0.999 . S
C564 H534 0.950 . S
C564 C563 1.524 . S
C564 C565 1.415 . S
C565 H535 0.950 . S
C565 C560 1.363 . S
C565 C564 1.415 . S
H566 C563 0.999 . S
H567 C548 0.913 . S
H568 C586 0.951 . S
H569 C588 0.951 . S
H570 C590 0.950 . S
H571 C591 0.950 . S
H572 C593 0.950 . S
H573 C596 0.950 . S
H574 C597 0.950 . S
H575 C599 0.950 . S
H576 C600 0.950 . S
H577 C601 0.951 . S
H578 C603 0.951 . S
H579 C605 0.950 . S
H580 C606 0.950 . S
H581 C608 0.950 . S
H582 C611 0.950 . S
H583 C612 0.950 . S
H584 C614 0.950 . S
H585 C615 0.950 . S
C586 H568 0.951 . S
C586 C587 1.366 . S
C586 C588 1.388 . S
C587 C586 1.366 . S
C587 C591 1.385 . S
C588 H569 0.951 . S
C588 C586 1.388 . S
C588 C589 1.366 . S
C589 C588 1.366 . S
C589 C590 1.414 . S
C589 C592 1.499 . S
C590 H570 0.950 . S
C590 C589 1.414 . S
C590 C591 1.374 . S
C591 H571 0.950 . S
C591 C587 1.385 . S
C591 C590 1.374 . S
C592 C589 1.499 . S
C592 C593 1.373 . S
C592 C594 1.389 . S
C593 H572 0.950 . S
C593 C592 1.373 . S
C593 C609 1.377 . S
C594 C592 1.389 . S
C594 C595 1.524 . S
C594 C608 1.377 . S
C595 C594 1.524 . S
C595 C596 1.397 . S
C595 C600 1.363 . S
C596 H573 0.950 . S
C596 C595 1.397 . S
C596 C597 1.334 . S
C597 H574 0.950 . S
C597 C596 1.334 . S
C597 C598 1.287 . S
C598 C597 1.287 . S
C598 C599 1.524 . S
C598 H617 0.913 . S
C599 H575 0.950 . S
C599 C598 1.524 . S
C599 C600 1.415 . S
C600 H576 0.950 . S
C600 C595 1.363 . S
C600 C599 1.415 . S
C601 H577 0.951 . S
C601 C602 1.366 . S
C601 C603 1.388 . S
C602 C601 1.366 . S
C602 C606 1.385 . S
C603 H578 0.951 . S
C603 C601 1.388 . S
C603 C604 1.366 . S
C604 C603 1.366 . S
C604 C605 1.414 . S
C604 C607 1.499 . S
C605 H579 0.950 . S
C605 C604 1.414 . S
C605 C606 1.374 . S
C606 H580 0.950 . S
C606 C602 1.385 . S
C606 C605 1.374 . S
C607 C604 1.499 . S
C607 C608 1.373 . S
C607 C609 1.389 . S
C608 H581 0.950 . S
C608 C594 1.377 . S
C608 C607 1.373 . S
C609 C593 1.377 . S
C609 C607 1.389 . S
C609 C610 1.524 . S
C610 C609 1.524 . S
C610 C611 1.397 . S
C610 C615 1.363 . S
C611 H582 0.950 . S
C611 C610 1.397 . S
C611 C612 1.334 . S
C612 H583 0.950 . S
C612 C611 1.334 . S
C612 C613 1.287 . S
C613 C612 1.287 . S
C613 C614 1.524 . S
C613 H616 0.999 . S
C614 H584 0.950 . S
C614 C613 1.524 . S
C614 C615 1.415 . S
C615 H585 0.950 . S
C615 C610 1.363 . S
C615 C614 1.415 . S
H616 C613 0.999 . S
H617 C598 0.913 . S
H618 C636 0.951 . S
H619 C638 0.951 . S
H620 C640 0.950 . S
H621 C641 0.950 . S
H622 C643 0.950 . S
H623 C646 0.950 . S
H624 C647 0.950 . S
H625 C649 0.950 . S
H626 C650 0.950 . S
H627 C651 0.951 . S
H628 C653 0.951 . S
H629 C655 0.950 . S
H630 C656 0.950 . S
H631 C658 0.950 . S
H632 C661 0.950 . S
H633 C662 0.950 . S
H634 C664 0.950 . S
H635 C665 0.950 . S
C636 H618 0.951 . S
C636 C637 1.366 . S
C636 C638 1.388 . S
C637 C636 1.366 . S
C637 C641 1.385 . S
C638 H619 0.951 . S
C638 C636 1.388 . S
C638 C639 1.366 . S
C639 C638 1.366 . S
C639 C640 1.414 . S
C639 C642 1.499 . S
C640 H620 0.950 . S
C640 C639 1.414 . S
C640 C641 1.374 . S
C641 H621 0.950 . S
C641 C637 1.385 . S
C641 C640 1.374 . S
C642 C639 1.499 . S
C642 C643 1.373 . S
C642 C644 1.389 . S
C643 H622 0.950 . S
C643 C642 1.373 . S
C643 C659 1.377 . S
C644 C642 1.389 . S
C644 C645 1.524 . S
C644 C658 1.377 . S
C645 C644 1.524 . S
C645 C646 1.397 . S
C645 C650 1.363 . S
C646 H623 0.950 . S
C646 C645 1.397 . S
C646 C647 1.334 . S
C647 H624 0.950 . S
C647 C646 1.334 . S
C647 C648 1.287 . S
C648 C647 1.287 . S
C648 C649 1.524 . S
C648 H667 0.913 . S
C649 H625 0.950 . S
C649 C648 1.524 . S
C649 C650 1.415 . S
C650 H626 0.950 . S
C650 C645 1.363 . S
C650 C649 1.415 . S
C651 H627 0.951 . S
C651 C652 1.366 . S
C651 C653 1.388 . S
C652 C651 1.366 . S
C652 C656 1.385 . S
C653 H628 0.951 . S
C653 C651 1.388 . S
C653 C654 1.366 . S
C654 C653 1.366 . S
C654 C655 1.414 . S
C654 C657 1.499 . S
C655 H629 0.950 . S
C655 C654 1.414 . S
C655 C656 1.374 . S
C656 H630 0.950 . S
C656 C652 1.385 . S
C656 C655 1.374 . S
C657 C654 1.499 . S
C657 C658 1.373 . S
C657 C659 1.389 . S
C658 H631 0.950 . S
C658 C644 1.377 . S
C658 C657 1.373 . S
C659 C643 1.377 . S
C659 C657 1.389 . S
C659 C660 1.524 . S
C660 C659 1.524 . S
C660 C661 1.397 . S
C660 C665 1.363 . S
C661 H632 0.950 . S
C661 C660 1.397 . S
C661 C662 1.334 . S
C662 H633 0.950 . S
C662 C661 1.334 . S
C662 C663 1.287 . S
C663 C662 1.287 . S
C663 C664 1.524 . S
C663 H666 0.999 . S
C664 H634 0.950 . S
C664 C663 1.524 . S
C664 C665 1.415 . S
C665 H635 0.950 . S
C665 C660 1.363 . S
C665 C664 1.415 . S
H666 C663 0.999 . S
H667 C648 0.913 . S
H668 C686 0.951 . S
H669 C688 0.951 . S
H670 C690 0.950 . S
H671 C691 0.950 . S
H672 C693 0.950 . S
H673 C696 0.950 . S
H674 C697 0.950 . S
H675 C699 0.950 . S
H676 C700 0.950 . S
H677 C701 0.951 . S
H678 C703 0.951 . S
H679 C705 0.950 . S
H680 C706 0.950 . S
H681 C708 0.950 . S
H682 C711 0.950 . S
H683 C712 0.950 . S
H684 C714 0.950 . S
H685 C715 0.950 . S
C686 H668 0.951 . S
C686 C687 1.366 . S
C686 C688 1.388 . S
C687 C686 1.366 . S
C687 C691 1.385 . S
C688 H669 0.951 . S
C688 C686 1.388 . S
C688 C689 1.366 . S
C689 C688 1.366 . S
C689 C690 1.414 . S
C689 C692 1.499 . S
C690 H670 0.950 . S
C690 C689 1.414 . S
C690 C691 1.374 . S
C691 H671 0.950 . S
C691 C687 1.385 . S
C691 C690 1.374 . S
C692 C689 1.499 . S
C692 C693 1.373 . S
C692 C694 1.389 . S
C693 H672 0.950 . S
C693 C692 1.373 . S
C693 C709 1.377 . S
C694 C692 1.389 . S
C694 C695 1.524 . S
C694 C708 1.377 . S
C695 C694 1.524 . S
C695 C696 1.397 . S
C695 C700 1.363 . S
C696 H673 0.950 . S
C696 C695 1.397 . S
C696 C697 1.334 . S
C697 H674 0.950 . S
C697 C696 1.334 . S
C697 C698 1.287 . S
C698 C697 1.287 . S
C698 C699 1.524 . S
C698 H717 0.913 . S
C699 H675 0.950 . S
C699 C698 1.524 . S
C699 C700 1.415 . S
C700 H676 0.950 . S
C700 C695 1.363 . S
C700 C699 1.415 . S
C701 H677 0.951 . S
C701 C702 1.366 . S
C701 C703 1.388 . S
C702 C701 1.366 . S
C702 C706 1.385 . S
C703 H678 0.951 . S
C703 C701 1.388 . S
C703 C704 1.366 . S
C704 C703 1.366 . S
C704 C705 1.414 . S
C704 C707 1.499 . S
C705 H679 0.950 . S
C705 C704 1.414 . S
C705 C706 1.374 . S
C706 H680 0.950 . S
C706 C702 1.385 . S
C706 C705 1.374 . S
C707 C704 1.499 . S
C707 C708 1.373 . S
C707 C709 1.389 . S
C708 H681 0.950 . S
C708 C694 1.377 . S
C708 C707 1.373 . S
C709 C693 1.377 . S
C709 C707 1.389 . S
C709 C710 1.524 . S
C710 C709 1.524 . S
C710 C711 1.397 . S
C710 C715 1.363 . S
C711 H682 0.950 . S
C711 C710 1.397 . S
C711 C712 1.334 . S
C712 H683 0.950 . S
C712 C711 1.334 . S
C712 C713 1.287 . S
C713 C712 1.287 . S
C713 C714 1.524 . S
C713 H716 0.999 . S
C714 H684 0.950 . S
C714 C713 1.524 . S
C714 C715 1.415 . S
C715 H685 0.950 . S
C715 C710 1.363 . S
C715 C714 1.415 . S
H716 C713 0.999 . S
H717 C698 0.913 . S
H718 C736 0.951 . S
H719 C738 0.951 . S
H720 C740 0.950 . S
H721 C741 0.950 . S
H722 C743 0.950 1_554 S
H723 C746 0.950 . S
H724 C747 0.950 . S
H725 C749 0.950 . S
H726 C750 0.950 . S
H727 C751 0.951 . S
H728 C753 0.951 1_556 S
H729 C755 0.950 1_556 S
H730 C756 0.950 . S
H731 C758 0.950 . S
H732 C761 0.950 . S
H733 C762 0.950 . S
H734 C764 0.950 . S
H735 C765 0.950 . S
C736 H718 0.951 . S
C736 C737 1.366 . S
C736 C738 1.388 . S
C737 C736 1.366 . S
C737 C741 1.385 . S
C738 H719 0.951 . S
C738 C736 1.388 . S
C738 C739 1.366 . S
C739 C738 1.366 . S
C739 C740 1.414 . S
C739 C742 1.499 . S
C740 H720 0.950 . S
C740 C739 1.414 . S
C740 C741 1.374 . S
C741 H721 0.950 . S
C741 C737 1.385 . S
C741 C740 1.374 . S
C742 C739 1.499 . S
C742 C743 1.373 . S
C742 C744 1.389 . S
C743 H722 0.950 1_556 S
C743 C742 1.373 . S
C743 C759 1.377 1_556 S
C744 C742 1.389 . S
C744 C745 1.524 . S
C744 C758 1.377 . S
C745 C744 1.524 . S
C745 C746 1.397 . S
C745 C750 1.363 . S
C746 H723 0.950 . S
C746 C745 1.397 . S
C746 C747 1.334 . S
C747 H724 0.950 . S
C747 C746 1.334 . S
C747 C748 1.287 . S
C748 C747 1.287 . S
C748 C749 1.524 . S
C748 H767 0.913 . S
C749 H725 0.950 . S
C749 C748 1.524 . S
C749 C750 1.415 . S
C750 H726 0.950 . S
C750 C745 1.363 . S
C750 C749 1.415 . S
C751 H727 0.951 . S
C751 C752 1.366 . S
C751 C753 1.388 . S
C752 C751 1.366 . S
C752 C756 1.385 . S
C753 H728 0.951 1_554 S
C753 C751 1.388 . S
C753 C754 1.366 1_554 S
C754 C753 1.366 1_556 S
C754 C755 1.414 1_556 S
C754 C757 1.499 . S
C755 H729 0.950 1_554 S
C755 C754 1.414 1_554 S
C755 C756 1.374 . S
C756 H730 0.950 . S
C756 C752 1.385 . S
C756 C755 1.374 . S
C757 C754 1.499 . S
C757 C758 1.373 . S
C757 C759 1.389 1_556 S
C758 H731 0.950 . S
C758 C744 1.377 . S
C758 C757 1.373 . S
C759 C743 1.377 1_554 S
C759 C757 1.389 1_554 S
C759 C760 1.524 . S
C760 C759 1.524 . S
C760 C761 1.397 . S
C760 C765 1.363 . S
C761 H732 0.950 . S
C761 C760 1.397 . S
C761 C762 1.334 . S
C762 H733 0.950 . S
C762 C761 1.334 . S
C762 C763 1.287 . S
C763 C762 1.287 . S
C763 C764 1.524 . S
C763 H766 0.999 . S
C764 H734 0.950 . S
C764 C763 1.524 . S
C764 C765 1.415 . S
C765 H735 0.950 . S
C765 C760 1.363 . S
C765 C764 1.415 . S
H766 C763 0.999 . S
H767 C748 0.913 . S
H768 C786 0.951 . S
H769 C788 0.951 . S
H770 C790 0.950 . S
H771 C791 0.950 . S
H772 C793 0.950 . S
H773 C796 0.950 . S
H774 C797 0.950 . S
H775 C799 0.950 . S
H776 C800 0.950 . S
H777 C801 0.951 . S
H778 C803 0.951 . S
H779 C805 0.950 . S
H780 C806 0.950 . S
H781 C808 0.950 . S
H782 C811 0.950 . S
H783 C812 0.950 . S
H784 C814 0.950 . S
H785 C815 0.950 . S
C786 H768 0.951 . S
C786 C787 1.366 . S
C786 C788 1.388 . S
C787 C786 1.366 . S
C787 C791 1.385 . S
C788 H769 0.951 . S
C788 C786 1.388 . S
C788 C789 1.366 . S
C789 C788 1.366 . S
C789 C790 1.414 . S
C789 C792 1.499 . S
C790 H770 0.950 . S
C790 C789 1.414 . S
C790 C791 1.374 . S
C791 H771 0.950 . S
C791 C787 1.385 . S
C791 C790 1.374 . S
C792 C789 1.499 . S
C792 C793 1.373 . S
C792 C794 1.389 . S
C793 H772 0.950 . S
C793 C792 1.373 . S
C793 C809 1.377 . S
C794 C792 1.389 . S
C794 C795 1.524 . S
C794 C808 1.377 . S
C795 C794 1.524 . S
C795 C796 1.397 . S
C795 C800 1.363 . S
C796 H773 0.950 . S
C796 C795 1.397 . S
C796 C797 1.334 . S
C797 H774 0.950 . S
C797 C796 1.334 . S
C797 C798 1.287 . S
C798 C797 1.287 . S
C798 C799 1.524 . S
C798 H817 0.913 . S
C799 H775 0.950 . S
C799 C798 1.524 . S
C799 C800 1.415 . S
C800 H776 0.950 . S
C800 C795 1.363 . S
C800 C799 1.415 . S
C801 H777 0.951 . S
C801 C802 1.366 . S
C801 C803 1.388 . S
C802 C801 1.366 . S
C802 C806 1.385 . S
C803 H778 0.951 . S
C803 C801 1.388 . S
C803 C804 1.366 . S
C804 C803 1.366 . S
C804 C805 1.414 . S
C804 C807 1.499 . S
C805 H779 0.950 . S
C805 C804 1.414 . S
C805 C806 1.374 . S
C806 H780 0.950 . S
C806 C802 1.385 . S
C806 C805 1.374 . S
C807 C804 1.499 . S
C807 C808 1.373 . S
C807 C809 1.389 . S
C808 H781 0.950 . S
C808 C794 1.377 . S
C808 C807 1.373 . S
C809 C793 1.377 . S
C809 C807 1.389 . S
C809 C810 1.524 . S
C810 C809 1.524 . S
C810 C811 1.397 . S
C810 C815 1.363 . S
C811 H782 0.950 . S
C811 C810 1.397 . S
C811 C812 1.334 . S
C812 H783 0.950 . S
C812 C811 1.334 . S
C812 C813 1.287 . S
C813 C812 1.287 . S
C813 C814 1.524 . S
C813 H816 0.999 . S
C814 H784 0.950 . S
C814 C813 1.524 . S
C814 C815 1.415 . S
C815 H785 0.950 . S
C815 C810 1.363 . S
C815 C814 1.415 . S
H816 C813 0.999 . S
H817 C798 0.913 . S
H818 C836 0.951 . S
H819 C838 0.951 . S
H820 C840 0.950 . S
H821 C841 0.950 . S
H822 C843 0.950 . S
H823 C846 0.950 . S
H824 C847 0.950 . S
H825 C849 0.950 . S
H826 C850 0.950 . S
H827 C851 0.951 . S
H828 C853 0.951 . S
H829 C855 0.950 . S
H830 C856 0.950 . S
H831 C858 0.950 . S
H832 C861 0.950 . S
H833 C862 0.950 . S
H834 C864 0.950 . S
H835 C865 0.950 . S
C836 H818 0.951 . S
C836 C837 1.366 . S
C836 C838 1.388 . S
C837 C836 1.366 . S
C837 C841 1.385 . S
C838 H819 0.951 . S
C838 C836 1.388 . S
C838 C839 1.366 . S
C839 C838 1.366 . S
C839 C840 1.414 . S
C839 C842 1.499 . S
C840 H820 0.950 . S
C840 C839 1.414 . S
C840 C841 1.374 . S
C841 H821 0.950 . S
C841 C837 1.385 . S
C841 C840 1.374 . S
C842 C839 1.499 . S
C842 C843 1.373 . S
C842 C844 1.389 1_554 S
C843 H822 0.950 . S
C843 C842 1.373 . S
C843 C859 1.377 1_554 S
C844 C842 1.389 1_556 S
C844 C845 1.524 . S
C844 C858 1.377 . S
C845 C844 1.524 . S
C845 C846 1.397 1_556 S
C845 C850 1.363 . S
C846 H823 0.950 . S
C846 C845 1.397 1_554 S
C846 C847 1.334 . S
C847 H824 0.950 . S
C847 C846 1.334 . S
C847 C848 1.287 1_554 S
C848 C847 1.287 1_556 S
C848 C849 1.524 . S
C848 H867 0.913 . S
C849 H825 0.950 . S
C849 C848 1.524 . S
C849 C850 1.415 . S
C850 H826 0.950 . S
C850 C845 1.363 . S
C850 C849 1.415 . S
C851 H827 0.951 . S
C851 C852 1.366 . S
C851 C853 1.388 . S
C852 C851 1.366 . S
C852 C856 1.385 . S
C853 H828 0.951 . S
C853 C851 1.388 . S
C853 C854 1.366 . S
C854 C853 1.366 . S
C854 C855 1.414 . S
C854 C857 1.499 . S
C855 H829 0.950 . S
C855 C854 1.414 . S
C855 C856 1.374 . S
C856 H830 0.950 . S
C856 C852 1.385 . S
C856 C855 1.374 . S
C857 C854 1.499 . S
C857 C858 1.373 . S
C857 C859 1.389 . S
C858 H831 0.950 . S
C858 C844 1.377 . S
C858 C857 1.373 . S
C859 C843 1.377 1_556 S
C859 C857 1.389 . S
C859 C860 1.524 . S
C860 C859 1.524 . S
C860 C861 1.397 . S
C860 C865 1.363 1_556 S
C861 H832 0.950 . S
C861 C860 1.397 . S
C861 C862 1.334 . S
C862 H833 0.950 . S
C862 C861 1.334 . S
C862 C863 1.287 . S
C863 C862 1.287 . S
C863 C864 1.524 1_556 S
C863 H866 0.999 . S
C864 H834 0.950 . S
C864 C863 1.524 1_554 S
C864 C865 1.415 . S
C865 H835 0.950 . S
C865 C860 1.363 1_554 S
C865 C864 1.415 . S
H866 C863 0.999 . S
H867 C848 0.913 . S
H868 C886 0.951 . S
H869 C888 0.951 . S
H870 C890 0.950 . S
H871 C891 0.950 . S
H872 C893 0.950 . S
H873 C896 0.950 . S
H874 C897 0.950 . S
H875 C899 0.950 . S
H876 C900 0.950 . S
H877 C901 0.944 1_556 S
H878 C903 0.951 . S
H879 C905 0.950 . S
H880 C906 0.950 . S
H881 C908 0.950 . S
H882 C911 0.950 . S
H883 C912 0.950 . S
H884 C914 0.950 . S
H885 C915 0.950 . S
C886 H868 0.951 . S
C886 C887 1.366 . S
C886 C888 1.388 . S
C887 C886 1.366 . S
C887 C891 1.385 . S
C888 H869 0.951 . S
C888 C886 1.388 . S
C888 C889 1.366 . S
C889 C888 1.366 . S
C889 C890 1.414 . S
C889 C892 1.499 . S
C890 H870 0.950 . S
C890 C889 1.414 . S
C890 C891 1.374 . S
C891 H871 0.950 . S
C891 C887 1.385 . S
C891 C890 1.374 . S
C892 C889 1.499 . S
C892 C893 1.373 . S
C892 C894 1.389 . S
C893 H872 0.950 . S
C893 C892 1.373 . S
C893 C909 1.377 . S
C894 C892 1.389 . S
C894 C895 1.524 . S
C894 C908 1.377 . S
C895 C894 1.524 . S
C895 C896 1.397 . S
C895 C900 1.363 . S
C896 H873 0.950 . S
C896 C895 1.397 . S
C896 C897 1.334 . S
C897 H874 0.950 . S
C897 C896 1.334 . S
C897 C898 1.287 . S
C898 C897 1.287 . S
C898 C899 1.524 . S
C898 H917 0.913 . S
C899 H875 0.950 . S
C899 C898 1.524 . S
C899 C900 1.415 . S
C900 H876 0.950 . S
C900 C895 1.363 . S
C900 C899 1.415 . S
C901 H877 0.944 1_554 S
C901 C902 1.365 1_554 S
C901 C903 1.396 . S
C902 C901 1.365 1_556 S
C902 C906 1.385 1_556 S
C903 H878 0.951 . S
C903 C901 1.396 . S
C903 C904 1.366 . S
C904 C903 1.366 . S
C904 C905 1.414 . S
C904 C907 1.499 . S
C905 H879 0.950 . S
C905 C904 1.414 . S
C905 C906 1.374 . S
C906 H880 0.950 . S
C906 C902 1.385 1_554 S
C906 C905 1.374 . S
C907 C904 1.499 . S
C907 C908 1.373 . S
C907 C909 1.389 . S
C908 H881 0.950 . S
C908 C894 1.377 . S
C908 C907 1.373 . S
C909 C893 1.377 . S
C909 C907 1.389 . S
C909 C910 1.524 . S
C910 C909 1.524 . S
C910 C911 1.397 . S
C910 C915 1.363 . S
C911 H882 0.950 . S
C911 C910 1.397 . S
C911 C912 1.334 1_554 S
C912 H883 0.950 . S
C912 C911 1.334 1_556 S
C912 C913 1.287 . S
C913 C912 1.287 . S
C913 C914 1.524 . S
C913 H916 0.999 . S
C914 H884 0.950 . S
C914 C913 1.524 . S
C914 C915 1.415 1_556 S
C915 H885 0.950 . S
C915 C910 1.363 . S
C915 C914 1.415 1_554 S
H916 C913 0.999 . S
H917 C898 0.913 . S
H918 C936 0.951 . S
H919 C938 0.951 . S
H920 C940 0.950 . S
H921 C941 0.950 . S
H922 C943 0.950 . S
H923 C946 0.950 . S
H924 C947 0.950 . S
H925 C949 0.950 . S
H926 C950 0.950 . S
H927 C951 0.951 . S
H928 C953 0.951 . S
H929 C955 0.950 . S
H930 C956 0.950 . S
H931 C958 0.950 . S
H932 C961 0.950 . S
H933 C962 0.950 . S
H934 C964 0.950 . S
H935 C965 0.950 . S
C936 H918 0.951 . S
C936 C937 1.366 . S
C936 C938 1.388 . S
C937 C936 1.366 . S
C937 C941 1.385 . S
C938 H919 0.951 . S
C938 C936 1.388 . S
C938 C939 1.366 . S
C939 C938 1.366 . S
C939 C940 1.414 . S
C939 C942 1.499 . S
C940 H920 0.950 . S
C940 C939 1.414 . S
C940 C941 1.374 . S
C941 H921 0.950 . S
C941 C937 1.385 . S
C941 C940 1.374 . S
C942 C939 1.499 . S
C942 C943 1.373 . S
C942 C944 1.389 . S
C943 H922 0.950 . S
C943 C942 1.373 . S
C943 C959 1.377 . S
C944 C942 1.389 . S
C944 C945 1.524 . S
C944 C958 1.377 . S
C945 C944 1.524 . S
C945 C946 1.397 . S
C945 C950 1.363 . S
C946 H923 0.950 . S
C946 C945 1.397 . S
C946 C947 1.334 . S
C947 H924 0.950 . S
C947 C946 1.334 . S
C947 C948 1.287 . S
C948 C947 1.287 . S
C948 C949 1.524 . S
C948 H967 0.913 . S
C949 H925 0.950 . S
C949 C948 1.524 . S
C949 C950 1.415 . S
C950 H926 0.950 . S
C950 C945 1.363 . S
C950 C949 1.415 . S
C951 H927 0.951 . S
C951 C952 1.366 . S
C951 C953 1.388 . S
C952 C951 1.366 . S
C952 C956 1.385 . S
C953 H928 0.951 . S
C953 C951 1.388 . S
C953 C954 1.366 . S
C954 C953 1.366 . S
C954 C955 1.414 . S
C954 C957 1.499 . S
C955 H929 0.950 . S
C955 C954 1.414 . S
C955 C956 1.374 . S
C956 H930 0.950 . S
C956 C952 1.385 . S
C956 C955 1.374 . S
C957 C954 1.499 . S
C957 C958 1.373 . S
C957 C959 1.389 . S
C958 H931 0.950 . S
C958 C944 1.377 . S
C958 C957 1.373 . S
C959 C943 1.377 . S
C959 C957 1.389 . S
C959 C960 1.524 . S
C960 C959 1.524 . S
C960 C961 1.397 . S
C960 C965 1.363 . S
C961 H932 0.950 . S
C961 C960 1.397 . S
C961 C962 1.334 . S
C962 H933 0.950 . S
C962 C961 1.334 . S
C962 C963 1.287 . S
C963 C962 1.287 . S
C963 C964 1.524 . S
C963 H966 0.999 . S
C964 H934 0.950 . S
C964 C963 1.524 . S
C964 C965 1.415 . S
C965 H935 0.950 . S
C965 C960 1.363 . S
C965 C964 1.415 . S
H966 C963 0.999 . S
H967 C948 0.913 . S
H968 C986 0.951 . S
H969 C988 0.951 . S
H970 C990 0.950 . S
H971 C991 0.950 . S
H972 C993 0.950 . S
H973 C996 0.950 . S
H974 C997 0.950 . S
H975 C999 0.950 . S
H976 C1000 0.950 . S
H977 C1001 0.951 . S
H978 C1003 0.951 . S
H979 C1005 0.950 . S
H980 C1006 0.950 . S
H981 C1008 0.950 . S
H982 C1011 0.950 . S
H983 C1012 0.950 . S
H984 C1014 0.950 . S
H985 C1015 0.950 . S
C986 H968 0.951 . S
C986 C987 1.366 . S
C986 C988 1.388 . S
C987 C986 1.366 . S
C987 C991 1.385 . S
C988 H969 0.951 . S
C988 C986 1.388 . S
C988 C989 1.366 . S
C989 C988 1.366 . S
C989 C990 1.414 . S
C989 C992 1.499 . S
C990 H970 0.950 . S
C990 C989 1.414 . S
C990 C991 1.374 . S
C991 H971 0.950 . S
C991 C987 1.385 . S
C991 C990 1.374 . S
C992 C989 1.499 . S
C992 C993 1.373 . S
C992 C994 1.389 . S
C993 H972 0.950 . S
C993 C992 1.373 . S
C993 C1009 1.377 . S
C994 C992 1.389 . S
C994 C995 1.524 . S
C994 C1008 1.377 . S
C995 C994 1.524 . S
C995 C996 1.397 . S
C995 C1000 1.363 . S
C996 H973 0.950 . S
C996 C995 1.397 . S
C996 C997 1.334 . S
C997 H974 0.950 . S
C997 C996 1.334 . S
C997 C998 1.287 . S
C998 C997 1.287 . S
C998 C999 1.524 . S
C998 H1017 0.913 . S
C999 H975 0.950 . S
C999 C998 1.524 . S
C999 C1000 1.415 . S
C1000 H976 0.950 . S
C1000 C995 1.363 . S
C1000 C999 1.415 . S
C1001 H977 0.951 . S
C1001 C1002 1.366 . S
C1001 C1003 1.388 . S
C1002 C1001 1.366 . S
C1002 C1006 1.385 . S
C1003 H978 0.951 . S
C1003 C1001 1.388 . S
C1003 C1004 1.366 . S
C1004 C1003 1.366 . S
C1004 C1005 1.414 . S
C1004 C1007 1.499 . S
C1005 H979 0.950 . S
C1005 C1004 1.414 . S
C1005 C1006 1.374 . S
C1006 H980 0.950 . S
C1006 C1002 1.385 . S
C1006 C1005 1.374 . S
C1007 C1004 1.499 . S
C1007 C1008 1.373 . S
C1007 C1009 1.389 . S
C1008 H981 0.950 . S
C1008 C994 1.377 . S
C1008 C1007 1.373 . S
C1009 C993 1.377 . S
C1009 C1007 1.389 . S
C1009 C1010 1.524 . S
C1010 C1009 1.524 . S
C1010 C1011 1.397 . S
C1010 C1015 1.363 . S
C1011 H982 0.950 . S
C1011 C1010 1.397 . S
C1011 C1012 1.334 . S
C1012 H983 0.950 . S
C1012 C1011 1.334 . S
C1012 C1013 1.287 . S
C1013 C1012 1.287 . S
C1013 C1014 1.524 . S
C1013 H1016 0.999 . S
C1014 H984 0.950 . S
C1014 C1013 1.524 . S
C1014 C1015 1.415 . S
C1015 H985 0.950 . S
C1015 C1010 1.363 . S
C1015 C1014 1.415 . S
H1016 C1013 0.999 . S
H1017 C998 0.913 . S
H1018 C1036 0.951 . S
H1019 C1038 0.951 . S
H1020 C1040 0.950 . S
H1021 C1041 0.950 . S
H1022 C1043 0.950 . S
H1023 C1046 0.950 . S
H1024 C1047 0.950 . S
H1025 C1049 0.950 . S
H1026 C1050 0.950 . S
H1027 C1051 0.951 . S
H1028 C1053 0.951 . S
H1029 C1055 0.950 . S
H1030 C1056 0.950 . S
H1031 C1058 0.950 . S
H1032 C1061 0.950 . S
H1033 C1062 0.950 . S
H1034 C1064 0.950 . S
H1035 C1065 0.950 . S
C1036 H1018 0.951 . S
C1036 C1037 1.366 . S
C1036 C1038 1.388 . S
C1037 C1036 1.366 . S
C1037 C1041 1.385 . S
C1038 H1019 0.951 . S
C1038 C1036 1.388 . S
C1038 C1039 1.366 . S
C1039 C1038 1.366 . S
C1039 C1040 1.414 . S
C1039 C1042 1.499 . S
C1040 H1020 0.950 . S
C1040 C1039 1.414 . S
C1040 C1041 1.374 . S
C1041 H1021 0.950 . S
C1041 C1037 1.385 . S
C1041 C1040 1.374 . S
C1042 C1039 1.499 . S
C1042 C1043 1.373 . S
C1042 C1044 1.389 . S
C1043 H1022 0.950 . S
C1043 C1042 1.373 . S
C1043 C1059 1.377 . S
C1044 C1042 1.389 . S
C1044 C1045 1.524 . S
C1044 C1058 1.377 . S
C1045 C1044 1.524 . S
C1045 C1046 1.397 . S
C1045 C1050 1.363 . S
C1046 H1023 0.950 . S
C1046 C1045 1.397 . S
C1046 C1047 1.334 . S
C1047 H1024 0.950 . S
C1047 C1046 1.334 . S
C1047 C1048 1.287 . S
C1048 C1047 1.287 . S
C1048 C1049 1.524 . S
C1048 H1067 0.913 . S
C1049 H1025 0.950 . S
C1049 C1048 1.524 . S
C1049 C1050 1.415 . S
C1050 H1026 0.950 . S
C1050 C1045 1.363 . S
C1050 C1049 1.415 . S
C1051 H1027 0.951 . S
C1051 C1052 1.366 . S
C1051 C1053 1.388 . S
C1052 C1051 1.366 . S
C1052 C1056 1.385 . S
C1053 H1028 0.951 . S
C1053 C1051 1.388 . S
C1053 C1054 1.366 . S
C1054 C1053 1.366 . S
C1054 C1055 1.414 . S
C1054 C1057 1.499 . S
C1055 H1029 0.950 . S
C1055 C1054 1.414 . S
C1055 C1056 1.374 . S
C1056 H1030 0.950 . S
C1056 C1052 1.385 . S
C1056 C1055 1.374 . S
C1057 C1054 1.499 . S
C1057 C1058 1.373 . S
C1057 C1059 1.389 . S
C1058 H1031 0.950 . S
C1058 C1044 1.377 . S
C1058 C1057 1.373 . S
C1059 C1043 1.377 . S
C1059 C1057 1.389 . S
C1059 C1060 1.524 . S
C1060 C1059 1.524 . S
C1060 C1061 1.397 . S
C1060 C1065 1.363 . S
C1061 H1032 0.950 . S
C1061 C1060 1.397 . S
C1061 C1062 1.334 . S
C1062 H1033 0.950 . S
C1062 C1061 1.334 . S
C1062 C1063 1.287 . S
C1063 C1062 1.287 . S
C1063 C1064 1.524 . S
C1063 H1066 0.999 . S
C1064 H1034 0.950 . S
C1064 C1063 1.524 . S
C1064 C1065 1.415 . S
C1065 H1035 0.950 . S
C1065 C1060 1.363 . S
C1065 C1064 1.415 . S
H1066 C1063 0.999 . S
H1067 C1048 0.913 . S
H1068 C1086 0.951 . S
H1069 C1088 0.951 . S
H1070 C1090 0.950 . S
H1071 C1091 0.950 1_554 S
H1072 C1093 0.950 . S
H1073 C1096 0.950 . S
H1074 C1097 0.950 . S
H1075 C1099 0.950 . S
H1076 C1100 0.950 . S
H1077 C1101 0.951 . S
H1078 C1103 0.951 . S
H1079 C1105 0.950 . S
H1080 C1106 0.950 . S
H1081 C1108 0.950 . S
H1082 C1111 0.950 . S
H1083 C1112 0.950 . S
H1084 C1114 0.950 . S
H1085 C1115 0.950 . S
C1086 H1068 0.951 . S
C1086 C1087 1.366 . S
C1086 C1088 1.388 . S
C1087 C1086 1.366 . S
C1087 C1091 1.385 . S
C1088 H1069 0.951 . S
C1088 C1086 1.388 . S
C1088 C1089 1.366 . S
C1089 C1088 1.366 . S
C1089 C1090 1.414 . S
C1089 C1092 1.499 . S
C1090 H1070 0.950 . S
C1090 C1089 1.414 . S
C1090 C1091 1.374 . S
C1091 H1071 0.950 1_556 S
C1091 C1087 1.385 . S
C1091 C1090 1.374 . S
C1092 C1089 1.499 . S
C1092 C1093 1.373 . S
C1092 C1094 1.389 . S
C1093 H1072 0.950 . S
C1093 C1092 1.373 . S
C1093 C1109 1.377 1_455 S
C1094 C1092 1.389 . S
C1094 C1095 1.524 . S
C1094 C1108 1.377 1_455 S
C1095 C1094 1.524 . S
C1095 C1096 1.397 . S
C1095 C1100 1.363 . S
C1096 H1073 0.950 . S
C1096 C1095 1.397 . S
C1096 C1097 1.334 . S
C1097 H1074 0.950 . S
C1097 C1096 1.334 . S
C1097 C1098 1.287 . S
C1098 C1097 1.287 . S
C1098 C1099 1.524 . S
C1098 H1117 0.913 . S
C1099 H1075 0.950 . S
C1099 C1098 1.524 . S
C1099 C1100 1.415 . S
C1100 H1076 0.950 . S
C1100 C1095 1.363 . S
C1100 C1099 1.415 . S
C1101 H1077 0.951 . S
C1101 C1102 1.366 . S
C1101 C1103 1.388 . S
C1102 C1101 1.366 . S
C1102 C1106 1.385 . S
C1103 H1078 0.951 . S
C1103 C1101 1.388 . S
C1103 C1104 1.366 . S
C1104 C1103 1.366 . S
C1104 C1105 1.414 . S
C1104 C1107 1.499 . S
C1105 H1079 0.950 . S
C1105 C1104 1.414 . S
C1105 C1106 1.374 . S
C1106 H1080 0.950 . S
C1106 C1102 1.385 . S
C1106 C1105 1.374 . S
C1107 C1104 1.499 . S
C1107 C1108 1.373 . S
C1107 C1109 1.389 . S
C1108 H1081 0.950 . S
C1108 C1094 1.377 1_655 S
C1108 C1107 1.373 . S
C1109 C1093 1.377 1_655 S
C1109 C1107 1.389 . S
C1109 C1110 1.524 . S
C1110 C1109 1.524 . S
C1110 C1111 1.397 . S
C1110 C1115 1.363 . S
C1111 H1082 0.950 . S
C1111 C1110 1.397 . S
C1111 C1112 1.334 . S
C1112 H1083 0.950 . S
C1112 C1111 1.334 . S
C1112 C1113 1.287 1_556 S
C1113 C1112 1.287 1_554 S
C1113 C1114 1.524 . S
C1113 H1116 0.999 . S
C1114 H1084 0.950 . S
C1114 C1113 1.524 . S
C1114 C1115 1.415 1_554 S
C1115 H1085 0.950 . S
C1115 C1110 1.363 . S
C1115 C1114 1.415 1_556 S
H1116 C1113 0.999 . S
H1117 C1098 0.913 . S
H1118 C1136 0.951 . S
H1119 C1138 0.951 . S
H1120 C1140 0.950 . S
H1121 C1141 0.950 . S
H1122 C1143 0.950 1_556 S
H1123 C1146 0.950 . S
H1124 C1147 0.950 . S
H1125 C1149 0.950 . S
H1126 C1150 0.950 . S
H1127 C1151 0.951 . S
H1128 C1153 0.951 . S
H1129 C1155 0.950 . S
H1130 C1156 0.950 . S
H1131 C1158 0.950 . S
H1132 C1161 0.950 . S
H1133 C1162 0.950 . S
H1134 C1164 0.950 . S
H1135 C1165 0.950 . S
C1136 H1118 0.951 . S
C1136 C1137 1.366 1_554 S
C1136 C1138 1.388 . S
C1137 C1136 1.366 1_556 S
C1137 C1141 1.385 . S
C1138 H1119 0.951 . S
C1138 C1136 1.388 . S
C1138 C1139 1.366 . S
C1139 C1138 1.366 . S
C1139 C1140 1.414 1_554 S
C1139 C1142 1.499 . S
C1140 H1120 0.950 . S
C1140 C1139 1.414 1_556 S
C1140 C1141 1.374 . S
C1141 H1121 0.950 . S
C1141 C1137 1.385 . S
C1141 C1140 1.374 . S
C1142 C1139 1.499 . S
C1142 C1143 1.373 . S
C1142 C1144 1.389 . S
C1143 H1122 0.950 1_554 S
C1143 C1142 1.373 . S
C1143 C1159 1.377 1_565 S
C1144 C1142 1.389 . S
C1144 C1145 1.524 . S
C1144 C1158 1.377 1_565 S
C1145 C1144 1.524 . S
C1145 C1146 1.397 . S
C1145 C1150 1.363 . S
C1146 H1123 0.950 . S
C1146 C1145 1.397 . S
C1146 C1147 1.334 . S
C1147 H1124 0.950 . S
C1147 C1146 1.334 . S
C1147 C1148 1.287 . S
C1148 C1147 1.287 . S
C1148 C1149 1.524 . S
C1148 H1167 0.913 . S
C1149 H1125 0.950 . S
C1149 C1148 1.524 . S
C1149 C1150 1.415 . S
C1150 H1126 0.950 . S
C1150 C1145 1.363 . S
C1150 C1149 1.415 . S
C1151 H1127 0.951 . S
C1151 C1152 1.366 . S
C1151 C1153 1.388 . S
C1152 C1151 1.366 . S
C1152 C1156 1.385 . S
C1153 H1128 0.951 . S
C1153 C1151 1.388 . S
C1153 C1154 1.366 . S
C1154 C1153 1.366 . S
C1154 C1155 1.414 . S
C1154 C1157 1.499 . S
C1155 H1129 0.950 . S
C1155 C1154 1.414 . S
C1155 C1156 1.374 . S
C1156 H1130 0.950 . S
C1156 C1152 1.385 . S
C1156 C1155 1.374 . S
C1157 C1154 1.499 . S
C1157 C1158 1.373 . S
C1157 C1159 1.389 . S
C1158 H1131 0.950 . S
C1158 C1144 1.377 1_545 S
C1158 C1157 1.373 . S
C1159 C1143 1.377 1_545 S
C1159 C1157 1.389 . S
C1159 C1160 1.524 . S
C1160 C1159 1.524 . S
C1160 C1161 1.397 . S
C1160 C1165 1.363 1_554 S
C1161 H1132 0.950 . S
C1161 C1160 1.397 . S
C1161 C1162 1.334 . S
C1162 H1133 0.950 . S
C1162 C1161 1.334 . S
C1162 C1163 1.287 1_554 S
C1163 C1162 1.287 1_556 S
C1163 C1164 1.524 . S
C1163 H1166 0.999 . S
C1164 H1134 0.950 . S
C1164 C1163 1.524 . S
C1164 C1165 1.415 . S
C1165 H1135 0.950 . S
C1165 C1160 1.363 1_556 S
C1165 C1164 1.415 . S
H1166 C1163 0.999 . S
H1167 C1148 0.913 . S
H1168 C1186 0.951 . S
H1169 C1188 0.951 . S
H1170 C1190 0.950 . S
H1171 C1191 0.950 . S
H1172 C1193 0.950 . S
H1173 C1196 0.950 . S
H1174 C1197 0.950 . S
H1175 C1199 0.950 . S
H1176 C1200 0.950 . S
H1177 C1201 0.951 . S
H1178 C1203 0.951 . S
H1179 C1205 0.950 . S
H1180 C1206 0.950 . S
H1181 C1208 0.950 . S
H1182 C1211 0.950 . S
H1183 C1212 0.950 . S
H1184 C1214 0.950 . S
H1185 C1215 0.950 . S
C1186 H1168 0.951 . S
C1186 C1187 1.366 . S
C1186 C1188 1.388 . S
C1187 C1186 1.366 . S
C1187 C1191 1.385 . S
C1188 H1169 0.951 . S
C1188 C1186 1.388 . S
C1188 C1189 1.366 . S
C1189 C1188 1.366 . S
C1189 C1190 1.414 . S
C1189 C1192 1.499 . S
C1190 H1170 0.950 . S
C1190 C1189 1.414 . S
C1190 C1191 1.374 . S
C1191 H1171 0.950 . S
C1191 C1187 1.385 . S
C1191 C1190 1.374 . S
C1192 C1189 1.499 . S
C1192 C1193 1.373 . S
C1192 C1194 1.389 . S
C1193 H1172 0.950 . S
C1193 C1192 1.373 . S
C1193 C1209 1.377 . S
C1194 C1192 1.389 . S
C1194 C1195 1.524 . S
C1194 C1208 1.377 . S
C1195 C1194 1.524 . S
C1195 C1196 1.397 . S
C1195 C1200 1.363 . S
C1196 H1173 0.950 . S
C1196 C1195 1.397 . S
C1196 C1197 1.334 . S
C1197 H1174 0.950 . S
C1197 C1196 1.334 . S
C1197 C1198 1.287 . S
C1198 C1197 1.287 . S
C1198 C1199 1.524 . S
C1198 H1217 0.913 . S
C1199 H1175 0.950 . S
C1199 C1198 1.524 . S
C1199 C1200 1.415 . S
C1200 H1176 0.950 . S
C1200 C1195 1.363 . S
C1200 C1199 1.415 . S
C1201 H1177 0.951 . S
C1201 C1202 1.366 . S
C1201 C1203 1.388 . S
C1202 C1201 1.366 . S
C1202 C1206 1.385 . S
C1203 H1178 0.951 . S
C1203 C1201 1.388 . S
C1203 C1204 1.366 . S
C1204 C1203 1.366 . S
C1204 C1205 1.414 . S
C1204 C1207 1.499 . S
C1205 H1179 0.950 . S
C1205 C1204 1.414 . S
C1205 C1206 1.374 . S
C1206 H1180 0.950 . S
C1206 C1202 1.385 . S
C1206 C1205 1.374 . S
C1207 C1204 1.499 . S
C1207 C1208 1.373 . S
C1207 C1209 1.389 . S
C1208 H1181 0.950 . S
C1208 C1194 1.377 . S
C1208 C1207 1.373 . S
C1209 C1193 1.377 . S
C1209 C1207 1.389 . S
C1209 C1210 1.524 . S
C1210 C1209 1.524 . S
C1210 C1211 1.397 . S
C1210 C1215 1.363 . S
C1211 H1182 0.950 . S
C1211 C1210 1.397 . S
C1211 C1212 1.334 . S
C1212 H1183 0.950 . S
C1212 C1211 1.334 . S
C1212 C1213 1.287 . S
C1213 C1212 1.287 . S
C1213 C1214 1.524 . S
C1213 H1216 0.999 . S
C1214 H1184 0.950 . S
C1214 C1213 1.524 . S
C1214 C1215 1.415 . S
C1215 H1185 0.950 . S
C1215 C1210 1.363 . S
C1215 C1214 1.415 . S
H1216 C1213 0.999 . S
H1217 C1198 0.913 . S
H1218 C1236 0.951 . S
H1219 C1238 0.951 . S
H1220 C1240 0.950 . S
H1221 C1241 0.950 . S
H1222 C1243 0.950 . S
H1223 C1246 0.950 . S
H1224 C1247 0.950 . S
H1225 C1249 0.950 . S
H1226 C1250 1.003 . S
H1227 C1251 0.951 . S
H1228 C1253 0.951 . S
H1229 C1255 0.950 . S
H1230 C1256 0.950 . S
H1231 C1258 0.950 . S
H1232 C1261 0.950 . S
H1233 C1262 0.950 . S
H1234 C1264 0.950 . S
H1235 C1265 1.003 . S
C1236 H1218 0.951 . S
C1236 C1237 1.366 . S
C1236 C1238 1.388 . S
C1237 C1236 1.366 . S
C1237 C1241 1.385 . S
C1238 H1219 0.951 . S
C1238 C1236 1.388 . S
C1238 C1239 1.366 . S
C1239 C1238 1.366 . S
C1239 C1240 1.414 . S
C1239 C1242 1.499 . S
C1240 H1220 0.950 . S
C1240 C1239 1.414 . S
C1240 C1241 1.374 . S
C1241 H1221 0.950 . S
C1241 C1237 1.385 . S
C1241 C1240 1.374 . S
C1242 C1239 1.499 . S
C1242 C1243 1.373 . S
C1242 C1244 1.389 . S
C1243 H1222 0.950 . S
C1243 C1242 1.373 . S
C1243 C1259 1.377 1_455 S
C1244 C1242 1.389 . S
C1244 C1245 1.524 . S
C1244 C1258 1.377 1_455 S
C1245 C1244 1.524 . S
C1245 C1246 1.397 . S
C1245 C1250 1.363 . S
C1246 H1223 0.950 . S
C1246 C1245 1.397 . S
C1246 C1247 1.334 . S
C1247 H1224 0.950 . S
C1247 C1246 1.334 . S
C1247 C1248 1.287 . S
C1248 C1247 1.287 . S
C1248 C1249 1.524 . S
C1248 H1267 0.913 . S
C1249 H1225 0.950 . S
C1249 C1248 1.524 . S
C1249 C1250 1.415 . S
C1250 H1226 1.003 . S
C1250 C1245 1.363 . S
C1250 C1249 1.415 . S
C1251 H1227 0.951 . S
C1251 C1252 1.366 . S
C1251 C1253 1.388 . S
C1252 C1251 1.366 . S
C1252 C1256 1.385 . S
C1253 H1228 0.951 . S
C1253 C1251 1.388 . S
C1253 C1254 1.366 . S
C1254 C1253 1.366 . S
C1254 C1255 1.414 . S
C1254 C1257 1.499 . S
C1255 H1229 0.950 . S
C1255 C1254 1.414 . S
C1255 C1256 1.374 . S
C1256 H1230 0.950 . S
C1256 C1252 1.385 . S
C1256 C1255 1.374 . S
C1257 C1254 1.499 . S
C1257 C1258 1.373 . S
C1257 C1259 1.389 . S
C1258 H1231 0.950 . S
C1258 C1244 1.377 1_655 S
C1258 C1257 1.373 . S
C1259 C1243 1.377 1_655 S
C1259 C1257 1.389 . S
C1259 C1260 1.524 . S
C1260 C1259 1.524 . S
C1260 C1261 1.397 . S
C1260 C1265 1.363 . S
C1261 H1232 0.950 . S
C1261 C1260 1.397 . S
C1261 C1262 1.334 . S
C1262 H1233 0.950 . S
C1262 C1261 1.334 . S
C1262 C1263 1.287 . S
C1263 C1262 1.287 . S
C1263 C1264 1.524 . S
C1263 H1266 0.999 . S
C1264 H1234 0.950 . S
C1264 C1263 1.524 . S
C1264 C1265 1.415 . S
C1265 H1235 1.003 . S
C1265 C1260 1.363 . S
C1265 C1264 1.415 . S
H1266 C1263 0.999 . S
H1267 C1248 0.913 . S
H1268 C1286 0.951 . S
H1269 C1288 0.951 . S
H1270 C1290 0.950 . S
H1271 C1291 0.950 . S
H1272 C1293 0.950 . S
H1273 C1296 0.950 . S
H1274 C1297 0.950 . S
H1275 C1299 0.950 . S
H1276 C1300 0.950 . S
H1277 C1301 0.951 . S
H1278 C1303 0.951 . S
H1279 C1305 0.950 . S
H1280 C1306 0.950 . S
H1281 C1308 0.950 . S
H1282 C1311 0.950 . S
H1283 C1312 0.950 . S
H1284 C1314 0.950 . S
H1285 C1315 0.950 . S
C1286 H1268 0.951 . S
C1286 C1287 1.366 . S
C1286 C1288 1.388 . S
C1287 C1286 1.366 . S
C1287 C1291 1.385 . S
C1288 H1269 0.951 . S
C1288 C1286 1.388 . S
C1288 C1289 1.366 . S
C1289 C1288 1.366 . S
C1289 C1290 1.414 . S
C1289 C1292 1.499 . S
C1290 H1270 0.950 . S
C1290 C1289 1.414 . S
C1290 C1291 1.374 . S
C1291 H1271 0.950 . S
C1291 C1287 1.385 . S
C1291 C1290 1.374 . S
C1292 C1289 1.499 . S
C1292 C1293 1.373 . S
C1292 C1294 1.389 . S
C1293 H1272 0.950 . S
C1293 C1292 1.373 . S
C1293 C1309 1.377 1_545 S
C1294 C1292 1.389 . S
C1294 C1295 1.524 . S
C1294 C1308 1.377 1_545 S
C1295 C1294 1.524 . S
C1295 C1296 1.397 . S
C1295 C1300 1.363 . S
C1296 H1273 0.950 . S
C1296 C1295 1.397 . S
C1296 C1297 1.334 . S
C1297 H1274 0.950 . S
C1297 C1296 1.334 . S
C1297 C1298 1.287 . S
C1298 C1297 1.287 . S
C1298 C1299 1.524 . S
C1298 H1317 0.913 . S
C1299 H1275 0.950 . S
C1299 C1298 1.524 . S
C1299 C1300 1.415 . S
C1300 H1276 0.950 . S
C1300 C1295 1.363 . S
C1300 C1299 1.415 . S
C1301 H1277 0.951 . S
C1301 C1302 1.366 . S
C1301 C1303 1.388 . S
C1302 C1301 1.366 . S
C1302 C1306 1.385 . S
C1303 H1278 0.951 . S
C1303 C1301 1.388 . S
C1303 C1304 1.366 . S
C1304 C1303 1.366 . S
C1304 C1305 1.414 . S
C1304 C1307 1.499 . S
C1305 H1279 0.950 . S
C1305 C1304 1.414 . S
C1305 C1306 1.374 . S
C1306 H1280 0.950 . S
C1306 C1302 1.385 . S
C1306 C1305 1.374 . S
C1307 C1304 1.499 . S
C1307 C1308 1.373 . S
C1307 C1309 1.389 . S
C1308 H1281 0.950 . S
C1308 C1294 1.377 1_565 S
C1308 C1307 1.373 . S
C1309 C1293 1.377 1_565 S
C1309 C1307 1.389 . S
C1309 C1310 1.524 . S
C1310 C1309 1.524 . S
C1310 C1311 1.397 . S
C1310 C1315 1.363 . S
C1311 H1282 0.950 . S
C1311 C1310 1.397 . S
C1311 C1312 1.334 . S
C1312 H1283 0.950 . S
C1312 C1311 1.334 . S
C1312 C1313 1.287 . S
C1313 C1312 1.287 . S
C1313 C1314 1.524 . S
C1313 H1316 0.999 . S
C1314 H1284 0.950 . S
C1314 C1313 1.524 . S
C1314 C1315 1.415 . S
C1315 H1285 0.950 . S
C1315 C1310 1.363 . S
C1315 C1314 1.415 . S
H1316 C1313 0.999 . S
H1317 C1298 0.913 . S
H1318 C1336 0.951 . S
H1319 C1338 0.951 . S
H1320 C1340 0.950 . S
H1321 C1341 0.950 . S
H1322 C1343 0.950 . S
H1323 C1346 0.950 . S
H1324 C1347 0.950 . S
H1325 C1349 0.950 . S
H1326 C1350 0.950 . S
H1327 C1351 0.951 . S
H1328 C1353 0.951 . S
H1329 C1355 0.950 . S
H1330 C1356 0.950 . S
H1331 C1358 0.950 . S
H1332 C1361 0.950 . S
H1333 C1362 0.950 . S
H1334 C1364 0.950 . S
H1335 C1365 0.950 . S
C1336 H1318 0.951 . S
C1336 C1337 1.366 . S
C1336 C1338 1.388 . S
C1337 C1336 1.366 . S
C1337 C1341 1.385 . S
C1338 H1319 0.951 . S
C1338 C1336 1.388 . S
C1338 C1339 1.366 . S
C1339 C1338 1.366 . S
C1339 C1340 1.414 . S
C1339 C1342 1.499 . S
C1340 H1320 0.950 . S
C1340 C1339 1.414 . S
C1340 C1341 1.374 . S
C1341 H1321 0.950 . S
C1341 C1337 1.385 . S
C1341 C1340 1.374 . S
C1342 C1339 1.499 . S
C1342 C1343 1.373 . S
C1342 C1344 1.389 . S
C1343 H1322 0.950 . S
C1343 C1342 1.373 . S
C1343 C1359 1.377 . S
C1344 C1342 1.389 . S
C1344 C1345 1.524 . S
C1344 C1358 1.377 . S
C1345 C1344 1.524 . S
C1345 C1346 1.397 . S
C1345 C1350 1.363 . S
C1346 H1323 0.950 . S
C1346 C1345 1.397 . S
C1346 C1347 1.334 . S
C1347 H1324 0.950 . S
C1347 C1346 1.334 . S
C1347 C1348 1.287 . S
C1348 C1347 1.287 . S
C1348 C1349 1.524 . S
C1348 H1367 0.913 . S
C1349 H1325 0.950 . S
C1349 C1348 1.524 . S
C1349 C1350 1.415 . S
C1350 H1326 0.950 . S
C1350 C1345 1.363 . S
C1350 C1349 1.415 . S
C1351 H1327 0.951 . S
C1351 C1352 1.366 . S
C1351 C1353 1.388 . S
C1352 C1351 1.366 . S
C1352 C1356 1.385 . S
C1353 H1328 0.951 . S
C1353 C1351 1.388 . S
C1353 C1354 1.366 . S
C1354 C1353 1.366 . S
C1354 C1355 1.414 . S
C1354 C1357 1.499 . S
C1355 H1329 0.950 . S
C1355 C1354 1.414 . S
C1355 C1356 1.374 . S
C1356 H1330 0.950 . S
C1356 C1352 1.385 . S
C1356 C1355 1.374 . S
C1357 C1354 1.499 . S
C1357 C1358 1.373 . S
C1357 C1359 1.389 . S
C1358 H1331 0.950 . S
C1358 C1344 1.377 . S
C1358 C1357 1.373 . S
C1359 C1343 1.377 . S
C1359 C1357 1.389 . S
C1359 C1360 1.524 . S
C1360 C1359 1.524 . S
C1360 C1361 1.397 . S
C1360 C1365 1.363 . S
C1361 H1332 0.950 . S
C1361 C1360 1.397 . S
C1361 C1362 1.334 . S
C1362 H1333 0.950 . S
C1362 C1361 1.334 . S
C1362 C1363 1.287 . S
C1363 C1362 1.287 . S
C1363 C1364 1.524 . S
C1363 H1366 0.999 . S
C1364 H1334 0.950 . S
C1364 C1363 1.524 . S
C1364 C1365 1.415 . S
C1365 H1335 0.950 . S
C1365 C1360 1.363 . S
C1365 C1364 1.415 . S
H1366 C1363 0.999 . S
H1367 C1348 0.913 . S
C187 C9 2.173 . S
C202 C149 2.173 . S
C237 C163 2.173 . S
C252 C23 2.173 . S
C287 C37 2.174 . S
C302 C93 2.174 . S
C337 C51 2.174 . S
C352 C107 2.174 1_556 S
C387 C65 2.174 . S
C402 C121 2.174 . S
C437 C135 2.174 . S
C452 C79 2.174 1_554 S
C487 C8 1.619 . S
C502 C120 1.619 . S
C537 C22 1.619 . S
C552 C134 1.619 . S
C587 C148 1.619 . S
C602 C36 1.619 . S
C637 C50 1.618 . S
C652 C162 1.619 . S
C687 C64 1.619 . S
C702 C92 1.618 . S
C737 C78 1.619 . S
C752 C106 1.619 . S
C787 C147 0.659 . S
C802 C7 0.661 . S
C837 C21 0.659 . S
C852 C161 0.662 . S
C887 C35 0.660 . S
C902 C91 0.660 . S
C937 C49 0.660 . S
C952 C105 0.661 . S
C987 C119 0.661 . S
C1002 C63 0.659 . S
C1037 C77 0.659 . S
C1052 C133 0.661 . S
C1087 C6 1.510 1_556 S
C1102 C160 1.510 . S
C1137 C90 1.510 . S
C1152 C20 1.510 . S
C1187 C104 1.511 . S
C1202 C34 1.510 . S
C1237 C118 1.511 . S
C1252 C48 1.510 . S
C1287 C132 1.510 . S
C1302 C62 1.510 . S
C1337 C146 1.510 . S
C1352 C76 1.510 . S
