# Generated by pormake.
# Topology qtz-f, (3)-cn, num edge types: 1
# Building blocks:
#     Node 0, Type 0, BuildingBlock: OLANEW_clean_sbu_2, # of connection points: 3
#     Node 1, Type 0, BuildingBlock: OLANEW_clean_sbu_2, # of connection points: 3
#     Node 2, Type 0, BuildingBlock: OLANEW_clean_sbu_2, # of connection points: 3
#     Node 3, Type 0, BuildingBlock: OLANEW_clean_sbu_2, # of connection points: 3
#     Node 4, Type 0, BuildingBlock: OLANEW_clean_sbu_2, # of connection points: 3
#     Node 5, Type 0, BuildingBlock: OLANEW_clean_sbu_2, # of connection points: 3
#     Node 6, Type 0, BuildingBlock: OLANEW_clean_sbu_2, # of connection points: 3
#     Node 7, Type 0, BuildingBlock: OLANEW_clean_sbu_2, # of connection points: 3
#     Node 8, Type 0, BuildingBlock: OLANEW_clean_sbu_2, # of connection points: 3
#     Node 9, Type 0, BuildingBlock: OLANEW_clean_sbu_2, # of connection points: 3
#     Node 10, Type 0, BuildingBlock: OLANEW_clean_sbu_2, # of connection points: 3
#     Node 11, Type 0, BuildingBlock: OLANEW_clean_sbu_2, # of connection points: 3
#     Edge 12, Type (0, 0), BuildingBlock: UVAHIK_clean_linker_0, # of connection points: 2
#     Edge 13, Type (0, 0), BuildingBlock: UVAHIK_clean_linker_0, # of connection points: 2
#     Edge 14, Type (0, 0), BuildingBlock: UVAHIK_clean_linker_0, # of connection points: 2
#     Edge 15, Type (0, 0), BuildingBlock: UVAHIK_clean_linker_0, # of connection points: 2
#     Edge 16, Type (0, 0), BuildingBlock: UVAHIK_clean_linker_0, # of connection points: 2
#     Edge 17, Type (0, 0), BuildingBlock: UVAHIK_clean_linker_0, # of connection points: 2
#     Edge 18, Type (0, 0), BuildingBlock: UVAHIK_clean_linker_0, # of connection points: 2
#     Edge 19, Type (0, 0), BuildingBlock: UVAHIK_clean_linker_0, # of connection points: 2
#     Edge 20, Type (0, 0), BuildingBlock: UVAHIK_clean_linker_0, # of connection points: 2
#     Edge 21, Type (0, 0), BuildingBlock: UVAHIK_clean_linker_0, # of connection points: 2
#     Edge 22, Type (0, 0), BuildingBlock: UVAHIK_clean_linker_0, # of connection points: 2
#     Edge 23, Type (0, 0), BuildingBlock: UVAHIK_clean_linker_0, # of connection points: 2
#     Edge 24, Type (0, 0), BuildingBlock: UVAHIK_clean_linker_0, # of connection points: 2
#     Edge 25, Type (0, 0), BuildingBlock: UVAHIK_clean_linker_0, # of connection points: 2
#     Edge 26, Type (0, 0), BuildingBlock: UVAHIK_clean_linker_0, # of connection points: 2
#     Edge 27, Type (0, 0), BuildingBlock: UVAHIK_clean_linker_0, # of connection points: 2
#     Edge 28, Type (0, 0), BuildingBlock: UVAHIK_clean_linker_0, # of connection points: 2
#     Edge 29, Type (0, 0), BuildingBlock: UVAHIK_clean_linker_0, # of connection points: 2
# Relax obj value: 0.008
# Max RMSD: 0.030
# Mean RMSD: 0.030
data_MOF--net-qtz-f--node1-OLANEW_clean_sbu_2--edge1-UVAHIK_clean_linker_0
_symmetry_space_group_name_H-M    P1
_symmetry_Int_Tables_number       1
_symmetry_cell_setting            triclinic
loop_
_symmetry_equiv_pos_as_xyz
'x, y, z'
_cell_length_a     93.959953
_cell_length_b     93.970306
_cell_length_c     30.015253
_cell_angle_alpha  90.006581
_cell_angle_beta   89.99971
_cell_angle_gamma 120.00212
loop_
_atom_site_label
_atom_site_type_symbol
_atom_site_fract_x
_atom_site_fract_y
_atom_site_fract_z
_atom_type_partial_charge
O0 O 0.1357 0.48686 0.10779 0.0
Cd1 Cd 0.12772 0.45805 0.09667 0.0
O2 O 0.13263 0.4842 0.18051 0.0
Cd3 Cd 0.11924 0.45734 0.17805 0.0
O4 O 0.09587 0.43424 0.18302 0.0
C5 C 0.08832 0.42604 0.14862 0.0
O6 O 0.09531 0.43095 0.10941 0.0
C7 C 0.13705 0.49326 0.146 0.0
C8 C 0.15447 0.45526 0.06792 0.0
O9 O 0.14477 0.45637 0.03992 0.0
O10 O 0.15144 0.45534 0.10953 0.0
O11 O 0.64893 0.13725 0.4326 0.0
Cd12 Cd 0.66935 0.12875 0.4204 0.0
O13 O 0.64685 0.13186 0.50437 0.0
Cd14 Cd 0.66058 0.11879 0.49996 0.0
O15 O 0.66117 0.09583 0.49873 0.0
C16 C 0.65685 0.08718 0.53398 0.0
O17 O 0.65341 0.09297 0.56972 0.0
C18 C 0.64306 0.13746 0.47062 0.0
C19 C 0.69922 0.15532 0.39277 0.0
O20 O 0.68832 0.14602 0.36438 0.0
O21 O 0.69603 0.15197 0.43423 0.0
O22 O 0.51269 0.6479 0.75996 0.0
Cd23 Cd 0.54173 0.66848 0.75087 0.0
O24 O 0.51474 0.64587 0.83239 0.0
Cd25 Cd 0.54158 0.65959 0.83092 0.0
O26 O 0.56513 0.66016 0.83066 0.0
C27 C 0.56926 0.65561 0.86586 0.0
O28 O 0.55982 0.65194 0.90124 0.0
C29 C 0.50595 0.64203 0.7974 0.0
C30 C 0.54517 0.69868 0.72625 0.0
O31 O 0.54395 0.68825 0.69679 0.0
O32 O 0.54492 0.69488 0.76737 0.0
O33 O 0.86715 0.51453 0.10131 0.0
Cd34 Cd 0.87548 0.54323 0.08605 0.0
O35 O 0.86839 0.51779 0.17403 0.0
Cd36 Cd 0.88146 0.54455 0.16843 0.0
O37 O 0.9046 0.5679 0.16543 0.0
C38 C 0.91344 0.57254 0.20034 0.0
O39 O 0.90773 0.56378 0.23686 0.0
C40 C 0.8649 0.50844 0.14027 0.0
C41 C 0.84863 0.54592 0.05775 0.0
O42 O 0.85784 0.54406 0.02967 0.0
O43 O 0.8522 0.54666 0.09922 0.0
O44 O 0.35069 0.86388 0.44863 0.0
Cd45 Cd 0.32988 0.87208 0.44058 0.0
O46 O 0.35491 0.87036 0.51971 0.0
Cd47 Cd 0.34123 0.88353 0.51811 0.0
O48 O 0.34062 0.90647 0.51637 0.0
C49 C 0.34462 0.9147 0.48037 0.0
O50 O 0.34783 0.90853 0.44502 0.0
C51 C 0.35767 0.86423 0.48526 0.0
C52 C 0.30042 0.84587 0.40932 0.0
O53 O 0.31135 0.85601 0.38228 0.0
O54 O 0.30338 0.84821 0.45118 0.0
O55 O 0.48684 0.35259 0.76394 0.0
Cd56 Cd 0.45802 0.33204 0.7509 0.0
O57 O 0.48417 0.35102 0.83685 0.0
Cd58 Cd 0.45735 0.33756 0.83306 0.0
O59 O 0.43413 0.33767 0.83258 0.0
C60 C 0.4305 0.34284 0.86747 0.0
O61 O 0.44018 0.3467 0.90236 0.0
C62 C 0.49325 0.35664 0.80252 0.0
C63 C 0.45513 0.30202 0.72662 0.0
O64 O 0.45672 0.31257 0.69708 0.0
O65 O 0.45475 0.30561 0.76764 0.0
O66 O 0.51416 0.86503 0.55321 0.0
Cd67 Cd 0.54295 0.87317 0.5659 0.0
O68 O 0.51739 0.86913 0.48087 0.0
Cd69 Cd 0.54418 0.88256 0.48579 0.0
O70 O 0.56753 0.90571 0.48948 0.0
C71 C 0.57072 0.91422 0.52485 0.0
O72 O 0.56044 0.90825 0.55851 0.0
C73 C 0.50804 0.86417 0.51482 0.0
C74 C 0.54585 0.84631 0.59286 0.0
O75 O 0.54428 0.85557 0.62147 0.0
O76 O 0.54617 0.84985 0.55149 0.0
O77 O 0.65058 0.5126 0.8805 0.0
Cd78 Cd 0.67135 0.54149 0.89115 0.0
O79 O 0.64669 0.51591 0.80988 0.0
Cd80 Cd 0.66045 0.5427 0.81419 0.0
O81 O 0.66097 0.56618 0.81848 0.0
C82 C 0.65631 0.56964 0.8546 0.0
O83 O 0.65253 0.55957 0.88859 0.0
C84 C 0.64376 0.50652 0.8433 0.0
C85 C 0.70127 0.54458 0.91733 0.0
O86 O 0.69067 0.54333 0.94625 0.0
O87 O 0.69777 0.5445 0.87602 0.0
O88 O 0.13735 0.6506 0.21291 0.0
Cd89 Cd 0.12914 0.67136 0.22219 0.0
O90 O 0.13032 0.6463 0.14219 0.0
Cd91 Cd 0.11727 0.66007 0.145 0.0
O92 O 0.09445 0.66091 0.14815 0.0
C93 C 0.0864 0.65687 0.18444 0.0
O94 O 0.09267 0.65349 0.21924 0.0
C95 C 0.13671 0.64357 0.17614 0.0
C96 C 0.15558 0.70098 0.25168 0.0
O97 O 0.14579 0.69011 0.2794 0.0
O98 O 0.15278 0.69789 0.20999 0.0
O99 O 0.48758 0.13524 0.56624 0.0
Cd100 Cd 0.45894 0.1268 0.58283 0.0
O101 O 0.48365 0.13334 0.49374 0.0
Cd102 Cd 0.45693 0.11997 0.50086 0.0
O103 O 0.43375 0.09665 0.50424 0.0
C104 C 0.42903 0.08789 0.4692 0.0
O105 O 0.4376 0.09376 0.43243 0.0
C106 C 0.49332 0.13722 0.52691 0.0
C107 C 0.4559 0.15397 0.60566 0.0
O108 O 0.45826 0.14562 0.63556 0.0
O109 O 0.45484 0.14937 0.56499 0.0
O110 O 0.35077 0.48654 0.87948 0.0
Cd111 Cd 0.33031 0.45792 0.89519 0.0
O112 O 0.35135 0.48221 0.80765 0.0
Cd113 Cd 0.33814 0.45551 0.81541 0.0
O114 O 0.33825 0.43236 0.82081 0.0
C115 C 0.34395 0.42967 0.85622 0.0
O116 O 0.34846 0.44033 0.88901 0.0
C117 C 0.35584 0.49207 0.8405 0.0
C118 C 0.30071 0.45527 0.92273 0.0
O119 O 0.31176 0.45725 0.95106 0.0
O120 O 0.30362 0.45443 0.88138 0.0
O121 O 0.86569 0.35235 0.22089 0.0
Cd122 Cd 0.87382 0.33154 0.2303 0.0
O123 O 0.87094 0.35506 0.14901 0.0
Cd124 Cd 0.88374 0.34103 0.15077 0.0
O125 O 0.90634 0.33977 0.14839 0.0
C126 C 0.91557 0.34412 0.18253 0.0
O127 O 0.91063 0.34808 0.21903 0.0
C128 C 0.86549 0.35863 0.18351 0.0
C129 C 0.84689 0.30158 0.25569 0.0
O130 O 0.85624 0.31204 0.28489 0.0
O131 O 0.85037 0.30522 0.21448 0.0
C132 C 0.27351 0.45298 0.90579 0.0
C133 C 0.28515 0.45423 0.93728 0.0
C134 C 0.259 0.45239 0.91949 0.0
C135 C 0.2316 0.44333 0.01655 0.0
H136 H 0.21693 0.46962 0.95316 0.0
C137 C 0.18003 0.454 0.0836 0.0
C138 C 0.16889 0.45418 0.05266 0.0
C139 C 0.19387 0.45341 0.06915 0.0
C140 C 0.22072 0.46203 0.97088 0.0
H141 H 0.29061 0.45568 0.00792 0.0
H142 H 0.26533 0.45472 0.03177 0.0
H143 H 0.24162 0.46958 0.92855 0.0
H144 H 0.16344 0.45363 0.98224 0.0
H145 H 0.18744 0.45236 0.95707 0.0
H146 H 0.2107 0.43578 0.05889 0.0
C147 C 0.26735 0.45406 0.9965 0.0
C148 C 0.23489 0.46202 0.95678 0.0
C149 C 0.28189 0.4547 0.9828 0.0
C150 C 0.17181 0.45358 0.00696 0.0
C151 C 0.18563 0.45295 0.99251 0.0
C152 C 0.2174 0.4433 0.0306 0.0
C153 C 0.25578 0.45298 0.96499 0.0
C154 C 0.24053 0.45272 0.97953 0.0
C155 C 0.19688 0.45294 0.02342 0.0
C156 C 0.21181 0.4527 0.00802 0.0
H157 H 0.27562 0.45255 0.87047 0.0
H158 H 0.25024 0.45136 0.89442 0.0
H159 H 0.2355 0.43585 0.03441 0.0
H160 H 0.17817 0.45451 0.11905 0.0
H161 H 0.20238 0.45363 0.09385 0.0
C162 C 0.72643 0.18024 0.40956 0.0
C163 C 0.7149 0.16965 0.37813 0.0
C164 C 0.74104 0.194 0.39574 0.0
C165 C 0.75957 0.2219 0.29967 0.0
H166 H 0.80051 0.23491 0.36155 0.0
C167 C 0.82171 0.27482 0.23689 0.0
C168 C 0.83233 0.28587 0.26917 0.0
C169 C 0.8077 0.26023 0.24964 0.0
C170 C 0.78914 0.23151 0.34417 0.0
H171 H 0.70981 0.16508 0.30746 0.0
H172 H 0.73538 0.18897 0.28336 0.0
H173 H 0.7755 0.21014 0.3847 0.0
H174 H 0.83663 0.29018 0.34019 0.0
H175 H 0.81213 0.26478 0.3624 0.0
H176 H 0.7732 0.24329 0.25923 0.0
C177 C 0.73302 0.18678 0.31873 0.0
C178 C 0.77481 0.21732 0.35746 0.0
C179 C 0.71839 0.17303 0.33256 0.0
C180 C 0.82872 0.28192 0.31448 0.0
C181 C 0.81473 0.26731 0.32722 0.0
C182 C 0.7739 0.23606 0.28635 0.0
C183 C 0.74448 0.19749 0.35015 0.0
C184 C 0.75983 0.21238 0.33547 0.0
C185 C 0.804 0.25635 0.29495 0.0
C186 C 0.78885 0.24107 0.30854 0.0
H187 H 0.7241 0.17801 0.44494 0.0
H188 H 0.7495 0.2021 0.42084 0.0
H189 H 0.7482 0.21861 0.28247 0.0
H190 H 0.82416 0.27747 0.20171 0.0
H191 H 0.79979 0.25195 0.22397 0.0
C192 C 0.54698 0.82827 0.65263 0.0
C193 C 0.547 0.83184 0.60714 0.0
C194 C 0.54765 0.81438 0.66611 0.0
C195 C 0.55853 0.78366 0.62664 0.0
H196 H 0.53063 0.75754 0.72419 0.0
C197 C 0.547 0.71864 0.66797 0.0
C198 C 0.54653 0.71452 0.71317 0.0
C199 C 0.54783 0.73338 0.6556 0.0
C200 C 0.53865 0.76481 0.69726 0.0
H201 H 0.54786 0.82365 0.54013 0.0
H202 H 0.54882 0.79932 0.56363 0.0
H203 H 0.53066 0.78245 0.70156 0.0
H204 H 0.54677 0.72274 0.78085 0.0
H205 H 0.54829 0.74849 0.75924 0.0
H206 H 0.56639 0.76588 0.62212 0.0
C207 C 0.54852 0.80738 0.58893 0.0
C208 C 0.53868 0.7791 0.68429 0.0
C209 C 0.54787 0.82129 0.57545 0.0
C210 C 0.54707 0.72553 0.74573 0.0
C211 C 0.54785 0.74024 0.73336 0.0
C212 C 0.55848 0.76934 0.63957 0.0
C213 C 0.54834 0.80372 0.63442 0.0
C214 C 0.54858 0.78868 0.64874 0.0
C215 C 0.54815 0.7443 0.68815 0.0
C216 C 0.5485 0.75972 0.67495 0.0
H217 H 0.54639 0.83619 0.67792 0.0
H218 H 0.54773 0.81206 0.70142 0.0
H219 H 0.5665 0.79089 0.59958 0.0
H220 H 0.54659 0.71043 0.64205 0.0
H221 H 0.54786 0.73605 0.62049 0.0
C222 C 0.72089 0.54635 0.9766 0.0
C223 C 0.71699 0.54584 0.93121 0.0
C224 C 0.73556 0.54716 0.98972 0.0
C225 C 0.76718 0.53791 0.95018 0.0
H226 H 0.79295 0.56619 0.0476 0.0
C227 C 0.83061 0.54661 0.99717 0.0
C228 C 0.83413 0.54693 0.04279 0.0
C229 C 0.81671 0.54715 0.98307 0.0
C230 C 0.78581 0.55809 0.02064 0.0
H231 H 0.72552 0.54595 0.86397 0.0
H232 H 0.75113 0.54743 0.88689 0.0
H233 H 0.76796 0.5659 0.02394 0.0
H234 H 0.82585 0.54817 0.10939 0.0
H235 H 0.80149 0.54887 0.08483 0.0
H236 H 0.78488 0.52996 0.94712 0.0
C237 C 0.74277 0.54704 0.91234 0.0
C238 C 0.7715 0.55794 0.00706 0.0
C239 C 0.72813 0.54629 0.89922 0.0
C240 C 0.82352 0.54795 0.07398 0.0
C241 C 0.8096 0.54845 0.05988 0.0
C242 C 0.78146 0.53803 0.96383 0.0
C243 C 0.74662 0.54742 0.95775 0.0
C244 C 0.762 0.54782 0.97173 0.0
C245 C 0.80598 0.54798 0.01425 0.0
C246 C 0.79093 0.54809 0.99929 0.0
H247 H 0.71257 0.546 0.0021 0.0
H248 H 0.73808 0.54725 0.02497 0.0
H249 H 0.76 0.52979 0.92331 0.0
H250 H 0.83858 0.54591 0.97226 0.0
H251 H 0.81443 0.54701 0.94766 0.0
C252 C 0.17289 0.71972 0.31315 0.0
C253 C 0.16986 0.71652 0.26735 0.0
C254 C 0.18661 0.73419 0.32795 0.0
C255 C 0.22769 0.76661 0.2917 0.0
H256 H 0.22456 0.79036 0.39337 0.0
C257 C 0.2819 0.82922 0.34669 0.0
C258 C 0.28499 0.8317 0.39268 0.0
C259 C 0.26755 0.8156 0.33094 0.0
C260 C 0.22567 0.78378 0.36519 0.0
H261 H 0.17876 0.72612 0.20116 0.0
H262 H 0.20262 0.75141 0.22699 0.0
H263 H 0.20004 0.76582 0.36668 0.0
H264 H 0.27533 0.82187 0.4582 0.0
H265 H 0.25039 0.79803 0.43071 0.0
H266 H 0.25332 0.78447 0.29036 0.0
C267 C 0.1945 0.74264 0.25148 0.0
C268 C 0.21162 0.76972 0.34989 0.0
C269 C 0.18076 0.72818 0.23668 0.0
C270 C 0.27332 0.82035 0.42257 0.0
C271 C 0.25896 0.80672 0.40681 0.0
C272 C 0.24174 0.78065 0.307 0.0
C273 C 0.19763 0.74578 0.29729 0.0
C274 C 0.21248 0.76094 0.31304 0.0
C275 C 0.25595 0.80414 0.3608 0.0
C276 C 0.24091 0.78939 0.34401 0.0
H277 H 0.16475 0.71098 0.33767 0.0
H278 H 0.18877 0.73613 0.36346 0.0
H279 H 0.22883 0.75998 0.26367 0.0
H280 H 0.29061 0.83777 0.32277 0.0
H281 H 0.2655 0.8141 0.29532 0.0
C282 C 0.45364 0.27539 0.7465 0.0
C283 C 0.45403 0.28628 0.71378 0.0
C284 C 0.45308 0.26076 0.73435 0.0
C285 C 0.4621 0.24113 0.64004 0.0
H286 H 0.43584 0.20117 0.70762 0.0
C287 C 0.45333 0.17838 0.5844 0.0
C288 C 0.45469 0.16861 0.61769 0.0
C289 C 0.45263 0.19246 0.59571 0.0
C290 C 0.44334 0.21227 0.68865 0.0
H291 H 0.45387 0.2902 0.6426 0.0
H292 H 0.45263 0.26457 0.62143 0.0
H293 H 0.43562 0.2262 0.72795 0.0
H294 H 0.4562 0.16586 0.68901 0.0
H295 H 0.455 0.19043 0.70869 0.0
H296 H 0.46979 0.22718 0.60071 0.0
C297 C 0.45305 0.26746 0.6565 0.0
C298 C 0.44323 0.22662 0.70032 0.0
C299 C 0.45366 0.28212 0.66865 0.0
C300 C 0.45514 0.17311 0.66255 0.0
C301 C 0.45436 0.18714 0.67386 0.0
C302 C 0.46216 0.22677 0.62828 0.0
C303 C 0.45285 0.25664 0.68919 0.0
C304 C 0.45267 0.24125 0.67626 0.0
C305 C 0.45319 0.19703 0.64056 0.0
C306 C 0.45283 0.21219 0.65254 0.0
H307 H 0.45397 0.27826 0.78157 0.0
H308 H 0.45316 0.25283 0.76041 0.0
H309 H 0.46973 0.25223 0.62124 0.0
H310 H 0.45292 0.17524 0.54952 0.0
H311 H 0.45153 0.19971 0.5693 0.0
C312 C 0.14176 0.62368 0.13291 0.0
C313 C 0.14219 0.63129 0.17363 0.0
C314 C 0.14513 0.61079 0.13135 0.0
C315 C 0.14234 0.57788 0.20198 0.0
H316 H 0.16558 0.57091 0.10537 0.0
C317 C 0.14542 0.51844 0.19229 0.0
C318 C 0.14248 0.51097 0.15014 0.0
C319 C 0.14873 0.53462 0.19663 0.0
C320 C 0.15898 0.57263 0.13246 0.0
H321 H 0.1473 0.63183 0.24432 0.0
H322 H 0.15316 0.60931 0.24151 0.0
H323 H 0.1654 0.59678 0.11004 0.0
H324 H 0.14139 0.5149 0.0793 0.0
H325 H 0.14673 0.54293 0.08692 0.0
H326 H 0.13533 0.5536 0.22356 0.0
C327 C 0.15005 0.61324 0.21089 0.0
C328 C 0.15892 0.58747 0.13516 0.0
C329 C 0.14677 0.62619 0.21243 0.0
C330 C 0.14361 0.52028 0.11227 0.0
C331 C 0.14678 0.53642 0.11665 0.0
C332 C 0.14231 0.56303 0.19913 0.0
C333 C 0.14893 0.60517 0.1705 0.0
C334 C 0.15041 0.59015 0.16965 0.0
C335 C 0.14902 0.54368 0.15898 0.0
C336 C 0.15043 0.56011 0.164 0.0
H337 H 0.13833 0.62733 0.10236 0.0
H338 H 0.14404 0.60474 0.09977 0.0
H339 H 0.13545 0.57945 0.22855 0.0
H340 H 0.14482 0.51167 0.22212 0.0
H341 H 0.15075 0.53993 0.22966 0.0
C342 C 0.52107 0.14406 0.55581 0.0
C343 C 0.51095 0.14277 0.51974 0.0
C344 C 0.53714 0.14735 0.54856 0.0
C345 C 0.56203 0.14273 0.46113 0.0
H346 H 0.59767 0.16665 0.54476 0.0
C347 C 0.62479 0.147 0.43718 0.0
C348 C 0.63084 0.14297 0.47509 0.0
C349 C 0.61187 0.15029 0.44088 0.0
C350 C 0.58782 0.15993 0.52114 0.0
H351 H 0.51012 0.14493 0.44794 0.0
H352 H 0.53823 0.15101 0.4354 0.0
H353 H 0.57185 0.16668 0.55412 0.0
H354 H 0.62863 0.14011 0.54695 0.0
H355 H 0.60611 0.14579 0.5533 0.0
H356 H 0.57784 0.13572 0.42865 0.0
C357 C 0.53362 0.14907 0.46923 0.0
C358 C 0.57302 0.15991 0.52653 0.0
C359 C 0.51753 0.14567 0.47645 0.0
C360 C 0.62424 0.14311 0.51703 0.0
C361 C 0.61138 0.14647 0.52073 0.0
C362 C 0.57683 0.14281 0.45564 0.0
C363 C 0.5435 0.14954 0.50508 0.0
C364 C 0.55984 0.15106 0.49703 0.0
C365 C 0.60479 0.14971 0.48258 0.0
C366 C 0.5898 0.15117 0.48601 0.0
H367 H 0.5164 0.14188 0.58959 0.0
H368 H 0.5443 0.14745 0.57694 0.0
H369 H 0.55208 0.13553 0.43821 0.0
H370 H 0.62964 0.14709 0.40439 0.0
H371 H 0.60721 0.15297 0.41094 0.0
C372 C 0.48066 0.62323 0.8411 0.0
C373 C 0.48817 0.62978 0.79983 0.0
C374 C 0.4644 0.61034 0.84307 0.0
C375 C 0.43493 0.57561 0.77602 0.0
H376 H 0.404 0.57075 0.8685 0.0
C377 C 0.37263 0.51615 0.79054 0.0
C378 C 0.36795 0.50971 0.83375 0.0
C379 C 0.3854 0.53226 0.7841 0.0
C380 C 0.41253 0.57188 0.8426 0.0
H381 H 0.48418 0.62846 0.72836 0.0
H382 H 0.45581 0.60597 0.73189 0.0
H383 H 0.42998 0.5966 0.86158 0.0
H384 H 0.37257 0.51541 0.90414 0.0
H385 H 0.39506 0.54333 0.89295 0.0
H386 H 0.41793 0.5508 0.75799 0.0
C387 C 0.46258 0.6107 0.76267 0.0
C388 C 0.42738 0.5867 0.83859 0.0
C389 C 0.47881 0.62365 0.7607 0.0
C390 C 0.37585 0.51998 0.87039 0.0
C391 C 0.38871 0.53606 0.86395 0.0
C392 C 0.42016 0.56079 0.78017 0.0
C393 C 0.45531 0.60368 0.80381 0.0
C394 C 0.43885 0.58864 0.80564 0.0
C395 C 0.3939 0.54228 0.82071 0.0
C396 C 0.40886 0.55864 0.81391 0.0
H397 H 0.48749 0.6277 0.8719 0.0
H398 H 0.4592 0.60511 0.87525 0.0
H399 H 0.44361 0.5766 0.75074 0.0
H400 H 0.36668 0.50862 0.76157 0.0
H401 H 0.38883 0.53676 0.75035 0.0
C402 C 0.85984 0.37791 0.13932 0.0
C403 C 0.86007 0.37095 0.1806 0.0
C404 C 0.85645 0.39077 0.13704 0.0
C405 C 0.86 0.42469 0.20502 0.0
H406 H 0.83586 0.43025 0.10827 0.0
C407 C 0.85662 0.48388 0.1892 0.0
C408 C 0.85949 0.4908 0.14632 0.0
C409 C 0.85334 0.46777 0.19531 0.0
C410 C 0.8427 0.42891 0.1354 0.0
H411 H 0.85613 0.37156 0.25166 0.0
H412 H 0.85019 0.39401 0.24758 0.0
H413 H 0.83608 0.40446 0.11543 0.0
H414 H 0.86045 0.48593 0.07604 0.0
H415 H 0.85508 0.45801 0.08675 0.0
H416 H 0.86714 0.44925 0.22419 0.0
C417 C 0.85282 0.38961 0.21705 0.0
C418 C 0.8428 0.41413 0.13953 0.0
C419 C 0.85615 0.37669 0.21933 0.0
C420 C 0.8583 0.481 0.10954 0.0
C421 C 0.85511 0.46492 0.11568 0.0
C422 C 0.85996 0.43946 0.20081 0.0
C423 C 0.85326 0.39701 0.17598 0.0
C424 C 0.85167 0.41196 0.17399 0.0
C425 C 0.85295 0.45823 0.15872 0.0
C426 C 0.85153 0.44187 0.16554 0.0
H427 H 0.86276 0.37376 0.1088 0.0
H428 H 0.85704 0.3963 0.10492 0.0
H429 H 0.86717 0.42352 0.23154 0.0
H430 H 0.85729 0.49104 0.21824 0.0
H431 H 0.85142 0.4629 0.22885 0.0
C432 C 0.48318 0.85629 0.46754 0.0
C433 C 0.49033 0.85867 0.51 0.0
C434 C 0.46698 0.85291 0.46279 0.0
C435 C 0.42844 0.8415 0.52584 0.0
H436 H 0.42208 0.86623 0.43228 0.0
C437 C 0.37737 0.85866 0.52769 0.0
C438 C 0.36994 0.85872 0.48707 0.0
C439 C 0.39025 0.85527 0.52875 0.0
C440 C 0.42353 0.859 0.4581 0.0
H441 H 0.48583 0.85869 0.58088 0.0
H442 H 0.4578 0.85323 0.5726 0.0
H443 H 0.44797 0.86641 0.43713 0.0
H444 H 0.36972 0.85446 0.41593 0.0
H445 H 0.39224 0.84858 0.41786 0.0
H446 H 0.40413 0.8347 0.54775 0.0
C447 C 0.46455 0.85367 0.54291 0.0
C448 C 0.43839 0.85907 0.46087 0.0
C449 C 0.4807 0.8569 0.54768 0.0
C450 C 0.37521 0.8546 0.44778 0.0
C451 C 0.38817 0.85131 0.44882 0.0
C452 C 0.41359 0.84154 0.52323 0.0
C453 C 0.4576 0.85199 0.50035 0.0
C454 C 0.44115 0.85052 0.49515 0.0
C455 C 0.39605 0.85194 0.48918 0.0
C456 C 0.41107 0.85048 0.48969 0.0
H457 H 0.49021 0.85739 0.43783 0.0
H458 H 0.46193 0.85134 0.42955 0.0
H459 H 0.43002 0.83456 0.55223 0.0
H460 H 0.37357 0.86173 0.5586 0.0
H461 H 0.39615 0.85598 0.56033 0.0
C462 C 0.62399 0.48199 0.79849 0.0
C463 C 0.63145 0.48879 0.83965 0.0
C464 C 0.61107 0.46577 0.79587 0.0
C465 C 0.57789 0.43496 0.86466 0.0
H466 H 0.57107 0.40591 0.76514 0.0
C467 C 0.51832 0.37268 0.84988 0.0
C468 C 0.51095 0.36883 0.80752 0.0
C469 C 0.53451 0.38545 0.85519 0.0
C470 C 0.57276 0.4139 0.79305 0.0
H471 H 0.63171 0.48356 0.90998 0.0
H472 H 0.60916 0.45523 0.9053 0.0
H473 H 0.59701 0.4318 0.77177 0.0
H474 H 0.51509 0.37494 0.73724 0.0
H475 H 0.54315 0.39739 0.74658 0.0
H476 H 0.55352 0.4175 0.88517 0.0
C477 C 0.61321 0.46254 0.87517 0.0
C478 C 0.58763 0.42872 0.79687 0.0
C479 C 0.62619 0.47875 0.87778 0.0
C480 C 0.52038 0.37757 0.77036 0.0
C481 C 0.53654 0.39041 0.7757 0.0
C482 C 0.56302 0.42022 0.86073 0.0
C483 C 0.60529 0.45598 0.83435 0.0
C484 C 0.59026 0.43952 0.83238 0.0
C485 C 0.54369 0.39474 0.81831 0.0
C486 C 0.56015 0.40961 0.82452 0.0
H487 H 0.62776 0.48935 0.76843 0.0
H488 H 0.60514 0.46113 0.76398 0.0
H489 H 0.57942 0.44312 0.89203 0.0
H490 H 0.51145 0.36609 0.87917 0.0
H491 H 0.53973 0.38823 0.88837 0.0
C492 C 0.06231 0.40399 0.11386 0.0
C493 C 0.07104 0.41254 0.15209 0.0
C494 C 0.04546 0.39274 0.11618 0.0
C495 C 0.01066 0.36942 0.19497 0.0
H496 H 0.98512 0.37476 0.10184 0.0
C497 C 0.94307 0.35276 0.21648 0.0
C498 C 0.9325 0.34685 0.17949 0.0
C499 C 0.95964 0.35736 0.21228 0.0
C500 C 0.99202 0.37284 0.1277 0.0
H501 H 0.06905 0.41533 0.22321 0.0
H502 H 0.03969 0.39597 0.22709 0.0
H503 H 0.01488 0.38893 0.0959 0.0
H504 H 0.93086 0.34024 0.10964 0.0
H505 H 0.95977 0.34819 0.10243 0.0
H506 H 0.98772 0.35375 0.22747 0.0
C507 C 0.04586 0.39778 0.19536 0.0
C508 C 0.00913 0.38097 0.12429 0.0
C509 C 0.06271 0.40898 0.19308 0.0
C510 C 0.93869 0.34485 0.13874 0.0
C511 C 0.95527 0.34949 0.13453 0.0
C512 C 0.99352 0.3613 0.19844 0.0
C513 C 0.03694 0.38981 0.15674 0.0
C514 C 0.0187 0.37962 0.15825 0.0
C515 C 0.96603 0.35617 0.17098 0.0
C516 C 0.98403 0.36317 0.16522 0.0
H517 H 0.06838 0.40633 0.08182 0.0
H518 H 0.03903 0.38659 0.08594 0.0
H519 H 0.01764 0.3679 0.22139 0.0
H520 H 0.9387 0.3544 0.2484 0.0
H521 H 0.9676 0.36259 0.24094 0.0
C522 C 0.6555 0.06307 0.49388 0.0
C523 C 0.65366 0.07006 0.53334 0.0
C524 C 0.65055 0.04635 0.49209 0.0
C525 C 0.6377 0.00911 0.56221 0.0
H526 H 0.61064 0.9862 0.46002 0.0
C527 C 0.58772 0.9408 0.56515 0.0
C528 C 0.58459 0.93136 0.52626 0.0
C529 C 0.59944 0.95752 0.56516 0.0
C530 C 0.61843 0.99239 0.48839 0.0
H531 H 0.64598 0.06513 0.60248 0.0
H532 H 0.63718 0.03604 0.5992 0.0
H533 H 0.62549 0.01606 0.46148 0.0
H534 H 0.59196 0.93191 0.45748 0.0
H535 H 0.61248 0.96113 0.4576 0.0
H536 H 0.6301 0.98534 0.58975 0.0
C537 C 0.64258 0.04345 0.5697 0.0
C538 C 0.62696 0.00955 0.48923 0.0
C539 C 0.64753 0.06015 0.5715 0.0
C540 C 0.594 0.93885 0.48794 0.0
C541 C 0.6057 0.95561 0.48792 0.0
C542 C 0.62912 0.99193 0.5614 0.0
C543 C 0.64367 0.03626 0.52971 0.0
C544 C 0.63641 0.01813 0.52657 0.0
C545 C 0.60829 0.96521 0.52626 0.0
C546 C 0.6191 0.98337 0.5249 0.0
H547 H 0.66028 0.07039 0.46395 0.0
H548 H 0.65179 0.04124 0.46095 0.0
H549 H 0.64509 0.01534 0.59115 0.0
H550 H 0.58073 0.93542 0.59529 0.0
H551 H 0.60099 0.96458 0.59514 0.0
C552 C 0.59219 0.65445 0.82617 0.0
C553 C 0.58319 0.65242 0.86541 0.0
C554 C 0.60395 0.64948 0.82444 0.0
C555 C 0.62805 0.63627 0.89441 0.0
H556 H 0.62416 0.60963 0.79146 0.0
C557 C 0.64682 0.58657 0.89576 0.0
C558 C 0.65304 0.58351 0.85658 0.0
C559 C 0.64175 0.59824 0.89622 0.0
C560 C 0.62569 0.6173 0.82006 0.0
H561 H 0.58013 0.64438 0.93427 0.0
H562 H 0.60042 0.63557 0.93109 0.0
H563 H 0.60911 0.62444 0.79331 0.0
H564 H 0.65969 0.59101 0.7878 0.0
H565 H 0.65094 0.61147 0.78874 0.0
H566 H 0.64423 0.62863 0.92173 0.0
C567 C 0.59854 0.64112 0.90172 0.0
C568 C 0.61705 0.62581 0.82112 0.0
C569 C 0.58679 0.64608 0.90346 0.0
C570 C 0.65485 0.59298 0.81847 0.0
C571 C 0.64975 0.60464 0.81892 0.0
C572 C 0.6367 0.62773 0.89336 0.0
C573 C 0.60698 0.6424 0.86191 0.0
C574 C 0.61783 0.63512 0.8587 0.0
C575 C 0.64278 0.60713 0.85751 0.0
C576 C 0.63534 0.61787 0.85656 0.0
H577 H 0.58979 0.65939 0.79633 0.0
H578 H 0.61042 0.65087 0.79345 0.0
H579 H 0.62914 0.64354 0.92356 0.0
H580 H 0.6453 0.57954 0.92575 0.0
H581 H 0.6363 0.59971 0.92639 0.0
C582 C 0.93756 0.59447 0.15826 0.0
C583 C 0.93065 0.58627 0.19853 0.0
C584 C 0.95434 0.60599 0.1555 0.0
C585 C 0.99204 0.63088 0.22349 0.0
H586 H 0.01409 0.62465 0.12252 0.0
C587 C 0.06019 0.64847 0.22556 0.0
C588 C 0.06937 0.6539 0.18598 0.0
C589 C 0.04352 0.64367 0.22591 0.0
C590 C 0.00815 0.62683 0.15051 0.0
H591 H 0.93581 0.58438 0.26806 0.0
H592 H 0.96501 0.60423 0.26313 0.0
H593 H 0.98423 0.61008 0.12516 0.0
H594 H 0.06841 0.65943 0.11623 0.0
H595 H 0.0393 0.65115 0.11694 0.0
H596 H 0.01605 0.64722 0.24948 0.0
C597 C 0.95748 0.60192 0.23372 0.0
C598 C 0.99099 0.61846 0.15202 0.0
C599 C 0.94073 0.59043 0.23647 0.0
C600 C 0.06168 0.6552 0.14723 0.0
C601 C 0.04497 0.65037 0.14757 0.0
C602 C 0.00922 0.63924 0.22199 0.0
C603 C 0.96457 0.60956 0.19296 0.0
C604 C 0.98272 0.6201 0.18897 0.0
C605 C 0.03561 0.64419 0.18668 0.0
C606 C 0.01747 0.63703 0.18592 0.0
H607 H 0.93012 0.59164 0.12846 0.0
H608 H 0.95937 0.61184 0.12377 0.0
H609 H 0.98605 0.63262 0.25209 0.0
H610 H 0.06573 0.64735 0.25604 0.0
H611 H 0.03665 0.63883 0.25651 0.0
C612 C 0.41111 0.06068 0.43272 0.0
C613 C 0.41541 0.07062 0.47096 0.0
C614 C 0.3997 0.0439 0.43525 0.0
C615 C 0.3836 0.01007 0.51597 0.0
H616 H 0.35433 0.98539 0.41897 0.0
C617 C 0.34667 0.93936 0.51897 0.0
C618 C 0.34773 0.93178 0.47969 0.0
C619 C 0.35159 0.95609 0.51933 0.0
C620 C 0.36246 0.99211 0.44632 0.0
H621 H 0.4104 0.07088 0.54142 0.0
H622 H 0.39033 0.04158 0.54573 0.0
H623 H 0.36894 0.01539 0.41719 0.0
H624 H 0.35395 0.93566 0.40944 0.0
H625 H 0.36264 0.96477 0.41016 0.0
H626 H 0.37753 0.98687 0.54448 0.0
C627 C 0.39601 0.04674 0.51391 0.0
C628 C 0.37082 0.00929 0.4453 0.0
C629 C 0.40744 0.06355 0.51138 0.0
C630 C 0.35302 0.9411 0.44032 0.0
C631 C 0.35791 0.9578 0.44066 0.0
C632 C 0.37522 0.99291 0.51701 0.0
C633 C 0.39228 0.03665 0.47608 0.0
C634 C 0.38178 0.01848 0.47965 0.0
C635 C 0.35762 0.96558 0.48039 0.0
C636 C 0.36483 0.98372 0.48174 0.0
H637 H 0.41699 0.06573 0.40102 0.0
H638 H 0.39727 0.03649 0.40555 0.0
H639 H 0.39211 0.01673 0.54267 0.0
H640 H 0.34255 0.93252 0.54984 0.0
H641 H 0.351 0.96166 0.55033 0.0
C642 C 0.41369 0.35325 0.90499 0.0
C643 C 0.41681 0.34641 0.86719 0.0
C644 C 0.40212 0.35844 0.90342 0.0
C645 C 0.38304 0.37321 0.82294 0.0
H646 H 0.35699 0.3716 0.92506 0.0
C647 C 0.34516 0.40606 0.82099 0.0
C648 C 0.34744 0.41595 0.85848 0.0
C649 C 0.35035 0.39446 0.82161 0.0
C650 C 0.3642 0.37215 0.89627 0.0
H651 H 0.40959 0.33887 0.79871 0.0
H652 H 0.38925 0.34779 0.79612 0.0
H653 H 0.37194 0.35654 0.9268 0.0
H654 H 0.35616 0.4208 0.92677 0.0
H655 H 0.36528 0.40071 0.92772 0.0
H656 H 0.3757 0.38916 0.79287 0.0
C657 C 0.39596 0.34938 0.82678 0.0
C658 C 0.37277 0.36354 0.89727 0.0
C659 C 0.40755 0.34418 0.82835 0.0
C660 C 0.35427 0.41343 0.89726 0.0
C661 C 0.3594 0.40181 0.89791 0.0
C662 C 0.37445 0.38179 0.82191 0.0
C663 C 0.39337 0.35689 0.86402 0.0
C664 C 0.38259 0.36426 0.86099 0.0
C665 C 0.35785 0.39245 0.85978 0.0
C666 C 0.36523 0.38166 0.85894 0.0
H667 H 0.42057 0.35512 0.93549 0.0
H668 H 0.40059 0.36433 0.93258 0.0
H669 H 0.39066 0.37424 0.79465 0.0
H670 H 0.33986 0.40763 0.79064 0.0
H671 H 0.34878 0.38728 0.79188 0.0
loop_
_geom_bond_atom_site_label_1
_geom_bond_atom_site_label_2
_geom_bond_distance
_geom_bond_site_symmetry_2
_ccdc_geom_bond_type
O0 Cd1 2.300 . S
O0 C7 1.275 . S
Cd1 O0 2.300 . S
Cd1 O9 2.381 . S
Cd1 O10 2.378 . S
O2 Cd3 2.385 . S
O2 C7 1.255 . S
Cd3 O2 2.385 . S
Cd3 O4 2.317 . S
O4 Cd3 2.317 . S
O4 C5 1.232 . S
C5 O4 1.232 . S
C5 O6 1.218 . S
O6 C5 1.218 . S
C7 O0 1.275 . S
C7 O2 1.255 . S
C8 O9 1.258 . S
C8 O10 1.256 . S
O9 Cd1 2.381 . S
O9 C8 1.258 . S
O10 Cd1 2.378 . S
O10 C8 1.256 . S
O11 Cd12 2.300 . S
O11 C18 1.275 . S
Cd12 O11 2.300 . S
Cd12 O20 2.381 . S
Cd12 O21 2.378 . S
O13 Cd14 2.385 . S
O13 C18 1.255 . S
Cd14 O13 2.385 . S
Cd14 O15 2.317 . S
O15 Cd14 2.317 . S
O15 C16 1.232 . S
C16 O15 1.232 . S
C16 O17 1.218 . S
O17 C16 1.218 . S
C18 O11 1.275 . S
C18 O13 1.255 . S
C19 O20 1.258 . S
C19 O21 1.256 . S
O20 Cd12 2.381 . S
O20 C19 1.258 . S
O21 Cd12 2.378 . S
O21 C19 1.256 . S
O22 Cd23 2.300 . S
O22 C29 1.275 . S
Cd23 O22 2.300 . S
Cd23 O31 2.381 . S
Cd23 O32 2.378 . S
O24 Cd25 2.385 . S
O24 C29 1.255 . S
Cd25 O24 2.385 . S
Cd25 O26 2.317 . S
O26 Cd25 2.317 . S
O26 C27 1.232 . S
C27 O26 1.232 . S
C27 O28 1.218 . S
O28 C27 1.218 . S
C29 O22 1.275 . S
C29 O24 1.255 . S
C30 O31 1.258 . S
C30 O32 1.256 . S
O31 Cd23 2.381 . S
O31 C30 1.258 . S
O32 Cd23 2.378 . S
O32 C30 1.256 . S
O33 Cd34 2.300 . S
O33 C40 1.275 . S
Cd34 O33 2.300 . S
Cd34 O42 2.381 . S
Cd34 O43 2.378 . S
O35 Cd36 2.385 . S
O35 C40 1.255 . S
Cd36 O35 2.385 . S
Cd36 O37 2.317 . S
O37 Cd36 2.317 . S
O37 C38 1.232 . S
C38 O37 1.232 . S
C38 O39 1.218 . S
O39 C38 1.218 . S
C40 O33 1.275 . S
C40 O35 1.255 . S
C41 O42 1.258 . S
C41 O43 1.256 . S
O42 Cd34 2.381 . S
O42 C41 1.258 . S
O43 Cd34 2.378 . S
O43 C41 1.256 . S
O44 Cd45 2.300 . S
O44 C51 1.275 . S
Cd45 O44 2.300 . S
Cd45 O53 2.381 . S
Cd45 O54 2.378 . S
O46 Cd47 2.385 . S
O46 C51 1.255 . S
Cd47 O46 2.385 . S
Cd47 O48 2.317 . S
O48 Cd47 2.317 . S
O48 C49 1.232 . S
C49 O48 1.232 . S
C49 O50 1.218 . S
O50 C49 1.218 . S
C51 O44 1.275 . S
C51 O46 1.255 . S
C52 O53 1.258 . S
C52 O54 1.256 . S
O53 Cd45 2.381 . S
O53 C52 1.258 . S
O54 Cd45 2.378 . S
O54 C52 1.256 . S
O55 Cd56 2.300 . S
O55 C62 1.275 . S
Cd56 O55 2.300 . S
Cd56 O64 2.381 . S
Cd56 O65 2.378 . S
O57 Cd58 2.385 . S
O57 C62 1.255 . S
Cd58 O57 2.385 . S
Cd58 O59 2.317 . S
O59 Cd58 2.317 . S
O59 C60 1.232 . S
C60 O59 1.232 . S
C60 O61 1.218 . S
O61 C60 1.218 . S
C62 O55 1.275 . S
C62 O57 1.255 . S
C63 O64 1.258 . S
C63 O65 1.256 . S
O64 Cd56 2.381 . S
O64 C63 1.258 . S
O65 Cd56 2.378 . S
O65 C63 1.256 . S
O66 Cd67 2.300 . S
O66 C73 1.275 . S
Cd67 O66 2.300 . S
Cd67 O75 2.381 . S
Cd67 O76 2.378 . S
O68 Cd69 2.385 . S
O68 C73 1.255 . S
Cd69 O68 2.385 . S
Cd69 O70 2.317 . S
O70 Cd69 2.317 . S
O70 C71 1.232 . S
C71 O70 1.232 . S
C71 O72 1.218 . S
O72 C71 1.218 . S
C73 O66 1.275 . S
C73 O68 1.255 . S
C74 O75 1.258 . S
C74 O76 1.256 . S
O75 Cd67 2.381 . S
O75 C74 1.258 . S
O76 Cd67 2.378 . S
O76 C74 1.256 . S
O77 Cd78 2.300 . S
O77 C84 1.275 . S
Cd78 O77 2.300 . S
Cd78 O86 2.381 . S
Cd78 O87 2.378 . S
O79 Cd80 2.385 . S
O79 C84 1.255 . S
Cd80 O79 2.385 . S
Cd80 O81 2.317 . S
O81 Cd80 2.317 . S
O81 C82 1.232 . S
C82 O81 1.232 . S
C82 O83 1.218 . S
O83 C82 1.218 . S
C84 O77 1.275 . S
C84 O79 1.255 . S
C85 O86 1.258 . S
C85 O87 1.256 . S
O86 Cd78 2.381 . S
O86 C85 1.258 . S
O87 Cd78 2.378 . S
O87 C85 1.256 . S
O88 Cd89 2.300 . S
O88 C95 1.275 . S
Cd89 O88 2.300 . S
Cd89 O97 2.381 . S
Cd89 O98 2.378 . S
O90 Cd91 2.385 . S
O90 C95 1.255 . S
Cd91 O90 2.385 . S
Cd91 O92 2.317 . S
O92 Cd91 2.317 . S
O92 C93 1.232 . S
C93 O92 1.232 . S
C93 O94 1.218 . S
O94 C93 1.218 . S
C95 O88 1.275 . S
C95 O90 1.255 . S
C96 O97 1.258 . S
C96 O98 1.256 . S
O97 Cd89 2.381 . S
O97 C96 1.258 . S
O98 Cd89 2.378 . S
O98 C96 1.256 . S
O99 Cd100 2.300 . S
O99 C106 1.275 . S
Cd100 O99 2.300 . S
Cd100 O108 2.381 . S
Cd100 O109 2.378 . S
O101 Cd102 2.385 . S
O101 C106 1.255 . S
Cd102 O101 2.385 . S
Cd102 O103 2.317 . S
O103 Cd102 2.317 . S
O103 C104 1.232 . S
C104 O103 1.232 . S
C104 O105 1.218 . S
O105 C104 1.218 . S
C106 O99 1.275 . S
C106 O101 1.255 . S
C107 O108 1.258 . S
C107 O109 1.256 . S
O108 Cd100 2.381 . S
O108 C107 1.258 . S
O109 Cd100 2.378 . S
O109 C107 1.256 . S
O110 Cd111 2.300 . S
O110 C117 1.275 . S
Cd111 O110 2.300 . S
Cd111 O119 2.381 . S
Cd111 O120 2.378 . S
O112 Cd113 2.385 . S
O112 C117 1.255 . S
Cd113 O112 2.385 . S
Cd113 O114 2.317 . S
O114 Cd113 2.317 . S
O114 C115 1.232 . S
C115 O114 1.232 . S
C115 O116 1.218 . S
O116 C115 1.218 . S
C117 O110 1.275 . S
C117 O112 1.255 . S
C118 O119 1.258 . S
C118 O120 1.256 . S
O119 Cd111 2.381 . S
O119 C118 1.258 . S
O120 Cd111 2.378 . S
O120 C118 1.256 . S
O121 Cd122 2.300 . S
O121 C128 1.275 . S
Cd122 O121 2.300 . S
Cd122 O130 2.381 . S
Cd122 O131 2.378 . S
O123 Cd124 2.385 . S
O123 C128 1.255 . S
Cd124 O123 2.385 . S
Cd124 O125 2.317 . S
O125 Cd124 2.317 . S
O125 C126 1.232 . S
C126 O125 1.232 . S
C126 O127 1.218 . S
O127 C126 1.218 . S
C128 O121 1.275 . S
C128 O123 1.255 . S
C129 O130 1.258 . S
C129 O131 1.256 . S
O130 Cd122 2.381 . S
O130 C129 1.258 . S
O131 Cd122 2.378 . S
O131 C129 1.256 . S
C132 C133 1.349 . S
C132 C134 1.327 . S
C132 H157 0.950 . S
C133 C132 1.349 . S
C133 C149 1.349 . S
C134 C132 1.327 . S
C134 C153 1.429 . S
C134 H158 0.950 . S
C135 C152 1.574 . S
C135 C154 1.368 1_554 S
C135 H159 0.949 . S
H136 C140 0.949 . S
C137 C138 1.349 . S
C137 C139 1.327 . S
C137 H160 0.950 . S
C138 C137 1.349 . S
C138 C150 1.349 . S
C139 C137 1.327 . S
C139 C155 1.429 . S
C139 H161 0.950 . S
C140 H136 0.949 . S
C140 C148 1.574 . S
C140 C156 1.368 1_556 S
H141 C149 0.950 . S
H142 C147 0.950 . S
H143 C148 0.949 . S
H144 C150 0.950 . S
H145 C151 0.950 . S
H146 C152 0.949 . S
C147 H142 0.950 . S
C147 C149 1.327 . S
C147 C153 1.429 . S
C148 C140 1.574 . S
C148 H143 0.949 . S
C148 C154 1.368 . S
C149 C133 1.349 . S
C149 H141 0.950 . S
C149 C147 1.327 . S
C150 C138 1.349 . S
C150 H144 0.950 . S
C150 C151 1.327 . S
C151 H145 0.950 . S
C151 C150 1.327 . S
C151 C155 1.429 . S
C152 C135 1.574 . S
C152 H146 0.949 . S
C152 C156 1.368 . S
C153 C134 1.429 . S
C153 C147 1.429 . S
C153 C154 1.523 . S
C154 C135 1.368 1_556 S
C154 C148 1.368 . S
C154 C153 1.523 . S
C155 C139 1.429 . S
C155 C151 1.429 . S
C155 C156 1.523 . S
C156 C140 1.368 1_554 S
C156 C152 1.368 . S
C156 C155 1.523 . S
H157 C132 0.950 . S
H158 C134 0.950 . S
H159 C135 0.949 . S
H160 C137 0.950 . S
H161 C139 0.950 . S
C162 C163 1.349 . S
C162 C164 1.327 . S
C162 H187 0.950 . S
C163 C162 1.349 . S
C163 C179 1.349 . S
C164 C162 1.327 . S
C164 C183 1.429 . S
C164 H188 0.950 . S
C165 C182 1.574 . S
C165 C184 1.368 . S
C165 H189 0.949 . S
H166 C170 0.949 . S
C167 C168 1.349 . S
C167 C169 1.327 . S
C167 H190 0.950 . S
C168 C167 1.349 . S
C168 C180 1.349 . S
C169 C167 1.327 . S
C169 C185 1.429 . S
C169 H191 0.950 . S
C170 H166 0.949 . S
C170 C178 1.574 . S
C170 C186 1.368 . S
H171 C179 0.950 . S
H172 C177 0.950 . S
H173 C178 0.949 . S
H174 C180 0.950 . S
H175 C181 0.950 . S
H176 C182 0.949 . S
C177 H172 0.950 . S
C177 C179 1.327 . S
C177 C183 1.429 . S
C178 C170 1.574 . S
C178 H173 0.949 . S
C178 C184 1.368 . S
C179 C163 1.349 . S
C179 H171 0.950 . S
C179 C177 1.327 . S
C180 C168 1.349 . S
C180 H174 0.950 . S
C180 C181 1.327 . S
C181 H175 0.950 . S
C181 C180 1.327 . S
C181 C185 1.429 . S
C182 C165 1.574 . S
C182 H176 0.949 . S
C182 C186 1.368 . S
C183 C164 1.429 . S
C183 C177 1.429 . S
C183 C184 1.523 . S
C184 C165 1.368 . S
C184 C178 1.368 . S
C184 C183 1.523 . S
C185 C169 1.429 . S
C185 C181 1.429 . S
C185 C186 1.523 . S
C186 C170 1.368 . S
C186 C182 1.368 . S
C186 C185 1.523 . S
H187 C162 0.950 . S
H188 C164 0.950 . S
H189 C165 0.949 . S
H190 C167 0.950 . S
H191 C169 0.950 . S
C192 C193 1.349 . S
C192 C194 1.327 . S
C192 H217 0.950 . S
C193 C192 1.349 . S
C193 C209 1.349 . S
C194 C192 1.327 . S
C194 C213 1.429 . S
C194 H218 0.950 . S
C195 C212 1.574 . S
C195 C214 1.368 . S
C195 H219 0.949 . S
H196 C200 0.949 . S
C197 C198 1.349 . S
C197 C199 1.327 . S
C197 H220 0.950 . S
C198 C197 1.349 . S
C198 C210 1.349 . S
C199 C197 1.327 . S
C199 C215 1.429 . S
C199 H221 0.950 . S
C200 H196 0.949 . S
C200 C208 1.574 . S
C200 C216 1.368 . S
H201 C209 0.950 . S
H202 C207 0.950 . S
H203 C208 0.949 . S
H204 C210 0.950 . S
H205 C211 0.950 . S
H206 C212 0.949 . S
C207 H202 0.950 . S
C207 C209 1.327 . S
C207 C213 1.429 . S
C208 C200 1.574 . S
C208 H203 0.949 . S
C208 C214 1.368 . S
C209 C193 1.349 . S
C209 H201 0.950 . S
C209 C207 1.327 . S
C210 C198 1.349 . S
C210 H204 0.950 . S
C210 C211 1.327 . S
C211 H205 0.950 . S
C211 C210 1.327 . S
C211 C215 1.429 . S
C212 C195 1.574 . S
C212 H206 0.949 . S
C212 C216 1.368 . S
C213 C194 1.429 . S
C213 C207 1.429 . S
C213 C214 1.523 . S
C214 C195 1.368 . S
C214 C208 1.368 . S
C214 C213 1.523 . S
C215 C199 1.429 . S
C215 C211 1.429 . S
C215 C216 1.523 . S
C216 C200 1.368 . S
C216 C212 1.368 . S
C216 C215 1.523 . S
H217 C192 0.950 . S
H218 C194 0.950 . S
H219 C195 0.949 . S
H220 C197 0.950 . S
H221 C199 0.950 . S
C222 C223 1.349 . S
C222 C224 1.327 . S
C222 H247 0.950 . S
C223 C222 1.349 . S
C223 C239 1.349 . S
C224 C222 1.327 . S
C224 C243 1.429 . S
C224 H248 0.950 . S
C225 C242 1.574 . S
C225 C244 1.368 . S
C225 H249 0.949 . S
H226 C230 0.949 . S
C227 C228 1.349 . S
C227 C229 1.327 . S
C227 H250 0.950 . S
C228 C227 1.349 . S
C228 C240 1.349 . S
C229 C227 1.327 . S
C229 C245 1.429 . S
C229 H251 0.950 . S
C230 H226 0.949 . S
C230 C238 1.574 . S
C230 C246 1.368 . S
H231 C239 0.950 . S
H232 C237 0.950 . S
H233 C238 0.949 . S
H234 C240 0.950 . S
H235 C241 0.950 . S
H236 C242 0.949 . S
C237 H232 0.950 . S
C237 C239 1.327 . S
C237 C243 1.429 . S
C238 C230 1.574 . S
C238 H233 0.949 . S
C238 C244 1.368 1_554 S
C239 C223 1.349 . S
C239 H231 0.950 . S
C239 C237 1.327 . S
C240 C228 1.349 . S
C240 H234 0.950 . S
C240 C241 1.327 . S
C241 H235 0.950 . S
C241 C240 1.327 . S
C241 C245 1.429 . S
C242 C225 1.574 . S
C242 H236 0.949 . S
C242 C246 1.368 1_556 S
C243 C224 1.429 . S
C243 C237 1.429 . S
C243 C244 1.523 . S
C244 C225 1.368 . S
C244 C238 1.368 1_556 S
C244 C243 1.523 . S
C245 C229 1.429 . S
C245 C241 1.429 . S
C245 C246 1.523 . S
C246 C230 1.368 . S
C246 C242 1.368 1_554 S
C246 C245 1.523 . S
H247 C222 0.950 . S
H248 C224 0.950 . S
H249 C225 0.949 . S
H250 C227 0.950 . S
H251 C229 0.950 . S
C252 C253 1.349 . S
C252 C254 1.327 . S
C252 H277 0.950 . S
C253 C252 1.349 . S
C253 C269 1.349 . S
C254 C252 1.327 . S
C254 C273 1.429 . S
C254 H278 0.950 . S
C255 C272 1.574 . S
C255 C274 1.368 . S
C255 H279 0.949 . S
H256 C260 0.949 . S
C257 C258 1.349 . S
C257 C259 1.327 . S
C257 H280 0.950 . S
C258 C257 1.349 . S
C258 C270 1.349 . S
C259 C257 1.327 . S
C259 C275 1.429 . S
C259 H281 0.950 . S
C260 H256 0.949 . S
C260 C268 1.574 . S
C260 C276 1.368 . S
H261 C269 0.950 . S
H262 C267 0.950 . S
H263 C268 0.949 . S
H264 C270 0.950 . S
H265 C271 0.950 . S
H266 C272 0.949 . S
C267 H262 0.950 . S
C267 C269 1.327 . S
C267 C273 1.429 . S
C268 C260 1.574 . S
C268 H263 0.949 . S
C268 C274 1.368 . S
C269 C253 1.349 . S
C269 H261 0.950 . S
C269 C267 1.327 . S
C270 C258 1.349 . S
C270 H264 0.950 . S
C270 C271 1.327 . S
C271 H265 0.950 . S
C271 C270 1.327 . S
C271 C275 1.429 . S
C272 C255 1.574 . S
C272 H266 0.949 . S
C272 C276 1.368 . S
C273 C254 1.429 . S
C273 C267 1.429 . S
C273 C274 1.523 . S
C274 C255 1.368 . S
C274 C268 1.368 . S
C274 C273 1.523 . S
C275 C259 1.429 . S
C275 C271 1.429 . S
C275 C276 1.523 . S
C276 C260 1.368 . S
C276 C272 1.368 . S
C276 C275 1.523 . S
H277 C252 0.950 . S
H278 C254 0.950 . S
H279 C255 0.949 . S
H280 C257 0.950 . S
H281 C259 0.950 . S
C282 C283 1.349 . S
C282 C284 1.327 . S
C282 H307 0.950 . S
C283 C282 1.349 . S
C283 C299 1.349 . S
C284 C282 1.327 . S
C284 C303 1.429 . S
C284 H308 0.950 . S
C285 C302 1.574 . S
C285 C304 1.368 . S
C285 H309 0.949 . S
H286 C290 0.949 . S
C287 C288 1.349 . S
C287 C289 1.327 . S
C287 H310 0.950 . S
C288 C287 1.349 . S
C288 C300 1.349 . S
C289 C287 1.327 . S
C289 C305 1.429 . S
C289 H311 0.950 . S
C290 H286 0.949 . S
C290 C298 1.574 . S
C290 C306 1.368 . S
H291 C299 0.950 . S
H292 C297 0.950 . S
H293 C298 0.949 . S
H294 C300 0.950 . S
H295 C301 0.950 . S
H296 C302 0.949 . S
C297 H292 0.950 . S
C297 C299 1.327 . S
C297 C303 1.429 . S
C298 C290 1.574 . S
C298 H293 0.949 . S
C298 C304 1.368 . S
C299 C283 1.349 . S
C299 H291 0.950 . S
C299 C297 1.327 . S
C300 C288 1.349 . S
C300 H294 0.950 . S
C300 C301 1.327 . S
C301 H295 0.950 . S
C301 C300 1.327 . S
C301 C305 1.429 . S
C302 C285 1.574 . S
C302 H296 0.949 . S
C302 C306 1.368 . S
C303 C284 1.429 . S
C303 C297 1.429 . S
C303 C304 1.523 . S
C304 C285 1.368 . S
C304 C298 1.368 . S
C304 C303 1.523 . S
C305 C289 1.429 . S
C305 C301 1.429 . S
C305 C306 1.523 . S
C306 C290 1.368 . S
C306 C302 1.368 . S
C306 C305 1.523 . S
H307 C282 0.950 . S
H308 C284 0.950 . S
H309 C285 0.949 . S
H310 C287 0.950 . S
H311 C289 0.950 . S
C312 C313 1.349 . S
C312 C314 1.327 . S
C312 H337 0.950 . S
C313 C312 1.349 . S
C313 C329 1.349 . S
C314 C312 1.327 . S
C314 C333 1.429 . S
C314 H338 0.950 . S
C315 C332 1.574 . S
C315 C334 1.368 . S
C315 H339 0.949 . S
H316 C320 0.949 . S
C317 C318 1.349 . S
C317 C319 1.327 . S
C317 H340 0.950 . S
C318 C317 1.349 . S
C318 C330 1.349 . S
C319 C317 1.327 . S
C319 C335 1.429 . S
C319 H341 0.950 . S
C320 H316 0.949 . S
C320 C328 1.574 . S
C320 C336 1.368 . S
H321 C329 0.950 . S
H322 C327 0.950 . S
H323 C328 0.949 . S
H324 C330 0.950 . S
H325 C331 0.950 . S
H326 C332 0.949 . S
C327 H322 0.950 . S
C327 C329 1.327 . S
C327 C333 1.429 . S
C328 C320 1.574 . S
C328 H323 0.949 . S
C328 C334 1.368 . S
C329 C313 1.349 . S
C329 H321 0.950 . S
C329 C327 1.327 . S
C330 C318 1.349 . S
C330 H324 0.950 . S
C330 C331 1.327 . S
C331 H325 0.950 . S
C331 C330 1.327 . S
C331 C335 1.429 . S
C332 C315 1.574 . S
C332 H326 0.949 . S
C332 C336 1.368 . S
C333 C314 1.429 . S
C333 C327 1.429 . S
C333 C334 1.523 . S
C334 C315 1.368 . S
C334 C328 1.368 . S
C334 C333 1.523 . S
C335 C319 1.429 . S
C335 C331 1.429 . S
C335 C336 1.523 . S
C336 C320 1.368 . S
C336 C332 1.368 . S
C336 C335 1.523 . S
H337 C312 0.950 . S
H338 C314 0.950 . S
H339 C315 0.949 . S
H340 C317 0.950 . S
H341 C319 0.950 . S
C342 C343 1.349 . S
C342 C344 1.327 . S
C342 H367 0.950 . S
C343 C342 1.349 . S
C343 C359 1.349 . S
C344 C342 1.327 . S
C344 C363 1.429 . S
C344 H368 0.950 . S
C345 C362 1.574 . S
C345 C364 1.368 . S
C345 H369 0.949 . S
H346 C350 0.949 . S
C347 C348 1.349 . S
C347 C349 1.327 . S
C347 H370 0.950 . S
C348 C347 1.349 . S
C348 C360 1.349 . S
C349 C347 1.327 . S
C349 C365 1.429 . S
C349 H371 0.950 . S
C350 H346 0.949 . S
C350 C358 1.574 . S
C350 C366 1.368 . S
H351 C359 0.950 . S
H352 C357 0.950 . S
H353 C358 0.949 . S
H354 C360 0.950 . S
H355 C361 0.950 . S
H356 C362 0.949 . S
C357 H352 0.950 . S
C357 C359 1.327 . S
C357 C363 1.429 . S
C358 C350 1.574 . S
C358 H353 0.949 . S
C358 C364 1.368 . S
C359 C343 1.349 . S
C359 H351 0.950 . S
C359 C357 1.327 . S
C360 C348 1.349 . S
C360 H354 0.950 . S
C360 C361 1.327 . S
C361 H355 0.950 . S
C361 C360 1.327 . S
C361 C365 1.429 . S
C362 C345 1.574 . S
C362 H356 0.949 . S
C362 C366 1.368 . S
C363 C344 1.429 . S
C363 C357 1.429 . S
C363 C364 1.523 . S
C364 C345 1.368 . S
C364 C358 1.368 . S
C364 C363 1.523 . S
C365 C349 1.429 . S
C365 C361 1.429 . S
C365 C366 1.523 . S
C366 C350 1.368 . S
C366 C362 1.368 . S
C366 C365 1.523 . S
H367 C342 0.950 . S
H368 C344 0.950 . S
H369 C345 0.949 . S
H370 C347 0.950 . S
H371 C349 0.950 . S
C372 C373 1.349 . S
C372 C374 1.327 . S
C372 H397 0.950 . S
C373 C372 1.349 . S
C373 C389 1.349 . S
C374 C372 1.327 . S
C374 C393 1.429 . S
C374 H398 0.950 . S
C375 C392 1.574 . S
C375 C394 1.368 . S
C375 H399 0.949 . S
H376 C380 0.949 . S
C377 C378 1.349 . S
C377 C379 1.327 . S
C377 H400 0.950 . S
C378 C377 1.349 . S
C378 C390 1.349 . S
C379 C377 1.327 . S
C379 C395 1.429 . S
C379 H401 0.950 . S
C380 H376 0.949 . S
C380 C388 1.574 . S
C380 C396 1.368 . S
H381 C389 0.950 . S
H382 C387 0.950 . S
H383 C388 0.949 . S
H384 C390 0.950 . S
H385 C391 0.950 . S
H386 C392 0.949 . S
C387 H382 0.950 . S
C387 C389 1.327 . S
C387 C393 1.429 . S
C388 C380 1.574 . S
C388 H383 0.949 . S
C388 C394 1.368 . S
C389 C373 1.349 . S
C389 H381 0.950 . S
C389 C387 1.327 . S
C390 C378 1.349 . S
C390 H384 0.950 . S
C390 C391 1.327 . S
C391 H385 0.950 . S
C391 C390 1.327 . S
C391 C395 1.429 . S
C392 C375 1.574 . S
C392 H386 0.949 . S
C392 C396 1.368 . S
C393 C374 1.429 . S
C393 C387 1.429 . S
C393 C394 1.523 . S
C394 C375 1.368 . S
C394 C388 1.368 . S
C394 C393 1.523 . S
C395 C379 1.429 . S
C395 C391 1.429 . S
C395 C396 1.523 . S
C396 C380 1.368 . S
C396 C392 1.368 . S
C396 C395 1.523 . S
H397 C372 0.950 . S
H398 C374 0.950 . S
H399 C375 0.949 . S
H400 C377 0.950 . S
H401 C379 0.950 . S
C402 C403 1.349 . S
C402 C404 1.327 . S
C402 H427 0.950 . S
C403 C402 1.349 . S
C403 C419 1.349 . S
C404 C402 1.327 . S
C404 C423 1.429 . S
C404 H428 0.950 . S
C405 C422 1.574 . S
C405 C424 1.368 . S
C405 H429 0.949 . S
H406 C410 0.949 . S
C407 C408 1.349 . S
C407 C409 1.327 . S
C407 H430 0.950 . S
C408 C407 1.349 . S
C408 C420 1.349 . S
C409 C407 1.327 . S
C409 C425 1.429 . S
C409 H431 0.950 . S
C410 H406 0.949 . S
C410 C418 1.574 . S
C410 C426 1.368 . S
H411 C419 0.950 . S
H412 C417 0.950 . S
H413 C418 0.949 . S
H414 C420 0.950 . S
H415 C421 0.950 . S
H416 C422 0.949 . S
C417 H412 0.950 . S
C417 C419 1.327 . S
C417 C423 1.429 . S
C418 C410 1.574 . S
C418 H413 0.949 . S
C418 C424 1.368 . S
C419 C403 1.349 . S
C419 H411 0.950 . S
C419 C417 1.327 . S
C420 C408 1.349 . S
C420 H414 0.950 . S
C420 C421 1.327 . S
C421 H415 0.950 . S
C421 C420 1.327 . S
C421 C425 1.429 . S
C422 C405 1.574 . S
C422 H416 0.949 . S
C422 C426 1.368 . S
C423 C404 1.429 . S
C423 C417 1.429 . S
C423 C424 1.523 . S
C424 C405 1.368 . S
C424 C418 1.368 . S
C424 C423 1.523 . S
C425 C409 1.429 . S
C425 C421 1.429 . S
C425 C426 1.523 . S
C426 C410 1.368 . S
C426 C422 1.368 . S
C426 C425 1.523 . S
H427 C402 0.950 . S
H428 C404 0.950 . S
H429 C405 0.949 . S
H430 C407 0.950 . S
H431 C409 0.950 . S
C432 C433 1.349 . S
C432 C434 1.327 . S
C432 H457 0.950 . S
C433 C432 1.349 . S
C433 C449 1.349 . S
C434 C432 1.327 . S
C434 C453 1.429 . S
C434 H458 0.950 . S
C435 C452 1.574 . S
C435 C454 1.368 . S
C435 H459 0.949 . S
H436 C440 0.949 . S
C437 C438 1.349 . S
C437 C439 1.327 . S
C437 H460 0.950 . S
C438 C437 1.349 . S
C438 C450 1.349 . S
C439 C437 1.327 . S
C439 C455 1.429 . S
C439 H461 0.950 . S
C440 H436 0.949 . S
C440 C448 1.574 . S
C440 C456 1.368 . S
H441 C449 0.950 . S
H442 C447 0.950 . S
H443 C448 0.949 . S
H444 C450 0.950 . S
H445 C451 0.950 . S
H446 C452 0.949 . S
C447 H442 0.950 . S
C447 C449 1.327 . S
C447 C453 1.429 . S
C448 C440 1.574 . S
C448 H443 0.949 . S
C448 C454 1.368 . S
C449 C433 1.349 . S
C449 H441 0.950 . S
C449 C447 1.327 . S
C450 C438 1.349 . S
C450 H444 0.950 . S
C450 C451 1.327 . S
C451 H445 0.950 . S
C451 C450 1.327 . S
C451 C455 1.429 . S
C452 C435 1.574 . S
C452 H446 0.949 . S
C452 C456 1.368 . S
C453 C434 1.429 . S
C453 C447 1.429 . S
C453 C454 1.523 . S
C454 C435 1.368 . S
C454 C448 1.368 . S
C454 C453 1.523 . S
C455 C439 1.429 . S
C455 C451 1.429 . S
C455 C456 1.523 . S
C456 C440 1.368 . S
C456 C452 1.368 . S
C456 C455 1.523 . S
H457 C432 0.950 . S
H458 C434 0.950 . S
H459 C435 0.949 . S
H460 C437 0.950 . S
H461 C439 0.950 . S
C462 C463 1.349 . S
C462 C464 1.327 . S
C462 H487 0.950 . S
C463 C462 1.349 . S
C463 C479 1.349 . S
C464 C462 1.327 . S
C464 C483 1.429 . S
C464 H488 0.950 . S
C465 C482 1.574 . S
C465 C484 1.368 . S
C465 H489 0.949 . S
H466 C470 0.949 . S
C467 C468 1.349 . S
C467 C469 1.327 . S
C467 H490 0.950 . S
C468 C467 1.349 . S
C468 C480 1.349 . S
C469 C467 1.327 . S
C469 C485 1.429 . S
C469 H491 0.950 . S
C470 H466 0.949 . S
C470 C478 1.574 . S
C470 C486 1.368 . S
H471 C479 0.950 . S
H472 C477 0.950 . S
H473 C478 0.949 . S
H474 C480 0.950 . S
H475 C481 0.950 . S
H476 C482 0.949 . S
C477 H472 0.950 . S
C477 C479 1.327 . S
C477 C483 1.429 . S
C478 C470 1.574 . S
C478 H473 0.949 . S
C478 C484 1.368 . S
C479 C463 1.349 . S
C479 H471 0.950 . S
C479 C477 1.327 . S
C480 C468 1.349 . S
C480 H474 0.950 . S
C480 C481 1.327 . S
C481 H475 0.950 . S
C481 C480 1.327 . S
C481 C485 1.429 . S
C482 C465 1.574 . S
C482 H476 0.949 . S
C482 C486 1.368 . S
C483 C464 1.429 . S
C483 C477 1.429 . S
C483 C484 1.523 . S
C484 C465 1.368 . S
C484 C478 1.368 . S
C484 C483 1.523 . S
C485 C469 1.429 . S
C485 C481 1.429 . S
C485 C486 1.523 . S
C486 C470 1.368 . S
C486 C482 1.368 . S
C486 C485 1.523 . S
H487 C462 0.950 . S
H488 C464 0.950 . S
H489 C465 0.949 . S
H490 C467 0.950 . S
H491 C469 0.950 . S
C492 C493 1.349 . S
C492 C494 1.327 . S
C492 H517 0.950 . S
C493 C492 1.349 . S
C493 C509 1.349 . S
C494 C492 1.327 . S
C494 C513 1.429 . S
C494 H518 0.950 . S
C495 C512 1.574 1_455 S
C495 C514 1.368 . S
C495 H519 0.949 . S
H496 C500 0.949 . S
C497 C498 1.349 . S
C497 C499 1.327 . S
C497 H520 0.950 . S
C498 C497 1.349 . S
C498 C510 1.349 . S
C499 C497 1.327 . S
C499 C515 1.429 . S
C499 H521 0.950 . S
C500 H496 0.949 . S
C500 C508 1.574 1_655 S
C500 C516 1.368 . S
H501 C509 0.950 . S
H502 C507 0.950 . S
H503 C508 0.949 . S
H504 C510 0.950 . S
H505 C511 0.950 . S
H506 C512 0.949 . S
C507 H502 0.950 . S
C507 C509 1.327 . S
C507 C513 1.429 . S
C508 C500 1.574 1_455 S
C508 H503 0.949 . S
C508 C514 1.368 . S
C509 C493 1.349 . S
C509 H501 0.950 . S
C509 C507 1.327 . S
C510 C498 1.349 . S
C510 H504 0.950 . S
C510 C511 1.327 . S
C511 H505 0.950 . S
C511 C510 1.327 . S
C511 C515 1.429 . S
C512 C495 1.574 1_655 S
C512 H506 0.949 . S
C512 C516 1.368 . S
C513 C494 1.429 . S
C513 C507 1.429 . S
C513 C514 1.523 . S
C514 C495 1.368 . S
C514 C508 1.368 . S
C514 C513 1.523 . S
C515 C499 1.429 . S
C515 C511 1.429 . S
C515 C516 1.523 . S
C516 C500 1.368 . S
C516 C512 1.368 . S
C516 C515 1.523 . S
H517 C492 0.950 . S
H518 C494 0.950 . S
H519 C495 0.949 . S
H520 C497 0.950 . S
H521 C499 0.950 . S
C522 C523 1.349 . S
C522 C524 1.327 . S
C522 H547 0.950 . S
C523 C522 1.349 . S
C523 C539 1.349 . S
C524 C522 1.327 . S
C524 C543 1.429 . S
C524 H548 0.950 . S
C525 C542 1.574 1_545 S
C525 C544 1.368 . S
C525 H549 0.949 . S
H526 C530 0.949 . S
C527 C528 1.349 . S
C527 C529 1.327 . S
C527 H550 0.950 . S
C528 C527 1.349 . S
C528 C540 1.349 . S
C529 C527 1.327 . S
C529 C545 1.429 . S
C529 H551 0.950 . S
C530 H526 0.949 . S
C530 C538 1.574 1_565 S
C530 C546 1.368 . S
H531 C539 0.950 . S
H532 C537 0.950 . S
H533 C538 0.949 . S
H534 C540 0.950 . S
H535 C541 0.950 . S
H536 C542 0.949 . S
C537 H532 0.950 . S
C537 C539 1.327 . S
C537 C543 1.429 . S
C538 C530 1.574 1_545 S
C538 H533 0.949 . S
C538 C544 1.368 . S
C539 C523 1.349 . S
C539 H531 0.950 . S
C539 C537 1.327 . S
C540 C528 1.349 . S
C540 H534 0.950 . S
C540 C541 1.327 . S
C541 H535 0.950 . S
C541 C540 1.327 . S
C541 C545 1.429 . S
C542 C525 1.574 1_565 S
C542 H536 0.949 . S
C542 C546 1.368 . S
C543 C524 1.429 . S
C543 C537 1.429 . S
C543 C544 1.523 . S
C544 C525 1.368 . S
C544 C538 1.368 . S
C544 C543 1.523 . S
C545 C529 1.429 . S
C545 C541 1.429 . S
C545 C546 1.523 . S
C546 C530 1.368 . S
C546 C542 1.368 . S
C546 C545 1.523 . S
H547 C522 0.950 . S
H548 C524 0.950 . S
H549 C525 0.949 . S
H550 C527 0.950 . S
H551 C529 0.950 . S
C552 C553 1.349 . S
C552 C554 1.327 . S
C552 H577 0.950 . S
C553 C552 1.349 . S
C553 C569 1.349 . S
C554 C552 1.327 . S
C554 C573 1.429 . S
C554 H578 0.950 . S
C555 C572 1.574 . S
C555 C574 1.368 . S
C555 H579 0.949 . S
H556 C560 0.949 . S
C557 C558 1.349 . S
C557 C559 1.327 . S
C557 H580 0.950 . S
C558 C557 1.349 . S
C558 C570 1.349 . S
C559 C557 1.327 . S
C559 C575 1.429 . S
C559 H581 0.950 . S
C560 H556 0.949 . S
C560 C568 1.574 . S
C560 C576 1.368 . S
H561 C569 0.950 . S
H562 C567 0.950 . S
H563 C568 0.949 . S
H564 C570 0.950 . S
H565 C571 0.950 . S
H566 C572 0.949 . S
C567 H562 0.950 . S
C567 C569 1.327 . S
C567 C573 1.429 . S
C568 C560 1.574 . S
C568 H563 0.949 . S
C568 C574 1.368 . S
C569 C553 1.349 . S
C569 H561 0.950 . S
C569 C567 1.327 . S
C570 C558 1.349 . S
C570 H564 0.950 . S
C570 C571 1.327 . S
C571 H565 0.950 . S
C571 C570 1.327 . S
C571 C575 1.429 . S
C572 C555 1.574 . S
C572 H566 0.949 . S
C572 C576 1.368 . S
C573 C554 1.429 . S
C573 C567 1.429 . S
C573 C574 1.523 . S
C574 C555 1.368 . S
C574 C568 1.368 . S
C574 C573 1.523 . S
C575 C559 1.429 . S
C575 C571 1.429 . S
C575 C576 1.523 . S
C576 C560 1.368 . S
C576 C572 1.368 . S
C576 C575 1.523 . S
H577 C552 0.950 . S
H578 C554 0.950 . S
H579 C555 0.949 . S
H580 C557 0.950 . S
H581 C559 0.950 . S
C582 C583 1.349 . S
C582 C584 1.327 . S
C582 H607 0.950 . S
C583 C582 1.349 . S
C583 C599 1.349 . S
C584 C582 1.327 . S
C584 C603 1.429 . S
C584 H608 0.950 . S
C585 C602 1.574 1_655 S
C585 C604 1.368 . S
C585 H609 0.949 . S
H586 C590 0.949 . S
C587 C588 1.349 . S
C587 C589 1.327 . S
C587 H610 0.950 . S
C588 C587 1.349 . S
C588 C600 1.349 . S
C589 C587 1.327 . S
C589 C605 1.429 . S
C589 H611 0.950 . S
C590 H586 0.949 . S
C590 C598 1.574 1_455 S
C590 C606 1.368 . S
H591 C599 0.950 . S
H592 C597 0.950 . S
H593 C598 0.949 . S
H594 C600 0.950 . S
H595 C601 0.950 . S
H596 C602 0.949 . S
C597 H592 0.950 . S
C597 C599 1.327 . S
C597 C603 1.429 . S
C598 C590 1.574 1_655 S
C598 H593 0.949 . S
C598 C604 1.368 . S
C599 C583 1.349 . S
C599 H591 0.950 . S
C599 C597 1.327 . S
C600 C588 1.349 . S
C600 H594 0.950 . S
C600 C601 1.327 . S
C601 H595 0.950 . S
C601 C600 1.327 . S
C601 C605 1.429 . S
C602 C585 1.574 1_455 S
C602 H596 0.949 . S
C602 C606 1.368 . S
C603 C584 1.429 . S
C603 C597 1.429 . S
C603 C604 1.523 . S
C604 C585 1.368 . S
C604 C598 1.368 . S
C604 C603 1.523 . S
C605 C589 1.429 . S
C605 C601 1.429 . S
C605 C606 1.523 . S
C606 C590 1.368 . S
C606 C602 1.368 . S
C606 C605 1.523 . S
H607 C582 0.950 . S
H608 C584 0.950 . S
H609 C585 0.949 . S
H610 C587 0.950 . S
H611 C589 0.950 . S
C612 C613 1.349 . S
C612 C614 1.327 . S
C612 H637 0.950 . S
C613 C612 1.349 . S
C613 C629 1.349 . S
C614 C612 1.327 . S
C614 C633 1.429 . S
C614 H638 0.950 . S
C615 C632 1.574 1_545 S
C615 C634 1.368 . S
C615 H639 0.949 . S
H616 C620 0.949 . S
C617 C618 1.349 . S
C617 C619 1.327 . S
C617 H640 0.950 . S
C618 C617 1.349 . S
C618 C630 1.349 . S
C619 C617 1.327 . S
C619 C635 1.429 . S
C619 H641 0.950 . S
C620 H616 0.949 . S
C620 C628 1.574 1_565 S
C620 C636 1.368 . S
H621 C629 0.950 . S
H622 C627 0.950 . S
H623 C628 0.949 . S
H624 C630 0.950 . S
H625 C631 0.950 . S
H626 C632 0.949 . S
C627 H622 0.950 . S
C627 C629 1.327 . S
C627 C633 1.429 . S
C628 C620 1.574 1_545 S
C628 H623 0.949 . S
C628 C634 1.368 . S
C629 C613 1.349 . S
C629 H621 0.950 . S
C629 C627 1.327 . S
C630 C618 1.349 . S
C630 H624 0.950 . S
C630 C631 1.327 . S
C631 H625 0.950 . S
C631 C630 1.327 . S
C631 C635 1.429 . S
C632 C615 1.574 1_565 S
C632 H626 0.949 . S
C632 C636 1.368 . S
C633 C614 1.429 . S
C633 C627 1.429 . S
C633 C634 1.523 . S
C634 C615 1.368 . S
C634 C628 1.368 . S
C634 C633 1.523 . S
C635 C619 1.429 . S
C635 C631 1.429 . S
C635 C636 1.523 . S
C636 C620 1.368 . S
C636 C632 1.368 . S
C636 C635 1.523 . S
H637 C612 0.950 . S
H638 C614 0.950 . S
H639 C615 0.949 . S
H640 C617 0.950 . S
H641 C619 0.950 . S
C642 C643 1.349 . S
C642 C644 1.327 . S
C642 H667 0.950 . S
C643 C642 1.349 . S
C643 C659 1.349 . S
C644 C642 1.327 . S
C644 C663 1.429 . S
C644 H668 0.950 . S
C645 C662 1.574 . S
C645 C664 1.368 . S
C645 H669 0.949 . S
H646 C650 0.949 . S
C647 C648 1.349 . S
C647 C649 1.327 . S
C647 H670 0.950 . S
C648 C647 1.349 . S
C648 C660 1.349 . S
C649 C647 1.327 . S
C649 C665 1.429 . S
C649 H671 0.950 . S
C650 H646 0.949 . S
C650 C658 1.574 . S
C650 C666 1.368 . S
H651 C659 0.950 . S
H652 C657 0.950 . S
H653 C658 0.949 . S
H654 C660 0.950 . S
H655 C661 0.950 . S
H656 C662 0.949 . S
C657 H652 0.950 . S
C657 C659 1.327 . S
C657 C663 1.429 . S
C658 C650 1.574 . S
C658 H653 0.949 . S
C658 C664 1.368 . S
C659 C643 1.349 . S
C659 H651 0.950 . S
C659 C657 1.327 . S
C660 C648 1.349 . S
C660 H654 0.950 . S
C660 C661 1.327 . S
C661 H655 0.950 . S
C661 C660 1.327 . S
C661 C665 1.429 . S
C662 C645 1.574 . S
C662 H656 0.949 . S
C662 C666 1.368 . S
C663 C644 1.429 . S
C663 C657 1.429 . S
C663 C664 1.523 . S
C664 C645 1.368 . S
C664 C658 1.368 . S
C664 C663 1.523 . S
C665 C649 1.429 . S
C665 C661 1.429 . S
C665 C666 1.523 . S
C666 C650 1.368 . S
C666 C662 1.368 . S
C666 C665 1.523 . S
H667 C642 0.950 . S
H668 C644 0.950 . S
H669 C645 0.949 . S
H670 C647 0.950 . S
H671 C649 0.950 . S
C133 C118 1.590 . S
C138 C8 1.590 . S
C163 C19 1.589 . S
C168 C129 1.589 . S
C193 C74 1.589 . S
C198 C30 1.589 . S
C223 C85 1.589 . S
C228 C41 1.589 . S
C253 C96 1.589 . S
C258 C52 1.589 . S
C283 C63 1.589 . S
C288 C107 1.589 . S
C313 C95 1.605 . S
C318 C7 1.605 . S
C343 C106 1.605 . S
C348 C18 1.605 . S
C373 C29 1.605 . S
C378 C117 1.605 . S
C403 C128 1.605 . S
C408 C40 1.605 . S
C433 C73 1.605 . S
C438 C51 1.605 . S
C463 C84 1.605 . S
C468 C62 1.605 . S
C493 C5 1.404 . S
C498 C126 1.404 . S
C523 C16 1.404 . S
C528 C71 1.404 . S
C553 C27 1.404 . S
C558 C82 1.404 . S
C583 C38 1.403 . S
C588 C93 1.403 . S
C613 C104 1.404 . S
C618 C49 1.404 . S
C643 C60 1.404 . S
C648 C115 1.404 . S
