# Generated by pormake.
# Topology cab, (5)-cn, num edge types: 1
# Building blocks:
#     Node 0, Type 0, BuildingBlock: XOMCOT_clean_sbu_1, # of connection points: 5
#     Node 1, Type 0, BuildingBlock: XOMCOT_clean_sbu_1, # of connection points: 5
#     Node 2, Type 0, BuildingBlock: XOMCOT_clean_sbu_1, # of connection points: 5
#     Node 3, Type 0, BuildingBlock: XOMCOT_clean_sbu_1, # of connection points: 5
#     Node 4, Type 0, BuildingBlock: XOMCOT_clean_sbu_1, # of connection points: 5
#     Node 5, Type 0, BuildingBlock: XOMCOT_clean_sbu_1, # of connection points: 5
#     Edge 6, Type (0, 0), BuildingBlock: XIVTED_clean_linker_0, # of connection points: 2
#     Edge 7, Type (0, 0), BuildingBlock: XIVTED_clean_linker_0, # of connection points: 2
#     Edge 8, Type (0, 0), BuildingBlock: XIVTED_clean_linker_0, # of connection points: 2
#     Edge 9, Type (0, 0), BuildingBlock: XIVTED_clean_linker_0, # of connection points: 2
#     Edge 10, Type (0, 0), BuildingBlock: XIVTED_clean_linker_0, # of connection points: 2
#     Edge 11, Type (0, 0), BuildingBlock: XIVTED_clean_linker_0, # of connection points: 2
#     Edge 12, Type (0, 0), BuildingBlock: XIVTED_clean_linker_0, # of connection points: 2
#     Edge 13, Type (0, 0), BuildingBlock: XIVTED_clean_linker_0, # of connection points: 2
#     Edge 14, Type (0, 0), BuildingBlock: XIVTED_clean_linker_0, # of connection points: 2
#     Edge 15, Type (0, 0), BuildingBlock: XIVTED_clean_linker_0, # of connection points: 2
#     Edge 16, Type (0, 0), BuildingBlock: XIVTED_clean_linker_0, # of connection points: 2
#     Edge 17, Type (0, 0), BuildingBlock: XIVTED_clean_linker_0, # of connection points: 2
#     Edge 18, Type (0, 0), BuildingBlock: XIVTED_clean_linker_0, # of connection points: 2
#     Edge 19, Type (0, 0), BuildingBlock: XIVTED_clean_linker_0, # of connection points: 2
#     Edge 20, Type (0, 0), BuildingBlock: XIVTED_clean_linker_0, # of connection points: 2
# Relax obj value: 0.864
# Max RMSD: 0.209
# Mean RMSD: 0.207
data_MOF--net-cab--node1-XOMCOT_clean_sbu_1--edge1-XIVTED_clean_linker_0
_symmetry_space_group_name_H-M    P1
_symmetry_Int_Tables_number       1
_symmetry_cell_setting            triclinic
loop_
_symmetry_equiv_pos_as_xyz
'x, y, z'
_cell_length_a     36.446989
_cell_length_b     36.1649
_cell_length_c     36.575614
_cell_angle_alpha  79.142977
_cell_angle_beta   67.986692
_cell_angle_gamma 79.203199
loop_
_atom_site_label
_atom_site_type_symbol
_atom_site_fract_x
_atom_site_fract_y
_atom_site_fract_z
_atom_type_partial_charge
C0 C 0.98787 0.95339 0.43311 0.0
C1 C -0.00592 0.91441 0.43933 0.0
N2 N 0.03362 0.90303 0.42381 0.0
N3 N 0.0232 0.96663 0.41371 0.0
C4 C 0.05058 0.93542 0.40907 0.0
H5 H 0.95935 0.97109 0.44155 0.0
Co6 Co 0.02783 0.01781 0.39848 0.0
C7 C 0.11556 0.0143 0.3894 0.0
O8 O 0.1105 0.03135 0.41992 0.0
N9 N 0.0311 0.07005 0.38296 0.0
C10 C 0.04253 0.12981 0.37537 0.0
C11 C 0.04729 0.09396 0.39509 0.0
C12 C 0.01623 0.09226 0.35629 0.0
N13 N 0.0231 0.12867 0.3508 0.0
O14 O 0.03502 0.01336 0.34497 0.0
H15 H 0.06081 0.08635 0.41755 0.0
H16 H 0.0003 0.08191 0.34139 0.0
O17 O 0.08555 0.00844 0.38233 0.0
C18 C 0.05186 0.9916 0.31807 0.0
O19 O 0.06965 0.95754 0.32552 0.0
N20 N 0.01916 0.02293 0.45089 0.0
C21 C 0.00648 0.04041 0.52554 0.0
C22 C 0.03486 0.00991 0.51024 0.0
C23 C 0.04039 0.00127 0.47282 0.0
C24 C 0.988 0.04921 0.46753 0.0
C25 C 0.98165 0.05906 0.50461 0.0
H26 H 0.06311 0.97852 0.46061 0.0
H27 H 0.96944 0.06422 0.45087 0.0
H28 H 0.08216 0.93643 0.39334 0.0
H29 H 0.97103 0.896 0.45327 0.0
H30 H 0.05321 0.15461 0.37848 0.0
H31 H 0.05432 0.99447 0.5258 0.0
H32 H 0.95867 0.08202 0.51606 0.0
C33 C 0.10225 0.03913 0.80459 0.0
C34 C 0.06314 0.0386 0.8294 0.0
N35 N 0.0558 0.06045 0.85811 0.0
N36 N 0.11956 0.06127 0.81741 0.0
C37 C 0.09069 0.07376 0.85007 0.0
H38 H 0.11731 0.02408 0.77898 0.0
Co39 Co 0.17256 0.06982 0.79371 0.0
C40 C 0.17249 0.14646 0.81062 0.0
O41 O 0.19422 0.15578 0.77328 0.0
N42 N 0.2275 0.07726 0.76928 0.0
C43 C 0.28754 0.09288 0.72875 0.0
C44 C 0.24776 0.09605 0.73355 0.0
C45 C 0.25608 0.0629 0.78516 0.0
N46 N 0.29251 0.07153 0.76115 0.0
O47 O 0.18266 0.03705 0.83695 0.0
H48 H 0.23474 0.11193 0.7123 0.0
H49 H 0.25065 0.04692 0.81436 0.0
O50 O 0.16184 0.11327 0.8223 0.0
C51 C 0.19038 0.0025 0.83072 0.0
O52 O 0.19403 0.99485 0.79568 0.0
N53 N 0.16008 0.0987 0.75121 0.0
C54 C 0.11789 0.11163 0.70009 0.0
C55 C 0.10743 0.13447 0.7302 0.0
C56 C 0.12893 0.12737 0.75588 0.0
C57 C 0.17262 0.07868 0.71975 0.0
C58 C 0.15215 0.08504 0.69342 0.0
H59 H 0.11678 0.14115 0.78242 0.0
H60 H 0.19554 0.05457 0.7179 0.0
H61 H 0.09527 0.09227 0.86754 0.0
H62 H 0.04218 0.02253 0.82687 0.0
H63 H 0.31093 0.10504 0.70345 0.0
H64 H 0.08031 0.15438 0.73666 0.0
H65 H 0.16028 0.06642 0.67084 0.0
C66 C 0.39841 0.08394 0.10069 0.0
C67 C 0.37368 0.0815 0.13988 0.0
N68 N 0.35282 0.05206 0.14767 0.0
N69 N 0.39323 0.05624 0.08382 0.0
C70 C 0.3652 0.03732 0.11306 0.0
H71 H 0.41912 0.10445 0.08538 0.0
Co72 Co 0.42231 0.04831 0.03169 0.0
C73 C 0.40741 0.97321 0.02419 0.0
O74 O 0.44546 0.96557 0.00311 0.0
N75 N 0.45184 0.04212 0.97821 0.0
C76 C 0.49535 0.04569 0.91588 0.0
C77 C 0.48962 0.04818 0.95491 0.0
C78 C 0.43537 0.03642 0.95261 0.0
N79 N 0.46118 0.03783 0.91494 0.0
O80 O 0.38245 0.0814 0.01602 0.0
H81 H 0.51132 0.05571 0.96478 0.0
H82 H 0.40423 0.03302 0.96119 0.0
O83 O 0.39433 0.00519 0.03754 0.0
C84 C 0.38942 0.11566 0.00481 0.0
O85 O 0.42455 0.12393 0.00046 0.0
N86 N 0.46141 0.01811 0.04943 0.0
C87 C 0.50551 0.99602 0.0991 0.0
C88 C 0.47722 0.97393 0.10098 0.0
C89 C 0.45486 0.98582 0.07625 0.0
C90 C 0.49056 0.03859 0.046 0.0
C91 C 0.51334 0.02779 0.0703 0.0
H92 H 0.42928 0.97159 0.08282 0.0
H93 H 0.49266 0.06607 0.02813 0.0
H94 H 0.3547 0.01272 0.10935 0.0
H95 H 0.37093 0.10031 0.16078 0.0
H96 H 0.52204 0.0502 0.89021 0.0
H97 H 0.46954 0.95013 0.12413 0.0
H98 H 0.53412 0.04616 0.0693 0.0
C99 C 0.12532 0.37627 0.08016 0.0
C100 C 0.1615 0.35433 0.07618 0.0
N101 N 0.16204 0.32241 0.06189 0.0
N102 N 0.10354 0.35839 0.06793 0.0
C103 C 0.12643 0.32547 0.05756 0.0
H104 H 0.11586 0.4039 0.09031 0.0
Co105 Co 0.05419 0.37679 0.06361 0.0
C106 C 0.05932 0.3489 0.99032 0.0
O107 O 0.04405 0.38237 0.97739 0.0
N108 N 0.00331 0.39472 0.06067 0.0
C109 C 0.94097 0.42337 0.07207 0.0
C110 C 0.97878 0.42741 0.06949 0.0
C111 C 0.97947 0.37146 0.05841 0.0
N112 N 0.94178 0.38814 0.06477 0.0
O113 O 0.03195 0.33721 0.10379 0.0
H114 H 0.98621 0.45166 0.07714 0.0
H115 H 0.98859 0.34149 0.056 0.0
O116 O 0.06475 0.34379 0.02351 0.0
C117 C 0.01925 0.3441 0.13958 0.0
O118 O 0.01939 0.37849 0.14635 0.0
N119 N 0.07792 0.41635 0.02554 0.0
C120 C 0.12916 0.47142 0.98839 0.0
C121 C 0.13664 0.43699 0.97318 0.0
C122 C 0.1107 0.40969 0.99228 0.0
C123 C 0.06984 0.45026 0.03982 0.0
C124 C 0.09436 0.47861 0.02103 0.0
H125 H 0.12007 0.3818 0.98301 0.0
H126 H 0.04761 0.4537 0.06873 0.0
H127 H 0.11776 0.30464 0.04575 0.0
H128 H 0.18557 0.36143 0.08303 0.0
H129 H 0.91447 0.44376 0.08119 0.0
H130 H 0.16404 0.42997 0.94895 0.0
H131 H 0.08869 0.50411 0.03485 0.0
C132 C 0.75852 0.13491 0.22014 0.0
C133 C 0.75595 0.17366 0.2099 0.0
N134 N 0.78426 0.18129 0.174 0.0
N135 N 0.78818 0.11822 0.19078 0.0
C136 C 0.80328 0.1471 0.16315 0.0
H137 H 0.7404 0.1198 0.24751 0.0
Co138 Co 0.80557 0.06663 0.1908 0.0
C139 C 0.81493 0.06414 0.10387 0.0
O140 O 0.78588 0.04484 0.10892 0.0
N141 N 0.82365 0.01449 0.19095 0.0
C142 C 0.83407 0.9538 0.18181 0.0
C143 C 0.81189 0.98832 0.17721 0.0
C144 C 0.85295 0.99506 0.20385 0.0
N145 N 0.86006 0.95814 0.19839 0.0
O146 O 0.85838 0.07528 0.18082 0.0
H147 H 0.78853 0.99373 0.16478 0.0
H148 H 0.86895 0.00776 0.21691 0.0
O149 O 0.82062 0.0719 0.13376 0.0
C150 C 0.87082 0.09323 0.19957 0.0
O151 O 0.84506 0.11103 0.22893 0.0
N152 N 0.7536 0.0578 0.20149 0.0
C153 C 0.67822 0.03879 0.21893 0.0
C154 C 0.69308 0.06751 0.18791 0.0
C155 C 0.73098 0.07675 0.17973 0.0
C156 C 0.73792 0.03264 0.23426 0.0
C157 C 0.70052 0.02183 0.24292 0.0
H158 H 0.74259 0.09852 0.15541 0.0
H159 H 0.75535 0.01955 0.25269 0.0
H160 H 0.82909 0.14304 0.13652 0.0
H161 H 0.73532 0.19452 0.22788 0.0
H162 H 0.83202 0.92778 0.17253 0.0
H163 H 0.67641 0.08133 0.1689 0.0
H164 H 0.68955 -9e-05 0.26741 0.0
C165 C 0.14726 0.72804 0.08235 0.0
C166 C 0.14718 0.75078 0.04765 0.0
N167 N 0.15956 0.78389 0.0469 0.0
N168 N 0.1601 0.74662 0.10301 0.0
C169 C 0.16686 0.78069 0.08094 0.0
H170 H 0.13912 0.69958 0.0917 0.0
Co171 Co 0.16727 0.72824 0.15106 0.0
C172 C 0.24146 0.75976 0.13941 0.0
O173 O 0.25934 0.72641 0.14902 0.0
N174 N 0.17349 0.70954 0.20105 0.0
C175 C 0.19556 0.68255 0.25063 0.0
C176 C 0.20214 0.68434 0.21068 0.0
C177 C 0.14926 0.72131 0.2362 0.0
N178 N 0.16191 0.70553 0.2664 0.0
O179 O 0.12611 0.76699 0.17413 0.0
H180 H 0.22719 0.66894 0.18999 0.0
H181 H 0.12359 0.74267 0.23996 0.0
O182 O 0.20607 0.76303 0.13924 0.0
C183 C 0.09071 0.75967 0.18318 0.0
O184 O 0.08555 0.72582 0.17924 0.0
N185 N 0.20569 0.68982 0.12613 0.0
C186 C 0.23862 0.63442 0.07538 0.0
C187 C 0.25238 0.66995 0.06456 0.0
C188 C 0.23546 0.6974 0.09042 0.0
C189 C 0.19415 0.65448 0.13826 0.0
C190 C 0.21084 0.62607 0.11362 0.0
H191 H 0.24281 0.72595 0.07944 0.0
H192 H 0.16912 0.64939 0.16548 0.0
H193 H 0.17783 0.80244 0.08922 0.0
H194 H 0.13862 0.74351 0.02484 0.0
H195 H 0.21437 0.66644 0.26657 0.0
H196 H 0.27323 0.67757 0.03498 0.0
H197 H 0.19871 0.59928 0.12268 0.0
H198 H -0.00321 0.3487 0.2189 0.0
H199 H 0.01366 0.12379 0.28153 0.0
H200 H 0.0213 0.26842 0.1364 0.0
H201 H 0.01162 0.20417 0.35594 0.0
H202 H 0.00476 0.17651 0.23168 0.0
H203 H 0.99025 0.29621 0.27273 0.0
C204 C 0.00035 0.32006 0.21213 0.0
C205 C 0.01007 0.31294 0.17296 0.0
C206 C 0.00605 0.18258 0.25903 0.0
C207 C 0.00281 0.2526 0.23457 0.0
C208 C 0.01096 0.15246 0.28763 0.0
C209 C 0.01409 0.15945 0.32279 0.0
C210 C 0.00392 0.22002 0.26575 0.0
C211 C 0.01031 0.19735 0.32896 0.0
C212 C -0.00328 0.29007 0.24292 0.0
C213 C 0.01408 0.27521 0.1661 0.0
N214 N 0.00564 0.22615 0.30066 0.0
N215 N 0.01076 0.2464 0.19657 0.0
H216 H 0.92862 0.04202 0.15643 0.0
H217 H 0.03535 0.95224 0.27036 0.0
H218 H 0.91049 0.12819 0.23093 0.0
H219 H 0.05996 0.062 0.27782 0.0
H220 H 0.00732 0.9815 0.21904 0.0
H221 H -0.00733 0.01807 0.16469 0.0
C222 C 0.93849 0.05651 0.17378 0.0
C223 C 0.91346 0.08614 0.19455 0.0
C224 C 0.02049 0.99905 0.23047 0.0
C225 C 0.98631 0.05878 0.20405 0.0
C226 C 0.03635 0.98226 0.2599 0.0
C227 C 0.04844 0.00517 0.27902 0.0
C228 C 0.01667 0.03885 0.2208 0.0
C229 C 0.04936 0.04381 0.26456 0.0
C230 C 0.97497 0.04263 0.17857 0.0
C231 C 0.92825 0.10446 0.21557 0.0
N232 N 0.03246 0.05973 0.2371 0.0
N233 N 0.9635 0.09002 0.22038 0.0
H234 H 0.1125 0.87622 0.40729 0.0
H235 H 0.08619 0.70649 0.31644 0.0
H236 H -0.00091 0.84208 0.42476 0.0
H237 H 0.2007 0.73481 0.30201 0.0
H238 H 0.05466 0.74535 0.37069 0.0
H239 H 0.14583 0.81604 0.38252 0.0
C240 C 0.09449 0.85602 0.40639 0.0
C241 C 0.0529 0.86497 0.41702 0.0
C242 C 0.08683 0.7424 0.35653 0.0
C243 C 0.09093 0.79576 0.38905 0.0
C244 C 0.10472 0.72 0.32584 0.0
C245 C 0.14584 0.71781 0.30495 0.0
C246 C 0.11021 0.76366 0.3655 0.0
C247 C 0.16884 0.73587 0.31771 0.0
C248 C 0.11358 0.82147 0.39251 0.0
C249 C 0.03115 0.83696 0.41653 0.0
N250 N 0.15059 0.75891 0.3466 0.0
N251 N 0.05047 0.804 0.40206 0.0
H252 H 0.34523 0.06316 0.22179 0.0
H253 H 0.13763 0.97862 0.3233 0.0
H254 H 0.29214 0.01233 0.15906 0.0
H255 H 0.18448 0.03901 0.38379 0.0
H256 H 0.1995 0.98118 0.26613 0.0
H257 H 0.29162 0.04618 0.28389 0.0
C258 C 0.32236 0.04843 0.22099 0.0
C259 C 0.323 0.03968 0.18492 0.0
C260 C 0.19647 0.9935 0.29207 0.0
C261 C 0.26169 0.01967 0.25617 0.0
C262 C 0.16111 0.99198 0.32482 0.0
C263 C 0.15549 0.00923 0.35818 0.0
C264 C 0.22648 0.0125 0.29256 0.0
C265 C 0.1873 0.02564 0.3586 0.0
C266 C 0.29188 0.03849 0.25657 0.0
C267 C 0.29304 0.01963 0.18602 0.0
N268 N 0.22124 0.02731 0.32605 0.0
N269 N 0.26345 0.01061 0.22099 0.0
H270 H 0.17807 0.78157 0.9683 0.0
H271 H 0.17407 0.00658 0.90976 0.0
H272 H 0.15555 0.85819 0.05379 0.0
H273 H 0.20774 0.92683 0.82493 0.0
H274 H 0.16865 0.95313 0.96309 0.0
H275 H 0.18915 0.83509 0.91548 0.0
C276 C 0.1752 0.8097 0.976 0.0
C277 C 0.16571 0.8154 0.01555 0.0
C278 C 0.17752 0.9474 0.93274 0.0
C279 C 0.17882 0.87694 0.95509 0.0
C280 C 0.18074 0.97788 0.9023 0.0
C281 C 0.19111 0.97114 0.86288 0.0
C282 C 0.18459 0.91006 0.9236 0.0
C283 C 0.19938 0.93341 0.8549 0.0
C284 C 0.18187 0.84026 0.94577 0.0
C285 C 0.16314 0.85245 0.02367 0.0
N286 N 0.19568 0.90436 0.88498 0.0
N287 N 0.1695 0.88186 0.99371 0.0
H288 H 0.47628 0.08614 0.84629 0.0
H289 H 0.31534 0.0036 0.79616 0.0
H290 H 0.42239 0.98518 0.90774 0.0
H291 H 0.351 0.1147 0.74694 0.0
H292 H 0.36937 0.9887 0.8227 0.0
H293 H 0.44544 0.08933 0.79611 0.0
C294 C 0.45892 0.06407 0.84841 0.0
C295 C 0.45129 0.03559 0.88112 0.0
C296 C 0.36587 0.01619 0.80564 0.0
C297 C 0.416 0.03904 0.82466 0.0
C298 C 0.33503 0.02465 0.79059 0.0
C299 C 0.32841 0.06063 0.77018 0.0
C300 C 0.38989 0.04418 0.80086 0.0
C301 C 0.35513 0.08673 0.76286 0.0
C302 C 0.44116 0.06599 0.82007 0.0
C303 C 0.42843 0.00776 0.88304 0.0
N304 N 0.38434 0.07829 0.77894 0.0
N305 N 0.41124 0.01039 0.85546 0.0
H306 H 0.17189 0.22308 0.7906 0.0
H307 H 0.07867 0.27335 0.01231 0.0
H308 H 0.13545 0.13717 0.89181 0.0
H309 H 0.07288 0.35426 0.91087 0.0
H310 H 0.10574 0.22323 0.9691 0.0
H311 H 0.14272 0.27191 0.83482 0.0
C312 C 0.15795 0.21443 0.82217 0.0
C313 C 0.15615 0.17595 0.83756 0.0
C314 C 0.0983 0.25193 0.95643 0.0
C315 C 0.12274 0.23182 0.88831 0.0
C316 C 0.08297 0.28055 0.98098 0.0
C317 C 0.07358 0.31804 0.9651 0.0
C318 C 0.10486 0.26101 0.91563 0.0
C319 C 0.0796 0.32574 0.92437 0.0
C320 C 0.14108 0.24237 0.84734 0.0
C321 C 0.13746 0.16651 0.87872 0.0
N322 N 0.09519 0.29752 0.90096 0.0
N323 N 0.12162 0.19429 0.90276 0.0
H324 H 0.82074 0.04336 0.03307 0.0
H325 H 0.04555 0.08699 0.92684 0.0
H326 H 0.88035 0.10052 0.08411 0.0
H327 H 0.98128 0.04838 0.86605 0.0
H328 H 0.98413 0.09441 0.98352 0.0
H329 H 0.87762 0.04751 0.9704 0.0
C330 C 0.84545 0.05724 0.03099 0.0
C331 C 0.84589 0.07121 0.0641 0.0
C332 C 0.98339 0.08453 0.95767 0.0
C333 C 0.91119 0.07566 0.9927 0.0
C334 C 0.01862 0.08038 0.92502 0.0
C335 C 0.01907 0.06669 0.89134 0.0
C336 C 0.94818 0.07466 0.95704 0.0
C337 C 0.98285 0.05827 0.89146 0.0
C338 C 0.87797 0.05952 0.99522 0.0
C339 C 0.87874 0.08901 0.05957 0.0
N340 N 0.949 0.0621 0.92388 0.0
N341 N 0.91017 0.09033 0.02475 0.0
H342 H 0.39388 0.19177 0.98552 0.0
H343 H 0.15715 0.24867 0.06098 0.0
H344 H 0.31013 0.10995 0.02418 0.0
H345 H 0.24124 0.32758 0.03686 0.0
H346 H 0.21277 0.19845 0.04041 0.0
H347 H 0.33829 0.24283 -0.00437 0.0
C348 C 0.36382 0.18452 -0.00435 0.0
C349 C 0.35662 0.1465 0.00446 0.0
C350 C 0.21905 0.22677 0.03955 0.0
C351 C 0.29278 0.20488 0.01651 0.0
C352 C 0.18732 0.25548 0.05119 0.0
C353 C 0.19455 0.29237 0.0508 0.0
C354 C 0.25836 0.235 0.02726 0.0
C355 C 0.23426 0.29945 0.03825 0.0
C356 C 0.33207 0.21372 0.0016 0.0
C357 C 0.31705 0.13886 0.01724 0.0
N358 N 0.26467 0.27103 0.02698 0.0
N359 N 0.28656 0.16781 0.02324 0.0
H360 H 0.42992 0.89821 0.01528 0.0
H361 H 0.21296 0.83492 0.12604 0.0
H362 H 0.32658 0.97831 0.06512 0.0
H363 H 0.32197 0.75902 0.11587 0.0
H364 H 0.25237 0.88808 0.09621 0.0
H365 H 0.38859 0.8469 0.0432 0.0
C366 C 0.39845 0.9051 0.03181 0.0
C367 C 0.38172 0.94261 0.03805 0.0
C368 C 0.26751 0.85977 0.10072 0.0
C369 C 0.33428 0.88387 0.07016 0.0
C370 C 0.24512 0.82945 0.11767 0.0
C371 C 0.26425 0.7925 0.12349 0.0
C372 C 0.30925 0.85287 0.08899 0.0
C373 C 0.30595 0.78702 0.11212 0.0
C374 C 0.37494 0.87572 0.04794 0.0
C375 C 0.34072 0.94975 0.05976 0.0
N376 N 0.32706 0.81684 0.09518 0.0
N377 N 0.31831 0.92058 0.07508 0.0
H378 H 0.76978 0.24682 0.20643 0.0
H379 H 0.93857 0.33673 0.02209 0.0
H380 H 0.8251 0.19985 0.09532 0.0
H381 H 0.87066 0.393 0.12539 0.0
H382 H 0.88966 0.2919 0.04376 0.0
H383 H 0.79813 0.3054 0.1737 0.0
C384 C 0.78726 0.24894 0.175 0.0
C385 C 0.79579 0.21787 0.15386 0.0
C386 C 0.88484 0.31451 0.06135 0.0
C387 C 0.8289 0.28491 0.11629 0.0
C388 C 0.91269 0.34007 0.04888 0.0
C389 C 0.90867 0.36818 0.07223 0.0
C390 C 0.85319 0.31664 0.0979 0.0
C391 C 0.8747 0.37167 0.1066 0.0
C392 C 0.80358 0.28249 0.15631 0.0
C393 C 0.81874 0.22254 0.11314 0.0
N394 N 0.84862 0.34562 0.11891 0.0
N395 N 0.83499 0.25516 0.09585 0.0
H396 H 0.09043 0.83576 0.18334 0.0
H397 H 0.85783 0.88245 0.2172 0.0
H398 H 0.01195 0.75116 0.20851 0.0
H399 H 0.93315 0.96902 0.19509 0.0
H400 H 0.91298 0.83399 0.22126 0.0
H401 H 0.03247 0.88497 0.19478 0.0
C402 C 0.061 0.82748 0.19176 0.0
C403 C 0.05606 0.78934 0.19454 0.0
C404 C 0.91748 0.86357 0.21584 0.0
C405 C 0.98981 0.84537 0.20739 0.0
C406 C 0.88599 0.89124 0.21337 0.0
C407 C 0.89105 0.92978 0.20528 0.0
C408 C 0.95459 0.87441 0.2098 0.0
C409 C 0.92796 0.93963 0.2014 0.0
C410 C 0.02795 0.85557 0.19819 0.0
C411 C 0.01726 0.78021 0.2056 0.0
N412 N 0.95852 0.91209 0.20321 0.0
N413 N 0.98576 0.80802 0.21127 0.0
H414 H 0.07202 0.0558 0.72142 0.0
H415 H 0.00569 0.11422 0.53234 0.0
H416 H 0.09786 0.15855 0.6403 0.0
H417 H 0.00921 0.00128 0.59646 0.0
H418 H 0.02054 0.13759 0.5831 0.0
H419 H 0.03055 0.04291 0.68718 0.0
C420 C 0.06829 0.0759 0.69664 0.0
C421 C 0.08852 0.1079 0.68299 0.0
C422 C 0.01726 0.10786 0.58645 0.0
C423 C 0.04175 0.09335 0.64367 0.0
C424 C 0.00847 0.09454 0.55772 0.0
C425 C 0.00673 0.05567 0.5601 0.0
C426 C 0.02423 0.08211 0.61768 0.0
C427 C 0.01097 0.03134 0.5933 0.0
C428 C 0.04474 0.06858 0.67717 0.0
C429 C 0.0828 0.13343 0.65122 0.0
N430 N 0.02 0.04491 0.62062 0.0
N431 N 0.06024 0.12532 0.63211 0.0
H432 H 0.67073 0.966 0.21705 0.0
H433 H 0.47813 0.03827 0.15915 0.0
H434 H 0.60466 0.07799 0.22711 0.0
H435 H 0.56542 0.94438 0.11335 0.0
H436 H 0.50955 0.0397 0.20731 0.0
H437 H 0.61749 0.94546 0.20307 0.0
C438 C 0.64427 0.98582 0.21776 0.0
C439 C 0.64206 0.02384 0.2225 0.0
C440 C 0.52134 0.01824 0.18736 0.0
C441 C 0.5818 0.00083 0.20629 0.0
C442 C 0.50355 0.01748 0.15996 0.0
C443 C 0.52001 0.99167 0.13214 0.0
C444 C 0.55606 0.99328 0.18639 0.0
C445 C 0.55247 0.96495 0.13424 0.0
C446 C 0.61413 0.97418 0.20955 0.0
C447 C 0.60749 0.04858 0.22297 0.0
N448 N 0.57005 0.96686 0.16057 0.0
N449 N 0.57889 0.03679 0.21428 0.0
H450 H 0.26066 0.55746 0.07826 0.0
H451 H 0.12556 0.54814 0.96579 0.0
H452 H 0.22822 0.65596 0.00432 0.0
H453 H 0.20409 0.44936 0.98957 0.0
H454 H 0.17032 0.58855 0.96994 0.0
H455 H 0.24947 0.51685 0.03795 0.0
C456 C 0.25253 0.57043 0.05268 0.0
C457 C 0.24493 0.61 0.04482 0.0
C458 C 0.17856 0.55806 0.97289 0.0
C459 C 0.23084 0.56404 -0.00052 0.0
C460 C 0.15302 0.53508 0.97043 0.0
C461 C 0.16111 0.49553 0.97764 0.0
C462 C 0.21155 0.54122 0.98396 0.0
C463 C 0.1969 0.47983 0.9838 0.0
C464 C 0.24612 0.54732 0.02965 0.0
C465 C 0.23439 0.62552 0.01137 0.0
N466 N 0.22027 0.50272 0.988 0.0
N467 N 0.22653 0.60252 0.99059 0.0
loop_
_geom_bond_atom_site_label_1
_geom_bond_atom_site_label_2
_geom_bond_distance
_geom_bond_site_symmetry_2
_ccdc_geom_bond_type
C0 C1 1.351 . S
C0 N3 1.368 . S
C0 H5 0.931 1_455 S
C1 C0 1.351 . S
C1 N2 1.373 . S
C1 H29 0.930 1_455 S
N2 C1 1.373 . S
N2 C4 1.340 . S
N3 C0 1.368 . S
N3 C4 1.321 . S
N3 Co6 2.135 1_565 S
C4 N2 1.340 . S
C4 N3 1.321 . S
C4 H28 0.930 . S
H5 C0 0.931 1_655 S
Co6 N3 2.135 1_545 S
Co6 N9 2.121 . S
Co6 O14 2.055 1_455 S
Co6 O17 2.039 . S
Co6 N20 2.140 . S
C7 O8 1.227 1_545 S
C7 O17 1.265 . S
O8 C7 1.227 1_565 S
N9 Co6 2.121 . S
N9 C11 1.375 . S
N9 C12 1.313 . S
C10 C11 1.338 . S
C10 N13 1.377 . S
C10 H30 0.930 . S
C11 N9 1.375 . S
C11 C10 1.338 . S
C11 H15 0.931 . S
C12 N9 1.313 . S
C12 N13 1.344 . S
C12 H16 0.930 1_455 S
N13 C10 1.377 . S
N13 C12 1.344 . S
O14 Co6 2.055 1_655 S
O14 C18 1.253 . S
H15 C11 0.931 . S
H16 C12 0.930 1_655 S
O17 Co6 2.039 . S
O17 C7 1.265 . S
C18 O14 1.253 . S
C18 O19 1.227 . S
O19 C18 1.227 . S
N20 Co6 2.140 . S
N20 C23 1.346 1_545 S
N20 C24 1.345 . S
C21 C22 1.387 1_545 S
C21 C25 1.391 . S
C22 C21 1.387 1_565 S
C22 C23 1.369 . S
C22 H31 0.929 . S
C23 N20 1.346 1_565 S
C23 C22 1.369 . S
C23 H26 0.928 . S
C24 N20 1.345 . S
C24 C25 1.371 . S
C24 H27 0.931 . S
C25 C21 1.391 . S
C25 C24 1.371 . S
C25 H32 0.930 . S
H26 C23 0.928 . S
H27 C24 0.931 . S
H28 C4 0.930 . S
H29 C1 0.930 1_655 S
H30 C10 0.930 . S
H31 C22 0.929 . S
H32 C25 0.930 . S
C33 C34 1.351 . S
C33 N36 1.368 . S
C33 H38 0.931 . S
C34 C33 1.351 . S
C34 N35 1.373 . S
C34 H62 0.930 . S
N35 C34 1.373 . S
N35 C37 1.340 . S
N36 C33 1.368 . S
N36 C37 1.321 . S
N36 Co39 2.135 . S
C37 N35 1.340 . S
C37 N36 1.321 . S
C37 H61 0.930 . S
H38 C33 0.931 . S
Co39 N36 2.135 . S
Co39 N42 2.121 . S
Co39 O47 2.055 . S
Co39 O50 2.039 . S
Co39 N53 2.140 . S
C40 O41 1.227 . S
C40 O50 1.265 . S
O41 C40 1.227 . S
N42 Co39 2.121 . S
N42 C44 1.375 . S
N42 C45 1.313 . S
C43 C44 1.338 . S
C43 N46 1.377 . S
C43 H63 0.930 . S
C44 N42 1.375 . S
C44 C43 1.338 . S
C44 H48 0.931 . S
C45 N42 1.313 . S
C45 N46 1.344 . S
C45 H49 0.930 . S
N46 C43 1.377 . S
N46 C45 1.344 . S
O47 Co39 2.055 . S
O47 C51 1.253 . S
H48 C44 0.931 . S
H49 C45 0.930 . S
O50 Co39 2.039 . S
O50 C40 1.265 . S
C51 O47 1.253 . S
C51 O52 1.227 . S
O52 C51 1.227 . S
N53 Co39 2.140 . S
N53 C56 1.346 . S
N53 C57 1.345 . S
C54 C55 1.387 . S
C54 C58 1.391 . S
C55 C54 1.387 . S
C55 C56 1.369 . S
C55 H64 0.929 . S
C56 N53 1.346 . S
C56 C55 1.369 . S
C56 H59 0.928 . S
C57 N53 1.345 . S
C57 C58 1.371 . S
C57 H60 0.931 . S
C58 C54 1.391 . S
C58 C57 1.371 . S
C58 H65 0.930 . S
H59 C56 0.928 . S
H60 C57 0.931 . S
H61 C37 0.930 . S
H62 C34 0.930 . S
H63 C43 0.930 . S
H64 C55 0.929 . S
H65 C58 0.930 . S
C66 C67 1.351 . S
C66 N69 1.368 . S
C66 H71 0.931 . S
C67 C66 1.351 . S
C67 N68 1.373 . S
C67 H95 0.930 . S
N68 C67 1.373 . S
N68 C70 1.340 . S
N69 C66 1.368 . S
N69 C70 1.321 . S
N69 Co72 2.135 . S
C70 N68 1.340 . S
C70 N69 1.321 . S
C70 H94 0.930 1_545 S
H71 C66 0.931 . S
Co72 N69 2.135 . S
Co72 N75 2.121 1_554 S
Co72 O80 2.055 . S
Co72 O83 2.039 1_545 S
Co72 N86 2.140 . S
C73 O74 1.227 . S
C73 O83 1.265 . S
O74 C73 1.227 . S
N75 Co72 2.121 1_556 S
N75 C77 1.375 1_545 S
N75 C78 1.313 . S
C76 C77 1.338 . S
C76 N79 1.377 1_565 S
C76 H96 0.930 . S
C77 N75 1.375 1_565 S
C77 C76 1.338 . S
C77 H81 0.931 . S
C78 N75 1.313 . S
C78 N79 1.344 . S
C78 H82 0.930 . S
N79 C76 1.377 1_545 S
N79 C78 1.344 . S
O80 Co72 2.055 . S
O80 C84 1.253 . S
H81 C77 0.931 . S
H82 C78 0.930 . S
O83 Co72 2.039 1_565 S
O83 C73 1.265 . S
C84 O80 1.253 . S
C84 O85 1.227 . S
O85 C84 1.227 . S
N86 Co72 2.140 . S
N86 C89 1.346 . S
N86 C90 1.351 . S
C87 C88 1.387 . S
C87 C91 1.391 . S
C88 C87 1.387 . S
C88 C89 1.369 . S
C88 H97 0.929 1_545 S
C89 N86 1.346 . S
C89 C88 1.369 . S
C89 H92 0.928 1_545 S
C90 N86 1.351 . S
C90 C91 1.376 . S
C90 H93 0.919 1_554 S
C91 C87 1.391 . S
C91 C90 1.376 . S
C91 H98 0.930 1_554 S
H92 C89 0.928 1_565 S
H93 C90 0.919 1_556 S
H94 C70 0.930 1_565 S
H95 C67 0.930 . S
H96 C76 0.930 . S
H97 C88 0.929 1_565 S
H98 C91 0.930 1_556 S
C99 C100 1.351 . S
C99 N102 1.368 . S
C99 H104 0.931 . S
C100 C99 1.351 . S
C100 N101 1.373 . S
C100 H128 0.930 . S
N101 C100 1.373 . S
N101 C103 1.340 . S
N102 C99 1.368 . S
N102 C103 1.321 . S
N102 Co105 2.135 . S
C103 N101 1.340 . S
C103 N102 1.321 . S
C103 H127 0.930 1_554 S
H104 C99 0.931 . S
Co105 N102 2.135 . S
Co105 N108 2.121 . S
Co105 O113 2.055 . S
Co105 O116 2.039 . S
Co105 N119 2.140 . S
C106 O107 1.227 . S
C106 O116 1.265 1_556 S
O107 C106 1.227 . S
N108 Co105 2.121 . S
N108 C110 1.375 1_455 S
N108 C111 1.313 1_455 S
C109 C110 1.338 . S
C109 N112 1.377 . S
C109 H129 0.930 . S
C110 N108 1.375 1_655 S
C110 C109 1.338 . S
C110 H114 0.931 1_655 S
C111 N108 1.313 1_655 S
C111 N112 1.344 . S
C111 H115 0.930 . S
N112 C109 1.377 . S
N112 C111 1.344 . S
O113 Co105 2.055 . S
O113 C117 1.253 . S
H114 C110 0.931 1_455 S
H115 C111 0.930 . S
O116 Co105 2.039 . S
O116 C106 1.265 1_554 S
C117 O113 1.253 . S
C117 O118 1.227 . S
O118 C117 1.227 . S
N119 Co105 2.140 . S
N119 C122 1.346 . S
N119 C123 1.345 . S
C120 C121 1.387 . S
C120 C124 1.391 . S
C121 C120 1.387 . S
C121 C122 1.369 . S
C121 H130 0.929 . S
C122 N119 1.346 . S
C122 C121 1.369 . S
C122 H125 0.928 . S
C123 N119 1.345 . S
C123 C124 1.371 . S
C123 H126 0.931 . S
C124 C120 1.391 . S
C124 C123 1.371 . S
C124 H131 0.930 . S
H125 C122 0.928 . S
H126 C123 0.931 . S
H127 C103 0.930 1_556 S
H128 C100 0.930 . S
H129 C109 0.930 . S
H130 C121 0.929 . S
H131 C124 0.930 . S
C132 C133 1.351 . S
C132 N135 1.368 . S
C132 H137 0.931 . S
C133 C132 1.351 . S
C133 N134 1.373 . S
C133 H161 0.930 . S
N134 C133 1.373 . S
N134 C136 1.340 . S
N135 C132 1.368 . S
N135 C136 1.321 . S
N135 Co138 2.135 . S
C136 N134 1.340 . S
C136 N135 1.321 . S
C136 H160 0.930 . S
H137 C132 0.931 . S
Co138 N135 2.135 . S
Co138 N141 2.121 . S
Co138 O146 2.055 . S
Co138 O149 2.039 . S
Co138 N152 2.140 . S
C139 O140 1.227 . S
C139 O149 1.265 . S
O140 C139 1.227 . S
N141 Co138 2.121 . S
N141 C143 1.375 . S
N141 C144 1.297 1_545 S
C142 C143 1.338 1_565 S
C142 N145 1.377 . S
C142 H162 0.930 . S
C143 N141 1.375 . S
C143 C142 1.338 1_545 S
C143 H147 0.931 . S
C144 N141 1.297 1_565 S
C144 N145 1.369 . S
C144 H148 0.923 1_565 S
N145 C142 1.377 . S
N145 C144 1.369 . S
O146 Co138 2.055 . S
O146 C150 1.253 . S
H147 C143 0.931 . S
H148 C144 0.923 1_545 S
O149 Co138 2.039 . S
O149 C139 1.265 . S
C150 O146 1.253 . S
C150 O151 1.227 . S
O151 C150 1.227 . S
N152 Co138 2.140 . S
N152 C155 1.346 . S
N152 C156 1.345 . S
C153 C154 1.387 . S
C153 C157 1.391 . S
C154 C153 1.387 . S
C154 C155 1.369 . S
C154 H163 0.929 . S
C155 N152 1.346 . S
C155 C154 1.369 . S
C155 H158 0.928 . S
C156 N152 1.345 . S
C156 C157 1.371 . S
C156 H159 0.931 . S
C157 C153 1.391 . S
C157 C156 1.371 . S
C157 H164 0.930 . S
H158 C155 0.928 . S
H159 C156 0.931 . S
H160 C136 0.930 . S
H161 C133 0.930 . S
H162 C142 0.930 . S
H163 C154 0.929 . S
H164 C157 0.930 . S
C165 C166 1.351 . S
C165 N168 1.368 . S
C165 H170 0.931 . S
C166 C165 1.351 . S
C166 N167 1.373 . S
C166 H194 0.930 . S
N167 C166 1.373 . S
N167 C169 1.340 . S
N168 C165 1.368 . S
N168 C169 1.321 . S
N168 Co171 2.135 . S
C169 N167 1.340 . S
C169 N168 1.321 . S
C169 H193 0.930 . S
H170 C165 0.931 . S
Co171 N168 2.135 . S
Co171 N174 2.121 . S
Co171 O179 2.055 . S
Co171 O182 2.039 . S
Co171 N185 2.140 . S
C172 O173 1.227 . S
C172 O182 1.265 . S
O173 C172 1.227 . S
N174 Co171 2.121 . S
N174 C176 1.375 . S
N174 C177 1.313 . S
C175 C176 1.338 . S
C175 N178 1.377 . S
C175 H195 0.930 . S
C176 N174 1.375 . S
C176 C175 1.338 . S
C176 H180 0.931 . S
C177 N174 1.313 . S
C177 N178 1.344 . S
C177 H181 0.930 . S
N178 C175 1.377 . S
N178 C177 1.344 . S
O179 Co171 2.055 . S
O179 C183 1.253 . S
H180 C176 0.931 . S
H181 C177 0.930 . S
O182 Co171 2.039 . S
O182 C172 1.265 . S
C183 O179 1.253 . S
C183 O184 1.227 . S
O184 C183 1.227 . S
N185 Co171 2.140 . S
N185 C188 1.346 . S
N185 C189 1.345 . S
C186 C187 1.387 . S
C186 C190 1.391 . S
C187 C186 1.387 . S
C187 C188 1.369 . S
C187 H196 0.929 . S
C188 N185 1.346 . S
C188 C187 1.369 . S
C188 H191 0.928 . S
C189 N185 1.345 . S
C189 C190 1.371 . S
C189 H192 0.931 . S
C190 C186 1.391 . S
C190 C189 1.371 . S
C190 H197 0.930 . S
H191 C188 0.928 . S
H192 C189 0.931 . S
H193 C169 0.930 . S
H194 C166 0.930 . S
H195 C175 0.930 . S
H196 C187 0.929 . S
H197 C190 0.930 . S
H198 C204 0.930 . S
H199 C208 0.930 . S
H200 C213 0.929 . S
H201 C211 0.929 . S
H202 C206 0.929 . S
H203 C212 0.929 1_655 S
C204 H198 0.930 . S
C204 C205 1.367 . S
C204 C212 1.378 . S
C205 C204 1.367 . S
C205 C213 1.433 . S
C206 H202 0.929 . S
C206 C208 1.378 . S
C206 C210 1.350 . S
C207 C210 1.463 . S
C207 C212 1.350 . S
C207 N215 1.427 . S
C208 H199 0.930 . S
C208 C206 1.378 . S
C208 C209 1.367 . S
C209 C208 1.367 . S
C209 C211 1.434 1_455 S
C210 C206 1.350 . S
C210 C207 1.463 . S
C210 N214 1.427 . S
C211 H201 0.929 . S
C211 C209 1.434 1_655 S
C211 N214 1.383 1_655 S
C212 H203 0.929 1_455 S
C212 C204 1.378 . S
C212 C207 1.350 . S
C213 H200 0.929 . S
C213 C205 1.433 . S
C213 N215 1.384 . S
N214 C210 1.427 . S
N214 C211 1.383 1_455 S
N215 C207 1.427 . S
N215 C213 1.384 . S
H216 C222 0.930 . S
H217 C226 0.930 . S
H218 C231 0.929 . S
H219 C229 0.929 . S
H220 C224 0.929 . S
H221 C230 0.929 . S
C222 H216 0.930 . S
C222 C223 1.367 . S
C222 C230 1.378 . S
C223 C222 1.367 . S
C223 C231 1.433 . S
C224 H220 0.929 . S
C224 C226 1.378 . S
C224 C228 1.350 . S
C225 C228 1.463 . S
C225 C230 1.350 . S
C225 N233 1.427 . S
C226 H217 0.930 . S
C226 C224 1.378 . S
C226 C227 1.367 . S
C227 C226 1.367 . S
C227 C229 1.433 . S
C228 C224 1.350 . S
C228 C225 1.463 . S
C228 N232 1.427 . S
C229 H219 0.929 . S
C229 C227 1.433 . S
C229 N232 1.384 . S
C230 H221 0.929 . S
C230 C222 1.378 . S
C230 C225 1.350 . S
C231 H218 0.929 . S
C231 C223 1.433 . S
C231 N233 1.384 . S
N232 C228 1.427 . S
N232 C229 1.384 . S
N233 C225 1.427 . S
N233 C231 1.384 . S
H234 C240 0.930 . S
H235 C244 0.930 . S
H236 C249 0.929 . S
H237 C247 0.929 . S
H238 C242 0.929 . S
H239 C248 0.929 . S
C240 H234 0.930 . S
C240 C241 1.367 . S
C240 C248 1.378 . S
C241 C240 1.367 . S
C241 C249 1.433 . S
C242 H238 0.929 . S
C242 C244 1.378 . S
C242 C246 1.350 . S
C243 C246 1.463 . S
C243 C248 1.350 . S
C243 N251 1.427 . S
C244 H235 0.930 . S
C244 C242 1.378 . S
C244 C245 1.367 . S
C245 C244 1.367 . S
C245 C247 1.433 . S
C246 C242 1.350 . S
C246 C243 1.463 . S
C246 N250 1.427 . S
C247 H237 0.929 . S
C247 C245 1.433 . S
C247 N250 1.384 . S
C248 H239 0.929 . S
C248 C240 1.378 . S
C248 C243 1.350 . S
C249 H236 0.929 . S
C249 C241 1.433 . S
C249 N251 1.384 . S
N250 C246 1.427 . S
N250 C247 1.384 . S
N251 C243 1.427 . S
N251 C249 1.384 . S
H252 C258 0.930 . S
H253 C262 0.930 . S
H254 C267 0.929 . S
H255 C265 0.929 . S
H256 C260 0.929 . S
H257 C266 0.929 . S
C258 H252 0.930 . S
C258 C259 1.367 . S
C258 C266 1.378 . S
C259 C258 1.367 . S
C259 C267 1.433 1_545 S
C260 H256 0.929 . S
C260 C262 1.378 . S
C260 C264 1.350 1_565 S
C261 C264 1.463 . S
C261 C266 1.350 . S
C261 N269 1.427 1_545 S
C262 H253 0.930 . S
C262 C260 1.378 . S
C262 C263 1.367 1_565 S
C263 C262 1.367 1_545 S
C263 C265 1.433 . S
C264 C260 1.350 1_545 S
C264 C261 1.463 . S
C264 N268 1.427 . S
C265 H255 0.929 . S
C265 C263 1.433 . S
C265 N268 1.384 . S
C266 H257 0.929 . S
C266 C258 1.378 . S
C266 C261 1.350 . S
C267 H254 0.929 . S
C267 C259 1.433 1_565 S
C267 N269 1.384 . S
N268 C264 1.427 . S
N268 C265 1.384 . S
N269 C261 1.427 1_565 S
N269 C267 1.384 . S
H270 C276 0.930 . S
H271 C280 0.930 . S
H272 C285 0.929 . S
H273 C283 0.929 . S
H274 C278 0.929 . S
H275 C284 0.929 . S
C276 H270 0.930 . S
C276 C277 1.367 . S
C276 C284 1.378 . S
C277 C276 1.367 . S
C277 C285 1.433 1_556 S
C278 H274 0.929 . S
C278 C280 1.378 . S
C278 C282 1.350 . S
C279 C282 1.463 . S
C279 C284 1.350 . S
C279 N287 1.427 . S
C280 H271 0.930 . S
C280 C278 1.378 . S
C280 C281 1.367 . S
C281 C280 1.367 . S
C281 C283 1.433 . S
C282 C278 1.350 . S
C282 C279 1.463 . S
C282 N286 1.427 . S
C283 H273 0.929 . S
C283 C281 1.433 . S
C283 N286 1.384 . S
C284 H275 0.929 . S
C284 C276 1.378 . S
C284 C279 1.350 . S
C285 H272 0.929 . S
C285 C277 1.433 1_554 S
C285 N287 1.384 1_554 S
N286 C282 1.427 . S
N286 C283 1.384 . S
N287 C279 1.427 . S
N287 C285 1.384 1_556 S
H288 C294 0.930 . S
H289 C298 0.930 . S
H290 C303 0.929 1_565 S
H291 C301 0.929 . S
H292 C296 0.929 1_565 S
H293 C302 0.929 . S
C294 H288 0.930 . S
C294 C295 1.367 . S
C294 C302 1.378 . S
C295 C294 1.367 . S
C295 C303 1.433 . S
C296 H292 0.929 1_545 S
C296 C298 1.378 . S
C296 C300 1.350 . S
C297 C300 1.463 . S
C297 C302 1.350 . S
C297 N305 1.427 . S
C298 H289 0.930 . S
C298 C296 1.378 . S
C298 C299 1.367 . S
C299 C298 1.367 . S
C299 C301 1.433 . S
C300 C296 1.350 . S
C300 C297 1.463 . S
C300 N304 1.427 . S
C301 H291 0.929 . S
C301 C299 1.433 . S
C301 N304 1.384 . S
C302 H293 0.929 . S
C302 C294 1.378 . S
C302 C297 1.350 . S
C303 H290 0.929 1_545 S
C303 C295 1.433 . S
C303 N305 1.384 . S
N304 C300 1.427 . S
N304 C301 1.384 . S
N305 C297 1.427 . S
N305 C303 1.384 . S
H306 C312 0.930 . S
H307 C316 0.930 . S
H308 C321 0.929 . S
H309 C319 0.929 . S
H310 C314 0.929 . S
H311 C320 0.929 . S
C312 H306 0.930 . S
C312 C313 1.367 . S
C312 C320 1.378 . S
C313 C312 1.367 . S
C313 C321 1.433 . S
C314 H310 0.929 . S
C314 C316 1.378 . S
C314 C318 1.350 . S
C315 C318 1.463 . S
C315 C320 1.350 . S
C315 N323 1.427 . S
C316 H307 0.930 . S
C316 C314 1.378 . S
C316 C317 1.367 . S
C317 C316 1.367 . S
C317 C319 1.433 . S
C318 C314 1.350 . S
C318 C315 1.463 . S
C318 N322 1.427 . S
C319 H309 0.929 . S
C319 C317 1.433 . S
C319 N322 1.384 . S
C320 H311 0.929 . S
C320 C312 1.378 . S
C320 C315 1.350 . S
C321 H308 0.929 . S
C321 C313 1.433 . S
C321 N323 1.384 . S
N322 C318 1.427 . S
N322 C319 1.384 . S
N323 C315 1.427 . S
N323 C321 1.384 . S
H324 C330 0.930 . S
H325 C334 0.930 . S
H326 C339 0.929 . S
H327 C337 0.920 1_655 S
H328 C332 0.929 . S
H329 C338 0.929 . S
C330 H324 0.930 . S
C330 C331 1.367 . S
C330 C338 1.378 1_554 S
C331 C330 1.367 . S
C331 C339 1.433 . S
C332 H328 0.929 . S
C332 C334 1.378 . S
C332 C336 1.350 1_455 S
C333 C336 1.463 . S
C333 C338 1.350 . S
C333 N341 1.427 1_556 S
C334 H325 0.930 . S
C334 C332 1.378 . S
C334 C335 1.367 . S
C335 C334 1.367 . S
C335 C337 1.433 . S
C336 C332 1.350 1_655 S
C336 C333 1.463 . S
C336 N340 1.427 . S
C337 H327 0.920 1_455 S
C337 C335 1.433 . S
C337 N340 1.384 1_455 S
C338 H329 0.929 . S
C338 C330 1.378 1_556 S
C338 C333 1.350 . S
C339 H326 0.929 . S
C339 C331 1.433 . S
C339 N341 1.384 . S
N340 C336 1.427 . S
N340 C337 1.384 1_655 S
N341 C333 1.427 1_554 S
N341 C339 1.384 . S
H342 C348 0.930 . S
H343 C352 0.930 . S
H344 C357 0.929 . S
H345 C355 0.929 . S
H346 C350 0.929 . S
H347 C356 0.929 . S
C348 H342 0.930 . S
C348 C349 1.367 . S
C348 C356 1.378 . S
C349 C348 1.367 . S
C349 C357 1.433 1_554 S
C350 H346 0.929 . S
C350 C352 1.378 . S
C350 C354 1.350 1_556 S
C351 C354 1.463 . S
C351 C356 1.350 . S
C351 N359 1.427 1_554 S
C352 H343 0.930 . S
C352 C350 1.378 . S
C352 C353 1.367 1_556 S
C353 C352 1.367 1_554 S
C353 C355 1.433 . S
C354 C350 1.350 1_554 S
C354 C351 1.463 . S
C354 N358 1.427 . S
C355 H345 0.929 . S
C355 C353 1.433 . S
C355 N358 1.384 . S
C356 H347 0.929 . S
C356 C348 1.378 . S
C356 C351 1.350 . S
C357 H344 0.929 . S
C357 C349 1.433 1_556 S
C357 N359 1.384 . S
N358 C354 1.427 . S
N358 C355 1.384 . S
N359 C351 1.427 1_556 S
N359 C357 1.384 . S
H360 C366 0.930 . S
H361 C370 0.930 . S
H362 C375 0.929 . S
H363 C373 0.929 . S
H364 C368 0.929 . S
H365 C374 0.929 . S
C366 H360 0.930 . S
C366 C367 1.367 . S
C366 C374 1.378 . S
C367 C366 1.367 . S
C367 C375 1.433 . S
C368 H364 0.929 . S
C368 C370 1.378 . S
C368 C372 1.350 . S
C369 C372 1.463 . S
C369 C374 1.350 . S
C369 N377 1.427 . S
C370 H361 0.930 . S
C370 C368 1.378 . S
C370 C371 1.367 . S
C371 C370 1.367 . S
C371 C373 1.433 . S
C372 C368 1.350 . S
C372 C369 1.463 . S
C372 N376 1.427 . S
C373 H363 0.929 . S
C373 C371 1.433 . S
C373 N376 1.384 . S
C374 H365 0.929 . S
C374 C366 1.378 . S
C374 C369 1.350 . S
C375 H362 0.929 . S
C375 C367 1.433 . S
C375 N377 1.384 . S
N376 C372 1.427 . S
N376 C373 1.384 . S
N377 C369 1.427 . S
N377 C375 1.384 . S
H378 C384 0.930 . S
H379 C388 0.930 . S
H380 C393 0.929 . S
H381 C391 0.929 . S
H382 C386 0.929 . S
H383 C392 0.929 . S
C384 H378 0.930 . S
C384 C385 1.367 . S
C384 C392 1.378 . S
C385 C384 1.367 . S
C385 C393 1.433 . S
C386 H382 0.929 . S
C386 C388 1.378 . S
C386 C390 1.350 . S
C387 C390 1.463 . S
C387 C392 1.350 . S
C387 N395 1.427 . S
C388 H379 0.930 . S
C388 C386 1.378 . S
C388 C389 1.367 . S
C389 C388 1.367 . S
C389 C391 1.433 . S
C390 C386 1.350 . S
C390 C387 1.463 . S
C390 N394 1.427 . S
C391 H381 0.929 . S
C391 C389 1.433 . S
C391 N394 1.384 . S
C392 H383 0.929 . S
C392 C384 1.378 . S
C392 C387 1.350 . S
C393 H380 0.929 . S
C393 C385 1.433 . S
C393 N395 1.384 . S
N394 C390 1.427 . S
N394 C391 1.384 . S
N395 C387 1.427 . S
N395 C393 1.384 . S
H396 C402 0.930 . S
H397 C406 0.930 . S
H398 C411 0.929 . S
H399 C409 0.929 . S
H400 C404 0.929 . S
H401 C410 0.929 1_655 S
C402 H396 0.930 . S
C402 C403 1.367 . S
C402 C410 1.378 . S
C403 C402 1.367 . S
C403 C411 1.433 . S
C404 H400 0.929 . S
C404 C406 1.378 . S
C404 C408 1.350 . S
C405 C408 1.463 . S
C405 C410 1.350 1_655 S
C405 N413 1.427 . S
C406 H397 0.930 . S
C406 C404 1.378 . S
C406 C407 1.367 . S
C407 C406 1.367 . S
C407 C409 1.433 . S
C408 C404 1.350 . S
C408 C405 1.463 . S
C408 N412 1.427 . S
C409 H399 0.929 . S
C409 C407 1.433 . S
C409 N412 1.384 . S
C410 H401 0.929 1_455 S
C410 C402 1.378 . S
C410 C405 1.350 1_455 S
C411 H398 0.929 . S
C411 C403 1.433 . S
C411 N413 1.384 1_455 S
N412 C408 1.427 . S
N412 C409 1.384 . S
N413 C405 1.427 . S
N413 C411 1.384 1_655 S
H414 C420 0.930 . S
H415 C424 0.930 . S
H416 C429 0.929 . S
H417 C427 0.929 1_565 S
H418 C422 0.929 . S
H419 C428 0.929 . S
C420 H414 0.930 . S
C420 C421 1.367 . S
C420 C428 1.378 . S
C421 C420 1.367 . S
C421 C429 1.433 . S
C422 H418 0.929 . S
C422 C424 1.378 . S
C422 C426 1.350 . S
C423 C426 1.463 . S
C423 C428 1.350 . S
C423 N431 1.427 . S
C424 H415 0.930 . S
C424 C422 1.378 . S
C424 C425 1.367 . S
C425 C424 1.367 . S
C425 C427 1.433 . S
C426 C422 1.350 . S
C426 C423 1.463 . S
C426 N430 1.427 . S
C427 H417 0.929 1_545 S
C427 C425 1.433 . S
C427 N430 1.384 . S
C428 H419 0.929 . S
C428 C420 1.378 . S
C428 C423 1.350 . S
C429 H416 0.929 . S
C429 C421 1.433 . S
C429 N431 1.384 . S
N430 C426 1.427 . S
N430 C427 1.384 . S
N431 C423 1.427 . S
N431 C429 1.384 . S
H432 C438 0.930 . S
H433 C442 0.930 . S
H434 C447 0.929 . S
H435 C445 0.929 . S
H436 C440 0.929 . S
H437 C446 0.929 . S
C438 H432 0.930 . S
C438 C439 1.367 . S
C438 C446 1.378 . S
C439 C438 1.367 . S
C439 C447 1.433 . S
C440 H436 0.929 . S
C440 C442 1.378 . S
C440 C444 1.350 . S
C441 C444 1.463 . S
C441 C446 1.350 . S
C441 N449 1.427 . S
C442 H433 0.930 . S
C442 C440 1.378 . S
C442 C443 1.367 . S
C443 C442 1.367 . S
C443 C445 1.433 . S
C444 C440 1.350 . S
C444 C441 1.463 . S
C444 N448 1.427 . S
C445 H435 0.929 . S
C445 C443 1.433 . S
C445 N448 1.384 . S
C446 H437 0.929 . S
C446 C438 1.378 . S
C446 C441 1.350 . S
C447 H434 0.929 . S
C447 C439 1.433 . S
C447 N449 1.384 . S
N448 C444 1.427 . S
N448 C445 1.384 . S
N449 C441 1.427 . S
N449 C447 1.384 . S
H450 C456 0.930 . S
H451 C460 0.930 . S
H452 C465 0.929 . S
H453 C463 0.929 . S
H454 C458 0.929 . S
H455 C464 0.929 . S
C456 H450 0.930 . S
C456 C457 1.367 . S
C456 C464 1.378 . S
C457 C456 1.367 . S
C457 C465 1.433 . S
C458 H454 0.929 . S
C458 C460 1.378 . S
C458 C462 1.350 . S
C459 C462 1.463 . S
C459 C464 1.350 . S
C459 N467 1.427 . S
C460 H451 0.930 . S
C460 C458 1.378 . S
C460 C461 1.367 . S
C461 C460 1.367 . S
C461 C463 1.433 . S
C462 C458 1.350 . S
C462 C459 1.463 . S
C462 N466 1.427 . S
C463 H453 0.929 . S
C463 C461 1.433 . S
C463 N466 1.384 . S
C464 H455 0.929 . S
C464 C456 1.378 . S
C464 C459 1.350 . S
C465 H452 0.929 . S
C465 C457 1.433 . S
C465 N467 1.384 . S
N466 C462 1.427 . S
N466 C463 1.384 . S
N467 C459 1.427 . S
N467 C465 1.384 . S
C205 C117 1.553 . S
C209 N13 1.340 . S
C223 C150 0.693 . S
C227 C18 0.718 . S
C241 N2 0.628 . S
C245 N178 0.648 . S
C259 N68 1.222 . S
C263 C7 1.396 . S
C277 N167 1.244 1_556 S
C281 C51 1.429 1_565 S
C295 N79 0.685 . S
C299 N46 0.679 . S
C313 C40 0.923 . S
C317 C106 0.905 . S
C331 C139 1.392 . S
C335 N35 1.203 . S
C349 C84 1.428 . S
C353 N101 1.231 . S
C367 C73 0.915 . S
C371 C172 0.893 . S
C385 N134 0.620 . S
C389 N112 0.611 . S
C403 C183 1.556 . S
C407 N145 1.354 . S
C421 C54 1.106 . S
C425 C21 1.107 . S
C439 C153 1.106 . S
C443 C87 1.105 . S
C457 C186 1.112 . S
C461 C120 1.113 . S
