# Generated by pormake.
# Topology und, (4)-cn, num edge types: 1
# Building blocks:
#     Node 0, Type 0, BuildingBlock: NAHDIM_clean_sbu_0, # of connection points: 4
#     Node 1, Type 0, BuildingBlock: NAHDIM_clean_sbu_0, # of connection points: 4
#     Node 2, Type 0, BuildingBlock: NAHDIM_clean_sbu_0, # of connection points: 4
#     Node 3, Type 0, BuildingBlock: NAHDIM_clean_sbu_0, # of connection points: 4
#     Node 4, Type 0, BuildingBlock: NAHDIM_clean_sbu_0, # of connection points: 4
#     Node 5, Type 0, BuildingBlock: NAHDIM_clean_sbu_0, # of connection points: 4
#     Node 6, Type 0, BuildingBlock: NAHDIM_clean_sbu_0, # of connection points: 4
#     Node 7, Type 0, BuildingBlock: NAHDIM_clean_sbu_0, # of connection points: 4
#     Node 8, Type 0, BuildingBlock: NAHDIM_clean_sbu_0, # of connection points: 4
#     Node 9, Type 0, BuildingBlock: NAHDIM_clean_sbu_0, # of connection points: 4
#     Node 10, Type 0, BuildingBlock: NAHDIM_clean_sbu_0, # of connection points: 4
#     Node 11, Type 0, BuildingBlock: NAHDIM_clean_sbu_0, # of connection points: 4
#     Node 12, Type 0, BuildingBlock: NAHDIM_clean_sbu_0, # of connection points: 4
#     Node 13, Type 0, BuildingBlock: NAHDIM_clean_sbu_0, # of connection points: 4
#     Node 14, Type 0, BuildingBlock: NAHDIM_clean_sbu_0, # of connection points: 4
#     Node 15, Type 0, BuildingBlock: NAHDIM_clean_sbu_0, # of connection points: 4
#     Edge 16, Type (0, 0), BuildingBlock: AJUNOK_clean_linker_0, # of connection points: 2
#     Edge 17, Type (0, 0), BuildingBlock: AJUNOK_clean_linker_0, # of connection points: 2
#     Edge 18, Type (0, 0), BuildingBlock: AJUNOK_clean_linker_0, # of connection points: 2
#     Edge 19, Type (0, 0), BuildingBlock: AJUNOK_clean_linker_0, # of connection points: 2
#     Edge 20, Type (0, 0), BuildingBlock: AJUNOK_clean_linker_0, # of connection points: 2
#     Edge 21, Type (0, 0), BuildingBlock: AJUNOK_clean_linker_0, # of connection points: 2
#     Edge 22, Type (0, 0), BuildingBlock: AJUNOK_clean_linker_0, # of connection points: 2
#     Edge 23, Type (0, 0), BuildingBlock: AJUNOK_clean_linker_0, # of connection points: 2
#     Edge 24, Type (0, 0), BuildingBlock: AJUNOK_clean_linker_0, # of connection points: 2
#     Edge 25, Type (0, 0), BuildingBlock: AJUNOK_clean_linker_0, # of connection points: 2
#     Edge 26, Type (0, 0), BuildingBlock: AJUNOK_clean_linker_0, # of connection points: 2
#     Edge 27, Type (0, 0), BuildingBlock: AJUNOK_clean_linker_0, # of connection points: 2
#     Edge 28, Type (0, 0), BuildingBlock: AJUNOK_clean_linker_0, # of connection points: 2
#     Edge 29, Type (0, 0), BuildingBlock: AJUNOK_clean_linker_0, # of connection points: 2
#     Edge 30, Type (0, 0), BuildingBlock: AJUNOK_clean_linker_0, # of connection points: 2
#     Edge 31, Type (0, 0), BuildingBlock: AJUNOK_clean_linker_0, # of connection points: 2
#     Edge 32, Type (0, 0), BuildingBlock: AJUNOK_clean_linker_0, # of connection points: 2
#     Edge 33, Type (0, 0), BuildingBlock: AJUNOK_clean_linker_0, # of connection points: 2
#     Edge 34, Type (0, 0), BuildingBlock: AJUNOK_clean_linker_0, # of connection points: 2
#     Edge 35, Type (0, 0), BuildingBlock: AJUNOK_clean_linker_0, # of connection points: 2
#     Edge 36, Type (0, 0), BuildingBlock: AJUNOK_clean_linker_0, # of connection points: 2
#     Edge 37, Type (0, 0), BuildingBlock: AJUNOK_clean_linker_0, # of connection points: 2
#     Edge 38, Type (0, 0), BuildingBlock: AJUNOK_clean_linker_0, # of connection points: 2
#     Edge 39, Type (0, 0), BuildingBlock: AJUNOK_clean_linker_0, # of connection points: 2
#     Edge 40, Type (0, 0), BuildingBlock: AJUNOK_clean_linker_0, # of connection points: 2
#     Edge 41, Type (0, 0), BuildingBlock: AJUNOK_clean_linker_0, # of connection points: 2
#     Edge 42, Type (0, 0), BuildingBlock: AJUNOK_clean_linker_0, # of connection points: 2
#     Edge 43, Type (0, 0), BuildingBlock: AJUNOK_clean_linker_0, # of connection points: 2
#     Edge 44, Type (0, 0), BuildingBlock: AJUNOK_clean_linker_0, # of connection points: 2
#     Edge 45, Type (0, 0), BuildingBlock: AJUNOK_clean_linker_0, # of connection points: 2
#     Edge 46, Type (0, 0), BuildingBlock: AJUNOK_clean_linker_0, # of connection points: 2
#     Edge 47, Type (0, 0), BuildingBlock: AJUNOK_clean_linker_0, # of connection points: 2
# Relax obj value: 0.114
# Max RMSD: 0.175
# Mean RMSD: 0.175
data_MOF--net-und--node1-NAHDIM_clean_sbu_0--edge1-AJUNOK_clean_linker_0
_symmetry_space_group_name_H-M    P1
_symmetry_Int_Tables_number       1
_symmetry_cell_setting            triclinic
loop_
_symmetry_equiv_pos_as_xyz
'x, y, z'
_cell_length_a     44.917408
_cell_length_b     44.894974
_cell_length_c     16.08195
_cell_angle_alpha  90.084052
_cell_angle_beta   90.108135
_cell_angle_gamma 97.623449
loop_
_atom_site_label
_atom_site_type_symbol
_atom_site_fract_x
_atom_site_fract_y
_atom_site_fract_z
_atom_type_partial_charge
C0 C 0.19425 0.38933 0.10671 0.0
O1 O 0.21459 0.38594 0.16352 0.0
O2 O 0.22936 0.32689 0.13251 0.0
Zn3 Zn 0.229 0.35086 0.02758 0.0
O4 O 0.26642 0.37965 0.0047 0.0
C5 C 0.23558 0.29752 0.93879 0.0
O6 O 0.24984 0.29264 0.00766 0.0
O7 O 0.19512 0.37554 0.03783 0.0
C8 C 0.28993 0.37218 0.97109 0.0
O9 O 0.29211 0.34362 0.95922 0.0
C10 C 0.25198 0.32152 0.17443 0.0
O11 O 0.27887 0.3341 0.15241 0.0
O12 O 0.22326 0.32138 0.93247 0.0
C13 C 0.87401 0.06956 0.17423 0.0
O14 O 0.87995 0.05018 0.11728 0.0
O15 O 0.93643 0.03236 0.16594 0.0
Zn16 Zn 0.90876 0.03335 0.26307 0.0
O17 O 0.87946 -0.00423 0.27937 0.0
C18 C 0.94947 0.01487 0.37302 0.0
O19 O 0.94362 0.99209 0.32163 0.0
O20 O 0.88492 0.06765 0.24676 0.0
C21 C 0.86883 0.99253 0.35261 0.0
O22 O 0.87736 0.01329 0.4085 0.0
C23 C 0.94302 0.00953 0.12715 0.0
O24 O 0.92926 0.98278 0.1465 0.0
O25 O 0.93596 0.03776 0.3625 0.0
C26 C 0.30634 0.65177 0.58095 0.0
O27 O 0.30684 0.67706 0.6223 0.0
O28 O 0.25454 0.70272 0.58544 0.0
Zn29 Zn 0.25676 0.67305 0.49354 0.0
O30 O 0.21786 0.64708 0.46641 0.0
C31 C 0.24906 0.71802 0.38467 0.0
O32 O 0.22737 0.71848 0.43909 0.0
O33 O 0.28782 0.6462 0.52123 0.0
C34 C 0.19118 0.6519 0.48193 0.0
O35 O 0.18675 0.67551 0.52618 0.0
C36 C 0.24289 0.69977 0.65711 0.0
O37 O 0.22884 0.67357 0.6802 0.0
O38 O 0.26704 0.6986 0.39319 0.0
C39 C 0.61991 0.98395 0.69272 0.0
O40 O 0.62829 0.0122 0.67321 0.0
O41 O 0.54584 0.00883 0.62659 0.0
Zn42 Zn 0.56834 0.00956 0.73396 0.0
O43 O 0.59417 0.04867 0.75975 0.0
C44 C 0.51853 0.02254 0.82329 0.0
O45 O 0.51715 0.03928 0.75695 0.0
O46 O 0.59427 0.97645 0.72539 0.0
C47 C 0.60496 0.04921 0.83306 0.0
O48 O 0.59878 0.02518 0.87967 0.0
C49 C 0.54188 0.03111 0.58158 0.0
O50 O 0.5536 0.05827 0.60442 0.0
O51 O 0.53848 0.00494 0.82725 0.0
C52 C 0.79343 0.65128 0.93041 0.0
O53 O 0.77382 0.65652 0.87335 0.0
O54 O 0.75821 0.71465 0.91259 0.0
Zn55 Zn 0.76012 0.69006 0.01583 0.0
O56 O 0.72268 0.66205 0.04336 0.0
C57 C 0.75613 0.74304 0.10873 0.0
O58 O 0.7416 0.74909 0.04128 0.0
O59 O 0.7929 0.6643 0.00056 0.0
C60 C 0.69981 0.67006 0.07921 0.0
O61 O 0.69796 0.69874 0.08985 0.0
C62 C 0.73479 0.72007 0.87447 0.0
O63 O 0.70843 0.707 0.89938 0.0
O64 O 0.76778 0.71873 0.11212 0.0
C65 C 0.11153 0.95843 0.84301 0.0
O66 O 0.10571 0.97642 0.90366 0.0
O67 O 0.04829 -0.00382 0.8569 0.0
Zn68 Zn 0.07572 -0.00427 0.75894 0.0
O69 O 0.10387 0.03425 0.74474 0.0
C70 C 0.03376 0.01247 0.64689 0.0
O71 O 0.03742 0.0355 0.69806 0.0
O72 O 0.10032 0.96186 0.77161 0.0
C73 C 0.11338 0.04032 0.67143 0.0
O74 O 0.10483 0.02132 0.61114 0.0
C75 C 0.04265 0.01995 0.89292 0.0
O76 O 0.05716 0.04593 0.86973 0.0
O77 O 0.0487 0.99075 0.65944 0.0
C78 C 0.69368 0.38838 0.41589 0.0
O79 O 0.71315 0.38217 0.35974 0.0
O80 O 0.72964 0.32605 0.40327 0.0
Zn81 Zn 0.72768 0.35143 0.50583 0.0
O82 O 0.76592 0.37893 0.52968 0.0
C83 C 0.71676 0.29641 0.60279 0.0
O84 O 0.71069 0.28333 0.53056 0.0
O85 O 0.69493 0.3772 0.48827 0.0
C86 C 0.78641 0.36981 0.57392 0.0
O87 O 0.78375 0.34146 0.5963 0.0
C88 C 0.74938 0.30893 0.38906 0.0
O89 O 0.77153 0.30839 0.44218 0.0
O90 O 0.72122 0.32492 0.60653 0.0
C91 C 0.35861 0.05694 0.31948 0.0
O92 O 0.35759 0.02923 0.34651 0.0
O93 O 0.43263 0.03325 0.31915 0.0
Zn94 Zn 0.403 0.03516 0.22721 0.0
O95 O 0.37645 -0.00438 0.21241 0.0
C96 C 0.45356 0.0503 0.11807 0.0
O97 O 0.4684 0.05559 0.18807 0.0
O98 O 0.37704 0.06606 0.26214 0.0
C99 C 0.37678 0.97938 0.14765 0.0
O100 O 0.39643 0.98754 0.0889 0.0
C101 C 0.44981 0.01312 0.32613 0.0
O102 O 0.44734 0.99074 0.27277 0.0
O103 O 0.42511 0.04445 0.1197 0.0
C104 C 0.70096 0.90067 0.5908 0.0
O105 O 0.72723 0.90225 0.62782 0.0
O106 O 0.72758 0.82831 0.60414 0.0
Zn107 Zn 0.72856 0.8577 0.51085 0.0
O108 O 0.76712 0.88607 0.50065 0.0
C109 C 0.74757 0.81865 0.39839 0.0
O110 O 0.76901 0.82235 0.45448 0.0
O111 O 0.69499 0.8821 0.5314 0.0
C112 C 0.77093 0.89882 0.43016 0.0
O113 O 0.75025 0.89251 0.37259 0.0
C114 C 0.74967 0.821 0.64482 0.0
O115 O 0.77675 0.83491 0.63005 0.0
O116 O 0.72498 0.83275 0.4071 0.0
C117 C 0.37253 0.55545 0.68814 0.0
O118 O 0.37126 0.53144 0.64073 0.0
O119 O 0.43187 0.51529 0.66941 0.0
Zn120 Zn 0.40735 0.51914 0.77236 0.0
O121 O 0.37541 0.48425 0.79207 0.0
C122 C 0.46055 0.5349 0.87627 0.0
O123 O 0.47145 0.55077 0.81207 0.0
O124 O 0.38736 0.55605 0.75564 0.0
C125 C 0.38186 0.46083 0.82849 0.0
O126 O 0.41017 0.45817 0.8432 0.0
C127 C 0.45557 0.50277 0.66597 0.0
O128 O 0.46368 0.48835 0.73148 0.0
O129 O 0.43381 0.52162 0.87312 0.0
C130 C 0.78518 0.14768 0.0905 0.0
O131 O 0.7658 0.15363 0.14721 0.0
O132 O 0.74615 0.20642 0.09671 0.0
Zn133 Zn 0.74628 0.17862 -0.00089 0.0
O134 O 0.70904 0.14839 -0.00777 0.0
C135 C 0.75274 0.23048 0.88952 0.0
O136 O 0.76101 0.24562 0.9575 0.0
O137 O 0.7816 0.15604 0.01597 0.0
C138 C 0.68794 0.15235 0.9422 0.0
O139 O 0.68934 0.17781 0.90135 0.0
C140 C 0.72728 0.22407 0.1144 0.0
O141 O 0.70388 0.22498 0.06576 0.0
O142 O 0.74836 0.20199 0.89231 0.0
C143 C 0.10987 0.47338 0.17949 0.0
O144 O 0.10163 0.49107 0.12122 0.0
O145 O 0.04688 0.50655 0.17368 0.0
Zn146 Zn 0.07451 0.50864 0.27202 0.0
O147 O 0.1012 0.54807 0.28961 0.0
C148 C 0.0229 0.50854 0.37469 0.0
O149 O 0.0132 0.52071 0.30747 0.0
O150 O 0.10114 0.47668 0.25374 0.0
C151 C 0.0943 0.56781 0.34042 0.0
O152 O 0.06744 0.56427 0.37382 0.0
C153 C 0.03577 0.52742 0.13672 0.0
O154 O 0.04333 0.55538 0.16093 0.0
O155 O 0.04892 0.50028 0.37423 0.0
C156 C 0.27559 0.13122 0.46142 0.0
O157 O 0.24715 0.12384 0.44211 0.0
O158 O 0.25264 0.21096 0.44105 0.0
Zn159 Zn 0.25097 0.18012 0.53087 0.0
O160 O 0.21138 0.15336 0.54136 0.0
C161 C 0.23617 0.21879 0.65219 0.0
O162 O 0.21369 0.21762 0.59944 0.0
O163 O 0.28345 0.15476 0.50435 0.0
C164 C 0.20763 0.13935 0.61003 0.0
O165 O 0.22861 0.14423 0.66733 0.0
C166 C 0.23101 0.22126 0.40536 0.0
O167 O 0.2033 0.20989 0.42329 0.0
O168 O 0.25737 0.20341 0.6371 0.0
C169 C 0.61704 0.48032 0.35076 0.0
O170 O 0.61231 0.49806 0.41303 0.0
O171 O 0.55897 0.52106 0.37423 0.0
Zn172 Zn 0.58495 0.52177 0.27239 0.0
O173 O 0.61581 0.55815 0.26316 0.0
C174 C 0.53451 0.5071 0.15635 0.0
O175 O 0.52288 0.48798 0.21308 0.0
O176 O 0.60691 0.48573 0.27924 0.0
C177 C 0.60915 0.58169 0.22778 0.0
O178 O 0.5809 0.58354 0.2099 0.0
C179 C 0.53374 0.5307 0.37967 0.0
O180 O 0.52385 0.54502 0.31628 0.0
O181 O 0.56022 0.5218 0.1688 0.0
C182 C 0.19748 0.87506 0.90868 0.0
O183 O 0.21461 0.86679 0.84912 0.0
O184 O 0.23572 0.81255 0.91074 0.0
Zn185 Zn 0.23667 0.8436 9e-05 0.0
O186 O 0.27513 0.87206 0.00969 0.0
C187 C 0.25479 0.80419 0.11429 0.0
O188 O 0.27695 0.8075 0.06053 0.0
O189 O 0.20238 0.8674 0.98301 0.0
C190 C 0.27718 0.88595 0.07892 0.0
O191 O 0.25471 0.88098 0.1314 0.0
C192 C 0.25753 0.80596 0.86775 0.0
O193 O 0.28386 0.82251 0.87365 0.0
O194 O 0.23293 0.81915 0.10386 0.0
C195 C 0.86775 0.55788 0.85918 0.0
O196 O 0.87292 0.53875 0.91747 0.0
O197 O 0.92643 0.51892 0.87241 0.0
Zn198 Zn 0.89994 0.51875 0.77176 0.0
O199 O 0.87024 0.48155 0.75321 0.0
C200 C 0.95144 0.51179 0.67442 0.0
O201 O 0.95861 0.49882 0.74322 0.0
O202 O 0.87696 0.5539 0.78575 0.0
C203 C 0.87782 0.45734 0.72378 0.0
O204 O 0.90639 0.45498 0.71368 0.0
C205 C 0.93472 0.4971 0.91226 0.0
O206 O 0.92402 0.46945 0.89133 0.0
O207 O 0.927 0.52326 0.67157 0.0
C208 C 0.2184 0.28488 0.26008 0.0
C209 C 0.24775 0.29753 0.23821 0.0
C210 C 0.21326 0.26027 0.31381 0.0
C211 C 0.23722 0.24723 0.34816 0.0
H212 H 0.19905 0.29376 0.2346 0.0
H213 H 0.19023 0.25138 0.32807 0.0
S214 S 0.31853 0.27237 0.31312 0.0
N215 N 0.30119 0.29556 0.25691 0.0
N216 N 0.29166 0.24932 0.358 0.0
C217 C 0.26677 0.25997 0.32813 0.0
C218 C 0.272 0.28512 0.27335 0.0
C219 C 0.97457 0.0364 0.50245 0.0
C220 C 0.9712 0.01364 0.44178 0.0
C221 C -0.00515 0.03573 0.56831 0.0
C222 C 0.01262 0.0123 0.57618 0.0
H223 H 0.96135 0.05488 0.49949 0.0
H224 H -0.00354 0.05378 0.61353 0.0
S225 S 0.01301 0.94758 0.43242 0.0
N226 N 0.98781 0.96716 0.39284 0.0
N227 N 0.0259 0.96597 0.51673 0.0
C228 C 0.00963 0.98944 0.51572 0.0
C229 C 0.98894 0.9901 0.44854 0.0
C230 C 0.2686 0.7505 0.69672 0.0
C231 C 0.24632 0.72605 0.71358 0.0
C232 C 0.27227 0.77612 0.74726 0.0
C233 C 0.25349 0.77853 0.81584 0.0
H234 H 0.28352 0.74987 0.64407 0.0
H235 H 0.28967 0.79434 0.7317 0.0
S236 S 0.19236 0.72057 0.88882 0.0
N237 N 0.20576 0.70562 0.80529 0.0
N238 N 0.21238 0.75393 0.90006 0.0
C239 C 0.23126 0.75419 0.83401 0.0
C240 C 0.22778 0.72791 0.78304 0.0
C241 C 0.49831 0.03473 0.04752 0.0
C242 C 0.4699 0.04455 0.0414 0.0
C243 C 0.51336 0.02648 0.97676 0.0
C244 C 0.5008 0.02828 0.89717 0.0
H245 H 0.50882 0.0328 0.10762 0.0
H246 H 0.53532 0.01933 0.98439 0.0
S247 S 0.42709 0.05262 0.84712 0.0
N248 N 0.42965 0.0553 0.94939 0.0
N249 N 0.4584 0.04054 0.81589 0.0
C250 C 0.47252 0.03821 0.88995 0.0
C251 C 0.45694 0.04613 0.96219 0.0
C252 C 0.23173 0.78074 0.24316 0.0
C253 C 0.25468 0.78253 0.18349 0.0
C254 C 0.23035 0.75989 0.30782 0.0
C255 C 0.25182 0.73988 0.31554 0.0
H256 H 0.21451 0.79547 0.23995 0.0
H257 H 0.21207 0.75946 0.35182 0.0
S258 S 0.31682 0.73553 0.17606 0.0
N259 N 0.29972 0.76264 0.13653 0.0
N260 N 0.29702 0.72337 0.25847 0.0
C261 C 0.27508 0.74151 0.25674 0.0
C262 C 0.27655 0.76286 0.1907 0.0
C263 C 0.48193 0.04534 0.42682 0.0
C264 C 0.47426 0.01708 0.3886 0.0
C265 C 0.50472 0.05003 0.48663 0.0
C266 C 0.52049 0.02655 0.5114 0.0
H267 H 0.47019 0.06411 0.4107 0.0
H268 H 0.50932 0.07199 0.51545 0.0
S269 S 0.51041 0.94874 0.42751 0.0
N270 N 0.48528 0.96563 0.3773 0.0
N271 N 0.52799 0.97435 0.49053 0.0
C272 C 0.5136 -0.00165 0.47245 0.0
C273 C 0.49054 -0.00636 0.41085 0.0
C274 C 0.21737 0.26054 0.72976 0.0
C275 C 0.23649 0.23814 0.7266 0.0
C276 C 0.2171 0.27948 0.79875 0.0
C277 C 0.23573 0.27659 0.86773 0.0
H278 H 0.20264 0.26377 0.67807 0.0
H279 H 0.20214 0.29653 0.79782 0.0
S280 S 0.28948 0.22088 0.89139 0.0
N281 N 0.27423 0.21375 0.79884 0.0
N282 N 0.2737 0.2492 0.92907 0.0
C283 C 0.25477 0.25401 0.86587 0.0
C284 C 0.2552 0.23487 0.79514 0.0
C285 C 0.00202 0.98997 0.97521 0.0
C286 C 0.01789 0.01817 0.95437 0.0
C287 C 0.97763 0.98745 0.02997 0.0
C288 C 0.96805 0.01301 0.06637 0.0
H289 H 0.00835 0.96951 0.94879 0.0
H290 H 0.96636 0.96519 0.04412 0.0
S291 S 0.00184 0.09227 0.0324 0.0
N292 N 0.02219 0.07229 0.97464 0.0
N293 N 0.97637 0.06766 0.07733 0.0
C294 C 0.98369 0.04143 0.0461 0.0
C295 C 0.0086 0.04397 -0.00966 0.0
C296 C 0.7663 0.75908 0.79085 0.0
C297 C 0.73756 0.74453 0.81198 0.0
C298 C 0.76993 0.7839 0.73763 0.0
C299 C 0.74501 0.7952 0.7029 0.0
H300 H 0.78634 0.75153 0.81635 0.0
H301 H 0.79255 0.79421 0.72359 0.0
S302 S 0.66477 0.76499 0.7368 0.0
N303 N 0.68365 0.74303 0.79279 0.0
N304 N 0.69038 0.78967 0.69264 0.0
C305 C 0.71607 0.78068 0.72259 0.0
C306 C 0.71238 0.75534 0.77696 0.0
C307 C 0.72156 0.28935 0.2612 0.0
C308 C 0.74508 0.28753 0.31833 0.0
C309 C 0.71576 0.26859 0.19619 0.0
C310 C 0.73327 0.24515 0.18542 0.0
H311 H 0.70731 0.30691 0.2667 0.0
H312 H 0.6975 0.27112 0.15383 0.0
S313 S 0.79731 0.22995 0.31872 0.0
N314 N 0.78588 0.2601 0.36015 0.0
N315 N 0.77504 0.22109 0.23826 0.0
C316 C 0.75691 0.24302 0.2421 0.0
C317 C 0.76282 0.26421 0.30833 0.0
C318 C 0.74581 0.27796 0.81562 0.0
C319 C 0.74413 0.24646 0.81431 0.0
C320 C 0.73599 0.2937 0.74809 0.0
C321 C 0.72412 0.27866 0.676 0.0
H322 H 0.75463 0.29072 0.86951 0.0
H323 H 0.73817 0.31797 0.75232 0.0
S324 S 0.71437 0.19613 0.64105 0.0
N325 N 0.72935 0.20063 0.73473 0.0
N326 N 0.71089 0.23026 0.60782 0.0
C327 C 0.72212 0.24711 0.67384 0.0
C328 C 0.73217 0.23103 0.74279 0.0
C329 C 0.73546 0.78425 0.18409 0.0
C330 C 0.75545 0.76259 0.18253 0.0
C331 C 0.73286 0.80207 0.25438 0.0
C332 C 0.75039 0.79918 0.32553 0.0
H333 H 0.72127 0.78725 0.13105 0.0
H334 H 0.71711 0.81837 0.25257 0.0
S335 S 0.80645 0.74611 0.35325 0.0
N336 N 0.79328 0.73941 0.25824 0.0
N337 N 0.78857 0.77306 0.39042 0.0
C338 C 0.77071 0.77783 0.32472 0.0
C339 C 0.7732 0.75949 0.25323 0.0
C340 C 0.48654 0.50098 0.07538 0.0
C341 C 0.51661 0.51411 0.083 0.0
C342 C 0.46859 0.50832 0.00925 0.0
C343 C 0.47993 0.52904 0.94761 0.0
H344 H 0.47659 0.48503 0.12117 0.0
H345 H 0.44561 0.49737 0.0064 0.0
S346 S 0.55737 0.56981 0.93833 0.0
N347 N 0.55709 0.54893 0.02274 0.0
N348 N 0.52328 0.56264 0.89854 0.0
C349 C 0.51 0.54235 0.95425 0.0
C350 C 0.52834 0.53489 0.02178 0.0
C351 C 0.97712 0.5191 0.45048 0.0
C352 C 0.00498 0.50796 0.45186 0.0
C353 C 0.96018 0.52055 0.5228 0.0
C354 C 0.97034 0.51084 0.59952 0.0
H355 H 0.96826 0.52703 0.39313 0.0
H356 H 0.93887 0.52926 0.51817 0.0
S357 S 0.04179 0.47958 0.63709 0.0
N358 N 0.04196 0.48687 0.53655 0.0
N359 N 0.01014 0.48956 0.67275 0.0
C360 C -0.00188 0.49947 0.60194 0.0
C361 C 0.01541 0.49801 0.52808 0.0
C362 C -0.00836 0.5405 0.05641 0.0
C363 C 0.01086 0.51936 0.07702 0.0
C364 C 0.96664 0.53274 0.00496 0.0
C365 C 0.95982 0.50353 0.97204 0.0
H366 H -0.00438 0.56315 0.08104 0.0
H367 H 0.95255 0.54988 -0.00919 0.0
S368 S 0.00396 0.44019 0.00331 0.0
N369 N 0.02199 0.46811 0.05793 0.0
N370 N 0.97492 0.45362 0.96148 0.0
C371 C 0.97892 0.48217 -0.00833 0.0
C372 C 0.00449 0.49008 0.04385 0.0
C373 C 0.46652 0.52452 0.52444 0.0
C374 C 0.47557 0.50814 0.59254 0.0
C375 C 0.48556 0.53194 0.45663 0.0
C376 C 0.51451 0.52332 0.45383 0.0
H377 H 0.44455 0.532 0.5235 0.0
H378 H 0.47739 0.54454 0.406 0.0
S379 S 0.54912 0.47973 0.61575 0.0
N380 N 0.51547 0.48321 0.65245 0.0
N381 N 0.55128 0.49711 0.52523 0.0
C382 C 0.52384 0.50671 0.52124 0.0
C383 C 0.50438 0.49909 0.59038 0.0
C384 C 0.14649 0.43909 0.22295 0.0
C385 C 0.13001 0.45085 0.15934 0.0
C386 C 0.16691 0.41898 0.20514 0.0
C387 C 0.17141 0.40952 0.12316 0.0
H388 H 0.14411 0.44594 0.28696 0.0
H389 H 0.17937 0.41092 0.25629 0.0
S390 S 0.13252 0.43239 0.93445 0.0
N391 N 0.11866 0.45071 0.01123 0.0
N392 N 0.15691 0.4127 0.97791 0.0
C393 C 0.1545 0.42048 0.0591 0.0
C394 C 0.13387 0.44122 0.07715 0.0
C395 C 0.80437 0.92947 0.32967 0.0
C396 C 0.79752 0.9211 0.41255 0.0
C397 C 0.82814 0.95185 0.31061 0.0
C398 C 0.84575 0.96703 0.37376 0.0
H399 H 0.79105 0.9189 0.27883 0.0
H400 H 0.8321 0.95791 0.24601 0.0
S401 S 0.83852 0.95226 0.60052 0.0
N402 N 0.81138 0.92868 0.55808 0.0
N403 N 0.85591 0.97095 0.5224 0.0
C404 C 0.83976 0.9583 0.4568 0.0
C405 C 0.81571 0.93527 0.47616 0.0
C406 C 0.32345 0.60145 0.56324 0.0
C407 C 0.32499 0.62859 0.60788 0.0
C408 C 0.33905 0.57821 0.58967 0.0
C409 C 0.35687 0.58099 0.66202 0.0
H410 H 0.30976 0.59785 0.5077 0.0
H411 H 0.33676 0.55775 0.55313 0.0
S412 S 0.36964 0.64791 0.79985 0.0
N413 N 0.34667 0.65729 0.72706 0.0
N414 N 0.376 0.61349 0.77671 0.0
C415 C 0.35913 0.60819 0.70667 0.0
C416 C 0.34324 0.63199 0.67958 0.0
C417 C 0.64969 0.1271 0.84322 0.0
C418 C 0.66477 0.12697 0.92003 0.0
C419 C 0.63014 0.10203 0.81609 0.0
C420 C 0.62467 0.07593 0.86498 0.0
H421 H 0.65373 0.14633 0.80222 0.0
H422 H 0.61959 0.10304 0.75571 0.0
S423 S 0.65655 0.06525 0.07479 0.0
N424 N 0.67154 0.09932 0.04696 0.0
N425 N 0.63464 0.05229 -0.00325 0.0
C426 C 0.63875 0.07596 0.94347 0.0
C427 C 0.65883 0.10144 0.97077 0.0
C428 C 0.14799 0.59101 0.34843 0.0
C429 C 0.11792 0.59145 0.37213 0.0
C430 C 0.1713 0.61065 0.38426 0.0
C431 C 0.16563 0.63179 0.44505 0.0
H432 H 0.1538 0.57485 0.30318 0.0
H433 H 0.19403 0.60904 0.36413 0.0
S434 S 0.09067 0.64345 0.52593 0.0
N435 N 0.08357 0.61577 0.45813 0.0
N436 N 0.12748 0.65277 0.52519 0.0
C437 C 0.1356 0.63314 0.46775 0.0
C438 C 0.11176 0.61299 0.43137 0.0
C439 C 0.6709 0.96915 0.67677 0.0
C440 C 0.63963 0.96136 0.67141 0.0
C441 C 0.69045 0.94914 0.65135 0.0
C442 C 0.67945 0.92091 0.61748 0.0
H443 H 0.68036 0.99095 0.70075 0.0
H444 H 0.71441 0.95612 0.65672 0.0
S445 S 0.59934 0.88982 0.58983 0.0
N446 N 0.59839 0.92342 0.63097 0.0
N447 N 0.63527 0.88598 0.58076 0.0
C448 C 0.6482 0.91279 0.61171 0.0
C449 C 0.62824 0.93296 0.63949 0.0
C450 C 0.36403 0.40948 0.88344 0.0
C451 C 0.35781 0.43845 0.8626 0.0
C452 C 0.34204 0.38829 0.9192 0.0
C453 C 0.31316 0.39544 0.93701 0.0
H454 H 0.38604 0.40302 0.87165 0.0
H455 H 0.3478 0.36616 0.93335 0.0
S456 S 0.28552 0.46842 0.89566 0.0
N457 N 0.32061 0.47325 0.86277 0.0
N458 N 0.27949 0.43365 0.93095 0.0
C459 C 0.3067 0.42444 0.91713 0.0
C460 C 0.32894 0.44585 0.87954 0.0
C461 C 0.8231 0.11421 0.05094 0.0
C462 C 0.80958 0.13 0.11274 0.0
C463 C 0.84441 0.09531 0.07147 0.0
C464 C 0.8533 0.09168 0.15452 0.0
H465 H 0.81653 0.1157 0.98639 0.0
H466 H 0.85362 0.08308 0.0217 0.0
S467 S 0.82668 0.13042 0.33883 0.0
N468 N 0.80803 0.14246 0.25989 0.0
N469 N 0.8482 0.10707 0.29844 0.0
C470 C 0.84086 0.10835 0.2166 0.0
C471 C 0.81896 0.12744 0.19572 0.0
C472 C 0.81835 0.61941 0.83192 0.0
C473 C 0.81431 0.62906 0.91399 0.0
C474 C 0.83629 0.59694 0.81449 0.0
C475 C 0.85057 0.58295 0.87859 0.0
H476 H 0.80732 0.62906 0.78049 0.0
H477 H 0.83832 0.58998 0.75046 0.0
S478 S 0.84862 0.60105 0.10382 0.0
N479 N 0.82721 0.62374 0.05978 0.0
N480 N 0.86072 0.58135 0.02717 0.0
C481 C 0.84733 0.59285 0.96081 0.0
C482 C 0.82929 0.61596 0.97848 0.0
C483 C 0.17527 0.10524 0.70521 0.0
C484 C 0.18148 0.11615 0.62417 0.0
C485 C 0.1525 0.08142 0.7203 0.0
C486 C 0.13529 0.06729 0.6548 0.0
H487 H 0.18843 0.11484 0.75757 0.0
H488 H 0.14908 0.07341 0.78353 0.0
S489 S 0.14089 0.08875 0.43184 0.0
N490 N 0.16725 0.11216 0.47812 0.0
N491 N 0.1246 0.0672 0.50633 0.0
C492 C 0.14051 0.07862 0.57376 0.0
C493 C 0.16353 0.10312 0.55849 0.0
C494 C 0.6585 0.42379 0.46204 0.0
C495 C 0.67235 0.40994 0.39686 0.0
C496 C 0.64025 0.44611 0.44615 0.0
C497 C 0.63484 0.45525 0.36442 0.0
H498 H 0.66241 0.418 0.52614 0.0
H499 H 0.63057 0.45649 0.49868 0.0
S500 S 0.66401 0.42442 0.17116 0.0
N501 N 0.67815 0.40582 0.24692 0.0
N502 N 0.64368 0.44767 0.21716 0.0
C503 C 0.64766 0.44083 0.29839 0.0
C504 C 0.66648 0.41824 0.3146 0.0
C505 C 0.34894 0.94039 0.05464 0.0
C506 C 0.35299 0.95359 0.13407 0.0
C507 C 0.3248 0.91804 0.03774 0.0
C508 C 0.30375 0.90801 0.0996 0.0
H509 H 0.36401 0.94793 0.00419 0.0
H510 H 0.32224 0.90914 0.97511 0.0
S511 S 0.30614 0.93284 0.32043 0.0
N512 N 0.33525 0.95319 0.277 0.0
N513 N 0.29 0.91127 0.24549 0.0
C514 C 0.30827 0.9201 0.18026 0.0
C515 C 0.33285 0.94284 0.19744 0.0
C516 C 0.80583 0.42176 0.62084 0.0
C517 C 0.81055 0.39165 0.61003 0.0
C518 C 0.82733 0.44256 0.66011 0.0
C519 C 0.85466 0.43421 0.68871 0.0
H520 H 0.7851 0.42929 0.60017 0.0
H521 H 0.82269 0.46552 0.66656 0.0
S522 S 0.87815 0.35819 0.67501 0.0
N523 N 0.84452 0.35443 0.63149 0.0
N524 N 0.88531 0.39377 0.70362 0.0
C525 C 0.85979 0.40423 0.67786 0.0
C526 C 0.83765 0.3829 0.63901 0.0
C527 C 0.28993 0.08181 0.41953 0.0
C528 C 0.29793 0.11295 0.42903 0.0
C529 C 0.30988 0.06393 0.38452 0.0
C530 C 0.33824 0.07667 0.35558 0.0
H531 H 0.26806 0.07112 0.43955 0.0
H532 H 0.30281 0.03999 0.37878 0.0
S533 S 0.3699 0.1572 0.36562 0.0
N534 N 0.33621 0.15586 0.40762 0.0
N535 N 0.37352 0.12227 0.33932 0.0
C536 C 0.34653 0.10782 0.36437 0.0
C537 C 0.32644 0.12596 0.40193 0.0
C538 C 0.62605 0.63259 0.16823 0.0
C539 C 0.63312 0.60451 0.19502 0.0
C540 C 0.64773 0.65369 0.1308 0.0
C541 C 0.67711 0.64724 0.11713 0.0
H542 H 0.60353 0.63831 0.17587 0.0
H543 H 0.64129 0.67503 0.11138 0.0
S544 S 0.70752 0.57739 0.17765 0.0
N545 N 0.67205 0.57179 0.20711 0.0
N546 N 0.71252 0.61119 0.13567 0.0
C547 C 0.68459 0.61937 0.14411 0.0
C548 C 0.66269 0.5981 0.18346 0.0
C549 C 0.16171 0.90986 0.95525 0.0
C550 C 0.1742 0.89464 0.8902 0.0
C551 C 0.14114 0.93001 0.93927 0.0
C552 C 0.13199 0.93561 0.85763 0.0
H553 H 0.16835 0.90675 0.01912 0.0
H554 H 0.13261 0.94151 -0.00843 0.0
S555 S 0.15658 0.90004 0.66537 0.0
N556 N 0.1749 0.8855 0.741 0.0
N557 N 0.13614 0.92327 0.71101 0.0
C558 C 0.14363 0.91988 0.79206 0.0
C559 C 0.16476 0.89946 0.80833 0.0
loop_
_geom_bond_atom_site_label_1
_geom_bond_atom_site_label_2
_geom_bond_distance
_geom_bond_site_symmetry_2
_ccdc_geom_bond_type
C0 O1 1.160 . S
C0 O7 1.185 . S
O1 C0 1.160 . S
O2 Zn3 1.899 . S
O2 C10 1.284 . S
Zn3 O2 1.899 . S
Zn3 O4 2.032 . S
Zn3 O7 2.086 . S
Zn3 O12 1.977 1_554 S
O4 Zn3 2.032 . S
O4 C8 1.278 1_554 S
C5 O6 1.203 . S
C5 O12 1.267 . S
O6 C5 1.203 . S
O7 C0 1.185 . S
O7 Zn3 2.086 . S
C8 O4 1.278 1_556 S
C8 O9 1.211 . S
O9 C8 1.211 . S
C10 O2 1.284 . S
C10 O11 1.273 . S
O11 C10 1.273 . S
O12 Zn3 1.977 1_556 S
O12 C5 1.267 . S
C13 O14 1.160 . S
C13 O20 1.185 . S
O14 C13 1.160 . S
O15 Zn16 1.899 . S
O15 C23 1.284 . S
Zn16 O15 1.899 . S
Zn16 O17 2.032 . S
Zn16 O20 2.086 . S
Zn16 O25 1.977 . S
O17 Zn16 2.032 . S
O17 C21 1.278 1_545 S
C18 O19 1.203 . S
C18 O25 1.267 . S
O19 C18 1.203 . S
O20 C13 1.185 . S
O20 Zn16 2.086 . S
C21 O17 1.278 1_565 S
C21 O22 1.211 . S
O22 C21 1.211 . S
C23 O15 1.284 . S
C23 O24 1.273 1_545 S
O24 C23 1.273 1_565 S
O25 Zn16 1.977 . S
O25 C18 1.267 . S
C26 O27 1.160 . S
C26 O33 1.185 . S
O27 C26 1.160 . S
O28 Zn29 1.899 . S
O28 C36 1.284 . S
Zn29 O28 1.899 . S
Zn29 O30 2.032 . S
Zn29 O33 2.086 . S
Zn29 O38 1.977 . S
O30 Zn29 2.032 . S
O30 C34 1.278 . S
C31 O32 1.203 . S
C31 O38 1.267 . S
O32 C31 1.203 . S
O33 C26 1.185 . S
O33 Zn29 2.086 . S
C34 O30 1.278 . S
C34 O35 1.211 . S
O35 C34 1.211 . S
C36 O28 1.284 . S
C36 O37 1.273 . S
O37 C36 1.273 . S
O38 Zn29 1.977 . S
O38 C31 1.267 . S
C39 O40 1.160 . S
C39 O46 1.185 . S
O40 C39 1.160 . S
O41 Zn42 1.899 . S
O41 C49 1.284 . S
Zn42 O41 1.899 . S
Zn42 O43 2.032 . S
Zn42 O46 2.086 1_545 S
Zn42 O51 1.977 . S
O43 Zn42 2.032 . S
O43 C47 1.278 . S
C44 O45 1.203 . S
C44 O51 1.267 . S
O45 C44 1.203 . S
O46 C39 1.185 . S
O46 Zn42 2.086 1_565 S
C47 O43 1.278 . S
C47 O48 1.211 . S
O48 C47 1.211 . S
C49 O41 1.284 . S
C49 O50 1.273 . S
O50 C49 1.273 . S
O51 Zn42 1.977 . S
O51 C44 1.267 . S
C52 O53 1.160 . S
C52 O59 1.185 1_556 S
O53 C52 1.160 . S
O54 Zn55 1.899 1_556 S
O54 C62 1.284 . S
Zn55 O54 1.899 1_554 S
Zn55 O56 2.032 . S
Zn55 O59 2.086 . S
Zn55 O64 1.977 . S
O56 Zn55 2.032 . S
O56 C60 1.278 . S
C57 O58 1.203 . S
C57 O64 1.267 . S
O58 C57 1.203 . S
O59 C52 1.185 1_554 S
O59 Zn55 2.086 . S
C60 O56 1.278 . S
C60 O61 1.211 . S
O61 C60 1.211 . S
C62 O54 1.284 . S
C62 O63 1.273 . S
O63 C62 1.273 . S
O64 Zn55 1.977 . S
O64 C57 1.267 . S
C65 O66 1.160 . S
C65 O72 1.185 . S
O66 C65 1.160 . S
O67 Zn68 1.899 . S
O67 C75 1.284 . S
Zn68 O67 1.899 . S
Zn68 O69 2.032 . S
Zn68 O72 2.086 1_545 S
Zn68 O77 1.977 . S
O69 Zn68 2.032 . S
O69 C73 1.278 . S
C70 O71 1.203 . S
C70 O77 1.267 . S
O71 C70 1.203 . S
O72 C65 1.185 . S
O72 Zn68 2.086 1_565 S
C73 O69 1.278 . S
C73 O74 1.211 . S
O74 C73 1.211 . S
C75 O67 1.284 . S
C75 O76 1.273 . S
O76 C75 1.273 . S
O77 Zn68 1.977 . S
O77 C70 1.267 . S
C78 O79 1.160 . S
C78 O85 1.185 . S
O79 C78 1.160 . S
O80 Zn81 1.899 . S
O80 C88 1.284 . S
Zn81 O80 1.899 . S
Zn81 O82 2.032 . S
Zn81 O85 2.086 . S
Zn81 O90 1.977 . S
O82 Zn81 2.032 . S
O82 C86 1.278 . S
C83 O84 1.203 . S
C83 O90 1.267 . S
O84 C83 1.203 . S
O85 C78 1.185 . S
O85 Zn81 2.086 . S
C86 O82 1.278 . S
C86 O87 1.211 . S
O87 C86 1.211 . S
C88 O80 1.284 . S
C88 O89 1.273 . S
O89 C88 1.273 . S
O90 Zn81 1.977 . S
O90 C83 1.267 . S
C91 O92 1.160 . S
C91 O98 1.185 . S
O92 C91 1.160 . S
O93 Zn94 1.899 . S
O93 C101 1.284 . S
Zn94 O93 1.899 . S
Zn94 O95 2.032 . S
Zn94 O98 2.086 . S
Zn94 O103 1.977 . S
O95 Zn94 2.032 . S
O95 C99 1.278 1_545 S
C96 O97 1.203 . S
C96 O103 1.267 . S
O97 C96 1.203 . S
O98 C91 1.185 . S
O98 Zn94 2.086 . S
C99 O95 1.278 1_565 S
C99 O100 1.211 . S
O100 C99 1.211 . S
C101 O93 1.284 . S
C101 O102 1.273 1_545 S
O102 C101 1.273 1_565 S
O103 Zn94 1.977 . S
O103 C96 1.267 . S
C104 O105 1.160 . S
C104 O111 1.185 . S
O105 C104 1.160 . S
O106 Zn107 1.899 . S
O106 C114 1.284 . S
Zn107 O106 1.899 . S
Zn107 O108 2.032 . S
Zn107 O111 2.086 . S
Zn107 O116 1.977 . S
O108 Zn107 2.032 . S
O108 C112 1.278 . S
C109 O110 1.203 . S
C109 O116 1.267 . S
O110 C109 1.203 . S
O111 C104 1.185 . S
O111 Zn107 2.086 . S
C112 O108 1.278 . S
C112 O113 1.211 . S
O113 C112 1.211 . S
C114 O106 1.284 . S
C114 O115 1.273 . S
O115 C114 1.273 . S
O116 Zn107 1.977 . S
O116 C109 1.267 . S
C117 O118 1.160 . S
C117 O124 1.185 . S
O118 C117 1.160 . S
O119 Zn120 1.899 . S
O119 C127 1.284 . S
Zn120 O119 1.899 . S
Zn120 O121 2.032 . S
Zn120 O124 2.086 . S
Zn120 O129 1.977 . S
O121 Zn120 2.032 . S
O121 C125 1.278 . S
C122 O123 1.203 . S
C122 O129 1.267 . S
O123 C122 1.203 . S
O124 C117 1.185 . S
O124 Zn120 2.086 . S
C125 O121 1.278 . S
C125 O126 1.211 . S
O126 C125 1.211 . S
C127 O119 1.284 . S
C127 O128 1.273 . S
O128 C127 1.273 . S
O129 Zn120 1.977 . S
O129 C122 1.267 . S
C130 O131 1.160 . S
C130 O137 1.185 . S
O131 C130 1.160 . S
O132 Zn133 1.899 . S
O132 C140 1.284 . S
Zn133 O132 1.899 . S
Zn133 O134 2.032 . S
Zn133 O137 2.086 . S
Zn133 O142 1.977 1_554 S
O134 Zn133 2.032 . S
O134 C138 1.278 1_554 S
C135 O136 1.203 . S
C135 O142 1.267 . S
O136 C135 1.203 . S
O137 C130 1.185 . S
O137 Zn133 2.086 . S
C138 O134 1.278 1_556 S
C138 O139 1.211 . S
O139 C138 1.211 . S
C140 O132 1.284 . S
C140 O141 1.273 . S
O141 C140 1.273 . S
O142 Zn133 1.977 1_556 S
O142 C135 1.267 . S
C143 O144 1.160 . S
C143 O150 1.185 . S
O144 C143 1.160 . S
O145 Zn146 1.899 . S
O145 C153 1.284 . S
Zn146 O145 1.899 . S
Zn146 O147 2.032 . S
Zn146 O150 2.086 . S
Zn146 O155 1.977 . S
O147 Zn146 2.032 . S
O147 C151 1.278 . S
C148 O149 1.203 . S
C148 O155 1.267 . S
O149 C148 1.203 . S
O150 C143 1.185 . S
O150 Zn146 2.086 . S
C151 O147 1.278 . S
C151 O152 1.211 . S
O152 C151 1.211 . S
C153 O145 1.284 . S
C153 O154 1.273 . S
O154 C153 1.273 . S
O155 Zn146 1.977 . S
O155 C148 1.267 . S
C156 O157 1.160 . S
C156 O163 1.185 . S
O157 C156 1.160 . S
O158 Zn159 1.899 . S
O158 C166 1.284 . S
Zn159 O158 1.899 . S
Zn159 O160 2.032 . S
Zn159 O163 2.086 . S
Zn159 O168 1.977 . S
O160 Zn159 2.032 . S
O160 C164 1.278 . S
C161 O162 1.203 . S
C161 O168 1.267 . S
O162 C161 1.203 . S
O163 C156 1.185 . S
O163 Zn159 2.086 . S
C164 O160 1.278 . S
C164 O165 1.211 . S
O165 C164 1.211 . S
C166 O158 1.284 . S
C166 O167 1.273 . S
O167 C166 1.273 . S
O168 Zn159 1.977 . S
O168 C161 1.267 . S
C169 O170 1.160 . S
C169 O176 1.185 . S
O170 C169 1.160 . S
O171 Zn172 1.899 . S
O171 C179 1.284 . S
Zn172 O171 1.899 . S
Zn172 O173 2.032 . S
Zn172 O176 2.086 . S
Zn172 O181 1.977 . S
O173 Zn172 2.032 . S
O173 C177 1.278 . S
C174 O175 1.203 . S
C174 O181 1.267 . S
O175 C174 1.203 . S
O176 C169 1.185 . S
O176 Zn172 2.086 . S
C177 O173 1.278 . S
C177 O178 1.211 . S
O178 C177 1.211 . S
C179 O171 1.284 . S
C179 O180 1.273 . S
O180 C179 1.273 . S
O181 Zn172 1.977 . S
O181 C174 1.267 . S
C182 O183 1.160 . S
C182 O189 1.185 1_556 S
O183 C182 1.160 . S
O184 Zn185 1.899 1_556 S
O184 C192 1.284 . S
Zn185 O184 1.899 1_554 S
Zn185 O186 2.032 . S
Zn185 O189 2.086 . S
Zn185 O194 1.977 . S
O186 Zn185 2.032 . S
O186 C190 1.278 . S
C187 O188 1.203 . S
C187 O194 1.267 . S
O188 C187 1.203 . S
O189 C182 1.185 1_554 S
O189 Zn185 2.086 . S
C190 O186 1.278 . S
C190 O191 1.211 . S
O191 C190 1.211 . S
C192 O184 1.284 . S
C192 O193 1.273 . S
O193 C192 1.273 . S
O194 Zn185 1.977 . S
O194 C187 1.267 . S
C195 O196 1.160 . S
C195 O202 1.185 . S
O196 C195 1.160 . S
O197 Zn198 1.899 . S
O197 C205 1.284 . S
Zn198 O197 1.899 . S
Zn198 O199 2.032 . S
Zn198 O202 2.086 . S
Zn198 O207 1.977 . S
O199 Zn198 2.032 . S
O199 C203 1.278 . S
C200 O201 1.203 . S
C200 O207 1.267 . S
O201 C200 1.203 . S
O202 C195 1.185 . S
O202 Zn198 2.086 . S
C203 O199 1.278 . S
C203 O204 1.211 . S
O204 C203 1.211 . S
C205 O197 1.284 . S
C205 O206 1.273 . S
O206 C205 1.273 . S
O207 Zn198 1.977 . S
O207 C200 1.267 . S
C208 C209 1.369 . S
C208 C210 1.419 . S
C208 H212 0.930 . S
C209 C208 1.369 . S
C209 C218 1.429 . S
C210 C208 1.419 . S
C210 C211 1.363 . S
C210 H213 0.929 . S
C211 C210 1.363 . S
C211 C217 1.428 . S
H212 C208 0.930 . S
H213 C210 0.929 . S
S214 N215 1.613 . S
S214 N216 1.610 . S
N215 S214 1.613 . S
N215 C218 1.350 . S
N216 S214 1.610 . S
N216 C217 1.351 . S
C217 C211 1.428 . S
C217 N216 1.351 . S
C217 C218 1.434 . S
C218 C209 1.429 . S
C218 N215 1.350 . S
C218 C217 1.434 . S
C219 C220 1.369 . S
C219 C221 1.419 1_655 S
C219 H223 0.930 . S
C220 C219 1.369 . S
C220 C229 1.429 . S
C221 C219 1.419 1_455 S
C221 C222 1.363 . S
C221 H224 0.929 . S
C222 C221 1.363 . S
C222 C228 1.440 . S
H223 C219 0.930 . S
H224 C221 0.929 . S
S225 N226 1.613 1_455 S
S225 N227 1.610 . S
N226 S225 1.613 1_655 S
N226 C229 1.350 1_565 S
N227 S225 1.610 . S
N227 C228 1.327 1_565 S
C228 C222 1.440 . S
C228 N227 1.327 1_545 S
C228 C229 1.447 1_455 S
C229 C220 1.429 . S
C229 N226 1.350 1_545 S
C229 C228 1.447 1_655 S
C230 C231 1.369 . S
C230 C232 1.419 . S
C230 H234 0.930 . S
C231 C230 1.369 . S
C231 C240 1.429 . S
C232 C230 1.419 . S
C232 C233 1.363 . S
C232 H235 0.929 . S
C233 C232 1.363 . S
C233 C239 1.428 . S
H234 C230 0.930 . S
H235 C232 0.929 . S
S236 N237 1.613 . S
S236 N238 1.610 . S
N237 S236 1.613 . S
N237 C240 1.350 . S
N238 S236 1.610 . S
N238 C239 1.351 . S
C239 C233 1.428 . S
C239 N238 1.351 . S
C239 C240 1.434 . S
C240 C231 1.429 . S
C240 N237 1.350 . S
C240 C239 1.434 . S
C241 C242 1.369 . S
C241 C243 1.419 1_545 S
C241 H245 0.930 1_545 S
C242 C241 1.369 . S
C242 C251 1.429 . S
C243 C241 1.419 1_565 S
C243 C244 1.363 1_564 S
C243 H246 0.929 . S
C244 C243 1.363 1_546 S
C244 C250 1.428 . S
H245 C241 0.930 1_565 S
H246 C243 0.929 . S
S247 N248 1.613 1_556 S
S247 N249 1.610 . S
N248 S247 1.613 1_554 S
N248 C251 1.350 . S
N249 S247 1.610 . S
N249 C250 1.351 . S
C250 C244 1.428 . S
C250 N249 1.351 . S
C250 C251 1.434 1_556 S
C251 C242 1.429 . S
C251 N248 1.350 . S
C251 C250 1.434 1_554 S
C252 C253 1.369 . S
C252 C254 1.419 . S
C252 H256 0.930 . S
C253 C252 1.369 . S
C253 C262 1.429 . S
C254 C252 1.419 . S
C254 C255 1.363 . S
C254 H257 0.929 . S
C255 C254 1.363 . S
C255 C261 1.428 . S
H256 C252 0.930 . S
H257 C254 0.929 . S
S258 N259 1.613 . S
S258 N260 1.610 . S
N259 S258 1.613 . S
N259 C262 1.350 . S
N260 S258 1.610 . S
N260 C261 1.351 . S
C261 C255 1.428 . S
C261 N260 1.351 . S
C261 C262 1.434 . S
C262 C253 1.429 . S
C262 N259 1.350 . S
C262 C261 1.434 . S
C263 C264 1.369 . S
C263 C265 1.419 . S
C263 H267 0.930 . S
C264 C263 1.369 . S
C264 C273 1.429 . S
C265 C263 1.419 . S
C265 C266 1.363 . S
C265 H268 0.929 . S
C266 C265 1.363 . S
C266 C272 1.428 . S
H267 C263 0.930 . S
H268 C265 0.929 . S
S269 N270 1.613 . S
S269 N271 1.610 . S
N270 S269 1.613 . S
N270 C273 1.350 . S
N271 S269 1.610 . S
N271 C272 1.351 . S
C272 C266 1.428 . S
C272 N271 1.351 . S
C272 C273 1.434 . S
C273 C264 1.429 . S
C273 N270 1.350 . S
C273 C272 1.434 . S
C274 C275 1.369 . S
C274 C276 1.419 . S
C274 H278 0.930 . S
C275 C274 1.369 . S
C275 C284 1.429 . S
C276 C274 1.419 . S
C276 C277 1.363 . S
C276 H279 0.929 . S
C277 C276 1.363 . S
C277 C283 1.428 . S
H278 C274 0.930 . S
H279 C276 0.929 . S
S280 N281 1.613 . S
S280 N282 1.610 . S
N281 S280 1.613 . S
N281 C284 1.350 . S
N282 S280 1.610 . S
N282 C283 1.351 . S
C283 C277 1.428 . S
C283 N282 1.351 . S
C283 C284 1.434 . S
C284 C275 1.429 . S
C284 N281 1.350 . S
C284 C283 1.434 . S
C285 C286 1.369 1_655 S
C285 C287 1.419 . S
C285 H289 0.930 . S
C286 C285 1.369 1_455 S
C286 C295 1.429 1_556 S
C287 C285 1.419 . S
C287 C288 1.363 1_556 S
C287 H290 0.929 1_545 S
C288 C287 1.363 1_554 S
C288 C294 1.428 1_655 S
H289 C285 0.930 . S
H290 C287 0.929 1_565 S
S291 N292 1.613 . S
S291 N293 1.610 . S
N292 S291 1.613 . S
N292 C295 1.350 . S
N293 S291 1.610 . S
N293 C294 1.351 . S
C294 C288 1.428 1_455 S
C294 N293 1.351 . S
C294 C295 1.434 . S
C295 C286 1.429 1_554 S
C295 N292 1.350 . S
C295 C294 1.434 . S
C296 C297 1.369 . S
C296 C298 1.419 . S
C296 H300 0.930 . S
C297 C296 1.369 . S
C297 C306 1.429 . S
C298 C296 1.419 . S
C298 C299 1.363 . S
C298 H301 0.929 . S
C299 C298 1.363 . S
C299 C305 1.428 . S
H300 C296 0.930 . S
H301 C298 0.929 . S
S302 N303 1.613 . S
S302 N304 1.610 . S
N303 S302 1.613 . S
N303 C306 1.350 . S
N304 S302 1.610 . S
N304 C305 1.351 . S
C305 C299 1.428 . S
C305 N304 1.351 . S
C305 C306 1.434 . S
C306 C297 1.429 . S
C306 N303 1.350 . S
C306 C305 1.434 . S
C307 C308 1.369 . S
C307 C309 1.419 . S
C307 H311 0.930 . S
C308 C307 1.369 . S
C308 C317 1.429 . S
C309 C307 1.419 . S
C309 C310 1.363 . S
C309 H312 0.929 . S
C310 C309 1.363 . S
C310 C316 1.428 . S
H311 C307 0.930 . S
H312 C309 0.929 . S
S313 N314 1.613 . S
S313 N315 1.610 . S
N314 S313 1.613 . S
N314 C317 1.350 . S
N315 S313 1.610 . S
N315 C316 1.351 . S
C316 C310 1.428 . S
C316 N315 1.351 . S
C316 C317 1.434 . S
C317 C308 1.429 . S
C317 N314 1.350 . S
C317 C316 1.434 . S
C318 C319 1.369 . S
C318 C320 1.419 . S
C318 H322 0.930 . S
C319 C318 1.369 . S
C319 C328 1.429 . S
C320 C318 1.419 . S
C320 C321 1.363 . S
C320 H323 0.929 . S
C321 C320 1.363 . S
C321 C327 1.428 . S
H322 C318 0.930 . S
H323 C320 0.929 . S
S324 N325 1.613 . S
S324 N326 1.610 . S
N325 S324 1.613 . S
N325 C328 1.350 . S
N326 S324 1.610 . S
N326 C327 1.351 . S
C327 C321 1.428 . S
C327 N326 1.351 . S
C327 C328 1.434 . S
C328 C319 1.429 . S
C328 N325 1.350 . S
C328 C327 1.434 . S
C329 C330 1.369 . S
C329 C331 1.419 . S
C329 H333 0.930 . S
C330 C329 1.369 . S
C330 C339 1.429 . S
C331 C329 1.419 . S
C331 C332 1.363 . S
C331 H334 0.929 . S
C332 C331 1.363 . S
C332 C338 1.428 . S
H333 C329 0.930 . S
H334 C331 0.929 . S
S335 N336 1.613 . S
S335 N337 1.610 . S
N336 S335 1.613 . S
N336 C339 1.350 . S
N337 S335 1.610 . S
N337 C338 1.351 . S
C338 C332 1.428 . S
C338 N337 1.351 . S
C338 C339 1.434 . S
C339 C330 1.429 . S
C339 N336 1.350 . S
C339 C338 1.434 . S
C340 C341 1.369 . S
C340 C342 1.419 1_554 S
C340 H344 0.930 . S
C341 C340 1.369 . S
C341 C350 1.429 . S
C342 C340 1.419 1_556 S
C342 C343 1.363 . S
C342 H345 0.929 . S
C343 C342 1.363 . S
C343 C349 1.428 . S
H344 C340 0.930 . S
H345 C342 0.929 . S
S346 N347 1.613 . S
S346 N348 1.610 1_554 S
N347 S346 1.613 . S
N347 C350 1.350 . S
N348 S346 1.610 1_556 S
N348 C349 1.351 . S
C349 C343 1.428 . S
C349 N348 1.351 . S
C349 C350 1.434 1_556 S
C350 C341 1.429 . S
C350 N347 1.350 . S
C350 C349 1.434 1_554 S
C351 C352 1.369 . S
C351 C353 1.419 1_455 S
C351 H355 0.930 . S
C352 C351 1.369 . S
C352 C361 1.429 . S
C353 C351 1.419 1_655 S
C353 C354 1.363 . S
C353 H356 0.929 . S
C354 C353 1.363 . S
C354 C360 1.428 . S
H355 C351 0.930 . S
H356 C353 0.929 . S
S357 N358 1.613 1_655 S
S357 N359 1.610 . S
N358 S357 1.613 1_455 S
N358 C361 1.350 . S
N359 S357 1.610 . S
N359 C360 1.351 . S
C360 C354 1.428 . S
C360 N359 1.351 . S
C360 C361 1.434 1_655 S
C361 C352 1.429 . S
C361 N358 1.350 . S
C361 C360 1.434 1_455 S
C362 C363 1.369 . S
C362 C364 1.419 1_454 S
C362 H366 0.930 . S
C363 C362 1.369 . S
C363 C372 1.429 . S
C364 C362 1.419 1_656 S
C364 C365 1.363 . S
C364 H367 0.929 . S
C365 C364 1.363 . S
C365 C371 1.428 1_556 S
H366 C362 0.930 . S
H367 C364 0.929 . S
S368 N369 1.613 . S
S368 N370 1.610 1_454 S
N369 S368 1.613 . S
N369 C372 1.350 . S
N370 S368 1.610 1_656 S
N370 C371 1.351 1_556 S
C371 C365 1.428 1_554 S
C371 N370 1.351 1_554 S
C371 C372 1.434 1_655 S
C372 C363 1.429 . S
C372 N369 1.350 . S
C372 C371 1.434 1_455 S
C373 C374 1.369 . S
C373 C375 1.419 . S
C373 H377 0.930 . S
C374 C373 1.369 . S
C374 C383 1.429 . S
C375 C373 1.419 . S
C375 C376 1.363 . S
C375 H378 0.929 . S
C376 C375 1.363 . S
C376 C382 1.428 . S
H377 C373 0.930 . S
H378 C375 0.929 . S
S379 N380 1.613 . S
S379 N381 1.610 . S
N380 S379 1.613 . S
N380 C383 1.350 . S
N381 S379 1.610 . S
N381 C382 1.351 . S
C382 C376 1.428 . S
C382 N381 1.351 . S
C382 C383 1.434 . S
C383 C374 1.429 . S
C383 N380 1.350 . S
C383 C382 1.434 . S
C384 C385 1.369 . S
C384 C386 1.419 . S
C384 H388 0.930 . S
C385 C384 1.369 . S
C385 C394 1.429 . S
C386 C384 1.419 . S
C386 C387 1.363 . S
C386 H389 0.929 . S
C387 C386 1.363 . S
C387 C393 1.428 . S
H388 C384 0.930 . S
H389 C386 0.929 . S
S390 N391 1.613 1_556 S
S390 N392 1.610 . S
N391 S390 1.613 1_554 S
N391 C394 1.350 . S
N392 S390 1.610 . S
N392 C393 1.351 1_556 S
C393 C387 1.428 . S
C393 N392 1.351 1_554 S
C393 C394 1.434 . S
C394 C385 1.429 . S
C394 N391 1.350 . S
C394 C393 1.434 . S
C395 C396 1.369 . S
C395 C397 1.419 . S
C395 H399 0.930 . S
C396 C395 1.369 . S
C396 C405 1.429 . S
C397 C395 1.419 . S
C397 C398 1.363 . S
C397 H400 0.929 . S
C398 C397 1.363 . S
C398 C404 1.428 . S
H399 C395 0.930 . S
H400 C397 0.929 . S
S401 N402 1.613 . S
S401 N403 1.610 . S
N402 S401 1.613 . S
N402 C405 1.350 . S
N403 S401 1.610 . S
N403 C404 1.351 . S
C404 C398 1.428 . S
C404 N403 1.351 . S
C404 C405 1.434 . S
C405 C396 1.429 . S
C405 N402 1.350 . S
C405 C404 1.434 . S
C406 C407 1.369 . S
C406 C408 1.419 . S
C406 H410 0.930 . S
C407 C406 1.369 . S
C407 C416 1.429 . S
C408 C406 1.419 . S
C408 C409 1.363 . S
C408 H411 0.929 . S
C409 C408 1.363 . S
C409 C415 1.428 . S
H410 C406 0.930 . S
H411 C408 0.929 . S
S412 N413 1.613 . S
S412 N414 1.610 . S
N413 S412 1.613 . S
N413 C416 1.350 . S
N414 S412 1.610 . S
N414 C415 1.351 . S
C415 C409 1.428 . S
C415 N414 1.351 . S
C415 C416 1.434 . S
C416 C407 1.429 . S
C416 N413 1.350 . S
C416 C415 1.434 . S
C417 C418 1.369 . S
C417 C419 1.419 . S
C417 H421 0.930 . S
C418 C417 1.369 . S
C418 C427 1.429 . S
C419 C417 1.419 . S
C419 C420 1.363 . S
C419 H422 0.929 . S
C420 C419 1.363 . S
C420 C426 1.428 . S
H421 C417 0.930 . S
H422 C419 0.929 . S
S423 N424 1.613 . S
S423 N425 1.610 1_554 S
N424 S423 1.613 . S
N424 C427 1.350 1_554 S
N425 S423 1.610 1_556 S
N425 C426 1.351 . S
C426 C420 1.428 . S
C426 N425 1.351 . S
C426 C427 1.434 . S
C427 C418 1.429 . S
C427 N424 1.350 1_556 S
C427 C426 1.434 . S
C428 C429 1.369 . S
C428 C430 1.419 . S
C428 H432 0.930 . S
C429 C428 1.369 . S
C429 C438 1.429 . S
C430 C428 1.419 . S
C430 C431 1.363 . S
C430 H433 0.929 . S
C431 C430 1.363 . S
C431 C437 1.428 . S
H432 C428 0.930 . S
H433 C430 0.929 . S
S434 N435 1.613 . S
S434 N436 1.610 . S
N435 S434 1.613 . S
N435 C438 1.350 . S
N436 S434 1.610 . S
N436 C437 1.351 . S
C437 C431 1.428 . S
C437 N436 1.351 . S
C437 C438 1.434 . S
C438 C429 1.429 . S
C438 N435 1.350 . S
C438 C437 1.434 . S
C439 C440 1.369 . S
C439 C441 1.419 . S
C439 H443 0.930 . S
C440 C439 1.369 . S
C440 C449 1.429 . S
C441 C439 1.419 . S
C441 C442 1.363 . S
C441 H444 0.929 . S
C442 C441 1.363 . S
C442 C448 1.428 . S
H443 C439 0.930 . S
H444 C441 0.929 . S
S445 N446 1.613 . S
S445 N447 1.610 . S
N446 S445 1.613 . S
N446 C449 1.350 . S
N447 S445 1.610 . S
N447 C448 1.351 . S
C448 C442 1.428 . S
C448 N447 1.351 . S
C448 C449 1.434 . S
C449 C440 1.429 . S
C449 N446 1.350 . S
C449 C448 1.434 . S
C450 C451 1.369 . S
C450 C452 1.419 . S
C450 H454 0.930 . S
C451 C450 1.369 . S
C451 C460 1.429 . S
C452 C450 1.419 . S
C452 C453 1.363 . S
C452 H455 0.929 . S
C453 C452 1.363 . S
C453 C459 1.428 . S
H454 C450 0.930 . S
H455 C452 0.929 . S
S456 N457 1.613 . S
S456 N458 1.610 . S
N457 S456 1.613 . S
N457 C460 1.350 . S
N458 S456 1.610 . S
N458 C459 1.351 . S
C459 C453 1.428 . S
C459 N458 1.351 . S
C459 C460 1.434 . S
C460 C451 1.429 . S
C460 N457 1.350 . S
C460 C459 1.434 . S
C461 C462 1.369 . S
C461 C463 1.419 . S
C461 H465 0.930 . S
C462 C461 1.369 . S
C462 C471 1.429 . S
C463 C461 1.419 . S
C463 C464 1.363 . S
C463 H466 0.929 . S
C464 C463 1.363 . S
C464 C470 1.428 . S
H465 C461 0.930 . S
H466 C463 0.929 . S
S467 N468 1.613 . S
S467 N469 1.610 . S
N468 S467 1.613 . S
N468 C471 1.350 . S
N469 S467 1.610 . S
N469 C470 1.351 . S
C470 C464 1.428 . S
C470 N469 1.351 . S
C470 C471 1.434 . S
C471 C462 1.429 . S
C471 N468 1.350 . S
C471 C470 1.434 . S
C472 C473 1.369 . S
C472 C474 1.419 . S
C472 H476 0.930 . S
C473 C472 1.369 . S
C473 C482 1.429 . S
C474 C472 1.419 . S
C474 C475 1.363 . S
C474 H477 0.929 . S
C475 C474 1.363 . S
C475 C481 1.428 . S
H476 C472 0.930 . S
H477 C474 0.929 . S
S478 N479 1.613 . S
S478 N480 1.610 1_554 S
N479 S478 1.613 . S
N479 C482 1.350 1_554 S
N480 S478 1.610 1_556 S
N480 C481 1.351 . S
C481 C475 1.428 . S
C481 N480 1.351 . S
C481 C482 1.434 . S
C482 C473 1.429 . S
C482 N479 1.350 1_556 S
C482 C481 1.434 . S
C483 C484 1.369 . S
C483 C485 1.419 . S
C483 H487 0.930 . S
C484 C483 1.369 . S
C484 C493 1.429 . S
C485 C483 1.419 . S
C485 C486 1.363 . S
C485 H488 0.929 . S
C486 C485 1.363 . S
C486 C492 1.428 . S
H487 C483 0.930 . S
H488 C485 0.929 . S
S489 N490 1.613 . S
S489 N491 1.610 . S
N490 S489 1.613 . S
N490 C493 1.350 . S
N491 S489 1.610 . S
N491 C492 1.351 . S
C492 C486 1.428 . S
C492 N491 1.351 . S
C492 C493 1.434 . S
C493 C484 1.429 . S
C493 N490 1.350 . S
C493 C492 1.434 . S
C494 C495 1.369 . S
C494 C496 1.419 . S
C494 H498 0.930 . S
C495 C494 1.369 . S
C495 C504 1.429 . S
C496 C494 1.419 . S
C496 C497 1.363 . S
C496 H499 0.929 . S
C497 C496 1.363 . S
C497 C503 1.428 . S
H498 C494 0.930 . S
H499 C496 0.929 . S
S500 N501 1.613 . S
S500 N502 1.610 . S
N501 S500 1.613 . S
N501 C504 1.350 . S
N502 S500 1.610 . S
N502 C503 1.351 . S
C503 C497 1.428 . S
C503 N502 1.351 . S
C503 C504 1.434 . S
C504 C495 1.429 . S
C504 N501 1.350 . S
C504 C503 1.434 . S
C505 C506 1.369 . S
C505 C507 1.419 . S
C505 H509 0.930 . S
C506 C505 1.369 . S
C506 C515 1.429 . S
C507 C505 1.419 . S
C507 C508 1.363 . S
C507 H510 0.929 . S
C508 C507 1.363 . S
C508 C514 1.428 . S
H509 C505 0.930 . S
H510 C507 0.929 . S
S511 N512 1.613 . S
S511 N513 1.610 . S
N512 S511 1.613 . S
N512 C515 1.350 . S
N513 S511 1.610 . S
N513 C514 1.351 . S
C514 C508 1.428 . S
C514 N513 1.351 . S
C514 C515 1.434 . S
C515 C506 1.429 . S
C515 N512 1.350 . S
C515 C514 1.434 . S
C516 C517 1.369 . S
C516 C518 1.419 . S
C516 H520 0.930 . S
C517 C516 1.369 . S
C517 C526 1.429 . S
C518 C516 1.419 . S
C518 C519 1.363 . S
C518 H521 0.929 . S
C519 C518 1.363 . S
C519 C525 1.428 . S
H520 C516 0.930 . S
H521 C518 0.929 . S
S522 N523 1.613 . S
S522 N524 1.610 . S
N523 S522 1.613 . S
N523 C526 1.350 . S
N524 S522 1.610 . S
N524 C525 1.351 . S
C525 C519 1.428 . S
C525 N524 1.351 . S
C525 C526 1.434 . S
C526 C517 1.429 . S
C526 N523 1.350 . S
C526 C525 1.434 . S
C527 C528 1.369 . S
C527 C529 1.419 . S
C527 H531 0.930 . S
C528 C527 1.369 . S
C528 C537 1.429 . S
C529 C527 1.419 . S
C529 C530 1.363 . S
C529 H532 0.929 . S
C530 C529 1.363 . S
C530 C536 1.428 . S
H531 C527 0.930 . S
H532 C529 0.929 . S
S533 N534 1.613 . S
S533 N535 1.610 . S
N534 S533 1.613 . S
N534 C537 1.350 . S
N535 S533 1.610 . S
N535 C536 1.351 . S
C536 C530 1.428 . S
C536 N535 1.351 . S
C536 C537 1.434 . S
C537 C528 1.429 . S
C537 N534 1.350 . S
C537 C536 1.434 . S
C538 C539 1.369 . S
C538 C540 1.419 . S
C538 H542 0.930 . S
C539 C538 1.369 . S
C539 C548 1.429 . S
C540 C538 1.419 . S
C540 C541 1.363 . S
C540 H543 0.929 . S
C541 C540 1.363 . S
C541 C547 1.428 . S
H542 C538 0.930 . S
H543 C540 0.929 . S
S544 N545 1.613 . S
S544 N546 1.610 . S
N545 S544 1.613 . S
N545 C548 1.350 . S
N546 S544 1.610 . S
N546 C547 1.351 . S
C547 C541 1.428 . S
C547 N546 1.351 . S
C547 C548 1.434 . S
C548 C539 1.429 . S
C548 N545 1.350 . S
C548 C547 1.434 . S
C549 C550 1.369 . S
C549 C551 1.419 . S
C549 H553 0.930 1_556 S
C550 C549 1.369 . S
C550 C559 1.429 . S
C551 C549 1.419 . S
C551 C552 1.363 . S
C551 H554 0.929 . S
C552 C551 1.363 . S
C552 C558 1.428 . S
H553 C549 0.930 1_554 S
H554 C551 0.929 . S
S555 N556 1.613 . S
S555 N557 1.610 . S
N556 S555 1.613 . S
N556 C559 1.350 . S
N557 S555 1.610 . S
N557 C558 1.351 . S
C558 C552 1.428 . S
C558 N557 1.351 . S
C558 C559 1.434 . S
C559 C550 1.429 . S
C559 N556 1.350 . S
C559 C558 1.434 . S
C209 C10 1.408 . S
C211 C166 1.405 . S
C220 C18 1.142 . S
C222 C70 1.157 . S
C231 C36 1.408 . S
C233 C192 1.405 . S
C242 C96 1.158 . S
C244 C44 1.144 . S
C253 C187 1.142 . S
C255 C31 1.156 . S
C264 C101 1.406 . S
C266 C49 1.406 . S
C275 C161 1.157 . S
C277 C5 1.144 . S
C286 C75 1.407 . S
C288 C23 1.405 . S
C297 C62 1.408 . S
C299 C114 1.405 . S
C308 C88 1.407 . S
C310 C140 1.405 . S
C319 C135 1.158 . S
C321 C83 1.145 . S
C330 C57 1.158 . S
C332 C109 1.144 . S
C341 C174 1.143 . S
C343 C122 1.155 . S
C352 C148 1.156 . S
C354 C200 1.146 . S
C363 C153 1.405 . S
C365 C205 1.407 . S
C374 C127 1.406 . S
C376 C179 1.407 . S
C385 C143 1.440 . S
C387 C0 1.449 . S
C396 C112 1.480 . S
C398 C21 1.472 . S
C407 C26 1.445 . S
C409 C117 1.446 . S
C418 C138 1.481 . S
C420 C47 1.471 . S
C429 C151 1.471 . S
C431 C34 1.477 . S
C440 C39 1.446 . S
C442 C104 1.445 . S
C451 C125 1.473 . S
C453 C8 1.478 . S
C462 C130 1.441 . S
C464 C13 1.449 . S
C473 C52 1.448 . S
C475 C195 1.442 . S
C484 C164 1.480 . S
C486 C73 1.471 . S
C495 C78 1.441 . S
C497 C169 1.449 . S
C506 C99 1.480 . S
C508 C190 1.471 . S
C517 C86 1.471 . S
C519 C203 1.477 . S
C528 C156 1.444 . S
C530 C91 1.446 . S
C539 C177 1.481 . S
C541 C60 1.472 . S
C550 C182 1.440 . S
C552 C65 1.449 . S
