# Generated by pormake.
# Topology wfa, (4)-cn, num edge types: 1
# Building blocks:
#     Node 0, Type 0, BuildingBlock: ICAMEG_clean_sbu_1, # of connection points: 4
#     Node 1, Type 0, BuildingBlock: ICAMEG_clean_sbu_1, # of connection points: 4
#     Node 2, Type 0, BuildingBlock: ICAMEG_clean_sbu_1, # of connection points: 4
#     Node 3, Type 0, BuildingBlock: ICAMEG_clean_sbu_1, # of connection points: 4
#     Node 4, Type 0, BuildingBlock: ICAMEG_clean_sbu_1, # of connection points: 4
#     Node 5, Type 0, BuildingBlock: ICAMEG_clean_sbu_1, # of connection points: 4
#     Node 6, Type 0, BuildingBlock: ICAMEG_clean_sbu_1, # of connection points: 4
#     Node 7, Type 0, BuildingBlock: ICAMEG_clean_sbu_1, # of connection points: 4
#     Node 8, Type 0, BuildingBlock: ICAMEG_clean_sbu_1, # of connection points: 4
#     Node 9, Type 0, BuildingBlock: ICAMEG_clean_sbu_1, # of connection points: 4
#     Node 10, Type 0, BuildingBlock: ICAMEG_clean_sbu_1, # of connection points: 4
#     Node 11, Type 0, BuildingBlock: ICAMEG_clean_sbu_1, # of connection points: 4
#     Node 12, Type 0, BuildingBlock: ICAMEG_clean_sbu_1, # of connection points: 4
#     Node 13, Type 0, BuildingBlock: ICAMEG_clean_sbu_1, # of connection points: 4
#     Node 14, Type 0, BuildingBlock: ICAMEG_clean_sbu_1, # of connection points: 4
#     Node 15, Type 0, BuildingBlock: ICAMEG_clean_sbu_1, # of connection points: 4
#     Edge 16, Type (0, 0), BuildingBlock: ZUJKAS_clean_linker_0, # of connection points: 2
#     Edge 17, Type (0, 0), BuildingBlock: ZUJKAS_clean_linker_0, # of connection points: 2
#     Edge 18, Type (0, 0), BuildingBlock: ZUJKAS_clean_linker_0, # of connection points: 2
#     Edge 19, Type (0, 0), BuildingBlock: ZUJKAS_clean_linker_0, # of connection points: 2
#     Edge 20, Type (0, 0), BuildingBlock: ZUJKAS_clean_linker_0, # of connection points: 2
#     Edge 21, Type (0, 0), BuildingBlock: ZUJKAS_clean_linker_0, # of connection points: 2
#     Edge 22, Type (0, 0), BuildingBlock: ZUJKAS_clean_linker_0, # of connection points: 2
#     Edge 23, Type (0, 0), BuildingBlock: ZUJKAS_clean_linker_0, # of connection points: 2
#     Edge 24, Type (0, 0), BuildingBlock: ZUJKAS_clean_linker_0, # of connection points: 2
#     Edge 25, Type (0, 0), BuildingBlock: ZUJKAS_clean_linker_0, # of connection points: 2
#     Edge 26, Type (0, 0), BuildingBlock: ZUJKAS_clean_linker_0, # of connection points: 2
#     Edge 27, Type (0, 0), BuildingBlock: ZUJKAS_clean_linker_0, # of connection points: 2
#     Edge 28, Type (0, 0), BuildingBlock: ZUJKAS_clean_linker_0, # of connection points: 2
#     Edge 29, Type (0, 0), BuildingBlock: ZUJKAS_clean_linker_0, # of connection points: 2
#     Edge 30, Type (0, 0), BuildingBlock: ZUJKAS_clean_linker_0, # of connection points: 2
#     Edge 31, Type (0, 0), BuildingBlock: ZUJKAS_clean_linker_0, # of connection points: 2
#     Edge 32, Type (0, 0), BuildingBlock: ZUJKAS_clean_linker_0, # of connection points: 2
#     Edge 33, Type (0, 0), BuildingBlock: ZUJKAS_clean_linker_0, # of connection points: 2
#     Edge 34, Type (0, 0), BuildingBlock: ZUJKAS_clean_linker_0, # of connection points: 2
#     Edge 35, Type (0, 0), BuildingBlock: ZUJKAS_clean_linker_0, # of connection points: 2
#     Edge 36, Type (0, 0), BuildingBlock: ZUJKAS_clean_linker_0, # of connection points: 2
#     Edge 37, Type (0, 0), BuildingBlock: ZUJKAS_clean_linker_0, # of connection points: 2
#     Edge 38, Type (0, 0), BuildingBlock: ZUJKAS_clean_linker_0, # of connection points: 2
#     Edge 39, Type (0, 0), BuildingBlock: ZUJKAS_clean_linker_0, # of connection points: 2
#     Edge 40, Type (0, 0), BuildingBlock: ZUJKAS_clean_linker_0, # of connection points: 2
#     Edge 41, Type (0, 0), BuildingBlock: ZUJKAS_clean_linker_0, # of connection points: 2
#     Edge 42, Type (0, 0), BuildingBlock: ZUJKAS_clean_linker_0, # of connection points: 2
#     Edge 43, Type (0, 0), BuildingBlock: ZUJKAS_clean_linker_0, # of connection points: 2
#     Edge 44, Type (0, 0), BuildingBlock: ZUJKAS_clean_linker_0, # of connection points: 2
#     Edge 45, Type (0, 0), BuildingBlock: ZUJKAS_clean_linker_0, # of connection points: 2
#     Edge 46, Type (0, 0), BuildingBlock: ZUJKAS_clean_linker_0, # of connection points: 2
#     Edge 47, Type (0, 0), BuildingBlock: ZUJKAS_clean_linker_0, # of connection points: 2
# Relax obj value: 0.088
# Max RMSD: 0.208
# Mean RMSD: 0.183
data_MOF--net-wfa--node1-ICAMEG_clean_sbu_1--edge1-ZUJKAS_clean_linker_0
_symmetry_space_group_name_H-M    P1
_symmetry_Int_Tables_number       1
_symmetry_cell_setting            triclinic
loop_
_symmetry_equiv_pos_as_xyz
'x, y, z'
_cell_length_a     61.402709
_cell_length_b     61.406067
_cell_length_c     33.887875
_cell_angle_alpha  89.117662
_cell_angle_beta   89.113624
_cell_angle_gamma 89.008507
loop_
_atom_site_label
_atom_site_type_symbol
_atom_site_fract_x
_atom_site_fract_y
_atom_site_fract_z
_atom_type_partial_charge
Co0 Co 0.64973 0.97503 0.09264 0.0
Co1 Co 0.65683 0.01926 0.02976 0.0
O2 O 0.66672 0.99202 0.05445 0.0
C3 C 0.68971 0.98546 0.13426 0.0
O4 O 0.68685 0.0052 0.11968 0.0
C5 C 0.66849 0.99097 0.9625 0.0
O6 O 0.65647 0.97581 0.97916 0.0
O7 O 0.62847 0.00639 0.01596 0.0
O8 O 0.62266 0.97976 0.0611 0.0
H9 H 0.60358 0.08029 1.00099 0.0
H10 H 0.69075 0.95634 0.05941 0.0
O11 O 0.67642 0.97054 0.12577 0.0
H12 H 0.63311 0.90634 0.02065 0.0
H13 H 0.63768 0.91214 0.18699 0.0
H14 H 0.60585 0.97961 0.12985 0.0
H15 H 0.6242 0.93861 0.06067 0.0
H16 H 0.65837 0.93391 0.13792 0.0
O17 O 0.66998 0.00951 0.97849 0.0
H18 H 0.61625 0.04614 0.03304 0.0
H19 H 0.67688 0.05008 0.97149 0.0
H20 H 0.58453 0.95827 0.17858 0.0
H21 H 0.70042 0.92419 0.01957 0.0
H22 H 0.60045 0.92426 0.2075 0.0
H23 H 0.67147 0.89896 0.99986 0.0
O24 O 0.64203 0.00135 0.12352 0.0
H25 H 0.73835 0.02082 0.04048 0.0
H26 H 0.66939 0.06043 0.06834 0.0
H27 H 0.70414 0.07631 0.08802 0.0
H28 H 0.73894 0.05647 0.07408 0.0
H29 H 0.70323 0.00543 0.02164 0.0
H30 H 0.66481 0.08421 0.93856 0.0
H31 H 0.62795 0.09957 0.95337 0.0
O32 O 0.64361 0.02951 0.0805 0.0
C33 C 0.61643 0.99204 0.03247 0.0
C34 C 0.61971 0.0738 0.99439 0.0
C35 C 0.65406 0.07598 0.95931 0.0
N36 N 0.64735 0.04623 0.00438 0.0
C37 C 0.627 0.0545 0.01253 0.0
C38 C 0.66079 0.05663 0.97799 0.0
C39 C 0.63338 0.0846 0.96765 0.0
C40 C 0.67811 0.94532 0.05124 0.0
N41 N 0.65697 0.94925 0.06252 0.0
C42 C 0.68366 0.92719 0.02856 0.0
C43 C 0.6674 0.91306 0.01746 0.0
C44 C 0.64587 0.9172 0.02909 0.0
C45 C 0.64092 0.93551 0.05169 0.0
C46 C 0.63055 0.9269 0.17453 0.0
C47 C 0.61283 0.96475 0.14209 0.0
C48 C 0.64219 0.9393 0.14678 0.0
N49 N 0.63323 0.95788 0.13078 0.0
C50 C 0.60071 0.95277 0.16977 0.0
C51 C 0.60966 0.93371 0.18601 0.0
C52 C 0.63924 0.02143 0.11454 0.0
C53 C 0.7233 0.02965 0.0466 0.0
C54 C 0.68446 0.05168 0.06222 0.0
C55 C 0.70409 0.06077 0.07337 0.0
C56 C 0.72361 0.04964 0.06551 0.0
N57 N 0.68429 0.03207 0.04368 0.0
C58 C 0.70337 0.02107 0.03583 0.0
Co59 Co 0.53284 0.64783 0.08797 0.0
Co60 Co 0.48896 0.6573 0.02716 0.0
O61 O 0.5162 0.6658 0.05084 0.0
C62 C 0.52307 0.68798 0.13105 0.0
O63 O 0.50314 0.68576 0.1185 0.0
C64 C 0.51744 0.66862 0.95875 0.0
O65 O 0.53251 0.65583 0.97422 0.0
O66 O 0.50167 0.62855 0.0118 0.0
O67 O 0.52753 0.62107 0.05661 0.0
H68 H 0.42758 0.60691 0.9996 0.0
H69 H 0.5524 0.68785 0.05395 0.0
O70 O 0.53788 0.67426 0.12085 0.0
H71 H 0.60116 0.62756 0.01219 0.0
H72 H 0.59548 0.63227 0.17878 0.0
H73 H 0.52741 0.60416 0.12527 0.0
H74 H 0.56869 0.62036 0.05385 0.0
H75 H 0.57411 0.65419 0.13103 0.0
O76 O 0.49888 0.67063 0.97577 0.0
H77 H 0.46177 0.61782 0.03039 0.0
H78 H 0.45839 0.67921 0.97111 0.0
H79 H 0.54835 0.58164 0.17269 0.0
H80 H 0.58477 0.69582 0.0125 0.0
H81 H 0.58266 0.59568 0.19978 0.0
H82 H 0.60937 0.66553 0.99127 0.0
O83 O 0.50635 0.64146 0.12021 0.0
H84 H 0.48798 0.73868 0.04104 0.0
H85 H 0.44779 0.67111 0.0682 0.0
H86 H 0.43214 0.70626 0.08998 0.0
H87 H 0.45227 0.74037 0.07639 0.0
H88 H 0.50314 0.70317 0.02011 0.0
H89 H 0.42423 0.6689 0.93946 0.0
H90 H 0.40857 0.63255 0.95377 0.0
O91 O 0.4785 0.64394 0.07803 0.0
C92 C 0.51547 0.61561 0.02809 0.0
C93 C 0.4342 0.62282 0.99323 0.0
C94 C 0.43234 0.65761 0.95943 0.0
N95 N 0.46197 0.64919 0.00279 0.0
C96 C 0.45352 0.62911 0.01066 0.0
C97 C 0.4517 0.66333 0.97738 0.0
C98 C 0.42356 0.63721 0.96749 0.0
C99 C 0.56315 0.67462 0.04511 0.0
N100 N 0.55875 0.65369 0.05647 0.0
C101 C 0.5814 0.67922 0.02152 0.0
C102 C 0.59518 0.66221 0.00958 0.0
C103 C 0.59057 0.6409 0.02128 0.0
C104 C 0.57215 0.63692 0.0448 0.0
C105 C 0.58059 0.62596 0.16711 0.0
C106 C 0.5424 0.61032 0.13671 0.0
C107 C 0.56841 0.6383 0.14012 0.0
N108 N 0.54965 0.63037 0.12511 0.0
C109 C 0.55415 0.59752 0.16365 0.0
C110 C 0.57339 0.60542 0.17887 0.0
C111 C 0.48633 0.63929 0.11185 0.0
C112 C 0.47902 0.72394 0.04702 0.0
C113 C 0.45667 0.68588 0.06222 0.0
C114 C 0.4477 0.70573 0.07456 0.0
C115 C 0.459 0.72487 0.06691 0.0
N116 N 0.47631 0.6851 0.04271 0.0
C117 C 0.48748 0.70379 0.03507 0.0
Co118 Co 0.85037 0.53469 0.08071 0.0
Co119 Co 0.84381 0.49089 0.01954 0.0
O120 O 0.83373 0.51801 0.04343 0.0
C121 C 0.8101 0.52426 0.12408 0.0
O122 O 0.81331 0.5045 0.11074 0.0
C123 C 0.83205 0.51936 0.95136 0.0
O124 O 0.84385 0.53466 0.96662 0.0
O125 O 0.87229 0.50387 0.00424 0.0
O126 O 0.87786 0.52971 0.04921 0.0
H127 H 0.89728 0.42997 0.99167 0.0
H128 H 0.80998 0.55397 0.04724 0.0
O129 O 0.82323 0.53931 0.11392 0.0
H130 H 0.86873 0.60341 0.00547 0.0
H131 H 0.86171 0.59717 0.17213 0.0
H132 H 0.89367 0.52955 0.11781 0.0
H133 H 0.87675 0.57088 0.04673 0.0
H134 H 0.8415 0.57575 0.12421 0.0
O135 O 0.83087 0.50074 0.96829 0.0
H136 H 0.88438 0.46399 0.02267 0.0
H137 H 0.82418 0.46025 0.96325 0.0
H138 H 0.91451 0.55054 0.16539 0.0
H139 H 0.80119 0.58639 0.00619 0.0
H140 H 0.89852 0.58462 0.19289 0.0
H141 H 0.8307 0.61134 0.98497 0.0
O142 O 0.85742 0.5082 0.11263 0.0
H143 H 0.76224 0.48914 0.03345 0.0
H144 H 0.8311 0.44951 0.06025 0.0
H145 H 0.79627 0.43348 0.0819 0.0
H146 H 0.76152 0.45333 0.06849 0.0
H147 H 0.79743 0.50469 0.01268 0.0
H148 H 0.83649 0.42625 0.93139 0.0
H149 H 0.87326 0.41085 0.94566 0.0
O150 O 0.85674 0.48045 0.07026 0.0
C151 C 0.88437 0.5177 0.02073 0.0
C152 C 0.8812 0.43648 0.9853 0.0
C153 C 0.8471 0.43441 0.95143 0.0
N154 N 0.8535 0.46402 0.99498 0.0
C155 C 0.87378 0.45571 0.00284 0.0
C156 C 0.84023 0.45369 0.96949 0.0
C157 C 0.86772 0.42578 0.95946 0.0
C158 C 0.82286 0.56487 0.0384 0.0
N159 N 0.84382 0.56063 0.04952 0.0
C160 C 0.81781 0.58315 0.01504 0.0
C161 C 0.83438 0.59712 0.00309 0.0
C162 C 0.85572 0.59268 0.01456 0.0
C163 C 0.86018 0.57422 0.03786 0.0
C164 C 0.86887 0.58238 0.16028 0.0
C165 C 0.88667 0.54445 0.12942 0.0
C166 C 0.8575 0.57018 0.13319 0.0
N167 N 0.8665 0.55155 0.11794 0.0
C168 C 0.89852 0.55623 0.15645 0.0
C169 C 0.88953 0.57533 0.1719 0.0
C170 C 0.86053 0.48823 0.1041 0.0
C171 C 0.77727 0.4803 0.03936 0.0
C172 C 0.81605 0.45827 0.05436 0.0
C173 C 0.79637 0.44909 0.06662 0.0
C174 C 0.77688 0.46022 0.05907 0.0
N175 N 0.8163 0.47797 0.03503 0.0
C176 C 0.79724 0.48898 0.02749 0.0
Co177 Co 0.97485 0.85105 0.08613 0.0
Co178 Co 0.01991 0.84358 0.02525 0.0
O179 O 0.99254 0.83402 0.04916 0.0
C180 C 0.98481 0.81036 0.12912 0.0
O181 O 0.0048 0.81279 0.11574 0.0
C182 C 0.99254 0.83261 0.95747 0.0
O183 O 0.97706 0.84488 0.97313 0.0
O184 O 0.00676 0.87229 0.00984 0.0
O185 O 0.97985 0.87828 0.05437 0.0
H186 H 0.08052 0.89582 0.99722 0.0
H187 H 0.95698 0.81092 0.05267 0.0
O188 O 0.97 0.82416 0.11945 0.0
H189 H 0.90718 0.87037 0.01036 0.0
H190 H 0.91046 0.86384 0.17705 0.0
H191 H 0.97857 0.89439 0.12275 0.0
H192 H 0.93874 0.87795 0.05188 0.0
H193 H 0.9331 0.84307 0.12949 0.0
O194 O 0.01099 0.83082 0.97402 0.0
H195 H 0.04616 0.88362 0.02828 0.0
H196 H 0.05173 0.82332 0.9689 0.0
H197 H 0.95635 0.91579 0.16996 0.0
H198 H 0.92554 0.80258 0.01135 0.0
H199 H 0.92202 0.90051 0.19745 0.0
H200 H 0.90042 0.83245 0.98985 0.0
O201 O 1.00068 0.85767 0.11815 0.0
H202 H 0.02274 0.76196 0.03909 0.0
H203 H 0.06077 0.83011 0.06607 0.0
H204 H 0.07699 0.79498 0.08772 0.0
H205 H 0.05794 0.76059 0.07423 0.0
H206 H 0.00698 0.79745 0.0183 0.0
H207 H 0.08608 0.83493 0.93697 0.0
H208 H 0.10073 0.87139 0.9512 0.0
O209 O 0.0293 0.85638 0.07604 0.0
C210 C 0.99222 0.88452 0.02587 0.0
C211 C 0.07434 0.87987 0.99088 0.0
C212 C 0.07745 0.84571 0.95702 0.0
N213 N 0.04704 0.85272 1.00064 0.0
C214 C 0.05492 0.87285 0.00846 0.0
C215 C 0.05796 0.83924 0.97512 0.0
C216 C 0.08566 0.86616 0.96503 0.0
C217 C 0.94599 0.82396 0.04372 0.0
N218 N 0.94959 0.84486 0.05484 0.0
C219 C 0.92827 0.81916 0.0202 0.0
C220 C 0.9142 0.83593 0.0081 0.0
C221 C 0.91799 0.85721 0.01958 0.0
C222 C 0.9359 0.86141 0.04303 0.0
C223 C 0.92536 0.87069 0.1652 0.0
C224 C 0.96358 0.8877 0.13437 0.0
C225 C 0.93826 0.859 0.13832 0.0
N226 N 0.95702 0.86761 0.12309 0.0
C227 C 0.9511 0.89986 0.16119 0.0
C228 C 0.93185 0.89127 0.17663 0.0
C229 C 0.02078 0.86039 0.10981 0.0
C230 C 0.03122 0.77684 0.04503 0.0
C231 C 0.05236 0.81522 0.06014 0.0
C232 C 0.06165 0.79537 0.07241 0.0
C233 C 0.05096 0.77608 0.0648 0.0
N234 N 0.033 0.81583 0.04076 0.0
C235 C 0.02244 0.79697 0.03315 0.0
Co236 Co 0.15018 0.02707 0.41313 0.0
Co237 Co 0.15715 0.9824 0.47512 0.0
O238 O 0.16702 0.00951 0.45059 0.0
C239 C 0.19084 0.01653 0.37045 0.0
O240 O 0.18825 0.99663 0.38416 0.0
C241 C 0.16853 0.01004 0.54237 0.0
O242 O 0.15666 0.0257 0.52629 0.0
O243 O 0.12858 0.99596 0.49021 0.0
O244 O 0.12288 0.02252 0.44489 0.0
H245 H 0.10422 0.92255 0.50432 0.0
H246 H 0.19043 0.04486 0.44629 0.0
O247 O 0.17714 0.03148 0.37982 0.0
H248 H 0.13134 0.09545 0.48719 0.0
H249 H 0.13799 0.0909 0.32066 0.0
H250 H 0.10683 0.02345 0.37651 0.0
H251 H 0.12354 0.06364 0.44643 0.0
H252 H 0.15853 0.06844 0.36881 0.0
O253 O 0.16998 0.99147 0.52619 0.0
H254 H 0.11682 0.95657 0.47256 0.0
H255 H 0.17704 0.95072 0.53216 0.0
H256 H 0.08565 0.04549 0.32872 0.0
H257 H 0.19899 0.07654 0.48684 0.0
H258 H 0.10123 0.07949 0.30045 0.0
H259 H 0.16931 0.10206 0.50764 0.0
O260 O 0.14335 0.00108 0.38166 0.0
H261 H 0.23875 0.97863 0.4614 0.0
H262 H 0.1702 0.94112 0.43526 0.0
H263 H 0.20516 0.92438 0.41401 0.0
H264 H 0.23976 0.94317 0.42709 0.0
H265 H 0.20342 0.99489 0.4818 0.0
H266 H 0.16503 0.91671 0.56479 0.0
H267 H 0.1284 0.90237 0.55081 0.0
O268 O 0.14428 0.97282 0.42457 0.0
C269 C 0.11649 0.01047 0.47371 0.0
C270 C 0.12024 0.92859 0.51056 0.0
C271 C 0.15435 0.92533 0.54454 0.0
N272 N 0.1477 0.95553 0.50029 0.0
C273 C 0.12749 0.94782 0.49259 0.0
C274 C 0.16105 0.94462 0.52605 0.0
C275 C 0.13381 0.91729 0.53667 0.0
C276 C 0.17747 0.05602 0.45492 0.0
N277 N 0.15654 0.0525 0.44384 0.0
C278 C 0.1824 0.07387 0.47801 0.0
C279 C 0.16573 0.08817 0.48972 0.0
C280 C 0.14442 0.08446 0.47828 0.0
C281 C 0.1401 0.06641 0.45526 0.0
C282 C 0.131 0.07615 0.33285 0.0
C283 C 0.11365 0.0383 0.36455 0.0
C284 C 0.14257 0.06336 0.36006 0.0
N285 N 0.1338 0.04477 0.3757 0.0
C286 C 0.10162 0.05068 0.3374 0.0
C287 C 0.11038 0.06974 0.32152 0.0
C288 C 0.14039 0.98108 0.39057 0.0
C289 C 0.22379 0.97025 0.45565 0.0
C290 C 0.18518 0.94941 0.441 0.0
C291 C 0.20493 0.93983 0.42897 0.0
C292 C 0.22434 0.95037 0.43634 0.0
N293 N 0.18477 0.96892 0.45993 0.0
C294 C 0.20374 0.97933 0.46731 0.0
Co295 Co 0.46611 0.15035 0.42165 0.0
Co296 Co 0.51015 0.158 0.4818 0.0
O297 O 0.48257 0.16739 0.45869 0.0
C298 C 0.47477 0.19127 0.37894 0.0
O299 O 0.49461 0.18898 0.39241 0.0
C300 C 0.4819 0.16909 0.55065 0.0
O301 O 0.46676 0.15697 0.53573 0.0
O302 O 0.49801 0.1292 0.49738 0.0
O303 O 0.4722 0.12291 0.45272 0.0
H304 H 0.5725 0.10598 0.508 0.0
H305 H 0.44583 0.18999 0.45606 0.0
O306 O 0.46036 0.17738 0.38877 0.0
H307 H 0.39863 0.12954 0.49847 0.0
H308 H 0.40333 0.13721 0.33179 0.0
H309 H 0.47238 0.10734 0.3839 0.0
H310 H 0.43106 0.12269 0.45627 0.0
H311 H 0.42444 0.15798 0.37937 0.0
O312 O 0.50038 0.17065 0.53333 0.0
H313 H 0.53795 0.11808 0.47794 0.0
H314 H 0.54076 0.17838 0.53723 0.0
H315 H 0.45172 0.08596 0.33665 0.0
H316 H 0.41348 0.19762 0.49806 0.0
H317 H 0.41693 0.10089 0.31026 0.0
H318 H 0.38966 0.16724 0.51961 0.0
O319 O 0.49254 0.14434 0.38894 0.0
H320 H 0.50978 0.23964 0.46835 0.0
H321 H 0.55083 0.1718 0.43993 0.0
H322 H 0.56581 0.20705 0.41803 0.0
H323 H 0.54524 0.2413 0.43225 0.0
H324 H 0.49529 0.20404 0.48935 0.0
H325 H 0.57529 0.16688 0.56815 0.0
H326 H 0.59142 0.13047 0.55347 0.0
O327 O 0.52053 0.14538 0.43074 0.0
C328 C 0.48448 0.11673 0.48104 0.0
C329 C 0.56568 0.12191 0.51454 0.0
C330 C 0.56722 0.15608 0.54834 0.0
N331 N 0.53743 0.14897 0.50559 0.0
C332 C 0.54614 0.12887 0.49752 0.0
C333 C 0.54765 0.16249 0.53081 0.0
C334 C 0.57627 0.13565 0.54008 0.0
C335 C 0.43541 0.17673 0.46505 0.0
N336 N 0.44022 0.15595 0.45358 0.0
C337 C 0.41718 0.18113 0.48894 0.0
C338 C 0.40384 0.16408 0.50107 0.0
C339 C 0.40887 0.14291 0.48924 0.0
C340 C 0.42727 0.13912 0.46541 0.0
C341 C 0.41844 0.13051 0.34316 0.0
C342 C 0.45717 0.11388 0.37278 0.0
C343 C 0.43047 0.1422 0.37006 0.0
N344 N 0.4495 0.13377 0.38469 0.0
C345 C 0.44558 0.10173 0.34593 0.0
C346 C 0.42607 0.11013 0.3311 0.0
C347 C 0.51263 0.14167 0.39696 0.0
C348 C 0.51893 0.22484 0.46209 0.0
C349 C 0.54176 0.18662 0.44617 0.0
C350 C 0.55035 0.20654 0.43377 0.0
C351 C 0.53881 0.22575 0.44178 0.0
N352 N 0.52225 0.18586 0.46608 0.0
C353 C 0.51085 0.20463 0.47409 0.0
Co354 Co 0.35335 0.46829 0.41537 0.0
Co355 Co 0.34321 0.51191 0.47651 0.0
O356 O 0.33512 0.48454 0.45272 0.0
C357 C 0.31271 0.47716 0.37311 0.0
O358 O 0.31425 0.49705 0.38626 0.0
C359 C 0.33215 0.48321 0.54478 0.0
O360 O 0.34491 0.46818 0.5291 0.0
O361 O 0.37211 0.49959 0.49188 0.0
O362 O 0.38003 0.47407 0.44666 0.0
H363 H 0.39272 0.57397 0.50433 0.0
H364 H 0.31377 0.44791 0.44947 0.0
O365 O 0.32702 0.46277 0.38253 0.0
H366 H 0.37503 0.40025 0.49068 0.0
H367 H 0.37006 0.40609 0.32414 0.0
H368 H 0.39683 0.47466 0.37791 0.0
H369 H 0.38154 0.43293 0.44917 0.0
H370 H 0.34778 0.42694 0.37213 0.0
O371 O 0.33004 0.50179 0.52788 0.0
H372 H 0.3823 0.53965 0.47343 0.0
H373 H 0.32084 0.54216 0.53259 0.0
H374 H 0.4197 0.45427 0.33024 0.0
H375 H 0.30648 0.41532 0.49077 0.0
H376 H 0.40634 0.41971 0.30302 0.0
H377 H 0.33727 0.39127 0.51172 0.0
O378 O 0.35912 0.49494 0.38322 0.0
H379 H 0.26182 0.51176 0.46276 0.0
H380 H 0.32882 0.55289 0.43552 0.0
H381 H 0.29345 0.56806 0.41379 0.0
H382 H 0.25964 0.54745 0.42741 0.0
H383 H 0.29754 0.4971 0.48364 0.0
H384 H 0.33065 0.57643 0.56436 0.0
H385 H 0.36679 0.5926 0.55016 0.0
O386 O 0.35644 0.52261 0.42572 0.0
C387 C 0.38528 0.48608 0.47538 0.0
C388 C 0.37689 0.56712 0.51066 0.0
C389 C 0.34207 0.56849 0.54439 0.0
N390 N 0.35092 0.539 0.50097 0.0
C391 C 0.37088 0.54773 0.49316 0.0
C392 C 0.33662 0.54906 0.52638 0.0
C393 C 0.36235 0.57756 0.5364 0.0
C394 C 0.32721 0.4374 0.45818 0.0
N395 N 0.34803 0.44222 0.44676 0.0
C396 C 0.323 0.41902 0.48169 0.0
C397 C 0.34028 0.40555 0.49348 0.0
C398 C 0.36148 0.41059 0.48171 0.0
C399 C 0.36507 0.42913 0.45827 0.0
C400 C 0.37608 0.4211 0.33587 0.0
C401 C 0.39097 0.45956 0.36641 0.0
C402 C 0.36353 0.43298 0.363 0.0
N403 N 0.37109 0.45188 0.37807 0.0
C404 C 0.40396 0.44812 0.33933 0.0
C405 C 0.39644 0.42875 0.32403 0.0
C406 C 0.36111 0.51494 0.39179 0.0
C407 C 0.27644 0.52093 0.45677 0.0
C408 C 0.31418 0.54381 0.44151 0.0
C409 C 0.2942 0.5525 0.4292 0.0
C410 C 0.27523 0.54093 0.43688 0.0
N411 N 0.31523 0.52417 0.461 0.0
C412 C 0.2967 0.51276 0.4687 0.0
Co413 Co 0.02631 0.3508 0.41212 0.0
Co414 Co 0.98137 0.34545 0.47391 0.0
O415 O 0.0085 0.33462 0.45021 0.0
C416 C 0.01472 0.31113 0.37076 0.0
O417 O 0.99495 0.31505 0.38439 0.0
C418 C 0.00888 0.33351 0.54205 0.0
O419 O 0.02455 0.34475 0.52515 0.0
O420 O 0.99493 0.37352 0.48726 0.0
O421 O 0.02218 0.37824 0.44292 0.0
H422 H 0.92166 0.40063 0.4997 0.0
H423 H 0.04346 0.30945 0.44666 0.0
O424 O 0.03016 0.32371 0.37976 0.0
H425 H 0.09494 0.36573 0.4856 0.0
H426 H 0.09031 0.36011 0.31919 0.0
H427 H 0.02346 0.39452 0.37378 0.0
H428 H 0.06326 0.37538 0.44454 0.0
H429 H 0.06747 0.3405 0.36812 0.0
O430 O 0.99036 0.33249 0.52582 0.0
H431 H 0.95568 0.38673 0.46887 0.0
H432 H 0.94953 0.32677 0.5319 0.0
H433 H 0.0459 0.41478 0.32518 0.0
H434 H 0.075 0.29904 0.48754 0.0
H435 H 0.07959 0.39756 0.29755 0.0
H436 H 0.10096 0.32731 0.50735 0.0
O437 O 1.00048 0.35914 0.3804 0.0
H438 H 0.97766 0.26396 0.46515 0.0
H439 H 0.94013 0.33372 0.43468 0.0
H440 H 0.92345 0.29928 0.41545 0.0
H441 H 0.94225 0.26408 0.4307 0.0
H442 H 0.99386 0.29878 0.48353 0.0
H443 H 0.91551 0.34007 0.56363 0.0
H444 H 0.90132 0.37722 0.54746 0.0
O445 O 0.97187 0.35851 0.42254 0.0
C446 C 0.00978 0.38503 0.47098 0.0
C447 C 0.92763 0.38438 0.50688 0.0
C448 C 0.9242 0.35041 0.54281 0.0
N449 N 0.95448 0.3559 0.49833 0.0
C450 C 0.94685 0.3764 0.48944 0.0
C451 C 0.94349 0.34298 0.52481 0.0
C452 C 0.91624 0.37125 0.53371 0.0
C453 C 0.05481 0.32179 0.45487 0.0
N454 N 0.05162 0.34296 0.44307 0.0
C455 C 0.07259 0.31582 0.47815 0.0
C456 C 0.08713 0.3317 0.48929 0.0
C457 C 0.08375 0.35326 0.47712 0.0
C458 C 0.06578 0.35863 0.45394 0.0
C459 C 0.0757 0.36781 0.3311 0.0
C460 C 0.03819 0.38698 0.36211 0.0
C461 C 0.06269 0.35678 0.35876 0.0
N462 N 0.04428 0.36645 0.37406 0.0
C463 C 0.05078 0.39851 0.3345 0.0
C464 C 0.06968 0.38883 0.31897 0.0
C465 C 0.98039 0.36247 0.38867 0.0
C466 C 0.96928 0.2792 0.45846 0.0
C467 C 0.94842 0.31847 0.44139 0.0
C468 C 0.93888 0.29902 0.43048 0.0
C469 C 0.94943 0.27928 0.43907 0.0
N470 N 0.9679 0.31826 0.4604 0.0
C471 C 0.97832 0.29896 0.46896 0.0
Co472 Co 0.35243 0.02674 0.90892 0.0
Co473 Co 0.34541 0.98217 0.97104 0.0
O474 O 0.33552 0.00957 0.94696 0.0
C475 C 0.31235 0.01659 0.86741 0.0
O476 O 0.31517 0.99681 0.88182 0.0
C477 C 0.33405 0.01017 0.03883 0.0
O478 O 0.34604 0.02537 0.02224 0.0
O479 O 0.37387 0.99486 0.98473 0.0
O480 O 0.37958 0.02178 0.94015 0.0
H481 H 0.39857 0.92082 0.99813 0.0
H482 H 0.31155 0.04532 0.94282 0.0
O483 O 0.32567 0.03145 0.87606 0.0
H484 H 0.36938 0.09498 0.982 0.0
H485 H 0.36435 0.0901 0.81557 0.0
H486 H 0.3962 0.02227 0.87124 0.0
H487 H 0.37813 0.06293 0.94132 0.0
H488 H 0.34375 0.06812 0.86444 0.0
O489 O 0.33248 0.99169 0.02265 0.0
H490 H 0.3859 0.95518 0.96683 0.0
H491 H 0.32548 0.95111 0.02902 0.0
H492 H 0.41743 0.04384 0.82271 0.0
H493 H 0.30204 0.07727 0.98332 0.0
H494 H 0.4015 0.07802 0.79453 0.0
H495 H 0.33109 0.10232 0.00324 0.0
O496 O 0.35996 1.00057 0.87751 0.0
H497 H 0.26384 0.98092 0.96135 0.0
H498 H 0.33256 0.94126 0.9319 0.0
H499 H 0.29769 0.9256 0.91239 0.0
H500 H 0.263 0.94547 0.92714 0.0
H501 H 0.29908 0.9961 0.97999 0.0
H502 H 0.33755 0.91677 0.06121 0.0
H503 H 0.37432 0.90137 0.04569 0.0
O504 O 0.35839 0.97214 0.91994 0.0
C505 C 0.38588 0.00931 0.96845 0.0
C506 C 0.38249 0.92733 0.00503 0.0
C507 C 0.34825 0.92507 0.04047 0.0
N508 N 0.3549 0.95504 0.99584 0.0
C509 C 0.3752 0.94674 0.98732 0.0
C510 C 0.34152 0.94454 0.02222 0.0
C511 C 0.36888 0.91643 0.03174 0.0
C512 C 0.32423 0.05628 0.95109 0.0
N513 N 0.34533 0.05236 0.93955 0.0
C514 C 0.31877 0.07428 0.97414 0.0
C515 C 0.33509 0.08831 0.98536 0.0
C516 C 0.35658 0.0842 0.97347 0.0
C517 C 0.36144 0.06601 0.9505 0.0
C518 C 0.37149 0.07527 0.82771 0.0
C519 C 0.38922 0.03721 0.85932 0.0
C520 C 0.35989 0.06274 0.85534 0.0
N521 N 0.36886 0.04405 0.87094 0.0
C522 C 0.40129 0.04931 0.83176 0.0
C523 C 0.39234 0.06848 0.81593 0.0
C524 C 0.36266 0.98042 0.886 0.0
C525 C 0.27884 0.97208 0.95487 0.0
C526 C 0.31754 0.95003 0.93836 0.0
C527 C 0.29784 0.94105 0.92731 0.0
C528 C 0.27838 0.9522 0.93562 0.0
N529 N 0.31786 0.96953 0.95724 0.0
C530 C 0.29884 0.98054 0.96553 0.0
Co531 Co 0.46845 0.35464 0.91462 0.0
Co532 Co 0.51192 0.34457 0.9761 0.0
O533 O 0.48461 0.33645 0.95215 0.0
C534 C 0.47731 0.31394 0.87255 0.0
O535 O 0.49719 0.31545 0.88577 0.0
C536 C 0.4831 0.33345 0.04421 0.0
O537 O 0.46806 0.34617 0.02845 0.0
O538 O 0.49955 0.37348 0.99134 0.0
O539 O 0.47421 0.38135 0.94579 0.0
H540 H 0.57391 0.39412 0.00419 0.0
H541 H 0.44794 0.31515 0.9488 0.0
O542 O 0.46293 0.32828 0.88189 0.0
H543 H 0.4003 0.37655 0.98942 0.0
H544 H 0.40643 0.3713 0.82295 0.0
H545 H 0.47495 0.39805 0.87697 0.0
H546 H 0.43306 0.38295 0.94807 0.0
H547 H 0.42716 0.34907 0.87118 0.0
O548 O 0.50172 0.33141 0.02743 0.0
H549 H 0.53966 0.38367 0.97309 0.0
H550 H 0.54207 0.32225 0.03243 0.0
H551 H 0.45468 0.42087 0.82906 0.0
H552 H 0.41525 0.30798 0.98994 0.0
H553 H 0.42015 0.40752 0.80171 0.0
H554 H 0.39121 0.33883 0.01059 0.0
O555 O 0.49516 0.36031 0.88258 0.0
H556 H 0.51185 0.26318 0.96248 0.0
H557 H 0.553 0.33017 0.93541 0.0
H558 H 0.56823 0.2948 0.91385 0.0
H559 H 0.54761 0.26099 0.92738 0.0
H560 H 0.49712 0.2989 0.98319 0.0
H561 H 0.57628 0.33211 0.06439 0.0
H562 H 0.59246 0.36824 0.05021 0.0
O563 O 0.52272 0.35777 0.92534 0.0
C564 C 0.48612 0.38664 0.97461 0.0
C565 C 0.56706 0.3783 0.01051 0.0
C566 C 0.56837 0.34351 0.04434 0.0
N567 N 0.53896 0.35231 1.00071 0.0
C568 C 0.5477 0.37227 0.99291 0.0
C569 C 0.54898 0.33804 0.02622 0.0
C570 C 0.57744 0.36378 0.03636 0.0
C571 C 0.43743 0.32862 0.95738 0.0
N572 N 0.44231 0.34941 0.94589 0.0
C573 C 0.419 0.32448 0.9808 0.0
C574 C 0.40554 0.3418 0.99242 0.0
C575 C 0.41063 0.36297 0.98058 0.0
C576 C 0.42922 0.3665 0.95723 0.0
C577 C 0.42143 0.37732 0.83473 0.0
C578 C 0.45986 0.39219 0.86541 0.0
C579 C 0.43324 0.36479 0.86199 0.0
N580 N 0.45213 0.37235 0.87714 0.0
C581 C 0.44849 0.40516 0.83819 0.0
C582 C 0.42913 0.39764 0.82283 0.0
C583 C 0.51514 0.36234 0.8913 0.0
C584 C 0.52102 0.27779 0.95653 0.0
C585 C 0.54391 0.31553 0.94136 0.0
C586 C 0.55264 0.29555 0.92915 0.0
C587 C 0.54107 0.27658 0.93678 0.0
N588 N 0.52423 0.31659 0.96072 0.0
C589 C 0.51281 0.29805 0.96836 0.0
Co590 Co 0.14952 0.46607 0.92249 0.0
Co591 Co 0.1567 0.5102 0.98268 0.0
O592 O 0.1663 0.48262 0.9598 0.0
C593 C 0.19061 0.47484 0.88041 0.0
O594 O 0.18824 0.49467 0.89388 0.0
C595 C 0.16752 0.48198 0.05173 0.0
O596 O 0.15557 0.46678 0.03656 0.0
O597 O 0.12782 0.49802 0.99769 0.0
O598 O 0.12193 0.47207 0.95311 0.0
H599 H 0.10446 0.57255 0.00761 0.0
H600 H 0.18906 0.44597 0.95759 0.0
O601 O 0.17673 0.4604 0.89006 0.0
H602 H 0.12861 0.39855 0.99909 0.0
H603 H 0.1371 0.4032 0.8325 0.0
H604 H 0.10669 0.47215 0.88405 0.0
H605 H 0.12184 0.43092 0.95672 0.0
H606 H 0.15753 0.4244 0.88039 0.0
O607 O 0.16905 0.50048 0.03449 0.0
H608 H 0.11679 0.53797 0.97788 0.0
H609 H 0.17666 0.54085 0.03854 0.0
H610 H 0.08563 0.45139 0.83647 0.0
H611 H 0.19661 0.41368 0.99979 0.0
H612 H 0.10083 0.41664 0.81036 0.0
H613 H 0.16624 0.38976 0.02088 0.0
O614 O 0.14359 0.49247 0.88964 0.0
H615 H 0.23842 0.50998 0.97096 0.0
H616 H 0.17069 0.55088 0.94105 0.0
H617 H 0.20605 0.56592 0.91989 0.0
H618 H 0.24024 0.54542 0.93486 0.0
H619 H 0.20271 0.49542 0.9912 0.0
H620 H 0.16492 0.57539 0.06915 0.0
H621 H 0.12861 0.5915 0.05361 0.0
O622 O 0.1444 0.52052 0.93132 0.0
C623 C 0.11552 0.48439 0.98121 0.0
C624 C 0.12035 0.56573 0.01452 0.0
C625 C 0.15427 0.56731 0.0491 0.0
N626 N 0.14748 0.53749 0.00625 0.0
C627 C 0.12744 0.54618 0.99769 0.0
C628 C 0.16081 0.54772 0.03175 0.0
C629 C 0.1339 0.57634 0.04036 0.0
C630 C 0.17581 0.43551 0.96638 0.0
N631 N 0.15507 0.44023 0.95456 0.0
C632 C 0.18016 0.41731 0.99039 0.0
C633 C 0.1631 0.40391 0.00226 0.0
C634 C 0.14199 0.40884 0.99006 0.0
C635 C 0.13824 0.42721 0.96614 0.0
C636 C 0.13027 0.41828 0.84374 0.0
C637 C 0.11334 0.45697 0.87305 0.0
C638 C 0.14178 0.43037 0.87082 0.0
N639 N 0.13321 0.44937 0.88529 0.0
C640 C 0.10138 0.44532 0.84601 0.0
C641 C 0.10993 0.42583 0.83134 0.0
C642 C 0.14088 0.51257 0.89751 0.0
C643 C 0.22364 0.51909 0.96437 0.0
C644 C 0.18549 0.54184 0.94762 0.0
C645 C 0.20547 0.55046 0.93563 0.0
C646 C 0.22464 0.53896 0.94406 0.0
N647 N 0.18463 0.52234 0.96752 0.0
C648 C 0.20337 0.51098 0.97594 0.0
Co649 Co 0.02607 0.15023 0.91826 0.0
Co650 Co 0.98128 0.15639 0.98045 0.0
O651 O 0.00838 0.1666 0.95628 0.0
C652 C 0.01507 0.19114 0.87667 0.0
O653 O 0.99529 0.18846 0.89092 0.0
C654 C 0.00935 0.16688 0.0475 0.0
O655 O 0.02517 0.15619 0.02937 0.0
O656 O 0.99476 0.12757 0.99387 0.0
O657 O 0.02184 0.12261 0.94929 0.0
H658 H 0.92134 0.10318 0.00685 0.0
H659 H 0.04357 0.1904 0.95219 0.0
O660 O 0.03015 0.17747 0.88555 0.0
H661 H 0.09469 0.13148 0.99166 0.0
H662 H 0.08988 0.13942 0.8252 0.0
H663 H 0.02276 0.1072 0.88035 0.0
H664 H 0.06292 0.12369 0.95081 0.0
H665 H 0.06731 0.15933 0.87404 0.0
O666 O 0.99048 0.16814 0.03238 0.0
H667 H 0.95534 0.11623 0.97568 0.0
H668 H 0.94974 0.17535 0.03876 0.0
H669 H 0.04494 0.08664 0.83185 0.0
H670 H 0.0752 0.19896 0.99287 0.0
H671 H 0.07876 0.10276 0.80392 0.0
H672 H 0.10098 0.16936 0.01295 0.0
O673 O 1.0001 0.14346 0.88674 0.0
H674 H 0.97778 0.23816 0.97162 0.0
H675 H 0.93998 0.17031 0.94153 0.0
H676 H 0.92333 0.20569 0.92245 0.0
H677 H 0.94226 0.23993 0.93752 0.0
H678 H 0.99395 0.20243 0.98984 0.0
H679 H 0.91574 0.16287 0.07085 0.0
H680 H 0.90129 0.12658 0.05482 0.0
O681 O 0.97158 0.14449 0.92911 0.0
C682 C 0.00955 0.11581 0.97745 0.0
C683 C 0.92743 0.11906 0.01398 0.0
C684 C 0.92431 0.15255 0.04995 0.0
N685 N 0.95442 0.14659 0.00517 0.0
C686 C 0.94664 0.12656 0.99634 0.0
C687 C 0.94358 0.1595 0.03175 0.0
C688 C 0.9162 0.13218 0.04093 0.0
C689 C 0.05485 0.17749 0.9605 0.0
N690 N 0.05149 0.15661 0.94899 0.0
C691 C 0.07267 0.18241 0.98366 0.0
C692 C 0.08711 0.16578 0.99498 0.0
C693 C 0.08358 0.14453 0.98306 0.0
C694 C 0.06555 0.1402 0.96 0.0
C695 C 0.07521 0.1322 0.83723 0.0
C696 C 0.03755 0.11425 0.86855 0.0
C697 C 0.06235 0.14341 0.86484 0.0
N698 N 0.04386 0.13434 0.8803 0.0
C699 C 0.05 0.10257 0.841 0.0
C700 C 0.06896 0.11163 0.82531 0.0
C701 C 0.98 0.14075 0.89516 0.0
C702 C 0.96934 0.22335 0.965 0.0
C703 C 0.94833 0.18514 0.94814 0.0
C704 C 0.93881 0.20512 0.93733 0.0
C705 C 0.94943 0.22433 0.94582 0.0
N706 N 0.96786 0.18431 0.96698 0.0
C707 C 0.97837 0.20308 0.97543 0.0
Co708 Co 0.85166 0.97625 0.58737 0.0
Co709 Co 0.8442 0.0212 0.52623 0.0
O710 O 0.83465 0.99384 0.55023 0.0
C711 C 0.81087 0.98611 0.63016 0.0
O712 O 0.81323 0.00611 0.61677 0.0
C713 C 0.83338 0.99371 0.45851 0.0
O714 O 0.84565 0.97827 0.47428 0.0
O715 O 0.87298 0.0081 0.51103 0.0
O716 O 0.87891 0.98127 0.55574 0.0
H717 H 0.89633 0.08191 0.49829 0.0
H718 H 0.81164 0.95824 0.55375 0.0
O719 O 0.82474 0.97136 0.62056 0.0
H720 H 0.87127 0.90851 0.51202 0.0
H721 H 0.86451 0.91204 0.67866 0.0
H722 H 0.89494 0.98015 0.62416 0.0
H723 H 0.8787 0.94014 0.55345 0.0
H724 H 0.84375 0.93454 0.63089 0.0
O725 O 0.83154 0.01218 0.47497 0.0
H726 H 0.88416 0.04757 0.52942 0.0
H727 H 0.82398 0.05287 0.46957 0.0
H728 H 0.91632 0.95808 0.67159 0.0
H729 H 0.80344 0.92672 0.51252 0.0
H730 H 0.90112 0.92374 0.69918 0.0
H731 H 0.83341 0.90164 0.4913 0.0
O732 O 0.85818 0.00214 0.61931 0.0
H733 H 0.76255 0.02386 0.5396 0.0
H734 H 0.83056 0.0621 0.56675 0.0
H735 H 0.79536 0.07829 0.58809 0.0
H736 H 0.76103 0.05914 0.57451 0.0
H737 H 0.79811 0.00814 0.51912 0.0
H738 H 0.83557 0.08721 0.43756 0.0
H739 H 0.87195 0.10198 0.45198 0.0
O740 O 0.85689 0.03068 0.57704 0.0
C741 C 0.88519 0.9936 0.52723 0.0
C742 C 0.88041 0.07568 0.49186 0.0
C743 C 0.84632 0.07863 0.45773 0.0
N744 N 0.85332 0.04831 0.50154 0.0
C745 C 0.8734 0.05627 0.50948 0.0
C746 C 0.83987 0.05916 0.47588 0.0
C747 C 0.86673 0.08692 0.46585 0.0
C748 C 0.82471 0.94726 0.54493 0.0
N749 N 0.84559 0.95093 0.55616 0.0
C750 C 0.82 0.9295 0.52146 0.0
C751 C 0.83682 0.91545 0.50952 0.0
C752 C 0.85808 0.91931 0.52111 0.0
C753 C 0.86219 0.93726 0.54451 0.0
C754 C 0.87134 0.92694 0.66677 0.0
C755 C 0.88827 0.96516 0.63582 0.0
C756 C 0.85964 0.93975 0.63977 0.0
N757 N 0.86821 0.95852 0.62449 0.0
C758 C 0.90043 0.95276 0.66277 0.0
C759 C 0.89188 0.93351 0.67827 0.0
C760 C 0.86087 0.02224 0.61087 0.0
C761 C 0.7774 0.03239 0.54558 0.0
C762 C 0.8157 0.05364 0.56079 0.0
C763 C 0.79581 0.06291 0.57288 0.0
C764 C 0.77656 0.05217 0.56522 0.0
N765 N 0.81639 0.03424 0.54152 0.0
C766 C 0.79757 0.02363 0.53387 0.0
Co767 Co 0.53627 0.85132 0.58177 0.0
Co768 Co 0.49307 0.84441 0.51914 0.0
O769 O 0.52029 0.83466 0.54335 0.0
C770 C 0.52685 0.81009 0.62314 0.0
O771 O 0.50723 0.81236 0.60866 0.0
C772 C 0.52251 0.83354 0.45172 0.0
O773 O 0.53815 0.84355 0.46976 0.0
O774 O 0.5054 0.87339 0.50553 0.0
O775 O 0.53088 0.87902 0.55111 0.0
H776 H 0.43113 0.89688 0.49258 0.0
H777 H 0.55697 0.81175 0.54781 0.0
O778 O 0.54136 0.82404 0.6143 0.0
H779 H 0.60508 0.87216 0.50904 0.0
H780 H 0.59765 0.86338 0.67529 0.0
H781 H 0.52963 0.89405 0.62032 0.0
H782 H 0.57198 0.87897 0.54951 0.0
H783 H 0.57722 0.84312 0.62605 0.0
O784 O 0.50349 0.83275 0.46717 0.0
H785 H 0.46522 0.88428 0.52369 0.0
H786 H 0.46324 0.8249 0.46128 0.0
H787 H 0.54962 0.91493 0.66924 0.0
H788 H 0.58999 0.80416 0.50756 0.0
H789 H 0.58389 0.8996 0.69707 0.0
H790 H 0.61427 0.83452 0.48783 0.0
O791 O 0.50938 0.85729 0.61327 0.0
H792 H 0.49348 0.76265 0.52858 0.0
H793 H 0.45182 0.82995 0.55825 0.0
H794 H 0.43663 0.79437 0.57766 0.0
H795 H 0.45751 0.7604 0.5628 0.0
H796 H 0.50816 0.79857 0.51003 0.0
H797 H 0.42919 0.83692 0.42926 0.0
H798 H 0.41287 0.87312 0.44498 0.0
O799 O 0.48194 0.85623 0.57032 0.0
C800 C 0.51888 0.88557 0.52264 0.0
C801 C 0.43804 0.88104 0.48558 0.0
C802 C 0.43697 0.8474 0.45 0.0
N803 N 0.46613 0.85382 0.49452 0.0
C804 C 0.45731 0.87379 0.50318 0.0
C805 C 0.45627 0.84071 0.46816 0.0
C806 C 0.42782 0.86771 0.45884 0.0
C807 C 0.56758 0.82499 0.53965 0.0
N808 N 0.56263 0.84575 0.55112 0.0
C809 C 0.5862 0.82062 0.51672 0.0
C810 C 0.59979 0.83767 0.50561 0.0
C811 C 0.59464 0.85879 0.51747 0.0
C812 C 0.57585 0.86256 0.5403 0.0
C813 C 0.58277 0.87026 0.66329 0.0
C814 C 0.54462 0.88734 0.63207 0.0
C815 C 0.57112 0.85885 0.63545 0.0
N816 N 0.55238 0.8675 0.62004 0.0
C817 C 0.55583 0.89921 0.65987 0.0
C818 C 0.57504 0.89059 0.6755 0.0
C819 C 0.48939 0.85986 0.60447 0.0
C820 C 0.4842 0.77733 0.5351 0.0
C821 C 0.46102 0.81524 0.55173 0.0
C822 C 0.45231 0.79514 0.56273 0.0
C823 C 0.46403 0.77608 0.55436 0.0
N824 N 0.48081 0.81633 0.53283 0.0
C825 C 0.49238 0.79772 0.52448 0.0
Co826 Co 0.647 0.53353 0.5867 0.0
Co827 Co 0.65624 0.48983 0.52517 0.0
O828 O 0.66476 0.51717 0.5487 0.0
C829 C 0.68798 0.52435 0.62782 0.0
O830 O 0.6864 0.50453 0.61433 0.0
C831 C 0.66683 0.51886 0.45714 0.0
O832 O 0.65568 0.53437 0.47497 0.0
O833 O 0.62712 0.50217 0.51134 0.0
O834 O 0.61996 0.52806 0.55621 0.0
H835 H 0.60615 0.42787 0.49997 0.0
H836 H 0.68648 0.55372 0.55184 0.0
O837 O 0.67364 0.53879 0.61883 0.0
H838 H 0.62525 0.60187 0.5123 0.0
H839 H 0.63163 0.59573 0.67862 0.0
H840 H 0.60382 0.52744 0.62548 0.0
H841 H 0.6188 0.56916 0.55375 0.0
H842 H 0.6533 0.57478 0.6299 0.0
O843 O 0.66841 0.49994 0.47294 0.0
H844 H 0.61715 0.46215 0.53032 0.0
H845 H 0.67763 0.45958 0.4679 0.0
H846 H 0.58155 0.54795 0.67389 0.0
H847 H 0.69371 0.58635 0.5106 0.0
H848 H 0.59544 0.58236 0.7008 0.0
H849 H 0.66294 0.61064 0.49048 0.0
O850 O 0.64133 0.50689 0.6189 0.0
H851 H 0.73784 0.49001 0.53443 0.0
H852 H 0.67131 0.4488 0.5652 0.0
H853 H 0.70704 0.43363 0.58492 0.0
H854 H 0.74063 0.45428 0.56953 0.0
H855 H 0.70176 0.50467 0.51557 0.0
H856 H 0.66723 0.42535 0.43664 0.0
H857 H 0.63128 0.40923 0.45275 0.0
O858 O 0.64388 0.47908 0.57667 0.0
C859 C 0.61428 0.51593 0.52797 0.0
C860 C 0.62188 0.43469 0.49281 0.0
C861 C 0.65615 0.43329 0.45722 0.0
N862 N 0.64807 0.46276 0.50113 0.0
C863 C 0.62823 0.45406 0.50999 0.0
C864 C 0.66194 0.4527 0.47495 0.0
C865 C 0.63598 0.42425 0.46629 0.0
C866 C 0.67305 0.56435 0.54351 0.0
N867 N 0.65227 0.55962 0.55532 0.0
C868 C 0.67723 0.58274 0.52003 0.0
C869 C 0.65995 0.59634 0.50869 0.0
C870 C 0.6388 0.59142 0.5209 0.0
C871 C 0.63523 0.57286 0.54429 0.0
C872 C 0.62538 0.58079 0.66703 0.0
C873 C 0.60991 0.54248 0.63684 0.0
C874 C 0.63759 0.56885 0.63949 0.0
N875 N 0.62973 0.55003 0.62459 0.0
C876 C 0.59725 0.55398 0.66434 0.0
C877 C 0.60507 0.57328 0.67946 0.0
C878 C 0.63947 0.48683 0.61064 0.0
C879 C 0.72333 0.48083 0.54119 0.0
C880 C 0.68585 0.4579 0.55843 0.0
C881 C 0.70604 0.44921 0.56961 0.0
C882 C 0.72488 0.4608 0.56094 0.0
N883 N 0.68447 0.47755 0.53906 0.0
C884 C 0.70287 0.48899 0.5304 0.0
Co885 Co 0.97542 0.64907 0.59125 0.0
Co886 Co 0.01966 0.65651 0.52851 0.0
O887 O 0.99231 0.66617 0.5531 0.0
C888 C 0.98546 0.68915 0.63287 0.0
O889 O 0.00524 0.68645 0.61834 0.0
C890 C 0.99129 0.66791 0.46125 0.0
O891 O 0.97625 0.65576 0.47793 0.0
O892 O 0.00706 0.62802 0.51471 0.0
O893 O 0.98043 0.62202 0.55976 0.0
H894 H 0.0812 0.6038 0.49999 0.0
H895 H 0.95643 0.68991 0.5579 0.0
O896 O 0.97067 0.67574 0.62433 0.0
H897 H 0.90698 0.63182 0.51902 0.0
H898 H 0.91254 0.63652 0.6854 0.0
H899 H 0.98034 0.60525 0.62854 0.0
H900 H 0.93927 0.6232 0.55918 0.0
H901 H 0.93418 0.65737 0.63637 0.0
O902 O 0.00983 0.66956 0.4772 0.0
H903 H 0.0469 0.61617 0.53192 0.0
H904 H 0.05034 0.6768 0.47028 0.0
H905 H 0.95914 0.58377 0.67724 0.0
H906 H 0.92424 0.69929 0.51793 0.0
H907 H 0.92497 0.59941 0.70602 0.0
H908 H 0.89929 0.67011 0.49816 0.0
O909 O 0.00177 0.64161 0.62221 0.0
H910 H 0.0205 0.73805 0.53913 0.0
H911 H 0.06067 0.66945 0.5672 0.0
H912 H 0.07622 0.70435 0.58689 0.0
H913 H 0.05609 0.73897 0.57285 0.0
H914 H 0.00544 0.70279 0.52029 0.0
H915 H 0.08461 0.66503 0.43747 0.0
H916 H 0.1003 0.62831 0.45238 0.0
O917 O 0.02997 0.64339 0.57931 0.0
C918 C 0.9928 0.61586 0.5312 0.0
C919 C 0.07457 0.61986 0.49334 0.0
C920 C 0.07646 0.65422 0.45822 0.0
N921 N 0.04673 0.64725 0.50322 0.0
C922 C 0.05519 0.62698 0.51142 0.0
C923 C 0.05704 0.66078 0.47683 0.0
C924 C 0.08526 0.63362 0.46661 0.0
C925 C 0.94552 0.67717 0.5497 0.0
N926 N 0.94962 0.65607 0.56103 0.0
C927 C 0.92738 0.68256 0.52695 0.0
C928 C 0.91341 0.66617 0.51582 0.0
C929 C 0.91771 0.64468 0.52749 0.0
C930 C 0.93603 0.63989 0.55016 0.0
C931 C 0.92737 0.62951 0.673 0.0
C932 C 0.96541 0.6121 0.64072 0.0
C933 C 0.9397 0.64125 0.64528 0.0
N934 N 0.95838 0.63244 0.62935 0.0
C935 C 0.95351 0.59989 0.66838 0.0
C936 C 0.93435 0.60868 0.68454 0.0
C937 C 0.02188 0.63897 0.61333 0.0
C938 C 0.02945 0.72308 0.5453 0.0
C939 C 0.05179 0.68444 0.56103 0.0
C940 C 0.0607 0.70416 0.57219 0.0
C941 C 0.04941 0.72358 0.56427 0.0
N942 N 0.03221 0.68409 0.54243 0.0
C943 C 0.02106 0.70307 0.53452 0.0
H944 H 0.55549 0.12931 0.40384 0.0
H945 H 0.57872 0.11177 0.35424 0.0
H946 H 0.52676 0.11675 0.2702 0.0
H947 H 0.50317 0.13387 0.31981 0.0
H948 H 0.54396 0.07592 0.27562 0.0
H949 H 0.61016 0.13564 0.25708 0.0
H950 H 0.60543 0.1275 0.30754 0.0
H951 H 0.58452 0.14225 0.28119 0.0
C952 C 0.54904 0.12696 0.37468 0.0
C953 C 0.52741 0.13295 0.36589 0.0
C954 C 0.56243 0.11705 0.34626 0.0
C955 C 0.55455 0.11323 0.30841 0.0
C956 C 0.53317 0.11966 0.29923 0.0
H957 H 0.62736 0.06444 0.10592 0.0
H958 H 0.60751 0.08708 0.15345 0.0
C959 C 0.51971 0.12945 0.32765 0.0
C960 C 0.56796 0.10095 0.27942 0.0
H961 H 0.61682 0.1004 0.22994 0.0
C962 C 0.55983 0.08135 0.26543 0.0
C963 C 0.58857 0.10817 0.26596 0.0
C964 C 0.59762 0.12965 0.2784 0.0
C965 C 0.57189 0.06855 0.2388 0.0
C966 C 0.59286 0.07532 0.22656 0.0
C967 C 0.60085 0.09513 0.23989 0.0
C968 C 0.60649 0.06217 0.19925 0.0
C969 C 0.56193 0.04807 0.22357 0.0
C970 C 0.61303 0.04091 0.20979 0.0
C971 C 0.62427 0.02785 0.18268 0.0
C972 C 0.62934 0.03592 0.14461 0.0
C973 C 0.62365 0.05763 0.13487 0.0
C974 C 0.61232 0.07063 0.16199 0.0
H975 H 0.54393 0.04822 0.22762 0.0
H976 H 0.56584 0.04591 0.19175 0.0
H977 H 0.56861 0.03378 0.24009 0.0
H978 H 0.60906 0.03427 0.23877 0.0
H979 H 0.62856 0.01129 0.19134 0.0
H980 H 0.37241 0.50573 0.31521 0.0
H981 H 0.3915 0.52919 0.26778 0.0
H982 H 0.391 0.58096 0.35233 0.0
H983 H 0.3715 0.55786 0.39979 0.0
H984 H 0.38208 0.59555 0.27614 0.0
H985 H 0.45605 0.54235 0.27923 0.0
H986 H 0.43179 0.52844 0.26612 0.0
H987 H 0.43399 0.53958 0.31464 0.0
C988 C 0.37614 0.52217 0.32368 0.0
C989 C 0.37061 0.5298 0.36154 0.0
C990 C 0.38717 0.53551 0.29657 0.0
C991 C 0.39306 0.55661 0.30691 0.0
C992 C 0.38672 0.56465 0.34392 0.0
H993 H 0.49561 0.62927 0.1889 0.0
H994 H 0.47213 0.61122 0.23763 0.0
C995 C 0.37559 0.55138 0.37101 0.0
C996 C 0.40652 0.57005 0.27969 0.0
H997 H 0.45566 0.57095 0.23141 0.0
C998 C 0.3982 0.59024 0.26639 0.0
C999 C 0.42769 0.56323 0.26769 0.0
C1000 C 0.43804 0.54232 0.28292 0.0
C1001 C 0.41036 0.60364 0.24068 0.0
C1002 C 0.43119 0.59641 0.22747 0.0
C1003 C 0.43963 0.57639 0.24137 0.0
C1004 C 0.44455 0.60916 0.19896 0.0
C1005 C 0.40093 0.62552 0.22842 0.0
C1006 C 0.43677 0.61413 0.16112 0.0
C1007 C 0.45009 0.62459 0.13322 0.0
C1008 C 0.47157 0.63002 0.14248 0.0
C1009 C 0.47917 0.62534 0.1807 0.0
C1010 C 0.46579 0.61499 0.20862 0.0
H1011 H 0.38819 0.63125 0.24966 0.0
H1012 H 0.41379 0.63798 0.22597 0.0
H1013 H 0.39326 0.6241 0.19916 0.0
H1014 H 0.42061 0.60933 0.15273 0.0
H1015 H 0.44371 0.62782 0.10405 0.0
H1016 H 0.87031 0.49777 0.18045 0.0
H1017 H 0.88874 0.4742 0.22857 0.0
H1018 H 0.89099 0.42199 0.14487 0.0
H1019 H 0.87221 0.44522 0.09668 0.0
H1020 H 0.87991 0.40831 0.22158 0.0
H1021 H 0.95384 0.45913 0.21848 0.0
H1022 H 0.92916 0.47389 0.23036 0.0
H1023 H 0.93268 0.46214 0.18235 0.0
C1024 C 0.87454 0.48122 0.17229 0.0
C1025 C 0.86996 0.47348 0.1345 0.0
C1026 C 0.88517 0.46783 0.19979 0.0
C1027 C 0.89158 0.44654 0.18991 0.0
C1028 C 0.88627 0.43844 0.1529 0.0
H1029 H 0.99123 0.37119 0.31144 0.0
H1030 H 0.96884 0.38965 0.26186 0.0
C1031 C 0.87557 0.45178 0.1254 0.0
C1032 C 0.90442 0.43294 0.21771 0.0
H1033 H 0.95245 0.43089 0.26692 0.0
C1034 C 0.8958 0.41317 0.23147 0.0
C1035 C 0.9253 0.43919 0.22989 0.0
C1036 C 0.93593 0.45963 0.21426 0.0
C1037 C 0.90736 0.39964 0.25785 0.0
C1038 C 0.92788 0.40631 0.27118 0.0
C1039 C 0.93664 0.4259 0.25683 0.0
C1040 C 0.94059 0.39341 0.30028 0.0
C1041 C 0.89767 0.37822 0.27072 0.0
C1042 C 0.93205 0.3893 0.33823 0.0
C1043 C 0.94475 0.37864 0.36663 0.0
C1044 C 0.96634 0.37213 0.3577 0.0
C1045 C 0.97469 0.37597 0.31938 0.0
C1046 C 0.96193 0.38653 0.29098 0.0
H1047 H 0.88529 0.37275 0.24962 0.0
H1048 H 0.91046 0.36531 0.27359 0.0
H1049 H 0.8895 0.38018 0.29991 0.0
H1050 H 0.91578 0.3949 0.34628 0.0
H1051 H 0.9378 0.37605 0.39587 0.0
H1052 H 0.06338 0.87264 0.10226 0.0
H1053 H 0.08525 0.89082 0.15095 0.0
H1054 H 0.03207 0.8872 0.2353 0.0
H1055 H 0.00982 0.86943 0.18658 0.0
H1056 H 0.04839 0.92782 0.22897 0.0
H1057 H 0.1158 0.86758 0.24852 0.0
H1058 H 0.11167 0.87546 0.19793 0.0
H1059 H 0.09071 0.86105 0.22462 0.0
C1060 C 0.05637 0.87544 0.1313 0.0
C1061 C 0.03479 0.86957 0.14042 0.0
C1062 C 0.06899 0.88573 0.15921 0.0
C1063 C 0.06039 0.89011 0.19691 0.0
C1064 C 0.03904 0.88389 0.2064 0.0
H1065 H 0.12905 0.93825 0.39878 0.0
H1066 H 0.11023 0.91609 0.35127 0.0
C1067 C 0.02636 0.8737 0.17848 0.0
C1068 C 0.07307 0.90253 0.22554 0.0
H1069 H 0.12103 0.90282 0.27524 0.0
C1070 C 0.06422 0.92229 0.23924 0.0
C1071 C 0.09363 0.89519 0.23918 0.0
C1072 C 0.10344 0.87356 0.22713 0.0
C1073 C 0.07549 0.93508 0.2658 0.0
C1074 C 0.0964 0.92815 0.27829 0.0
C1075 C 0.10512 0.90822 0.26515 0.0
C1076 C 0.10918 0.94118 0.30581 0.0
C1077 C 0.06472 0.95571 0.28078 0.0
C1078 C 0.11536 0.96244 0.29554 0.0
C1079 C 0.12603 0.97524 0.32267 0.0
C1080 C 0.1309 0.96692 0.36051 0.0
C1081 C 0.12549 0.94526 0.37002 0.0
C1082 C 0.11475 0.93252 0.34289 0.0
H1083 H 0.0468 0.9557 0.27662 0.0
H1084 H 0.06798 0.95793 0.31259 0.0
H1085 H 0.07135 0.96989 0.26416 0.0
H1086 H 0.11162 0.96926 0.26671 0.0
H1087 H 0.13008 0.99178 0.31418 0.0
H1088 H 0.37154 0.99069 0.80858 0.0
H1089 H 0.38984 0.96782 0.75956 0.0
H1090 H 0.39419 0.91514 0.84489 0.0
H1091 H 0.37548 0.93765 0.89394 0.0
H1092 H 0.43084 0.95127 0.76558 0.0
H1093 H 0.3726 0.8842 0.74837 0.0
H1094 H 0.36513 0.9095 0.77186 0.0
H1095 H 0.3798 0.88861 0.79872 0.0
C1096 C 0.37608 0.97413 0.81684 0.0
C1097 C 0.37205 0.96603 0.85528 0.0
C1098 C 0.38654 0.96109 0.78874 0.0
C1099 C 0.39315 0.93972 0.79846 0.0
C1100 C 0.3888 0.93142 0.83651 0.0
H1101 H 0.49817 0.86904 0.6814 0.0
H1102 H 0.47414 0.88717 0.72916 0.0
C1103 C 0.37822 0.9444 0.8646 0.0
C1104 C 0.40617 0.9268 0.76981 0.0
H1105 H 0.40832 0.87855 0.72105 0.0
C1106 C 0.42586 0.93542 0.75567 0.0
C1107 C 0.39952 0.90622 0.75672 0.0
C1108 C 0.378 0.89665 0.76938 0.0
C1109 C 0.43926 0.9239 0.72916 0.0
C1110 C 0.43303 0.90297 0.71723 0.0
C1111 C 0.41316 0.89448 0.73078 0.0
C1112 C 0.44677 0.88999 0.68985 0.0
C1113 C 0.45981 0.93441 0.7137 0.0
C1114 C 0.43896 0.88471 0.65262 0.0
C1115 C 0.45256 0.87417 0.6253 0.0
C1116 C 0.47424 0.86873 0.63482 0.0
C1117 C 0.48165 0.87316 0.67291 0.0
C1118 C 0.46799 0.88362 0.70021 0.0
H1119 H 0.45935 0.95234 0.71769 0.0
H1120 H 0.47397 0.92766 0.73008 0.0
H1121 H 0.46245 0.93103 0.68187 0.0
H1122 H 0.42256 0.88939 0.64421 0.0
H1123 H 0.44625 0.87091 0.59635 0.0
H1124 H 0.63004 0.496 0.68795 0.0
H1125 H 0.61222 0.47251 0.73692 0.0
H1126 H 0.61006 0.42097 0.65211 0.0
H1127 H 0.62833 0.44408 0.60316 0.0
H1128 H 0.57187 0.45628 0.73067 0.0
H1129 H 0.63176 0.38846 0.74915 0.0
H1130 H 0.63866 0.414 0.72541 0.0
H1131 H 0.62464 0.39355 0.69864 0.0
C1132 C 0.62612 0.47955 0.67982 0.0
C1133 C 0.63062 0.47197 0.64152 0.0
C1134 C 0.61591 0.46615 0.70788 0.0
C1135 C 0.61002 0.44492 0.6983 0.0
C1136 C 0.6149 0.43712 0.66043 0.0
H1137 H 0.5061 0.37351 0.81459 0.0
H1138 H 0.52975 0.39235 0.76712 0.0
C1139 C 0.62523 0.45045 0.63238 0.0
C1140 C 0.59719 0.43165 0.72685 0.0
H1141 H 0.59602 0.38262 0.7757 0.0
C1142 C 0.57721 0.44022 0.74069 0.0
C1143 C 0.60429 0.4108 0.74013 0.0
C1144 C 0.62611 0.40122 0.72789 0.0
C1145 C 0.56397 0.4284 0.76704 0.0
C1146 C 0.57066 0.40721 0.77913 0.0
C1147 C 0.59081 0.39875 0.76589 0.0
C1148 C 0.55712 0.39387 0.80638 0.0
C1149 C 0.54311 0.43889 0.78219 0.0
C1150 C 0.56506 0.3876 0.8435 0.0
C1151 C 0.55168 0.37662 0.87062 0.0
C1152 C 0.53009 0.37172 0.86107 0.0
C1153 C 0.52255 0.37718 0.82312 0.0
C1154 C 0.536 0.38806 0.79598 0.0
H1155 H 0.54323 0.45689 0.77839 0.0
H1156 H 0.5292 0.43268 0.76543 0.0
H1157 H 0.54034 0.43492 0.81393 0.0
H1158 H 0.58138 0.39182 0.85196 0.0
H1159 H 0.55809 0.37258 0.89947 0.0
H1160 H 0.06495 0.62723 0.60489 0.0
H1161 H 0.08756 0.60741 0.65252 0.0
H1162 H 0.03463 0.60889 0.73761 0.0
H1163 H 0.01169 0.62836 0.69011 0.0
H1164 H 0.10073 0.61664 0.72934 0.0
H1165 H 0.04862 0.54374 0.72605 0.0
H1166 H 0.04642 0.5657 0.69025 0.0
H1167 H 0.0341 0.56838 0.73845 0.0
C1168 C 0.05812 0.62351 0.63382 0.0
C1169 C 0.03638 0.62916 0.64347 0.0
C1170 C 0.0711 0.6122 0.661 0.0
C1171 C 0.06259 0.60634 0.69821 0.0
C1172 C 0.04131 0.61288 0.70867 0.0
H1173 H 0.12857 0.55547 0.9039 0.0
H1174 H 0.11143 0.57865 0.85378 0.0
C1175 C 0.02827 0.6241 0.68152 0.0
C1176 C 0.07568 0.59268 0.72555 0.0
H1177 H 0.07606 0.54377 0.77456 0.0
C1178 C 0.09543 0.60067 0.73917 0.0
C1179 C 0.06887 0.5717 0.73763 0.0
C1180 C 0.04846 0.56174 0.72208 0.0
C1181 C 0.10834 0.58838 0.76545 0.0
C1182 C 0.10105 0.56778 0.77881 0.0
C1183 C 0.08154 0.55964 0.76446 0.0
C1184 C 0.11314 0.5544 0.8081 0.0
C1185 C 0.12975 0.59744 0.77825 0.0
C1186 C 0.11958 0.53299 0.79918 0.0
C1187 C 0.12914 0.51956 0.82789 0.0
C1188 C 0.1324 0.52731 0.86617 0.0
C1189 C 0.1264 0.54898 0.87471 0.0
C1190 C 0.11673 0.56234 0.846 0.0
H1191 H 0.13586 0.60994 0.75697 0.0
H1192 H 0.12743 0.60531 0.80731 0.0
H1193 H 0.14232 0.58434 0.78136 0.0
H1194 H 0.11686 0.52654 0.77012 0.0
H1195 H 0.13358 0.50299 0.82024 0.0
H1196 H 0.99069 0.13282 0.81788 0.0
H1197 H 0.96838 0.11558 0.76865 0.0
H1198 H 0.91551 0.11058 0.85339 0.0
H1199 H 0.93747 0.12824 0.90266 0.0
H1200 H 0.95242 0.07479 0.77368 0.0
H1201 H 0.88447 0.13468 0.75689 0.0
H1202 H 0.90958 0.14115 0.78077 0.0
H1203 H 0.88884 0.12626 0.80714 0.0
C1204 C 0.97421 0.12836 0.82598 0.0
C1205 C 0.9659 0.13193 0.86432 0.0
C1206 C 0.96149 0.11848 0.79776 0.0
C1207 C 0.94021 0.11202 0.80721 0.0
C1208 C 0.93171 0.11587 0.84518 0.0
H1209 H 0.87112 0.01112 0.68708 0.0
H1210 H 0.88935 0.03342 0.73515 0.0
C1211 C 0.94438 0.12586 0.87341 0.0
C1212 C 0.92755 0.09983 0.77821 0.0
H1213 H 0.87951 0.09975 0.72872 0.0
C1214 C 0.93653 0.08031 0.7637 0.0
C1215 C 0.90691 0.10717 0.76496 0.0
C1216 C 0.89695 0.12857 0.77792 0.0
C1217 C 0.92532 0.06774 0.73671 0.0
C1218 C 0.90433 0.07465 0.72459 0.0
C1219 C 0.89548 0.09436 0.73852 0.0
C1220 C 0.8916 0.06179 0.69675 0.0
C1221 C 0.93622 0.04737 0.72092 0.0
C1222 C 0.88599 0.07069 0.65985 0.0
C1223 C 0.87538 0.05807 0.63236 0.0
C1224 C 0.87015 0.03629 0.64132 0.0
C1225 C 0.87503 0.02774 0.679 0.0
C1226 C 0.88557 0.04042 0.70648 0.0
H1227 H 0.95413 0.04745 0.72501 0.0
H1228 H 0.92971 0.03296 0.73703 0.0
H1229 H 0.93293 0.04549 0.68903 0.0
H1230 H 0.89039 0.08721 0.65189 0.0
H1231 H 0.8718 0.06524 0.60373 0.0
H1232 H 0.66812 0.95439 0.91677 0.0
H1233 H 0.69048 0.94702 0.85754 0.0
H1234 H 0.72029 0.0097 0.86737 0.0
H1235 H 0.69813 0.01729 0.92601 0.0
H1236 H 0.69393 0.97533 0.78384 0.0
H1237 H 0.77153 0.96268 0.86362 0.0
H1238 H 0.74515 0.95995 0.88741 0.0
H1239 H 0.75604 0.9865 0.87775 0.0
C1240 C 0.67939 0.96661 0.90623 0.0
C1241 C 0.68135 0.98641 0.92615 0.0
C1242 C 0.69212 0.96237 0.87244 0.0
C1243 C 0.70714 0.97774 0.85847 0.0
C1244 C 0.70894 0.99755 0.87802 0.0
H1245 H 0.7765 0.01244 0.65103 0.0
H1246 H 0.74974 0.00632 0.70384 0.0
C1247 C 0.69618 0.00187 0.91146 0.0
C1248 C 0.72105 0.97344 0.82334 0.0
H1249 H 0.77435 0.96936 0.79418 0.0
C1250 C 0.71149 0.97365 0.78601 0.0
C1251 C 0.74388 0.971 0.8264 0.0
C1252 C 0.75482 0.96981 0.86595 0.0
C1253 C 0.72438 0.97271 0.75143 0.0
C1254 C 0.74733 0.97174 0.75446 0.0
C1255 C 0.75676 0.97025 0.79189 0.0
C1256 C 0.76197 0.97413 0.71954 0.0
C1257 C 0.71335 0.9732 0.71196 0.0
C1258 C 0.7778 0.95807 0.71087 0.0
C1259 C 0.79322 0.96154 0.68069 0.0
C1260 C 0.79323 0.98129 0.65906 0.0
C1261 C 0.77697 0.99707 0.66715 0.0
C1262 C 0.76153 0.99353 0.69713 0.0
H1263 H 0.6964 0.96723 0.71448 0.0
H1264 H 0.71263 0.99023 0.70056 0.0
H1265 H 0.72252 0.96314 0.69016 0.0
H1266 H 0.77851 0.94306 0.72806 0.0
H1267 H 0.80556 0.94909 0.67526 0.0
H1268 H 0.5621 0.80538 0.67155 0.0
H1269 H 0.56688 0.77885 0.72565 0.0
H1270 H 0.50607 0.74936 0.69666 0.0
H1271 H 0.50121 0.7756 0.64257 0.0
H1272 H 0.53815 0.77477 0.78966 0.0
H1273 H 0.54675 0.69641 0.71183 0.0
H1274 H 0.55067 0.72241 0.6873 0.0
H1275 H 0.52364 0.71236 0.69594 0.0
C1276 C 0.54995 0.79298 0.67621 0.0
C1277 C 0.53124 0.79264 0.6528 0.0
C1278 C 0.5527 0.77786 0.70718 0.0
C1279 C 0.53696 0.76197 0.71491 0.0
C1280 C 0.51863 0.76119 0.69078 0.0
H1281 H 0.49103 0.69909 0.92351 0.0
H1282 H 0.49878 0.72136 0.86494 0.0
C1283 C 0.51581 0.77633 0.66002 0.0
C1284 C 0.53846 0.74753 0.75034 0.0
H1285 H 0.53631 0.69425 0.78055 0.0
C1286 C 0.53811 0.75716 0.78765 0.0
C1287 C 0.53863 0.72455 0.74774 0.0
C1288 C 0.54017 0.71329 0.70854 0.0
C1289 C 0.53673 0.74445 0.82236 0.0
C1290 C 0.53548 0.72155 0.81966 0.0
C1291 C 0.53703 0.71183 0.7825 0.0
C1292 C 0.53104 0.70766 0.85492 0.0
C1293 C 0.5362 0.75565 0.86169 0.0
C1294 C 0.54647 0.69221 0.86824 0.0
C1295 C 0.5421 0.67938 0.90193 0.0
C1296 C 0.52211 0.68164 0.92249 0.0
C1297 C 0.5066 0.6969 0.9085 0.0
C1298 C 0.51103 0.70975 0.8751 0.0
H1299 H 0.54301 0.77228 0.85941 0.0
H1300 H 0.51906 0.75718 0.87231 0.0
H1301 H 0.54548 0.74606 0.88403 0.0
H1302 H 0.56197 0.69029 0.85288 0.0
H1303 H 0.55439 0.66778 0.91189 0.0
H1304 H 0.83105 0.55638 0.90457 0.0
H1305 H 0.808 0.56367 0.84703 0.0
H1306 H 0.78019 0.49998 0.86067 0.0
H1307 H 0.80302 0.49248 0.91764 0.0
H1308 H 0.80475 0.53685 0.77431 0.0
H1309 H 0.72733 0.5446 0.85998 0.0
H1310 H 0.75371 0.54775 0.88191 0.0
H1311 H 0.74367 0.52103 0.87265 0.0
C1312 C 0.82008 0.54391 0.89521 0.0
C1313 C 0.81888 0.52386 0.91576 0.0
C1314 C 0.80694 0.54811 0.86238 0.0
C1315 C 0.79224 0.53245 0.84999 0.0
C1316 C 0.79124 0.51237 0.87011 0.0
H1317 H 0.72336 0.49898 0.64641 0.0
H1318 H 0.74989 0.50498 0.69784 0.0
C1319 C 0.8044 0.5081 0.9026 0.0
C1320 C 0.7779 0.53669 0.81589 0.0
H1321 H 0.72429 0.5389 0.79073 0.0
C1322 C 0.78717 0.53766 0.77783 0.0
C1323 C 0.755 0.53802 0.82065 0.0
C1324 C 0.74428 0.538 0.86101 0.0
C1325 C 0.77403 0.53868 0.74422 0.0
C1326 C 0.75109 0.53853 0.74895 0.0
C1327 C 0.74188 0.53884 0.78711 0.0
C1328 C 0.73635 0.53626 0.71503 0.0
C1329 C 0.7848 0.53952 0.70394 0.0
C1330 C 0.71983 0.55181 0.70766 0.0
C1331 C 0.70454 0.54841 0.67822 0.0
C1332 C 0.70536 0.52921 0.65606 0.0
C1333 C 0.72224 0.51393 0.66294 0.0
C1334 C 0.73755 0.51741 0.69215 0.0
H1335 H 0.80148 0.54619 0.70529 0.0
H1336 H 0.7862 0.52276 0.69224 0.0
H1337 H 0.77507 0.54962 0.68298 0.0
H1338 H 0.71851 0.56639 0.72521 0.0
H1339 H 0.6917 0.56047 0.67376 0.0
H1340 H 0.95579 0.83281 0.91218 0.0
H1341 H 0.94878 0.81004 0.85495 0.0
H1342 H 0.01253 0.78024 0.8657 0.0
H1343 H 0.01975 0.80281 0.92247 0.0
H1344 H 0.97538 0.80604 0.78118 0.0
H1345 H 0.96831 0.72871 0.86701 0.0
H1346 H 0.9652 0.75515 0.88932 0.0
H1347 H 0.99191 0.74433 0.87797 0.0
C1348 C 0.96834 0.82147 0.90226 0.0
C1349 C 0.98832 0.81963 0.92196 0.0
C1350 C 0.9643 0.80848 0.8696 0.0
C1351 C 0.98004 0.7933 0.8565 0.0
C1352 C 1.00006 0.79167 0.87572 0.0
H1353 H 0.01146 0.72322 0.6496 0.0
H1354 H 0.00632 0.74985 0.70178 0.0
C1355 C 0.00418 0.80468 0.90808 0.0
C1356 C 0.97585 0.77911 0.82259 0.0
H1357 H 0.97326 0.72564 0.79732 0.0
C1358 C 0.97459 0.78848 0.78467 0.0
C1359 C 0.97454 0.75625 0.82734 0.0
C1360 C 0.97486 0.74546 0.86763 0.0
C1361 C 0.97322 0.77545 0.75109 0.0
C1362 C 0.97329 0.7525 0.75569 0.0
C1363 C 0.97335 0.74323 0.7938 0.0
C1364 C 0.97504 0.73775 0.72149 0.0
C1365 C 0.97205 0.78631 0.71095 0.0
C1366 C 0.95917 0.72202 0.71528 0.0
C1367 C 0.96207 0.70668 0.6854 0.0
C1368 C 0.98107 0.70665 0.66163 0.0
C1369 C 0.99666 0.72276 0.66739 0.0
C1370 C 0.99367 0.73813 0.69704 0.0
H1371 H 0.96563 0.80329 0.71295 0.0
H1372 H 0.98867 0.78692 0.69768 0.0
H1373 H 0.96158 0.77708 0.69092 0.0
H1374 H 0.94475 0.72135 0.73407 0.0
H1375 H 0.9498 0.69443 0.68181 0.0
H1376 H 0.19653 0.98185 0.57958 0.0
H1377 H 0.21888 0.98862 0.63681 0.0
H1378 H 0.19257 0.05402 0.64345 0.0
H1379 H 0.16998 0.04744 0.5858 0.0
H1380 H 0.25052 0.02365 0.64231 0.0
H1381 H 0.18494 0.02634 0.75773 0.0
H1382 H 0.18123 0.01352 0.71074 0.0
H1383 H 0.18128 0.04264 0.7136 0.0
C1384 C 0.19532 0.99766 0.59324 0.0
C1385 C 0.18137 0.01409 0.57814 0.0
C1386 C 0.20817 0.0015 0.62593 0.0
C1387 C 0.20727 0.02176 0.64445 0.0
C1388 C 0.1933 0.0382 0.62977 0.0
H1389 H 0.30656 0.05259 0.81937 0.0
H1390 H 0.28003 0.05736 0.76638 0.0
C1391 C 0.18045 0.03441 0.59681 0.0
C1392 C 0.22148 0.02553 0.67852 0.0
H1393 H 0.22105 0.02961 0.77894 0.0
C1394 C 0.24411 0.02527 0.67215 0.0
C1395 C 0.213 0.02749 0.71734 0.0
C1396 C 0.18879 0.02742 0.72563 0.0
C1397 C 0.25856 0.02632 0.70375 0.0
C1398 C 0.2501 0.02783 0.7427 0.0
C1399 C 0.22744 0.02863 0.749 0.0
C1400 C 0.26456 0.02641 0.7773 0.0
C1401 C 0.28275 0.02477 0.69543 0.0
C1402 C 0.26413 0.00778 0.80173 0.0
C1403 C 0.27921 0.005 0.8319 0.0
C1404 C 0.29495 0.02087 0.83838 0.0
C1405 C 0.29468 0.04003 0.81506 0.0
C1406 C 0.27961 0.04275 0.78469 0.0
H1407 H 0.28648 0.02024 0.6644 0.0
H1408 H 0.29017 0.04077 0.70088 0.0
H1409 H 0.29055 0.01255 0.71542 0.0
H1410 H 0.25261 0.99501 0.79655 0.0
H1411 H 0.27885 0.99013 0.84951 0.0
H1412 H 0.44497 0.16976 0.59773 0.0
H1413 H 0.4375 0.19295 0.65503 0.0
H1414 H 0.50085 0.22144 0.64071 0.0
H1415 H 0.50851 0.1985 0.58398 0.0
H1416 H 0.46416 0.1968 0.7275 0.0
H1417 H 0.45584 0.27385 0.64099 0.0
H1418 H 0.45299 0.24736 0.61932 0.0
H1419 H 0.4796 0.25773 0.62848 0.0
C1420 C 0.45733 0.18091 0.6069 0.0
C1421 C 0.47733 0.18227 0.58622 0.0
C1422 C 0.45302 0.19413 0.63958 0.0
C1423 C 0.46853 0.20907 0.65169 0.0
C1424 C 0.48856 0.21022 0.63147 0.0
H1425 H 0.50246 0.27844 0.8539 0.0
H1426 H 0.49614 0.25179 0.80285 0.0
C1427 C 0.49294 0.19698 0.59912 0.0
C1428 C 0.46417 0.22351 0.68561 0.0
H1429 H 0.46185 0.2772 0.71016 0.0
C1430 C 0.46328 0.21436 0.72378 0.0
C1431 C 0.46274 0.24638 0.68059 0.0
C1432 C 0.46263 0.25697 0.64013 0.0
C1433 C 0.46228 0.22762 0.75723 0.0
C1434 C 0.46238 0.25055 0.75224 0.0
C1435 C 0.46194 0.25963 0.71399 0.0
C1436 C 0.46484 0.2654 0.78594 0.0
C1437 C 0.46154 0.21699 0.79763 0.0
C1438 C 0.44939 0.28203 0.79332 0.0
C1439 C 0.45298 0.29739 0.82254 0.0
C1440 C 0.47226 0.29655 0.84445 0.0
C1441 C 0.48745 0.27958 0.83755 0.0
C1442 C 0.48378 0.2642 0.80856 0.0
H1443 H 0.45479 0.20034 0.79653 0.0
H1444 H 0.47834 0.21554 0.80913 0.0
H1445 H 0.45156 0.22683 0.81861 0.0
H1446 H 0.43475 0.28335 0.77594 0.0
H1447 H 0.441 0.3103 0.82704 0.0
H1448 H 0.30301 0.51019 0.58206 0.0
H1449 H 0.28108 0.50254 0.64105 0.0
H1450 H 0.30974 0.43807 0.64929 0.0
H1451 H 0.33196 0.44558 0.5899 0.0
H1452 H 0.25068 0.46733 0.65135 0.0
H1453 H 0.31728 0.46512 0.76121 0.0
H1454 H 0.32052 0.47777 0.71304 0.0
H1455 H 0.32071 0.44865 0.71798 0.0
C1456 C 0.30481 0.49439 0.5964 0.0
C1457 C 0.31935 0.47852 0.58129 0.0
C1458 C 0.2922 0.49005 0.63011 0.0
C1459 C 0.2939 0.46982 0.64966 0.0
C1460 C 0.30839 0.45389 0.63485 0.0
H1461 H 0.1957 0.43876 0.83399 0.0
H1462 H 0.22189 0.43367 0.77937 0.0
C1463 C 0.32102 0.4582 0.60089 0.0
C1464 C 0.28006 0.46559 0.68509 0.0
H1465 H 0.28146 0.46119 0.78563 0.0
C1466 C 0.25738 0.46565 0.6807 0.0
C1467 C 0.28892 0.46357 0.72326 0.0
C1468 C 0.31318 0.46387 0.72951 0.0
C1469 C 0.24324 0.46443 0.71358 0.0
C1470 C 0.25207 0.46288 0.75187 0.0
C1471 C 0.27478 0.4622 0.75621 0.0
C1472 C 0.23795 0.46432 0.78767 0.0
C1473 C 0.21898 0.46589 0.70724 0.0
C1474 C 0.23887 0.48281 0.8113 0.0
C1475 C 0.22401 0.48576 0.84245 0.0
C1476 C 0.20797 0.47019 0.85072 0.0
C1477 C 0.2078 0.45109 0.8283 0.0
C1478 C 0.22267 0.4482 0.79697 0.0
H1479 H 0.21496 0.47062 0.67639 0.0
H1480 H 0.2117 0.4498 0.71381 0.0
H1481 H 0.21128 0.47793 0.72746 0.0
H1482 H 0.25058 0.49541 0.80468 0.0
H1483 H 0.22472 0.50057 0.85932 0.0
H1484 H 0.98067 0.30669 0.58118 0.0
H1485 H 0.98728 0.2848 0.64054 0.0
H1486 H 0.05246 0.30943 0.64609 0.0
H1487 H 0.04605 0.33154 0.58624 0.0
H1488 H 0.0233 0.2524 0.6488 0.0
H1489 H 0.02323 0.31865 0.75941 0.0
H1490 H 0.01038 0.32209 0.71206 0.0
H1491 H 0.03949 0.32189 0.71506 0.0
C1492 C 0.9964 0.30763 0.59503 0.0
C1493 C 0.01283 0.32094 0.57898 0.0
C1494 C 1.00014 0.29505 0.62895 0.0
C1495 C 0.02029 0.29562 0.64773 0.0
C1496 C 0.03672 0.30897 0.63214 0.0
H1497 H 0.0516 0.19718 0.83048 0.0
H1498 H 0.05627 0.22372 0.77639 0.0
C1499 C 0.03304 0.32154 0.59795 0.0
C1500 C 0.02399 0.2816 0.68297 0.0
H1501 H 0.02663 0.28259 0.78351 0.0
C1502 C 0.02436 0.25895 0.67825 0.0
C1503 C 0.02519 0.29031 0.72121 0.0
C1504 C 0.02447 0.31456 0.72762 0.0
C1505 C 0.0253 0.24469 0.71094 0.0
C1506 C 0.02606 0.25337 0.74931 0.0
C1507 C 0.02622 0.27605 0.754 0.0
C1508 C 0.02462 0.23911 0.78483 0.0
C1509 C 0.02447 0.22047 0.70435 0.0
C1510 C 0.0056 0.23951 0.80826 0.0
C1511 C 0.00286 0.22441 0.83908 0.0
C1512 C 0.01916 0.20868 0.84718 0.0
C1513 C 0.0387 0.20903 0.82491 0.0
C1514 C 0.04138 0.22412 0.79393 0.0
H1515 H 0.02045 0.2166 0.6734 0.0
H1516 H 0.04058 0.21294 0.71107 0.0
H1517 H 0.01218 0.21289 0.72437 0.0
H1518 H 0.99251 0.251 0.80171 0.0
H1519 H 0.98769 0.2247 0.85585 0.0
H1520 H 0.22495 0.98974 0.35011 0.0
H1521 H 0.25189 0.99536 0.29739 0.0
H1522 H 0.22378 0.05878 0.27203 0.0
H1523 H 0.19658 0.05327 0.32476 0.0
H1524 H 0.22789 0.03206 0.20628 0.0
H1525 H 0.30561 0.03402 0.28682 0.0
H1526 H 0.28911 0.01124 0.3009 0.0
H1527 H 0.27944 0.03847 0.31076 0.0
C1528 C 0.22466 0.00503 0.33375 0.0
C1529 C 0.20856 0.02102 0.34152 0.0
C1530 C 0.2402 0.00829 0.30381 0.0
C1531 C 0.24001 0.02759 0.28113 0.0
C1532 C 0.22431 0.04384 0.28944 0.0
H1533 H 0.33432 0.04675 0.08456 0.0
H1534 H 0.31187 0.05411 0.14368 0.0
C1535 C 0.2088 0.04066 0.31958 0.0
C1536 C 0.25477 0.0297 0.24633 0.0
H1537 H 0.30825 0.0258 0.21758 0.0
C1538 C 0.24548 0.0311 0.20878 0.0
C1539 C 0.27771 0.02863 0.24963 0.0
C1540 C 0.28859 0.02822 0.28923 0.0
C1541 C 0.25847 0.03018 0.17442 0.0
C1542 C 0.28129 0.02768 0.17776 0.0
C1543 C 0.29071 0.02753 0.2152 0.0
C1544 C 0.29531 0.02333 0.14279 0.0
C1545 C 0.24768 0.03128 0.13473 0.0
C1546 C 0.29361 0.00349 0.12332 0.0
C1547 C 0.30642 0.99917 0.08994 0.0
C1548 C 0.32121 0.01467 0.07524 0.0
C1549 C 0.32309 0.03449 0.09512 0.0
C1550 C 0.3103 0.03873 0.12884 0.0
H1551 H 0.23094 0.03839 0.13681 0.0
H1552 H 0.25741 0.04113 0.11334 0.0
H1553 H 0.24654 0.01457 0.12299 0.0
H1554 H 0.28227 0.99132 0.13396 0.0
H1555 H 0.30453 0.98374 0.07542 0.0
H1556 H 0.43875 0.19611 0.33228 0.0
H1557 H 0.43357 0.22232 0.27769 0.0
H1558 H 0.49507 0.25139 0.30341 0.0
H1559 H 0.50032 0.22552 0.35798 0.0
H1560 H 0.46063 0.28207 0.28447 0.0
H1561 H 0.47069 0.21588 0.17475 0.0
H1562 H 0.44987 0.2124 0.21211 0.0
H1563 H 0.47799 0.21213 0.22582 0.0
C1564 C 0.45101 0.20829 0.32667 0.0
C1565 C 0.47006 0.20858 0.3492 0.0
C1566 C 0.44807 0.22318 0.29537 0.0
C1567 C 0.46409 0.23858 0.2862 0.0
C1568 C 0.48254 0.23959 0.30992 0.0
H1569 H 0.51011 0.30437 0.08157 0.0
H1570 H 0.50237 0.28225 0.14029 0.0
C1571 C 0.48554 0.22472 0.34103 0.0
C1572 C 0.4626 0.25276 0.25049 0.0
H1573 H 0.4673 0.25164 0.14998 0.0
C1574 C 0.46175 0.27546 0.255 0.0
C1575 C 0.46429 0.24404 0.21214 0.0
C1576 C 0.46592 0.2198 0.20562 0.0
C1577 C 0.46311 0.28968 0.22217 0.0
C1578 C 0.4653 0.28093 0.18394 0.0
C1579 C 0.46551 0.25826 0.17937 0.0
C1580 C 0.46956 0.29488 0.14866 0.0
C1581 C 0.46324 0.31393 0.22862 0.0
C1582 C 0.45361 0.30933 0.13381 0.0
C1583 C 0.45796 0.32207 0.1 0.0
C1584 C 0.47836 0.32055 0.08059 0.0
C1585 C 0.49425 0.30605 0.09576 0.0
C1586 C 0.48986 0.29333 0.12931 0.0
H1587 H 0.46436 0.31797 0.26037 0.0
H1588 H 0.47714 0.32139 0.21235 0.0
H1589 H 0.44801 0.32139 0.21698 0.0
H1590 H 0.43774 0.31056 0.14808 0.0
H1591 H 0.44533 0.33297 0.08896 0.0
H1592 H 0.27711 0.50222 0.35483 0.0
H1593 H 0.2504 0.49593 0.30387 0.0
H1594 H 0.28214 0.43473 0.27629 0.0
H1595 H 0.30915 0.44095 0.32732 0.0
H1596 H 0.27577 0.46209 0.21073 0.0
H1597 H 0.19911 0.4543 0.29751 0.0
H1598 H 0.21425 0.47785 0.31032 0.0
H1599 H 0.22565 0.45108 0.31936 0.0
C1600 C 0.27828 0.48726 0.33834 0.0
C1601 C 0.29531 0.47211 0.34505 0.0
C1602 C 0.26286 0.4836 0.30941 0.0
C1603 C 0.26409 0.46472 0.28663 0.0
C1604 C 0.28079 0.44932 0.29379 0.0
H1605 H 0.16848 0.44487 0.09831 0.0
H1606 H 0.19172 0.43737 0.15555 0.0
C1607 C 0.29618 0.45289 0.32297 0.0
C1608 C 0.24919 0.4623 0.25298 0.0
H1609 H 0.19538 0.46387 0.2286 0.0
C1610 C 0.2582 0.46206 0.21467 0.0
C1611 C 0.22628 0.46205 0.25812 0.0
C1612 C 0.21573 0.46111 0.29858 0.0
C1613 C 0.24489 0.46291 0.18137 0.0
C1614 C 0.22202 0.46419 0.18655 0.0
C1615 C 0.21295 0.4631 0.22476 0.0
C1616 C 0.20749 0.46859 0.15276 0.0
C1617 C 0.2554 0.46305 0.14083 0.0
C1618 C 0.20842 0.48874 0.13289 0.0
C1619 C 0.19515 0.49313 0.10059 0.0
C1620 C 0.18064 0.47742 0.08737 0.0
C1621 C 0.17948 0.45731 0.10774 0.0
C1622 C 0.19273 0.45298 0.14038 0.0
H1623 H 0.27234 0.45643 0.1415 0.0
H1624 H 0.24584 0.45339 0.11999 0.0
H1625 H 0.25596 0.48007 0.12937 0.0
H1626 H 0.21951 0.50109 0.14235 0.0
H1627 H 0.19651 0.50879 0.0857 0.0
H1628 H 0.97939 0.18494 0.09805 0.0
H1629 H 0.98618 0.20633 0.15669 0.0
H1630 H 0.05539 0.19743 0.13888 0.0
H1631 H 0.0488 0.17582 0.08 0.0
H1632 H 0.01466 0.19262 0.22765 0.0
H1633 H 0.04071 0.26629 0.14224 0.0
H1634 H 0.02375 0.24599 0.12077 0.0
H1635 H 0.05197 0.24002 0.12918 0.0
C1636 C 0.99608 0.18739 0.10665 0.0
C1637 C 0.01356 0.1787 0.0843 0.0
C1638 C 0.99991 0.19958 0.14022 0.0
C1639 C 0.02126 0.20351 0.15189 0.0
C1640 C 0.03879 0.19461 0.13015 0.0
H1641 H 0.05254 0.29993 0.33093 0.0
H1642 H 0.05738 0.27176 0.28081 0.0
C1643 C 0.03498 0.18222 0.09665 0.0
C1644 C 0.02492 0.21747 0.18631 0.0
H1645 H 0.03681 0.26957 0.2109 0.0
C1646 C 0.01977 0.20937 0.22415 0.0
C1647 C 0.03177 0.23921 0.18156 0.0
C1648 C 0.03734 0.24859 0.14132 0.0
C1649 C 0.02071 0.22268 0.2574 0.0
C1650 C 0.02635 0.24483 0.25242 0.0
C1651 C 0.03243 0.25263 0.21472 0.0
C1652 C 0.02416 0.26063 0.28509 0.0
C1653 C 0.01549 0.21289 0.29747 0.0
C1654 C 0.00391 0.26375 0.30412 0.0
C1655 C 0.00113 0.27969 0.33275 0.0
C1656 C 0.01848 0.29311 0.34271 0.0
C1657 C 0.03887 0.28981 0.32404 0.0
C1658 C 0.04165 0.27376 0.29536 0.0
H1659 H 0.0192 0.19511 0.29828 0.0
H1660 H 0.02476 0.22078 0.32105 0.0
H1661 H 0.99783 0.21512 0.30394 0.0
H1662 H 0.99001 0.25426 0.29601 0.0
H1663 H 0.98517 0.2818 0.34639 0.0
H1664 H 0.72358 0.01175 0.15083 0.0
H1665 H 0.75029 0.00687 0.20295 0.0
H1666 H 0.72228 0.94512 0.23553 0.0
H1667 H 0.69529 0.9499 0.18334 0.0
H1668 H 0.72643 0.97378 0.29868 0.0
H1669 H 0.80404 0.96654 0.21403 0.0
H1670 H 0.78747 0.98943 0.19873 0.0
H1671 H 0.77783 0.96225 0.19214 0.0
C1672 C 0.72325 0.99696 0.16868 0.0
C1673 C 0.70726 0.98124 0.16302 0.0
C1674 C 0.73866 0.99413 0.19829 0.0
C1675 C 0.73845 0.97552 0.22281 0.0
C1676 C 0.72282 0.95952 0.2167 0.0
H1677 H 0.83366 0.95689 0.41339 0.0
H1678 H 0.81091 0.94974 0.3562 0.0
C1679 C 0.70745 0.96227 0.18685 0.0
C1680 C 0.75324 0.97391 0.25695 0.0
H1681 H 0.8068 0.97633 0.28222 0.0
C1682 C 0.74401 0.97397 0.2951 0.0
C1683 C 0.77618 0.97397 0.25226 0.0
C1684 C 0.78701 0.97283 0.21208 0.0
C1685 C 0.75707 0.97527 0.32858 0.0
C1686 C 0.77991 0.97669 0.32374 0.0
C1687 C 0.78925 0.97545 0.28578 0.0
C1688 C 0.79412 0.98098 0.35758 0.0
C1689 C 0.74631 0.97558 0.3689 0.0
C1690 C 0.79244 0.00103 0.3767 0.0
C1691 C 0.80545 0.00523 0.40903 0.0
C1692 C 0.82042 0.98941 0.42299 0.0
C1693 C 0.8223 0.96941 0.40339 0.0
C1694 C 0.80933 0.96528 0.37076 0.0
H1695 H 0.72958 0.969 0.36837 0.0
H1696 H 0.75606 0.96597 0.39057 0.0
H1697 H 0.74516 0.99263 0.37922 0.0
H1698 H 0.78099 0.01345 0.36662 0.0
H1699 H 0.80355 0.02081 0.42335 0.0
H1700 H 0.5621 0.82066 0.42039 0.0
H1701 H 0.56868 0.79883 0.36101 0.0
H1702 H 0.49961 0.79817 0.34017 0.0
H1703 H 0.49288 0.81968 0.3992 0.0
H1704 H 0.54822 0.75566 0.34839 0.0
H1705 H 0.52886 0.81721 0.23203 0.0
H1706 H 0.53694 0.82449 0.28111 0.0
H1707 H 0.50955 0.81613 0.27242 0.0
C1708 C 0.54836 0.8161 0.40282 0.0
C1709 C 0.52697 0.82191 0.41445 0.0
C1710 C 0.55215 0.8036 0.36903 0.0
C1711 C 0.53464 0.79711 0.34606 0.0
C1712 C 0.51336 0.80327 0.35722 0.0
H1713 H 0.49462 0.71846 0.16027 0.0
H1714 H 0.50116 0.7454 0.21056 0.0
C1715 C 0.50954 0.81548 0.39109 0.0
C1716 C 0.53812 0.78277 0.31172 0.0
H1717 H 0.5286 0.77991 0.21302 0.0
C1718 C 0.54438 0.76098 0.31858 0.0
C1719 C 0.53302 0.78983 0.27304 0.0
C1720 C 0.52688 0.81324 0.26397 0.0
C1721 C 0.54434 0.74569 0.28813 0.0
C1722 C 0.53835 0.75257 0.24963 0.0
C1723 C 0.53315 0.77463 0.2425 0.0
C1724 C 0.53525 0.73685 0.21738 0.0
C1725 C 0.54939 0.7221 0.29799 0.0
C1726 C 0.55237 0.72332 0.20378 0.0
C1727 C 0.54863 0.70768 0.17507 0.0
C1728 C 0.52774 0.70546 0.15925 0.0
C1729 C 0.51088 0.71961 0.17193 0.0
C1730 C 0.5146 0.73509 0.20066 0.0
H1731 H 0.5492 0.71887 0.33035 0.0
H1732 H 0.53749 0.71127 0.28415 0.0
H1733 H 0.56586 0.71776 0.28638 0.0
H1734 H 0.56855 0.7247 0.21561 0.0
H1735 H 0.56201 0.69714 0.16573 0.0
H1736 H 0.67695 0.55856 0.42405 0.0
H1737 H 0.69833 0.56545 0.36334 0.0
H1738 H 0.70462 0.49633 0.34487 0.0
H1739 H 0.68358 0.48926 0.40534 0.0
H1740 H 0.74364 0.54552 0.3483 0.0
H1741 H 0.68184 0.52507 0.23742 0.0
H1742 H 0.67463 0.53374 0.28674 0.0
H1743 H 0.68425 0.50638 0.2786 0.0
C1744 C 0.6827 0.54485 0.40681 0.0
C1745 C 0.67855 0.52336 0.41946 0.0
C1746 C 0.69494 0.54882 0.37225 0.0
C1747 C 0.70284 0.53139 0.34955 0.0
C1748 C 0.69844 0.50999 0.3618 0.0
H1749 H 0.78109 0.49502 0.15399 0.0
H1750 H 0.75439 0.50034 0.20699 0.0
C1751 C 0.68649 0.50599 0.39645 0.0
C1752 C 0.71664 0.5352 0.31398 0.0
H1753 H 0.71867 0.52671 0.21472 0.0
C1754 C 0.73815 0.54182 0.31891 0.0
C1755 C 0.70936 0.53026 0.27588 0.0
C1756 C 0.6862 0.52362 0.26906 0.0
C1757 C 0.75302 0.54241 0.28695 0.0
C1758 C 0.74594 0.53672 0.24891 0.0
C1759 C 0.7241 0.53106 0.24383 0.0
C1760 C 0.76135 0.53441 0.21491 0.0
C1761 C 0.77644 0.54783 0.29468 0.0
C1762 C 0.77387 0.55195 0.20095 0.0
C1763 C 0.78939 0.54891 0.17069 0.0
C1764 C 0.79249 0.52832 0.15361 0.0
C1765 C 0.77926 0.51107 0.16657 0.0
C1766 C 0.76391 0.5141 0.19687 0.0
H1767 H 0.78015 0.54717 0.32667 0.0
H1768 H 0.78772 0.53644 0.27907 0.0
H1769 H 0.77968 0.56458 0.28362 0.0
H1770 H 0.77182 0.56791 0.21378 0.0
H1771 H 0.79921 0.56257 0.16118 0.0
H1772 H 0.01118 0.77598 0.14961 0.0
H1773 H 0.00528 0.74923 0.20251 0.0
H1774 H 0.94215 0.77807 0.22769 0.0
H1775 H 0.94796 0.8051 0.17476 0.0
H1776 H 0.96879 0.77386 0.29342 0.0
H1777 H 0.96617 0.69593 0.21375 0.0
H1778 H 0.98911 0.71214 0.19941 0.0
H1779 H 0.96196 0.72206 0.18952 0.0
C1780 C 0.99588 0.77647 0.16596 0.0
C1781 C 0.98008 0.79273 0.15809 0.0
C1782 C 0.99246 0.76103 0.196 0.0
C1783 C 0.97316 0.76149 0.2187 0.0
C1784 C 0.95708 0.77733 0.21027 0.0
H1785 H 0.9546 0.66737 0.41585 0.0
H1786 H 0.94692 0.68978 0.35681 0.0
C1787 C 0.96043 0.79274 0.18002 0.0
C1788 C 0.97094 0.74685 0.25365 0.0
H1789 H 0.9747 0.69345 0.28293 0.0
C1790 C 0.96966 0.75627 0.29111 0.0
C1791 C 0.97189 0.7239 0.25059 0.0
C1792 C 0.97214 0.71288 0.21112 0.0
C1793 C 0.97062 0.74339 0.32559 0.0
C1794 C 0.97305 0.72055 0.32248 0.0
C1795 C 0.97303 0.711 0.28515 0.0
C1796 C 0.97754 0.70663 0.35752 0.0
C1797 C 0.96964 0.75432 0.36516 0.0
C1798 C 0.99741 0.70851 0.37687 0.0
C1799 C 0.00191 0.69572 0.4102 0.0
C1800 C 0.98658 0.68077 0.42497 0.0
C1801 C 0.96673 0.67873 0.40523 0.0
C1802 C 0.96231 0.69149 0.37156 0.0
H1803 H 0.96242 0.771 0.36298 0.0
H1804 H 0.95996 0.74461 0.38684 0.0
H1805 H 0.9864 0.75562 0.37658 0.0
H1806 H 0.00946 0.71994 0.36615 0.0
H1807 H 0.01735 0.69774 0.42461 0.0
H1808 H 0.41791 0.03588 0.93868 0.0
H1809 H 0.45706 0.03263 0.94984 0.0
H1810 H 0.44598 0.98092 0.03488 0.0
H1811 H 0.40684 0.98378 0.0237 0.0
H1812 H 0.48254 0.03535 0.01814 0.0
H1813 H 0.48773 0.95274 0.95381 0.0
H1814 H 0.46415 0.97042 0.94819 0.0
H1815 H 0.4683 0.95556 0.99364 0.0
C1816 C 0.4237 0.02398 0.96016 0.0
C1817 C 0.40913 0.00993 0.97996 0.0
C1818 C 0.44613 0.02213 0.96642 0.0
C1819 C 0.45446 0.00618 0.99247 0.0
C1820 C 0.43993 0.99299 0.01393 0.0
H1821 H 0.58442 0.96549 0.06235 0.0
H1822 H 0.54527 0.96869 0.0511 0.0
C1823 C 0.4175 0.9948 0.00772 0.0
C1824 C 0.47836 0.00299 0.99636 0.0
H1825 H 0.5198 0.96586 0.98258 0.0
C1826 C 0.49072 0.0202 0.01024 0.0
C1827 C 0.48898 0.98319 0.98596 0.0
C1828 C 0.47668 0.96446 0.96923 0.0
C1829 C 0.51336 0.01802 0.01475 0.0
C1830 C 0.52398 0.99822 0.00435 0.0
C1831 C 0.51163 0.98101 0.99047 0.0
C1832 C 0.54788 0.99503 0.00826 0.0
C1833 C 0.52567 0.03675 0.03147 0.0
C1834 C 0.56241 0.00818 0.9867 0.0
C1835 C 0.58484 0.00639 0.99296 0.0
C1836 C 0.5932 0.99133 0.02086 0.0
C1837 C 0.57863 0.97733 0.04075 0.0
C1838 C 0.5562 0.97915 0.03444 0.0
H1839 H 0.51462 0.0485 0.0468 0.0
H1840 H 0.53816 0.03079 0.05258 0.0
H1841 H 0.53411 0.04561 0.00707 0.0
H1842 H 0.55636 0.02019 0.96566 0.0
H1843 H 0.5955 0.01738 0.97691 0.0
H1844 H 0.51212 0.40599 0.02867 0.0
H1845 H 0.51668 0.44496 0.03858 0.0
H1846 H 0.46618 0.45928 0.95463 0.0
H1847 H 0.46123 0.42042 0.94483 0.0
H1848 H 0.5293 0.47431 0.97963 0.0
H1849 H 0.44964 0.49946 0.04531 0.0
H1850 H 0.45862 0.47134 0.04345 0.0
H1851 H 0.44748 0.48458 1.00039 0.0
C1852 C 0.5016 0.41736 0.01293 0.0
C1853 C 0.48631 0.40995 0.98588 0.0
C1854 C 0.50433 0.43967 0.01852 0.0
C1855 C 0.49171 0.45505 0.99751 0.0
C1856 C 0.47586 0.44774 0.97166 0.0
H1857 H 0.48968 0.59605 0.97397 0.0
H1858 H 0.48539 0.55705 0.96414 0.0
C1859 C 0.47311 0.42544 0.96602 0.0
C1860 C 0.49621 0.47867 1.00042 0.0
H1861 H 0.47291 0.52787 0.02329 0.0
C1862 C 0.51702 0.48601 0.98943 0.0
C1863 C 0.48014 0.49394 0.01295 0.0
C1864 C 0.45777 0.48696 0.02655 0.0
C1865 C 0.52208 0.50824 0.98999 0.0
C1866 C 0.506 0.52351 0.00247 0.0
C1867 C 0.4852 0.51616 0.01351 0.0
C1868 C 0.51044 0.54715 0.0052 0.0
C1869 C 0.54444 0.51522 0.97639 0.0
C1870 C 0.52627 0.55459 0.03096 0.0
C1871 C 0.52888 0.57692 0.03655 0.0
C1872 C 0.51554 0.59231 0.01674 0.0
C1873 C 0.5003 0.58476 0.9897 0.0
C1874 C 0.49772 0.56243 0.98416 0.0
H1875 H 0.5526 0.5027 0.95772 0.0
H1876 H 0.54358 0.53081 0.95939 0.0
H1877 H 0.55471 0.51767 0.00255 0.0
H1878 H 0.53603 0.54312 0.04801 0.0
H1879 H 0.54072 0.58203 0.05772 0.0
H1880 H 0.91634 0.54309 0.0508 0.0
H1881 H 0.9557 0.538 0.04295 0.0
H1882 H 0.9456 0.48635 0.96082 0.0
H1883 H 0.90626 0.49141 0.968 0.0
H1884 H 0.97796 0.49974 0.06262 0.0
H1885 H 0.99293 0.52156 0.90522 0.0
H1886 H 0.96808 0.52908 0.93114 0.0
H1887 H 0.9719 0.50192 0.91288 0.0
C1888 C 0.92242 0.53097 0.03032 0.0
C1889 C 0.90799 0.51763 0.01013 0.0
C1890 C 0.94498 0.52802 0.02603 0.0
C1891 C 0.95363 0.51185 0.00122 0.0
C1892 C 0.93934 0.49917 0.97966 0.0
H1893 H 0.08322 0.45939 0.95122 0.0
H1894 H 0.04392 0.46499 0.9589 0.0
C1895 C 0.91677 0.50209 0.98389 0.0
C1896 C 0.97747 0.50708 1.00028 0.0
H1897 H 0.02199 0.50359 0.93887 0.0
C1898 C 0.98763 0.50073 0.03561 0.0
C1899 C 0.99004 0.50823 0.965 0.0
C1900 C 0.98026 0.51575 0.92645 0.0
C1901 C 0.00992 0.49513 0.0365 0.0
C1902 C 0.02248 0.49624 0.0012 0.0
C1903 C 0.01232 0.50263 0.96589 0.0
C1904 C 0.04627 0.49131 1.00022 0.0
C1905 C 0.01971 0.48762 0.07503 0.0
C1906 C 0.06071 0.50393 0.02156 0.0
C1907 C 0.08325 0.50073 0.01741 0.0
C1908 C 0.09186 0.48494 0.9915 0.0
C1909 C 0.07728 0.4717 0.97146 0.0
C1910 C 0.05475 0.47493 0.97565 0.0
H1911 H 0.00703 0.48201 0.09644 0.0
H1912 H 0.03173 0.47415 0.07036 0.0
H1913 H 0.02826 0.5014 0.08839 0.0
H1914 H 0.05458 0.5169 0.04022 0.0
H1915 H 0.09389 0.51135 0.03316 0.0
H1916 H 0.9834 0.09334 0.0297 0.0
H1917 H 0.98122 0.05387 0.03817 0.0
H1918 H 0.03516 0.04523 0.95665 0.0
H1919 H 0.03772 0.08463 0.94826 0.0
H1920 H 0.9726 0.02568 0.97658 0.0
H1921 H 0.05103 0.00348 0.04723 0.0
H1922 H 0.04025 0.03103 0.04613 0.0
H1923 H 0.05375 0.01998 0.00327 0.0
C1924 C 0.99516 0.08312 0.01423 0.0
C1925 C 0.01071 0.09227 0.98818 0.0
C1926 C 0.9938 0.06052 0.01899 0.0
C1927 C 0.00806 0.04661 0.99817 0.0
C1928 C 0.0242 0.05566 0.97348 0.0
H1929 H 0.01897 0.90613 0.97335 0.0
H1930 H 0.02159 0.9455 0.96343 0.0
C1931 C 0.02558 0.07825 0.96865 0.0
C1932 C 0.00498 0.0227 0.99987 0.0
H1933 H 0.03022 0.97436 0.02337 0.0
C1934 C 0.98515 0.01444 0.98701 0.0
C1935 C 0.02143 0.00809 0.01317 0.0
C1936 C 0.04275 0.01605 0.02857 0.0
C1937 C 0.98142 0.99195 0.98666 0.0
C1938 C 0.99784 0.97733 1.00013 0.0
C1939 C 0.0177 0.98558 0.01285 0.0
C1940 C 0.99456 0.95346 0.0026 0.0
C1941 C 0.96011 0.98401 0.97118 0.0
C1942 C 0.9782 0.94484 0.0273 0.0
C1943 C 0.97656 0.92232 0.03293 0.0
C1944 C 0.99141 0.90794 0.01423 0.0
C1945 C 0.00721 0.91664 0.98818 0.0
C1946 C 0.00882 0.93917 0.9826 0.0
H1947 H 0.9521 0.99644 0.95186 0.0
H1948 H 0.96252 0.96879 0.95429 0.0
H1949 H 0.9489 0.98056 0.99642 0.0
H1950 H 0.96724 0.95554 0.04355 0.0
H1951 H 0.96423 0.91629 0.0533 0.0
H1952 H 0.09438 0.984 0.52605 0.0
H1953 H 0.05491 0.98155 0.53477 0.0
H1954 H 0.04579 0.03646 0.45561 0.0
H1955 H 0.08517 0.039 0.44627 0.0
H1956 H 0.02202 0.01159 0.55947 0.0
H1957 H 0.0119 0.98751 0.40354 0.0
H1958 H 0.0381 0.98753 0.42697 0.0
H1959 H 0.02587 0.01266 0.40982 0.0
C1960 C 0.08405 0.99582 0.51094 0.0
C1961 C 0.09304 0.01154 0.48504 0.0
C1962 C 0.06146 0.99433 0.5159 0.0
C1963 C 0.04744 0.00847 0.49505 0.0
C1964 C 0.05634 0.02505 0.47121 0.0
H1965 H 0.90707 0.02053 0.47533 0.0
H1966 H 0.94651 0.02332 0.46651 0.0
C1967 C 0.0789 0.02656 0.46618 0.0
C1968 C 0.02355 0.00539 0.49717 0.0
H1969 H 0.9796 0.9933 0.44132 0.0
C1970 C 0.01274 0.00753 0.5337 0.0
C1971 C 0.0115 1.00004 0.46345 0.0
C1972 C 0.02241 0.9966 0.42376 0.0
C1973 C 0.99012 0.00486 0.53732 0.0
C1974 C 0.97808 0.9995 0.50362 0.0
C1975 C 0.98888 0.99738 0.46707 0.0
C1976 C 0.95421 0.99627 0.5058 0.0
C1977 C 0.97921 0.00826 0.57703 0.0
C1978 C 0.94547 0.97953 0.52943 0.0
C1979 C 0.92293 0.97782 0.5345 0.0
C1980 C 0.90866 0.99281 0.51589 0.0
C1981 C 0.9175 0.00873 0.49023 0.0
C1982 C 0.94007 0.01041 0.48522 0.0
H1983 H 0.98971 0.01734 0.59728 0.0
H1984 H 0.96351 0.01731 0.57383 0.0
H1985 H 0.97577 0.99218 0.59092 0.0
H1986 H 0.95611 0.96813 0.54484 0.0
H1987 H 0.91678 0.96524 0.55423 0.0
H1988 H 0.5432 0.91789 0.55446 0.0
H1989 H 0.5372 0.9572 0.54752 0.0
H1990 H 0.48728 0.94658 0.46223 0.0
H1991 H 0.49291 0.90726 0.46915 0.0
H1992 H 0.53823 0.98658 0.48218 0.0
H1993 H 0.45532 0.98139 0.54917 0.0
H1994 H 0.4749 0.95916 0.55163 0.0
H1995 H 0.45998 0.96435 0.50715 0.0
C1996 C 0.53116 0.92385 0.53373 0.0
C1997 C 0.51837 0.90927 0.51272 0.0
C1998 C 0.52772 0.94637 0.5299 0.0
C1999 C 0.51142 0.95479 0.50513 0.0
C2000 C 0.49959 0.94041 0.48224 0.0
H2001 H 0.46014 0.08396 0.45088 0.0
H2002 H 0.46644 0.04476 0.45883 0.0
C2003 C 0.503 0.91789 0.486 0.0
C2004 C 0.50629 0.97853 0.50426 0.0
H2005 H 0.46582 0.01593 0.52403 0.0
C2006 C 0.52244 0.99302 0.49146 0.0
C2007 C 0.48568 0.9869 0.51651 0.0
C2008 C 0.468 0.9722 0.53224 0.0
C2009 C 0.51839 0.01562 0.48972 0.0
C2010 C 0.49776 0.02399 0.5019 0.0
C2011 C 0.48162 0.0095 0.51479 0.0
C2012 C 0.4925 0.04771 0.50051 0.0
C2013 C 0.53606 0.03029 0.47387 0.0
C2014 C 0.50439 0.06238 0.52268 0.0
C2015 C 0.50083 0.08486 0.5183 0.0
C2016 C 0.48523 0.09313 0.4917 0.0
C2017 C 0.47237 0.07827 0.47148 0.0
C2018 C 0.47598 0.05581 0.4759 0.0
H2019 H 0.54873 0.02108 0.45697 0.0
H2020 H 0.52915 0.04331 0.45442 0.0
H2021 H 0.54409 0.03818 0.4989 0.0
H2022 H 0.51686 0.05647 0.54261 0.0
H2023 H 0.51098 0.09572 0.53457 0.0
H2024 H 0.59446 0.4902 0.4741 0.0
H2025 H 0.55543 0.48582 0.46494 0.0
H2026 H 0.5418 0.53607 0.54971 0.0
H2027 H 0.58077 0.54084 0.55879 0.0
H2028 H 0.52648 0.47309 0.5245 0.0
H2029 H 0.50106 0.55295 0.45986 0.0
H2030 H 0.52918 0.5439 0.46103 0.0
H2031 H 0.51624 0.55487 0.50451 0.0
C2032 C 0.58324 0.5007 0.4902 0.0
C2033 C 0.59088 0.51588 0.51727 0.0
C2034 C 0.56088 0.49808 0.48503 0.0
C2035 C 0.54568 0.51066 0.50649 0.0
C2036 C 0.55321 0.52641 0.53235 0.0
H2037 H 0.40447 0.51204 0.52969 0.0
H2038 H 0.4434 0.51665 0.53988 0.0
C2039 C 0.57556 0.52906 0.53758 0.0
C2040 C 0.52204 0.50621 0.50396 0.0
H2041 H 0.47278 0.52946 0.48132 0.0
C2042 C 0.51474 0.48537 0.51485 0.0
C2043 C 0.50673 0.52229 0.49165 0.0
C2044 C 0.51366 0.54471 0.47825 0.0
C2045 C 0.49253 0.48026 0.51424 0.0
C2046 C 0.47722 0.49633 0.50182 0.0
C2047 C 0.48451 0.51718 0.49103 0.0
C2048 C 0.45362 0.49177 0.49876 0.0
C2049 C 0.48561 0.45785 0.52767 0.0
C2050 C 0.4464 0.47593 0.47279 0.0
C2051 C 0.42412 0.47314 0.46699 0.0
C2052 C 0.40856 0.48629 0.48679 0.0
C2053 C 0.41589 0.50156 0.51397 0.0
C2054 C 0.43818 0.50432 0.51972 0.0
H2055 H 0.4981 0.44974 0.54646 0.0
H2056 H 0.46995 0.45862 0.54447 0.0
H2057 H 0.48332 0.44759 0.50144 0.0
H2058 H 0.458 0.4663 0.45578 0.0
H2059 H 0.41917 0.46128 0.44571 0.0
H2060 H 0.96645 0.58369 0.56103 0.0
H2061 H 0.96997 0.54456 0.55 0.0
H2062 H 0.02157 0.5559 0.46486 0.0
H2063 H 0.01845 0.59504 0.47593 0.0
H2064 H 0.96733 0.51903 0.48192 0.0
H2065 H 0.05008 0.51434 0.54582 0.0
H2066 H 0.0323 0.53784 0.55144 0.0
H2067 H 0.04706 0.53368 0.50589 0.0
C2068 C 0.97839 0.57796 0.53956 0.0
C2069 C 0.99232 0.59261 0.51969 0.0
C2070 C 0.9804 0.55554 0.53337 0.0
C2071 C 0.99639 0.54729 0.50734 0.0
C2072 C 0.00947 0.56189 0.48581 0.0
H2073 H 0.03669 0.41648 0.44001 0.0
H2074 H 0.03387 0.45578 0.45009 0.0
C2075 C 0.0075 0.58431 0.49195 0.0
C2076 C 0.99971 0.5234 0.50352 0.0
H2077 H 0.03693 0.48208 0.51788 0.0
C2078 C 0.98251 0.51094 0.48987 0.0
C2079 C 0.01955 0.51287 0.51397 0.0
C2080 C 0.03827 0.52529 0.53044 0.0
C2081 C 0.98473 0.48827 0.48577 0.0
C2082 C 0.00454 0.47773 0.49635 0.0
C2083 C 0.02176 0.4902 0.50986 0.0
C2084 C 0.00765 0.45378 0.49327 0.0
C2085 C 0.96599 0.47584 0.46939 0.0
C2086 C 0.99447 0.43957 0.51546 0.0
C2087 C 0.99603 0.41708 0.50988 0.0
C2088 C 0.01089 0.40832 0.48203 0.0
C2089 C 0.02499 0.42258 0.46158 0.0
C2090 C 0.02338 0.44509 0.46721 0.0
H2091 H 0.95426 0.48677 0.45372 0.0
H2092 H 0.97193 0.46314 0.44868 0.0
H2093 H 0.95709 0.46764 0.49403 0.0
H2094 H 0.98256 0.44591 0.53642 0.0
H2095 H 0.98499 0.40667 0.52638 0.0
loop_
_geom_bond_atom_site_label_1
_geom_bond_atom_site_label_2
_geom_bond_distance
_geom_bond_site_symmetry_2
_ccdc_geom_bond_type
Co0 O2 2.143 . S
Co0 O8 2.074 . S
Co0 O11 2.093 . S
Co0 O24 2.097 1_565 S
Co0 N41 2.151 . S
Co0 N49 2.214 . S
Co1 O2 2.160 1_545 S
Co1 O7 2.024 1_545 S
Co1 O17 2.057 . S
Co1 O32 2.037 . S
Co1 N36 2.145 . S
Co1 N57 2.257 . S
O2 Co0 2.143 . S
O2 Co1 2.160 1_565 S
C3 O4 1.278 1_565 S
C3 O11 1.224 . S
O4 C3 1.278 1_545 S
C5 O6 1.248 1_545 S
C5 O17 1.228 . S
O6 C5 1.248 1_565 S
O7 Co1 2.024 1_565 S
O7 C33 1.300 . S
O8 Co0 2.074 . S
O8 C33 1.257 . S
H9 C34 0.930 . S
H10 C40 0.930 . S
O11 Co0 2.093 . S
O11 C3 1.224 . S
H12 C44 0.929 . S
H13 C46 0.930 . S
H14 C47 0.930 . S
H15 C45 0.929 . S
H16 C48 0.928 . S
O17 Co1 2.057 . S
O17 C5 1.228 . S
H18 C37 0.929 . S
H19 C38 0.928 1_556 S
H20 C50 0.931 . S
H21 C42 0.929 . S
H22 C51 0.930 . S
H23 C43 0.931 . S
O24 Co0 2.097 1_545 S
O24 C52 1.214 . S
H25 C53 0.929 . S
H26 C54 0.929 . S
H27 C55 0.930 . S
H28 C56 0.929 . S
H29 C58 0.930 . S
H30 C35 0.930 . S
H31 C39 0.930 . S
O32 Co1 2.037 . S
O32 C52 1.234 . S
C33 O7 1.300 . S
C33 O8 1.257 . S
C34 H9 0.930 . S
C34 C37 1.388 . S
C34 C39 1.418 1_554 S
C35 H30 0.930 . S
C35 C38 1.398 1_556 S
C35 C39 1.353 . S
N36 Co1 2.145 . S
N36 C37 1.397 . S
N36 C38 1.341 . S
C37 H18 0.929 . S
C37 C34 1.388 . S
C37 N36 1.397 . S
C38 H19 0.928 1_554 S
C38 C35 1.398 1_554 S
C38 N36 1.341 . S
C39 H31 0.930 . S
C39 C34 1.418 1_556 S
C39 C35 1.353 . S
C40 H10 0.930 . S
C40 N41 1.330 . S
C40 C42 1.446 . S
N41 Co0 2.151 . S
N41 C40 1.330 . S
N41 C45 1.418 . S
C42 H21 0.929 . S
C42 C40 1.446 . S
C42 C43 1.332 . S
C43 H23 0.931 . S
C43 C42 1.332 . S
C43 C44 1.267 . S
C44 H12 0.929 . S
C44 C43 1.267 . S
C44 C45 1.251 . S
C45 H15 0.929 . S
C45 N41 1.418 . S
C45 C44 1.251 . S
C46 H13 0.930 . S
C46 C48 1.406 . S
C46 C51 1.261 . S
C47 H14 0.930 . S
C47 N49 1.325 . S
C47 C50 1.357 . S
C48 H16 0.928 . S
C48 C46 1.406 . S
C48 N49 1.261 . S
N49 Co0 2.214 . S
N49 C47 1.325 . S
N49 C48 1.261 . S
C50 H20 0.931 . S
C50 C47 1.357 . S
C50 C51 1.312 . S
C51 H22 0.930 . S
C51 C46 1.261 . S
C51 C50 1.312 . S
C52 O24 1.214 . S
C52 O32 1.234 . S
C53 H25 0.929 . S
C53 C56 1.391 . S
C53 C58 1.391 . S
C54 H26 0.929 . S
C54 C55 1.390 . S
C54 N57 1.391 . S
C55 H27 0.930 . S
C55 C54 1.390 . S
C55 C56 1.392 . S
C56 H28 0.929 . S
C56 C53 1.391 . S
C56 C55 1.392 . S
N57 Co1 2.257 . S
N57 C54 1.391 . S
N57 C58 1.388 . S
C58 H29 0.930 . S
C58 C53 1.391 . S
C58 N57 1.388 . S
Co59 O61 2.143 . S
Co59 O67 2.074 . S
Co59 O70 2.093 . S
Co59 O83 2.097 . S
Co59 N100 2.151 . S
Co59 N108 2.214 . S
Co60 O61 2.160 . S
Co60 O66 2.058 . S
Co60 O76 2.057 . S
Co60 O91 2.037 . S
Co60 N95 2.145 . S
Co60 N116 2.257 . S
O61 Co59 2.143 . S
O61 Co60 2.160 . S
C62 O63 1.278 . S
C62 O70 1.224 . S
O63 C62 1.278 . S
C64 O65 1.245 . S
C64 O76 1.232 . S
O65 C64 1.245 . S
O66 Co60 2.058 . S
O66 C92 1.269 . S
O67 Co59 2.074 . S
O67 C92 1.257 . S
H68 C93 0.930 . S
H69 C99 0.930 . S
O70 Co59 2.093 . S
O70 C62 1.224 . S
H71 C103 0.929 . S
H72 C105 0.930 . S
H73 C106 0.930 . S
H74 C104 0.929 . S
H75 C107 0.928 . S
O76 Co60 2.057 . S
O76 C64 1.232 . S
H77 C96 0.929 . S
H78 C97 0.929 . S
H79 C109 0.931 . S
H80 C101 0.929 . S
H81 C110 0.930 . S
H82 C102 0.931 . S
O83 Co59 2.097 . S
O83 C111 1.214 . S
H84 C112 0.929 . S
H85 C113 0.929 . S
H86 C114 0.930 . S
H87 C115 0.929 . S
H88 C117 0.930 . S
H89 C94 0.930 . S
H90 C98 0.930 . S
O91 Co60 2.037 . S
O91 C111 1.234 . S
C92 O66 1.269 . S
C92 O67 1.257 . S
C93 H68 0.930 . S
C93 C96 1.388 . S
C93 C98 1.418 1_554 S
C94 H89 0.930 . S
C94 C97 1.404 1_556 S
C94 C98 1.353 . S
N95 Co60 2.145 . S
N95 C96 1.397 . S
N95 C97 1.334 . S
C96 H77 0.929 . S
C96 C93 1.388 . S
C96 N95 1.397 . S
C97 H78 0.929 . S
C97 C94 1.404 1_554 S
C97 N95 1.334 . S
C98 H90 0.930 . S
C98 C93 1.418 1_556 S
C98 C94 1.353 . S
C99 H69 0.930 . S
C99 N100 1.330 . S
C99 C101 1.446 . S
N100 Co59 2.151 . S
N100 C99 1.330 . S
N100 C104 1.418 . S
C101 H80 0.929 . S
C101 C99 1.446 . S
C101 C102 1.332 . S
C102 H82 0.931 . S
C102 C101 1.332 . S
C102 C103 1.267 . S
C103 H71 0.929 . S
C103 C102 1.267 . S
C103 C104 1.251 . S
C104 H74 0.929 . S
C104 N100 1.418 . S
C104 C103 1.251 . S
C105 H72 0.930 . S
C105 C107 1.406 . S
C105 C110 1.261 . S
C106 H73 0.930 . S
C106 N108 1.325 . S
C106 C109 1.357 . S
C107 H75 0.928 . S
C107 C105 1.406 . S
C107 N108 1.261 . S
N108 Co59 2.214 . S
N108 C106 1.325 . S
N108 C107 1.261 . S
C109 H79 0.931 . S
C109 C106 1.357 . S
C109 C110 1.312 . S
C110 H81 0.930 . S
C110 C105 1.261 . S
C110 C109 1.312 . S
C111 O83 1.214 . S
C111 O91 1.234 . S
C112 H84 0.929 . S
C112 C115 1.391 . S
C112 C117 1.391 . S
C113 H85 0.929 . S
C113 C114 1.390 . S
C113 N116 1.391 . S
C114 H86 0.930 . S
C114 C113 1.390 . S
C114 C115 1.392 . S
C115 H87 0.929 . S
C115 C112 1.391 . S
C115 C114 1.392 . S
N116 Co60 2.257 . S
N116 C113 1.391 . S
N116 C117 1.388 . S
C117 H88 0.930 . S
C117 C112 1.391 . S
C117 N116 1.388 . S
Co118 O120 2.143 . S
Co118 O126 2.074 . S
Co118 O129 2.093 . S
Co118 O142 2.097 . S
Co118 N159 2.151 . S
Co118 N167 2.214 . S
Co119 O120 2.160 . S
Co119 O125 2.058 . S
Co119 O135 2.057 . S
Co119 O150 2.037 . S
Co119 N154 2.145 . S
Co119 N175 2.257 . S
O120 Co118 2.143 . S
O120 Co119 2.160 . S
C121 O122 1.278 . S
C121 O129 1.224 . S
O122 C121 1.278 . S
C123 O124 1.245 . S
C123 O135 1.232 . S
O124 C123 1.245 . S
O125 Co119 2.058 . S
O125 C151 1.269 . S
O126 Co118 2.074 . S
O126 C151 1.257 . S
H127 C152 0.930 . S
H128 C158 0.930 . S
O129 Co118 2.093 . S
O129 C121 1.224 . S
H130 C162 0.929 . S
H131 C164 0.930 . S
H132 C165 0.930 . S
H133 C163 0.929 . S
H134 C166 0.928 . S
O135 Co119 2.057 . S
O135 C123 1.232 . S
H136 C155 0.929 . S
H137 C156 0.929 . S
H138 C168 0.931 . S
H139 C160 0.929 . S
H140 C169 0.930 . S
H141 C161 0.931 . S
O142 Co118 2.097 . S
O142 C170 1.214 . S
H143 C171 0.929 . S
H144 C172 0.929 . S
H145 C173 0.930 . S
H146 C174 0.929 . S
H147 C176 0.930 . S
H148 C153 0.930 . S
H149 C157 0.930 . S
O150 Co119 2.037 . S
O150 C170 1.234 . S
C151 O125 1.269 . S
C151 O126 1.257 . S
C152 H127 0.930 . S
C152 C155 1.388 . S
C152 C157 1.418 1_554 S
C153 H148 0.930 . S
C153 C156 1.404 1_556 S
C153 C157 1.353 . S
N154 Co119 2.145 . S
N154 C155 1.397 . S
N154 C156 1.334 . S
C155 H136 0.929 . S
C155 C152 1.388 . S
C155 N154 1.397 . S
C156 H137 0.929 . S
C156 C153 1.404 1_554 S
C156 N154 1.334 . S
C157 H149 0.930 . S
C157 C152 1.418 1_556 S
C157 C153 1.353 . S
C158 H128 0.930 . S
C158 N159 1.330 . S
C158 C160 1.446 . S
N159 Co118 2.151 . S
N159 C158 1.330 . S
N159 C163 1.418 . S
C160 H139 0.929 . S
C160 C158 1.446 . S
C160 C161 1.332 . S
C161 H141 0.931 . S
C161 C160 1.332 . S
C161 C162 1.267 . S
C162 H130 0.929 . S
C162 C161 1.267 . S
C162 C163 1.251 . S
C163 H133 0.929 . S
C163 N159 1.418 . S
C163 C162 1.251 . S
C164 H131 0.930 . S
C164 C166 1.406 . S
C164 C169 1.261 . S
C165 H132 0.930 . S
C165 N167 1.325 . S
C165 C168 1.357 . S
C166 H134 0.928 . S
C166 C164 1.406 . S
C166 N167 1.261 . S
N167 Co118 2.214 . S
N167 C165 1.325 . S
N167 C166 1.261 . S
C168 H138 0.931 . S
C168 C165 1.357 . S
C168 C169 1.312 . S
C169 H140 0.930 . S
C169 C164 1.261 . S
C169 C168 1.312 . S
C170 O142 1.214 . S
C170 O150 1.234 . S
C171 H143 0.929 . S
C171 C174 1.391 . S
C171 C176 1.391 . S
C172 H144 0.929 . S
C172 C173 1.390 . S
C172 N175 1.391 . S
C173 H145 0.930 . S
C173 C172 1.390 . S
C173 C174 1.392 . S
C174 H146 0.929 . S
C174 C171 1.391 . S
C174 C173 1.392 . S
N175 Co119 2.257 . S
N175 C172 1.391 . S
N175 C176 1.388 . S
C176 H147 0.930 . S
C176 C171 1.391 . S
C176 N175 1.388 . S
Co177 O179 2.143 . S
Co177 O185 2.074 . S
Co177 O188 2.093 . S
Co177 O201 2.097 1_655 S
Co177 N218 2.151 . S
Co177 N226 2.214 . S
Co178 O179 2.160 1_455 S
Co178 O184 2.052 1_455 S
Co178 O194 2.057 . S
Co178 O209 2.037 . S
Co178 N213 2.145 . S
Co178 N234 2.257 . S
O179 Co177 2.143 . S
O179 Co178 2.160 1_655 S
C180 O181 1.256 1_655 S
C180 O188 1.224 . S
O181 C180 1.256 1_455 S
C182 O183 1.245 . S
C182 O194 1.232 1_655 S
O183 C182 1.245 . S
O184 Co178 2.052 1_655 S
O184 C210 1.275 . S
O185 Co177 2.074 . S
O185 C210 1.257 . S
H186 C211 0.930 . S
H187 C217 0.930 . S
O188 Co177 2.093 . S
O188 C180 1.224 . S
H189 C221 0.929 . S
H190 C223 0.930 . S
H191 C224 0.930 . S
H192 C222 0.929 . S
H193 C225 0.928 . S
O194 Co178 2.057 . S
O194 C182 1.232 1_455 S
H195 C214 0.929 . S
H196 C215 0.929 . S
H197 C227 0.931 . S
H198 C219 0.929 . S
H199 C228 0.930 . S
H200 C220 0.931 . S
O201 Co177 2.097 1_455 S
O201 C229 1.214 . S
H202 C230 0.929 . S
H203 C231 0.929 . S
H204 C232 0.930 . S
H205 C233 0.929 . S
H206 C235 0.930 . S
H207 C212 0.930 . S
H208 C216 0.930 . S
O209 Co178 2.037 . S
O209 C229 1.234 . S
C210 O184 1.275 . S
C210 O185 1.257 . S
C211 H186 0.930 . S
C211 C214 1.388 . S
C211 C216 1.418 1_554 S
C212 H207 0.930 . S
C212 C215 1.404 . S
C212 C216 1.353 . S
N213 Co178 2.145 . S
N213 C214 1.397 . S
N213 C215 1.334 1_554 S
C214 H195 0.929 . S
C214 C211 1.388 . S
C214 N213 1.397 . S
C215 H196 0.929 . S
C215 C212 1.404 . S
C215 N213 1.334 1_556 S
C216 H208 0.930 . S
C216 C211 1.418 1_556 S
C216 C212 1.353 . S
C217 H187 0.930 . S
C217 N218 1.330 . S
C217 C219 1.446 . S
N218 Co177 2.151 . S
N218 C217 1.330 . S
N218 C222 1.418 . S
C219 H198 0.929 . S
C219 C217 1.446 . S
C219 C220 1.332 . S
C220 H200 0.931 . S
C220 C219 1.332 . S
C220 C221 1.267 . S
C221 H189 0.929 . S
C221 C220 1.267 . S
C221 C222 1.251 . S
C222 H192 0.929 . S
C222 N218 1.418 . S
C222 C221 1.251 . S
C223 H190 0.930 . S
C223 C225 1.406 . S
C223 C228 1.261 . S
C224 H191 0.930 . S
C224 N226 1.325 . S
C224 C227 1.357 . S
C225 H193 0.928 . S
C225 C223 1.406 . S
C225 N226 1.261 . S
N226 Co177 2.214 . S
N226 C224 1.325 . S
N226 C225 1.261 . S
C227 H197 0.931 . S
C227 C224 1.357 . S
C227 C228 1.312 . S
C228 H199 0.930 . S
C228 C223 1.261 . S
C228 C227 1.312 . S
C229 O201 1.214 . S
C229 O209 1.234 . S
C230 H202 0.929 . S
C230 C233 1.391 . S
C230 C235 1.391 . S
C231 H203 0.929 . S
C231 C232 1.390 . S
C231 N234 1.391 . S
C232 H204 0.930 . S
C232 C231 1.390 . S
C232 C233 1.392 . S
C233 H205 0.929 . S
C233 C230 1.391 . S
C233 C232 1.392 . S
N234 Co178 2.257 . S
N234 C231 1.391 . S
N234 C235 1.388 . S
C235 H206 0.930 . S
C235 C230 1.391 . S
C235 N234 1.388 . S
Co236 O238 2.143 . S
Co236 O244 2.074 . S
Co236 O247 2.093 . S
Co236 O260 2.097 1_545 S
Co236 N277 2.151 . S
Co236 N285 2.214 . S
Co237 O238 2.160 1_565 S
Co237 O243 2.052 1_565 S
Co237 O253 2.057 . S
Co237 O268 2.037 . S
Co237 N272 2.145 . S
Co237 N293 2.257 . S
O238 Co236 2.143 . S
O238 Co237 2.160 1_545 S
C239 O240 1.256 1_545 S
C239 O247 1.224 . S
O240 C239 1.256 1_565 S
C241 O242 1.245 . S
C241 O253 1.232 1_545 S
O242 C241 1.245 . S
O243 Co237 2.052 1_545 S
O243 C269 1.275 . S
O244 Co236 2.074 . S
O244 C269 1.257 . S
H245 C270 0.930 . S
H246 C276 0.930 . S
O247 Co236 2.093 . S
O247 C239 1.224 . S
H248 C280 0.929 . S
H249 C282 0.930 . S
H250 C283 0.930 . S
H251 C281 0.929 . S
H252 C284 0.928 . S
O253 Co237 2.057 . S
O253 C241 1.232 1_565 S
H254 C273 0.929 . S
H255 C274 0.929 . S
H256 C286 0.931 . S
H257 C278 0.929 . S
H258 C287 0.930 . S
H259 C279 0.931 . S
O260 Co236 2.097 1_565 S
O260 C288 1.214 . S
H261 C289 0.929 . S
H262 C290 0.929 . S
H263 C291 0.930 . S
H264 C292 0.929 . S
H265 C294 0.930 . S
H266 C271 0.930 . S
H267 C275 0.930 . S
O268 Co237 2.037 . S
O268 C288 1.234 . S
C269 O243 1.275 . S
C269 O244 1.257 . S
C270 H245 0.930 . S
C270 C273 1.388 . S
C270 C275 1.418 . S
C271 H266 0.930 . S
C271 C274 1.404 . S
C271 C275 1.353 . S
N272 Co237 2.145 . S
N272 C273 1.397 . S
N272 C274 1.334 . S
C273 H254 0.929 . S
C273 C270 1.388 . S
C273 N272 1.397 . S
C274 H255 0.929 . S
C274 C271 1.404 . S
C274 N272 1.334 . S
C275 H267 0.930 . S
C275 C270 1.418 . S
C275 C271 1.353 . S
C276 H246 0.930 . S
C276 N277 1.330 . S
C276 C278 1.446 . S
N277 Co236 2.151 . S
N277 C276 1.330 . S
N277 C281 1.418 . S
C278 H257 0.929 . S
C278 C276 1.446 . S
C278 C279 1.332 . S
C279 H259 0.931 . S
C279 C278 1.332 . S
C279 C280 1.267 . S
C280 H248 0.929 . S
C280 C279 1.267 . S
C280 C281 1.251 . S
C281 H251 0.929 . S
C281 N277 1.418 . S
C281 C280 1.251 . S
C282 H249 0.930 . S
C282 C284 1.406 . S
C282 C287 1.261 . S
C283 H250 0.930 . S
C283 N285 1.325 . S
C283 C286 1.357 . S
C284 H252 0.928 . S
C284 C282 1.406 . S
C284 N285 1.261 . S
N285 Co236 2.214 . S
N285 C283 1.325 . S
N285 C284 1.261 . S
C286 H256 0.931 . S
C286 C283 1.357 . S
C286 C287 1.312 . S
C287 H258 0.930 . S
C287 C282 1.261 . S
C287 C286 1.312 . S
C288 O260 1.214 . S
C288 O268 1.234 . S
C289 H261 0.929 . S
C289 C292 1.391 . S
C289 C294 1.391 . S
C290 H262 0.929 . S
C290 C291 1.390 . S
C290 N293 1.391 . S
C291 H263 0.930 . S
C291 C290 1.390 . S
C291 C292 1.392 . S
C292 H264 0.929 . S
C292 C289 1.391 . S
C292 C291 1.392 . S
N293 Co237 2.257 . S
N293 C290 1.391 . S
N293 C294 1.388 . S
C294 H265 0.930 . S
C294 C289 1.391 . S
C294 N293 1.388 . S
Co295 O297 2.143 . S
Co295 O303 2.074 . S
Co295 O306 2.093 . S
Co295 O319 2.097 . S
Co295 N336 2.151 . S
Co295 N344 2.214 . S
Co296 O297 2.160 . S
Co296 O302 2.058 . S
Co296 O312 2.057 . S
Co296 O327 2.037 . S
Co296 N331 2.145 . S
Co296 N352 2.257 . S
O297 Co295 2.143 . S
O297 Co296 2.160 . S
C298 O299 1.278 . S
C298 O306 1.224 . S
O299 C298 1.278 . S
C300 O301 1.245 . S
C300 O312 1.232 . S
O301 C300 1.245 . S
O302 Co296 2.058 . S
O302 C328 1.269 . S
O303 Co295 2.074 . S
O303 C328 1.257 . S
H304 C329 0.930 . S
H305 C335 0.930 . S
O306 Co295 2.093 . S
O306 C298 1.224 . S
H307 C339 0.929 . S
H308 C341 0.930 . S
H309 C342 0.930 . S
H310 C340 0.929 . S
H311 C343 0.928 . S
O312 Co296 2.057 . S
O312 C300 1.232 . S
H313 C332 0.929 . S
H314 C333 0.929 . S
H315 C345 0.931 . S
H316 C337 0.929 . S
H317 C346 0.930 . S
H318 C338 0.931 . S
O319 Co295 2.097 . S
O319 C347 1.214 . S
H320 C348 0.929 . S
H321 C349 0.929 . S
H322 C350 0.930 . S
H323 C351 0.929 . S
H324 C353 0.930 . S
H325 C330 0.930 . S
H326 C334 0.930 . S
O327 Co296 2.037 . S
O327 C347 1.234 . S
C328 O302 1.269 . S
C328 O303 1.257 . S
C329 H304 0.930 . S
C329 C332 1.388 . S
C329 C334 1.418 . S
C330 H325 0.930 . S
C330 C333 1.404 . S
C330 C334 1.353 . S
N331 Co296 2.145 . S
N331 C332 1.397 . S
N331 C333 1.334 . S
C332 H313 0.929 . S
C332 C329 1.388 . S
C332 N331 1.397 . S
C333 H314 0.929 . S
C333 C330 1.404 . S
C333 N331 1.334 . S
C334 H326 0.930 . S
C334 C329 1.418 . S
C334 C330 1.353 . S
C335 H305 0.930 . S
C335 N336 1.330 . S
C335 C337 1.446 . S
N336 Co295 2.151 . S
N336 C335 1.330 . S
N336 C340 1.418 . S
C337 H316 0.929 . S
C337 C335 1.446 . S
C337 C338 1.332 . S
C338 H318 0.931 . S
C338 C337 1.332 . S
C338 C339 1.267 . S
C339 H307 0.929 . S
C339 C338 1.267 . S
C339 C340 1.251 . S
C340 H310 0.929 . S
C340 N336 1.418 . S
C340 C339 1.251 . S
C341 H308 0.930 . S
C341 C343 1.406 . S
C341 C346 1.261 . S
C342 H309 0.930 . S
C342 N344 1.325 . S
C342 C345 1.357 . S
C343 H311 0.928 . S
C343 C341 1.406 . S
C343 N344 1.261 . S
N344 Co295 2.214 . S
N344 C342 1.325 . S
N344 C343 1.261 . S
C345 H315 0.931 . S
C345 C342 1.357 . S
C345 C346 1.312 . S
C346 H317 0.930 . S
C346 C341 1.261 . S
C346 C345 1.312 . S
C347 O319 1.214 . S
C347 O327 1.234 . S
C348 H320 0.929 . S
C348 C351 1.391 . S
C348 C353 1.391 . S
C349 H321 0.929 . S
C349 C350 1.390 . S
C349 N352 1.391 . S
C350 H322 0.930 . S
C350 C349 1.390 . S
C350 C351 1.392 . S
C351 H323 0.929 . S
C351 C348 1.391 . S
C351 C350 1.392 . S
N352 Co296 2.257 . S
N352 C349 1.391 . S
N352 C353 1.388 . S
C353 H324 0.930 . S
C353 C348 1.391 . S
C353 N352 1.388 . S
Co354 O356 2.143 . S
Co354 O362 2.074 . S
Co354 O365 2.093 . S
Co354 O378 2.097 . S
Co354 N395 2.151 . S
Co354 N403 2.214 . S
Co355 O356 2.160 . S
Co355 O361 2.058 . S
Co355 O371 2.057 . S
Co355 O386 2.037 . S
Co355 N390 2.145 . S
Co355 N411 2.257 . S
O356 Co354 2.143 . S
O356 Co355 2.160 . S
C357 O358 1.278 . S
C357 O365 1.224 . S
O358 C357 1.278 . S
C359 O360 1.245 . S
C359 O371 1.232 . S
O360 C359 1.245 . S
O361 Co355 2.058 . S
O361 C387 1.269 . S
O362 Co354 2.074 . S
O362 C387 1.257 . S
H363 C388 0.930 . S
H364 C394 0.930 . S
O365 Co354 2.093 . S
O365 C357 1.224 . S
H366 C398 0.929 . S
H367 C400 0.930 . S
H368 C401 0.930 . S
H369 C399 0.929 . S
H370 C402 0.928 . S
O371 Co355 2.057 . S
O371 C359 1.232 . S
H372 C391 0.929 . S
H373 C392 0.929 . S
H374 C404 0.931 . S
H375 C396 0.929 . S
H376 C405 0.930 . S
H377 C397 0.931 . S
O378 Co354 2.097 . S
O378 C406 1.214 . S
H379 C407 0.929 . S
H380 C408 0.929 . S
H381 C409 0.930 . S
H382 C410 0.929 . S
H383 C412 0.930 . S
H384 C389 0.930 . S
H385 C393 0.930 . S
O386 Co355 2.037 . S
O386 C406 1.234 . S
C387 O361 1.269 . S
C387 O362 1.257 . S
C388 H363 0.930 . S
C388 C391 1.388 . S
C388 C393 1.418 . S
C389 H384 0.930 . S
C389 C392 1.404 . S
C389 C393 1.353 . S
N390 Co355 2.145 . S
N390 C391 1.397 . S
N390 C392 1.334 . S
C391 H372 0.929 . S
C391 C388 1.388 . S
C391 N390 1.397 . S
C392 H373 0.929 . S
C392 C389 1.404 . S
C392 N390 1.334 . S
C393 H385 0.930 . S
C393 C388 1.418 . S
C393 C389 1.353 . S
C394 H364 0.930 . S
C394 N395 1.330 . S
C394 C396 1.446 . S
N395 Co354 2.151 . S
N395 C394 1.330 . S
N395 C399 1.418 . S
C396 H375 0.929 . S
C396 C394 1.446 . S
C396 C397 1.332 . S
C397 H377 0.931 . S
C397 C396 1.332 . S
C397 C398 1.267 . S
C398 H366 0.929 . S
C398 C397 1.267 . S
C398 C399 1.251 . S
C399 H369 0.929 . S
C399 N395 1.418 . S
C399 C398 1.251 . S
C400 H367 0.930 . S
C400 C402 1.406 . S
C400 C405 1.261 . S
C401 H368 0.930 . S
C401 N403 1.325 . S
C401 C404 1.357 . S
C402 H370 0.928 . S
C402 C400 1.406 . S
C402 N403 1.261 . S
N403 Co354 2.214 . S
N403 C401 1.325 . S
N403 C402 1.261 . S
C404 H374 0.931 . S
C404 C401 1.357 . S
C404 C405 1.312 . S
C405 H376 0.930 . S
C405 C400 1.261 . S
C405 C404 1.312 . S
C406 O378 1.214 . S
C406 O386 1.234 . S
C407 H379 0.929 . S
C407 C410 1.391 . S
C407 C412 1.391 . S
C408 H380 0.929 . S
C408 C409 1.390 . S
C408 N411 1.391 . S
C409 H381 0.930 . S
C409 C408 1.390 . S
C409 C410 1.392 . S
C410 H382 0.929 . S
C410 C407 1.391 . S
C410 C409 1.392 . S
N411 Co355 2.257 . S
N411 C408 1.391 . S
N411 C412 1.388 . S
C412 H383 0.930 . S
C412 C407 1.391 . S
C412 N411 1.388 . S
Co413 O415 2.143 . S
Co413 O421 2.074 . S
Co413 O424 2.093 . S
Co413 O437 2.097 1_455 S
Co413 N454 2.151 . S
Co413 N462 2.214 . S
Co414 O415 2.160 1_655 S
Co414 O420 2.024 1_655 S
Co414 O430 2.057 . S
Co414 O445 2.037 . S
Co414 N449 2.145 . S
Co414 N470 2.257 . S
O415 Co413 2.143 . S
O415 Co414 2.160 1_455 S
C416 O417 1.278 1_455 S
C416 O424 1.224 . S
O417 C416 1.278 1_655 S
C418 O419 1.248 1_655 S
C418 O430 1.228 . S
O419 C418 1.248 1_455 S
O420 Co414 2.024 1_455 S
O420 C446 1.300 . S
O421 Co413 2.074 . S
O421 C446 1.257 . S
H422 C447 0.930 . S
H423 C453 0.930 . S
O424 Co413 2.093 . S
O424 C416 1.224 . S
H425 C457 0.929 . S
H426 C459 0.930 . S
H427 C460 0.930 . S
H428 C458 0.929 . S
H429 C461 0.928 . S
O430 Co414 2.057 . S
O430 C418 1.228 . S
H431 C450 0.929 . S
H432 C451 0.929 . S
H433 C463 0.931 . S
H434 C455 0.929 . S
H435 C464 0.930 . S
H436 C456 0.931 . S
O437 Co413 2.097 1_655 S
O437 C465 1.214 . S
H438 C466 0.929 . S
H439 C467 0.929 . S
H440 C468 0.930 . S
H441 C469 0.929 . S
H442 C471 0.930 . S
H443 C448 0.930 . S
H444 C452 0.930 . S
O445 Co414 2.037 . S
O445 C465 1.234 . S
C446 O420 1.300 . S
C446 O421 1.257 . S
C447 H422 0.930 . S
C447 C450 1.388 . S
C447 C452 1.418 . S
C448 H443 0.930 . S
C448 C451 1.404 . S
C448 C452 1.353 . S
N449 Co414 2.145 . S
N449 C450 1.397 . S
N449 C451 1.334 . S
C450 H431 0.929 . S
C450 C447 1.388 . S
C450 N449 1.397 . S
C451 H432 0.929 . S
C451 C448 1.404 . S
C451 N449 1.334 . S
C452 H444 0.930 . S
C452 C447 1.418 . S
C452 C448 1.353 . S
C453 H423 0.930 . S
C453 N454 1.330 . S
C453 C455 1.446 . S
N454 Co413 2.151 . S
N454 C453 1.330 . S
N454 C458 1.418 . S
C455 H434 0.929 . S
C455 C453 1.446 . S
C455 C456 1.332 . S
C456 H436 0.931 . S
C456 C455 1.332 . S
C456 C457 1.267 . S
C457 H425 0.929 . S
C457 C456 1.267 . S
C457 C458 1.251 . S
C458 H428 0.929 . S
C458 N454 1.418 . S
C458 C457 1.251 . S
C459 H426 0.930 . S
C459 C461 1.406 . S
C459 C464 1.261 . S
C460 H427 0.930 . S
C460 N462 1.325 . S
C460 C463 1.357 . S
C461 H429 0.928 . S
C461 C459 1.406 . S
C461 N462 1.261 . S
N462 Co413 2.214 . S
N462 C460 1.325 . S
N462 C461 1.261 . S
C463 H433 0.931 . S
C463 C460 1.357 . S
C463 C464 1.312 . S
C464 H435 0.930 . S
C464 C459 1.261 . S
C464 C463 1.312 . S
C465 O437 1.214 . S
C465 O445 1.234 . S
C466 H438 0.929 . S
C466 C469 1.391 . S
C466 C471 1.391 . S
C467 H439 0.929 . S
C467 C468 1.390 . S
C467 N470 1.391 . S
C468 H440 0.930 . S
C468 C467 1.390 . S
C468 C469 1.392 . S
C469 H441 0.929 . S
C469 C466 1.391 . S
C469 C468 1.392 . S
N470 Co414 2.257 . S
N470 C467 1.391 . S
N470 C471 1.388 . S
C471 H442 0.930 . S
C471 C466 1.391 . S
C471 N470 1.388 . S
Co472 O474 2.143 . S
Co472 O480 2.074 . S
Co472 O483 2.093 . S
Co472 O496 2.097 1_545 S
Co472 N513 2.151 . S
Co472 N521 2.214 . S
Co473 O474 2.160 1_565 S
Co473 O479 2.024 1_565 S
Co473 O489 2.057 . S
Co473 O504 2.037 . S
Co473 N508 2.145 . S
Co473 N529 2.257 . S
O474 Co472 2.143 . S
O474 Co473 2.160 1_545 S
C475 O476 1.278 1_545 S
C475 O483 1.224 . S
O476 C475 1.278 1_565 S
C477 O478 1.248 1_565 S
C477 O489 1.228 . S
O478 C477 1.248 1_545 S
O479 Co473 2.024 1_545 S
O479 C505 1.300 . S
O480 Co472 2.074 . S
O480 C505 1.257 . S
H481 C506 0.930 . S
H482 C512 0.930 . S
O483 Co472 2.093 . S
O483 C475 1.224 . S
H484 C516 0.929 . S
H485 C518 0.930 . S
H486 C519 0.930 . S
H487 C517 0.929 . S
H488 C520 0.928 . S
O489 Co473 2.057 . S
O489 C477 1.228 . S
H490 C509 0.929 . S
H491 C510 0.928 1_554 S
H492 C522 0.931 . S
H493 C514 0.929 . S
H494 C523 0.930 . S
H495 C515 0.931 . S
O496 Co472 2.097 1_565 S
O496 C524 1.214 . S
H497 C525 0.929 . S
H498 C526 0.929 . S
H499 C527 0.930 . S
H500 C528 0.929 . S
H501 C530 0.930 . S
H502 C507 0.930 . S
H503 C511 0.930 . S
O504 Co473 2.037 . S
O504 C524 1.234 . S
C505 O479 1.300 . S
C505 O480 1.257 . S
C506 H481 0.930 . S
C506 C509 1.388 . S
C506 C511 1.418 1_556 S
C507 H502 0.930 . S
C507 C510 1.398 1_554 S
C507 C511 1.353 . S
N508 Co473 2.145 . S
N508 C509 1.397 . S
N508 C510 1.341 . S
C509 H490 0.929 . S
C509 C506 1.388 . S
C509 N508 1.397 . S
C510 H491 0.928 1_556 S
C510 C507 1.398 1_556 S
C510 N508 1.341 . S
C511 H503 0.930 . S
C511 C506 1.418 1_554 S
C511 C507 1.353 . S
C512 H482 0.930 . S
C512 N513 1.330 . S
C512 C514 1.446 . S
N513 Co472 2.151 . S
N513 C512 1.330 . S
N513 C517 1.418 . S
C514 H493 0.929 . S
C514 C512 1.446 . S
C514 C515 1.332 . S
C515 H495 0.931 . S
C515 C514 1.332 . S
C515 C516 1.267 . S
C516 H484 0.929 . S
C516 C515 1.267 . S
C516 C517 1.251 . S
C517 H487 0.929 . S
C517 N513 1.418 . S
C517 C516 1.251 . S
C518 H485 0.930 . S
C518 C520 1.406 . S
C518 C523 1.261 . S
C519 H486 0.930 . S
C519 N521 1.325 . S
C519 C522 1.357 . S
C520 H488 0.928 . S
C520 C518 1.406 . S
C520 N521 1.261 . S
N521 Co472 2.214 . S
N521 C519 1.325 . S
N521 C520 1.261 . S
C522 H492 0.931 . S
C522 C519 1.357 . S
C522 C523 1.312 . S
C523 H494 0.930 . S
C523 C518 1.261 . S
C523 C522 1.312 . S
C524 O496 1.214 . S
C524 O504 1.234 . S
C525 H497 0.929 . S
C525 C528 1.391 . S
C525 C530 1.391 . S
C526 H498 0.929 . S
C526 C527 1.390 . S
C526 N529 1.391 . S
C527 H499 0.930 . S
C527 C526 1.390 . S
C527 C528 1.392 . S
C528 H500 0.929 . S
C528 C525 1.391 . S
C528 C527 1.392 . S
N529 Co473 2.257 . S
N529 C526 1.391 . S
N529 C530 1.388 . S
C530 H501 0.930 . S
C530 C525 1.391 . S
C530 N529 1.388 . S
Co531 O533 2.143 . S
Co531 O539 2.074 . S
Co531 O542 2.093 . S
Co531 O555 2.097 . S
Co531 N572 2.151 . S
Co531 N580 2.214 . S
Co532 O533 2.160 . S
Co532 O538 2.058 . S
Co532 O548 2.057 . S
Co532 O563 2.037 . S
Co532 N567 2.145 . S
Co532 N588 2.257 . S
O533 Co531 2.143 . S
O533 Co532 2.160 . S
C534 O535 1.278 . S
C534 O542 1.224 . S
O535 C534 1.278 . S
C536 O537 1.245 . S
C536 O548 1.232 . S
O537 C536 1.245 . S
O538 Co532 2.058 . S
O538 C564 1.269 . S
O539 Co531 2.074 . S
O539 C564 1.257 . S
H540 C565 0.930 . S
H541 C571 0.930 . S
O542 Co531 2.093 . S
O542 C534 1.224 . S
H543 C575 0.929 . S
H544 C577 0.930 . S
H545 C578 0.930 . S
H546 C576 0.929 . S
H547 C579 0.928 . S
O548 Co532 2.057 . S
O548 C536 1.232 . S
H549 C568 0.929 . S
H550 C569 0.929 . S
H551 C581 0.931 . S
H552 C573 0.929 . S
H553 C582 0.930 . S
H554 C574 0.931 . S
O555 Co531 2.097 . S
O555 C583 1.214 . S
H556 C584 0.929 . S
H557 C585 0.929 . S
H558 C586 0.930 . S
H559 C587 0.929 . S
H560 C589 0.930 . S
H561 C566 0.930 . S
H562 C570 0.930 . S
O563 Co532 2.037 . S
O563 C583 1.234 . S
C564 O538 1.269 . S
C564 O539 1.257 . S
C565 H540 0.930 . S
C565 C568 1.388 . S
C565 C570 1.418 1_556 S
C566 H561 0.930 . S
C566 C569 1.404 1_554 S
C566 C570 1.353 . S
N567 Co532 2.145 . S
N567 C568 1.397 . S
N567 C569 1.334 . S
C568 H549 0.929 . S
C568 C565 1.388 . S
C568 N567 1.397 . S
C569 H550 0.929 . S
C569 C566 1.404 1_556 S
C569 N567 1.334 . S
C570 H562 0.930 . S
C570 C565 1.418 1_554 S
C570 C566 1.353 . S
C571 H541 0.930 . S
C571 N572 1.330 . S
C571 C573 1.446 . S
N572 Co531 2.151 . S
N572 C571 1.330 . S
N572 C576 1.418 . S
C573 H552 0.929 . S
C573 C571 1.446 . S
C573 C574 1.332 . S
C574 H554 0.931 . S
C574 C573 1.332 . S
C574 C575 1.267 . S
C575 H543 0.929 . S
C575 C574 1.267 . S
C575 C576 1.251 . S
C576 H546 0.929 . S
C576 N572 1.418 . S
C576 C575 1.251 . S
C577 H544 0.930 . S
C577 C579 1.406 . S
C577 C582 1.261 . S
C578 H545 0.930 . S
C578 N580 1.325 . S
C578 C581 1.357 . S
C579 H547 0.928 . S
C579 C577 1.406 . S
C579 N580 1.261 . S
N580 Co531 2.214 . S
N580 C578 1.325 . S
N580 C579 1.261 . S
C581 H551 0.931 . S
C581 C578 1.357 . S
C581 C582 1.312 . S
C582 H553 0.930 . S
C582 C577 1.261 . S
C582 C581 1.312 . S
C583 O555 1.214 . S
C583 O563 1.234 . S
C584 H556 0.929 . S
C584 C587 1.391 . S
C584 C589 1.391 . S
C585 H557 0.929 . S
C585 C586 1.390 . S
C585 N588 1.391 . S
C586 H558 0.930 . S
C586 C585 1.390 . S
C586 C587 1.392 . S
C587 H559 0.929 . S
C587 C584 1.391 . S
C587 C586 1.392 . S
N588 Co532 2.257 . S
N588 C585 1.391 . S
N588 C589 1.388 . S
C589 H560 0.930 . S
C589 C584 1.391 . S
C589 N588 1.388 . S
Co590 O592 2.143 . S
Co590 O598 2.074 . S
Co590 O601 2.093 . S
Co590 O614 2.097 . S
Co590 N631 2.151 . S
Co590 N639 2.214 . S
Co591 O592 2.160 . S
Co591 O597 2.058 . S
Co591 O607 2.057 . S
Co591 O622 2.037 . S
Co591 N626 2.145 . S
Co591 N647 2.257 . S
O592 Co590 2.143 . S
O592 Co591 2.160 . S
C593 O594 1.278 . S
C593 O601 1.224 . S
O594 C593 1.278 . S
C595 O596 1.245 . S
C595 O607 1.232 . S
O596 C595 1.245 . S
O597 Co591 2.058 . S
O597 C623 1.269 . S
O598 Co590 2.074 . S
O598 C623 1.257 . S
H599 C624 0.930 . S
H600 C630 0.930 . S
O601 Co590 2.093 . S
O601 C593 1.224 . S
H602 C634 0.929 . S
H603 C636 0.930 . S
H604 C637 0.930 . S
H605 C635 0.929 . S
H606 C638 0.928 . S
O607 Co591 2.057 . S
O607 C595 1.232 . S
H608 C627 0.929 . S
H609 C628 0.929 . S
H610 C640 0.931 . S
H611 C632 0.929 . S
H612 C641 0.930 . S
H613 C633 0.931 . S
O614 Co590 2.097 . S
O614 C642 1.214 . S
H615 C643 0.929 . S
H616 C644 0.929 . S
H617 C645 0.930 . S
H618 C646 0.929 . S
H619 C648 0.930 . S
H620 C625 0.930 . S
H621 C629 0.930 . S
O622 Co591 2.037 . S
O622 C642 1.234 . S
C623 O597 1.269 . S
C623 O598 1.257 . S
C624 H599 0.930 . S
C624 C627 1.388 . S
C624 C629 1.418 1_556 S
C625 H620 0.930 . S
C625 C628 1.404 1_554 S
C625 C629 1.353 . S
N626 Co591 2.145 . S
N626 C627 1.397 . S
N626 C628 1.334 . S
C627 H608 0.929 . S
C627 C624 1.388 . S
C627 N626 1.397 . S
C628 H609 0.929 . S
C628 C625 1.404 1_556 S
C628 N626 1.334 . S
C629 H621 0.930 . S
C629 C624 1.418 1_554 S
C629 C625 1.353 . S
C630 H600 0.930 . S
C630 N631 1.330 . S
C630 C632 1.446 . S
N631 Co590 2.151 . S
N631 C630 1.330 . S
N631 C635 1.418 . S
C632 H611 0.929 . S
C632 C630 1.446 . S
C632 C633 1.332 . S
C633 H613 0.931 . S
C633 C632 1.332 . S
C633 C634 1.267 . S
C634 H602 0.929 . S
C634 C633 1.267 . S
C634 C635 1.251 . S
C635 H605 0.929 . S
C635 N631 1.418 . S
C635 C634 1.251 . S
C636 H603 0.930 . S
C636 C638 1.406 . S
C636 C641 1.261 . S
C637 H604 0.930 . S
C637 N639 1.325 . S
C637 C640 1.357 . S
C638 H606 0.928 . S
C638 C636 1.406 . S
C638 N639 1.261 . S
N639 Co590 2.214 . S
N639 C637 1.325 . S
N639 C638 1.261 . S
C640 H610 0.931 . S
C640 C637 1.357 . S
C640 C641 1.312 . S
C641 H612 0.930 . S
C641 C636 1.261 . S
C641 C640 1.312 . S
C642 O614 1.214 . S
C642 O622 1.234 . S
C643 H615 0.929 . S
C643 C646 1.391 . S
C643 C648 1.391 . S
C644 H616 0.929 . S
C644 C645 1.390 . S
C644 N647 1.391 . S
C645 H617 0.930 . S
C645 C644 1.390 . S
C645 C646 1.392 . S
C646 H618 0.929 . S
C646 C643 1.391 . S
C646 C645 1.392 . S
N647 Co591 2.257 . S
N647 C644 1.391 . S
N647 C648 1.388 . S
C648 H619 0.930 . S
C648 C643 1.391 . S
C648 N647 1.388 . S
Co649 O651 2.143 . S
Co649 O657 2.074 . S
Co649 O660 2.093 . S
Co649 O673 2.097 1_455 S
Co649 N690 2.151 . S
Co649 N698 2.214 . S
Co650 O651 2.160 1_655 S
Co650 O656 2.052 1_655 S
Co650 O666 2.057 . S
Co650 O681 2.037 . S
Co650 N685 2.145 . S
Co650 N706 2.257 . S
O651 Co649 2.143 . S
O651 Co650 2.160 1_455 S
C652 O653 1.256 1_455 S
C652 O660 1.224 . S
O653 C652 1.256 1_655 S
C654 O655 1.245 . S
C654 O666 1.232 1_455 S
O655 C654 1.245 . S
O656 Co650 2.052 1_455 S
O656 C682 1.275 . S
O657 Co649 2.074 . S
O657 C682 1.257 . S
H658 C683 0.930 . S
H659 C689 0.930 . S
O660 Co649 2.093 . S
O660 C652 1.224 . S
H661 C693 0.929 . S
H662 C695 0.930 . S
H663 C696 0.930 . S
H664 C694 0.929 . S
H665 C697 0.928 . S
O666 Co650 2.057 . S
O666 C654 1.232 1_655 S
H667 C686 0.929 . S
H668 C687 0.929 . S
H669 C699 0.931 . S
H670 C691 0.929 . S
H671 C700 0.930 . S
H672 C692 0.931 . S
O673 Co649 2.097 1_655 S
O673 C701 1.214 . S
H674 C702 0.929 . S
H675 C703 0.929 . S
H676 C704 0.930 . S
H677 C705 0.929 . S
H678 C707 0.930 . S
H679 C684 0.930 . S
H680 C688 0.930 . S
O681 Co650 2.037 . S
O681 C701 1.234 . S
C682 O656 1.275 . S
C682 O657 1.257 . S
C683 H658 0.930 . S
C683 C686 1.388 . S
C683 C688 1.418 1_556 S
C684 H679 0.930 . S
C684 C687 1.404 . S
C684 C688 1.353 . S
N685 Co650 2.145 . S
N685 C686 1.397 . S
N685 C687 1.334 1_556 S
C686 H667 0.929 . S
C686 C683 1.388 . S
C686 N685 1.397 . S
C687 H668 0.929 . S
C687 C684 1.404 . S
C687 N685 1.334 1_554 S
C688 H680 0.930 . S
C688 C683 1.418 1_554 S
C688 C684 1.353 . S
C689 H659 0.930 . S
C689 N690 1.330 . S
C689 C691 1.446 . S
N690 Co649 2.151 . S
N690 C689 1.330 . S
N690 C694 1.418 . S
C691 H670 0.929 . S
C691 C689 1.446 . S
C691 C692 1.332 . S
C692 H672 0.931 . S
C692 C691 1.332 . S
C692 C693 1.267 . S
C693 H661 0.929 . S
C693 C692 1.267 . S
C693 C694 1.251 . S
C694 H664 0.929 . S
C694 N690 1.418 . S
C694 C693 1.251 . S
C695 H662 0.930 . S
C695 C697 1.406 . S
C695 C700 1.261 . S
C696 H663 0.930 . S
C696 N698 1.325 . S
C696 C699 1.357 . S
C697 H665 0.928 . S
C697 C695 1.406 . S
C697 N698 1.261 . S
N698 Co649 2.214 . S
N698 C696 1.325 . S
N698 C697 1.261 . S
C699 H669 0.931 . S
C699 C696 1.357 . S
C699 C700 1.312 . S
C700 H671 0.930 . S
C700 C695 1.261 . S
C700 C699 1.312 . S
C701 O673 1.214 . S
C701 O681 1.234 . S
C702 H674 0.929 . S
C702 C705 1.391 . S
C702 C707 1.391 . S
C703 H675 0.929 . S
C703 C704 1.390 . S
C703 N706 1.391 . S
C704 H676 0.930 . S
C704 C703 1.390 . S
C704 C705 1.392 . S
C705 H677 0.929 . S
C705 C702 1.391 . S
C705 C704 1.392 . S
N706 Co650 2.257 . S
N706 C703 1.391 . S
N706 C707 1.388 . S
C707 H678 0.930 . S
C707 C702 1.391 . S
C707 N706 1.388 . S
Co708 O710 2.143 . S
Co708 O716 2.074 . S
Co708 O719 2.093 . S
Co708 O732 2.097 1_565 S
Co708 N749 2.151 . S
Co708 N757 2.214 . S
Co709 O710 2.160 1_545 S
Co709 O715 2.052 1_545 S
Co709 O725 2.057 . S
Co709 O740 2.037 . S
Co709 N744 2.145 . S
Co709 N765 2.257 . S
O710 Co708 2.143 . S
O710 Co709 2.160 1_565 S
C711 O712 1.256 1_565 S
C711 O719 1.224 . S
O712 C711 1.256 1_545 S
C713 O714 1.245 . S
C713 O725 1.232 1_565 S
O714 C713 1.245 . S
O715 Co709 2.052 1_565 S
O715 C741 1.275 . S
O716 Co708 2.074 . S
O716 C741 1.257 . S
H717 C742 0.930 . S
H718 C748 0.930 . S
O719 Co708 2.093 . S
O719 C711 1.224 . S
H720 C752 0.929 . S
H721 C754 0.930 . S
H722 C755 0.930 . S
H723 C753 0.929 . S
H724 C756 0.928 . S
O725 Co709 2.057 . S
O725 C713 1.232 1_545 S
H726 C745 0.929 . S
H727 C746 0.929 . S
H728 C758 0.931 . S
H729 C750 0.929 . S
H730 C759 0.930 . S
H731 C751 0.931 . S
O732 Co708 2.097 1_545 S
O732 C760 1.214 . S
H733 C761 0.929 . S
H734 C762 0.929 . S
H735 C763 0.930 . S
H736 C764 0.929 . S
H737 C766 0.930 . S
H738 C743 0.930 . S
H739 C747 0.930 . S
O740 Co709 2.037 . S
O740 C760 1.234 . S
C741 O715 1.275 . S
C741 O716 1.257 . S
C742 H717 0.930 . S
C742 C745 1.388 . S
C742 C747 1.418 . S
C743 H738 0.930 . S
C743 C746 1.404 . S
C743 C747 1.353 . S
N744 Co709 2.145 . S
N744 C745 1.397 . S
N744 C746 1.334 . S
C745 H726 0.929 . S
C745 C742 1.388 . S
C745 N744 1.397 . S
C746 H727 0.929 . S
C746 C743 1.404 . S
C746 N744 1.334 . S
C747 H739 0.930 . S
C747 C742 1.418 . S
C747 C743 1.353 . S
C748 H718 0.930 . S
C748 N749 1.330 . S
C748 C750 1.446 . S
N749 Co708 2.151 . S
N749 C748 1.330 . S
N749 C753 1.418 . S
C750 H729 0.929 . S
C750 C748 1.446 . S
C750 C751 1.332 . S
C751 H731 0.931 . S
C751 C750 1.332 . S
C751 C752 1.267 . S
C752 H720 0.929 . S
C752 C751 1.267 . S
C752 C753 1.251 . S
C753 H723 0.929 . S
C753 N749 1.418 . S
C753 C752 1.251 . S
C754 H721 0.930 . S
C754 C756 1.406 . S
C754 C759 1.261 . S
C755 H722 0.930 . S
C755 N757 1.325 . S
C755 C758 1.357 . S
C756 H724 0.928 . S
C756 C754 1.406 . S
C756 N757 1.261 . S
N757 Co708 2.214 . S
N757 C755 1.325 . S
N757 C756 1.261 . S
C758 H728 0.931 . S
C758 C755 1.357 . S
C758 C759 1.312 . S
C759 H730 0.930 . S
C759 C754 1.261 . S
C759 C758 1.312 . S
C760 O732 1.214 . S
C760 O740 1.234 . S
C761 H733 0.929 . S
C761 C764 1.391 . S
C761 C766 1.391 . S
C762 H734 0.929 . S
C762 C763 1.390 . S
C762 N765 1.391 . S
C763 H735 0.930 . S
C763 C762 1.390 . S
C763 C764 1.392 . S
C764 H736 0.929 . S
C764 C761 1.391 . S
C764 C763 1.392 . S
N765 Co709 2.257 . S
N765 C762 1.391 . S
N765 C766 1.388 . S
C766 H737 0.930 . S
C766 C761 1.391 . S
C766 N765 1.388 . S
Co767 O769 2.143 . S
Co767 O775 2.074 . S
Co767 O778 2.093 . S
Co767 O791 2.097 . S
Co767 N808 2.151 . S
Co767 N816 2.214 . S
Co768 O769 2.160 . S
Co768 O774 2.058 . S
Co768 O784 2.057 . S
Co768 O799 2.037 . S
Co768 N803 2.145 . S
Co768 N824 2.257 . S
O769 Co767 2.143 . S
O769 Co768 2.160 . S
C770 O771 1.278 . S
C770 O778 1.224 . S
O771 C770 1.278 . S
C772 O773 1.245 . S
C772 O784 1.232 . S
O773 C772 1.245 . S
O774 Co768 2.058 . S
O774 C800 1.269 . S
O775 Co767 2.074 . S
O775 C800 1.257 . S
H776 C801 0.930 . S
H777 C807 0.930 . S
O778 Co767 2.093 . S
O778 C770 1.224 . S
H779 C811 0.929 . S
H780 C813 0.930 . S
H781 C814 0.930 . S
H782 C812 0.929 . S
H783 C815 0.928 . S
O784 Co768 2.057 . S
O784 C772 1.232 . S
H785 C804 0.929 . S
H786 C805 0.929 . S
H787 C817 0.931 . S
H788 C809 0.929 . S
H789 C818 0.930 . S
H790 C810 0.931 . S
O791 Co767 2.097 . S
O791 C819 1.214 . S
H792 C820 0.929 . S
H793 C821 0.929 . S
H794 C822 0.930 . S
H795 C823 0.929 . S
H796 C825 0.930 . S
H797 C802 0.930 . S
H798 C806 0.930 . S
O799 Co768 2.037 . S
O799 C819 1.234 . S
C800 O774 1.269 . S
C800 O775 1.257 . S
C801 H776 0.930 . S
C801 C804 1.388 . S
C801 C806 1.418 . S
C802 H797 0.930 . S
C802 C805 1.404 . S
C802 C806 1.353 . S
N803 Co768 2.145 . S
N803 C804 1.397 . S
N803 C805 1.334 . S
C804 H785 0.929 . S
C804 C801 1.388 . S
C804 N803 1.397 . S
C805 H786 0.929 . S
C805 C802 1.404 . S
C805 N803 1.334 . S
C806 H798 0.930 . S
C806 C801 1.418 . S
C806 C802 1.353 . S
C807 H777 0.930 . S
C807 N808 1.330 . S
C807 C809 1.446 . S
N808 Co767 2.151 . S
N808 C807 1.330 . S
N808 C812 1.418 . S
C809 H788 0.929 . S
C809 C807 1.446 . S
C809 C810 1.332 . S
C810 H790 0.931 . S
C810 C809 1.332 . S
C810 C811 1.267 . S
C811 H779 0.929 . S
C811 C810 1.267 . S
C811 C812 1.251 . S
C812 H782 0.929 . S
C812 N808 1.418 . S
C812 C811 1.251 . S
C813 H780 0.930 . S
C813 C815 1.406 . S
C813 C818 1.261 . S
C814 H781 0.930 . S
C814 N816 1.325 . S
C814 C817 1.357 . S
C815 H783 0.928 . S
C815 C813 1.406 . S
C815 N816 1.261 . S
N816 Co767 2.214 . S
N816 C814 1.325 . S
N816 C815 1.261 . S
C817 H787 0.931 . S
C817 C814 1.357 . S
C817 C818 1.312 . S
C818 H789 0.930 . S
C818 C813 1.261 . S
C818 C817 1.312 . S
C819 O791 1.214 . S
C819 O799 1.234 . S
C820 H792 0.929 . S
C820 C823 1.391 . S
C820 C825 1.391 . S
C821 H793 0.929 . S
C821 C822 1.390 . S
C821 N824 1.391 . S
C822 H794 0.930 . S
C822 C821 1.390 . S
C822 C823 1.392 . S
C823 H795 0.929 . S
C823 C820 1.391 . S
C823 C822 1.392 . S
N824 Co768 2.257 . S
N824 C821 1.391 . S
N824 C825 1.388 . S
C825 H796 0.930 . S
C825 C820 1.391 . S
C825 N824 1.388 . S
Co826 O828 2.143 . S
Co826 O834 2.074 . S
Co826 O837 2.093 . S
Co826 O850 2.097 . S
Co826 N867 2.151 . S
Co826 N875 2.214 . S
Co827 O828 2.160 . S
Co827 O833 2.058 . S
Co827 O843 2.057 . S
Co827 O858 2.037 . S
Co827 N862 2.145 . S
Co827 N883 2.257 . S
O828 Co826 2.143 . S
O828 Co827 2.160 . S
C829 O830 1.278 . S
C829 O837 1.224 . S
O830 C829 1.278 . S
C831 O832 1.245 . S
C831 O843 1.232 . S
O832 C831 1.245 . S
O833 Co827 2.058 . S
O833 C859 1.269 . S
O834 Co826 2.074 . S
O834 C859 1.257 . S
H835 C860 0.930 . S
H836 C866 0.930 . S
O837 Co826 2.093 . S
O837 C829 1.224 . S
H838 C870 0.929 . S
H839 C872 0.930 . S
H840 C873 0.930 . S
H841 C871 0.929 . S
H842 C874 0.928 . S
O843 Co827 2.057 . S
O843 C831 1.232 . S
H844 C863 0.929 . S
H845 C864 0.929 . S
H846 C876 0.931 . S
H847 C868 0.929 . S
H848 C877 0.930 . S
H849 C869 0.931 . S
O850 Co826 2.097 . S
O850 C878 1.214 . S
H851 C879 0.929 . S
H852 C880 0.929 . S
H853 C881 0.930 . S
H854 C882 0.929 . S
H855 C884 0.930 . S
H856 C861 0.930 . S
H857 C865 0.930 . S
O858 Co827 2.037 . S
O858 C878 1.234 . S
C859 O833 1.269 . S
C859 O834 1.257 . S
C860 H835 0.930 . S
C860 C863 1.388 . S
C860 C865 1.418 . S
C861 H856 0.930 . S
C861 C864 1.404 . S
C861 C865 1.353 . S
N862 Co827 2.145 . S
N862 C863 1.397 . S
N862 C864 1.334 . S
C863 H844 0.929 . S
C863 C860 1.388 . S
C863 N862 1.397 . S
C864 H845 0.929 . S
C864 C861 1.404 . S
C864 N862 1.334 . S
C865 H857 0.930 . S
C865 C860 1.418 . S
C865 C861 1.353 . S
C866 H836 0.930 . S
C866 N867 1.330 . S
C866 C868 1.446 . S
N867 Co826 2.151 . S
N867 C866 1.330 . S
N867 C871 1.418 . S
C868 H847 0.929 . S
C868 C866 1.446 . S
C868 C869 1.332 . S
C869 H849 0.931 . S
C869 C868 1.332 . S
C869 C870 1.267 . S
C870 H838 0.929 . S
C870 C869 1.267 . S
C870 C871 1.251 . S
C871 H841 0.929 . S
C871 N867 1.418 . S
C871 C870 1.251 . S
C872 H839 0.930 . S
C872 C874 1.406 . S
C872 C877 1.261 . S
C873 H840 0.930 . S
C873 N875 1.325 . S
C873 C876 1.357 . S
C874 H842 0.928 . S
C874 C872 1.406 . S
C874 N875 1.261 . S
N875 Co826 2.214 . S
N875 C873 1.325 . S
N875 C874 1.261 . S
C876 H846 0.931 . S
C876 C873 1.357 . S
C876 C877 1.312 . S
C877 H848 0.930 . S
C877 C872 1.261 . S
C877 C876 1.312 . S
C878 O850 1.214 . S
C878 O858 1.234 . S
C879 H851 0.929 . S
C879 C882 1.391 . S
C879 C884 1.391 . S
C880 H852 0.929 . S
C880 C881 1.390 . S
C880 N883 1.391 . S
C881 H853 0.930 . S
C881 C880 1.390 . S
C881 C882 1.392 . S
C882 H854 0.929 . S
C882 C879 1.391 . S
C882 C881 1.392 . S
N883 Co827 2.257 . S
N883 C880 1.391 . S
N883 C884 1.388 . S
C884 H855 0.930 . S
C884 C879 1.391 . S
C884 N883 1.388 . S
Co885 O887 2.143 . S
Co885 O893 2.074 . S
Co885 O896 2.093 . S
Co885 O909 2.097 1_655 S
Co885 N926 2.151 . S
Co885 N934 2.214 . S
Co886 O887 2.160 1_455 S
Co886 O892 2.024 1_455 S
Co886 O902 2.057 . S
Co886 O917 2.037 . S
Co886 N921 2.145 . S
Co886 N942 2.257 . S
O887 Co885 2.143 . S
O887 Co886 2.160 1_655 S
C888 O889 1.278 1_655 S
C888 O896 1.224 . S
O889 C888 1.278 1_455 S
C890 O891 1.248 1_455 S
C890 O902 1.228 . S
O891 C890 1.248 1_655 S
O892 Co886 2.024 1_655 S
O892 C918 1.300 . S
O893 Co885 2.074 . S
O893 C918 1.257 . S
H894 C919 0.930 . S
H895 C925 0.930 . S
O896 Co885 2.093 . S
O896 C888 1.224 . S
H897 C929 0.929 . S
H898 C931 0.930 . S
H899 C932 0.930 . S
H900 C930 0.929 . S
H901 C933 0.928 . S
O902 Co886 2.057 . S
O902 C890 1.228 . S
H903 C922 0.929 . S
H904 C923 0.929 . S
H905 C935 0.931 . S
H906 C927 0.929 . S
H907 C936 0.930 . S
H908 C928 0.931 . S
O909 Co885 2.097 1_455 S
O909 C937 1.214 . S
H910 C938 0.929 . S
H911 C939 0.929 . S
H912 C940 0.930 . S
H913 C941 0.929 . S
H914 C943 0.930 . S
H915 C920 0.930 . S
H916 C924 0.930 . S
O917 Co886 2.037 . S
O917 C937 1.234 . S
C918 O892 1.300 . S
C918 O893 1.257 . S
C919 H894 0.930 . S
C919 C922 1.388 . S
C919 C924 1.418 . S
C920 H915 0.930 . S
C920 C923 1.404 . S
C920 C924 1.353 . S
N921 Co886 2.145 . S
N921 C922 1.397 . S
N921 C923 1.334 . S
C922 H903 0.929 . S
C922 C919 1.388 . S
C922 N921 1.397 . S
C923 H904 0.929 . S
C923 C920 1.404 . S
C923 N921 1.334 . S
C924 H916 0.930 . S
C924 C919 1.418 . S
C924 C920 1.353 . S
C925 H895 0.930 . S
C925 N926 1.330 . S
C925 C927 1.446 . S
N926 Co885 2.151 . S
N926 C925 1.330 . S
N926 C930 1.418 . S
C927 H906 0.929 . S
C927 C925 1.446 . S
C927 C928 1.332 . S
C928 H908 0.931 . S
C928 C927 1.332 . S
C928 C929 1.267 . S
C929 H897 0.929 . S
C929 C928 1.267 . S
C929 C930 1.251 . S
C930 H900 0.929 . S
C930 N926 1.418 . S
C930 C929 1.251 . S
C931 H898 0.930 . S
C931 C933 1.406 . S
C931 C936 1.261 . S
C932 H899 0.930 . S
C932 N934 1.325 . S
C932 C935 1.357 . S
C933 H901 0.928 . S
C933 C931 1.406 . S
C933 N934 1.261 . S
N934 Co885 2.214 . S
N934 C932 1.325 . S
N934 C933 1.261 . S
C935 H905 0.931 . S
C935 C932 1.357 . S
C935 C936 1.312 . S
C936 H907 0.930 . S
C936 C931 1.261 . S
C936 C935 1.312 . S
C937 O909 1.214 . S
C937 O917 1.234 . S
C938 H910 0.929 . S
C938 C941 1.391 . S
C938 C943 1.391 . S
C939 H911 0.929 . S
C939 C940 1.390 . S
C939 N942 1.391 . S
C940 H912 0.930 . S
C940 C939 1.390 . S
C940 C941 1.392 . S
C941 H913 0.929 . S
C941 C938 1.391 . S
C941 C940 1.392 . S
N942 Co886 2.257 . S
N942 C939 1.391 . S
N942 C943 1.388 . S
C943 H914 0.930 . S
C943 C938 1.391 . S
C943 N942 1.388 . S
H944 C952 0.929 . S
H945 C954 0.930 . S
H946 C956 0.930 . S
H947 C959 0.929 . S
H948 C962 0.930 . S
H949 C964 0.960 . S
H950 C964 0.960 . S
H951 C964 0.960 . S
C952 H944 0.929 . S
C952 C953 1.377 . S
C952 C954 1.384 . S
C953 C952 1.377 . S
C953 C959 1.390 . S
C954 H945 0.930 . S
C954 C952 1.384 . S
C954 C955 1.372 . S
C955 C954 1.372 . S
C955 C956 1.400 . S
C955 C960 1.490 . S
C956 H946 0.930 . S
C956 C955 1.400 . S
C956 C959 1.386 . S
H957 C973 0.930 . S
H958 C974 0.931 . S
C959 H947 0.929 . S
C959 C953 1.390 . S
C959 C956 1.386 . S
C960 C955 1.490 . S
C960 C962 1.395 . S
C960 C963 1.403 . S
H961 C967 0.930 . S
C962 H948 0.930 . S
C962 C960 1.395 . S
C962 C965 1.403 . S
C963 C960 1.403 . S
C963 C964 1.524 . S
C963 C967 1.400 . S
C964 H949 0.960 . S
C964 H950 0.960 . S
C964 H951 0.960 . S
C964 C963 1.524 . S
C965 C962 1.403 . S
C965 C966 1.392 . S
C965 C969 1.495 . S
C966 C965 1.392 . S
C966 C967 1.385 . S
C966 C968 1.478 . S
C967 H961 0.930 . S
C967 C963 1.400 . S
C967 C966 1.385 . S
C968 C966 1.478 . S
C968 C970 1.381 . S
C968 C974 1.383 . S
C969 C965 1.495 . S
C969 H975 0.959 . S
C969 H976 0.961 . S
C969 H977 0.960 . S
C970 C968 1.381 . S
C970 C971 1.394 . S
C970 H978 0.930 . S
C971 C970 1.394 . S
C971 C972 1.383 . S
C971 H979 0.929 . S
C972 C971 1.383 . S
C972 C973 1.377 . S
C973 H957 0.930 . S
C973 C972 1.377 . S
C973 C974 1.379 . S
C974 H958 0.931 . S
C974 C968 1.383 . S
C974 C973 1.379 . S
H975 C969 0.959 . S
H976 C969 0.961 . S
H977 C969 0.960 . S
H978 C970 0.930 . S
H979 C971 0.929 . S
H980 C988 0.929 . S
H981 C990 0.930 . S
H982 C992 0.930 . S
H983 C995 0.929 . S
H984 C998 0.930 . S
H985 C1000 0.960 . S
H986 C1000 0.960 . S
H987 C1000 0.960 . S
C988 H980 0.929 . S
C988 C989 1.377 . S
C988 C990 1.384 . S
C989 C988 1.377 . S
C989 C995 1.390 . S
C990 H981 0.930 . S
C990 C988 1.384 . S
C990 C991 1.372 . S
C991 C990 1.372 . S
C991 C992 1.400 . S
C991 C996 1.490 . S
C992 H982 0.930 . S
C992 C991 1.400 . S
C992 C995 1.386 . S
H993 C1009 0.930 . S
H994 C1010 0.931 . S
C995 H983 0.929 . S
C995 C989 1.390 . S
C995 C992 1.386 . S
C996 C991 1.490 . S
C996 C998 1.395 . S
C996 C999 1.403 . S
H997 C1003 0.930 . S
C998 H984 0.930 . S
C998 C996 1.395 . S
C998 C1001 1.403 . S
C999 C996 1.403 . S
C999 C1000 1.524 . S
C999 C1003 1.400 . S
C1000 H985 0.960 . S
C1000 H986 0.960 . S
C1000 H987 0.960 . S
C1000 C999 1.524 . S
C1001 C998 1.403 . S
C1001 C1002 1.392 . S
C1001 C1005 1.495 . S
C1002 C1001 1.392 . S
C1002 C1003 1.385 . S
C1002 C1004 1.478 . S
C1003 H997 0.930 . S
C1003 C999 1.400 . S
C1003 C1002 1.385 . S
C1004 C1002 1.478 . S
C1004 C1006 1.381 . S
C1004 C1010 1.383 . S
C1005 C1001 1.495 . S
C1005 H1011 0.959 . S
C1005 H1012 0.961 . S
C1005 H1013 0.960 . S
C1006 C1004 1.381 . S
C1006 C1007 1.394 . S
C1006 H1014 0.930 . S
C1007 C1006 1.394 . S
C1007 C1008 1.383 . S
C1007 H1015 0.929 . S
C1008 C1007 1.383 . S
C1008 C1009 1.377 . S
C1009 H993 0.930 . S
C1009 C1008 1.377 . S
C1009 C1010 1.379 . S
C1010 H994 0.931 . S
C1010 C1004 1.383 . S
C1010 C1009 1.379 . S
H1011 C1005 0.959 . S
H1012 C1005 0.961 . S
H1013 C1005 0.960 . S
H1014 C1006 0.930 . S
H1015 C1007 0.929 . S
H1016 C1024 0.929 . S
H1017 C1026 0.930 . S
H1018 C1028 0.930 . S
H1019 C1031 0.929 . S
H1020 C1034 0.930 . S
H1021 C1036 0.960 . S
H1022 C1036 0.960 . S
H1023 C1036 0.960 . S
C1024 H1016 0.929 . S
C1024 C1025 1.377 . S
C1024 C1026 1.384 . S
C1025 C1024 1.377 . S
C1025 C1031 1.390 . S
C1026 H1017 0.930 . S
C1026 C1024 1.384 . S
C1026 C1027 1.372 . S
C1027 C1026 1.372 . S
C1027 C1028 1.400 . S
C1027 C1032 1.490 . S
C1028 H1018 0.930 . S
C1028 C1027 1.400 . S
C1028 C1031 1.386 . S
H1029 C1045 0.930 . S
H1030 C1046 0.931 . S
C1031 H1019 0.929 . S
C1031 C1025 1.390 . S
C1031 C1028 1.386 . S
C1032 C1027 1.490 . S
C1032 C1034 1.395 . S
C1032 C1035 1.403 . S
H1033 C1039 0.930 . S
C1034 H1020 0.930 . S
C1034 C1032 1.395 . S
C1034 C1037 1.403 . S
C1035 C1032 1.403 . S
C1035 C1036 1.524 . S
C1035 C1039 1.400 . S
C1036 H1021 0.960 . S
C1036 H1022 0.960 . S
C1036 H1023 0.960 . S
C1036 C1035 1.524 . S
C1037 C1034 1.403 . S
C1037 C1038 1.392 . S
C1037 C1041 1.495 . S
C1038 C1037 1.392 . S
C1038 C1039 1.385 . S
C1038 C1040 1.478 . S
C1039 H1033 0.930 . S
C1039 C1035 1.400 . S
C1039 C1038 1.385 . S
C1040 C1038 1.478 . S
C1040 C1042 1.381 . S
C1040 C1046 1.383 . S
C1041 C1037 1.495 . S
C1041 H1047 0.959 . S
C1041 H1048 0.961 . S
C1041 H1049 0.960 . S
C1042 C1040 1.381 . S
C1042 C1043 1.394 . S
C1042 H1050 0.930 . S
C1043 C1042 1.394 . S
C1043 C1044 1.383 . S
C1043 H1051 0.929 . S
C1044 C1043 1.383 . S
C1044 C1045 1.377 . S
C1045 H1029 0.930 . S
C1045 C1044 1.377 . S
C1045 C1046 1.379 . S
C1046 H1030 0.931 . S
C1046 C1040 1.383 . S
C1046 C1045 1.379 . S
H1047 C1041 0.959 . S
H1048 C1041 0.961 . S
H1049 C1041 0.960 . S
H1050 C1042 0.930 . S
H1051 C1043 0.929 . S
H1052 C1060 0.929 . S
H1053 C1062 0.930 . S
H1054 C1064 0.930 . S
H1055 C1067 0.929 . S
H1056 C1070 0.930 . S
H1057 C1072 0.960 . S
H1058 C1072 0.960 . S
H1059 C1072 0.960 . S
C1060 H1052 0.929 . S
C1060 C1061 1.377 . S
C1060 C1062 1.384 . S
C1061 C1060 1.377 . S
C1061 C1067 1.390 . S
C1062 H1053 0.930 . S
C1062 C1060 1.384 . S
C1062 C1063 1.372 . S
C1063 C1062 1.372 . S
C1063 C1064 1.400 . S
C1063 C1068 1.490 . S
C1064 H1054 0.930 . S
C1064 C1063 1.400 . S
C1064 C1067 1.386 . S
H1065 C1081 0.930 . S
H1066 C1082 0.931 . S
C1067 H1055 0.929 . S
C1067 C1061 1.390 . S
C1067 C1064 1.386 . S
C1068 C1063 1.490 . S
C1068 C1070 1.395 . S
C1068 C1071 1.403 . S
H1069 C1075 0.930 . S
C1070 H1056 0.930 . S
C1070 C1068 1.395 . S
C1070 C1073 1.403 . S
C1071 C1068 1.403 . S
C1071 C1072 1.524 . S
C1071 C1075 1.400 . S
C1072 H1057 0.960 . S
C1072 H1058 0.960 . S
C1072 H1059 0.960 . S
C1072 C1071 1.524 . S
C1073 C1070 1.403 . S
C1073 C1074 1.392 . S
C1073 C1077 1.495 . S
C1074 C1073 1.392 . S
C1074 C1075 1.385 . S
C1074 C1076 1.478 . S
C1075 H1069 0.930 . S
C1075 C1071 1.400 . S
C1075 C1074 1.385 . S
C1076 C1074 1.478 . S
C1076 C1078 1.381 . S
C1076 C1082 1.383 . S
C1077 C1073 1.495 . S
C1077 H1083 0.959 . S
C1077 H1084 0.961 . S
C1077 H1085 0.960 . S
C1078 C1076 1.381 . S
C1078 C1079 1.394 . S
C1078 H1086 0.930 . S
C1079 C1078 1.394 . S
C1079 C1080 1.383 . S
C1079 H1087 0.929 . S
C1080 C1079 1.383 . S
C1080 C1081 1.377 . S
C1081 H1065 0.930 . S
C1081 C1080 1.377 . S
C1081 C1082 1.379 . S
C1082 H1066 0.931 . S
C1082 C1076 1.383 . S
C1082 C1081 1.379 . S
H1083 C1077 0.959 . S
H1084 C1077 0.961 . S
H1085 C1077 0.960 . S
H1086 C1078 0.930 . S
H1087 C1079 0.929 . S
H1088 C1096 0.929 . S
H1089 C1098 0.930 . S
H1090 C1100 0.930 . S
H1091 C1103 0.929 . S
H1092 C1106 0.930 . S
H1093 C1108 0.960 . S
H1094 C1108 0.960 . S
H1095 C1108 0.960 . S
C1096 H1088 0.929 . S
C1096 C1097 1.377 . S
C1096 C1098 1.384 . S
C1097 C1096 1.377 . S
C1097 C1103 1.390 . S
C1098 H1089 0.930 . S
C1098 C1096 1.384 . S
C1098 C1099 1.372 . S
C1099 C1098 1.372 . S
C1099 C1100 1.400 . S
C1099 C1104 1.490 . S
C1100 H1090 0.930 . S
C1100 C1099 1.400 . S
C1100 C1103 1.386 . S
H1101 C1117 0.930 . S
H1102 C1118 0.931 . S
C1103 H1091 0.929 . S
C1103 C1097 1.390 . S
C1103 C1100 1.386 . S
C1104 C1099 1.490 . S
C1104 C1106 1.395 . S
C1104 C1107 1.403 . S
H1105 C1111 0.930 . S
C1106 H1092 0.930 . S
C1106 C1104 1.395 . S
C1106 C1109 1.403 . S
C1107 C1104 1.403 . S
C1107 C1108 1.524 . S
C1107 C1111 1.400 . S
C1108 H1093 0.960 . S
C1108 H1094 0.960 . S
C1108 H1095 0.960 . S
C1108 C1107 1.524 . S
C1109 C1106 1.403 . S
C1109 C1110 1.392 . S
C1109 C1113 1.495 . S
C1110 C1109 1.392 . S
C1110 C1111 1.385 . S
C1110 C1112 1.478 . S
C1111 H1105 0.930 . S
C1111 C1107 1.400 . S
C1111 C1110 1.385 . S
C1112 C1110 1.478 . S
C1112 C1114 1.381 . S
C1112 C1118 1.383 . S
C1113 C1109 1.495 . S
C1113 H1119 0.959 . S
C1113 H1120 0.961 . S
C1113 H1121 0.960 . S
C1114 C1112 1.381 . S
C1114 C1115 1.394 . S
C1114 H1122 0.930 . S
C1115 C1114 1.394 . S
C1115 C1116 1.383 . S
C1115 H1123 0.929 . S
C1116 C1115 1.383 . S
C1116 C1117 1.377 . S
C1117 H1101 0.930 . S
C1117 C1116 1.377 . S
C1117 C1118 1.379 . S
C1118 H1102 0.931 . S
C1118 C1112 1.383 . S
C1118 C1117 1.379 . S
H1119 C1113 0.959 . S
H1120 C1113 0.961 . S
H1121 C1113 0.960 . S
H1122 C1114 0.930 . S
H1123 C1115 0.929 . S
H1124 C1132 0.929 . S
H1125 C1134 0.930 . S
H1126 C1136 0.930 . S
H1127 C1139 0.929 . S
H1128 C1142 0.930 . S
H1129 C1144 0.960 . S
H1130 C1144 0.960 . S
H1131 C1144 0.960 . S
C1132 H1124 0.929 . S
C1132 C1133 1.377 . S
C1132 C1134 1.384 . S
C1133 C1132 1.377 . S
C1133 C1139 1.390 . S
C1134 H1125 0.930 . S
C1134 C1132 1.384 . S
C1134 C1135 1.372 . S
C1135 C1134 1.372 . S
C1135 C1136 1.400 . S
C1135 C1140 1.490 . S
C1136 H1126 0.930 . S
C1136 C1135 1.400 . S
C1136 C1139 1.386 . S
H1137 C1153 0.930 . S
H1138 C1154 0.931 . S
C1139 H1127 0.929 . S
C1139 C1133 1.390 . S
C1139 C1136 1.386 . S
C1140 C1135 1.490 . S
C1140 C1142 1.395 . S
C1140 C1143 1.403 . S
H1141 C1147 0.930 . S
C1142 H1128 0.930 . S
C1142 C1140 1.395 . S
C1142 C1145 1.403 . S
C1143 C1140 1.403 . S
C1143 C1144 1.524 . S
C1143 C1147 1.400 . S
C1144 H1129 0.960 . S
C1144 H1130 0.960 . S
C1144 H1131 0.960 . S
C1144 C1143 1.524 . S
C1145 C1142 1.403 . S
C1145 C1146 1.392 . S
C1145 C1149 1.495 . S
C1146 C1145 1.392 . S
C1146 C1147 1.385 . S
C1146 C1148 1.478 . S
C1147 H1141 0.930 . S
C1147 C1143 1.400 . S
C1147 C1146 1.385 . S
C1148 C1146 1.478 . S
C1148 C1150 1.381 . S
C1148 C1154 1.383 . S
C1149 C1145 1.495 . S
C1149 H1155 0.959 . S
C1149 H1156 0.961 . S
C1149 H1157 0.960 . S
C1150 C1148 1.381 . S
C1150 C1151 1.394 . S
C1150 H1158 0.930 . S
C1151 C1150 1.394 . S
C1151 C1152 1.383 . S
C1151 H1159 0.929 . S
C1152 C1151 1.383 . S
C1152 C1153 1.377 . S
C1153 H1137 0.930 . S
C1153 C1152 1.377 . S
C1153 C1154 1.379 . S
C1154 H1138 0.931 . S
C1154 C1148 1.383 . S
C1154 C1153 1.379 . S
H1155 C1149 0.959 . S
H1156 C1149 0.961 . S
H1157 C1149 0.960 . S
H1158 C1150 0.930 . S
H1159 C1151 0.929 . S
H1160 C1168 0.929 . S
H1161 C1170 0.930 . S
H1162 C1172 0.930 . S
H1163 C1175 0.929 . S
H1164 C1178 0.930 . S
H1165 C1180 0.960 . S
H1166 C1180 0.960 . S
H1167 C1180 0.960 . S
C1168 H1160 0.929 . S
C1168 C1169 1.377 . S
C1168 C1170 1.384 . S
C1169 C1168 1.377 . S
C1169 C1175 1.390 . S
C1170 H1161 0.930 . S
C1170 C1168 1.384 . S
C1170 C1171 1.372 . S
C1171 C1170 1.372 . S
C1171 C1172 1.400 . S
C1171 C1176 1.490 . S
C1172 H1162 0.930 . S
C1172 C1171 1.400 . S
C1172 C1175 1.386 . S
H1173 C1189 0.930 . S
H1174 C1190 0.931 . S
C1175 H1163 0.929 . S
C1175 C1169 1.390 . S
C1175 C1172 1.386 . S
C1176 C1171 1.490 . S
C1176 C1178 1.395 . S
C1176 C1179 1.403 . S
H1177 C1183 0.930 . S
C1178 H1164 0.930 . S
C1178 C1176 1.395 . S
C1178 C1181 1.403 . S
C1179 C1176 1.403 . S
C1179 C1180 1.524 . S
C1179 C1183 1.400 . S
C1180 H1165 0.960 . S
C1180 H1166 0.960 . S
C1180 H1167 0.960 . S
C1180 C1179 1.524 . S
C1181 C1178 1.403 . S
C1181 C1182 1.392 . S
C1181 C1185 1.495 . S
C1182 C1181 1.392 . S
C1182 C1183 1.385 . S
C1182 C1184 1.478 . S
C1183 H1177 0.930 . S
C1183 C1179 1.400 . S
C1183 C1182 1.385 . S
C1184 C1182 1.478 . S
C1184 C1186 1.381 . S
C1184 C1190 1.383 . S
C1185 C1181 1.495 . S
C1185 H1191 0.959 . S
C1185 H1192 0.961 . S
C1185 H1193 0.960 . S
C1186 C1184 1.381 . S
C1186 C1187 1.394 . S
C1186 H1194 0.930 . S
C1187 C1186 1.394 . S
C1187 C1188 1.383 . S
C1187 H1195 0.929 . S
C1188 C1187 1.383 . S
C1188 C1189 1.377 . S
C1189 H1173 0.930 . S
C1189 C1188 1.377 . S
C1189 C1190 1.379 . S
C1190 H1174 0.931 . S
C1190 C1184 1.383 . S
C1190 C1189 1.379 . S
H1191 C1185 0.959 . S
H1192 C1185 0.961 . S
H1193 C1185 0.960 . S
H1194 C1186 0.930 . S
H1195 C1187 0.929 . S
H1196 C1204 0.929 . S
H1197 C1206 0.930 . S
H1198 C1208 0.930 . S
H1199 C1211 0.929 . S
H1200 C1214 0.930 . S
H1201 C1216 0.960 . S
H1202 C1216 0.960 . S
H1203 C1216 0.960 . S
C1204 H1196 0.929 . S
C1204 C1205 1.377 . S
C1204 C1206 1.384 . S
C1205 C1204 1.377 . S
C1205 C1211 1.390 . S
C1206 H1197 0.930 . S
C1206 C1204 1.384 . S
C1206 C1207 1.372 . S
C1207 C1206 1.372 . S
C1207 C1208 1.400 . S
C1207 C1212 1.490 . S
C1208 H1198 0.930 . S
C1208 C1207 1.400 . S
C1208 C1211 1.386 . S
H1209 C1225 0.930 . S
H1210 C1226 0.931 . S
C1211 H1199 0.929 . S
C1211 C1205 1.390 . S
C1211 C1208 1.386 . S
C1212 C1207 1.490 . S
C1212 C1214 1.395 . S
C1212 C1215 1.403 . S
H1213 C1219 0.930 . S
C1214 H1200 0.930 . S
C1214 C1212 1.395 . S
C1214 C1217 1.403 . S
C1215 C1212 1.403 . S
C1215 C1216 1.524 . S
C1215 C1219 1.400 . S
C1216 H1201 0.960 . S
C1216 H1202 0.960 . S
C1216 H1203 0.960 . S
C1216 C1215 1.524 . S
C1217 C1214 1.403 . S
C1217 C1218 1.392 . S
C1217 C1221 1.495 . S
C1218 C1217 1.392 . S
C1218 C1219 1.385 . S
C1218 C1220 1.478 . S
C1219 H1213 0.930 . S
C1219 C1215 1.400 . S
C1219 C1218 1.385 . S
C1220 C1218 1.478 . S
C1220 C1222 1.381 . S
C1220 C1226 1.383 . S
C1221 C1217 1.495 . S
C1221 H1227 0.959 . S
C1221 H1228 0.961 . S
C1221 H1229 0.960 . S
C1222 C1220 1.381 . S
C1222 C1223 1.394 . S
C1222 H1230 0.930 . S
C1223 C1222 1.394 . S
C1223 C1224 1.383 . S
C1223 H1231 0.929 . S
C1224 C1223 1.383 . S
C1224 C1225 1.377 . S
C1225 H1209 0.930 . S
C1225 C1224 1.377 . S
C1225 C1226 1.379 . S
C1226 H1210 0.931 . S
C1226 C1220 1.383 . S
C1226 C1225 1.379 . S
H1227 C1221 0.959 . S
H1228 C1221 0.961 . S
H1229 C1221 0.960 . S
H1230 C1222 0.930 . S
H1231 C1223 0.929 . S
H1232 C1240 0.929 . S
H1233 C1242 0.930 . S
H1234 C1244 0.930 . S
H1235 C1247 0.929 . S
H1236 C1250 0.930 . S
H1237 C1252 0.960 . S
H1238 C1252 0.960 . S
H1239 C1252 0.960 1_545 S
C1240 H1232 0.929 . S
C1240 C1241 1.413 . S
C1240 C1242 1.384 . S
C1241 C1240 1.413 . S
C1241 C1247 1.359 1_565 S
C1242 H1233 0.930 . S
C1242 C1240 1.384 . S
C1242 C1243 1.372 . S
C1243 C1242 1.372 . S
C1243 C1244 1.400 1_565 S
C1243 C1248 1.490 . S
C1244 H1234 0.930 . S
C1244 C1243 1.400 1_545 S
C1244 C1247 1.386 . S
H1245 C1261 0.930 . S
H1246 C1262 0.931 . S
C1247 H1235 0.929 . S
C1247 C1241 1.359 1_545 S
C1247 C1244 1.386 . S
C1248 C1243 1.490 . S
C1248 C1250 1.395 . S
C1248 C1251 1.403 . S
H1249 C1255 0.930 . S
C1250 H1236 0.930 . S
C1250 C1248 1.395 . S
C1250 C1253 1.403 . S
C1251 C1248 1.403 . S
C1251 C1252 1.524 . S
C1251 C1255 1.400 . S
C1252 H1237 0.960 . S
C1252 H1238 0.960 . S
C1252 H1239 0.960 1_565 S
C1252 C1251 1.524 . S
C1253 C1250 1.403 . S
C1253 C1254 1.392 . S
C1253 C1257 1.495 . S
C1254 C1253 1.392 . S
C1254 C1255 1.385 . S
C1254 C1256 1.478 . S
C1255 H1249 0.930 . S
C1255 C1251 1.400 . S
C1255 C1254 1.385 . S
C1256 C1254 1.478 . S
C1256 C1258 1.381 . S
C1256 C1262 1.383 1_565 S
C1257 C1253 1.495 . S
C1257 H1263 0.959 . S
C1257 H1264 0.992 . S
C1257 H1265 0.960 . S
C1258 C1256 1.381 . S
C1258 C1259 1.394 . S
C1258 H1266 0.930 . S
C1259 C1258 1.394 . S
C1259 C1260 1.383 . S
C1259 H1267 0.929 . S
C1260 C1259 1.383 . S
C1260 C1261 1.377 1_565 S
C1261 H1245 0.930 . S
C1261 C1260 1.377 1_545 S
C1261 C1262 1.379 . S
C1262 H1246 0.931 . S
C1262 C1256 1.383 1_545 S
C1262 C1261 1.379 . S
H1263 C1257 0.959 . S
H1264 C1257 0.992 . S
H1265 C1257 0.960 . S
H1266 C1258 0.930 . S
H1267 C1259 0.929 . S
H1268 C1276 0.929 . S
H1269 C1278 0.930 . S
H1270 C1280 0.930 . S
H1271 C1283 0.929 . S
H1272 C1286 0.930 . S
H1273 C1288 0.960 . S
H1274 C1288 0.960 . S
H1275 C1288 0.960 . S
C1276 H1268 0.929 . S
C1276 C1277 1.377 . S
C1276 C1278 1.384 . S
C1277 C1276 1.377 . S
C1277 C1283 1.390 . S
C1278 H1269 0.930 . S
C1278 C1276 1.384 . S
C1278 C1279 1.372 . S
C1279 C1278 1.372 . S
C1279 C1280 1.400 . S
C1279 C1284 1.490 . S
C1280 H1270 0.930 . S
C1280 C1279 1.400 . S
C1280 C1283 1.386 . S
H1281 C1297 0.930 . S
H1282 C1298 0.931 . S
C1283 H1271 0.929 . S
C1283 C1277 1.390 . S
C1283 C1280 1.386 . S
C1284 C1279 1.490 . S
C1284 C1286 1.395 . S
C1284 C1287 1.403 . S
H1285 C1291 0.930 . S
C1286 H1272 0.930 . S
C1286 C1284 1.395 . S
C1286 C1289 1.403 . S
C1287 C1284 1.403 . S
C1287 C1288 1.524 . S
C1287 C1291 1.400 . S
C1288 H1273 0.960 . S
C1288 H1274 0.960 . S
C1288 H1275 0.960 . S
C1288 C1287 1.524 . S
C1289 C1286 1.403 . S
C1289 C1290 1.392 . S
C1289 C1293 1.495 . S
C1290 C1289 1.392 . S
C1290 C1291 1.385 . S
C1290 C1292 1.478 . S
C1291 H1285 0.930 . S
C1291 C1287 1.400 . S
C1291 C1290 1.385 . S
C1292 C1290 1.478 . S
C1292 C1294 1.381 . S
C1292 C1298 1.383 . S
C1293 C1289 1.495 . S
C1293 H1299 0.959 . S
C1293 H1300 0.961 . S
C1293 H1301 0.960 . S
C1294 C1292 1.381 . S
C1294 C1295 1.394 . S
C1294 H1302 0.930 . S
C1295 C1294 1.394 . S
C1295 C1296 1.383 . S
C1295 H1303 0.929 1_556 S
C1296 C1295 1.383 . S
C1296 C1297 1.377 . S
C1297 H1281 0.930 . S
C1297 C1296 1.377 . S
C1297 C1298 1.379 . S
C1298 H1282 0.931 . S
C1298 C1292 1.383 . S
C1298 C1297 1.379 . S
H1299 C1293 0.959 . S
H1300 C1293 0.961 . S
H1301 C1293 0.960 . S
H1302 C1294 0.930 . S
H1303 C1295 0.929 1_554 S
H1304 C1312 0.929 . S
H1305 C1314 0.930 . S
H1306 C1316 0.930 . S
H1307 C1319 0.929 1_554 S
H1308 C1322 0.930 . S
H1309 C1324 0.960 . S
H1310 C1324 0.960 . S
H1311 C1324 0.960 . S
C1312 H1304 0.929 . S
C1312 C1313 1.377 . S
C1312 C1314 1.384 . S
C1313 C1312 1.377 . S
C1313 C1319 1.390 . S
C1314 H1305 0.930 . S
C1314 C1312 1.384 . S
C1314 C1315 1.372 . S
C1315 C1314 1.372 . S
C1315 C1316 1.400 . S
C1315 C1320 1.490 . S
C1316 H1306 0.930 . S
C1316 C1315 1.400 . S
C1316 C1319 1.386 . S
H1317 C1333 0.930 . S
H1318 C1334 0.931 . S
C1319 H1307 0.929 1_556 S
C1319 C1313 1.390 . S
C1319 C1316 1.386 . S
C1320 C1315 1.490 . S
C1320 C1322 1.395 . S
C1320 C1323 1.403 . S
H1321 C1327 0.930 . S
C1322 H1308 0.930 . S
C1322 C1320 1.395 . S
C1322 C1325 1.403 . S
C1323 C1320 1.403 . S
C1323 C1324 1.524 . S
C1323 C1327 1.400 . S
C1324 H1309 0.960 . S
C1324 H1310 0.960 . S
C1324 H1311 0.960 . S
C1324 C1323 1.524 . S
C1325 C1322 1.403 . S
C1325 C1326 1.392 . S
C1325 C1329 1.495 . S
C1326 C1325 1.392 . S
C1326 C1327 1.385 . S
C1326 C1328 1.478 . S
C1327 H1321 0.930 . S
C1327 C1323 1.400 . S
C1327 C1326 1.385 . S
C1328 C1326 1.478 . S
C1328 C1330 1.381 . S
C1328 C1334 1.383 . S
C1329 C1325 1.495 . S
C1329 H1335 0.959 . S
C1329 H1336 0.961 . S
C1329 H1337 0.960 . S
C1330 C1328 1.381 . S
C1330 C1331 1.394 . S
C1330 H1338 0.930 . S
C1331 C1330 1.394 . S
C1331 C1332 1.383 . S
C1331 H1339 0.929 . S
C1332 C1331 1.383 . S
C1332 C1333 1.377 . S
C1333 H1317 0.930 . S
C1333 C1332 1.377 . S
C1333 C1334 1.379 . S
C1334 H1318 0.931 . S
C1334 C1328 1.383 . S
C1334 C1333 1.379 . S
H1335 C1329 0.959 . S
H1336 C1329 0.961 . S
H1337 C1329 0.960 . S
H1338 C1330 0.930 . S
H1339 C1331 0.929 . S
H1340 C1348 0.929 . S
H1341 C1350 0.930 . S
H1342 C1352 0.930 . S
H1343 C1355 0.929 . S
H1344 C1358 0.930 . S
H1345 C1360 0.960 . S
H1346 C1360 0.960 1_655 S
H1347 C1360 0.960 . S
C1348 H1340 0.929 . S
C1348 C1349 1.377 . S
C1348 C1350 1.384 . S
C1349 C1348 1.377 . S
C1349 C1355 1.390 1_655 S
C1350 H1341 0.930 . S
C1350 C1348 1.384 . S
C1350 C1351 1.372 . S
C1351 C1350 1.372 . S
C1351 C1352 1.400 1_655 S
C1351 C1356 1.490 . S
C1352 H1342 0.930 . S
C1352 C1351 1.400 1_455 S
C1352 C1355 1.386 . S
H1353 C1369 0.930 . S
H1354 C1370 0.931 . S
C1355 H1343 0.929 . S
C1355 C1349 1.390 1_455 S
C1355 C1352 1.386 . S
C1356 C1351 1.490 . S
C1356 C1358 1.395 . S
C1356 C1359 1.403 . S
H1357 C1363 0.939 . S
C1358 H1344 0.930 . S
C1358 C1356 1.395 . S
C1358 C1361 1.403 . S
C1359 C1356 1.403 . S
C1359 C1360 1.524 1_655 S
C1359 C1363 1.400 . S
C1360 H1345 0.960 . S
C1360 H1346 0.960 1_455 S
C1360 H1347 0.960 . S
C1360 C1359 1.524 1_455 S
C1361 C1358 1.403 . S
C1361 C1362 1.392 . S
C1361 C1365 1.495 . S
C1362 C1361 1.392 . S
C1362 C1363 1.385 . S
C1362 C1364 1.478 . S
C1363 H1357 0.939 . S
C1363 C1359 1.400 . S
C1363 C1362 1.385 . S
C1364 C1362 1.478 . S
C1364 C1366 1.381 . S
C1364 C1370 1.383 1_655 S
C1365 C1361 1.495 . S
C1365 H1371 0.959 . S
C1365 H1372 0.961 . S
C1365 H1373 0.960 . S
C1366 C1364 1.381 . S
C1366 C1367 1.394 . S
C1366 H1374 0.930 . S
C1367 C1366 1.394 . S
C1367 C1368 1.383 . S
C1367 H1375 0.929 . S
C1368 C1367 1.383 . S
C1368 C1369 1.377 1_655 S
C1369 H1353 0.930 . S
C1369 C1368 1.377 1_455 S
C1369 C1370 1.379 . S
C1370 H1354 0.931 . S
C1370 C1364 1.383 1_455 S
C1370 C1369 1.379 . S
H1371 C1365 0.959 . S
H1372 C1365 0.961 . S
H1373 C1365 0.960 . S
H1374 C1366 0.930 . S
H1375 C1367 0.929 . S
H1376 C1384 0.929 . S
H1377 C1386 0.930 . S
H1378 C1388 0.930 . S
H1379 C1391 0.929 . S
H1380 C1394 0.930 . S
H1381 C1396 0.960 . S
H1382 C1396 0.970 . S
H1383 C1396 0.952 1_545 S
C1384 H1376 0.929 . S
C1384 C1385 1.377 1_565 S
C1384 C1386 1.384 . S
C1385 C1384 1.377 1_545 S
C1385 C1391 1.390 . S
C1386 H1377 0.930 . S
C1386 C1384 1.384 . S
C1386 C1387 1.372 1_565 S
C1387 C1386 1.372 1_545 S
C1387 C1388 1.400 . S
C1387 C1392 1.490 . S
C1388 H1378 0.930 . S
C1388 C1387 1.400 . S
C1388 C1391 1.386 . S
H1389 C1405 0.930 . S
H1390 C1406 0.931 . S
C1391 H1379 0.929 . S
C1391 C1385 1.390 . S
C1391 C1388 1.386 . S
C1392 C1387 1.490 . S
C1392 C1394 1.395 . S
C1392 C1395 1.403 . S
H1393 C1399 0.930 . S
C1394 H1380 0.930 . S
C1394 C1392 1.395 . S
C1394 C1397 1.403 . S
C1395 C1392 1.403 . S
C1395 C1396 1.521 1_545 S
C1395 C1399 1.400 . S
C1396 H1381 0.960 . S
C1396 H1382 0.970 . S
C1396 H1383 0.952 1_565 S
C1396 C1395 1.521 1_565 S
C1397 C1394 1.403 . S
C1397 C1398 1.392 . S
C1397 C1401 1.495 . S
C1398 C1397 1.392 . S
C1398 C1399 1.385 . S
C1398 C1400 1.478 . S
C1399 H1393 0.930 . S
C1399 C1395 1.400 . S
C1399 C1398 1.385 . S
C1400 C1398 1.478 . S
C1400 C1402 1.381 1_545 S
C1400 C1406 1.383 . S
C1401 C1397 1.495 . S
C1401 H1407 0.959 . S
C1401 H1408 0.961 . S
C1401 H1409 0.960 . S
C1402 C1400 1.381 1_565 S
C1402 C1403 1.398 . S
C1402 H1410 0.930 . S
C1403 C1402 1.398 . S
C1403 C1404 1.353 1_565 S
C1403 H1411 0.957 . S
C1404 C1403 1.353 1_545 S
C1404 C1405 1.377 . S
C1405 H1389 0.930 . S
C1405 C1404 1.377 . S
C1405 C1406 1.379 . S
C1406 H1390 0.931 . S
C1406 C1400 1.383 . S
C1406 C1405 1.379 . S
H1407 C1401 0.959 . S
H1408 C1401 0.961 . S
H1409 C1401 0.960 . S
H1410 C1402 0.930 . S
H1411 C1403 0.957 . S
H1412 C1420 0.929 . S
H1413 C1422 0.930 . S
H1414 C1424 0.930 . S
H1415 C1427 0.929 . S
H1416 C1430 0.930 . S
H1417 C1432 0.960 . S
H1418 C1432 0.960 . S
H1419 C1432 0.960 . S
C1420 H1412 0.929 . S
C1420 C1421 1.377 . S
C1420 C1422 1.384 . S
C1421 C1420 1.377 . S
C1421 C1427 1.390 . S
C1422 H1413 0.930 . S
C1422 C1420 1.384 . S
C1422 C1423 1.372 . S
C1423 C1422 1.372 . S
C1423 C1424 1.400 . S
C1423 C1428 1.490 . S
C1424 H1414 0.930 . S
C1424 C1423 1.400 . S
C1424 C1427 1.386 . S
H1425 C1441 0.930 . S
H1426 C1442 0.931 . S
C1427 H1415 0.929 . S
C1427 C1421 1.390 . S
C1427 C1424 1.386 . S
C1428 C1423 1.490 . S
C1428 C1430 1.395 . S
C1428 C1431 1.403 . S
H1429 C1435 0.930 . S
C1430 H1416 0.930 . S
C1430 C1428 1.395 . S
C1430 C1433 1.403 . S
C1431 C1428 1.403 . S
C1431 C1432 1.524 . S
C1431 C1435 1.400 . S
C1432 H1417 0.960 . S
C1432 H1418 0.960 . S
C1432 H1419 0.960 . S
C1432 C1431 1.524 . S
C1433 C1430 1.403 . S
C1433 C1434 1.392 . S
C1433 C1437 1.495 . S
C1434 C1433 1.392 . S
C1434 C1435 1.385 . S
C1434 C1436 1.478 . S
C1435 H1429 0.930 . S
C1435 C1431 1.400 . S
C1435 C1434 1.385 . S
C1436 C1434 1.478 . S
C1436 C1438 1.381 . S
C1436 C1442 1.383 . S
C1437 C1433 1.495 . S
C1437 H1443 0.959 . S
C1437 H1444 0.961 . S
C1437 H1445 0.960 . S
C1438 C1436 1.381 . S
C1438 C1439 1.394 . S
C1438 H1446 0.930 . S
C1439 C1438 1.394 . S
C1439 C1440 1.383 . S
C1439 H1447 0.929 . S
C1440 C1439 1.383 . S
C1440 C1441 1.377 . S
C1441 H1425 0.930 . S
C1441 C1440 1.377 . S
C1441 C1442 1.379 . S
C1442 H1426 0.931 . S
C1442 C1436 1.383 . S
C1442 C1441 1.379 . S
H1443 C1437 0.959 . S
H1444 C1437 0.961 . S
H1445 C1437 0.960 . S
H1446 C1438 0.930 . S
H1447 C1439 0.929 . S
H1448 C1456 0.929 . S
H1449 C1458 0.930 . S
H1450 C1460 0.930 . S
H1451 C1463 0.929 . S
H1452 C1466 0.930 . S
H1453 C1468 0.960 . S
H1454 C1468 0.960 . S
H1455 C1468 0.960 . S
C1456 H1448 0.929 . S
C1456 C1457 1.377 . S
C1456 C1458 1.384 . S
C1457 C1456 1.377 . S
C1457 C1463 1.390 . S
C1458 H1449 0.930 . S
C1458 C1456 1.384 . S
C1458 C1459 1.372 . S
C1459 C1458 1.372 . S
C1459 C1460 1.400 . S
C1459 C1464 1.490 . S
C1460 H1450 0.930 . S
C1460 C1459 1.400 . S
C1460 C1463 1.386 . S
H1461 C1477 0.930 . S
H1462 C1478 0.931 . S
C1463 H1451 0.929 . S
C1463 C1457 1.390 . S
C1463 C1460 1.386 . S
C1464 C1459 1.490 . S
C1464 C1466 1.395 . S
C1464 C1467 1.403 . S
H1465 C1471 0.930 . S
C1466 H1452 0.930 . S
C1466 C1464 1.395 . S
C1466 C1469 1.403 . S
C1467 C1464 1.403 . S
C1467 C1468 1.524 . S
C1467 C1471 1.400 . S
C1468 H1453 0.960 . S
C1468 H1454 0.960 . S
C1468 H1455 0.960 . S
C1468 C1467 1.524 . S
C1469 C1466 1.403 . S
C1469 C1470 1.392 . S
C1469 C1473 1.495 . S
C1470 C1469 1.392 . S
C1470 C1471 1.385 . S
C1470 C1472 1.478 . S
C1471 H1465 0.930 . S
C1471 C1467 1.400 . S
C1471 C1470 1.385 . S
C1472 C1470 1.478 . S
C1472 C1474 1.381 . S
C1472 C1478 1.383 . S
C1473 C1469 1.495 . S
C1473 H1479 0.959 . S
C1473 H1480 0.961 . S
C1473 H1481 0.960 . S
C1474 C1472 1.381 . S
C1474 C1475 1.394 . S
C1474 H1482 0.930 . S
C1475 C1474 1.394 . S
C1475 C1476 1.383 . S
C1475 H1483 0.929 . S
C1476 C1475 1.383 . S
C1476 C1477 1.377 . S
C1477 H1461 0.930 . S
C1477 C1476 1.377 . S
C1477 C1478 1.379 . S
C1478 H1462 0.931 . S
C1478 C1472 1.383 . S
C1478 C1477 1.379 . S
H1479 C1473 0.959 . S
H1480 C1473 0.961 . S
H1481 C1473 0.960 . S
H1482 C1474 0.930 . S
H1483 C1475 0.929 . S
H1484 C1492 0.929 . S
H1485 C1494 0.930 . S
H1486 C1496 0.930 . S
H1487 C1499 0.929 . S
H1488 C1502 0.930 . S
H1489 C1504 0.960 . S
H1490 C1504 0.960 . S
H1491 C1504 0.960 . S
C1492 H1484 0.929 . S
C1492 C1493 1.363 1_655 S
C1492 C1494 1.384 . S
C1493 C1492 1.363 1_455 S
C1493 C1499 1.406 . S
C1494 H1485 0.930 . S
C1494 C1492 1.384 . S
C1494 C1495 1.372 1_655 S
C1495 C1494 1.372 1_455 S
C1495 C1496 1.400 . S
C1495 C1500 1.490 . S
C1496 H1486 0.930 . S
C1496 C1495 1.400 . S
C1496 C1499 1.386 . S
H1497 C1513 0.930 . S
H1498 C1514 0.931 . S
C1499 H1487 0.929 . S
C1499 C1493 1.406 . S
C1499 C1496 1.386 . S
C1500 C1495 1.490 . S
C1500 C1502 1.395 1_455 S
C1500 C1503 1.403 . S
H1501 C1507 0.930 . S
C1502 H1488 0.930 . S
C1502 C1500 1.395 1_655 S
C1502 C1505 1.403 . S
C1503 C1500 1.403 . S
C1503 C1504 1.524 . S
C1503 C1507 1.400 . S
C1504 H1489 0.960 . S
C1504 H1490 0.960 . S
C1504 H1491 0.960 . S
C1504 C1503 1.524 . S
C1505 C1502 1.403 . S
C1505 C1506 1.392 1_655 S
C1505 C1509 1.495 . S
C1506 C1505 1.392 1_455 S
C1506 C1507 1.385 . S
C1506 C1508 1.478 . S
C1507 H1501 0.930 . S
C1507 C1503 1.400 . S
C1507 C1506 1.385 . S
C1508 C1506 1.478 . S
C1508 C1510 1.381 1_455 S
C1508 C1514 1.383 . S
C1509 C1505 1.495 . S
C1509 H1515 0.959 . S
C1509 H1516 0.961 . S
C1509 H1517 0.960 . S
C1510 C1508 1.381 1_655 S
C1510 C1511 1.394 . S
C1510 H1518 0.930 . S
C1511 C1510 1.394 . S
C1511 C1512 1.383 1_655 S
C1511 H1519 0.929 . S
C1512 C1511 1.383 1_455 S
C1512 C1513 1.377 . S
C1513 H1497 0.930 . S
C1513 C1512 1.377 . S
C1513 C1514 1.379 . S
C1514 H1498 0.931 . S
C1514 C1508 1.383 . S
C1514 C1513 1.379 . S
H1515 C1509 0.959 . S
H1516 C1509 0.961 . S
H1517 C1509 0.960 . S
H1518 C1510 0.930 . S
H1519 C1511 0.929 . S
H1520 C1528 0.929 1_565 S
H1521 C1530 0.925 1_565 S
H1522 C1532 0.930 . S
H1523 C1535 0.929 . S
H1524 C1538 0.930 . S
H1525 C1540 0.960 . S
H1526 C1540 0.960 . S
H1527 C1540 0.960 1_545 S
C1528 H1520 0.929 1_545 S
C1528 C1529 1.377 . S
C1528 C1530 1.385 . S
C1529 C1528 1.377 . S
C1529 C1535 1.390 . S
C1530 H1521 0.925 1_545 S
C1530 C1528 1.385 . S
C1530 C1531 1.376 . S
C1531 C1530 1.376 . S
C1531 C1532 1.400 . S
C1531 C1536 1.490 . S
C1532 H1522 0.930 . S
C1532 C1531 1.400 . S
C1532 C1535 1.386 . S
H1533 C1549 0.930 . S
H1534 C1550 0.931 . S
C1535 H1523 0.929 . S
C1535 C1529 1.390 . S
C1535 C1532 1.386 . S
C1536 C1531 1.490 . S
C1536 C1538 1.395 . S
C1536 C1539 1.403 . S
H1537 C1543 0.930 1_565 S
C1538 H1524 0.930 . S
C1538 C1536 1.395 . S
C1538 C1541 1.403 . S
C1539 C1536 1.403 . S
C1539 C1540 1.524 1_545 S
C1539 C1543 1.400 . S
C1540 H1525 0.960 . S
C1540 H1526 0.960 . S
C1540 H1527 0.960 1_565 S
C1540 C1539 1.524 1_565 S
C1541 C1538 1.403 . S
C1541 C1542 1.392 . S
C1541 C1545 1.495 . S
C1542 C1541 1.392 . S
C1542 C1543 1.385 . S
C1542 C1544 1.478 . S
C1543 H1537 0.930 1_545 S
C1543 C1539 1.400 . S
C1543 C1542 1.385 . S
C1544 C1542 1.478 . S
C1544 C1546 1.381 1_545 S
C1544 C1550 1.383 . S
C1545 C1541 1.495 . S
C1545 H1551 0.959 . S
C1545 H1552 0.961 . S
C1545 H1553 0.960 . S
C1546 C1544 1.381 1_565 S
C1546 C1547 1.394 . S
C1546 H1554 0.930 . S
C1547 C1546 1.394 . S
C1547 C1548 1.383 1_565 S
C1547 H1555 0.923 1_554 S
C1548 C1547 1.383 1_545 S
C1548 C1549 1.377 . S
C1549 H1533 0.930 . S
C1549 C1548 1.377 . S
C1549 C1550 1.379 . S
C1550 H1534 0.931 . S
C1550 C1544 1.383 . S
C1550 C1549 1.379 . S
H1551 C1545 0.959 . S
H1552 C1545 0.961 . S
H1553 C1545 0.960 . S
H1554 C1546 0.930 . S
H1555 C1547 0.923 1_556 S
H1556 C1564 0.929 . S
H1557 C1566 0.930 . S
H1558 C1568 0.930 . S
H1559 C1571 0.929 . S
H1560 C1574 0.930 . S
H1561 C1576 0.960 . S
H1562 C1576 0.960 . S
H1563 C1576 0.960 . S
C1564 H1556 0.929 . S
C1564 C1565 1.377 . S
C1564 C1566 1.384 . S
C1565 C1564 1.377 . S
C1565 C1571 1.390 . S
C1566 H1557 0.930 . S
C1566 C1564 1.384 . S
C1566 C1567 1.372 . S
C1567 C1566 1.372 . S
C1567 C1568 1.400 . S
C1567 C1572 1.490 . S
C1568 H1558 0.930 . S
C1568 C1567 1.400 . S
C1568 C1571 1.386 . S
H1569 C1585 0.930 . S
H1570 C1586 0.931 . S
C1571 H1559 0.929 . S
C1571 C1565 1.390 . S
C1571 C1568 1.386 . S
C1572 C1567 1.490 . S
C1572 C1574 1.395 . S
C1572 C1575 1.403 . S
H1573 C1579 0.930 . S
C1574 H1560 0.930 . S
C1574 C1572 1.395 . S
C1574 C1577 1.403 . S
C1575 C1572 1.403 . S
C1575 C1576 1.524 . S
C1575 C1579 1.400 . S
C1576 H1561 0.960 . S
C1576 H1562 0.960 . S
C1576 H1563 0.960 . S
C1576 C1575 1.524 . S
C1577 C1574 1.403 . S
C1577 C1578 1.392 . S
C1577 C1581 1.495 . S
C1578 C1577 1.392 . S
C1578 C1579 1.385 . S
C1578 C1580 1.478 . S
C1579 H1573 0.930 . S
C1579 C1575 1.400 . S
C1579 C1578 1.385 . S
C1580 C1578 1.478 . S
C1580 C1582 1.381 . S
C1580 C1586 1.383 . S
C1581 C1577 1.495 . S
C1581 H1587 0.959 . S
C1581 H1588 0.961 . S
C1581 H1589 0.960 . S
C1582 C1580 1.381 . S
C1582 C1583 1.394 . S
C1582 H1590 0.930 . S
C1583 C1582 1.394 . S
C1583 C1584 1.383 . S
C1583 H1591 0.929 1_554 S
C1584 C1583 1.383 . S
C1584 C1585 1.377 . S
C1585 H1569 0.930 . S
C1585 C1584 1.377 . S
C1585 C1586 1.379 . S
C1586 H1570 0.931 . S
C1586 C1580 1.383 . S
C1586 C1585 1.379 . S
H1587 C1581 0.959 . S
H1588 C1581 0.961 . S
H1589 C1581 0.960 . S
H1590 C1582 0.930 . S
H1591 C1583 0.929 1_556 S
H1592 C1600 0.929 . S
H1593 C1602 0.930 . S
H1594 C1604 0.930 . S
H1595 C1607 0.929 . S
H1596 C1610 0.930 . S
H1597 C1612 0.960 . S
H1598 C1612 0.960 . S
H1599 C1612 0.960 . S
C1600 H1592 0.929 . S
C1600 C1601 1.377 . S
C1600 C1602 1.384 . S
C1601 C1600 1.377 . S
C1601 C1607 1.390 . S
C1602 H1593 0.930 . S
C1602 C1600 1.384 . S
C1602 C1603 1.372 . S
C1603 C1602 1.372 . S
C1603 C1604 1.400 . S
C1603 C1608 1.490 . S
C1604 H1594 0.930 . S
C1604 C1603 1.400 . S
C1604 C1607 1.386 . S
H1605 C1621 0.930 1_556 S
H1606 C1622 0.931 . S
C1607 H1595 0.929 . S
C1607 C1601 1.390 . S
C1607 C1604 1.386 . S
C1608 C1603 1.490 . S
C1608 C1610 1.395 . S
C1608 C1611 1.403 . S
H1609 C1615 0.930 . S
C1610 H1596 0.930 . S
C1610 C1608 1.395 . S
C1610 C1613 1.403 . S
C1611 C1608 1.403 . S
C1611 C1612 1.524 . S
C1611 C1615 1.400 . S
C1612 H1597 0.960 . S
C1612 H1598 0.960 . S
C1612 H1599 0.960 . S
C1612 C1611 1.524 . S
C1613 C1610 1.403 . S
C1613 C1614 1.392 . S
C1613 C1617 1.495 . S
C1614 C1613 1.392 . S
C1614 C1615 1.385 . S
C1614 C1616 1.478 . S
C1615 H1609 0.930 . S
C1615 C1611 1.400 . S
C1615 C1614 1.385 . S
C1616 C1614 1.478 . S
C1616 C1618 1.381 . S
C1616 C1622 1.383 . S
C1617 C1613 1.495 . S
C1617 H1623 0.959 . S
C1617 H1624 0.961 . S
C1617 H1625 0.960 . S
C1618 C1616 1.381 . S
C1618 C1619 1.394 . S
C1618 H1626 0.930 . S
C1619 C1618 1.394 . S
C1619 C1620 1.383 . S
C1619 H1627 0.929 . S
C1620 C1619 1.383 . S
C1620 C1621 1.377 . S
C1621 H1605 0.930 1_554 S
C1621 C1620 1.377 . S
C1621 C1622 1.379 . S
C1622 H1606 0.931 . S
C1622 C1616 1.383 . S
C1622 C1621 1.379 . S
H1623 C1617 0.959 . S
H1624 C1617 0.961 . S
H1625 C1617 0.960 . S
H1626 C1618 0.930 . S
H1627 C1619 0.929 . S
H1628 C1636 0.929 . S
H1629 C1638 0.930 . S
H1630 C1640 0.930 . S
H1631 C1643 0.929 . S
H1632 C1646 0.923 1_655 S
H1633 C1648 0.960 . S
H1634 C1648 0.952 1_655 S
H1635 C1648 0.960 . S
C1636 H1628 0.929 . S
C1636 C1637 1.377 1_655 S
C1636 C1638 1.384 . S
C1637 C1636 1.377 1_455 S
C1637 C1643 1.390 . S
C1638 H1629 0.930 . S
C1638 C1636 1.384 . S
C1638 C1639 1.372 1_655 S
C1639 C1638 1.372 1_455 S
C1639 C1640 1.400 . S
C1639 C1644 1.490 . S
C1640 H1630 0.930 . S
C1640 C1639 1.400 . S
C1640 C1643 1.386 . S
H1641 C1657 0.930 . S
H1642 C1658 0.931 . S
C1643 H1631 0.929 . S
C1643 C1637 1.390 . S
C1643 C1640 1.386 . S
C1644 C1639 1.490 . S
C1644 C1646 1.395 . S
C1644 C1647 1.403 . S
H1645 C1651 0.930 . S
C1646 H1632 0.923 1_455 S
C1646 C1644 1.395 . S
C1646 C1649 1.403 . S
C1647 C1644 1.403 . S
C1647 C1648 1.524 . S
C1647 C1651 1.400 . S
C1648 H1633 0.960 . S
C1648 H1634 0.952 1_455 S
C1648 H1635 0.960 . S
C1648 C1647 1.524 . S
C1649 C1646 1.403 . S
C1649 C1650 1.392 . S
C1649 C1653 1.495 . S
C1650 C1649 1.392 . S
C1650 C1651 1.385 . S
C1650 C1652 1.478 . S
C1651 H1645 0.930 . S
C1651 C1647 1.400 . S
C1651 C1650 1.385 . S
C1652 C1650 1.478 . S
C1652 C1654 1.381 1_455 S
C1652 C1658 1.383 . S
C1653 C1649 1.495 . S
C1653 H1659 0.959 1_455 S
C1653 H1660 0.961 . S
C1653 H1661 0.960 1_455 S
C1654 C1652 1.381 1_655 S
C1654 C1655 1.394 . S
C1654 H1662 0.930 . S
C1655 C1654 1.394 . S
C1655 C1656 1.383 1_655 S
C1655 H1663 0.929 . S
C1656 C1655 1.383 1_455 S
C1656 C1657 1.377 . S
C1657 H1641 0.930 . S
C1657 C1656 1.377 . S
C1657 C1658 1.379 . S
C1658 H1642 0.931 . S
C1658 C1652 1.383 . S
C1658 C1657 1.379 . S
H1659 C1653 0.959 1_655 S
H1660 C1653 0.961 . S
H1661 C1653 0.960 1_655 S
H1662 C1654 0.930 . S
H1663 C1655 0.929 . S
H1664 C1672 0.929 . S
H1665 C1674 0.930 . S
H1666 C1676 0.930 . S
H1667 C1679 0.929 . S
H1668 C1682 0.930 . S
H1669 C1684 0.960 . S
H1670 C1684 0.960 . S
H1671 C1684 0.960 . S
C1672 H1664 0.929 . S
C1672 C1673 1.377 1_545 S
C1672 C1674 1.384 . S
C1673 C1672 1.377 1_565 S
C1673 C1679 1.390 . S
C1674 H1665 0.930 . S
C1674 C1672 1.384 . S
C1674 C1675 1.372 1_545 S
C1675 C1674 1.372 1_565 S
C1675 C1676 1.400 . S
C1675 C1680 1.490 . S
C1676 H1666 0.930 . S
C1676 C1675 1.400 . S
C1676 C1679 1.386 . S
H1677 C1693 0.930 . S
H1678 C1694 0.931 . S
C1679 H1667 0.929 . S
C1679 C1673 1.390 . S
C1679 C1676 1.386 . S
C1680 C1675 1.490 . S
C1680 C1682 1.395 1_565 S
C1680 C1683 1.403 . S
H1681 C1687 0.930 . S
C1682 H1668 0.930 . S
C1682 C1680 1.395 1_545 S
C1682 C1685 1.403 . S
C1683 C1680 1.403 . S
C1683 C1684 1.524 . S
C1683 C1687 1.400 . S
C1684 H1669 0.960 . S
C1684 H1670 0.960 . S
C1684 H1671 0.960 . S
C1684 C1683 1.524 . S
C1685 C1682 1.403 . S
C1685 C1686 1.392 1_545 S
C1685 C1689 1.495 . S
C1686 C1685 1.392 1_565 S
C1686 C1687 1.385 . S
C1686 C1688 1.478 . S
C1687 H1681 0.930 . S
C1687 C1683 1.400 . S
C1687 C1686 1.385 . S
C1688 C1686 1.478 . S
C1688 C1690 1.381 1_565 S
C1688 C1694 1.383 . S
C1689 C1685 1.495 . S
C1689 H1695 0.959 . S
C1689 H1696 0.961 . S
C1689 H1697 0.960 . S
C1690 C1688 1.381 1_545 S
C1690 C1691 1.394 . S
C1690 H1698 0.930 . S
C1691 C1690 1.394 . S
C1691 C1692 1.354 1_545 S
C1691 H1699 0.929 . S
C1692 C1691 1.354 1_565 S
C1692 C1693 1.409 . S
C1693 H1677 0.930 . S
C1693 C1692 1.409 . S
C1693 C1694 1.379 . S
C1694 H1678 0.931 . S
C1694 C1688 1.383 . S
C1694 C1693 1.379 . S
H1695 C1689 0.959 . S
H1696 C1689 0.961 . S
H1697 C1689 0.960 . S
H1698 C1690 0.930 . S
H1699 C1691 0.929 . S
H1700 C1708 0.929 . S
H1701 C1710 0.930 . S
H1702 C1712 0.930 . S
H1703 C1715 0.929 . S
H1704 C1718 0.930 . S
H1705 C1720 0.960 . S
H1706 C1720 0.960 . S
H1707 C1720 0.960 . S
C1708 H1700 0.929 . S
C1708 C1709 1.377 . S
C1708 C1710 1.384 . S
C1709 C1708 1.377 . S
C1709 C1715 1.390 . S
C1710 H1701 0.930 . S
C1710 C1708 1.384 . S
C1710 C1711 1.372 . S
C1711 C1710 1.372 . S
C1711 C1712 1.400 . S
C1711 C1716 1.490 . S
C1712 H1702 0.930 . S
C1712 C1711 1.400 . S
C1712 C1715 1.386 . S
H1713 C1729 0.930 . S
H1714 C1730 0.931 . S
C1715 H1703 0.929 . S
C1715 C1709 1.390 . S
C1715 C1712 1.386 . S
C1716 C1711 1.490 . S
C1716 C1718 1.395 . S
C1716 C1719 1.403 . S
H1717 C1723 0.930 . S
C1718 H1704 0.930 . S
C1718 C1716 1.395 . S
C1718 C1721 1.403 . S
C1719 C1716 1.403 . S
C1719 C1720 1.524 . S
C1719 C1723 1.400 . S
C1720 H1705 0.960 . S
C1720 H1706 0.960 . S
C1720 H1707 0.960 . S
C1720 C1719 1.524 . S
C1721 C1718 1.403 . S
C1721 C1722 1.392 . S
C1721 C1725 1.495 . S
C1722 C1721 1.392 . S
C1722 C1723 1.385 . S
C1722 C1724 1.478 . S
C1723 H1717 0.930 . S
C1723 C1719 1.400 . S
C1723 C1722 1.385 . S
C1724 C1722 1.478 . S
C1724 C1726 1.381 . S
C1724 C1730 1.383 . S
C1725 C1721 1.495 . S
C1725 H1731 0.959 . S
C1725 H1732 0.961 . S
C1725 H1733 0.960 . S
C1726 C1724 1.381 . S
C1726 C1727 1.394 . S
C1726 H1734 0.930 . S
C1727 C1726 1.394 . S
C1727 C1728 1.383 . S
C1727 H1735 0.929 . S
C1728 C1727 1.383 . S
C1728 C1729 1.377 . S
C1729 H1713 0.930 . S
C1729 C1728 1.377 . S
C1729 C1730 1.379 . S
C1730 H1714 0.931 . S
C1730 C1724 1.383 . S
C1730 C1729 1.379 . S
H1731 C1725 0.959 . S
H1732 C1725 0.961 . S
H1733 C1725 0.960 . S
H1734 C1726 0.930 . S
H1735 C1727 0.929 . S
H1736 C1744 0.929 . S
H1737 C1746 0.930 . S
H1738 C1748 0.930 . S
H1739 C1751 0.929 . S
H1740 C1754 0.930 . S
H1741 C1756 0.960 . S
H1742 C1756 0.960 . S
H1743 C1756 0.960 . S
C1744 H1736 0.929 . S
C1744 C1745 1.377 . S
C1744 C1746 1.384 . S
C1745 C1744 1.377 . S
C1745 C1751 1.390 . S
C1746 H1737 0.930 . S
C1746 C1744 1.384 . S
C1746 C1747 1.372 . S
C1747 C1746 1.372 . S
C1747 C1748 1.400 . S
C1747 C1752 1.490 . S
C1748 H1738 0.930 . S
C1748 C1747 1.400 . S
C1748 C1751 1.386 . S
H1749 C1765 0.930 . S
H1750 C1766 0.931 . S
C1751 H1739 0.929 . S
C1751 C1745 1.390 . S
C1751 C1748 1.386 . S
C1752 C1747 1.490 . S
C1752 C1754 1.395 . S
C1752 C1755 1.403 . S
H1753 C1759 0.930 . S
C1754 H1740 0.930 . S
C1754 C1752 1.395 . S
C1754 C1757 1.403 . S
C1755 C1752 1.403 . S
C1755 C1756 1.524 . S
C1755 C1759 1.400 . S
C1756 H1741 0.960 . S
C1756 H1742 0.960 . S
C1756 H1743 0.960 . S
C1756 C1755 1.524 . S
C1757 C1754 1.403 . S
C1757 C1758 1.392 . S
C1757 C1761 1.495 . S
C1758 C1757 1.392 . S
C1758 C1759 1.385 . S
C1758 C1760 1.478 . S
C1759 H1753 0.930 . S
C1759 C1755 1.400 . S
C1759 C1758 1.385 . S
C1760 C1758 1.478 . S
C1760 C1762 1.381 . S
C1760 C1766 1.383 . S
C1761 C1757 1.495 . S
C1761 H1767 0.959 . S
C1761 H1768 0.961 . S
C1761 H1769 0.960 . S
C1762 C1760 1.381 . S
C1762 C1763 1.394 . S
C1762 H1770 0.930 . S
C1763 C1762 1.394 . S
C1763 C1764 1.383 . S
C1763 H1771 0.929 . S
C1764 C1763 1.383 . S
C1764 C1765 1.377 . S
C1765 H1749 0.930 . S
C1765 C1764 1.377 . S
C1765 C1766 1.379 . S
C1766 H1750 0.931 . S
C1766 C1760 1.383 . S
C1766 C1765 1.379 . S
H1767 C1761 0.959 . S
H1768 C1761 0.961 . S
H1769 C1761 0.960 . S
H1770 C1762 0.930 . S
H1771 C1763 0.929 . S
H1772 C1780 0.929 . S
H1773 C1782 0.930 . S
H1774 C1784 0.930 . S
H1775 C1787 0.929 . S
H1776 C1790 0.930 . S
H1777 C1792 0.960 . S
H1778 C1792 0.960 . S
H1779 C1792 0.960 . S
C1780 H1772 0.929 . S
C1780 C1781 1.377 1_455 S
C1780 C1782 1.384 . S
C1781 C1780 1.377 1_655 S
C1781 C1787 1.390 . S
C1782 H1773 0.930 . S
C1782 C1780 1.384 . S
C1782 C1783 1.372 1_455 S
C1783 C1782 1.372 1_655 S
C1783 C1784 1.400 . S
C1783 C1788 1.490 . S
C1784 H1774 0.930 . S
C1784 C1783 1.400 . S
C1784 C1787 1.386 . S
H1785 C1801 0.930 . S
H1786 C1802 0.931 . S
C1787 H1775 0.929 . S
C1787 C1781 1.390 . S
C1787 C1784 1.386 . S
C1788 C1783 1.490 . S
C1788 C1790 1.395 1_655 S
C1788 C1791 1.403 . S
H1789 C1795 0.930 . S
C1790 H1776 0.930 . S
C1790 C1788 1.395 1_455 S
C1790 C1793 1.403 . S
C1791 C1788 1.403 . S
C1791 C1792 1.524 . S
C1791 C1795 1.400 . S
C1792 H1777 0.960 . S
C1792 H1778 0.960 . S
C1792 H1779 0.960 . S
C1792 C1791 1.524 . S
C1793 C1790 1.403 . S
C1793 C1794 1.392 1_455 S
C1793 C1797 1.495 . S
C1794 C1793 1.392 1_655 S
C1794 C1795 1.385 . S
C1794 C1796 1.478 . S
C1795 H1789 0.930 . S
C1795 C1791 1.400 . S
C1795 C1794 1.385 . S
C1796 C1794 1.478 . S
C1796 C1798 1.381 1_655 S
C1796 C1802 1.383 . S
C1797 C1793 1.495 . S
C1797 H1803 0.959 . S
C1797 H1804 0.961 . S
C1797 H1805 0.960 . S
C1798 C1796 1.381 1_455 S
C1798 C1799 1.394 . S
C1798 H1806 0.930 . S
C1799 C1798 1.394 . S
C1799 C1800 1.404 . S
C1799 H1807 0.929 . S
C1800 C1799 1.404 . S
C1800 C1801 1.355 1_455 S
C1801 H1785 0.930 . S
C1801 C1800 1.355 1_655 S
C1801 C1802 1.379 . S
C1802 H1786 0.931 . S
C1802 C1796 1.383 . S
C1802 C1801 1.379 . S
H1803 C1797 0.959 . S
H1804 C1797 0.961 . S
H1805 C1797 0.960 . S
H1806 C1798 0.930 . S
H1807 C1799 0.929 . S
H1808 C1816 0.941 . S
H1809 C1818 0.930 1_565 S
H1810 C1820 0.930 1_554 S
H1811 C1823 0.929 . S
H1812 C1826 0.930 . S
H1813 C1828 0.960 . S
H1814 C1828 0.960 . S
H1815 C1828 0.960 . S
C1816 H1808 0.941 . S
C1816 C1817 1.377 . S
C1816 C1818 1.384 . S
C1817 C1816 1.377 . S
C1817 C1823 1.390 . S
C1818 H1809 0.930 1_545 S
C1818 C1816 1.384 . S
C1818 C1819 1.372 . S
C1819 C1818 1.372 . S
C1819 C1820 1.400 . S
C1819 C1824 1.490 . S
C1820 H1810 0.930 1_556 S
C1820 C1819 1.400 . S
C1820 C1823 1.386 . S
H1821 C1837 0.930 1_545 S
H1822 C1838 0.931 . S
C1823 H1811 0.929 . S
C1823 C1817 1.390 . S
C1823 C1820 1.386 . S
C1824 C1819 1.490 . S
C1824 C1826 1.395 . S
C1824 C1827 1.403 1_546 S
H1825 C1831 0.930 . S
C1826 H1812 0.930 . S
C1826 C1824 1.395 . S
C1826 C1829 1.403 . S
C1827 C1824 1.403 1_564 S
C1827 C1828 1.524 . S
C1827 C1831 1.400 . S
C1828 H1813 0.960 . S
C1828 H1814 0.960 . S
C1828 H1815 0.960 . S
C1828 C1827 1.524 . S
C1829 C1826 1.403 . S
C1829 C1830 1.392 1_546 S
C1829 C1833 1.495 . S
C1830 C1829 1.392 1_564 S
C1830 C1831 1.385 . S
C1830 C1832 1.478 . S
C1831 H1825 0.930 . S
C1831 C1827 1.400 . S
C1831 C1830 1.385 . S
C1832 C1830 1.478 . S
C1832 C1834 1.381 . S
C1832 C1838 1.383 1_565 S
C1833 C1829 1.495 . S
C1833 H1839 0.959 . S
C1833 H1840 0.961 . S
C1833 H1841 0.960 . S
C1834 C1832 1.381 . S
C1834 C1835 1.394 . S
C1834 H1842 0.930 1_554 S
C1835 C1834 1.394 . S
C1835 C1836 1.383 . S
C1835 H1843 0.929 . S
C1836 C1835 1.383 . S
C1836 C1837 1.377 . S
C1837 H1821 0.930 1_565 S
C1837 C1836 1.377 . S
C1837 C1838 1.379 1_565 S
C1838 H1822 0.931 . S
C1838 C1832 1.383 1_545 S
C1838 C1837 1.379 1_545 S
H1839 C1833 0.959 . S
H1840 C1833 0.961 . S
H1841 C1833 0.960 . S
H1842 C1834 0.930 1_556 S
H1843 C1835 0.929 . S
H1844 C1852 0.929 1_554 S
H1845 C1854 0.904 1_554 S
H1846 C1856 0.930 . S
H1847 C1859 0.929 . S
H1848 C1862 0.930 . S
H1849 C1864 0.960 . S
H1850 C1864 0.960 . S
H1851 C1864 0.960 . S
C1852 H1844 0.929 1_556 S
C1852 C1853 1.377 . S
C1852 C1854 1.394 . S
C1853 C1852 1.377 . S
C1853 C1859 1.390 . S
C1854 H1845 0.904 1_556 S
C1854 C1852 1.394 . S
C1854 C1855 1.388 . S
C1855 C1854 1.388 . S
C1855 C1856 1.400 . S
C1855 C1860 1.490 . S
C1856 H1846 0.930 . S
C1856 C1855 1.400 . S
C1856 C1859 1.386 . S
H1857 C1873 0.930 . S
H1858 C1874 0.931 1_556 S
C1859 H1847 0.929 . S
C1859 C1853 1.390 . S
C1859 C1856 1.386 . S
C1860 C1855 1.490 . S
C1860 C1862 1.395 1_556 S
C1860 C1863 1.403 . S
H1861 C1867 0.930 . S
C1862 H1848 0.930 . S
C1862 C1860 1.395 1_554 S
C1862 C1865 1.403 . S
C1863 C1860 1.403 . S
C1863 C1864 1.524 . S
C1863 C1867 1.400 . S
C1864 H1849 0.960 . S
C1864 H1850 0.960 . S
C1864 H1851 0.960 . S
C1864 C1863 1.524 . S
C1865 C1862 1.403 . S
C1865 C1866 1.392 . S
C1865 C1869 1.495 . S
C1866 C1865 1.392 . S
C1866 C1867 1.385 1_554 S
C1866 C1868 1.478 . S
C1867 H1861 0.930 . S
C1867 C1863 1.400 . S
C1867 C1866 1.385 1_556 S
C1868 C1866 1.478 . S
C1868 C1870 1.381 . S
C1868 C1874 1.383 . S
C1869 C1865 1.495 . S
C1869 H1875 0.959 . S
C1869 H1876 0.961 . S
C1869 H1877 0.960 . S
C1870 C1868 1.381 . S
C1870 C1871 1.394 . S
C1870 H1878 0.930 . S
C1871 C1870 1.394 . S
C1871 C1872 1.383 . S
C1871 H1879 0.929 . S
C1872 C1871 1.383 . S
C1872 C1873 1.377 . S
C1873 H1857 0.930 . S
C1873 C1872 1.377 . S
C1873 C1874 1.379 . S
C1874 H1858 0.931 1_554 S
C1874 C1868 1.383 . S
C1874 C1873 1.379 . S
H1875 C1869 0.959 . S
H1876 C1869 0.961 . S
H1877 C1869 0.960 . S
H1878 C1870 0.930 . S
H1879 C1871 0.929 . S
H1880 C1888 0.929 . S
H1881 C1890 0.930 . S
H1882 C1892 0.941 . S
H1883 C1895 0.929 1_556 S
H1884 C1898 0.930 . S
H1885 C1900 0.960 1_455 S
H1886 C1900 0.960 1_554 S
H1887 C1900 0.960 . S
C1888 H1880 0.929 . S
C1888 C1889 1.377 . S
C1888 C1890 1.384 . S
C1889 C1888 1.377 . S
C1889 C1895 1.390 . S
C1890 H1881 0.930 . S
C1890 C1888 1.384 . S
C1890 C1891 1.372 . S
C1891 C1890 1.372 . S
C1891 C1892 1.392 1_554 S
C1891 C1896 1.490 . S
C1892 H1882 0.941 . S
C1892 C1891 1.392 1_556 S
C1892 C1895 1.383 1_556 S
H1893 C1909 0.930 . S
H1894 C1910 0.931 . S
C1895 H1883 0.929 1_554 S
C1895 C1889 1.390 . S
C1895 C1892 1.383 1_554 S
C1896 C1891 1.490 . S
C1896 C1898 1.395 . S
C1896 C1899 1.403 1_554 S
H1897 C1903 0.930 . S
C1898 H1884 0.930 . S
C1898 C1896 1.395 . S
C1898 C1901 1.403 1_655 S
C1899 C1896 1.403 1_556 S
C1899 C1900 1.524 . S
C1899 C1903 1.400 1_655 S
C1900 H1885 0.960 1_655 S
C1900 H1886 0.960 1_556 S
C1900 H1887 0.960 . S
C1900 C1899 1.524 . S
C1901 C1898 1.403 1_455 S
C1901 C1902 1.392 1_554 S
C1901 C1905 1.495 . S
C1902 C1901 1.392 1_556 S
C1902 C1903 1.385 . S
C1902 C1904 1.478 . S
C1903 H1897 0.930 . S
C1903 C1899 1.400 1_455 S
C1903 C1902 1.385 . S
C1904 C1902 1.478 . S
C1904 C1906 1.381 1_556 S
C1904 C1910 1.383 . S
C1905 C1901 1.495 . S
C1905 H1911 0.959 1_455 S
C1905 H1912 0.961 1_554 S
C1905 H1913 0.960 . S
C1906 C1904 1.381 1_554 S
C1906 C1907 1.394 1_554 S
C1906 H1914 0.930 . S
C1907 C1906 1.394 1_556 S
C1907 C1908 1.383 . S
C1907 H1915 0.929 1_556 S
C1908 C1907 1.383 . S
C1908 C1909 1.377 . S
C1909 H1893 0.930 . S
C1909 C1908 1.377 . S
C1909 C1910 1.379 . S
C1910 H1894 0.931 . S
C1910 C1904 1.383 . S
C1910 C1909 1.379 . S
H1911 C1905 0.959 1_655 S
H1912 C1905 0.961 1_556 S
H1913 C1905 0.960 . S
H1914 C1906 0.930 . S
H1915 C1907 0.929 1_554 S
H1916 C1924 0.929 1_554 S
H1917 C1926 0.930 . S
H1918 C1928 0.930 . S
H1919 C1931 0.929 . S
H1920 C1934 0.930 . S
H1921 C1936 0.960 1_565 S
H1922 C1936 0.960 . S
H1923 C1936 0.960 . S
C1924 H1916 0.929 1_556 S
C1924 C1925 1.377 . S
C1924 C1926 1.384 1_556 S
C1925 C1924 1.377 . S
C1925 C1931 1.390 . S
C1926 H1917 0.930 . S
C1926 C1924 1.384 1_554 S
C1926 C1927 1.372 1_554 S
C1927 C1926 1.372 1_556 S
C1927 C1928 1.400 . S
C1927 C1932 1.490 . S
C1928 H1918 0.930 . S
C1928 C1927 1.400 . S
C1928 C1931 1.386 . S
H1929 C1945 0.930 1_556 S
H1930 C1946 0.931 1_556 S
C1931 H1919 0.929 . S
C1931 C1925 1.390 . S
C1931 C1928 1.386 . S
C1932 C1927 1.490 . S
C1932 C1934 1.395 1_456 S
C1932 C1935 1.403 . S
H1933 C1939 0.933 . S
C1934 H1920 0.930 . S
C1934 C1932 1.395 1_654 S
C1934 C1937 1.403 1_545 S
C1935 C1932 1.403 . S
C1935 C1936 1.524 . S
C1935 C1939 1.407 1_545 S
C1936 H1921 0.960 1_545 S
C1936 H1922 0.960 . S
C1936 H1923 0.960 . S
C1936 C1935 1.524 . S
C1937 C1934 1.403 1_565 S
C1937 C1938 1.392 . S
C1937 C1941 1.495 . S
C1938 C1937 1.392 . S
C1938 C1939 1.375 1_654 S
C1938 C1940 1.478 . S
C1939 H1933 0.933 . S
C1939 C1935 1.407 1_565 S
C1939 C1938 1.375 1_456 S
C1940 C1938 1.478 . S
C1940 C1942 1.381 . S
C1940 C1946 1.383 . S
C1941 C1937 1.495 . S
C1941 H1947 0.959 1_565 S
C1941 H1948 0.961 . S
C1941 H1949 0.960 . S
C1942 C1940 1.381 . S
C1942 C1943 1.394 . S
C1942 H1950 0.930 . S
C1943 C1942 1.394 . S
C1943 C1944 1.383 . S
C1943 H1951 0.929 . S
C1944 C1943 1.383 . S
C1944 C1945 1.377 . S
C1945 H1929 0.930 1_554 S
C1945 C1944 1.377 . S
C1945 C1946 1.379 . S
C1946 H1930 0.931 1_554 S
C1946 C1940 1.383 . S
C1946 C1945 1.379 . S
H1947 C1941 0.959 1_545 S
H1948 C1941 0.961 . S
H1949 C1941 0.960 . S
H1950 C1942 0.930 . S
H1951 C1943 0.929 . S
H1952 C1960 0.929 . S
H1953 C1962 0.930 . S
H1954 C1964 0.930 . S
H1955 C1967 0.929 . S
H1956 C1970 0.930 . S
H1957 C1972 0.960 1_655 S
H1958 C1972 0.960 . S
H1959 C1972 0.960 1_545 S
C1960 H1952 0.929 . S
C1960 C1961 1.377 1_565 S
C1960 C1962 1.384 . S
C1961 C1960 1.377 1_545 S
C1961 C1967 1.390 . S
C1962 H1953 0.930 . S
C1962 C1960 1.384 . S
C1962 C1963 1.372 1_565 S
C1963 C1962 1.372 1_545 S
C1963 C1964 1.400 . S
C1963 C1968 1.490 . S
C1964 H1954 0.930 . S
C1964 C1963 1.400 . S
C1964 C1967 1.386 . S
H1965 C1981 0.930 . S
H1966 C1982 0.931 . S
C1967 H1955 0.929 . S
C1967 C1961 1.390 . S
C1967 C1964 1.386 . S
C1968 C1963 1.490 . S
C1968 C1970 1.395 . S
C1968 C1971 1.403 1_545 S
H1969 C1975 0.930 . S
C1970 H1956 0.930 . S
C1970 C1968 1.395 . S
C1970 C1973 1.403 1_455 S
C1971 C1968 1.403 1_565 S
C1971 C1972 1.524 . S
C1971 C1975 1.400 1_455 S
C1972 H1957 0.960 1_455 S
C1972 H1958 0.960 . S
C1972 H1959 0.960 1_565 S
C1972 C1971 1.524 . S
C1973 C1970 1.403 1_655 S
C1973 C1974 1.392 1_545 S
C1973 C1977 1.495 . S
C1974 C1973 1.392 1_565 S
C1974 C1975 1.385 . S
C1974 C1976 1.478 . S
C1975 H1969 0.930 . S
C1975 C1971 1.400 1_655 S
C1975 C1974 1.385 . S
C1976 C1974 1.478 . S
C1976 C1978 1.381 . S
C1976 C1982 1.383 1_565 S
C1977 C1973 1.495 . S
C1977 H1983 0.959 1_655 S
C1977 H1984 0.961 . S
C1977 H1985 0.960 1_545 S
C1978 C1976 1.381 . S
C1978 C1979 1.394 . S
C1978 H1986 0.930 . S
C1979 C1978 1.394 . S
C1979 C1980 1.383 . S
C1979 H1987 0.929 . S
C1980 C1979 1.383 . S
C1980 C1981 1.377 1_565 S
C1981 H1965 0.930 . S
C1981 C1980 1.377 1_545 S
C1981 C1982 1.379 . S
C1982 H1966 0.931 . S
C1982 C1976 1.383 1_545 S
C1982 C1981 1.379 . S
H1983 C1977 0.959 1_455 S
H1984 C1977 0.961 . S
H1985 C1977 0.960 1_565 S
H1986 C1978 0.930 . S
H1987 C1979 0.929 . S
H1988 C1996 0.929 . S
H1989 C1998 0.930 . S
H1990 C2000 0.930 . S
H1991 C2003 0.929 . S
H1992 C2006 0.934 . S
H1993 C2008 0.960 . S
H1994 C2008 0.960 . S
H1995 C2008 0.960 . S
C1996 H1988 0.929 . S
C1996 C1997 1.377 . S
C1996 C1998 1.384 . S
C1997 C1996 1.377 . S
C1997 C2003 1.390 . S
C1998 H1989 0.930 . S
C1998 C1996 1.384 . S
C1998 C1999 1.372 . S
C1999 C1998 1.372 . S
C1999 C2000 1.400 . S
C1999 C2004 1.490 . S
C2000 H1990 0.930 . S
C2000 C1999 1.400 . S
C2000 C2003 1.386 . S
H2001 C2017 0.930 . S
H2002 C2018 0.931 . S
C2003 H1991 0.929 . S
C2003 C1997 1.390 . S
C2003 C2000 1.386 . S
C2004 C1999 1.490 . S
C2004 C2006 1.431 . S
C2004 C2007 1.403 . S
H2005 C2011 0.930 . S
C2006 H1992 0.934 . S
C2006 C2004 1.431 . S
C2006 C2009 1.364 1_565 S
C2007 C2004 1.403 . S
C2007 C2008 1.524 . S
C2007 C2011 1.400 1_565 S
C2008 H1993 0.960 . S
C2008 H1994 0.960 . S
C2008 H1995 0.960 . S
C2008 C2007 1.524 . S
C2009 C2006 1.364 1_545 S
C2009 C2010 1.392 . S
C2009 C2013 1.495 . S
C2010 C2009 1.392 . S
C2010 C2011 1.385 . S
C2010 C2012 1.478 . S
C2011 H2005 0.930 . S
C2011 C2007 1.400 1_545 S
C2011 C2010 1.385 . S
C2012 C2010 1.478 . S
C2012 C2014 1.381 . S
C2012 C2018 1.383 . S
C2013 C2009 1.495 . S
C2013 H2019 0.959 . S
C2013 H2020 0.961 . S
C2013 H2021 0.960 . S
C2014 C2012 1.381 . S
C2014 C2015 1.394 . S
C2014 H2022 0.930 . S
C2015 C2014 1.394 . S
C2015 C2016 1.383 . S
C2015 H2023 0.929 . S
C2016 C2015 1.383 . S
C2016 C2017 1.377 . S
C2017 H2001 0.930 . S
C2017 C2016 1.377 . S
C2017 C2018 1.379 . S
C2018 H2002 0.931 . S
C2018 C2012 1.383 . S
C2018 C2017 1.379 . S
H2019 C2013 0.959 . S
H2020 C2013 0.961 . S
H2021 C2013 0.960 . S
H2022 C2014 0.930 . S
H2023 C2015 0.929 . S
H2024 C2032 0.929 . S
H2025 C2034 0.930 . S
H2026 C2036 0.930 . S
H2027 C2039 0.929 . S
H2028 C2042 0.930 . S
H2029 C2044 0.960 . S
H2030 C2044 0.960 . S
H2031 C2044 0.960 . S
C2032 H2024 0.929 . S
C2032 C2033 1.377 . S
C2032 C2034 1.384 . S
C2033 C2032 1.377 . S
C2033 C2039 1.390 . S
C2034 H2025 0.930 . S
C2034 C2032 1.384 . S
C2034 C2035 1.372 . S
C2035 C2034 1.372 . S
C2035 C2036 1.400 . S
C2035 C2040 1.490 . S
C2036 H2026 0.930 . S
C2036 C2035 1.400 . S
C2036 C2039 1.386 . S
H2037 C2053 0.930 . S
H2038 C2054 0.931 . S
C2039 H2027 0.929 . S
C2039 C2033 1.390 . S
C2039 C2036 1.386 . S
C2040 C2035 1.490 . S
C2040 C2042 1.395 . S
C2040 C2043 1.403 . S
H2041 C2047 0.930 . S
C2042 H2028 0.930 . S
C2042 C2040 1.395 . S
C2042 C2045 1.403 . S
C2043 C2040 1.403 . S
C2043 C2044 1.524 . S
C2043 C2047 1.400 . S
C2044 H2029 0.960 . S
C2044 H2030 0.960 . S
C2044 H2031 0.960 . S
C2044 C2043 1.524 . S
C2045 C2042 1.403 . S
C2045 C2046 1.392 . S
C2045 C2049 1.495 . S
C2046 C2045 1.392 . S
C2046 C2047 1.385 . S
C2046 C2048 1.478 . S
C2047 H2041 0.930 . S
C2047 C2043 1.400 . S
C2047 C2046 1.385 . S
C2048 C2046 1.478 . S
C2048 C2050 1.381 . S
C2048 C2054 1.383 . S
C2049 C2045 1.495 . S
C2049 H2055 0.959 . S
C2049 H2056 0.961 . S
C2049 H2057 0.960 . S
C2050 C2048 1.381 . S
C2050 C2051 1.394 . S
C2050 H2058 0.930 . S
C2051 C2050 1.394 . S
C2051 C2052 1.383 . S
C2051 H2059 0.929 . S
C2052 C2051 1.383 . S
C2052 C2053 1.377 . S
C2053 H2037 0.930 . S
C2053 C2052 1.377 . S
C2053 C2054 1.379 . S
C2054 H2038 0.931 . S
C2054 C2048 1.383 . S
C2054 C2053 1.379 . S
H2055 C2049 0.959 . S
H2056 C2049 0.961 . S
H2057 C2049 0.960 . S
H2058 C2050 0.930 . S
H2059 C2051 0.929 . S
H2060 C2068 0.937 . S
H2061 C2070 0.930 1_455 S
H2062 C2072 0.930 . S
H2063 C2075 0.929 . S
H2064 C2078 0.930 . S
H2065 C2080 0.960 . S
H2066 C2080 0.960 . S
H2067 C2080 0.960 . S
C2068 H2060 0.937 . S
C2068 C2069 1.377 . S
C2068 C2070 1.384 . S
C2069 C2068 1.377 . S
C2069 C2075 1.390 . S
C2070 H2061 0.930 1_655 S
C2070 C2068 1.384 . S
C2070 C2071 1.372 . S
C2071 C2070 1.372 . S
C2071 C2072 1.400 . S
C2071 C2076 1.490 . S
C2072 H2062 0.930 . S
C2072 C2071 1.400 . S
C2072 C2075 1.386 . S
H2073 C2089 0.930 1_655 S
H2074 C2090 0.931 . S
C2075 H2063 0.929 . S
C2075 C2069 1.390 . S
C2075 C2072 1.386 . S
C2076 C2071 1.490 . S
C2076 C2078 1.395 . S
C2076 C2079 1.403 1_655 S
H2077 C2083 0.930 . S
C2078 H2064 0.930 . S
C2078 C2076 1.395 . S
C2078 C2081 1.403 . S
C2079 C2076 1.403 1_455 S
C2079 C2080 1.524 . S
C2079 C2083 1.400 . S
C2080 H2065 0.960 . S
C2080 H2066 0.960 . S
C2080 H2067 0.960 . S
C2080 C2079 1.524 . S
C2081 C2078 1.403 . S
C2081 C2082 1.392 1_655 S
C2081 C2085 1.495 . S
C2082 C2081 1.392 1_455 S
C2082 C2083 1.385 . S
C2082 C2084 1.478 . S
C2083 H2077 0.930 . S
C2083 C2079 1.400 . S
C2083 C2082 1.385 . S
C2084 C2082 1.478 . S
C2084 C2086 1.381 . S
C2084 C2090 1.383 1_455 S
C2085 C2081 1.495 . S
C2085 H2091 0.959 . S
C2085 H2092 0.961 . S
C2085 H2093 0.960 . S
C2086 C2084 1.381 . S
C2086 C2087 1.394 . S
C2086 H2094 0.930 . S
C2087 C2086 1.394 . S
C2087 C2088 1.383 . S
C2087 H2095 0.929 . S
C2088 C2087 1.383 . S
C2088 C2089 1.377 . S
C2089 H2073 0.930 1_455 S
C2089 C2088 1.377 . S
C2089 C2090 1.379 1_455 S
C2090 H2074 0.931 . S
C2090 C2084 1.383 1_655 S
C2090 C2089 1.379 1_655 S
H2091 C2085 0.959 . S
H2092 C2085 0.961 . S
H2093 C2085 0.960 . S
H2094 C2086 0.930 . S
H2095 C2087 0.929 . S
C953 C347 0.277 . S
C972 C52 0.254 . S
C989 C406 0.520 . S
C1008 C111 0.535 . S
C1025 C170 0.280 . S
C1044 C465 0.326 . S
C1061 C229 0.164 . S
C1080 C288 0.146 . S
C1097 C524 0.283 . S
C1116 C819 0.288 . S
C1133 C878 0.521 . S
C1152 C583 0.514 . S
C1169 C937 0.294 . S
C1188 C642 0.291 . S
C1205 C701 0.154 . S
C1224 C760 0.236 . S
C1241 C5 1.525 1_566 S
C1260 C711 1.480 . S
C1277 C770 1.694 . S
C1296 C64 1.782 1_556 S
C1313 C123 1.859 1_556 S
C1332 C829 1.778 . S
C1349 C182 1.607 1_556 S
C1368 C888 1.569 . S
C1385 C241 1.608 . S
C1404 C475 1.542 . S
C1421 C300 1.860 . S
C1440 C534 1.798 . S
C1457 C359 1.781 . S
C1476 C593 1.692 . S
C1493 C418 1.526 1_455 S
C1512 C652 1.437 . S
C1529 C239 1.464 . S
C1548 C477 1.526 1_544 S
C1565 C298 1.687 . S
C1584 C536 1.772 1_554 S
C1601 C357 1.789 . S
C1620 C595 1.858 1_554 S
C1637 C654 1.608 1_554 S
C1656 C416 1.562 . S
C1673 C3 1.555 . S
C1692 C713 1.609 . S
C1709 C772 1.859 . S
C1728 C62 1.783 . S
C1745 C831 1.780 . S
C1764 C121 1.708 . S
C1781 C180 1.470 . S
C1800 C890 1.532 . S
C1817 C505 1.392 . S
C1836 C33 1.383 . S
C1853 C564 1.613 . S
C1872 C92 1.618 . S
C1889 C151 1.940 . S
C1908 C623 1.960 . S
C1925 C682 1.661 . S
C1944 C210 1.675 . S
C1961 C269 1.652 . S
C1980 C741 1.640 . S
C1997 C800 1.933 . S
C2016 C328 1.927 . S
C2033 C859 1.612 . S
C2052 C387 1.629 . S
C2069 C918 1.392 . S
C2088 C446 1.384 . S
