# Generated by pormake.
# Topology snk, (6)-cn, num edge types: 1
# Building blocks:
#     Node 0, Type 0, BuildingBlock: PAMTUU_clean_sbu_0, # of connection points: 6
#     Node 1, Type 0, BuildingBlock: PAMTUU_clean_sbu_0, # of connection points: 6
#     Node 2, Type 0, BuildingBlock: PAMTUU_clean_sbu_0, # of connection points: 6
#     Node 3, Type 0, BuildingBlock: PAMTUU_clean_sbu_0, # of connection points: 6
#     Node 4, Type 0, BuildingBlock: PAMTUU_clean_sbu_0, # of connection points: 6
#     Node 5, Type 0, BuildingBlock: PAMTUU_clean_sbu_0, # of connection points: 6
#     Node 6, Type 0, BuildingBlock: PAMTUU_clean_sbu_0, # of connection points: 6
#     Node 7, Type 0, BuildingBlock: PAMTUU_clean_sbu_0, # of connection points: 6
#     Edge 8, Type (0, 0), BuildingBlock: ZUJKAS_clean_linker_0, # of connection points: 2
#     Edge 9, Type (0, 0), BuildingBlock: ZUJKAS_clean_linker_0, # of connection points: 2
#     Edge 10, Type (0, 0), BuildingBlock: ZUJKAS_clean_linker_0, # of connection points: 2
#     Edge 11, Type (0, 0), BuildingBlock: ZUJKAS_clean_linker_0, # of connection points: 2
#     Edge 12, Type (0, 0), BuildingBlock: ZUJKAS_clean_linker_0, # of connection points: 2
#     Edge 13, Type (0, 0), BuildingBlock: ZUJKAS_clean_linker_0, # of connection points: 2
#     Edge 14, Type (0, 0), BuildingBlock: ZUJKAS_clean_linker_0, # of connection points: 2
#     Edge 15, Type (0, 0), BuildingBlock: ZUJKAS_clean_linker_0, # of connection points: 2
#     Edge 16, Type (0, 0), BuildingBlock: ZUJKAS_clean_linker_0, # of connection points: 2
#     Edge 17, Type (0, 0), BuildingBlock: ZUJKAS_clean_linker_0, # of connection points: 2
#     Edge 18, Type (0, 0), BuildingBlock: ZUJKAS_clean_linker_0, # of connection points: 2
#     Edge 19, Type (0, 0), BuildingBlock: ZUJKAS_clean_linker_0, # of connection points: 2
#     Edge 20, Type (0, 0), BuildingBlock: ZUJKAS_clean_linker_0, # of connection points: 2
#     Edge 21, Type (0, 0), BuildingBlock: ZUJKAS_clean_linker_0, # of connection points: 2
#     Edge 22, Type (0, 0), BuildingBlock: ZUJKAS_clean_linker_0, # of connection points: 2
#     Edge 23, Type (0, 0), BuildingBlock: ZUJKAS_clean_linker_0, # of connection points: 2
#     Edge 24, Type (0, 0), BuildingBlock: ZUJKAS_clean_linker_0, # of connection points: 2
#     Edge 25, Type (0, 0), BuildingBlock: ZUJKAS_clean_linker_0, # of connection points: 2
#     Edge 26, Type (0, 0), BuildingBlock: ZUJKAS_clean_linker_0, # of connection points: 2
#     Edge 27, Type (0, 0), BuildingBlock: ZUJKAS_clean_linker_0, # of connection points: 2
#     Edge 28, Type (0, 0), BuildingBlock: ZUJKAS_clean_linker_0, # of connection points: 2
#     Edge 29, Type (0, 0), BuildingBlock: ZUJKAS_clean_linker_0, # of connection points: 2
#     Edge 30, Type (0, 0), BuildingBlock: ZUJKAS_clean_linker_0, # of connection points: 2
#     Edge 31, Type (0, 0), BuildingBlock: ZUJKAS_clean_linker_0, # of connection points: 2
# Relax obj value: 0.065
# Max RMSD: 0.112
# Mean RMSD: 0.112
data_MOF--net-snk--node1-PAMTUU_clean_sbu_0--edge1-ZUJKAS_clean_linker_0
_symmetry_space_group_name_H-M    P1
_symmetry_Int_Tables_number       1
_symmetry_cell_setting            triclinic
loop_
_symmetry_equiv_pos_as_xyz
'x, y, z'
_cell_length_a     51.440543
_cell_length_b     51.514843
_cell_length_c     29.989301
_cell_angle_alpha  89.961122
_cell_angle_beta   89.951094
_cell_angle_gamma 89.980113
loop_
_atom_site_label
_atom_site_type_symbol
_atom_site_fract_x
_atom_site_fract_y
_atom_site_fract_z
_atom_type_partial_charge
Tb0 Tb 0.98955 0.00815 0.57256 0.0
Tb1 Tb 0.99134 0.97623 0.47597 0.0
C2 C 0.95694 0.02528 0.48892 0.0
C3 C 0.98987 0.02579 0.69412 0.0
C4 C -0.00613 0.01518 0.78634 0.0
C5 C 0.98521 0.03956 0.77115 0.0
C6 C 0.98326 0.04477 0.72554 0.0
C7 C -0.0016 0.00136 0.70883 0.0
C8 C 0.00039 -0.00391 0.75458 0.0
C9 C 0.98754 0.03191 0.64636 0.0
O10 O 0.97108 0.97106 0.58471 0.0
O11 O 0.95763 0.96262 0.51322 0.0
O12 O 0.01041 0.95122 0.52414 0.0
O13 O 0.02247 0.98181 0.57616 0.0
O14 O 0.97078 0.96112 0.42151 0.0
O15 O 0.01232 0.95609 0.42653 0.0
O16 O 0.02457 0.00221 0.47648 0.0
O17 O 0.01012 0.03309 0.52605 0.0
O18 O 0.95689 0.02117 0.53217 0.0
O19 O 0.97332 0.01339 0.46233 0.0
C20 C 0.95596 0.95884 0.55648 0.0
O21 O 0.00858 0.02952 0.62244 0.0
O22 O 0.9673 0.02243 0.62599 0.0
C23 C 0.02465 0.95863 0.55822 0.0
C24 C -0.00555 0.95936 0.35406 0.0
C25 C -0.00297 0.96978 0.26157 0.0
C26 C 0.00372 0.94516 0.27845 0.0
C27 C 0.0024 0.94003 0.32419 0.0
C28 C 0.98832 0.98417 0.33771 0.0
C29 C 0.98957 0.98932 0.29186 0.0
C30 C -0.00821 0.95289 0.40171 0.0
C31 C 0.02589 0.02553 0.4941 0.0
H32 H 0.97958 0.05455 0.79454 0.0
H33 H 0.97648 0.06368 0.71476 0.0
H34 H 0.00357 0.98643 0.68496 0.0
H35 H 0.00734 0.97721 0.76505 0.0
H36 H 0.01002 0.92979 0.25631 0.0
H37 H 0.00732 0.92081 0.33621 0.0
H38 H 0.98215 -0.00061 0.36028 0.0
H39 H 0.98407 0.00842 0.28008 0.0
Tb40 Tb 0.22394 0.7405 0.82432 0.0
Tb41 Tb 0.25604 0.7426 0.72785 0.0
C42 C 0.20701 0.70805 0.74032 0.0
C43 C 0.20631 0.74043 0.94597 0.0
C44 C 0.21686 0.74438 0.03821 0.0
C45 C 0.1931 0.73414 0.023 0.0
C46 C 0.1879 0.73222 0.97738 0.0
C47 C 0.23015 0.75051 0.96069 0.0
C48 C 0.23538 0.75248 1.00644 0.0
C49 C 0.20018 0.73816 0.89819 0.0
O50 O 0.26125 0.72239 0.83638 0.0
O51 O 0.26975 0.70893 0.76495 0.0
O52 O 0.28083 0.76186 0.77607 0.0
O53 O 0.25 0.77365 0.82803 0.0
O54 O 0.27154 0.72222 0.67348 0.0
O55 O 0.27603 0.76377 0.67841 0.0
O56 O 0.2297 0.77555 0.72835 0.0
O57 O 0.19884 0.76097 0.77795 0.0
O58 O 0.21097 0.70794 0.78362 0.0
O59 O 0.21896 0.72448 0.71392 0.0
C60 C 0.27358 0.70731 0.80819 0.0
O61 O 0.20236 0.75923 0.87436 0.0
O62 O 0.20984 0.71806 0.87767 0.0
C63 C 0.27321 0.77607 0.81006 0.0
C64 C 0.27297 0.74585 0.60594 0.0
C65 C 0.2628 0.74823 0.51334 0.0
C66 C 0.28668 0.75691 0.53072 0.0
C67 C 0.2917 0.75567 0.5765 0.0
C68 C 0.24882 0.73777 0.5891 0.0
C69 C 0.2438 0.73892 0.54321 0.0
C70 C 0.27947 0.74329 0.65361 0.0
C71 C 0.20631 0.7767 0.74591 0.0
H72 H 0.17858 0.72727 0.04636 0.0
H73 H 0.16946 0.72424 0.96661 0.0
H74 H 0.24463 0.75691 0.93684 0.0
H75 H 0.25378 0.76066 1.01691 0.0
H76 H 0.30158 0.76466 0.50893 0.0
H77 H 0.31039 0.76212 0.58888 0.0
H78 H 0.23404 0.73016 0.61129 0.0
H79 H 0.22529 0.73187 0.53106 0.0
Tb80 Tb 0.49188 0.97434 0.07162 0.0
Tb81 Tb 0.49196 0.00636 0.9753 0.0
C82 C 0.52599 0.95656 0.99095 0.0
C83 C 0.49443 0.95762 0.19337 0.0
C84 C 0.49782 0.96835 0.28562 0.0
C85 C 0.50881 0.94559 0.26779 0.0
C86 C 0.50706 0.94028 0.22216 0.0
C87 C 0.48392 0.98067 0.21078 0.0
C88 C 0.48551 0.98592 0.25651 0.0
C89 C 0.49178 0.95088 0.14576 0.0
O90 O 0.52518 0.00035 0.07264 0.0
O91 O 0.51189 0.03135 0.02232 0.0
O92 O 0.45928 0.02053 1.01462 0.0
O93 O 0.47378 0.01141 0.08531 0.0
O94 O 0.51204 0.02629 0.92474 0.0
O95 O 0.47039 0.02157 0.92182 0.0
O96 O 0.47292 0.96956 0.96288 0.0
O97 O 0.45798 0.9619 0.03374 0.0
O98 O 0.51044 0.94906 0.02324 0.0
O99 O 0.52509 0.98017 0.97441 0.0
C100 C 0.52693 0.02371 0.05519 0.0
O101 O 0.47089 0.9591 0.12558 0.0
O102 O 0.51243 0.95373 0.12102 0.0
C103 C 0.45836 0.02401 0.05803 0.0
C104 C 0.49268 0.02319 0.8532 0.0
C105 C 0.49461 0.01185 0.76107 0.0
C106 C 0.48171 0.03415 0.7767 0.0
C107 C 0.48079 0.03974 0.82226 0.0
C108 C 0.50556 0.00083 0.838 0.0
C109 C 0.50661 -0.00473 0.79226 0.0
C110 C 0.49109 0.02965 0.90097 0.0
C111 C 0.45688 0.95797 0.99048 0.0
H112 H 0.5182 0.93154 0.2893 0.0
H113 H 0.51527 0.92239 0.2094 0.0
H114 H 0.47425 -0.00552 0.18916 0.0
H115 H 0.47715 0.00378 0.26908 0.0
H116 H 0.47258 0.04752 0.75364 0.0
H117 H 0.47076 0.05708 0.83337 0.0
H118 H 0.51472 0.98769 0.86143 0.0
H119 H 0.51648 0.97781 0.78137 0.0
Tb120 Tb 0.25686 0.24172 0.31739 0.0
Tb121 Tb 0.22465 0.2397 0.22114 0.0
C122 C 0.27316 0.27496 0.23377 0.0
C123 C 0.27435 0.24218 0.43907 0.0
C124 C 0.26333 0.23996 0.53135 0.0
C125 C 0.28731 0.24958 0.51588 0.0
C126 C 0.29272 0.25067 0.47024 0.0
C127 C 0.25038 0.23249 0.45407 0.0
C128 C 0.24494 0.23131 0.49987 0.0
C129 C 0.28055 0.24403 0.39124 0.0
O130 O 0.21936 0.25935 0.32978 0.0
O131 O 0.21075 0.2732 0.25859 0.0
O132 O 0.19999 0.22033 0.26958 0.0
O133 O 0.23121 0.20826 0.32054 0.0
O134 O 0.20884 0.25993 0.16684 0.0
O135 O 0.20496 0.21833 0.17171 0.0
O136 O 0.25128 0.20691 0.22176 0.0
O137 O 0.28224 0.22214 0.27039 0.0
O138 O 0.2694 0.27461 0.27713 0.0
O139 O 0.26133 0.25862 0.20711 0.0
C140 C 0.20698 0.27455 0.30189 0.0
O141 O 0.27808 0.22287 0.36777 0.0
O142 O 0.27124 0.26417 0.37037 0.0
C143 C 0.20782 0.20601 0.30328 0.0
C144 C 0.20796 0.23635 0.09928 0.0
C145 C 0.21886 0.23371 1.00695 0.0
C146 C 0.19467 0.22552 0.02377 0.0
C147 C 0.18929 0.22688 0.06945 0.0
C148 C 0.23234 0.2441 0.08291 0.0
C149 C 0.23771 0.24287 0.03713 0.0
C150 C 0.20125 0.23878 0.14691 0.0
C151 C 0.27483 0.20618 0.23871 0.0
H152 H 0.30206 0.25603 0.53911 0.0
H153 H 0.31133 0.25819 0.45925 0.0
H154 H 0.23587 0.22598 0.43041 0.0
H155 H 0.22621 0.22402 0.5106 0.0
H156 H 0.1796 0.21866 1.0015 0.0
H157 H 0.17034 0.22086 0.08143 0.0
H158 H 0.24711 0.25135 0.10542 0.0
H159 H 0.25665 0.24902 0.02539 0.0
Tb160 Tb 0.72491 0.24196 0.32148 0.0
Tb161 Tb 0.75693 0.24236 0.22483 0.0
C162 C 0.70809 0.20666 0.24129 0.0
C163 C 0.70723 0.24023 0.44319 0.0
C164 C 0.71748 0.23792 0.53571 0.0
C165 C 0.69204 0.23475 0.51934 0.0
C166 C 0.687 0.23592 0.47358 0.0
C167 C 0.73275 0.24297 0.45905 0.0
C168 C 0.73784 0.24183 0.50493 0.0
C169 C 0.70108 0.24248 0.3954 0.0
O170 O 0.7517 0.20935 0.32333 0.0
O171 O 0.78217 0.22275 0.27193 0.0
O172 O 0.77002 0.27555 0.26385 0.0
O173 O 0.76179 0.26063 0.33457 0.0
O174 O 0.77812 0.22289 0.17504 0.0
O175 O 0.77113 0.26411 0.17083 0.0
O176 O 0.71935 0.2597 0.21202 0.0
O177 O 0.71127 0.27496 0.28247 0.0
O178 O 0.70033 0.22158 0.27426 0.0
O179 O 0.7313 0.20884 0.22328 0.0
C180 C 0.77491 0.20774 0.30512 0.0
O181 O 0.70967 0.26318 0.37518 0.0
O182 O 0.70437 0.2217 0.37127 0.0
C183 C 0.77384 0.27643 0.30717 0.0
C184 C 0.7743 0.2412 0.10308 0.0
C185 C 0.76331 0.23777 1.01095 0.0
C186 C 0.78882 0.24224 0.02602 0.0
C187 C 0.79423 0.24392 0.07159 0.0
C188 C 0.74879 0.23664 0.08851 0.0
C189 C 0.74333 0.23495 0.0428 0.0
C190 C 0.78054 0.24374 0.15074 0.0
C191 C 0.70715 0.27546 0.23923 0.0
H192 H 0.67597 0.23124 0.5419 0.0
H193 H 0.6672 0.23365 0.46192 0.0
H194 H 0.74864 0.24632 0.43602 0.0
H195 H 0.75761 0.24457 0.51633 0.0
H196 H 0.80461 0.24494 1.00256 0.0
H197 H 0.81401 0.2476 0.08227 0.0
H198 H 0.73314 0.23448 0.11244 0.0
H199 H 0.72352 0.23125 0.03242 0.0
Tb200 Tb 0.75586 0.74072 0.81424 0.0
Tb201 Tb 0.72354 0.74024 0.71799 0.0
C202 C 0.77303 0.77502 0.73354 0.0
C203 C 0.77338 0.74272 0.93599 0.0
C204 C 0.76258 0.74437 0.02841 0.0
C205 C 0.78838 0.74363 1.01277 0.0
C206 C 0.79369 0.7428 0.96707 0.0
C207 C 0.74758 0.74381 0.95114 0.0
C208 C 0.74222 0.74468 0.99698 0.0
C209 C 0.77963 0.74064 0.8882 0.0
O210 O 0.7297 0.77389 0.81445 0.0
O211 O 0.69837 0.75916 0.7661 0.0
O212 O 0.71015 0.70719 0.75714 0.0
O213 O 0.71909 0.7219 0.82778 0.0
O214 O 0.70268 0.76036 0.66848 0.0
O215 O 0.70882 0.71903 0.66388 0.0
O216 O 0.76054 0.72168 0.70493 0.0
O217 O 0.76939 0.70747 0.77588 0.0
O218 O 0.78083 0.75969 0.7659 0.0
O219 O 0.74942 0.77363 0.71694 0.0
C220 C 0.70602 0.77482 0.79805 0.0
O221 O 0.77138 0.7198 0.8681 0.0
O222 O 0.77598 0.76134 0.86398 0.0
C223 C 0.7068 0.70619 0.8006 0.0
C224 C 0.70619 0.74231 0.59625 0.0
C225 C 0.71708 0.74578 0.50399 0.0
C226 C 0.69128 0.74612 0.51966 0.0
C227 C 0.68593 0.7444 0.56529 0.0
C228 C 0.73201 0.74218 0.58107 0.0
C229 C 0.73741 0.74386 0.53531 0.0
C230 C 0.69987 0.73967 0.64396 0.0
C231 C 0.7729 0.70623 0.73251 0.0
H232 H 0.80454 0.74381 0.03589 0.0
H233 H 0.81373 0.74202 0.95597 0.0
H234 H 0.73163 0.74368 0.92755 0.0
H235 H 0.72213 0.74502 1.00782 0.0
H236 H 0.67513 0.74718 0.49658 0.0
H237 H 0.66587 0.74441 0.57639 0.0
H238 H 0.74793 0.74062 0.60456 0.0
H239 H 0.7575 0.74383 0.5245 0.0
Tb240 Tb 0.49035 0.50656 0.0672 0.0
Tb241 Tb 0.49132 0.47427 0.97085 0.0
C242 C 0.45637 0.52298 0.98458 0.0
C243 C 0.49172 0.52427 0.18872 0.0
C244 C 0.49521 0.51342 0.28096 0.0
C245 C 0.49058 0.53886 0.26571 0.0
C246 C 0.48886 0.54419 0.2201 0.0
C247 C 0.49643 0.49884 0.20346 0.0
C248 C 0.49814 0.49345 0.24921 0.0
C249 C 0.4892 0.53044 0.14097 0.0
O250 O 0.47209 0.46948 0.08028 0.0
O251 O 0.45821 0.46029 1.00926 0.0
O252 O 0.51082 0.44949 1.01884 0.0
O253 O 0.52357 0.48052 0.06955 0.0
O254 O 0.47054 0.45897 0.91674 0.0
O255 O 0.51211 0.45413 0.92121 0.0
O256 O 0.52444 0.50042 0.97072 0.0
O257 O 0.5097 0.53161 1.01932 0.0
O258 O 0.45715 0.51934 0.02795 0.0
O259 O 0.4724 0.51101 0.95744 0.0
C260 C 0.45689 0.45688 0.05266 0.0
O261 O 0.51004 0.52775 0.11666 0.0
O262 O 0.46871 0.52121 0.121 0.0
C263 C 0.52551 0.45718 0.05214 0.0
C264 C 0.49384 0.45694 0.84899 0.0
C265 C 0.49614 0.46735 0.75647 0.0
C266 C 0.49969 0.44197 0.77283 0.0
C267 C 0.49852 0.43686 0.81858 0.0
C268 C 0.49075 0.48241 0.83315 0.0
C269 C 0.4919 0.48757 0.78727 0.0
C270 C 0.49147 0.45068 0.89676 0.0
C271 C 0.52543 0.52399 0.98737 0.0
H272 H 0.48778 0.55463 0.28908 0.0
H273 H 0.48507 0.56391 0.2093 0.0
H274 H 0.49869 0.4832 0.17963 0.0
H275 H 0.50198 0.4737 0.25969 0.0
H276 H 0.50345 0.426 0.75026 0.0
H277 H 0.50105 0.4171 0.83021 0.0
H278 H 0.4871 0.4982 0.85618 0.0
H279 H 0.48887 0.50729 0.77589 0.0
Tb280 Tb -0.0075 0.47647 0.56609 0.0
Tb281 Tb -0.00819 0.50855 0.4694 0.0
C282 C 0.0267 0.45904 0.48478 0.0
C283 C -0.00479 0.45957 0.68792 0.0
C284 C -0.0014 0.47054 0.78009 0.0
C285 C 0.00316 0.4453 0.76395 0.0
C286 C 0.00145 0.4399 0.71835 0.0
C287 C 0.99102 0.48491 0.70358 0.0
C288 C -0.00737 0.49033 0.7493 0.0
C289 C -0.00752 0.45304 0.64033 0.0
O290 O 0.02548 0.50281 0.56692 0.0
O291 O 0.01177 0.53358 0.51645 0.0
O292 O 0.95881 0.52179 0.50877 0.0
O293 O 0.97389 0.51338 0.57931 0.0
O294 O 0.01152 0.52914 0.41912 0.0
O295 O 0.97002 0.52348 0.41603 0.0
O296 O 0.97335 0.47152 0.45676 0.0
O297 O 0.95927 0.46268 0.52784 0.0
O298 O 0.01202 0.45156 0.51831 0.0
O299 O 0.02484 0.48231 0.46703 0.0
C300 C 0.02697 0.52613 0.54926 0.0
O301 O 0.97162 0.46157 0.6205 0.0
O302 O 0.01309 0.45598 0.61553 0.0
C303 C 0.95805 0.5255 0.5521 0.0
C304 C -0.00757 0.52591 0.34764 0.0
C305 C -0.00565 0.51468 0.25546 0.0
C306 C 0.98848 0.53987 0.27057 0.0
C307 C 0.98753 0.54539 0.31617 0.0
C308 C -0.00148 0.50075 0.333 0.0
C309 C -0.00046 0.49519 0.28725 0.0
C310 C 0.99052 0.53221 0.39539 0.0
C311 C 0.95801 0.45911 0.48448 0.0
H312 H 0.00746 0.42952 0.78668 0.0
H313 H 0.00468 0.42021 0.70688 0.0
H314 H 0.98628 0.50041 0.68054 0.0
H315 H 0.9893 0.51003 0.76051 0.0
H316 H 0.9848 0.55543 0.24712 0.0
H317 H 0.98284 0.56492 0.32688 0.0
H318 H 0.00226 0.48542 0.35692 0.0
H319 H 0.0039 0.47555 0.27681 0.0
H320 H 0.05547 0.02051 0.41883 0.0
H321 H 0.08685 0.05142 0.38872 0.0
H322 H 0.07185 0.10322 0.49871 0.0
H323 H 0.0399 0.07266 0.52864 0.0
H324 H 0.07236 0.12859 0.41974 0.0
H325 H 0.15957 0.06594 0.43301 0.0
H326 H 0.13386 0.0511 0.40172 0.0
H327 H 0.12922 0.05804 0.46 0.0
C328 C 0.05893 0.03839 0.43685 0.0
C329 C 0.04527 0.04406 0.47631 0.0
C330 C 0.077 0.05598 0.41967 0.0
C331 C 0.08205 0.07939 0.44193 0.0
C332 C 0.06834 0.08519 0.48116 0.0
H333 H 0.2128 0.18061 0.38289 0.0
H334 H 0.18192 0.15075 0.4175 0.0
C335 C 0.0501 0.06769 0.49821 0.0
C336 C 0.10103 0.09819 0.42349 0.0
H337 H 0.16402 0.10439 0.38927 0.0
C338 C 0.09245 0.12337 0.41333 0.0
C339 C 0.12732 0.09144 0.41577 0.0
C340 C 0.13813 0.06525 0.42861 0.0
C341 C 0.10932 0.14186 0.39477 0.0
C342 C 0.13529 0.13472 0.38512 0.0
C343 C 0.14401 0.10971 0.39617 0.0
C344 C 0.15384 0.15297 0.36394 0.0
C345 C 0.09925 0.16894 0.38637 0.0
C346 C 0.14845 0.16386 0.32204 0.0
C347 C 0.16598 0.18111 0.30227 0.0
C348 C 0.18942 0.18744 0.32376 0.0
C349 C 0.19497 0.1761 0.36536 0.0
C350 C 0.17733 0.15904 0.38524 0.0
H351 H 0.08192 0.17329 0.40723 0.0
H352 H 0.11441 0.18373 0.3933 0.0
H353 H 0.0934 0.17071 0.3509 0.0
H354 H 0.13075 0.15892 0.30447 0.0
H355 H 0.16123 0.18931 0.27002 0.0
H356 H 0.04997 0.96249 0.63807 0.0
H357 H 0.08061 0.93163 0.67063 0.0
H358 H 0.07253 0.88209 0.55557 0.0
H359 H 0.04136 0.91255 0.52314 0.0
H360 H 0.0704 0.85486 0.63287 0.0
H361 H 0.1556 0.92077 0.6344 0.0
H362 H 0.12796 0.93366 0.66347 0.0
H363 H 0.12618 0.92825 0.60429 0.0
C364 C 0.0548 0.9451 0.61953 0.0
C365 C 0.04335 0.94006 0.57784 0.0
C366 C 0.07242 0.92754 0.63813 0.0
C367 C 0.07922 0.90482 0.61513 0.0
C368 C 0.06763 0.89959 0.57376 0.0
H369 H 0.2113 0.80596 0.67036 0.0
H370 H 0.17991 0.83645 0.63908 0.0
C371 C 0.04984 0.91703 0.55528 0.0
C372 C 0.09805 0.88622 0.63454 0.0
H373 H 0.16018 0.88083 0.67333 0.0
C374 C 0.09006 0.86049 0.64161 0.0
C375 C 0.12379 0.89355 0.64535 0.0
C376 C 0.13402 0.92049 0.63611 0.0
C377 C 0.10704 0.84192 0.65961 0.0
C378 C 0.13249 0.84949 0.67184 0.0
C379 C 0.14056 0.87515 0.66437 0.0
C380 C 0.15135 0.83093 0.69127 0.0
C381 C 0.09773 0.81428 0.66436 0.0
C382 C 0.14586 0.81793 0.73133 0.0
C383 C 0.1637 0.80029 0.74918 0.0
C384 C 0.18753 0.79565 0.7276 0.0
C385 C 0.19316 0.8091 0.68792 0.0
C386 C 0.17523 0.82654 0.66994 0.0
H387 H 0.08079 0.81026 0.64246 0.0
H388 H 0.11345 0.80028 0.65617 0.0
H389 H 0.09158 0.81085 0.69934 0.0
H390 H 0.12781 0.8215 0.74892 0.0
H391 H 0.15886 0.79044 0.78 0.0
H392 H 0.31928 0.79295 0.77488 0.0
H393 H 0.34965 0.82427 0.80722 0.0
H394 H 0.29937 0.83338 0.92118 0.0
H395 H 0.26877 0.80215 0.88921 0.0
H396 H 0.33557 0.8788 0.83684 0.0
H397 H 0.3748 0.81452 0.97019 0.0
H398 H 0.35959 0.80184 0.92048 0.0
H399 H 0.34003 0.81592 0.96367 0.0
C400 C 0.31467 0.80154 0.80688 0.0
C401 C 0.2916 0.79503 0.82948 0.0
C402 C 0.33202 0.81945 0.82521 0.0
C403 C 0.32676 0.8309 0.86663 0.0
C404 C 0.3038 0.82453 0.88931 0.0
H405 H 0.41606 0.93547 0.03457 0.0
H406 H 0.38367 0.90556 1.00427 0.0
C407 C 0.28632 0.80677 0.87087 0.0
C408 C 0.34519 0.84982 0.8858 0.0
H409 H 0.38994 0.85768 0.96857 0.0
C410 C 0.3475 0.87426 0.86562 0.0
C411 C 0.36048 0.84377 0.92349 0.0
C412 C 0.35885 0.81756 0.94578 0.0
C413 C 0.36467 0.89301 0.88242 0.0
C414 C 0.38043 0.88681 0.91964 0.0
C415 C 0.3779 0.86238 0.94001 0.0
C416 C 0.39989 0.90525 0.93766 0.0
C417 C 0.36535 0.91944 0.8607 0.0
C418 C 0.41994 0.91474 0.91041 0.0
C419 C 0.43835 0.93199 0.9275 0.0
C420 C 0.4373 0.93977 0.97241 0.0
C421 C 0.41743 0.92989 0.99983 0.0
C422 C 0.3989 0.9128 0.98258 0.0
H423 H 0.34707 0.92357 0.84229 0.0
H424 H 0.36843 0.935 0.88575 0.0
H425 H 0.3816 0.92011 0.83636 0.0
H426 H 0.42151 0.90863 0.87597 0.0
H427 H 0.45355 0.939 0.90557 0.0
H428 H 0.4483 0.03407 0.14598 0.0
H429 H 0.41694 0.06493 0.17664 0.0
H430 H 0.39427 0.08719 0.04363 0.0
H431 H 0.42566 0.05649 1.01246 0.0
H432 H 0.4044 0.12952 0.10361 0.0
H433 H 0.33657 0.05636 0.17471 0.0
H434 H 0.37011 0.05249 0.19015 0.0
H435 H 0.3606 0.04832 0.133 0.0
C436 C 0.43665 0.04548 0.12316 0.0
C437 C 0.43944 0.04272 0.07671 0.0
C438 C 0.41865 0.06301 0.14079 0.0
C439 C 0.40312 0.07805 0.11236 0.0
C440 C 0.40604 0.07562 0.06606 0.0
H441 H 0.26628 0.16867 0.17584 0.0
H442 H 0.29777 0.13798 0.14505 0.0
C443 C 0.42395 0.05803 0.04836 0.0
C444 C 0.38406 0.09662 0.1309 0.0
H445 H 0.32836 0.10044 0.19248 0.0
C446 C 0.38775 0.12321 0.12301 0.0
C447 C 0.36227 0.08822 0.15577 0.0
C448 C 0.35691 0.05979 0.16371 0.0
C449 C 0.37033 0.14172 0.13992 0.0
C450 C 0.34887 0.13335 0.16565 0.0
C451 C 0.34499 0.10674 0.17302 0.0
C452 C 0.32997 0.15193 0.18466 0.0
C453 C 0.37479 0.17005 0.12962 0.0
C454 C 0.33765 0.16969 0.2175 0.0
C455 C 0.31972 0.18725 0.23529 0.0
C456 C 0.29376 0.18729 0.22055 0.0
C457 C 0.28612 0.16924 0.1879 0.0
C458 C 0.30405 0.15165 0.17027 0.0
H459 H 0.38867 0.17275 0.1016 0.0
H460 H 0.3562 0.17982 0.12106 0.0
H461 H 0.38295 0.17977 0.1595 0.0
H462 H 0.35751 0.16991 0.22949 0.0
H463 H 0.32626 0.20082 0.26046 0.0
H464 H 0.92393 0.92683 0.50871 0.0
H465 H 0.89195 0.89601 0.53775 0.0
H466 H 0.91224 0.91747 0.67222 0.0
H467 H 0.94418 0.94843 0.64368 0.0
H468 H 0.90137 0.85336 0.59743 0.0
H469 H 0.83187 0.92551 0.6666 0.0
H470 H 0.85647 0.93399 0.62613 0.0
H471 H 0.86509 0.92966 0.68368 0.0
C472 C 0.92155 0.9251 0.54447 0.0
C473 C 0.93656 0.94018 0.57387 0.0
C474 C 0.9033 0.90745 0.56096 0.0
C475 C 0.89957 0.90474 0.60704 0.0
C476 C 0.91458 0.91961 0.6365 0.0
H477 H 0.82439 0.78151 0.75456 0.0
H478 H 0.85491 0.81276 0.72258 0.0
C479 C 0.93291 0.93719 0.62009 0.0
C480 C 0.88036 0.88593 0.62436 0.0
H481 H 0.82419 0.88128 0.6845 0.0
C482 C 0.88444 0.85942 0.61635 0.0
C483 C 0.8582 0.89401 0.64858 0.0
C484 C 0.85242 0.92235 0.65653 0.0
C485 C 0.86714 0.84065 0.63277 0.0
C486 C 0.8454 0.84868 0.65811 0.0
C487 C 0.84103 0.87523 0.66534 0.0
C488 C 0.82692 0.82979 0.6774 0.0
C489 C 0.8721 0.8124 0.62257 0.0
C490 C 0.80099 0.82939 0.6631 0.0
C491 C 0.78345 0.81159 0.6813 0.0
C492 C 0.79153 0.79402 0.71447 0.0
C493 C 0.81752 0.79471 0.72903 0.0
C494 C 0.83504 0.81246 0.71066 0.0
H495 H 0.88604 0.80994 0.59457 0.0
H496 H 0.88043 0.80284 0.65248 0.0
H497 H 0.85369 0.8023 0.61403 0.0
H498 H 0.79437 0.84274 0.63757 0.0
H499 H 0.76359 0.81165 0.66937 0.0
H500 H 0.95575 0.04438 0.40381 0.0
H501 H 0.92534 0.07603 0.37274 0.0
H502 H 0.88512 0.07971 0.49885 0.0
H503 H 0.9158 0.0486 0.53058 0.0
H504 H 0.87304 0.07328 0.36261 0.0
H505 H 0.89796 0.15565 0.47355 0.0
H506 H 0.91769 0.12675 0.47001 0.0
H507 H 0.88865 0.12697 0.50354 0.0
C508 C 0.9405 0.05199 0.42503 0.0
C509 C 0.93832 0.0441 0.4698 0.0
C510 C 0.92314 0.07007 0.4072 0.0
C511 C 0.90328 0.08059 0.43372 0.0
C512 C 0.90073 0.07238 0.47813 0.0
H513 H 0.77112 0.18009 0.38277 0.0
H514 H 0.80245 0.14898 0.41303 0.0
C515 C 0.9182 0.05446 0.49613 0.0
C516 C 0.88482 0.09964 0.41455 0.0
H517 H 0.86006 0.16062 0.42868 0.0
C518 C 0.87033 0.09243 0.37686 0.0
C519 C 0.88138 0.12466 0.43316 0.0
C520 C 0.89743 0.1341 0.47202 0.0
C521 C 0.85213 0.10942 0.35782 0.0
C522 C 0.84843 0.13418 0.37692 0.0
C523 C 0.86293 0.14149 0.4144 0.0
C524 C 0.82956 0.15285 0.35831 0.0
C525 C 0.83664 0.10071 0.31785 0.0
C526 C 0.83467 0.16537 0.31775 0.0
C527 C 0.81693 0.18326 0.30044 0.0
C528 C 0.79371 0.1888 0.32339 0.0
C529 C 0.78872 0.17616 0.36411 0.0
C530 C 0.80659 0.15844 0.38153 0.0
H531 H 0.83899 0.07963 0.31119 0.0
H532 H 0.81567 0.10499 0.32284 0.0
H533 H 0.84321 0.1116 0.28796 0.0
H534 H 0.85246 0.16139 0.29962 0.0
H535 H 0.82137 0.19263 0.26901 0.0
H536 H 0.66195 0.19035 0.277 0.0
H537 H 0.63178 0.15839 0.24628 0.0
H538 H 0.68208 0.14789 0.13256 0.0
H539 H 0.71266 0.17934 0.16347 0.0
H540 H 0.60495 0.15916 0.169 0.0
H541 H 0.67049 0.07375 0.17188 0.0
H542 H 0.67806 0.10357 0.2006 0.0
H543 H 0.68375 0.10073 0.14158 0.0
C544 C 0.66668 0.18115 0.24556 0.0
C545 C 0.68981 0.18726 0.22285 0.0
C546 C 0.6494 0.16289 0.22805 0.0
C547 C 0.65489 0.15043 0.18752 0.0
C548 C 0.67778 0.15676 0.16446 0.0
H549 H 0.54172 0.07085 0.02153 0.0
H550 H 0.5727 0.10154 0.05362 0.0
C551 C 0.69518 0.17485 0.1821 0.0
C552 C 0.63626 0.13139 0.16879 0.0
H553 H 0.63084 0.06897 0.13177 0.0
C554 C 0.61057 0.1394 0.16104 0.0
C555 C 0.64354 0.10552 0.159 0.0
C556 C 0.67038 0.09526 0.16909 0.0
C557 C 0.59203 0.12236 0.14316 0.0
C558 C 0.59959 0.0968 0.1317 0.0
C559 C 0.62517 0.08867 0.14009 0.0
C560 C 0.58114 0.07803 0.11169 0.0
C561 C 0.56444 0.13177 0.13758 0.0
C562 C 0.57625 0.05424 0.1329 0.0
C563 C 0.55883 0.0365 0.11435 0.0
C564 C 0.54592 0.04222 0.07419 0.0
C565 C 0.55113 0.06594 0.05271 0.0
C566 C 0.56872 0.08359 0.07114 0.0
H567 H 0.56026 0.14873 0.15931 0.0
H568 H 0.56141 0.1379 0.10249 0.0
H569 H 0.55027 0.11616 0.14541 0.0
H570 H 0.58573 0.04952 0.16412 0.0
H571 H 0.55526 0.01843 0.13181 0.0
H572 H 0.71601 0.81482 0.85541 0.0
H573 H 0.68486 0.84518 0.8879 0.0
H574 H 0.62241 0.80717 0.8177 0.0
H575 H 0.65352 0.7771 0.78408 0.0
H576 H 0.61867 0.85928 0.81213 0.0
H577 H 0.63447 0.83039 0.98804 0.0
H578 H 0.66388 0.84018 0.96062 0.0
H579 H 0.64686 0.81171 0.94179 0.0
C580 C 0.69565 0.81286 0.8469 0.0
C581 C 0.68723 0.79345 0.81729 0.0
C582 C 0.67784 0.83014 0.86576 0.0
C583 C 0.65125 0.8281 0.85594 0.0
C584 C 0.64284 0.80899 0.82593 0.0
H585 H 0.5282 0.90419 1.00566 0.0
H586 H 0.55785 0.87285 0.97164 0.0
C587 C 0.66065 0.79182 0.80674 0.0
C588 C 0.63227 0.84623 0.87624 0.0
H589 H 0.60995 0.86903 0.97601 0.0
C590 C 0.61665 0.86133 0.84796 0.0
C591 C 0.62938 0.84855 0.923 0.0
C592 C 0.64434 0.83166 0.95514 0.0
C593 C 0.59855 0.87908 0.86516 0.0
C594 C 0.59651 0.88226 0.9119 0.0
C595 C 0.61177 0.86679 0.94018 0.0
C596 C 0.57854 0.90138 0.93223 0.0
C597 C 0.58148 0.89388 0.83307 0.0
C598 C 0.58056 0.92787 0.92184 0.0
C599 C 0.56351 0.9458 0.94094 0.0
C600 C 0.54436 0.93763 0.97136 0.0
C601 C 0.54273 0.91114 0.98239 0.0
C602 C 0.55965 0.8932 0.96297 0.0
H603 H 0.57996 0.88382 0.80041 0.0
H604 H 0.5616 0.89656 0.84678 0.0
H605 H 0.59005 0.91332 0.82698 0.0
H606 H 0.59543 0.93471 0.89912 0.0
H607 H 0.56545 0.96609 0.93199 0.0
H608 H 0.53109 0.57551 1.00778 0.0
H609 H 0.56195 0.60633 0.97537 0.0
H610 H 0.59328 0.54579 0.89191 0.0
H611 H 0.56264 0.51476 0.92411 0.0
H612 H 0.63122 0.57668 0.9379 0.0
H613 H 0.55847 0.63616 0.84647 0.0
H614 H 0.55169 0.63098 0.90462 0.0
H615 H 0.55145 0.60392 0.86691 0.0
C616 C 0.54452 0.56871 0.98253 0.0
C617 C 0.54432 0.54266 0.96846 0.0
C618 C 0.56205 0.58639 0.96392 0.0
C619 C 0.57962 0.57835 0.93092 0.0
C620 C 0.57975 0.55235 0.91722 0.0
H621 H 0.67465 0.67297 0.75548 0.0
H622 H 0.64419 0.64149 0.7872 0.0
C623 C 0.56219 0.53467 0.93567 0.0
C624 C 0.59816 0.59697 0.91103 0.0
H625 H 0.60179 0.6518 0.84737 0.0
C626 C 0.62484 0.5931 0.91806 0.0
C627 C 0.58969 0.61815 0.88478 0.0
C628 C 0.56128 0.62255 0.87481 0.0
C629 C 0.64334 0.61015 0.90004 0.0
C630 C 0.63483 0.63169 0.87472 0.0
C631 C 0.60818 0.63534 0.86709 0.0
C632 C 0.65335 0.65067 0.85577 0.0
C633 C 0.67183 0.60484 0.90773 0.0
C634 C 0.66834 0.66637 0.88393 0.0
C635 C 0.68572 0.6844 0.866 0.0
C636 C 0.68838 0.68706 0.81951 0.0
C637 C 0.67317 0.67136 0.7914 0.0
C638 C 0.65572 0.6534 0.80942 0.0
H639 H 0.6753 0.58458 0.919 0.0
H640 H 0.68323 0.60836 0.87685 0.0
H641 H 0.6792 0.61815 0.93391 0.0
H642 H 0.66646 0.6648 0.91981 0.0
H643 H 0.69705 0.69622 0.88864 0.0
H644 H 0.6833 0.31592 0.28204 0.0
H645 H 0.65207 0.34683 0.25066 0.0
H646 H 0.6568 0.30819 0.12348 0.0
H647 H 0.6881 0.27727 0.15424 0.0
H648 H 0.66156 0.37923 0.16656 0.0
H649 H 0.57649 0.31252 0.16005 0.0
H650 H 0.60345 0.30742 0.19767 0.0
H651 H 0.60705 0.30037 0.13944 0.0
C652 C 0.67766 0.31393 0.24742 0.0
C653 C 0.68816 0.29411 0.22065 0.0
C654 C 0.65987 0.33162 0.2296 0.0
C655 C 0.65208 0.32957 0.18497 0.0
C656 C 0.66247 0.30987 0.15814 0.0
H657 H 0.54185 0.41083 1.01757 0.0
H658 H 0.57321 0.38051 0.04985 0.0
C659 C 0.6804 0.2923 0.17578 0.0
C660 C 0.63342 0.34835 0.16606 0.0
H661 H 0.57123 0.35403 0.12799 0.0
C662 C 0.64176 0.37384 0.15824 0.0
C663 C 0.60777 0.34104 0.15507 0.0
C664 C 0.59794 0.3139 0.16363 0.0
C665 C 0.62513 0.39226 0.13886 0.0
C666 C 0.59931 0.38507 0.12822 0.0
C667 C 0.59102 0.35951 0.1362 0.0
C668 C 0.58057 0.4037 0.10865 0.0
C669 C 0.63562 0.419 0.12887 0.0
C670 C 0.57409 0.42666 0.13125 0.0
C671 C 0.55636 0.44413 0.11272 0.0
C672 C 0.54446 0.43877 0.07153 0.0
C673 C 0.55067 0.41555 0.04932 0.0
C674 C 0.56858 0.3982 0.06772 0.0
H675 H 0.65719 0.41902 0.12689 0.0
H676 H 0.62773 0.42661 0.09698 0.0
H677 H 0.62985 0.43244 0.15602 0.0
H678 H 0.58256 0.43096 0.16345 0.0
H679 H 0.55175 0.46167 0.131 0.0
H680 H 0.92484 0.42747 0.53094 0.0
H681 H 0.8938 0.39618 0.50063 0.0
H682 H 0.91656 0.41731 0.36703 0.0
H683 H 0.94792 0.44832 0.39686 0.0
H684 H 0.85188 0.4048 0.44422 0.0
H685 H 0.92355 0.33844 0.36576 0.0
H686 H 0.93277 0.36291 0.40579 0.0
H687 H 0.92677 0.37169 0.34868 0.0
C688 C 0.92334 0.42542 0.4951 0.0
C689 C 0.93899 0.44032 0.46635 0.0
C690 C 0.90557 0.40754 0.47786 0.0
C691 C 0.90319 0.40414 0.43163 0.0
C692 C 0.91851 0.41921 0.40284 0.0
H693 H 0.80479 0.31047 0.26125 0.0
H694 H 0.83559 0.34185 0.29205 0.0
C695 C 0.93633 0.43704 0.42 0.0
C696 C 0.88426 0.38524 0.41351 0.0
H697 H 0.87909 0.3311 0.34849 0.0
C698 C 0.85781 0.3886 0.42349 0.0
C699 C 0.89211 0.36415 0.38646 0.0
C700 C 0.92036 0.35887 0.37632 0.0
C701 C 0.8389 0.37168 0.40644 0.0
C702 C 0.84675 0.35069 0.37921 0.0
C703 C 0.87318 0.3473 0.36927 0.0
C704 C 0.82781 0.33192 0.36086 0.0
C705 C 0.81065 0.37667 0.41693 0.0
C706 C 0.81347 0.31579 0.38942 0.0
C707 C 0.79588 0.29782 0.37199 0.0
C708 C 0.79238 0.29559 0.32561 0.0
C709 C 0.80692 0.31172 0.29711 0.0
C710 C 0.82455 0.32965 0.31461 0.0
H711 H 0.8074 0.39676 0.42923 0.0
H712 H 0.79834 0.37346 0.38704 0.0
H713 H 0.80418 0.36299 0.44329 0.0
H714 H 0.81605 0.31696 0.42521 0.0
H715 H 0.78509 0.28565 0.39493 0.0
H716 H 0.78388 0.69643 0.64481 0.0
H717 H 0.81492 0.66504 0.61482 0.0
H718 H 0.83575 0.64198 0.74835 0.0
H719 H 0.8045 0.673 0.77878 0.0
H720 H 0.86824 0.66263 0.62867 0.0
H721 H 0.8199 0.57269 0.68821 0.0
H722 H 0.80371 0.60378 0.68745 0.0
H723 H 0.82624 0.59603 0.73129 0.0
C724 C 0.79495 0.68461 0.66788 0.0
C725 C 0.79159 0.68715 0.71424 0.0
C726 C 0.81269 0.66669 0.65064 0.0
C727 C 0.82732 0.65094 0.67935 0.0
C728 C 0.82422 0.65357 0.72561 0.0
H729 H 0.94876 0.53648 0.63999 0.0
H730 H 0.91734 0.56736 0.67051 0.0
C731 C 0.80644 0.67142 0.74292 0.0
C732 C 0.84638 0.63228 0.66086 0.0
H733 H 0.86211 0.56793 0.65712 0.0
C734 C 0.86685 0.64191 0.63468 0.0
C735 C 0.84449 0.60528 0.66887 0.0
C736 C 0.82228 0.59374 0.69514 0.0
C737 C 0.88576 0.62526 0.61681 0.0
C738 C 0.88389 0.59829 0.6249 0.0
C739 C 0.86346 0.58865 0.65112 0.0
C740 C 0.9029 0.57971 0.60619 0.0
C741 C 0.90785 0.63669 0.59012 0.0
C742 C 0.90491 0.57627 0.55994 0.0
C743 C 0.9228 0.55863 0.54233 0.0
C744 C 0.93896 0.54406 0.57073 0.0
C745 C 0.9367 0.54744 0.61714 0.0
C746 C 0.91874 0.56504 0.63468 0.0
H747 H 0.90984 0.65791 0.59576 0.0
H748 H 0.92654 0.62711 0.59868 0.0
H749 H 0.90415 0.63352 0.55408 0.0
H750 H 0.89252 0.58713 0.53747 0.0
H751 H 0.92395 0.55646 0.50647 0.0
H752 H 0.30379 0.30975 0.27835 0.0
H753 H 0.33447 0.34088 0.24639 0.0
H754 H 0.31523 0.3143 0.11419 0.0
H755 H 0.28436 0.28321 0.14564 0.0
H756 H 0.37807 0.32931 0.1903 0.0
H757 H 0.30643 0.39416 0.10747 0.0
H758 H 0.29735 0.37139 0.15058 0.0
H759 H 0.30326 0.36021 0.09477 0.0
C760 C 0.30595 0.31058 0.24245 0.0
C761 C 0.29154 0.29403 0.21455 0.0
C762 C 0.32352 0.32836 0.22429 0.0
C763 C 0.32684 0.33006 0.17798 0.0
C764 C 0.31259 0.31356 0.15 0.0
H765 H 0.4241 0.42483 1.00644 0.0
H766 H 0.3931 0.39355 0.037 0.0
C767 C 0.29506 0.29571 0.1681 0.0
C768 C 0.34577 0.34864 0.15903 0.0
H769 H 0.35092 0.40233 0.0929 0.0
C770 C 0.37218 0.34534 0.16912 0.0
C771 C 0.33793 0.3694 0.13129 0.0
C772 C 0.30969 0.37424 0.12057 0.0
C773 C 0.39111 0.36212 0.15167 0.0
C774 C 0.38327 0.38304 0.12419 0.0
C775 C 0.35684 0.38626 0.11398 0.0
C776 C 0.40218 0.40191 0.10593 0.0
C777 C 0.41935 0.35698 0.16204 0.0
C778 C 0.4173 0.41719 0.13462 0.0
C779 C 0.4351 0.43502 0.11733 0.0
C780 C 0.43793 0.43807 0.07095 0.0
C781 C 0.42247 0.42296 0.04231 0.0
C782 C 0.40472 0.40508 0.05968 0.0
H783 H 0.42257 0.33661 0.17295 0.0
H784 H 0.43183 0.36092 0.13257 0.0
H785 H 0.42563 0.36995 0.18951 0.0
H786 H 0.41521 0.41546 0.17044 0.0
H787 H 0.44654 0.44647 0.14037 0.0
H788 H 0.422 0.55369 0.03011 0.0
H789 H 0.39066 0.58438 0.9991 0.0
H790 H 0.41558 0.56462 0.86605 0.0
H791 H 0.44731 0.53411 0.89667 0.0
H792 H 0.41187 0.61775 0.88043 0.0
H793 H 0.32227 0.56743 0.93672 0.0
H794 H 0.345 0.57391 0.98072 0.0
H795 H 0.35374 0.55191 0.93665 0.0
C796 C 0.42077 0.55574 0.99423 0.0
C797 C 0.43712 0.54135 0.96588 0.0
C798 C 0.40273 0.5732 0.97657 0.0
C799 C 0.40052 0.57643 0.93029 0.0
C800 C 0.4169 0.56227 0.90188 0.0
H801 H 0.30478 0.67441 0.76043 0.0
H802 H 0.33583 0.64271 0.78949 0.0
C803 C 0.43501 0.54484 0.91948 0.0
C804 C 0.38164 0.59518 0.91154 0.0
H805 H 0.31701 0.61004 0.90748 0.0
C806 C 0.39111 0.61599 0.88606 0.0
C807 C 0.35459 0.5928 0.91902 0.0
C808 C 0.34322 0.57018 0.94441 0.0
C809 C 0.37426 0.63485 0.86861 0.0
C810 C 0.34725 0.63258 0.87643 0.0
C811 C 0.33776 0.61171 0.90172 0.0
C812 C 0.32849 0.65175 0.8588 0.0
C813 C 0.3855 0.65737 0.84282 0.0
C814 C 0.31376 0.66694 0.88823 0.0
C815 C 0.29595 0.68504 0.8718 0.0
C816 C 0.29242 0.68811 0.82558 0.0
C817 C 0.30707 0.67263 0.7962 0.0
C818 C 0.32492 0.65458 0.8127 0.0
H819 H 0.40676 0.6594 0.84835 0.0
H820 H 0.38222 0.65422 0.80667 0.0
H821 H 0.37582 0.67583 0.85234 0.0
H822 H 0.31619 0.66491 0.92395 0.0
H823 H 0.28494 0.69657 0.89539 0.0
H824 H 0.18802 0.70736 0.6552 0.0
H825 H 0.15683 0.6769 0.62317 0.0
H826 H 0.15323 0.63566 0.74825 0.0
H827 H 0.18388 0.66644 0.78098 0.0
H828 H 0.16037 0.6251 0.61135 0.0
H829 H 0.07714 0.64714 0.7227 0.0
H830 H 0.10576 0.66733 0.72023 0.0
H831 H 0.1059 0.63785 0.75249 0.0
C832 C 0.18052 0.69189 0.67602 0.0
C833 C 0.18832 0.68944 0.72078 0.0
C834 C 0.16269 0.67449 0.65762 0.0
C835 C 0.15234 0.65428 0.68353 0.0
C836 C 0.16042 0.65151 0.72798 0.0
H837 H 0.05473 0.52165 0.62662 0.0
H838 H 0.08541 0.5529 0.65816 0.0
C839 C 0.17809 0.66904 0.74656 0.0
C840 C 0.13364 0.63573 0.6636 0.0
H841 H 0.07289 0.60992 0.67613 0.0
C842 C 0.14118 0.62191 0.62535 0.0
C843 C 0.10856 0.63166 0.68184 0.0
C844 C 0.09873 0.64696 0.7213 0.0
C845 C 0.1245 0.6038 0.60534 0.0
C846 C 0.09969 0.59948 0.62404 0.0
C847 C 0.09205 0.61328 0.66213 0.0
C848 C 0.08134 0.58062 0.60448 0.0
C849 C 0.13359 0.58905 0.56478 0.0
C850 C 0.06885 0.58606 0.56401 0.0
C851 C 0.05118 0.56834 0.54595 0.0
C852 C 0.04585 0.54483 0.56802 0.0
C853 C 0.0585 0.53948 0.60859 0.0
C854 C 0.07598 0.55731 0.62677 0.0
H855 H 0.15469 0.5918 0.55838 0.0
H856 H 0.12962 0.56799 0.56881 0.0
H857 H 0.12268 0.5959 0.5351 0.0
H858 H 0.07264 0.6041 0.54659 0.0
H859 H 0.04178 0.57306 0.51468 0.0
H860 H 0.18346 0.3147 0.25763 0.0
H861 H 0.15339 0.34689 0.28832 0.0
H862 H 0.15751 0.30941 0.41679 0.0
H863 H 0.18802 0.27761 0.38682 0.0
H864 H 0.10568 0.34087 0.32577 0.0
H865 H 0.17333 0.38378 0.44916 0.0
H866 H 0.18418 0.3623 0.40543 0.0
H867 H 0.16982 0.34934 0.45546 0.0
C868 C 0.17803 0.31335 0.29246 0.0
C869 C 0.18831 0.29372 0.31988 0.0
C870 C 0.16085 0.33176 0.30993 0.0
C871 C 0.15363 0.33085 0.35504 0.0
C872 C 0.16339 0.31092 0.3822 0.0
H873 H 0.04269 0.41263 0.51969 0.0
H874 H 0.0734 0.38171 0.48696 0.0
C875 C 0.18072 0.29265 0.3649 0.0
C876 C 0.13546 0.3504 0.37352 0.0
H877 H 0.12865 0.39557 0.45606 0.0
C878 C 0.11077 0.35297 0.35403 0.0
C879 C 0.14219 0.36623 0.41032 0.0
C880 C 0.16891 0.3655 0.43105 0.0
C881 C 0.09244 0.37055 0.37102 0.0
C882 C 0.09903 0.38591 0.4083 0.0
C883 C 0.12371 0.38355 0.42762 0.0
C884 C 0.0805 0.40461 0.42775 0.0
C885 C 0.06596 0.37232 0.34965 0.0
C886 C 0.07462 0.42774 0.4053 0.0
C887 C 0.05725 0.44553 0.42397 0.0
C888 C 0.04539 0.44039 0.46535 0.0
C889 C 0.0514 0.41714 0.48772 0.0
C890 C 0.06895 0.39948 0.46916 0.0
H891 H 0.06262 0.35651 0.32515 0.0
H892 H 0.05051 0.37152 0.37551 0.0
H893 H 0.06415 0.39121 0.33208 0.0
H894 H 0.08356 0.43205 0.37341 0.0
H895 H 0.05298 0.4632 0.40578 0.0
H896 H 0.01136 0.04775 0.8521 0.0
H897 H 0.01295 0.03967 0.93238 0.0
H898 H 0.98265 0.9626 0.9117 0.0
H899 H 0.98073 0.97059 0.83131 0.0
H900 H 0.97174 0.0273 0.98912 0.0
H901 H 0.04644 0.94952 0.99028 0.0
H902 H 0.04104 0.97024 0.94259 0.0
H903 H 0.01953 0.9435 0.95359 0.0
C904 C 0.00495 0.02908 0.86456 0.0
C905 C -0.00411 0.00982 0.83512 0.0
C906 C 0.006 0.02446 0.91048 0.0
C907 C -0.00178 0.00044 0.92804 0.0
C908 C 0.98927 0.98111 0.89884 0.0
H909 H 0.98143 0.93717 0.1945 0.0
H910 H 0.98201 0.94517 0.11419 0.0
C911 C 0.9882 0.98571 0.85284 0.0
C912 C -0.00141 -0.00398 0.97703 0.0
H913 H 0.02438 0.95744 0.05852 0.0
C914 C 0.98336 0.01212 1.00435 0.0
C915 C 0.01373 0.97618 0.99683 0.0
C916 C 0.03131 0.95899 0.96943 0.0
C917 C 0.98245 0.00861 0.0508 0.0
C918 C -0.00246 0.98873 0.07059 0.0
C919 C 0.01282 0.97266 0.0433 0.0
C920 C -0.00253 0.98407 0.11951 0.0
C921 C 0.96484 0.02578 0.0782 0.0
C922 C 0.00627 0.00318 0.14925 0.0
C923 C 0.00613 -0.00138 0.1953 0.0
C924 C -0.00268 0.97477 0.21254 0.0
C925 C 0.9887 0.95562 0.18249 0.0
C926 C 0.98888 0.96019 0.13652 0.0
H927 H 0.94999 0.03562 0.05726 0.0
H928 H 0.95476 0.01441 0.1045 0.0
H929 H 0.97667 0.04098 0.09476 0.0
H930 H 0.01348 0.02156 0.13682 0.0
H931 H 0.0133 0.01364 0.21732 0.0
H932 H 0.21779 0.76058 0.46861 0.0
H933 H 0.21021 0.75996 0.388 0.0
H934 H 0.28967 0.73654 0.3662 0.0
H935 H 0.29717 0.73613 0.44655 0.0
H936 H 0.23472 0.78822 0.32093 0.0
H937 H 0.24945 0.6826 0.29514 0.0
H938 H 0.24491 0.69662 0.34974 0.0
H939 H 0.27608 0.69836 0.32268 0.0
C940 C 0.23358 0.75497 0.44673 0.0
C941 C 0.25808 0.74832 0.46424 0.0
C942 C 0.22925 0.7548 0.40062 0.0
C943 C 0.24925 0.74783 0.37106 0.0
C944 C 0.27379 0.74151 0.38835 0.0
H945 H 0.26251 0.73432 0.0825 0.0
H946 H 0.27066 0.73663 0.16284 0.0
C947 C 0.27813 0.74162 0.43438 0.0
C948 C 0.24463 0.74763 0.32212 0.0
H949 H 0.24628 0.70863 0.23001 0.0
C950 C 0.23711 0.7708 0.30106 0.0
C951 C 0.24783 0.72489 0.29619 0.0
C952 C 0.25477 0.69914 0.31707 0.0
C953 C 0.23317 0.77196 0.25471 0.0
C954 C 0.2364 0.74923 0.22879 0.0
C955 C 0.24391 0.72606 0.24986 0.0
C956 C 0.23167 0.74889 0.17988 0.0
C957 C 0.22613 0.79767 0.23381 0.0
C958 C 0.20702 0.75492 0.16271 0.0
C959 C 0.20236 0.75381 0.1168 0.0
C960 C 0.22219 0.74642 0.08699 0.0
C961 C 0.24689 0.74043 0.10434 0.0
C962 C 0.25154 0.74156 0.15031 0.0
H963 H 0.23147 0.81423 0.25566 0.0
H964 H 0.2359 0.80017 0.20106 0.0
H965 H 0.20481 0.7984 0.22835 0.0
H966 H 0.19124 0.76015 0.18488 0.0
H967 H 0.18317 0.7588 0.10468 0.0
H968 H 0.536 -0.00559 0.71154 0.0
H969 H 0.53767 0.98701 0.63083 0.0
H970 H 0.457 0.00883 0.61994 0.0
H971 H 0.45515 0.01623 0.70038 0.0
H972 H 0.50865 0.95369 0.57653 0.0
H973 H 0.49207 0.05647 0.52916 0.0
H974 H 0.50062 0.04685 0.58515 0.0
H975 H 0.46771 0.04353 0.56581 0.0
C976 C 0.51856 -0.00256 0.69201 0.0
C977 C 0.4955 0.00616 0.71239 0.0
C978 C 0.51958 -0.00668 0.64586 0.0
C979 C 0.49762 -0.00211 0.61922 0.0
C980 C 0.47439 0.00586 0.63964 0.0
H981 H 0.45867 0.98648 0.3391 0.0
H982 H 0.45956 -0.0067 0.41983 0.0
C983 C 0.47337 0.01005 0.68566 0.0
C984 C 0.49884 -0.00586 0.57012 0.0
H985 H 0.49004 0.02541 0.47074 0.0
C986 C 0.50476 0.96939 0.55335 0.0
C987 C 0.49376 0.01465 0.53993 0.0
C988 C 0.48842 0.04193 0.55582 0.0
C989 C 0.50502 0.96443 0.50725 0.0
C990 C 0.49971 0.98491 0.47706 0.0
C991 C 0.49404 0.00971 0.49387 0.0
C992 C 0.4995 0.98098 0.42792 0.0
C993 C 0.51021 0.93712 0.49139 0.0
C994 C 0.5218 0.97222 0.40543 0.0
C995 C 0.52133 0.96828 0.35925 0.0
C996 C 0.49864 0.97333 0.33452 0.0
C997 C 0.47652 0.98264 0.35705 0.0
C998 C 0.47697 0.98643 0.40323 0.0
H999 H 0.50702 0.92263 0.51832 0.0
H1000 H 0.49756 0.93207 0.46269 0.0
H1001 H 0.53076 0.93556 0.48046 0.0
H1002 H 0.53962 0.96855 0.42354 0.0
H1003 H 0.53882 0.96152 0.34283 0.0
H1004 H 0.24328 0.27073 0.95627 0.0
H1005 H 0.25032 0.27068 0.87555 0.0
H1006 H 0.21338 0.19578 0.86607 0.0
H1007 H 0.20624 0.19568 0.94675 0.0
H1008 H 0.27748 0.2364 0.82203 0.0
H1009 H 0.17327 0.238 0.77425 0.0
H1010 H 0.1841 0.24458 0.83034 0.0
H1011 H 0.18201 0.2117 0.81057 0.0
C1012 C 0.23683 0.25414 0.93709 0.0
C1013 C 0.22406 0.23327 0.95802 0.0
C1014 C 0.24075 0.25421 0.89089 0.0
C1015 C 0.23194 0.23346 0.86459 0.0
C1016 C 0.21973 0.21232 0.88547 0.0
H1017 H 0.23937 0.20113 0.57894 0.0
H1018 H 0.23184 0.19919 0.65961 0.0
C1019 C 0.21572 0.21227 0.93164 0.0
C1020 C 0.2359 0.23383 0.81544 0.0
H1021 H 0.20375 0.2324 0.71571 0.0
C1022 C 0.26136 0.23561 0.79879 0.0
C1023 C 0.21485 0.23272 0.78508 0.0
C1024 C 0.18699 0.23188 0.80085 0.0
C1025 C 0.26637 0.23601 0.75271 0.0
C1026 C 0.24532 0.23507 0.72237 0.0
C1027 C 0.21987 0.2331 0.73898 0.0
C1028 C 0.24931 0.23654 0.67331 0.0
C1029 C 0.29422 0.23696 0.73694 0.0
C1030 C 0.26108 0.25842 0.65407 0.0
C1031 C 0.26534 0.25962 0.60805 0.0
C1032 C 0.25775 0.23902 0.58013 0.0
C1033 C 0.24532 0.2174 0.59938 0.0
C1034 C 0.24111 0.2162 0.64551 0.0
H1035 H 0.30792 0.23044 0.76329 0.0
H1036 H 0.29707 0.22466 0.70694 0.0
H1037 H 0.29927 0.25725 0.72803 0.0
H1038 H 0.26694 0.27465 0.67467 0.0
H1039 H 0.27444 0.2768 0.59429 0.0
H1040 H 0.79228 0.21444 0.94542 0.0
H1041 H 0.78435 0.21452 0.86503 0.0
H1042 H 0.71335 0.25739 0.88552 0.0
H1043 H 0.72155 0.25818 0.96588 0.0
H1044 H 0.7427 0.19504 0.81617 0.0
H1045 H 0.75168 0.3016 0.79331 0.0
H1046 H 0.7621 0.28531 0.84352 0.0
H1047 H 0.72821 0.29206 0.83453 0.0
C1048 C 0.77508 0.22412 0.93285 0.0
C1049 C 0.75769 0.23653 0.9622 0.0
C1050 C 0.7705 0.22398 0.88688 0.0
C1051 C 0.7485 0.23634 0.86915 0.0
C1052 C 0.73073 0.24817 0.89835 0.0
H1053 H 0.68807 0.25962 0.60218 0.0
H1054 H 0.69569 0.25821 0.68255 0.0
C1055 C 0.73529 0.24832 0.94438 0.0
C1056 C 0.74417 0.23673 0.82013 0.0
H1057 H 0.73741 0.27738 0.73078 0.0
C1058 C 0.74164 0.21303 0.79745 0.0
C1059 C 0.74283 0.26022 0.79573 0.0
C1060 C 0.74658 0.28626 0.81786 0.0
C1061 C 0.73728 0.21219 0.75118 0.0
C1062 C 0.73588 0.23569 0.72681 0.0
C1063 C 0.73847 0.25938 0.74949 0.0
C1064 C 0.73139 0.23618 0.67783 0.0
C1065 C 0.73358 0.18617 0.72901 0.0
C1066 C 0.7491 0.22454 0.64829 0.0
C1067 C 0.7447 0.22514 0.60221 0.0
C1068 C 0.72254 0.23751 0.58469 0.0
C1069 C 0.70507 0.2495 0.61445 0.0
C1070 C 0.70949 0.24888 0.66044 0.0
H1071 H 0.72858 0.17078 0.75354 0.0
H1072 H 0.718 0.18709 0.70344 0.0
H1073 H 0.75193 0.18045 0.71219 0.0
H1074 H 0.7664 0.21506 0.66086 0.0
H1075 H 0.75849 0.21561 0.58036 0.0
H1076 H 0.75344 0.71826 0.4564 0.0
H1077 H 0.76133 0.71925 0.37589 0.0
H1078 H 0.7004 0.77599 0.36013 0.0
H1079 H 0.69293 0.77575 0.44064 0.0
H1080 H 0.7265 0.70701 0.30807 0.0
H1081 H 0.76036 0.8088 0.29113 0.0
H1082 H 0.75843 0.79249 0.34433 0.0
H1083 H 0.7296 0.80549 0.31887 0.0
C1084 C 0.74202 0.73131 0.43595 0.0
C1085 C 0.72259 0.74699 0.45514 0.0
C1086 C 0.74643 0.7317 0.38985 0.0
C1087 C 0.73168 0.74792 0.36198 0.0
C1088 C 0.71234 0.76365 0.381 0.0
H1089 H 0.72592 0.77272 0.07407 0.0
H1090 H 0.71755 0.77292 0.15458 0.0
C1091 C 0.7079 0.76326 0.42704 0.0
C1092 C 0.73585 0.74764 0.31287 0.0
H1093 H 0.75198 0.78596 0.22392 0.0
C1094 C 0.73219 0.72424 0.2897 0.0
C1095 C 0.74314 0.77016 0.28886 0.0
C1096 C 0.74836 0.79562 0.31204 0.0
C1097 C 0.7353 0.72282 0.24319 0.0
C1098 C 0.7427 0.74531 0.2192 0.0
C1099 C 0.74624 0.76875 0.24231 0.0
C1100 C 0.74742 0.74479 0.17026 0.0
C1101 C 0.73013 0.69735 0.22002 0.0
C1102 C 0.7671 0.72907 0.15233 0.0
C1103 C 0.77184 0.72882 0.1064 0.0
C1104 C 0.75711 0.74443 0.07729 0.0
C1105 C 0.73741 0.76022 0.09539 0.0
C1106 C 0.73272 0.76049 0.14143 0.0
H1107 H 0.71796 0.68424 0.24078 0.0
H1108 H 0.72024 0.70047 0.18755 0.0
H1109 H 0.74889 0.6874 0.21354 0.0
H1110 H 0.77899 0.71712 0.17394 0.0
H1111 H 0.78698 0.71622 0.09366 0.0
H1112 H 0.47486 0.43775 0.68996 0.0
H1113 H 0.47609 0.44551 0.6096 0.0
H1114 H 0.51824 0.51669 0.6313 0.0
H1115 H 0.51786 0.50867 0.7118 0.0
H1116 H 0.4562 0.48701 0.56151 0.0
H1117 H 0.56304 0.47972 0.53829 0.0
H1118 H 0.54692 0.46881 0.58841 0.0
H1119 H 0.55304 0.5028 0.57975 0.0
C1120 C 0.48473 0.45489 0.6777 0.0
C1121 C 0.49648 0.47246 0.70746 0.0
C1122 C 0.48524 0.45939 0.6317 0.0
C1123 C 0.49761 0.48146 0.61431 0.0
C1124 C 0.50903 0.49926 0.64386 0.0
H1125 H 0.51832 0.54262 0.34634 0.0
H1126 H 0.51843 0.53473 0.42676 0.0
C1127 C 0.50852 0.49479 0.68995 0.0
C1128 C 0.49797 0.48604 0.56532 0.0
H1129 H 0.53845 0.49348 0.47575 0.0
C1130 C 0.47417 0.48833 0.54272 0.0
C1131 C 0.52144 0.48779 0.54082 0.0
C1132 C 0.54758 0.48443 0.56289 0.0
C1133 C 0.4732 0.49273 0.49648 0.0
C1134 C 0.49667 0.4944 0.47195 0.0
C1135 C 0.52047 0.49217 0.49456 0.0
C1136 C 0.49693 0.49873 0.4229 0.0
C1137 C 0.44705 0.49616 0.47449 0.0
C1138 C 0.48522 0.48087 0.39379 0.0
C1139 C 0.48496 0.48541 0.34774 0.0
C1140 C 0.49652 0.50787 0.32977 0.0
C1141 C 0.50881 0.52537 0.35901 0.0
C1142 C 0.50906 0.52081 0.40502 0.0
H1143 H 0.43167 0.50109 0.49911 0.0
H1144 H 0.44775 0.51164 0.44875 0.0
H1145 H 0.44143 0.47774 0.45795 0.0
H1146 H 0.47619 0.46343 0.40672 0.0
H1147 H 0.4752 0.47158 0.32634 0.0
H1148 H 0.96534 0.50065 0.82945 0.0
H1149 H 0.96591 0.5081 0.91007 0.0
H1150 H 0.03363 0.4593 0.92222 0.0
H1151 H 0.03363 0.45229 0.84154 0.0
H1152 H 0.9619 0.47037 0.9776 0.0
H1153 H 0.05472 0.52482 0.99089 0.0
H1154 H 0.03808 0.5202 0.9385 0.0
H1155 H 0.05712 0.49436 0.96206 0.0
C1156 C 0.98063 0.49186 0.84914 0.0
C1157 C -0.00051 0.47593 0.82892 0.0
C1158 C 0.98081 0.49599 0.89527 0.0
C1159 C -3e-05 0.4845 0.92214 0.0
C1160 C 0.0189 0.4687 0.9021 0.0
H1161 H 0.02931 0.4847 0.20905 0.0
H1162 H 0.03028 0.47612 0.12865 0.0
C1163 C 0.0187 0.4645 0.856 0.0
C1164 C -0.00046 0.48825 0.97129 0.0
H1165 H 0.03472 0.51216 0.05875 0.0
C1166 C 0.97777 0.4796 0.99534 0.0
C1167 C 0.02034 0.50014 0.99442 0.0
C1168 C 0.04382 0.51064 0.9702 0.0
C1169 C 0.97634 0.48227 0.04191 0.0
C1170 C -0.00297 0.49436 0.06502 0.0
C1171 C 0.01889 0.50285 0.04102 0.0
C1172 C -0.00394 0.499 0.11393 0.0
C1173 C 0.95287 0.47169 0.06606 0.0
C1174 C 0.97662 0.51482 0.13235 0.0
C1175 C 0.97594 0.51965 0.17821 0.0
C1176 C -0.00518 0.50889 0.20674 0.0
C1177 C 0.0143 0.49302 0.18817 0.0
C1178 C 0.01498 0.48824 0.14219 0.0
H1179 H 0.94253 0.45688 0.04583 0.0
H1180 H 0.95847 0.46285 0.09845 0.0
H1181 H 0.93909 0.48779 0.07282 0.0
H1182 H 0.96207 0.52369 0.11114 0.0
H1183 H 0.96052 0.53175 0.19135 0.0
loop_
_geom_bond_atom_site_label_1
_geom_bond_atom_site_label_2
_geom_bond_distance
_geom_bond_site_symmetry_2
_ccdc_geom_bond_type
Tb0 C9 2.764 1_455 S
Tb0 O10 2.325 1_445 S
Tb0 O13 2.303 1_545 S
Tb0 O17 2.322 . S
Tb0 O18 2.349 1_455 S
Tb0 O21 2.409 1_545 S
Tb0 O22 2.399 1_455 S
Tb1 O11 2.322 . S
Tb1 O12 2.349 1_655 S
Tb1 O14 2.405 1_565 S
Tb1 O15 2.399 1_655 S
Tb1 O16 2.325 1_665 S
Tb1 O19 2.303 1_565 S
Tb1 C30 2.764 1_655 S
C2 O18 1.261 . S
C2 O19 1.257 . S
C3 C6 1.358 . S
C3 C7 1.332 1_545 S
C3 C9 1.504 . S
C4 C5 1.373 . S
C4 C8 1.308 1_545 S
C5 C4 1.373 . S
C5 C6 1.429 . S
C5 H32 0.932 . S
C6 C3 1.358 . S
C6 C5 1.429 . S
C6 H33 0.930 . S
C7 C3 1.332 1_565 S
C7 C8 1.394 . S
C7 H34 0.932 1_655 S
C8 C4 1.308 1_565 S
C8 C7 1.394 . S
C8 H35 0.929 . S
C9 Tb0 2.764 1_655 S
C9 C3 1.504 . S
C9 O21 1.231 1_645 S
C9 O22 1.263 . S
O10 Tb0 2.325 1_665 S
O10 C20 1.236 . S
O11 Tb1 2.322 . S
O11 C20 1.257 . S
O12 Tb1 2.349 1_455 S
O12 C23 1.261 . S
O13 Tb0 2.303 1_565 S
O13 C23 1.257 . S
O14 Tb1 2.405 1_545 S
O14 C30 1.224 1_645 S
O15 Tb1 2.399 1_455 S
O15 C30 1.263 . S
O16 Tb1 2.325 1_445 S
O16 C31 1.236 . S
O17 Tb0 2.322 . S
O17 C31 1.257 . S
O18 Tb0 2.349 1_655 S
O18 C2 1.261 . S
O19 Tb1 2.303 1_545 S
O19 C2 1.257 . S
C20 O10 1.236 . S
C20 O11 1.257 . S
O21 Tb0 2.409 1_565 S
O21 C9 1.231 1_465 S
O22 Tb0 2.399 1_655 S
O22 C9 1.263 . S
C23 O12 1.261 . S
C23 O13 1.257 . S
C24 C27 1.358 . S
C24 C28 1.332 1_565 S
C24 C30 1.504 . S
C25 C26 1.373 . S
C25 C29 1.308 1_565 S
C26 C25 1.373 . S
C26 C27 1.429 . S
C26 H36 0.932 . S
C27 C24 1.358 . S
C27 C26 1.429 . S
C27 H37 0.930 . S
C28 C24 1.332 1_545 S
C28 C29 1.394 . S
C28 H38 0.916 1_455 S
C29 C25 1.308 1_545 S
C29 C28 1.394 . S
C29 H39 0.929 . S
C30 Tb1 2.764 1_455 S
C30 O14 1.224 1_465 S
C30 O15 1.263 . S
C30 C24 1.504 . S
C31 O16 1.236 . S
C31 O17 1.257 . S
H32 C5 0.932 . S
H33 C6 0.930 . S
H34 C7 0.932 1_455 S
H35 C8 0.929 . S
H36 C26 0.932 . S
H37 C27 0.930 . S
H38 C28 0.916 1_655 S
H39 C29 0.929 . S
Tb40 C49 2.764 . S
Tb40 O50 2.325 . S
Tb40 O53 2.303 . S
Tb40 O57 2.322 . S
Tb40 O58 2.349 . S
Tb40 O61 2.415 . S
Tb40 O62 2.399 . S
Tb41 O51 2.322 . S
Tb41 O52 2.349 . S
Tb41 O54 2.415 . S
Tb41 O55 2.399 . S
Tb41 O56 2.325 . S
Tb41 O59 2.303 . S
Tb41 C70 2.764 . S
C42 O58 1.261 . S
C42 O59 1.257 . S
C43 C46 1.358 . S
C43 C47 1.332 . S
C43 C49 1.504 . S
C44 C45 1.373 . S
C44 C48 1.308 . S
C45 C44 1.373 . S
C45 C46 1.429 1_554 S
C45 H72 0.932 . S
C46 C43 1.358 . S
C46 C45 1.429 1_556 S
C46 H73 0.930 . S
C47 C43 1.332 . S
C47 C48 1.394 1_556 S
C47 H74 0.932 . S
C48 C44 1.308 . S
C48 C47 1.394 1_554 S
C48 H75 0.929 . S
C49 Tb40 2.764 . S
C49 C43 1.504 . S
C49 O61 1.239 . S
C49 O62 1.263 . S
O50 Tb40 2.325 . S
O50 C60 1.236 . S
O51 Tb41 2.322 . S
O51 C60 1.257 . S
O52 Tb41 2.349 . S
O52 C63 1.261 . S
O53 Tb40 2.303 . S
O53 C63 1.257 . S
O54 Tb41 2.415 . S
O54 C70 1.239 . S
O55 Tb41 2.399 . S
O55 C70 1.263 . S
O56 Tb41 2.325 . S
O56 C71 1.236 . S
O57 Tb40 2.322 . S
O57 C71 1.257 . S
O58 Tb40 2.349 . S
O58 C42 1.261 . S
O59 Tb41 2.303 . S
O59 C42 1.257 . S
C60 O50 1.236 . S
C60 O51 1.257 . S
O61 Tb40 2.415 . S
O61 C49 1.239 . S
O62 Tb40 2.399 . S
O62 C49 1.263 . S
C63 O52 1.261 . S
C63 O53 1.257 . S
C64 C67 1.358 . S
C64 C68 1.332 . S
C64 C70 1.504 . S
C65 C66 1.373 . S
C65 C69 1.308 . S
C66 C65 1.373 . S
C66 C67 1.429 . S
C66 H76 0.932 . S
C67 C64 1.358 . S
C67 C66 1.429 . S
C67 H77 0.930 . S
C68 C64 1.332 . S
C68 C69 1.394 . S
C68 H78 0.932 . S
C69 C65 1.308 . S
C69 C68 1.394 . S
C69 H79 0.929 . S
C70 Tb41 2.764 . S
C70 O54 1.239 . S
C70 O55 1.263 . S
C70 C64 1.504 . S
C71 O56 1.236 . S
C71 O57 1.257 . S
H72 C45 0.932 . S
H73 C46 0.930 . S
H74 C47 0.932 . S
H75 C48 0.929 . S
H76 C66 0.932 . S
H77 C67 0.930 . S
H78 C68 0.932 . S
H79 C69 0.929 . S
Tb80 C89 2.764 . S
Tb80 O90 2.325 1_565 S
Tb80 O93 2.303 1_565 S
Tb80 O97 2.308 1_554 S
Tb80 O98 2.349 . S
Tb80 O101 2.405 1_565 S
Tb80 O102 2.399 . S
Tb81 O91 2.304 1_556 S
Tb81 O92 2.349 . S
Tb81 O94 2.409 1_545 S
Tb81 O95 2.399 . S
Tb81 O96 2.325 1_545 S
Tb81 O99 2.303 1_545 S
Tb81 C110 2.764 . S
C82 O98 1.261 1_556 S
C82 O99 1.257 . S
C83 C86 1.358 . S
C83 C87 1.332 1_565 S
C83 C89 1.504 . S
C84 C85 1.373 . S
C84 C88 1.308 1_565 S
C85 C84 1.373 . S
C85 C86 1.429 . S
C85 H112 0.932 . S
C86 C83 1.358 . S
C86 C85 1.429 . S
C86 H113 0.930 . S
C87 C83 1.332 1_545 S
C87 C88 1.394 . S
C87 H114 0.932 . S
C88 C84 1.308 1_545 S
C88 C87 1.394 . S
C88 H115 0.929 . S
C89 Tb80 2.764 . S
C89 C83 1.504 . S
C89 O101 1.224 1_565 S
C89 O102 1.263 . S
O90 Tb80 2.325 1_545 S
O90 C100 1.236 . S
O91 Tb81 2.304 1_554 S
O91 C100 1.280 . S
O92 Tb81 2.349 . S
O92 C103 1.261 1_556 S
O93 Tb80 2.303 1_545 S
O93 C103 1.257 . S
O94 Tb81 2.409 1_565 S
O94 C110 1.231 1_565 S
O95 Tb81 2.399 . S
O95 C110 1.263 . S
O96 Tb81 2.325 1_565 S
O96 C111 1.236 . S
O97 Tb80 2.308 1_556 S
O97 C111 1.274 . S
O98 Tb80 2.349 . S
O98 C82 1.261 1_554 S
O99 Tb81 2.303 1_565 S
O99 C82 1.257 . S
C100 O90 1.236 . S
C100 O91 1.280 . S
O101 Tb80 2.405 1_545 S
O101 C89 1.224 1_545 S
O102 Tb80 2.399 . S
O102 C89 1.263 . S
C103 O92 1.261 1_554 S
C103 O93 1.257 . S
C104 C107 1.358 . S
C104 C108 1.332 1_545 S
C104 C110 1.504 . S
C105 C106 1.373 . S
C105 C109 1.308 1_545 S
C106 C105 1.373 . S
C106 C107 1.429 . S
C106 H116 0.932 . S
C107 C104 1.358 . S
C107 C106 1.429 . S
C107 H117 0.930 . S
C108 C104 1.332 1_565 S
C108 C109 1.394 . S
C108 H118 0.932 . S
C109 C105 1.308 1_565 S
C109 C108 1.394 . S
C109 H119 0.929 . S
C110 Tb81 2.764 . S
C110 O94 1.231 1_545 S
C110 O95 1.263 . S
C110 C104 1.504 . S
C111 O96 1.236 . S
C111 O97 1.274 . S
H112 C85 0.932 . S
H113 C86 0.930 . S
H114 C87 0.932 . S
H115 C88 0.929 . S
H116 C106 0.932 . S
H117 C107 0.930 . S
H118 C108 0.932 . S
H119 C109 0.929 . S
Tb120 C129 2.764 . S
Tb120 O130 2.325 . S
Tb120 O133 2.303 . S
Tb120 O137 2.322 . S
Tb120 O138 2.349 . S
Tb120 O141 2.415 . S
Tb120 O142 2.399 . S
Tb121 O131 2.322 . S
Tb121 O132 2.349 . S
Tb121 O134 2.415 . S
Tb121 O135 2.399 . S
Tb121 O136 2.325 . S
Tb121 O139 2.303 . S
Tb121 C150 2.764 . S
C122 O138 1.261 . S
C122 O139 1.257 . S
C123 C126 1.358 . S
C123 C127 1.332 . S
C123 C129 1.504 . S
C124 C125 1.373 . S
C124 C128 1.308 . S
C125 C124 1.373 . S
C125 C126 1.429 . S
C125 H152 0.932 . S
C126 C123 1.358 . S
C126 C125 1.429 . S
C126 H153 0.930 . S
C127 C123 1.332 . S
C127 C128 1.394 . S
C127 H154 0.932 . S
C128 C124 1.308 . S
C128 C127 1.394 . S
C128 H155 0.929 . S
C129 Tb120 2.764 . S
C129 C123 1.504 . S
C129 O141 1.239 . S
C129 O142 1.263 . S
O130 Tb120 2.325 . S
O130 C140 1.236 . S
O131 Tb121 2.322 . S
O131 C140 1.257 . S
O132 Tb121 2.349 . S
O132 C143 1.261 . S
O133 Tb120 2.303 . S
O133 C143 1.257 . S
O134 Tb121 2.415 . S
O134 C150 1.239 . S
O135 Tb121 2.399 . S
O135 C150 1.263 . S
O136 Tb121 2.325 . S
O136 C151 1.236 . S
O137 Tb120 2.322 . S
O137 C151 1.257 . S
O138 Tb120 2.349 . S
O138 C122 1.261 . S
O139 Tb121 2.303 . S
O139 C122 1.257 . S
C140 O130 1.236 . S
C140 O131 1.257 . S
O141 Tb120 2.415 . S
O141 C129 1.239 . S
O142 Tb120 2.399 . S
O142 C129 1.263 . S
C143 O132 1.261 . S
C143 O133 1.257 . S
C144 C147 1.358 . S
C144 C148 1.332 . S
C144 C150 1.504 . S
C145 C146 1.373 . S
C145 C149 1.308 . S
C146 C145 1.373 . S
C146 C147 1.429 1_556 S
C146 H156 0.932 . S
C147 C144 1.358 . S
C147 C146 1.429 1_554 S
C147 H157 0.930 . S
C148 C144 1.332 . S
C148 C149 1.394 1_554 S
C148 H158 0.932 . S
C149 C145 1.308 . S
C149 C148 1.394 1_556 S
C149 H159 0.929 . S
C150 Tb121 2.764 . S
C150 O134 1.239 . S
C150 O135 1.263 . S
C150 C144 1.504 . S
C151 O136 1.236 . S
C151 O137 1.257 . S
H152 C125 0.932 . S
H153 C126 0.930 . S
H154 C127 0.932 . S
H155 C128 0.929 . S
H156 C146 0.932 . S
H157 C147 0.930 . S
H158 C148 0.932 . S
H159 C149 0.929 . S
Tb160 C169 2.764 . S
Tb160 O170 2.325 . S
Tb160 O173 2.303 . S
Tb160 O177 2.322 . S
Tb160 O178 2.349 . S
Tb160 O181 2.415 . S
Tb160 O182 2.399 . S
Tb161 O171 2.322 . S
Tb161 O172 2.349 . S
Tb161 O174 2.415 . S
Tb161 O175 2.399 . S
Tb161 O176 2.325 . S
Tb161 O179 2.303 . S
Tb161 C190 2.764 . S
C162 O178 1.261 . S
C162 O179 1.257 . S
C163 C166 1.358 . S
C163 C167 1.332 . S
C163 C169 1.504 . S
C164 C165 1.373 . S
C164 C168 1.308 . S
C165 C164 1.373 . S
C165 C166 1.429 . S
C165 H192 0.932 . S
C166 C163 1.358 . S
C166 C165 1.429 . S
C166 H193 0.930 . S
C167 C163 1.332 . S
C167 C168 1.394 . S
C167 H194 0.932 . S
C168 C164 1.308 . S
C168 C167 1.394 . S
C168 H195 0.929 . S
C169 Tb160 2.764 . S
C169 C163 1.504 . S
C169 O181 1.239 . S
C169 O182 1.263 . S
O170 Tb160 2.325 . S
O170 C180 1.236 . S
O171 Tb161 2.322 . S
O171 C180 1.257 . S
O172 Tb161 2.349 . S
O172 C183 1.261 . S
O173 Tb160 2.303 . S
O173 C183 1.257 . S
O174 Tb161 2.415 . S
O174 C190 1.239 . S
O175 Tb161 2.399 . S
O175 C190 1.263 . S
O176 Tb161 2.325 . S
O176 C191 1.236 . S
O177 Tb160 2.322 . S
O177 C191 1.257 . S
O178 Tb160 2.349 . S
O178 C162 1.261 . S
O179 Tb161 2.303 . S
O179 C162 1.257 . S
C180 O170 1.236 . S
C180 O171 1.257 . S
O181 Tb160 2.415 . S
O181 C169 1.239 . S
O182 Tb160 2.399 . S
O182 C169 1.263 . S
C183 O172 1.261 . S
C183 O173 1.257 . S
C184 C187 1.358 . S
C184 C188 1.332 . S
C184 C190 1.504 . S
C185 C186 1.373 . S
C185 C189 1.308 . S
C186 C185 1.373 . S
C186 C187 1.429 1_556 S
C186 H196 0.932 . S
C187 C184 1.358 . S
C187 C186 1.429 1_554 S
C187 H197 0.930 . S
C188 C184 1.332 . S
C188 C189 1.394 1_554 S
C188 H198 0.932 . S
C189 C185 1.308 . S
C189 C188 1.394 1_556 S
C189 H199 0.929 . S
C190 Tb161 2.764 . S
C190 O174 1.239 . S
C190 O175 1.263 . S
C190 C184 1.504 . S
C191 O176 1.236 . S
C191 O177 1.257 . S
H192 C165 0.932 . S
H193 C166 0.930 . S
H194 C167 0.932 . S
H195 C168 0.929 . S
H196 C186 0.932 . S
H197 C187 0.930 . S
H198 C188 0.932 . S
H199 C189 0.929 . S
Tb200 C209 2.764 . S
Tb200 O210 2.325 . S
Tb200 O213 2.303 . S
Tb200 O217 2.322 . S
Tb200 O218 2.349 . S
Tb200 O221 2.415 . S
Tb200 O222 2.399 . S
Tb201 O211 2.322 . S
Tb201 O212 2.349 . S
Tb201 O214 2.415 . S
Tb201 O215 2.399 . S
Tb201 O216 2.325 . S
Tb201 O219 2.303 . S
Tb201 C230 2.764 . S
C202 O218 1.261 . S
C202 O219 1.257 . S
C203 C206 1.358 . S
C203 C207 1.332 . S
C203 C209 1.504 . S
C204 C205 1.373 . S
C204 C208 1.308 . S
C205 C204 1.373 . S
C205 C206 1.429 1_554 S
C205 H232 0.932 . S
C206 C203 1.358 . S
C206 C205 1.429 1_556 S
C206 H233 0.930 . S
C207 C203 1.332 . S
C207 C208 1.394 1_556 S
C207 H234 0.932 . S
C208 C204 1.308 . S
C208 C207 1.394 1_554 S
C208 H235 0.929 . S
C209 Tb200 2.764 . S
C209 C203 1.504 . S
C209 O221 1.239 . S
C209 O222 1.263 . S
O210 Tb200 2.325 . S
O210 C220 1.236 . S
O211 Tb201 2.322 . S
O211 C220 1.257 . S
O212 Tb201 2.349 . S
O212 C223 1.261 . S
O213 Tb200 2.303 . S
O213 C223 1.257 . S
O214 Tb201 2.415 . S
O214 C230 1.239 . S
O215 Tb201 2.399 . S
O215 C230 1.263 . S
O216 Tb201 2.325 . S
O216 C231 1.236 . S
O217 Tb200 2.322 . S
O217 C231 1.257 . S
O218 Tb200 2.349 . S
O218 C202 1.261 . S
O219 Tb201 2.303 . S
O219 C202 1.257 . S
C220 O210 1.236 . S
C220 O211 1.257 . S
O221 Tb200 2.415 . S
O221 C209 1.239 . S
O222 Tb200 2.399 . S
O222 C209 1.263 . S
C223 O212 1.261 . S
C223 O213 1.257 . S
C224 C227 1.358 . S
C224 C228 1.332 . S
C224 C230 1.504 . S
C225 C226 1.373 . S
C225 C229 1.308 . S
C226 C225 1.373 . S
C226 C227 1.429 . S
C226 H236 0.932 . S
C227 C224 1.358 . S
C227 C226 1.429 . S
C227 H237 0.930 . S
C228 C224 1.332 . S
C228 C229 1.394 . S
C228 H238 0.932 . S
C229 C225 1.308 . S
C229 C228 1.394 . S
C229 H239 0.929 . S
C230 Tb201 2.764 . S
C230 O214 1.239 . S
C230 O215 1.263 . S
C230 C224 1.504 . S
C231 O216 1.236 . S
C231 O217 1.257 . S
H232 C205 0.932 . S
H233 C206 0.930 . S
H234 C207 0.932 . S
H235 C208 0.929 . S
H236 C226 0.932 . S
H237 C227 0.930 . S
H238 C228 0.932 . S
H239 C229 0.929 . S
Tb240 C249 2.764 . S
Tb240 O250 2.325 . S
Tb240 O253 2.303 . S
Tb240 O257 2.308 1_554 S
Tb240 O258 2.349 . S
Tb240 O261 2.415 . S
Tb240 O262 2.399 . S
Tb241 O251 2.304 1_556 S
Tb241 O252 2.349 . S
Tb241 O254 2.415 . S
Tb241 O255 2.399 . S
Tb241 O256 2.325 . S
Tb241 O259 2.303 . S
Tb241 C270 2.764 . S
C242 O258 1.261 1_556 S
C242 O259 1.257 . S
C243 C246 1.358 . S
C243 C247 1.332 . S
C243 C249 1.504 . S
C244 C245 1.373 . S
C244 C248 1.308 . S
C245 C244 1.373 . S
C245 C246 1.429 . S
C245 H272 0.932 . S
C246 C243 1.358 . S
C246 C245 1.429 . S
C246 H273 0.930 . S
C247 C243 1.332 . S
C247 C248 1.394 . S
C247 H274 0.932 . S
C248 C244 1.308 . S
C248 C247 1.394 . S
C248 H275 0.929 . S
C249 Tb240 2.764 . S
C249 C243 1.504 . S
C249 O261 1.239 . S
C249 O262 1.263 . S
O250 Tb240 2.325 . S
O250 C260 1.236 . S
O251 Tb241 2.304 1_554 S
O251 C260 1.280 . S
O252 Tb241 2.349 . S
O252 C263 1.261 1_556 S
O253 Tb240 2.303 . S
O253 C263 1.257 . S
O254 Tb241 2.415 . S
O254 C270 1.239 . S
O255 Tb241 2.399 . S
O255 C270 1.263 . S
O256 Tb241 2.325 . S
O256 C271 1.236 . S
O257 Tb240 2.308 1_556 S
O257 C271 1.274 . S
O258 Tb240 2.349 . S
O258 C242 1.261 1_554 S
O259 Tb241 2.303 . S
O259 C242 1.257 . S
C260 O250 1.236 . S
C260 O251 1.280 . S
O261 Tb240 2.415 . S
O261 C249 1.239 . S
O262 Tb240 2.399 . S
O262 C249 1.263 . S
C263 O252 1.261 1_554 S
C263 O253 1.257 . S
C264 C267 1.358 . S
C264 C268 1.332 . S
C264 C270 1.504 . S
C265 C266 1.373 . S
C265 C269 1.308 . S
C266 C265 1.373 . S
C266 C267 1.429 . S
C266 H276 0.932 . S
C267 C264 1.358 . S
C267 C266 1.429 . S
C267 H277 0.930 . S
C268 C264 1.332 . S
C268 C269 1.394 . S
C268 H278 0.932 . S
C269 C265 1.308 . S
C269 C268 1.394 . S
C269 H279 0.929 . S
C270 Tb241 2.764 . S
C270 O254 1.239 . S
C270 O255 1.263 . S
C270 C264 1.504 . S
C271 O256 1.236 . S
C271 O257 1.274 . S
H272 C245 0.932 . S
H273 C246 0.930 . S
H274 C247 0.932 . S
H275 C248 0.929 . S
H276 C266 0.932 . S
H277 C267 0.930 . S
H278 C268 0.932 . S
H279 C269 0.929 . S
Tb280 C289 2.764 1_655 S
Tb280 O290 2.325 1_655 S
Tb280 O293 2.303 . S
Tb280 O297 2.322 . S
Tb280 O298 2.349 1_655 S
Tb280 O301 2.415 . S
Tb280 O302 2.399 1_655 S
Tb281 O291 2.322 . S
Tb281 O292 2.349 1_455 S
Tb281 O294 2.415 . S
Tb281 O295 2.399 1_455 S
Tb281 O296 2.325 1_455 S
Tb281 O299 2.303 . S
Tb281 C310 2.764 1_455 S
C282 O298 1.261 . S
C282 O299 1.257 . S
C283 C286 1.358 . S
C283 C287 1.332 . S
C283 C289 1.504 . S
C284 C285 1.373 . S
C284 C288 1.308 . S
C285 C284 1.373 . S
C285 C286 1.429 . S
C285 H312 0.932 . S
C286 C283 1.358 . S
C286 C285 1.429 . S
C286 H313 0.930 . S
C287 C283 1.332 . S
C287 C288 1.394 . S
C287 H314 0.916 1_455 S
C288 C284 1.308 . S
C288 C287 1.394 . S
C288 H315 0.929 . S
C289 Tb280 2.764 1_455 S
C289 C283 1.504 . S
C289 O301 1.239 1_455 S
C289 O302 1.263 . S
O290 Tb280 2.325 1_455 S
O290 C300 1.236 . S
O291 Tb281 2.322 . S
O291 C300 1.257 . S
O292 Tb281 2.349 1_655 S
O292 C303 1.261 . S
O293 Tb280 2.303 . S
O293 C303 1.257 . S
O294 Tb281 2.415 . S
O294 C310 1.239 1_455 S
O295 Tb281 2.399 1_655 S
O295 C310 1.263 . S
O296 Tb281 2.325 1_655 S
O296 C311 1.236 . S
O297 Tb280 2.322 . S
O297 C311 1.257 . S
O298 Tb280 2.349 1_455 S
O298 C282 1.261 . S
O299 Tb281 2.303 . S
O299 C282 1.257 . S
C300 O290 1.236 . S
C300 O291 1.257 . S
O301 Tb280 2.415 . S
O301 C289 1.239 1_655 S
O302 Tb280 2.399 1_455 S
O302 C289 1.263 . S
C303 O292 1.261 . S
C303 O293 1.257 . S
C304 C307 1.358 . S
C304 C308 1.332 . S
C304 C310 1.504 . S
C305 C306 1.373 . S
C305 C309 1.308 . S
C306 C305 1.373 . S
C306 C307 1.429 . S
C306 H316 0.932 . S
C307 C304 1.358 . S
C307 C306 1.429 . S
C307 H317 0.930 . S
C308 C304 1.332 . S
C308 C309 1.394 . S
C308 H318 0.932 1_655 S
C309 C305 1.308 . S
C309 C308 1.394 . S
C309 H319 0.929 . S
C310 Tb281 2.764 1_655 S
C310 O294 1.239 1_655 S
C310 O295 1.263 . S
C310 C304 1.504 . S
C311 O296 1.236 . S
C311 O297 1.257 . S
H312 C285 0.932 . S
H313 C286 0.930 . S
H314 C287 0.916 1_655 S
H315 C288 0.929 . S
H316 C306 0.932 . S
H317 C307 0.930 . S
H318 C308 0.932 1_455 S
H319 C309 0.929 . S
H320 C328 0.929 . S
H321 C330 0.930 . S
H322 C332 0.930 . S
H323 C335 0.929 . S
H324 C338 0.930 . S
H325 C340 0.960 . S
H326 C340 0.960 . S
H327 C340 0.960 . S
C328 H320 0.929 . S
C328 C329 1.377 . S
C328 C330 1.384 . S
C329 C328 1.377 . S
C329 C335 1.390 . S
C330 H321 0.930 . S
C330 C328 1.384 . S
C330 C331 1.372 . S
C331 C330 1.372 . S
C331 C332 1.400 . S
C331 C336 1.490 . S
C332 H322 0.930 . S
C332 C331 1.400 . S
C332 C335 1.386 . S
H333 C349 0.930 . S
H334 C350 0.931 . S
C335 H323 0.929 . S
C335 C329 1.390 . S
C335 C332 1.386 . S
C336 C331 1.490 . S
C336 C338 1.395 . S
C336 C339 1.403 . S
H337 C343 0.930 . S
C338 H324 0.930 . S
C338 C336 1.395 . S
C338 C341 1.403 . S
C339 C336 1.403 . S
C339 C340 1.524 . S
C339 C343 1.400 . S
C340 H325 0.960 . S
C340 H326 0.960 . S
C340 H327 0.960 . S
C340 C339 1.524 . S
C341 C338 1.403 . S
C341 C342 1.392 . S
C341 C345 1.495 . S
C342 C341 1.392 . S
C342 C343 1.385 . S
C342 C344 1.478 . S
C343 H337 0.930 . S
C343 C339 1.400 . S
C343 C342 1.385 . S
C344 C342 1.478 . S
C344 C346 1.381 . S
C344 C350 1.383 . S
C345 C341 1.495 . S
C345 H351 0.959 . S
C345 H352 0.961 . S
C345 H353 0.960 . S
C346 C344 1.381 . S
C346 C347 1.394 . S
C346 H354 0.930 . S
C347 C346 1.394 . S
C347 C348 1.383 . S
C347 H355 0.929 . S
C348 C347 1.383 . S
C348 C349 1.377 . S
C349 H333 0.930 . S
C349 C348 1.377 . S
C349 C350 1.379 . S
C350 H334 0.931 . S
C350 C344 1.383 . S
C350 C349 1.379 . S
H351 C345 0.959 . S
H352 C345 0.961 . S
H353 C345 0.960 . S
H354 C346 0.930 . S
H355 C347 0.929 . S
H356 C364 0.929 . S
H357 C366 0.930 . S
H358 C368 0.930 . S
H359 C371 0.929 . S
H360 C374 0.930 . S
H361 C376 0.960 . S
H362 C376 0.960 . S
H363 C376 0.960 . S
C364 H356 0.929 . S
C364 C365 1.377 . S
C364 C366 1.384 . S
C365 C364 1.377 . S
C365 C371 1.390 . S
C366 H357 0.930 . S
C366 C364 1.384 . S
C366 C367 1.372 . S
C367 C366 1.372 . S
C367 C368 1.400 . S
C367 C372 1.490 . S
C368 H358 0.930 . S
C368 C367 1.400 . S
C368 C371 1.386 . S
H369 C385 0.930 . S
H370 C386 0.931 . S
C371 H359 0.929 . S
C371 C365 1.390 . S
C371 C368 1.386 . S
C372 C367 1.490 . S
C372 C374 1.395 . S
C372 C375 1.403 . S
H373 C379 0.930 . S
C374 H360 0.930 . S
C374 C372 1.395 . S
C374 C377 1.403 . S
C375 C372 1.403 . S
C375 C376 1.524 . S
C375 C379 1.400 . S
C376 H361 0.960 . S
C376 H362 0.960 . S
C376 H363 0.960 . S
C376 C375 1.524 . S
C377 C374 1.403 . S
C377 C378 1.392 . S
C377 C381 1.495 . S
C378 C377 1.392 . S
C378 C379 1.385 . S
C378 C380 1.478 . S
C379 H373 0.930 . S
C379 C375 1.400 . S
C379 C378 1.385 . S
C380 C378 1.478 . S
C380 C382 1.381 . S
C380 C386 1.383 . S
C381 C377 1.495 . S
C381 H387 0.959 . S
C381 H388 0.961 . S
C381 H389 0.960 . S
C382 C380 1.381 . S
C382 C383 1.394 . S
C382 H390 0.930 . S
C383 C382 1.394 . S
C383 C384 1.383 . S
C383 H391 0.929 . S
C384 C383 1.383 . S
C384 C385 1.377 . S
C385 H369 0.930 . S
C385 C384 1.377 . S
C385 C386 1.379 . S
C386 H370 0.931 . S
C386 C380 1.383 . S
C386 C385 1.379 . S
H387 C381 0.959 . S
H388 C381 0.961 . S
H389 C381 0.960 . S
H390 C382 0.930 . S
H391 C383 0.929 . S
H392 C400 0.929 . S
H393 C402 0.930 . S
H394 C404 0.930 . S
H395 C407 0.929 . S
H396 C410 0.930 . S
H397 C412 0.960 . S
H398 C412 0.960 . S
H399 C412 0.960 . S
C400 H392 0.929 . S
C400 C401 1.377 . S
C400 C402 1.384 . S
C401 C400 1.377 . S
C401 C407 1.390 . S
C402 H393 0.930 . S
C402 C400 1.384 . S
C402 C403 1.372 . S
C403 C402 1.372 . S
C403 C404 1.400 . S
C403 C408 1.490 . S
C404 H394 0.930 . S
C404 C403 1.400 . S
C404 C407 1.386 . S
H405 C421 0.930 . S
H406 C422 0.931 . S
C407 H395 0.929 . S
C407 C401 1.390 . S
C407 C404 1.386 . S
C408 C403 1.490 . S
C408 C410 1.395 . S
C408 C411 1.403 . S
H409 C415 0.930 . S
C410 H396 0.930 . S
C410 C408 1.395 . S
C410 C413 1.403 . S
C411 C408 1.403 . S
C411 C412 1.524 . S
C411 C415 1.400 . S
C412 H397 0.960 . S
C412 H398 0.960 . S
C412 H399 0.960 . S
C412 C411 1.524 . S
C413 C410 1.403 . S
C413 C414 1.392 . S
C413 C417 1.495 . S
C414 C413 1.392 . S
C414 C415 1.385 . S
C414 C416 1.478 . S
C415 H409 0.930 . S
C415 C411 1.400 . S
C415 C414 1.385 . S
C416 C414 1.478 . S
C416 C418 1.381 . S
C416 C422 1.383 . S
C417 C413 1.495 . S
C417 H423 0.959 . S
C417 H424 0.961 . S
C417 H425 0.960 . S
C418 C416 1.381 . S
C418 C419 1.394 . S
C418 H426 0.930 . S
C419 C418 1.394 . S
C419 C420 1.383 . S
C419 H427 0.929 . S
C420 C419 1.383 . S
C420 C421 1.377 . S
C421 H405 0.930 . S
C421 C420 1.377 . S
C421 C422 1.379 . S
C422 H406 0.931 . S
C422 C416 1.383 . S
C422 C421 1.379 . S
H423 C417 0.959 . S
H424 C417 0.961 . S
H425 C417 0.960 . S
H426 C418 0.930 . S
H427 C419 0.929 . S
H428 C436 0.929 . S
H429 C438 0.930 . S
H430 C440 0.930 . S
H431 C443 0.929 . S
H432 C446 0.930 . S
H433 C448 0.960 . S
H434 C448 0.960 . S
H435 C448 0.960 . S
C436 H428 0.929 . S
C436 C437 1.377 . S
C436 C438 1.384 . S
C437 C436 1.377 . S
C437 C443 1.390 . S
C438 H429 0.930 . S
C438 C436 1.384 . S
C438 C439 1.372 . S
C439 C438 1.372 . S
C439 C440 1.400 . S
C439 C444 1.490 . S
C440 H430 0.930 . S
C440 C439 1.400 . S
C440 C443 1.386 . S
H441 C457 0.930 . S
H442 C458 0.931 . S
C443 H431 0.929 . S
C443 C437 1.390 . S
C443 C440 1.386 . S
C444 C439 1.490 . S
C444 C446 1.395 . S
C444 C447 1.403 . S
H445 C451 0.930 . S
C446 H432 0.930 . S
C446 C444 1.395 . S
C446 C449 1.403 . S
C447 C444 1.403 . S
C447 C448 1.524 . S
C447 C451 1.400 . S
C448 H433 0.960 . S
C448 H434 0.960 . S
C448 H435 0.960 . S
C448 C447 1.524 . S
C449 C446 1.403 . S
C449 C450 1.392 . S
C449 C453 1.495 . S
C450 C449 1.392 . S
C450 C451 1.385 . S
C450 C452 1.478 . S
C451 H445 0.930 . S
C451 C447 1.400 . S
C451 C450 1.385 . S
C452 C450 1.478 . S
C452 C454 1.381 . S
C452 C458 1.383 . S
C453 C449 1.495 . S
C453 H459 0.959 . S
C453 H460 0.961 . S
C453 H461 0.960 . S
C454 C452 1.381 . S
C454 C455 1.394 . S
C454 H462 0.930 . S
C455 C454 1.394 . S
C455 C456 1.383 . S
C455 H463 0.929 . S
C456 C455 1.383 . S
C456 C457 1.377 . S
C457 H441 0.930 . S
C457 C456 1.377 . S
C457 C458 1.379 . S
C458 H442 0.931 . S
C458 C452 1.383 . S
C458 C457 1.379 . S
H459 C453 0.959 . S
H460 C453 0.961 . S
H461 C453 0.960 . S
H462 C454 0.930 . S
H463 C455 0.929 . S
H464 C472 0.929 . S
H465 C474 0.930 . S
H466 C476 0.930 . S
H467 C479 0.929 . S
H468 C482 0.930 . S
H469 C484 0.960 . S
H470 C484 0.960 . S
H471 C484 0.960 . S
C472 H464 0.929 . S
C472 C473 1.377 . S
C472 C474 1.384 . S
C473 C472 1.377 . S
C473 C479 1.390 . S
C474 H465 0.930 . S
C474 C472 1.384 . S
C474 C475 1.372 . S
C475 C474 1.372 . S
C475 C476 1.400 . S
C475 C480 1.490 . S
C476 H466 0.930 . S
C476 C475 1.400 . S
C476 C479 1.386 . S
H477 C493 0.930 . S
H478 C494 0.931 . S
C479 H467 0.929 . S
C479 C473 1.390 . S
C479 C476 1.386 . S
C480 C475 1.490 . S
C480 C482 1.395 . S
C480 C483 1.403 . S
H481 C487 0.930 . S
C482 H468 0.930 . S
C482 C480 1.395 . S
C482 C485 1.403 . S
C483 C480 1.403 . S
C483 C484 1.524 . S
C483 C487 1.400 . S
C484 H469 0.960 . S
C484 H470 0.960 . S
C484 H471 0.960 . S
C484 C483 1.524 . S
C485 C482 1.403 . S
C485 C486 1.392 . S
C485 C489 1.495 . S
C486 C485 1.392 . S
C486 C487 1.385 . S
C486 C488 1.478 . S
C487 H481 0.930 . S
C487 C483 1.400 . S
C487 C486 1.385 . S
C488 C486 1.478 . S
C488 C490 1.381 . S
C488 C494 1.383 . S
C489 C485 1.495 . S
C489 H495 0.959 . S
C489 H496 0.961 . S
C489 H497 0.960 . S
C490 C488 1.381 . S
C490 C491 1.394 . S
C490 H498 0.930 . S
C491 C490 1.394 . S
C491 C492 1.383 . S
C491 H499 0.929 . S
C492 C491 1.383 . S
C492 C493 1.377 . S
C493 H477 0.930 . S
C493 C492 1.377 . S
C493 C494 1.379 . S
C494 H478 0.931 . S
C494 C488 1.383 . S
C494 C493 1.379 . S
H495 C489 0.959 . S
H496 C489 0.961 . S
H497 C489 0.960 . S
H498 C490 0.930 . S
H499 C491 0.929 . S
H500 C508 0.929 . S
H501 C510 0.930 . S
H502 C512 0.930 . S
H503 C515 0.929 . S
H504 C518 0.930 . S
H505 C520 0.960 . S
H506 C520 0.960 . S
H507 C520 0.960 . S
C508 H500 0.929 . S
C508 C509 1.377 . S
C508 C510 1.384 . S
C509 C508 1.377 . S
C509 C515 1.390 . S
C510 H501 0.930 . S
C510 C508 1.384 . S
C510 C511 1.372 . S
C511 C510 1.372 . S
C511 C512 1.400 . S
C511 C516 1.490 . S
C512 H502 0.930 . S
C512 C511 1.400 . S
C512 C515 1.386 . S
H513 C529 0.930 . S
H514 C530 0.931 . S
C515 H503 0.929 . S
C515 C509 1.390 . S
C515 C512 1.386 . S
C516 C511 1.490 . S
C516 C518 1.395 . S
C516 C519 1.403 . S
H517 C523 0.930 . S
C518 H504 0.930 . S
C518 C516 1.395 . S
C518 C521 1.403 . S
C519 C516 1.403 . S
C519 C520 1.524 . S
C519 C523 1.400 . S
C520 H505 0.960 . S
C520 H506 0.960 . S
C520 H507 0.960 . S
C520 C519 1.524 . S
C521 C518 1.403 . S
C521 C522 1.392 . S
C521 C525 1.495 . S
C522 C521 1.392 . S
C522 C523 1.385 . S
C522 C524 1.478 . S
C523 H517 0.930 . S
C523 C519 1.400 . S
C523 C522 1.385 . S
C524 C522 1.478 . S
C524 C526 1.381 . S
C524 C530 1.383 . S
C525 C521 1.495 . S
C525 H531 0.959 . S
C525 H532 0.961 . S
C525 H533 0.960 . S
C526 C524 1.381 . S
C526 C527 1.394 . S
C526 H534 0.930 . S
C527 C526 1.394 . S
C527 C528 1.383 . S
C527 H535 0.929 . S
C528 C527 1.383 . S
C528 C529 1.377 . S
C529 H513 0.930 . S
C529 C528 1.377 . S
C529 C530 1.379 . S
C530 H514 0.931 . S
C530 C524 1.383 . S
C530 C529 1.379 . S
H531 C525 0.959 . S
H532 C525 0.961 . S
H533 C525 0.960 . S
H534 C526 0.930 . S
H535 C527 0.929 . S
H536 C544 0.929 . S
H537 C546 0.930 . S
H538 C548 0.930 . S
H539 C551 0.929 . S
H540 C554 0.930 . S
H541 C556 0.960 . S
H542 C556 0.960 . S
H543 C556 0.960 . S
C544 H536 0.929 . S
C544 C545 1.377 . S
C544 C546 1.384 . S
C545 C544 1.377 . S
C545 C551 1.390 . S
C546 H537 0.930 . S
C546 C544 1.384 . S
C546 C547 1.372 . S
C547 C546 1.372 . S
C547 C548 1.400 . S
C547 C552 1.490 . S
C548 H538 0.930 . S
C548 C547 1.400 . S
C548 C551 1.386 . S
H549 C565 0.930 . S
H550 C566 0.931 . S
C551 H539 0.929 . S
C551 C545 1.390 . S
C551 C548 1.386 . S
C552 C547 1.490 . S
C552 C554 1.395 . S
C552 C555 1.403 . S
H553 C559 0.930 . S
C554 H540 0.930 . S
C554 C552 1.395 . S
C554 C557 1.403 . S
C555 C552 1.403 . S
C555 C556 1.524 . S
C555 C559 1.400 . S
C556 H541 0.960 . S
C556 H542 0.960 . S
C556 H543 0.960 . S
C556 C555 1.524 . S
C557 C554 1.403 . S
C557 C558 1.392 . S
C557 C561 1.495 . S
C558 C557 1.392 . S
C558 C559 1.385 . S
C558 C560 1.478 . S
C559 H553 0.930 . S
C559 C555 1.400 . S
C559 C558 1.385 . S
C560 C558 1.478 . S
C560 C562 1.381 . S
C560 C566 1.383 . S
C561 C557 1.495 . S
C561 H567 0.959 . S
C561 H568 0.961 . S
C561 H569 0.960 . S
C562 C560 1.381 . S
C562 C563 1.394 . S
C562 H570 0.930 . S
C563 C562 1.394 . S
C563 C564 1.383 . S
C563 H571 0.929 . S
C564 C563 1.383 . S
C564 C565 1.377 . S
C565 H549 0.930 . S
C565 C564 1.377 . S
C565 C566 1.379 . S
C566 H550 0.931 . S
C566 C560 1.383 . S
C566 C565 1.379 . S
H567 C561 0.959 . S
H568 C561 0.961 . S
H569 C561 0.960 . S
H570 C562 0.930 . S
H571 C563 0.929 . S
H572 C580 0.929 . S
H573 C582 0.930 . S
H574 C584 0.930 . S
H575 C587 0.929 . S
H576 C590 0.930 . S
H577 C592 0.960 . S
H578 C592 0.960 . S
H579 C592 0.960 . S
C580 H572 0.929 . S
C580 C581 1.377 . S
C580 C582 1.384 . S
C581 C580 1.377 . S
C581 C587 1.390 . S
C582 H573 0.930 . S
C582 C580 1.384 . S
C582 C583 1.372 . S
C583 C582 1.372 . S
C583 C584 1.400 . S
C583 C588 1.490 . S
C584 H574 0.930 . S
C584 C583 1.400 . S
C584 C587 1.386 . S
H585 C601 0.930 . S
H586 C602 0.931 . S
C587 H575 0.929 . S
C587 C581 1.390 . S
C587 C584 1.386 . S
C588 C583 1.490 . S
C588 C590 1.395 . S
C588 C591 1.403 . S
H589 C595 0.930 . S
C590 H576 0.930 . S
C590 C588 1.395 . S
C590 C593 1.403 . S
C591 C588 1.403 . S
C591 C592 1.524 . S
C591 C595 1.400 . S
C592 H577 0.960 . S
C592 H578 0.960 . S
C592 H579 0.960 . S
C592 C591 1.524 . S
C593 C590 1.403 . S
C593 C594 1.392 . S
C593 C597 1.495 . S
C594 C593 1.392 . S
C594 C595 1.385 . S
C594 C596 1.478 . S
C595 H589 0.930 . S
C595 C591 1.400 . S
C595 C594 1.385 . S
C596 C594 1.478 . S
C596 C598 1.381 . S
C596 C602 1.383 . S
C597 C593 1.495 . S
C597 H603 0.959 . S
C597 H604 0.961 . S
C597 H605 0.960 . S
C598 C596 1.381 . S
C598 C599 1.394 . S
C598 H606 0.930 . S
C599 C598 1.394 . S
C599 C600 1.383 . S
C599 H607 0.929 . S
C600 C599 1.383 . S
C600 C601 1.377 . S
C601 H585 0.930 . S
C601 C600 1.377 . S
C601 C602 1.379 . S
C602 H586 0.931 . S
C602 C596 1.383 . S
C602 C601 1.379 . S
H603 C597 0.959 . S
H604 C597 0.961 . S
H605 C597 0.960 . S
H606 C598 0.930 . S
H607 C599 0.929 . S
H608 C616 0.929 . S
H609 C618 0.930 . S
H610 C620 0.930 . S
H611 C623 0.929 . S
H612 C626 0.930 . S
H613 C628 0.960 . S
H614 C628 0.960 . S
H615 C628 0.960 . S
C616 H608 0.929 . S
C616 C617 1.377 . S
C616 C618 1.384 . S
C617 C616 1.377 . S
C617 C623 1.390 . S
C618 H609 0.930 . S
C618 C616 1.384 . S
C618 C619 1.372 . S
C619 C618 1.372 . S
C619 C620 1.400 . S
C619 C624 1.490 . S
C620 H610 0.930 . S
C620 C619 1.400 . S
C620 C623 1.386 . S
H621 C637 0.930 . S
H622 C638 0.931 . S
C623 H611 0.929 . S
C623 C617 1.390 . S
C623 C620 1.386 . S
C624 C619 1.490 . S
C624 C626 1.395 . S
C624 C627 1.403 . S
H625 C631 0.930 . S
C626 H612 0.930 . S
C626 C624 1.395 . S
C626 C629 1.403 . S
C627 C624 1.403 . S
C627 C628 1.524 . S
C627 C631 1.400 . S
C628 H613 0.960 . S
C628 H614 0.960 . S
C628 H615 0.960 . S
C628 C627 1.524 . S
C629 C626 1.403 . S
C629 C630 1.392 . S
C629 C633 1.495 . S
C630 C629 1.392 . S
C630 C631 1.385 . S
C630 C632 1.478 . S
C631 H625 0.930 . S
C631 C627 1.400 . S
C631 C630 1.385 . S
C632 C630 1.478 . S
C632 C634 1.381 . S
C632 C638 1.383 . S
C633 C629 1.495 . S
C633 H639 0.959 . S
C633 H640 0.961 . S
C633 H641 0.960 . S
C634 C632 1.381 . S
C634 C635 1.394 . S
C634 H642 0.930 . S
C635 C634 1.394 . S
C635 C636 1.383 . S
C635 H643 0.929 . S
C636 C635 1.383 . S
C636 C637 1.377 . S
C637 H621 0.930 . S
C637 C636 1.377 . S
C637 C638 1.379 . S
C638 H622 0.931 . S
C638 C632 1.383 . S
C638 C637 1.379 . S
H639 C633 0.959 . S
H640 C633 0.961 . S
H641 C633 0.960 . S
H642 C634 0.930 . S
H643 C635 0.929 . S
H644 C652 0.929 . S
H645 C654 0.930 . S
H646 C656 0.930 . S
H647 C659 0.929 . S
H648 C662 0.930 . S
H649 C664 0.960 . S
H650 C664 0.960 . S
H651 C664 0.960 . S
C652 H644 0.929 . S
C652 C653 1.377 . S
C652 C654 1.384 . S
C653 C652 1.377 . S
C653 C659 1.390 . S
C654 H645 0.930 . S
C654 C652 1.384 . S
C654 C655 1.372 . S
C655 C654 1.372 . S
C655 C656 1.400 . S
C655 C660 1.490 . S
C656 H646 0.930 . S
C656 C655 1.400 . S
C656 C659 1.386 . S
H657 C673 0.930 1_556 S
H658 C674 0.931 . S
C659 H647 0.929 . S
C659 C653 1.390 . S
C659 C656 1.386 . S
C660 C655 1.490 . S
C660 C662 1.395 . S
C660 C663 1.403 . S
H661 C667 0.930 . S
C662 H648 0.930 . S
C662 C660 1.395 . S
C662 C665 1.403 . S
C663 C660 1.403 . S
C663 C664 1.524 . S
C663 C667 1.400 . S
C664 H649 0.960 . S
C664 H650 0.960 . S
C664 H651 0.960 . S
C664 C663 1.524 . S
C665 C662 1.403 . S
C665 C666 1.392 . S
C665 C669 1.495 . S
C666 C665 1.392 . S
C666 C667 1.385 . S
C666 C668 1.478 . S
C667 H661 0.930 . S
C667 C663 1.400 . S
C667 C666 1.385 . S
C668 C666 1.478 . S
C668 C670 1.381 . S
C668 C674 1.383 . S
C669 C665 1.495 . S
C669 H675 0.959 . S
C669 H676 0.961 . S
C669 H677 0.960 . S
C670 C668 1.381 . S
C670 C671 1.394 . S
C670 H678 0.930 . S
C671 C670 1.394 . S
C671 C672 1.383 . S
C671 H679 0.929 . S
C672 C671 1.383 . S
C672 C673 1.377 . S
C673 H657 0.930 1_554 S
C673 C672 1.377 . S
C673 C674 1.379 . S
C674 H658 0.931 . S
C674 C668 1.383 . S
C674 C673 1.379 . S
H675 C669 0.959 . S
H676 C669 0.961 . S
H677 C669 0.960 . S
H678 C670 0.930 . S
H679 C671 0.929 . S
H680 C688 0.929 . S
H681 C690 0.930 . S
H682 C692 0.930 . S
H683 C695 0.929 . S
H684 C698 0.930 . S
H685 C700 0.960 . S
H686 C700 0.960 . S
H687 C700 0.960 . S
C688 H680 0.929 . S
C688 C689 1.377 . S
C688 C690 1.384 . S
C689 C688 1.377 . S
C689 C695 1.390 . S
C690 H681 0.930 . S
C690 C688 1.384 . S
C690 C691 1.372 . S
C691 C690 1.372 . S
C691 C692 1.400 . S
C691 C696 1.490 . S
C692 H682 0.930 . S
C692 C691 1.400 . S
C692 C695 1.386 . S
H693 C709 0.930 . S
H694 C710 0.931 . S
C695 H683 0.929 . S
C695 C689 1.390 . S
C695 C692 1.386 . S
C696 C691 1.490 . S
C696 C698 1.395 . S
C696 C699 1.403 . S
H697 C703 0.930 . S
C698 H684 0.930 . S
C698 C696 1.395 . S
C698 C701 1.403 . S
C699 C696 1.403 . S
C699 C700 1.524 . S
C699 C703 1.400 . S
C700 H685 0.960 . S
C700 H686 0.960 . S
C700 H687 0.960 . S
C700 C699 1.524 . S
C701 C698 1.403 . S
C701 C702 1.392 . S
C701 C705 1.495 . S
C702 C701 1.392 . S
C702 C703 1.385 . S
C702 C704 1.478 . S
C703 H697 0.930 . S
C703 C699 1.400 . S
C703 C702 1.385 . S
C704 C702 1.478 . S
C704 C706 1.381 . S
C704 C710 1.383 . S
C705 C701 1.495 . S
C705 H711 0.959 . S
C705 H712 0.961 . S
C705 H713 0.960 . S
C706 C704 1.381 . S
C706 C707 1.394 . S
C706 H714 0.930 . S
C707 C706 1.394 . S
C707 C708 1.383 . S
C707 H715 0.929 . S
C708 C707 1.383 . S
C708 C709 1.377 . S
C709 H693 0.930 . S
C709 C708 1.377 . S
C709 C710 1.379 . S
C710 H694 0.931 . S
C710 C704 1.383 . S
C710 C709 1.379 . S
H711 C705 0.959 . S
H712 C705 0.961 . S
H713 C705 0.960 . S
H714 C706 0.930 . S
H715 C707 0.929 . S
H716 C724 0.929 . S
H717 C726 0.930 . S
H718 C728 0.930 . S
H719 C731 0.929 . S
H720 C734 0.930 . S
H721 C736 0.960 . S
H722 C736 0.960 . S
H723 C736 0.960 . S
C724 H716 0.929 . S
C724 C725 1.377 . S
C724 C726 1.384 . S
C725 C724 1.377 . S
C725 C731 1.390 . S
C726 H717 0.930 . S
C726 C724 1.384 . S
C726 C727 1.372 . S
C727 C726 1.372 . S
C727 C728 1.400 . S
C727 C732 1.490 . S
C728 H718 0.930 . S
C728 C727 1.400 . S
C728 C731 1.386 . S
H729 C745 0.930 . S
H730 C746 0.931 . S
C731 H719 0.929 . S
C731 C725 1.390 . S
C731 C728 1.386 . S
C732 C727 1.490 . S
C732 C734 1.395 . S
C732 C735 1.403 . S
H733 C739 0.930 . S
C734 H720 0.930 . S
C734 C732 1.395 . S
C734 C737 1.403 . S
C735 C732 1.403 . S
C735 C736 1.524 . S
C735 C739 1.400 . S
C736 H721 0.960 . S
C736 H722 0.960 . S
C736 H723 0.960 . S
C736 C735 1.524 . S
C737 C734 1.403 . S
C737 C738 1.392 . S
C737 C741 1.495 . S
C738 C737 1.392 . S
C738 C739 1.385 . S
C738 C740 1.478 . S
C739 H733 0.930 . S
C739 C735 1.400 . S
C739 C738 1.385 . S
C740 C738 1.478 . S
C740 C742 1.381 . S
C740 C746 1.383 . S
C741 C737 1.495 . S
C741 H747 0.959 . S
C741 H748 0.961 . S
C741 H749 0.960 . S
C742 C740 1.381 . S
C742 C743 1.394 . S
C742 H750 0.930 . S
C743 C742 1.394 . S
C743 C744 1.383 . S
C743 H751 0.929 . S
C744 C743 1.383 . S
C744 C745 1.377 . S
C745 H729 0.930 . S
C745 C744 1.377 . S
C745 C746 1.379 . S
C746 H730 0.931 . S
C746 C740 1.383 . S
C746 C745 1.379 . S
H747 C741 0.959 . S
H748 C741 0.961 . S
H749 C741 0.960 . S
H750 C742 0.930 . S
H751 C743 0.929 . S
H752 C760 0.929 . S
H753 C762 0.930 . S
H754 C764 0.930 . S
H755 C767 0.929 . S
H756 C770 0.930 . S
H757 C772 0.960 . S
H758 C772 0.960 . S
H759 C772 0.960 . S
C760 H752 0.929 . S
C760 C761 1.377 . S
C760 C762 1.384 . S
C761 C760 1.377 . S
C761 C767 1.390 . S
C762 H753 0.930 . S
C762 C760 1.384 . S
C762 C763 1.372 . S
C763 C762 1.372 . S
C763 C764 1.400 . S
C763 C768 1.490 . S
C764 H754 0.930 . S
C764 C763 1.400 . S
C764 C767 1.386 . S
H765 C781 0.930 . S
H766 C782 0.931 . S
C767 H755 0.929 . S
C767 C761 1.390 . S
C767 C764 1.386 . S
C768 C763 1.490 . S
C768 C770 1.395 . S
C768 C771 1.403 . S
H769 C775 0.930 . S
C770 H756 0.930 . S
C770 C768 1.395 . S
C770 C773 1.403 . S
C771 C768 1.403 . S
C771 C772 1.524 . S
C771 C775 1.400 . S
C772 H757 0.960 . S
C772 H758 0.960 . S
C772 H759 0.960 . S
C772 C771 1.524 . S
C773 C770 1.403 . S
C773 C774 1.392 . S
C773 C777 1.495 . S
C774 C773 1.392 . S
C774 C775 1.385 . S
C774 C776 1.478 . S
C775 H769 0.930 . S
C775 C771 1.400 . S
C775 C774 1.385 . S
C776 C774 1.478 . S
C776 C778 1.381 . S
C776 C782 1.383 . S
C777 C773 1.495 . S
C777 H783 0.959 . S
C777 H784 0.961 . S
C777 H785 0.960 . S
C778 C776 1.381 . S
C778 C779 1.394 . S
C778 H786 0.930 . S
C779 C778 1.394 . S
C779 C780 1.383 . S
C779 H787 0.929 . S
C780 C779 1.383 . S
C780 C781 1.377 . S
C781 H765 0.930 . S
C781 C780 1.377 . S
C781 C782 1.379 . S
C782 H766 0.931 . S
C782 C776 1.383 . S
C782 C781 1.379 . S
H783 C777 0.959 . S
H784 C777 0.961 . S
H785 C777 0.960 . S
H786 C778 0.930 . S
H787 C779 0.929 . S
H788 C796 0.929 . S
H789 C798 0.930 . S
H790 C800 0.930 . S
H791 C803 0.929 . S
H792 C806 0.930 . S
H793 C808 0.960 . S
H794 C808 0.960 . S
H795 C808 0.960 . S
C796 H788 0.929 . S
C796 C797 1.377 . S
C796 C798 1.384 . S
C797 C796 1.377 . S
C797 C803 1.390 . S
C798 H789 0.930 . S
C798 C796 1.384 . S
C798 C799 1.372 . S
C799 C798 1.372 . S
C799 C800 1.400 . S
C799 C804 1.490 . S
C800 H790 0.930 . S
C800 C799 1.400 . S
C800 C803 1.386 . S
H801 C817 0.930 . S
H802 C818 0.931 . S
C803 H791 0.929 . S
C803 C797 1.390 . S
C803 C800 1.386 . S
C804 C799 1.490 . S
C804 C806 1.395 . S
C804 C807 1.403 . S
H805 C811 0.930 . S
C806 H792 0.930 . S
C806 C804 1.395 . S
C806 C809 1.403 . S
C807 C804 1.403 . S
C807 C808 1.524 . S
C807 C811 1.400 . S
C808 H793 0.960 . S
C808 H794 0.960 . S
C808 H795 0.960 . S
C808 C807 1.524 . S
C809 C806 1.403 . S
C809 C810 1.392 . S
C809 C813 1.495 . S
C810 C809 1.392 . S
C810 C811 1.385 . S
C810 C812 1.478 . S
C811 H805 0.930 . S
C811 C807 1.400 . S
C811 C810 1.385 . S
C812 C810 1.478 . S
C812 C814 1.381 . S
C812 C818 1.383 . S
C813 C809 1.495 . S
C813 H819 0.959 . S
C813 H820 0.961 . S
C813 H821 0.960 . S
C814 C812 1.381 . S
C814 C815 1.394 . S
C814 H822 0.930 . S
C815 C814 1.394 . S
C815 C816 1.383 . S
C815 H823 0.929 . S
C816 C815 1.383 . S
C816 C817 1.377 . S
C817 H801 0.930 . S
C817 C816 1.377 . S
C817 C818 1.379 . S
C818 H802 0.931 . S
C818 C812 1.383 . S
C818 C817 1.379 . S
H819 C813 0.959 . S
H820 C813 0.961 . S
H821 C813 0.960 . S
H822 C814 0.930 . S
H823 C815 0.929 . S
H824 C832 0.929 . S
H825 C834 0.930 . S
H826 C836 0.930 . S
H827 C839 0.929 . S
H828 C842 0.930 . S
H829 C844 0.960 . S
H830 C844 0.960 . S
H831 C844 0.960 . S
C832 H824 0.929 . S
C832 C833 1.377 . S
C832 C834 1.384 . S
C833 C832 1.377 . S
C833 C839 1.390 . S
C834 H825 0.930 . S
C834 C832 1.384 . S
C834 C835 1.372 . S
C835 C834 1.372 . S
C835 C836 1.400 . S
C835 C840 1.490 . S
C836 H826 0.930 . S
C836 C835 1.400 . S
C836 C839 1.386 . S
H837 C853 0.930 . S
H838 C854 0.931 . S
C839 H827 0.929 . S
C839 C833 1.390 . S
C839 C836 1.386 . S
C840 C835 1.490 . S
C840 C842 1.395 . S
C840 C843 1.403 . S
H841 C847 0.930 . S
C842 H828 0.930 . S
C842 C840 1.395 . S
C842 C845 1.403 . S
C843 C840 1.403 . S
C843 C844 1.524 . S
C843 C847 1.400 . S
C844 H829 0.960 . S
C844 H830 0.960 . S
C844 H831 0.960 . S
C844 C843 1.524 . S
C845 C842 1.403 . S
C845 C846 1.392 . S
C845 C849 1.495 . S
C846 C845 1.392 . S
C846 C847 1.385 . S
C846 C848 1.478 . S
C847 H841 0.930 . S
C847 C843 1.400 . S
C847 C846 1.385 . S
C848 C846 1.478 . S
C848 C850 1.381 . S
C848 C854 1.383 . S
C849 C845 1.495 . S
C849 H855 0.959 . S
C849 H856 0.961 . S
C849 H857 0.960 . S
C850 C848 1.381 . S
C850 C851 1.394 . S
C850 H858 0.930 . S
C851 C850 1.394 . S
C851 C852 1.383 . S
C851 H859 0.929 . S
C852 C851 1.383 . S
C852 C853 1.377 . S
C853 H837 0.930 . S
C853 C852 1.377 . S
C853 C854 1.379 . S
C854 H838 0.931 . S
C854 C848 1.383 . S
C854 C853 1.379 . S
H855 C849 0.959 . S
H856 C849 0.961 . S
H857 C849 0.960 . S
H858 C850 0.930 . S
H859 C851 0.929 . S
H860 C868 0.929 . S
H861 C870 0.930 . S
H862 C872 0.930 . S
H863 C875 0.929 . S
H864 C878 0.930 . S
H865 C880 0.960 . S
H866 C880 0.960 . S
H867 C880 0.960 . S
C868 H860 0.929 . S
C868 C869 1.377 . S
C868 C870 1.384 . S
C869 C868 1.377 . S
C869 C875 1.390 . S
C870 H861 0.930 . S
C870 C868 1.384 . S
C870 C871 1.372 . S
C871 C870 1.372 . S
C871 C872 1.400 . S
C871 C876 1.490 . S
C872 H862 0.930 . S
C872 C871 1.400 . S
C872 C875 1.386 . S
H873 C889 0.930 . S
H874 C890 0.931 . S
C875 H863 0.929 . S
C875 C869 1.390 . S
C875 C872 1.386 . S
C876 C871 1.490 . S
C876 C878 1.395 . S
C876 C879 1.403 . S
H877 C883 0.930 . S
C878 H864 0.930 . S
C878 C876 1.395 . S
C878 C881 1.403 . S
C879 C876 1.403 . S
C879 C880 1.524 . S
C879 C883 1.400 . S
C880 H865 0.960 . S
C880 H866 0.960 . S
C880 H867 0.960 . S
C880 C879 1.524 . S
C881 C878 1.403 . S
C881 C882 1.392 . S
C881 C885 1.495 . S
C882 C881 1.392 . S
C882 C883 1.385 . S
C882 C884 1.478 . S
C883 H877 0.930 . S
C883 C879 1.400 . S
C883 C882 1.385 . S
C884 C882 1.478 . S
C884 C886 1.381 . S
C884 C890 1.383 . S
C885 C881 1.495 . S
C885 H891 0.959 . S
C885 H892 0.961 . S
C885 H893 0.960 . S
C886 C884 1.381 . S
C886 C887 1.394 . S
C886 H894 0.930 . S
C887 C886 1.394 . S
C887 C888 1.383 . S
C887 H895 0.929 . S
C888 C887 1.383 . S
C888 C889 1.377 . S
C889 H873 0.930 . S
C889 C888 1.377 . S
C889 C890 1.379 . S
C890 H874 0.931 . S
C890 C884 1.383 . S
C890 C889 1.379 . S
H891 C885 0.959 . S
H892 C885 0.961 . S
H893 C885 0.960 . S
H894 C886 0.930 . S
H895 C887 0.929 . S
H896 C904 0.929 . S
H897 C906 0.930 . S
H898 C908 0.930 . S
H899 C911 0.929 . S
H900 C914 0.930 . S
H901 C916 0.960 . S
H902 C916 0.960 . S
H903 C916 0.960 . S
C904 H896 0.929 . S
C904 C905 1.377 . S
C904 C906 1.384 . S
C905 C904 1.377 . S
C905 C911 1.390 1_545 S
C906 H897 0.930 . S
C906 C904 1.384 . S
C906 C907 1.372 . S
C907 C906 1.372 . S
C907 C908 1.400 1_545 S
C907 C912 1.490 . S
C908 H898 0.930 . S
C908 C907 1.400 1_565 S
C908 C911 1.386 . S
H909 C925 0.930 . S
H910 C926 0.931 . S
C911 H899 0.929 . S
C911 C905 1.390 1_565 S
C911 C908 1.386 . S
C912 C907 1.490 . S
C912 C914 1.395 . S
C912 C915 1.403 1_645 S
H913 C919 0.930 . S
C914 H900 0.930 . S
C914 C912 1.395 . S
C914 C917 1.403 1_556 S
C915 C912 1.403 1_465 S
C915 C916 1.524 . S
C915 C919 1.400 1_556 S
C916 H901 0.960 . S
C916 H902 0.960 . S
C916 H903 0.960 . S
C916 C915 1.524 . S
C917 C914 1.403 1_554 S
C917 C918 1.392 1_655 S
C917 C921 1.495 . S
C918 C917 1.392 1_455 S
C918 C919 1.385 1_545 S
C918 C920 1.478 1_545 S
C919 H913 0.930 . S
C919 C915 1.400 1_554 S
C919 C918 1.385 1_565 S
C920 C918 1.478 1_565 S
C920 C922 1.381 1_565 S
C920 C926 1.383 . S
C921 C917 1.495 . S
C921 H927 0.959 . S
C921 H928 0.961 . S
C921 H929 0.960 . S
C922 C920 1.381 1_545 S
C922 C923 1.394 . S
C922 H930 0.930 . S
C923 C922 1.394 . S
C923 C924 1.383 1_545 S
C923 H931 0.929 . S
C924 C923 1.383 1_565 S
C924 C925 1.377 . S
C925 H909 0.930 . S
C925 C924 1.377 . S
C925 C926 1.379 . S
C926 H910 0.931 . S
C926 C920 1.383 . S
C926 C925 1.379 . S
H927 C921 0.959 . S
H928 C921 0.961 . S
H929 C921 0.960 . S
H930 C922 0.930 . S
H931 C923 0.929 . S
H932 C940 0.929 . S
H933 C942 0.930 . S
H934 C944 0.930 . S
H935 C947 0.929 . S
H936 C950 0.930 . S
H937 C952 0.960 . S
H938 C952 0.960 . S
H939 C952 0.960 . S
C940 H932 0.929 . S
C940 C941 1.377 . S
C940 C942 1.384 . S
C941 C940 1.377 . S
C941 C947 1.390 . S
C942 H933 0.930 . S
C942 C940 1.384 . S
C942 C943 1.372 . S
C943 C942 1.372 . S
C943 C944 1.400 . S
C943 C948 1.490 . S
C944 H934 0.930 . S
C944 C943 1.400 . S
C944 C947 1.386 . S
H945 C961 0.930 . S
H946 C962 0.931 . S
C947 H935 0.929 . S
C947 C941 1.390 . S
C947 C944 1.386 . S
C948 C943 1.490 . S
C948 C950 1.395 . S
C948 C951 1.403 . S
H949 C955 0.930 . S
C950 H936 0.930 . S
C950 C948 1.395 . S
C950 C953 1.403 . S
C951 C948 1.403 . S
C951 C952 1.524 . S
C951 C955 1.400 . S
C952 H937 0.960 . S
C952 H938 0.960 . S
C952 H939 0.960 . S
C952 C951 1.524 . S
C953 C950 1.403 . S
C953 C954 1.392 . S
C953 C957 1.495 . S
C954 C953 1.392 . S
C954 C955 1.385 . S
C954 C956 1.478 . S
C955 H949 0.930 . S
C955 C951 1.400 . S
C955 C954 1.385 . S
C956 C954 1.478 . S
C956 C958 1.381 . S
C956 C962 1.383 . S
C957 C953 1.495 . S
C957 H963 0.959 . S
C957 H964 0.961 . S
C957 H965 0.960 . S
C958 C956 1.381 . S
C958 C959 1.394 . S
C958 H966 0.930 . S
C959 C958 1.394 . S
C959 C960 1.383 . S
C959 H967 0.929 . S
C960 C959 1.383 . S
C960 C961 1.377 . S
C961 H945 0.930 . S
C961 C960 1.377 . S
C961 C962 1.379 . S
C962 H946 0.931 . S
C962 C956 1.383 . S
C962 C961 1.379 . S
H963 C957 0.959 . S
H964 C957 0.961 . S
H965 C957 0.960 . S
H966 C958 0.930 . S
H967 C959 0.929 . S
H968 C976 0.929 . S
H969 C978 0.930 . S
H970 C980 0.930 . S
H971 C983 0.929 . S
H972 C986 0.930 . S
H973 C988 0.960 . S
H974 C988 0.960 . S
H975 C988 0.960 . S
C976 H968 0.929 . S
C976 C977 1.377 . S
C976 C978 1.384 . S
C977 C976 1.377 . S
C977 C983 1.390 1_545 S
C978 H969 0.930 . S
C978 C976 1.384 . S
C978 C979 1.372 . S
C979 C978 1.372 . S
C979 C980 1.400 1_545 S
C979 C984 1.490 . S
C980 H970 0.930 . S
C980 C979 1.400 1_565 S
C980 C983 1.386 . S
H981 C997 0.930 . S
H982 C998 0.931 . S
C983 H971 0.929 . S
C983 C977 1.390 1_565 S
C983 C980 1.386 . S
C984 C979 1.490 . S
C984 C986 1.395 1_545 S
C984 C987 1.403 . S
H985 C991 0.930 . S
C986 H972 0.930 . S
C986 C984 1.395 1_565 S
C986 C989 1.403 . S
C987 C984 1.403 . S
C987 C988 1.524 . S
C987 C991 1.400 . S
C988 H973 0.960 . S
C988 H974 0.960 . S
C988 H975 0.960 . S
C988 C987 1.524 . S
C989 C986 1.403 . S
C989 C990 1.392 . S
C989 C993 1.495 . S
C990 C989 1.392 . S
C990 C991 1.385 1_565 S
C990 C992 1.478 . S
C991 H985 0.930 . S
C991 C987 1.400 . S
C991 C990 1.385 1_545 S
C992 C990 1.478 . S
C992 C994 1.381 1_565 S
C992 C998 1.383 . S
C993 C989 1.495 . S
C993 H999 0.959 . S
C993 H1000 0.961 . S
C993 H1001 0.960 . S
C994 C992 1.381 1_545 S
C994 C995 1.394 . S
C994 H1002 0.930 . S
C995 C994 1.394 . S
C995 C996 1.383 1_545 S
C995 H1003 0.929 . S
C996 C995 1.383 1_565 S
C996 C997 1.377 . S
C997 H981 0.930 . S
C997 C996 1.377 . S
C997 C998 1.379 . S
C998 H982 0.931 . S
C998 C992 1.383 . S
C998 C997 1.379 . S
H999 C993 0.959 . S
H1000 C993 0.961 . S
H1001 C993 0.960 . S
H1002 C994 0.930 . S
H1003 C995 0.929 . S
H1004 C1012 0.929 . S
H1005 C1014 0.930 . S
H1006 C1016 0.930 . S
H1007 C1019 0.929 . S
H1008 C1022 0.930 . S
H1009 C1024 0.960 . S
H1010 C1024 0.960 . S
H1011 C1024 0.960 . S
C1012 H1004 0.929 . S
C1012 C1013 1.377 . S
C1012 C1014 1.384 . S
C1013 C1012 1.377 . S
C1013 C1019 1.390 . S
C1014 H1005 0.930 . S
C1014 C1012 1.384 . S
C1014 C1015 1.372 . S
C1015 C1014 1.372 . S
C1015 C1016 1.400 . S
C1015 C1020 1.490 . S
C1016 H1006 0.930 . S
C1016 C1015 1.400 . S
C1016 C1019 1.386 . S
H1017 C1033 0.930 . S
H1018 C1034 0.931 . S
C1019 H1007 0.929 . S
C1019 C1013 1.390 . S
C1019 C1016 1.386 . S
C1020 C1015 1.490 . S
C1020 C1022 1.395 . S
C1020 C1023 1.403 . S
H1021 C1027 0.930 . S
C1022 H1008 0.930 . S
C1022 C1020 1.395 . S
C1022 C1025 1.403 . S
C1023 C1020 1.403 . S
C1023 C1024 1.524 . S
C1023 C1027 1.400 . S
C1024 H1009 0.960 . S
C1024 H1010 0.960 . S
C1024 H1011 0.960 . S
C1024 C1023 1.524 . S
C1025 C1022 1.403 . S
C1025 C1026 1.392 . S
C1025 C1029 1.495 . S
C1026 C1025 1.392 . S
C1026 C1027 1.385 . S
C1026 C1028 1.478 . S
C1027 H1021 0.930 . S
C1027 C1023 1.400 . S
C1027 C1026 1.385 . S
C1028 C1026 1.478 . S
C1028 C1030 1.381 . S
C1028 C1034 1.383 . S
C1029 C1025 1.495 . S
C1029 H1035 0.959 . S
C1029 H1036 0.961 . S
C1029 H1037 0.960 . S
C1030 C1028 1.381 . S
C1030 C1031 1.394 . S
C1030 H1038 0.930 . S
C1031 C1030 1.394 . S
C1031 C1032 1.383 . S
C1031 H1039 0.929 . S
C1032 C1031 1.383 . S
C1032 C1033 1.377 . S
C1033 H1017 0.930 . S
C1033 C1032 1.377 . S
C1033 C1034 1.379 . S
C1034 H1018 0.931 . S
C1034 C1028 1.383 . S
C1034 C1033 1.379 . S
H1035 C1029 0.959 . S
H1036 C1029 0.961 . S
H1037 C1029 0.960 . S
H1038 C1030 0.930 . S
H1039 C1031 0.929 . S
H1040 C1048 0.929 . S
H1041 C1050 0.930 . S
H1042 C1052 0.930 . S
H1043 C1055 0.929 . S
H1044 C1058 0.930 . S
H1045 C1060 0.960 . S
H1046 C1060 0.960 . S
H1047 C1060 0.960 . S
C1048 H1040 0.929 . S
C1048 C1049 1.377 . S
C1048 C1050 1.384 . S
C1049 C1048 1.377 . S
C1049 C1055 1.390 . S
C1050 H1041 0.930 . S
C1050 C1048 1.384 . S
C1050 C1051 1.372 . S
C1051 C1050 1.372 . S
C1051 C1052 1.400 . S
C1051 C1056 1.490 . S
C1052 H1042 0.930 . S
C1052 C1051 1.400 . S
C1052 C1055 1.386 . S
H1053 C1069 0.930 . S
H1054 C1070 0.931 . S
C1055 H1043 0.929 . S
C1055 C1049 1.390 . S
C1055 C1052 1.386 . S
C1056 C1051 1.490 . S
C1056 C1058 1.395 . S
C1056 C1059 1.403 . S
H1057 C1063 0.930 . S
C1058 H1044 0.930 . S
C1058 C1056 1.395 . S
C1058 C1061 1.403 . S
C1059 C1056 1.403 . S
C1059 C1060 1.524 . S
C1059 C1063 1.400 . S
C1060 H1045 0.960 . S
C1060 H1046 0.960 . S
C1060 H1047 0.960 . S
C1060 C1059 1.524 . S
C1061 C1058 1.403 . S
C1061 C1062 1.392 . S
C1061 C1065 1.495 . S
C1062 C1061 1.392 . S
C1062 C1063 1.385 . S
C1062 C1064 1.478 . S
C1063 H1057 0.930 . S
C1063 C1059 1.400 . S
C1063 C1062 1.385 . S
C1064 C1062 1.478 . S
C1064 C1066 1.381 . S
C1064 C1070 1.383 . S
C1065 C1061 1.495 . S
C1065 H1071 0.959 . S
C1065 H1072 0.961 . S
C1065 H1073 0.960 . S
C1066 C1064 1.381 . S
C1066 C1067 1.394 . S
C1066 H1074 0.930 . S
C1067 C1066 1.394 . S
C1067 C1068 1.383 . S
C1067 H1075 0.929 . S
C1068 C1067 1.383 . S
C1068 C1069 1.377 . S
C1069 H1053 0.930 . S
C1069 C1068 1.377 . S
C1069 C1070 1.379 . S
C1070 H1054 0.931 . S
C1070 C1064 1.383 . S
C1070 C1069 1.379 . S
H1071 C1065 0.959 . S
H1072 C1065 0.961 . S
H1073 C1065 0.960 . S
H1074 C1066 0.930 . S
H1075 C1067 0.929 . S
H1076 C1084 0.929 . S
H1077 C1086 0.930 . S
H1078 C1088 0.930 . S
H1079 C1091 0.929 . S
H1080 C1094 0.930 . S
H1081 C1096 0.960 . S
H1082 C1096 0.960 . S
H1083 C1096 0.960 . S
C1084 H1076 0.929 . S
C1084 C1085 1.377 . S
C1084 C1086 1.384 . S
C1085 C1084 1.377 . S
C1085 C1091 1.390 . S
C1086 H1077 0.930 . S
C1086 C1084 1.384 . S
C1086 C1087 1.372 . S
C1087 C1086 1.372 . S
C1087 C1088 1.400 . S
C1087 C1092 1.490 . S
C1088 H1078 0.930 . S
C1088 C1087 1.400 . S
C1088 C1091 1.386 . S
H1089 C1105 0.930 . S
H1090 C1106 0.931 . S
C1091 H1079 0.929 . S
C1091 C1085 1.390 . S
C1091 C1088 1.386 . S
C1092 C1087 1.490 . S
C1092 C1094 1.395 . S
C1092 C1095 1.403 . S
H1093 C1099 0.930 . S
C1094 H1080 0.930 . S
C1094 C1092 1.395 . S
C1094 C1097 1.403 . S
C1095 C1092 1.403 . S
C1095 C1096 1.524 . S
C1095 C1099 1.400 . S
C1096 H1081 0.960 . S
C1096 H1082 0.960 . S
C1096 H1083 0.960 . S
C1096 C1095 1.524 . S
C1097 C1094 1.403 . S
C1097 C1098 1.392 . S
C1097 C1101 1.495 . S
C1098 C1097 1.392 . S
C1098 C1099 1.385 . S
C1098 C1100 1.478 . S
C1099 H1093 0.930 . S
C1099 C1095 1.400 . S
C1099 C1098 1.385 . S
C1100 C1098 1.478 . S
C1100 C1102 1.381 . S
C1100 C1106 1.383 . S
C1101 C1097 1.495 . S
C1101 H1107 0.959 . S
C1101 H1108 0.961 . S
C1101 H1109 0.960 . S
C1102 C1100 1.381 . S
C1102 C1103 1.394 . S
C1102 H1110 0.930 . S
C1103 C1102 1.394 . S
C1103 C1104 1.383 . S
C1103 H1111 0.929 . S
C1104 C1103 1.383 . S
C1104 C1105 1.377 . S
C1105 H1089 0.930 . S
C1105 C1104 1.377 . S
C1105 C1106 1.379 . S
C1106 H1090 0.931 . S
C1106 C1100 1.383 . S
C1106 C1105 1.379 . S
H1107 C1101 0.959 . S
H1108 C1101 0.961 . S
H1109 C1101 0.960 . S
H1110 C1102 0.930 . S
H1111 C1103 0.929 . S
H1112 C1120 0.929 . S
H1113 C1122 0.930 . S
H1114 C1124 0.930 . S
H1115 C1127 0.929 . S
H1116 C1130 0.930 . S
H1117 C1132 0.960 . S
H1118 C1132 0.960 . S
H1119 C1132 0.960 . S
C1120 H1112 0.929 . S
C1120 C1121 1.377 . S
C1120 C1122 1.384 . S
C1121 C1120 1.377 . S
C1121 C1127 1.390 . S
C1122 H1113 0.930 . S
C1122 C1120 1.384 . S
C1122 C1123 1.372 . S
C1123 C1122 1.372 . S
C1123 C1124 1.400 . S
C1123 C1128 1.490 . S
C1124 H1114 0.930 . S
C1124 C1123 1.400 . S
C1124 C1127 1.386 . S
H1125 C1141 0.930 . S
H1126 C1142 0.931 . S
C1127 H1115 0.929 . S
C1127 C1121 1.390 . S
C1127 C1124 1.386 . S
C1128 C1123 1.490 . S
C1128 C1130 1.395 . S
C1128 C1131 1.403 . S
H1129 C1135 0.930 . S
C1130 H1116 0.930 . S
C1130 C1128 1.395 . S
C1130 C1133 1.403 . S
C1131 C1128 1.403 . S
C1131 C1132 1.524 . S
C1131 C1135 1.400 . S
C1132 H1117 0.960 . S
C1132 H1118 0.960 . S
C1132 H1119 0.960 . S
C1132 C1131 1.524 . S
C1133 C1130 1.403 . S
C1133 C1134 1.392 . S
C1133 C1137 1.495 . S
C1134 C1133 1.392 . S
C1134 C1135 1.385 . S
C1134 C1136 1.478 . S
C1135 H1129 0.930 . S
C1135 C1131 1.400 . S
C1135 C1134 1.385 . S
C1136 C1134 1.478 . S
C1136 C1138 1.381 . S
C1136 C1142 1.383 . S
C1137 C1133 1.495 . S
C1137 H1143 0.959 . S
C1137 H1144 0.961 . S
C1137 H1145 0.960 . S
C1138 C1136 1.381 . S
C1138 C1139 1.394 . S
C1138 H1146 0.930 . S
C1139 C1138 1.394 . S
C1139 C1140 1.383 . S
C1139 H1147 0.929 . S
C1140 C1139 1.383 . S
C1140 C1141 1.377 . S
C1141 H1125 0.930 . S
C1141 C1140 1.377 . S
C1141 C1142 1.379 . S
C1142 H1126 0.931 . S
C1142 C1136 1.383 . S
C1142 C1141 1.379 . S
H1143 C1137 0.959 . S
H1144 C1137 0.961 . S
H1145 C1137 0.960 . S
H1146 C1138 0.930 . S
H1147 C1139 0.929 . S
H1148 C1156 0.932 . S
H1149 C1158 0.930 . S
H1150 C1160 0.930 . S
H1151 C1163 0.929 . S
H1152 C1166 0.930 . S
H1153 C1168 0.960 . S
H1154 C1168 0.960 . S
H1155 C1168 0.960 . S
C1156 H1148 0.932 . S
C1156 C1157 1.374 1_655 S
C1156 C1158 1.385 . S
C1157 C1156 1.374 1_455 S
C1157 C1163 1.390 . S
C1158 H1149 0.930 . S
C1158 C1156 1.385 . S
C1158 C1159 1.372 1_655 S
C1159 C1158 1.372 1_455 S
C1159 C1160 1.400 . S
C1159 C1164 1.490 . S
C1160 H1150 0.930 . S
C1160 C1159 1.400 . S
C1160 C1163 1.386 . S
H1161 C1177 0.930 1_455 S
H1162 C1178 0.929 1_455 S
C1163 H1151 0.929 . S
C1163 C1157 1.390 . S
C1163 C1160 1.386 . S
C1164 C1159 1.490 . S
C1164 C1166 1.395 1_455 S
C1164 C1167 1.403 . S
H1165 C1171 0.930 . S
C1166 H1152 0.930 . S
C1166 C1164 1.395 1_655 S
C1166 C1169 1.403 1_556 S
C1167 C1164 1.403 . S
C1167 C1168 1.524 . S
C1167 C1171 1.400 1_556 S
C1168 H1153 0.960 . S
C1168 H1154 0.960 . S
C1168 H1155 0.960 . S
C1168 C1167 1.524 . S
C1169 C1166 1.403 1_554 S
C1169 C1170 1.392 . S
C1169 C1173 1.495 . S
C1170 C1169 1.392 . S
C1170 C1171 1.385 1_655 S
C1170 C1172 1.478 . S
C1171 H1165 0.930 . S
C1171 C1167 1.400 1_554 S
C1171 C1170 1.385 1_455 S
C1172 C1170 1.478 . S
C1172 C1174 1.381 . S
C1172 C1178 1.385 . S
C1173 C1169 1.495 . S
C1173 H1179 0.959 . S
C1173 H1180 0.961 . S
C1173 H1181 0.960 . S
C1174 C1172 1.381 . S
C1174 C1175 1.394 . S
C1174 H1182 0.930 . S
C1175 C1174 1.394 . S
C1175 C1176 1.383 . S
C1175 H1183 0.929 . S
C1176 C1175 1.383 . S
C1176 C1177 1.377 . S
C1177 H1161 0.930 1_655 S
C1177 C1176 1.377 . S
C1177 C1178 1.380 . S
C1178 H1162 0.929 1_655 S
C1178 C1172 1.385 . S
C1178 C1177 1.380 . S
H1179 C1173 0.959 . S
H1180 C1173 0.961 . S
H1181 C1173 0.960 . S
H1182 C1174 0.930 . S
H1183 C1175 0.929 . S
C329 C31 1.512 . S
C348 C143 1.479 . S
C365 C23 1.503 . S
C384 C71 1.515 . S
C401 C63 1.498 . S
C420 C111 1.510 . S
C437 C103 1.503 . S
C456 C151 1.512 . S
C473 C20 1.511 . S
C492 C202 1.500 . S
C509 C2 1.500 . S
C528 C180 1.503 . S
C545 C162 1.500 . S
C564 C100 1.511 . S
C581 C220 1.513 . S
C600 C82 1.516 . S
C617 C271 1.512 . S
C636 C223 1.503 . S
C653 C191 1.513 . S
C672 C263 1.502 . S
C689 C311 1.513 . S
C708 C183 1.507 . S
C725 C231 1.513 . S
C744 C303 1.496 . S
C761 C122 1.498 . S
C780 C260 1.513 . S
C797 C242 1.497 . S
C816 C60 1.512 . S
C833 C42 1.498 . S
C852 C300 1.504 . S
C869 C140 1.512 . S
C888 C282 1.508 . S
C905 C4 1.460 . S
C924 C25 1.440 . S
C941 C65 1.457 . S
C960 C44 1.450 . S
C977 C105 1.462 . S
C996 C84 1.476 . S
C1013 C145 1.460 . S
C1032 C124 1.472 . S
C1049 C185 1.464 . S
C1068 C164 1.476 . S
C1085 C225 1.460 . S
C1104 C204 1.440 . S
C1121 C265 1.464 . S
C1140 C244 1.475 . S
C1157 C284 1.459 . S
C1176 C305 1.467 . S
