# Generated by pormake.
# Topology nbo, (4)-cn, num edge types: 1
# Building blocks:
#     Node 0, Type 0, BuildingBlock: KOZSID_clean_sbu_0, # of connection points: 4
#     Node 1, Type 0, BuildingBlock: KOZSID_clean_sbu_0, # of connection points: 4
#     Node 2, Type 0, BuildingBlock: KOZSID_clean_sbu_0, # of connection points: 4
#     Node 3, Type 0, BuildingBlock: KOZSID_clean_sbu_0, # of connection points: 4
#     Node 4, Type 0, BuildingBlock: KOZSID_clean_sbu_0, # of connection points: 4
#     Node 5, Type 0, BuildingBlock: KOZSID_clean_sbu_0, # of connection points: 4
#     Edge 6, Type (0, 0), BuildingBlock: ZUJKAS_clean_linker_0, # of connection points: 2
#     Edge 7, Type (0, 0), BuildingBlock: ZUJKAS_clean_linker_0, # of connection points: 2
#     Edge 8, Type (0, 0), BuildingBlock: ZUJKAS_clean_linker_0, # of connection points: 2
#     Edge 9, Type (0, 0), BuildingBlock: ZUJKAS_clean_linker_0, # of connection points: 2
#     Edge 10, Type (0, 0), BuildingBlock: ZUJKAS_clean_linker_0, # of connection points: 2
#     Edge 11, Type (0, 0), BuildingBlock: ZUJKAS_clean_linker_0, # of connection points: 2
#     Edge 12, Type (0, 0), BuildingBlock: ZUJKAS_clean_linker_0, # of connection points: 2
#     Edge 13, Type (0, 0), BuildingBlock: ZUJKAS_clean_linker_0, # of connection points: 2
#     Edge 14, Type (0, 0), BuildingBlock: ZUJKAS_clean_linker_0, # of connection points: 2
#     Edge 15, Type (0, 0), BuildingBlock: ZUJKAS_clean_linker_0, # of connection points: 2
#     Edge 16, Type (0, 0), BuildingBlock: ZUJKAS_clean_linker_0, # of connection points: 2
#     Edge 17, Type (0, 0), BuildingBlock: ZUJKAS_clean_linker_0, # of connection points: 2
# Relax obj value: 0.000
# Max RMSD: 0.000
# Mean RMSD: 0.000
data_MOF--net-nbo--node1-KOZSID_clean_sbu_0--edge1-ZUJKAS_clean_linker_0
_symmetry_space_group_name_H-M    P1
_symmetry_Int_Tables_number       1
_symmetry_cell_setting            triclinic
loop_
_symmetry_equiv_pos_as_xyz
'x, y, z'
_cell_length_a     42.414369
_cell_length_b     48.14604
_cell_length_c     45.364442
_cell_angle_alpha  106.68948
_cell_angle_beta   107.36478
_cell_angle_gamma 107.10977
loop_
_atom_site_label
_atom_site_type_symbol
_atom_site_fract_x
_atom_site_fract_y
_atom_site_fract_z
_atom_type_partial_charge
C0 C 0.91953 0.98455 0.47308 0.0
C1 C 0.88868 0.96924 0.44269 0.0
C2 C 0.90021 0.96326 0.41748 0.0
C3 C 0.93726 0.97528 0.43382 0.0
N4 N 0.95015 0.98826 0.46801 0.0
Co5 Co 0.00237 0.00979 0.5016 0.0
N6 N 0.01942 1.00222 0.46439 0.0
C7 C 0.99847 0.98729 0.43062 0.0
C8 C 0.01773 0.98429 0.41135 0.0
C9 C 0.05311 0.99775 0.43412 0.0
C10 C 0.05341 0.00843 0.46613 0.0
N11 N 0.05455 0.03173 0.53518 0.0
C12 C 0.08521 0.03571 0.53014 0.0
C13 C 0.11615 0.05265 0.56046 0.0
C14 C 0.10461 0.05903 0.58564 0.0
C15 C 0.06748 0.04586 0.56933 0.0
N16 N 0.98535 0.01693 0.53881 0.0
C17 C 0.00618 0.03091 0.57259 0.0
C18 C 0.98674 0.03256 0.59184 0.0
C19 C 0.95134 0.01911 0.56903 0.0
C20 C 0.95133 0.01012 0.53708 0.0
N21 N 1.00089 0.96829 0.50242 0.0
C22 C 1.00042 0.90971 0.5034 0.0
C23 C 0.01667 0.93732 0.53337 0.0
C24 C 0.01666 0.96607 0.5323 0.0
C25 C 0.9842 0.91195 0.47297 0.0
C26 C 0.98465 0.94114 0.47306 0.0
N27 N 0.00387 0.05133 0.50079 0.0
C28 C 0.01678 0.10681 0.53023 0.0
C29 C 0.00443 0.10987 0.49963 0.0
C30 C 0.992 0.08315 0.46963 0.0
C31 C 0.99179 0.05437 0.47077 0.0
C32 C 0.01645 0.07767 0.53024 0.0
H33 H 0.98146 0.03487 0.44698 0.0
H34 H 0.02643 0.07708 0.55442 0.0
H35 H 0.02986 0.98624 0.55599 0.0
H36 H 0.97175 0.94112 0.44902 0.0
C37 C 0.96068 0.97539 0.41779 0.0
C38 C 0.91846 0.99635 0.50599 0.0
C39 C 0.08638 0.02294 0.49739 0.0
C40 C 0.04403 0.04438 0.58543 0.0
H41 H 0.86076 0.96348 0.4391 0.0
H42 H 0.88363 0.95199 0.39044 0.0
H43 H 0.00721 0.97301 0.38402 0.0
H44 H 0.07596 0.99892 0.42776 0.0
H45 H 0.14415 0.05917 0.56403 0.0
H46 H 0.12126 0.07109 0.61266 0.0
H47 H 0.99712 0.04308 0.61919 0.0
H48 H 0.92817 0.01674 0.57517 0.0
H49 H 0.02997 0.93697 0.5576 0.0
H50 H 0.9708 0.89117 0.44908 0.0
H51 H 0.02709 0.12693 0.55419 0.0
H52 H 0.98179 0.08423 0.44525 0.0
C53 C 0.53668 0.03322 0.07821 0.0
C54 C 0.5704 0.04792 0.10558 0.0
C55 C 0.59577 0.05403 0.09287 0.0
C56 C 0.57623 0.0427 0.05862 0.0
N57 N 0.53982 0.03004 0.04864 0.0
Co58 Co 0.50135 0.00943 0.00097 0.0
N59 N 0.53881 0.01672 0.98212 0.0
C60 C 0.57535 0.03055 0.99977 0.0
C61 C 0.59404 0.03297 0.97999 0.0
C62 C 0.56792 0.02031 0.94777 0.0
C63 C 0.53469 0.01095 0.94983 0.0
N64 N 0.46288 0.98864 0.95327 0.0
C65 C 0.46601 0.98528 0.92367 0.0
C66 C 0.43229 0.97012 0.89626 0.0
C67 C 0.40693 0.96388 0.90898 0.0
C68 C 0.42648 0.97558 0.94327 0.0
N69 N 0.46389 1.00235 0.01983 0.0
C70 C 0.42736 0.98885 0.00221 0.0
C71 C 0.40867 0.98673 0.02203 0.0
C72 C 0.43477 0.99929 0.05424 0.0
C73 C 0.468 0.00827 0.05214 0.0
N74 N 0.50108 0.05149 0.00417 0.0
C75 C 0.50072 0.11049 0.00537 0.0
C76 C 0.46832 0.08359 0.99303 0.0
C77 C 0.46912 0.05465 0.99261 0.0
C78 C 0.53332 0.10736 0.0177 0.0
C79 C 0.53288 0.07802 0.01702 0.0
N80 N 0.50162 0.96736 0.99776 0.0
C81 C 0.46952 0.91188 0.98575 0.0
C82 C 0.50208 0.90844 0.99639 0.0
C83 C 0.53438 0.93486 0.00717 0.0
C84 C 0.53355 0.96385 0.00777 0.0
C85 C 0.46989 0.94119 0.9864 0.0
H86 H 0.55914 0.98314 0.01682 0.0
H87 H 0.44413 0.9421 0.9778 0.0
H88 H 0.44347 0.03513 0.98259 0.0
H89 H 0.55864 0.07731 0.02665 0.0
C90 C 0.59127 0.04224 0.03507 0.0
C91 C 0.50257 0.02138 0.08141 0.0
C92 C 0.50007 0.9975 0.92049 0.0
C93 C 0.41144 0.97657 0.96686 0.0
H94 H 0.57609 0.05309 0.13193 0.0
H95 H 0.62501 0.06473 0.10683 0.0
H96 H 0.62317 0.0433 0.98812 0.0
H97 H 0.57277 0.01859 0.92533 0.0
H98 H 0.42656 0.9648 0.86988 0.0
H99 H 0.3777 0.95297 0.89499 0.0
H100 H 0.37953 0.97654 0.01392 0.0
H101 H 0.42993 1.00112 0.0767 0.0
H102 H 0.44227 0.08476 0.9838 0.0
H103 H 0.55924 0.12728 0.02725 0.0
H104 H 0.44373 0.89194 0.97667 0.0
H105 H 0.56035 0.93346 0.01589 0.0
C106 C 0.08462 0.53488 0.02693 0.0
C107 C 0.11567 0.56326 0.04335 0.0
C108 C 0.10449 0.58724 0.0503 0.0
C109 C 0.06745 0.57218 0.03781 0.0
N110 N 0.05425 0.53998 0.02368 0.0
Co111 Co 0.00193 0.50872 0.00113 0.0
N112 N 0.98537 0.54404 0.00995 0.0
C113 C 0.0065 0.57576 0.02585 0.0
C114 C 0.98739 0.59415 0.0286 0.0
C115 C 0.95191 0.57294 0.01408 0.0
C116 C 0.9515 0.54271 0.00342 0.0
N117 N 0.94956 0.47748 0.97792 0.0
C118 C 0.91906 0.4825 0.9743 0.0
C119 C 0.88809 0.45397 0.95735 0.0
C120 C 0.8994 0.43014 0.94999 0.0
C121 C 0.93643 0.44531 0.96291 0.0
N122 N 0.01855 0.47339 0.99295 0.0
C123 C 0.99751 0.44168 0.97804 0.0
C124 C 0.01668 0.42329 0.97573 0.0
C125 C 0.05212 0.44449 0.98974 0.0
C126 C 0.05244 0.4747 0.99981 0.0
N127 N 0.00396 0.50773 0.04518 0.0
C128 C 0.00467 0.50657 0.10718 0.0
C129 C 0.9864 0.4787 0.07741 0.0
C130 C 0.98663 0.47976 0.04703 0.0
C131 C 0.02295 0.53498 0.10552 0.0
C132 C 0.02205 0.53506 0.07449 0.0
N133 N 0.99986 0.50972 0.95709 0.0
C134 C 0.98516 0.48223 0.89771 0.0
C135 C 0.99828 0.51113 0.89488 0.0
C136 C 0.01207 0.5393 0.92373 0.0
C137 C 0.01261 0.53806 0.95426 0.0
C138 C 0.98617 0.48207 0.92874 0.0
H139 H 0.02373 0.56039 0.97527 0.0
H140 H 0.97578 0.45927 0.92914 0.0
H141 H 0.97243 0.45763 0.02538 0.0
H142 H 0.03591 0.5576 0.07484 0.0
C143 C 0.04427 0.58758 0.03827 0.0
C144 C 0.08535 0.5038 0.0141 0.0
C145 C 0.91834 0.51356 0.98815 0.0
C146 C 0.95971 0.42992 0.96412 0.0
H147 H 0.14348 0.56628 0.04926 0.0
H148 H 0.1213 0.61263 0.06253 0.0
H149 H 0.99801 0.6199 0.04015 0.0
H150 H 0.92895 0.57902 0.01195 0.0
H151 H 0.86023 0.45051 0.95168 0.0
H152 H 0.8827 0.40473 0.93778 0.0
H153 H 0.00607 0.39754 0.9643 0.0
H154 H 0.07504 0.4384 0.99161 0.0
H155 H 0.97222 0.45604 0.07759 0.0
H156 H 0.03726 0.55724 0.12794 0.0
H157 H 0.97376 0.45971 0.876 0.0
H158 H 0.02302 0.56233 0.92301 0.0
C159 C 0.55527 0.51156 0.96883 0.0
C160 C 0.55659 0.50352 0.9374 0.0
C161 C 0.5216 0.48985 0.91369 0.0
C162 C 0.50104 0.49051 0.93191 0.0
N163 N 0.52079 0.50422 0.96589 0.0
Co164 Co 0.50195 0.51018 0.00184 0.0
N165 N 0.45033 0.48829 0.96689 0.0
C166 C 0.43864 0.47556 0.93281 0.0
C167 C 0.40163 0.46274 0.91543 0.0
C168 C 0.38886 0.46787 0.93984 0.0
C169 C 0.41899 0.48361 0.97078 0.0
N170 N 0.48306 0.51604 0.0378 0.0
C171 C 0.44855 0.50857 0.03484 0.0
C172 C 0.44722 0.5172 0.06624 0.0
C173 C 0.48221 0.53096 0.08998 0.0
C174 C 0.50278 0.52993 0.07177 0.0
N175 N 0.55359 0.53215 0.03679 0.0
C176 C 0.56519 0.54497 0.07087 0.0
C177 C 0.6021 0.5572 0.08833 0.0
C178 C 0.61493 0.55161 0.06403 0.0
C179 C 0.58495 0.53637 0.03295 0.0
N180 N 0.50329 0.55186 0.0017 0.0
C181 C 0.50404 0.61068 0.00147 0.0
C182 C 0.51652 0.60729 0.03185 0.0
C183 C 0.51614 0.57802 0.03139 0.0
C184 C 0.49125 0.58416 0.97122 0.0
C185 C 0.49089 0.55521 0.9719 0.0
N186 N 0.50061 0.46853 0.002 0.0
C187 C 0.51383 0.43659 0.03255 0.0
C188 C 0.50024 0.40975 0.00231 0.0
C189 C 0.48665 0.41291 0.9719 0.0
C190 C 0.48702 0.44218 0.97232 0.0
C191 C 0.51382 0.46542 0.03181 0.0
H192 H 0.4764 0.44295 0.94828 0.0
H193 H 0.52476 0.48488 0.05574 0.0
H194 H 0.52634 0.57716 0.05541 0.0
H195 H 0.48021 0.53586 0.94794 0.0
C196 C 0.46314 0.47738 0.91786 0.0
C197 C 0.58738 0.52489 1.00058 0.0
C198 C 0.41649 0.49465 0.00305 0.0
C199 C 0.54067 0.54316 0.08579 0.0
H200 H 0.58038 0.5067 0.93214 0.0
H201 H 0.51223 0.48004 0.88642 0.0
H202 H 0.38588 0.45161 0.88826 0.0
H203 H 0.36062 0.46128 0.93541 0.0
H204 H 0.42343 0.51436 0.07144 0.0
H205 H 0.4916 0.54114 0.11724 0.0
H206 H 0.61773 0.56797 0.11552 0.0
H207 H 0.64313 0.5574 0.06883 0.0
H208 H 0.52704 0.62728 0.05597 0.0
H209 H 0.48091 0.58553 0.94701 0.0
H210 H 0.52416 0.43541 0.05685 0.0
H211 H 0.47624 0.39304 0.94772 0.0
C212 C 0.0353 0.53205 0.57873 0.0
C213 C 0.06855 0.54655 0.60666 0.0
C214 C 0.09464 0.55295 0.5948 0.0
C215 C 0.07592 0.54211 0.56049 0.0
N216 N 0.03941 0.5296 0.5497 0.0
Co217 Co 0.00197 0.50957 0.50165 0.0
N218 N 0.04042 0.51771 0.48399 0.0
C219 C 0.07681 0.53256 0.50257 0.0
C220 C 0.09636 0.53682 0.48383 0.0
C221 C 0.07101 0.52434 0.45131 0.0
C222 C 0.03724 0.51283 0.45204 0.0
N223 N 0.96454 0.48874 0.45357 0.0
C224 C 0.96857 0.48535 0.42436 0.0
C225 C 0.93536 0.46854 0.39627 0.0
C226 C 0.90937 0.46178 0.40819 0.0
C227 C 0.92809 0.47452 0.44269 0.0
N228 N 0.96351 0.50227 0.51934 0.0
C229 C 0.92712 0.48897 0.50095 0.0
C230 C 0.90757 0.48671 0.52001 0.0
C231 C 0.93292 0.49904 0.55253 0.0
C232 C 0.96664 0.5082 0.55141 0.0
N233 N 0.00161 0.55161 0.50487 0.0
C234 C 0.00132 0.61072 0.50652 0.0
C235 C 0.96903 0.58308 0.49089 0.0
C236 C 0.96978 0.5541 0.49039 0.0
C237 C 0.0337 0.60826 0.52183 0.0
C238 C 0.03322 0.57881 0.52077 0.0
N239 N 0.00233 0.46752 0.49843 0.0
C240 C 0.97065 0.41238 0.48788 0.0
C241 C 0.00316 0.40869 0.49713 0.0
C242 C 0.0352 0.43481 0.50648 0.0
C243 C 0.0342 0.46376 0.50708 0.0
C244 C 0.97082 0.44162 0.48848 0.0
H245 H 0.05964 0.48285 0.51502 0.0
H246 H 0.94508 0.44269 0.48099 0.0
H247 H 0.94424 0.534 0.47793 0.0
H248 H 0.05885 0.57861 0.53268 0.0
C249 C 0.0918 0.54308 0.53774 0.0
C250 C 1.00068 0.5205 0.58109 0.0
C251 C 0.00296 0.49866 0.42201 0.0
C252 C 0.91214 0.4759 0.46559 0.0
H253 H 0.07342 0.55163 0.63286 0.0
H254 H 0.12379 0.56386 0.60938 0.0
H255 H 0.12556 0.54834 0.49285 0.0
H256 H 0.07689 0.52441 0.42972 0.0
H257 H 0.93038 0.46239 0.36991 0.0
H258 H 0.88023 0.44981 0.39351 0.0
H259 H 0.87833 0.4762 0.51117 0.0
H260 H 0.92714 0.50025 0.57443 0.0
H261 H 0.94311 0.58372 0.47918 0.0
H262 H 0.05953 0.62884 0.53402 0.0
H263 H 0.94503 0.39268 0.47992 0.0
H264 H 0.06113 0.4332 0.51408 0.0
C265 C 0.58502 0.03624 0.52885 0.0
C266 C 0.61593 0.06476 0.54663 0.0
C267 C 0.60437 0.08847 0.55364 0.0
C268 C 0.56726 0.07314 0.53991 0.0
N269 N 0.55436 0.041 0.52489 0.0
Co270 Co 0.50215 0.00945 0.50115 0.0
N271 N 0.48504 0.04448 0.50971 0.0
C272 C 0.50594 0.07624 0.52599 0.0
C273 C 0.4866 0.09436 0.52915 0.0
C274 C 0.4512 0.07295 0.51434 0.0
C275 C 0.45099 0.04284 0.50278 0.0
N276 N 0.44995 0.9779 0.47728 0.0
C277 C 0.41927 0.98265 0.47316 0.0
C278 C 0.38835 0.95415 0.45491 0.0
C279 C 0.39993 0.93046 0.44783 0.0
C280 C 0.43705 0.94578 0.46194 0.0
N281 N 0.51925 0.97441 0.49273 0.0
C282 C 0.49839 0.94264 0.47673 0.0
C283 C 0.5178 0.92451 0.47404 0.0
C284 C 0.55321 0.94594 0.48891 0.0
C285 C 0.55332 0.97604 0.49994 0.0
N286 N 0.50324 1.0076 0.54469 0.0
C287 C 0.50304 1.00509 0.6061 0.0
C288 C 0.48745 0.97728 0.57646 0.0
C289 C 0.48792 0.97905 0.54636 0.0
C290 C 0.51895 0.03415 0.60448 0.0
C291 C 0.51872 0.03485 0.57383 0.0
N292 N 0.50104 0.01129 0.4576 0.0
C293 C 0.48603 0.98477 0.39796 0.0
C294 C 0.50089 0.01393 0.39613 0.0
C295 C 0.51568 0.04175 0.42561 0.0
C296 C 0.5154 0.03991 0.45574 0.0
C297 C 0.48643 0.98401 0.42864 0.0
H298 H 0.52706 0.06199 0.4772 0.0
H299 H 0.475 0.96102 0.4283 0.0
H300 H 0.47559 0.95699 0.52474 0.0
H301 H 0.53097 0.05779 0.57433 0.0
C302 C 0.54378 0.08828 0.53959 0.0
C303 C 0.58623 1.00541 0.51547 0.0
C304 C 0.41803 0.01343 0.48696 0.0
C305 C 0.46054 0.93061 0.46268 0.0
H306 H 0.64392 0.06807 0.55339 0.0
H307 H 0.62099 0.11388 0.56666 0.0
H308 H 0.49706 0.12005 0.54156 0.0
H309 H 0.42827 0.07891 0.51296 0.0
H310 H 0.36034 0.95082 0.44793 0.0
H311 H 0.38331 0.90505 0.43459 0.0
H312 H 0.50738 0.89881 0.46188 0.0
H313 H 0.57623 0.94003 0.49071 0.0
H314 H 0.4752 0.95411 0.57647 0.0
H315 H 0.53101 0.05643 0.62663 0.0
H316 H 0.47464 0.96249 0.37594 0.0
H317 H 0.52711 0.06497 0.42545 0.0
H318 H 0.98311 0.15008 0.537 0.0
H319 H 0.98253 0.20039 0.53564 0.0
H320 H 0.02586 0.18993 0.46033 0.0
H321 H 0.02585 0.13933 0.46113 0.0
H322 H 0.03629 0.25524 0.55059 0.0
H323 H 0.94093 0.20701 0.41578 0.0
H324 H 0.94813 0.18161 0.43716 0.0
H325 H 0.97979 0.19791 0.42109 0.0
C326 C 0.99254 0.15852 0.52016 0.0
C327 C 0.00432 0.1406 0.49901 0.0
C328 C 0.9921 0.18725 0.51933 0.0
C329 C 0.00348 0.19873 0.49741 0.0
C330 C 0.01591 0.18117 0.47673 0.0
H331 H 0.0408 0.37719 0.47342 0.0
H332 H 0.04138 0.32653 0.47402 0.0
C333 C 0.01602 0.15228 0.47729 0.0
C334 C 0.00321 0.22946 0.49688 0.0
H335 H 0.97185 0.2636 0.44473 0.0
C336 C 0.02202 0.25697 0.52745 0.0
C337 C 0.98448 0.23181 0.46671 0.0
C338 C 0.96189 0.20296 0.4334 0.0
C339 C 0.02302 0.28671 0.52855 0.0
C340 C 0.0048 0.28904 0.49835 0.0
C341 C 0.98601 0.26168 0.4678 0.0
C342 C 0.00452 0.31971 0.49814 0.0
C343 C 0.04387 0.31561 0.5619 0.0
C344 C 0.98341 0.33245 0.5113 0.0
C345 C 0.98288 0.36125 0.51085 0.0
C346 C 0.00363 0.37795 0.49739 0.0
C347 C 0.02481 0.36508 0.48426 0.0
C348 C 0.02504 0.3361 0.48443 0.0
H349 H 0.06068 0.31075 0.58211 0.0
H350 H 0.0618 0.33572 0.55899 0.0
H351 H 0.02448 0.32323 0.57012 0.0
H352 H 0.96727 0.32004 0.52185 0.0
H353 H 0.96656 0.37066 0.52145 0.0
H354 H 0.86032 0.94691 0.4981 0.0
H355 H 0.8035 0.94775 0.50072 0.0
H356 H 0.84378 0.04767 0.52056 0.0
H357 H 0.90072 0.04682 0.51841 0.0
H358 H 0.81196 0.0332 0.56283 0.0
H359 H 0.72271 0.95203 0.42775 0.0
H360 H 0.7495 0.93602 0.45053 0.0
H361 H 0.77158 0.97018 0.44378 0.0
C362 C 0.85678 0.96892 0.50297 0.0
C363 C 0.88434 0.99675 0.50784 0.0
C364 C 0.82444 0.9694 0.5043 0.0
C365 C 0.81927 0.99767 0.5103 0.0
C366 C 0.8472 0.02561 0.51574 0.0
H367 H 0.61815 0.02036 0.47526 0.0
H368 H 0.67549 0.01888 0.47504 0.0
C369 C 0.87954 0.02513 0.51448 0.0
C370 C 0.78485 0.99828 0.51114 0.0
H371 H 0.69359 0.96677 0.46295 0.0
C372 C 0.78606 0.01869 0.54102 0.0
C373 C 0.75121 0.97961 0.48248 0.0
C374 C 0.74854 0.95842 0.44919 0.0
C375 C 0.75441 0.02075 0.54311 0.0
C376 C 0.72066 1.0015 0.51472 0.0
C377 C 0.7195 0.98128 0.48476 0.0
C378 C 0.68631 1.00257 0.51523 0.0
C379 C 0.75746 0.04402 0.57541 0.0
C380 C 0.67336 0.99365 0.53772 0.0
C381 C 0.64078 0.99458 0.53788 0.0
C382 C 0.62067 1.00415 0.51535 0.0
C383 C 0.63343 0.01289 0.49277 0.0
C384 C 0.666 0.01201 0.49263 0.0
H385 H 0.78575 0.06233 0.59147 0.0
H386 H 0.73939 0.05625 0.56985 0.0
H387 H 0.74907 0.03089 0.59021 0.0
H388 H 0.68833 0.98578 0.55494 0.0
H389 H 0.63119 0.98777 0.55544 0.0
H390 H 0.95968 0.6211 0.45513 0.0
H391 H 0.95992 0.6719 0.45498 0.0
H392 H 0.04308 0.72141 0.55725 0.0
H393 H 0.04276 0.67068 0.55784 0.0
H394 H 0.94606 0.7171 0.49773 0.0
H395 H 0.08576 0.76887 0.50647 0.0
H396 H 0.06187 0.72702 0.49563 0.0
H397 H 0.0828 0.75543 0.53902 0.0
C398 C 0.97784 0.64273 0.47774 0.0
C399 C 0.00128 0.64171 0.50649 0.0
C400 C 0.97806 0.67179 0.47752 0.0
C401 C 0.00187 0.7005 0.50591 0.0
C402 C 0.02503 0.69962 0.53478 0.0
H403 H 0.98921 0.88436 0.54831 0.0
H404 H 0.98957 0.8338 0.54901 0.0
C405 C 0.02481 0.67056 0.53506 0.0
C406 C 0.002 0.73128 0.50543 0.0
H407 H 0.05567 0.8033 0.51173 0.0
C408 C 0.97 0.73594 0.50076 0.0
C409 C 0.03314 0.7557 0.50897 0.0
C410 C 0.06778 0.75152 0.5125 0.0
C411 C 0.96845 0.76451 0.50002 0.0
C412 C 0.99987 0.78925 0.50447 0.0
C413 C 0.03172 0.78443 0.50864 0.0
C414 C 1.00007 0.82014 0.50435 0.0
C415 C 0.93301 0.76778 0.49389 0.0
C416 C 0.00667 0.82962 0.47947 0.0
C417 C 0.00672 0.85861 0.47912 0.0
C418 C 1.00047 0.87888 0.50385 0.0
C419 C 0.99434 0.86946 0.52902 0.0
C420 C 0.99417 0.8404 0.52927 0.0
H421 H 0.90962 0.74426 0.4829 0.0
H422 H 0.93413 0.78247 0.51834 0.0
H423 H 0.92815 0.77984 0.47657 0.0
H424 H 0.01155 0.81446 0.46015 0.0
H425 H 0.01209 0.86532 0.4597 0.0
H426 H 0.38383 0.9946 0.52417 0.0
H427 H 0.3265 0.99597 0.52446 0.0
H428 H 0.31825 0.03691 0.45089 0.0
H429 H 0.37507 0.03462 0.44994 0.0
H430 H 0.31003 0.04724 0.54178 0.0
H431 H 0.21896 0.96345 0.40799 0.0
H432 H 0.26472 0.96758 0.42836 0.0
H433 H 0.25666 0.99627 0.4126 0.0
C434 C 0.36949 1.00367 0.50797 0.0
C435 C 0.38351 0.01454 0.48706 0.0
C436 C 0.33693 1.00451 0.50816 0.0
C437 C 0.31788 0.01615 0.48736 0.0
C438 C 0.33209 0.02721 0.46658 0.0
H439 H 0.12916 0.05776 0.47493 0.0
H440 H 0.18609 0.05676 0.47256 0.0
C441 C 0.36457 0.02617 0.46624 0.0
C442 C 0.2837 0.01748 0.48821 0.0
H443 H 0.19348 0.99161 0.43901 0.0
C444 C 0.28454 0.03499 0.51933 0.0
C445 C 0.25044 1.00139 0.45888 0.0
C446 C 0.24743 0.98086 0.42513 0.0
C447 C 0.25306 0.03706 0.52182 0.0
C448 C 0.22005 0.02125 0.49249 0.0
C449 C 0.21907 1.00384 0.46136 0.0
C450 C 0.18599 0.02194 0.4939 0.0
C451 C 0.25512 0.05621 0.55567 0.0
C452 C 0.16737 1.0026 0.50657 0.0
C453 C 0.13493 1.00297 0.50766 0.0
C454 C 0.12083 0.02272 0.49614 0.0
C455 C 0.13962 0.04225 0.4837 0.0
C456 C 0.17194 0.04169 0.48237 0.0
H457 H 0.28354 0.06993 0.57527 0.0
H458 H 0.24239 0.07303 0.55319 0.0
H459 H 0.23972 0.03989 0.5644 0.0
H460 H 0.17789 0.98717 0.51547 0.0
H461 H 0.12075 0.98781 0.51738 0.0
H462 H 0.55572 0.05259 0.38705 0.0
H463 H 0.55587 0.05497 0.33391 0.0
H464 H 0.44747 0.98015 0.2789 0.0
H465 H 0.44669 0.97816 0.33198 0.0
H466 H 0.54684 1.00595 0.27593 0.0
H467 H 0.4396 0.05054 0.24669 0.0
H468 H 0.46224 0.05212 0.28814 0.0
H469 H 0.42673 0.01535 0.2547 0.0
C470 C 0.53172 0.03692 0.3637 0.0
C471 C 0.50111 0.0153 0.36382 0.0
C472 C 0.53196 0.03816 0.33334 0.0
C473 C 0.50152 0.01803 0.30252 0.0
C474 C 0.47103 0.99626 0.30246 0.0
H475 H 0.48952 0.97079 0.09836 0.0
H476 H 0.48984 0.97018 0.15246 0.0
C477 C 0.47079 0.99493 0.3328 0.0
C478 C 0.50197 0.01939 0.27037 0.0
H479 H 0.4595 0.03423 0.20361 0.0
C480 C 0.52782 0.01221 0.26014 0.0
C481 C 0.47739 0.02791 0.25003 0.0
C482 C 0.4501 0.03721 0.2605 0.0
C483 C 0.52932 0.01278 0.22979 0.0
C484 C 0.50405 0.0204 0.20898 0.0
C485 C 0.47863 0.02813 0.21949 0.0
C486 C 0.5037 0.02064 0.17626 0.0
C487 C 0.55823 1.00563 0.22045 0.0
C488 C 0.51062 0.04904 0.1715 0.0
C489 C 0.51036 0.04935 0.14068 0.0
C490 C 0.50296 0.02122 0.11419 0.0
C491 C 0.49555 0.99274 0.1187 0.0
C492 C 0.49589 0.99244 0.14953 0.0
H493 H 0.58063 1.00785 0.24264 0.0
H494 H 0.54597 0.98082 0.20099 0.0
H495 H 0.56984 0.02189 0.20964 0.0
H496 H 0.5165 0.071 0.19174 0.0
H497 H 0.51593 0.07147 0.13747 0.0
H498 H 0.94639 0.47742 0.11834 0.0
H499 H 0.94567 0.47684 0.17191 0.0
H500 H 0.0616 0.53282 0.22245 0.0
H501 H 0.06222 0.53423 0.1691 0.0
H502 H 0.97659 0.45318 0.21182 0.0
H503 H 0.0295 0.58341 0.28442 0.0
H504 H 0.01545 0.56559 0.23924 0.0
H505 H 0.05979 0.5728 0.26789 0.0
C506 C 0.9717 0.48963 0.14092 0.0
C507 C 0.00434 0.50603 0.13963 0.0
C508 C 0.97126 0.48934 0.17152 0.0
C509 C 0.00347 0.50528 0.20141 0.0
C510 C 0.03623 0.52117 0.20001 0.0
H511 H 0.02919 0.46711 0.38196 0.0
H512 H 0.02956 0.46868 0.32848 0.0
C513 C 0.0366 0.52183 0.16949 0.0
C514 C 0.00281 0.50449 0.23375 0.0
H515 H 0.02733 0.55175 0.31627 0.0
C516 C 0.98751 0.47476 0.23462 0.0
C517 C 0.01651 0.53263 0.26339 0.0
C518 C 0.03087 0.5654 0.26367 0.0
C519 C 0.98592 0.47234 0.26431 0.0
C520 C 1.00117 0.50043 0.29437 0.0
C521 C 0.01604 0.53018 0.29338 0.0
C522 C 0.00148 0.49962 0.32697 0.0
C523 C 0.96708 0.43973 0.26285 0.0
C524 C 0.9868 0.51737 0.3446 0.0
C525 C 0.98749 0.51714 0.37552 0.0
C526 C 0.00275 0.49907 0.3893 0.0
C527 C 0.01737 0.48126 0.37174 0.0
C528 C 0.01719 0.48188 0.34106 0.0
H529 H 0.94738 0.42251 0.2366 0.0
H530 H 0.98761 0.43052 0.27146 0.0
H531 H 0.95239 0.4406 0.27943 0.0
H532 H 0.97464 0.53132 0.33434 0.0
H533 H 0.97606 0.53103 0.38871 0.0
H534 H 0.44736 0.96749 0.61519 0.0
H535 H 0.44662 0.96573 0.66837 0.0
H536 H 0.55626 0.03846 0.72329 0.0
H537 H 0.55763 0.03979 0.67014 0.0
H538 H 0.54448 0.98685 0.74212 0.0
H539 H 0.43956 0.03381 0.74218 0.0
H540 H 0.4264 0.99986 0.70416 0.0
H541 H 0.46297 0.03683 0.71512 0.0
C542 C 0.47144 0.98295 0.63854 0.0
C543 C 0.50253 1.00386 0.63839 0.0
C544 C 0.47081 0.98215 0.66895 0.0
C545 C 0.50119 1.0023 0.69983 0.0
C546 C 0.53243 0.02288 0.69976 0.0
H547 H 0.51368 0.04827 0.90388 0.0
H548 H 0.51434 0.04922 0.85016 0.0
C549 C 0.53307 0.02375 0.66938 0.0
C550 C 0.50064 1.00166 0.73218 0.0
H551 H 0.45778 0.01477 0.78429 0.0
C552 C 0.52556 0.99297 0.75138 0.0
C553 C 0.4762 0.01003 0.74438 0.0
C554 C 0.44995 0.02095 0.72561 0.0
C555 C 0.52639 0.99202 0.78226 0.0
C556 C 0.50132 0.99958 0.79401 0.0
C557 C 0.47673 0.00869 0.77505 0.0
C558 C 0.50067 0.99881 0.82629 0.0
C559 C 0.55451 0.98349 0.80236 0.0
C560 C 0.49236 0.97011 0.83049 0.0
C561 C 0.49198 0.9696 0.86107 0.0
C562 C 0.49967 0.99773 0.88773 0.0
C563 C 0.50765 0.02635 0.88349 0.0
C564 C 0.50799 0.02686 0.85293 0.0
H565 H 0.57696 0.98584 0.7941 0.0
H566 H 0.56617 0.99886 0.82984 0.0
H567 H 0.5415 0.95837 0.79867 0.0
H568 H 0.48606 0.94811 0.81008 0.0
H569 H 0.48576 0.94732 0.86398 0.0
H570 H 0.98498 0.5591 0.6261 0.0
H571 H 0.98483 0.55776 0.67987 0.0
H572 H 0.01491 0.47832 0.66177 0.0
H573 H 0.01533 0.47991 0.60823 0.0
H574 H 0.94331 0.50724 0.69062 0.0
H575 H 0.09098 0.54183 0.75746 0.0
H576 H 0.07187 0.5469 0.71912 0.0
H577 H 0.06895 0.50833 0.71708 0.0
C578 C 0.99158 0.54147 0.63381 0.0
C579 C 1.00019 0.51962 0.61338 0.0
C580 C 0.99149 0.54068 0.66437 0.0
C581 C 1.00035 0.51823 0.67501 0.0
C582 C 0.00868 0.49622 0.65436 0.0
H583 H 0.01415 0.47302 0.84905 0.0
H584 H 0.01319 0.4743 0.79527 0.0
C585 C 0.00873 0.497 0.62381 0.0
C586 C 1.00019 0.51742 0.7074 0.0
H587 H 0.05403 0.52463 0.78461 0.0
C588 C 0.96753 0.5112 0.71126 0.0
C589 C 0.03183 0.52252 0.73422 0.0
C590 C 0.068 0.53056 0.73201 0.0
C591 C 0.9655 0.50935 0.74103 0.0
C592 C 0.99714 0.51442 0.76784 0.0
C593 C 0.0298 0.52068 0.76398 0.0
C594 C 0.99699 0.51341 0.80018 0.0
C595 C 0.92932 0.50125 0.7432 0.0
C596 C 0.98851 0.53517 0.82092 0.0
C597 C 0.9888 0.53437 0.85156 0.0
C598 C 0.99778 0.51189 0.86217 0.0
C599 C 0.00654 0.49029 0.84141 0.0
C600 C 0.00626 0.49113 0.81078 0.0
H601 H 0.90635 0.49 0.71775 0.0
H602 H 0.92544 0.48485 0.75603 0.0
H603 H 0.92833 0.52344 0.75817 0.0
H604 H 0.98192 0.55295 0.81352 0.0
H605 H 0.98166 0.55119 0.86679 0.0
H606 H 0.11191 0.51045 0.96799 0.0
H607 H 0.16814 0.50721 0.96627 0.0
H608 H 0.19066 0.48959 0.05678 0.0
H609 H 0.13445 0.49308 0.05854 0.0
H610 H 0.25041 0.53669 0.05772 0.0
H611 H 0.18568 0.42525 0.94046 0.0
H612 H 0.17042 0.4556 0.93637 0.0
H613 H 0.16107 0.43754 0.96416 0.0
C614 C 0.12897 0.5058 0.98735 0.0
C615 C 0.11922 0.50181 0.01327 0.0
C616 C 0.16081 0.50379 0.9863 0.0
C617 C 0.18318 0.49768 0.01111 0.0
C618 C 0.17358 0.49411 0.0373 0.0
H619 H 0.36381 0.44824 0.00579 0.0
H620 H 0.30682 0.44861 0.00854 0.0
C621 C 0.14167 0.49606 0.03831 0.0
C622 C 0.21703 0.49577 0.01015 0.0
H623 H 0.24958 0.45409 0.96182 0.0
C624 C 0.25029 0.51856 0.03686 0.0
C625 C 0.21663 0.47186 0.98307 0.0
C626 C 0.18155 0.44596 0.9545 0.0
C627 C 0.28333 0.51851 0.03682 0.0
C628 C 0.28297 0.49529 0.00914 0.0
C629 C 0.24969 0.47203 0.98283 0.0
C630 C 0.31693 0.49484 0.00701 0.0
C631 C 0.31833 0.54315 0.06651 0.0
C632 C 0.34099 0.52045 0.00469 0.0
C633 C 0.37327 0.52019 0.00311 0.0
C634 C 0.38172 0.49427 0.00364 0.0
C635 C 0.35752 0.46841 0.00539 0.0
C636 C 0.32518 0.46864 0.00695 0.0
H637 H 0.31371 0.55392 0.08913 0.0
H638 H 0.33791 0.53254 0.07336 0.0
H639 H 0.33087 0.56253 0.05954 0.0
H640 H 0.33476 0.54059 0.00409 0.0
H641 H 0.39176 0.54025 0.00164 0.0
H642 H 0.44832 0.34911 0.95928 0.0
H643 H 0.44878 0.29859 0.95993 0.0
H644 H 0.55231 0.34951 0.04658 0.0
H645 H 0.55259 0.40012 0.04577 0.0
H646 H 0.50281 0.27451 0.95563 0.0
H647 H 0.48725 0.29048 0.07599 0.0
H648 H 0.4773 0.31377 0.05255 0.0
H649 H 0.52354 0.32298 0.07817 0.0
C650 C 0.47139 0.34964 0.97833 0.0
C651 C 0.50036 0.37883 0.00257 0.0
C652 C 0.47148 0.32071 0.97876 0.0
C653 C 0.50032 0.32032 0.00358 0.0
C654 C 0.52943 0.3493 0.02761 0.0
H655 H 0.54774 0.17129 0.0529 0.0
H656 H 0.54815 0.2217 0.05133 0.0
C657 C 0.52946 0.37823 0.02713 0.0
C658 C 0.50025 0.28958 0.00401 0.0
H659 H 0.49833 0.24591 0.05147 0.0
C660 C 0.50169 0.26815 0.9765 0.0
C661 C 0.49899 0.28146 0.03135 0.0
C662 C 0.49638 0.30321 0.06112 0.0
C663 C 0.50256 0.23902 0.97585 0.0
C664 C 0.50097 0.23072 0.00309 0.0
C665 C 0.49953 0.25222 0.0306 0.0
C666 C 0.5008 0.1999 0.0036 0.0
C667 C 0.50614 0.21785 0.94639 0.0
C668 C 0.47381 0.17077 0.97751 0.0
C669 C 0.4738 0.14186 0.97806 0.0
C670 C 0.50052 0.14137 0.005 0.0
C671 C 0.52713 0.17064 0.03143 0.0
C672 C 0.52724 0.19955 0.03072 0.0
H673 H 0.51782 0.23152 0.93336 0.0
H674 H 0.52356 0.20585 0.95477 0.0
H675 H 0.47884 0.19924 0.92764 0.0
H676 H 0.45259 0.17035 0.9567 0.0
H677 H 0.45306 0.11991 0.95708 0.0
H678 H 0.90529 0.5337 0.04377 0.0
H679 H 0.84925 0.53677 0.04584 0.0
H680 H 0.79909 0.5001 0.9367 0.0
H681 H 0.85587 0.4986 0.93487 0.0
H682 H 0.78318 0.54751 0.96416 0.0
H683 H 0.75884 0.46324 0.02459 0.0
H684 H 0.8021 0.49666 0.04951 0.0
H685 H 0.7931 0.46911 0.00836 0.0
C686 C 0.88221 0.5264 0.02033 0.0
C687 C 0.8844 0.51551 0.98914 0.0
C688 C 0.85018 0.52786 0.02146 0.0
C689 C 0.81965 0.51785 0.99137 0.0
C690 C 0.82219 0.50764 0.96021 0.0
H691 H 0.60074 0.47293 0.97797 0.0
H692 H 0.65681 0.47147 0.97434 0.0
C693 C 0.85443 0.50665 0.95912 0.0
C694 C 0.78521 0.51842 0.99237 0.0
H695 H 0.72229 0.49252 0.02206 0.0
C696 C 0.76974 0.53534 0.97666 0.0
C697 C 0.76737 0.50208 0.00818 0.0
C698 C 0.78099 0.48147 0.02329 0.0
C699 C 0.73717 0.53674 0.9767 0.0
C700 C 0.72027 0.52167 0.99392 0.0
C701 C 0.73551 0.50441 0.00925 0.0
C702 C 0.68631 0.5228 0.99574 0.0
C703 C 0.72082 0.55367 0.95758 0.0
C704 C 0.68434 0.55211 0.0092 0.0
C705 C 0.65217 0.55289 0.01071 0.0
C706 C 0.62187 0.5244 0.99963 0.0
C707 C 0.62395 0.49514 0.9867 0.0
C708 C 0.6559 0.49434 0.9847 0.0
H709 H 0.73058 0.55508 0.93766 0.0
H710 H 0.6907 0.54148 0.94544 0.0
H711 H 0.72899 0.57841 0.97547 0.0
H712 H 0.70771 0.57437 0.01867 0.0
H713 H 0.65093 0.57568 0.02064 0.0
H714 H 0.52644 0.64084 0.96393 0.0
H715 H 0.52718 0.6919 0.96399 0.0
H716 H 0.48172 0.70083 0.03775 0.0
H717 H 0.48179 0.65019 0.03838 0.0
H718 H 0.47376 0.71038 0.947 0.0
H719 H 0.56586 0.7862 0.08231 0.0
H720 H 0.55913 0.74546 0.06207 0.0
H721 H 0.52668 0.75424 0.07673 0.0
C722 C 0.51666 0.65373 0.98019 0.0
C723 C 0.50431 0.64162 0.00134 0.0
C724 C 0.51716 0.68295 0.98026 0.0
C725 C 0.5052 0.70062 0.00138 0.0
C726 C 0.49217 0.68822 0.02202 0.0
H727 H 0.46323 0.86932 0.01836 0.0
H728 H 0.46395 0.81873 0.01896 0.0
C729 C 0.49207 0.65919 0.02226 0.0
C730 C 0.50544 0.73152 0.00103 0.0
H731 H 0.53499 0.81023 0.05182 0.0
C732 C 0.48738 0.73222 0.96992 0.0
C733 C 0.52332 0.76015 0.03091 0.0
C734 C 0.54515 0.76162 0.06482 0.0
C735 C 0.48622 0.76054 0.96799 0.0
C736 C 0.50348 0.78887 0.99789 0.0
C737 C 0.5216 0.78833 0.02897 0.0
C738 C 0.50305 0.81937 0.99732 0.0
C739 C 0.46617 0.76006 0.9341 0.0
C740 C 0.52498 0.83649 0.98513 0.0
C741 C 0.52475 0.86543 0.98487 0.0
C742 C 0.50237 0.87765 0.99659 0.0
C743 C 0.48041 0.86035 0.00877 0.0
C744 C 0.48093 0.83157 0.00931 0.0
H745 H 0.4505 0.73545 0.91391 0.0
H746 H 0.44727 0.77162 0.93586 0.0
H747 H 0.48596 0.77387 0.92664 0.0
H748 H 0.54235 0.82747 0.97591 0.0
H749 H 0.54177 0.87806 0.97512 0.0
loop_
_geom_bond_atom_site_label_1
_geom_bond_atom_site_label_2
_geom_bond_distance
_geom_bond_site_symmetry_2
_ccdc_geom_bond_type
C0 C1 1.443 . S
C0 N4 1.376 . S
C0 C38 1.388 1_565 S
C1 C0 1.443 . S
C1 C2 1.340 . S
C1 H41 0.951 . S
C2 C1 1.340 . S
C2 C3 1.439 . S
C2 H42 0.950 . S
C3 C2 1.439 . S
C3 N4 1.374 . S
C3 C37 1.395 . S
N4 C0 1.376 . S
N4 C3 1.374 . S
N4 Co5 1.992 1_665 S
Co5 N4 1.992 1_445 S
Co5 N6 2.011 1_545 S
Co5 N11 2.024 . S
Co5 N16 1.979 1_455 S
Co5 N21 2.287 1_445 S
Co5 N27 2.278 . S
N6 Co5 2.011 1_565 S
N6 C7 1.377 . S
N6 C10 1.383 . S
C7 N6 1.377 . S
C7 C8 1.455 . S
C7 C37 1.382 1_455 S
C8 C7 1.455 . S
C8 C9 1.339 . S
C8 H43 0.949 . S
C9 C8 1.339 . S
C9 C10 1.439 . S
C9 H44 0.950 . S
C10 N6 1.383 . S
C10 C9 1.439 . S
C10 C39 1.392 1_565 S
N11 Co5 2.024 . S
N11 C12 1.376 . S
N11 C15 1.374 . S
C12 N11 1.376 . S
C12 C13 1.443 . S
C12 C39 1.389 . S
C13 C12 1.443 . S
C13 C14 1.340 . S
C13 H45 0.951 . S
C14 C13 1.340 . S
C14 C15 1.439 . S
C14 H46 0.950 . S
C15 N11 1.374 . S
C15 C14 1.439 . S
C15 C40 1.395 . S
N16 Co5 1.979 1_655 S
N16 C17 1.372 1_655 S
N16 C20 1.383 . S
C17 N16 1.372 1_455 S
C17 C18 1.414 1_455 S
C17 C40 1.422 . S
C18 C17 1.414 1_655 S
C18 C19 1.339 . S
C18 H47 0.949 . S
C19 C18 1.339 . S
C19 C20 1.439 . S
C19 H48 0.950 . S
C20 N16 1.383 . S
C20 C19 1.439 . S
C20 C38 1.389 . S
N21 Co5 2.287 1_665 S
N21 C24 1.332 1_655 S
N21 C26 1.332 . S
C22 C23 1.389 1_655 S
C22 C25 1.388 . S
C23 C22 1.389 1_455 S
C23 C24 1.384 . S
C23 H49 0.950 . S
C24 N21 1.332 1_455 S
C24 C23 1.384 . S
C24 H35 0.949 . S
C25 C22 1.388 . S
C25 C26 1.382 . S
C25 H50 0.950 . S
C26 N21 1.332 . S
C26 C25 1.382 . S
C26 H36 0.948 . S
N27 Co5 2.278 . S
N27 C31 1.332 . S
N27 C32 1.332 . S
C28 C29 1.388 . S
C28 C32 1.382 . S
C28 H51 0.950 . S
C29 C28 1.388 . S
C29 C30 1.386 1_455 S
C30 C29 1.386 1_655 S
C30 C31 1.382 1_655 S
C30 H52 0.950 . S
C31 N27 1.332 . S
C31 C30 1.382 1_455 S
C31 H33 0.952 1_455 S
C32 N27 1.332 . S
C32 C28 1.382 . S
C32 H34 0.948 . S
H33 C31 0.952 1_655 S
H34 C32 0.948 . S
H35 C24 0.949 . S
H36 C26 0.948 . S
C37 C3 1.395 . S
C37 C7 1.382 1_655 S
C38 C0 1.388 1_545 S
C38 C20 1.389 . S
C39 C10 1.392 1_545 S
C39 C12 1.389 . S
C40 C15 1.395 . S
C40 C17 1.422 . S
H41 C1 0.951 . S
H42 C2 0.950 . S
H43 C8 0.949 . S
H44 C9 0.950 . S
H45 C13 0.951 . S
H46 C14 0.950 . S
H47 C18 0.949 . S
H48 C19 0.950 . S
H49 C23 0.950 . S
H50 C25 0.950 . S
H51 C28 0.950 . S
H52 C30 0.950 . S
C53 C54 1.443 . S
C53 N57 1.376 . S
C53 C91 1.389 . S
C54 C53 1.443 . S
C54 C55 1.340 . S
C54 H94 0.951 . S
C55 C54 1.340 . S
C55 C56 1.439 . S
C55 H95 0.950 . S
C56 C55 1.439 . S
C56 N57 1.374 . S
C56 C90 1.395 . S
N57 C53 1.376 . S
N57 C56 1.374 . S
N57 Co58 2.019 . S
Co58 N57 2.019 . S
Co58 N59 1.984 1_554 S
Co58 N64 1.997 1_544 S
Co58 N69 2.006 1_545 S
Co58 N74 2.279 . S
Co58 N80 2.286 1_544 S
N59 Co58 1.984 1_556 S
N59 C60 1.373 1_556 S
N59 C63 1.383 . S
C60 N59 1.373 1_554 S
C60 C61 1.421 1_554 S
C60 C90 1.416 . S
C61 C60 1.421 1_556 S
C61 C62 1.339 . S
C61 H96 0.949 . S
C62 C61 1.339 . S
C62 C63 1.439 . S
C62 H97 0.950 . S
C63 N59 1.383 . S
C63 C62 1.439 . S
C63 C92 1.389 . S
N64 Co58 1.997 1_566 S
N64 C65 1.376 . S
N64 C68 1.374 . S
C65 N64 1.376 . S
C65 C66 1.443 . S
C65 C92 1.388 1_565 S
C66 C65 1.443 . S
C66 C67 1.340 . S
C66 H98 0.951 . S
C67 C66 1.340 . S
C67 C68 1.439 . S
C67 H99 0.950 . S
C68 N64 1.374 . S
C68 C67 1.439 . S
C68 C93 1.395 . S
N69 Co58 2.006 1_565 S
N69 C70 1.376 . S
N69 C73 1.383 . S
C70 N69 1.376 . S
C70 C71 1.449 . S
C70 C93 1.388 1_554 S
C71 C70 1.449 . S
C71 C72 1.339 . S
C71 H100 0.949 . S
C72 C71 1.339 . S
C72 C73 1.439 . S
C72 H101 0.950 . S
C73 N69 1.383 . S
C73 C72 1.439 . S
C73 C91 1.392 1_565 S
N74 Co58 2.279 . S
N74 C77 1.332 . S
N74 C79 1.332 . S
C75 C76 1.386 1_554 S
C75 C78 1.388 . S
C76 C75 1.386 1_556 S
C76 C77 1.370 1_556 S
C76 H102 0.950 . S
C77 N74 1.332 . S
C77 C76 1.370 1_554 S
C77 H88 0.965 1_554 S
C78 C75 1.388 . S
C78 C79 1.382 . S
C78 H103 0.950 . S
C79 N74 1.332 . S
C79 C78 1.382 . S
C79 H89 0.948 . S
N80 Co58 2.286 1_566 S
N80 C84 1.332 1_556 S
N80 C85 1.332 . S
C81 C82 1.388 . S
C81 C85 1.382 . S
C81 H104 0.950 . S
C82 C81 1.388 . S
C82 C83 1.391 1_556 S
C83 C82 1.391 1_554 S
C83 C84 1.381 . S
C83 H105 0.950 . S
C84 N80 1.332 1_554 S
C84 C83 1.381 . S
C84 H86 0.952 . S
C85 N80 1.332 . S
C85 C81 1.382 . S
C85 H87 0.948 . S
H86 C84 0.952 . S
H87 C85 0.948 . S
H88 C77 0.965 1_556 S
H89 C79 0.948 . S
C90 C56 1.395 . S
C90 C60 1.416 . S
C91 C53 1.389 . S
C91 C73 1.392 1_545 S
C92 C63 1.389 . S
C92 C65 1.388 1_545 S
C93 C68 1.395 . S
C93 C70 1.388 1_556 S
H94 C54 0.951 . S
H95 C55 0.950 . S
H96 C61 0.949 . S
H97 C62 0.950 . S
H98 C66 0.951 . S
H99 C67 0.950 . S
H100 C71 0.949 . S
H101 C72 0.950 . S
H102 C76 0.950 . S
H103 C78 0.950 . S
H104 C81 0.950 . S
H105 C83 0.950 . S
C106 C107 1.443 . S
C106 N110 1.376 . S
C106 C144 1.389 . S
C107 C106 1.443 . S
C107 C108 1.340 . S
C107 H147 0.951 . S
C108 C107 1.340 . S
C108 C109 1.439 . S
C108 H148 0.950 . S
C109 C108 1.439 . S
C109 N110 1.374 . S
C109 C143 1.395 . S
N110 C106 1.376 . S
N110 C109 1.374 . S
N110 Co111 2.020 . S
Co111 N110 2.020 . S
Co111 N112 1.981 1_455 S
Co111 N117 1.996 1_454 S
Co111 N122 2.009 1_554 S
Co111 N127 2.295 . S
Co111 N133 2.270 1_454 S
N112 Co111 1.981 1_655 S
N112 C113 1.372 1_655 S
N112 C116 1.383 . S
C113 N112 1.372 1_455 S
C113 C114 1.414 1_455 S
C113 C143 1.422 . S
C114 C113 1.414 1_655 S
C114 C115 1.339 . S
C114 H149 0.949 . S
C115 C114 1.339 . S
C115 C116 1.439 . S
C115 H150 0.950 . S
C116 N112 1.383 . S
C116 C115 1.439 . S
C116 C145 1.398 1_554 S
N117 Co111 1.996 1_656 S
N117 C118 1.376 . S
N117 C121 1.374 . S
C118 N117 1.376 . S
C118 C119 1.443 . S
C118 C145 1.391 . S
C119 C118 1.443 . S
C119 C120 1.340 . S
C119 H151 0.951 . S
C120 C119 1.340 . S
C120 C121 1.439 . S
C120 H152 0.950 . S
C121 N117 1.374 . S
C121 C120 1.439 . S
C121 C146 1.395 . S
N122 Co111 2.009 1_556 S
N122 C123 1.377 . S
N122 C126 1.383 . S
C123 N122 1.377 . S
C123 C124 1.455 . S
C123 C146 1.383 1_455 S
C124 C123 1.455 . S
C124 C125 1.339 . S
C124 H153 0.949 . S
C125 C124 1.339 . S
C125 C126 1.439 . S
C125 H154 0.950 . S
C126 N122 1.383 . S
C126 C125 1.439 . S
C126 C144 1.392 1_556 S
N127 Co111 2.295 . S
N127 C130 1.332 . S
N127 C132 1.332 . S
C128 C129 1.386 1_455 S
C128 C131 1.388 . S
C129 C128 1.386 1_655 S
C129 C130 1.382 1_655 S
C129 H155 0.950 . S
C130 N127 1.332 . S
C130 C129 1.382 1_455 S
C130 H141 0.952 1_455 S
C131 C128 1.388 . S
C131 C132 1.382 . S
C131 H156 0.950 . S
C132 N127 1.332 . S
C132 C131 1.382 . S
C132 H142 0.948 . S
N133 Co111 2.270 1_656 S
N133 C137 1.332 1_655 S
N133 C138 1.332 . S
C134 C135 1.388 . S
C134 C138 1.382 . S
C134 H157 0.950 . S
C135 C134 1.388 . S
C135 C136 1.389 1_655 S
C136 C135 1.389 1_455 S
C136 C137 1.384 . S
C136 H158 0.950 . S
C137 N133 1.332 1_455 S
C137 C136 1.384 . S
C137 H139 0.949 . S
C138 N133 1.332 . S
C138 C134 1.382 . S
C138 H140 0.948 . S
H139 C137 0.949 . S
H140 C138 0.948 . S
H141 C130 0.952 1_655 S
H142 C132 0.948 . S
C143 C109 1.395 . S
C143 C113 1.422 . S
C144 C106 1.389 . S
C144 C126 1.392 1_554 S
C145 C116 1.398 1_556 S
C145 C118 1.391 . S
C146 C121 1.395 . S
C146 C123 1.383 1_655 S
H147 C107 0.951 . S
H148 C108 0.950 . S
H149 C114 0.949 . S
H150 C115 0.950 . S
H151 C119 0.951 . S
H152 C120 0.950 . S
H153 C124 0.949 . S
H154 C125 0.950 . S
H155 C129 0.950 . S
H156 C131 0.950 . S
H157 C134 0.950 . S
H158 C136 0.950 . S
C159 C160 1.443 . S
C159 N163 1.376 . S
C159 C197 1.390 1_556 S
C160 C159 1.443 . S
C160 C161 1.340 . S
C160 H200 0.951 . S
C161 C160 1.340 . S
C161 C162 1.439 . S
C161 H201 0.950 . S
C162 C161 1.439 . S
C162 N163 1.374 . S
C162 C196 1.395 . S
N163 C159 1.376 . S
N163 C162 1.374 . S
N163 Co164 1.995 1_556 S
Co164 N163 1.995 1_554 S
Co164 N165 1.989 1_554 S
Co164 N170 2.021 . S
Co164 N175 2.000 . S
Co164 N180 2.277 1_554 S
Co164 N186 2.288 . S
N165 Co164 1.989 1_556 S
N165 C166 1.376 . S
N165 C169 1.383 . S
C166 N165 1.376 . S
C166 C167 1.446 . S
C166 C196 1.391 . S
C167 C166 1.446 . S
C167 C168 1.339 . S
C167 H202 0.949 . S
C168 C167 1.339 . S
C168 C169 1.439 . S
C168 H203 0.950 . S
C169 N165 1.383 . S
C169 C168 1.439 . S
C169 C198 1.362 1_556 S
N170 Co164 2.021 . S
N170 C171 1.376 . S
N170 C174 1.374 . S
C171 N170 1.376 . S
C171 C172 1.443 . S
C171 C198 1.410 . S
C172 C171 1.443 . S
C172 C173 1.340 . S
C172 H204 0.951 . S
C173 C172 1.340 . S
C173 C174 1.439 . S
C173 H205 0.950 . S
C174 N170 1.374 . S
C174 C173 1.439 . S
C174 C199 1.395 . S
N175 Co164 2.000 . S
N175 C176 1.376 . S
N175 C179 1.383 . S
C176 N175 1.376 . S
C176 C177 1.446 . S
C176 C199 1.391 . S
C177 C176 1.446 . S
C177 C178 1.339 . S
C177 H206 0.949 . S
C178 C177 1.339 . S
C178 C179 1.439 . S
C178 H207 0.950 . S
C179 N175 1.383 . S
C179 C178 1.439 . S
C179 C197 1.389 . S
N180 Co164 2.277 1_556 S
N180 C183 1.332 1_556 S
N180 C185 1.332 . S
C181 C182 1.386 . S
C181 C184 1.388 1_554 S
C182 C181 1.386 . S
C182 C183 1.382 . S
C182 H208 0.950 . S
C183 N180 1.332 1_554 S
C183 C182 1.382 . S
C183 H194 0.952 . S
C184 C181 1.388 1_556 S
C184 C185 1.382 . S
C184 H209 0.950 . S
C185 N180 1.332 . S
C185 C184 1.382 . S
C185 H195 0.948 . S
N186 Co164 2.288 . S
N186 C190 1.332 1_554 S
N186 C191 1.332 . S
C187 C188 1.404 . S
C187 C191 1.382 . S
C187 H210 0.950 . S
C188 C187 1.404 . S
C188 C189 1.362 1_554 S
C189 C188 1.362 1_556 S
C189 C190 1.382 . S
C189 H211 0.950 . S
C190 N186 1.332 1_556 S
C190 C189 1.382 . S
C190 H192 0.952 . S
C191 N186 1.332 . S
C191 C187 1.382 . S
C191 H193 0.948 . S
H192 C190 0.952 . S
H193 C191 0.948 . S
H194 C183 0.952 . S
H195 C185 0.948 . S
C196 C162 1.395 . S
C196 C166 1.391 . S
C197 C159 1.390 1_554 S
C197 C179 1.389 . S
C198 C169 1.362 1_554 S
C198 C171 1.410 . S
C199 C174 1.395 . S
C199 C176 1.391 . S
H200 C160 0.951 . S
H201 C161 0.950 . S
H202 C167 0.949 . S
H203 C168 0.950 . S
H204 C172 0.951 . S
H205 C173 0.950 . S
H206 C177 0.949 . S
H207 C178 0.950 . S
H208 C182 0.950 . S
H209 C184 0.950 . S
H210 C187 0.950 . S
H211 C189 0.950 . S
C212 C213 1.443 . S
C212 N216 1.376 . S
C212 C250 1.389 . S
C213 C212 1.443 . S
C213 C214 1.340 . S
C213 H253 0.951 . S
C214 C213 1.340 . S
C214 C215 1.439 . S
C214 H254 0.950 . S
C215 C214 1.439 . S
C215 N216 1.374 . S
C215 C249 1.395 . S
N216 C212 1.376 . S
N216 C215 1.374 . S
N216 Co217 2.018 . S
Co217 N216 2.018 . S
Co217 N218 2.015 . S
Co217 N223 1.999 1_455 S
Co217 N228 1.975 1_455 S
Co217 N233 2.276 . S
Co217 N239 2.289 1_455 S
N218 Co217 2.015 . S
N218 C219 1.376 . S
N218 C222 1.383 . S
C219 N218 1.376 . S
C219 C220 1.446 . S
C219 C249 1.391 . S
C220 C219 1.446 . S
C220 C221 1.339 . S
C220 H255 0.949 . S
C221 C220 1.339 . S
C221 C222 1.439 . S
C221 H256 0.950 . S
C222 N218 1.383 . S
C222 C221 1.439 . S
C222 C251 1.395 . S
N223 Co217 1.999 1_655 S
N223 C224 1.376 . S
N223 C227 1.374 . S
C224 N223 1.376 . S
C224 C225 1.443 . S
C224 C251 1.385 1_655 S
C225 C224 1.443 . S
C225 C226 1.340 . S
C225 H257 0.951 . S
C226 C225 1.340 . S
C226 C227 1.439 . S
C226 H258 0.950 . S
C227 N223 1.374 . S
C227 C226 1.439 . S
C227 C252 1.395 . S
N228 Co217 1.975 1_655 S
N228 C229 1.376 . S
N228 C232 1.383 . S
C229 N228 1.376 . S
C229 C230 1.446 . S
C229 C252 1.391 . S
C230 C229 1.446 . S
C230 C231 1.339 . S
C230 H259 0.949 . S
C231 C230 1.339 . S
C231 C232 1.439 . S
C231 H260 0.950 . S
C232 N228 1.383 . S
C232 C231 1.439 . S
C232 C250 1.392 1_655 S
N233 Co217 2.276 . S
N233 C236 1.332 1_455 S
N233 C238 1.332 . S
C234 C235 1.386 1_455 S
C234 C237 1.388 . S
C235 C234 1.386 1_655 S
C235 C236 1.382 . S
C235 H261 0.950 . S
C236 N233 1.332 1_655 S
C236 C235 1.382 . S
C236 H247 0.952 . S
C237 C234 1.388 . S
C237 C238 1.382 . S
C237 H262 0.950 . S
C238 N233 1.332 . S
C238 C237 1.382 . S
C238 H248 0.948 . S
N239 Co217 2.289 1_655 S
N239 C243 1.332 1_655 S
N239 C244 1.332 . S
C240 C241 1.381 1_655 S
C240 C244 1.382 . S
C240 H263 0.950 . S
C241 C240 1.381 1_455 S
C241 C242 1.391 . S
C242 C241 1.391 . S
C242 C243 1.382 . S
C242 H264 0.950 . S
C243 N239 1.332 1_455 S
C243 C242 1.382 . S
C243 H245 0.952 . S
C244 N239 1.332 . S
C244 C240 1.382 . S
C244 H246 0.948 . S
H245 C243 0.952 . S
H246 C244 0.948 . S
H247 C236 0.952 . S
H248 C238 0.948 . S
C249 C215 1.395 . S
C249 C219 1.391 . S
C250 C212 1.389 . S
C250 C232 1.392 1_455 S
C251 C222 1.395 . S
C251 C224 1.385 1_455 S
C252 C227 1.395 . S
C252 C229 1.391 . S
H253 C213 0.951 . S
H254 C214 0.950 . S
H255 C220 0.949 . S
H256 C221 0.950 . S
H257 C225 0.951 . S
H258 C226 0.950 . S
H259 C230 0.949 . S
H260 C231 0.950 . S
H261 C235 0.950 . S
H262 C237 0.950 . S
H263 C240 0.950 . S
H264 C242 0.950 . S
C265 C266 1.443 . S
C265 N269 1.376 . S
C265 C303 1.389 . S
C266 C265 1.443 . S
C266 C267 1.340 . S
C266 H306 0.951 . S
C267 C266 1.340 . S
C267 C268 1.439 . S
C267 H307 0.950 . S
C268 C267 1.439 . S
C268 N269 1.374 . S
C268 C302 1.395 . S
N269 C265 1.376 . S
N269 C268 1.374 . S
N269 Co270 2.008 . S
Co270 N269 2.008 . S
Co270 N271 1.995 . S
Co270 N276 2.008 1_545 S
Co270 N281 1.995 1_545 S
Co270 N286 2.282 . S
Co270 N292 2.295 1_545 S
N271 Co270 1.995 . S
N271 C272 1.376 . S
N271 C275 1.383 . S
C272 N271 1.376 . S
C272 C273 1.446 . S
C272 C302 1.391 . S
C273 C272 1.446 . S
C273 C274 1.339 . S
C273 H308 0.949 . S
C274 C273 1.339 . S
C274 C275 1.439 . S
C274 H309 0.950 . S
C275 N271 1.383 . S
C275 C274 1.439 . S
C275 C304 1.392 . S
N276 Co270 2.008 1_565 S
N276 C277 1.376 . S
N276 C280 1.374 . S
C277 N276 1.376 . S
C277 C278 1.443 . S
C277 C304 1.389 1_565 S
C278 C277 1.443 . S
C278 C279 1.340 . S
C278 H310 0.951 . S
C279 C278 1.340 . S
C279 C280 1.439 . S
C279 H311 0.950 . S
C280 N276 1.374 . S
C280 C279 1.439 . S
C280 C305 1.395 . S
N281 Co270 1.995 1_565 S
N281 C282 1.376 . S
N281 C285 1.383 . S
C282 N281 1.376 . S
C282 C283 1.446 . S
C282 C305 1.391 . S
C283 C282 1.446 . S
C283 C284 1.339 . S
C283 H312 0.949 . S
C284 C283 1.339 . S
C284 C285 1.439 . S
C284 H313 0.950 . S
C285 N281 1.383 . S
C285 C284 1.439 . S
C285 C303 1.392 1_565 S
N286 Co270 2.282 . S
N286 C289 1.332 1_545 S
N286 C291 1.332 . S
C287 C288 1.386 1_545 S
C287 C290 1.388 . S
C288 C287 1.386 1_565 S
C288 C289 1.382 . S
C288 H314 0.950 . S
C289 N286 1.332 1_565 S
C289 C288 1.382 . S
C289 H300 0.952 . S
C290 C287 1.388 . S
C290 C291 1.382 . S
C290 H315 0.950 . S
C291 N286 1.332 . S
C291 C290 1.382 . S
C291 H301 0.948 . S
N292 Co270 2.295 1_565 S
N292 C296 1.292 1_565 S
N292 C297 1.360 . S
C293 C294 1.388 1_565 S
C293 C297 1.382 . S
C293 H316 0.950 . S
C294 C293 1.388 1_545 S
C294 C295 1.386 . S
C295 C294 1.386 . S
C295 C296 1.382 . S
C295 H317 0.950 . S
C296 N292 1.292 1_545 S
C296 C295 1.382 . S
C296 H298 0.952 . S
C297 N292 1.360 . S
C297 C293 1.382 . S
C297 H299 0.948 . S
H298 C296 0.952 . S
H299 C297 0.948 . S
H300 C289 0.952 . S
H301 C291 0.948 . S
C302 C268 1.395 . S
C302 C272 1.391 . S
C303 C265 1.389 . S
C303 C285 1.392 1_545 S
C304 C275 1.392 . S
C304 C277 1.389 1_545 S
C305 C280 1.395 . S
C305 C282 1.391 . S
H306 C266 0.951 . S
H307 C267 0.950 . S
H308 C273 0.949 . S
H309 C274 0.950 . S
H310 C278 0.951 . S
H311 C279 0.950 . S
H312 C283 0.949 . S
H313 C284 0.950 . S
H314 C288 0.950 . S
H315 C290 0.950 . S
H316 C293 0.950 . S
H317 C295 0.950 . S
H318 C326 0.929 . S
H319 C328 0.930 . S
H320 C330 0.930 . S
H321 C333 0.929 . S
H322 C336 0.930 . S
H323 C338 0.960 . S
H324 C338 0.960 . S
H325 C338 0.960 . S
C326 H318 0.929 . S
C326 C327 1.375 . S
C326 C328 1.384 . S
C327 C326 1.375 . S
C327 C333 1.390 1_455 S
C328 H319 0.930 . S
C328 C326 1.384 . S
C328 C329 1.371 . S
C329 C328 1.371 . S
C329 C330 1.407 1_455 S
C329 C334 1.484 . S
C330 H320 0.930 . S
C330 C329 1.407 1_655 S
C330 C333 1.386 . S
H331 C347 0.927 . S
H332 C348 0.931 . S
C333 H321 0.929 . S
C333 C327 1.390 1_655 S
C333 C330 1.386 . S
C334 C329 1.484 . S
C334 C336 1.395 . S
C334 C337 1.403 1_455 S
H335 C341 0.930 . S
C336 H322 0.930 . S
C336 C334 1.395 . S
C336 C339 1.403 . S
C337 C334 1.403 1_655 S
C337 C338 1.524 . S
C337 C341 1.400 . S
C338 H323 0.960 . S
C338 H324 0.960 . S
C338 H325 0.960 . S
C338 C337 1.524 . S
C339 C336 1.403 . S
C339 C340 1.392 . S
C339 C343 1.495 . S
C340 C339 1.392 . S
C340 C341 1.385 1_455 S
C340 C342 1.478 . S
C341 H335 0.930 . S
C341 C337 1.400 . S
C341 C340 1.385 1_655 S
C342 C340 1.478 . S
C342 C344 1.381 . S
C342 C348 1.383 . S
C343 C339 1.495 . S
C343 H349 0.959 . S
C343 H350 0.961 . S
C343 H351 0.960 . S
C344 C342 1.381 . S
C344 C345 1.394 . S
C344 H352 0.930 . S
C345 C344 1.394 . S
C345 C346 1.383 . S
C345 H353 0.929 . S
C346 C345 1.383 . S
C346 C347 1.377 . S
C347 H331 0.927 . S
C347 C346 1.377 . S
C347 C348 1.379 . S
C348 H332 0.931 . S
C348 C342 1.383 . S
C348 C347 1.379 . S
H349 C343 0.959 . S
H350 C343 0.961 . S
H351 C343 0.960 . S
H352 C344 0.930 . S
H353 C345 0.929 . S
H354 C362 0.929 . S
H355 C364 0.930 . S
H356 C366 0.930 . S
H357 C369 0.929 . S
H358 C372 0.930 . S
H359 C374 0.960 . S
H360 C374 0.960 . S
H361 C374 0.960 . S
C362 H354 0.929 . S
C362 C363 1.357 1_565 S
C362 C364 1.384 . S
C363 C362 1.357 1_545 S
C363 C369 1.423 . S
C364 H355 0.930 . S
C364 C362 1.384 . S
C364 C365 1.363 1_565 S
C365 C364 1.363 1_545 S
C365 C366 1.405 . S
C365 C370 1.481 . S
C366 H356 0.930 . S
C366 C365 1.405 . S
C366 C369 1.386 . S
H367 C383 0.930 . S
H368 C384 0.931 . S
C369 H357 0.929 . S
C369 C363 1.423 . S
C369 C366 1.386 . S
C370 C365 1.481 . S
C370 C372 1.406 . S
C370 C373 1.405 1_545 S
H371 C377 0.930 . S
C372 H358 0.930 . S
C372 C370 1.406 . S
C372 C375 1.403 . S
C373 C370 1.405 1_565 S
C373 C374 1.524 . S
C373 C377 1.400 . S
C374 H359 0.960 . S
C374 H360 0.960 . S
C374 H361 0.960 . S
C374 C373 1.524 . S
C375 C372 1.403 . S
C375 C376 1.392 . S
C375 C379 1.495 . S
C376 C375 1.392 . S
C376 C377 1.385 1_545 S
C376 C378 1.478 . S
C377 H371 0.930 . S
C377 C373 1.400 . S
C377 C376 1.385 1_565 S
C378 C376 1.478 . S
C378 C380 1.381 1_545 S
C378 C384 1.383 . S
C379 C375 1.495 . S
C379 H385 0.959 . S
C379 H386 0.961 . S
C379 H387 0.960 . S
C380 C378 1.381 1_565 S
C380 C381 1.394 . S
C380 H388 0.930 . S
C381 C380 1.394 . S
C381 C382 1.383 1_565 S
C381 H389 0.929 . S
C382 C381 1.383 1_545 S
C382 C383 1.377 . S
C383 H367 0.930 . S
C383 C382 1.377 . S
C383 C384 1.379 . S
C384 H368 0.931 . S
C384 C378 1.383 . S
C384 C383 1.379 . S
H385 C379 0.959 . S
H386 C379 0.961 . S
H387 C379 0.960 . S
H388 C380 0.930 . S
H389 C381 0.929 . S
H390 C398 0.929 . S
H391 C400 0.930 . S
H392 C402 0.930 . S
H393 C405 0.929 . S
H394 C408 0.930 . S
H395 C410 0.960 . S
H396 C410 0.960 . S
H397 C410 0.960 . S
C398 H390 0.929 . S
C398 C399 1.377 1_655 S
C398 C400 1.384 . S
C399 C398 1.377 1_455 S
C399 C405 1.390 . S
C400 H391 0.930 . S
C400 C398 1.384 . S
C400 C401 1.386 1_655 S
C401 C400 1.386 1_455 S
C401 C402 1.396 . S
C401 C406 1.477 1_455 S
C402 H392 0.930 . S
C402 C401 1.396 . S
C402 C405 1.386 . S
H403 C419 0.930 . S
H404 C420 0.931 . S
C405 H393 0.929 . S
C405 C399 1.390 . S
C405 C402 1.386 . S
C406 C401 1.477 1_655 S
C406 C408 1.403 . S
C406 C409 1.398 1_655 S
H407 C413 0.930 . S
C408 H394 0.930 . S
C408 C406 1.403 . S
C408 C411 1.403 . S
C409 C406 1.398 1_455 S
C409 C410 1.524 . S
C409 C413 1.400 . S
C410 H395 0.960 . S
C410 H396 0.960 . S
C410 H397 0.960 . S
C410 C409 1.524 . S
C411 C408 1.403 . S
C411 C412 1.392 . S
C411 C415 1.495 . S
C412 C411 1.392 . S
C412 C413 1.385 1_655 S
C412 C414 1.478 . S
C413 H407 0.930 . S
C413 C409 1.400 . S
C413 C412 1.385 1_455 S
C414 C412 1.478 . S
C414 C416 1.381 . S
C414 C420 1.383 . S
C415 C411 1.495 . S
C415 H421 0.959 . S
C415 H422 0.961 . S
C415 H423 0.960 . S
C416 C414 1.381 . S
C416 C417 1.394 . S
C416 H424 0.930 . S
C417 C416 1.394 . S
C417 C418 1.383 . S
C417 H425 0.937 . S
C418 C417 1.383 . S
C418 C419 1.377 . S
C419 H403 0.930 . S
C419 C418 1.377 . S
C419 C420 1.379 . S
C420 H404 0.931 . S
C420 C414 1.383 . S
C420 C419 1.379 . S
H421 C415 0.959 . S
H422 C415 0.961 . S
H423 C415 0.960 . S
H424 C416 0.930 . S
H425 C417 0.937 . S
H426 C434 0.929 . S
H427 C436 0.930 . S
H428 C438 0.930 . S
H429 C441 0.929 . S
H430 C444 0.930 . S
H431 C446 0.960 . S
H432 C446 0.960 . S
H433 C446 0.960 1_545 S
C434 H426 0.929 . S
C434 C435 1.351 1_565 S
C434 C436 1.384 . S
C435 C434 1.351 1_545 S
C435 C441 1.428 . S
C436 H427 0.930 . S
C436 C434 1.384 . S
C436 C437 1.372 . S
C437 C436 1.372 . S
C437 C438 1.399 1_565 S
C437 C442 1.490 1_565 S
C438 H428 0.930 . S
C438 C437 1.399 1_545 S
C438 C441 1.386 . S
H439 C455 0.930 . S
H440 C456 0.931 . S
C441 H429 0.929 . S
C441 C435 1.428 . S
C441 C438 1.386 . S
C442 C437 1.490 1_545 S
C442 C444 1.394 . S
C442 C445 1.403 1_545 S
H443 C449 0.930 . S
C444 H430 0.930 . S
C444 C442 1.394 . S
C444 C447 1.403 . S
C445 C442 1.403 1_565 S
C445 C446 1.524 . S
C445 C449 1.400 . S
C446 H431 0.960 . S
C446 H432 0.960 . S
C446 H433 0.960 1_565 S
C446 C445 1.524 . S
C447 C444 1.403 . S
C447 C448 1.392 . S
C447 C451 1.495 . S
C448 C447 1.392 . S
C448 C449 1.385 1_545 S
C448 C450 1.478 . S
C449 H443 0.930 . S
C449 C445 1.400 . S
C449 C448 1.385 1_565 S
C450 C448 1.478 . S
C450 C452 1.381 1_545 S
C450 C456 1.383 . S
C451 C447 1.495 . S
C451 H457 0.959 . S
C451 H458 0.961 . S
C451 H459 0.960 1_545 S
C452 C450 1.381 1_565 S
C452 C453 1.394 . S
C452 H460 0.930 . S
C453 C452 1.394 . S
C453 C454 1.383 1_565 S
C453 H461 0.929 . S
C454 C453 1.383 1_545 S
C454 C455 1.377 . S
C455 H439 0.930 . S
C455 C454 1.377 . S
C455 C456 1.379 . S
C456 H440 0.931 . S
C456 C450 1.383 . S
C456 C455 1.379 . S
H457 C451 0.959 . S
H458 C451 0.961 . S
H459 C451 0.960 1_565 S
H460 C452 0.930 . S
H461 C453 0.929 . S
H462 C470 0.929 . S
H463 C472 0.930 . S
H464 C474 0.930 . S
H465 C477 0.929 . S
H466 C480 0.930 . S
H467 C482 0.960 . S
H468 C482 0.960 . S
H469 C482 0.932 1_565 S
C470 H462 0.929 . S
C470 C471 1.377 . S
C470 C472 1.384 . S
C471 C470 1.377 . S
C471 C477 1.390 1_545 S
C472 H463 0.930 . S
C472 C470 1.384 . S
C472 C473 1.372 . S
C473 C472 1.372 . S
C473 C474 1.400 1_545 S
C473 C478 1.490 . S
C474 H464 0.930 . S
C474 C473 1.400 1_565 S
C474 C477 1.386 . S
H475 C491 0.930 . S
H476 C492 0.931 . S
C477 H465 0.929 . S
C477 C471 1.390 1_565 S
C477 C474 1.386 . S
C478 C473 1.490 . S
C478 C480 1.395 1_545 S
C478 C481 1.403 . S
H479 C485 0.930 . S
C480 H466 0.930 . S
C480 C478 1.395 1_565 S
C480 C483 1.403 . S
C481 C478 1.403 . S
C481 C482 1.524 . S
C481 C485 1.400 . S
C482 H467 0.960 . S
C482 H468 0.960 . S
C482 H469 0.932 1_545 S
C482 C481 1.524 . S
C483 C480 1.403 . S
C483 C484 1.392 1_565 S
C483 C487 1.495 . S
C484 C483 1.392 1_545 S
C484 C485 1.385 . S
C484 C486 1.475 . S
C485 H479 0.930 . S
C485 C481 1.400 . S
C485 C484 1.385 . S
C486 C484 1.475 . S
C486 C488 1.386 . S
C486 C492 1.380 1_545 S
C487 C483 1.495 . S
C487 H493 0.959 . S
C487 H494 0.961 . S
C487 H495 0.960 1_565 S
C488 C486 1.386 . S
C488 C489 1.394 . S
C488 H496 0.930 . S
C489 C488 1.394 . S
C489 C490 1.392 . S
C489 H497 0.929 . S
C490 C489 1.392 . S
C490 C491 1.358 1_545 S
C491 H475 0.930 . S
C491 C490 1.358 1_565 S
C491 C492 1.379 . S
C492 H476 0.931 . S
C492 C486 1.380 1_565 S
C492 C491 1.379 . S
H493 C487 0.959 . S
H494 C487 0.961 . S
H495 C487 0.960 1_545 S
H496 C488 0.930 . S
H497 C489 0.929 . S
H498 C506 0.929 . S
H499 C508 0.930 . S
H500 C510 0.930 . S
H501 C513 0.929 . S
H502 C516 0.930 . S
H503 C518 0.960 . S
H504 C518 0.960 . S
H505 C518 0.960 . S
C506 H498 0.929 . S
C506 C507 1.367 1_655 S
C506 C508 1.384 . S
C507 C506 1.367 1_455 S
C507 C513 1.397 . S
C508 H499 0.930 . S
C508 C506 1.384 . S
C508 C509 1.372 . S
C509 C508 1.372 . S
C509 C510 1.400 1_655 S
C509 C514 1.490 . S
C510 H500 0.930 . S
C510 C509 1.400 1_455 S
C510 C513 1.386 . S
H511 C527 0.930 . S
H512 C528 0.931 . S
C513 H501 0.929 . S
C513 C507 1.397 . S
C513 C510 1.386 . S
C514 C509 1.490 . S
C514 C516 1.395 . S
C514 C517 1.403 1_655 S
H515 C521 0.930 . S
C516 H502 0.930 . S
C516 C514 1.395 . S
C516 C519 1.403 . S
C517 C514 1.403 1_455 S
C517 C518 1.524 . S
C517 C521 1.400 . S
C518 H503 0.960 . S
C518 H504 0.960 . S
C518 H505 0.960 . S
C518 C517 1.524 . S
C519 C516 1.403 . S
C519 C520 1.392 . S
C519 C523 1.495 . S
C520 C519 1.392 . S
C520 C521 1.385 1_655 S
C520 C522 1.478 . S
C521 H515 0.930 . S
C521 C517 1.400 . S
C521 C520 1.385 1_455 S
C522 C520 1.478 . S
C522 C524 1.381 . S
C522 C528 1.383 1_655 S
C523 C519 1.495 . S
C523 H529 0.959 . S
C523 H530 0.961 . S
C523 H531 0.960 . S
C524 C522 1.381 . S
C524 C525 1.394 . S
C524 H532 0.930 . S
C525 C524 1.394 . S
C525 C526 1.406 . S
C525 H533 0.929 . S
C526 C525 1.406 . S
C526 C527 1.345 1_655 S
C527 H511 0.930 . S
C527 C526 1.345 1_455 S
C527 C528 1.379 . S
C528 H512 0.931 . S
C528 C522 1.383 1_455 S
C528 C527 1.379 . S
H529 C523 0.959 . S
H530 C523 0.961 . S
H531 C523 0.960 . S
H532 C524 0.930 . S
H533 C525 0.929 . S
H534 C542 0.929 . S
H535 C544 0.930 . S
H536 C546 0.930 . S
H537 C549 0.929 . S
H538 C552 0.930 . S
H539 C554 0.960 . S
H540 C554 0.960 . S
H541 C554 0.960 . S
C542 H534 0.929 . S
C542 C543 1.377 1_565 S
C542 C544 1.384 . S
C543 C542 1.377 1_545 S
C543 C549 1.390 . S
C544 H535 0.930 . S
C544 C542 1.384 . S
C544 C545 1.376 . S
C545 C544 1.376 . S
C545 C546 1.393 1_565 S
C545 C550 1.479 . S
C546 H536 0.930 . S
C546 C545 1.393 1_545 S
C546 C549 1.386 . S
H547 C563 0.930 . S
H548 C564 0.931 . S
C549 H537 0.929 . S
C549 C543 1.390 . S
C549 C546 1.386 . S
C550 C545 1.479 . S
C550 C552 1.432 . S
C550 C553 1.381 1_565 S
H551 C557 0.930 . S
C552 H538 0.930 . S
C552 C550 1.432 . S
C552 C555 1.403 . S
C553 C550 1.381 1_545 S
C553 C554 1.524 . S
C553 C557 1.400 . S
C554 H539 0.960 . S
C554 H540 0.960 . S
C554 H541 0.960 . S
C554 C553 1.524 . S
C555 C552 1.403 . S
C555 C556 1.392 . S
C555 C559 1.495 . S
C556 C555 1.392 . S
C556 C557 1.385 1_565 S
C556 C558 1.478 . S
C557 H551 0.930 . S
C557 C553 1.400 . S
C557 C556 1.385 1_545 S
C558 C556 1.478 . S
C558 C560 1.381 . S
C558 C564 1.383 1_565 S
C559 C555 1.495 . S
C559 H565 0.959 . S
C559 H566 0.961 . S
C559 H567 0.960 . S
C560 C558 1.381 . S
C560 C561 1.394 . S
C560 H568 0.930 . S
C561 C560 1.394 . S
C561 C562 1.381 1_565 S
C561 H569 0.929 . S
C562 C561 1.381 1_545 S
C562 C563 1.380 . S
C563 H547 0.930 . S
C563 C562 1.380 . S
C563 C564 1.379 . S
C564 H548 0.931 . S
C564 C558 1.383 1_545 S
C564 C563 1.379 . S
H565 C559 0.959 . S
H566 C559 0.961 . S
H567 C559 0.960 . S
H568 C560 0.930 . S
H569 C561 0.929 . S
H570 C578 0.929 . S
H571 C580 0.930 . S
H572 C582 0.930 . S
H573 C585 0.929 . S
H574 C588 0.930 . S
H575 C590 0.960 . S
H576 C590 0.960 . S
H577 C590 0.960 . S
C578 H570 0.929 . S
C578 C579 1.353 1_655 S
C578 C580 1.384 . S
C579 C578 1.353 1_455 S
C579 C585 1.406 . S
C580 H571 0.930 . S
C580 C578 1.384 . S
C580 C581 1.381 . S
C581 C580 1.381 . S
C581 C582 1.386 1_655 S
C581 C586 1.495 . S
C582 H572 0.930 . S
C582 C581 1.386 1_455 S
C582 C585 1.386 . S
H583 C599 0.930 . S
H584 C600 0.931 . S
C585 H573 0.929 . S
C585 C579 1.406 . S
C585 C582 1.386 . S
C586 C581 1.495 . S
C586 C588 1.395 . S
C586 C589 1.403 1_655 S
H587 C593 0.930 . S
C588 H574 0.930 . S
C588 C586 1.395 . S
C588 C591 1.403 . S
C589 C586 1.403 1_455 S
C589 C590 1.524 . S
C589 C593 1.400 . S
C590 H575 0.960 . S
C590 H576 0.960 . S
C590 H577 0.960 . S
C590 C589 1.524 . S
C591 C588 1.403 . S
C591 C592 1.392 . S
C591 C595 1.495 . S
C592 C591 1.392 . S
C592 C593 1.385 1_655 S
C592 C594 1.478 . S
C593 H587 0.930 . S
C593 C589 1.400 . S
C593 C592 1.385 1_455 S
C594 C592 1.478 . S
C594 C596 1.381 . S
C594 C600 1.383 1_655 S
C595 C591 1.495 . S
C595 H601 0.959 . S
C595 H602 0.961 . S
C595 H603 0.960 . S
C596 C594 1.381 . S
C596 C597 1.394 . S
C596 H604 0.930 . S
C597 C596 1.394 . S
C597 C598 1.383 . S
C597 H605 0.929 . S
C598 C597 1.383 . S
C598 C599 1.377 1_655 S
C599 H583 0.930 . S
C599 C598 1.377 1_455 S
C599 C600 1.379 . S
C600 H584 0.931 . S
C600 C594 1.383 1_455 S
C600 C599 1.379 . S
H601 C595 0.959 . S
H602 C595 0.961 . S
H603 C595 0.960 . S
H604 C596 0.930 . S
H605 C597 0.929 . S
H606 C614 0.929 . S
H607 C616 0.950 . S
H608 C618 0.928 . S
H609 C621 0.948 . S
H610 C624 0.930 . S
H611 C626 0.960 . S
H612 C626 0.960 . S
H613 C626 0.960 . S
C614 H606 0.929 . S
C614 C615 1.379 1_556 S
C614 C616 1.373 . S
C615 C614 1.379 1_554 S
C615 C621 1.382 . S
C616 H607 0.950 . S
C616 C614 1.373 . S
C616 C617 1.365 1_556 S
C617 C616 1.365 1_554 S
C617 C618 1.387 . S
C617 C622 1.491 . S
C618 H608 0.928 . S
C618 C617 1.387 . S
C618 C621 1.382 . S
H619 C635 0.930 . S
H620 C636 0.931 . S
C621 H609 0.948 . S
C621 C615 1.382 . S
C621 C618 1.382 . S
C622 C617 1.491 . S
C622 C624 1.395 . S
C622 C625 1.403 1_554 S
H623 C629 0.930 . S
C624 H610 0.930 . S
C624 C622 1.395 . S
C624 C627 1.403 . S
C625 C622 1.403 1_556 S
C625 C626 1.524 . S
C625 C629 1.400 . S
C626 H611 0.960 . S
C626 H612 0.960 . S
C626 H613 0.960 . S
C626 C625 1.524 . S
C627 C624 1.403 . S
C627 C628 1.392 . S
C627 C631 1.495 . S
C628 C627 1.392 . S
C628 C629 1.385 1_554 S
C628 C630 1.478 . S
C629 H623 0.930 . S
C629 C625 1.400 . S
C629 C628 1.385 1_556 S
C630 C628 1.478 . S
C630 C632 1.381 . S
C630 C636 1.383 . S
C631 C627 1.495 . S
C631 H637 0.959 . S
C631 H638 0.961 . S
C631 H639 0.960 . S
C632 C630 1.381 . S
C632 C633 1.384 1_554 S
C632 H640 0.922 1_554 S
C633 C632 1.384 1_556 S
C633 C634 1.374 1_556 S
C633 H641 0.949 . S
C634 C633 1.374 1_554 S
C634 C635 1.377 . S
C635 H619 0.930 . S
C635 C634 1.377 . S
C635 C636 1.379 . S
C636 H620 0.931 . S
C636 C630 1.383 . S
C636 C635 1.379 . S
H637 C631 0.959 . S
H638 C631 0.961 . S
H639 C631 0.960 . S
H640 C632 0.922 1_556 S
H641 C633 0.949 . S
H642 C650 0.929 . S
H643 C652 0.930 . S
H644 C654 0.930 . S
H645 C657 0.929 . S
H646 C660 0.930 . S
H647 C662 0.960 . S
H648 C662 0.960 . S
H649 C662 0.960 . S
C650 H642 0.929 . S
C650 C651 1.375 1_556 S
C650 C652 1.384 . S
C651 C650 1.375 1_554 S
C651 C657 1.398 . S
C652 H643 0.930 . S
C652 C650 1.384 . S
C652 C653 1.382 . S
C653 C652 1.382 . S
C653 C654 1.396 1_556 S
C653 C658 1.484 . S
C654 H644 0.930 . S
C654 C653 1.396 1_554 S
C654 C657 1.386 . S
H655 C671 0.930 . S
H656 C672 0.931 . S
C657 H645 0.929 . S
C657 C651 1.398 . S
C657 C654 1.386 . S
C658 C653 1.484 . S
C658 C660 1.395 . S
C658 C661 1.403 1_556 S
H659 C665 0.930 . S
C660 H646 0.930 . S
C660 C658 1.395 . S
C660 C663 1.403 . S
C661 C658 1.403 1_554 S
C661 C662 1.524 . S
C661 C665 1.400 . S
C662 H647 0.960 . S
C662 H648 0.960 . S
C662 H649 0.960 . S
C662 C661 1.524 . S
C663 C660 1.403 . S
C663 C664 1.392 . S
C663 C667 1.495 . S
C664 C663 1.392 . S
C664 C665 1.385 1_556 S
C664 C666 1.478 . S
C665 H659 0.930 . S
C665 C661 1.400 . S
C665 C664 1.385 1_554 S
C666 C664 1.478 . S
C666 C668 1.381 . S
C666 C672 1.383 1_556 S
C667 C663 1.495 . S
C667 H673 0.959 . S
C667 H674 0.961 . S
C667 H675 0.960 . S
C668 C666 1.381 . S
C668 C669 1.394 . S
C668 H676 0.930 . S
C669 C668 1.394 . S
C669 C670 1.383 . S
C669 H677 0.929 . S
C670 C669 1.383 . S
C670 C671 1.377 1_556 S
C671 H655 0.930 . S
C671 C670 1.377 1_554 S
C671 C672 1.379 . S
C672 H656 0.931 . S
C672 C666 1.383 1_554 S
C672 C671 1.379 . S
H673 C667 0.959 . S
H674 C667 0.961 . S
H675 C667 0.960 . S
H676 C668 0.930 . S
H677 C669 0.929 . S
H678 C686 0.929 . S
H679 C688 0.930 . S
H680 C690 0.930 . S
H681 C693 0.929 . S
H682 C696 0.930 . S
H683 C698 0.960 . S
H684 C698 0.960 1_554 S
H685 C698 0.960 . S
C686 H678 0.929 . S
C686 C687 1.405 . S
C686 C688 1.384 . S
C687 C686 1.405 . S
C687 C693 1.375 1_554 S
C688 H679 0.930 . S
C688 C686 1.384 . S
C688 C689 1.372 . S
C689 C688 1.372 . S
C689 C690 1.400 1_554 S
C689 C694 1.490 . S
C690 H680 0.930 . S
C690 C689 1.400 1_556 S
C690 C693 1.386 . S
H691 C707 0.930 . S
H692 C708 0.931 . S
C693 H681 0.929 . S
C693 C687 1.375 1_556 S
C693 C690 1.386 . S
C694 C689 1.490 . S
C694 C696 1.395 . S
C694 C697 1.408 1_554 S
H695 C701 0.918 . S
C696 H682 0.930 . S
C696 C694 1.395 . S
C696 C699 1.403 . S
C697 C694 1.408 1_556 S
C697 C698 1.521 . S
C697 C701 1.405 . S
C698 H683 0.960 . S
C698 H684 0.960 1_556 S
C698 H685 0.960 . S
C698 C697 1.521 . S
C699 C696 1.403 . S
C699 C700 1.392 . S
C699 C703 1.495 . S
C700 C699 1.392 . S
C700 C701 1.390 1_554 S
C700 C702 1.478 . S
C701 H695 0.918 . S
C701 C697 1.405 . S
C701 C700 1.390 1_556 S
C702 C700 1.478 . S
C702 C704 1.381 . S
C702 C708 1.383 1_554 S
C703 C699 1.495 . S
C703 H709 0.959 . S
C703 H710 0.961 1_554 S
C703 H711 0.960 . S
C704 C702 1.381 . S
C704 C705 1.394 . S
C704 H712 0.930 . S
C705 C704 1.394 . S
C705 C706 1.391 . S
C705 H713 0.929 . S
C706 C705 1.391 . S
C706 C707 1.364 1_554 S
C707 H691 0.930 . S
C707 C706 1.364 1_556 S
C707 C708 1.379 . S
C708 H692 0.931 . S
C708 C702 1.383 1_556 S
C708 C707 1.379 . S
H709 C703 0.959 . S
H710 C703 0.961 1_556 S
H711 C703 0.960 . S
H712 C704 0.930 . S
H713 C705 0.929 . S
H714 C722 0.929 . S
H715 C724 0.930 . S
H716 C726 0.930 . S
H717 C729 0.929 . S
H718 C732 0.930 . S
H719 C734 0.960 . S
H720 C734 0.960 . S
H721 C734 0.960 . S
C722 H714 0.929 . S
C722 C723 1.357 1_556 S
C722 C724 1.384 . S
C723 C722 1.357 1_554 S
C723 C729 1.403 . S
C724 H715 0.930 . S
C724 C722 1.384 . S
C724 C725 1.372 . S
C725 C724 1.372 . S
C725 C726 1.399 1_556 S
C725 C730 1.490 . S
C726 H716 0.930 . S
C726 C725 1.399 1_554 S
C726 C729 1.386 . S
H727 C743 0.930 . S
H728 C744 0.931 . S
C729 H717 0.929 . S
C729 C723 1.403 . S
C729 C726 1.386 . S
C730 C725 1.490 . S
C730 C732 1.395 . S
C730 C733 1.403 1_556 S
H731 C737 0.930 . S
C732 H718 0.930 . S
C732 C730 1.395 . S
C732 C735 1.403 . S
C733 C730 1.403 1_554 S
C733 C734 1.524 . S
C733 C737 1.400 . S
C734 H719 0.960 . S
C734 H720 0.960 . S
C734 H721 0.960 . S
C734 C733 1.524 . S
C735 C732 1.403 . S
C735 C736 1.392 . S
C735 C739 1.495 . S
C736 C735 1.392 . S
C736 C737 1.385 1_556 S
C736 C738 1.478 . S
C737 H731 0.930 . S
C737 C733 1.400 . S
C737 C736 1.385 1_554 S
C738 C736 1.478 . S
C738 C740 1.381 . S
C738 C744 1.383 1_556 S
C739 C735 1.495 . S
C739 H745 0.959 . S
C739 H746 0.961 . S
C739 H747 0.960 . S
C740 C738 1.381 . S
C740 C741 1.394 . S
C740 H748 0.930 . S
C741 C740 1.394 . S
C741 C742 1.383 . S
C741 H749 0.929 . S
C742 C741 1.383 . S
C742 C743 1.377 1_556 S
C743 H727 0.930 . S
C743 C742 1.377 1_554 S
C743 C744 1.379 . S
C744 H728 0.931 . S
C744 C738 1.383 1_554 S
C744 C743 1.379 . S
H745 C739 0.959 . S
H746 C739 0.961 . S
H747 C739 0.960 . S
H748 C740 0.930 . S
H749 C741 0.929 . S
C327 C29 1.502 . S
C346 C241 1.500 . S
C363 C38 1.490 . S
C382 C303 1.493 . S
C399 C234 1.500 . S
C418 C22 1.492 . S
C435 C304 1.488 . S
C454 C39 1.495 . S
C471 C294 1.500 . S
C490 C91 1.509 . S
C507 C128 1.503 . S
C526 C251 1.504 1_655 S
C543 C287 1.500 . S
C562 C92 1.496 . S
C579 C250 1.507 . S
C598 C135 1.492 . S
C615 C144 1.498 . S
C634 C198 1.507 . S
C651 C188 1.502 . S
C670 C75 1.498 1_556 S
C687 C145 1.480 1_554 S
C706 C197 1.499 . S
C723 C181 1.507 . S
C742 C82 1.490 . S
