# Generated by pormake.
# Topology vmd, (6)-cn, num edge types: 1
# Building blocks:
#     Node 0, Type 0, BuildingBlock: IZENUY_clean_sbu_0, # of connection points: 6
#     Node 1, Type 0, BuildingBlock: IZENUY_clean_sbu_0, # of connection points: 6
#     Node 2, Type 0, BuildingBlock: IZENUY_clean_sbu_0, # of connection points: 6
#     Node 3, Type 0, BuildingBlock: IZENUY_clean_sbu_0, # of connection points: 6
#     Node 4, Type 0, BuildingBlock: IZENUY_clean_sbu_0, # of connection points: 6
#     Node 5, Type 0, BuildingBlock: IZENUY_clean_sbu_0, # of connection points: 6
#     Node 6, Type 0, BuildingBlock: IZENUY_clean_sbu_0, # of connection points: 6
#     Node 7, Type 0, BuildingBlock: IZENUY_clean_sbu_0, # of connection points: 6
#     Edge 8, Type (0, 0), BuildingBlock: AJUNOK_clean_linker_0, # of connection points: 2
#     Edge 9, Type (0, 0), BuildingBlock: AJUNOK_clean_linker_0, # of connection points: 2
#     Edge 10, Type (0, 0), BuildingBlock: AJUNOK_clean_linker_0, # of connection points: 2
#     Edge 11, Type (0, 0), BuildingBlock: AJUNOK_clean_linker_0, # of connection points: 2
#     Edge 12, Type (0, 0), BuildingBlock: AJUNOK_clean_linker_0, # of connection points: 2
#     Edge 13, Type (0, 0), BuildingBlock: AJUNOK_clean_linker_0, # of connection points: 2
#     Edge 14, Type (0, 0), BuildingBlock: AJUNOK_clean_linker_0, # of connection points: 2
#     Edge 15, Type (0, 0), BuildingBlock: AJUNOK_clean_linker_0, # of connection points: 2
#     Edge 16, Type (0, 0), BuildingBlock: AJUNOK_clean_linker_0, # of connection points: 2
#     Edge 17, Type (0, 0), BuildingBlock: AJUNOK_clean_linker_0, # of connection points: 2
#     Edge 18, Type (0, 0), BuildingBlock: AJUNOK_clean_linker_0, # of connection points: 2
#     Edge 19, Type (0, 0), BuildingBlock: AJUNOK_clean_linker_0, # of connection points: 2
#     Edge 20, Type (0, 0), BuildingBlock: AJUNOK_clean_linker_0, # of connection points: 2
#     Edge 21, Type (0, 0), BuildingBlock: AJUNOK_clean_linker_0, # of connection points: 2
#     Edge 22, Type (0, 0), BuildingBlock: AJUNOK_clean_linker_0, # of connection points: 2
#     Edge 23, Type (0, 0), BuildingBlock: AJUNOK_clean_linker_0, # of connection points: 2
#     Edge 24, Type (0, 0), BuildingBlock: AJUNOK_clean_linker_0, # of connection points: 2
#     Edge 25, Type (0, 0), BuildingBlock: AJUNOK_clean_linker_0, # of connection points: 2
#     Edge 26, Type (0, 0), BuildingBlock: AJUNOK_clean_linker_0, # of connection points: 2
#     Edge 27, Type (0, 0), BuildingBlock: AJUNOK_clean_linker_0, # of connection points: 2
#     Edge 28, Type (0, 0), BuildingBlock: AJUNOK_clean_linker_0, # of connection points: 2
#     Edge 29, Type (0, 0), BuildingBlock: AJUNOK_clean_linker_0, # of connection points: 2
#     Edge 30, Type (0, 0), BuildingBlock: AJUNOK_clean_linker_0, # of connection points: 2
#     Edge 31, Type (0, 0), BuildingBlock: AJUNOK_clean_linker_0, # of connection points: 2
# Relax obj value: 0.251
# Max RMSD: 0.250
# Mean RMSD: 0.249
data_MOF--net-vmd--node1-IZENUY_clean_sbu_0--edge1-AJUNOK_clean_linker_0
_symmetry_space_group_name_H-M    P1
_symmetry_Int_Tables_number       1
_symmetry_cell_setting            triclinic
loop_
_symmetry_equiv_pos_as_xyz
'x, y, z'
_cell_length_a     35.010244
_cell_length_b     19.432859
_cell_length_c     21.478917
_cell_angle_alpha  89.995761
_cell_angle_beta   97.203682
_cell_angle_gamma 90.011118
loop_
_atom_site_label
_atom_site_type_symbol
_atom_site_fract_x
_atom_site_fract_y
_atom_site_fract_z
_atom_type_partial_charge
Fe0 Fe 0.17677 0.51812 0.28534 0.0
Fe1 Fe 0.17085 0.37433 0.33967 0.0
O2 O 0.19619 0.43482 0.29882 0.0
Fe3 Fe 0.23987 0.41277 0.2715 0.0
O4 O 0.26634 0.48436 0.31102 0.0
O5 O 0.22295 0.5619 0.27972 0.0
O6 O 0.1837 0.53481 0.36844 0.0
C7 C 0.16922 0.49708 0.40712 0.0
C8 C 0.19615 0.48533 0.17115 0.0
O9 O 0.15238 0.44124 0.38895 0.0
C10 C 0.20493 0.28898 0.25214 0.0
O11 O 0.12635 0.49134 0.28645 0.0
O12 O 0.12861 0.37894 0.28075 0.0
O13 O 0.22828 0.46197 0.19752 0.0
O14 O 0.16982 0.50306 0.20278 0.0
C15 C 0.24389 0.35295 0.39488 0.0
O16 O 0.18773 0.29571 0.30055 0.0
O17 O 0.21768 0.34137 0.22808 0.0
C18 C 0.10953 0.43426 0.27365 0.0
O19 O 0.20983 0.36797 0.40086 0.0
O20 O 0.25688 0.35869 0.342 0.0
C21 C 0.25735 0.54622 0.29962 0.0
Fe22 Fe 0.87432 0.51384 0.22605 0.0
Fe23 Fe 0.87939 0.37552 0.16209 0.0
O24 O 0.85499 0.43131 0.20892 0.0
Fe25 Fe 0.8123 0.40523 0.23813 0.0
O26 O 0.78451 0.47871 0.20483 0.0
O27 O 0.82834 0.55609 0.23565 0.0
O28 O 0.86584 0.53681 0.1444 0.0
C29 C 0.87975 0.50317 0.1026 0.0
C30 C 0.8574 0.4744 0.3401 0.0
O31 O 0.89701 0.44648 0.116 0.0
C32 C 0.84843 0.28178 0.24639 0.0
O33 O 0.92465 0.4882 0.22154 0.0
O34 O 0.92262 0.37552 0.21877 0.0
O35 O 0.82522 0.44962 0.31503 0.0
O36 O 0.88278 0.49298 0.30715 0.0
C37 C 0.8056 0.35597 0.11033 0.0
O38 O 0.86359 0.2939 0.19678 0.0
O39 O 0.83571 0.33078 0.2756 0.0
C40 C 0.94124 0.43045 0.23179 0.0
O41 O 0.83908 0.37396 0.10329 0.0
O42 O 0.79407 0.35602 0.16472 0.0
C43 C 0.79374 0.54031 0.21725 0.0
Fe44 Fe 0.80973 0.64117 0.73521 0.0
Fe45 Fe 0.87853 0.67318 0.6644 0.0
O46 O 0.85337 0.61629 0.7088 0.0
Fe47 Fe 0.87287 0.53377 0.72631 0.0
O48 O 0.8266 0.49086 0.73333 0.0
O49 O 0.7832 0.56765 0.69933 0.0
O50 O 0.79287 0.69101 0.66188 0.0
C51 C 0.80561 0.69207 0.6085 0.0
C52 C 0.85339 0.57335 0.83897 0.0
O53 O 0.83947 0.67497 0.60318 0.0
C54 C 0.93977 0.61855 0.73511 0.0
O55 O 0.83173 0.71569 0.77478 0.0
O56 O 0.86161 0.75407 0.69873 0.0
O57 O 0.87957 0.55372 0.80788 0.0
O58 O 0.82128 0.59621 0.8118 0.0
C59 C 0.88139 0.5462 0.604 0.0
O60 O 0.9204 0.67289 0.7236 0.0
O61 O 0.92354 0.56036 0.72474 0.0
C62 C 0.84529 0.76523 0.74734 0.0
O63 O 0.89763 0.6033 0.61924 0.0
O64 O 0.86621 0.51167 0.64404 0.0
C65 C 0.79227 0.50621 0.71251 0.0
Fe66 Fe 0.17491 0.53377 0.78379 0.0
Fe67 Fe 0.23852 0.63913 0.77208 0.0
O68 O 0.19493 0.61615 0.79968 0.0
Fe69 Fe 0.17045 0.67479 0.84362 0.0
O70 O 0.15175 0.60622 0.89112 0.0
O71 O 0.18213 0.51346 0.86593 0.0
O72 O 0.22085 0.48973 0.77677 0.0
C73 C 0.25533 0.5046 0.79706 0.0
C74 C 0.10844 0.6192 0.77524 0.0
O75 O 0.26479 0.56611 0.80935 0.0
C76 C 0.20367 0.7635 0.75736 0.0
O77 O 0.16781 0.55219 0.70198 0.0
O78 O 0.2266 0.59205 0.69665 0.0
O79 O 0.12799 0.67362 0.78546 0.0
O80 O 0.12458 0.56115 0.78623 0.0
C81 C 0.2437 0.69414 0.8976 0.0
O82 O 0.2165 0.71249 0.73103 0.0
O83 O 0.18746 0.75452 0.80656 0.0
C84 C 0.19459 0.56777 0.67061 0.0
O85 O 0.256 0.6909 0.84395 0.0
O86 O 0.20997 0.67757 0.9041 0.0
C87 C 0.16853 0.54954 0.90649 0.0
Fe88 Fe 0.67686 1.01475 0.27744 0.0
Fe89 Fe 0.67246 0.8756 0.34092 0.0
O90 O 0.69669 0.93254 0.29511 0.0
Fe91 Fe 0.73992 0.90803 0.26737 0.0
O92 O 0.7666 0.98151 0.30307 0.0
O93 O 0.72293 0.05767 0.2687 0.0
O94 O 0.68448 0.03751 0.35933 0.0
C95 C 0.67071 1.00306 0.40089 0.0
C96 C 0.69542 0.97542 0.16433 0.0
O97 O 0.65415 0.94578 0.38709 0.0
C98 C 0.70468 0.78394 0.256 0.0
O99 O 0.6265 0.98802 0.28118 0.0
O100 O 0.62972 0.87548 0.28341 0.0
O101 O 0.72773 0.95337 0.19125 0.0
O102 O 0.66921 0.99412 0.19581 0.0
C103 C 0.74581 0.85562 0.39372 0.0
O104 O 0.68897 0.79455 0.30544 0.0
O105 O 0.7173 0.83407 0.22811 0.0
C106 C 0.61027 0.92973 0.27184 0.0
O107 O 0.71243 0.87418 0.40073 0.0
O108 O 0.75766 0.85742 0.33974 0.0
C109 C 0.75737 0.04283 0.28947 0.0
Fe110 Fe 0.37534 1.01518 0.22637 0.0
Fe111 Fe 0.37894 0.87558 0.16416 0.0
O112 O 0.355 0.9332 0.20991 0.0
Fe113 Fe 0.31182 0.9096 0.2389 0.0
O114 O 0.28515 0.98377 0.20432 0.0
O115 O 0.32987 0.05944 0.23547 0.0
O116 O 0.36706 0.03711 0.14455 0.0
C117 C 0.38054 1.00223 0.1031 0.0
C118 C 0.35754 0.97835 0.34041 0.0
O119 O 0.39715 0.94501 0.11677 0.0
C120 C 0.34688 0.78493 0.24997 0.0
O121 O 0.42546 0.98789 0.22187 0.0
O122 O 0.42198 0.87552 0.22109 0.0
O123 O 0.32507 0.95487 0.31522 0.0
O124 O 0.38347 0.99499 0.30773 0.0
C125 C 0.30508 0.85745 0.11198 0.0
O126 O 0.36244 0.79531 0.2004 0.0
O127 O 0.33399 0.83488 0.27771 0.0
C128 C 0.4416 0.92972 0.23182 0.0
O129 O 0.3388 0.87381 0.10505 0.0
O130 O 0.29324 0.85957 0.16611 0.0
C131 C 0.29514 0.04508 0.21651 0.0
Fe132 Fe 0.3098 0.13997 0.73679 0.0
Fe133 Fe 0.37865 0.17483 0.66682 0.0
O134 O 0.35365 0.1165 0.71022 0.0
Fe135 Fe 0.37358 0.03402 0.72674 0.0
O136 O 0.32757 0.98999 0.73292 0.0
O137 O 0.28364 0.06643 0.70031 0.0
O138 O 0.29267 0.19056 0.66404 0.0
C139 C 0.30554 0.19311 0.61083 0.0
C140 C 0.35377 0.0719 0.83984 0.0
O141 O 0.33962 0.17746 0.60545 0.0
C142 C 0.44015 0.11965 0.73663 0.0
O143 O 0.33132 0.21415 0.77736 0.0
O144 O 0.36139 0.25473 0.70245 0.0
O145 O 0.38006 0.05258 0.80876 0.0
O146 O 0.32156 0.09418 0.81269 0.0
C147 C 0.38201 0.04911 0.60452 0.0
O148 O 0.42057 0.17395 0.72606 0.0
O149 O 0.42407 0.06148 0.72563 0.0
C150 C 0.3448 0.26449 0.751 0.0
O151 O 0.39802 0.10618 0.62064 0.0
O152 O 0.36716 1.01338 0.64415 0.0
C153 C 0.29307 1.005 0.71289 0.0
Fe154 Fe 0.67112 0.17447 0.84077 0.0
Fe155 Fe 0.67561 0.03519 0.7775 0.0
O156 O 0.69552 0.11737 0.79531 0.0
Fe157 Fe 0.73907 0.14138 0.76818 0.0
O158 O 0.75664 0.19203 0.84069 0.0
O159 O 0.71089 0.17658 0.90091 0.0
O160 O 0.65293 0.10437 0.88733 0.0
C161 C 0.66965 0.04718 0.90091 0.0
C162 C 0.70319 0.26535 0.75497 0.0
O163 O 0.68321 1.01253 0.85929 0.0
C164 C 0.69464 0.07439 0.66474 0.0
O165 O 0.6284 0.17416 0.78319 0.0
O166 O 0.62525 0.06173 0.7813 0.0
O167 O 0.7171 0.21554 0.72846 0.0
O168 O 0.68754 0.25518 0.80459 0.0
C169 C 0.75593 1.00637 0.79039 0.0
O170 O 0.66818 0.056 0.69589 0.0
O171 O 0.727 0.0961 0.69192 0.0
C172 C 0.60891 0.11988 0.77218 0.0
O173 O 0.72157 0.99202 0.76889 0.0
O174 O 0.76531 0.06758 0.80427 0.0
C175 C 0.74444 0.19444 0.89441 0.0
C176 C 0.2685 0.2934 0.56244 0.0
C177 C 0.28544 0.22895 0.55553 0.0
C178 C 0.25789 0.33556 0.51006 0.0
C179 C 0.26406 0.31515 0.4489 0.0
H180 H 0.26469 0.31245 0.60867 0.0
H181 H 0.24408 0.38435 0.51729 0.0
S182 S 0.30569 0.1495 0.4056 0.0
N183 N 0.30692 0.1456 0.48266 0.0
N184 N 0.28671 0.22506 0.38456 0.0
C185 C 0.28077 0.25076 0.44139 0.0
C186 C 0.29132 0.20757 0.49455 0.0
C187 C 0.75671 0.21403 0.0098 0.0
C188 C 0.76418 0.23272 0.94875 0.0
C189 C 0.76713 0.25676 0.06192 0.0
C190 C 0.78529 0.32007 0.05499 0.0
H191 H 0.74215 0.16603 0.0172 0.0
H192 H 0.76228 0.23887 0.10806 0.0
S193 S 0.80985 0.39466 0.90542 0.0
N194 N 0.78998 0.31971 0.88469 0.0
N195 N 0.80923 0.40061 0.98195 0.0
C196 C 0.79232 0.33986 0.99402 0.0
C197 C 0.78216 0.29595 0.94124 0.0
C198 C 0.75833 0.83547 0.50874 0.0
C199 C 0.76548 0.81676 0.44759 0.0
C200 C 0.76841 0.79229 0.56051 0.0
C201 C 0.78607 0.72863 0.55316 0.0
H202 H 0.74413 0.88376 0.51645 0.0
H203 H 0.76367 0.81004 0.60675 0.0
S204 S 0.81037 0.65433 0.4034 0.0
N205 N 0.79064 0.72948 0.38295 0.0
N206 N 0.80992 0.64819 0.47999 0.0
C207 C 0.79319 0.70904 0.49224 0.0
C208 C 0.78309 0.75322 0.43965 0.0
C209 C 0.26684 0.75748 0.06465 0.0
C210 C 0.28464 0.82102 0.05704 0.0
C211 C 0.25641 0.71424 0.01287 0.0
C212 C 0.26356 0.73262 0.95159 0.0
H213 H 0.26231 0.73984 0.11102 0.0
H214 H 0.24205 0.66614 0.02069 0.0
S215 S 0.30863 0.89425 0.90652 0.0
N216 N 0.30835 0.90072 0.98311 0.0
N217 N 0.28868 0.81923 0.88652 0.0
C218 C 0.28121 0.7959 0.94341 0.0
C219 C 0.29149 0.84021 0.99582 0.0
C220 C 0.23942 0.10161 0.26041 0.0
C221 C 0.26601 0.10072 0.21624 0.0
C222 C 0.21721 0.16087 0.2691 0.0
C223 C 0.22023 0.22087 0.23298 0.0
H224 H 0.23766 0.05796 0.2913 0.0
H225 H 0.19931 0.16088 0.30672 0.0
S226 S 0.28281 0.24043 0.10574 0.0
N227 N 0.29279 0.16287 0.13442 0.0
N228 N 0.24925 0.27102 0.14562 0.0
C229 C 0.24463 0.21771 0.18508 0.0
C230 C 0.26809 0.1587 0.17825 0.0
C231 C 0.79827 0.14273 0.33026 0.0
C232 C 0.78775 0.09449 0.28267 0.0
C233 C 0.82139 0.1998 0.31991 0.0
C234 C 0.83464 0.21141 0.26121 0.0
H235 H 0.78705 0.13818 0.37477 0.0
H236 H 0.82693 0.23746 0.35714 0.0
S237 S 0.81736 0.09567 0.1229 0.0
N238 N 0.79432 0.05846 0.17643 0.0
N239 N 0.83756 0.16545 0.15647 0.0
C240 C 0.82629 0.16066 0.21459 0.0
C241 C 0.80272 0.10254 0.22533 0.0
C242 C 0.81664 0.84549 0.82038 0.0
C243 C 0.83175 0.8355 0.76298 0.0
C244 C 0.794 0.90316 0.83062 0.0
C245 C 0.78607 0.954 0.78452 0.0
H246 H 0.82028 0.80619 0.85642 0.0
H247 H 0.78104 0.90611 0.87365 0.0
S248 S 0.82055 0.95681 0.62824 0.0
N249 N 0.83863 0.88493 0.66082 0.0
N250 N 0.79656 0.99344 0.68088 0.0
C251 C 0.8028 0.94732 0.72862 0.0
C252 C 0.82572 0.88834 0.71782 0.0
C253 C 0.26133 0.89466 0.67651 0.0
C254 C 0.26306 0.95172 0.71659 0.0
C255 C 0.23873 0.83701 0.68679 0.0
C256 C 0.21781 0.8327 0.73901 0.0
H257 H 0.27883 0.89337 0.63833 0.0
H258 H 0.23976 0.79356 0.65545 0.0
S259 S 0.21095 0.97191 0.85552 0.0
N260 N 0.23986 1.00365 0.8075 0.0
N261 N 0.19848 0.89441 0.82855 0.0
C262 C 0.21767 0.89148 0.77745 0.0
C263 C 0.24019 0.95094 0.76603 0.0
C264 C 0.76262 0.65034 0.17905 0.0
C265 C 0.76376 0.5939 0.21977 0.0
C266 C 0.74008 0.70841 0.18776 0.0
C267 C 0.71874 0.7141 0.23932 0.0
H268 H 0.78065 0.65102 0.14168 0.0
H269 H 0.74159 0.75117 0.1558 0.0
S270 S 0.71062 0.57749 0.35789 0.0
N271 N 0.73974 0.54423 0.31096 0.0
N272 N 0.69858 0.6546 0.32945 0.0
C273 C 0.71813 0.65612 0.2787 0.0
C274 C 0.7405 0.59601 0.26866 0.0
C275 C 0.31945 0.70601 0.3257 0.0
C276 C 0.33351 0.71501 0.26724 0.0
C277 C 0.29677 0.64887 0.33772 0.0
C278 C 0.28781 0.59762 0.29231 0.0
H279 H 0.32391 0.74575 0.36125 0.0
H280 H 0.28463 0.64654 0.38166 0.0
S281 S 0.31943 0.59212 0.13391 0.0
N282 N 0.33831 0.66414 0.16498 0.0
N283 N 0.29638 0.55659 0.18828 0.0
C284 C 0.30363 0.60321 0.23542 0.0
C285 C 0.3265 0.66166 0.22284 0.0
C286 C 0.31442 0.34163 0.82451 0.0
C287 C 0.33112 0.33415 0.76822 0.0
C288 C 0.29168 0.39893 0.83534 0.0
C289 C 0.28544 0.45216 0.79124 0.0
H290 H 0.31684 0.30067 0.85902 0.0
H291 H 0.27743 0.39994 0.87718 0.0
S292 S 0.32441 0.46194 0.63874 0.0
N293 N 0.34113 0.38824 0.66935 0.0
N294 N 0.2992 0.49648 0.69084 0.0
C295 C 0.30383 0.44801 0.73675 0.0
C296 C 0.32666 0.38917 0.72516 0.0
C297 C 0.74471 0.44634 0.77179 0.0
C298 C 0.76185 0.45379 0.71623 0.0
C299 C 0.72204 0.3883 0.78192 0.0
C300 C 0.71585 0.33544 0.73682 0.0
H301 H 0.75083 0.48354 0.8093 0.0
H302 H 0.71197 0.38238 0.82729 0.0
S303 S 0.7497 0.33687 0.57929 0.0
N304 N 0.76778 0.40806 0.61314 0.0
N305 N 0.7248 0.30007 0.63065 0.0
C306 C 0.73023 0.34587 0.6788 0.0
C307 C 0.75347 0.40454 0.66899 0.0
C308 C 0.04636 0.37456 0.23835 0.0
C309 C 0.06657 0.43244 0.26471 0.0
C310 C 1.00578 0.37289 0.22963 0.0
C311 C 0.9839 0.42898 0.24713 0.0
H312 H 0.06196 0.33069 0.22335 0.0
H313 H 0.99153 0.3281 0.20749 0.0
S314 S 1.02258 0.58911 0.32551 0.0
N315 N 0.06113 0.54486 0.31322 0.0
N316 N 0.98555 0.54134 0.29695 0.0
C317 C 1.00378 0.48589 0.27569 0.0
C318 C 0.04486 0.48776 0.28438 0.0
C319 C 0.04433 0.56033 0.75873 0.0
C320 C 0.06552 0.62219 0.76315 0.0
C321 C 1.00402 0.56014 0.75122 0.0
C322 C 0.98268 0.62174 0.74735 0.0
H323 H 0.05893 0.51113 0.7615 0.0
H324 H 0.98953 0.51074 0.74794 0.0
S325 S 1.02388 0.79831 0.75605 0.0
N326 N 0.06187 0.74727 0.76303 0.0
N327 N 0.98603 0.74691 0.7486 0.0
C328 C 1.00338 0.68425 0.75162 0.0
C329 C 0.04468 0.68444 0.75941 0.0
C330 C 0.50578 0.98829 0.24797 0.0
C331 C 0.48452 0.92654 0.2437 0.0
C332 C 0.54608 0.9883 0.25562 0.0
C333 C 0.56735 0.92661 0.25983 0.0
H334 H 0.49125 0.03757 0.245 0.0
H335 H 0.56062 0.03765 0.25873 0.0
S336 S 0.52593 0.75023 0.25166 0.0
N337 N 0.488 0.80143 0.24432 0.0
N338 N 0.56385 0.80146 0.25905 0.0
C339 C 0.54658 0.8642 0.25572 0.0
C340 C 0.50528 0.86418 0.24774 0.0
C341 C 0.54468 0.06119 0.75919 0.0
C342 C 0.56594 0.1229 0.76157 0.0
C343 C 0.50438 0.0612 0.75287 0.0
C344 C 0.4831 0.12289 0.74818 0.0
H345 H 0.55922 1.0119 0.76266 0.0
H346 H 0.48985 1.01188 0.7511 0.0
S347 S 0.52449 0.2992 0.75174 0.0
N348 N 0.56241 0.24799 0.75881 0.0
N349 N 0.48659 0.248 0.74658 0.0
C350 C 0.50386 0.18527 0.75059 0.0
C351 C 0.54516 0.18526 0.75719 0.0
C352 C 0.15022 0.55259 0.01428 0.0
C353 C 0.1749 0.52851 0.97266 0.0
C354 C 0.15736 0.53775 0.07817 0.0
C355 C 0.18981 0.49899 0.1031 0.0
H356 H 0.12526 0.58344 0.99748 0.0
H357 H 0.13735 0.5578 0.10822 0.0
S358 S 0.264 0.42565 0.01352 0.0
N359 N 0.23346 0.4649 0.96029 0.0
N360 N 0.24692 0.43708 0.08094 0.0
C361 C 0.21479 0.47455 0.0619 0.0
C362 C 0.2073 0.4892 0.99653 0.0
C363 C 0.84187 0.46122 0.45051 0.0
C364 C 0.86489 0.48979 0.40807 0.0
C365 C 0.8486 0.47707 0.51467 0.0
C366 C 0.87829 0.52253 0.53837 0.0
H367 H 0.81836 0.42692 0.4341 0.0
H368 H 0.82953 0.45538 0.54551 0.0
S369 S 0.94752 0.6099 0.44757 0.0
N370 N 0.91939 0.5651 0.39519 0.0
N371 N 0.93167 0.59388 0.51516 0.0
C372 C 0.90199 0.55022 0.49678 0.0
C373 C 0.89537 0.53415 0.4318 0.0
C374 C 0.8932 0.52443 0.93267 0.0
C375 C 0.85989 0.56085 0.90738 0.0
C376 C 0.89991 0.50771 0.99617 0.0
C377 C 0.874 0.52763 0.03733 0.0
H378 H 0.91414 0.507 0.90308 0.0
H379 H 0.92542 0.47824 0.01295 0.0
S380 S 0.78291 0.62464 0.99623 0.0
N381 N 0.80104 0.61726 0.92921 0.0
N382 N 0.81383 0.58606 0.04934 0.0
C383 C 0.84107 0.56554 0.01348 0.0
C384 C 0.83396 0.58205 0.94833 0.0
C385 C 0.19734 0.57264 0.49533 0.0
C386 C 0.17396 0.51604 0.47415 0.0
C387 C 0.20498 0.58839 0.55931 0.0
C388 C 0.18923 0.54839 0.604 0.0
H389 H 0.21026 0.60472 0.4624 0.0
H390 H 0.22269 0.63273 0.57373 0.0
S391 S 0.1282 0.39244 0.57394 0.0
N392 N 0.13635 0.41863 0.50379 0.0
N393 N 0.15093 0.44781 0.62366 0.0
C394 C 0.16632 0.49112 0.58367 0.0
C395 C 0.15856 0.47512 0.51882 0.0
C396 C 0.64837 0.03943 0.00661 0.0
C397 C 0.67549 1.02326 0.96629 0.0
C398 C 0.65483 1.02194 0.07006 0.0
C399 C 0.68906 0.98869 0.09599 0.0
H400 H 0.62205 0.0662 0.98912 0.0
H401 H 0.63291 0.03605 0.09909 0.0
S402 S 0.76964 0.9367 0.00951 0.0
N403 N 0.73798 0.97272 0.95586 0.0
N404 N 0.7503 0.94007 0.07567 0.0
C405 C 0.71632 0.97169 0.05584 0.0
C406 C 0.7095 0.98894 0.99087 0.0
C407 C 0.35069 0.97787 0.51543 0.0
C408 C 0.37868 0.02688 0.5384 0.0
C409 C 0.34369 0.96229 0.45125 0.0
C410 C 0.3647 0.99474 0.40806 0.0
H411 H 0.33321 0.95277 0.54694 0.0
H412 H 0.32171 0.92478 0.43543 0.0
S413 S 0.44154 0.12659 0.44463 0.0
N414 N 0.42789 0.10679 0.51311 0.0
N415 N 0.41479 0.07856 0.39304 0.0
C416 C 0.3932 0.04321 0.43077 0.0
C417 C 0.4002 0.05897 0.49578 0.0
C418 C 0.40318 1.01807 0.99921 0.0
C419 C 0.37416 1.0256 0.0378 0.0
C420 C 0.3965 0.0357 0.9358 0.0
C421 C 0.36023 0.06018 0.90834 0.0
H422 H 0.43114 0.99804 0.01806 0.0
H423 H 0.41993 0.02856 0.90795 0.0
S424 S 0.27395 0.08434 0.98991 0.0
N425 N 0.30756 0.05641 0.04489 0.0
N426 N 0.29483 0.08989 0.92534 0.0
C427 C 0.33105 0.06859 0.94695 0.0
C428 C 0.33805 0.05109 0.01179 0.0
C429 C 0.65834 1.01666 0.57223 0.0
C430 C 0.68865 0.06063 0.59658 0.0
C431 C 0.65208 1.00011 0.50862 0.0
C432 C 0.67553 0.02744 0.46642 0.0
H433 H 0.63955 0.99334 0.60267 0.0
H434 H 0.62893 0.96487 0.49262 0.0
S435 S 0.75792 0.14709 0.50541 0.0
N436 N 0.74175 0.13268 0.57318 0.0
N437 N 0.7299 0.10198 0.45285 0.0
C438 C 0.70541 0.07288 0.48959 0.0
C439 C 0.71205 0.08923 0.55483 0.0
loop_
_geom_bond_atom_site_label_1
_geom_bond_atom_site_label_2
_geom_bond_distance
_geom_bond_site_symmetry_2
_ccdc_geom_bond_type
Fe0 O2 1.918 . S
Fe0 O5 1.997 . S
Fe0 O6 2.002 . S
Fe0 O11 1.976 . S
Fe0 O14 1.996 . S
Fe1 O2 1.918 . S
Fe1 O9 1.997 . S
Fe1 O12 1.996 . S
Fe1 O16 1.976 . S
Fe1 O19 2.002 . S
O2 Fe0 1.918 . S
O2 Fe1 1.918 . S
O2 Fe3 1.918 . S
Fe3 O2 1.918 . S
Fe3 O4 2.002 . S
Fe3 O13 1.976 . S
Fe3 O17 1.996 . S
Fe3 O20 1.997 . S
O4 Fe3 2.002 . S
O4 C21 1.295 . S
O5 Fe0 1.997 . S
O5 C21 1.235 . S
O6 Fe0 2.002 . S
O6 C7 1.295 . S
C7 O6 1.295 . S
C7 O9 1.235 . S
C8 O13 1.287 . S
C8 O14 1.255 . S
O9 Fe1 1.997 . S
O9 C7 1.235 . S
C10 O16 1.287 . S
C10 O17 1.255 . S
O11 Fe0 1.976 . S
O11 C18 1.287 . S
O12 Fe1 1.996 . S
O12 C18 1.255 . S
O13 Fe3 1.976 . S
O13 C8 1.287 . S
O14 Fe0 1.996 . S
O14 C8 1.255 . S
C15 O19 1.295 . S
C15 O20 1.235 . S
O16 Fe1 1.976 . S
O16 C10 1.287 . S
O17 Fe3 1.996 . S
O17 C10 1.255 . S
C18 O11 1.287 . S
C18 O12 1.255 . S
O19 Fe1 2.002 . S
O19 C15 1.295 . S
O20 Fe3 1.997 . S
O20 C15 1.235 . S
C21 O4 1.295 . S
C21 O5 1.235 . S
Fe22 O24 1.918 . S
Fe22 O27 1.997 . S
Fe22 O28 2.002 . S
Fe22 O33 1.976 . S
Fe22 O36 1.996 . S
Fe23 O24 1.918 . S
Fe23 O31 1.997 . S
Fe23 O34 1.996 . S
Fe23 O38 1.976 . S
Fe23 O41 2.002 . S
O24 Fe22 1.918 . S
O24 Fe23 1.918 . S
O24 Fe25 1.918 . S
Fe25 O24 1.918 . S
Fe25 O26 2.002 . S
Fe25 O35 1.976 . S
Fe25 O39 1.996 . S
Fe25 O42 1.997 . S
O26 Fe25 2.002 . S
O26 C43 1.295 . S
O27 Fe22 1.997 . S
O27 C43 1.235 . S
O28 Fe22 2.002 . S
O28 C29 1.295 . S
C29 O28 1.295 . S
C29 O31 1.235 . S
C30 O35 1.287 . S
C30 O36 1.255 . S
O31 Fe23 1.997 . S
O31 C29 1.235 . S
C32 O38 1.287 . S
C32 O39 1.255 . S
O33 Fe22 1.976 . S
O33 C40 1.287 . S
O34 Fe23 1.996 . S
O34 C40 1.255 . S
O35 Fe25 1.976 . S
O35 C30 1.287 . S
O36 Fe22 1.996 . S
O36 C30 1.255 . S
C37 O41 1.295 . S
C37 O42 1.235 . S
O38 Fe23 1.976 . S
O38 C32 1.287 . S
O39 Fe25 1.996 . S
O39 C32 1.255 . S
C40 O33 1.287 . S
C40 O34 1.255 . S
O41 Fe23 2.002 . S
O41 C37 1.295 . S
O42 Fe25 1.997 . S
O42 C37 1.235 . S
C43 O26 1.295 . S
C43 O27 1.235 . S
Fe44 O46 1.918 . S
Fe44 O49 1.997 . S
Fe44 O50 2.002 . S
Fe44 O55 1.976 . S
Fe44 O58 1.996 . S
Fe45 O46 1.918 . S
Fe45 O53 1.997 . S
Fe45 O56 1.996 . S
Fe45 O60 1.976 . S
Fe45 O63 2.002 . S
O46 Fe44 1.918 . S
O46 Fe45 1.918 . S
O46 Fe47 1.918 . S
Fe47 O46 1.918 . S
Fe47 O48 2.002 . S
Fe47 O57 1.976 . S
Fe47 O61 1.996 . S
Fe47 O64 1.997 . S
O48 Fe47 2.002 . S
O48 C65 1.295 . S
O49 Fe44 1.997 . S
O49 C65 1.235 . S
O50 Fe44 2.002 . S
O50 C51 1.295 . S
C51 O50 1.295 . S
C51 O53 1.235 . S
C52 O57 1.287 . S
C52 O58 1.255 . S
O53 Fe45 1.997 . S
O53 C51 1.235 . S
C54 O60 1.287 . S
C54 O61 1.255 . S
O55 Fe44 1.976 . S
O55 C62 1.287 . S
O56 Fe45 1.996 . S
O56 C62 1.255 . S
O57 Fe47 1.976 . S
O57 C52 1.287 . S
O58 Fe44 1.996 . S
O58 C52 1.255 . S
C59 O63 1.295 . S
C59 O64 1.235 . S
O60 Fe45 1.976 . S
O60 C54 1.287 . S
O61 Fe47 1.996 . S
O61 C54 1.255 . S
C62 O55 1.287 . S
C62 O56 1.255 . S
O63 Fe45 2.002 . S
O63 C59 1.295 . S
O64 Fe47 1.997 . S
O64 C59 1.235 . S
C65 O48 1.295 . S
C65 O49 1.235 . S
Fe66 O68 1.918 . S
Fe66 O71 1.997 . S
Fe66 O72 2.002 . S
Fe66 O77 1.976 . S
Fe66 O80 1.996 . S
Fe67 O68 1.918 . S
Fe67 O75 1.997 . S
Fe67 O78 1.996 . S
Fe67 O82 1.976 . S
Fe67 O85 2.002 . S
O68 Fe66 1.918 . S
O68 Fe67 1.918 . S
O68 Fe69 1.918 . S
Fe69 O68 1.918 . S
Fe69 O70 2.002 . S
Fe69 O79 1.976 . S
Fe69 O83 1.996 . S
Fe69 O86 1.997 . S
O70 Fe69 2.002 . S
O70 C87 1.295 . S
O71 Fe66 1.997 . S
O71 C87 1.235 . S
O72 Fe66 2.002 . S
O72 C73 1.295 . S
C73 O72 1.295 . S
C73 O75 1.235 . S
C74 O79 1.287 . S
C74 O80 1.255 . S
O75 Fe67 1.997 . S
O75 C73 1.235 . S
C76 O82 1.287 . S
C76 O83 1.255 . S
O77 Fe66 1.976 . S
O77 C84 1.287 . S
O78 Fe67 1.996 . S
O78 C84 1.255 . S
O79 Fe69 1.976 . S
O79 C74 1.287 . S
O80 Fe66 1.996 . S
O80 C74 1.255 . S
C81 O85 1.295 . S
C81 O86 1.235 . S
O82 Fe67 1.976 . S
O82 C76 1.287 . S
O83 Fe69 1.996 . S
O83 C76 1.255 . S
C84 O77 1.287 . S
C84 O78 1.255 . S
O85 Fe67 2.002 . S
O85 C81 1.295 . S
O86 Fe69 1.997 . S
O86 C81 1.235 . S
C87 O70 1.295 . S
C87 O71 1.235 . S
Fe88 O90 1.918 . S
Fe88 O93 1.997 1_565 S
Fe88 O94 2.002 . S
Fe88 O99 1.976 . S
Fe88 O102 1.996 . S
Fe89 O90 1.918 . S
Fe89 O97 1.997 . S
Fe89 O100 1.996 . S
Fe89 O104 1.976 . S
Fe89 O107 2.002 . S
O90 Fe88 1.918 . S
O90 Fe89 1.918 . S
O90 Fe91 1.918 . S
Fe91 O90 1.918 . S
Fe91 O92 2.002 . S
Fe91 O101 1.976 . S
Fe91 O105 1.996 . S
Fe91 O108 1.997 . S
O92 Fe91 2.002 . S
O92 C109 1.295 1_565 S
O93 Fe88 1.997 1_545 S
O93 C109 1.235 . S
O94 Fe88 2.002 . S
O94 C95 1.295 . S
C95 O94 1.295 . S
C95 O97 1.235 . S
C96 O101 1.287 . S
C96 O102 1.255 . S
O97 Fe89 1.997 . S
O97 C95 1.235 . S
C98 O104 1.287 . S
C98 O105 1.255 . S
O99 Fe88 1.976 . S
O99 C106 1.287 . S
O100 Fe89 1.996 . S
O100 C106 1.255 . S
O101 Fe91 1.976 . S
O101 C96 1.287 . S
O102 Fe88 1.996 . S
O102 C96 1.255 . S
C103 O107 1.295 . S
C103 O108 1.235 . S
O104 Fe89 1.976 . S
O104 C98 1.287 . S
O105 Fe91 1.996 . S
O105 C98 1.255 . S
C106 O99 1.287 . S
C106 O100 1.255 . S
O107 Fe89 2.002 . S
O107 C103 1.295 . S
O108 Fe91 1.997 . S
O108 C103 1.235 . S
C109 O92 1.295 1_545 S
C109 O93 1.235 . S
Fe110 O112 1.918 . S
Fe110 O115 1.997 1_565 S
Fe110 O116 2.002 . S
Fe110 O121 1.976 . S
Fe110 O124 1.996 . S
Fe111 O112 1.918 . S
Fe111 O119 1.997 . S
Fe111 O122 1.996 . S
Fe111 O126 1.976 . S
Fe111 O129 2.002 . S
O112 Fe110 1.918 . S
O112 Fe111 1.918 . S
O112 Fe113 1.918 . S
Fe113 O112 1.918 . S
Fe113 O114 2.002 . S
Fe113 O123 1.976 . S
Fe113 O127 1.996 . S
Fe113 O130 1.997 . S
O114 Fe113 2.002 . S
O114 C131 1.295 1_565 S
O115 Fe110 1.997 1_545 S
O115 C131 1.235 . S
O116 Fe110 2.002 . S
O116 C117 1.295 . S
C117 O116 1.295 . S
C117 O119 1.235 . S
C118 O123 1.287 . S
C118 O124 1.255 . S
O119 Fe111 1.997 . S
O119 C117 1.235 . S
C120 O126 1.287 . S
C120 O127 1.255 . S
O121 Fe110 1.976 . S
O121 C128 1.287 . S
O122 Fe111 1.996 . S
O122 C128 1.255 . S
O123 Fe113 1.976 . S
O123 C118 1.287 . S
O124 Fe110 1.996 . S
O124 C118 1.255 . S
C125 O129 1.295 . S
C125 O130 1.235 . S
O126 Fe111 1.976 . S
O126 C120 1.287 . S
O127 Fe113 1.996 . S
O127 C120 1.255 . S
C128 O121 1.287 . S
C128 O122 1.255 . S
O129 Fe111 2.002 . S
O129 C125 1.295 . S
O130 Fe113 1.997 . S
O130 C125 1.235 . S
C131 O114 1.295 1_545 S
C131 O115 1.235 . S
Fe132 O134 1.918 . S
Fe132 O137 1.997 . S
Fe132 O138 2.002 . S
Fe132 O143 1.976 . S
Fe132 O146 1.996 . S
Fe133 O134 1.918 . S
Fe133 O141 1.997 . S
Fe133 O144 1.996 . S
Fe133 O148 1.976 . S
Fe133 O151 2.002 . S
O134 Fe132 1.918 . S
O134 Fe133 1.918 . S
O134 Fe135 1.918 . S
Fe135 O134 1.918 . S
Fe135 O136 2.002 1_545 S
Fe135 O145 1.976 . S
Fe135 O149 1.996 . S
Fe135 O152 1.997 . S
O136 Fe135 2.002 1_565 S
O136 C153 1.295 . S
O137 Fe132 1.997 . S
O137 C153 1.235 1_545 S
O138 Fe132 2.002 . S
O138 C139 1.295 . S
C139 O138 1.295 . S
C139 O141 1.235 . S
C140 O145 1.287 . S
C140 O146 1.255 . S
O141 Fe133 1.997 . S
O141 C139 1.235 . S
C142 O148 1.287 . S
C142 O149 1.255 . S
O143 Fe132 1.976 . S
O143 C150 1.287 . S
O144 Fe133 1.996 . S
O144 C150 1.255 . S
O145 Fe135 1.976 . S
O145 C140 1.287 . S
O146 Fe132 1.996 . S
O146 C140 1.255 . S
C147 O151 1.295 . S
C147 O152 1.235 . S
O148 Fe133 1.976 . S
O148 C142 1.287 . S
O149 Fe135 1.996 . S
O149 C142 1.255 . S
C150 O143 1.287 . S
C150 O144 1.255 . S
O151 Fe133 2.002 . S
O151 C147 1.295 . S
O152 Fe135 1.997 . S
O152 C147 1.235 . S
C153 O136 1.295 . S
C153 O137 1.235 1_565 S
Fe154 O156 1.918 . S
Fe154 O159 1.997 . S
Fe154 O160 2.002 . S
Fe154 O165 1.976 . S
Fe154 O168 1.996 . S
Fe155 O156 1.918 . S
Fe155 O163 1.997 . S
Fe155 O166 1.996 . S
Fe155 O170 1.976 . S
Fe155 O173 2.002 1_545 S
O156 Fe154 1.918 . S
O156 Fe155 1.918 . S
O156 Fe157 1.918 . S
Fe157 O156 1.918 . S
Fe157 O158 2.002 . S
Fe157 O167 1.976 . S
Fe157 O171 1.996 . S
Fe157 O174 1.997 . S
O158 Fe157 2.002 . S
O158 C175 1.295 . S
O159 Fe154 1.997 . S
O159 C175 1.235 . S
O160 Fe154 2.002 . S
O160 C161 1.295 . S
C161 O160 1.295 . S
C161 O163 1.235 . S
C162 O167 1.287 . S
C162 O168 1.255 . S
O163 Fe155 1.997 . S
O163 C161 1.235 . S
C164 O170 1.287 . S
C164 O171 1.255 . S
O165 Fe154 1.976 . S
O165 C172 1.287 . S
O166 Fe155 1.996 . S
O166 C172 1.255 . S
O167 Fe157 1.976 . S
O167 C162 1.287 . S
O168 Fe154 1.996 . S
O168 C162 1.255 . S
C169 O173 1.295 . S
C169 O174 1.235 1_565 S
O170 Fe155 1.976 . S
O170 C164 1.287 . S
O171 Fe157 1.996 . S
O171 C164 1.255 . S
C172 O165 1.287 . S
C172 O166 1.255 . S
O173 Fe155 2.002 1_565 S
O173 C169 1.295 . S
O174 Fe157 1.997 . S
O174 C169 1.235 1_545 S
C175 O158 1.295 . S
C175 O159 1.235 . S
C176 C177 1.369 . S
C176 C178 1.419 . S
C176 H180 0.930 . S
C177 C176 1.369 . S
C177 C186 1.429 . S
C178 C176 1.419 . S
C178 C179 1.363 . S
C178 H181 0.929 . S
C179 C178 1.363 . S
C179 C185 1.428 . S
H180 C176 0.930 . S
H181 C178 0.929 . S
S182 N183 1.613 . S
S182 N184 1.610 . S
N183 S182 1.613 . S
N183 C186 1.350 . S
N184 S182 1.610 . S
N184 C185 1.351 . S
C185 C179 1.428 . S
C185 N184 1.351 . S
C185 C186 1.434 . S
C186 C177 1.429 . S
C186 N183 1.350 . S
C186 C185 1.434 . S
C187 C188 1.369 . S
C187 C189 1.419 1_556 S
C187 H191 0.930 . S
C188 C187 1.369 . S
C188 C197 1.429 . S
C189 C187 1.419 1_554 S
C189 C190 1.363 . S
C189 H192 0.929 . S
C190 C189 1.363 . S
C190 C196 1.428 . S
H191 C187 0.930 . S
H192 C189 0.929 . S
S193 N194 1.613 1_554 S
S193 N195 1.610 . S
N194 S193 1.613 1_556 S
N194 C197 1.350 . S
N195 S193 1.610 . S
N195 C196 1.351 . S
C196 C190 1.428 . S
C196 N195 1.351 . S
C196 C197 1.434 1_554 S
C197 C188 1.429 . S
C197 N194 1.350 . S
C197 C196 1.434 1_556 S
C198 C199 1.369 . S
C198 C200 1.419 . S
C198 H202 0.930 . S
C199 C198 1.369 . S
C199 C208 1.429 . S
C200 C198 1.419 . S
C200 C201 1.363 . S
C200 H203 0.929 . S
C201 C200 1.363 . S
C201 C207 1.428 . S
H202 C198 0.930 . S
H203 C200 0.929 . S
S204 N205 1.613 . S
S204 N206 1.610 . S
N205 S204 1.613 . S
N205 C208 1.350 . S
N206 S204 1.610 . S
N206 C207 1.351 . S
C207 C201 1.428 . S
C207 N206 1.351 . S
C207 C208 1.434 . S
C208 C199 1.429 . S
C208 N205 1.350 . S
C208 C207 1.434 . S
C209 C210 1.369 . S
C209 C211 1.419 1_554 S
C209 H213 0.930 . S
C210 C209 1.369 . S
C210 C219 1.429 . S
C211 C209 1.419 1_556 S
C211 C212 1.363 . S
C211 H214 0.929 . S
C212 C211 1.363 . S
C212 C218 1.428 . S
H213 C209 0.930 . S
H214 C211 0.929 . S
S215 N216 1.613 1_556 S
S215 N217 1.610 . S
N216 S215 1.613 1_554 S
N216 C219 1.350 . S
N217 S215 1.610 . S
N217 C218 1.351 . S
C218 C212 1.428 . S
C218 N217 1.351 . S
C218 C219 1.434 1_556 S
C219 C210 1.429 . S
C219 N216 1.350 . S
C219 C218 1.434 1_554 S
C220 C221 1.369 . S
C220 C222 1.419 . S
C220 H224 0.930 . S
C221 C220 1.369 . S
C221 C230 1.429 . S
C222 C220 1.419 . S
C222 C223 1.363 . S
C222 H225 0.929 . S
C223 C222 1.363 . S
C223 C229 1.428 . S
H224 C220 0.930 . S
H225 C222 0.929 . S
S226 N227 1.613 . S
S226 N228 1.610 . S
N227 S226 1.613 . S
N227 C230 1.350 . S
N228 S226 1.610 . S
N228 C229 1.351 . S
C229 C223 1.428 . S
C229 N228 1.351 . S
C229 C230 1.434 . S
C230 C221 1.429 . S
C230 N227 1.350 . S
C230 C229 1.434 . S
C231 C232 1.369 . S
C231 C233 1.419 . S
C231 H235 0.930 . S
C232 C231 1.369 . S
C232 C241 1.429 . S
C233 C231 1.419 . S
C233 C234 1.363 . S
C233 H236 0.929 . S
C234 C233 1.363 . S
C234 C240 1.428 . S
H235 C231 0.930 . S
H236 C233 0.929 . S
S237 N238 1.613 . S
S237 N239 1.610 . S
N238 S237 1.613 . S
N238 C241 1.350 . S
N239 S237 1.610 . S
N239 C240 1.351 . S
C240 C234 1.428 . S
C240 N239 1.351 . S
C240 C241 1.434 . S
C241 C232 1.429 . S
C241 N238 1.350 . S
C241 C240 1.434 . S
C242 C243 1.369 . S
C242 C244 1.419 . S
C242 H246 0.930 . S
C243 C242 1.369 . S
C243 C252 1.429 . S
C244 C242 1.419 . S
C244 C245 1.363 . S
C244 H247 0.929 . S
C245 C244 1.363 . S
C245 C251 1.428 . S
H246 C242 0.930 . S
H247 C244 0.929 . S
S248 N249 1.613 . S
S248 N250 1.610 . S
N249 S248 1.613 . S
N249 C252 1.350 . S
N250 S248 1.610 . S
N250 C251 1.351 . S
C251 C245 1.428 . S
C251 N250 1.351 . S
C251 C252 1.434 . S
C252 C243 1.429 . S
C252 N249 1.350 . S
C252 C251 1.434 . S
C253 C254 1.369 . S
C253 C255 1.419 . S
C253 H257 0.930 . S
C254 C253 1.369 . S
C254 C263 1.429 . S
C255 C253 1.419 . S
C255 C256 1.363 . S
C255 H258 0.929 . S
C256 C255 1.363 . S
C256 C262 1.428 . S
H257 C253 0.930 . S
H258 C255 0.929 . S
S259 N260 1.614 . S
S259 N261 1.600 1_545 S
N260 S259 1.614 . S
N260 C263 1.350 1_545 S
N261 S259 1.600 1_565 S
N261 C262 1.351 . S
C262 C256 1.428 . S
C262 N261 1.351 . S
C262 C263 1.434 . S
C263 C254 1.429 . S
C263 N260 1.350 1_565 S
C263 C262 1.434 . S
C264 C265 1.369 . S
C264 C266 1.419 . S
C264 H268 0.930 . S
C265 C264 1.369 . S
C265 C274 1.429 . S
C266 C264 1.419 . S
C266 C267 1.363 . S
C266 H269 0.929 . S
C267 C266 1.363 . S
C267 C273 1.428 . S
H268 C264 0.930 . S
H269 C266 0.929 . S
S270 N271 1.613 . S
S270 N272 1.610 . S
N271 S270 1.613 . S
N271 C274 1.350 . S
N272 S270 1.610 . S
N272 C273 1.351 . S
C273 C267 1.428 . S
C273 N272 1.351 . S
C273 C274 1.434 . S
C274 C265 1.429 . S
C274 N271 1.350 . S
C274 C273 1.434 . S
C275 C276 1.369 . S
C275 C277 1.419 . S
C275 H279 0.930 . S
C276 C275 1.369 . S
C276 C285 1.429 . S
C277 C275 1.419 . S
C277 C278 1.363 . S
C277 H280 0.929 . S
C278 C277 1.363 . S
C278 C284 1.428 . S
H279 C275 0.930 . S
H280 C277 0.929 . S
S281 N282 1.613 . S
S281 N283 1.610 . S
N282 S281 1.613 . S
N282 C285 1.350 . S
N283 S281 1.610 . S
N283 C284 1.351 . S
C284 C278 1.428 . S
C284 N283 1.351 . S
C284 C285 1.434 . S
C285 C276 1.429 . S
C285 N282 1.350 . S
C285 C284 1.434 . S
C286 C287 1.369 . S
C286 C288 1.419 . S
C286 H290 0.930 . S
C287 C286 1.369 . S
C287 C296 1.429 . S
C288 C286 1.419 . S
C288 C289 1.363 . S
C288 H291 0.929 . S
C289 C288 1.363 . S
C289 C295 1.428 . S
H290 C286 0.930 . S
H291 C288 0.929 . S
S292 N293 1.613 . S
S292 N294 1.610 . S
N293 S292 1.613 . S
N293 C296 1.350 . S
N294 S292 1.610 . S
N294 C295 1.351 . S
C295 C289 1.428 . S
C295 N294 1.351 . S
C295 C296 1.434 . S
C296 C287 1.429 . S
C296 N293 1.350 . S
C296 C295 1.434 . S
C297 C298 1.369 . S
C297 C299 1.419 . S
C297 H301 0.930 . S
C298 C297 1.369 . S
C298 C307 1.429 . S
C299 C297 1.419 . S
C299 C300 1.363 . S
C299 H302 0.929 . S
C300 C299 1.363 . S
C300 C306 1.428 . S
H301 C297 0.930 . S
H302 C299 0.929 . S
S303 N304 1.613 . S
S303 N305 1.610 . S
N304 S303 1.613 . S
N304 C307 1.350 . S
N305 S303 1.610 . S
N305 C306 1.351 . S
C306 C300 1.428 . S
C306 N305 1.351 . S
C306 C307 1.434 . S
C307 C298 1.429 . S
C307 N304 1.350 . S
C307 C306 1.434 . S
C308 C309 1.369 . S
C308 C310 1.419 1_455 S
C308 H312 0.930 . S
C309 C308 1.369 . S
C309 C318 1.429 . S
C310 C308 1.419 1_655 S
C310 C311 1.363 . S
C310 H313 0.929 . S
C311 C310 1.363 . S
C311 C317 1.428 . S
H312 C308 0.930 . S
H313 C310 0.929 . S
S314 N315 1.605 1_655 S
S314 N316 1.617 . S
N315 S314 1.605 1_455 S
N315 C318 1.350 . S
N316 S314 1.617 . S
N316 C317 1.351 . S
C317 C311 1.428 . S
C317 N316 1.351 . S
C317 C318 1.434 1_655 S
C318 C309 1.429 . S
C318 N315 1.350 . S
C318 C317 1.434 1_455 S
C319 C320 1.369 . S
C319 C321 1.419 1_455 S
C319 H323 0.930 . S
C320 C319 1.369 . S
C320 C329 1.429 . S
C321 C319 1.419 1_655 S
C321 C322 1.363 . S
C321 H324 0.929 . S
C322 C321 1.363 . S
C322 C328 1.428 . S
H323 C319 0.930 . S
H324 C321 0.929 . S
S325 N326 1.616 . S
S325 N327 1.608 1_455 S
N326 S325 1.616 . S
N326 C329 1.350 . S
N327 S325 1.608 1_655 S
N327 C328 1.351 . S
C328 C322 1.428 . S
C328 N327 1.351 . S
C328 C329 1.434 1_655 S
C329 C320 1.429 . S
C329 N326 1.350 . S
C329 C328 1.434 1_455 S
C330 C331 1.369 . S
C330 C332 1.419 . S
C330 H334 0.930 . S
C331 C330 1.369 . S
C331 C340 1.429 . S
C332 C330 1.419 . S
C332 C333 1.363 . S
C332 H335 0.929 . S
C333 C332 1.363 . S
C333 C339 1.428 . S
H334 C330 0.930 . S
H335 C332 0.929 . S
S336 N337 1.613 . S
S336 N338 1.610 . S
N337 S336 1.613 . S
N337 C340 1.350 . S
N338 S336 1.610 . S
N338 C339 1.351 . S
C339 C333 1.428 . S
C339 N338 1.351 . S
C339 C340 1.434 . S
C340 C331 1.429 . S
C340 N337 1.350 . S
C340 C339 1.434 . S
C341 C342 1.369 . S
C341 C343 1.419 . S
C341 H345 0.930 . S
C342 C341 1.369 . S
C342 C351 1.429 . S
C343 C341 1.419 . S
C343 C344 1.363 . S
C343 H346 0.929 . S
C344 C343 1.363 . S
C344 C350 1.428 . S
H345 C341 0.930 . S
H346 C343 0.929 . S
S347 N348 1.613 . S
S347 N349 1.610 . S
N348 S347 1.613 . S
N348 C351 1.350 . S
N349 S347 1.610 . S
N349 C350 1.351 . S
C350 C344 1.428 . S
C350 N349 1.351 . S
C350 C351 1.434 . S
C351 C342 1.429 . S
C351 N348 1.350 . S
C351 C350 1.434 . S
C352 C353 1.369 1_554 S
C352 C354 1.419 . S
C352 H356 0.930 . S
C353 C352 1.369 1_556 S
C353 C362 1.429 . S
C354 C352 1.419 . S
C354 C355 1.363 . S
C354 H357 0.929 . S
C355 C354 1.363 . S
C355 C361 1.428 . S
H356 C352 0.930 . S
H357 C354 0.929 . S
S358 N359 1.613 . S
S358 N360 1.610 1_556 S
N359 S358 1.613 . S
N359 C362 1.350 . S
N360 S358 1.610 1_554 S
N360 C361 1.351 . S
C361 C355 1.428 . S
C361 N360 1.351 . S
C361 C362 1.434 1_554 S
C362 C353 1.429 . S
C362 N359 1.350 . S
C362 C361 1.434 1_556 S
C363 C364 1.369 . S
C363 C365 1.419 . S
C363 H367 0.930 . S
C364 C363 1.369 . S
C364 C373 1.429 . S
C365 C363 1.419 . S
C365 C366 1.363 . S
C365 H368 0.929 . S
C366 C365 1.363 . S
C366 C372 1.428 . S
H367 C363 0.930 . S
H368 C365 0.929 . S
S369 N370 1.613 . S
S369 N371 1.610 . S
N370 S369 1.613 . S
N370 C373 1.350 . S
N371 S369 1.610 . S
N371 C372 1.351 . S
C372 C366 1.428 . S
C372 N371 1.351 . S
C372 C373 1.434 . S
C373 C364 1.429 . S
C373 N370 1.350 . S
C373 C372 1.434 . S
C374 C375 1.369 . S
C374 C376 1.419 1_556 S
C374 H378 0.930 . S
C375 C374 1.369 . S
C375 C384 1.429 . S
C376 C374 1.419 1_554 S
C376 C377 1.363 . S
C376 H379 0.929 . S
C377 C376 1.363 . S
C377 C383 1.428 1_554 S
H378 C374 0.930 . S
H379 C376 0.929 . S
S380 N381 1.613 . S
S380 N382 1.610 1_556 S
N381 S380 1.613 . S
N381 C384 1.350 . S
N382 S380 1.610 1_554 S
N382 C383 1.351 1_554 S
C383 C377 1.428 1_556 S
C383 N382 1.351 1_556 S
C383 C384 1.434 . S
C384 C375 1.429 . S
C384 N381 1.350 . S
C384 C383 1.434 . S
C385 C386 1.369 . S
C385 C387 1.419 . S
C385 H389 0.930 . S
C386 C385 1.369 . S
C386 C395 1.429 . S
C387 C385 1.419 . S
C387 C388 1.363 . S
C387 H390 0.929 . S
C388 C387 1.363 . S
C388 C394 1.428 . S
H389 C385 0.930 . S
H390 C387 0.929 . S
S391 N392 1.613 . S
S391 N393 1.610 . S
N392 S391 1.613 . S
N392 C395 1.350 . S
N393 S391 1.610 . S
N393 C394 1.351 . S
C394 C388 1.428 . S
C394 N393 1.351 . S
C394 C395 1.434 . S
C395 C386 1.429 . S
C395 N392 1.350 . S
C395 C394 1.434 . S
C396 C397 1.369 1_554 S
C396 C398 1.419 . S
C396 H400 0.930 . S
C397 C396 1.369 1_556 S
C397 C406 1.429 1_545 S
C398 C396 1.419 . S
C398 C399 1.363 1_545 S
C398 H401 0.929 . S
C399 C398 1.363 1_565 S
C399 C405 1.428 . S
H400 C396 0.930 . S
H401 C398 0.929 . S
S402 N403 1.613 . S
S402 N404 1.610 1_556 S
N403 S402 1.613 . S
N403 C406 1.350 . S
N404 S402 1.610 1_554 S
N404 C405 1.351 . S
C405 C399 1.428 . S
C405 N404 1.351 . S
C405 C406 1.434 1_554 S
C406 C397 1.429 1_565 S
C406 N403 1.350 . S
C406 C405 1.434 1_556 S
C407 C408 1.369 1_565 S
C407 C409 1.419 . S
C407 H411 0.930 . S
C408 C407 1.369 1_545 S
C408 C417 1.429 . S
C409 C407 1.419 . S
C409 C410 1.363 . S
C409 H412 0.929 . S
C410 C409 1.363 . S
C410 C416 1.428 1_565 S
H411 C407 0.930 . S
H412 C409 0.929 . S
S413 N414 1.613 . S
S413 N415 1.610 . S
N414 S413 1.613 . S
N414 C417 1.350 . S
N415 S413 1.610 . S
N415 C416 1.351 . S
C416 C410 1.428 1_545 S
C416 N415 1.351 . S
C416 C417 1.434 . S
C417 C408 1.429 . S
C417 N414 1.350 . S
C417 C416 1.434 . S
C418 C419 1.369 1_556 S
C418 C420 1.419 . S
C418 H422 0.930 . S
C419 C418 1.369 1_554 S
C419 C428 1.429 1_565 S
C420 C418 1.419 . S
C420 C421 1.363 1_565 S
C420 H423 0.929 . S
C421 C420 1.363 1_545 S
C421 C427 1.428 . S
H422 C418 0.930 . S
H423 C420 0.929 . S
S424 N425 1.613 . S
S424 N426 1.610 1_554 S
N425 S424 1.613 . S
N425 C428 1.350 . S
N426 S424 1.610 1_556 S
N426 C427 1.351 . S
C427 C421 1.428 . S
C427 N426 1.351 . S
C427 C428 1.434 1_556 S
C428 C419 1.429 1_545 S
C428 N425 1.350 . S
C428 C427 1.434 1_554 S
C429 C430 1.369 1_565 S
C429 C431 1.419 . S
C429 H433 0.930 . S
C430 C429 1.369 1_545 S
C430 C439 1.429 . S
C431 C429 1.419 . S
C431 C432 1.363 . S
C431 H434 0.929 . S
C432 C431 1.363 . S
C432 C438 1.428 1_565 S
H433 C429 0.930 . S
H434 C431 0.929 . S
S435 N436 1.613 . S
S435 N437 1.610 . S
N436 S435 1.613 . S
N436 C439 1.350 . S
N437 S435 1.610 . S
N437 C438 1.351 . S
C438 C432 1.428 1_545 S
C438 N437 1.351 . S
C438 C439 1.434 . S
C439 C430 1.429 . S
C439 N436 1.350 . S
C439 C438 1.434 . S
C177 C139 1.276 . S
C179 C15 1.256 . S
C188 C175 1.281 . S
C190 C37 1.252 . S
C199 C103 1.264 . S
C201 C51 1.270 . S
C210 C125 1.266 . S
C212 C81 1.269 . S
C221 C131 1.653 . S
C223 C10 1.577 . S
C232 C109 1.647 . S
C234 C32 1.580 . S
C243 C62 1.599 . S
C245 C169 1.660 . S
C254 C153 1.657 . S
C256 C76 1.599 . S
C265 C43 1.650 . S
C267 C98 1.585 . S
C276 C120 1.585 . S
C278 C21 1.650 . S
C287 C150 1.600 . S
C289 C73 1.658 . S
C298 C65 1.660 . S
C300 C162 1.598 . S
C309 C18 1.458 . S
C311 C40 1.459 . S
C320 C74 1.457 . S
C322 C54 1.459 . S
C331 C128 1.460 . S
C333 C106 1.459 . S
C342 C172 1.460 . S
C344 C142 1.459 . S
C353 C87 1.505 . S
C355 C8 1.494 . S
C364 C30 1.489 . S
C366 C59 1.507 . S
C375 C52 1.503 . S
C377 C29 1.504 . S
C386 C7 1.507 . S
C388 C84 1.500 . S
C397 C161 1.507 . S
C399 C96 1.493 . S
C408 C147 1.507 . S
C410 C118 1.489 . S
C419 C117 1.503 . S
C421 C140 1.504 . S
C430 C164 1.505 . S
C432 C95 1.504 . S
