# Generated by pormake.
# Topology smu, (6)-cn, num edge types: 1
# Building blocks:
#     Node 0, Type 0, BuildingBlock: JUFBIX_clean_sbu_0, # of connection points: 6
#     Node 1, Type 0, BuildingBlock: JUFBIX_clean_sbu_0, # of connection points: 6
#     Node 2, Type 0, BuildingBlock: JUFBIX_clean_sbu_0, # of connection points: 6
#     Node 3, Type 0, BuildingBlock: JUFBIX_clean_sbu_0, # of connection points: 6
#     Node 4, Type 0, BuildingBlock: JUFBIX_clean_sbu_0, # of connection points: 6
#     Node 5, Type 0, BuildingBlock: JUFBIX_clean_sbu_0, # of connection points: 6
#     Edge 6, Type (0, 0), BuildingBlock: AJUNOK_clean_linker_0, # of connection points: 2
#     Edge 7, Type (0, 0), BuildingBlock: AJUNOK_clean_linker_0, # of connection points: 2
#     Edge 8, Type (0, 0), BuildingBlock: AJUNOK_clean_linker_0, # of connection points: 2
#     Edge 9, Type (0, 0), BuildingBlock: AJUNOK_clean_linker_0, # of connection points: 2
#     Edge 10, Type (0, 0), BuildingBlock: AJUNOK_clean_linker_0, # of connection points: 2
#     Edge 11, Type (0, 0), BuildingBlock: AJUNOK_clean_linker_0, # of connection points: 2
#     Edge 12, Type (0, 0), BuildingBlock: AJUNOK_clean_linker_0, # of connection points: 2
#     Edge 13, Type (0, 0), BuildingBlock: AJUNOK_clean_linker_0, # of connection points: 2
#     Edge 14, Type (0, 0), BuildingBlock: AJUNOK_clean_linker_0, # of connection points: 2
#     Edge 15, Type (0, 0), BuildingBlock: AJUNOK_clean_linker_0, # of connection points: 2
#     Edge 16, Type (0, 0), BuildingBlock: AJUNOK_clean_linker_0, # of connection points: 2
#     Edge 17, Type (0, 0), BuildingBlock: AJUNOK_clean_linker_0, # of connection points: 2
#     Edge 18, Type (0, 0), BuildingBlock: AJUNOK_clean_linker_0, # of connection points: 2
#     Edge 19, Type (0, 0), BuildingBlock: AJUNOK_clean_linker_0, # of connection points: 2
#     Edge 20, Type (0, 0), BuildingBlock: AJUNOK_clean_linker_0, # of connection points: 2
#     Edge 21, Type (0, 0), BuildingBlock: AJUNOK_clean_linker_0, # of connection points: 2
#     Edge 22, Type (0, 0), BuildingBlock: AJUNOK_clean_linker_0, # of connection points: 2
#     Edge 23, Type (0, 0), BuildingBlock: AJUNOK_clean_linker_0, # of connection points: 2
# Relax obj value: 0.442
# Max RMSD: 0.310
# Mean RMSD: 0.309
data_MOF--net-smu--node1-JUFBIX_clean_sbu_0--edge1-AJUNOK_clean_linker_0
_symmetry_space_group_name_H-M    P1
_symmetry_Int_Tables_number       1
_symmetry_cell_setting            triclinic
loop_
_symmetry_equiv_pos_as_xyz
'x, y, z'
_cell_length_a     23.852137
_cell_length_b     23.80266
_cell_length_c     20.420262
_cell_angle_alpha  91.580417
_cell_angle_beta   89.119012
_cell_angle_gamma 120.42883
loop_
_atom_site_label
_atom_site_type_symbol
_atom_site_fract_x
_atom_site_fract_y
_atom_site_fract_z
_atom_type_partial_charge
Co0 Co 0.33802 0.0425 0.27307 0.0
C1 C 0.39263 0.09433 0.15611 0.0
Co2 Co 0.42301 0.14052 0.28644 0.0
C3 C 0.20674 0.95328 0.28748 0.0
C4 C 0.24461 0.91852 0.21116 0.0
N5 N 0.26292 0.96237 0.26128 0.0
N6 N 0.15444 0.90957 0.25333 0.0
C7 C 0.17761 0.88592 0.2061 0.0
H8 H 0.20466 0.98508 0.32513 0.0
H9 H 0.27758 0.91611 0.17575 0.0
C10 C 0.36161 0.07192 0.40235 0.0
N11 N 0.49349 0.22499 0.29982 0.0
C12 C 0.50385 0.28056 0.27196 0.0
C13 C 0.53613 0.24544 0.34987 0.0
N14 N 0.54965 0.3346 0.30402 0.0
C15 C 0.57033 0.31259 0.35277 0.0
C16 C 0.31129 0.14582 0.2771 0.0
O17 O 0.32346 0.03332 0.35977 0.0
O18 O 0.41142 0.12535 0.38392 0.0
O19 O 0.37108 0.1768 0.28877 0.0
O20 O 0.2844 0.08458 0.26649 0.0
O21 O 0.43118 0.14718 0.18821 0.0
H22 H 0.53944 0.21364 0.38447 0.0
H23 H 0.47504 0.28135 0.23195 0.0
O24 O 0.34951 0.04663 0.18636 0.0
O25 O 0.3974 1.00595 0.27952 0.0
O26 O 0.47691 0.10847 0.28467 0.0
C27 C 0.45863 0.0487 0.28278 0.0
H28 H 0.14894 0.85131 0.16772 0.0
H29 H 0.60636 0.34298 0.38909 0.0
Co30 Co 0.81749 0.69289 0.27836 0.0
C31 C 0.78586 0.72621 0.15525 0.0
Co32 Co 0.76212 0.74472 0.2779 0.0
C33 C 0.87951 0.60708 0.29048 0.0
C34 C 0.92582 0.68872 0.22808 0.0
N35 N 0.87326 0.65688 0.26735 0.0
N36 N 0.93385 0.60763 0.26687 0.0
C37 C 0.96297 0.66014 0.22875 0.0
H38 H 0.84509 0.57134 0.32391 0.0
H39 H 0.93803 0.7321 0.20137 0.0
C40 C 0.78963 0.72085 0.40152 0.0
N41 N 0.71871 0.79164 0.28551 0.0
C42 C 0.74442 0.84872 0.25417 0.0
C43 C 0.69272 0.80137 0.34086 0.0
N44 N 0.74344 0.8958 0.29093 0.0
C45 C 0.70916 0.86589 0.34488 0.0
C46 C 0.68699 0.60726 0.27518 0.0
O47 O 0.81199 0.68612 0.37567 0.0
O48 O 0.76995 0.74887 0.36534 0.0
O49 O 0.68204 0.6585 0.28308 0.0
O50 O 0.74262 0.61266 0.26947 0.0
O51 O 0.75317 0.74242 0.19114 0.0
H52 H 0.67454 0.76819 0.38127 0.0
H53 H 0.7761 0.85967 0.21221 0.0
O54 O 0.81903 0.7037 0.18104 0.0
O55 O 0.89172 0.77156 0.28861 0.0
O56 O 0.84489 0.82787 0.27212 0.0
C57 C 0.89609 0.82568 0.28168 0.0
H58 H 1.00946 0.67891 0.20454 0.0
H59 H 0.70496 0.89075 0.38824 0.0
Co60 Co 1.01592 0.29899 0.28404 0.0
C61 C 0.95506 0.28875 0.1697 0.0
Co62 Co 0.91349 0.27228 0.3018 0.0
C63 C 0.12265 0.27874 0.28864 0.0
C64 C 0.14785 0.36186 0.23061 0.0
N65 N 0.10084 0.31837 0.27001 0.0
N66 N 0.18017 0.29431 0.2614 0.0
C67 C 0.19699 0.34721 0.22537 0.0
H68 H 0.09558 0.23718 0.31966 0.0
H69 H 0.14461 0.39882 0.20406 0.0
C70 C 0.98905 0.29202 0.41483 0.0
N71 N 0.82461 0.24278 0.31676 0.0
C72 C 0.77237 0.18846 0.29096 0.0
C73 C 0.79942 0.2632 0.36493 0.0
N74 N 0.716 0.1736 0.32197 0.0
C75 C 0.73313 0.22105 0.36822 0.0
C76 C 0.92772 0.16544 0.28489 0.0
O77 O 1.02972 0.29933 0.37125 0.0
O78 O 0.93165 0.27815 0.39784 0.0
O79 O 0.89011 0.18638 0.29835 0.0
O80 O 0.98775 0.20581 0.27615 0.0
O81 O 0.90351 0.27179 0.20427 0.0
H82 H 0.82784 0.30435 0.39764 0.0
H83 H 0.77626 0.15817 0.25276 0.0
O84 O 1.00671 0.30071 0.19721 0.0
O85 O 1.03841 0.39237 0.291 0.0
O86 O 0.93394 0.3571 0.30601 0.0
C87 C 0.99161 0.40405 0.30106 0.0
H88 H 0.23976 0.37116 0.19459 0.0
H89 H 0.70008 0.22462 0.40271 0.0
Co90 Co 0.14371 0.39801 0.79945 0.0
C91 C 0.06642 0.34491 0.91303 0.0
Co92 Co 1.04127 0.32205 0.78188 0.0
C93 C 0.28541 0.4707 0.78758 0.0
C94 C 0.25059 0.51108 0.86159 0.0
N95 N 0.23 0.46407 0.81448 0.0
N96 N 0.33951 0.51935 0.81681 0.0
C97 C 0.31756 0.54483 0.86326 0.0
H98 H 0.28597 0.43865 0.74925 0.0
H99 H 0.21885 0.5191 0.89397 0.0
C100 C 0.10461 0.36867 0.66745 0.0
N101 N 0.95831 0.25071 0.76714 0.0
C102 C 0.94352 0.19344 0.79373 0.0
C103 C 0.92252 0.23362 0.71178 0.0
N104 N 0.90567 0.14194 0.75465 0.0
C105 C 0.8904 0.16661 0.70379 0.0
C106 C 0.06126 0.4473 0.78933 0.0
O107 O 0.15644 0.40288 0.70169 0.0
O108 O 0.05204 0.33196 0.69559 0.0
O109 O 1.01367 0.38804 0.78496 0.0
O110 O 0.11873 0.45866 0.79516 0.0
O111 O 1.02641 0.31001 0.8695 0.0
H112 H 0.92717 0.26737 0.67473 0.0
H113 H 0.96949 0.19009 0.83504 0.0
O114 O 0.12363 0.38966 0.89584 0.0
O115 O 0.17165 0.33901 0.80435 0.0
O116 O 0.07461 0.26119 0.77706 0.0
C117 C 0.13342 0.27992 0.79065 0.0
H118 H 0.34791 0.58498 0.89633 0.0
H119 H 0.86309 0.13908 0.66099 0.0
Co120 Co 0.28712 0.90805 0.77751 0.0
C121 C 0.31563 0.98616 0.89476 0.0
Co122 Co 0.30979 1.00936 0.76672 0.0
C123 C 0.20519 0.76577 0.77085 0.0
C124 C 0.287 0.79825 0.83448 0.0
N125 N 0.2611 0.82003 0.79067 0.0
N126 N 0.1946 0.71176 0.80202 0.0
C127 C 0.24646 0.73208 0.84148 0.0
H128 H 0.17075 0.76657 0.7375 0.0
H129 H 0.33078 0.82911 0.8623 0.0
C130 C 0.29396 0.94743 0.64876 0.0
N131 N 0.32657 0.09372 0.75538 0.0
C132 C 0.29056 0.11596 0.78558 0.0
C133 C 0.35448 0.1334 0.70418 0.0
N134 N 0.29254 0.1658 0.75415 0.0
C135 C 0.33285 0.17733 0.70289 0.0
C136 C 0.41674 0.98789 0.76379 0.0
O137 O 0.27728 0.89506 0.68013 0.0
O138 O 0.3078 0.99885 0.67981 0.0
O139 O 0.40373 0.03438 0.76594 0.0
O140 O 0.37124 0.92949 0.76735 0.0
O141 O 0.31418 1.02439 0.8546 0.0
H142 H 0.38247 0.12621 0.66615 0.0
H143 H 0.25703 0.09091 0.82519 0.0
O144 O 0.30334 0.92955 0.87379 0.0
O145 O 0.20121 0.88338 0.78806 0.0
O146 O 0.21571 0.97876 0.76641 0.0
C147 C 0.17745 0.91903 0.77921 0.0
H148 H 0.25383 0.70139 0.87423 0.0
H149 H 0.34215 0.21173 0.66475 0.0
Co150 Co 0.69124 0.7983 0.77616 0.0
C151 C 0.72898 0.76293 0.89428 0.0
Co152 Co 0.74776 0.74658 0.76862 0.0
C153 C 0.60685 0.86291 0.76826 0.0
C154 C 0.67984 0.8968 0.84201 0.0
N155 N 0.65212 0.85073 0.79387 0.0
N156 N 0.60604 0.91426 0.79932 0.0
C157 C 0.65314 0.9356 0.84462 0.0
H158 H 0.57606 0.83563 0.72716 0.0
H159 H 0.72038 0.90467 0.87182 0.0
C160 C 0.71481 0.7731 0.64939 0.0
N161 N 0.79932 0.70831 0.75568 0.0
C162 C 0.85719 0.73632 0.78713 0.0
C163 C 0.81059 0.68645 0.69798 0.0
N164 N 0.90511 0.73934 0.74918 0.0
C165 C 0.87595 0.70678 0.6934 0.0
C166 C 0.61053 0.66587 0.77382 0.0
O167 O 0.68523 0.79939 0.67877 0.0
O168 O 0.74296 0.75103 0.68215 0.0
O169 O 0.66333 0.66352 0.7683 0.0
O170 O 0.613 0.72049 0.77824 0.0
O171 O 0.75296 0.73974 0.85482 0.0
H172 H 0.77688 0.66761 0.65735 0.0
H173 H 0.86712 0.76602 0.83135 0.0
O174 O 0.70099 0.79259 0.87263 0.0
O175 O 0.76748 0.87518 0.77337 0.0
O176 O 0.82882 0.83206 0.76942 0.0
C177 C 0.82303 0.88214 0.77169 0.0
H178 H 0.66998 0.97851 0.87589 0.0
H179 H 0.90119 0.70491 0.64961 0.0
C180 C 0.34519 0.07527 0.97977 0.0
C181 C 0.34002 1.01467 0.96173 0.0
C182 C 0.37154 0.10723 0.04015 0.0
C183 C 0.39464 0.08052 0.08519 0.0
H184 H 0.32705 0.09788 0.94755 0.0
H185 H 0.36925 0.15039 0.05352 0.0
S186 S 0.39528 0.92509 0.06241 0.0
N187 N 0.36326 0.93134 0.99382 0.0
N188 N 0.41196 0.9905 0.10727 0.0
C189 C 0.39233 1.0215 0.0667 0.0
C190 C 0.36501 0.98868 1.00545 0.0
C191 C 0.77793 0.81112 0.5478 0.0
C192 C 0.72058 0.76414 0.57844 0.0
C193 C 0.80619 0.7942 0.49553 0.0
C194 C 0.77897 0.72928 0.47157 0.0
H195 H 0.80314 0.86084 0.56667 0.0
H196 H 0.84842 0.83298 0.47148 0.0
S197 S 0.62947 0.58743 0.5349 0.0
N198 N 0.63833 0.64941 0.58121 0.0
N199 N 0.6906 0.61826 0.48233 0.0
C200 C 0.72172 0.68202 0.50158 0.0
C201 C 0.69259 0.69931 0.55435 0.0
C202 C 0.99697 0.36255 0.07617 0.0
C203 C 0.9619 0.2978 0.09822 0.0
C204 C 1.03529 0.37928 1.01865 0.0
C205 C 1.04048 0.33178 0.98102 0.0
H206 H 0.99781 0.40123 0.10592 0.0
H207 H 0.06025 0.4294 1.00322 0.0
S208 S 0.95733 0.15501 1.01571 0.0
N209 N 0.93463 0.18628 0.07657 0.0
N210 N 1.00488 0.21665 0.96848 0.0
C211 C 1.00408 0.26665 1.00144 0.0
C212 C 0.96517 0.2499 0.0596 0.0
C213 C 0.39041 1.03205 0.50201 0.0
C214 C 0.34714 0.04561 0.46955 0.0
C215 C 0.36954 0.9893 0.55539 0.0
C216 C 0.30432 0.95716 0.57766 0.0
H217 H 0.44029 0.05359 0.48539 0.0
H218 H 0.40573 0.9846 0.58225 0.0
S219 S 0.17147 0.9741 0.50754 0.0
N220 N 0.23555 1.02171 0.46254 0.0
N221 N 0.19708 0.94185 0.56167 0.0
C222 C 0.26057 0.96884 0.54392 0.0
C223 C 0.28179 1.01301 0.49078 0.0
C224 C 0.72494 0.6926 0.98293 0.0
C225 C 0.73758 0.75453 0.96361 0.0
C226 C 0.74706 0.68397 0.04299 0.0
C227 C 0.78369 0.73729 0.08525 0.0
H228 H 0.69822 0.65043 0.95071 0.0
H229 H 0.73299 0.63513 0.05763 0.0
S230 S 0.83291 0.90985 0.05625 0.0
N231 N 0.79107 0.86998 0.99017 0.0
N232 N 0.83247 0.85432 0.10338 0.0
C233 C 0.79756 0.79959 0.06585 0.0
C234 C 0.77444 0.80813 1.00509 0.0
C235 C 1.01975 0.36375 0.51566 0.0
C236 C 1.01607 0.30965 0.48212 0.0
C237 C 0.05969 0.39157 0.57136 0.0
C238 C 0.09805 0.36692 0.59569 0.0
H239 H 0.99237 0.38533 0.49823 0.0
H240 H 0.05686 0.42976 0.59862 0.0
S241 S 0.10812 0.22788 0.52325 0.0
N242 N 0.05703 0.23473 0.47502 0.0
N243 N 0.13031 0.28601 0.58008 0.0
C244 C 0.09653 0.31456 0.56077 0.0
C245 C 0.0559 0.28612 0.50438 0.0
C246 C 0.53999 0.04867 0.35265 0.0
C247 C 0.51303 0.03623 0.28927 0.0
C248 C 0.60725 0.09028 0.36305 0.0
C249 C 0.65079 0.1188 0.31034 0.0
H250 H 0.50812 0.03516 0.39493 0.0
H251 H 0.62462 0.10392 0.4129 0.0
S252 S 0.60732 0.08548 0.13437 0.0
N253 N 0.53721 0.04402 0.1731 0.0
N254 N 0.66321 0.12017 0.19209 0.0
C255 C 0.62587 0.09776 0.24674 0.0
C256 C 0.55725 0.05591 0.23642 0.0
C257 C 0.6069 0.5119 0.33816 0.0
C258 C 0.63113 0.5399 0.27694 0.0
C259 C 0.57701 0.44415 0.34612 0.0
C260 C 0.56938 0.40187 0.2929 0.0
H261 H 0.61634 0.5429 0.38119 0.0
H262 H 0.56261 0.42493 0.39484 0.0
S263 S 0.61797 0.45027 0.12121 0.0
N264 N 0.64101 0.51976 0.16142 0.0
N265 N 0.58293 0.39249 0.17593 0.0
C266 C 0.58817 0.42871 0.23051 0.0
C267 C 0.61952 0.49771 0.22267 0.0
C268 C 0.96156 0.48252 0.34815 0.0
C269 C 0.99798 0.46948 0.30129 0.0
C270 C 0.94216 0.52843 0.33747 0.0
C271 C 0.95769 0.56318 0.27898 0.0
H272 H 0.944 0.45353 0.39179 0.0
H273 H 0.91311 0.53526 0.37455 0.0
S274 S 0.05463 0.54841 0.14131 0.0
N275 N 0.05208 0.49762 0.19626 0.0
N276 N 1.0139 0.58143 0.17367 0.0
C277 C 0.99679 0.55253 0.23281 0.0
C278 C 1.01754 0.50661 0.2447 0.0
C279 C 0.07956 0.5445 0.73215 0.0
C280 C 0.05636 0.50677 0.78905 0.0
C281 C 0.12031 0.61294 0.73601 0.0
C282 C 0.1393 0.64603 0.797 0.0
H283 H 0.07381 0.52035 0.68489 0.0
H284 H 0.14226 0.63912 0.69156 0.0
S285 S 0.07903 0.57241 0.95921 0.0
N286 N 0.04551 0.50981 0.90699 0.0
N287 N 0.12168 0.63764 0.91448 0.0
C288 C 0.10941 0.61007 0.85339 0.0
C289 C 0.06738 0.54078 0.84925 0.0
C290 C 0.5007 0.96782 0.7148 0.0
C291 C 0.48241 0.99611 0.76637 0.0
C292 C 0.54189 0.94235 0.72521 0.0
C293 C 0.56594 0.94324 0.78798 0.0
H294 H 0.47858 0.96044 0.667 0.0
H295 H 0.55315 0.91987 0.68428 0.0
S296 S 0.53154 1.01144 0.93985 0.0
N297 N 0.49279 1.02489 0.88172 0.0
N298 N 0.56737 0.97543 0.90285 0.0
C299 C 0.54972 0.97372 0.83955 0.0
C300 C 0.50906 1.00076 0.82829 0.0
C301 C 0.45151 0.55786 0.85511 0.0
C302 C 0.40709 0.54066 0.80318 0.0
C303 C 0.51905 0.59053 0.84395 0.0
C304 C 0.54496 0.6077 0.78045 0.0
H305 H 0.43396 0.54911 0.90514 0.0
H306 H 0.55131 0.60775 0.88589 0.0
S307 S 0.44974 0.57049 0.62736 0.0
N308 N 0.39393 0.5392 0.68546 0.0
N309 N 0.52062 0.60217 0.66482 0.0
C310 C 0.50096 0.58712 0.72787 0.0
C311 C 0.43211 0.55311 0.73909 0.0
C312 C 0.20961 0.15253 0.26143 0.0
C313 C 0.27668 0.18338 0.27441 0.0
C314 C 0.1781 0.18895 0.25754 0.0
C315 C 0.21274 0.25747 0.26531 0.0
H316 H 0.18135 0.10012 0.25416 0.0
H317 H 0.12645 0.16355 0.24741 0.0
S318 S 0.38733 0.36206 0.30403 0.0
N319 N 0.3755 0.28756 0.2987 0.0
N320 N 0.31593 0.35424 0.28911 0.0
C321 C 0.27913 0.28873 0.27872 0.0
C322 C 0.31112 0.25215 0.28394 0.0
C323 C 1.00288 0.89432 0.3287 0.0
C324 C 0.96231 0.8801 0.2741 0.0
C325 C 0.06613 0.90528 0.32132 0.0
C326 C 0.09122 0.90329 0.25901 0.0
H327 H 0.98277 0.88817 0.37772 0.0
H328 H 0.09396 0.91093 0.36491 0.0
S329 S 1.01038 0.88621 0.10002 0.0
N330 N 0.9557 0.87722 0.15572 0.0
N331 N 0.07542 0.9002 0.14127 0.0
C332 C 0.05424 0.89796 0.20379 0.0
C333 C 0.98991 0.88694 0.21155 0.0
C334 C 0.84851 0.06444 0.22802 0.0
C335 C 0.89698 0.09456 0.27649 0.0
C336 C 0.79849 0.99938 0.23294 0.0
C337 C 0.79444 0.96277 0.28725 0.0
H338 H 0.84676 0.09285 0.18834 0.0
H339 H 0.76135 0.97814 0.19543 0.0
S340 S 0.9145 1.01562 0.422 0.0
N341 N 0.94148 0.0809 0.37671 0.0
N342 N 0.84787 0.95795 0.38566 0.0
C343 C 0.84505 0.99075 0.33363 0.0
C344 C 0.89627 0.05688 0.32829 0.0
C345 C 0.16559 0.21164 0.7241 0.0
C346 C 0.16126 0.23721 0.78558 0.0
C347 C 0.20893 0.18853 0.71379 0.0
C348 C 0.24834 0.18949 0.76496 0.0
H349 H 0.13836 0.21315 0.68292 0.0
H350 H 0.21223 0.17044 0.66551 0.0
S351 S 0.2516 0.24734 0.9357 0.0
N352 N 0.19794 0.25984 0.89856 0.0
N353 N 0.27739 0.21419 0.87968 0.0
C354 C 0.24181 0.21175 0.82724 0.0
C355 C 0.19877 0.23623 0.83741 0.0
C356 C 0.07141 0.83475 0.82296 0.0
C357 C 0.10562 0.8857 0.77858 0.0
C358 C 1.00599 0.78738 0.81307 0.0
C359 C 0.97249 0.7883 0.75779 0.0
H360 H 0.09652 0.82957 0.86409 0.0
H361 H 0.98183 0.74846 0.8477 0.0
S362 S 1.03585 0.91602 0.63219 0.0
N363 N 0.09862 0.93783 0.68099 0.0
N364 N 0.97504 0.8486 0.66252 0.0
C365 C 1.00449 0.84109 0.71521 0.0
C366 C 0.07119 0.88996 0.72568 0.0
C367 C 0.8903 0.0505 0.82141 0.0
C368 C 0.89968 0.07877 0.75969 0.0
C369 C 0.87949 0.98727 0.8274 0.0
C370 C 0.87656 0.94965 0.77176 0.0
H371 H 0.88709 0.07584 0.86488 0.0
H372 H 0.86457 0.96463 0.87475 0.0
S373 S 0.91723 1.00782 0.60201 0.0
N374 N 0.92093 0.06998 0.64395 0.0
N375 N 0.89768 0.94981 0.65542 0.0
C376 C 0.8947 0.9805 0.71129 0.0
C377 C 0.90602 0.04508 0.70495 0.0
loop_
_geom_bond_atom_site_label_1
_geom_bond_atom_site_label_2
_geom_bond_distance
_geom_bond_site_symmetry_2
_ccdc_geom_bond_type
Co0 N5 2.057 1_545 S
Co0 O17 2.021 . S
Co0 O20 2.062 . S
Co0 O24 2.117 . S
Co0 O25 2.020 . S
C1 O21 1.259 . S
C1 O24 1.258 . S
Co2 N11 2.057 . S
Co2 O18 2.117 . S
Co2 O19 2.020 . S
Co2 O21 2.021 . S
Co2 O26 2.062 . S
C3 N5 1.316 . S
C3 N6 1.347 . S
C3 H8 0.931 . S
C4 N5 1.375 . S
C4 C7 1.350 . S
C4 H9 0.930 . S
N5 Co0 2.057 1_565 S
N5 C3 1.316 . S
N5 C4 1.375 . S
N6 C3 1.347 . S
N6 C7 1.373 . S
C7 C4 1.350 . S
C7 N6 1.373 . S
C7 H28 0.931 . S
H8 C3 0.931 . S
H9 C4 0.930 . S
C10 O17 1.259 . S
C10 O18 1.258 . S
N11 Co2 2.057 . S
N11 C12 1.316 . S
N11 C13 1.375 . S
C12 N11 1.316 . S
C12 N14 1.347 . S
C12 H23 0.931 . S
C13 N11 1.375 . S
C13 C15 1.350 . S
C13 H22 0.930 . S
N14 C12 1.347 . S
N14 C15 1.373 . S
C15 C13 1.350 . S
C15 N14 1.373 . S
C15 H29 0.931 . S
C16 O19 1.256 . S
C16 O20 1.255 . S
O17 Co0 2.021 . S
O17 C10 1.259 . S
O18 Co2 2.117 . S
O18 C10 1.258 . S
O19 Co2 2.020 . S
O19 C16 1.256 . S
O20 Co0 2.062 . S
O20 C16 1.255 . S
O21 C1 1.259 . S
O21 Co2 2.021 . S
H22 C13 0.930 . S
H23 C12 0.931 . S
O24 Co0 2.117 . S
O24 C1 1.258 . S
O25 Co0 2.020 . S
O25 C27 1.256 . S
O26 Co2 2.062 . S
O26 C27 1.255 . S
C27 O25 1.256 . S
C27 O26 1.255 . S
H28 C7 0.931 . S
H29 C15 0.931 . S
Co30 N35 2.057 . S
Co30 O47 2.021 . S
Co30 O50 2.062 . S
Co30 O54 2.117 . S
Co30 O55 2.020 . S
C31 O51 1.259 . S
C31 O54 1.258 . S
Co32 N41 2.057 . S
Co32 O48 2.117 . S
Co32 O49 2.020 . S
Co32 O51 2.021 . S
Co32 O56 2.062 . S
C33 N35 1.316 . S
C33 N36 1.347 . S
C33 H38 0.931 . S
C34 N35 1.375 . S
C34 C37 1.350 . S
C34 H39 0.930 . S
N35 Co30 2.057 . S
N35 C33 1.316 . S
N35 C34 1.375 . S
N36 C33 1.347 . S
N36 C37 1.373 . S
C37 C34 1.350 . S
C37 N36 1.373 . S
C37 H58 0.931 . S
H38 C33 0.931 . S
H39 C34 0.930 . S
C40 O47 1.259 . S
C40 O48 1.258 . S
N41 Co32 2.057 . S
N41 C42 1.316 . S
N41 C43 1.375 . S
C42 N41 1.316 . S
C42 N44 1.347 . S
C42 H53 0.931 . S
C43 N41 1.375 . S
C43 C45 1.350 . S
C43 H52 0.930 . S
N44 C42 1.347 . S
N44 C45 1.373 . S
C45 C43 1.350 . S
C45 N44 1.373 . S
C45 H59 0.931 . S
C46 O49 1.256 . S
C46 O50 1.255 . S
O47 Co30 2.021 . S
O47 C40 1.259 . S
O48 Co32 2.117 . S
O48 C40 1.258 . S
O49 Co32 2.020 . S
O49 C46 1.256 . S
O50 Co30 2.062 . S
O50 C46 1.255 . S
O51 C31 1.259 . S
O51 Co32 2.021 . S
H52 C43 0.930 . S
H53 C42 0.931 . S
O54 Co30 2.117 . S
O54 C31 1.258 . S
O55 Co30 2.020 . S
O55 C57 1.256 . S
O56 Co32 2.062 . S
O56 C57 1.255 . S
C57 O55 1.256 . S
C57 O56 1.255 . S
H58 C37 0.931 . S
H59 C45 0.931 . S
Co60 N65 2.057 1_655 S
Co60 O77 2.021 . S
Co60 O80 2.062 . S
Co60 O84 2.117 . S
Co60 O85 2.020 . S
C61 O81 1.259 . S
C61 O84 1.258 . S
Co62 N71 2.057 . S
Co62 O78 2.117 . S
Co62 O79 2.020 . S
Co62 O81 2.021 . S
Co62 O86 2.062 . S
C63 N65 1.316 . S
C63 N66 1.347 . S
C63 H68 0.931 . S
C64 N65 1.375 . S
C64 C67 1.350 . S
C64 H69 0.930 . S
N65 Co60 2.057 1_455 S
N65 C63 1.316 . S
N65 C64 1.375 . S
N66 C63 1.347 . S
N66 C67 1.373 . S
C67 C64 1.350 . S
C67 N66 1.373 . S
C67 H88 0.931 . S
H68 C63 0.931 . S
H69 C64 0.930 . S
C70 O77 1.259 . S
C70 O78 1.258 . S
N71 Co62 2.057 . S
N71 C72 1.316 . S
N71 C73 1.375 . S
C72 N71 1.316 . S
C72 N74 1.347 . S
C72 H83 0.931 . S
C73 N71 1.375 . S
C73 C75 1.350 . S
C73 H82 0.930 . S
N74 C72 1.347 . S
N74 C75 1.373 . S
C75 C73 1.350 . S
C75 N74 1.373 . S
C75 H89 0.931 . S
C76 O79 1.256 . S
C76 O80 1.255 . S
O77 Co60 2.021 . S
O77 C70 1.259 . S
O78 Co62 2.117 . S
O78 C70 1.258 . S
O79 Co62 2.020 . S
O79 C76 1.256 . S
O80 Co60 2.062 . S
O80 C76 1.255 . S
O81 C61 1.259 . S
O81 Co62 2.021 . S
H82 C73 0.930 . S
H83 C72 0.931 . S
O84 Co60 2.117 . S
O84 C61 1.258 . S
O85 Co60 2.020 . S
O85 C87 1.256 . S
O86 Co62 2.062 . S
O86 C87 1.255 . S
C87 O85 1.256 . S
C87 O86 1.255 . S
H88 C67 0.931 . S
H89 C75 0.931 . S
Co90 N95 2.057 . S
Co90 O107 2.021 . S
Co90 O110 2.062 . S
Co90 O114 2.117 . S
Co90 O115 2.020 . S
C91 O111 1.259 . S
C91 O114 1.258 . S
Co92 N101 2.057 1_455 S
Co92 O108 2.117 . S
Co92 O109 2.020 . S
Co92 O111 2.021 . S
Co92 O116 2.062 . S
C93 N95 1.316 . S
C93 N96 1.347 . S
C93 H98 0.931 . S
C94 N95 1.375 . S
C94 C97 1.350 . S
C94 H99 0.930 . S
N95 Co90 2.057 . S
N95 C93 1.316 . S
N95 C94 1.375 . S
N96 C93 1.347 . S
N96 C97 1.373 . S
C97 C94 1.350 . S
C97 N96 1.373 . S
C97 H118 0.931 . S
H98 C93 0.931 . S
H99 C94 0.930 . S
C100 O107 1.259 . S
C100 O108 1.258 . S
N101 Co92 2.057 1_655 S
N101 C102 1.316 . S
N101 C103 1.375 . S
C102 N101 1.316 . S
C102 N104 1.347 . S
C102 H113 0.931 . S
C103 N101 1.375 . S
C103 C105 1.350 . S
C103 H112 0.930 . S
N104 C102 1.347 . S
N104 C105 1.373 . S
C105 C103 1.350 . S
C105 N104 1.373 . S
C105 H119 0.931 . S
C106 O109 1.256 . S
C106 O110 1.255 . S
O107 Co90 2.021 . S
O107 C100 1.259 . S
O108 Co92 2.117 . S
O108 C100 1.258 . S
O109 Co92 2.020 . S
O109 C106 1.256 . S
O110 Co90 2.062 . S
O110 C106 1.255 . S
O111 C91 1.259 . S
O111 Co92 2.021 . S
H112 C103 0.930 . S
H113 C102 0.931 . S
O114 Co90 2.117 . S
O114 C91 1.258 . S
O115 Co90 2.020 . S
O115 C117 1.256 . S
O116 Co92 2.062 . S
O116 C117 1.255 . S
C117 O115 1.256 . S
C117 O116 1.255 . S
H118 C97 0.931 . S
H119 C105 0.931 . S
Co120 N125 2.057 . S
Co120 O137 2.021 . S
Co120 O140 2.062 . S
Co120 O144 2.117 . S
Co120 O145 2.020 . S
C121 O141 1.259 . S
C121 O144 1.258 . S
Co122 N131 2.057 1_565 S
Co122 O138 2.117 . S
Co122 O139 2.020 . S
Co122 O141 2.021 . S
Co122 O146 2.062 . S
C123 N125 1.316 . S
C123 N126 1.347 . S
C123 H128 0.931 . S
C124 N125 1.375 . S
C124 C127 1.350 . S
C124 H129 0.930 . S
N125 Co120 2.057 . S
N125 C123 1.316 . S
N125 C124 1.375 . S
N126 C123 1.347 . S
N126 C127 1.373 . S
C127 C124 1.350 . S
C127 N126 1.373 . S
C127 H148 0.931 . S
H128 C123 0.931 . S
H129 C124 0.930 . S
C130 O137 1.259 . S
C130 O138 1.258 . S
N131 Co122 2.057 1_545 S
N131 C132 1.316 . S
N131 C133 1.375 . S
C132 N131 1.316 . S
C132 N134 1.347 . S
C132 H143 0.931 . S
C133 N131 1.375 . S
C133 C135 1.350 . S
C133 H142 0.930 . S
N134 C132 1.347 . S
N134 C135 1.373 . S
C135 C133 1.350 . S
C135 N134 1.373 . S
C135 H149 0.931 . S
C136 O139 1.256 . S
C136 O140 1.255 . S
O137 Co120 2.021 . S
O137 C130 1.259 . S
O138 Co122 2.117 . S
O138 C130 1.258 . S
O139 Co122 2.020 . S
O139 C136 1.256 . S
O140 Co120 2.062 . S
O140 C136 1.255 . S
O141 C121 1.259 . S
O141 Co122 2.021 . S
H142 C133 0.930 . S
H143 C132 0.931 . S
O144 Co120 2.117 . S
O144 C121 1.258 . S
O145 Co120 2.020 . S
O145 C147 1.256 . S
O146 Co122 2.062 . S
O146 C147 1.255 . S
C147 O145 1.256 . S
C147 O146 1.255 . S
H148 C127 0.931 . S
H149 C135 0.931 . S
Co150 N155 2.057 . S
Co150 O167 2.021 . S
Co150 O170 2.062 . S
Co150 O174 2.117 . S
Co150 O175 2.020 . S
C151 O171 1.259 . S
C151 O174 1.258 . S
Co152 N161 2.057 . S
Co152 O168 2.117 . S
Co152 O169 2.020 . S
Co152 O171 2.021 . S
Co152 O176 2.062 . S
C153 N155 1.316 . S
C153 N156 1.347 . S
C153 H158 0.931 . S
C154 N155 1.375 . S
C154 C157 1.350 . S
C154 H159 0.930 . S
N155 Co150 2.057 . S
N155 C153 1.316 . S
N155 C154 1.375 . S
N156 C153 1.347 . S
N156 C157 1.373 . S
C157 C154 1.350 . S
C157 N156 1.373 . S
C157 H178 0.931 . S
H158 C153 0.931 . S
H159 C154 0.930 . S
C160 O167 1.259 . S
C160 O168 1.258 . S
N161 Co152 2.057 . S
N161 C162 1.316 . S
N161 C163 1.375 . S
C162 N161 1.316 . S
C162 N164 1.347 . S
C162 H173 0.931 . S
C163 N161 1.375 . S
C163 C165 1.350 . S
C163 H172 0.930 . S
N164 C162 1.347 . S
N164 C165 1.373 . S
C165 C163 1.350 . S
C165 N164 1.373 . S
C165 H179 0.931 . S
C166 O169 1.256 . S
C166 O170 1.255 . S
O167 Co150 2.021 . S
O167 C160 1.259 . S
O168 Co152 2.117 . S
O168 C160 1.258 . S
O169 Co152 2.020 . S
O169 C166 1.256 . S
O170 Co150 2.062 . S
O170 C166 1.255 . S
O171 C151 1.259 . S
O171 Co152 2.021 . S
H172 C163 0.930 . S
H173 C162 0.931 . S
O174 Co150 2.117 . S
O174 C151 1.258 . S
O175 Co150 2.020 . S
O175 C177 1.256 . S
O176 Co152 2.062 . S
O176 C177 1.255 . S
C177 O175 1.256 . S
C177 O176 1.255 . S
H178 C157 0.931 . S
H179 C165 0.931 . S
C180 C181 1.369 1_545 S
C180 C182 1.419 . S
C180 H184 0.930 . S
C181 C180 1.369 1_565 S
C181 C190 1.429 1_556 S
C182 C180 1.419 . S
C182 C183 1.363 1_556 S
C182 H185 0.929 . S
C183 C182 1.363 1_554 S
C183 C189 1.428 1_545 S
H184 C180 0.930 . S
H185 C182 0.929 . S
S186 N187 1.613 . S
S186 N188 1.610 . S
N187 S186 1.613 . S
N187 C190 1.350 . S
N188 S186 1.610 . S
N188 C189 1.351 . S
C189 C183 1.428 1_565 S
C189 N188 1.351 . S
C189 C190 1.434 . S
C190 C181 1.429 1_554 S
C190 N187 1.350 . S
C190 C189 1.434 . S
C191 C192 1.369 . S
C191 C193 1.419 . S
C191 H195 0.930 . S
C192 C191 1.369 . S
C192 C201 1.429 . S
C193 C191 1.419 . S
C193 C194 1.363 . S
C193 H196 0.929 . S
C194 C193 1.363 . S
C194 C200 1.428 . S
H195 C191 0.930 . S
H196 C193 0.929 . S
S197 N198 1.613 . S
S197 N199 1.610 . S
N198 S197 1.613 . S
N198 C201 1.350 . S
N199 S197 1.610 . S
N199 C200 1.351 . S
C200 C194 1.428 . S
C200 N199 1.351 . S
C200 C201 1.434 . S
C201 C192 1.429 . S
C201 N198 1.350 . S
C201 C200 1.434 . S
C202 C203 1.369 1_455 S
C202 C204 1.419 . S
C202 H206 0.930 . S
C203 C202 1.369 1_655 S
C203 C212 1.429 1_554 S
C204 C202 1.419 . S
C204 C205 1.363 1_554 S
C204 H207 0.929 . S
C205 C204 1.363 1_556 S
C205 C211 1.428 1_455 S
H206 C202 0.930 . S
H207 C204 0.929 . S
S208 N209 1.613 . S
S208 N210 1.610 . S
N209 S208 1.613 . S
N209 C212 1.350 . S
N210 S208 1.610 . S
N210 C211 1.351 . S
C211 C205 1.428 1_655 S
C211 N210 1.351 . S
C211 C212 1.434 . S
C212 C203 1.429 1_556 S
C212 N209 1.350 . S
C212 C211 1.434 . S
C213 C214 1.369 . S
C213 C215 1.419 1_545 S
C213 H217 0.930 . S
C214 C213 1.369 . S
C214 C223 1.429 . S
C215 C213 1.419 1_565 S
C215 C216 1.363 . S
C215 H218 0.929 . S
C216 C215 1.363 . S
C216 C222 1.428 . S
H217 C213 0.930 . S
H218 C215 0.929 . S
S219 N220 1.613 . S
S219 N221 1.610 1_545 S
N220 S219 1.613 . S
N220 C223 1.350 . S
N221 S219 1.610 1_565 S
N221 C222 1.351 . S
C222 C216 1.428 . S
C222 N221 1.351 . S
C222 C223 1.434 1_565 S
C223 C214 1.429 . S
C223 N220 1.350 . S
C223 C222 1.434 1_545 S
C224 C225 1.369 . S
C224 C226 1.419 . S
C224 H228 0.930 . S
C225 C224 1.369 . S
C225 C234 1.429 1_556 S
C226 C224 1.419 . S
C226 C227 1.363 1_556 S
C226 H229 0.929 . S
C227 C226 1.363 1_554 S
C227 C233 1.428 . S
H228 C224 0.930 . S
H229 C226 0.929 . S
S230 N231 1.613 . S
S230 N232 1.610 . S
N231 S230 1.613 . S
N231 C234 1.350 . S
N232 S230 1.610 . S
N232 C233 1.351 . S
C233 C227 1.428 . S
C233 N232 1.351 . S
C233 C234 1.434 . S
C234 C225 1.429 1_554 S
C234 N231 1.350 . S
C234 C233 1.434 . S
C235 C236 1.369 . S
C235 C237 1.419 . S
C235 H239 0.930 . S
C236 C235 1.369 . S
C236 C245 1.429 1_655 S
C237 C235 1.419 . S
C237 C238 1.363 1_655 S
C237 H240 0.929 . S
C238 C237 1.363 1_455 S
C238 C244 1.428 . S
H239 C235 0.930 . S
H240 C237 0.929 . S
S241 N242 1.613 . S
S241 N243 1.610 . S
N242 S241 1.613 . S
N242 C245 1.350 . S
N243 S241 1.610 . S
N243 C244 1.351 . S
C244 C238 1.428 . S
C244 N243 1.351 . S
C244 C245 1.434 . S
C245 C236 1.429 1_455 S
C245 N242 1.350 . S
C245 C244 1.434 . S
C246 C247 1.369 . S
C246 C248 1.419 . S
C246 H250 0.930 . S
C247 C246 1.369 . S
C247 C256 1.429 . S
C248 C246 1.419 . S
C248 C249 1.363 . S
C248 H251 0.929 . S
C249 C248 1.363 . S
C249 C255 1.428 . S
H250 C246 0.930 . S
H251 C248 0.929 . S
S252 N253 1.613 . S
S252 N254 1.610 . S
N253 S252 1.613 . S
N253 C256 1.350 . S
N254 S252 1.610 . S
N254 C255 1.351 . S
C255 C249 1.428 . S
C255 N254 1.351 . S
C255 C256 1.434 . S
C256 C247 1.429 . S
C256 N253 1.350 . S
C256 C255 1.434 . S
C257 C258 1.369 . S
C257 C259 1.419 . S
C257 H261 0.930 . S
C258 C257 1.369 . S
C258 C267 1.429 . S
C259 C257 1.419 . S
C259 C260 1.363 . S
C259 H262 0.929 . S
C260 C259 1.363 . S
C260 C266 1.428 . S
H261 C257 0.930 . S
H262 C259 0.929 . S
S263 N264 1.613 . S
S263 N265 1.610 . S
N264 S263 1.613 . S
N264 C267 1.350 . S
N265 S263 1.610 . S
N265 C266 1.351 . S
C266 C260 1.428 . S
C266 N265 1.351 . S
C266 C267 1.434 . S
C267 C258 1.429 . S
C267 N264 1.350 . S
C267 C266 1.434 . S
C268 C269 1.369 . S
C268 C270 1.419 . S
C268 H272 0.930 . S
C269 C268 1.369 . S
C269 C278 1.429 . S
C270 C268 1.419 . S
C270 C271 1.363 . S
C270 H273 0.929 . S
C271 C270 1.363 . S
C271 C277 1.428 . S
H272 C268 0.930 . S
H273 C270 0.929 . S
S274 N275 1.613 . S
S274 N276 1.610 . S
N275 S274 1.613 . S
N275 C278 1.350 . S
N276 S274 1.610 . S
N276 C277 1.351 . S
C277 C271 1.428 . S
C277 N276 1.351 . S
C277 C278 1.434 . S
C278 C269 1.429 . S
C278 N275 1.350 . S
C278 C277 1.434 . S
C279 C280 1.369 . S
C279 C281 1.419 . S
C279 H283 0.930 . S
C280 C279 1.369 . S
C280 C289 1.429 . S
C281 C279 1.419 . S
C281 C282 1.363 . S
C281 H284 0.929 . S
C282 C281 1.363 . S
C282 C288 1.428 . S
H283 C279 0.930 . S
H284 C281 0.929 . S
S285 N286 1.613 . S
S285 N287 1.610 . S
N286 S285 1.613 . S
N286 C289 1.350 . S
N287 S285 1.610 . S
N287 C288 1.351 . S
C288 C282 1.428 . S
C288 N287 1.351 . S
C288 C289 1.434 . S
C289 C280 1.429 . S
C289 N286 1.350 . S
C289 C288 1.434 . S
C290 C291 1.369 . S
C290 C292 1.419 . S
C290 H294 0.930 . S
C291 C290 1.369 . S
C291 C300 1.429 . S
C292 C290 1.419 . S
C292 C293 1.363 . S
C292 H295 0.929 . S
C293 C292 1.363 . S
C293 C299 1.428 . S
H294 C290 0.930 . S
H295 C292 0.929 . S
S296 N297 1.613 . S
S296 N298 1.610 . S
N297 S296 1.613 . S
N297 C300 1.350 . S
N298 S296 1.610 . S
N298 C299 1.351 . S
C299 C293 1.428 . S
C299 N298 1.351 . S
C299 C300 1.434 . S
C300 C291 1.429 . S
C300 N297 1.350 . S
C300 C299 1.434 . S
C301 C302 1.369 . S
C301 C303 1.419 . S
C301 H305 0.930 . S
C302 C301 1.369 . S
C302 C311 1.429 . S
C303 C301 1.419 . S
C303 C304 1.363 . S
C303 H306 0.929 . S
C304 C303 1.363 . S
C304 C310 1.428 . S
H305 C301 0.930 . S
H306 C303 0.929 . S
S307 N308 1.613 . S
S307 N309 1.610 . S
N308 S307 1.613 . S
N308 C311 1.350 . S
N309 S307 1.610 . S
N309 C310 1.351 . S
C310 C304 1.428 . S
C310 N309 1.351 . S
C310 C311 1.434 . S
C311 C302 1.429 . S
C311 N308 1.350 . S
C311 C310 1.434 . S
C312 C313 1.369 . S
C312 C314 1.419 . S
C312 H316 0.930 . S
C313 C312 1.369 . S
C313 C322 1.429 . S
C314 C312 1.419 . S
C314 C315 1.363 . S
C314 H317 0.929 . S
C315 C314 1.363 . S
C315 C321 1.428 . S
H316 C312 0.930 . S
H317 C314 0.929 . S
S318 N319 1.613 . S
S318 N320 1.610 . S
N319 S318 1.613 . S
N319 C322 1.350 . S
N320 S318 1.610 . S
N320 C321 1.351 . S
C321 C315 1.428 . S
C321 N320 1.351 . S
C321 C322 1.434 . S
C322 C313 1.429 . S
C322 N319 1.350 . S
C322 C321 1.434 . S
C323 C324 1.369 . S
C323 C325 1.419 1_655 S
C323 H327 0.930 . S
C324 C323 1.369 . S
C324 C333 1.429 . S
C325 C323 1.419 1_455 S
C325 C326 1.363 . S
C325 H328 0.929 . S
C326 C325 1.363 . S
C326 C332 1.428 . S
H327 C323 0.930 . S
H328 C325 0.929 . S
S329 N330 1.613 1_455 S
S329 N331 1.610 . S
N330 S329 1.613 1_655 S
N330 C333 1.350 . S
N331 S329 1.610 . S
N331 C332 1.351 . S
C332 C326 1.428 . S
C332 N331 1.351 . S
C332 C333 1.434 1_455 S
C333 C324 1.429 . S
C333 N330 1.350 . S
C333 C332 1.434 1_655 S
C334 C335 1.369 . S
C334 C336 1.419 1_545 S
C334 H338 0.930 . S
C335 C334 1.369 . S
C335 C344 1.429 . S
C336 C334 1.419 1_565 S
C336 C337 1.363 . S
C336 H339 0.929 . S
C337 C336 1.363 . S
C337 C343 1.428 . S
H338 C334 0.930 . S
H339 C336 0.929 . S
S340 N341 1.613 . S
S340 N342 1.610 1_545 S
N341 S340 1.613 . S
N341 C344 1.350 . S
N342 S340 1.610 1_565 S
N342 C343 1.351 . S
C343 C337 1.428 . S
C343 N342 1.351 . S
C343 C344 1.434 1_565 S
C344 C335 1.429 . S
C344 N341 1.350 . S
C344 C343 1.434 1_545 S
C345 C346 1.369 . S
C345 C347 1.419 . S
C345 H349 0.930 . S
C346 C345 1.369 . S
C346 C355 1.429 . S
C347 C345 1.419 . S
C347 C348 1.363 . S
C347 H350 0.929 . S
C348 C347 1.363 . S
C348 C354 1.428 . S
H349 C345 0.930 . S
H350 C347 0.929 . S
S351 N352 1.613 . S
S351 N353 1.610 . S
N352 S351 1.613 . S
N352 C355 1.350 . S
N353 S351 1.610 . S
N353 C354 1.351 . S
C354 C348 1.428 . S
C354 N353 1.351 . S
C354 C355 1.434 . S
C355 C346 1.429 . S
C355 N352 1.350 . S
C355 C354 1.434 . S
C356 C357 1.369 . S
C356 C358 1.419 1_455 S
C356 H360 0.930 . S
C357 C356 1.369 . S
C357 C366 1.447 . S
C358 C356 1.419 1_655 S
C358 C359 1.363 . S
C358 H361 0.929 . S
C359 C358 1.363 . S
C359 C365 1.428 . S
H360 C356 0.930 . S
H361 C358 0.929 . S
S362 N363 1.613 1_655 S
S362 N364 1.610 . S
N363 S362 1.613 1_455 S
N363 C366 1.342 . S
N364 S362 1.610 . S
N364 C365 1.351 . S
C365 C359 1.428 . S
C365 N364 1.351 . S
C365 C366 1.422 1_655 S
C366 C357 1.447 . S
C366 N363 1.342 . S
C366 C365 1.422 1_455 S
C367 C368 1.369 . S
C367 C369 1.419 1_545 S
C367 H371 0.930 . S
C368 C367 1.369 . S
C368 C377 1.429 . S
C369 C367 1.419 1_565 S
C369 C370 1.363 . S
C369 H372 0.929 . S
C370 C369 1.363 . S
C370 C376 1.428 . S
H371 C367 0.930 . S
H372 C369 0.929 . S
S373 N374 1.613 . S
S373 N375 1.610 1_545 S
N374 S373 1.613 . S
N374 C377 1.350 . S
N375 S373 1.610 1_565 S
N375 C376 1.351 . S
C376 C370 1.428 . S
C376 N375 1.351 . S
C376 C377 1.434 1_565 S
C377 C368 1.429 . S
C377 N374 1.350 . S
C377 C376 1.434 1_545 S
C181 C121 2.018 . S
C183 C1 2.108 . S
C192 C160 2.176 . S
C194 C40 2.184 . S
C203 C61 2.204 . S
C205 C91 2.094 . S
C214 C10 2.130 . S
C216 C130 2.230 . S
C225 C151 2.064 . S
C227 C31 2.060 . S
C236 C70 2.034 . S
C238 C100 2.142 . S
C247 C27 1.347 . S
C249 N74 1.350 . S
C258 C46 1.344 . S
C260 N14 1.353 . S
C269 C87 1.346 . S
C271 N36 1.345 . S
C280 C106 1.345 . S
C282 N126 1.344 . S
C291 C136 1.340 . S
C293 N156 1.352 . S
C302 N96 1.354 . S
C304 C166 1.348 . S
C313 C16 1.244 . S
C315 N66 1.209 . S
C324 C57 1.256 . S
C326 N6 1.194 . S
C335 C76 1.250 . S
C337 N44 1.198 . S
C346 C117 1.248 . S
C348 N134 1.204 . S
C357 C147 1.257 . S
C359 N164 1.195 . S
C368 N104 1.201 . S
C370 C177 1.251 . S
