# Generated by pormake.
# Topology pcl, (4)-cn, num edge types: 1
# Building blocks:
#     Node 0, Type 0, BuildingBlock: KUFVIS_clean_sbu_0, # of connection points: 4
#     Node 1, Type 0, BuildingBlock: KUFVIS_clean_sbu_0, # of connection points: 4
#     Node 2, Type 0, BuildingBlock: KUFVIS_clean_sbu_0, # of connection points: 4
#     Node 3, Type 0, BuildingBlock: KUFVIS_clean_sbu_0, # of connection points: 4
#     Node 4, Type 0, BuildingBlock: KUFVIS_clean_sbu_0, # of connection points: 4
#     Node 5, Type 0, BuildingBlock: KUFVIS_clean_sbu_0, # of connection points: 4
#     Node 6, Type 0, BuildingBlock: KUFVIS_clean_sbu_0, # of connection points: 4
#     Node 7, Type 0, BuildingBlock: KUFVIS_clean_sbu_0, # of connection points: 4
#     Node 8, Type 0, BuildingBlock: KUFVIS_clean_sbu_0, # of connection points: 4
#     Node 9, Type 0, BuildingBlock: KUFVIS_clean_sbu_0, # of connection points: 4
#     Node 10, Type 0, BuildingBlock: KUFVIS_clean_sbu_0, # of connection points: 4
#     Node 11, Type 0, BuildingBlock: KUFVIS_clean_sbu_0, # of connection points: 4
#     Node 12, Type 0, BuildingBlock: KUFVIS_clean_sbu_0, # of connection points: 4
#     Node 13, Type 0, BuildingBlock: KUFVIS_clean_sbu_0, # of connection points: 4
#     Node 14, Type 0, BuildingBlock: KUFVIS_clean_sbu_0, # of connection points: 4
#     Node 15, Type 0, BuildingBlock: KUFVIS_clean_sbu_0, # of connection points: 4
#     Edge 16, Type (0, 0), BuildingBlock: UVAHIK_clean_linker_0, # of connection points: 2
#     Edge 17, Type (0, 0), BuildingBlock: UVAHIK_clean_linker_0, # of connection points: 2
#     Edge 18, Type (0, 0), BuildingBlock: UVAHIK_clean_linker_0, # of connection points: 2
#     Edge 19, Type (0, 0), BuildingBlock: UVAHIK_clean_linker_0, # of connection points: 2
#     Edge 20, Type (0, 0), BuildingBlock: UVAHIK_clean_linker_0, # of connection points: 2
#     Edge 21, Type (0, 0), BuildingBlock: UVAHIK_clean_linker_0, # of connection points: 2
#     Edge 22, Type (0, 0), BuildingBlock: UVAHIK_clean_linker_0, # of connection points: 2
#     Edge 23, Type (0, 0), BuildingBlock: UVAHIK_clean_linker_0, # of connection points: 2
#     Edge 24, Type (0, 0), BuildingBlock: UVAHIK_clean_linker_0, # of connection points: 2
#     Edge 25, Type (0, 0), BuildingBlock: UVAHIK_clean_linker_0, # of connection points: 2
#     Edge 26, Type (0, 0), BuildingBlock: UVAHIK_clean_linker_0, # of connection points: 2
#     Edge 27, Type (0, 0), BuildingBlock: UVAHIK_clean_linker_0, # of connection points: 2
#     Edge 28, Type (0, 0), BuildingBlock: UVAHIK_clean_linker_0, # of connection points: 2
#     Edge 29, Type (0, 0), BuildingBlock: UVAHIK_clean_linker_0, # of connection points: 2
#     Edge 30, Type (0, 0), BuildingBlock: UVAHIK_clean_linker_0, # of connection points: 2
#     Edge 31, Type (0, 0), BuildingBlock: UVAHIK_clean_linker_0, # of connection points: 2
#     Edge 32, Type (0, 0), BuildingBlock: UVAHIK_clean_linker_0, # of connection points: 2
#     Edge 33, Type (0, 0), BuildingBlock: UVAHIK_clean_linker_0, # of connection points: 2
#     Edge 34, Type (0, 0), BuildingBlock: UVAHIK_clean_linker_0, # of connection points: 2
#     Edge 35, Type (0, 0), BuildingBlock: UVAHIK_clean_linker_0, # of connection points: 2
#     Edge 36, Type (0, 0), BuildingBlock: UVAHIK_clean_linker_0, # of connection points: 2
#     Edge 37, Type (0, 0), BuildingBlock: UVAHIK_clean_linker_0, # of connection points: 2
#     Edge 38, Type (0, 0), BuildingBlock: UVAHIK_clean_linker_0, # of connection points: 2
#     Edge 39, Type (0, 0), BuildingBlock: UVAHIK_clean_linker_0, # of connection points: 2
#     Edge 40, Type (0, 0), BuildingBlock: UVAHIK_clean_linker_0, # of connection points: 2
#     Edge 41, Type (0, 0), BuildingBlock: UVAHIK_clean_linker_0, # of connection points: 2
#     Edge 42, Type (0, 0), BuildingBlock: UVAHIK_clean_linker_0, # of connection points: 2
#     Edge 43, Type (0, 0), BuildingBlock: UVAHIK_clean_linker_0, # of connection points: 2
#     Edge 44, Type (0, 0), BuildingBlock: UVAHIK_clean_linker_0, # of connection points: 2
#     Edge 45, Type (0, 0), BuildingBlock: UVAHIK_clean_linker_0, # of connection points: 2
#     Edge 46, Type (0, 0), BuildingBlock: UVAHIK_clean_linker_0, # of connection points: 2
#     Edge 47, Type (0, 0), BuildingBlock: UVAHIK_clean_linker_0, # of connection points: 2
# Relax obj value: 0.080
# Max RMSD: 0.060
# Mean RMSD: 0.059
data_MOF--net-pcl--node1-KUFVIS_clean_sbu_0--edge1-UVAHIK_clean_linker_0
_symmetry_space_group_name_H-M    P1
_symmetry_Int_Tables_number       1
_symmetry_cell_setting            triclinic
loop_
_symmetry_equiv_pos_as_xyz
'x, y, z'
_cell_length_a     67.755255
_cell_length_b     54.815677
_cell_length_c     54.404056
_cell_angle_alpha  89.986945
_cell_angle_beta   90.017762
_cell_angle_gamma 89.99987
loop_
_atom_site_label
_atom_site_type_symbol
_atom_site_fract_x
_atom_site_fract_y
_atom_site_fract_z
_atom_type_partial_charge
Mn0 Mn 0.14161 0.33982 0.07934 0.0
Mn1 Mn 0.18312 0.36198 0.10534 0.0
C2 C 0.15146 0.32603 0.11752 0.0
C3 C 0.10762 0.34368 0.07302 0.0
C4 C 0.1833 0.32456 0.06415 0.0
O5 O 0.14719 0.37055 0.05945 0.0
O6 O 0.17356 0.38533 0.07996 0.0
C7 C 0.16576 0.40474 0.13058 0.0
N8 N 0.17607 0.38343 0.13162 0.0
C9 C 0.17942 0.3866 0.17555 0.0
C10 C 0.16897 0.40867 0.17492 0.0
C11 C 0.16209 0.41775 0.15233 0.0
C12 C 0.18272 0.3745 0.15326 0.0
H13 H 0.16033 0.4117 0.11328 0.0
C14 C 0.1603 0.38687 0.0632 0.0
O15 O 0.11852 0.33116 0.05792 0.0
O16 O 0.11655 0.3541 0.09126 0.0
N17 N 0.19378 0.34131 0.13043 0.0
C18 C 0.20292 0.3193 0.12799 0.0
C19 C 0.21041 0.30752 0.14895 0.0
C20 C 0.2085 0.31852 0.17214 0.0
C21 C 0.1992 0.34128 0.17417 0.0
C22 C 0.19223 0.35228 0.15261 0.0
H23 H 0.20441 0.31073 0.11022 0.0
O24 O 0.13934 0.3132 0.10434 0.0
O25 O 0.15721 0.34655 0.10798 0.0
O26 O 0.16459 0.32187 0.06249 0.0
O27 O 0.1916 0.33955 0.07892 0.0
C28 C 0.19631 0.35331 0.19677 0.0
C29 C 0.18637 0.37591 0.19747 0.0
H30 H 0.166 0.41868 0.19168 0.0
H31 H 0.15391 0.4347 0.15172 0.0
H32 H 0.21756 0.28995 0.14724 0.0
H33 H 0.21411 0.30926 0.18829 0.0
H34 H 0.20146 0.34521 0.21376 0.0
H35 H 0.18399 0.38481 0.215 0.0
Mn36 Mn 0.8651 0.66319 0.58244 0.0
Mn37 Mn 0.82594 0.63998 0.6128 0.0
C38 C 0.85629 0.67858 0.62039 0.0
C39 C 0.8989 0.66207 0.57406 0.0
C40 C 0.82196 0.67543 0.57021 0.0
O41 O 0.86046 0.63087 0.56502 0.0
O42 O 0.83476 0.61654 0.58704 0.0
C43 C 0.84655 0.59892 0.63716 0.0
N44 N 0.83546 0.61958 0.63875 0.0
C45 C 0.8349 0.6172 0.68293 0.0
C46 C 0.84619 0.5958 0.68175 0.0
C47 C 0.85207 0.58665 0.65876 0.0
C48 C 0.82979 0.62859 0.66078 0.0
H49 H 0.85121 0.5919 0.61955 0.0
C50 C 0.84763 0.61452 0.56989 0.0
O51 O 0.88661 0.67214 0.55875 0.0
O52 O 0.89147 0.65221 0.5936 0.0
N53 N 0.81598 0.66052 0.63843 0.0
C54 C 0.80561 0.68173 0.63642 0.0
C55 C 0.79871 0.69334 0.65776 0.0
C56 C 0.80247 0.68299 0.68092 0.0
C57 C 0.81303 0.66105 0.68252 0.0
C58 C 0.81931 0.65014 0.66059 0.0
H59 H 0.80267 0.68978 0.61868 0.0
O60 O 0.8669 0.69157 0.60546 0.0
O61 O 0.85125 0.65708 0.6126 0.0
O62 O 0.84044 0.67798 0.56602 0.0
O63 O 0.81508 0.66143 0.58696 0.0
C64 C 0.81776 0.64972 0.70502 0.0
C65 C 0.82876 0.62787 0.70523 0.0
H66 H 0.85056 0.58635 0.69837 0.0
H67 H 0.86088 0.57022 0.65771 0.0
H68 H 0.79058 0.71027 0.65638 0.0
H69 H 0.79725 0.6921 0.69734 0.0
H70 H 0.81321 0.6578 0.72228 0.0
H71 H 0.83254 0.6195 0.72265 0.0
Mn72 Mn 0.14235 0.6633 0.91821 0.0
Mn73 Mn 0.18266 0.64063 0.88987 0.0
C74 C 0.15098 0.67722 0.87962 0.0
C75 C 0.10866 0.65978 0.92666 0.0
C76 C 0.18468 0.67761 0.93139 0.0
O77 O 0.14833 0.63234 0.93756 0.0
O78 O 0.1736 0.61711 0.91535 0.0
C79 C 0.16398 0.59858 0.86489 0.0
N80 N 0.17454 0.61969 0.86366 0.0
C81 C 0.1767 0.61694 0.81959 0.0
C82 C 0.16597 0.59508 0.8204 0.0
C83 C 0.15956 0.58589 0.84315 0.0
C84 C 0.18073 0.62873 0.84186 0.0
H85 H 0.15892 0.59153 0.88232 0.0
C86 C 0.16098 0.61571 0.93285 0.0
O87 O 0.12027 0.67213 0.94106 0.0
O88 O 0.11668 0.64946 0.90773 0.0
N89 N 0.19281 0.66145 0.86459 0.0
C90 C 0.20233 0.68323 0.8669 0.0
C91 C 0.20946 0.69507 0.84579 0.0
C92 C 0.20681 0.68435 0.82256 0.0
C93 C 0.19714 0.66182 0.82067 0.0
C94 C 0.19054 0.65075 0.84237 0.0
H95 H 0.20441 0.69156 0.88469 0.0
O96 O 0.13944 0.69012 0.89351 0.0
O97 O 0.15685 0.65655 0.88871 0.0
O98 O 0.16609 0.68077 0.9339 0.0
O99 O 0.19228 0.66251 0.91618 0.0
C100 C 0.19353 0.65007 0.79807 0.0
C101 C 0.18325 0.6277 0.79752 0.0
H102 H 0.16244 0.5853 0.80367 0.0
H103 H 0.15118 0.5691 0.84392 0.0
H104 H 0.21691 0.71246 0.8474 0.0
H105 H 0.21217 0.69365 0.80631 0.0
H106 H 0.19839 0.65823 0.78097 0.0
H107 H 0.18032 0.61903 0.78 0.0
Mn108 Mn 0.86435 0.34007 0.42017 0.0
Mn109 Mn 0.82316 0.3633 0.39432 0.0
C110 C 0.85437 0.3268 0.38187 0.0
C111 C 0.89839 0.34342 0.42653 0.0
C112 C 0.82247 0.32547 0.43514 0.0
O113 O 0.85909 0.37066 0.44037 0.0
O114 O 0.83299 0.38622 0.41993 0.0
C115 C 0.8411 0.40592 0.36947 0.0
N116 N 0.83051 0.38483 0.36824 0.0
C117 C 0.82723 0.38846 0.32433 0.0
C118 C 0.83797 0.41031 0.32516 0.0
C119 C 0.84496 0.41905 0.34783 0.0
C120 C 0.82375 0.37623 0.34652 0.0
H121 H 0.84662 0.41261 0.38683 0.0
C122 C 0.84622 0.38729 0.43677 0.0
O123 O 0.88739 0.33088 0.4415 0.0
O124 O 0.88954 0.3541 0.40839 0.0
N125 N 0.81224 0.34307 0.36905 0.0
C126 C 0.80278 0.32124 0.37129 0.0
C127 C 0.79513 0.30981 0.35024 0.0
C128 C 0.79722 0.32097 0.32713 0.0
C129 C 0.80683 0.34355 0.32531 0.0
C130 C 0.81394 0.35421 0.34697 0.0
H131 H 0.80116 0.31255 0.38899 0.0
O132 O 0.86636 0.31366 0.39492 0.0
O133 O 0.84886 0.34734 0.39158 0.0
O134 O 0.84113 0.32234 0.43681 0.0
O135 O 0.8144 0.3408 0.42053 0.0
C136 C 0.80991 0.35571 0.30281 0.0
C137 C 0.82015 0.37811 0.30231 0.0
H138 H 0.84109 0.42041 0.30849 0.0
H139 H 0.85336 0.43582 0.3486 0.0
H140 H 0.78774 0.29238 0.35179 0.0
H141 H 0.79149 0.31197 0.31091 0.0
H142 H 0.80467 0.34785 0.28575 0.0
H143 H 0.82266 0.38711 0.28486 0.0
Mn144 Mn 0.85619 0.66403 0.91796 0.0
Mn145 Mn 0.86974 0.62391 0.87397 0.0
C146 C 0.85882 0.67684 0.87762 0.0
C147 C 0.83137 0.68182 0.9418 0.0
C148 C 0.89863 0.64666 0.91014 0.0
O149 O 0.85259 0.631 0.9346 0.0
O150 O 0.85903 0.60599 0.90277 0.0
C151 C 0.83016 0.60503 0.86091 0.0
N152 N 0.84747 0.61566 0.85407 0.0
C153 C 0.8375 0.6165 0.81161 0.0
C154 C 0.81959 0.60545 0.81818 0.0
C155 C 0.81588 0.59977 0.84295 0.0
C156 C 0.85111 0.62141 0.83034 0.0
H157 H 0.8273 0.60061 0.87993 0.0
C158 C 0.8537 0.60977 0.92503 0.0
O159 O 0.84966 0.68167 0.94901 0.0
O160 O 0.82751 0.67117 0.92107 0.0
N161 N 0.88039 0.63833 0.8448 0.0
C162 C 0.89816 0.64954 0.84164 0.0
C163 C 0.90421 0.65625 0.8179 0.0
C164 C 0.89203 0.65115 0.79765 0.0
C165 C 0.87381 0.63962 0.80133 0.0
C166 C 0.86867 0.6331 0.82538 0.0
H167 H 0.90772 0.65319 0.85709 0.0
O168 O 0.85924 0.6926 0.8954 0.0
O169 O 0.85651 0.65415 0.88394 0.0
O170 O 0.88632 0.6607 0.92093 0.0
O171 O 0.89371 0.63181 0.89308 0.0
C172 C 0.86049 0.63447 0.78211 0.0
C173 C 0.84229 0.62306 0.78728 0.0
H174 H 0.80854 0.60135 0.80439 0.0
H175 H 0.80207 0.59132 0.84817 0.0
H176 H 0.91828 0.66518 0.81519 0.0
H177 H 0.89684 0.65613 0.77935 0.0
H178 H 0.86399 0.63949 0.76335 0.0
H179 H 0.83205 0.6195 0.77241 0.0
Mn180 Mn 0.15209 0.34161 0.41616 0.0
Mn181 Mn 0.13885 0.3819 0.37211 0.0
C182 C 0.14985 0.32901 0.37566 0.0
C183 C 0.17677 0.32375 0.44021 0.0
C184 C 0.10964 0.35874 0.40761 0.0
O185 O 0.1556 0.37457 0.43297 0.0
O186 O 0.14911 0.39968 0.40123 0.0
C187 C 0.1785 0.40116 0.36001 0.0
N188 N 0.16132 0.39048 0.35274 0.0
C189 C 0.17176 0.39024 0.31046 0.0
C190 C 0.18954 0.40134 0.31747 0.0
C191 C 0.19295 0.40674 0.34237 0.0
C192 C 0.15798 0.38498 0.32888 0.0
H193 H 0.18114 0.40538 0.37913 0.0
C194 C 0.15437 0.39584 0.42351 0.0
O195 O 0.15847 0.32401 0.44735 0.0
O196 O 0.18072 0.33432 0.41947 0.0
N197 N 0.12863 0.36766 0.34263 0.0
C198 C 0.11094 0.35638 0.33901 0.0
C199 C 0.10516 0.34997 0.31508 0.0
C200 C 0.11751 0.35545 0.29511 0.0
C201 C 0.13566 0.36702 0.29926 0.0
C202 C 0.14053 0.37322 0.32348 0.0
H203 H 0.10124 0.35246 0.35424 0.0
O204 O 0.14923 0.31316 0.39336 0.0
O205 O 0.15206 0.35166 0.38215 0.0
O206 O 0.12191 0.34491 0.41876 0.0
O207 O 0.1147 0.37362 0.39063 0.0
C208 C 0.14915 0.37252 0.28034 0.0
C209 C 0.16725 0.38398 0.28596 0.0
H210 H 0.2007 0.4057 0.30393 0.0
H211 H 0.20666 0.41523 0.34793 0.0
H212 H 0.09115 0.34101 0.31202 0.0
H213 H 0.1129 0.35074 0.27666 0.0
H214 H 0.14586 0.36775 0.26145 0.0
H215 H 0.17761 0.38782 0.2713 0.0
Mn216 Mn 0.85398 0.34022 0.08261 0.0
Mn217 Mn 0.8665 0.38112 0.12638 0.0
C218 C 0.85551 0.32819 0.12337 0.0
C219 C 0.82972 0.32198 0.0582 0.0
C220 C 0.89622 0.35756 0.0918 0.0
O221 O 0.8509 0.37299 0.06513 0.0
O222 O 0.85638 0.39841 0.09693 0.0
C223 C 0.82667 0.40025 0.13774 0.0
N224 N 0.84385 0.38981 0.14536 0.0
C225 C 0.83315 0.39021 0.18754 0.0
C226 C 0.81537 0.40108 0.18016 0.0
C227 C 0.81209 0.40603 0.15514 0.0
C228 C 0.84707 0.38473 0.16935 0.0
H229 H 0.82414 0.40414 0.11853 0.0
C230 C 0.85163 0.39433 0.07452 0.0
O231 O 0.84817 0.32195 0.05169 0.0
O232 O 0.82537 0.33312 0.07851 0.0
N233 N 0.87655 0.36732 0.15618 0.0
C234 C 0.89424 0.35616 0.16015 0.0
C235 C 0.89988 0.35016 0.18423 0.0
C236 C 0.8874 0.35592 0.204 0.0
C237 C 0.86925 0.36735 0.19948 0.0
C238 C 0.86452 0.37314 0.17511 0.0
H239 H 0.90405 0.35203 0.14509 0.0
O240 O 0.85634 0.3121 0.10593 0.0
O241 O 0.85346 0.35075 0.11649 0.0
O242 O 0.88418 0.34333 0.08079 0.0
O243 O 0.89087 0.37281 0.10828 0.0
C244 C 0.85563 0.3731 0.21818 0.0
C245 C 0.83753 0.38437 0.21219 0.0
H246 H 0.8041 0.40559 0.19353 0.0
H247 H 0.79838 0.41434 0.1493 0.0
H248 H 0.9139 0.34129 0.18759 0.0
H249 H 0.89191 0.35152 0.22257 0.0
H250 H 0.85882 0.36865 0.23717 0.0
H251 H 0.82706 0.3884 0.22668 0.0
Mn252 Mn 0.15115 0.66592 0.58014 0.0
Mn253 Mn 0.13561 0.62519 0.62248 0.0
C254 C 0.14831 0.67761 0.62086 0.0
C255 C 0.17669 0.68319 0.55711 0.0
C256 C 0.10832 0.64986 0.5857 0.0
O257 O 0.15395 0.63305 0.56268 0.0
O258 O 0.14724 0.6076 0.59414 0.0
C259 C 0.17422 0.60494 0.63776 0.0
N260 N 0.15687 0.61601 0.64364 0.0
C261 C 0.16504 0.61584 0.68669 0.0
C262 C 0.18297 0.60433 0.68112 0.0
C263 C 0.18761 0.59895 0.65653 0.0
C264 C 0.15234 0.62149 0.6672 0.0
H265 H 0.17781 0.60073 0.61888 0.0
C266 C 0.1528 0.61169 0.57201 0.0
O267 O 0.15848 0.68401 0.5497 0.0
O268 O 0.18011 0.67186 0.57761 0.0
N269 N 0.12407 0.63957 0.65112 0.0
C270 C 0.10649 0.65146 0.65328 0.0
C271 C 0.09964 0.65811 0.67669 0.0
C272 C 0.11081 0.65228 0.69763 0.0
C273 C 0.12888 0.6401 0.69496 0.0
C274 C 0.13486 0.63371 0.67119 0.0
H275 H 0.09769 0.65567 0.63731 0.0
O276 O 0.14875 0.69394 0.60361 0.0
O277 O 0.14992 0.65507 0.6138 0.0
O278 O 0.12108 0.66432 0.5765 0.0
O279 O 0.11247 0.63384 0.60199 0.0
C280 C 0.14123 0.63416 0.71493 0.0
C281 C 0.15937 0.62219 0.71079 0.0
H282 H 0.19333 0.59967 0.69554 0.0
H283 H 0.20145 0.59014 0.65207 0.0
H284 H 0.08569 0.66755 0.67862 0.0
H285 H 0.10537 0.65722 0.71566 0.0
H286 H 0.13705 0.639 0.73353 0.0
H287 H 0.16887 0.61805 0.72625 0.0
Mn288 Mn 0.64288 0.84068 0.08102 0.0
Mn289 Mn 0.68274 0.86419 0.10969 0.0
C290 C 0.6517 0.82681 0.11959 0.0
C291 C 0.60902 0.84343 0.0731 0.0
C292 C 0.68556 0.8268 0.06856 0.0
O293 O 0.64825 0.87177 0.06178 0.0
O294 O 0.67381 0.88704 0.08342 0.0
C295 C 0.66319 0.90646 0.13325 0.0
N296 N 0.674 0.88561 0.13521 0.0
C297 C 0.67541 0.88935 0.17926 0.0
C298 C 0.66441 0.91097 0.17769 0.0
C299 C 0.65825 0.91953 0.15458 0.0
C300 C 0.67995 0.87716 0.15736 0.0
H301 H 0.6583 0.91302 0.11554 0.0
C302 C 0.66102 0.88833 0.06608 0.0
O303 O 0.62063 0.83143 0.05839 0.0
O304 O 0.61716 0.85386 0.09187 0.0
N305 N 0.69284 0.84421 0.1357 0.0
C306 C 0.70282 0.82269 0.13411 0.0
C307 C 0.70989 0.81155 0.15564 0.0
C308 C 0.7067 0.82271 0.17854 0.0
C309 C 0.69656 0.84497 0.1797 0.0
C310 C 0.69009 0.85536 0.1576 0.0
H311 H 0.7053 0.81401 0.11658 0.0
O312 O 0.64048 0.81365 0.10556 0.0
O313 O 0.6572 0.84771 0.11066 0.0
O314 O 0.66699 0.824 0.06512 0.0
O315 O 0.69277 0.84171 0.08427 0.0
C316 C 0.6924 0.85709 0.20194 0.0
C317 C 0.68176 0.87922 0.20173 0.0
H318 H 0.66049 0.92103 0.19411 0.0
H319 H 0.64966 0.93612 0.15323 0.0
H320 H 0.7177 0.79437 0.15459 0.0
H321 H 0.71203 0.81396 0.19511 0.0
H322 H 0.6971 0.84942 0.21933 0.0
H323 H 0.67843 0.8882 0.21897 0.0
Mn324 Mn 0.36426 0.16384 0.58152 0.0
Mn325 Mn 0.32404 0.14161 0.61028 0.0
C326 C 0.35612 0.17766 0.62037 0.0
C327 C 0.39794 0.15966 0.57311 0.0
C328 C 0.32208 0.17879 0.56879 0.0
O329 O 0.35762 0.13322 0.56188 0.0
O330 O 0.33294 0.11789 0.58493 0.0
C331 C 0.34245 0.09943 0.63538 0.0
N332 N 0.33208 0.12068 0.63656 0.0
C333 C 0.32999 0.11811 0.68065 0.0
C334 C 0.34053 0.09611 0.67988 0.0
C335 C 0.34681 0.08676 0.65715 0.0
C336 C 0.32601 0.12988 0.65834 0.0
H337 H 0.3474 0.09224 0.61796 0.0
C338 C 0.34517 0.11647 0.56701 0.0
O339 O 0.38655 0.17236 0.55872 0.0
O340 O 0.38966 0.14927 0.59182 0.0
N341 N 0.31414 0.16267 0.63552 0.0
C342 C 0.30485 0.1846 0.63317 0.0
C343 C 0.29792 0.19662 0.65427 0.0
C344 C 0.30052 0.18594 0.67752 0.0
C345 C 0.30996 0.16326 0.67946 0.0
C346 C 0.31638 0.15203 0.65777 0.0
H347 H 0.30281 0.1929 0.61536 0.0
O348 O 0.36774 0.1904 0.60645 0.0
O349 O 0.34992 0.1572 0.61117 0.0
O350 O 0.34067 0.18194 0.56624 0.0
O351 O 0.31451 0.16353 0.5839 0.0
C352 C 0.3135 0.15154 0.70209 0.0
C353 C 0.32358 0.12903 0.70269 0.0
H354 H 0.34402 0.08634 0.69665 0.0
H355 H 0.35504 0.06985 0.65642 0.0
H356 H 0.29065 0.21413 0.65262 0.0
H357 H 0.29531 0.19538 0.69376 0.0
H358 H 0.30875 0.15981 0.71917 0.0
H359 H 0.32647 0.12037 0.72023 0.0
Mn360 Mn 0.64173 0.16341 0.91874 0.0
Mn361 Mn 0.68082 0.14019 0.88826 0.0
C362 C 0.65031 0.1786 0.88061 0.0
C363 C 0.60797 0.16218 0.9274 0.0
C364 C 0.6849 0.17587 0.93062 0.0
O365 O 0.64656 0.13123 0.93634 0.0
O366 O 0.6722 0.11687 0.91425 0.0
C367 C 0.66021 0.09889 0.86431 0.0
N368 N 0.67124 0.11959 0.86251 0.0
C369 C 0.67165 0.11692 0.81835 0.0
C370 C 0.66041 0.09548 0.81975 0.0
C371 C 0.65465 0.08646 0.84283 0.0
C372 C 0.6768 0.12848 0.84039 0.0
H373 H 0.65564 0.09197 0.882 0.0
C374 C 0.65943 0.11492 0.93152 0.0
O375 O 0.62031 0.1724 0.94255 0.0
O376 O 0.61533 0.15225 0.90786 0.0
N377 N 0.69061 0.16061 0.86243 0.0
C378 C 0.70094 0.18187 0.86423 0.0
C379 C 0.70773 0.19336 0.84276 0.0
C380 C 0.70392 0.18284 0.8197 0.0
C381 C 0.69341 0.16085 0.81832 0.0
C382 C 0.68723 0.15007 0.84036 0.0
H383 H 0.70393 0.19004 0.88189 0.0
O384 O 0.63974 0.19164 0.89552 0.0
O385 O 0.65546 0.15718 0.88853 0.0
O386 O 0.66644 0.1784 0.9349 0.0
O387 O 0.69173 0.16182 0.91388 0.0
C388 C 0.68862 0.14935 0.79593 0.0
C389 C 0.67768 0.12746 0.79594 0.0
H390 H 0.65601 0.0859 0.80322 0.0
H391 H 0.64589 0.07 0.84405 0.0
H392 H 0.71583 0.21033 0.84398 0.0
H393 H 0.70907 0.19185 0.80319 0.0
H394 H 0.69309 0.15733 0.77858 0.0
H395 H 0.67386 0.11896 0.7786 0.0
Mn396 Mn 0.36535 0.84224 0.4186 0.0
Mn397 Mn 0.32559 0.86362 0.38816 0.0
C398 C 0.35753 0.82698 0.38019 0.0
C399 C 0.39898 0.84635 0.42729 0.0
C400 C 0.32287 0.82752 0.43057 0.0
O401 O 0.3588 0.8736 0.43693 0.0
O402 O 0.33397 0.88782 0.4134 0.0
C403 C 0.34464 0.90533 0.36299 0.0
N404 N 0.3342 0.88413 0.36182 0.0
C405 C 0.33296 0.88606 0.31765 0.0
C406 C 0.34358 0.908 0.31839 0.0
C407 C 0.34947 0.91765 0.34117 0.0
C408 C 0.32852 0.87464 0.34 0.0
H409 H 0.3493 0.91275 0.38044 0.0
C410 C 0.34618 0.88997 0.4313 0.0
O411 O 0.3874 0.83435 0.44203 0.0
O412 O 0.39092 0.85611 0.40809 0.0
N413 N 0.31608 0.84226 0.36294 0.0
C414 C 0.30649 0.82054 0.36534 0.0
C415 C 0.29973 0.80836 0.34424 0.0
C416 C 0.30281 0.81868 0.32093 0.0
C417 C 0.31257 0.84115 0.31891 0.0
C418 C 0.31876 0.85258 0.34061 0.0
H419 H 0.30406 0.81251 0.3832 0.0
O420 O 0.36886 0.81466 0.39486 0.0
O421 O 0.3514 0.84788 0.38839 0.0
O422 O 0.34143 0.8251 0.43426 0.0
O423 O 0.31561 0.84198 0.41445 0.0
C424 C 0.3166 0.8525 0.29622 0.0
C425 C 0.32687 0.87488 0.29558 0.0
H426 H 0.34742 0.91749 0.3016 0.0
H427 H 0.35776 0.9345 0.34189 0.0
H428 H 0.29222 0.79102 0.34595 0.0
H429 H 0.2977 0.80915 0.3047 0.0
H430 H 0.31208 0.84404 0.27913 0.0
H431 H 0.33012 0.88326 0.278 0.0
Mn432 Mn 0.35593 0.16275 0.91959 0.0
Mn433 Mn 0.37289 0.12264 0.87753 0.0
C434 C 0.36004 0.17493 0.87916 0.0
C435 C 0.32952 0.17967 0.94127 0.0
C436 C 0.39902 0.14702 0.91577 0.0
O437 O 0.35258 0.12969 0.93648 0.0
O438 O 0.36069 0.10461 0.90524 0.0
C439 C 0.33479 0.10222 0.8606 0.0
N440 N 0.3522 0.11354 0.85549 0.0
C441 C 0.34494 0.11406 0.81218 0.0
C442 C 0.32697 0.1023 0.81696 0.0
C443 C 0.32184 0.09644 0.84128 0.0
C444 C 0.35719 0.11947 0.83219 0.0
H445 H 0.33082 0.09766 0.87928 0.0
C446 C 0.3543 0.10843 0.92706 0.0
O447 O 0.34738 0.18033 0.94992 0.0
O448 O 0.32697 0.16868 0.9204 0.0
N449 N 0.38501 0.13747 0.8495 0.0
C450 C 0.40256 0.14956 0.84813 0.0
C451 C 0.40985 0.15673 0.82508 0.0
C452 C 0.39914 0.15122 0.80369 0.0
C453 C 0.38111 0.1388 0.80554 0.0
C454 C 0.37468 0.1319 0.82899 0.0
H455 H 0.41099 0.15356 0.86446 0.0
O456 O 0.3591 0.19107 0.89657 0.0
O457 O 0.35827 0.15232 0.88593 0.0
O458 O 0.38589 0.16111 0.92478 0.0
O459 O 0.39545 0.13131 0.89898 0.0
C460 C 0.36922 0.13311 0.78506 0.0
C461 C 0.35108 0.1209 0.7884 0.0
H462 H 0.31695 0.09781 0.80212 0.0
H463 H 0.30797 0.08744 0.84512 0.0
H464 H 0.42376 0.16634 0.82379 0.0
H465 H 0.40492 0.15659 0.78594 0.0
H466 H 0.37377 0.13831 0.7667 0.0
H467 H 0.34194 0.11695 0.77256 0.0
Mn468 Mn 0.65234 0.83925 0.41858 0.0
Mn469 Mn 0.63969 0.88018 0.3749 0.0
C470 C 0.65028 0.82712 0.37789 0.0
C471 C 0.67679 0.82097 0.44266 0.0
C472 C 0.61017 0.85708 0.4101 0.0
O473 O 0.65579 0.87203 0.43589 0.0
O474 O 0.65034 0.89745 0.40407 0.0
C475 C 0.67954 0.8987 0.36266 0.0
N476 N 0.66217 0.88847 0.35543 0.0
C477 C 0.67236 0.88851 0.31305 0.0
C478 C 0.69032 0.89916 0.32002 0.0
C479 C 0.69395 0.90419 0.34495 0.0
C480 C 0.65861 0.88332 0.33154 0.0
H481 H 0.68234 0.90264 0.3818 0.0
C482 C 0.6552 0.89336 0.42644 0.0
O483 O 0.65841 0.82105 0.44948 0.0
O484 O 0.68096 0.83196 0.42221 0.0
N485 N 0.62914 0.8664 0.34536 0.0
C486 C 0.61129 0.85549 0.34179 0.0
C487 C 0.6053 0.84945 0.31785 0.0
C488 C 0.61759 0.85493 0.29782 0.0
C489 C 0.6359 0.86611 0.30192 0.0
C490 C 0.64099 0.87195 0.32617 0.0
H491 H 0.60163 0.85158 0.35706 0.0
O492 O 0.64957 0.81108 0.3954 0.0
O493 O 0.65256 0.84967 0.38467 0.0
O494 O 0.62219 0.84265 0.42087 0.0
O495 O 0.61548 0.87228 0.39353 0.0
C496 C 0.64934 0.87157 0.28294 0.0
C497 C 0.66762 0.88261 0.28852 0.0
H498 H 0.70147 0.90345 0.30642 0.0
H499 H 0.70781 0.91233 0.35049 0.0
H500 H 0.59116 0.84078 0.31481 0.0
H501 H 0.61282 0.8505 0.27936 0.0
H502 H 0.64588 0.86708 0.26403 0.0
H503 H 0.67795 0.88642 0.27381 0.0
Mn504 Mn 0.35555 0.83821 0.08226 0.0
Mn505 Mn 0.36902 0.87887 0.1258 0.0
C506 C 0.35869 0.82575 0.1227 0.0
C507 C 0.33057 0.81995 0.05904 0.0
C508 C 0.39793 0.85608 0.08967 0.0
O509 O 0.35143 0.87104 0.0654 0.0
O510 O 0.35809 0.89637 0.09688 0.0
C511 C 0.32932 0.89737 0.13879 0.0
N512 N 0.34675 0.88707 0.14569 0.0
C513 C 0.33695 0.88668 0.1882 0.0
C514 C 0.31892 0.8974 0.18158 0.0
C515 C 0.31507 0.90268 0.15675 0.0
C516 C 0.35052 0.88168 0.16948 0.0
H517 H 0.32634 0.9015 0.11973 0.0
C518 C 0.35255 0.89236 0.07474 0.0
O519 O 0.34872 0.82041 0.0513 0.0
O520 O 0.32695 0.83053 0.07985 0.0
N521 N 0.3799 0.86495 0.15509 0.0
C522 C 0.39781 0.85411 0.15833 0.0
C523 C 0.40405 0.84793 0.18214 0.0
C524 C 0.39192 0.85317 0.20238 0.0
C525 C 0.37354 0.86428 0.19862 0.0
C526 C 0.36821 0.8703 0.1745 0.0
H527 H 0.40735 0.85039 0.14289 0.0
O528 O 0.35912 0.80986 0.10504 0.0
O529 O 0.35608 0.84834 0.11621 0.0
O530 O 0.38565 0.84198 0.07886 0.0
O531 O 0.39296 0.87095 0.10669 0.0
C532 C 0.36025 0.86953 0.21784 0.0
C533 C 0.34191 0.88057 0.21261 0.0
H534 H 0.3079 0.90155 0.19538 0.0
H535 H 0.30116 0.91088 0.15149 0.0
H536 H 0.41825 0.83931 0.18491 0.0
H537 H 0.39688 0.84863 0.22074 0.0
H538 H 0.36389 0.86489 0.23666 0.0
H539 H 0.33171 0.88422 0.22749 0.0
Mn540 Mn 0.65145 0.16282 0.58289 0.0
Mn541 Mn 0.63763 0.12264 0.62671 0.0
C542 C 0.64819 0.17567 0.62316 0.0
C543 C 0.67669 0.18073 0.55984 0.0
C544 C 0.60896 0.14529 0.59016 0.0
O545 O 0.6555 0.12983 0.56638 0.0
O546 O 0.64854 0.10478 0.598 0.0
C547 C 0.67719 0.10393 0.64009 0.0
N548 N 0.65981 0.11447 0.64679 0.0
C549 C 0.66958 0.11537 0.68932 0.0
C550 C 0.68755 0.10441 0.68289 0.0
C551 C 0.6914 0.09875 0.65816 0.0
C552 C 0.65604 0.12021 0.67049 0.0
H553 H 0.68017 0.09952 0.62109 0.0
C554 C 0.6542 0.10858 0.57587 0.0
O555 O 0.65861 0.18036 0.55187 0.0
O556 O 0.68009 0.17021 0.58075 0.0
N557 N 0.62676 0.13695 0.6558 0.0
C558 C 0.60892 0.14802 0.65883 0.0
C559 C 0.60273 0.15468 0.68253 0.0
C560 C 0.61483 0.14967 0.70287 0.0
C561 C 0.63312 0.13827 0.69932 0.0
C562 C 0.63841 0.13179 0.67531 0.0
H563 H 0.59942 0.15161 0.64332 0.0
O564 O 0.64789 0.19139 0.60534 0.0
O565 O 0.65073 0.153 0.61692 0.0
O566 O 0.62133 0.15921 0.57927 0.0
O567 O 0.61381 0.13058 0.60739 0.0
C568 C 0.64637 0.1332 0.71864 0.0
C569 C 0.66465 0.12191 0.71362 0.0
H570 H 0.69854 0.10038 0.69677 0.0
H571 H 0.70526 0.09037 0.65305 0.0
H572 H 0.58859 0.16351 0.68513 0.0
H573 H 0.60991 0.15461 0.72114 0.0
H574 H 0.64276 0.1382 0.73738 0.0
H575 H 0.67482 0.1184 0.72856 0.0
C576 C 0.0754 0.3612 0.0862 0.0
C577 C 0.08588 0.34536 0.07066 0.0
C578 C 0.05484 0.36158 0.08603 0.0
C579 C 0.01026 0.34466 0.0509 0.0
H580 H 0.986 0.34832 0.11536 0.0
C581 C 0.92506 0.33904 0.06894 0.0
C582 C 0.91768 0.35584 0.08623 0.0
C583 C 0.94546 0.3367 0.06512 0.0
C584 C 0.99251 0.34747 0.0972 0.0
H585 H 0.08296 0.31809 0.04205 0.0
H586 H 0.04672 0.31863 0.04187 0.0
H587 H 0.0217 0.34616 0.11194 0.0
H588 H 0.92614 0.38388 0.11245 0.0
H589 H 0.96133 0.37983 0.10571 0.0
H590 H 0.9808 0.34605 0.03629 0.0
C591 C 0.05455 0.33083 0.05411 0.0
C592 C 0.013 0.34626 0.09522 0.0
C593 C 0.07528 0.33049 0.05424 0.0
C594 C 0.93117 0.37061 0.0991 0.0
C595 C 0.95143 0.3682 0.09535 0.0
C596 C 0.98962 0.34583 0.05289 0.0
C597 C 0.04412 0.34604 0.07042 0.0
C598 C 0.02218 0.34538 0.07207 0.0
C599 C 0.95887 0.35099 0.07862 0.0
C600 C 0.98057 0.34776 0.07609 0.0
H601 H 0.08308 0.37312 0.09888 0.0
H602 H 0.0473 0.37396 0.09838 0.0
H603 H 0.01688 0.34402 0.0328 0.0
H604 H 0.91513 0.32739 0.05867 0.0
H605 H 0.95076 0.32324 0.05212 0.0
C606 C 0.93294 0.66062 0.59113 0.0
C607 C 0.92053 0.66276 0.57054 0.0
C608 C 0.95339 0.66152 0.5885 0.0
C609 C 0.99349 0.64627 0.54926 0.0
H610 H 0.02369 0.69263 0.58793 0.0
C611 C 0.0744 0.63243 0.58044 0.0
C612 C 0.08742 0.65226 0.57802 0.0
C613 C 0.05436 0.63506 0.57488 0.0
C614 C 0.01547 0.67977 0.57679 0.0
H615 H 0.9198 0.66727 0.53099 0.0
H616 H 0.95597 0.66788 0.52628 0.0
H617 H 0.98762 0.69529 0.58711 0.0
H618 H 0.08965 0.69033 0.56752 0.0
H619 H 0.05442 0.69508 0.5585 0.0
H620 H 0.02132 0.62988 0.54009 0.0
C621 C 0.94964 0.66593 0.54445 0.0
C622 C 0.99488 0.68126 0.57639 0.0
C623 C 0.92903 0.66562 0.54715 0.0
C624 C 0.08001 0.67468 0.56946 0.0
C625 C 0.05987 0.67744 0.56438 0.0
C626 C 0.01411 0.64447 0.55006 0.0
C627 C 0.96195 0.66407 0.56518 0.0
C628 C 0.98371 0.66432 0.56292 0.0
C629 C 0.04684 0.6577 0.56724 0.0
C630 C 0.02526 0.66102 0.56411 0.0
H631 H 0.92683 0.65853 0.60941 0.0
H632 H 0.96259 0.65987 0.60472 0.0
H633 H 0.98515 0.63291 0.5389 0.0
H634 H 0.07965 0.6149 0.5869 0.0
H635 H 0.0446 0.61962 0.57747 0.0
C636 C 0.92689 0.66505 0.93413 0.0
C637 C 0.91984 0.64775 0.91714 0.0
C638 C 0.94706 0.66632 0.93984 0.0
C639 C 0.99342 0.6303 0.93623 0.0
H640 H 0.01957 0.69323 0.93658 0.0
C641 C 0.07608 0.64078 0.91734 0.0
C642 C 0.08714 0.65773 0.93095 0.0
C643 C 0.05564 0.63936 0.92004 0.0
C644 C 0.01244 0.67554 0.93697 0.0
H645 H 0.92865 0.6181 0.89301 0.0
H646 H 0.96347 0.62044 0.9028 0.0
H647 H 0.9836 0.69123 0.93324 0.0
H648 H 0.08543 0.68636 0.95833 0.0
H649 H 0.04942 0.68403 0.96292 0.0
H650 H 0.02223 0.61458 0.93917 0.0
C651 C 0.95346 0.63284 0.91201 0.0
C652 C 0.99183 0.67439 0.93506 0.0
C653 C 0.93342 0.63162 0.90625 0.0
C654 C 0.0773 0.67307 0.94764 0.0
C655 C 0.05671 0.67183 0.95016 0.0
C656 C 0.01396 0.63145 0.93807 0.0
C657 C 0.96058 0.6502 0.92881 0.0
C658 C 0.98213 0.65171 0.934 0.0
C659 C 0.04567 0.65498 0.93631 0.0
C660 C 0.02375 0.65405 0.93781 0.0
H661 H 0.91688 0.67778 0.94287 0.0
H662 H 0.95205 0.67983 0.95296 0.0
H663 H 0.9864 0.61255 0.93605 0.0
H664 H 0.08319 0.62868 0.90432 0.0
H665 H 0.04758 0.62642 0.90883 0.0
C666 C 0.08107 0.34001 0.43087 0.0
C667 C 0.08824 0.35688 0.4135 0.0
C668 C 0.0607 0.3374 0.43482 0.0
C669 C 0.01355 0.34728 0.40272 0.0
H670 H 0.98909 0.34383 0.46707 0.0
C671 C 0.93068 0.36082 0.41347 0.0
C672 C 0.92014 0.34496 0.42894 0.0
C673 C 0.95124 0.36117 0.41371 0.0
C674 C 0.99575 0.34446 0.44898 0.0
H675 H 0.07942 0.38481 0.38733 0.0
H676 H 0.0443 0.38027 0.39426 0.0
H677 H 0.02517 0.34628 0.46366 0.0
H678 H 0.92297 0.31763 0.45752 0.0
H679 H 0.95923 0.31814 0.45784 0.0
H680 H 0.9844 0.34558 0.38791 0.0
C681 C 0.05435 0.3688 0.40459 0.0
C682 C 0.01638 0.34587 0.44704 0.0
C683 C 0.07457 0.37148 0.40073 0.0
C684 C 0.93069 0.33003 0.44537 0.0
C685 C 0.95143 0.33036 0.44558 0.0
C686 C 0.99307 0.34583 0.40464 0.0
C687 C 0.04712 0.35146 0.42134 0.0
C688 C 0.02545 0.34785 0.42386 0.0
C689 C 0.96191 0.34559 0.42934 0.0
C690 C 0.98385 0.34498 0.42777 0.0
H691 H 0.09115 0.32849 0.44108 0.0
H692 H 0.05557 0.32386 0.44784 0.0
H693 H 0.02009 0.34814 0.38457 0.0
H694 H 0.92305 0.37278 0.40078 0.0
H695 H 0.95882 0.37357 0.40141 0.0
C696 C 0.42647 0.83726 0.06642 0.0
C697 C 0.41927 0.85449 0.08341 0.0
C698 C 0.44685 0.83477 0.06239 0.0
C699 C 0.49381 0.84553 0.09433 0.0
H700 H 0.51871 0.84161 0.03026 0.0
C701 C 0.57636 0.86076 0.08449 0.0
C702 C 0.58734 0.84468 0.06977 0.0
C703 C 0.55581 0.86073 0.0837 0.0
C704 C 0.51193 0.84237 0.04827 0.0
H705 H 0.42801 0.88329 0.10863 0.0
H706 H 0.46312 0.87894 0.10156 0.0
H707 H 0.48256 0.84363 0.0333 0.0
H708 H 0.58535 0.81662 0.04182 0.0
H709 H 0.54906 0.81645 0.04054 0.0
H710 H 0.52287 0.84442 0.10943 0.0
C711 C 0.4531 0.86709 0.09163 0.0
C712 C 0.49126 0.84353 0.05 0.0
C713 C 0.43288 0.86966 0.09557 0.0
C714 C 0.57726 0.8292 0.0534 0.0
C715 C 0.55653 0.82913 0.05265 0.0
C716 C 0.51431 0.84432 0.09262 0.0
C717 C 0.46037 0.84934 0.07539 0.0
C718 C 0.48205 0.84574 0.07307 0.0
C719 C 0.5456 0.84451 0.06828 0.0
C720 C 0.52367 0.84336 0.06959 0.0
H721 H 0.41644 0.8253 0.05668 0.0
H722 H 0.45204 0.82092 0.04975 0.0
H723 H 0.48715 0.84657 0.1124 0.0
H724 H 0.58362 0.87318 0.09706 0.0
H725 H 0.54788 0.87327 0.0955 0.0
C726 C 0.58044 0.1644 0.56707 0.0
C727 C 0.58765 0.14685 0.58372 0.0
C728 C 0.56007 0.16685 0.56295 0.0
C729 C 0.51303 0.15496 0.59438 0.0
H730 H 0.48832 0.16092 0.53034 0.0
C731 C 0.43032 0.14111 0.58389 0.0
C732 C 0.41957 0.15782 0.56961 0.0
C733 C 0.45087 0.14072 0.5831 0.0
C734 C 0.49505 0.15956 0.54835 0.0
H735 H 0.57894 0.11739 0.6082 0.0
H736 H 0.54385 0.12165 0.60097 0.0
H737 H 0.52447 0.15876 0.5335 0.0
H738 H 0.42196 0.18655 0.5424 0.0
H739 H 0.45822 0.18599 0.54113 0.0
H740 H 0.48393 0.15565 0.60936 0.0
C741 C 0.55384 0.1338 0.59139 0.0
C742 C 0.51571 0.15833 0.55015 0.0
C743 C 0.57405 0.13131 0.59543 0.0
C744 C 0.42986 0.17348 0.55363 0.0
C745 C 0.45059 0.17313 0.55289 0.0
C746 C 0.49254 0.15623 0.5926 0.0
C747 C 0.54655 0.15189 0.57553 0.0
C748 C 0.52486 0.15543 0.57319 0.0
C749 C 0.46131 0.15714 0.56812 0.0
C750 C 0.48324 0.15795 0.56956 0.0
H751 H 0.59046 0.17666 0.55769 0.0
H752 H 0.55487 0.18096 0.55061 0.0
H753 H 0.51964 0.15338 0.61245 0.0
H754 H 0.42287 0.12856 0.59616 0.0
H755 H 0.45863 0.12773 0.59459 0.0
C756 C 0.578 0.16544 0.95463 0.0
C757 C 0.58636 0.16272 0.93114 0.0
C758 C 0.55741 0.16552 0.95755 0.0
C759 C 0.5118 0.18033 0.92614 0.0
H760 H 0.48608 0.12836 0.96242 0.0
C761 C 0.42679 0.17216 0.93291 0.0
C762 C 0.41973 0.14966 0.92413 0.0
C763 C 0.44686 0.17526 0.93824 0.0
C764 C 0.49309 0.14313 0.95247 0.0
H765 H 0.57983 0.15851 0.89233 0.0
H766 H 0.54409 0.15946 0.89741 0.0
H767 H 0.52222 0.13198 0.96335 0.0
H768 H 0.42801 0.11248 0.91521 0.0
H769 H 0.46292 0.11779 0.9251 0.0
H770 H 0.48282 0.19127 0.91484 0.0
C771 C 0.55338 0.16118 0.91353 0.0
C772 C 0.51369 0.14526 0.95312 0.0
C773 C 0.57383 0.1605 0.91068 0.0
C774 C 0.433 0.13006 0.92185 0.0
C775 C 0.45296 0.13304 0.92766 0.0
C776 C 0.49123 0.17852 0.92589 0.0
C777 C 0.54497 0.16357 0.93695 0.0
C778 C 0.52322 0.16351 0.93945 0.0
C779 C 0.46016 0.15579 0.93542 0.0
C780 C 0.4817 0.15954 0.93855 0.0
H781 H 0.58734 0.16714 0.9707 0.0
H782 H 0.55119 0.16735 0.9758 0.0
H783 H 0.51886 0.19452 0.91541 0.0
H784 H 0.41696 0.18763 0.93474 0.0
H785 H 0.45205 0.19299 0.94421 0.0
C786 C 0.43076 0.83249 0.4471 0.0
C787 C 0.4206 0.84805 0.43089 0.0
C788 C 0.4515 0.83251 0.44777 0.0
C789 C 0.49342 0.84789 0.40748 0.0
H790 H 0.52565 0.84589 0.46636 0.0
C791 C 0.57535 0.87105 0.40373 0.0
C792 C 0.58876 0.8557 0.41602 0.0
C793 C 0.5551 0.86892 0.40769 0.0
C794 C 0.51681 0.84617 0.44977 0.0
H795 H 0.42414 0.87686 0.4039 0.0
H796 H 0.4599 0.87714 0.40534 0.0
H797 H 0.48951 0.84451 0.46985 0.0
H798 H 0.59119 0.82655 0.44287 0.0
H799 H 0.55556 0.82289 0.44978 0.0
H800 H 0.52043 0.84978 0.38735 0.0
C801 C 0.45204 0.86446 0.41706 0.0
C802 C 0.49615 0.84538 0.45177 0.0
C803 C 0.43149 0.86439 0.41635 0.0
C804 C 0.58132 0.83863 0.43303 0.0
C805 C 0.56092 0.83657 0.43706 0.0
C806 C 0.51391 0.84871 0.4055 0.0
C807 C 0.46234 0.84808 0.43222 0.0
C808 C 0.48424 0.8468 0.43062 0.0
C809 C 0.54759 0.85141 0.42405 0.0
C810 C 0.52586 0.84841 0.4266 0.0
H811 H 0.42275 0.8197 0.45853 0.0
H812 H 0.45903 0.8197 0.45968 0.0
H813 H 0.48472 0.84832 0.39078 0.0
H814 H 0.58042 0.88455 0.39064 0.0
H815 H 0.54525 0.88096 0.39773 0.0
C816 C 0.16019 0.29857 0.15257 0.0
C817 C 0.15313 0.32105 0.14392 0.0
C818 C 0.16085 0.29389 0.17787 0.0
C819 C 0.13616 0.30807 0.23461 0.0
H820 H 0.18586 0.29947 0.26886 0.0
C821 C 0.16795 0.32835 0.33602 0.0
C822 C 0.15173 0.32083 0.35008 0.0
C823 C 0.16934 0.32183 0.31128 0.0
C824 C 0.17185 0.30167 0.25955 0.0
H825 H 0.13998 0.35554 0.15425 0.0
H826 H 0.14069 0.34716 0.19842 0.0
H827 H 0.1854 0.30134 0.22385 0.0
H828 H 0.12552 0.29836 0.35063 0.0
H829 H 0.12778 0.28691 0.30718 0.0
H830 H 0.12248 0.30861 0.26987 0.0
C831 C 0.14621 0.33347 0.18579 0.0
C832 C 0.17161 0.3026 0.23384 0.0
C833 C 0.14595 0.33833 0.16066 0.0
C834 C 0.13783 0.30493 0.33978 0.0
C835 C 0.13915 0.29844 0.31497 0.0
C836 C 0.13633 0.30664 0.26019 0.0
C837 C 0.15372 0.31128 0.1946 0.0
C838 C 0.15382 0.30658 0.22129 0.0
C839 C 0.1546 0.30746 0.30022 0.0
C840 C 0.15425 0.30436 0.27306 0.0
H841 H 0.16541 0.28485 0.1398 0.0
H842 H 0.16661 0.27661 0.18434 0.0
H843 H 0.12226 0.311 0.22521 0.0
H844 H 0.17921 0.33996 0.34397 0.0
H845 H 0.18139 0.32926 0.30055 0.0
C846 C 0.8482 0.70706 0.65487 0.0
C847 C 0.85592 0.68478 0.64659 0.0
C848 C 0.84823 0.71255 0.68002 0.0
C849 C 0.87412 0.69955 0.73709 0.0
H850 H 0.82423 0.7084 0.77081 0.0
C851 C 0.84127 0.67805 0.83761 0.0
C852 C 0.85735 0.68522 0.85207 0.0
C853 C 0.84019 0.68497 0.81296 0.0
C854 C 0.8383 0.70614 0.76166 0.0
H855 H 0.87107 0.65167 0.65727 0.0
H856 H 0.8715 0.66142 0.70109 0.0
H857 H 0.825 0.70685 0.72586 0.0
H858 H 0.88367 0.70748 0.85347 0.0
H859 H 0.88198 0.71963 0.81017 0.0
H860 H 0.88751 0.69845 0.77253 0.0
C861 C 0.86503 0.67437 0.68838 0.0
C862 C 0.83872 0.70543 0.73596 0.0
C863 C 0.86461 0.6687 0.66343 0.0
C864 C 0.87147 0.70117 0.84228 0.0
C865 C 0.87047 0.70806 0.81757 0.0
C866 C 0.87376 0.70072 0.76269 0.0
C867 C 0.85669 0.69621 0.69692 0.0
C868 C 0.85656 0.70126 0.72357 0.0
C869 C 0.85513 0.69943 0.80241 0.0
C870 C 0.85576 0.70303 0.77534 0.0
H871 H 0.84178 0.71987 0.64199 0.0
H872 H 0.84179 0.72953 0.68626 0.0
H873 H 0.88807 0.69652 0.72786 0.0
H874 H 0.82985 0.66643 0.84518 0.0
H875 H 0.82824 0.67783 0.80189 0.0
C876 C 0.1592 0.70488 0.84455 0.0
C877 C 0.15199 0.68249 0.85323 0.0
C878 C 0.15945 0.70974 0.81927 0.0
C879 C 0.13409 0.69577 0.76258 0.0
H880 H 0.1837 0.7049 0.72829 0.0
C881 C 0.16581 0.67661 0.6609 0.0
C882 C 0.14992 0.68494 0.64673 0.0
C883 C 0.16706 0.6825 0.68581 0.0
C884 C 0.16971 0.70256 0.73762 0.0
H885 H 0.13808 0.64842 0.84303 0.0
H886 H 0.13807 0.65712 0.79892 0.0
H887 H 0.1833 0.7029 0.77329 0.0
H888 H 0.12403 0.70799 0.64633 0.0
H889 H 0.12597 0.71823 0.69016 0.0
H890 H 0.1204 0.69531 0.72728 0.0
C891 C 0.144 0.6706 0.81147 0.0
C892 C 0.16951 0.70156 0.76332 0.0
C893 C 0.14416 0.66555 0.83658 0.0
C894 C 0.13611 0.70085 0.65723 0.0
C895 C 0.13725 0.70666 0.68223 0.0
C896 C 0.13423 0.69731 0.73699 0.0
C897 C 0.15175 0.69264 0.8026 0.0
C898 C 0.15176 0.69738 0.7759 0.0
C899 C 0.15247 0.69701 0.69696 0.0
C900 C 0.15211 0.69982 0.72414 0.0
H901 H 0.16492 0.71834 0.85726 0.0
H902 H 0.16541 0.7269 0.81276 0.0
H903 H 0.12021 0.69271 0.77197 0.0
H904 H 0.17697 0.66491 0.65286 0.0
H905 H 0.17889 0.67459 0.69656 0.0
C906 C 0.86744 0.30464 0.15963 0.0
C907 C 0.85355 0.32039 0.14906 0.0
C908 C 0.86608 0.2985 0.18452 0.0
C909 C 0.83336 0.30261 0.23988 0.0
H910 H 0.88304 0.31185 0.27405 0.0
C911 C 0.85988 0.33916 0.33874 0.0
C912 C 0.85253 0.32198 0.35547 0.0
C913 C 0.85948 0.33439 0.31359 0.0
C914 C 0.86911 0.30898 0.26471 0.0
H915 H 0.82603 0.33953 0.15479 0.0
H916 H 0.8238 0.32947 0.19838 0.0
H917 H 0.88275 0.30914 0.22942 0.0
H918 H 0.83981 0.286 0.35956 0.0
H919 H 0.83837 0.27791 0.31501 0.0
H920 H 0.81986 0.30267 0.27562 0.0
C921 C 0.83586 0.32191 0.18779 0.0
C922 C 0.8689 0.30735 0.23914 0.0
C923 C 0.83729 0.32806 0.16295 0.0
C924 C 0.84516 0.29966 0.3468 0.0
C925 C 0.84435 0.29507 0.32149 0.0
C926 C 0.83364 0.30376 0.26558 0.0
C927 C 0.85061 0.30774 0.19911 0.0
C928 C 0.85096 0.30503 0.22632 0.0
C929 C 0.85166 0.31237 0.30476 0.0
C930 C 0.85146 0.30769 0.27807 0.0
H931 H 0.87977 0.29793 0.14891 0.0
H932 H 0.87744 0.28707 0.19249 0.0
H933 H 0.81933 0.3004 0.23062 0.0
H934 H 0.86609 0.35623 0.34516 0.0
H935 H 0.86514 0.34799 0.30097 0.0
C936 C 0.66809 0.8266 0.33805 0.0
C937 C 0.65189 0.81923 0.3522 0.0
C938 C 0.66922 0.82035 0.31321 0.0
C939 C 0.63567 0.80618 0.26231 0.0
H940 H 0.68445 0.80051 0.22546 0.0
C941 C 0.66024 0.79912 0.1545 0.0
C942 C 0.65273 0.82141 0.14595 0.0
C943 C 0.66059 0.79413 0.17975 0.0
C944 C 0.67073 0.80186 0.23558 0.0
H945 H 0.62542 0.79724 0.3528 0.0
H946 H 0.62722 0.78623 0.3092 0.0
H947 H 0.68519 0.79826 0.27041 0.0
H948 H 0.63835 0.85512 0.15633 0.0
H949 H 0.63854 0.84622 0.20039 0.0
H950 H 0.62139 0.81092 0.22751 0.0
C951 C 0.63878 0.79748 0.31698 0.0
C952 C 0.67113 0.80073 0.26127 0.0
C953 C 0.63772 0.8037 0.34188 0.0
C954 C 0.64467 0.83808 0.16269 0.0
C955 C 0.64462 0.83291 0.18777 0.0
C956 C 0.63534 0.80779 0.23673 0.0
C957 C 0.65422 0.80639 0.30216 0.0
C958 C 0.65365 0.80355 0.27497 0.0
C959 C 0.6527 0.81099 0.19652 0.0
C960 C 0.6529 0.80617 0.22321 0.0
H961 H 0.67955 0.83791 0.346 0.0
H962 H 0.68128 0.82768 0.30243 0.0
H963 H 0.62191 0.80825 0.27214 0.0
H964 H 0.66614 0.78584 0.14172 0.0
H965 H 0.66679 0.77706 0.18616 0.0
C966 C 0.34278 0.17424 0.83899 0.0
C967 C 0.35861 0.18249 0.85334 0.0
C968 C 0.34159 0.1804 0.81415 0.0
C969 C 0.37424 0.19557 0.7631 0.0
H970 H 0.32509 0.20297 0.72728 0.0
C971 C 0.3485 0.20505 0.65586 0.0
C972 C 0.35544 0.18267 0.64683 0.0
C973 C 0.34856 0.20964 0.68119 0.0
C974 C 0.33891 0.20112 0.73711 0.0
H975 H 0.3845 0.20551 0.85407 0.0
H976 H 0.3827 0.21615 0.81029 0.0
H977 H 0.32495 0.20423 0.77231 0.0
H978 H 0.36917 0.14832 0.65645 0.0
H979 H 0.3697 0.15653 0.70064 0.0
H980 H 0.38801 0.19114 0.72794 0.0
C981 C 0.3714 0.20452 0.81808 0.0
C982 C 0.33885 0.20172 0.76282 0.0
C983 C 0.37246 0.19848 0.84305 0.0
C984 C 0.3633 0.16546 0.66318 0.0
C985 C 0.36376 0.17023 0.68833 0.0
C986 C 0.37423 0.19442 0.73748 0.0
C987 C 0.35618 0.19508 0.80323 0.0
C988 C 0.35647 0.19833 0.77612 0.0
C989 C 0.35629 0.19227 0.69756 0.0
C990 C 0.35652 0.19667 0.72432 0.0
H991 H 0.33162 0.16243 0.84686 0.0
H992 H 0.32978 0.17263 0.80327 0.0
H993 H 0.38807 0.19304 0.77269 0.0
H994 H 0.34275 0.21872 0.64338 0.0
H995 H 0.3428 0.2268 0.68797 0.0
C996 C 0.6582 0.20688 0.84588 0.0
C997 C 0.65057 0.18464 0.85436 0.0
C998 C 0.65809 0.21219 0.82068 0.0
C999 C 0.63225 0.19845 0.76366 0.0
H1000 H 0.68211 0.20787 0.73002 0.0
C1001 C 0.66551 0.17707 0.66331 0.0
C1002 C 0.64946 0.18409 0.64871 0.0
C1003 C 0.66644 0.18401 0.68796 0.0
C1004 C 0.66804 0.20545 0.73915 0.0
H1005 H 0.63547 0.1514 0.84399 0.0
H1006 H 0.63491 0.16082 0.8001 0.0
H1007 H 0.68127 0.20659 0.77497 0.0
H1008 H 0.62299 0.20606 0.64711 0.0
H1009 H 0.6244 0.21822 0.69043 0.0
H1010 H 0.61893 0.19696 0.72818 0.0
C1011 C 0.64137 0.17389 0.81269 0.0
C1012 C 0.66758 0.20489 0.76485 0.0
C1013 C 0.64186 0.16841 0.83767 0.0
C1014 C 0.63519 0.19987 0.65839 0.0
C1015 C 0.63602 0.20677 0.68312 0.0
C1016 C 0.63264 0.19949 0.73805 0.0
C1017 C 0.64964 0.1957 0.80393 0.0
C1018 C 0.64977 0.20053 0.77723 0.0
C1019 C 0.65137 0.19832 0.69838 0.0
C1020 C 0.65064 0.20201 0.72544 0.0
H1021 H 0.66462 0.21981 0.85863 0.0
H1022 H 0.66448 0.22916 0.81429 0.0
H1023 H 0.61831 0.19528 0.77287 0.0
H1024 H 0.67705 0.16556 0.65583 0.0
H1025 H 0.6784 0.177 0.69911 0.0
C1026 C 0.3718 0.8021 0.15829 0.0
C1027 C 0.35743 0.8176 0.14835 0.0
C1028 C 0.37103 0.79561 0.18314 0.0
C1029 C 0.3391 0.79774 0.23924 0.0
H1030 H 0.38883 0.80921 0.27259 0.0
C1031 C 0.36495 0.83717 0.33693 0.0
C1032 C 0.35696 0.82077 0.35399 0.0
C1033 C 0.36529 0.83136 0.312 0.0
C1034 C 0.3749 0.80568 0.26348 0.0
H1035 H 0.32974 0.83599 0.15517 0.0
H1036 H 0.32848 0.82523 0.19863 0.0
H1037 H 0.38814 0.80639 0.22795 0.0
H1038 H 0.34404 0.78503 0.35901 0.0
H1039 H 0.34388 0.7751 0.31481 0.0
H1040 H 0.32596 0.79724 0.27512 0.0
C1041 C 0.34047 0.81814 0.18759 0.0
C1042 C 0.37446 0.80401 0.23791 0.0
C1043 C 0.34134 0.82469 0.16283 0.0
C1044 C 0.34988 0.79808 0.34596 0.0
C1045 C 0.34982 0.79244 0.32085 0.0
C1046 C 0.33961 0.79889 0.26491 0.0
C1047 C 0.35565 0.80417 0.19827 0.0
C1048 C 0.35646 0.80104 0.2254 0.0
C1049 C 0.35758 0.80905 0.30373 0.0
C1050 C 0.35742 0.80373 0.27713 0.0
H1051 H 0.38404 0.79588 0.14712 0.0
H1052 H 0.38274 0.78441 0.19065 0.0
H1053 H 0.32504 0.79498 0.2302 0.0
H1054 H 0.37092 0.85452 0.3429 0.0
H1055 H 0.37124 0.8445 0.2991 0.0
C1056 C 0.29576 0.19811 0.9407 0.0
C1057 C 0.31294 0.19204 0.95385 0.0
C1058 C 0.28058 0.21128 0.95195 0.0
C1059 C 0.25766 0.2259 0.01055 0.0
H1060 H 0.24173 0.28668 0.97978 0.0
C1061 C 0.191 0.28503 0.04289 0.0
C1062 C 0.19635 0.30908 0.04892 0.0
C1063 C 0.20426 0.26982 0.03041 0.0
C1064 C 0.24597 0.26967 0.98845 0.0
H1065 H 0.32742 0.19434 0.9893 0.0
H1066 H 0.30051 0.21679 0.00922 0.0
H1067 H 0.26679 0.26104 0.96008 0.0
H1068 H 0.21946 0.33628 0.04594 0.0
H1069 H 0.24227 0.30998 0.02337 0.0
H1070 H 0.23668 0.23449 0.03883 0.0
C1071 C 0.29897 0.21154 0.99012 0.0
C1072 C 0.26022 0.25501 0.97719 0.0
C1073 C 0.31437 0.19879 0.97871 0.0
C1074 C 0.21494 0.31783 0.04156 0.0
C1075 C 0.22797 0.30283 0.02861 0.0
C1076 C 0.24307 0.24032 0.02155 0.0
C1077 C 0.28207 0.2182 0.97672 0.0
C1078 C 0.26636 0.23313 0.98826 0.0
C1079 C 0.22288 0.2786 0.02323 0.0
C1080 C 0.23727 0.26247 0.01073 0.0
H1081 H 0.29425 0.19324 0.92149 0.0
H1082 H 0.26766 0.21612 0.94127 0.0
H1083 H 0.26211 0.20906 0.01938 0.0
H1084 H 0.17684 0.27775 0.04851 0.0
H1085 H 0.20001 0.25119 0.02638 0.0
C1086 C 0.8138 0.70603 0.53702 0.0
C1087 C 0.80758 0.69022 0.55588 0.0
C1088 C 0.80016 0.72079 0.5246 0.0
C1089 C 0.75066 0.74821 0.53191 0.0
H1090 H 0.75245 0.75574 0.46112 0.0
C1091 C 0.68727 0.79354 0.47725 0.0
C1092 C 0.69224 0.80797 0.45683 0.0
C1093 C 0.70176 0.78009 0.48961 0.0
C1094 C 0.75189 0.75414 0.48094 0.0
H1095 H 0.7819 0.67739 0.57605 0.0
H1096 H 0.75833 0.70291 0.55441 0.0
H1097 H 0.77708 0.73049 0.48169 0.0
H1098 H 0.71643 0.8201 0.43375 0.0
H1099 H 0.74172 0.79708 0.45555 0.0
H1100 H 0.72555 0.77188 0.53127 0.0
C1101 C 0.77378 0.70413 0.54941 0.0
C1102 C 0.76601 0.73962 0.49272 0.0
C1103 C 0.78734 0.68933 0.56171 0.0
C1104 C 0.71208 0.80906 0.44936 0.0
C1105 C 0.72658 0.7957 0.46175 0.0
C1106 C 0.7366 0.7628 0.52017 0.0
C1107 C 0.78001 0.72019 0.53086 0.0
C1108 C 0.76547 0.73632 0.51832 0.0
C1109 C 0.72159 0.78083 0.48189 0.0
C1110 C 0.73693 0.76584 0.4945 0.0
H1111 H 0.82924 0.70725 0.53204 0.0
H1112 H 0.80545 0.73308 0.51047 0.0
H1113 H 0.75002 0.74639 0.55172 0.0
H1114 H 0.6721 0.79222 0.4834 0.0
H1115 H 0.69732 0.76863 0.50484 0.0
C1116 C 0.31698 0.80087 0.02058 0.0
C1117 C 0.31479 0.80697 0.04552 0.0
C1118 C 0.30212 0.78795 0.00826 0.0
C1119 C 0.26369 0.74329 0.01841 0.0
H1120 H 0.23996 0.76636 0.95778 0.0
C1121 C 0.21712 0.68334 0.95255 0.0
C1122 C 0.19842 0.69257 0.94626 0.0
C1123 C 0.23062 0.69773 0.96546 0.0
C1124 C 0.24644 0.75979 0.97474 0.0
H1125 H 0.29537 0.80428 0.07711 0.0
H1126 H 0.26978 0.78111 0.05576 0.0
H1127 H 0.26542 0.791 0.97825 0.0
H1128 H 0.17926 0.72416 0.94843 0.0
H1129 H 0.20325 0.74966 0.97046 0.0
H1130 H 0.24517 0.71177 0.01457 0.0
C1131 C 0.28285 0.7866 0.04571 0.0
C1132 C 0.26105 0.77376 0.98632 0.0
C1133 C 0.29747 0.79994 0.05786 0.0
C1134 C 0.1935 0.71651 0.9532 0.0
C1135 C 0.20723 0.73113 0.96563 0.0
C1136 C 0.24943 0.72909 0.00656 0.0
C1137 C 0.28504 0.78044 0.02083 0.0
C1138 C 0.26974 0.76566 0.0083 0.0
C1139 C 0.2259 0.72184 0.97185 0.0
C1140 C 0.24063 0.73724 0.98468 0.0
H1141 H 0.33016 0.80609 0.01061 0.0
H1142 H 0.30416 0.78331 0.98907 0.0
H1143 H 0.27023 0.73662 0.03529 0.0
H1144 H 0.22132 0.66495 0.94748 0.0
H1145 H 0.24496 0.6902 0.96997 0.0
C1146 C 0.71005 0.20009 0.55911 0.0
C1147 C 0.69266 0.19364 0.54659 0.0
C1148 C 0.72481 0.21347 0.54732 0.0
C1149 C 0.74658 0.22799 0.48817 0.0
H1150 H 0.76326 0.28853 0.51879 0.0
C1151 C 0.81403 0.28587 0.4559 0.0
C1152 C 0.80913 0.31014 0.45017 0.0
C1153 C 0.80047 0.27087 0.46814 0.0
C1154 C 0.75879 0.27161 0.51012 0.0
H1155 H 0.67734 0.1956 0.51167 0.0
H1156 H 0.70357 0.21852 0.49075 0.0
H1157 H 0.7381 0.26324 0.53871 0.0
H1158 H 0.78651 0.33793 0.45342 0.0
H1159 H 0.76318 0.31199 0.47557 0.0
H1160 H 0.76752 0.23627 0.45972 0.0
C1161 C 0.70557 0.21335 0.50981 0.0
C1162 C 0.74447 0.25715 0.52151 0.0
C1163 C 0.69056 0.20034 0.52178 0.0
C1164 C 0.79069 0.3193 0.45757 0.0
C1165 C 0.77736 0.3045 0.47027 0.0
C1166 C 0.76124 0.24221 0.47703 0.0
C1167 C 0.7227 0.2203 0.5226 0.0
C1168 C 0.73811 0.23531 0.51055 0.0
C1169 C 0.782 0.28007 0.47537 0.0
C1170 C 0.76734 0.26425 0.48782 0.0
H1171 H 0.71209 0.19526 0.57826 0.0
H1172 H 0.73793 0.2185 0.55753 0.0
H1173 H 0.74198 0.21117 0.47943 0.0
H1174 H 0.82807 0.27828 0.45023 0.0
H1175 H 0.80438 0.25209 0.47197 0.0
C1176 C 0.69344 0.79564 0.03573 0.0
C1177 C 0.69976 0.81161 0.05439 0.0
C1178 C 0.70709 0.78115 0.02298 0.0
C1179 C 0.76084 0.77634 0.00956 0.0
H1180 H 0.74847 0.70921 0.99329 0.0
C1181 C 0.82055 0.70917 0.97621 0.0
C1182 C 0.81575 0.69464 0.95579 0.0
C1183 C 0.80596 0.72273 0.98824 0.0
C1184 C 0.75208 0.72799 0.99754 0.0
H1185 H 0.72554 0.82451 0.07432 0.0
H1186 H 0.74899 0.79919 0.05259 0.0
H1187 H 0.72366 0.7346 0.01349 0.0
H1188 H 0.79176 0.6824 0.93243 0.0
H1189 H 0.76632 0.70597 0.95351 0.0
H1190 H 0.7893 0.76968 0.9939 0.0
C1191 C 0.73359 0.79817 0.04734 0.0
C1192 C 0.73783 0.74258 0.00904 0.0
C1193 C 0.72004 0.81265 0.05995 0.0
C1194 C 0.79595 0.69343 0.9481 0.0
C1195 C 0.78134 0.70685 0.96024 0.0
C1196 C 0.77507 0.76174 0.99823 0.0
C1197 C 0.72736 0.78226 0.02863 0.0
C1198 C 0.74209 0.76691 0.01537 0.0
C1199 C 0.78622 0.72194 0.98023 0.0
C1200 C 0.77093 0.73736 0.99222 0.0
H1201 H 0.67796 0.79434 0.03093 0.0
H1202 H 0.70179 0.76927 0.00852 0.0
H1203 H 0.76452 0.79513 0.01365 0.0
H1204 H 0.83565 0.71048 0.98261 0.0
H1205 H 0.81015 0.73392 0.00379 0.0
C1206 C 0.31351 0.21769 0.54677 0.0
C1207 C 0.30829 0.19403 0.55424 0.0
C1208 C 0.29975 0.23266 0.53482 0.0
C1209 C 0.2454 0.23811 0.52326 0.0
H1210 H 0.26221 0.28576 0.47505 0.0
C1211 C 0.18946 0.30458 0.47905 0.0
C1212 C 0.19234 0.311 0.45433 0.0
C1213 C 0.20404 0.29177 0.49196 0.0
C1214 C 0.25715 0.27237 0.48825 0.0
H1215 H 0.28485 0.16714 0.55414 0.0
H1216 H 0.2613 0.19255 0.53229 0.0
H1217 H 0.28656 0.25977 0.49461 0.0
H1218 H 0.21271 0.30894 0.4237 0.0
H1219 H 0.23765 0.28576 0.44566 0.0
H1220 H 0.2159 0.24964 0.51587 0.0
C1221 C 0.27566 0.20013 0.53649 0.0
C1222 C 0.27124 0.25766 0.49984 0.0
C1223 C 0.28926 0.18539 0.54884 0.0
C1224 C 0.21012 0.30445 0.44282 0.0
C1225 C 0.22452 0.29126 0.45554 0.0
C1226 C 0.23128 0.2525 0.51137 0.0
C1227 C 0.28055 0.22416 0.52966 0.0
C1228 C 0.26559 0.24021 0.51747 0.0
C1229 C 0.22172 0.28464 0.48031 0.0
C1230 C 0.23691 0.26982 0.4936 0.0
H1231 H 0.32801 0.22494 0.55089 0.0
H1232 H 0.30408 0.25112 0.53022 0.0
H1233 H 0.24038 0.22534 0.53709 0.0
H1234 H 0.17595 0.30954 0.48845 0.0
H1235 H 0.20142 0.28754 0.51111 0.0
C1236 C 0.81965 0.29413 0.02379 0.0
C1237 C 0.81443 0.30879 0.04395 0.0
C1238 C 0.80535 0.28029 0.01153 0.0
C1239 C 0.75151 0.27438 0.00142 0.0
H1240 H 0.76459 0.20747 0.98511 0.0
C1241 C 0.6932 0.20628 0.96392 0.0
C1242 C 0.69934 0.19057 0.94496 0.0
C1243 C 0.70694 0.2207 0.97659 0.0
C1244 C 0.76073 0.22619 0.98927 0.0
H1245 H 0.79001 0.32086 0.06667 0.0
H1246 H 0.7651 0.29677 0.04528 0.0
H1247 H 0.78913 0.23324 0.00498 0.0
H1248 H 0.72493 0.17784 0.92456 0.0
H1249 H 0.74859 0.20303 0.94626 0.0
H1250 H 0.72315 0.26739 0.98552 0.0
C1251 C 0.78022 0.29603 0.03886 0.0
C1252 C 0.77484 0.24098 0.00066 0.0
C1253 C 0.79453 0.30977 0.05119 0.0
C1254 C 0.71957 0.18955 0.93914 0.0
C1255 C 0.73324 0.20396 0.95171 0.0
C1256 C 0.73741 0.25961 0.98992 0.0
C1257 C 0.78549 0.28088 0.01908 0.0
C1258 C 0.77044 0.26528 0.0068 0.0
C1259 C 0.72714 0.21977 0.97057 0.0
C1260 C 0.74187 0.23534 0.98359 0.0
H1261 H 0.83485 0.29299 0.01773 0.0
H1262 H 0.80985 0.26906 0.99614 0.0
H1263 H 0.74771 0.2931 0.00571 0.0
H1264 H 0.67777 0.20755 0.96895 0.0
H1265 H 0.70175 0.23245 0.99121 0.0
C1266 C 0.21237 0.6942 0.55156 0.0
C1267 C 0.19271 0.69558 0.54339 0.0
C1268 C 0.22733 0.70696 0.53935 0.0
C1269 C 0.23875 0.73832 0.4804 0.0
H1270 H 0.27877 0.77138 0.519 0.0
C1271 C 0.28855 0.81255 0.43901 0.0
C1272 C 0.30881 0.81214 0.44477 0.0
C1273 C 0.27527 0.79738 0.45127 0.0
C1274 C 0.26784 0.76202 0.50795 0.0
H1275 H 0.17339 0.7113 0.51584 0.0
H1276 H 0.19936 0.73379 0.49478 0.0
H1277 H 0.25395 0.74638 0.5396 0.0
H1278 H 0.33081 0.79554 0.46846 0.0
H1279 H 0.30745 0.76906 0.49005 0.0
H1280 H 0.25242 0.75432 0.44882 0.0
C1281 C 0.20334 0.72255 0.51038 0.0
C1282 C 0.25362 0.74764 0.51974 0.0
C1283 C 0.1884 0.70973 0.52254 0.0
C1284 C 0.31534 0.79637 0.46352 0.0
C1285 C 0.30196 0.78125 0.47595 0.0
C1286 C 0.25289 0.75276 0.46866 0.0
C1287 C 0.22299 0.72146 0.5187 0.0
C1288 C 0.23875 0.7358 0.50612 0.0
C1289 C 0.28179 0.78141 0.46975 0.0
C1290 C 0.26747 0.76501 0.4823 0.0
H1291 H 0.2162 0.6834 0.56754 0.0
H1292 H 0.24233 0.70539 0.54606 0.0
H1293 H 0.22782 0.72908 0.46926 0.0
H1294 H 0.28287 0.82443 0.42475 0.0
H1295 H 0.25979 0.79826 0.44634 0.0
C1296 C 0.17788 0.579 0.9502 0.0
C1297 C 0.16068 0.59304 0.94762 0.0
C1298 C 0.17746 0.5568 0.9628 0.0
C1299 C 0.14632 0.51892 0.00494 0.0
H1300 H 0.18118 0.46743 0.98242 0.0
C1301 C 0.14209 0.41817 0.03832 0.0
C1302 C 0.15992 0.40929 0.04805 0.0
C1303 C 0.14162 0.44033 0.02554 0.0
C1304 C 0.17139 0.48168 0.98889 0.0
H1305 H 0.1295 0.59486 0.95625 0.0
H1306 H 0.12849 0.55566 0.97735 0.0
H1307 H 0.18119 0.50666 0.96139 0.0
H1308 H 0.19132 0.41629 0.05142 0.0
H1309 H 0.19056 0.45457 0.02838 0.0
H1310 H 0.13614 0.49329 0.03194 0.0
C1311 C 0.14252 0.56205 0.97036 0.0
C1312 C 0.17149 0.50429 0.97701 0.0
C1313 C 0.14305 0.58454 0.95816 0.0
C1314 C 0.17735 0.42269 0.04418 0.0
C1315 C 0.17694 0.44453 0.03095 0.0
C1316 C 0.14596 0.49611 0.01649 0.0
C1317 C 0.1597 0.54775 0.9727 0.0
C1318 C 0.15913 0.52338 0.98503 0.0
C1319 C 0.15905 0.4537 0.02178 0.0
C1320 C 0.15864 0.4774 0.00872 0.0
H1321 H 0.19174 0.58519 0.94248 0.0
H1322 H 0.19113 0.54677 0.96476 0.0
H1323 H 0.13681 0.53316 0.01198 0.0
H1324 H 0.12841 0.40833 0.04117 0.0
H1325 H 0.12767 0.44703 0.01853 0.0
C1326 C 0.86543 0.58289 0.545 0.0
C1327 C 0.84786 0.59158 0.55554 0.0
C1328 C 0.8658 0.56044 0.53277 0.0
C1329 C 0.83632 0.50311 0.52531 0.0
H1330 H 0.87145 0.49268 0.47005 0.0
C1331 C 0.82956 0.42309 0.45632 0.0
C1332 C 0.84683 0.40946 0.45226 0.0
C1333 C 0.83019 0.44464 0.47002 0.0
C1334 C 0.86169 0.49534 0.48559 0.0
H1335 H 0.81675 0.584 0.56075 0.0
H1336 H 0.8171 0.54562 0.53842 0.0
H1337 H 0.87121 0.53214 0.49079 0.0
H1338 H 0.87831 0.40775 0.45928 0.0
H1339 H 0.87945 0.44595 0.48271 0.0
H1340 H 0.82624 0.46653 0.51917 0.0
C1341 C 0.83084 0.55549 0.5404 0.0
C1342 C 0.86158 0.51791 0.4976 0.0
C1343 C 0.83058 0.57766 0.55304 0.0
C1344 C 0.86474 0.41779 0.46225 0.0
C1345 C 0.86543 0.43967 0.4755 0.0
C1346 C 0.83616 0.48075 0.51298 0.0
C1347 C 0.84851 0.54634 0.53035 0.0
C1348 C 0.84886 0.52217 0.51763 0.0
C1349 C 0.84816 0.45327 0.47947 0.0
C1350 C 0.84883 0.47668 0.49301 0.0
H1351 H 0.87904 0.59311 0.54684 0.0
H1352 H 0.87977 0.55394 0.5257 0.0
H1353 H 0.82667 0.50533 0.541 0.0
H1354 H 0.81554 0.4171 0.4489 0.0
H1355 H 0.81669 0.45488 0.47275 0.0
C1356 C 0.8445 0.43885 0.06981 0.0
C1357 C 0.84748 0.41589 0.05886 0.0
C1358 C 0.84238 0.45974 0.05543 0.0
C1359 C 0.85321 0.50179 0.02239 0.0
H1360 H 0.8241 0.50344 0.96107 0.0
C1361 C 0.84609 0.59035 0.9659 0.0
C1362 C 0.84935 0.58809 0.94047 0.0
C1363 C 0.84351 0.56959 0.98054 0.0
C1364 C 0.83238 0.50321 0.9781 0.0
H1365 H 0.84976 0.39685 0.02404 0.0
H1366 H 0.84628 0.43353 0.99882 0.0
H1367 H 0.82393 0.46635 0.98601 0.0
H1368 H 0.85167 0.5621 0.91044 0.0
H1369 H 0.84741 0.52614 0.93595 0.0
H1370 H 0.86191 0.53843 0.01442 0.0
C1371 C 0.84544 0.43525 0.01862 0.0
C1372 C 0.8323 0.48195 0.99235 0.0
C1373 C 0.84749 0.41423 0.03307 0.0
C1374 C 0.8493 0.56461 0.92997 0.0
C1375 C 0.8467 0.54392 0.94458 0.0
C1376 C 0.85328 0.52299 0.00818 0.0
C1377 C 0.84325 0.45831 0.02968 0.0
C1378 C 0.84279 0.48097 0.01463 0.0
C1379 C 0.84407 0.54612 0.97009 0.0
C1380 C 0.84296 0.52395 0.9858 0.0
H1381 H 0.8441 0.44081 0.08962 0.0
H1382 H 0.84025 0.47711 0.06454 0.0
H1383 H 0.86176 0.50153 0.03921 0.0
H1384 H 0.84594 0.60811 0.97461 0.0
H1385 H 0.84124 0.57193 0.0001 0.0
C1386 C 0.16133 0.41526 0.46455 0.0
C1387 C 0.15852 0.41751 0.43904 0.0
C1388 C 0.16366 0.43604 0.47923 0.0
C1389 C 0.17479 0.50244 0.47699 0.0
H1390 H 0.14403 0.50429 0.53701 0.0
C1391 C 0.1581 0.59164 0.53085 0.0
C1392 C 0.15746 0.5901 0.55664 0.0
C1393 C 0.16061 0.57056 0.51661 0.0
C1394 C 0.15297 0.50399 0.52051 0.0
H1395 H 0.15678 0.44347 0.40891 0.0
H1396 H 0.16061 0.47945 0.43447 0.0
H1397 H 0.14455 0.46727 0.51242 0.0
H1398 H 0.16016 0.56536 0.58766 0.0
H1399 H 0.1648 0.52897 0.56296 0.0
H1400 H 0.18296 0.53939 0.485 0.0
C1401 C 0.16115 0.46167 0.44315 0.0
C1402 C 0.15328 0.48271 0.50642 0.0
C1403 C 0.15879 0.44097 0.4285 0.0
C1404 C 0.16025 0.56722 0.56784 0.0
C1405 C 0.16284 0.54628 0.55367 0.0
C1406 C 0.17449 0.52377 0.49113 0.0
C1407 C 0.1633 0.4595 0.46873 0.0
C1408 C 0.16409 0.48171 0.48441 0.0
C1409 C 0.1626 0.54757 0.52789 0.0
C1410 C 0.1635 0.52482 0.51301 0.0
H1411 H 0.16129 0.39751 0.47329 0.0
H1412 H 0.16555 0.43374 0.49886 0.0
H1413 H 0.18344 0.50218 0.46026 0.0
H1414 H 0.15599 0.60897 0.52165 0.0
H1415 H 0.16026 0.57218 0.49678 0.0
C1416 C 0.67686 0.07861 0.94898 0.0
C1417 C 0.65941 0.09215 0.94614 0.0
C1418 C 0.67683 0.05664 0.962 0.0
C1419 C 0.64621 0.01906 0.00504 0.0
H1420 H 0.68237 0.96804 0.98473 0.0
C1421 C 0.64303 0.91893 0.04017 0.0
C1422 C 0.66072 0.9107 0.05085 0.0
C1423 C 0.64254 0.94088 0.02703 0.0
C1424 C 0.67223 0.98218 0.99059 0.0
H1425 H 0.62818 0.09319 0.95457 0.0
H1426 H 0.62783 0.05433 0.97629 0.0
H1427 H 0.68181 0.0066 0.96247 0.0
H1428 H 0.69184 0.91864 0.05559 0.0
H1429 H 0.69107 0.95658 0.03188 0.0
H1430 H 0.63622 0.99392 0.03261 0.0
C1431 C 0.64177 0.06099 0.96925 0.0
C1432 C 0.67199 0.00441 0.978 0.0
C1433 C 0.64191 0.08327 0.95667 0.0
C1434 C 0.67799 0.92455 0.04763 0.0
C1435 C 0.67758 0.94618 0.03402 0.0
C1436 C 0.64619 0.99661 0.01728 0.0
C1437 C 0.65923 0.04729 0.97205 0.0
C1438 C 0.65912 0.02331 0.98518 0.0
C1439 C 0.65982 0.95467 0.02385 0.0
C1440 C 0.65932 0.97808 0.01029 0.0
H1441 H 0.69064 0.08512 0.94128 0.0
H1442 H 0.69069 0.04709 0.96424 0.0
H1443 H 0.63634 0.03319 0.0115 0.0
H1444 H 0.62946 0.90874 0.04248 0.0
H1445 H 0.62869 0.94705 0.01926 0.0
C1446 C 0.33257 0.9318 0.43943 0.0
C1447 C 0.3459 0.91308 0.4456 0.0
C1448 C 0.33259 0.95385 0.4523 0.0
C1449 C 0.3637 0.99275 0.49202 0.0
H1450 H 0.3138 0.02339 0.50832 0.0
C1451 C 0.3316 0.07497 0.55735 0.0
C1452 C 0.3451 0.09377 0.55205 0.0
C1453 C 0.33178 0.05326 0.54394 0.0
C1454 C 0.32787 0.01502 0.50404 0.0
H1455 H 0.3697 0.90303 0.47034 0.0
H1456 H 0.36954 0.94147 0.49295 0.0
H1457 H 0.31399 0.9845 0.48669 0.0
H1458 H 0.36935 0.10432 0.52825 0.0
H1459 H 0.36951 0.06642 0.50469 0.0
H1460 H 0.37755 0.02311 0.50983 0.0
C1461 C 0.35923 0.93912 0.47793 0.0
C1462 C 0.32798 0.99283 0.4914 0.0
C1463 C 0.35921 0.917 0.46506 0.0
C1464 C 0.35873 0.09028 0.53286 0.0
C1465 C 0.35892 0.06848 0.51945 0.0
C1466 C 0.36359 0.015 0.50464 0.0
C1467 C 0.34592 0.95782 0.47167 0.0
C1468 C 0.34589 0.98139 0.48525 0.0
C1469 C 0.34545 0.04969 0.52486 0.0
C1470 C 0.34566 0.02636 0.51087 0.0
H1471 H 0.32217 0.92957 0.42448 0.0
H1472 H 0.32232 0.96797 0.44676 0.0
H1473 H 0.37775 0.98457 0.48734 0.0
H1474 H 0.32093 0.07686 0.57205 0.0
H1475 H 0.32139 0.03905 0.54885 0.0
C1476 C 0.34731 0.93734 0.06966 0.0
C1477 C 0.34803 0.91389 0.05917 0.0
C1478 C 0.34476 0.95797 0.05495 0.0
C1479 C 0.3532 0.97906 0.99187 0.0
H1480 H 0.32262 0.03525 0.01254 0.0
C1481 C 0.34707 0.06384 0.93061 0.0
C1482 C 0.34937 0.08667 0.94206 0.0
C1483 C 0.34426 0.04277 0.94454 0.0
C1484 C 0.33134 0.01977 0.00661 0.0
H1485 H 0.34579 0.89377 0.02493 0.0
H1486 H 0.34121 0.92987 0.99923 0.0
H1487 H 0.32208 0.99801 0.03724 0.0
H1488 H 0.34972 0.10531 0.97721 0.0
H1489 H 0.3451 0.06833 0.00166 0.0
H1490 H 0.36281 1.00081 0.96158 0.0
C1491 C 0.3429 0.93223 0.01889 0.0
C1492 C 0.331 0.99843 0.02073 0.0
C1493 C 0.3454 0.91154 0.03364 0.0
C1494 C 0.348 0.08803 0.96781 0.0
C1495 C 0.34528 0.06683 0.98181 0.0
C1496 C 0.35356 1.00036 0.97781 0.0
C1497 C 0.34287 0.95572 0.02934 0.0
C1498 C 0.34204 0.97787 0.01359 0.0
C1499 C 0.34378 0.04388 0.97033 0.0
C1500 C 0.34272 0.02104 0.98505 0.0
H1501 H 0.34915 0.93991 0.08927 0.0
H1502 H 0.34499 0.97577 0.06359 0.0
H1503 H 0.36219 0.96375 0.9861 0.0
H1504 H 0.34773 0.06212 0.91079 0.0
H1505 H 0.34269 0.0255 0.93506 0.0
C1506 C 0.66214 0.08925 0.53508 0.0
C1507 C 0.65866 0.08692 0.56045 0.0
C1508 C 0.66472 0.06852 0.52041 0.0
C1509 C 0.67543 0.00203 0.52273 0.0
H1510 H 0.64624 1.00078 0.46147 0.0
C1511 C 0.65966 0.91326 0.46781 0.0
C1512 C 0.65963 0.91488 0.44202 0.0
C1513 C 0.66194 0.93427 0.48221 0.0
C1514 C 0.65475 1.00091 0.47832 0.0
H1515 H 0.656 0.06086 0.59038 0.0
H1516 H 0.66028 0.02495 0.56482 0.0
H1517 H 0.6463 0.03764 0.4863 0.0
H1518 H 0.66318 0.9397 0.41119 0.0
H1519 H 0.66743 0.97598 0.43619 0.0
H1520 H 0.68362 0.96508 0.51483 0.0
C1521 C 0.66115 0.04276 0.55625 0.0
C1522 C 0.65479 0.0221 0.49256 0.0
C1523 C 0.65853 0.06342 0.57089 0.0
C1524 C 0.66281 0.93777 0.431 0.0
C1525 C 0.66516 0.95866 0.44535 0.0
C1526 C 0.6754 0.98079 0.50845 0.0
C1527 C 0.66396 0.04502 0.53078 0.0
C1528 C 0.66502 0.02289 0.51501 0.0
C1529 C 0.66432 0.95728 0.4711 0.0
C1530 C 0.66498 0.97996 0.48612 0.0
H1531 H 0.66243 0.10703 0.52641 0.0
H1532 H 0.66714 0.07089 0.50087 0.0
H1533 H 0.68364 0.00212 0.53982 0.0
H1534 H 0.65724 0.89593 0.47689 0.0
H1535 H 0.6611 0.93259 0.50202 0.0
loop_
_geom_bond_atom_site_label_1
_geom_bond_atom_site_label_2
_geom_bond_distance
_geom_bond_site_symmetry_2
_ccdc_geom_bond_type
Mn0 O5 2.095 . S
Mn0 O15 2.162 . S
Mn0 O16 2.297 . S
Mn0 O24 2.385 . S
Mn0 O25 2.209 . S
Mn0 O26 2.094 . S
Mn1 O6 2.121 . S
Mn1 N8 2.257 . S
Mn1 N17 2.282 . S
Mn1 O25 2.215 . S
Mn1 O27 2.117 . S
C2 O24 1.234 . S
C2 O25 1.283 . S
C3 O15 1.281 . S
C3 O16 1.236 . S
C4 O26 1.240 . S
C4 O27 1.264 . S
O5 Mn0 2.095 . S
O5 C14 1.250 . S
O6 Mn1 2.121 . S
O6 C14 1.258 . S
C7 N8 1.326 . S
C7 C11 1.460 . S
C7 H13 0.929 . S
N8 Mn1 2.257 . S
N8 C7 1.326 . S
N8 C12 1.362 . S
C9 C10 1.258 . S
C9 C12 1.431 . S
C9 C29 1.449 . S
C10 C9 1.258 . S
C10 C11 1.477 . S
C10 H30 0.931 . S
C11 C7 1.460 . S
C11 C10 1.477 . S
C11 H31 0.930 . S
C12 N8 1.362 . S
C12 C9 1.431 . S
C12 C22 1.476 . S
H13 C7 0.929 . S
C14 O5 1.250 . S
C14 O6 1.258 . S
O15 Mn0 2.162 . S
O15 C3 1.281 . S
O16 Mn0 2.297 . S
O16 C3 1.236 . S
N17 Mn1 2.282 . S
N17 C18 1.328 . S
N17 C22 1.318 . S
C18 N17 1.328 . S
C18 C19 1.457 . S
C18 H23 0.929 . S
C19 C18 1.457 . S
C19 C20 1.291 . S
C19 H32 0.931 . S
C20 C19 1.291 . S
C20 C21 1.373 . S
C20 H33 0.929 . S
C21 C20 1.373 . S
C21 C22 1.396 . S
C21 C28 1.403 . S
C22 C12 1.476 . S
C22 N17 1.318 . S
C22 C21 1.396 . S
H23 C18 0.929 . S
O24 Mn0 2.385 . S
O24 C2 1.234 . S
O25 Mn0 2.209 . S
O25 Mn1 2.215 . S
O25 C2 1.283 . S
O26 Mn0 2.094 . S
O26 C4 1.240 . S
O27 Mn1 2.117 . S
O27 C4 1.264 . S
C28 C21 1.403 . S
C28 C29 1.399 . S
C28 H34 0.929 . S
C29 C9 1.449 . S
C29 C28 1.399 . S
C29 H35 0.930 . S
H30 C10 0.931 . S
H31 C11 0.930 . S
H32 C19 0.931 . S
H33 C20 0.929 . S
H34 C28 0.929 . S
H35 C29 0.930 . S
Mn36 O41 2.095 . S
Mn36 O51 2.162 . S
Mn36 O52 2.297 . S
Mn36 O60 2.385 . S
Mn36 O61 2.209 . S
Mn36 O62 2.094 . S
Mn37 O42 2.121 . S
Mn37 N44 2.257 . S
Mn37 N53 2.282 . S
Mn37 O61 2.215 . S
Mn37 O63 2.117 . S
C38 O60 1.234 . S
C38 O61 1.283 . S
C39 O51 1.281 . S
C39 O52 1.236 . S
C40 O62 1.240 . S
C40 O63 1.264 . S
O41 Mn36 2.095 . S
O41 C50 1.250 . S
O42 Mn37 2.121 . S
O42 C50 1.258 . S
C43 N44 1.326 . S
C43 C47 1.460 . S
C43 H49 0.929 . S
N44 Mn37 2.257 . S
N44 C43 1.326 . S
N44 C48 1.362 . S
C45 C46 1.258 . S
C45 C48 1.431 . S
C45 C65 1.449 . S
C46 C45 1.258 . S
C46 C47 1.477 . S
C46 H66 0.931 . S
C47 C43 1.460 . S
C47 C46 1.477 . S
C47 H67 0.930 . S
C48 N44 1.362 . S
C48 C45 1.431 . S
C48 C58 1.476 . S
H49 C43 0.929 . S
C50 O41 1.250 . S
C50 O42 1.258 . S
O51 Mn36 2.162 . S
O51 C39 1.281 . S
O52 Mn36 2.297 . S
O52 C39 1.236 . S
N53 Mn37 2.282 . S
N53 C54 1.328 . S
N53 C58 1.318 . S
C54 N53 1.328 . S
C54 C55 1.457 . S
C54 H59 0.929 . S
C55 C54 1.457 . S
C55 C56 1.291 . S
C55 H68 0.931 . S
C56 C55 1.291 . S
C56 C57 1.373 . S
C56 H69 0.929 . S
C57 C56 1.373 . S
C57 C58 1.396 . S
C57 C64 1.403 . S
C58 C48 1.476 . S
C58 N53 1.318 . S
C58 C57 1.396 . S
H59 C54 0.929 . S
O60 Mn36 2.385 . S
O60 C38 1.234 . S
O61 Mn36 2.209 . S
O61 Mn37 2.215 . S
O61 C38 1.283 . S
O62 Mn36 2.094 . S
O62 C40 1.240 . S
O63 Mn37 2.117 . S
O63 C40 1.264 . S
C64 C57 1.403 . S
C64 C65 1.399 . S
C64 H70 0.929 . S
C65 C45 1.449 . S
C65 C64 1.399 . S
C65 H71 0.930 . S
H66 C46 0.931 . S
H67 C47 0.930 . S
H68 C55 0.931 . S
H69 C56 0.929 . S
H70 C64 0.929 . S
H71 C65 0.930 . S
Mn72 O77 2.095 . S
Mn72 O87 2.162 . S
Mn72 O88 2.297 . S
Mn72 O96 2.385 . S
Mn72 O97 2.209 . S
Mn72 O98 2.094 . S
Mn73 O78 2.121 . S
Mn73 N80 2.257 . S
Mn73 N89 2.282 . S
Mn73 O97 2.215 . S
Mn73 O99 2.117 . S
C74 O96 1.234 . S
C74 O97 1.283 . S
C75 O87 1.281 . S
C75 O88 1.236 . S
C76 O98 1.240 . S
C76 O99 1.264 . S
O77 Mn72 2.095 . S
O77 C86 1.250 . S
O78 Mn73 2.121 . S
O78 C86 1.258 . S
C79 N80 1.326 . S
C79 C83 1.460 . S
C79 H85 0.929 . S
N80 Mn73 2.257 . S
N80 C79 1.326 . S
N80 C84 1.362 . S
C81 C82 1.258 . S
C81 C84 1.431 . S
C81 C101 1.449 . S
C82 C81 1.258 . S
C82 C83 1.477 . S
C82 H102 0.931 . S
C83 C79 1.460 . S
C83 C82 1.477 . S
C83 H103 0.930 . S
C84 N80 1.362 . S
C84 C81 1.431 . S
C84 C94 1.476 . S
H85 C79 0.929 . S
C86 O77 1.250 . S
C86 O78 1.258 . S
O87 Mn72 2.162 . S
O87 C75 1.281 . S
O88 Mn72 2.297 . S
O88 C75 1.236 . S
N89 Mn73 2.282 . S
N89 C90 1.328 . S
N89 C94 1.318 . S
C90 N89 1.328 . S
C90 C91 1.457 . S
C90 H95 0.929 . S
C91 C90 1.457 . S
C91 C92 1.291 . S
C91 H104 0.931 . S
C92 C91 1.291 . S
C92 C93 1.373 . S
C92 H105 0.929 . S
C93 C92 1.373 . S
C93 C94 1.396 . S
C93 C100 1.403 . S
C94 C84 1.476 . S
C94 N89 1.318 . S
C94 C93 1.396 . S
H95 C90 0.929 . S
O96 Mn72 2.385 . S
O96 C74 1.234 . S
O97 Mn72 2.209 . S
O97 Mn73 2.215 . S
O97 C74 1.283 . S
O98 Mn72 2.094 . S
O98 C76 1.240 . S
O99 Mn73 2.117 . S
O99 C76 1.264 . S
C100 C93 1.403 . S
C100 C101 1.399 . S
C100 H106 0.929 . S
C101 C81 1.449 . S
C101 C100 1.399 . S
C101 H107 0.930 . S
H102 C82 0.931 . S
H103 C83 0.930 . S
H104 C91 0.931 . S
H105 C92 0.929 . S
H106 C100 0.929 . S
H107 C101 0.930 . S
Mn108 O113 2.095 . S
Mn108 O123 2.162 . S
Mn108 O124 2.297 . S
Mn108 O132 2.385 . S
Mn108 O133 2.209 . S
Mn108 O134 2.094 . S
Mn109 O114 2.121 . S
Mn109 N116 2.257 . S
Mn109 N125 2.282 . S
Mn109 O133 2.215 . S
Mn109 O135 2.117 . S
C110 O132 1.234 . S
C110 O133 1.283 . S
C111 O123 1.281 . S
C111 O124 1.236 . S
C112 O134 1.240 . S
C112 O135 1.264 . S
O113 Mn108 2.095 . S
O113 C122 1.250 . S
O114 Mn109 2.121 . S
O114 C122 1.258 . S
C115 N116 1.326 . S
C115 C119 1.460 . S
C115 H121 0.929 . S
N116 Mn109 2.257 . S
N116 C115 1.326 . S
N116 C120 1.362 . S
C117 C118 1.258 . S
C117 C120 1.431 . S
C117 C137 1.449 . S
C118 C117 1.258 . S
C118 C119 1.477 . S
C118 H138 0.931 . S
C119 C115 1.460 . S
C119 C118 1.477 . S
C119 H139 0.930 . S
C120 N116 1.362 . S
C120 C117 1.431 . S
C120 C130 1.476 . S
H121 C115 0.929 . S
C122 O113 1.250 . S
C122 O114 1.258 . S
O123 Mn108 2.162 . S
O123 C111 1.281 . S
O124 Mn108 2.297 . S
O124 C111 1.236 . S
N125 Mn109 2.282 . S
N125 C126 1.328 . S
N125 C130 1.318 . S
C126 N125 1.328 . S
C126 C127 1.457 . S
C126 H131 0.929 . S
C127 C126 1.457 . S
C127 C128 1.291 . S
C127 H140 0.931 . S
C128 C127 1.291 . S
C128 C129 1.373 . S
C128 H141 0.929 . S
C129 C128 1.373 . S
C129 C130 1.396 . S
C129 C136 1.403 . S
C130 C120 1.476 . S
C130 N125 1.318 . S
C130 C129 1.396 . S
H131 C126 0.929 . S
O132 Mn108 2.385 . S
O132 C110 1.234 . S
O133 Mn108 2.209 . S
O133 Mn109 2.215 . S
O133 C110 1.283 . S
O134 Mn108 2.094 . S
O134 C112 1.240 . S
O135 Mn109 2.117 . S
O135 C112 1.264 . S
C136 C129 1.403 . S
C136 C137 1.399 . S
C136 H142 0.929 . S
C137 C117 1.449 . S
C137 C136 1.399 . S
C137 H143 0.930 . S
H138 C118 0.931 . S
H139 C119 0.930 . S
H140 C127 0.931 . S
H141 C128 0.929 . S
H142 C136 0.929 . S
H143 C137 0.930 . S
Mn144 O149 2.095 . S
Mn144 O159 2.162 . S
Mn144 O160 2.297 . S
Mn144 O168 2.385 . S
Mn144 O169 2.209 . S
Mn144 O170 2.094 . S
Mn145 O150 2.121 . S
Mn145 N152 2.257 . S
Mn145 N161 2.282 . S
Mn145 O169 2.215 . S
Mn145 O171 2.117 . S
C146 O168 1.234 . S
C146 O169 1.283 . S
C147 O159 1.281 . S
C147 O160 1.236 . S
C148 O170 1.240 . S
C148 O171 1.264 . S
O149 Mn144 2.095 . S
O149 C158 1.250 . S
O150 Mn145 2.121 . S
O150 C158 1.258 . S
C151 N152 1.326 . S
C151 C155 1.460 . S
C151 H157 0.929 . S
N152 Mn145 2.257 . S
N152 C151 1.326 . S
N152 C156 1.362 . S
C153 C154 1.258 . S
C153 C156 1.431 . S
C153 C173 1.449 . S
C154 C153 1.258 . S
C154 C155 1.477 . S
C154 H174 0.931 . S
C155 C151 1.460 . S
C155 C154 1.477 . S
C155 H175 0.930 . S
C156 N152 1.362 . S
C156 C153 1.431 . S
C156 C166 1.476 . S
H157 C151 0.929 . S
C158 O149 1.250 . S
C158 O150 1.258 . S
O159 Mn144 2.162 . S
O159 C147 1.281 . S
O160 Mn144 2.297 . S
O160 C147 1.236 . S
N161 Mn145 2.282 . S
N161 C162 1.328 . S
N161 C166 1.318 . S
C162 N161 1.328 . S
C162 C163 1.457 . S
C162 H167 0.929 . S
C163 C162 1.457 . S
C163 C164 1.291 . S
C163 H176 0.931 . S
C164 C163 1.291 . S
C164 C165 1.373 . S
C164 H177 0.929 . S
C165 C164 1.373 . S
C165 C166 1.396 . S
C165 C172 1.403 . S
C166 C156 1.476 . S
C166 N161 1.318 . S
C166 C165 1.396 . S
H167 C162 0.929 . S
O168 Mn144 2.385 . S
O168 C146 1.234 . S
O169 Mn144 2.209 . S
O169 Mn145 2.215 . S
O169 C146 1.283 . S
O170 Mn144 2.094 . S
O170 C148 1.240 . S
O171 Mn145 2.117 . S
O171 C148 1.264 . S
C172 C165 1.403 . S
C172 C173 1.399 . S
C172 H178 0.929 . S
C173 C153 1.449 . S
C173 C172 1.399 . S
C173 H179 0.930 . S
H174 C154 0.931 . S
H175 C155 0.930 . S
H176 C163 0.931 . S
H177 C164 0.929 . S
H178 C172 0.929 . S
H179 C173 0.930 . S
Mn180 O185 2.095 . S
Mn180 O195 2.162 . S
Mn180 O196 2.297 . S
Mn180 O204 2.385 . S
Mn180 O205 2.209 . S
Mn180 O206 2.094 . S
Mn181 O186 2.121 . S
Mn181 N188 2.257 . S
Mn181 N197 2.282 . S
Mn181 O205 2.215 . S
Mn181 O207 2.117 . S
C182 O204 1.234 . S
C182 O205 1.283 . S
C183 O195 1.281 . S
C183 O196 1.236 . S
C184 O206 1.240 . S
C184 O207 1.264 . S
O185 Mn180 2.095 . S
O185 C194 1.250 . S
O186 Mn181 2.121 . S
O186 C194 1.258 . S
C187 N188 1.326 . S
C187 C191 1.460 . S
C187 H193 0.929 . S
N188 Mn181 2.257 . S
N188 C187 1.326 . S
N188 C192 1.362 . S
C189 C190 1.258 . S
C189 C192 1.431 . S
C189 C209 1.449 . S
C190 C189 1.258 . S
C190 C191 1.477 . S
C190 H210 0.931 . S
C191 C187 1.460 . S
C191 C190 1.477 . S
C191 H211 0.930 . S
C192 N188 1.362 . S
C192 C189 1.431 . S
C192 C202 1.476 . S
H193 C187 0.929 . S
C194 O185 1.250 . S
C194 O186 1.258 . S
O195 Mn180 2.162 . S
O195 C183 1.281 . S
O196 Mn180 2.297 . S
O196 C183 1.236 . S
N197 Mn181 2.282 . S
N197 C198 1.328 . S
N197 C202 1.318 . S
C198 N197 1.328 . S
C198 C199 1.457 . S
C198 H203 0.929 . S
C199 C198 1.457 . S
C199 C200 1.291 . S
C199 H212 0.931 . S
C200 C199 1.291 . S
C200 C201 1.373 . S
C200 H213 0.929 . S
C201 C200 1.373 . S
C201 C202 1.396 . S
C201 C208 1.403 . S
C202 C192 1.476 . S
C202 N197 1.318 . S
C202 C201 1.396 . S
H203 C198 0.929 . S
O204 Mn180 2.385 . S
O204 C182 1.234 . S
O205 Mn180 2.209 . S
O205 Mn181 2.215 . S
O205 C182 1.283 . S
O206 Mn180 2.094 . S
O206 C184 1.240 . S
O207 Mn181 2.117 . S
O207 C184 1.264 . S
C208 C201 1.403 . S
C208 C209 1.399 . S
C208 H214 0.929 . S
C209 C189 1.449 . S
C209 C208 1.399 . S
C209 H215 0.930 . S
H210 C190 0.931 . S
H211 C191 0.930 . S
H212 C199 0.931 . S
H213 C200 0.929 . S
H214 C208 0.929 . S
H215 C209 0.930 . S
Mn216 O221 2.095 . S
Mn216 O231 2.162 . S
Mn216 O232 2.297 . S
Mn216 O240 2.385 . S
Mn216 O241 2.209 . S
Mn216 O242 2.094 . S
Mn217 O222 2.121 . S
Mn217 N224 2.257 . S
Mn217 N233 2.282 . S
Mn217 O241 2.215 . S
Mn217 O243 2.117 . S
C218 O240 1.234 . S
C218 O241 1.283 . S
C219 O231 1.281 . S
C219 O232 1.236 . S
C220 O242 1.240 . S
C220 O243 1.264 . S
O221 Mn216 2.095 . S
O221 C230 1.250 . S
O222 Mn217 2.121 . S
O222 C230 1.258 . S
C223 N224 1.326 . S
C223 C227 1.460 . S
C223 H229 0.929 . S
N224 Mn217 2.257 . S
N224 C223 1.326 . S
N224 C228 1.362 . S
C225 C226 1.258 . S
C225 C228 1.431 . S
C225 C245 1.449 . S
C226 C225 1.258 . S
C226 C227 1.477 . S
C226 H246 0.931 . S
C227 C223 1.460 . S
C227 C226 1.477 . S
C227 H247 0.930 . S
C228 N224 1.362 . S
C228 C225 1.431 . S
C228 C238 1.476 . S
H229 C223 0.929 . S
C230 O221 1.250 . S
C230 O222 1.258 . S
O231 Mn216 2.162 . S
O231 C219 1.281 . S
O232 Mn216 2.297 . S
O232 C219 1.236 . S
N233 Mn217 2.282 . S
N233 C234 1.328 . S
N233 C238 1.318 . S
C234 N233 1.328 . S
C234 C235 1.457 . S
C234 H239 0.929 . S
C235 C234 1.457 . S
C235 C236 1.291 . S
C235 H248 0.931 . S
C236 C235 1.291 . S
C236 C237 1.373 . S
C236 H249 0.929 . S
C237 C236 1.373 . S
C237 C238 1.396 . S
C237 C244 1.403 . S
C238 C228 1.476 . S
C238 N233 1.318 . S
C238 C237 1.396 . S
H239 C234 0.929 . S
O240 Mn216 2.385 . S
O240 C218 1.234 . S
O241 Mn216 2.209 . S
O241 Mn217 2.215 . S
O241 C218 1.283 . S
O242 Mn216 2.094 . S
O242 C220 1.240 . S
O243 Mn217 2.117 . S
O243 C220 1.264 . S
C244 C237 1.403 . S
C244 C245 1.399 . S
C244 H250 0.929 . S
C245 C225 1.449 . S
C245 C244 1.399 . S
C245 H251 0.930 . S
H246 C226 0.931 . S
H247 C227 0.930 . S
H248 C235 0.931 . S
H249 C236 0.929 . S
H250 C244 0.929 . S
H251 C245 0.930 . S
Mn252 O257 2.095 . S
Mn252 O267 2.162 . S
Mn252 O268 2.297 . S
Mn252 O276 2.385 . S
Mn252 O277 2.209 . S
Mn252 O278 2.094 . S
Mn253 O258 2.121 . S
Mn253 N260 2.257 . S
Mn253 N269 2.282 . S
Mn253 O277 2.215 . S
Mn253 O279 2.117 . S
C254 O276 1.234 . S
C254 O277 1.283 . S
C255 O267 1.281 . S
C255 O268 1.236 . S
C256 O278 1.240 . S
C256 O279 1.264 . S
O257 Mn252 2.095 . S
O257 C266 1.250 . S
O258 Mn253 2.121 . S
O258 C266 1.258 . S
C259 N260 1.326 . S
C259 C263 1.460 . S
C259 H265 0.929 . S
N260 Mn253 2.257 . S
N260 C259 1.326 . S
N260 C264 1.362 . S
C261 C262 1.258 . S
C261 C264 1.431 . S
C261 C281 1.449 . S
C262 C261 1.258 . S
C262 C263 1.477 . S
C262 H282 0.931 . S
C263 C259 1.460 . S
C263 C262 1.477 . S
C263 H283 0.930 . S
C264 N260 1.362 . S
C264 C261 1.431 . S
C264 C274 1.476 . S
H265 C259 0.929 . S
C266 O257 1.250 . S
C266 O258 1.258 . S
O267 Mn252 2.162 . S
O267 C255 1.281 . S
O268 Mn252 2.297 . S
O268 C255 1.236 . S
N269 Mn253 2.282 . S
N269 C270 1.328 . S
N269 C274 1.318 . S
C270 N269 1.328 . S
C270 C271 1.457 . S
C270 H275 0.929 . S
C271 C270 1.457 . S
C271 C272 1.291 . S
C271 H284 0.931 . S
C272 C271 1.291 . S
C272 C273 1.373 . S
C272 H285 0.929 . S
C273 C272 1.373 . S
C273 C274 1.396 . S
C273 C280 1.403 . S
C274 C264 1.476 . S
C274 N269 1.318 . S
C274 C273 1.396 . S
H275 C270 0.929 . S
O276 Mn252 2.385 . S
O276 C254 1.234 . S
O277 Mn252 2.209 . S
O277 Mn253 2.215 . S
O277 C254 1.283 . S
O278 Mn252 2.094 . S
O278 C256 1.240 . S
O279 Mn253 2.117 . S
O279 C256 1.264 . S
C280 C273 1.403 . S
C280 C281 1.399 . S
C280 H286 0.929 . S
C281 C261 1.449 . S
C281 C280 1.399 . S
C281 H287 0.930 . S
H282 C262 0.931 . S
H283 C263 0.930 . S
H284 C271 0.931 . S
H285 C272 0.929 . S
H286 C280 0.929 . S
H287 C281 0.930 . S
Mn288 O293 2.095 . S
Mn288 O303 2.162 . S
Mn288 O304 2.297 . S
Mn288 O312 2.385 . S
Mn288 O313 2.209 . S
Mn288 O314 2.094 . S
Mn289 O294 2.121 . S
Mn289 N296 2.257 . S
Mn289 N305 2.282 . S
Mn289 O313 2.215 . S
Mn289 O315 2.117 . S
C290 O312 1.234 . S
C290 O313 1.283 . S
C291 O303 1.281 . S
C291 O304 1.236 . S
C292 O314 1.240 . S
C292 O315 1.264 . S
O293 Mn288 2.095 . S
O293 C302 1.250 . S
O294 Mn289 2.121 . S
O294 C302 1.258 . S
C295 N296 1.326 . S
C295 C299 1.460 . S
C295 H301 0.929 . S
N296 Mn289 2.257 . S
N296 C295 1.326 . S
N296 C300 1.362 . S
C297 C298 1.258 . S
C297 C300 1.431 . S
C297 C317 1.449 . S
C298 C297 1.258 . S
C298 C299 1.477 . S
C298 H318 0.931 . S
C299 C295 1.460 . S
C299 C298 1.477 . S
C299 H319 0.930 . S
C300 N296 1.362 . S
C300 C297 1.431 . S
C300 C310 1.476 . S
H301 C295 0.929 . S
C302 O293 1.250 . S
C302 O294 1.258 . S
O303 Mn288 2.162 . S
O303 C291 1.281 . S
O304 Mn288 2.297 . S
O304 C291 1.236 . S
N305 Mn289 2.282 . S
N305 C306 1.328 . S
N305 C310 1.318 . S
C306 N305 1.328 . S
C306 C307 1.457 . S
C306 H311 0.929 . S
C307 C306 1.457 . S
C307 C308 1.291 . S
C307 H320 0.931 . S
C308 C307 1.291 . S
C308 C309 1.373 . S
C308 H321 0.929 . S
C309 C308 1.373 . S
C309 C310 1.396 . S
C309 C316 1.403 . S
C310 C300 1.476 . S
C310 N305 1.318 . S
C310 C309 1.396 . S
H311 C306 0.929 . S
O312 Mn288 2.385 . S
O312 C290 1.234 . S
O313 Mn288 2.209 . S
O313 Mn289 2.215 . S
O313 C290 1.283 . S
O314 Mn288 2.094 . S
O314 C292 1.240 . S
O315 Mn289 2.117 . S
O315 C292 1.264 . S
C316 C309 1.403 . S
C316 C317 1.399 . S
C316 H322 0.929 . S
C317 C297 1.449 . S
C317 C316 1.399 . S
C317 H323 0.930 . S
H318 C298 0.931 . S
H319 C299 0.930 . S
H320 C307 0.931 . S
H321 C308 0.929 . S
H322 C316 0.929 . S
H323 C317 0.930 . S
Mn324 O329 2.095 . S
Mn324 O339 2.162 . S
Mn324 O340 2.297 . S
Mn324 O348 2.385 . S
Mn324 O349 2.209 . S
Mn324 O350 2.094 . S
Mn325 O330 2.121 . S
Mn325 N332 2.257 . S
Mn325 N341 2.282 . S
Mn325 O349 2.215 . S
Mn325 O351 2.117 . S
C326 O348 1.234 . S
C326 O349 1.283 . S
C327 O339 1.281 . S
C327 O340 1.236 . S
C328 O350 1.240 . S
C328 O351 1.264 . S
O329 Mn324 2.095 . S
O329 C338 1.250 . S
O330 Mn325 2.121 . S
O330 C338 1.258 . S
C331 N332 1.326 . S
C331 C335 1.460 . S
C331 H337 0.929 . S
N332 Mn325 2.257 . S
N332 C331 1.326 . S
N332 C336 1.362 . S
C333 C334 1.258 . S
C333 C336 1.431 . S
C333 C353 1.449 . S
C334 C333 1.258 . S
C334 C335 1.477 . S
C334 H354 0.931 . S
C335 C331 1.460 . S
C335 C334 1.477 . S
C335 H355 0.930 . S
C336 N332 1.362 . S
C336 C333 1.431 . S
C336 C346 1.476 . S
H337 C331 0.929 . S
C338 O329 1.250 . S
C338 O330 1.258 . S
O339 Mn324 2.162 . S
O339 C327 1.281 . S
O340 Mn324 2.297 . S
O340 C327 1.236 . S
N341 Mn325 2.282 . S
N341 C342 1.328 . S
N341 C346 1.318 . S
C342 N341 1.328 . S
C342 C343 1.457 . S
C342 H347 0.929 . S
C343 C342 1.457 . S
C343 C344 1.291 . S
C343 H356 0.931 . S
C344 C343 1.291 . S
C344 C345 1.373 . S
C344 H357 0.929 . S
C345 C344 1.373 . S
C345 C346 1.396 . S
C345 C352 1.403 . S
C346 C336 1.476 . S
C346 N341 1.318 . S
C346 C345 1.396 . S
H347 C342 0.929 . S
O348 Mn324 2.385 . S
O348 C326 1.234 . S
O349 Mn324 2.209 . S
O349 Mn325 2.215 . S
O349 C326 1.283 . S
O350 Mn324 2.094 . S
O350 C328 1.240 . S
O351 Mn325 2.117 . S
O351 C328 1.264 . S
C352 C345 1.403 . S
C352 C353 1.399 . S
C352 H358 0.929 . S
C353 C333 1.449 . S
C353 C352 1.399 . S
C353 H359 0.930 . S
H354 C334 0.931 . S
H355 C335 0.930 . S
H356 C343 0.931 . S
H357 C344 0.929 . S
H358 C352 0.929 . S
H359 C353 0.930 . S
Mn360 O365 2.095 . S
Mn360 O375 2.162 . S
Mn360 O376 2.297 . S
Mn360 O384 2.385 . S
Mn360 O385 2.209 . S
Mn360 O386 2.094 . S
Mn361 O366 2.121 . S
Mn361 N368 2.257 . S
Mn361 N377 2.282 . S
Mn361 O385 2.215 . S
Mn361 O387 2.117 . S
C362 O384 1.234 . S
C362 O385 1.283 . S
C363 O375 1.281 . S
C363 O376 1.236 . S
C364 O386 1.240 . S
C364 O387 1.264 . S
O365 Mn360 2.095 . S
O365 C374 1.250 . S
O366 Mn361 2.121 . S
O366 C374 1.258 . S
C367 N368 1.326 . S
C367 C371 1.460 . S
C367 H373 0.929 . S
N368 Mn361 2.257 . S
N368 C367 1.326 . S
N368 C372 1.362 . S
C369 C370 1.258 . S
C369 C372 1.431 . S
C369 C389 1.449 . S
C370 C369 1.258 . S
C370 C371 1.477 . S
C370 H390 0.931 . S
C371 C367 1.460 . S
C371 C370 1.477 . S
C371 H391 0.930 . S
C372 N368 1.362 . S
C372 C369 1.431 . S
C372 C382 1.476 . S
H373 C367 0.929 . S
C374 O365 1.250 . S
C374 O366 1.258 . S
O375 Mn360 2.162 . S
O375 C363 1.281 . S
O376 Mn360 2.297 . S
O376 C363 1.236 . S
N377 Mn361 2.282 . S
N377 C378 1.328 . S
N377 C382 1.318 . S
C378 N377 1.328 . S
C378 C379 1.457 . S
C378 H383 0.929 . S
C379 C378 1.457 . S
C379 C380 1.291 . S
C379 H392 0.931 . S
C380 C379 1.291 . S
C380 C381 1.373 . S
C380 H393 0.929 . S
C381 C380 1.373 . S
C381 C382 1.396 . S
C381 C388 1.403 . S
C382 C372 1.476 . S
C382 N377 1.318 . S
C382 C381 1.396 . S
H383 C378 0.929 . S
O384 Mn360 2.385 . S
O384 C362 1.234 . S
O385 Mn360 2.209 . S
O385 Mn361 2.215 . S
O385 C362 1.283 . S
O386 Mn360 2.094 . S
O386 C364 1.240 . S
O387 Mn361 2.117 . S
O387 C364 1.264 . S
C388 C381 1.403 . S
C388 C389 1.399 . S
C388 H394 0.929 . S
C389 C369 1.449 . S
C389 C388 1.399 . S
C389 H395 0.930 . S
H390 C370 0.931 . S
H391 C371 0.930 . S
H392 C379 0.931 . S
H393 C380 0.929 . S
H394 C388 0.929 . S
H395 C389 0.930 . S
Mn396 O401 2.095 . S
Mn396 O411 2.162 . S
Mn396 O412 2.297 . S
Mn396 O420 2.385 . S
Mn396 O421 2.209 . S
Mn396 O422 2.094 . S
Mn397 O402 2.121 . S
Mn397 N404 2.257 . S
Mn397 N413 2.282 . S
Mn397 O421 2.215 . S
Mn397 O423 2.117 . S
C398 O420 1.234 . S
C398 O421 1.283 . S
C399 O411 1.281 . S
C399 O412 1.236 . S
C400 O422 1.240 . S
C400 O423 1.264 . S
O401 Mn396 2.095 . S
O401 C410 1.250 . S
O402 Mn397 2.121 . S
O402 C410 1.258 . S
C403 N404 1.326 . S
C403 C407 1.460 . S
C403 H409 0.929 . S
N404 Mn397 2.257 . S
N404 C403 1.326 . S
N404 C408 1.362 . S
C405 C406 1.258 . S
C405 C408 1.431 . S
C405 C425 1.449 . S
C406 C405 1.258 . S
C406 C407 1.477 . S
C406 H426 0.931 . S
C407 C403 1.460 . S
C407 C406 1.477 . S
C407 H427 0.930 . S
C408 N404 1.362 . S
C408 C405 1.431 . S
C408 C418 1.476 . S
H409 C403 0.929 . S
C410 O401 1.250 . S
C410 O402 1.258 . S
O411 Mn396 2.162 . S
O411 C399 1.281 . S
O412 Mn396 2.297 . S
O412 C399 1.236 . S
N413 Mn397 2.282 . S
N413 C414 1.328 . S
N413 C418 1.318 . S
C414 N413 1.328 . S
C414 C415 1.457 . S
C414 H419 0.929 . S
C415 C414 1.457 . S
C415 C416 1.291 . S
C415 H428 0.931 . S
C416 C415 1.291 . S
C416 C417 1.373 . S
C416 H429 0.929 . S
C417 C416 1.373 . S
C417 C418 1.396 . S
C417 C424 1.403 . S
C418 C408 1.476 . S
C418 N413 1.318 . S
C418 C417 1.396 . S
H419 C414 0.929 . S
O420 Mn396 2.385 . S
O420 C398 1.234 . S
O421 Mn396 2.209 . S
O421 Mn397 2.215 . S
O421 C398 1.283 . S
O422 Mn396 2.094 . S
O422 C400 1.240 . S
O423 Mn397 2.117 . S
O423 C400 1.264 . S
C424 C417 1.403 . S
C424 C425 1.399 . S
C424 H430 0.929 . S
C425 C405 1.449 . S
C425 C424 1.399 . S
C425 H431 0.930 . S
H426 C406 0.931 . S
H427 C407 0.930 . S
H428 C415 0.931 . S
H429 C416 0.929 . S
H430 C424 0.929 . S
H431 C425 0.930 . S
Mn432 O437 2.095 . S
Mn432 O447 2.162 . S
Mn432 O448 2.297 . S
Mn432 O456 2.385 . S
Mn432 O457 2.209 . S
Mn432 O458 2.094 . S
Mn433 O438 2.121 . S
Mn433 N440 2.257 . S
Mn433 N449 2.282 . S
Mn433 O457 2.215 . S
Mn433 O459 2.117 . S
C434 O456 1.234 . S
C434 O457 1.283 . S
C435 O447 1.281 . S
C435 O448 1.236 . S
C436 O458 1.240 . S
C436 O459 1.264 . S
O437 Mn432 2.095 . S
O437 C446 1.250 . S
O438 Mn433 2.121 . S
O438 C446 1.258 . S
C439 N440 1.326 . S
C439 C443 1.460 . S
C439 H445 0.929 . S
N440 Mn433 2.257 . S
N440 C439 1.326 . S
N440 C444 1.362 . S
C441 C442 1.258 . S
C441 C444 1.431 . S
C441 C461 1.449 . S
C442 C441 1.258 . S
C442 C443 1.477 . S
C442 H462 0.931 . S
C443 C439 1.460 . S
C443 C442 1.477 . S
C443 H463 0.930 . S
C444 N440 1.362 . S
C444 C441 1.431 . S
C444 C454 1.476 . S
H445 C439 0.929 . S
C446 O437 1.250 . S
C446 O438 1.258 . S
O447 Mn432 2.162 . S
O447 C435 1.281 . S
O448 Mn432 2.297 . S
O448 C435 1.236 . S
N449 Mn433 2.282 . S
N449 C450 1.328 . S
N449 C454 1.318 . S
C450 N449 1.328 . S
C450 C451 1.457 . S
C450 H455 0.929 . S
C451 C450 1.457 . S
C451 C452 1.291 . S
C451 H464 0.931 . S
C452 C451 1.291 . S
C452 C453 1.373 . S
C452 H465 0.929 . S
C453 C452 1.373 . S
C453 C454 1.396 . S
C453 C460 1.403 . S
C454 C444 1.476 . S
C454 N449 1.318 . S
C454 C453 1.396 . S
H455 C450 0.929 . S
O456 Mn432 2.385 . S
O456 C434 1.234 . S
O457 Mn432 2.209 . S
O457 Mn433 2.215 . S
O457 C434 1.283 . S
O458 Mn432 2.094 . S
O458 C436 1.240 . S
O459 Mn433 2.117 . S
O459 C436 1.264 . S
C460 C453 1.403 . S
C460 C461 1.399 . S
C460 H466 0.929 . S
C461 C441 1.449 . S
C461 C460 1.399 . S
C461 H467 0.930 . S
H462 C442 0.931 . S
H463 C443 0.930 . S
H464 C451 0.931 . S
H465 C452 0.929 . S
H466 C460 0.929 . S
H467 C461 0.930 . S
Mn468 O473 2.095 . S
Mn468 O483 2.162 . S
Mn468 O484 2.297 . S
Mn468 O492 2.385 . S
Mn468 O493 2.209 . S
Mn468 O494 2.094 . S
Mn469 O474 2.121 . S
Mn469 N476 2.257 . S
Mn469 N485 2.282 . S
Mn469 O493 2.215 . S
Mn469 O495 2.117 . S
C470 O492 1.234 . S
C470 O493 1.283 . S
C471 O483 1.281 . S
C471 O484 1.236 . S
C472 O494 1.240 . S
C472 O495 1.264 . S
O473 Mn468 2.095 . S
O473 C482 1.250 . S
O474 Mn469 2.121 . S
O474 C482 1.258 . S
C475 N476 1.326 . S
C475 C479 1.460 . S
C475 H481 0.929 . S
N476 Mn469 2.257 . S
N476 C475 1.326 . S
N476 C480 1.362 . S
C477 C478 1.258 . S
C477 C480 1.431 . S
C477 C497 1.449 . S
C478 C477 1.258 . S
C478 C479 1.477 . S
C478 H498 0.931 . S
C479 C475 1.460 . S
C479 C478 1.477 . S
C479 H499 0.930 . S
C480 N476 1.362 . S
C480 C477 1.431 . S
C480 C490 1.476 . S
H481 C475 0.929 . S
C482 O473 1.250 . S
C482 O474 1.258 . S
O483 Mn468 2.162 . S
O483 C471 1.281 . S
O484 Mn468 2.297 . S
O484 C471 1.236 . S
N485 Mn469 2.282 . S
N485 C486 1.328 . S
N485 C490 1.318 . S
C486 N485 1.328 . S
C486 C487 1.457 . S
C486 H491 0.929 . S
C487 C486 1.457 . S
C487 C488 1.291 . S
C487 H500 0.931 . S
C488 C487 1.291 . S
C488 C489 1.373 . S
C488 H501 0.929 . S
C489 C488 1.373 . S
C489 C490 1.396 . S
C489 C496 1.403 . S
C490 C480 1.476 . S
C490 N485 1.318 . S
C490 C489 1.396 . S
H491 C486 0.929 . S
O492 Mn468 2.385 . S
O492 C470 1.234 . S
O493 Mn468 2.209 . S
O493 Mn469 2.215 . S
O493 C470 1.283 . S
O494 Mn468 2.094 . S
O494 C472 1.240 . S
O495 Mn469 2.117 . S
O495 C472 1.264 . S
C496 C489 1.403 . S
C496 C497 1.399 . S
C496 H502 0.929 . S
C497 C477 1.449 . S
C497 C496 1.399 . S
C497 H503 0.930 . S
H498 C478 0.931 . S
H499 C479 0.930 . S
H500 C487 0.931 . S
H501 C488 0.929 . S
H502 C496 0.929 . S
H503 C497 0.930 . S
Mn504 O509 2.095 . S
Mn504 O519 2.162 . S
Mn504 O520 2.297 . S
Mn504 O528 2.385 . S
Mn504 O529 2.209 . S
Mn504 O530 2.094 . S
Mn505 O510 2.121 . S
Mn505 N512 2.257 . S
Mn505 N521 2.282 . S
Mn505 O529 2.215 . S
Mn505 O531 2.117 . S
C506 O528 1.234 . S
C506 O529 1.283 . S
C507 O519 1.281 . S
C507 O520 1.236 . S
C508 O530 1.240 . S
C508 O531 1.264 . S
O509 Mn504 2.095 . S
O509 C518 1.250 . S
O510 Mn505 2.121 . S
O510 C518 1.258 . S
C511 N512 1.326 . S
C511 C515 1.460 . S
C511 H517 0.929 . S
N512 Mn505 2.257 . S
N512 C511 1.326 . S
N512 C516 1.362 . S
C513 C514 1.258 . S
C513 C516 1.431 . S
C513 C533 1.449 . S
C514 C513 1.258 . S
C514 C515 1.477 . S
C514 H534 0.931 . S
C515 C511 1.460 . S
C515 C514 1.477 . S
C515 H535 0.930 . S
C516 N512 1.362 . S
C516 C513 1.431 . S
C516 C526 1.476 . S
H517 C511 0.929 . S
C518 O509 1.250 . S
C518 O510 1.258 . S
O519 Mn504 2.162 . S
O519 C507 1.281 . S
O520 Mn504 2.297 . S
O520 C507 1.236 . S
N521 Mn505 2.282 . S
N521 C522 1.328 . S
N521 C526 1.318 . S
C522 N521 1.328 . S
C522 C523 1.457 . S
C522 H527 0.929 . S
C523 C522 1.457 . S
C523 C524 1.291 . S
C523 H536 0.931 . S
C524 C523 1.291 . S
C524 C525 1.373 . S
C524 H537 0.929 . S
C525 C524 1.373 . S
C525 C526 1.396 . S
C525 C532 1.403 . S
C526 C516 1.476 . S
C526 N521 1.318 . S
C526 C525 1.396 . S
H527 C522 0.929 . S
O528 Mn504 2.385 . S
O528 C506 1.234 . S
O529 Mn504 2.209 . S
O529 Mn505 2.215 . S
O529 C506 1.283 . S
O530 Mn504 2.094 . S
O530 C508 1.240 . S
O531 Mn505 2.117 . S
O531 C508 1.264 . S
C532 C525 1.403 . S
C532 C533 1.399 . S
C532 H538 0.929 . S
C533 C513 1.449 . S
C533 C532 1.399 . S
C533 H539 0.930 . S
H534 C514 0.931 . S
H535 C515 0.930 . S
H536 C523 0.931 . S
H537 C524 0.929 . S
H538 C532 0.929 . S
H539 C533 0.930 . S
Mn540 O545 2.095 . S
Mn540 O555 2.162 . S
Mn540 O556 2.297 . S
Mn540 O564 2.385 . S
Mn540 O565 2.209 . S
Mn540 O566 2.094 . S
Mn541 O546 2.121 . S
Mn541 N548 2.257 . S
Mn541 N557 2.282 . S
Mn541 O565 2.215 . S
Mn541 O567 2.117 . S
C542 O564 1.234 . S
C542 O565 1.283 . S
C543 O555 1.281 . S
C543 O556 1.236 . S
C544 O566 1.240 . S
C544 O567 1.264 . S
O545 Mn540 2.095 . S
O545 C554 1.250 . S
O546 Mn541 2.121 . S
O546 C554 1.258 . S
C547 N548 1.326 . S
C547 C551 1.460 . S
C547 H553 0.929 . S
N548 Mn541 2.257 . S
N548 C547 1.326 . S
N548 C552 1.362 . S
C549 C550 1.258 . S
C549 C552 1.431 . S
C549 C569 1.449 . S
C550 C549 1.258 . S
C550 C551 1.477 . S
C550 H570 0.931 . S
C551 C547 1.460 . S
C551 C550 1.477 . S
C551 H571 0.930 . S
C552 N548 1.362 . S
C552 C549 1.431 . S
C552 C562 1.476 . S
H553 C547 0.929 . S
C554 O545 1.250 . S
C554 O546 1.258 . S
O555 Mn540 2.162 . S
O555 C543 1.281 . S
O556 Mn540 2.297 . S
O556 C543 1.236 . S
N557 Mn541 2.282 . S
N557 C558 1.328 . S
N557 C562 1.318 . S
C558 N557 1.328 . S
C558 C559 1.457 . S
C558 H563 0.929 . S
C559 C558 1.457 . S
C559 C560 1.291 . S
C559 H572 0.931 . S
C560 C559 1.291 . S
C560 C561 1.373 . S
C560 H573 0.929 . S
C561 C560 1.373 . S
C561 C562 1.396 . S
C561 C568 1.403 . S
C562 C552 1.476 . S
C562 N557 1.318 . S
C562 C561 1.396 . S
H563 C558 0.929 . S
O564 Mn540 2.385 . S
O564 C542 1.234 . S
O565 Mn540 2.209 . S
O565 Mn541 2.215 . S
O565 C542 1.283 . S
O566 Mn540 2.094 . S
O566 C544 1.240 . S
O567 Mn541 2.117 . S
O567 C544 1.264 . S
C568 C561 1.403 . S
C568 C569 1.399 . S
C568 H574 0.929 . S
C569 C549 1.449 . S
C569 C568 1.399 . S
C569 H575 0.930 . S
H570 C550 0.931 . S
H571 C551 0.930 . S
H572 C559 0.931 . S
H573 C560 0.929 . S
H574 C568 0.929 . S
H575 C569 0.930 . S
C576 C577 1.349 . S
C576 C578 1.327 . S
C576 H601 0.950 . S
C577 C576 1.349 . S
C577 C593 1.349 . S
C578 C576 1.327 . S
C578 C597 1.429 . S
C578 H602 0.950 . S
C579 C596 1.574 1_455 S
C579 C598 1.368 . S
C579 H603 0.949 . S
H580 C584 0.949 . S
C581 C582 1.349 . S
C581 C583 1.327 . S
C581 H604 0.950 . S
C582 C581 1.349 . S
C582 C594 1.349 . S
C583 C581 1.327 . S
C583 C599 1.429 . S
C583 H605 0.950 . S
C584 H580 0.949 . S
C584 C592 1.574 1_655 S
C584 C600 1.368 . S
H585 C593 0.950 . S
H586 C591 0.950 . S
H587 C592 0.949 . S
H588 C594 0.950 . S
H589 C595 0.950 . S
H590 C596 0.949 . S
C591 H586 0.950 . S
C591 C593 1.327 . S
C591 C597 1.429 . S
C592 C584 1.574 1_455 S
C592 H587 0.949 . S
C592 C598 1.368 . S
C593 C577 1.349 . S
C593 H585 0.950 . S
C593 C591 1.327 . S
C594 C582 1.349 . S
C594 H588 0.950 . S
C594 C595 1.327 . S
C595 H589 0.950 . S
C595 C594 1.327 . S
C595 C599 1.429 . S
C596 C579 1.574 1_655 S
C596 H590 0.949 . S
C596 C600 1.368 . S
C597 C578 1.429 . S
C597 C591 1.429 . S
C597 C598 1.523 . S
C598 C579 1.368 . S
C598 C592 1.368 . S
C598 C597 1.523 . S
C599 C583 1.429 . S
C599 C595 1.429 . S
C599 C600 1.523 . S
C600 C584 1.368 . S
C600 C596 1.368 . S
C600 C599 1.523 . S
H601 C576 0.950 . S
H602 C578 0.950 . S
H603 C579 0.949 . S
H604 C581 0.950 . S
H605 C583 0.950 . S
C606 C607 1.349 . S
C606 C608 1.327 . S
C606 H631 0.950 . S
C607 C606 1.349 . S
C607 C623 1.349 . S
C608 C606 1.327 . S
C608 C627 1.429 . S
C608 H632 0.950 . S
C609 C626 1.574 1_655 S
C609 C628 1.368 . S
C609 H633 0.949 . S
H610 C614 0.949 . S
C611 C612 1.349 . S
C611 C613 1.327 . S
C611 H634 0.950 . S
C612 C611 1.349 . S
C612 C624 1.349 . S
C613 C611 1.327 . S
C613 C629 1.429 . S
C613 H635 0.950 . S
C614 H610 0.949 . S
C614 C622 1.574 1_455 S
C614 C630 1.368 . S
H615 C623 0.950 . S
H616 C621 0.950 . S
H617 C622 0.949 . S
H618 C624 0.950 . S
H619 C625 0.950 . S
H620 C626 0.949 . S
C621 H616 0.950 . S
C621 C623 1.327 . S
C621 C627 1.429 . S
C622 C614 1.574 1_655 S
C622 H617 0.949 . S
C622 C628 1.368 . S
C623 C607 1.349 . S
C623 H615 0.950 . S
C623 C621 1.327 . S
C624 C612 1.349 . S
C624 H618 0.950 . S
C624 C625 1.327 . S
C625 H619 0.950 . S
C625 C624 1.327 . S
C625 C629 1.429 . S
C626 C609 1.574 1_455 S
C626 H620 0.949 . S
C626 C630 1.368 . S
C627 C608 1.429 . S
C627 C621 1.429 . S
C627 C628 1.523 . S
C628 C609 1.368 . S
C628 C622 1.368 . S
C628 C627 1.523 . S
C629 C613 1.429 . S
C629 C625 1.429 . S
C629 C630 1.523 . S
C630 C614 1.368 . S
C630 C626 1.368 . S
C630 C629 1.523 . S
H631 C606 0.950 . S
H632 C608 0.950 . S
H633 C609 0.949 . S
H634 C611 0.950 . S
H635 C613 0.950 . S
C636 C637 1.349 . S
C636 C638 1.327 . S
C636 H661 0.950 . S
C637 C636 1.349 . S
C637 C653 1.349 . S
C638 C636 1.327 . S
C638 C657 1.429 . S
C638 H662 0.950 . S
C639 C656 1.574 1_655 S
C639 C658 1.368 . S
C639 H663 0.949 . S
H640 C644 0.949 . S
C641 C642 1.349 . S
C641 C643 1.327 . S
C641 H664 0.950 . S
C642 C641 1.349 . S
C642 C654 1.349 . S
C643 C641 1.327 . S
C643 C659 1.429 . S
C643 H665 0.950 . S
C644 H640 0.949 . S
C644 C652 1.574 1_455 S
C644 C660 1.368 . S
H645 C653 0.950 . S
H646 C651 0.950 . S
H647 C652 0.949 . S
H648 C654 0.950 . S
H649 C655 0.950 . S
H650 C656 0.949 . S
C651 H646 0.950 . S
C651 C653 1.327 . S
C651 C657 1.429 . S
C652 C644 1.574 1_655 S
C652 H647 0.949 . S
C652 C658 1.368 . S
C653 C637 1.349 . S
C653 H645 0.950 . S
C653 C651 1.327 . S
C654 C642 1.349 . S
C654 H648 0.950 . S
C654 C655 1.327 . S
C655 H649 0.950 . S
C655 C654 1.327 . S
C655 C659 1.429 . S
C656 C639 1.574 1_455 S
C656 H650 0.949 . S
C656 C660 1.368 . S
C657 C638 1.429 . S
C657 C651 1.429 . S
C657 C658 1.523 . S
C658 C639 1.368 . S
C658 C652 1.368 . S
C658 C657 1.523 . S
C659 C643 1.429 . S
C659 C655 1.429 . S
C659 C660 1.523 . S
C660 C644 1.368 . S
C660 C656 1.368 . S
C660 C659 1.523 . S
H661 C636 0.950 . S
H662 C638 0.950 . S
H663 C639 0.949 . S
H664 C641 0.950 . S
H665 C643 0.950 . S
C666 C667 1.349 . S
C666 C668 1.327 . S
C666 H691 0.950 . S
C667 C666 1.349 . S
C667 C683 1.349 . S
C668 C666 1.327 . S
C668 C687 1.429 . S
C668 H692 0.950 . S
C669 C686 1.574 1_455 S
C669 C688 1.368 . S
C669 H693 0.949 . S
H670 C674 0.949 . S
C671 C672 1.349 . S
C671 C673 1.327 . S
C671 H694 0.950 . S
C672 C671 1.349 . S
C672 C684 1.349 . S
C673 C671 1.327 . S
C673 C689 1.429 . S
C673 H695 0.950 . S
C674 H670 0.949 . S
C674 C682 1.574 1_655 S
C674 C690 1.368 . S
H675 C683 0.950 . S
H676 C681 0.950 . S
H677 C682 0.949 . S
H678 C684 0.950 . S
H679 C685 0.950 . S
H680 C686 0.949 . S
C681 H676 0.950 . S
C681 C683 1.327 . S
C681 C687 1.429 . S
C682 C674 1.574 1_455 S
C682 H677 0.949 . S
C682 C688 1.368 . S
C683 C667 1.349 . S
C683 H675 0.950 . S
C683 C681 1.327 . S
C684 C672 1.349 . S
C684 H678 0.950 . S
C684 C685 1.327 . S
C685 H679 0.950 . S
C685 C684 1.327 . S
C685 C689 1.429 . S
C686 C669 1.574 1_655 S
C686 H680 0.949 . S
C686 C690 1.368 . S
C687 C668 1.429 . S
C687 C681 1.429 . S
C687 C688 1.523 . S
C688 C669 1.368 . S
C688 C682 1.368 . S
C688 C687 1.523 . S
C689 C673 1.429 . S
C689 C685 1.429 . S
C689 C690 1.523 . S
C690 C674 1.368 . S
C690 C686 1.368 . S
C690 C689 1.523 . S
H691 C666 0.950 . S
H692 C668 0.950 . S
H693 C669 0.949 . S
H694 C671 0.950 . S
H695 C673 0.950 . S
C696 C697 1.349 . S
C696 C698 1.327 . S
C696 H721 0.950 . S
C697 C696 1.349 . S
C697 C713 1.349 . S
C698 C696 1.327 . S
C698 C717 1.429 . S
C698 H722 0.950 . S
C699 C716 1.574 . S
C699 C718 1.368 . S
C699 H723 0.949 . S
H700 C704 0.949 . S
C701 C702 1.349 . S
C701 C703 1.327 . S
C701 H724 0.950 . S
C702 C701 1.349 . S
C702 C714 1.349 . S
C703 C701 1.327 . S
C703 C719 1.429 . S
C703 H725 0.950 . S
C704 H700 0.949 . S
C704 C712 1.574 . S
C704 C720 1.368 . S
H705 C713 0.950 . S
H706 C711 0.950 . S
H707 C712 0.949 . S
H708 C714 0.950 . S
H709 C715 0.950 . S
H710 C716 0.949 . S
C711 H706 0.950 . S
C711 C713 1.327 . S
C711 C717 1.429 . S
C712 C704 1.574 . S
C712 H707 0.949 . S
C712 C718 1.368 . S
C713 C697 1.349 . S
C713 H705 0.950 . S
C713 C711 1.327 . S
C714 C702 1.349 . S
C714 H708 0.950 . S
C714 C715 1.327 . S
C715 H709 0.950 . S
C715 C714 1.327 . S
C715 C719 1.429 . S
C716 C699 1.574 . S
C716 H710 0.949 . S
C716 C720 1.368 . S
C717 C698 1.429 . S
C717 C711 1.429 . S
C717 C718 1.523 . S
C718 C699 1.368 . S
C718 C712 1.368 . S
C718 C717 1.523 . S
C719 C703 1.429 . S
C719 C715 1.429 . S
C719 C720 1.523 . S
C720 C704 1.368 . S
C720 C716 1.368 . S
C720 C719 1.523 . S
H721 C696 0.950 . S
H722 C698 0.950 . S
H723 C699 0.949 . S
H724 C701 0.950 . S
H725 C703 0.950 . S
C726 C727 1.349 . S
C726 C728 1.327 . S
C726 H751 0.950 . S
C727 C726 1.349 . S
C727 C743 1.349 . S
C728 C726 1.327 . S
C728 C747 1.429 . S
C728 H752 0.950 . S
C729 C746 1.574 . S
C729 C748 1.368 . S
C729 H753 0.949 . S
H730 C734 0.949 . S
C731 C732 1.349 . S
C731 C733 1.327 . S
C731 H754 0.950 . S
C732 C731 1.349 . S
C732 C744 1.349 . S
C733 C731 1.327 . S
C733 C749 1.429 . S
C733 H755 0.950 . S
C734 H730 0.949 . S
C734 C742 1.574 . S
C734 C750 1.368 . S
H735 C743 0.950 . S
H736 C741 0.950 . S
H737 C742 0.949 . S
H738 C744 0.950 . S
H739 C745 0.950 . S
H740 C746 0.949 . S
C741 H736 0.950 . S
C741 C743 1.327 . S
C741 C747 1.429 . S
C742 C734 1.574 . S
C742 H737 0.949 . S
C742 C748 1.368 . S
C743 C727 1.349 . S
C743 H735 0.950 . S
C743 C741 1.327 . S
C744 C732 1.349 . S
C744 H738 0.950 . S
C744 C745 1.327 . S
C745 H739 0.950 . S
C745 C744 1.327 . S
C745 C749 1.429 . S
C746 C729 1.574 . S
C746 H740 0.949 . S
C746 C750 1.368 . S
C747 C728 1.429 . S
C747 C741 1.429 . S
C747 C748 1.523 . S
C748 C729 1.368 . S
C748 C742 1.368 . S
C748 C747 1.523 . S
C749 C733 1.429 . S
C749 C745 1.429 . S
C749 C750 1.523 . S
C750 C734 1.368 . S
C750 C746 1.368 . S
C750 C749 1.523 . S
H751 C726 0.950 . S
H752 C728 0.950 . S
H753 C729 0.949 . S
H754 C731 0.950 . S
H755 C733 0.950 . S
C756 C757 1.349 . S
C756 C758 1.327 . S
C756 H781 0.950 . S
C757 C756 1.349 . S
C757 C773 1.349 . S
C758 C756 1.327 . S
C758 C777 1.429 . S
C758 H782 0.950 . S
C759 C776 1.574 . S
C759 C778 1.368 . S
C759 H783 0.949 . S
H760 C764 0.949 . S
C761 C762 1.349 . S
C761 C763 1.327 . S
C761 H784 0.950 . S
C762 C761 1.349 . S
C762 C774 1.349 . S
C763 C761 1.327 . S
C763 C779 1.429 . S
C763 H785 0.950 . S
C764 H760 0.949 . S
C764 C772 1.574 . S
C764 C780 1.368 . S
H765 C773 0.950 . S
H766 C771 0.950 . S
H767 C772 0.949 . S
H768 C774 0.950 . S
H769 C775 0.950 . S
H770 C776 0.949 . S
C771 H766 0.950 . S
C771 C773 1.327 . S
C771 C777 1.429 . S
C772 C764 1.574 . S
C772 H767 0.949 . S
C772 C778 1.368 . S
C773 C757 1.349 . S
C773 H765 0.950 . S
C773 C771 1.327 . S
C774 C762 1.349 . S
C774 H768 0.950 . S
C774 C775 1.327 . S
C775 H769 0.950 . S
C775 C774 1.327 . S
C775 C779 1.429 . S
C776 C759 1.574 . S
C776 H770 0.949 . S
C776 C780 1.368 . S
C777 C758 1.429 . S
C777 C771 1.429 . S
C777 C778 1.523 . S
C778 C759 1.368 . S
C778 C772 1.368 . S
C778 C777 1.523 . S
C779 C763 1.429 . S
C779 C775 1.429 . S
C779 C780 1.523 . S
C780 C764 1.368 . S
C780 C776 1.368 . S
C780 C779 1.523 . S
H781 C756 0.950 . S
H782 C758 0.950 . S
H783 C759 0.949 . S
H784 C761 0.950 . S
H785 C763 0.950 . S
C786 C787 1.349 . S
C786 C788 1.327 . S
C786 H811 0.950 . S
C787 C786 1.349 . S
C787 C803 1.349 . S
C788 C786 1.327 . S
C788 C807 1.429 . S
C788 H812 0.950 . S
C789 C806 1.574 . S
C789 C808 1.368 . S
C789 H813 0.949 . S
H790 C794 0.949 . S
C791 C792 1.349 . S
C791 C793 1.327 . S
C791 H814 0.950 . S
C792 C791 1.349 . S
C792 C804 1.349 . S
C793 C791 1.327 . S
C793 C809 1.429 . S
C793 H815 0.950 . S
C794 H790 0.949 . S
C794 C802 1.574 . S
C794 C810 1.368 . S
H795 C803 0.950 . S
H796 C801 0.950 . S
H797 C802 0.949 . S
H798 C804 0.950 . S
H799 C805 0.950 . S
H800 C806 0.949 . S
C801 H796 0.950 . S
C801 C803 1.327 . S
C801 C807 1.429 . S
C802 C794 1.574 . S
C802 H797 0.949 . S
C802 C808 1.368 . S
C803 C787 1.349 . S
C803 H795 0.950 . S
C803 C801 1.327 . S
C804 C792 1.349 . S
C804 H798 0.950 . S
C804 C805 1.327 . S
C805 H799 0.950 . S
C805 C804 1.327 . S
C805 C809 1.429 . S
C806 C789 1.574 . S
C806 H800 0.949 . S
C806 C810 1.368 . S
C807 C788 1.429 . S
C807 C801 1.429 . S
C807 C808 1.523 . S
C808 C789 1.368 . S
C808 C802 1.368 . S
C808 C807 1.523 . S
C809 C793 1.429 . S
C809 C805 1.429 . S
C809 C810 1.523 . S
C810 C794 1.368 . S
C810 C806 1.368 . S
C810 C809 1.523 . S
H811 C786 0.950 . S
H812 C788 0.950 . S
H813 C789 0.949 . S
H814 C791 0.950 . S
H815 C793 0.950 . S
C816 C817 1.349 . S
C816 C818 1.327 . S
C816 H841 0.950 . S
C817 C816 1.349 . S
C817 C833 1.349 . S
C818 C816 1.327 . S
C818 C837 1.429 . S
C818 H842 0.950 . S
C819 C836 1.574 . S
C819 C838 1.368 . S
C819 H843 0.949 . S
H820 C824 0.949 . S
C821 C822 1.349 . S
C821 C823 1.327 . S
C821 H844 0.950 . S
C822 C821 1.349 . S
C822 C834 1.349 . S
C823 C821 1.327 . S
C823 C839 1.429 . S
C823 H845 0.950 . S
C824 H820 0.949 . S
C824 C832 1.574 . S
C824 C840 1.368 . S
H825 C833 0.950 . S
H826 C831 0.950 . S
H827 C832 0.949 . S
H828 C834 0.950 . S
H829 C835 0.950 . S
H830 C836 0.949 . S
C831 H826 0.950 . S
C831 C833 1.327 . S
C831 C837 1.429 . S
C832 C824 1.574 . S
C832 H827 0.949 . S
C832 C838 1.368 . S
C833 C817 1.349 . S
C833 H825 0.950 . S
C833 C831 1.327 . S
C834 C822 1.349 . S
C834 H828 0.950 . S
C834 C835 1.327 . S
C835 H829 0.950 . S
C835 C834 1.327 . S
C835 C839 1.429 . S
C836 C819 1.574 . S
C836 H830 0.949 . S
C836 C840 1.368 . S
C837 C818 1.429 . S
C837 C831 1.429 . S
C837 C838 1.523 . S
C838 C819 1.368 . S
C838 C832 1.368 . S
C838 C837 1.523 . S
C839 C823 1.429 . S
C839 C835 1.429 . S
C839 C840 1.523 . S
C840 C824 1.368 . S
C840 C836 1.368 . S
C840 C839 1.523 . S
H841 C816 0.950 . S
H842 C818 0.950 . S
H843 C819 0.949 . S
H844 C821 0.950 . S
H845 C823 0.950 . S
C846 C847 1.349 . S
C846 C848 1.327 . S
C846 H871 0.950 . S
C847 C846 1.349 . S
C847 C863 1.349 . S
C848 C846 1.327 . S
C848 C867 1.429 . S
C848 H872 0.950 . S
C849 C866 1.574 . S
C849 C868 1.368 . S
C849 H873 0.949 . S
H850 C854 0.949 . S
C851 C852 1.349 . S
C851 C853 1.327 . S
C851 H874 0.950 . S
C852 C851 1.349 . S
C852 C864 1.349 . S
C853 C851 1.327 . S
C853 C869 1.429 . S
C853 H875 0.950 . S
C854 H850 0.949 . S
C854 C862 1.574 . S
C854 C870 1.368 . S
H855 C863 0.950 . S
H856 C861 0.950 . S
H857 C862 0.949 . S
H858 C864 0.950 . S
H859 C865 0.950 . S
H860 C866 0.949 . S
C861 H856 0.950 . S
C861 C863 1.327 . S
C861 C867 1.429 . S
C862 C854 1.574 . S
C862 H857 0.949 . S
C862 C868 1.368 . S
C863 C847 1.349 . S
C863 H855 0.950 . S
C863 C861 1.327 . S
C864 C852 1.349 . S
C864 H858 0.950 . S
C864 C865 1.327 . S
C865 H859 0.950 . S
C865 C864 1.327 . S
C865 C869 1.429 . S
C866 C849 1.574 . S
C866 H860 0.949 . S
C866 C870 1.368 . S
C867 C848 1.429 . S
C867 C861 1.429 . S
C867 C868 1.523 . S
C868 C849 1.368 . S
C868 C862 1.368 . S
C868 C867 1.523 . S
C869 C853 1.429 . S
C869 C865 1.429 . S
C869 C870 1.523 . S
C870 C854 1.368 . S
C870 C866 1.368 . S
C870 C869 1.523 . S
H871 C846 0.950 . S
H872 C848 0.950 . S
H873 C849 0.949 . S
H874 C851 0.950 . S
H875 C853 0.950 . S
C876 C877 1.349 . S
C876 C878 1.327 . S
C876 H901 0.950 . S
C877 C876 1.349 . S
C877 C893 1.349 . S
C878 C876 1.327 . S
C878 C897 1.429 . S
C878 H902 0.950 . S
C879 C896 1.574 . S
C879 C898 1.368 . S
C879 H903 0.949 . S
H880 C884 0.949 . S
C881 C882 1.349 . S
C881 C883 1.327 . S
C881 H904 0.950 . S
C882 C881 1.349 . S
C882 C894 1.349 . S
C883 C881 1.327 . S
C883 C899 1.429 . S
C883 H905 0.950 . S
C884 H880 0.949 . S
C884 C892 1.574 . S
C884 C900 1.368 . S
H885 C893 0.950 . S
H886 C891 0.950 . S
H887 C892 0.949 . S
H888 C894 0.950 . S
H889 C895 0.950 . S
H890 C896 0.949 . S
C891 H886 0.950 . S
C891 C893 1.327 . S
C891 C897 1.429 . S
C892 C884 1.574 . S
C892 H887 0.949 . S
C892 C898 1.368 . S
C893 C877 1.349 . S
C893 H885 0.950 . S
C893 C891 1.327 . S
C894 C882 1.349 . S
C894 H888 0.950 . S
C894 C895 1.327 . S
C895 H889 0.950 . S
C895 C894 1.327 . S
C895 C899 1.429 . S
C896 C879 1.574 . S
C896 H890 0.949 . S
C896 C900 1.368 . S
C897 C878 1.429 . S
C897 C891 1.429 . S
C897 C898 1.523 . S
C898 C879 1.368 . S
C898 C892 1.368 . S
C898 C897 1.523 . S
C899 C883 1.429 . S
C899 C895 1.429 . S
C899 C900 1.523 . S
C900 C884 1.368 . S
C900 C896 1.368 . S
C900 C899 1.523 . S
H901 C876 0.950 . S
H902 C878 0.950 . S
H903 C879 0.949 . S
H904 C881 0.950 . S
H905 C883 0.950 . S
C906 C907 1.349 . S
C906 C908 1.327 . S
C906 H931 0.950 . S
C907 C906 1.349 . S
C907 C923 1.349 . S
C908 C906 1.327 . S
C908 C927 1.429 . S
C908 H932 0.950 . S
C909 C926 1.574 . S
C909 C928 1.368 . S
C909 H933 0.949 . S
H910 C914 0.949 . S
C911 C912 1.349 . S
C911 C913 1.327 . S
C911 H934 0.950 . S
C912 C911 1.349 . S
C912 C924 1.349 . S
C913 C911 1.327 . S
C913 C929 1.429 . S
C913 H935 0.950 . S
C914 H910 0.949 . S
C914 C922 1.574 . S
C914 C930 1.368 . S
H915 C923 0.950 . S
H916 C921 0.950 . S
H917 C922 0.949 . S
H918 C924 0.950 . S
H919 C925 0.950 . S
H920 C926 0.949 . S
C921 H916 0.950 . S
C921 C923 1.327 . S
C921 C927 1.429 . S
C922 C914 1.574 . S
C922 H917 0.949 . S
C922 C928 1.368 . S
C923 C907 1.349 . S
C923 H915 0.950 . S
C923 C921 1.327 . S
C924 C912 1.349 . S
C924 H918 0.950 . S
C924 C925 1.327 . S
C925 H919 0.950 . S
C925 C924 1.327 . S
C925 C929 1.429 . S
C926 C909 1.574 . S
C926 H920 0.949 . S
C926 C930 1.368 . S
C927 C908 1.429 . S
C927 C921 1.429 . S
C927 C928 1.523 . S
C928 C909 1.368 . S
C928 C922 1.368 . S
C928 C927 1.523 . S
C929 C913 1.429 . S
C929 C925 1.429 . S
C929 C930 1.523 . S
C930 C914 1.368 . S
C930 C926 1.368 . S
C930 C929 1.523 . S
H931 C906 0.950 . S
H932 C908 0.950 . S
H933 C909 0.949 . S
H934 C911 0.950 . S
H935 C913 0.950 . S
C936 C937 1.349 . S
C936 C938 1.327 . S
C936 H961 0.950 . S
C937 C936 1.349 . S
C937 C953 1.349 . S
C938 C936 1.327 . S
C938 C957 1.429 . S
C938 H962 0.950 . S
C939 C956 1.574 . S
C939 C958 1.368 . S
C939 H963 0.949 . S
H940 C944 0.949 . S
C941 C942 1.349 . S
C941 C943 1.327 . S
C941 H964 0.950 . S
C942 C941 1.349 . S
C942 C954 1.349 . S
C943 C941 1.327 . S
C943 C959 1.429 . S
C943 H965 0.950 . S
C944 H940 0.949 . S
C944 C952 1.574 . S
C944 C960 1.368 . S
H945 C953 0.950 . S
H946 C951 0.950 . S
H947 C952 0.949 . S
H948 C954 0.950 . S
H949 C955 0.950 . S
H950 C956 0.949 . S
C951 H946 0.950 . S
C951 C953 1.327 . S
C951 C957 1.429 . S
C952 C944 1.574 . S
C952 H947 0.949 . S
C952 C958 1.368 . S
C953 C937 1.349 . S
C953 H945 0.950 . S
C953 C951 1.327 . S
C954 C942 1.349 . S
C954 H948 0.950 . S
C954 C955 1.327 . S
C955 H949 0.950 . S
C955 C954 1.327 . S
C955 C959 1.429 . S
C956 C939 1.574 . S
C956 H950 0.949 . S
C956 C960 1.368 . S
C957 C938 1.429 . S
C957 C951 1.429 . S
C957 C958 1.523 . S
C958 C939 1.368 . S
C958 C952 1.368 . S
C958 C957 1.523 . S
C959 C943 1.429 . S
C959 C955 1.429 . S
C959 C960 1.523 . S
C960 C944 1.368 . S
C960 C956 1.368 . S
C960 C959 1.523 . S
H961 C936 0.950 . S
H962 C938 0.950 . S
H963 C939 0.949 . S
H964 C941 0.950 . S
H965 C943 0.950 . S
C966 C967 1.349 . S
C966 C968 1.327 . S
C966 H991 0.950 . S
C967 C966 1.349 . S
C967 C983 1.349 . S
C968 C966 1.327 . S
C968 C987 1.429 . S
C968 H992 0.950 . S
C969 C986 1.574 . S
C969 C988 1.368 . S
C969 H993 0.949 . S
H970 C974 0.949 . S
C971 C972 1.349 . S
C971 C973 1.327 . S
C971 H994 0.950 . S
C972 C971 1.349 . S
C972 C984 1.349 . S
C973 C971 1.327 . S
C973 C989 1.429 . S
C973 H995 0.950 . S
C974 H970 0.949 . S
C974 C982 1.574 . S
C974 C990 1.368 . S
H975 C983 0.950 . S
H976 C981 0.950 . S
H977 C982 0.949 . S
H978 C984 0.950 . S
H979 C985 0.950 . S
H980 C986 0.949 . S
C981 H976 0.950 . S
C981 C983 1.327 . S
C981 C987 1.429 . S
C982 C974 1.574 . S
C982 H977 0.949 . S
C982 C988 1.368 . S
C983 C967 1.349 . S
C983 H975 0.950 . S
C983 C981 1.327 . S
C984 C972 1.349 . S
C984 H978 0.950 . S
C984 C985 1.327 . S
C985 H979 0.950 . S
C985 C984 1.327 . S
C985 C989 1.429 . S
C986 C969 1.574 . S
C986 H980 0.949 . S
C986 C990 1.368 . S
C987 C968 1.429 . S
C987 C981 1.429 . S
C987 C988 1.523 . S
C988 C969 1.368 . S
C988 C982 1.368 . S
C988 C987 1.523 . S
C989 C973 1.429 . S
C989 C985 1.429 . S
C989 C990 1.523 . S
C990 C974 1.368 . S
C990 C986 1.368 . S
C990 C989 1.523 . S
H991 C966 0.950 . S
H992 C968 0.950 . S
H993 C969 0.949 . S
H994 C971 0.950 . S
H995 C973 0.950 . S
C996 C997 1.349 . S
C996 C998 1.327 . S
C996 H1021 0.950 . S
C997 C996 1.349 . S
C997 C1013 1.349 . S
C998 C996 1.327 . S
C998 C1017 1.429 . S
C998 H1022 0.950 . S
C999 C1016 1.574 . S
C999 C1018 1.368 . S
C999 H1023 0.949 . S
H1000 C1004 0.949 . S
C1001 C1002 1.349 . S
C1001 C1003 1.327 . S
C1001 H1024 0.950 . S
C1002 C1001 1.349 . S
C1002 C1014 1.349 . S
C1003 C1001 1.327 . S
C1003 C1019 1.429 . S
C1003 H1025 0.950 . S
C1004 H1000 0.949 . S
C1004 C1012 1.574 . S
C1004 C1020 1.368 . S
H1005 C1013 0.950 . S
H1006 C1011 0.950 . S
H1007 C1012 0.949 . S
H1008 C1014 0.950 . S
H1009 C1015 0.950 . S
H1010 C1016 0.949 . S
C1011 H1006 0.950 . S
C1011 C1013 1.327 . S
C1011 C1017 1.429 . S
C1012 C1004 1.574 . S
C1012 H1007 0.949 . S
C1012 C1018 1.368 . S
C1013 C997 1.349 . S
C1013 H1005 0.950 . S
C1013 C1011 1.327 . S
C1014 C1002 1.349 . S
C1014 H1008 0.950 . S
C1014 C1015 1.327 . S
C1015 H1009 0.950 . S
C1015 C1014 1.327 . S
C1015 C1019 1.429 . S
C1016 C999 1.574 . S
C1016 H1010 0.949 . S
C1016 C1020 1.368 . S
C1017 C998 1.429 . S
C1017 C1011 1.429 . S
C1017 C1018 1.523 . S
C1018 C999 1.368 . S
C1018 C1012 1.368 . S
C1018 C1017 1.523 . S
C1019 C1003 1.429 . S
C1019 C1015 1.429 . S
C1019 C1020 1.523 . S
C1020 C1004 1.368 . S
C1020 C1016 1.368 . S
C1020 C1019 1.523 . S
H1021 C996 0.950 . S
H1022 C998 0.950 . S
H1023 C999 0.949 . S
H1024 C1001 0.950 . S
H1025 C1003 0.950 . S
C1026 C1027 1.349 . S
C1026 C1028 1.327 . S
C1026 H1051 0.950 . S
C1027 C1026 1.349 . S
C1027 C1043 1.349 . S
C1028 C1026 1.327 . S
C1028 C1047 1.429 . S
C1028 H1052 0.950 . S
C1029 C1046 1.574 . S
C1029 C1048 1.368 . S
C1029 H1053 0.949 . S
H1030 C1034 0.949 . S
C1031 C1032 1.349 . S
C1031 C1033 1.327 . S
C1031 H1054 0.950 . S
C1032 C1031 1.349 . S
C1032 C1044 1.349 . S
C1033 C1031 1.327 . S
C1033 C1049 1.429 . S
C1033 H1055 0.950 . S
C1034 H1030 0.949 . S
C1034 C1042 1.574 . S
C1034 C1050 1.368 . S
H1035 C1043 0.950 . S
H1036 C1041 0.950 . S
H1037 C1042 0.949 . S
H1038 C1044 0.950 . S
H1039 C1045 0.950 . S
H1040 C1046 0.949 . S
C1041 H1036 0.950 . S
C1041 C1043 1.327 . S
C1041 C1047 1.429 . S
C1042 C1034 1.574 . S
C1042 H1037 0.949 . S
C1042 C1048 1.368 . S
C1043 C1027 1.349 . S
C1043 H1035 0.950 . S
C1043 C1041 1.327 . S
C1044 C1032 1.349 . S
C1044 H1038 0.950 . S
C1044 C1045 1.327 . S
C1045 H1039 0.950 . S
C1045 C1044 1.327 . S
C1045 C1049 1.429 . S
C1046 C1029 1.574 . S
C1046 H1040 0.949 . S
C1046 C1050 1.368 . S
C1047 C1028 1.429 . S
C1047 C1041 1.429 . S
C1047 C1048 1.523 . S
C1048 C1029 1.368 . S
C1048 C1042 1.368 . S
C1048 C1047 1.523 . S
C1049 C1033 1.429 . S
C1049 C1045 1.429 . S
C1049 C1050 1.523 . S
C1050 C1034 1.368 . S
C1050 C1046 1.368 . S
C1050 C1049 1.523 . S
H1051 C1026 0.950 . S
H1052 C1028 0.950 . S
H1053 C1029 0.949 . S
H1054 C1031 0.950 . S
H1055 C1033 0.950 . S
C1056 C1057 1.349 . S
C1056 C1058 1.327 . S
C1056 H1081 0.950 . S
C1057 C1056 1.349 . S
C1057 C1073 1.349 . S
C1058 C1056 1.327 . S
C1058 C1077 1.429 . S
C1058 H1082 0.950 . S
C1059 C1076 1.574 . S
C1059 C1078 1.368 1_554 S
C1059 H1083 0.949 . S
H1060 C1064 0.949 . S
C1061 C1062 1.349 . S
C1061 C1063 1.327 . S
C1061 H1084 0.950 . S
C1062 C1061 1.349 . S
C1062 C1074 1.349 . S
C1063 C1061 1.327 . S
C1063 C1079 1.429 . S
C1063 H1085 0.950 . S
C1064 H1060 0.949 . S
C1064 C1072 1.574 . S
C1064 C1080 1.368 1_556 S
H1065 C1073 0.950 . S
H1066 C1071 0.950 1_554 S
H1067 C1072 0.949 . S
H1068 C1074 0.950 . S
H1069 C1075 0.950 1_556 S
H1070 C1076 0.949 . S
C1071 H1066 0.950 1_556 S
C1071 C1073 1.327 . S
C1071 C1077 1.429 . S
C1072 C1064 1.574 . S
C1072 H1067 0.949 . S
C1072 C1078 1.368 . S
C1073 C1057 1.349 . S
C1073 H1065 0.950 . S
C1073 C1071 1.327 . S
C1074 C1062 1.349 . S
C1074 H1068 0.950 . S
C1074 C1075 1.327 . S
C1075 H1069 0.950 1_554 S
C1075 C1074 1.327 . S
C1075 C1079 1.429 . S
C1076 C1059 1.574 . S
C1076 H1070 0.949 . S
C1076 C1080 1.368 . S
C1077 C1058 1.429 . S
C1077 C1071 1.429 . S
C1077 C1078 1.523 . S
C1078 C1059 1.368 1_556 S
C1078 C1072 1.368 . S
C1078 C1077 1.523 . S
C1079 C1063 1.429 . S
C1079 C1075 1.429 . S
C1079 C1080 1.523 . S
C1080 C1064 1.368 1_554 S
C1080 C1076 1.368 . S
C1080 C1079 1.523 . S
H1081 C1056 0.950 . S
H1082 C1058 0.950 . S
H1083 C1059 0.949 . S
H1084 C1061 0.950 . S
H1085 C1063 0.950 . S
C1086 C1087 1.349 . S
C1086 C1088 1.327 . S
C1086 H1111 0.950 . S
C1087 C1086 1.349 . S
C1087 C1103 1.349 . S
C1088 C1086 1.327 . S
C1088 C1107 1.429 . S
C1088 H1112 0.950 . S
C1089 C1106 1.574 . S
C1089 C1108 1.368 . S
C1089 H1113 0.949 . S
H1090 C1094 0.949 . S
C1091 C1092 1.349 . S
C1091 C1093 1.327 . S
C1091 H1114 0.950 . S
C1092 C1091 1.349 . S
C1092 C1104 1.349 . S
C1093 C1091 1.327 . S
C1093 C1109 1.429 . S
C1093 H1115 0.950 . S
C1094 H1090 0.949 . S
C1094 C1102 1.574 . S
C1094 C1110 1.368 . S
H1095 C1103 0.950 . S
H1096 C1101 0.950 . S
H1097 C1102 0.949 . S
H1098 C1104 0.950 . S
H1099 C1105 0.950 . S
H1100 C1106 0.949 . S
C1101 H1096 0.950 . S
C1101 C1103 1.327 . S
C1101 C1107 1.429 . S
C1102 C1094 1.574 . S
C1102 H1097 0.949 . S
C1102 C1108 1.368 . S
C1103 C1087 1.349 . S
C1103 H1095 0.950 . S
C1103 C1101 1.327 . S
C1104 C1092 1.349 . S
C1104 H1098 0.950 . S
C1104 C1105 1.327 . S
C1105 H1099 0.950 . S
C1105 C1104 1.327 . S
C1105 C1109 1.429 . S
C1106 C1089 1.574 . S
C1106 H1100 0.949 . S
C1106 C1110 1.368 . S
C1107 C1088 1.429 . S
C1107 C1101 1.429 . S
C1107 C1108 1.523 . S
C1108 C1089 1.368 . S
C1108 C1102 1.368 . S
C1108 C1107 1.523 . S
C1109 C1093 1.429 . S
C1109 C1105 1.429 . S
C1109 C1110 1.523 . S
C1110 C1094 1.368 . S
C1110 C1106 1.368 . S
C1110 C1109 1.523 . S
H1111 C1086 0.950 . S
H1112 C1088 0.950 . S
H1113 C1089 0.949 . S
H1114 C1091 0.950 . S
H1115 C1093 0.950 . S
C1116 C1117 1.349 . S
C1116 C1118 1.327 . S
C1116 H1141 0.950 . S
C1117 C1116 1.349 . S
C1117 C1133 1.349 . S
C1118 C1116 1.327 . S
C1118 C1137 1.429 . S
C1118 H1142 0.950 1_554 S
C1119 C1136 1.574 . S
C1119 C1138 1.368 . S
C1119 H1143 0.949 . S
H1120 C1124 0.949 . S
C1121 C1122 1.349 . S
C1121 C1123 1.327 . S
C1121 H1144 0.950 . S
C1122 C1121 1.349 . S
C1122 C1134 1.349 . S
C1123 C1121 1.327 . S
C1123 C1139 1.429 . S
C1123 H1145 0.950 1_556 S
C1124 H1120 0.949 . S
C1124 C1132 1.574 . S
C1124 C1140 1.368 . S
H1125 C1133 0.950 . S
H1126 C1131 0.950 . S
H1127 C1132 0.949 . S
H1128 C1134 0.950 . S
H1129 C1135 0.950 . S
H1130 C1136 0.949 . S
C1131 H1126 0.950 . S
C1131 C1133 1.327 . S
C1131 C1137 1.429 . S
C1132 C1124 1.574 . S
C1132 H1127 0.949 . S
C1132 C1138 1.368 1_556 S
C1133 C1117 1.349 . S
C1133 H1125 0.950 . S
C1133 C1131 1.327 . S
C1134 C1122 1.349 . S
C1134 H1128 0.950 . S
C1134 C1135 1.327 . S
C1135 H1129 0.950 . S
C1135 C1134 1.327 . S
C1135 C1139 1.429 . S
C1136 C1119 1.574 . S
C1136 H1130 0.949 . S
C1136 C1140 1.368 1_554 S
C1137 C1118 1.429 . S
C1137 C1131 1.429 . S
C1137 C1138 1.523 . S
C1138 C1119 1.368 . S
C1138 C1132 1.368 1_554 S
C1138 C1137 1.523 . S
C1139 C1123 1.429 . S
C1139 C1135 1.429 . S
C1139 C1140 1.523 . S
C1140 C1124 1.368 . S
C1140 C1136 1.368 1_556 S
C1140 C1139 1.523 . S
H1141 C1116 0.950 . S
H1142 C1118 0.950 1_556 S
H1143 C1119 0.949 . S
H1144 C1121 0.950 . S
H1145 C1123 0.950 1_554 S
C1146 C1147 1.349 . S
C1146 C1148 1.327 . S
C1146 H1171 0.950 . S
C1147 C1146 1.349 . S
C1147 C1163 1.349 . S
C1148 C1146 1.327 . S
C1148 C1167 1.429 . S
C1148 H1172 0.950 . S
C1149 C1166 1.574 . S
C1149 C1168 1.368 . S
C1149 H1173 0.949 . S
H1150 C1154 0.949 . S
C1151 C1152 1.349 . S
C1151 C1153 1.327 . S
C1151 H1174 0.950 . S
C1152 C1151 1.349 . S
C1152 C1164 1.349 . S
C1153 C1151 1.327 . S
C1153 C1169 1.429 . S
C1153 H1175 0.950 . S
C1154 H1150 0.949 . S
C1154 C1162 1.574 . S
C1154 C1170 1.368 . S
H1155 C1163 0.950 . S
H1156 C1161 0.950 . S
H1157 C1162 0.949 . S
H1158 C1164 0.950 . S
H1159 C1165 0.950 . S
H1160 C1166 0.949 . S
C1161 H1156 0.950 . S
C1161 C1163 1.327 . S
C1161 C1167 1.429 . S
C1162 C1154 1.574 . S
C1162 H1157 0.949 . S
C1162 C1168 1.368 . S
C1163 C1147 1.349 . S
C1163 H1155 0.950 . S
C1163 C1161 1.327 . S
C1164 C1152 1.349 . S
C1164 H1158 0.950 . S
C1164 C1165 1.327 . S
C1165 H1159 0.950 . S
C1165 C1164 1.327 . S
C1165 C1169 1.429 . S
C1166 C1149 1.574 . S
C1166 H1160 0.949 . S
C1166 C1170 1.368 . S
C1167 C1148 1.429 . S
C1167 C1161 1.429 . S
C1167 C1168 1.523 . S
C1168 C1149 1.368 . S
C1168 C1162 1.368 . S
C1168 C1167 1.523 . S
C1169 C1153 1.429 . S
C1169 C1165 1.429 . S
C1169 C1170 1.523 . S
C1170 C1154 1.368 . S
C1170 C1166 1.368 . S
C1170 C1169 1.523 . S
H1171 C1146 0.950 . S
H1172 C1148 0.950 . S
H1173 C1149 0.949 . S
H1174 C1151 0.950 . S
H1175 C1153 0.950 . S
C1176 C1177 1.349 . S
C1176 C1178 1.327 . S
C1176 H1201 0.950 . S
C1177 C1176 1.349 . S
C1177 C1193 1.349 . S
C1178 C1176 1.327 . S
C1178 C1197 1.429 . S
C1178 H1202 0.950 . S
C1179 C1196 1.592 . S
C1179 C1198 1.368 . S
C1179 H1203 0.949 . S
H1180 C1184 0.949 . S
C1181 C1182 1.349 . S
C1181 C1183 1.327 . S
C1181 H1204 0.950 . S
C1182 C1181 1.349 . S
C1182 C1194 1.349 . S
C1183 C1181 1.327 . S
C1183 C1199 1.429 . S
C1183 H1205 0.950 . S
C1184 H1180 0.949 . S
C1184 C1192 1.576 . S
C1184 C1200 1.368 . S
H1185 C1193 0.950 . S
H1186 C1191 0.950 . S
H1187 C1192 0.949 . S
H1188 C1194 0.950 . S
H1189 C1195 0.950 . S
H1190 C1196 0.949 . S
C1191 H1186 0.950 . S
C1191 C1193 1.327 . S
C1191 C1197 1.429 . S
C1192 C1184 1.576 . S
C1192 H1187 0.949 . S
C1192 C1198 1.366 1_556 S
C1193 C1177 1.349 . S
C1193 H1185 0.950 . S
C1193 C1191 1.327 . S
C1194 C1182 1.349 . S
C1194 H1188 0.950 . S
C1194 C1195 1.327 . S
C1195 H1189 0.950 . S
C1195 C1194 1.327 . S
C1195 C1199 1.429 . S
C1196 C1179 1.592 . S
C1196 H1190 0.949 . S
C1196 C1200 1.351 1_554 S
C1197 C1178 1.429 . S
C1197 C1191 1.429 . S
C1197 C1198 1.523 . S
C1198 C1179 1.368 . S
C1198 C1192 1.366 1_554 S
C1198 C1197 1.523 . S
C1199 C1183 1.429 . S
C1199 C1195 1.429 . S
C1199 C1200 1.523 . S
C1200 C1184 1.368 . S
C1200 C1196 1.351 1_556 S
C1200 C1199 1.523 . S
H1201 C1176 0.950 . S
H1202 C1178 0.950 . S
H1203 C1179 0.949 . S
H1204 C1181 0.950 . S
H1205 C1183 0.950 . S
C1206 C1207 1.349 . S
C1206 C1208 1.327 . S
C1206 H1231 0.950 . S
C1207 C1206 1.349 . S
C1207 C1223 1.349 . S
C1208 C1206 1.327 . S
C1208 C1227 1.429 . S
C1208 H1232 0.950 . S
C1209 C1226 1.574 . S
C1209 C1228 1.368 . S
C1209 H1233 0.949 . S
H1210 C1214 0.949 . S
C1211 C1212 1.349 . S
C1211 C1213 1.327 . S
C1211 H1234 0.950 . S
C1212 C1211 1.349 . S
C1212 C1224 1.349 . S
C1213 C1211 1.327 . S
C1213 C1229 1.429 . S
C1213 H1235 0.950 . S
C1214 H1210 0.949 . S
C1214 C1222 1.574 . S
C1214 C1230 1.368 . S
H1215 C1223 0.950 . S
H1216 C1221 0.950 . S
H1217 C1222 0.949 . S
H1218 C1224 0.950 . S
H1219 C1225 0.950 . S
H1220 C1226 0.949 . S
C1221 H1216 0.950 . S
C1221 C1223 1.327 . S
C1221 C1227 1.429 . S
C1222 C1214 1.574 . S
C1222 H1217 0.949 . S
C1222 C1228 1.368 . S
C1223 C1207 1.349 . S
C1223 H1215 0.950 . S
C1223 C1221 1.327 . S
C1224 C1212 1.349 . S
C1224 H1218 0.950 . S
C1224 C1225 1.327 . S
C1225 H1219 0.950 . S
C1225 C1224 1.327 . S
C1225 C1229 1.429 . S
C1226 C1209 1.574 . S
C1226 H1220 0.949 . S
C1226 C1230 1.368 . S
C1227 C1208 1.429 . S
C1227 C1221 1.429 . S
C1227 C1228 1.523 . S
C1228 C1209 1.368 . S
C1228 C1222 1.368 . S
C1228 C1227 1.523 . S
C1229 C1213 1.429 . S
C1229 C1225 1.429 . S
C1229 C1230 1.523 . S
C1230 C1214 1.368 . S
C1230 C1226 1.368 . S
C1230 C1229 1.523 . S
H1231 C1206 0.950 . S
H1232 C1208 0.950 . S
H1233 C1209 0.949 . S
H1234 C1211 0.950 . S
H1235 C1213 0.950 . S
C1236 C1237 1.349 . S
C1236 C1238 1.327 . S
C1236 H1261 0.950 . S
C1237 C1236 1.349 . S
C1237 C1253 1.349 . S
C1238 C1236 1.327 . S
C1238 C1257 1.429 . S
C1238 H1262 0.950 . S
C1239 C1256 1.574 . S
C1239 C1258 1.368 . S
C1239 H1263 0.949 . S
H1240 C1244 0.949 . S
C1241 C1242 1.349 . S
C1241 C1243 1.327 . S
C1241 H1264 0.950 . S
C1242 C1241 1.349 . S
C1242 C1254 1.349 . S
C1243 C1241 1.327 . S
C1243 C1259 1.429 . S
C1243 H1265 0.950 . S
C1244 H1240 0.949 . S
C1244 C1252 1.574 . S
C1244 C1260 1.368 . S
H1245 C1253 0.950 . S
H1246 C1251 0.950 . S
H1247 C1252 0.949 . S
H1248 C1254 0.950 . S
H1249 C1255 0.950 . S
H1250 C1256 0.949 . S
C1251 H1246 0.950 . S
C1251 C1253 1.327 . S
C1251 C1257 1.429 . S
C1252 C1244 1.574 . S
C1252 H1247 0.949 . S
C1252 C1258 1.368 1_556 S
C1253 C1237 1.349 . S
C1253 H1245 0.950 . S
C1253 C1251 1.327 . S
C1254 C1242 1.349 . S
C1254 H1248 0.950 . S
C1254 C1255 1.327 . S
C1255 H1249 0.950 . S
C1255 C1254 1.327 . S
C1255 C1259 1.429 . S
C1256 C1239 1.574 . S
C1256 H1250 0.949 . S
C1256 C1260 1.368 1_554 S
C1257 C1238 1.429 . S
C1257 C1251 1.429 . S
C1257 C1258 1.523 . S
C1258 C1239 1.368 . S
C1258 C1252 1.368 1_554 S
C1258 C1257 1.523 . S
C1259 C1243 1.429 . S
C1259 C1255 1.429 . S
C1259 C1260 1.523 . S
C1260 C1244 1.368 . S
C1260 C1256 1.368 1_556 S
C1260 C1259 1.523 . S
H1261 C1236 0.950 . S
H1262 C1238 0.950 . S
H1263 C1239 0.949 . S
H1264 C1241 0.950 . S
H1265 C1243 0.950 . S
C1266 C1267 1.349 . S
C1266 C1268 1.327 . S
C1266 H1291 0.950 . S
C1267 C1266 1.349 . S
C1267 C1283 1.349 . S
C1268 C1266 1.327 . S
C1268 C1287 1.429 . S
C1268 H1292 0.950 . S
C1269 C1286 1.574 . S
C1269 C1288 1.368 . S
C1269 H1293 0.949 . S
H1270 C1274 0.949 . S
C1271 C1272 1.349 . S
C1271 C1273 1.327 . S
C1271 H1294 0.950 . S
C1272 C1271 1.349 . S
C1272 C1284 1.349 . S
C1273 C1271 1.327 . S
C1273 C1289 1.429 . S
C1273 H1295 0.950 . S
C1274 H1270 0.949 . S
C1274 C1282 1.574 . S
C1274 C1290 1.368 . S
H1275 C1283 0.950 . S
H1276 C1281 0.950 . S
H1277 C1282 0.949 . S
H1278 C1284 0.950 . S
H1279 C1285 0.950 . S
H1280 C1286 0.949 . S
C1281 H1276 0.950 . S
C1281 C1283 1.327 . S
C1281 C1287 1.429 . S
C1282 C1274 1.574 . S
C1282 H1277 0.949 . S
C1282 C1288 1.368 . S
C1283 C1267 1.349 . S
C1283 H1275 0.950 . S
C1283 C1281 1.327 . S
C1284 C1272 1.349 . S
C1284 H1278 0.950 . S
C1284 C1285 1.327 . S
C1285 H1279 0.950 . S
C1285 C1284 1.327 . S
C1285 C1289 1.429 . S
C1286 C1269 1.574 . S
C1286 H1280 0.949 . S
C1286 C1290 1.368 . S
C1287 C1268 1.429 . S
C1287 C1281 1.429 . S
C1287 C1288 1.523 . S
C1288 C1269 1.368 . S
C1288 C1282 1.368 . S
C1288 C1287 1.523 . S
C1289 C1273 1.429 . S
C1289 C1285 1.429 . S
C1289 C1290 1.523 . S
C1290 C1274 1.368 . S
C1290 C1286 1.368 . S
C1290 C1289 1.523 . S
H1291 C1266 0.950 . S
H1292 C1268 0.950 . S
H1293 C1269 0.949 . S
H1294 C1271 0.950 . S
H1295 C1273 0.950 . S
C1296 C1297 1.349 . S
C1296 C1298 1.327 . S
C1296 H1321 0.950 . S
C1297 C1296 1.349 . S
C1297 C1313 1.349 . S
C1298 C1296 1.327 . S
C1298 C1317 1.429 . S
C1298 H1322 0.950 . S
C1299 C1316 1.574 . S
C1299 C1318 1.368 1_554 S
C1299 H1323 0.949 . S
H1300 C1304 0.949 . S
C1301 C1302 1.349 . S
C1301 C1303 1.327 . S
C1301 H1324 0.950 . S
C1302 C1301 1.349 . S
C1302 C1314 1.349 . S
C1303 C1301 1.327 . S
C1303 C1319 1.429 . S
C1303 H1325 0.950 . S
C1304 H1300 0.949 . S
C1304 C1312 1.574 . S
C1304 C1320 1.368 1_556 S
H1305 C1313 0.950 . S
H1306 C1311 0.950 1_554 S
H1307 C1312 0.949 . S
H1308 C1314 0.950 . S
H1309 C1315 0.950 1_556 S
H1310 C1316 0.949 . S
C1311 H1306 0.950 1_556 S
C1311 C1313 1.327 . S
C1311 C1317 1.429 . S
C1312 C1304 1.574 . S
C1312 H1307 0.949 . S
C1312 C1318 1.368 . S
C1313 C1297 1.349 . S
C1313 H1305 0.950 . S
C1313 C1311 1.327 . S
C1314 C1302 1.349 . S
C1314 H1308 0.950 . S
C1314 C1315 1.327 . S
C1315 H1309 0.950 1_554 S
C1315 C1314 1.327 . S
C1315 C1319 1.429 . S
C1316 C1299 1.574 . S
C1316 H1310 0.949 . S
C1316 C1320 1.368 . S
C1317 C1298 1.429 . S
C1317 C1311 1.429 . S
C1317 C1318 1.523 . S
C1318 C1299 1.368 1_556 S
C1318 C1312 1.368 . S
C1318 C1317 1.523 . S
C1319 C1303 1.429 . S
C1319 C1315 1.429 . S
C1319 C1320 1.523 . S
C1320 C1304 1.368 1_554 S
C1320 C1316 1.368 . S
C1320 C1319 1.523 . S
H1321 C1296 0.950 . S
H1322 C1298 0.950 . S
H1323 C1299 0.949 . S
H1324 C1301 0.950 . S
H1325 C1303 0.950 . S
C1326 C1327 1.349 . S
C1326 C1328 1.327 . S
C1326 H1351 0.950 . S
C1327 C1326 1.349 . S
C1327 C1343 1.349 . S
C1328 C1326 1.327 . S
C1328 C1347 1.429 . S
C1328 H1352 0.950 . S
C1329 C1346 1.574 . S
C1329 C1348 1.368 . S
C1329 H1353 0.949 . S
H1330 C1334 0.949 . S
C1331 C1332 1.349 . S
C1331 C1333 1.327 . S
C1331 H1354 0.950 . S
C1332 C1331 1.349 . S
C1332 C1344 1.349 . S
C1333 C1331 1.327 . S
C1333 C1349 1.429 . S
C1333 H1355 0.950 . S
C1334 H1330 0.949 . S
C1334 C1342 1.574 . S
C1334 C1350 1.368 . S
H1335 C1343 0.950 . S
H1336 C1341 0.950 . S
H1337 C1342 0.949 . S
H1338 C1344 0.950 . S
H1339 C1345 0.950 . S
H1340 C1346 0.949 . S
C1341 H1336 0.950 . S
C1341 C1343 1.327 . S
C1341 C1347 1.429 . S
C1342 C1334 1.574 . S
C1342 H1337 0.949 . S
C1342 C1348 1.368 . S
C1343 C1327 1.349 . S
C1343 H1335 0.950 . S
C1343 C1341 1.327 . S
C1344 C1332 1.349 . S
C1344 H1338 0.950 . S
C1344 C1345 1.327 . S
C1345 H1339 0.950 . S
C1345 C1344 1.327 . S
C1345 C1349 1.429 . S
C1346 C1329 1.574 . S
C1346 H1340 0.949 . S
C1346 C1350 1.368 . S
C1347 C1328 1.429 . S
C1347 C1341 1.429 . S
C1347 C1348 1.523 . S
C1348 C1329 1.368 . S
C1348 C1342 1.368 . S
C1348 C1347 1.523 . S
C1349 C1333 1.429 . S
C1349 C1345 1.429 . S
C1349 C1350 1.523 . S
C1350 C1334 1.368 . S
C1350 C1346 1.368 . S
C1350 C1349 1.523 . S
H1351 C1326 0.950 . S
H1352 C1328 0.950 . S
H1353 C1329 0.949 . S
H1354 C1331 0.950 . S
H1355 C1333 0.950 . S
C1356 C1357 1.349 . S
C1356 C1358 1.327 . S
C1356 H1381 0.950 . S
C1357 C1356 1.349 . S
C1357 C1373 1.349 . S
C1358 C1356 1.327 . S
C1358 C1377 1.429 . S
C1358 H1382 0.950 . S
C1359 C1376 1.571 1_554 S
C1359 C1378 1.368 . S
C1359 H1383 0.949 . S
H1360 C1364 0.949 . S
C1361 C1362 1.349 . S
C1361 C1363 1.327 . S
C1361 H1384 0.950 . S
C1362 C1361 1.349 . S
C1362 C1374 1.349 . S
C1363 C1361 1.327 . S
C1363 C1379 1.429 . S
C1363 H1385 0.950 . S
C1364 H1360 0.949 . S
C1364 C1372 1.571 1_556 S
C1364 C1380 1.368 . S
H1365 C1373 0.950 . S
H1366 C1371 0.950 . S
H1367 C1372 0.949 . S
H1368 C1374 0.950 . S
H1369 C1375 0.950 . S
H1370 C1376 0.949 . S
C1371 H1366 0.950 . S
C1371 C1373 1.327 . S
C1371 C1377 1.429 . S
C1372 C1364 1.571 1_554 S
C1372 H1367 0.949 . S
C1372 C1378 1.371 . S
C1373 C1357 1.349 . S
C1373 H1365 0.950 . S
C1373 C1371 1.327 . S
C1374 C1362 1.349 . S
C1374 H1368 0.950 . S
C1374 C1375 1.327 . S
C1375 H1369 0.950 . S
C1375 C1374 1.327 . S
C1375 C1379 1.429 . S
C1376 C1359 1.571 1_556 S
C1376 H1370 0.949 . S
C1376 C1380 1.371 . S
C1377 C1358 1.429 . S
C1377 C1371 1.429 . S
C1377 C1378 1.523 . S
C1378 C1359 1.368 . S
C1378 C1372 1.371 . S
C1378 C1377 1.523 . S
C1379 C1363 1.429 . S
C1379 C1375 1.429 . S
C1379 C1380 1.523 . S
C1380 C1364 1.368 . S
C1380 C1376 1.371 . S
C1380 C1379 1.523 . S
H1381 C1356 0.950 . S
H1382 C1358 0.950 . S
H1383 C1359 0.949 . S
H1384 C1361 0.950 . S
H1385 C1363 0.950 . S
C1386 C1387 1.349 . S
C1386 C1388 1.327 . S
C1386 H1411 0.950 . S
C1387 C1386 1.349 . S
C1387 C1403 1.349 . S
C1388 C1386 1.327 . S
C1388 C1407 1.429 . S
C1388 H1412 0.950 . S
C1389 C1406 1.574 . S
C1389 C1408 1.368 . S
C1389 H1413 0.949 . S
H1390 C1394 0.949 . S
C1391 C1392 1.349 . S
C1391 C1393 1.327 . S
C1391 H1414 0.950 . S
C1392 C1391 1.349 . S
C1392 C1404 1.349 . S
C1393 C1391 1.327 . S
C1393 C1409 1.429 . S
C1393 H1415 0.950 . S
C1394 H1390 0.949 . S
C1394 C1402 1.574 . S
C1394 C1410 1.368 . S
H1395 C1403 0.950 . S
H1396 C1401 0.950 . S
H1397 C1402 0.949 . S
H1398 C1404 0.950 . S
H1399 C1405 0.950 . S
H1400 C1406 0.949 . S
C1401 H1396 0.950 . S
C1401 C1403 1.327 . S
C1401 C1407 1.429 . S
C1402 C1394 1.574 . S
C1402 H1397 0.949 . S
C1402 C1408 1.368 . S
C1403 C1387 1.349 . S
C1403 H1395 0.950 . S
C1403 C1401 1.327 . S
C1404 C1392 1.349 . S
C1404 H1398 0.950 . S
C1404 C1405 1.327 . S
C1405 H1399 0.950 . S
C1405 C1404 1.327 . S
C1405 C1409 1.429 . S
C1406 C1389 1.574 . S
C1406 H1400 0.949 . S
C1406 C1410 1.368 . S
C1407 C1388 1.429 . S
C1407 C1401 1.429 . S
C1407 C1408 1.523 . S
C1408 C1389 1.368 . S
C1408 C1402 1.368 . S
C1408 C1407 1.523 . S
C1409 C1393 1.429 . S
C1409 C1405 1.429 . S
C1409 C1410 1.523 . S
C1410 C1394 1.368 . S
C1410 C1406 1.368 . S
C1410 C1409 1.523 . S
H1411 C1386 0.950 . S
H1412 C1388 0.950 . S
H1413 C1389 0.949 . S
H1414 C1391 0.950 . S
H1415 C1393 0.950 . S
C1416 C1417 1.349 . S
C1416 C1418 1.327 . S
C1416 H1441 0.950 . S
C1417 C1416 1.349 . S
C1417 C1433 1.349 . S
C1418 C1416 1.327 . S
C1418 C1437 1.429 . S
C1418 H1442 0.950 . S
C1419 C1436 1.574 1_545 S
C1419 C1438 1.368 1_554 S
C1419 H1443 0.949 . S
H1420 C1424 0.949 . S
C1421 C1422 1.349 . S
C1421 C1423 1.327 . S
C1421 H1444 0.950 . S
C1422 C1421 1.349 . S
C1422 C1434 1.349 . S
C1423 C1421 1.327 . S
C1423 C1439 1.429 . S
C1423 H1445 0.950 . S
C1424 H1420 0.949 . S
C1424 C1432 1.574 1_565 S
C1424 C1440 1.368 1_556 S
H1425 C1433 0.950 . S
H1426 C1431 0.958 . S
H1427 C1432 0.949 . S
H1428 C1434 0.950 . S
H1429 C1435 0.958 . S
H1430 C1436 0.949 . S
C1431 H1426 0.958 . S
C1431 C1433 1.327 . S
C1431 C1437 1.429 . S
C1432 C1424 1.574 1_545 S
C1432 H1427 0.949 . S
C1432 C1438 1.368 . S
C1433 C1417 1.349 . S
C1433 H1425 0.950 . S
C1433 C1431 1.327 . S
C1434 C1422 1.349 . S
C1434 H1428 0.950 . S
C1434 C1435 1.327 . S
C1435 H1429 0.958 . S
C1435 C1434 1.327 . S
C1435 C1439 1.429 . S
C1436 C1419 1.574 1_565 S
C1436 H1430 0.949 . S
C1436 C1440 1.368 . S
C1437 C1418 1.429 . S
C1437 C1431 1.429 . S
C1437 C1438 1.523 . S
C1438 C1419 1.368 1_556 S
C1438 C1432 1.368 . S
C1438 C1437 1.523 . S
C1439 C1423 1.429 . S
C1439 C1435 1.429 . S
C1439 C1440 1.523 . S
C1440 C1424 1.368 1_554 S
C1440 C1436 1.368 . S
C1440 C1439 1.523 . S
H1441 C1416 0.950 . S
H1442 C1418 0.950 . S
H1443 C1419 0.949 . S
H1444 C1421 0.950 . S
H1445 C1423 0.950 . S
C1446 C1447 1.349 . S
C1446 C1448 1.327 . S
C1446 H1471 0.950 . S
C1447 C1446 1.349 . S
C1447 C1463 1.349 . S
C1448 C1446 1.327 . S
C1448 C1467 1.429 . S
C1448 H1472 0.950 . S
C1449 C1466 1.574 1_565 S
C1449 C1468 1.368 . S
C1449 H1473 0.949 . S
H1450 C1454 0.949 . S
C1451 C1452 1.349 . S
C1451 C1453 1.327 . S
C1451 H1474 0.950 . S
C1452 C1451 1.349 . S
C1452 C1464 1.349 . S
C1453 C1451 1.327 . S
C1453 C1469 1.429 . S
C1453 H1475 0.950 . S
C1454 H1450 0.949 . S
C1454 C1462 1.574 1_545 S
C1454 C1470 1.368 . S
H1455 C1463 0.950 . S
H1456 C1461 0.950 . S
H1457 C1462 0.949 . S
H1458 C1464 0.950 . S
H1459 C1465 0.950 . S
H1460 C1466 0.949 . S
C1461 H1456 0.950 . S
C1461 C1463 1.327 . S
C1461 C1467 1.429 . S
C1462 C1454 1.574 1_565 S
C1462 H1457 0.949 . S
C1462 C1468 1.368 . S
C1463 C1447 1.349 . S
C1463 H1455 0.950 . S
C1463 C1461 1.327 . S
C1464 C1452 1.349 . S
C1464 H1458 0.950 . S
C1464 C1465 1.327 . S
C1465 H1459 0.950 . S
C1465 C1464 1.327 . S
C1465 C1469 1.429 . S
C1466 C1449 1.574 1_545 S
C1466 H1460 0.949 . S
C1466 C1470 1.368 . S
C1467 C1448 1.429 . S
C1467 C1461 1.429 . S
C1467 C1468 1.523 . S
C1468 C1449 1.368 . S
C1468 C1462 1.368 . S
C1468 C1467 1.523 . S
C1469 C1453 1.429 . S
C1469 C1465 1.429 . S
C1469 C1470 1.523 . S
C1470 C1454 1.368 . S
C1470 C1466 1.368 . S
C1470 C1469 1.523 . S
H1471 C1446 0.950 . S
H1472 C1448 0.950 . S
H1473 C1449 0.949 . S
H1474 C1451 0.950 . S
H1475 C1453 0.950 . S
C1476 C1477 1.349 . S
C1476 C1478 1.327 . S
C1476 H1501 0.950 . S
C1477 C1476 1.349 . S
C1477 C1493 1.349 . S
C1478 C1476 1.327 . S
C1478 C1497 1.429 . S
C1478 H1502 0.950 . S
C1479 C1496 1.574 1_565 S
C1479 C1498 1.368 1_556 S
C1479 H1503 0.949 . S
H1480 C1484 0.949 . S
C1481 C1482 1.349 . S
C1481 C1483 1.327 . S
C1481 H1504 0.950 . S
C1482 C1481 1.349 . S
C1482 C1494 1.349 . S
C1483 C1481 1.327 . S
C1483 C1499 1.429 . S
C1483 H1505 0.950 . S
C1484 H1480 0.949 . S
C1484 C1492 1.574 1_545 S
C1484 C1500 1.368 1_554 S
H1485 C1493 0.950 . S
H1486 C1491 0.950 1_556 S
H1487 C1492 0.949 . S
H1488 C1494 0.950 . S
H1489 C1495 0.950 1_554 S
H1490 C1496 0.949 . S
C1491 H1486 0.950 1_554 S
C1491 C1493 1.327 . S
C1491 C1497 1.429 . S
C1492 C1484 1.574 1_565 S
C1492 H1487 0.949 . S
C1492 C1498 1.368 . S
C1493 C1477 1.349 . S
C1493 H1485 0.950 . S
C1493 C1491 1.327 . S
C1494 C1482 1.349 . S
C1494 H1488 0.950 . S
C1494 C1495 1.327 . S
C1495 H1489 0.950 1_556 S
C1495 C1494 1.327 . S
C1495 C1499 1.429 . S
C1496 C1479 1.574 1_545 S
C1496 H1490 0.949 . S
C1496 C1500 1.368 . S
C1497 C1478 1.429 . S
C1497 C1491 1.429 . S
C1497 C1498 1.523 . S
C1498 C1479 1.368 1_554 S
C1498 C1492 1.368 . S
C1498 C1497 1.523 . S
C1499 C1483 1.429 . S
C1499 C1495 1.429 . S
C1499 C1500 1.523 . S
C1500 C1484 1.368 1_556 S
C1500 C1496 1.368 . S
C1500 C1499 1.523 . S
H1501 C1476 0.950 . S
H1502 C1478 0.950 . S
H1503 C1479 0.949 . S
H1504 C1481 0.950 . S
H1505 C1483 0.950 . S
C1506 C1507 1.349 . S
C1506 C1508 1.327 . S
C1506 H1531 0.950 . S
C1507 C1506 1.349 . S
C1507 C1523 1.349 . S
C1508 C1506 1.327 . S
C1508 C1527 1.429 . S
C1508 H1532 0.950 . S
C1509 C1526 1.574 1_545 S
C1509 C1528 1.368 . S
C1509 H1533 0.949 . S
H1510 C1514 0.949 . S
C1511 C1512 1.349 . S
C1511 C1513 1.327 . S
C1511 H1534 0.950 . S
C1512 C1511 1.349 . S
C1512 C1524 1.349 . S
C1513 C1511 1.327 . S
C1513 C1529 1.429 . S
C1513 H1535 0.950 . S
C1514 H1510 0.949 . S
C1514 C1522 1.574 1_565 S
C1514 C1530 1.368 . S
H1515 C1523 0.950 . S
H1516 C1521 0.950 . S
H1517 C1522 0.949 . S
H1518 C1524 0.950 . S
H1519 C1525 0.950 . S
H1520 C1526 0.949 . S
C1521 H1516 0.950 . S
C1521 C1523 1.327 . S
C1521 C1527 1.429 . S
C1522 C1514 1.574 1_545 S
C1522 H1517 0.949 . S
C1522 C1528 1.368 . S
C1523 C1507 1.349 . S
C1523 H1515 0.950 . S
C1523 C1521 1.327 . S
C1524 C1512 1.349 . S
C1524 H1518 0.950 . S
C1524 C1525 1.327 . S
C1525 H1519 0.950 . S
C1525 C1524 1.327 . S
C1525 C1529 1.429 . S
C1526 C1509 1.574 1_565 S
C1526 H1520 0.949 . S
C1526 C1530 1.368 . S
C1527 C1508 1.429 . S
C1527 C1521 1.429 . S
C1527 C1528 1.523 . S
C1528 C1509 1.368 . S
C1528 C1522 1.368 . S
C1528 C1527 1.523 . S
C1529 C1513 1.429 . S
C1529 C1525 1.429 . S
C1529 C1530 1.523 . S
C1530 C1514 1.368 . S
C1530 C1526 1.368 . S
C1530 C1529 1.523 . S
H1531 C1506 0.950 . S
H1532 C1508 0.950 . S
H1533 C1509 0.949 . S
H1534 C1511 0.950 . S
H1535 C1513 0.950 . S
C577 C3 1.408 . S
C582 C220 1.392 . S
C607 C39 1.408 . S
C612 C256 1.392 . S
C637 C148 1.392 . S
C642 C75 1.408 . S
C667 C184 1.392 . S
C672 C111 1.408 . S
C697 C508 1.392 . S
C702 C291 1.408 . S
C727 C544 1.392 . S
C732 C327 1.408 . S
C757 C363 1.408 . S
C762 C436 1.392 . S
C787 C399 1.408 . S
C792 C472 1.392 . S
C817 C2 1.421 . S
C822 C182 1.422 . S
C847 C38 1.421 . S
C852 C146 1.422 . S
C877 C74 1.421 . S
C882 C254 1.422 . S
C907 C218 1.422 . S
C912 C110 1.421 . S
C937 C470 1.422 . S
C942 C290 1.421 . S
C967 C434 1.422 . S
C972 C326 1.421 . S
C997 C362 1.421 . S
C1002 C542 1.422 . S
C1027 C506 1.422 . S
C1032 C398 1.421 . S
C1057 C435 1.273 . S
C1062 C4 1.273 . S
C1087 C40 1.273 . S
C1092 C471 1.273 . S
C1117 C507 1.273 . S
C1122 C76 1.273 . S
C1147 C543 1.273 . S
C1152 C112 1.273 . S
C1177 C292 1.273 . S
C1182 C147 1.273 . S
C1207 C328 1.273 . S
C1212 C183 1.273 . S
C1237 C219 1.273 . S
C1242 C364 1.273 . S
C1267 C255 1.273 . S
C1272 C400 1.273 . S
C1297 C86 1.395 . S
C1302 C14 1.395 . S
C1327 C50 1.395 . S
C1332 C122 1.395 . S
C1357 C230 1.397 . S
C1362 C158 1.397 . S
C1387 C194 1.397 . S
C1392 C266 1.397 . S
C1417 C374 1.395 . S
C1422 C302 1.395 . S
C1447 C410 1.395 . S
C1452 C338 1.395 . S
C1477 C518 1.397 . S
C1482 C446 1.397 . S
C1507 C554 1.397 . S
C1512 C482 1.397 . S
