# Generated by pormake.
# Topology utb, (3)-cn, num edge types: 1
# Building blocks:
#     Node 0, Type 0, BuildingBlock: WUSLED_clean_sbu_0, # of connection points: 3
#     Node 1, Type 0, BuildingBlock: WUSLED_clean_sbu_0, # of connection points: 3
#     Node 2, Type 0, BuildingBlock: WUSLED_clean_sbu_0, # of connection points: 3
#     Node 3, Type 0, BuildingBlock: WUSLED_clean_sbu_0, # of connection points: 3
#     Node 4, Type 0, BuildingBlock: WUSLED_clean_sbu_0, # of connection points: 3
#     Node 5, Type 0, BuildingBlock: WUSLED_clean_sbu_0, # of connection points: 3
#     Node 6, Type 0, BuildingBlock: WUSLED_clean_sbu_0, # of connection points: 3
#     Node 7, Type 0, BuildingBlock: WUSLED_clean_sbu_0, # of connection points: 3
#     Node 8, Type 0, BuildingBlock: WUSLED_clean_sbu_0, # of connection points: 3
#     Node 9, Type 0, BuildingBlock: WUSLED_clean_sbu_0, # of connection points: 3
#     Node 10, Type 0, BuildingBlock: WUSLED_clean_sbu_0, # of connection points: 3
#     Node 11, Type 0, BuildingBlock: WUSLED_clean_sbu_0, # of connection points: 3
#     Node 12, Type 0, BuildingBlock: WUSLED_clean_sbu_0, # of connection points: 3
#     Node 13, Type 0, BuildingBlock: WUSLED_clean_sbu_0, # of connection points: 3
#     Node 14, Type 0, BuildingBlock: WUSLED_clean_sbu_0, # of connection points: 3
#     Node 15, Type 0, BuildingBlock: WUSLED_clean_sbu_0, # of connection points: 3
#     Node 16, Type 0, BuildingBlock: WUSLED_clean_sbu_0, # of connection points: 3
#     Node 17, Type 0, BuildingBlock: WUSLED_clean_sbu_0, # of connection points: 3
#     Node 18, Type 0, BuildingBlock: WUSLED_clean_sbu_0, # of connection points: 3
#     Node 19, Type 0, BuildingBlock: WUSLED_clean_sbu_0, # of connection points: 3
#     Node 20, Type 0, BuildingBlock: WUSLED_clean_sbu_0, # of connection points: 3
#     Node 21, Type 0, BuildingBlock: WUSLED_clean_sbu_0, # of connection points: 3
#     Node 22, Type 0, BuildingBlock: WUSLED_clean_sbu_0, # of connection points: 3
#     Node 23, Type 0, BuildingBlock: WUSLED_clean_sbu_0, # of connection points: 3
#     Edge 24, Type (0, 0), BuildingBlock: TEMPAE_clean_linker_10, # of connection points: 2
#     Edge 25, Type (0, 0), BuildingBlock: TEMPAE_clean_linker_10, # of connection points: 2
#     Edge 26, Type (0, 0), BuildingBlock: TEMPAE_clean_linker_10, # of connection points: 2
#     Edge 27, Type (0, 0), BuildingBlock: TEMPAE_clean_linker_10, # of connection points: 2
#     Edge 28, Type (0, 0), BuildingBlock: TEMPAE_clean_linker_10, # of connection points: 2
#     Edge 29, Type (0, 0), BuildingBlock: TEMPAE_clean_linker_10, # of connection points: 2
#     Edge 30, Type (0, 0), BuildingBlock: TEMPAE_clean_linker_10, # of connection points: 2
#     Edge 31, Type (0, 0), BuildingBlock: TEMPAE_clean_linker_10, # of connection points: 2
#     Edge 32, Type (0, 0), BuildingBlock: TEMPAE_clean_linker_10, # of connection points: 2
#     Edge 33, Type (0, 0), BuildingBlock: TEMPAE_clean_linker_10, # of connection points: 2
#     Edge 34, Type (0, 0), BuildingBlock: TEMPAE_clean_linker_10, # of connection points: 2
#     Edge 35, Type (0, 0), BuildingBlock: TEMPAE_clean_linker_10, # of connection points: 2
#     Edge 36, Type (0, 0), BuildingBlock: TEMPAE_clean_linker_10, # of connection points: 2
#     Edge 37, Type (0, 0), BuildingBlock: TEMPAE_clean_linker_10, # of connection points: 2
#     Edge 38, Type (0, 0), BuildingBlock: TEMPAE_clean_linker_10, # of connection points: 2
#     Edge 39, Type (0, 0), BuildingBlock: TEMPAE_clean_linker_10, # of connection points: 2
#     Edge 40, Type (0, 0), BuildingBlock: TEMPAE_clean_linker_10, # of connection points: 2
#     Edge 41, Type (0, 0), BuildingBlock: TEMPAE_clean_linker_10, # of connection points: 2
#     Edge 42, Type (0, 0), BuildingBlock: TEMPAE_clean_linker_10, # of connection points: 2
#     Edge 43, Type (0, 0), BuildingBlock: TEMPAE_clean_linker_10, # of connection points: 2
#     Edge 44, Type (0, 0), BuildingBlock: TEMPAE_clean_linker_10, # of connection points: 2
#     Edge 45, Type (0, 0), BuildingBlock: TEMPAE_clean_linker_10, # of connection points: 2
#     Edge 46, Type (0, 0), BuildingBlock: TEMPAE_clean_linker_10, # of connection points: 2
#     Edge 47, Type (0, 0), BuildingBlock: TEMPAE_clean_linker_10, # of connection points: 2
#     Edge 48, Type (0, 0), BuildingBlock: TEMPAE_clean_linker_10, # of connection points: 2
#     Edge 49, Type (0, 0), BuildingBlock: TEMPAE_clean_linker_10, # of connection points: 2
#     Edge 50, Type (0, 0), BuildingBlock: TEMPAE_clean_linker_10, # of connection points: 2
#     Edge 51, Type (0, 0), BuildingBlock: TEMPAE_clean_linker_10, # of connection points: 2
#     Edge 52, Type (0, 0), BuildingBlock: TEMPAE_clean_linker_10, # of connection points: 2
#     Edge 53, Type (0, 0), BuildingBlock: TEMPAE_clean_linker_10, # of connection points: 2
#     Edge 54, Type (0, 0), BuildingBlock: TEMPAE_clean_linker_10, # of connection points: 2
#     Edge 55, Type (0, 0), BuildingBlock: TEMPAE_clean_linker_10, # of connection points: 2
#     Edge 56, Type (0, 0), BuildingBlock: TEMPAE_clean_linker_10, # of connection points: 2
#     Edge 57, Type (0, 0), BuildingBlock: TEMPAE_clean_linker_10, # of connection points: 2
#     Edge 58, Type (0, 0), BuildingBlock: TEMPAE_clean_linker_10, # of connection points: 2
#     Edge 59, Type (0, 0), BuildingBlock: TEMPAE_clean_linker_10, # of connection points: 2
# Relax obj value: 0.198
# Max RMSD: 0.188
# Mean RMSD: 0.125
data_MOF--net-utb--node1-WUSLED_clean_sbu_0--edge1-TEMPAE_clean_linker_10
_symmetry_space_group_name_H-M    P1
_symmetry_Int_Tables_number       1
_symmetry_cell_setting            triclinic
loop_
_symmetry_equiv_pos_as_xyz
'x, y, z'
_cell_length_a     44.975281
_cell_length_b     103.32885
_cell_length_c     44.040795
_cell_angle_alpha  90.19892
_cell_angle_beta   90.252895
_cell_angle_gamma 90.000314
loop_
_atom_site_label
_atom_site_type_symbol
_atom_site_fract_x
_atom_site_fract_y
_atom_site_fract_z
_atom_type_partial_charge
C0 C 0.01999 0.43939 0.7166 0.0
C1 C 0.99116 0.43802 0.72849 0.0
C2 C 1.00017 0.41499 0.73683 0.0
C3 C 0.98136 0.42586 0.73875 0.0
C4 C 0.02899 0.41654 0.72537 0.0
C5 C 0.03874 0.42859 0.71544 0.0
U6 U 0.01763 0.47389 0.67979 0.0
O7 O 0.0489 0.48994 0.68943 0.0
O8 O 0.0478 0.4807 0.64369 0.0
C9 C 0.06004 0.4893 0.66188 0.0
C10 C 0.03194 0.45169 0.70497 0.0
C11 C 0.08398 0.49801 0.65174 0.0
C12 C 0.1356 0.50504 0.65391 0.0
C13 C 0.11246 0.49722 0.66466 0.0
C14 C 0.10195 0.51456 0.61723 0.0
C15 C 0.13076 0.51384 0.62994 0.0
C16 C 0.07889 0.50671 0.62797 0.0
C17 C 0.93699 0.48725 0.65969 0.0
C18 C 0.91774 0.50576 0.63187 0.0
C19 C 0.88391 0.48955 0.6512 0.0
C20 C 0.90788 0.48277 0.66339 0.0
C21 C 0.88839 0.5011 0.63512 0.0
C22 C 0.94195 0.49885 0.64402 0.0
C23 C 0.961 0.47897 0.67139 0.0
O24 O 0.03016 0.45339 0.67549 0.0
O25 O 0.02697 0.4623 0.72071 0.0
O26 O 0.97585 0.48281 0.69558 0.0
O27 O 0.9773 0.47271 0.65148 0.0
H28 H 0.97627 0.44625 0.72955 0.0
H29 H 0.95895 0.42485 0.74736 0.0
H30 H 0.04399 0.40836 0.72386 0.0
H31 H 0.06107 0.42945 0.70651 0.0
H32 H 0.15722 0.5042 0.6646 0.0
H33 H 0.11695 0.49042 0.68279 0.0
H34 H 0.09726 0.52095 0.59839 0.0
H35 H 0.05708 0.50738 0.61755 0.0
H36 H 0.922 0.51469 0.61986 0.0
H37 H 0.86189 0.48545 0.65363 0.0
H38 H 0.90368 0.47378 0.67522 0.0
H39 H 0.96434 0.50245 0.64089 0.0
C40 C 0.03297 0.06758 0.36989 0.0
C41 C 0.04323 0.05506 0.36321 0.0
C42 C 0.05123 0.0509 0.41741 0.0
C43 C 0.05242 0.04681 0.38676 0.0
C44 C 0.04044 0.06342 0.42362 0.0
C45 C 0.03164 0.07164 0.40018 0.0
U46 U 1.00556 0.07765 0.2894 0.0
O47 O 0.97002 0.09174 0.27919 0.0
O48 O 0.01662 0.09561 0.26473 0.0
C49 C 0.98889 0.0996 0.26598 0.0
C50 C 0.02338 0.07675 0.34626 0.0
C51 C 0.97932 0.11188 0.25245 0.0
C52 C 0.97403 0.13523 0.25564 0.0
C53 C 0.98508 0.12361 0.2674 0.0
C54 C 0.95199 0.12347 0.2135 0.0
C55 C 0.95708 0.1353 0.22867 0.0
C56 C 0.96295 0.11187 0.22536 0.0
C57 C 0.99341 0.05101 0.22791 0.0
C58 C 0.9635 0.05207 0.18195 0.0
C59 C 0.98889 0.03216 0.19524 0.0
C60 C 1.00064 0.03816 0.22103 0.0
C61 C 0.9696 0.03894 0.1758 0.0
C62 C 0.97531 0.05808 0.2079 0.0
C63 C 1.00268 0.05616 0.25757 0.0
O64 O 0.04155 0.07864 0.3234 0.0
O65 O 0.99533 0.07608 0.33804 0.0
O66 O 0.98117 0.06025 0.27527 0.0
O67 O 0.02638 0.0636 0.25821 0.0
H68 H 0.04429 0.05171 0.33989 0.0
H69 H 0.06079 0.03732 0.38081 0.0
H70 H 0.03828 0.06689 0.44672 0.0
H71 H 0.02358 0.08124 0.40578 0.0
H72 H 0.97866 0.14415 0.26775 0.0
H73 H 0.9976 0.12376 0.28847 0.0
H74 H 0.93871 0.12309 0.19295 0.0
H75 H 0.95823 0.10286 0.21364 0.0
H76 H 0.94893 0.05756 0.16717 0.0
H77 H 0.99369 0.02201 0.19145 0.0
H78 H 0.01443 0.03256 0.23637 0.0
H79 H 0.96952 0.06804 0.21288 0.0
C80 C 0.69764 0.59937 0.36564 0.0
C81 C 0.71492 0.60727 0.38462 0.0
C82 C 0.73077 0.62022 0.3415 0.0
C83 C 0.73141 0.61748 0.37277 0.0
C84 C 0.71232 0.6126 0.32254 0.0
C85 C 0.69601 0.60219 0.33449 0.0
U86 U 0.64605 0.56862 0.38019 0.0
O87 O 0.62906 0.56227 0.33489 0.0
O88 O 0.60002 0.57325 0.3659 0.0
C89 C 0.60313 0.5679 0.33894 0.0
C90 C 0.68522 0.5875 0.37909 0.0
C91 C 0.57641 0.56449 0.31997 0.0
C92 C 0.55215 0.56454 0.26986 0.0
C93 C 0.57674 0.56734 0.2887 0.0
C94 C 0.52561 0.55638 0.31318 0.0
C95 C 0.5264 0.55879 0.28174 0.0
C96 C 0.55026 0.55917 0.33214 0.0
C97 C 0.67385 0.54766 0.44898 0.0
C98 C 0.68915 0.52801 0.50015 0.0
C99 C 0.72983 0.55182 0.49014 0.0
C100 C 0.70543 0.55729 0.45982 0.0
C101 C 0.7211 0.53737 0.51059 0.0
C102 C 0.66627 0.53298 0.46846 0.0
C103 C 0.6537 0.55108 0.42322 0.0
O104 O 0.68849 0.57657 0.36413 0.0
O105 O 0.66018 0.58827 0.39426 0.0
O106 O 0.66447 0.54993 0.39565 0.0
O107 O 0.63679 0.56136 0.4264 0.0
H108 H 0.71679 0.60516 0.40865 0.0
H109 H 0.7457 0.62285 0.38813 0.0
H110 H 0.71086 0.61452 0.29843 0.0
H111 H 0.68287 0.59617 0.31936 0.0
H112 H 0.55361 0.56653 0.24579 0.0
H113 H 0.59627 0.5717 0.2787 0.0
H114 H 0.50583 0.55226 0.32296 0.0
H115 H 0.54895 0.55702 0.35615 0.0
H116 H 0.68365 0.51928 0.51242 0.0
H117 H 0.74952 0.55733 0.4959 0.0
H118 H 0.71037 0.56616 0.44785 0.0
H119 H 0.64746 0.52711 0.46165 0.0
C120 C 0.72468 0.91262 0.98445 0.0
C121 C 0.75461 0.91096 0.99311 0.0
C122 C 0.74785 0.8875 0.99366 0.0
C123 C 0.76616 0.89845 0.99759 0.0
C124 C 0.7182 0.88934 0.98429 0.0
C125 C 0.70678 0.90173 0.97991 0.0
U126 U 0.72652 0.94971 0.98947 0.0
O127 O 0.70628 0.96437 0.95949 0.0
O128 O 0.69342 0.96337 1.00758 0.0
C129 C 0.68956 0.96913 0.98129 0.0
C130 C 0.71104 0.92549 0.98074 0.0
C131 C 0.65909 0.9735 0.9738 0.0
C132 C 0.61274 0.97294 0.94466 0.0
C133 C 0.64099 0.96773 0.95135 0.0
C134 C 0.62073 0.98963 0.98257 0.0
C135 C 0.60231 0.98391 0.96045 0.0
C136 C 0.64865 0.98449 0.98912 0.0
C137 C 0.80192 0.96379 0.02012 0.0
C138 C 0.81701 0.98592 0.03114 0.0
C139 C 0.8487 0.96798 0.04576 0.0
C140 C 0.82831 0.95933 0.03334 0.0
C141 C 0.84313 0.98133 0.04525 0.0
C142 C 0.79633 0.97715 0.01875 0.0
C143 C 0.78073 0.95397 0.0094 0.0
O144 O 0.70567 0.93184 1.00602 0.0
O145 O 0.72197 0.93282 0.95916 0.0
O146 O 0.7737 0.95392 0.9804 0.0
O147 O 0.75819 0.95153 0.02734 0.0
H148 H 0.76883 0.91929 0.99675 0.0
H149 H 0.78908 0.89738 1.00479 0.0
H150 H 0.70365 0.88115 0.9803 0.0
H151 H 0.68373 0.90281 0.97313 0.0
H152 H 0.59885 0.96829 0.92769 0.0
H153 H 0.64861 0.95926 0.93911 0.0
H154 H 0.61348 0.99814 0.99492 0.0
H155 H 0.66232 0.98919 1.00623 0.0
H156 H 0.81219 0.99619 0.03061 0.0
H157 H 0.86877 0.96421 0.05616 0.0
H158 H 0.83295 0.94905 0.03454 0.0
H159 H 0.77594 0.98075 0.00868 0.0
C160 C 0.43256 0.55948 0.70044 0.0
C161 C 0.42859 0.55048 0.72394 0.0
C162 C 0.48077 0.55241 0.74014 0.0
C163 C 0.45215 0.54712 0.74336 0.0
C164 C 0.48497 0.56139 0.71649 0.0
C165 C 0.46115 0.56495 0.69712 0.0
U166 U 0.36468 0.56319 0.64046 0.0
O167 O 0.34774 0.58186 0.62307 0.0
O168 O 0.32035 0.57026 0.6539 0.0
C169 C 0.32252 0.58091 0.63785 0.0
C170 C 0.40609 0.56474 0.68347 0.0
C171 C 0.3089 0.59293 0.65001 0.0
C172 C 0.29114 0.60671 0.69133 0.0
C173 C 0.3079 0.59603 0.68112 0.0
C174 C 0.27743 0.61157 0.63947 0.0
C175 C 0.27502 0.61448 0.67064 0.0
C176 C 0.29386 0.60093 0.62942 0.0
C177 C 0.34341 0.53943 0.57359 0.0
C178 C 0.29813 0.5291 0.55447 0.0
C179 C 0.3385 0.53268 0.52 0.0
C180 C 0.35522 0.53827 0.54402 0.0
C181 C 0.30953 0.52793 0.52493 0.0
C182 C 0.31448 0.53475 0.57831 0.0
C183 C 0.36227 0.54426 0.59965 0.0
O184 O 0.40935 0.56974 0.65622 0.0
O185 O 0.38025 0.55897 0.68687 0.0
O186 O 0.3775 0.55498 0.59572 0.0
O187 O 0.35109 0.54345 0.62715 0.0
H188 H 0.407 0.54618 0.72781 0.0
H189 H 0.44819 0.54001 0.76062 0.0
H190 H 0.50656 0.56577 0.7131 0.0
H191 H 0.46504 0.57217 0.67982 0.0
H192 H 0.28996 0.60854 0.71551 0.0
H193 H 0.3193 0.59 0.69754 0.0
H194 H 0.26634 0.61744 0.62255 0.0
H195 H 0.29419 0.59874 0.60534 0.0
H196 H 0.27583 0.52603 0.55878 0.0
H197 H 0.34835 0.53203 0.49767 0.0
H198 H 0.37758 0.54161 0.53948 0.0
H199 H 0.30436 0.5354 0.60052 0.0
C200 C 0.97537 0.06369 0.64619 0.0
C201 C 0.9871 0.05109 0.64509 0.0
C202 C 0.95717 0.04629 0.59985 0.0
C203 C 0.97809 0.04246 0.62208 0.0
C204 C 0.94504 0.05881 0.60177 0.0
C205 C 0.95409 0.06738 0.62459 0.0
U206 U 0.00752 0.07729 0.72278 0.0
O207 O 0.04058 0.09298 0.72668 0.0
O208 O 0.995 0.09585 0.74433 0.0
C209 C 0.02114 0.10098 0.73869 0.0
C210 C 0.98621 0.07364 0.6677 0.0
C211 C 0.03144 0.11243 0.75559 0.0
C212 C 0.04005 0.13563 0.755 0.0
C213 C 0.02917 0.12444 0.74112 0.0
C214 C 0.05526 0.12303 0.79866 0.0
C215 C 0.05376 0.13509 0.78373 0.0
C216 C 0.0442 0.11175 0.78464 0.0
C217 C 0.02476 0.05186 0.78707 0.0
C218 C 0.04872 0.05385 0.83637 0.0
C219 C 0.03528 0.03268 0.81679 0.0
C220 C 0.02353 0.03843 0.79085 0.0
C221 C 0.04842 0.04027 0.83975 0.0
C222 C 0.03704 0.05962 0.8101 0.0
C223 C 0.01453 0.05705 0.7579 0.0
O224 O 0.96934 0.07623 0.69123 0.0
O225 O 0.01474 0.0736 0.67419 0.0
O226 O 0.03512 0.06121 0.73924 0.0
O227 O 0.99017 0.06409 0.75771 0.0
H228 H 1.00369 0.04804 0.66148 0.0
H229 H 0.98824 0.03297 0.62114 0.0
H230 H 0.92863 0.06207 0.58545 0.0
H231 H 0.94485 0.07707 0.62497 0.0
H232 H 0.03785 0.14472 0.74304 0.0
H233 H 0.01928 0.12515 0.7187 0.0
H234 H 0.06581 0.12222 0.82072 0.0
H235 H 0.0461 0.10254 0.79616 0.0
H236 H 0.05841 0.05999 0.85377 0.0
H237 H 0.03515 0.02222 0.81817 0.0
H238 H 0.01425 0.0323 0.77317 0.0
H239 H 0.03812 0.07003 0.8075 0.0
C240 C 0.01095 0.43156 0.30879 0.0
C241 C 0.0412 0.42975 0.30173 0.0
C242 C 0.03171 0.40695 0.28908 0.0
C243 C 0.05149 0.41752 0.29184 0.0
C244 C 1.00147 0.40908 0.29535 0.0
C245 C 0.99137 0.42113 0.30519 0.0
U246 U 0.0095 0.46617 0.34737 0.0
O247 O 0.97885 0.48246 0.33716 0.0
O248 O 0.97663 0.47257 0.38142 0.0
C249 C 0.96645 0.48193 0.36412 0.0
C250 C 0.99818 0.44386 0.32041 0.0
C251 C 0.9361 0.48727 0.36935 0.0
C252 C 0.88218 0.48562 0.37624 0.0
C253 C 0.90974 0.4799 0.36844 0.0
C254 C 0.90702 0.50601 0.3854 0.0
C255 C 0.88054 0.49875 0.38542 0.0
C256 C 0.9342 0.50036 0.37755 0.0
C257 C 0.0906 0.47961 0.37137 0.0
C258 C 0.11565 0.49973 0.38549 0.0
C259 C 0.14194 0.4794 0.38927 0.0
C260 C 0.11677 0.47292 0.37849 0.0
C261 C 0.14214 0.49295 0.39294 0.0
C262 C 0.09012 0.49313 0.37493 0.0
C263 C 0.06549 0.47187 0.35904 0.0
O264 O 0.99816 0.44547 0.35 0.0
O265 O 1.00332 0.45461 0.30543 0.0
O266 O 0.05153 0.47572 0.33438 0.0
O267 O 0.04862 0.46535 0.37787 0.0
H268 H 0.05682 0.43766 0.30424 0.0
H269 H 0.07494 0.41625 0.28721 0.0
H270 H 0.98538 0.40135 0.29281 0.0
H271 H 0.96797 0.42229 0.31028 0.0
H272 H 0.86236 0.47967 0.37596 0.0
H273 H 0.91049 0.46976 0.36224 0.0
H274 H 0.90689 0.51616 0.39157 0.0
H275 H 0.95411 0.50626 0.37847 0.0
H276 H 0.11452 0.51016 0.38735 0.0
H277 H 0.16107 0.4736 0.39527 0.0
H278 H 0.11777 0.4625 0.3757 0.0
H279 H 0.07024 0.49856 0.36937 0.0
C280 C 0.30147 0.91926 0.02927 0.0
C281 C 0.2741 0.9173 0.0143 0.0
C282 C 0.2766 0.89413 0.02528 0.0
C283 C 0.26176 0.90481 0.01231 0.0
C284 C 0.30382 0.8963 0.04034 0.0
C285 C 0.31593 0.90868 0.04241 0.0
U286 U 0.30477 0.95654 0.02139 0.0
O287 O 0.32686 0.97092 0.0513 0.0
O288 O 0.34118 0.96862 1.00342 0.0
C289 C 0.34417 0.97492 0.02925 0.0
C290 C 0.31643 0.93197 0.03087 0.0
C291 C 0.37063 0.98301 0.03541 0.0
C292 C 0.42335 0.98627 0.04598 0.0
C293 C 0.39917 0.97791 0.04037 0.0
C294 C 0.39048 1.00472 0.04212 0.0
C295 C 0.41939 0.99987 0.04703 0.0
C296 C 0.36665 0.99642 0.03621 0.0
C297 C 0.22852 0.97189 0.99427 0.0
C298 C 0.21363 0.99329 0.97721 0.0
C299 C 0.17786 0.97573 0.97752 0.0
C300 C 0.19951 0.96746 0.98907 0.0
C301 C 0.18483 0.98862 0.97117 0.0
C302 C 0.23554 0.98492 0.98874 0.0
C303 C 0.25058 0.9622 1.00356 0.0
O304 O 0.32137 0.93778 1.00489 0.0
O305 O 0.3076 0.93989 0.05242 0.0
O306 O 0.25855 0.96187 0.03228 0.0
O307 O 0.27234 0.95967 0.98463 0.0
H308 H 0.26249 0.92537 1.00401 0.0
H309 H 0.24067 0.90351 1.00072 0.0
H310 H 0.31632 0.88835 0.05 0.0
H311 H 0.33708 0.90997 0.05391 0.0
H312 H 0.44516 0.98203 0.04893 0.0
H313 H 0.4028 0.96755 0.03977 0.0
H314 H 0.38581 0.01497 0.0433 0.0
H315 H 0.3448 1.00054 0.0324 0.0
H316 H 0.21933 1.00324 0.97211 0.0
H317 H 0.15584 0.97196 0.97269 0.0
H318 H 0.19379 0.95742 0.9931 0.0
H319 H 0.2579 0.9885 0.99256 0.0
C320 C 0.26891 0.10828 0.02816 0.0
C321 C 0.24035 0.10679 0.04024 0.0
C322 C 0.23974 0.1297 0.05491 0.0
C323 C 0.22576 0.11746 0.0533 0.0
C324 C 0.26816 0.13104 0.04206 0.0
C325 C 0.28239 0.12049 0.02871 0.0
U326 U 0.29789 0.07312 1.00339 0.0
O327 O 0.33128 0.07053 0.96733 0.0
O328 O 0.34381 0.06775 0.01513 0.0
C329 C 0.35248 0.06754 0.98672 0.0
C330 C 0.2869 0.09736 0.01723 0.0
C331 C 0.37363 0.05729 0.97815 0.0
C332 C 0.42522 0.05146 0.96997 0.0
C333 C 0.40372 0.06061 0.97744 0.0
C334 C 0.38682 0.03527 0.96352 0.0
C335 C 0.41736 0.03858 0.96282 0.0
C336 C 0.36514 0.04455 0.97119 0.0
C337 C 0.22895 0.04967 0.01467 0.0
C338 C 0.19462 0.03159 0.01154 0.0
C339 C 0.18622 0.04876 0.04813 0.0
C340 C 0.21157 0.05524 0.03766 0.0
C341 C 0.17821 0.03661 0.03593 0.0
C342 C 0.21972 0.03806 1.00107 0.0
C343 C 0.25888 0.05435 1.00722 0.0
O344 O 0.29587 0.08878 0.0372 0.0
O345 O 0.28198 0.09256 0.98997 0.0
O346 O 0.26236 0.06127 0.98247 0.0
O347 O 0.27623 0.05789 0.0299 0.0
H348 H 0.22964 0.0974 0.04009 0.0
H349 H 0.2037 0.11605 0.06244 0.0
H350 H 0.28011 0.14012 0.04327 0.0
H351 H 0.3046 0.12178 0.01972 0.0
H352 H 0.44816 0.05456 0.97057 0.0
H353 H 0.41074 0.07038 0.98297 0.0
H354 H 0.37948 0.0256 0.95782 0.0
H355 H 0.34191 0.04179 0.97167 0.0
H356 H 0.18882 0.02237 1.00139 0.0
H357 H 0.17404 0.05285 0.06704 0.0
H358 H 0.2184 0.06419 0.04849 0.0
H359 H 0.23294 0.03359 0.98337 0.0
C360 C 0.89592 0.23593 0.82376 0.0
C361 C 0.90186 0.22353 0.81194 0.0
C362 C 0.87497 0.21366 0.85403 0.0
C363 C 0.89158 0.21244 0.82713 0.0
C364 C 0.86903 0.22608 0.8655 0.0
C365 C 0.87949 0.23706 0.85058 0.0
U366 U 0.93039 0.25627 0.75849 0.0
O367 O 0.91821 0.27598 0.74396 0.0
O368 O 0.96336 0.27203 0.76142 0.0
C369 C 0.94489 0.28057 0.74986 0.0
C370 C 0.9068 0.24793 0.80938 0.0
C371 C 0.94822 0.29426 0.75882 0.0
C372 C 0.93119 0.31434 0.78218 0.0
C373 C 0.92791 0.30093 0.77736 0.0
C374 C 0.97505 0.3143 0.75044 0.0
C375 C 0.95485 0.32112 0.76865 0.0
C376 C 0.97175 0.30106 0.74563 0.0
C377 C 0.95449 0.24011 0.68333 0.0
C378 C 0.97925 0.25085 0.64129 0.0
C379 C 0.96818 0.22793 0.63827 0.0
C380 C 0.95543 0.22846 0.66708 0.0
C381 C 0.98043 0.23907 0.62502 0.0
C382 C 0.96641 0.25136 0.67029 0.0
C383 C 0.94145 0.24001 0.71395 0.0
O384 O 0.93562 0.24882 0.80499 0.0
O385 O 0.89094 0.25244 0.78661 0.0
O386 O 0.91583 0.24597 0.71714 0.0
O387 O 0.96 0.24217 0.73653 0.0
H388 H 0.91445 0.22243 0.79118 0.0
H389 H 0.89629 0.20296 0.81775 0.0
H390 H 0.85658 0.22728 0.88632 0.0
H391 H 0.87481 0.24652 0.86016 0.0
H392 H 0.91531 0.3194 0.79631 0.0
H393 H 0.90943 0.29587 0.78761 0.0
H394 H 0.99307 0.31929 0.73918 0.0
H395 H 0.98731 0.29615 0.73082 0.0
H396 H 0.98869 0.25959 0.63185 0.0
H397 H 0.96817 0.21877 0.62625 0.0
H398 H 0.9463 0.2197 0.67676 0.0
H399 H 0.96596 0.26046 0.68257 0.0
C400 C 0.03769 0.97099 0.63767 0.0
C401 C 0.03403 0.9841 0.64552 0.0
C402 C 0.05131 0.99074 0.59514 0.0
C403 C 0.04077 0.99389 0.62444 0.0
C404 C 0.05417 0.97755 0.58748 0.0
C405 C 0.04758 0.96786 0.60847 0.0
U406 U 0.01084 0.95675 0.71422 0.0
O407 O 0.98517 0.93897 0.72284 0.0
O408 O 0.03034 0.94117 0.74211 0.0
C409 C 1.00611 0.93409 0.7403 0.0
C410 C 0.03188 0.9603 0.65918 0.0
C411 C 0.0083 0.91997 0.74369 0.0
C412 C 0.01664 0.89808 0.7251 0.0
C413 C 0.01588 0.91151 0.71996 0.0
C414 C 1.00189 0.90163 0.7773 0.0
C415 C 0.00957 0.89298 0.75393 0.0
C416 C 1.0015 0.91492 0.77225 0.0
C417 C 0.97998 0.98062 0.77481 0.0
C418 C 0.9631 0.97603 0.82616 0.0
C419 C 0.95679 0.99746 0.80484 0.0
C420 C 0.97028 0.99339 0.7781 0.0
C421 C 0.95282 0.98883 0.82897 0.0
C422 C 0.97652 0.97189 0.79902 0.0
C423 C 0.99317 0.97696 0.74553 0.0
O424 O 0.04876 0.95988 0.68361 0.0
O425 O 1.00384 0.95764 0.66469 0.0
O426 O 0.97582 0.97063 0.72657 0.0
O427 O 0.02064 0.97266 0.74608 0.0
H428 H 0.02627 0.98676 0.66795 0.0
H429 H 0.03827 1.0039 0.63136 0.0
H430 H 0.06132 0.97465 0.56503 0.0
H431 H 0.05033 0.95782 0.60184 0.0
H432 H 0.02296 0.89174 0.7066 0.0
H433 H 0.02115 0.91525 0.69767 0.0
H434 H 0.99558 0.89817 0.79953 0.0
H435 H 0.9954 0.92131 0.79078 0.0
H436 H 0.96008 0.96922 0.84455 0.0
H437 H 0.9492 1.00739 0.80662 0.0
H438 H 0.97288 1.00025 0.75973 0.0
H439 H 0.98387 0.96194 0.79683 0.0
C440 C 0.9831 0.77044 0.22548 0.0
C441 C 1.00532 0.7747 0.24565 0.0
C442 C 0.99827 0.79685 0.22815 0.0
C443 C 0.01309 0.7878 0.24675 0.0
C444 C 0.97645 0.79233 0.20766 0.0
C445 C 0.96915 0.77927 0.20623 0.0
U446 U 0.9759 0.73821 0.26546 0.0
O447 O 0.9337 0.72892 0.27715 0.0
O448 O 0.96603 0.71855 0.24796 0.0
C449 C 0.93942 0.71872 0.26027 0.0
C450 C 0.97095 0.75737 0.2272 0.0
C451 C 0.92344 0.70669 0.26642 0.0
C452 C 0.88451 0.69206 0.24981 0.0
C453 C 0.90386 0.70224 0.24393 0.0
C454 C 0.905 0.69021 0.30063 0.0
C455 C 0.88431 0.68611 0.27843 0.0
C456 C 0.92436 0.70054 0.29472 0.0
C457 C 0.0232 0.73571 0.3391 0.0
C458 C 0.02705 0.71795 0.3746 0.0
C459 C 0.03369 0.74009 0.39193 0.0
C460 C 0.02994 0.74443 0.36242 0.0
C461 C 0.03123 0.72683 0.39861 0.0
C462 C 0.02264 0.72239 0.34496 0.0
C463 C 0.01384 0.74118 0.31015 0.0
O464 O 0.98959 0.74772 0.22304 0.0
O465 O 0.95305 0.7557 0.25026 0.0
O466 O 0.98689 0.74607 0.31024 0.0
O467 O 0.02037 0.7348 0.28514 0.0
H468 H 0.01592 0.76797 0.26112 0.0
H469 H 0.03021 0.79085 0.26259 0.0
H470 H 0.96384 0.79894 0.19359 0.0
H471 H 0.9515 0.77614 0.19106 0.0
H472 H 0.86926 0.68901 0.23208 0.0
H473 H 0.90272 0.70699 0.22205 0.0
H474 H 0.9053 0.68584 0.32294 0.0
H475 H 0.93924 0.70397 0.31241 0.0
H476 H 0.02568 0.70766 0.37891 0.0
H477 H 0.0363 0.74729 0.40965 0.0
H478 H 0.03042 0.75476 0.35813 0.0
H479 H 0.01757 0.71551 0.32705 0.0
C480 C 0.98247 0.91715 0.29478 0.0
C481 C 0.9988 0.91517 0.26799 0.0
C482 C 0.98902 0.89198 0.27066 0.0
C483 C 1.00213 0.90264 0.25605 0.0
C484 C 0.97265 0.89412 0.29734 0.0
C485 C 0.96937 0.90657 0.30918 0.0
U486 U 0.98885 0.95402 0.29185 0.0
O487 O 0.95837 0.96903 0.30917 0.0
O488 O 1.00449 0.96809 0.32604 0.0
C489 C 0.97867 0.97402 0.32733 0.0
C490 C 0.97894 0.93007 0.30852 0.0
C491 C 0.96939 0.97929 0.35705 0.0
C492 C 0.93977 0.97957 0.40344 0.0
C493 C 0.94797 0.97352 0.37593 0.0
C494 C 0.97393 0.99708 0.39287 0.0
C495 C 0.95296 0.99138 0.41224 0.0
C496 C 0.98205 0.9911 0.3658 0.0
C497 C 0.02196 0.96716 0.21572 0.0
C498 C 0.04209 0.98826 0.20284 0.0
C499 C 0.04013 0.97124 0.16489 0.0
C500 C 0.02715 0.96299 0.18597 0.0
C501 C 0.04802 0.98396 0.17302 0.0
C502 C 0.02922 0.97989 0.22412 0.0
C503 C 0.01102 0.95752 0.23743 0.0
O504 O 1.0037 0.9363 0.31488 0.0
O505 O 0.95841 0.93746 0.29623 0.0
O506 O 0.98231 0.95733 0.24283 0.0
O507 O 0.02745 0.95555 0.26171 0.0
H508 H 0.00901 0.92326 0.25645 0.0
H509 H 0.01471 0.9013 0.23535 0.0
H510 H 0.96274 0.88613 0.30949 0.0
H511 H 0.95677 0.90791 0.32986 0.0
H512 H 0.92378 0.9749 0.41812 0.0
H513 H 0.93779 0.96441 0.36955 0.0
H514 H 0.98436 1.0062 0.39883 0.0
H515 H 0.99836 0.99578 0.35149 0.0
H516 H 0.04759 0.99804 0.20978 0.0
H517 H 0.04488 0.96746 0.14247 0.0
H518 H 0.02193 0.95315 0.1792 0.0
H519 H 0.02542 0.98327 0.2471 0.0
C520 C 0.10331 0.28702 0.24167 0.0
C521 C 0.0977 0.29216 0.27071 0.0
C522 C 0.08954 0.31358 0.24891 0.0
C523 C 0.09104 0.30535 0.27431 0.0
C524 C 0.09487 0.30833 0.21996 0.0
C525 C 0.10179 0.29521 0.21642 0.0
U526 U 0.10883 0.25228 0.27079 0.0
O527 O 0.09963 0.23361 0.24831 0.0
O528 O 0.14439 0.23769 0.26637 0.0
C529 C 0.12697 0.22939 0.25224 0.0
C530 C 0.11101 0.27322 0.23717 0.0
C531 C 0.14026 0.22124 0.22821 0.0
C532 C 0.14711 0.2145 0.17556 0.0
C533 C 0.13596 0.22339 0.19698 0.0
C534 C 0.16702 0.20142 0.21637 0.0
C535 C 0.16268 0.20336 0.18509 0.0
C536 C 0.15604 0.21025 0.23754 0.0
C537 C 0.08174 0.24994 0.35613 0.0
C538 C 0.06654 0.23277 0.39051 0.0
C539 C 0.0733 0.25464 0.40933 0.0
C540 C 0.08115 0.25869 0.3804 0.0
C541 C 0.06588 0.24167 0.41484 0.0
C542 C 0.07457 0.23688 0.36121 0.0
C543 C 0.08839 0.25535 0.32606 0.0
O544 O 0.13372 0.26895 0.25312 0.0
O545 O 0.08852 0.2651 0.23657 0.0
O546 O 0.07142 0.25202 0.30294 0.0
O547 O 0.11651 0.25689 0.31902 0.0
H548 H 0.09857 0.28599 0.29054 0.0
H549 H 0.08674 0.3091 0.29687 0.0
H550 H 0.09412 0.31444 0.20003 0.0
H551 H 0.1061 0.29145 0.19387 0.0
H552 H 0.14356 0.21632 0.15161 0.0
H553 H 0.12374 0.23179 0.18921 0.0
H554 H 0.17831 0.19286 0.22464 0.0
H555 H 0.15927 0.20831 0.2615 0.0
H556 H 0.0609 0.2227 0.39418 0.0
H557 H 0.07236 0.26179 0.42736 0.0
H558 H 0.08627 0.26883 0.37684 0.0
H559 H 0.07484 0.22997 0.34267 0.0
C560 C 0.75743 0.11948 1.00216 0.0
C561 C 0.7817 0.11625 0.98364 0.0
C562 C 0.79106 0.13913 0.97441 0.0
C563 C 0.79834 0.12603 0.96975 0.0
C564 C 0.7676 0.14227 0.99409 0.0
C565 C 0.75091 0.13252 1.00775 0.0
U566 U 0.73711 0.0844 0.02153 0.0
O567 O 0.7094 0.07708 0.0594 0.0
O568 O 0.69527 0.07429 0.01123 0.0
C569 C 0.68914 0.07283 0.04017 0.0
C570 C 0.73707 0.10956 0.01377 0.0
C571 C 0.66278 0.06552 0.04965 0.0
C572 C 0.61311 0.06521 0.07137 0.0
C573 C 0.64004 0.07164 0.06609 0.0
C574 C 0.63221 0.0463 0.04524 0.0
C575 C 0.6087 0.05258 0.06032 0.0
C576 C 0.6589 0.05276 0.03974 0.0
C577 C 0.80331 0.06015 1.0029 0.0
C578 C 0.80955 0.03887 0.98012 0.0
C579 C 0.85274 0.05129 0.99571 0.0
C580 C 0.83421 0.06109 1.00633 0.0
C581 C 0.84067 0.04031 0.98145 0.0
C582 C 0.79092 0.04879 0.99063 0.0
C583 C 0.78598 0.07206 1.00717 0.0
O584 O 0.72702 0.10132 0.99342 0.0
O585 O 0.74456 0.10408 0.03957 0.0
O586 O 0.78058 0.07614 0.03492 0.0
O587 O 0.76448 0.07444 0.98767 0.0
H588 H 0.78716 0.10621 0.97918 0.0
H589 H 0.81651 0.12336 0.95493 0.0
H590 H 0.76131 0.15226 0.99788 0.0
H591 H 0.7322 0.13516 0.0219 0.0
H592 H 0.59526 0.07034 0.08264 0.0
H593 H 0.64258 0.08158 0.07356 0.0
H594 H 0.62954 0.03652 0.03669 0.0
H595 H 0.67621 0.0479 0.027 0.0
H596 H 0.79967 0.03051 0.96913 0.0
H597 H 0.8766 0.05258 0.99736 0.0
H598 H 0.84418 0.06983 0.01552 0.0
H599 H 0.76709 0.0479 0.98763 0.0
C600 C 0.03078 0.77029 0.78865 0.0
C601 C 0.01538 0.7754 0.76355 0.0
C602 C 0.01594 0.79662 0.78725 0.0
C603 C 0.00799 0.78854 0.76287 0.0
C604 C 0.02991 0.79136 0.81288 0.0
C605 C 0.03722 0.77825 0.8136 0.0
U606 U 0.04165 0.73804 0.74888 0.0
O607 O 0.08511 0.72964 0.73755 0.0
O608 O 0.05343 0.71853 0.76558 0.0
C609 C 0.08023 0.71923 0.75379 0.0
C610 C 0.04442 0.75744 0.78715 0.0
C611 C 0.09671 0.70738 0.74631 0.0
C612 C 0.14164 0.69486 0.75468 0.0
C613 C 0.12352 0.70534 0.7619 0.0
C614 C 0.10592 0.68794 0.71656 0.0
C615 C 0.13316 0.68615 0.73185 0.0
C616 C 0.08773 0.6986 0.72367 0.0
C617 C 0.99344 0.73492 0.67547 0.0
C618 C 0.98804 0.71715 0.63995 0.0
C619 C 0.9807 0.73927 0.62319 0.0
C620 C 0.98577 0.74364 0.65256 0.0
C621 C 0.98287 0.72602 0.61628 0.0
C622 C 0.99365 0.72159 0.66944 0.0
C623 C 1.00331 0.74038 0.70436 0.0
O624 O 0.02687 0.74743 0.79133 0.0
O625 O 0.06263 0.75598 0.76423 0.0
O626 O 0.03003 0.74552 0.70396 0.0
O627 O 0.99743 0.73394 0.72934 0.0
H628 H 0.01059 0.7694 0.74389 0.0
H629 H 0.99756 0.79254 0.74275 0.0
H630 H 0.03646 0.79754 0.83169 0.0
H631 H 0.0494 0.77447 0.83291 0.0
H632 H 0.16256 0.69364 0.76665 0.0
H633 H 0.1308 0.71206 0.77937 0.0
H634 H 0.09915 0.68131 0.69873 0.0
H635 H 0.06716 0.70009 0.71129 0.0
H636 H 0.9893 0.70686 0.63539 0.0
H637 H 0.9773 0.74644 0.60564 0.0
H638 H 0.98542 0.75397 0.65702 0.0
H639 H 0.99932 0.71472 0.68706 0.0
C640 C 0.7729 0.2915 0.08307 0.0
C641 C 0.74775 0.29515 0.0661 0.0
C642 C 0.76292 0.31787 0.06865 0.0
C643 C 0.74286 0.3082 0.05888 0.0
C644 C 0.78794 0.31408 0.08581 0.0
C645 C 0.79287 0.30105 0.09283 0.0
U646 U 0.74799 0.25625 0.08715 0.0
O647 O 0.77144 0.23805 0.07656 0.0
O648 O 0.75444 0.24155 0.1227 0.0
C649 C 0.76845 0.2336 0.1043 0.0
C650 C 0.77866 0.27784 0.09098 0.0
C651 C 0.79272 0.22559 0.11682 0.0
C652 C 0.83593 0.22183 0.14925 0.0
C653 C 0.8152 0.23039 0.1361 0.0
C654 C 0.81228 0.20388 0.12322 0.0
C655 C 0.83429 0.2084 0.1434 0.0
C656 C 0.79177 0.21234 0.11031 0.0
C657 C 0.66641 0.25191 0.0545 0.0
C658 C 0.62871 0.23501 0.05674 0.0
C659 C 0.61928 0.2547 0.02856 0.0
C660 C 0.64748 0.25922 0.03605 0.0
C661 C 0.60922 0.24272 0.03939 0.0
C662 C 0.65723 0.23963 0.06448 0.0
C663 C 0.69435 0.25814 0.06398 0.0
O664 O 0.76288 0.27322 0.11353 0.0
O665 O 0.7807 0.26975 0.06796 0.0
O666 O 0.71807 0.25603 0.0474 0.0
O667 O 0.69991 0.25913 0.09321 0.0
H668 H 0.73198 0.28791 0.05836 0.0
H669 H 0.72352 0.31067 0.04535 0.0
H670 H 0.80358 0.32119 0.09431 0.0
H671 H 0.8123 0.29844 0.10608 0.0
H672 H 0.85259 0.22567 0.16465 0.0
H673 H 0.81635 0.24062 0.14142 0.0
H674 H 0.81068 0.19371 0.1174 0.0
H675 H 0.77464 0.20845 0.09549 0.0
H676 H 0.62149 0.2257 0.06524 0.0
H677 H 0.605 0.26075 0.01471 0.0
H678 H 0.65423 0.26868 0.02806 0.0
H679 H 0.67166 0.23383 0.07872 0.0
C680 C 0.26397 0.70818 0.10301 0.0
C681 C 0.28158 0.69821 0.09103 0.0
C682 C 0.27982 0.68681 0.13988 0.0
C683 C 0.28917 0.68752 0.10924 0.0
C684 C 0.26257 0.6971 0.15135 0.0
C685 C 0.25445 0.70746 0.13307 0.0
U686 U 0.26957 0.7367 0.044 0.0
O687 O 0.23338 0.74857 0.02433 0.0
O688 O 0.26209 0.75635 0.06065 0.0
C689 C 0.23976 0.75846 0.0421 0.0
C690 C 0.2559 0.71997 0.08636 0.0
C691 C 0.23827 0.77159 0.02976 0.0
C692 C 0.21934 0.79325 0.03751 0.0
C693 C 0.21874 0.78011 0.04405 0.0
C694 C 0.25799 0.78948 1.0004 0.0
C695 C 0.23903 0.79825 0.01571 0.0
C696 C 0.25792 0.77625 1.00771 0.0
C697 C 0.34215 0.73204 0.99115 0.0
C698 C 0.39116 0.74033 0.98034 0.0
C699 C 0.38008 0.71759 0.97229 0.0
C700 C 0.35067 0.71977 0.98076 0.0
C701 C 0.40093 0.72769 0.97411 0.0
C702 C 0.36188 0.74247 0.98905 0.0
C703 C 0.31579 0.73332 0.01002 0.0
O704 O 0.2734 0.72995 0.09088 0.0
O705 O 0.24571 0.71904 0.05837 0.0
O706 O 0.28943 0.72906 1.00161 0.0
O707 O 0.31728 0.73925 0.03643 0.0
H708 H 0.28945 0.69869 0.06785 0.0
H709 H 0.30222 0.67986 0.09911 0.0
H710 H 0.25573 0.69749 0.17482 0.0
H711 H 0.24114 0.71516 0.14282 0.0
H712 H 0.20511 0.79947 0.05085 0.0
H713 H 0.20387 0.7767 0.0616 0.0
H714 H 0.27325 0.79279 0.98317 0.0
H715 H 0.27355 0.76978 0.99679 0.0
H716 H 0.40678 0.74829 0.98192 0.0
H717 H 0.38717 0.70779 0.96724 0.0
H718 H 0.33557 0.71163 0.98224 0.0
H719 H 0.35542 0.75202 0.99681 0.0
C720 C 0.63425 0.48737 0.93558 0.0
C721 C 0.62399 0.49991 0.94244 0.0
C722 C 0.61176 0.50373 0.88865 0.0
C723 C 0.61284 0.50801 0.9192 0.0
C724 C 0.62286 0.49126 0.88219 0.0
C725 C 0.63365 0.48324 0.90525 0.0
U726 U 0.64984 0.47236 0.01699 0.0
O727 O 0.64716 0.45165 0.02843 0.0
O728 O 0.69015 0.4618 0.03197 0.0
C729 C 0.67545 0.45094 0.03583 0.0
C730 C 0.64586 0.47815 0.95868 0.0
C731 C 0.69112 0.4384 0.03267 0.0
C732 C 0.69794 0.41704 0.00993 0.0
C733 C 0.68594 0.42963 0.00878 0.0
C734 C 0.72179 0.4222 0.05774 0.0
C735 C 0.7155 0.41297 0.03494 0.0
C736 C 0.7095 0.4346 0.05676 0.0
C737 C 0.6204 0.49039 0.09063 0.0
C738 C 0.62728 0.48719 0.14531 0.0
C739 C 0.59158 0.50284 0.12702 0.0
C740 C 0.59903 0.49979 0.09715 0.0
C741 C 0.60582 0.49684 0.15189 0.0
C742 C 0.63446 0.48397 0.11494 0.0
C743 C 0.62683 0.48798 0.05806 0.0
O744 O 0.66808 0.48186 0.97615 0.0
O745 O 0.62632 0.47097 0.97299 0.0
O746 O 0.61158 0.47884 0.04424 0.0
O747 O 0.65451 0.48881 0.0488 0.0
H748 H 0.6243 0.50339 0.96567 0.0
H749 H 0.60446 0.51748 0.92529 0.0
H750 H 0.62343 0.48762 0.85914 0.0
H751 H 0.64163 0.47367 0.89928 0.0
H752 H 0.69228 0.41041 0.99175 0.0
H753 H 0.67182 0.43233 0.98985 0.0
H754 H 0.73601 0.41994 0.07685 0.0
H755 H 0.71373 0.44116 0.07553 0.0
H756 H 0.63889 0.48226 0.16346 0.0
H757 H 0.57411 0.50988 0.13031 0.0
H758 H 0.58777 0.50482 0.07886 0.0
H759 H 0.651 0.47659 0.11051 0.0
C760 C 0.23698 0.29249 0.93223 0.0
C761 C 0.26225 0.29665 0.94846 0.0
C762 C 0.24604 0.31921 0.9442 0.0
C763 C 0.26673 0.30989 0.95439 0.0
C764 C 0.2208 0.31487 0.9281 0.0
C765 C 0.21645 0.30171 0.9221 0.0
U766 U 0.2618 0.25697 0.92836 0.0
O767 O 0.23826 0.23888 0.93961 0.0
O768 O 0.25373 0.24225 0.89291 0.0
C769 C 0.24027 0.23435 0.91176 0.0
C770 C 0.23143 0.27867 0.92539 0.0
C771 C 0.2158 0.22613 0.90009 0.0
C772 C 0.17287 0.22168 0.8676 0.0
C773 C 0.19359 0.23049 0.88001 0.0
C774 C 0.1959 0.20433 0.89601 0.0
C775 C 0.17417 0.20838 0.875 0.0
C776 C 0.21644 0.21305 0.90813 0.0
C777 C 0.34464 0.25208 0.95637 0.0
C778 C 0.37475 0.23336 0.97018 0.0
C779 C 0.39735 0.25459 0.9663 0.0
C780 C 0.36994 0.25989 0.95859 0.0
C781 C 0.40015 0.2413 0.97203 0.0
C782 C 0.34702 0.23873 0.96218 0.0
C783 C 0.31648 0.25864 0.9491 0.0
O784 O 0.24625 0.27385 0.90232 0.0
O785 O 0.23046 0.27083 0.9488 0.0
O786 O 0.29347 0.25642 0.9666 0.0
O787 O 0.30959 0.25997 0.92026 0.0
H788 H 0.27851 0.28969 0.95639 0.0
H789 H 0.28663 0.31282 0.96652 0.0
H790 H 0.20405 0.32164 0.92034 0.0
H791 H 0.19683 0.29871 0.90956 0.0
H792 H 0.15652 0.2252 0.85152 0.0
H793 H 0.19265 0.24058 0.87345 0.0
H794 H 0.1973 0.19433 0.90312 0.0
H795 H 0.23338 0.20946 0.92353 0.0
H796 H 0.37645 0.22308 0.97459 0.0
H797 H 0.41644 0.26095 0.96812 0.0
H798 H 0.36846 0.27021 0.95457 0.0
H799 H 0.32762 0.23254 0.96068 0.0
C800 C 0.62983 0.59347 0.69646 0.0
C801 C 0.61371 0.59984 0.71923 0.0
C802 C 0.65625 0.61351 0.73194 0.0
C803 C 0.62666 0.60966 0.73671 0.0
C804 C 0.67219 0.60756 0.70813 0.0
C805 C 0.65917 0.59753 0.69066 0.0
U806 U 0.61003 0.5656 0.63603 0.0
O807 O 0.65165 0.56134 0.61168 0.0
O808 O 0.61779 0.57349 0.59004 0.0
C809 C 0.64395 0.56793 0.58742 0.0
C810 C 0.61559 0.582 0.68186 0.0
C811 C 0.65231 0.56237 0.55739 0.0
C812 C 0.68397 0.56344 0.5129 0.0
C813 C 0.67253 0.56887 0.53966 0.0
C814 C 0.6526 0.5454 0.51901 0.0
C815 C 0.67941 0.54984 0.50112 0.0
C816 C 0.64122 0.55089 0.54597 0.0
C817 C 0.5476 0.54036 0.65985 0.0
C818 C 0.53367 0.52316 0.69521 0.0
C819 C 0.49543 0.53674 0.67377 0.0
C820 C 0.51719 0.54354 0.65728 0.0
C821 C 0.50339 0.52672 0.69387 0.0
C822 C 0.55532 0.52985 0.67854 0.0
C823 C 0.57057 0.54662 0.64004 0.0
O824 O 0.63101 0.57124 0.67952 0.0
O825 O 0.59712 0.58384 0.65907 0.0
O826 O 0.59866 0.54549 0.64806 0.0
O827 O 0.56459 0.558 0.62815 0.0
H828 H 0.59112 0.59691 0.72422 0.0
H829 H 0.6135 0.61416 0.75438 0.0
H830 H 0.69502 0.6103 0.7038 0.0
H831 H 0.67219 0.59277 0.67326 0.0
H832 H 0.69931 0.57041 0.50338 0.0
H833 H 0.68035 0.57833 0.54688 0.0
H834 H 0.6403 0.53661 0.51432 0.0
H835 H 0.62374 0.54591 0.55815 0.0
H836 H 0.54083 0.51525 0.70952 0.0
H837 H 0.47245 0.53967 0.67152 0.0
H838 H 0.5101 0.55127 0.64237 0.0
H839 H 0.57823 0.52672 0.6803 0.0
C840 C 0.78963 0.766 0.98561 0.0
C841 C 0.76361 0.77169 0.99719 0.0
C842 C 0.78871 0.79243 1.00013 0.0
C843 C 0.76313 0.78488 1.00422 0.0
C844 C 0.81515 0.78657 0.99049 0.0
C845 C 0.81556 0.77341 0.98318 0.0
U846 U 0.75007 0.73415 0.9722 0.0
O847 O 0.74091 0.72546 0.92765 0.0
O848 O 0.76627 0.71439 0.96187 0.0
C849 C 0.75576 0.71485 0.93394 0.0
C850 C 0.78867 0.7531 0.97166 0.0
C851 C 0.74632 0.70285 0.91868 0.0
C852 C 0.75823 0.68672 0.88038 0.0
C853 C 0.7668 0.69695 0.8992 0.0
C854 C 0.70853 0.68771 0.90122 0.0
C855 C 0.72888 0.68205 0.88073 0.0
C856 C 0.71715 0.6981 0.91997 0.0
C857 C 0.67556 0.73272 0.01761 0.0
C858 C 0.63753 0.71621 0.01997 0.0
C859 C 0.6251 0.73867 0.0299 0.0
C860 C 0.65468 0.74206 0.02606 0.0
C861 C 0.61592 0.72578 0.02572 0.0
C862 C 0.66724 0.71968 0.01554 0.0
C863 C 0.70476 0.73738 0.00854 0.0
O864 O 0.79122 0.74313 0.98997 0.0
O865 O 0.76746 0.75173 0.95138 0.0
O866 O 0.706 0.74224 0.98105 0.0
O867 O 0.72829 0.73054 0.01615 0.0
H868 H 0.74329 0.76611 0.99904 0.0
H869 H 0.74248 0.78933 0.0114 0.0
H870 H 0.83493 0.79233 0.98688 0.0
H871 H 0.83567 0.76918 0.97401 0.0
H872 H 0.77441 0.68284 0.86465 0.0
H873 H 0.78931 0.70063 0.89758 0.0
H874 H 0.68586 0.68424 0.90244 0.0
H875 H 0.70096 0.70261 0.93476 0.0
H876 H 0.63124 0.70615 0.0173 0.0
H877 H 0.60925 0.74637 0.03386 0.0
H878 H 0.66092 0.75217 0.02785 0.0
H879 H 0.68329 0.71234 0.00925 0.0
C880 C 0.37058 0.59656 0.32308 0.0
C881 C 0.38959 0.60566 0.30966 0.0
C882 C 0.34736 0.61748 0.28857 0.0
C883 C 0.37819 0.61599 0.29272 0.0
C884 C 0.32819 0.60867 0.30305 0.0
C885 C 0.33966 0.59832 0.32018 0.0
U886 U 0.38044 0.56694 0.37921 0.0
O887 O 0.36495 0.57362 0.42447 0.0
O888 O 0.33428 0.56338 0.39388 0.0
C889 C 0.33782 0.56916 0.42029 0.0
C890 C 0.38393 0.5846 0.33611 0.0
C891 C 0.31971 0.56453 0.44667 0.0
C892 C 0.2702 0.5595 0.46631 0.0
C893 C 0.28909 0.56256 0.44213 0.0
C894 C 0.31168 0.56069 0.50108 0.0
C895 C 0.28115 0.55814 0.4962 0.0
C896 C 0.33075 0.56376 0.47665 0.0
C897 C 0.44347 0.54107 0.36106 0.0
C898 C 0.49451 0.53242 0.36079 0.0
C899 C 0.46144 0.52766 0.319 0.0
C900 C 0.43883 0.53497 0.33282 0.0
C901 C 0.48976 0.5262 0.33263 0.0
C902 C 0.47172 0.53971 0.37476 0.0
C903 C 0.4182 0.5472 0.37827 0.0
O904 O 0.36866 0.57382 0.33346 0.0
O905 O 0.39835 0.58552 0.36207 0.0
O906 O 0.42328 0.55803 0.39324 0.0
O907 O 0.39158 0.54694 0.36577 0.0
H908 H 0.41349 0.60446 0.31121 0.0
H909 H 0.39361 0.62249 0.28168 0.0
H910 H 0.30432 0.60964 0.30064 0.0
H911 H 0.3244 0.59147 0.33025 0.0
H912 H 0.24682 0.55813 0.46137 0.0
H913 H 0.2795 0.56355 0.41965 0.0
H914 H 0.32105 0.56 0.52367 0.0
H915 H 0.35403 0.5656 0.48129 0.0
H916 H 0.51583 0.53166 0.37214 0.0
H917 H 0.45658 0.52328 0.29727 0.0
H918 H 0.41746 0.53561 0.32148 0.0
H919 H 0.47607 0.54409 0.39671 0.0
C920 C 0.31093 0.43892 1.00051 0.0
C921 C 0.31653 0.43411 0.9713 0.0
C922 C 0.28995 0.41412 0.98349 0.0
C923 C 0.30601 0.42181 0.96281 0.0
C924 C 0.28393 0.4192 0.01247 0.0
C925 C 0.29427 0.43146 0.0208 0.0
U926 U 0.3505 0.47365 0.01372 0.0
O927 O 0.3363 0.48568 0.0526 0.0
O928 O 0.37947 0.47581 0.05391 0.0
C929 C 0.36058 0.4833 0.06831 0.0
C930 C 0.32409 0.45105 0.012 0.0
C931 C 0.37291 0.49377 0.08755 0.0
C932 C 0.38206 0.50182 0.13879 0.0
C933 C 0.36973 0.49263 0.11906 0.0
C934 C 0.40058 0.51378 0.09569 0.0
C935 C 0.3978 0.51257 0.12755 0.0
C936 C 0.38834 0.50444 0.07587 0.0
C937 C 0.372 0.48925 0.93313 0.0
C938 C 0.38922 0.50463 0.89551 0.0
C939 C 0.37459 0.4831 0.87966 0.0
C940 C 0.36806 0.47997 0.91007 0.0
C941 C 0.3854 0.49551 0.87195 0.0
C942 C 0.38235 0.50157 0.92546 0.0
C943 C 0.36755 0.48665 0.96574 0.0
O944 O 0.35314 0.4524 0.01194 0.0
O945 O 0.30922 0.46199 0.01052 0.0
O946 O 0.34084 0.48782 0.97749 0.0
O947 O 0.38439 0.47797 0.97921 0.0
H948 H 0.32946 0.43972 0.95535 0.0
H949 H 0.31074 0.41826 0.94018 0.0
H950 H 0.27216 0.41352 0.02918 0.0
H951 H 0.29005 0.43495 0.04362 0.0
H952 H 0.37988 0.50024 0.16296 0.0
H953 H 0.35805 0.48442 0.12856 0.0
H954 H 0.41217 0.52194 0.08599 0.0
H955 H 0.39108 0.50551 0.05159 0.0
H956 H 0.39836 0.51413 0.89115 0.0
H957 H 0.37115 0.47581 0.86229 0.0
H958 H 0.36022 0.47035 0.91554 0.0
H959 H 0.38587 0.50883 0.94294 0.0
C960 C 0.8649 0.51301 0.59151 0.0
C961 C 0.86247 0.50772 0.62068 0.0
C962 C 0.83999 0.51813 0.57645 0.0
C963 C 0.81189 0.51801 0.59086 0.0
C964 C 0.80935 0.513 0.6206 0.0
C965 C 0.83464 0.50794 0.63512 0.0
C966 C 0.84353 0.5233 0.54463 0.0
C967 C 0.77988 0.51252 0.63687 0.0
C968 C 0.75718 0.54091 0.5532 0.0
C969 C 0.74143 0.53243 0.53423 0.0
C970 C 0.77856 0.53619 0.57374 0.0
C971 C 0.78528 0.5228 0.57409 0.0
C972 C 0.7683 0.51416 0.55603 0.0
C973 C 0.74612 0.51908 0.53684 0.0
C974 C 0.79455 0.54553 0.59453 0.0
C975 C 0.77467 0.49982 0.55563 0.0
H976 H 0.88608 0.51272 0.5799 0.0
H977 H 0.83248 0.50404 0.65782 0.0
H978 H 0.82895 0.5178 0.52879 0.0
H979 H 0.8365 0.53358 0.54378 0.0
H980 H 0.86681 0.52261 0.53646 0.0
H981 H 0.78298 0.5122 0.6619 0.0
H982 H 0.76565 0.52094 0.63113 0.0
H983 H 0.76782 0.5036 0.62997 0.0
H984 H 0.75284 0.55121 0.55196 0.0
H985 H 0.73356 0.51245 0.5227 0.0
H986 H 0.81811 0.5464 0.58748 0.0
H987 H 0.79442 0.54183 0.61817 0.0
H988 H 0.78427 0.5553 0.59425 0.0
H989 H 0.79706 0.4981 0.54591 0.0
H990 H 0.7581 0.49432 0.54195 0.0
H991 H 0.7748 0.49593 0.57906 0.0
C992 C 0.92293 0.03353 0.14763 0.0
C993 C 0.95368 0.03189 0.15122 0.0
C994 C 0.90664 0.02574 0.12748 0.0
C995 C 0.92145 0.0161 0.11037 0.0
C996 C 0.95269 0.01472 0.11293 0.0
C997 C 0.96845 0.02264 0.13338 0.0
C998 C 0.87327 0.02731 0.12589 0.0
C999 C 0.96934 1.00469 0.09467 0.0
C1000 C 0.87341 0.98722 0.09068 0.0
C1001 C 0.86393 0.99019 0.06115 0.0
C1002 C 0.89304 0.99534 0.10646 0.0
C1003 C 0.90361 1.00671 0.09231 0.0
C1004 C 0.89484 1.00959 0.06213 0.0
C1005 C 0.87478 1.00134 0.04699 0.0
C1006 C 0.90178 0.99192 0.13862 0.0
C1007 C 0.90606 0.0215 0.04611 0.0
H1008 H 0.9113 0.04048 0.16173 0.0
H1009 H 0.99228 0.02142 0.13587 0.0
H1010 H 0.86588 0.02836 0.10197 0.0
H1011 H 0.8624 0.01852 0.13508 0.0
H1012 H 0.8654 0.03584 0.13901 0.0
H1013 H 0.99356 1.0047 0.0998 0.0
H1014 H 0.96039 0.99489 0.09929 0.0
H1015 H 0.96615 1.00657 0.07009 0.0
H1016 H 0.8649 0.97863 0.10173 0.0
H1017 H 0.8678 1.00353 0.02402 0.0
H1018 H 0.89419 0.99962 0.15442 0.0
H1019 H 0.92633 0.99132 0.14067 0.0
H1020 H 0.89213 0.98255 0.14601 0.0
H1021 H 0.89516 0.03021 0.05577 0.0
H1022 H 0.90133 0.02118 0.02133 0.0
H1023 H 0.93038 0.02262 0.04957 0.0
C1024 C 0.27014 0.51218 0.50627 0.0
C1025 C 0.29014 0.52228 0.49988 0.0
C1026 C 0.24819 0.50819 0.48521 0.0
C1027 C 0.24531 0.51457 0.45681 0.0
C1028 C 0.2669 0.52405 0.44917 0.0
C1029 C 0.28916 0.52766 0.47055 0.0
C1030 C 0.22722 0.49743 0.49405 0.0
C1031 C 0.26585 0.53086 0.41896 0.0
C1032 C 0.19816 0.49426 0.40205 0.0
C1033 C 0.16953 0.49966 0.40547 0.0
C1034 C 0.2233 0.49956 0.41685 0.0
C1035 C 0.22035 0.51076 0.43525 0.0
C1036 C 0.19237 0.51724 0.43509 0.0
C1037 C 0.16736 0.51137 0.42151 0.0
C1038 C 0.25318 0.49317 0.41263 0.0
C1039 C 0.18792 0.53066 0.44752 0.0
H1040 H 0.27124 0.50749 0.5282 0.0
H1041 H 0.30475 0.53522 0.46476 0.0
H1042 H 0.2038 0.50071 0.49195 0.0
H1043 H 0.23001 0.48908 0.47845 0.0
H1044 H 0.23109 0.49403 0.51765 0.0
H1045 H 0.28774 0.53515 0.41315 0.0
H1046 H 0.25892 0.52419 0.40044 0.0
H1047 H 0.24932 0.53881 0.42004 0.0
H1048 H 0.20114 0.48576 0.38798 0.0
H1049 H 0.14599 0.51607 0.42395 0.0
H1050 H 0.25987 0.4882 0.43386 0.0
H1051 H 0.27041 0.50054 0.40764 0.0
H1052 H 0.25286 0.48593 0.39392 0.0
H1053 H 0.17203 0.5304 0.4667 0.0
H1054 H 0.17743 0.53681 0.42983 0.0
H1055 H 0.20885 0.53533 0.45425 0.0
C1056 C 0.09168 0.03839 0.87547 0.0
C1057 C 0.06393 0.03383 0.86551 0.0
C1058 C 0.1088 0.03134 0.89633 0.0
C1059 C 0.0981 0.01935 0.90725 0.0
C1060 C 0.06942 0.01501 0.89864 0.0
C1061 C 0.05257 0.02236 0.87806 0.0
C1062 C 0.13926 0.03629 0.90504 0.0
C1063 C 0.05699 1.0024 0.91024 0.0
C1064 C 0.15938 0.9953 0.92392 0.0
C1065 C 0.16263 0.9966 0.95535 0.0
C1066 C 0.13758 1.00229 0.9082 0.0
C1067 C 0.11859 1.01076 0.92444 0.0
C1068 C 0.12115 0.01173 0.95647 0.0
C1069 C 0.14331 1.00462 0.97159 0.0
C1070 C 0.13519 1.00076 0.87415 0.0
C1071 C 0.10104 0.02046 0.97468 0.0
H1072 H 0.10086 0.04713 0.86574 0.0
H1073 H 0.03081 0.01892 0.87107 0.0
H1074 H 0.14236 0.03594 0.93003 0.0
H1075 H 0.15649 0.02999 0.89472 0.0
H1076 H 0.143 0.04638 0.8973 0.0
H1077 H 0.0348 1.00015 0.90034 0.0
H1078 H 0.07234 0.99431 0.90488 0.0
H1079 H 0.05491 1.00286 0.93531 0.0
H1080 H 0.17401 0.98879 0.91167 0.0
H1081 H 0.14551 1.00528 0.99606 0.0
H1082 H 0.13962 1.01017 0.86298 0.0
H1083 H 0.1123 0.99778 0.86773 0.0
H1084 H 0.15105 0.99347 0.86512 0.0
H1085 H 0.10788 0.03067 0.97138 0.0
H1086 H 0.1021 0.01827 0.99935 0.0
H1087 H 0.07765 0.01955 0.96686 0.0
C1088 C 0.1284 0.03391 0.06081 0.0
C1089 C 0.15521 0.02851 0.05076 0.0
C1090 C 0.10818 0.02655 0.07779 0.0
C1091 C 0.1152 0.01359 0.08522 0.0
C1092 C 0.14141 1.00788 0.07362 0.0
C1093 C 0.16113 0.01542 0.05665 0.0
C1094 C 0.07998 0.03283 0.089 0.0
C1095 C 0.14923 0.99395 0.08017 0.0
C1096 C 0.08745 1.00021 0.16005 0.0
C1097 C 0.06375 0.9923 0.1507 0.0
C1098 C 0.10397 1.00732 0.13892 0.0
C1099 C 0.09688 1.00643 0.10762 0.0
C1100 C 0.07288 0.99855 0.09798 0.0
C1101 C 0.05636 0.99174 0.11967 0.0
C1102 C 0.12951 0.0156 0.15005 0.0
C1103 C 0.06448 0.99732 0.06486 0.0
H1104 H 0.12349 0.04396 0.05588 0.0
H1105 H 0.18186 1.01117 0.04907 0.0
H1106 H 0.0606 0.02641 0.08486 0.0
H1107 H 0.08166 0.03443 0.11388 0.0
H1108 H 0.07575 0.04228 0.07785 0.0
H1109 H 0.16957 0.99077 0.068 0.0
H1110 H 0.15287 0.99267 0.10492 0.0
H1111 H 0.13054 0.98753 0.07341 0.0
H1112 H 0.09372 1.00056 0.18382 0.0
H1113 H 0.03771 0.98588 0.11222 0.0
H1114 H 0.12634 0.02575 0.14255 0.0
H1115 H 0.15064 0.01209 0.14003 0.0
H1116 H 0.13173 0.0155 0.17518 0.0
H1117 H 0.05236 1.00615 0.05769 0.0
H1118 H 0.04987 0.98883 0.0606 0.0
H1119 H 0.08449 0.99643 0.05035 0.0
C1120 C 0.07264 0.24255 0.47107 0.0
C1121 C 0.05654 0.23794 0.44592 0.0
C1122 C 0.06146 0.24143 0.50059 0.0
C1123 C 0.03349 0.2355 0.50516 0.0
C1124 C 0.01812 0.22997 0.48011 0.0
C1125 C 0.02984 0.23126 0.45069 0.0
C1126 C 0.0789 0.24719 0.5267 0.0
C1127 C 0.98842 0.22341 0.48408 0.0
C1128 C 0.01181 0.22751 0.58639 0.0
C1129 C 0.99429 0.23825 0.59436 0.0
C1130 C 0.02427 0.22633 0.55732 0.0
C1131 C 0.0193 0.23618 0.53566 0.0
C1132 C 1.00168 0.24705 0.5435 0.0
C1133 C 0.98944 0.24797 0.57274 0.0
C1134 C 0.04292 0.21461 0.54988 0.0
C1135 C 0.99597 0.25778 0.52103 0.0
H1136 H 0.09356 0.24752 0.46748 0.0
H1137 H 0.01726 0.22772 0.43132 0.0
H1138 H 0.06607 0.25522 0.53712 0.0
H1139 H 0.08256 0.23981 0.54455 0.0
H1140 H 0.10084 0.251 0.51946 0.0
H1141 H 0.98175 0.21782 0.46356 0.0
H1142 H 0.9889 0.21679 0.50385 0.0
H1143 H 0.97117 0.23085 0.48858 0.0
H1144 H 0.01608 0.22004 0.60306 0.0
H1145 H 0.97566 0.25622 0.5785 0.0
H1146 H 0.06607 0.21763 0.54504 0.0
H1147 H 0.03423 0.20976 0.52915 0.0
H1148 H 0.04334 0.20748 0.56871 0.0
H1149 H 0.01726 0.26257 0.51519 0.0
H1150 H 0.98045 0.26521 0.53002 0.0
H1151 H 0.98652 0.25375 0.49969 0.0
C1152 C 0.90781 0.99827 0.8524 0.0
C1153 C 0.9366 0.99337 0.85607 0.0
C1154 C 0.89333 1.00459 0.87626 0.0
C1155 C 0.90812 1.00614 0.90449 0.0
C1156 C 0.93684 1.00077 0.90872 0.0
C1157 C 0.95074 0.99432 0.88439 0.0
C1158 C 0.86287 1.01029 0.87062 0.0
C1159 C 0.95325 1.00225 0.9385 0.0
C1160 C 0.88234 0.03625 0.94552 0.0
C1161 C 0.86044 0.03127 0.96484 0.0
C1162 C 0.89932 0.02806 0.92707 0.0
C1163 C 0.89443 0.01454 0.92808 0.0
C1164 C 0.87355 1.00939 0.94879 0.0
C1165 C 0.85647 0.01785 0.96667 0.0
C1166 C 0.92127 0.03396 0.90523 0.0
C1167 C 0.8682 0.99502 0.95098 0.0
H1168 H 0.89703 0.99754 0.83039 0.0
H1169 H 0.97314 0.99061 0.88703 0.0
H1170 H 0.84726 1.00731 0.88873 0.0
H1171 H 0.86427 0.02101 0.87117 0.0
H1172 H 0.85347 1.00729 0.84831 0.0
H1173 H 0.97624 0.99835 0.93741 0.0
H1174 H 0.95436 0.0126 0.94524 0.0
H1175 H 0.941 0.99709 0.9566 0.0
H1176 H 0.88523 0.04663 0.94371 0.0
H1177 H 0.83969 0.01399 0.98173 0.0
H1178 H 0.91333 0.03249 0.88157 0.0
H1179 H 0.94321 0.02913 0.90728 0.0
H1180 H 0.92432 0.0445 0.90915 0.0
H1181 H 0.85648 0.99162 0.93023 0.0
H1182 H 0.85454 0.99248 0.97105 0.0
H1183 H 0.88964 0.98975 0.95236 0.0
C1184 C 1.00699 0.71314 0.57538 0.0
C1185 C 0.98492 0.72198 0.5841 0.0
C1186 C 0.01462 0.71159 0.54488 0.0
C1187 C 1.00035 0.7193 0.52281 0.0
C1188 C 0.97666 0.72758 0.53109 0.0
C1189 C 0.9688 0.72861 0.56167 0.0
C1190 C 0.03971 0.70252 0.53681 0.0
C1191 C 0.96122 0.73609 0.50807 0.0
C1192 C 0.04322 0.72964 0.45372 0.0
C1193 C 0.02829 0.72279 0.43068 0.0
C1194 C 0.03474 0.7284 0.48405 0.0
C1195 C 0.01184 0.71962 0.49155 0.0
C1196 C 0.99877 0.71174 0.46892 0.0
C1197 C 1.00684 0.71354 0.43862 0.0
C1198 C 0.04881 0.73713 0.50766 0.0
C1199 C 0.97514 0.70192 0.47658 0.0
H1200 H 0.0199 0.70808 0.59244 0.0
H1201 H 0.95126 0.73524 0.56822 0.0
H1202 H 0.03608 0.69789 0.51433 0.0
H1203 H 0.06079 0.70808 0.53581 0.0
H1204 H 0.04243 0.69482 0.55414 0.0
H1205 H 0.94195 0.74133 0.51791 0.0
H1206 H 0.97722 0.74334 0.49925 0.0
H1207 H 0.95336 0.73026 0.48844 0.0
H1208 H 0.06041 0.73654 0.44788 0.0
H1209 H 0.99493 0.70826 0.42112 0.0
H1210 H 0.05686 0.7314 0.52728 0.0
H1211 H 0.0319 0.74403 0.51632 0.0
H1212 H 0.06773 0.74278 0.49842 0.0
H1213 H 0.98295 0.69559 0.4953 0.0
H1214 H 0.9691 0.69576 0.45676 0.0
H1215 H 0.95483 0.70695 0.4846 0.0
C1216 C 0.43501 0.23028 0.00828 0.0
C1217 C 0.42992 0.23619 0.98014 0.0
C1218 C 0.46421 0.22834 0.01904 0.0
C1219 C 0.4886 0.23246 1.00122 0.0
C1220 C 0.48341 0.23734 0.97166 0.0
C1221 C 0.45415 0.23916 0.96153 0.0
C1222 C 0.46882 0.22292 0.05046 0.0
C1223 C 0.5087 0.24169 0.9517 0.0
C1224 C 0.55538 0.24815 0.03855 0.0
C1225 C 0.57783 0.23898 0.03356 0.0
C1226 C 0.52604 0.24583 0.02939 0.0
C1227 C 0.51873 0.23397 0.01502 0.0
C1228 C 0.54092 0.22434 0.0114 0.0
C1229 C 0.57032 0.22695 0.02086 0.0
C1230 C 0.50321 0.2564 0.03368 0.0
C1231 C 0.53375 0.21148 0.99683 0.0
H1232 H 0.41628 0.22802 0.02273 0.0
H1233 H 0.45014 0.24363 0.93965 0.0
H1234 H 0.48805 0.2162 0.05094 0.0
H1235 H 0.47372 0.23096 0.06649 0.0
H1236 H 0.44877 0.21773 0.05862 0.0
H1237 H 0.50104 0.24431 0.92849 0.0
H1238 H 0.51969 0.25027 0.96203 0.0
H1239 H 0.52566 0.23394 0.94984 0.0
H1240 H 0.56104 0.25737 0.04888 0.0
H1241 H 0.58762 0.21982 0.01712 0.0
H1242 H 0.48367 0.25261 0.04607 0.0
H1243 H 0.49526 0.25982 0.0112 0.0
H1244 H 0.51226 0.26483 0.04644 0.0
H1245 H 0.51775 0.20615 0.01125 0.0
H1246 H 0.55387 0.20539 0.99369 0.0
H1247 H 0.52293 0.21293 0.97441 0.0
C1248 C 0.56268 0.73007 0.03875 0.0
C1249 C 0.5838 0.72297 0.02226 0.0
C1250 C 0.53265 0.7299 0.03034 0.0
C1251 C 0.52355 0.72205 1.00564 0.0
C1252 C 0.54424 0.71404 0.9906 0.0
C1253 C 0.57422 0.71471 0.99883 0.0
C1254 C 0.51103 0.73863 0.04676 0.0
C1255 C 0.53517 0.70545 0.96433 0.0
C1256 C 0.44152 0.71536 0.9985 0.0
C1257 C 0.43279 0.72475 0.97736 0.0
C1258 C 0.4712 0.71419 1.00745 0.0
C1259 C 0.49254 0.72258 0.99479 0.0
C1260 C 0.48416 0.73168 0.97237 0.0
C1261 C 0.4542 0.7327 0.96398 0.0
C1262 C 0.4795 0.70442 0.03147 0.0
C1263 C 0.50645 0.74082 0.95849 0.0
H1264 H 0.56981 0.73626 0.05732 0.0
H1265 H 0.59027 0.70935 0.98553 0.0
H1266 H 0.50252 0.74609 0.03088 0.0
H1267 H 0.49161 0.733 0.05476 0.0
H1268 H 0.52141 0.7436 0.06654 0.0
H1269 H 0.55228 0.698 0.95936 0.0
H1270 H 0.51376 0.70052 0.96893 0.0
H1271 H 0.5321 0.71149 0.94376 0.0
H1272 H 0.42488 0.70943 0.00951 0.0
H1273 H 0.44732 0.74004 0.94787 0.0
H1274 H 0.48684 0.70953 0.05239 0.0
H1275 H 0.49839 0.69837 0.02366 0.0
H1276 H 0.46063 0.69797 0.03732 0.0
H1277 H 0.51267 0.74832 0.97548 0.0
H1278 H 0.49736 0.74576 0.93809 0.0
H1279 H 0.52705 0.73561 0.95202 0.0
C1280 C 0.58665 0.51332 0.18953 0.0
C1281 C 0.59753 0.50079 0.18392 0.0
C1282 C 0.57421 0.51688 0.21752 0.0
C1283 C 0.5736 0.50791 0.24198 0.0
C1284 C 0.5886 0.49591 0.23787 0.0
C1285 C 0.59943 0.49232 0.20884 0.0
C1286 C 0.56239 0.53047 0.21983 0.0
C1287 C 0.59391 0.48678 0.26397 0.0
C1288 C 0.54349 0.52413 0.31469 0.0
C1289 C 0.51439 0.5191 0.31601 0.0
C1290 C 0.56382 0.52007 0.29206 0.0
C1291 C 0.55522 0.51058 0.27023 0.0
C1292 C 0.52745 0.50424 0.27432 0.0
C1293 C 0.50777 0.50845 0.29727 0.0
C1294 C 0.59362 0.52671 0.29058 0.0
C1295 C 0.51731 0.49351 0.25327 0.0
H1296 H 0.58736 0.52052 0.17173 0.0
H1297 H 0.60888 0.48277 0.20584 0.0
H1298 H 0.54883 0.53202 0.24001 0.0
H1299 H 0.5814 0.53731 0.22092 0.0
H1300 H 0.54913 0.53296 0.19933 0.0
H1301 H 0.61725 0.48327 0.26347 0.0
H1302 H 0.58986 0.49135 0.28641 0.0
H1303 H 0.57943 0.47816 0.26139 0.0
H1304 H 0.54978 0.53196 0.32973 0.0
H1305 H 0.48612 0.50392 0.29912 0.0
H1306 H 0.59109 0.53604 0.2784 0.0
H1307 H 0.61047 0.52075 0.27865 0.0
H1308 H 0.60194 0.52901 0.31376 0.0
H1309 H 0.52224 0.49584 0.22923 0.0
H1310 H 0.4931 0.49157 0.2553 0.0
H1311 H 0.52925 0.48448 0.25909 0.0
C1312 C 0.45097 0.51889 0.70755 0.0
C1313 C 0.48107 0.52082 0.7154 0.0
C1314 C 0.43013 0.51429 0.72909 0.0
C1315 C 0.43934 0.51178 0.75939 0.0
C1316 C 0.46948 0.51366 0.76721 0.0
C1317 C 0.48973 0.51795 0.74526 0.0
C1318 C 0.39822 0.51242 0.71951 0.0
C1319 C 0.48013 0.51148 0.79933 0.0
C1320 C 0.39111 0.51193 0.83016 0.0
C1321 C 0.39385 0.49907 0.84003 0.0
C1322 C 0.40353 0.5161 0.80268 0.0
C1323 C 0.41842 0.50713 0.78361 0.0
C1324 C 0.41844 0.49386 0.79186 0.0
C1325 C 0.40663 0.49001 0.82007 0.0
C1326 C 0.40279 0.53036 0.79592 0.0
C1327 C 0.43259 0.48383 0.77157 0.0
H1328 H 0.44358 0.52104 0.68468 0.0
H1329 H 0.5122 0.51982 0.75209 0.0
H1330 H 0.38859 0.50365 0.73014 0.0
H1331 H 0.38495 0.52088 0.72703 0.0
H1332 H 0.39602 0.51159 0.69445 0.0
H1333 H 0.50347 0.51435 0.80246 0.0
H1334 H 0.4664 0.51712 0.81554 0.0
H1335 H 0.47816 0.50111 0.80535 0.0
H1336 H 0.38019 0.51898 0.84454 0.0
H1337 H 0.40881 0.48002 0.82701 0.0
H1338 H 0.40057 0.53211 0.77128 0.0
H1339 H 0.42373 0.5348 0.80434 0.0
H1340 H 0.38407 0.53526 0.80765 0.0
H1341 H 0.42375 0.48479 0.74811 0.0
H1342 H 0.42851 0.47383 0.77967 0.0
H1343 H 0.45696 0.48543 0.77053 0.0
C1344 C 0.23953 0.54366 0.51378 0.0
C1345 C 0.26107 0.55302 0.52101 0.0
C1346 C 0.22132 0.53793 0.53578 0.0
C1347 C 0.22374 0.54176 0.56646 0.0
C1348 C 0.24521 0.55129 0.57443 0.0
C1349 C 0.26369 0.55677 0.55172 0.0
C1350 C 0.19917 0.52774 0.52609 0.0
C1351 C 0.24876 0.55561 0.60694 0.0
C1352 C 0.15055 0.53429 0.60571 0.0
C1353 C 0.15573 0.52187 0.61753 0.0
C1354 C 0.17326 0.54135 0.59132 0.0
C1355 C 0.20227 0.53606 0.58898 0.0
C1356 C 0.20803 0.52391 0.60285 0.0
C1357 C 0.18476 0.51694 0.61639 0.0
C1358 C 0.16565 0.55416 0.5769 0.0
C1359 C 0.23811 0.5176 0.6016 0.0
H1360 H 0.23773 0.54035 0.49079 0.0
H1361 H 0.28011 0.56397 0.55806 0.0
H1362 H 0.19885 0.51947 0.54203 0.0
H1363 H 0.17656 0.53202 0.52538 0.0
H1364 H 0.20438 0.52384 0.50349 0.0
H1365 H 0.26725 0.56264 0.60985 0.0
H1366 H 0.22782 0.56014 0.61486 0.0
H1367 H 0.25306 0.54711 0.62166 0.0
H1368 H 0.12849 0.53844 0.60708 0.0
H1369 H 0.18925 0.5073 0.62489 0.0
H1370 H 0.16563 0.55309 0.55182 0.0
H1371 H 0.18264 0.56153 0.5829 0.0
H1372 H 0.14345 0.55775 0.58398 0.0
H1373 H 0.241 0.51309 0.57892 0.0
H1374 H 0.24054 0.50985 0.61884 0.0
H1375 H 0.25578 0.52485 0.60568 0.0
C1376 C 0.8849 0.20163 0.16319 0.0
C1377 C 0.85461 0.19891 0.15848 0.0
C1378 C 0.90418 0.1923 0.17575 0.0
C1379 C 0.89304 0.17989 0.1832 0.0
C1380 C 0.86245 0.17719 0.17905 0.0
C1381 C 0.84364 0.18676 0.16724 0.0
C1382 C 0.93658 0.19564 0.18015 0.0
C1383 C 0.84957 0.1641 0.18673 0.0
C1384 C 0.94182 0.14989 0.18576 0.0
C1385 C 0.94354 0.1475 0.21708 0.0
C1386 C 0.92667 0.16075 0.17444 0.0
C1387 C 0.91305 0.16951 0.19489 0.0
C1388 C 0.91603 0.16753 0.22654 0.0
C1389 C 0.93106 0.15652 0.23725 0.0
C1390 C 0.92422 0.16257 0.14053 0.0
C1391 C 0.90256 0.17684 0.24909 0.0
H1392 H 0.89373 0.21093 0.1564 0.0
H1393 H 0.82017 0.18464 0.16468 0.0
H1394 H 0.94529 0.19164 0.20178 0.0
H1395 H 0.94968 0.19133 0.16138 0.0
H1396 H 0.94028 0.20627 0.18008 0.0
H1397 H 0.82551 0.16341 0.18113 0.0
H1398 H 0.86154 0.15639 0.17412 0.0
H1399 H 0.85254 0.16214 0.2113 0.0
H1400 H 0.95196 0.14315 0.17 0.0
H1401 H 0.93206 0.15476 0.26147 0.0
H1402 H 0.93179 0.17241 0.13422 0.0
H1403 H 0.90061 0.16168 0.1334 0.0
H1404 H 0.93755 0.15535 0.12772 0.0
H1405 H 0.91073 0.18679 0.24466 0.0
H1406 H 0.90798 0.17425 0.27294 0.0
H1407 H 0.87803 0.17699 0.24638 0.0
C1408 C 0.49769 0.54067 0.25759 0.0
C1409 C 0.5021 0.55399 0.26094 0.0
C1410 C 0.47866 0.53542 0.23538 0.0
C1411 C 0.46131 0.54374 0.2172 0.0
C1412 C 0.46367 0.55732 0.22188 0.0
C1413 C 0.48472 0.56231 0.243 0.0
C1414 C 0.47903 0.52094 0.23047 0.0
C1415 C 0.44386 0.56648 0.20461 0.0
C1416 C 0.43975 0.52768 0.14234 0.0
C1417 C 0.41214 0.52205 0.14914 0.0
C1418 C 0.45482 0.53561 0.16347 0.0
C1419 C 0.44225 0.53804 0.19242 0.0
C1420 C 0.41404 0.53267 0.1992 0.0
C1421 C 0.39929 0.52489 0.17751 0.0
C1422 C 0.48553 0.54042 0.15578 0.0
C1423 C 0.40042 0.53412 0.23028 0.0
H1424 H 0.51092 0.53426 0.27091 0.0
H1425 H 0.48744 0.57267 0.24561 0.0
H1426 H 0.46413 0.51734 0.21227 0.0
H1427 H 0.50196 0.51792 0.2247 0.0
H1428 H 0.47245 0.51599 0.25153 0.0
H1429 H 0.44876 0.57676 0.21004 0.0
H1430 H 0.44635 0.56491 0.17981 0.0
H1431 H 0.4203 0.56444 0.21033 0.0
H1432 H 0.45046 0.52538 0.12102 0.0
H1433 H 0.37789 0.52078 0.18323 0.0
H1434 H 0.50217 0.53499 0.16937 0.0
H1435 H 0.48781 0.55082 0.16169 0.0
H1436 H 0.4908 0.5391 0.13134 0.0
H1437 H 0.40865 0.52616 0.24499 0.0
H1438 H 0.37579 0.5334 0.22917 0.0
H1439 H 0.40659 0.54345 0.24114 0.0
C1440 C 0.78688 0.87001 0.98945 0.0
C1441 C 0.75883 0.87413 0.99951 0.0
C1442 C 0.79548 0.85695 0.99193 0.0
C1443 C 0.77545 0.84785 1.00444 0.0
C1444 C 0.74786 0.8521 0.01607 0.0
C1445 C 0.74007 0.86518 0.01376 0.0
C1446 C 0.82538 0.85276 0.97997 0.0
C1447 C 0.726 0.84274 0.0299 0.0
C1448 C 0.77406 0.81316 0.97675 0.0
C1449 C 0.78664 0.80661 1.00136 0.0
C1450 C 0.77156 0.82665 0.97698 0.0
C1451 C 0.78158 0.83373 1.00267 0.0
C1452 C 0.79481 0.82711 0.02745 0.0
C1453 C 0.79741 0.81356 0.02637 0.0
C1454 C 0.75743 0.83331 0.95006 0.0
C1455 C 0.80607 0.83431 0.05506 0.0
H1456 H 0.80159 0.87685 0.97852 0.0
H1457 H 0.71879 0.86835 0.02251 0.0
H1458 H 0.83715 0.84675 0.99704 0.0
H1459 H 0.82225 0.84669 0.95937 0.0
H1460 H 0.83967 0.86114 0.97405 0.0
H1461 H 0.70541 0.84762 0.03781 0.0
H1462 H 0.71973 0.83522 0.013 0.0
H1463 H 0.73645 0.83773 0.04946 0.0
H1464 H 0.76609 0.80766 0.95733 0.0
H1465 H 0.80742 0.80837 0.04518 0.0
H1466 H 0.7727 0.84077 0.94099 0.0
H1467 H 0.73678 0.83831 0.95727 0.0
H1468 H 0.7518 0.82643 0.93147 0.0
H1469 H 0.82591 0.84007 0.04878 0.0
H1470 H 0.81234 0.82765 0.07377 0.0
H1471 H 0.78903 0.84117 0.06353 0.0
C1472 C 0.60116 0.5254 0.86299 0.0
C1473 C 0.59827 0.51184 0.86365 0.0
C1474 C 0.58765 0.53288 0.83982 0.0
C1475 C 0.57015 0.5268 0.81695 0.0
C1476 C 0.57017 0.51303 0.81573 0.0
C1477 C 0.58305 0.50587 0.83947 0.0
C1478 C 0.59273 0.5473 0.83937 0.0
C1479 C 0.55836 0.50538 0.78916 0.0
C1480 C 0.50009 0.54507 0.79146 0.0
C1481 C 0.50574 0.54792 0.76082 0.0
C1482 C 0.52128 0.53878 0.81 0.0
C1483 C 0.54899 0.53479 0.79768 0.0
C1484 C 0.55588 0.53861 0.76751 0.0
C1485 C 0.53442 0.54526 0.74972 0.0
C1486 C 0.51333 0.53597 0.84264 0.0
C1487 C 0.58538 0.53526 0.75337 0.0
H1488 H 0.61416 0.5302 0.88045 0.0
H1489 H 0.58088 0.49543 0.83888 0.0
H1490 H 0.59672 0.55066 0.81581 0.0
H1491 H 0.57273 0.55238 0.8479 0.0
H1492 H 0.61203 0.55015 0.85374 0.0
H1493 H 0.53943 0.49925 0.79639 0.0
H1494 H 0.55205 0.51146 0.7698 0.0
H1495 H 0.5758 0.49858 0.78115 0.0
H1496 H 0.47862 0.54753 0.80095 0.0
H1497 H 0.53963 0.54775 0.72651 0.0
H1498 H 0.52741 0.54191 0.85799 0.0
H1499 H 0.51765 0.52567 0.8482 0.0
H1500 H 0.48968 0.53818 0.84764 0.0
H1501 H 0.59092 0.54201 0.73465 0.0
H1502 H 0.58425 0.52536 0.74361 0.0
H1503 H 0.60363 0.53542 0.7704 0.0
C1504 C 0.08257 0.1558 0.77839 0.0
C1505 C 0.06753 0.14699 0.79711 0.0
C1506 C 0.09667 0.16681 0.79046 0.0
C1507 C 0.09645 0.16898 0.82219 0.0
C1508 C 0.08043 0.16041 0.84114 0.0
C1509 C 0.06615 0.14954 0.8284 0.0
C1510 C 0.11292 0.17578 0.76925 0.0
C1511 C 0.07904 0.16257 0.875 0.0
C1512 C 0.16449 0.18604 0.85433 0.0
C1513 C 0.15388 0.19856 0.86064 0.0
C1514 C 0.14585 0.17637 0.84248 0.0
C1515 C 0.11581 0.17927 0.83573 0.0
C1516 C 0.10493 0.19194 0.84124 0.0
C1517 C 0.12404 0.20142 0.85372 0.0
C1518 C 0.15839 0.16298 0.8372 0.0
C1519 C 0.07335 0.1956 0.83337 0.0
H1520 H 0.08419 0.15392 0.75424 0.0
H1521 H 0.05405 0.14299 0.843 0.0
H1522 H 0.10864 0.18604 0.7753 0.0
H1523 H 0.1372 0.17409 0.77131 0.0
H1524 H 0.10631 0.17421 0.74518 0.0
H1525 H 0.06462 0.15537 0.88647 0.0
H1526 H 0.10174 0.16196 0.88487 0.0
H1527 H 0.07043 0.17242 0.87993 0.0
H1528 H 0.18764 0.18373 0.8585 0.0
H1529 H 0.11543 0.211 0.8584 0.0
H1530 H 0.1572 0.16052 0.81269 0.0
H1531 H 0.14496 0.15571 0.84955 0.0
H1532 H 0.18189 0.16214 0.84481 0.0
H1533 H 0.07158 0.19707 0.80848 0.0
H1534 H 0.06644 0.20469 0.84488 0.0
H1535 H 0.05757 0.18779 0.83953 0.0
C1536 C 0.82451 0.50218 0.38184 0.0
C1537 C 0.85194 0.50497 0.39587 0.0
C1538 C 0.79788 0.50819 0.39149 0.0
C1539 C 0.7984 0.51724 0.41586 0.0
C1540 C 0.82594 0.52006 0.4301 0.0
C1541 C 0.85215 0.51394 0.42005 0.0
C1542 C 0.76897 0.50453 0.37622 0.0
C1543 C 0.82754 0.52925 0.45676 0.0
C1544 C 0.7317 0.53967 0.43019 0.0
C1545 C 0.71604 0.53524 0.45837 0.0
C1546 C 0.75834 0.53459 0.4177 0.0
C1547 C 0.76993 0.52287 0.42828 0.0
C1548 C 0.75238 0.51594 0.44859 0.0
C1549 C 0.7253 0.52125 0.4591 0.0
C1550 C 0.77356 0.5417 0.39213 0.0
C1551 C 0.76107 0.50252 0.45929 0.0
H1552 H 0.82382 0.49536 0.36312 0.0
H1553 H 0.87287 0.51601 0.43173 0.0
H1554 H 0.75496 0.49907 0.39242 0.0
H1555 H 0.75642 0.51332 0.36958 0.0
H1556 H 0.77246 0.49842 0.35575 0.0
H1557 H 0.85076 0.53103 0.46442 0.0
H1558 H 0.81717 0.53865 0.45073 0.0
H1559 H 0.81472 0.52517 0.47598 0.0
H1560 H 0.7234 0.54756 0.41645 0.0
H1561 H 0.71221 0.51362 0.46919 0.0
H1562 H 0.77145 0.53599 0.37084 0.0
H1563 H 0.79766 0.54281 0.39706 0.0
H1564 H 0.76399 0.55146 0.3882 0.0
H1565 H 0.7434 0.49551 0.45289 0.0
H1566 H 0.76265 0.50249 0.48441 0.0
H1567 H 0.78255 0.49894 0.45038 0.0
C1568 C 0.21614 0.82055 0.01735 0.0
C1569 C 0.24082 0.81261 0.01104 0.0
C1570 C 0.21874 0.83407 0.01871 0.0
C1571 C 0.24612 0.83994 0.01131 0.0
C1572 C 0.27035 0.83212 1.00214 0.0
C1573 C 0.26768 0.81858 1.00283 0.0
C1574 C 0.19243 0.84197 0.02915 0.0
C1575 C 0.2997 0.83804 0.99313 0.0
C1576 C 0.25203 0.87608 0.9955 0.0
C1577 C 0.26484 0.88064 0.02266 0.0
C1578 C 0.24466 0.86292 0.99179 0.0
C1579 C 0.25042 0.85413 0.0157 0.0
C1580 C 0.26189 0.85878 0.04363 0.0
C1581 C 0.26866 0.87196 0.04684 0.0
C1582 C 0.23186 0.85831 0.96193 0.0
C1583 C 0.26771 0.84978 0.06996 0.0
H1584 H 0.19475 0.81625 0.02218 0.0
H1585 H 0.28713 0.81276 0.99807 0.0
H1586 H 0.19915 0.84873 0.04759 0.0
H1587 H 0.18392 0.84789 0.01006 0.0
H1588 H 0.174 0.83581 0.03759 0.0
H1589 H 0.31456 0.83088 0.982 0.0
H1590 H 0.29613 0.84626 0.97739 0.0
H1591 H 0.31113 0.84187 0.01365 0.0
H1592 H 0.24892 0.88266 0.97666 0.0
H1593 H 0.2776 0.87542 0.06826 0.0
H1594 H 0.21016 0.8535 0.96571 0.0
H1595 H 0.24687 0.85101 0.95158 0.0
H1596 H 0.22856 0.86635 0.94559 0.0
H1597 H 0.24692 0.84468 0.07617 0.0
H1598 H 0.27632 0.85497 0.09031 0.0
H1599 H 0.28418 0.8423 0.0633 0.0
C1600 C 0.20188 0.18773 0.16763 0.0
C1601 C 0.17396 0.19352 0.16304 0.0
C1602 C 0.21194 0.17766 0.14884 0.0
C1603 C 0.19378 0.17324 0.12461 0.0
C1604 C 0.16589 0.17923 0.11932 0.0
C1605 C 0.15633 0.18931 0.13854 0.0
C1606 C 0.24201 0.1717 0.15506 0.0
C1607 C 0.14578 0.17469 0.09391 0.0
C1608 C 0.23095 0.15368 0.06191 0.0
C1609 C 0.22581 0.14087 0.0713 0.0
C1610 C 0.22047 0.16429 0.07882 0.0
C1611 C 0.20369 0.16211 0.10542 0.0
C1612 C 0.19739 0.14926 0.11441 0.0
C1613 C 0.20879 0.13883 0.09752 0.0
C1614 C 0.22805 0.17783 0.06865 0.0
C1615 C 0.17956 0.14646 0.1426 0.0
H1616 H 0.2159 0.19106 0.18616 0.0
H1617 H 0.13461 0.1936 0.13498 0.0
H1618 H 0.23994 0.16106 0.15762 0.0
H1619 H 0.25694 0.17348 0.13553 0.0
H1620 H 0.25263 0.1757 0.17589 0.0
H1621 H 0.12514 0.18056 0.09221 0.0
H1622 H 0.15765 0.17516 0.07191 0.0
H1623 H 0.13955 0.16442 0.09761 0.0
H1624 H 0.24348 0.15547 0.0414 0.0
H1625 H 0.20508 0.12906 0.10553 0.0
H1626 H 0.24205 0.18264 0.08614 0.0
H1627 H 0.2075 0.18367 0.06613 0.0
H1628 H 0.24022 0.17791 0.04675 0.0
H1629 H 0.19322 0.14871 0.16298 0.0
H1630 H 0.17259 0.13616 0.14378 0.0
H1631 H 0.15941 0.15265 0.14348 0.0
C1632 C 0.88304 0.1923 0.87989 0.0
C1633 C 0.86365 0.20214 0.87048 0.0
C1634 C 0.87279 0.18194 0.89766 0.0
C1635 C 0.84229 0.18122 0.90543 0.0
C1636 C 0.82254 0.19101 0.89542 0.0
C1637 C 0.83353 0.20142 0.87841 0.0
C1638 C 0.89464 0.17189 0.90866 0.0
C1639 C 0.78983 0.1906 0.90301 0.0
C1640 C 0.80958 0.14844 0.92571 0.0
C1641 C 0.80629 0.14952 0.95725 0.0
C1642 C 0.82146 0.15865 0.90866 0.0
C1643 C 0.83081 0.17013 0.92355 0.0
C1644 C 0.82811 0.17116 0.95552 0.0
C1645 C 0.81573 0.16086 0.97196 0.0
C1646 C 0.82305 0.15732 0.87456 0.0
C1647 C 0.8384 0.18308 0.97244 0.0
H1648 H 0.90641 0.19295 0.87414 0.0
H1649 H 0.81851 0.20903 0.87119 0.0
H1650 H 0.89419 0.17142 0.93383 0.0
H1651 H 0.88821 0.16219 0.89999 0.0
H1652 H 0.91773 0.17399 0.90132 0.0
H1653 H 0.7769 0.19798 0.89027 0.0
H1654 H 0.78043 0.1809 0.8979 0.0
H1655 H 0.78685 0.19242 0.92765 0.0
H1656 H 0.80183 0.13977 0.91421 0.0
H1657 H 0.81338 0.16167 0.99638 0.0
H1658 H 0.84637 0.15841 0.8669 0.0
H1659 H 0.80988 0.16514 0.8637 0.0
H1660 H 0.81448 0.14784 0.86641 0.0
H1661 H 0.86298 0.18377 0.97111 0.0
H1662 H 0.83191 0.1829 0.99675 0.0
H1663 H 0.82913 0.19195 0.96192 0.0
C1664 C 0.01845 0.874 0.78854 0.0
C1665 C 0.00976 0.87876 0.75993 0.0
C1666 C 0.01764 0.86073 0.79506 0.0
C1667 C 0.00885 0.8519 0.77216 0.0
C1668 C 1.00016 0.85655 0.74326 0.0
C1669 C 1.00043 0.86991 0.73758 0.0
C1670 C 0.02661 0.85616 0.82634 0.0
C1671 C 0.99068 0.84737 0.71827 0.0
C1672 C 0.03876 0.81767 0.77496 0.0
C1673 C 0.01374 0.81073 0.78422 0.0
C1674 C 0.03755 0.83111 0.77148 0.0
C1675 C 0.01066 0.83773 0.77761 0.0
C1676 C 0.98546 0.83074 0.78769 0.0
C1677 C 0.98727 0.81723 0.79073 0.0
C1678 C 0.06489 0.8382 0.76071 0.0
C1679 C 0.95676 0.83752 0.79549 0.0
H1680 H 0.02625 0.88065 0.80591 0.0
H1681 H 0.99305 0.87342 0.71566 0.0
H1682 H 0.00942 0.8496 0.83566 0.0
H1683 H 0.04761 0.85057 0.82494 0.0
H1684 H 0.02996 0.86433 0.84246 0.0
H1685 H 0.9858 0.85247 0.69666 0.0
H1686 H 0.00839 0.84011 0.71409 0.0
H1687 H 0.97049 0.84201 0.72532 0.0
H1688 H 0.05921 0.8125 0.77015 0.0
H1689 H 0.96812 0.81174 0.79824 0.0
H1690 H 0.07143 0.84571 0.77749 0.0
H1691 H 0.05995 0.8432 0.73901 0.0
H1692 H 0.08408 0.8316 0.75717 0.0
H1693 H 0.96044 0.84403 0.81523 0.0
H1694 H 0.93875 0.83059 0.80121 0.0
H1695 H 0.94927 0.84362 0.77626 0.0
C1696 C 0.02035 0.87402 0.24906 0.0
C1697 C 0.99259 0.87856 0.25892 0.0
C1698 C 0.0245 0.86091 0.24151 0.0
C1699 C 1.00026 0.85223 0.24368 0.0
C1700 C 0.97191 0.85689 0.25223 0.0
C1701 C 0.96843 0.86998 0.25964 0.0
C1702 C 0.05492 0.8563 0.23195 0.0
C1703 C 0.94544 0.84795 0.25462 0.0
C1704 C 1.00019 0.81921 0.20619 0.0
C1705 C 1.00358 0.81101 0.23136 0.0
C1706 C 0.99995 0.83269 0.20962 0.0
C1707 C 1.00452 0.83814 0.23872 0.0
C1708 C 0.0104 0.83 0.26382 0.0
C1709 C 0.0094 0.81653 0.25996 0.0
C1710 C 0.99312 0.84103 0.1824 0.0
C1711 C 0.01644 0.83552 0.29503 0.0
H1712 H 0.03912 0.88059 0.24842 0.0
H1713 H 0.94676 0.87348 0.26656 0.0
H1714 H 0.06159 0.84763 0.24516 0.0
H1715 H 0.05432 0.85342 0.20767 0.0
H1716 H 0.07217 0.86389 0.23495 0.0
H1717 H 0.92451 0.85327 0.25947 0.0
H1718 H 0.94251 0.84238 0.23322 0.0
H1719 H 0.94929 0.84086 0.27309 0.0
H1720 H 0.99671 0.81509 0.1838 0.0
H1721 H 0.01187 0.81039 0.27969 0.0
H1722 H 0.01038 0.84859 0.17978 0.0
H1723 H 0.97157 0.84604 0.18583 0.0
H1724 H 0.99175 0.83531 0.16103 0.0
H1725 H 0.03489 0.84264 0.29395 0.0
H1726 H 0.02238 0.82792 0.31177 0.0
H1727 H 0.99649 0.84075 0.30332 0.0
C1728 C 0.46988 1.00515 0.07001 0.0
C1729 C 0.44499 1.009 0.05284 0.0
C1730 C 0.49503 0.01318 0.07327 0.0
C1731 C 0.49495 0.02577 0.06035 0.0
C1732 C 0.46872 0.03022 0.04588 0.0
C1733 C 0.44475 0.02169 0.04119 0.0
C1734 C 0.52189 1.00771 0.08948 0.0
C1735 C 0.46616 0.04389 0.03425 0.0
C1736 C 0.56121 0.04621 0.08716 0.0
C1737 C 0.57885 0.04644 0.06097 0.0
C1738 C 0.53319 0.04004 0.08699 0.0
C1739 C 0.52274 0.03386 0.06012 0.0
C1740 C 0.53989 0.03501 0.03326 0.0
C1741 C 0.56762 0.04106 0.03421 0.0
C1742 C 0.51484 0.04025 0.11554 0.0
C1743 C 0.52975 0.03045 1.00261 0.0
H1744 H 0.47027 0.99567 0.0804 0.0
H1745 H 0.42612 0.02504 0.02774 0.0
H1746 H 0.54298 0.01246 0.08284 0.0
H1747 H 0.51889 1.00889 0.11432 0.0
H1748 H 0.52404 0.99717 0.08491 0.0
H1749 H 0.44256 0.04703 0.03315 0.0
H1750 H 0.47867 0.05079 0.04885 0.0
H1751 H 0.47546 0.04438 0.01104 0.0
H1752 H 0.56948 0.05067 0.10785 0.0
H1753 H 0.58047 0.04178 0.01346 0.0
H1754 H 0.51894 0.03126 0.12853 0.0
H1755 H 0.49072 0.04082 0.11025 0.0
H1756 H 0.52096 0.04857 0.13036 0.0
H1757 H 0.54591 0.02332 0.99354 0.0
H1758 H 0.52983 0.03886 0.98706 0.0
H1759 H 0.50727 0.0263 1.00228 0.0
C1760 C 0.14962 0.66307 0.73364 0.0
C1761 C 0.1539 0.6757 0.72323 0.0
C1762 C 0.17044 0.65329 0.72713 0.0
C1763 C 0.19585 0.65622 0.70943 0.0
C1764 C 0.20033 0.66909 0.69931 0.0
C1765 C 0.17932 0.67867 0.70646 0.0
C1766 C 0.16533 0.63985 0.73927 0.0
C1767 C 0.22662 0.67276 0.67999 0.0
C1768 C 0.26149 0.63269 0.70709 0.0
C1769 C 0.25493 0.62525 0.68107 0.0
C1770 C 0.24249 0.64275 0.71672 0.0
C1771 C 0.2165 0.64564 0.69974 0.0
C1772 C 0.21 0.63837 0.67329 0.0
C1773 C 0.22881 0.62816 0.66469 0.0
C1774 C 0.25018 0.65029 0.7451 0.0
C1775 C 0.18298 0.64133 0.65402 0.0
H1776 H 0.13019 0.66091 0.74722 0.0
H1777 H 0.18267 0.68852 0.69878 0.0
H1778 H 0.16269 0.63291 0.72017 0.0
H1779 H 0.18494 0.6367 0.75273 0.0
H1780 H 0.14527 0.63929 0.75384 0.0
H1781 H 0.23162 0.68327 0.68183 0.0
H1782 H 0.24687 0.66725 0.68626 0.0
H1783 H 0.22132 0.67056 0.65589 0.0
H1784 H 0.28163 0.63076 0.71985 0.0
H1785 H 0.22269 0.62237 0.64512 0.0
H1786 H 0.23304 0.64851 0.76264 0.0
H1787 H 0.25017 0.66083 0.74036 0.0
H1788 H 0.27226 0.64756 0.7545 0.0
H1789 H 0.16255 0.63871 0.66661 0.0
H1790 H 0.18307 0.63592 0.63217 0.0
H1791 H 0.18179 0.65184 0.64901 0.0
C1792 C 0.94574 0.02418 0.57805 0.0
C1793 C 0.94894 0.03757 0.57392 0.0
C1794 C 0.94022 0.01584 0.5533 0.0
C1795 C 0.93797 0.02095 0.52351 0.0
C1796 C 0.94011 0.03452 0.51939 0.0
C1797 C 0.94553 0.04262 0.54452 0.0
C1798 C 0.93986 1.00144 0.55869 0.0
C1799 C 0.93893 0.04042 0.48811 0.0
C1800 C 0.97203 1.00126 0.45972 0.0
C1801 C 0.94746 0.99752 0.44235 0.0
C1802 C 0.96884 1.00842 0.4864 0.0
C1803 C 0.94035 0.01213 0.4965 0.0
C1804 C 0.91504 1.00777 0.48007 0.0
C1805 C 0.91884 1.00047 0.45306 0.0
C1806 C 0.99657 0.01233 0.50284 0.0
C1807 C 0.88417 1.01086 0.49103 0.0
H1808 H 0.94824 0.02014 0.6006 0.0
H1809 H 0.94857 0.0529 0.54081 0.0
H1810 H 0.92254 0.99668 0.54454 0.0
H1811 H 0.96172 0.99731 0.55213 0.0
H1812 H 0.93591 0.9991 0.58294 0.0
H1813 H 0.93727 0.05114 0.48896 0.0
H1814 H 0.95941 0.03778 0.47553 0.0
H1815 H 0.91967 0.03656 0.47512 0.0
H1816 H 0.99409 0.99868 0.45211 0.0
H1817 H 0.89962 0.99746 0.43991 0.0
H1818 H 0.99267 0.01466 0.5269 0.0
H1819 H 1.00594 0.02092 0.49134 0.0
H1820 H 0.01289 1.00435 0.50238 0.0
H1821 H 0.88088 1.00657 0.51384 0.0
H1822 H 0.86673 1.00709 0.47542 0.0
H1823 H 0.8814 0.02149 0.49348 0.0
C1824 C 0.09767 0.33521 0.27388 0.0
C1825 C 0.08247 0.3276 0.25244 0.0
C1826 C 0.09128 0.34846 0.2773 0.0
C1827 C 0.0686 0.35421 0.25944 0.0
C1828 C 0.05343 0.34659 0.23748 0.0
C1829 C 0.06075 0.33343 0.23405 0.0
C1830 C 0.10851 0.35629 0.30039 0.0
C1831 C 0.0292 0.3523 0.21785 0.0
C1832 C 0.02951 0.38287 0.29607 0.0
C1833 C 0.04198 0.39355 0.28111 0.0
C1834 C 0.03745 0.37012 0.28859 0.0
C1835 C 0.05895 0.36782 0.26586 0.0
C1836 C 0.07169 0.3785 0.25044 0.0
C1837 C 0.0632 0.39124 0.25837 0.0
C1838 C 0.02277 0.35908 0.30519 0.0
C1839 C 0.0947 0.37654 0.22603 0.0
H1840 H 0.11481 0.3308 0.2878 0.0
H1841 H 0.04896 0.32759 0.21741 0.0
H1842 H 0.1177 0.36512 0.28961 0.0
H1843 H 0.09342 0.3595 0.3188 0.0
H1844 H 0.12711 0.35071 0.31062 0.0
H1845 H 0.01826 0.3449 0.20324 0.0
H1846 H 0.01204 0.35698 0.23221 0.0
H1847 H 0.03876 0.3599 0.20307 0.0
H1848 H 0.01355 0.38446 0.31405 0.0
H1849 H 0.07286 0.39937 0.24645 0.0
H1850 H 0.0397 0.35361 0.3183 0.0
H1851 H 0.01254 0.35226 0.28867 0.0
H1852 H 1.00527 0.36246 0.32108 0.0
H1853 H 0.11665 0.37483 0.23689 0.0
H1854 H 0.09661 0.38517 0.21116 0.0
H1855 H 0.08949 0.36799 0.21169 0.0
C1856 C 0.08282 0.99901 0.55199 0.0
C1857 C 0.05918 1.00094 0.57227 0.0
C1858 C 0.0887 1.00774 0.52832 0.0
C1859 C 0.06977 0.01854 0.52373 0.0
C1860 C 0.04831 0.02144 0.54659 0.0
C1861 C 0.04302 0.01252 0.57013 0.0
C1862 C 0.11534 1.00511 0.50853 0.0
C1863 C 0.03021 0.0338 0.54667 0.0
C1864 C 0.07294 0.04737 0.46975 0.0
C1865 C 0.06031 0.04222 0.44308 0.0
C1866 C 0.07865 0.03961 0.49528 0.0
C1867 C 0.07098 0.02628 0.49471 0.0
C1868 C 0.06218 0.02073 0.4663 0.0
C1869 C 0.05617 0.02881 0.44135 0.0
C1870 C 0.09333 0.04593 0.52238 0.0
C1871 C 0.06008 1.00632 0.46071 0.0
H1872 H 0.09696 0.99058 0.55448 0.0
H1873 H 0.02535 0.01444 0.58617 0.0
H1874 H 0.12048 0.01316 0.49282 0.0
H1875 H 0.13516 1.00335 0.52306 0.0
H1876 H 0.11153 0.99611 0.49525 0.0
H1877 H 0.04252 0.04131 0.55961 0.0
H1878 H 0.02558 0.03751 0.52356 0.0
H1879 H 0.00871 0.03246 0.55846 0.0
H1880 H 0.07845 0.05757 0.4709 0.0
H1881 H 0.04758 0.02452 0.42062 0.0
H1882 H 0.09921 0.03902 0.54066 0.0
H1883 H 0.0785 0.05356 0.5316 0.0
H1884 H 0.11399 0.05086 0.51499 0.0
H1885 H 0.08131 1.00303 0.45054 0.0
H1886 H 0.04247 1.00404 0.44383 0.0
H1887 H 0.0563 1.00056 0.48139 0.0
C1888 C 0.83191 0.67804 0.27567 0.0
C1889 C 0.8614 0.6762 0.28532 0.0
C1890 C 0.80973 0.66894 0.28217 0.0
C1891 C 0.81707 0.65781 0.29924 0.0
C1892 C 0.8469 0.65578 0.30862 0.0
C1893 C 0.86871 0.66501 0.30159 0.0
C1894 C 0.77835 0.67165 0.27166 0.0
C1895 C 0.85569 0.64392 0.32641 0.0
C1896 C 0.75713 0.64164 0.34619 0.0
C1897 C 0.75071 0.63048 0.32902 0.0
C1898 C 0.77841 0.65064 0.33657 0.0
C1899 C 0.79339 0.64863 0.3088 0.0
C1900 C 0.78606 0.63777 0.29056 0.0
C1901 C 0.76497 0.62878 0.30095 0.0
C1902 C 0.78522 0.66224 0.35636 0.0
C1903 C 0.80053 0.63568 0.26007 0.0
H1904 H 0.82592 0.68677 0.26352 0.0
H1905 H 0.89152 0.66345 0.30873 0.0
H1906 H 0.76577 0.66263 0.26688 0.0
H1907 H 0.7665 0.67705 0.28976 0.0
H1908 H 0.77818 0.67772 0.25088 0.0
H1909 H 0.88 0.6435 0.33089 0.0
H1910 H 0.84385 0.64385 0.34847 0.0
H1911 H 0.849 0.63505 0.31383 0.0
H1912 H 0.7457 0.64331 0.36745 0.0
H1913 H 0.7604 0.62023 0.28743 0.0
H1914 H 0.78127 0.67128 0.34343 0.0
H1915 H 0.80902 0.66214 0.36311 0.0
H1916 H 0.77146 0.66249 0.37724 0.0
H1917 H 0.79383 0.64359 0.24446 0.0
H1918 H 0.79414 0.62628 0.24961 0.0
H1919 H 0.8251 0.63605 0.26232 0.0
C1920 C 0.55409 0.99142 0.98121 0.0
C1921 C 0.57181 0.98919 0.95583 0.0
C1922 C 0.52673 0.99781 0.97896 0.0
C1923 C 0.51639 1.00235 0.95026 0.0
C1924 C 0.53318 0.99899 0.92398 0.0
C1925 C 0.56084 0.99262 0.92715 0.0
C1926 C 0.51028 0.99958 0.00832 0.0
C1927 C 0.5226 1.00201 0.89225 0.0
C1928 C 0.43764 0.01559 0.96174 0.0
C1929 C 0.44123 0.02883 0.95551 0.0
C1930 C 0.46089 1.00667 0.95706 0.0
C1931 C 0.48953 1.01111 0.94828 0.0
C1932 C 0.49261 0.02434 0.93985 0.0
C1933 C 0.46838 0.03283 0.94293 0.0
C1934 C 0.45449 0.99255 0.96272 0.0
C1935 C 0.5213 0.02994 0.9278 0.0
H1936 H 0.562 0.98834 1.00336 0.0
H1937 H 0.57418 0.99066 0.90721 0.0
H1938 H 0.49106 1.00615 1.00696 0.0
H1939 H 0.50243 0.99002 0.01641 0.0
H1940 H 0.52596 1.00333 0.02575 0.0
H1941 H 0.52429 0.9932 0.87786 0.0
H1942 H 0.49933 1.00554 0.89134 0.0
H1943 H 0.53753 1.00934 0.88204 0.0
H1944 H 0.4169 0.0121 0.97104 0.0
H1945 H 0.47116 0.04278 0.93581 0.0
H1946 H 0.45291 0.99086 0.98751 0.0
H1947 H 0.47166 0.98606 0.95304 0.0
H1948 H 0.43257 0.98991 0.95278 0.0
H1949 H 0.52348 0.04036 0.93375 0.0
H1950 H 0.52092 0.02942 0.90266 0.0
H1951 H 0.54128 0.0248 0.9363 0.0
C1952 C 0.99284 0.3918 0.72352 0.0
C1953 C 0.98988 0.40179 0.74487 0.0
C1954 C 0.98564 0.379 0.73078 0.0
C1955 C 0.97544 0.37602 0.76032 0.0
C1956 C 0.97229 0.38608 0.78206 0.0
C1957 C 0.97929 0.39891 0.77397 0.0
C1958 C 0.98931 0.36862 0.70684 0.0
C1959 C 0.96275 0.38319 0.81413 0.0
C1960 C 0.935 0.34378 0.76516 0.0
C1961 C 0.95848 0.33535 0.77205 0.0
C1962 C 0.93983 0.3572 0.76294 0.0
C1963 C 0.96869 0.36229 0.76813 0.0
C1964 C 0.99191 0.35388 0.77725 0.0
C1965 C 0.98658 0.34052 0.77879 0.0
C1966 C 0.9145 0.36584 0.75321 0.0
C1967 C 0.02292 0.35882 0.78356 0.0
H1968 H 1.00103 0.39404 0.70101 0.0
H1969 H 0.97748 0.40661 0.79065 0.0
H1970 H 1.0059 0.36138 0.71451 0.0
H1971 H 0.96793 0.36346 0.7033 0.0
H1972 H 0.99673 0.37262 0.68475 0.0
H1973 H 0.95883 0.39215 0.82755 0.0
H1974 H 0.94216 0.37728 0.81413 0.0
H1975 H 0.98029 0.37743 0.82563 0.0
H1976 H 0.91329 0.33981 0.75976 0.0
H1977 H 1.00475 0.33403 0.78435 0.0
H1978 H 0.91951 0.37011 0.7307 0.0
H1979 H 0.91194 0.37398 0.7695 0.0
H1980 H 0.89308 0.36054 0.75161 0.0
H1981 H 0.03466 0.36027 0.76173 0.0
H1982 H 0.03602 0.35184 0.79733 0.0
H1983 H 0.02239 0.36825 0.79564 0.0
C1984 C 0.73881 0.6616 0.85105 0.0
C1985 C 0.71948 0.67178 0.8587 0.0
C1986 C 0.73071 0.65216 0.82946 0.0
C1987 C 0.70259 0.65287 0.81493 0.0
C1988 C 0.6831 0.66318 0.82238 0.0
C1989 C 0.69172 0.67246 0.84415 0.0
C1990 C 0.75244 0.64147 0.82215 0.0
C1991 C 0.65295 0.66437 0.8075 0.0
C1992 C 0.68714 0.63366 0.74197 0.0
C1993 C 0.67018 0.62327 0.75292 0.0
C1994 C 0.6982 0.64331 0.76184 0.0
C1995 C 0.69259 0.64245 0.79345 0.0
C1996 C 0.67639 0.63175 0.80465 0.0
C1997 C 0.6654 0.62236 0.78436 0.0
C1998 C 0.71556 0.65451 0.749 0.0
C1999 C 0.6708 0.63016 0.83823 0.0
H2000 H 0.76027 0.66091 0.8622 0.0
H2001 H 0.67684 0.6804 0.84935 0.0
H2002 H 0.74113 0.63193 0.82157 0.0
H2003 H 0.76201 0.64317 0.79935 0.0
H2004 H 0.77101 0.64104 0.83884 0.0
H2005 H 0.64137 0.67346 0.81396 0.0
H2006 H 0.65521 0.66405 0.78243 0.0
H2007 H 0.63884 0.65605 0.8142 0.0
H2008 H 0.69102 0.63445 0.71778 0.0
H2009 H 0.65298 0.61422 0.79319 0.0
H2010 H 0.73893 0.65399 0.75704 0.0
H2011 H 0.70624 0.66383 0.75715 0.0
H2012 H 0.71551 0.6545 0.72378 0.0
H2013 H 0.69228 0.62847 0.8501 0.0
H2014 H 0.65572 0.62192 0.8431 0.0
H2015 H 0.66095 0.63909 0.84794 0.0
C2016 C 0.27069 0.67272 0.1858 0.0
C2017 C 0.28827 0.67576 0.16039 0.0
C2018 C 0.27963 0.66348 0.20723 0.0
C2019 C 0.3061 0.65637 0.20251 0.0
C2020 C 0.323 0.65868 0.17597 0.0
C2021 C 0.31437 0.66852 0.15571 0.0
C2022 C 0.2611 0.66195 0.23553 0.0
C2023 C 0.35032 0.65075 0.16898 0.0
C2024 C 0.34706 0.64033 0.26852 0.0
C2025 C 0.33562 0.62768 0.26767 0.0
C2026 C 0.33725 0.64982 0.24788 0.0
C2027 C 0.31611 0.64651 0.2252 0.0
C2028 C 0.30426 0.63381 0.22442 0.0
C2029 C 0.31391 0.62461 0.2458 0.0
C2030 C 0.3491 0.66344 0.25064 0.0
C2031 C 0.28119 0.62997 0.20107 0.0
H2032 H 0.24978 0.67764 0.18948 0.0
H2033 H 0.32852 0.67063 0.13655 0.0
H2034 H 0.26316 0.65224 0.2459 0.0
H2035 H 0.26859 0.66921 0.25256 0.0
H2036 H 0.23722 0.66383 0.23068 0.0
H2037 H 0.35946 0.6529 0.14616 0.0
H2038 H 0.36784 0.65269 0.1862 0.0
H2039 H 0.34491 0.64028 0.17009 0.0
H2040 H 0.36352 0.64285 0.28559 0.0
H2041 H 0.30502 0.61486 0.24484 0.0
H2042 H 0.33033 0.67031 0.25346 0.0
H2043 H 0.36094 0.66618 0.22958 0.0
H2044 H 0.36461 0.66459 0.27016 0.0
H2045 H 0.26006 0.63512 0.20583 0.0
H2046 H 0.27671 0.6194 0.20116 0.0
H2047 H 0.28847 0.63284 0.178 0.0
C2048 C 0.78174 0.34016 0.05528 0.0
C2049 C 0.75774 0.33185 0.06143 0.0
C2050 C 0.77732 0.35342 0.04968 0.0
C2051 C 0.74814 0.35856 0.04992 0.0
C2052 C 0.72379 0.35022 0.05557 0.0
C2053 C 0.72887 0.33702 0.06135 0.0
C2054 C 0.80405 0.36196 0.04448 0.0
C2055 C 0.69229 0.35528 0.05582 0.0
C2056 C 0.7315 0.39388 0.06729 0.0
C2057 C 0.72602 0.39915 0.03828 0.0
C2058 C 0.74061 0.38098 0.07111 0.0
C2059 C 0.74281 0.37273 0.04556 0.0
C2060 C 0.7377 0.37786 0.01622 0.0
C2061 C 0.72996 0.39101 0.01288 0.0
C2062 C 0.7471 0.37607 0.10273 0.0
C2063 C 0.73992 0.36937 0.98837 0.0
H2064 H 0.80413 0.3363 0.0548 0.0
H2065 H 0.71015 0.33082 0.06649 0.0
H2066 H 0.80024 0.36855 0.02505 0.0
H2067 H 0.80789 0.36806 0.0649 0.0
H2068 H 0.82451 0.35623 0.04015 0.0
H2069 H 0.67578 0.34757 0.06069 0.0
H2070 H 0.69001 0.36301 0.07318 0.0
H2071 H 0.68689 0.35963 0.03346 0.0
H2072 H 0.72797 0.39965 0.08746 0.0
H2073 H 0.72681 0.39481 0.99024 0.0
H2074 H 0.76919 0.3713 0.1034 0.0
H2075 H 0.73033 0.36871 0.10916 0.0
H2076 H 0.74688 0.38395 0.11996 0.0
H2077 H 0.76271 0.36534 0.98655 0.0
H2078 H 0.73466 0.37471 0.96716 0.0
H2079 H 0.72441 0.36106 0.99034 0.0
C2080 C 0.25348 0.39558 0.98519 0.0
C2081 C 0.28099 0.40058 0.97576 0.0
C2082 C 0.24577 0.38257 0.97977 0.0
C2083 C 0.26616 0.3743 0.96483 0.0
C2084 C 0.29365 0.37936 0.95473 0.0
C2085 C 0.30069 0.39241 0.96025 0.0
C2086 C 0.21598 0.37765 0.99036 0.0
C2087 C 0.31593 0.37091 0.93851 0.0
C2088 C 0.26316 0.33783 0.97735 0.0
C2089 C 0.25067 0.33337 0.94994 0.0
C2090 C 0.26775 0.35112 0.98272 0.0
C2091 C 0.25938 0.36026 0.96033 0.0
C2092 C 0.24621 0.35588 0.93292 0.0
C2093 C 0.24222 0.34254 0.92799 0.0
C2094 C 0.2815 0.35537 0.01246 0.0
C2095 C 0.23601 0.36526 0.90882 0.0
H2096 H 0.23792 0.40185 0.99687 0.0
H2097 H 0.32213 0.39609 0.95321 0.0
H2098 H 0.2042 0.37266 0.9715 0.0
H2099 H 0.21928 0.37048 0.00874 0.0
H2100 H 0.20158 0.38556 0.99908 0.0
H2101 H 0.33673 0.37619 0.93301 0.0
H2102 H 0.32163 0.36242 0.95277 0.0
H2103 H 0.30604 0.36718 0.91707 0.0
H2104 H 0.26915 0.33093 0.99481 0.0
H2105 H 0.23282 0.3393 0.9066 0.0
H2106 H 0.26452 0.36042 0.02633 0.0
H2107 H 0.29992 0.36231 0.00849 0.0
H2108 H 0.29025 0.34708 0.02577 0.0
H2109 H 0.21634 0.37065 0.91722 0.0
H2110 H 0.22976 0.36029 0.88732 0.0
H2111 H 0.2536 0.37247 0.90388 0.0
loop_
_geom_bond_atom_site_label_1
_geom_bond_atom_site_label_2
_geom_bond_distance
_geom_bond_site_symmetry_2
_ccdc_geom_bond_type
C0 C1 1.264 . S
C0 C5 1.479 1_655 S
C0 C10 1.465 1_655 S
C1 C0 1.264 . S
C1 C3 1.339 . S
C1 H28 0.931 . S
C2 C3 1.395 . S
C2 C4 1.320 1_655 S
C3 C1 1.339 . S
C3 C2 1.395 . S
C3 H29 0.929 . S
C4 C2 1.320 1_455 S
C4 C5 1.405 . S
C4 H30 0.930 . S
C5 C0 1.479 1_455 S
C5 C4 1.405 . S
C5 H31 0.931 . S
U6 O7 2.454 . S
U6 O8 2.458 . S
U6 C9 2.984 . S
U6 C10 2.847 . S
U6 C23 2.882 1_455 S
U6 O24 2.441 . S
U6 O25 2.420 1_455 S
U6 O26 2.455 1_455 S
U6 O27 2.449 1_455 S
O7 U6 2.454 . S
O7 C9 1.353 . S
O8 U6 2.458 . S
O8 C9 1.286 . S
C9 U6 2.984 . S
C9 O7 1.353 . S
C9 O8 1.286 . S
C9 C11 1.363 . S
C10 C0 1.465 1_455 S
C10 U6 2.847 . S
C10 O24 1.249 . S
C10 O25 1.202 1_455 S
C11 C9 1.363 . S
C11 C13 1.408 . S
C11 C16 1.342 . S
C12 C13 1.310 . S
C12 C15 1.461 . S
C12 H32 0.932 . S
C13 C11 1.408 . S
C13 C12 1.310 . S
C13 H33 0.930 . S
C14 C15 1.474 . S
C14 C16 1.285 . S
C14 H34 0.929 . S
C15 C12 1.461 . S
C15 C14 1.474 . S
C16 C11 1.342 . S
C16 C14 1.285 . S
C16 H35 0.930 . S
C17 C20 1.424 . S
C17 C22 1.245 . S
C17 C23 1.428 . S
C18 C21 1.260 . S
C18 C22 1.477 . S
C18 H36 0.932 . S
C19 C20 1.384 . S
C19 C21 1.479 . S
C19 H37 0.929 . S
C20 C17 1.424 . S
C20 C19 1.384 . S
C20 H38 0.928 . S
C21 C18 1.260 . S
C21 C19 1.479 . S
C22 C17 1.245 . S
C22 C18 1.477 . S
C22 H39 0.932 . S
C23 U6 2.882 1_655 S
C23 C17 1.428 . S
C23 O26 1.301 . S
C23 O27 1.282 . S
O24 U6 2.441 . S
O24 C10 1.249 . S
O25 U6 2.420 1_655 S
O25 C10 1.202 1_655 S
O26 U6 2.455 1_655 S
O26 C23 1.301 . S
O27 U6 2.449 1_655 S
O27 C23 1.282 . S
H28 C1 0.931 . S
H29 C3 0.929 . S
H30 C4 0.930 . S
H31 C5 0.931 . S
H32 C12 0.932 . S
H33 C13 0.930 . S
H34 C14 0.929 . S
H35 C16 0.930 . S
H36 C18 0.932 . S
H37 C19 0.929 . S
H38 C20 0.928 . S
H39 C22 0.932 . S
C40 C41 1.264 . S
C40 C45 1.479 . S
C40 C50 1.465 . S
C41 C40 1.264 . S
C41 C43 1.339 . S
C41 H68 0.931 . S
C42 C43 1.395 . S
C42 C44 1.320 . S
C43 C41 1.339 . S
C43 C42 1.395 . S
C43 H69 0.929 . S
C44 C42 1.320 . S
C44 C45 1.405 . S
C44 H70 0.930 . S
C45 C40 1.479 . S
C45 C44 1.405 . S
C45 H71 0.931 . S
U46 O47 2.454 . S
U46 O48 2.458 . S
U46 C49 2.984 . S
U46 C50 2.847 1_655 S
U46 C63 2.882 . S
U46 O64 2.441 1_655 S
U46 O65 2.420 . S
U46 O66 2.455 . S
U46 O67 2.449 . S
O47 U46 2.454 . S
O47 C49 1.353 . S
O48 U46 2.458 . S
O48 C49 1.286 . S
C49 U46 2.984 . S
C49 O47 1.353 . S
C49 O48 1.286 . S
C49 C51 1.363 . S
C50 C40 1.465 . S
C50 U46 2.847 1_455 S
C50 O64 1.249 . S
C50 O65 1.202 1_455 S
C51 C49 1.363 . S
C51 C53 1.408 . S
C51 C56 1.342 . S
C52 C53 1.310 . S
C52 C55 1.461 . S
C52 H72 0.932 . S
C53 C51 1.408 . S
C53 C52 1.310 . S
C53 H73 0.930 . S
C54 C55 1.474 . S
C54 C56 1.285 . S
C54 H74 0.929 . S
C55 C52 1.461 . S
C55 C54 1.474 . S
C56 C51 1.342 . S
C56 C54 1.285 . S
C56 H75 0.930 . S
C57 C60 1.424 . S
C57 C62 1.245 . S
C57 C63 1.428 . S
C58 C61 1.260 . S
C58 C62 1.477 . S
C58 H76 0.932 . S
C59 C60 1.384 . S
C59 C61 1.479 . S
C59 H77 0.929 . S
C60 C57 1.424 . S
C60 C59 1.384 . S
C60 H78 0.928 . S
C61 C58 1.260 . S
C61 C59 1.479 . S
C62 C57 1.245 . S
C62 C58 1.477 . S
C62 H79 0.932 . S
C63 U46 2.882 . S
C63 C57 1.428 . S
C63 O66 1.301 . S
C63 O67 1.282 . S
O64 U46 2.441 1_455 S
O64 C50 1.249 . S
O65 U46 2.420 . S
O65 C50 1.202 1_655 S
O66 U46 2.455 . S
O66 C63 1.301 . S
O67 U46 2.449 . S
O67 C63 1.282 . S
H68 C41 0.931 . S
H69 C43 0.929 . S
H70 C44 0.930 . S
H71 C45 0.931 . S
H72 C52 0.932 . S
H73 C53 0.930 . S
H74 C54 0.929 . S
H75 C56 0.930 . S
H76 C58 0.932 . S
H77 C59 0.929 . S
H78 C60 0.928 . S
H79 C62 0.932 . S
C80 C81 1.264 . S
C80 C85 1.479 . S
C80 C90 1.465 . S
C81 C80 1.264 . S
C81 C83 1.339 . S
C81 H108 0.931 . S
C82 C83 1.395 . S
C82 C84 1.320 . S
C83 C81 1.339 . S
C83 C82 1.395 . S
C83 H109 0.929 . S
C84 C82 1.320 . S
C84 C85 1.405 . S
C84 H110 0.930 . S
C85 C80 1.479 . S
C85 C84 1.405 . S
C85 H111 0.931 . S
U86 O87 2.454 . S
U86 O88 2.458 . S
U86 C89 2.984 . S
U86 C90 2.847 . S
U86 C103 2.882 . S
U86 O104 2.441 . S
U86 O105 2.420 . S
U86 O106 2.455 . S
U86 O107 2.449 . S
O87 U86 2.454 . S
O87 C89 1.353 . S
O88 U86 2.458 . S
O88 C89 1.286 . S
C89 U86 2.984 . S
C89 O87 1.353 . S
C89 O88 1.286 . S
C89 C91 1.363 . S
C90 C80 1.465 . S
C90 U86 2.847 . S
C90 O104 1.249 . S
C90 O105 1.202 . S
C91 C89 1.363 . S
C91 C93 1.408 . S
C91 C96 1.342 . S
C92 C93 1.310 . S
C92 C95 1.461 . S
C92 H112 0.932 . S
C93 C91 1.408 . S
C93 C92 1.310 . S
C93 H113 0.930 . S
C94 C95 1.474 . S
C94 C96 1.285 . S
C94 H114 0.929 . S
C95 C92 1.461 . S
C95 C94 1.474 . S
C96 C91 1.342 . S
C96 C94 1.285 . S
C96 H115 0.930 . S
C97 C100 1.424 . S
C97 C102 1.245 . S
C97 C103 1.428 . S
C98 C101 1.260 . S
C98 C102 1.477 . S
C98 H116 0.932 . S
C99 C100 1.384 . S
C99 C101 1.479 . S
C99 H117 0.929 . S
C100 C97 1.424 . S
C100 C99 1.384 . S
C100 H118 0.928 . S
C101 C98 1.260 . S
C101 C99 1.479 . S
C102 C97 1.245 . S
C102 C98 1.477 . S
C102 H119 0.932 . S
C103 U86 2.882 . S
C103 C97 1.428 . S
C103 O106 1.301 . S
C103 O107 1.282 . S
O104 U86 2.441 . S
O104 C90 1.249 . S
O105 U86 2.420 . S
O105 C90 1.202 . S
O106 U86 2.455 . S
O106 C103 1.301 . S
O107 U86 2.449 . S
O107 C103 1.282 . S
H108 C81 0.931 . S
H109 C83 0.929 . S
H110 C84 0.930 . S
H111 C85 0.931 . S
H112 C92 0.932 . S
H113 C93 0.930 . S
H114 C94 0.929 . S
H115 C96 0.930 . S
H116 C98 0.932 . S
H117 C99 0.929 . S
H118 C100 0.928 . S
H119 C102 0.932 . S
C120 C121 1.264 . S
C120 C125 1.479 . S
C120 C130 1.465 . S
C121 C120 1.264 . S
C121 C123 1.339 . S
C121 H148 0.931 . S
C122 C123 1.395 . S
C122 C124 1.320 . S
C123 C121 1.339 . S
C123 C122 1.395 . S
C123 H149 0.929 . S
C124 C122 1.320 . S
C124 C125 1.405 . S
C124 H150 0.930 . S
C125 C120 1.479 . S
C125 C124 1.405 . S
C125 H151 0.931 . S
U126 O127 2.454 . S
U126 O128 2.458 . S
U126 C129 2.984 . S
U126 C130 2.847 . S
U126 C143 2.882 1_556 S
U126 O144 2.441 . S
U126 O145 2.420 . S
U126 O146 2.455 . S
U126 O147 2.449 . S
O127 U126 2.454 . S
O127 C129 1.353 . S
O128 U126 2.458 . S
O128 C129 1.286 . S
C129 U126 2.984 . S
C129 O127 1.353 . S
C129 O128 1.286 . S
C129 C131 1.363 . S
C130 C120 1.465 . S
C130 U126 2.847 . S
C130 O144 1.249 . S
C130 O145 1.202 . S
C131 C129 1.363 . S
C131 C133 1.408 . S
C131 C136 1.342 . S
C132 C133 1.310 . S
C132 C135 1.461 . S
C132 H152 0.932 . S
C133 C131 1.408 . S
C133 C132 1.310 . S
C133 H153 0.930 . S
C134 C135 1.474 . S
C134 C136 1.285 . S
C134 H154 0.929 . S
C135 C132 1.461 . S
C135 C134 1.474 . S
C136 C131 1.342 . S
C136 C134 1.285 . S
C136 H155 0.930 . S
C137 C140 1.424 . S
C137 C142 1.245 . S
C137 C143 1.428 . S
C138 C141 1.260 . S
C138 C142 1.477 . S
C138 H156 0.932 . S
C139 C140 1.384 . S
C139 C141 1.479 . S
C139 H157 0.929 . S
C140 C137 1.424 . S
C140 C139 1.384 . S
C140 H158 0.928 . S
C141 C138 1.260 . S
C141 C139 1.479 . S
C142 C137 1.245 . S
C142 C138 1.477 . S
C142 H159 0.932 . S
C143 U126 2.882 1_554 S
C143 C137 1.428 . S
C143 O146 1.301 1_554 S
C143 O147 1.282 1_554 S
O144 U126 2.441 . S
O144 C130 1.249 . S
O145 U126 2.420 . S
O145 C130 1.202 . S
O146 U126 2.455 . S
O146 C143 1.301 1_556 S
O147 U126 2.449 . S
O147 C143 1.282 1_556 S
H148 C121 0.931 . S
H149 C123 0.929 . S
H150 C124 0.930 . S
H151 C125 0.931 . S
H152 C132 0.932 . S
H153 C133 0.930 . S
H154 C134 0.929 . S
H155 C136 0.930 . S
H156 C138 0.932 . S
H157 C139 0.929 . S
H158 C140 0.928 . S
H159 C142 0.932 . S
C160 C161 1.264 . S
C160 C165 1.479 . S
C160 C170 1.465 . S
C161 C160 1.264 . S
C161 C163 1.339 . S
C161 H188 0.931 . S
C162 C163 1.395 . S
C162 C164 1.320 . S
C163 C161 1.339 . S
C163 C162 1.395 . S
C163 H189 0.929 . S
C164 C162 1.320 . S
C164 C165 1.405 . S
C164 H190 0.930 . S
C165 C160 1.479 . S
C165 C164 1.405 . S
C165 H191 0.931 . S
U166 O167 2.454 . S
U166 O168 2.458 . S
U166 C169 2.984 . S
U166 C170 2.847 . S
U166 C183 2.882 . S
U166 O184 2.441 . S
U166 O185 2.420 . S
U166 O186 2.455 . S
U166 O187 2.449 . S
O167 U166 2.454 . S
O167 C169 1.353 . S
O168 U166 2.458 . S
O168 C169 1.286 . S
C169 U166 2.984 . S
C169 O167 1.353 . S
C169 O168 1.286 . S
C169 C171 1.363 . S
C170 C160 1.465 . S
C170 U166 2.847 . S
C170 O184 1.249 . S
C170 O185 1.202 . S
C171 C169 1.363 . S
C171 C173 1.408 . S
C171 C176 1.342 . S
C172 C173 1.310 . S
C172 C175 1.461 . S
C172 H192 0.932 . S
C173 C171 1.408 . S
C173 C172 1.310 . S
C173 H193 0.930 . S
C174 C175 1.474 . S
C174 C176 1.285 . S
C174 H194 0.929 . S
C175 C172 1.461 . S
C175 C174 1.474 . S
C176 C171 1.342 . S
C176 C174 1.285 . S
C176 H195 0.930 . S
C177 C180 1.424 . S
C177 C182 1.245 . S
C177 C183 1.428 . S
C178 C181 1.260 . S
C178 C182 1.477 . S
C178 H196 0.932 . S
C179 C180 1.384 . S
C179 C181 1.479 . S
C179 H197 0.929 . S
C180 C177 1.424 . S
C180 C179 1.384 . S
C180 H198 0.928 . S
C181 C178 1.260 . S
C181 C179 1.479 . S
C182 C177 1.245 . S
C182 C178 1.477 . S
C182 H199 0.932 . S
C183 U166 2.882 . S
C183 C177 1.428 . S
C183 O186 1.301 . S
C183 O187 1.282 . S
O184 U166 2.441 . S
O184 C170 1.249 . S
O185 U166 2.420 . S
O185 C170 1.202 . S
O186 U166 2.455 . S
O186 C183 1.301 . S
O187 U166 2.449 . S
O187 C183 1.282 . S
H188 C161 0.931 . S
H189 C163 0.929 . S
H190 C164 0.930 . S
H191 C165 0.931 . S
H192 C172 0.932 . S
H193 C173 0.930 . S
H194 C174 0.929 . S
H195 C176 0.930 . S
H196 C178 0.932 . S
H197 C179 0.929 . S
H198 C180 0.928 . S
H199 C182 0.932 . S
C200 C201 1.264 . S
C200 C205 1.479 . S
C200 C210 1.465 . S
C201 C200 1.264 . S
C201 C203 1.339 . S
C201 H228 0.931 . S
C202 C203 1.395 . S
C202 C204 1.320 . S
C203 C201 1.339 . S
C203 C202 1.395 . S
C203 H229 0.929 . S
C204 C202 1.320 . S
C204 C205 1.405 . S
C204 H230 0.930 . S
C205 C200 1.479 . S
C205 C204 1.405 . S
C205 H231 0.931 . S
U206 O207 2.454 . S
U206 O208 2.458 . S
U206 C209 2.984 . S
U206 C210 2.847 1_455 S
U206 C223 2.882 . S
U206 O224 2.441 1_455 S
U206 O225 2.420 . S
U206 O226 2.455 . S
U206 O227 2.449 . S
O207 U206 2.454 . S
O207 C209 1.353 . S
O208 U206 2.458 . S
O208 C209 1.286 . S
C209 U206 2.984 . S
C209 O207 1.353 . S
C209 O208 1.286 . S
C209 C211 1.363 . S
C210 C200 1.465 . S
C210 U206 2.847 1_655 S
C210 O224 1.249 . S
C210 O225 1.202 1_655 S
C211 C209 1.363 . S
C211 C213 1.408 . S
C211 C216 1.342 . S
C212 C213 1.310 . S
C212 C215 1.461 . S
C212 H232 0.932 . S
C213 C211 1.408 . S
C213 C212 1.310 . S
C213 H233 0.930 . S
C214 C215 1.474 . S
C214 C216 1.285 . S
C214 H234 0.929 . S
C215 C212 1.461 . S
C215 C214 1.474 . S
C216 C211 1.342 . S
C216 C214 1.285 . S
C216 H235 0.930 . S
C217 C220 1.424 . S
C217 C222 1.245 . S
C217 C223 1.428 . S
C218 C221 1.260 . S
C218 C222 1.477 . S
C218 H236 0.932 . S
C219 C220 1.384 . S
C219 C221 1.479 . S
C219 H237 0.929 . S
C220 C217 1.424 . S
C220 C219 1.384 . S
C220 H238 0.928 . S
C221 C218 1.260 . S
C221 C219 1.479 . S
C222 C217 1.245 . S
C222 C218 1.477 . S
C222 H239 0.932 . S
C223 U206 2.882 . S
C223 C217 1.428 . S
C223 O226 1.301 . S
C223 O227 1.282 . S
O224 U206 2.441 1_655 S
O224 C210 1.249 . S
O225 U206 2.420 . S
O225 C210 1.202 1_455 S
O226 U206 2.455 . S
O226 C223 1.301 . S
O227 U206 2.449 . S
O227 C223 1.282 . S
H228 C201 0.931 . S
H229 C203 0.929 . S
H230 C204 0.930 . S
H231 C205 0.931 . S
H232 C212 0.932 . S
H233 C213 0.930 . S
H234 C214 0.929 . S
H235 C216 0.930 . S
H236 C218 0.932 . S
H237 C219 0.929 . S
H238 C220 0.928 . S
H239 C222 0.932 . S
C240 C241 1.264 . S
C240 C245 1.479 1_455 S
C240 C250 1.465 . S
C241 C240 1.264 . S
C241 C243 1.339 . S
C241 H268 0.931 . S
C242 C243 1.395 . S
C242 C244 1.320 1_455 S
C243 C241 1.339 . S
C243 C242 1.395 . S
C243 H269 0.929 . S
C244 C242 1.320 1_655 S
C244 C245 1.405 . S
C244 H270 0.930 . S
C245 C240 1.479 1_655 S
C245 C244 1.405 . S
C245 H271 0.931 . S
U246 O247 2.454 . S
U246 O248 2.458 . S
U246 C249 2.984 . S
U246 C250 2.847 1_655 S
U246 C263 2.882 1_655 S
U246 O264 2.441 . S
U246 O265 2.420 1_655 S
U246 O266 2.455 1_655 S
U246 O267 2.449 1_655 S
O247 U246 2.454 . S
O247 C249 1.353 . S
O248 U246 2.458 . S
O248 C249 1.286 . S
C249 U246 2.984 . S
C249 O247 1.353 . S
C249 O248 1.286 . S
C249 C251 1.363 . S
C250 C240 1.465 . S
C250 U246 2.847 1_455 S
C250 O264 1.250 1_455 S
C250 O265 1.202 . S
C251 C249 1.363 . S
C251 C253 1.408 . S
C251 C256 1.342 . S
C252 C253 1.310 . S
C252 C255 1.461 . S
C252 H272 0.932 . S
C253 C251 1.408 . S
C253 C252 1.310 . S
C253 H273 0.930 . S
C254 C255 1.474 . S
C254 C256 1.285 . S
C254 H274 0.929 . S
C255 C252 1.461 . S
C255 C254 1.474 . S
C256 C251 1.342 . S
C256 C254 1.285 . S
C256 H275 0.930 . S
C257 C260 1.424 . S
C257 C262 1.245 . S
C257 C263 1.428 . S
C258 C261 1.260 . S
C258 C262 1.477 . S
C258 H276 0.932 . S
C259 C260 1.384 . S
C259 C261 1.479 . S
C259 H277 0.929 . S
C260 C257 1.424 . S
C260 C259 1.384 . S
C260 H278 0.928 . S
C261 C258 1.260 . S
C261 C259 1.479 . S
C262 C257 1.245 . S
C262 C258 1.477 . S
C262 H279 0.932 . S
C263 U246 2.882 1_455 S
C263 C257 1.428 . S
C263 O266 1.301 . S
C263 O267 1.282 . S
O264 U246 2.441 . S
O264 C250 1.250 1_655 S
O265 U246 2.420 1_455 S
O265 C250 1.202 . S
O266 U246 2.455 1_455 S
O266 C263 1.301 . S
O267 U246 2.449 1_455 S
O267 C263 1.282 . S
H268 C241 0.931 . S
H269 C243 0.929 . S
H270 C244 0.930 . S
H271 C245 0.931 . S
H272 C252 0.932 . S
H273 C253 0.930 . S
H274 C254 0.929 . S
H275 C256 0.930 . S
H276 C258 0.932 . S
H277 C259 0.929 . S
H278 C260 0.928 . S
H279 C262 0.932 . S
C280 C281 1.264 . S
C280 C285 1.479 . S
C280 C290 1.465 . S
C281 C280 1.264 . S
C281 C283 1.339 . S
C281 H308 0.931 . S
C282 C283 1.395 . S
C282 C284 1.320 . S
C283 C281 1.339 . S
C283 C282 1.395 . S
C283 H309 0.929 . S
C284 C282 1.320 . S
C284 C285 1.405 . S
C284 H310 0.930 . S
C285 C280 1.479 . S
C285 C284 1.405 . S
C285 H311 0.931 . S
U286 O287 2.454 . S
U286 O288 2.458 . S
U286 C289 2.984 . S
U286 C290 2.847 . S
U286 C303 2.882 1_554 S
U286 O304 2.441 . S
U286 O305 2.420 . S
U286 O306 2.455 . S
U286 O307 2.449 . S
O287 U286 2.454 . S
O287 C289 1.353 . S
O288 U286 2.458 . S
O288 C289 1.286 . S
C289 U286 2.984 . S
C289 O287 1.353 . S
C289 O288 1.286 . S
C289 C291 1.363 . S
C290 C280 1.465 . S
C290 U286 2.847 . S
C290 O304 1.249 . S
C290 O305 1.202 . S
C291 C289 1.363 . S
C291 C293 1.408 . S
C291 C296 1.342 . S
C292 C293 1.310 . S
C292 C295 1.461 . S
C292 H312 0.932 . S
C293 C291 1.408 . S
C293 C292 1.310 . S
C293 H313 0.930 . S
C294 C295 1.474 . S
C294 C296 1.285 . S
C294 H314 0.929 . S
C295 C292 1.461 . S
C295 C294 1.474 . S
C296 C291 1.342 . S
C296 C294 1.285 . S
C296 H315 0.930 . S
C297 C300 1.424 . S
C297 C302 1.245 . S
C297 C303 1.428 . S
C298 C301 1.260 . S
C298 C302 1.477 . S
C298 H316 0.932 . S
C299 C300 1.384 . S
C299 C301 1.479 . S
C299 H317 0.929 . S
C300 C297 1.424 . S
C300 C299 1.384 . S
C300 H318 0.928 . S
C301 C298 1.260 . S
C301 C299 1.479 . S
C302 C297 1.245 . S
C302 C298 1.477 . S
C302 H319 0.932 . S
C303 U286 2.882 1_556 S
C303 C297 1.428 . S
C303 O306 1.301 1_556 S
C303 O307 1.282 1_556 S
O304 U286 2.441 . S
O304 C290 1.249 . S
O305 U286 2.420 . S
O305 C290 1.202 . S
O306 U286 2.455 . S
O306 C303 1.301 1_554 S
O307 U286 2.449 . S
O307 C303 1.282 1_554 S
H308 C281 0.931 . S
H309 C283 0.929 . S
H310 C284 0.930 . S
H311 C285 0.931 . S
H312 C292 0.932 . S
H313 C293 0.930 . S
H314 C294 0.929 . S
H315 C296 0.930 . S
H316 C298 0.932 . S
H317 C299 0.929 . S
H318 C300 0.928 . S
H319 C302 0.932 . S
C320 C321 1.265 . S
C320 C325 1.478 1_554 S
C320 C330 1.463 1_554 S
C321 C320 1.265 . S
C321 C323 1.339 . S
C321 H348 0.931 . S
C322 C323 1.395 . S
C322 C324 1.320 . S
C323 C321 1.339 . S
C323 C322 1.395 . S
C323 H349 0.929 . S
C324 C322 1.320 . S
C324 C325 1.405 1_554 S
C324 H350 0.930 . S
C325 C320 1.478 1_556 S
C325 C324 1.405 1_556 S
C325 H351 0.931 . S
U326 O327 2.454 . S
U326 O328 2.458 . S
U326 C329 2.984 . S
U326 C330 2.847 . S
U326 C343 2.882 . S
U326 O344 2.441 . S
U326 O345 2.420 . S
U326 O346 2.455 . S
U326 O347 2.449 . S
O327 U326 2.454 . S
O327 C329 1.353 . S
O328 U326 2.458 . S
O328 C329 1.286 . S
C329 U326 2.984 . S
C329 O327 1.353 . S
C329 O328 1.286 . S
C329 C331 1.363 . S
C330 C320 1.463 1_556 S
C330 U326 2.847 . S
C330 O344 1.249 . S
C330 O345 1.202 . S
C331 C329 1.363 . S
C331 C333 1.408 . S
C331 C336 1.342 . S
C332 C333 1.310 . S
C332 C335 1.461 . S
C332 H352 0.932 . S
C333 C331 1.408 . S
C333 C332 1.310 . S
C333 H353 0.930 . S
C334 C335 1.474 . S
C334 C336 1.285 . S
C334 H354 0.929 . S
C335 C332 1.461 . S
C335 C334 1.474 . S
C336 C331 1.342 . S
C336 C334 1.285 . S
C336 H355 0.930 . S
C337 C340 1.424 . S
C337 C342 1.245 . S
C337 C343 1.428 1_554 S
C338 C341 1.260 . S
C338 C342 1.477 . S
C338 H356 0.932 . S
C339 C340 1.384 . S
C339 C341 1.479 . S
C339 H357 0.929 . S
C340 C337 1.424 . S
C340 C339 1.384 . S
C340 H358 0.928 . S
C341 C338 1.260 . S
C341 C339 1.479 . S
C342 C337 1.245 . S
C342 C338 1.477 . S
C342 H359 0.932 1_554 S
C343 U326 2.882 . S
C343 C337 1.428 1_556 S
C343 O346 1.301 . S
C343 O347 1.282 . S
O344 U326 2.441 . S
O344 C330 1.249 . S
O345 U326 2.420 . S
O345 C330 1.202 . S
O346 U326 2.455 . S
O346 C343 1.301 . S
O347 U326 2.449 . S
O347 C343 1.282 . S
H348 C321 0.931 . S
H349 C323 0.929 . S
H350 C324 0.930 . S
H351 C325 0.931 . S
H352 C332 0.932 . S
H353 C333 0.930 . S
H354 C334 0.929 . S
H355 C336 0.930 . S
H356 C338 0.932 . S
H357 C339 0.929 . S
H358 C340 0.928 . S
H359 C342 0.932 1_556 S
C360 C361 1.264 . S
C360 C365 1.479 . S
C360 C370 1.465 . S
C361 C360 1.264 . S
C361 C363 1.339 . S
C361 H388 0.931 . S
C362 C363 1.395 . S
C362 C364 1.320 . S
C363 C361 1.339 . S
C363 C362 1.395 . S
C363 H389 0.929 . S
C364 C362 1.320 . S
C364 C365 1.405 . S
C364 H390 0.930 . S
C365 C360 1.479 . S
C365 C364 1.405 . S
C365 H391 0.931 . S
U366 O367 2.454 . S
U366 O368 2.458 . S
U366 C369 2.984 . S
U366 C370 2.847 . S
U366 C383 2.882 . S
U366 O384 2.441 . S
U366 O385 2.420 . S
U366 O386 2.455 . S
U366 O387 2.449 . S
O367 U366 2.454 . S
O367 C369 1.353 . S
O368 U366 2.458 . S
O368 C369 1.286 . S
C369 U366 2.984 . S
C369 O367 1.353 . S
C369 O368 1.286 . S
C369 C371 1.363 . S
C370 C360 1.465 . S
C370 U366 2.847 . S
C370 O384 1.249 . S
C370 O385 1.202 . S
C371 C369 1.363 . S
C371 C373 1.408 . S
C371 C376 1.342 . S
C372 C373 1.310 . S
C372 C375 1.461 . S
C372 H392 0.932 . S
C373 C371 1.408 . S
C373 C372 1.310 . S
C373 H393 0.930 . S
C374 C375 1.474 . S
C374 C376 1.285 . S
C374 H394 0.929 . S
C375 C372 1.461 . S
C375 C374 1.474 . S
C376 C371 1.342 . S
C376 C374 1.285 . S
C376 H395 0.930 . S
C377 C380 1.424 . S
C377 C382 1.245 . S
C377 C383 1.428 . S
C378 C381 1.260 . S
C378 C382 1.477 . S
C378 H396 0.932 . S
C379 C380 1.384 . S
C379 C381 1.479 . S
C379 H397 0.929 . S
C380 C377 1.424 . S
C380 C379 1.384 . S
C380 H398 0.928 . S
C381 C378 1.260 . S
C381 C379 1.479 . S
C382 C377 1.245 . S
C382 C378 1.477 . S
C382 H399 0.932 . S
C383 U366 2.882 . S
C383 C377 1.428 . S
C383 O386 1.301 . S
C383 O387 1.282 . S
O384 U366 2.441 . S
O384 C370 1.249 . S
O385 U366 2.420 . S
O385 C370 1.202 . S
O386 U366 2.455 . S
O386 C383 1.301 . S
O387 U366 2.449 . S
O387 C383 1.282 . S
H388 C361 0.931 . S
H389 C363 0.929 . S
H390 C364 0.930 . S
H391 C365 0.931 . S
H392 C372 0.932 . S
H393 C373 0.930 . S
H394 C374 0.929 . S
H395 C376 0.930 . S
H396 C378 0.932 . S
H397 C379 0.929 . S
H398 C380 0.928 . S
H399 C382 0.932 . S
C400 C401 1.264 . S
C400 C405 1.479 . S
C400 C410 1.465 1_455 S
C401 C400 1.264 . S
C401 C403 1.339 . S
C401 H428 0.931 1_455 S
C402 C403 1.395 . S
C402 C404 1.320 . S
C403 C401 1.339 . S
C403 C402 1.395 . S
C403 H429 0.929 . S
C404 C402 1.320 . S
C404 C405 1.405 . S
C404 H430 0.930 . S
C405 C400 1.479 . S
C405 C404 1.405 . S
C405 H431 0.931 . S
U406 O407 2.454 1_655 S
U406 O408 2.458 . S
U406 C409 2.984 1_655 S
U406 C410 2.847 . S
U406 C423 2.882 . S
U406 O424 2.441 1_655 S
U406 O425 2.420 . S
U406 O426 2.455 . S
U406 O427 2.449 . S
O407 U406 2.454 1_455 S
O407 C409 1.353 . S
O408 U406 2.458 . S
O408 C409 1.286 1_655 S
C409 U406 2.984 1_455 S
C409 O407 1.353 . S
C409 O408 1.286 1_455 S
C409 C411 1.363 . S
C410 C400 1.465 1_655 S
C410 U406 2.847 . S
C410 O424 1.249 1_655 S
C410 O425 1.202 . S
C411 C409 1.363 . S
C411 C413 1.408 . S
C411 C416 1.342 . S
C412 C413 1.310 . S
C412 C415 1.461 . S
C412 H432 0.932 . S
C413 C411 1.408 . S
C413 C412 1.310 . S
C413 H433 0.930 . S
C414 C415 1.474 . S
C414 C416 1.285 . S
C414 H434 0.929 . S
C415 C412 1.461 . S
C415 C414 1.474 . S
C416 C411 1.342 . S
C416 C414 1.285 . S
C416 H435 0.942 . S
C417 C420 1.424 . S
C417 C422 1.245 . S
C417 C423 1.428 . S
C418 C421 1.260 . S
C418 C422 1.477 . S
C418 H436 0.932 . S
C419 C420 1.384 . S
C419 C421 1.479 . S
C419 H437 0.929 . S
C420 C417 1.424 . S
C420 C419 1.384 . S
C420 H438 0.928 . S
C421 C418 1.260 . S
C421 C419 1.479 . S
C422 C417 1.245 . S
C422 C418 1.477 . S
C422 H439 0.932 . S
C423 U406 2.882 . S
C423 C417 1.428 . S
C423 O426 1.301 . S
C423 O427 1.282 . S
O424 U406 2.441 1_455 S
O424 C410 1.249 1_455 S
O425 U406 2.420 . S
O425 C410 1.202 . S
O426 U406 2.455 . S
O426 C423 1.301 . S
O427 U406 2.449 . S
O427 C423 1.282 . S
H428 C401 0.931 1_655 S
H429 C403 0.929 . S
H430 C404 0.930 . S
H431 C405 0.931 . S
H432 C412 0.932 . S
H433 C413 0.930 . S
H434 C414 0.929 . S
H435 C416 0.942 . S
H436 C418 0.932 . S
H437 C419 0.929 . S
H438 C420 0.928 . S
H439 C422 0.932 . S
C440 C441 1.262 . S
C440 C445 1.480 1_455 S
C440 C450 1.466 1_455 S
C441 C440 1.262 . S
C441 C443 1.339 . S
C441 H468 0.931 . S
C442 C443 1.395 . S
C442 C444 1.310 1_455 S
C443 C441 1.339 . S
C443 C442 1.395 . S
C443 H469 0.929 . S
C444 C442 1.310 1_655 S
C444 C445 1.412 . S
C444 H470 0.935 . S
C445 C440 1.480 1_655 S
C445 C444 1.412 . S
C445 H471 0.931 . S
U446 O447 2.454 . S
U446 O448 2.458 . S
U446 C449 2.984 . S
U446 C450 2.847 . S
U446 C463 2.882 1_655 S
U446 O464 2.441 . S
U446 O465 2.420 . S
U446 O466 2.455 . S
U446 O467 2.449 1_655 S
O447 U446 2.454 . S
O447 C449 1.353 . S
O448 U446 2.458 . S
O448 C449 1.286 . S
C449 U446 2.984 . S
C449 O447 1.353 . S
C449 O448 1.286 . S
C449 C451 1.363 . S
C450 C440 1.466 1_655 S
C450 U446 2.847 . S
C450 O464 1.249 . S
C450 O465 1.202 . S
C451 C449 1.363 . S
C451 C453 1.408 . S
C451 C456 1.342 . S
C452 C453 1.310 . S
C452 C455 1.461 . S
C452 H472 0.932 . S
C453 C451 1.408 . S
C453 C452 1.310 . S
C453 H473 0.930 . S
C454 C455 1.474 . S
C454 C456 1.285 . S
C454 H474 0.929 . S
C455 C452 1.461 . S
C455 C454 1.474 . S
C456 C451 1.342 . S
C456 C454 1.285 . S
C456 H475 0.930 . S
C457 C460 1.424 . S
C457 C462 1.245 . S
C457 C463 1.428 . S
C458 C461 1.260 . S
C458 C462 1.477 . S
C458 H476 0.932 . S
C459 C460 1.384 . S
C459 C461 1.479 . S
C459 H477 0.929 . S
C460 C457 1.424 . S
C460 C459 1.384 . S
C460 H478 0.928 . S
C461 C458 1.260 . S
C461 C459 1.479 . S
C462 C457 1.245 . S
C462 C458 1.477 . S
C462 H479 0.932 . S
C463 U446 2.882 1_455 S
C463 C457 1.428 . S
C463 O466 1.301 1_455 S
C463 O467 1.282 . S
O464 U446 2.441 . S
O464 C450 1.249 . S
O465 U446 2.420 . S
O465 C450 1.202 . S
O466 U446 2.455 . S
O466 C463 1.301 1_655 S
O467 U446 2.449 1_455 S
O467 C463 1.282 . S
H468 C441 0.931 . S
H469 C443 0.929 . S
H470 C444 0.935 . S
H471 C445 0.931 . S
H472 C452 0.932 . S
H473 C453 0.930 . S
H474 C454 0.929 . S
H475 C456 0.930 . S
H476 C458 0.932 . S
H477 C459 0.929 . S
H478 C460 0.928 . S
H479 C462 0.932 . S
C480 C481 1.264 . S
C480 C485 1.479 . S
C480 C490 1.465 . S
C481 C480 1.264 . S
C481 C483 1.339 . S
C481 H508 0.931 . S
C482 C483 1.395 . S
C482 C484 1.320 . S
C483 C481 1.339 . S
C483 C482 1.395 . S
C483 H509 0.929 . S
C484 C482 1.320 . S
C484 C485 1.405 . S
C484 H510 0.930 . S
C485 C480 1.479 . S
C485 C484 1.405 . S
C485 H511 0.931 . S
U486 O487 2.454 . S
U486 O488 2.458 . S
U486 C489 2.984 . S
U486 C490 2.847 . S
U486 C503 2.882 1_655 S
U486 O504 2.441 . S
U486 O505 2.420 . S
U486 O506 2.455 . S
U486 O507 2.449 . S
O487 U486 2.454 . S
O487 C489 1.353 . S
O488 U486 2.458 . S
O488 C489 1.286 . S
C489 U486 2.984 . S
C489 O487 1.353 . S
C489 O488 1.286 . S
C489 C491 1.363 . S
C490 C480 1.465 . S
C490 U486 2.847 . S
C490 O504 1.249 . S
C490 O505 1.202 . S
C491 C489 1.363 . S
C491 C493 1.408 . S
C491 C496 1.342 . S
C492 C493 1.310 . S
C492 C495 1.461 . S
C492 H512 0.932 . S
C493 C491 1.408 . S
C493 C492 1.310 . S
C493 H513 0.930 . S
C494 C495 1.474 . S
C494 C496 1.285 . S
C494 H514 0.929 . S
C495 C492 1.461 . S
C495 C494 1.474 . S
C496 C491 1.342 . S
C496 C494 1.285 . S
C496 H515 0.930 . S
C497 C500 1.424 . S
C497 C502 1.245 . S
C497 C503 1.428 . S
C498 C501 1.260 . S
C498 C502 1.477 . S
C498 H516 0.932 . S
C499 C500 1.384 . S
C499 C501 1.479 . S
C499 H517 0.929 . S
C500 C497 1.424 . S
C500 C499 1.384 . S
C500 H518 0.928 . S
C501 C498 1.260 . S
C501 C499 1.479 . S
C502 C497 1.245 . S
C502 C498 1.477 . S
C502 H519 0.932 . S
C503 U486 2.882 1_455 S
C503 C497 1.428 . S
C503 O506 1.301 1_455 S
C503 O507 1.282 1_455 S
O504 U486 2.441 . S
O504 C490 1.249 . S
O505 U486 2.420 . S
O505 C490 1.202 . S
O506 U486 2.455 . S
O506 C503 1.301 1_655 S
O507 U486 2.449 . S
O507 C503 1.282 1_655 S
H508 C481 0.931 . S
H509 C483 0.929 . S
H510 C484 0.930 . S
H511 C485 0.931 . S
H512 C492 0.932 . S
H513 C493 0.930 . S
H514 C494 0.929 . S
H515 C496 0.930 . S
H516 C498 0.932 . S
H517 C499 0.929 . S
H518 C500 0.928 . S
H519 C502 0.932 . S
C520 C521 1.264 . S
C520 C525 1.479 . S
C520 C530 1.465 . S
C521 C520 1.264 . S
C521 C523 1.339 . S
C521 H548 0.931 . S
C522 C523 1.395 . S
C522 C524 1.320 . S
C523 C521 1.339 . S
C523 C522 1.395 . S
C523 H549 0.929 . S
C524 C522 1.320 . S
C524 C525 1.405 . S
C524 H550 0.930 . S
C525 C520 1.479 . S
C525 C524 1.405 . S
C525 H551 0.931 . S
U526 O527 2.454 . S
U526 O528 2.458 . S
U526 C529 2.984 . S
U526 C530 2.847 . S
U526 C543 2.882 . S
U526 O544 2.441 . S
U526 O545 2.420 . S
U526 O546 2.455 . S
U526 O547 2.449 . S
O527 U526 2.454 . S
O527 C529 1.353 . S
O528 U526 2.458 . S
O528 C529 1.286 . S
C529 U526 2.984 . S
C529 O527 1.353 . S
C529 O528 1.286 . S
C529 C531 1.363 . S
C530 C520 1.465 . S
C530 U526 2.847 . S
C530 O544 1.249 . S
C530 O545 1.202 . S
C531 C529 1.363 . S
C531 C533 1.408 . S
C531 C536 1.342 . S
C532 C533 1.310 . S
C532 C535 1.461 . S
C532 H552 0.932 . S
C533 C531 1.408 . S
C533 C532 1.310 . S
C533 H553 0.930 . S
C534 C535 1.474 . S
C534 C536 1.285 . S
C534 H554 0.929 . S
C535 C532 1.461 . S
C535 C534 1.474 . S
C536 C531 1.342 . S
C536 C534 1.285 . S
C536 H555 0.930 . S
C537 C540 1.424 . S
C537 C542 1.245 . S
C537 C543 1.428 . S
C538 C541 1.260 . S
C538 C542 1.477 . S
C538 H556 0.932 . S
C539 C540 1.384 . S
C539 C541 1.479 . S
C539 H557 0.929 . S
C540 C537 1.424 . S
C540 C539 1.384 . S
C540 H558 0.928 . S
C541 C538 1.260 . S
C541 C539 1.479 . S
C542 C537 1.245 . S
C542 C538 1.477 . S
C542 H559 0.932 . S
C543 U526 2.882 . S
C543 C537 1.428 . S
C543 O546 1.301 . S
C543 O547 1.282 . S
O544 U526 2.441 . S
O544 C530 1.249 . S
O545 U526 2.420 . S
O545 C530 1.202 . S
O546 U526 2.455 . S
O546 C543 1.301 . S
O547 U526 2.449 . S
O547 C543 1.282 . S
H548 C521 0.931 . S
H549 C523 0.929 . S
H550 C524 0.930 . S
H551 C525 0.931 . S
H552 C532 0.932 . S
H553 C533 0.930 . S
H554 C534 0.929 . S
H555 C536 0.930 . S
H556 C538 0.932 . S
H557 C539 0.929 . S
H558 C540 0.928 . S
H559 C542 0.932 . S
C560 C561 1.264 1_554 S
C560 C565 1.479 . S
C560 C570 1.465 . S
C561 C560 1.264 1_556 S
C561 C563 1.339 . S
C561 H588 0.931 . S
C562 C563 1.395 . S
C562 C564 1.320 . S
C563 C561 1.339 . S
C563 C562 1.395 . S
C563 H589 0.929 . S
C564 C562 1.320 . S
C564 C565 1.405 1_556 S
C564 H590 0.930 . S
C565 C560 1.479 . S
C565 C564 1.405 1_554 S
C565 H591 0.931 . S
U566 O567 2.454 . S
U566 O568 2.458 . S
U566 C569 2.984 . S
U566 C570 2.847 . S
U566 C583 2.882 . S
U566 O584 2.441 . S
U566 O585 2.420 . S
U566 O586 2.455 . S
U566 O587 2.449 . S
O567 U566 2.454 . S
O567 C569 1.353 . S
O568 U566 2.458 . S
O568 C569 1.286 . S
C569 U566 2.984 . S
C569 O567 1.353 . S
C569 O568 1.286 . S
C569 C571 1.363 . S
C570 C560 1.465 . S
C570 U566 2.847 . S
C570 O584 1.249 . S
C570 O585 1.202 . S
C571 C569 1.363 . S
C571 C573 1.408 . S
C571 C576 1.342 . S
C572 C573 1.310 . S
C572 C575 1.461 . S
C572 H592 0.932 . S
C573 C571 1.408 . S
C573 C572 1.310 . S
C573 H593 0.930 . S
C574 C575 1.474 . S
C574 C576 1.285 . S
C574 H594 0.929 . S
C575 C572 1.461 . S
C575 C574 1.474 . S
C576 C571 1.342 . S
C576 C574 1.285 . S
C576 H595 0.930 . S
C577 C580 1.424 . S
C577 C582 1.245 . S
C577 C583 1.428 1_556 S
C578 C581 1.260 . S
C578 C582 1.477 . S
C578 H596 0.932 . S
C579 C580 1.384 . S
C579 C581 1.479 . S
C579 H597 0.929 . S
C580 C577 1.424 . S
C580 C579 1.384 . S
C580 H598 0.928 . S
C581 C578 1.260 . S
C581 C579 1.479 . S
C582 C577 1.245 . S
C582 C578 1.477 . S
C582 H599 0.938 . S
C583 U566 2.882 . S
C583 C577 1.428 1_554 S
C583 O586 1.301 . S
C583 O587 1.282 . S
O584 U566 2.441 . S
O584 C570 1.249 . S
O585 U566 2.420 . S
O585 C570 1.202 . S
O586 U566 2.455 . S
O586 C583 1.301 . S
O587 U566 2.449 . S
O587 C583 1.282 . S
H588 C561 0.931 . S
H589 C563 0.929 . S
H590 C564 0.930 . S
H591 C565 0.931 . S
H592 C572 0.932 . S
H593 C573 0.930 . S
H594 C574 0.929 . S
H595 C576 0.930 . S
H596 C578 0.932 . S
H597 C579 0.929 . S
H598 C580 0.928 . S
H599 C582 0.938 . S
C600 C601 1.257 1_455 S
C600 C605 1.483 . S
C600 C610 1.468 . S
C601 C600 1.257 1_655 S
C601 C603 1.339 . S
C601 H628 0.931 . S
C602 C603 1.395 . S
C602 C604 1.302 1_655 S
C603 C601 1.339 . S
C603 C602 1.395 . S
C603 H629 0.929 . S
C604 C602 1.302 1_455 S
C604 C605 1.417 . S
C604 H630 0.938 . S
C605 C600 1.483 . S
C605 C604 1.417 . S
C605 H631 0.931 . S
U606 O607 2.454 . S
U606 O608 2.458 . S
U606 C609 2.984 . S
U606 C610 2.847 . S
U606 C623 2.882 1_455 S
U606 O624 2.441 . S
U606 O625 2.420 . S
U606 O626 2.455 . S
U606 O627 2.449 1_455 S
O607 U606 2.454 . S
O607 C609 1.353 . S
O608 U606 2.458 . S
O608 C609 1.286 . S
C609 U606 2.984 . S
C609 O607 1.353 . S
C609 O608 1.286 . S
C609 C611 1.363 . S
C610 C600 1.468 . S
C610 U606 2.847 . S
C610 O624 1.249 . S
C610 O625 1.202 . S
C611 C609 1.363 . S
C611 C613 1.408 . S
C611 C616 1.342 . S
C612 C613 1.310 . S
C612 C615 1.461 . S
C612 H632 0.932 . S
C613 C611 1.408 . S
C613 C612 1.310 . S
C613 H633 0.930 . S
C614 C615 1.474 . S
C614 C616 1.285 . S
C614 H634 0.929 . S
C615 C612 1.461 . S
C615 C614 1.474 . S
C616 C611 1.342 . S
C616 C614 1.285 . S
C616 H635 0.930 . S
C617 C620 1.424 . S
C617 C622 1.245 . S
C617 C623 1.428 . S
C618 C621 1.260 . S
C618 C622 1.477 . S
C618 H636 0.932 . S
C619 C620 1.384 . S
C619 C621 1.479 . S
C619 H637 0.929 . S
C620 C617 1.424 . S
C620 C619 1.384 . S
C620 H638 0.928 . S
C621 C618 1.260 . S
C621 C619 1.479 . S
C622 C617 1.245 . S
C622 C618 1.477 . S
C622 H639 0.932 . S
C623 U606 2.882 1_655 S
C623 C617 1.428 . S
C623 O626 1.301 1_655 S
C623 O627 1.282 . S
O624 U606 2.441 . S
O624 C610 1.249 . S
O625 U606 2.420 . S
O625 C610 1.202 . S
O626 U606 2.455 . S
O626 C623 1.301 1_455 S
O627 U606 2.449 1_655 S
O627 C623 1.282 . S
H628 C601 0.931 . S
H629 C603 0.929 . S
H630 C604 0.938 . S
H631 C605 0.931 . S
H632 C612 0.932 . S
H633 C613 0.930 . S
H634 C614 0.929 . S
H635 C616 0.930 . S
H636 C618 0.932 . S
H637 C619 0.929 . S
H638 C620 0.928 . S
H639 C622 0.932 . S
C640 C641 1.264 . S
C640 C645 1.479 . S
C640 C650 1.465 . S
C641 C640 1.264 . S
C641 C643 1.339 . S
C641 H668 0.931 . S
C642 C643 1.395 . S
C642 C644 1.320 . S
C643 C641 1.339 . S
C643 C642 1.395 . S
C643 H669 0.929 . S
C644 C642 1.320 . S
C644 C645 1.405 . S
C644 H670 0.930 . S
C645 C640 1.479 . S
C645 C644 1.405 . S
C645 H671 0.931 . S
U646 O647 2.454 . S
U646 O648 2.458 . S
U646 C649 2.984 . S
U646 C650 2.847 . S
U646 C663 2.882 . S
U646 O664 2.441 . S
U646 O665 2.420 . S
U646 O666 2.455 . S
U646 O667 2.449 . S
O647 U646 2.454 . S
O647 C649 1.353 . S
O648 U646 2.458 . S
O648 C649 1.286 . S
C649 U646 2.984 . S
C649 O647 1.353 . S
C649 O648 1.286 . S
C649 C651 1.363 . S
C650 C640 1.465 . S
C650 U646 2.847 . S
C650 O664 1.249 . S
C650 O665 1.202 . S
C651 C649 1.363 . S
C651 C653 1.408 . S
C651 C656 1.342 . S
C652 C653 1.310 . S
C652 C655 1.461 . S
C652 H672 0.932 . S
C653 C651 1.408 . S
C653 C652 1.310 . S
C653 H673 0.930 . S
C654 C655 1.474 . S
C654 C656 1.285 . S
C654 H674 0.929 . S
C655 C652 1.461 . S
C655 C654 1.474 . S
C656 C651 1.342 . S
C656 C654 1.285 . S
C656 H675 0.930 . S
C657 C660 1.424 . S
C657 C662 1.245 . S
C657 C663 1.428 . S
C658 C661 1.260 . S
C658 C662 1.477 . S
C658 H676 0.932 . S
C659 C660 1.384 . S
C659 C661 1.479 . S
C659 H677 0.929 . S
C660 C657 1.424 . S
C660 C659 1.384 . S
C660 H678 0.928 . S
C661 C658 1.260 . S
C661 C659 1.479 . S
C662 C657 1.245 . S
C662 C658 1.477 . S
C662 H679 0.932 . S
C663 U646 2.882 . S
C663 C657 1.428 . S
C663 O666 1.301 . S
C663 O667 1.282 . S
O664 U646 2.441 . S
O664 C650 1.249 . S
O665 U646 2.420 . S
O665 C650 1.202 . S
O666 U646 2.455 . S
O666 C663 1.301 . S
O667 U646 2.449 . S
O667 C663 1.282 . S
H668 C641 0.931 . S
H669 C643 0.929 . S
H670 C644 0.930 . S
H671 C645 0.931 . S
H672 C652 0.932 . S
H673 C653 0.930 . S
H674 C654 0.929 . S
H675 C656 0.930 . S
H676 C658 0.932 . S
H677 C659 0.929 . S
H678 C660 0.928 . S
H679 C662 0.932 . S
C680 C681 1.264 . S
C680 C685 1.479 . S
C680 C690 1.465 . S
C681 C680 1.264 . S
C681 C683 1.339 . S
C681 H708 0.931 . S
C682 C683 1.395 . S
C682 C684 1.320 . S
C683 C681 1.339 . S
C683 C682 1.395 . S
C683 H709 0.929 . S
C684 C682 1.320 . S
C684 C685 1.405 . S
C684 H710 0.930 . S
C685 C680 1.479 . S
C685 C684 1.405 . S
C685 H711 0.931 . S
U686 O687 2.454 1_556 S
U686 O688 2.458 . S
U686 C689 2.984 . S
U686 C690 2.847 1_556 S
U686 C703 2.882 . S
U686 O704 2.441 1_556 S
U686 O705 2.420 1_556 S
U686 O706 2.455 . S
U686 O707 2.449 . S
O687 U686 2.454 1_554 S
O687 C689 1.353 1_554 S
O688 U686 2.458 . S
O688 C689 1.286 . S
C689 U686 2.984 . S
C689 O687 1.353 1_556 S
C689 O688 1.286 . S
C689 C691 1.363 . S
C690 C680 1.465 . S
C690 U686 2.847 1_554 S
C690 O704 1.249 . S
C690 O705 1.202 . S
C691 C689 1.363 . S
C691 C693 1.408 . S
C691 C696 1.342 . S
C692 C693 1.310 . S
C692 C695 1.461 . S
C692 H712 0.932 1_556 S
C693 C691 1.408 . S
C693 C692 1.310 . S
C693 H713 0.930 1_556 S
C694 C695 1.474 . S
C694 C696 1.285 . S
C694 H714 0.929 . S
C695 C692 1.461 . S
C695 C694 1.474 . S
C696 C691 1.342 . S
C696 C694 1.285 . S
C696 H715 0.930 . S
C697 C700 1.424 . S
C697 C702 1.245 . S
C697 C703 1.428 . S
C698 C701 1.260 . S
C698 C702 1.477 . S
C698 H716 0.932 . S
C699 C700 1.384 . S
C699 C701 1.479 . S
C699 H717 0.929 . S
C700 C697 1.424 . S
C700 C699 1.384 . S
C700 H718 0.928 . S
C701 C698 1.260 . S
C701 C699 1.479 . S
C702 C697 1.245 . S
C702 C698 1.477 . S
C702 H719 0.932 . S
C703 U686 2.882 . S
C703 C697 1.428 . S
C703 O706 1.301 . S
C703 O707 1.282 . S
O704 U686 2.441 1_554 S
O704 C690 1.249 . S
O705 U686 2.420 1_554 S
O705 C690 1.202 . S
O706 U686 2.455 . S
O706 C703 1.301 . S
O707 U686 2.449 . S
O707 C703 1.282 . S
H708 C681 0.931 . S
H709 C683 0.929 . S
H710 C684 0.930 . S
H711 C685 0.931 . S
H712 C692 0.932 1_554 S
H713 C693 0.930 1_554 S
H714 C694 0.929 . S
H715 C696 0.930 . S
H716 C698 0.932 . S
H717 C699 0.929 . S
H718 C700 0.928 . S
H719 C702 0.932 . S
C720 C721 1.264 . S
C720 C725 1.479 . S
C720 C730 1.465 . S
C721 C720 1.264 . S
C721 C723 1.339 . S
C721 H748 0.931 . S
C722 C723 1.395 . S
C722 C724 1.320 . S
C723 C721 1.339 . S
C723 C722 1.395 . S
C723 H749 0.929 . S
C724 C722 1.320 . S
C724 C725 1.405 . S
C724 H750 0.930 . S
C725 C720 1.479 . S
C725 C724 1.405 . S
C725 H751 0.931 . S
U726 O727 2.454 . S
U726 O728 2.458 1_556 S
U726 C729 2.984 1_556 S
U726 C730 2.847 . S
U726 C743 2.882 1_556 S
U726 O744 2.441 . S
U726 O745 2.420 . S
U726 O746 2.455 1_556 S
U726 O747 2.449 1_556 S
O727 U726 2.454 . S
O727 C729 1.353 1_556 S
O728 U726 2.458 1_554 S
O728 C729 1.286 . S
C729 U726 2.984 1_554 S
C729 O727 1.353 1_554 S
C729 O728 1.286 . S
C729 C731 1.363 . S
C730 C720 1.465 . S
C730 U726 2.847 . S
C730 O744 1.249 . S
C730 O745 1.202 . S
C731 C729 1.363 . S
C731 C733 1.408 1_554 S
C731 C736 1.342 . S
C732 C733 1.310 . S
C732 C735 1.461 1_556 S
C732 H752 0.932 . S
C733 C731 1.408 1_556 S
C733 C732 1.310 . S
C733 H753 0.930 . S
C734 C735 1.474 . S
C734 C736 1.285 . S
C734 H754 0.929 . S
C735 C732 1.461 1_554 S
C735 C734 1.474 . S
C736 C731 1.342 . S
C736 C734 1.285 . S
C736 H755 0.930 . S
C737 C740 1.424 . S
C737 C742 1.245 . S
C737 C743 1.428 . S
C738 C741 1.260 . S
C738 C742 1.477 . S
C738 H756 0.932 . S
C739 C740 1.384 . S
C739 C741 1.479 . S
C739 H757 0.929 . S
C740 C737 1.424 . S
C740 C739 1.384 . S
C740 H758 0.928 . S
C741 C738 1.260 . S
C741 C739 1.479 . S
C742 C737 1.245 . S
C742 C738 1.477 . S
C742 H759 0.932 . S
C743 U726 2.882 1_554 S
C743 C737 1.428 . S
C743 O746 1.301 . S
C743 O747 1.282 . S
O744 U726 2.441 . S
O744 C730 1.249 . S
O745 U726 2.420 . S
O745 C730 1.202 . S
O746 U726 2.455 1_554 S
O746 C743 1.301 . S
O747 U726 2.449 1_554 S
O747 C743 1.282 . S
H748 C721 0.931 . S
H749 C723 0.929 . S
H750 C724 0.930 . S
H751 C725 0.931 . S
H752 C732 0.932 . S
H753 C733 0.930 . S
H754 C734 0.929 . S
H755 C736 0.930 . S
H756 C738 0.932 . S
H757 C739 0.929 . S
H758 C740 0.928 . S
H759 C742 0.932 . S
C760 C761 1.264 . S
C760 C765 1.479 . S
C760 C770 1.465 . S
C761 C760 1.264 . S
C761 C763 1.339 . S
C761 H788 0.931 . S
C762 C763 1.395 . S
C762 C764 1.320 . S
C763 C761 1.339 . S
C763 C762 1.395 . S
C763 H789 0.929 . S
C764 C762 1.320 . S
C764 C765 1.405 . S
C764 H790 0.930 . S
C765 C760 1.479 . S
C765 C764 1.405 . S
C765 H791 0.931 . S
U766 O767 2.454 . S
U766 O768 2.458 . S
U766 C769 2.984 . S
U766 C770 2.847 . S
U766 C783 2.882 . S
U766 O784 2.441 . S
U766 O785 2.420 . S
U766 O786 2.455 . S
U766 O787 2.449 . S
O767 U766 2.454 . S
O767 C769 1.353 . S
O768 U766 2.458 . S
O768 C769 1.286 . S
C769 U766 2.984 . S
C769 O767 1.353 . S
C769 O768 1.286 . S
C769 C771 1.363 . S
C770 C760 1.465 . S
C770 U766 2.847 . S
C770 O784 1.249 . S
C770 O785 1.202 . S
C771 C769 1.363 . S
C771 C773 1.408 . S
C771 C776 1.342 . S
C772 C773 1.310 . S
C772 C775 1.461 . S
C772 H792 0.932 . S
C773 C771 1.408 . S
C773 C772 1.310 . S
C773 H793 0.930 . S
C774 C775 1.474 . S
C774 C776 1.285 . S
C774 H794 0.929 . S
C775 C772 1.461 . S
C775 C774 1.474 . S
C776 C771 1.342 . S
C776 C774 1.285 . S
C776 H795 0.930 . S
C777 C780 1.424 . S
C777 C782 1.245 . S
C777 C783 1.428 . S
C778 C781 1.260 . S
C778 C782 1.477 . S
C778 H796 0.932 . S
C779 C780 1.384 . S
C779 C781 1.479 . S
C779 H797 0.929 . S
C780 C777 1.424 . S
C780 C779 1.384 . S
C780 H798 0.928 . S
C781 C778 1.260 . S
C781 C779 1.479 . S
C782 C777 1.245 . S
C782 C778 1.477 . S
C782 H799 0.932 . S
C783 U766 2.882 . S
C783 C777 1.428 . S
C783 O786 1.301 . S
C783 O787 1.282 . S
O784 U766 2.441 . S
O784 C770 1.249 . S
O785 U766 2.420 . S
O785 C770 1.202 . S
O786 U766 2.455 . S
O786 C783 1.301 . S
O787 U766 2.449 . S
O787 C783 1.282 . S
H788 C761 0.931 . S
H789 C763 0.929 . S
H790 C764 0.930 . S
H791 C765 0.931 . S
H792 C772 0.932 . S
H793 C773 0.930 . S
H794 C774 0.929 . S
H795 C776 0.930 . S
H796 C778 0.932 . S
H797 C779 0.929 . S
H798 C780 0.928 . S
H799 C782 0.932 . S
C800 C801 1.264 . S
C800 C805 1.479 . S
C800 C810 1.465 . S
C801 C800 1.264 . S
C801 C803 1.339 . S
C801 H828 0.931 . S
C802 C803 1.395 . S
C802 C804 1.320 . S
C803 C801 1.339 . S
C803 C802 1.395 . S
C803 H829 0.929 . S
C804 C802 1.320 . S
C804 C805 1.405 . S
C804 H830 0.930 . S
C805 C800 1.479 . S
C805 C804 1.405 . S
C805 H831 0.931 . S
U806 O807 2.454 . S
U806 O808 2.458 . S
U806 C809 2.984 . S
U806 C810 2.847 . S
U806 C823 2.882 . S
U806 O824 2.441 . S
U806 O825 2.420 . S
U806 O826 2.455 . S
U806 O827 2.449 . S
O807 U806 2.454 . S
O807 C809 1.353 . S
O808 U806 2.458 . S
O808 C809 1.286 . S
C809 U806 2.984 . S
C809 O807 1.353 . S
C809 O808 1.286 . S
C809 C811 1.363 . S
C810 C800 1.465 . S
C810 U806 2.847 . S
C810 O824 1.249 . S
C810 O825 1.202 . S
C811 C809 1.363 . S
C811 C813 1.408 . S
C811 C816 1.342 . S
C812 C813 1.310 . S
C812 C815 1.461 . S
C812 H832 0.932 . S
C813 C811 1.408 . S
C813 C812 1.310 . S
C813 H833 0.930 . S
C814 C815 1.474 . S
C814 C816 1.285 . S
C814 H834 0.929 . S
C815 C812 1.461 . S
C815 C814 1.474 . S
C816 C811 1.342 . S
C816 C814 1.285 . S
C816 H835 0.930 . S
C817 C820 1.424 . S
C817 C822 1.245 . S
C817 C823 1.428 . S
C818 C821 1.260 . S
C818 C822 1.477 . S
C818 H836 0.932 . S
C819 C820 1.384 . S
C819 C821 1.479 . S
C819 H837 0.929 . S
C820 C817 1.424 . S
C820 C819 1.384 . S
C820 H838 0.928 . S
C821 C818 1.260 . S
C821 C819 1.479 . S
C822 C817 1.245 . S
C822 C818 1.477 . S
C822 H839 0.932 . S
C823 U806 2.882 . S
C823 C817 1.428 . S
C823 O826 1.301 . S
C823 O827 1.282 . S
O824 U806 2.441 . S
O824 C810 1.249 . S
O825 U806 2.420 . S
O825 C810 1.202 . S
O826 U806 2.455 . S
O826 C823 1.301 . S
O827 U806 2.449 . S
O827 C823 1.282 . S
H828 C801 0.931 . S
H829 C803 0.929 . S
H830 C804 0.930 . S
H831 C805 0.931 . S
H832 C812 0.932 . S
H833 C813 0.930 . S
H834 C814 0.929 . S
H835 C816 0.930 . S
H836 C818 0.932 . S
H837 C819 0.929 . S
H838 C820 0.928 . S
H839 C822 0.932 . S
C840 C841 1.262 1_556 S
C840 C845 1.480 . S
C840 C850 1.466 . S
C841 C840 1.262 1_554 S
C841 C843 1.339 . S
C841 H868 0.931 . S
C842 C843 1.395 . S
C842 C844 1.317 1_554 S
C843 C841 1.339 . S
C843 C842 1.395 . S
C843 H869 0.929 . S
C844 C842 1.317 1_556 S
C844 C845 1.407 . S
C844 H870 0.931 . S
C845 C840 1.480 . S
C845 C844 1.407 . S
C845 H871 0.931 . S
U846 O847 2.454 . S
U846 O848 2.458 . S
U846 C849 2.984 . S
U846 C850 2.847 . S
U846 C863 2.882 1_556 S
U846 O864 2.441 . S
U846 O865 2.420 . S
U846 O866 2.455 . S
U846 O867 2.449 1_556 S
O847 U846 2.454 . S
O847 C849 1.353 . S
O848 U846 2.458 . S
O848 C849 1.286 . S
C849 U846 2.984 . S
C849 O847 1.353 . S
C849 O848 1.286 . S
C849 C851 1.363 . S
C850 C840 1.466 . S
C850 U846 2.847 . S
C850 O864 1.249 . S
C850 O865 1.202 . S
C851 C849 1.363 . S
C851 C853 1.408 . S
C851 C856 1.342 . S
C852 C853 1.310 . S
C852 C855 1.461 . S
C852 H872 0.932 . S
C853 C851 1.408 . S
C853 C852 1.310 . S
C853 H873 0.930 . S
C854 C855 1.474 . S
C854 C856 1.285 . S
C854 H874 0.929 . S
C855 C852 1.461 . S
C855 C854 1.474 . S
C856 C851 1.342 . S
C856 C854 1.285 . S
C856 H875 0.930 . S
C857 C860 1.424 . S
C857 C862 1.245 . S
C857 C863 1.428 . S
C858 C861 1.260 . S
C858 C862 1.477 . S
C858 H876 0.932 . S
C859 C860 1.384 . S
C859 C861 1.479 . S
C859 H877 0.929 . S
C860 C857 1.424 . S
C860 C859 1.384 . S
C860 H878 0.928 . S
C861 C858 1.260 . S
C861 C859 1.479 . S
C862 C857 1.245 . S
C862 C858 1.477 . S
C862 H879 0.932 . S
C863 U846 2.882 1_554 S
C863 C857 1.428 . S
C863 O866 1.301 1_554 S
C863 O867 1.282 . S
O864 U846 2.441 . S
O864 C850 1.249 . S
O865 U846 2.420 . S
O865 C850 1.202 . S
O866 U846 2.455 . S
O866 C863 1.301 1_556 S
O867 U846 2.449 1_554 S
O867 C863 1.282 . S
H868 C841 0.931 . S
H869 C843 0.929 . S
H870 C844 0.931 . S
H871 C845 0.931 . S
H872 C852 0.932 . S
H873 C853 0.930 . S
H874 C854 0.929 . S
H875 C856 0.930 . S
H876 C858 0.932 . S
H877 C859 0.929 . S
H878 C860 0.928 . S
H879 C862 0.932 . S
C880 C881 1.264 . S
C880 C885 1.479 . S
C880 C890 1.465 . S
C881 C880 1.264 . S
C881 C883 1.339 . S
C881 H908 0.931 . S
C882 C883 1.395 . S
C882 C884 1.320 . S
C883 C881 1.339 . S
C883 C882 1.395 . S
C883 H909 0.929 . S
C884 C882 1.320 . S
C884 C885 1.405 . S
C884 H910 0.930 . S
C885 C880 1.479 . S
C885 C884 1.405 . S
C885 H911 0.931 . S
U886 O887 2.454 . S
U886 O888 2.458 . S
U886 C889 2.984 . S
U886 C890 2.847 . S
U886 C903 2.882 . S
U886 O904 2.441 . S
U886 O905 2.420 . S
U886 O906 2.455 . S
U886 O907 2.449 . S
O887 U886 2.454 . S
O887 C889 1.353 . S
O888 U886 2.458 . S
O888 C889 1.286 . S
C889 U886 2.984 . S
C889 O887 1.353 . S
C889 O888 1.286 . S
C889 C891 1.363 . S
C890 C880 1.465 . S
C890 U886 2.847 . S
C890 O904 1.249 . S
C890 O905 1.202 . S
C891 C889 1.363 . S
C891 C893 1.408 . S
C891 C896 1.342 . S
C892 C893 1.310 . S
C892 C895 1.461 . S
C892 H912 0.932 . S
C893 C891 1.408 . S
C893 C892 1.310 . S
C893 H913 0.930 . S
C894 C895 1.474 . S
C894 C896 1.285 . S
C894 H914 0.929 . S
C895 C892 1.461 . S
C895 C894 1.474 . S
C896 C891 1.342 . S
C896 C894 1.285 . S
C896 H915 0.930 . S
C897 C900 1.424 . S
C897 C902 1.245 . S
C897 C903 1.428 . S
C898 C901 1.260 . S
C898 C902 1.477 . S
C898 H916 0.932 . S
C899 C900 1.384 . S
C899 C901 1.479 . S
C899 H917 0.929 . S
C900 C897 1.424 . S
C900 C899 1.384 . S
C900 H918 0.928 . S
C901 C898 1.260 . S
C901 C899 1.479 . S
C902 C897 1.245 . S
C902 C898 1.477 . S
C902 H919 0.932 . S
C903 U886 2.882 . S
C903 C897 1.428 . S
C903 O906 1.301 . S
C903 O907 1.282 . S
O904 U886 2.441 . S
O904 C890 1.249 . S
O905 U886 2.420 . S
O905 C890 1.202 . S
O906 U886 2.455 . S
O906 C903 1.301 . S
O907 U886 2.449 . S
O907 C903 1.282 . S
H908 C881 0.931 . S
H909 C883 0.929 . S
H910 C884 0.930 . S
H911 C885 0.931 . S
H912 C892 0.932 . S
H913 C893 0.930 . S
H914 C894 0.929 . S
H915 C896 0.930 . S
H916 C898 0.932 . S
H917 C899 0.929 . S
H918 C900 0.928 . S
H919 C902 0.932 . S
C920 C921 1.264 . S
C920 C925 1.479 1_556 S
C920 C930 1.465 1_556 S
C921 C920 1.264 . S
C921 C923 1.339 . S
C921 H948 0.931 . S
C922 C923 1.395 . S
C922 C924 1.320 1_556 S
C923 C921 1.339 . S
C923 C922 1.395 . S
C923 H949 0.929 . S
C924 C922 1.320 1_554 S
C924 C925 1.405 . S
C924 H950 0.930 . S
C925 C920 1.479 1_554 S
C925 C924 1.405 . S
C925 H951 0.931 . S
U926 O927 2.454 . S
U926 O928 2.458 . S
U926 C929 2.984 . S
U926 C930 2.847 . S
U926 C943 2.882 1_554 S
U926 O944 2.441 . S
U926 O945 2.420 1_554 S
U926 O946 2.455 1_554 S
U926 O947 2.449 1_554 S
O927 U926 2.454 . S
O927 C929 1.353 . S
O928 U926 2.458 . S
O928 C929 1.286 . S
C929 U926 2.984 . S
C929 O927 1.353 . S
C929 O928 1.286 . S
C929 C931 1.363 . S
C930 C920 1.465 1_554 S
C930 U926 2.847 . S
C930 O944 1.249 . S
C930 O945 1.202 1_554 S
C931 C929 1.363 . S
C931 C933 1.408 . S
C931 C936 1.342 . S
C932 C933 1.310 . S
C932 C935 1.461 . S
C932 H952 0.932 . S
C933 C931 1.408 . S
C933 C932 1.310 . S
C933 H953 0.930 . S
C934 C935 1.474 . S
C934 C936 1.285 . S
C934 H954 0.929 . S
C935 C932 1.461 . S
C935 C934 1.474 . S
C936 C931 1.342 . S
C936 C934 1.285 . S
C936 H955 0.930 . S
C937 C940 1.424 . S
C937 C942 1.245 . S
C937 C943 1.428 . S
C938 C941 1.260 . S
C938 C942 1.477 . S
C938 H956 0.932 . S
C939 C940 1.384 . S
C939 C941 1.479 . S
C939 H957 0.929 . S
C940 C937 1.424 . S
C940 C939 1.384 . S
C940 H958 0.928 . S
C941 C938 1.260 . S
C941 C939 1.479 . S
C942 C937 1.245 . S
C942 C938 1.477 . S
C942 H959 0.932 . S
C943 U926 2.882 1_556 S
C943 C937 1.428 . S
C943 O946 1.301 . S
C943 O947 1.282 . S
O944 U926 2.441 . S
O944 C930 1.249 . S
O945 U926 2.420 1_556 S
O945 C930 1.202 1_556 S
O946 U926 2.455 1_556 S
O946 C943 1.301 . S
O947 U926 2.449 1_556 S
O947 C943 1.282 . S
H948 C921 0.931 . S
H949 C923 0.929 . S
H950 C924 0.930 . S
H951 C925 0.931 . S
H952 C932 0.932 . S
H953 C933 0.930 . S
H954 C934 0.929 . S
H955 C936 0.930 . S
H956 C938 0.932 . S
H957 C939 0.929 . S
H958 C940 0.928 . S
H959 C942 0.932 . S
C960 C961 1.391 . S
C960 C962 1.394 . S
C960 H976 0.931 . S
C961 C960 1.391 . S
C961 C965 1.376 . S
C962 C960 1.394 . S
C962 C963 1.369 . S
C962 C966 1.531 . S
C963 C962 1.369 . S
C963 C964 1.410 . S
C963 C971 1.503 . S
C964 C963 1.410 . S
C964 C965 1.392 . S
C964 C967 1.511 . S
C965 C961 1.376 . S
C965 C964 1.392 . S
C965 H977 0.929 . S
C966 C962 1.531 . S
C966 H978 0.960 . S
C966 H979 0.962 . S
C966 H980 0.960 . S
C967 C964 1.511 . S
C967 H981 0.961 . S
C967 H982 0.961 . S
C967 H983 0.961 . S
C968 C969 1.370 . S
C968 C970 1.363 . S
C968 H984 0.931 . S
C969 C968 1.370 . S
C969 C973 1.408 . S
C970 C968 1.363 . S
C970 C971 1.370 . S
C970 C974 1.524 . S
C971 C963 1.503 . S
C971 C970 1.370 . S
C971 C972 1.403 . S
C972 C971 1.403 . S
C972 C973 1.404 . S
C972 C975 1.539 . S
C973 C969 1.408 . S
C973 C972 1.404 . S
C973 H985 0.930 . S
C974 C970 1.524 . S
C974 H986 0.956 . S
C974 H987 0.961 . S
C974 H988 0.961 . S
C975 C972 1.539 . S
C975 H989 0.958 . S
C975 H990 0.961 . S
C975 H991 0.960 . S
H976 C960 0.931 . S
H977 C965 0.929 . S
H978 C966 0.960 . S
H979 C966 0.962 . S
H980 C966 0.960 . S
H981 C967 0.961 . S
H982 C967 0.961 . S
H983 C967 0.961 . S
H984 C968 0.931 . S
H985 C973 0.930 . S
H986 C974 0.956 . S
H987 C974 0.961 . S
H988 C974 0.961 . S
H989 C975 0.958 . S
H990 C975 0.961 . S
H991 C975 0.960 . S
C992 C993 1.391 . S
C992 C994 1.394 . S
C992 H1008 0.931 . S
C993 C992 1.391 . S
C993 C997 1.376 . S
C994 C992 1.394 . S
C994 C995 1.369 . S
C994 C998 1.531 . S
C995 C994 1.369 . S
C995 C996 1.403 1_545 S
C995 C1003 1.503 1_545 S
C996 C995 1.403 1_565 S
C996 C997 1.379 1_565 S
C996 C999 1.531 . S
C997 C993 1.376 . S
C997 C996 1.379 1_545 S
C997 H1009 0.929 . S
C998 C994 1.531 . S
C998 H1010 0.960 . S
C998 H1011 0.962 . S
C998 H1012 0.960 . S
C999 C996 1.531 . S
C999 H1013 0.961 . S
C999 H1014 0.961 . S
C999 H1015 0.961 . S
C1000 C1001 1.370 . S
C1000 C1002 1.363 . S
C1000 H1016 0.931 . S
C1001 C1000 1.370 . S
C1001 C1005 1.408 . S
C1002 C1000 1.363 . S
C1002 C1003 1.370 . S
C1002 C1006 1.524 . S
C1003 C995 1.503 1_565 S
C1003 C1002 1.370 . S
C1003 C1004 1.403 . S
C1004 C1003 1.403 . S
C1004 C1005 1.404 . S
C1004 C1007 1.539 1_565 S
C1005 C1001 1.408 . S
C1005 C1004 1.404 . S
C1005 H1017 0.930 . S
C1006 C1002 1.524 . S
C1006 H1018 0.956 . S
C1006 H1019 0.961 . S
C1006 H1020 0.961 . S
C1007 C1004 1.539 1_545 S
C1007 H1021 0.958 . S
C1007 H1022 0.961 . S
C1007 H1023 0.960 . S
H1008 C992 0.931 . S
H1009 C997 0.929 . S
H1010 C998 0.960 . S
H1011 C998 0.962 . S
H1012 C998 0.960 . S
H1013 C999 0.961 . S
H1014 C999 0.961 . S
H1015 C999 0.961 . S
H1016 C1000 0.931 . S
H1017 C1005 0.930 . S
H1018 C1006 0.956 . S
H1019 C1006 0.961 . S
H1020 C1006 0.961 . S
H1021 C1007 0.958 . S
H1022 C1007 0.961 . S
H1023 C1007 0.960 . S
C1024 C1025 1.391 . S
C1024 C1026 1.394 . S
C1024 H1040 0.931 . S
C1025 C1024 1.391 . S
C1025 C1029 1.376 . S
C1026 C1024 1.394 . S
C1026 C1027 1.369 . S
C1026 C1030 1.531 . S
C1027 C1026 1.369 . S
C1027 C1028 1.410 . S
C1027 C1035 1.503 . S
C1028 C1027 1.410 . S
C1028 C1029 1.392 . S
C1028 C1031 1.511 . S
C1029 C1025 1.376 . S
C1029 C1028 1.392 . S
C1029 H1041 0.929 . S
C1030 C1026 1.531 . S
C1030 H1042 0.960 . S
C1030 H1043 0.962 . S
C1030 H1044 0.960 . S
C1031 C1028 1.511 . S
C1031 H1045 0.961 . S
C1031 H1046 0.961 . S
C1031 H1047 0.961 . S
C1032 C1033 1.370 . S
C1032 C1034 1.363 . S
C1032 H1048 0.931 . S
C1033 C1032 1.370 . S
C1033 C1037 1.408 . S
C1034 C1032 1.363 . S
C1034 C1035 1.370 . S
C1034 C1038 1.524 . S
C1035 C1027 1.503 . S
C1035 C1034 1.370 . S
C1035 C1036 1.403 . S
C1036 C1035 1.403 . S
C1036 C1037 1.404 . S
C1036 C1039 1.539 . S
C1037 C1033 1.408 . S
C1037 C1036 1.404 . S
C1037 H1049 0.930 . S
C1038 C1034 1.524 . S
C1038 H1050 0.956 . S
C1038 H1051 0.961 . S
C1038 H1052 0.961 . S
C1039 C1036 1.539 . S
C1039 H1053 0.958 . S
C1039 H1054 0.961 . S
C1039 H1055 0.960 . S
H1040 C1024 0.931 . S
H1041 C1029 0.929 . S
H1042 C1030 0.960 . S
H1043 C1030 0.962 . S
H1044 C1030 0.960 . S
H1045 C1031 0.961 . S
H1046 C1031 0.961 . S
H1047 C1031 0.961 . S
H1048 C1032 0.931 . S
H1049 C1037 0.930 . S
H1050 C1038 0.956 . S
H1051 C1038 0.961 . S
H1052 C1038 0.961 . S
H1053 C1039 0.958 . S
H1054 C1039 0.961 . S
H1055 C1039 0.960 . S
C1056 C1057 1.391 . S
C1056 C1058 1.394 . S
C1056 H1072 0.931 . S
C1057 C1056 1.391 . S
C1057 C1061 1.376 . S
C1058 C1056 1.394 . S
C1058 C1059 1.369 . S
C1058 C1062 1.531 . S
C1059 C1058 1.369 . S
C1059 C1060 1.378 1_545 S
C1059 C1067 1.503 1_545 S
C1060 C1059 1.378 1_565 S
C1060 C1061 1.362 1_565 S
C1060 C1063 1.575 . S
C1061 C1057 1.376 . S
C1061 C1060 1.362 1_545 S
C1061 H1073 0.929 . S
C1062 C1058 1.531 . S
C1062 H1074 0.960 . S
C1062 H1075 0.962 . S
C1062 H1076 0.960 . S
C1063 C1060 1.575 . S
C1063 H1077 0.961 . S
C1063 H1078 0.961 . S
C1063 H1079 0.961 . S
C1064 C1065 1.370 . S
C1064 C1066 1.363 . S
C1064 H1080 0.931 . S
C1065 C1064 1.370 . S
C1065 C1069 1.408 . S
C1066 C1064 1.363 . S
C1066 C1067 1.370 . S
C1066 C1070 1.524 . S
C1067 C1059 1.503 1_565 S
C1067 C1066 1.370 . S
C1067 C1068 1.404 . S
C1068 C1067 1.404 . S
C1068 C1069 1.409 . S
C1068 C1071 1.533 1_565 S
C1069 C1065 1.408 . S
C1069 C1068 1.409 . S
C1069 H1081 0.930 . S
C1070 C1066 1.524 . S
C1070 H1082 0.956 . S
C1070 H1083 0.961 . S
C1070 H1084 0.961 . S
C1071 C1068 1.533 1_545 S
C1071 H1085 0.958 . S
C1071 H1086 0.961 . S
C1071 H1087 0.960 . S
H1072 C1056 0.931 . S
H1073 C1061 0.929 . S
H1074 C1062 0.960 . S
H1075 C1062 0.962 . S
H1076 C1062 0.960 . S
H1077 C1063 0.961 . S
H1078 C1063 0.961 . S
H1079 C1063 0.961 . S
H1080 C1064 0.931 . S
H1081 C1069 0.930 . S
H1082 C1070 0.956 . S
H1083 C1070 0.961 . S
H1084 C1070 0.961 . S
H1085 C1071 0.958 . S
H1086 C1071 0.961 . S
H1087 C1071 0.960 . S
C1088 C1089 1.391 . S
C1088 C1090 1.394 . S
C1088 H1104 0.931 . S
C1089 C1088 1.391 . S
C1089 C1093 1.462 . S
C1090 C1088 1.394 . S
C1090 C1091 1.399 . S
C1090 C1094 1.531 . S
C1091 C1090 1.399 . S
C1091 C1092 1.395 1_545 S
C1091 C1099 1.489 1_545 S
C1092 C1091 1.395 1_565 S
C1092 C1093 1.348 1_565 S
C1092 C1095 1.511 . S
C1093 C1089 1.462 . S
C1093 C1092 1.348 1_545 S
C1093 H1105 0.892 1_545 S
C1094 C1090 1.531 . S
C1094 H1106 0.960 . S
C1094 H1107 0.962 . S
C1094 H1108 0.960 . S
C1095 C1092 1.511 . S
C1095 H1109 0.961 . S
C1095 H1110 0.961 . S
C1095 H1111 0.961 . S
C1096 C1097 1.370 . S
C1096 C1098 1.363 . S
C1096 H1112 0.931 . S
C1097 C1096 1.370 . S
C1097 C1101 1.408 . S
C1098 C1096 1.363 . S
C1098 C1099 1.370 . S
C1098 C1102 1.524 1_565 S
C1099 C1091 1.489 1_565 S
C1099 C1098 1.370 . S
C1099 C1100 1.403 . S
C1100 C1099 1.403 . S
C1100 C1101 1.404 . S
C1100 C1103 1.539 . S
C1101 C1097 1.408 . S
C1101 C1100 1.404 . S
C1101 H1113 0.930 . S
C1102 C1098 1.524 1_545 S
C1102 H1114 0.956 . S
C1102 H1115 0.941 1_545 S
C1102 H1116 0.977 . S
C1103 C1100 1.539 . S
C1103 H1117 0.958 . S
C1103 H1118 0.961 . S
C1103 H1119 0.960 . S
H1104 C1088 0.931 . S
H1105 C1093 0.892 1_565 S
H1106 C1094 0.960 . S
H1107 C1094 0.962 . S
H1108 C1094 0.960 . S
H1109 C1095 0.961 . S
H1110 C1095 0.961 . S
H1111 C1095 0.961 . S
H1112 C1096 0.931 . S
H1113 C1101 0.930 . S
H1114 C1102 0.956 . S
H1115 C1102 0.941 1_565 S
H1116 C1102 0.977 . S
H1117 C1103 0.958 . S
H1118 C1103 0.961 . S
H1119 C1103 0.960 . S
C1120 C1121 1.391 . S
C1120 C1122 1.394 . S
C1120 H1136 0.931 . S
C1121 C1120 1.391 . S
C1121 C1125 1.376 . S
C1122 C1120 1.394 . S
C1122 C1123 1.369 . S
C1122 C1126 1.531 . S
C1123 C1122 1.369 . S
C1123 C1124 1.410 . S
C1123 C1131 1.503 . S
C1124 C1123 1.410 . S
C1124 C1125 1.392 . S
C1124 C1127 1.511 1_455 S
C1125 C1121 1.376 . S
C1125 C1124 1.392 . S
C1125 H1137 0.929 . S
C1126 C1122 1.531 . S
C1126 H1138 0.960 . S
C1126 H1139 0.962 . S
C1126 H1140 0.960 . S
C1127 C1124 1.511 1_655 S
C1127 H1141 0.961 . S
C1127 H1142 0.961 . S
C1127 H1143 0.961 . S
C1128 C1129 1.370 1_455 S
C1128 C1130 1.363 . S
C1128 H1144 0.931 . S
C1129 C1128 1.370 1_655 S
C1129 C1133 1.408 . S
C1130 C1128 1.363 . S
C1130 C1131 1.370 . S
C1130 C1134 1.524 . S
C1131 C1123 1.503 . S
C1131 C1130 1.370 . S
C1131 C1132 1.403 1_455 S
C1132 C1131 1.403 1_655 S
C1132 C1133 1.404 . S
C1132 C1135 1.539 . S
C1133 C1129 1.408 . S
C1133 C1132 1.404 . S
C1133 H1145 0.930 . S
C1134 C1130 1.524 . S
C1134 H1146 0.956 . S
C1134 H1147 0.961 . S
C1134 H1148 0.961 . S
C1135 C1132 1.539 . S
C1135 H1149 0.958 1_655 S
C1135 H1150 0.961 . S
C1135 H1151 0.960 . S
H1136 C1120 0.931 . S
H1137 C1125 0.929 . S
H1138 C1126 0.960 . S
H1139 C1126 0.962 . S
H1140 C1126 0.960 . S
H1141 C1127 0.961 . S
H1142 C1127 0.961 . S
H1143 C1127 0.961 . S
H1144 C1128 0.931 . S
H1145 C1133 0.930 . S
H1146 C1134 0.956 . S
H1147 C1134 0.961 . S
H1148 C1134 0.961 . S
H1149 C1135 0.958 1_455 S
H1150 C1135 0.961 . S
H1151 C1135 0.960 . S
C1152 C1153 1.391 . S
C1152 C1154 1.394 . S
C1152 H1168 0.931 . S
C1153 C1152 1.391 . S
C1153 C1157 1.376 . S
C1154 C1152 1.394 . S
C1154 C1155 1.369 . S
C1154 C1158 1.531 . S
C1155 C1154 1.369 . S
C1155 C1156 1.410 . S
C1155 C1163 1.503 1_565 S
C1156 C1155 1.410 . S
C1156 C1157 1.392 . S
C1156 C1159 1.511 . S
C1157 C1153 1.376 . S
C1157 C1156 1.392 . S
C1157 H1169 0.929 . S
C1158 C1154 1.531 . S
C1158 H1170 0.960 . S
C1158 H1171 0.962 1_565 S
C1158 H1172 0.960 . S
C1159 C1156 1.511 . S
C1159 H1173 0.961 . S
C1159 H1174 0.961 1_565 S
C1159 H1175 0.961 . S
C1160 C1161 1.370 . S
C1160 C1162 1.363 . S
C1160 H1176 0.931 . S
C1161 C1160 1.370 . S
C1161 C1165 1.408 . S
C1162 C1160 1.363 . S
C1162 C1163 1.370 . S
C1162 C1166 1.524 . S
C1163 C1155 1.503 1_545 S
C1163 C1162 1.370 . S
C1163 C1164 1.403 1_545 S
C1164 C1163 1.403 1_565 S
C1164 C1165 1.404 1_565 S
C1164 C1167 1.539 . S
C1165 C1161 1.408 . S
C1165 C1164 1.404 1_545 S
C1165 H1177 0.930 . S
C1166 C1162 1.524 . S
C1166 H1178 0.956 . S
C1166 H1179 0.961 . S
C1166 H1180 0.961 . S
C1167 C1164 1.539 . S
C1167 H1181 0.958 . S
C1167 H1182 0.961 . S
C1167 H1183 0.960 . S
H1168 C1152 0.931 . S
H1169 C1157 0.929 . S
H1170 C1158 0.960 . S
H1171 C1158 0.962 1_545 S
H1172 C1158 0.960 . S
H1173 C1159 0.961 . S
H1174 C1159 0.961 1_545 S
H1175 C1159 0.961 . S
H1176 C1160 0.931 . S
H1177 C1165 0.930 . S
H1178 C1166 0.956 . S
H1179 C1166 0.961 . S
H1180 C1166 0.961 . S
H1181 C1167 0.958 . S
H1182 C1167 0.961 . S
H1183 C1167 0.960 . S
C1184 C1185 1.391 . S
C1184 C1186 1.394 . S
C1184 H1200 0.931 . S
C1185 C1184 1.391 . S
C1185 C1189 1.376 . S
C1186 C1184 1.394 . S
C1186 C1187 1.369 . S
C1186 C1190 1.531 1_655 S
C1187 C1186 1.369 . S
C1187 C1188 1.410 . S
C1187 C1195 1.503 1_655 S
C1188 C1187 1.410 . S
C1188 C1189 1.392 . S
C1188 C1191 1.511 . S
C1189 C1185 1.376 . S
C1189 C1188 1.392 . S
C1189 H1201 0.929 . S
C1190 C1186 1.531 1_455 S
C1190 H1202 0.960 . S
C1190 H1203 0.962 . S
C1190 H1204 0.960 . S
C1191 C1188 1.511 . S
C1191 H1205 0.961 . S
C1191 H1206 0.961 . S
C1191 H1207 0.961 . S
C1192 C1193 1.370 . S
C1192 C1194 1.363 . S
C1192 H1208 0.931 . S
C1193 C1192 1.370 . S
C1193 C1197 1.408 . S
C1194 C1192 1.363 . S
C1194 C1195 1.370 . S
C1194 C1198 1.524 . S
C1195 C1187 1.503 1_455 S
C1195 C1194 1.370 . S
C1195 C1196 1.403 . S
C1196 C1195 1.403 . S
C1196 C1197 1.404 . S
C1196 C1199 1.539 1_455 S
C1197 C1193 1.408 . S
C1197 C1196 1.404 . S
C1197 H1209 0.930 . S
C1198 C1194 1.524 . S
C1198 H1210 0.956 . S
C1198 H1211 0.961 . S
C1198 H1212 0.961 . S
C1199 C1196 1.539 1_655 S
C1199 H1213 0.958 . S
C1199 H1214 0.961 . S
C1199 H1215 0.960 . S
H1200 C1184 0.931 . S
H1201 C1189 0.929 . S
H1202 C1190 0.960 . S
H1203 C1190 0.962 . S
H1204 C1190 0.960 . S
H1205 C1191 0.961 . S
H1206 C1191 0.961 . S
H1207 C1191 0.961 . S
H1208 C1192 0.931 . S
H1209 C1197 0.930 . S
H1210 C1198 0.956 . S
H1211 C1198 0.961 . S
H1212 C1198 0.961 . S
H1213 C1199 0.958 . S
H1214 C1199 0.961 . S
H1215 C1199 0.960 . S
C1216 C1217 1.395 . S
C1216 C1218 1.392 1_556 S
C1216 H1232 0.928 1_556 S
C1217 C1216 1.395 . S
C1217 C1221 1.376 . S
C1218 C1216 1.392 1_554 S
C1218 C1219 1.369 1_554 S
C1218 C1222 1.531 . S
C1219 C1218 1.369 1_556 S
C1219 C1220 1.410 . S
C1219 C1227 1.503 1_556 S
C1220 C1219 1.410 . S
C1220 C1221 1.392 . S
C1220 C1223 1.511 . S
C1221 C1217 1.376 . S
C1221 C1220 1.392 . S
C1221 H1233 0.929 . S
C1222 C1218 1.531 . S
C1222 H1234 0.960 . S
C1222 H1235 0.962 . S
C1222 H1236 0.960 . S
C1223 C1220 1.511 . S
C1223 H1237 0.961 . S
C1223 H1238 0.961 . S
C1223 H1239 0.961 . S
C1224 C1225 1.370 . S
C1224 C1226 1.363 . S
C1224 H1240 0.931 . S
C1225 C1224 1.370 . S
C1225 C1229 1.408 . S
C1226 C1224 1.363 . S
C1226 C1227 1.370 . S
C1226 C1230 1.524 . S
C1227 C1219 1.503 1_554 S
C1227 C1226 1.370 . S
C1227 C1228 1.403 . S
C1228 C1227 1.403 . S
C1228 C1229 1.404 . S
C1228 C1231 1.539 1_554 S
C1229 C1225 1.408 . S
C1229 C1228 1.404 . S
C1229 H1241 0.930 . S
C1230 C1226 1.524 . S
C1230 H1242 0.956 . S
C1230 H1243 0.969 . S
C1230 H1244 0.961 . S
C1231 C1228 1.539 1_556 S
C1231 H1245 0.958 1_556 S
C1231 H1246 0.961 . S
C1231 H1247 0.960 . S
H1232 C1216 0.928 1_554 S
H1233 C1221 0.929 . S
H1234 C1222 0.960 . S
H1235 C1222 0.962 . S
H1236 C1222 0.960 . S
H1237 C1223 0.961 . S
H1238 C1223 0.961 . S
H1239 C1223 0.961 . S
H1240 C1224 0.931 . S
H1241 C1229 0.930 . S
H1242 C1230 0.956 . S
H1243 C1230 0.969 . S
H1244 C1230 0.961 . S
H1245 C1231 0.958 1_554 S
H1246 C1231 0.961 . S
H1247 C1231 0.960 . S
C1248 C1249 1.391 . S
C1248 C1250 1.394 . S
C1248 H1264 0.931 . S
C1249 C1248 1.391 . S
C1249 C1253 1.376 . S
C1250 C1248 1.394 . S
C1250 C1251 1.369 . S
C1250 C1254 1.531 . S
C1251 C1250 1.369 . S
C1251 C1252 1.410 . S
C1251 C1259 1.503 1_554 S
C1252 C1251 1.410 . S
C1252 C1253 1.392 . S
C1252 C1255 1.511 1_554 S
C1253 C1249 1.376 . S
C1253 C1252 1.392 . S
C1253 H1265 0.929 . S
C1254 C1250 1.531 . S
C1254 H1266 0.960 . S
C1254 H1267 0.962 . S
C1254 H1268 0.960 . S
C1255 C1252 1.511 1_556 S
C1255 H1269 0.961 . S
C1255 H1270 0.961 . S
C1255 H1271 0.961 . S
C1256 C1257 1.370 . S
C1256 C1258 1.363 . S
C1256 H1272 0.931 . S
C1257 C1256 1.370 . S
C1257 C1261 1.408 . S
C1258 C1256 1.363 . S
C1258 C1259 1.370 . S
C1258 C1262 1.524 1_556 S
C1259 C1251 1.503 1_556 S
C1259 C1258 1.370 . S
C1259 C1260 1.403 . S
C1260 C1259 1.403 . S
C1260 C1261 1.404 . S
C1260 C1263 1.539 . S
C1261 C1257 1.408 . S
C1261 C1260 1.404 . S
C1261 H1273 0.930 . S
C1262 C1258 1.524 1_554 S
C1262 H1274 0.956 . S
C1262 H1275 0.961 . S
C1262 H1276 0.961 . S
C1263 C1260 1.539 . S
C1263 H1277 0.958 . S
C1263 H1278 0.961 . S
C1263 H1279 0.960 . S
H1264 C1248 0.931 . S
H1265 C1253 0.929 . S
H1266 C1254 0.960 . S
H1267 C1254 0.962 . S
H1268 C1254 0.960 . S
H1269 C1255 0.961 . S
H1270 C1255 0.961 . S
H1271 C1255 0.961 . S
H1272 C1256 0.931 . S
H1273 C1261 0.930 . S
H1274 C1262 0.956 . S
H1275 C1262 0.961 . S
H1276 C1262 0.961 . S
H1277 C1263 0.958 . S
H1278 C1263 0.961 . S
H1279 C1263 0.960 . S
C1280 C1281 1.391 . S
C1280 C1282 1.394 . S
C1280 H1296 0.931 . S
C1281 C1280 1.391 . S
C1281 C1285 1.376 . S
C1282 C1280 1.394 . S
C1282 C1283 1.369 . S
C1282 C1286 1.531 . S
C1283 C1282 1.369 . S
C1283 C1284 1.410 . S
C1283 C1291 1.503 . S
C1284 C1283 1.410 . S
C1284 C1285 1.392 . S
C1284 C1287 1.511 . S
C1285 C1281 1.376 . S
C1285 C1284 1.392 . S
C1285 H1297 0.929 . S
C1286 C1282 1.531 . S
C1286 H1298 0.960 . S
C1286 H1299 0.962 . S
C1286 H1300 0.960 . S
C1287 C1284 1.511 . S
C1287 H1301 0.961 . S
C1287 H1302 0.961 . S
C1287 H1303 0.961 . S
C1288 C1289 1.370 . S
C1288 C1290 1.363 . S
C1288 H1304 0.931 . S
C1289 C1288 1.370 . S
C1289 C1293 1.408 . S
C1290 C1288 1.363 . S
C1290 C1291 1.370 . S
C1290 C1294 1.524 . S
C1291 C1283 1.503 . S
C1291 C1290 1.370 . S
C1291 C1292 1.403 . S
C1292 C1291 1.403 . S
C1292 C1293 1.404 . S
C1292 C1295 1.539 . S
C1293 C1289 1.408 . S
C1293 C1292 1.404 . S
C1293 H1305 0.930 . S
C1294 C1290 1.524 . S
C1294 H1306 0.956 . S
C1294 H1307 0.961 . S
C1294 H1308 0.961 . S
C1295 C1292 1.539 . S
C1295 H1309 0.958 . S
C1295 H1310 0.961 . S
C1295 H1311 0.960 . S
H1296 C1280 0.931 . S
H1297 C1285 0.929 . S
H1298 C1286 0.960 . S
H1299 C1286 0.962 . S
H1300 C1286 0.960 . S
H1301 C1287 0.961 . S
H1302 C1287 0.961 . S
H1303 C1287 0.961 . S
H1304 C1288 0.931 . S
H1305 C1293 0.930 . S
H1306 C1294 0.956 . S
H1307 C1294 0.961 . S
H1308 C1294 0.961 . S
H1309 C1295 0.958 . S
H1310 C1295 0.961 . S
H1311 C1295 0.960 . S
C1312 C1313 1.391 . S
C1312 C1314 1.394 . S
C1312 H1328 0.931 . S
C1313 C1312 1.391 . S
C1313 C1317 1.376 . S
C1314 C1312 1.394 . S
C1314 C1315 1.369 . S
C1314 C1318 1.531 . S
C1315 C1314 1.369 . S
C1315 C1316 1.410 . S
C1315 C1323 1.503 . S
C1316 C1315 1.410 . S
C1316 C1317 1.392 . S
C1316 C1319 1.511 . S
C1317 C1313 1.376 . S
C1317 C1316 1.392 . S
C1317 H1329 0.929 . S
C1318 C1314 1.531 . S
C1318 H1330 0.960 . S
C1318 H1331 0.962 . S
C1318 H1332 0.960 . S
C1319 C1316 1.511 . S
C1319 H1333 0.961 . S
C1319 H1334 0.961 . S
C1319 H1335 0.961 . S
C1320 C1321 1.370 . S
C1320 C1322 1.363 . S
C1320 H1336 0.931 . S
C1321 C1320 1.370 . S
C1321 C1325 1.408 . S
C1322 C1320 1.363 . S
C1322 C1323 1.370 . S
C1322 C1326 1.524 . S
C1323 C1315 1.503 . S
C1323 C1322 1.370 . S
C1323 C1324 1.403 . S
C1324 C1323 1.403 . S
C1324 C1325 1.404 . S
C1324 C1327 1.539 . S
C1325 C1321 1.408 . S
C1325 C1324 1.404 . S
C1325 H1337 0.930 . S
C1326 C1322 1.524 . S
C1326 H1338 0.956 . S
C1326 H1339 0.961 . S
C1326 H1340 0.961 . S
C1327 C1324 1.539 . S
C1327 H1341 0.958 . S
C1327 H1342 0.961 . S
C1327 H1343 0.960 . S
H1328 C1312 0.931 . S
H1329 C1317 0.929 . S
H1330 C1318 0.960 . S
H1331 C1318 0.962 . S
H1332 C1318 0.960 . S
H1333 C1319 0.961 . S
H1334 C1319 0.961 . S
H1335 C1319 0.961 . S
H1336 C1320 0.931 . S
H1337 C1325 0.930 . S
H1338 C1326 0.956 . S
H1339 C1326 0.961 . S
H1340 C1326 0.961 . S
H1341 C1327 0.958 . S
H1342 C1327 0.961 . S
H1343 C1327 0.960 . S
C1344 C1345 1.391 . S
C1344 C1346 1.394 . S
C1344 H1360 0.931 . S
C1345 C1344 1.391 . S
C1345 C1349 1.376 . S
C1346 C1344 1.394 . S
C1346 C1347 1.369 . S
C1346 C1350 1.531 . S
C1347 C1346 1.369 . S
C1347 C1348 1.410 . S
C1347 C1355 1.503 . S
C1348 C1347 1.410 . S
C1348 C1349 1.392 . S
C1348 C1351 1.511 . S
C1349 C1345 1.376 . S
C1349 C1348 1.392 . S
C1349 H1361 0.929 . S
C1350 C1346 1.531 . S
C1350 H1362 0.960 . S
C1350 H1363 0.962 . S
C1350 H1364 0.960 . S
C1351 C1348 1.511 . S
C1351 H1365 0.961 . S
C1351 H1366 0.961 . S
C1351 H1367 0.961 . S
C1352 C1353 1.370 . S
C1352 C1354 1.363 . S
C1352 H1368 0.931 . S
C1353 C1352 1.370 . S
C1353 C1357 1.408 . S
C1354 C1352 1.363 . S
C1354 C1355 1.370 . S
C1354 C1358 1.524 . S
C1355 C1347 1.503 . S
C1355 C1354 1.370 . S
C1355 C1356 1.403 . S
C1356 C1355 1.403 . S
C1356 C1357 1.404 . S
C1356 C1359 1.539 . S
C1357 C1353 1.408 . S
C1357 C1356 1.404 . S
C1357 H1369 0.930 . S
C1358 C1354 1.524 . S
C1358 H1370 0.956 . S
C1358 H1371 0.961 . S
C1358 H1372 0.961 . S
C1359 C1356 1.539 . S
C1359 H1373 0.958 . S
C1359 H1374 0.961 . S
C1359 H1375 0.960 . S
H1360 C1344 0.931 . S
H1361 C1349 0.929 . S
H1362 C1350 0.960 . S
H1363 C1350 0.962 . S
H1364 C1350 0.960 . S
H1365 C1351 0.961 . S
H1366 C1351 0.961 . S
H1367 C1351 0.961 . S
H1368 C1352 0.931 . S
H1369 C1357 0.930 . S
H1370 C1358 0.956 . S
H1371 C1358 0.961 . S
H1372 C1358 0.961 . S
H1373 C1359 0.958 . S
H1374 C1359 0.961 . S
H1375 C1359 0.960 . S
C1376 C1377 1.391 . S
C1376 C1378 1.394 . S
C1376 H1392 0.931 . S
C1377 C1376 1.391 . S
C1377 C1381 1.376 . S
C1378 C1376 1.394 . S
C1378 C1379 1.369 . S
C1378 C1382 1.531 . S
C1379 C1378 1.369 . S
C1379 C1380 1.410 . S
C1379 C1387 1.503 . S
C1380 C1379 1.410 . S
C1380 C1381 1.392 . S
C1380 C1383 1.511 . S
C1381 C1377 1.376 . S
C1381 C1380 1.392 . S
C1381 H1393 0.929 . S
C1382 C1378 1.531 . S
C1382 H1394 0.960 . S
C1382 H1395 0.962 . S
C1382 H1396 0.960 . S
C1383 C1380 1.511 . S
C1383 H1397 0.961 . S
C1383 H1398 0.961 . S
C1383 H1399 0.961 . S
C1384 C1385 1.370 . S
C1384 C1386 1.363 . S
C1384 H1400 0.931 . S
C1385 C1384 1.370 . S
C1385 C1389 1.408 . S
C1386 C1384 1.363 . S
C1386 C1387 1.370 . S
C1386 C1390 1.524 . S
C1387 C1379 1.503 . S
C1387 C1386 1.370 . S
C1387 C1388 1.403 . S
C1388 C1387 1.403 . S
C1388 C1389 1.404 . S
C1388 C1391 1.539 . S
C1389 C1385 1.408 . S
C1389 C1388 1.404 . S
C1389 H1401 0.930 . S
C1390 C1386 1.524 . S
C1390 H1402 0.956 . S
C1390 H1403 0.961 . S
C1390 H1404 0.961 . S
C1391 C1388 1.539 . S
C1391 H1405 0.958 . S
C1391 H1406 0.961 . S
C1391 H1407 0.960 . S
H1392 C1376 0.931 . S
H1393 C1381 0.929 . S
H1394 C1382 0.960 . S
H1395 C1382 0.962 . S
H1396 C1382 0.960 . S
H1397 C1383 0.961 . S
H1398 C1383 0.961 . S
H1399 C1383 0.961 . S
H1400 C1384 0.931 . S
H1401 C1389 0.930 . S
H1402 C1390 0.956 . S
H1403 C1390 0.961 . S
H1404 C1390 0.961 . S
H1405 C1391 0.958 . S
H1406 C1391 0.961 . S
H1407 C1391 0.960 . S
C1408 C1409 1.391 . S
C1408 C1410 1.394 . S
C1408 H1424 0.931 . S
C1409 C1408 1.391 . S
C1409 C1413 1.376 . S
C1410 C1408 1.394 . S
C1410 C1411 1.369 . S
C1410 C1414 1.531 . S
C1411 C1410 1.369 . S
C1411 C1412 1.410 . S
C1411 C1419 1.503 . S
C1412 C1411 1.410 . S
C1412 C1413 1.392 . S
C1412 C1415 1.511 . S
C1413 C1409 1.376 . S
C1413 C1412 1.392 . S
C1413 H1425 0.929 . S
C1414 C1410 1.531 . S
C1414 H1426 0.960 . S
C1414 H1427 0.962 . S
C1414 H1428 0.960 . S
C1415 C1412 1.511 . S
C1415 H1429 0.961 . S
C1415 H1430 0.961 . S
C1415 H1431 0.961 . S
C1416 C1417 1.370 . S
C1416 C1418 1.363 . S
C1416 H1432 0.931 . S
C1417 C1416 1.370 . S
C1417 C1421 1.408 . S
C1418 C1416 1.363 . S
C1418 C1419 1.370 . S
C1418 C1422 1.524 . S
C1419 C1411 1.503 . S
C1419 C1418 1.370 . S
C1419 C1420 1.403 . S
C1420 C1419 1.403 . S
C1420 C1421 1.404 . S
C1420 C1423 1.539 . S
C1421 C1417 1.408 . S
C1421 C1420 1.404 . S
C1421 H1433 0.930 . S
C1422 C1418 1.524 . S
C1422 H1434 0.956 . S
C1422 H1435 0.961 . S
C1422 H1436 0.961 . S
C1423 C1420 1.539 . S
C1423 H1437 0.958 . S
C1423 H1438 0.961 . S
C1423 H1439 0.960 . S
H1424 C1408 0.931 . S
H1425 C1413 0.929 . S
H1426 C1414 0.960 . S
H1427 C1414 0.962 . S
H1428 C1414 0.960 . S
H1429 C1415 0.961 . S
H1430 C1415 0.961 . S
H1431 C1415 0.961 . S
H1432 C1416 0.931 . S
H1433 C1421 0.930 . S
H1434 C1422 0.956 . S
H1435 C1422 0.961 . S
H1436 C1422 0.961 . S
H1437 C1423 0.958 . S
H1438 C1423 0.961 . S
H1439 C1423 0.960 . S
C1440 C1441 1.391 . S
C1440 C1442 1.394 . S
C1440 H1456 0.931 . S
C1441 C1440 1.391 . S
C1441 C1445 1.376 . S
C1442 C1440 1.394 . S
C1442 C1443 1.367 1_556 S
C1442 C1446 1.531 . S
C1443 C1442 1.367 1_554 S
C1443 C1444 1.411 . S
C1443 C1451 1.504 . S
C1444 C1443 1.411 . S
C1444 C1445 1.392 1_554 S
C1444 C1447 1.511 . S
C1445 C1441 1.376 . S
C1445 C1444 1.392 1_556 S
C1445 H1457 0.929 1_556 S
C1446 C1442 1.531 . S
C1446 H1458 0.960 . S
C1446 H1459 0.962 . S
C1446 H1460 0.960 . S
C1447 C1444 1.511 . S
C1447 H1461 0.961 . S
C1447 H1462 0.961 . S
C1447 H1463 0.961 . S
C1448 C1449 1.370 1_556 S
C1448 C1450 1.363 . S
C1448 H1464 0.931 . S
C1449 C1448 1.370 1_554 S
C1449 C1453 1.408 . S
C1450 C1448 1.363 . S
C1450 C1451 1.370 1_556 S
C1450 C1454 1.524 . S
C1451 C1443 1.504 . S
C1451 C1450 1.370 1_554 S
C1451 C1452 1.403 . S
C1452 C1451 1.403 . S
C1452 C1453 1.404 . S
C1452 C1455 1.539 . S
C1453 C1449 1.408 . S
C1453 C1452 1.404 . S
C1453 H1465 0.930 . S
C1454 C1450 1.524 . S
C1454 H1466 0.956 . S
C1454 H1467 0.961 . S
C1454 H1468 0.961 . S
C1455 C1452 1.539 . S
C1455 H1469 0.958 . S
C1455 H1470 0.961 . S
C1455 H1471 0.960 . S
H1456 C1440 0.931 . S
H1457 C1445 0.929 1_554 S
H1458 C1446 0.960 . S
H1459 C1446 0.962 . S
H1460 C1446 0.960 . S
H1461 C1447 0.961 . S
H1462 C1447 0.961 . S
H1463 C1447 0.961 . S
H1464 C1448 0.931 . S
H1465 C1453 0.930 . S
H1466 C1454 0.956 . S
H1467 C1454 0.961 . S
H1468 C1454 0.961 . S
H1469 C1455 0.958 . S
H1470 C1455 0.961 . S
H1471 C1455 0.960 . S
C1472 C1473 1.391 . S
C1472 C1474 1.394 . S
C1472 H1488 0.931 . S
C1473 C1472 1.391 . S
C1473 C1477 1.376 . S
C1474 C1472 1.394 . S
C1474 C1475 1.369 . S
C1474 C1478 1.531 . S
C1475 C1474 1.369 . S
C1475 C1476 1.410 . S
C1475 C1483 1.503 . S
C1476 C1475 1.410 . S
C1476 C1477 1.392 . S
C1476 C1479 1.511 . S
C1477 C1473 1.376 . S
C1477 C1476 1.392 . S
C1477 H1489 0.929 . S
C1478 C1474 1.531 . S
C1478 H1490 0.960 . S
C1478 H1491 0.962 . S
C1478 H1492 0.960 . S
C1479 C1476 1.511 . S
C1479 H1493 0.961 . S
C1479 H1494 0.961 . S
C1479 H1495 0.961 . S
C1480 C1481 1.370 . S
C1480 C1482 1.363 . S
C1480 H1496 0.931 . S
C1481 C1480 1.370 . S
C1481 C1485 1.408 . S
C1482 C1480 1.363 . S
C1482 C1483 1.370 . S
C1482 C1486 1.524 . S
C1483 C1475 1.503 . S
C1483 C1482 1.370 . S
C1483 C1484 1.403 . S
C1484 C1483 1.403 . S
C1484 C1485 1.404 . S
C1484 C1487 1.539 . S
C1485 C1481 1.408 . S
C1485 C1484 1.404 . S
C1485 H1497 0.930 . S
C1486 C1482 1.524 . S
C1486 H1498 0.956 . S
C1486 H1499 0.961 . S
C1486 H1500 0.961 . S
C1487 C1484 1.539 . S
C1487 H1501 0.958 . S
C1487 H1502 0.961 . S
C1487 H1503 0.960 . S
H1488 C1472 0.931 . S
H1489 C1477 0.929 . S
H1490 C1478 0.960 . S
H1491 C1478 0.962 . S
H1492 C1478 0.960 . S
H1493 C1479 0.961 . S
H1494 C1479 0.961 . S
H1495 C1479 0.961 . S
H1496 C1480 0.931 . S
H1497 C1485 0.930 . S
H1498 C1486 0.956 . S
H1499 C1486 0.961 . S
H1500 C1486 0.961 . S
H1501 C1487 0.958 . S
H1502 C1487 0.961 . S
H1503 C1487 0.960 . S
C1504 C1505 1.391 . S
C1504 C1506 1.394 . S
C1504 H1520 0.931 . S
C1505 C1504 1.391 . S
C1505 C1509 1.376 . S
C1506 C1504 1.394 . S
C1506 C1507 1.369 . S
C1506 C1510 1.531 . S
C1507 C1506 1.369 . S
C1507 C1508 1.410 . S
C1507 C1515 1.503 . S
C1508 C1507 1.410 . S
C1508 C1509 1.392 . S
C1508 C1511 1.511 . S
C1509 C1505 1.376 . S
C1509 C1508 1.392 . S
C1509 H1521 0.929 . S
C1510 C1506 1.531 . S
C1510 H1522 0.960 . S
C1510 H1523 0.962 . S
C1510 H1524 0.960 . S
C1511 C1508 1.511 . S
C1511 H1525 0.961 . S
C1511 H1526 0.961 . S
C1511 H1527 0.961 . S
C1512 C1513 1.370 . S
C1512 C1514 1.363 . S
C1512 H1528 0.931 . S
C1513 C1512 1.370 . S
C1513 C1517 1.408 . S
C1514 C1512 1.363 . S
C1514 C1515 1.370 . S
C1514 C1518 1.524 . S
C1515 C1507 1.503 . S
C1515 C1514 1.370 . S
C1515 C1516 1.403 . S
C1516 C1515 1.403 . S
C1516 C1517 1.404 . S
C1516 C1519 1.539 . S
C1517 C1513 1.408 . S
C1517 C1516 1.404 . S
C1517 H1529 0.930 . S
C1518 C1514 1.524 . S
C1518 H1530 0.956 . S
C1518 H1531 0.961 . S
C1518 H1532 0.961 . S
C1519 C1516 1.539 . S
C1519 H1533 0.958 . S
C1519 H1534 0.961 . S
C1519 H1535 0.960 . S
H1520 C1504 0.931 . S
H1521 C1509 0.929 . S
H1522 C1510 0.960 . S
H1523 C1510 0.962 . S
H1524 C1510 0.960 . S
H1525 C1511 0.961 . S
H1526 C1511 0.961 . S
H1527 C1511 0.961 . S
H1528 C1512 0.931 . S
H1529 C1517 0.930 . S
H1530 C1518 0.956 . S
H1531 C1518 0.961 . S
H1532 C1518 0.961 . S
H1533 C1519 0.958 . S
H1534 C1519 0.961 . S
H1535 C1519 0.960 . S
C1536 C1537 1.391 . S
C1536 C1538 1.394 . S
C1536 H1552 0.931 . S
C1537 C1536 1.391 . S
C1537 C1541 1.376 . S
C1538 C1536 1.394 . S
C1538 C1539 1.369 . S
C1538 C1542 1.531 . S
C1539 C1538 1.369 . S
C1539 C1540 1.410 . S
C1539 C1547 1.503 . S
C1540 C1539 1.410 . S
C1540 C1541 1.392 . S
C1540 C1543 1.511 . S
C1541 C1537 1.376 . S
C1541 C1540 1.392 . S
C1541 H1553 0.929 . S
C1542 C1538 1.531 . S
C1542 H1554 0.960 . S
C1542 H1555 0.962 . S
C1542 H1556 0.960 . S
C1543 C1540 1.511 . S
C1543 H1557 0.961 . S
C1543 H1558 0.961 . S
C1543 H1559 0.961 . S
C1544 C1545 1.370 . S
C1544 C1546 1.363 . S
C1544 H1560 0.931 . S
C1545 C1544 1.370 . S
C1545 C1549 1.408 . S
C1546 C1544 1.363 . S
C1546 C1547 1.370 . S
C1546 C1550 1.524 . S
C1547 C1539 1.503 . S
C1547 C1546 1.370 . S
C1547 C1548 1.403 . S
C1548 C1547 1.403 . S
C1548 C1549 1.404 . S
C1548 C1551 1.539 . S
C1549 C1545 1.408 . S
C1549 C1548 1.404 . S
C1549 H1561 0.930 . S
C1550 C1546 1.524 . S
C1550 H1562 0.956 . S
C1550 H1563 0.961 . S
C1550 H1564 0.961 . S
C1551 C1548 1.539 . S
C1551 H1565 0.958 . S
C1551 H1566 0.961 . S
C1551 H1567 0.960 . S
H1552 C1536 0.931 . S
H1553 C1541 0.929 . S
H1554 C1542 0.960 . S
H1555 C1542 0.962 . S
H1556 C1542 0.960 . S
H1557 C1543 0.961 . S
H1558 C1543 0.961 . S
H1559 C1543 0.961 . S
H1560 C1544 0.931 . S
H1561 C1549 0.930 . S
H1562 C1550 0.956 . S
H1563 C1550 0.961 . S
H1564 C1550 0.961 . S
H1565 C1551 0.958 . S
H1566 C1551 0.961 . S
H1567 C1551 0.960 . S
C1568 C1569 1.391 1_554 S
C1568 C1570 1.394 . S
C1568 H1584 0.931 . S
C1569 C1568 1.391 1_556 S
C1569 C1573 1.376 . S
C1570 C1568 1.394 . S
C1570 C1571 1.369 . S
C1570 C1574 1.531 . S
C1571 C1570 1.369 . S
C1571 C1572 1.410 1_554 S
C1571 C1579 1.503 . S
C1572 C1571 1.410 1_556 S
C1572 C1573 1.392 . S
C1572 C1575 1.511 . S
C1573 C1569 1.376 . S
C1573 C1572 1.392 . S
C1573 H1585 0.929 . S
C1574 C1570 1.531 . S
C1574 H1586 0.960 . S
C1574 H1587 0.962 . S
C1574 H1588 0.960 . S
C1575 C1572 1.511 . S
C1575 H1589 0.961 . S
C1575 H1590 0.961 . S
C1575 H1591 0.961 1_556 S
C1576 C1577 1.370 1_556 S
C1576 C1578 1.363 . S
C1576 H1592 0.931 . S
C1577 C1576 1.370 1_554 S
C1577 C1581 1.408 . S
C1578 C1576 1.363 . S
C1578 C1579 1.370 1_556 S
C1578 C1582 1.524 . S
C1579 C1571 1.503 . S
C1579 C1578 1.370 1_554 S
C1579 C1580 1.403 . S
C1580 C1579 1.403 . S
C1580 C1581 1.404 . S
C1580 C1583 1.539 . S
C1581 C1577 1.408 . S
C1581 C1580 1.404 . S
C1581 H1593 0.930 . S
C1582 C1578 1.524 . S
C1582 H1594 0.956 . S
C1582 H1595 0.961 . S
C1582 H1596 0.961 . S
C1583 C1580 1.539 . S
C1583 H1597 0.958 . S
C1583 H1598 0.961 . S
C1583 H1599 0.960 . S
H1584 C1568 0.931 . S
H1585 C1573 0.929 . S
H1586 C1574 0.960 . S
H1587 C1574 0.962 . S
H1588 C1574 0.960 . S
H1589 C1575 0.961 . S
H1590 C1575 0.961 . S
H1591 C1575 0.961 1_554 S
H1592 C1576 0.931 . S
H1593 C1581 0.930 . S
H1594 C1582 0.956 . S
H1595 C1582 0.961 . S
H1596 C1582 0.961 . S
H1597 C1583 0.958 . S
H1598 C1583 0.961 . S
H1599 C1583 0.960 . S
C1600 C1601 1.391 . S
C1600 C1602 1.394 . S
C1600 H1616 0.931 . S
C1601 C1600 1.391 . S
C1601 C1605 1.376 . S
C1602 C1600 1.394 . S
C1602 C1603 1.369 . S
C1602 C1606 1.531 . S
C1603 C1602 1.369 . S
C1603 C1604 1.410 . S
C1603 C1611 1.503 . S
C1604 C1603 1.410 . S
C1604 C1605 1.392 . S
C1604 C1607 1.511 . S
C1605 C1601 1.376 . S
C1605 C1604 1.392 . S
C1605 H1617 0.929 . S
C1606 C1602 1.531 . S
C1606 H1618 0.960 . S
C1606 H1619 0.962 . S
C1606 H1620 0.960 . S
C1607 C1604 1.511 . S
C1607 H1621 0.961 . S
C1607 H1622 0.961 . S
C1607 H1623 0.961 . S
C1608 C1609 1.370 . S
C1608 C1610 1.363 . S
C1608 H1624 0.931 . S
C1609 C1608 1.370 . S
C1609 C1613 1.408 . S
C1610 C1608 1.363 . S
C1610 C1611 1.370 . S
C1610 C1614 1.524 . S
C1611 C1603 1.503 . S
C1611 C1610 1.370 . S
C1611 C1612 1.403 . S
C1612 C1611 1.403 . S
C1612 C1613 1.404 . S
C1612 C1615 1.539 . S
C1613 C1609 1.408 . S
C1613 C1612 1.404 . S
C1613 H1625 0.930 . S
C1614 C1610 1.524 . S
C1614 H1626 0.956 . S
C1614 H1627 0.961 . S
C1614 H1628 0.961 . S
C1615 C1612 1.539 . S
C1615 H1629 0.958 . S
C1615 H1630 0.961 . S
C1615 H1631 0.960 . S
H1616 C1600 0.931 . S
H1617 C1605 0.929 . S
H1618 C1606 0.960 . S
H1619 C1606 0.962 . S
H1620 C1606 0.960 . S
H1621 C1607 0.961 . S
H1622 C1607 0.961 . S
H1623 C1607 0.961 . S
H1624 C1608 0.931 . S
H1625 C1613 0.930 . S
H1626 C1614 0.956 . S
H1627 C1614 0.961 . S
H1628 C1614 0.961 . S
H1629 C1615 0.958 . S
H1630 C1615 0.961 . S
H1631 C1615 0.960 . S
C1632 C1633 1.391 . S
C1632 C1634 1.394 . S
C1632 H1648 0.931 . S
C1633 C1632 1.391 . S
C1633 C1637 1.376 . S
C1634 C1632 1.394 . S
C1634 C1635 1.369 . S
C1634 C1638 1.531 . S
C1635 C1634 1.369 . S
C1635 C1636 1.410 . S
C1635 C1643 1.503 . S
C1636 C1635 1.410 . S
C1636 C1637 1.392 . S
C1636 C1639 1.511 . S
C1637 C1633 1.376 . S
C1637 C1636 1.392 . S
C1637 H1649 0.929 . S
C1638 C1634 1.531 . S
C1638 H1650 0.960 . S
C1638 H1651 0.962 . S
C1638 H1652 0.960 . S
C1639 C1636 1.511 . S
C1639 H1653 0.961 . S
C1639 H1654 0.961 . S
C1639 H1655 0.961 . S
C1640 C1641 1.370 . S
C1640 C1642 1.363 . S
C1640 H1656 0.931 . S
C1641 C1640 1.370 . S
C1641 C1645 1.408 . S
C1642 C1640 1.363 . S
C1642 C1643 1.370 . S
C1642 C1646 1.524 . S
C1643 C1635 1.503 . S
C1643 C1642 1.370 . S
C1643 C1644 1.403 . S
C1644 C1643 1.403 . S
C1644 C1645 1.404 . S
C1644 C1647 1.539 . S
C1645 C1641 1.408 . S
C1645 C1644 1.404 . S
C1645 H1657 0.930 . S
C1646 C1642 1.524 . S
C1646 H1658 0.956 . S
C1646 H1659 0.961 . S
C1646 H1660 0.961 . S
C1647 C1644 1.539 . S
C1647 H1661 0.958 . S
C1647 H1662 0.961 . S
C1647 H1663 0.960 . S
H1648 C1632 0.931 . S
H1649 C1637 0.929 . S
H1650 C1638 0.960 . S
H1651 C1638 0.962 . S
H1652 C1638 0.960 . S
H1653 C1639 0.961 . S
H1654 C1639 0.961 . S
H1655 C1639 0.961 . S
H1656 C1640 0.931 . S
H1657 C1645 0.930 . S
H1658 C1646 0.956 . S
H1659 C1646 0.961 . S
H1660 C1646 0.961 . S
H1661 C1647 0.958 . S
H1662 C1647 0.961 . S
H1663 C1647 0.960 . S
C1664 C1665 1.391 . S
C1664 C1666 1.394 . S
C1664 H1680 0.931 . S
C1665 C1664 1.391 . S
C1665 C1669 1.376 . S
C1666 C1664 1.394 . S
C1666 C1667 1.381 . S
C1666 C1670 1.531 . S
C1667 C1666 1.381 . S
C1667 C1668 1.404 1_455 S
C1667 C1675 1.499 1_455 S
C1668 C1667 1.404 1_655 S
C1668 C1669 1.392 1_655 S
C1668 C1671 1.511 . S
C1669 C1665 1.376 . S
C1669 C1668 1.392 1_455 S
C1669 H1681 0.928 1_455 S
C1670 C1666 1.531 . S
C1670 H1682 0.960 . S
C1670 H1683 0.962 . S
C1670 H1684 0.960 . S
C1671 C1668 1.511 . S
C1671 H1685 0.961 . S
C1671 H1686 0.961 . S
C1671 H1687 0.961 . S
C1672 C1673 1.370 1_455 S
C1672 C1674 1.363 . S
C1672 H1688 0.931 . S
C1673 C1672 1.370 1_655 S
C1673 C1677 1.408 . S
C1674 C1672 1.363 . S
C1674 C1675 1.370 1_455 S
C1674 C1678 1.524 . S
C1675 C1667 1.499 1_655 S
C1675 C1674 1.370 1_655 S
C1675 C1676 1.403 . S
C1676 C1675 1.403 . S
C1676 C1677 1.404 . S
C1676 C1679 1.539 . S
C1677 C1673 1.408 . S
C1677 C1676 1.404 . S
C1677 H1689 0.930 . S
C1678 C1674 1.524 . S
C1678 H1690 0.956 . S
C1678 H1691 0.961 . S
C1678 H1692 0.961 . S
C1679 C1676 1.539 . S
C1679 H1693 0.958 . S
C1679 H1694 0.961 . S
C1679 H1695 0.960 . S
H1680 C1664 0.931 . S
H1681 C1669 0.928 1_655 S
H1682 C1670 0.960 . S
H1683 C1670 0.962 . S
H1684 C1670 0.960 . S
H1685 C1671 0.961 . S
H1686 C1671 0.961 . S
H1687 C1671 0.961 . S
H1688 C1672 0.931 . S
H1689 C1677 0.930 . S
H1690 C1678 0.956 . S
H1691 C1678 0.961 . S
H1692 C1678 0.961 . S
H1693 C1679 0.958 . S
H1694 C1679 0.961 . S
H1695 C1679 0.960 . S
C1696 C1697 1.391 1_455 S
C1696 C1698 1.394 . S
C1696 H1712 0.931 . S
C1697 C1696 1.391 1_655 S
C1697 C1701 1.376 . S
C1698 C1696 1.394 . S
C1698 C1699 1.369 1_455 S
C1698 C1702 1.531 . S
C1699 C1698 1.369 1_655 S
C1699 C1700 1.410 . S
C1699 C1707 1.503 1_655 S
C1700 C1699 1.410 . S
C1700 C1701 1.392 . S
C1700 C1703 1.511 . S
C1701 C1697 1.376 . S
C1701 C1700 1.392 . S
C1701 H1713 0.929 . S
C1702 C1698 1.531 . S
C1702 H1714 0.960 . S
C1702 H1715 0.962 . S
C1702 H1716 0.960 . S
C1703 C1700 1.511 . S
C1703 H1717 0.961 . S
C1703 H1718 0.961 . S
C1703 H1719 0.961 . S
C1704 C1705 1.370 . S
C1704 C1706 1.363 1_455 S
C1704 H1720 0.931 . S
C1705 C1704 1.370 . S
C1705 C1709 1.408 . S
C1706 C1704 1.363 1_655 S
C1706 C1707 1.370 1_655 S
C1706 C1710 1.524 . S
C1707 C1699 1.503 1_455 S
C1707 C1706 1.370 1_455 S
C1707 C1708 1.403 . S
C1708 C1707 1.403 . S
C1708 C1709 1.404 . S
C1708 C1711 1.539 . S
C1709 C1705 1.408 . S
C1709 C1708 1.404 . S
C1709 H1721 0.930 . S
C1710 C1706 1.524 . S
C1710 H1722 0.929 1_655 S
C1710 H1723 0.961 . S
C1710 H1724 0.961 . S
C1711 C1708 1.539 . S
C1711 H1725 0.958 . S
C1711 H1726 0.961 . S
C1711 H1727 0.960 . S
H1712 C1696 0.931 . S
H1713 C1701 0.929 . S
H1714 C1702 0.960 . S
H1715 C1702 0.962 . S
H1716 C1702 0.960 . S
H1717 C1703 0.961 . S
H1718 C1703 0.961 . S
H1719 C1703 0.961 . S
H1720 C1704 0.931 . S
H1721 C1709 0.930 . S
H1722 C1710 0.929 1_455 S
H1723 C1710 0.961 . S
H1724 C1710 0.961 . S
H1725 C1711 0.958 . S
H1726 C1711 0.961 . S
H1727 C1711 0.960 . S
C1728 C1729 1.391 . S
C1728 C1730 1.394 . S
C1728 H1744 0.931 . S
C1729 C1728 1.391 . S
C1729 C1733 1.376 1_565 S
C1730 C1728 1.394 . S
C1730 C1731 1.369 1_565 S
C1730 C1734 1.531 . S
C1731 C1730 1.369 1_545 S
C1731 C1732 1.410 . S
C1731 C1739 1.503 . S
C1732 C1731 1.410 . S
C1732 C1733 1.392 . S
C1732 C1735 1.511 . S
C1733 C1729 1.376 1_545 S
C1733 C1732 1.392 . S
C1733 H1745 0.929 . S
C1734 C1730 1.531 . S
C1734 H1746 0.960 . S
C1734 H1747 0.962 . S
C1734 H1748 0.960 . S
C1735 C1732 1.511 . S
C1735 H1749 0.961 . S
C1735 H1750 0.961 . S
C1735 H1751 0.961 1_554 S
C1736 C1737 1.370 . S
C1736 C1738 1.363 . S
C1736 H1752 0.931 . S
C1737 C1736 1.370 . S
C1737 C1741 1.408 . S
C1738 C1736 1.363 . S
C1738 C1739 1.370 . S
C1738 C1742 1.524 . S
C1739 C1731 1.503 . S
C1739 C1738 1.370 . S
C1739 C1740 1.403 . S
C1740 C1739 1.403 . S
C1740 C1741 1.404 . S
C1740 C1743 1.539 1_554 S
C1741 C1737 1.408 . S
C1741 C1740 1.404 . S
C1741 H1753 0.930 . S
C1742 C1738 1.524 . S
C1742 H1754 0.956 . S
C1742 H1755 0.961 . S
C1742 H1756 0.961 . S
C1743 C1740 1.539 1_556 S
C1743 H1757 0.958 . S
C1743 H1758 0.961 . S
C1743 H1759 0.960 . S
H1744 C1728 0.931 . S
H1745 C1733 0.929 . S
H1746 C1734 0.960 . S
H1747 C1734 0.962 . S
H1748 C1734 0.960 . S
H1749 C1735 0.961 . S
H1750 C1735 0.961 . S
H1751 C1735 0.961 1_556 S
H1752 C1736 0.931 . S
H1753 C1741 0.930 . S
H1754 C1742 0.956 . S
H1755 C1742 0.961 . S
H1756 C1742 0.961 . S
H1757 C1743 0.958 . S
H1758 C1743 0.961 . S
H1759 C1743 0.960 . S
C1760 C1761 1.391 . S
C1760 C1762 1.394 . S
C1760 H1776 0.931 . S
C1761 C1760 1.391 . S
C1761 C1765 1.376 . S
C1762 C1760 1.394 . S
C1762 C1763 1.369 . S
C1762 C1766 1.531 . S
C1763 C1762 1.369 . S
C1763 C1764 1.410 . S
C1763 C1771 1.503 . S
C1764 C1763 1.410 . S
C1764 C1765 1.392 . S
C1764 C1767 1.511 . S
C1765 C1761 1.376 . S
C1765 C1764 1.392 . S
C1765 H1777 0.929 . S
C1766 C1762 1.531 . S
C1766 H1778 0.960 . S
C1766 H1779 0.962 . S
C1766 H1780 0.960 . S
C1767 C1764 1.511 . S
C1767 H1781 0.961 . S
C1767 H1782 0.961 . S
C1767 H1783 0.961 . S
C1768 C1769 1.370 . S
C1768 C1770 1.363 . S
C1768 H1784 0.931 . S
C1769 C1768 1.370 . S
C1769 C1773 1.408 . S
C1770 C1768 1.363 . S
C1770 C1771 1.370 . S
C1770 C1774 1.524 . S
C1771 C1763 1.503 . S
C1771 C1770 1.370 . S
C1771 C1772 1.403 . S
C1772 C1771 1.403 . S
C1772 C1773 1.404 . S
C1772 C1775 1.539 . S
C1773 C1769 1.408 . S
C1773 C1772 1.404 . S
C1773 H1785 0.930 . S
C1774 C1770 1.524 . S
C1774 H1786 0.956 . S
C1774 H1787 0.961 . S
C1774 H1788 0.961 . S
C1775 C1772 1.539 . S
C1775 H1789 0.958 . S
C1775 H1790 0.961 . S
C1775 H1791 0.960 . S
H1776 C1760 0.931 . S
H1777 C1765 0.929 . S
H1778 C1766 0.960 . S
H1779 C1766 0.962 . S
H1780 C1766 0.960 . S
H1781 C1767 0.961 . S
H1782 C1767 0.961 . S
H1783 C1767 0.961 . S
H1784 C1768 0.931 . S
H1785 C1773 0.930 . S
H1786 C1774 0.956 . S
H1787 C1774 0.961 . S
H1788 C1774 0.961 . S
H1789 C1775 0.958 . S
H1790 C1775 0.961 . S
H1791 C1775 0.960 . S
C1792 C1793 1.391 . S
C1792 C1794 1.394 . S
C1792 H1808 0.931 . S
C1793 C1792 1.391 . S
C1793 C1797 1.376 . S
C1794 C1792 1.394 . S
C1794 C1795 1.369 . S
C1794 C1798 1.531 1_545 S
C1795 C1794 1.369 . S
C1795 C1796 1.410 . S
C1795 C1803 1.503 . S
C1796 C1795 1.410 . S
C1796 C1797 1.392 . S
C1796 C1799 1.511 . S
C1797 C1793 1.376 . S
C1797 C1796 1.392 . S
C1797 H1809 0.929 . S
C1798 C1794 1.531 1_565 S
C1798 H1810 0.960 . S
C1798 H1811 0.962 . S
C1798 H1812 0.960 . S
C1799 C1796 1.511 . S
C1799 H1813 0.961 . S
C1799 H1814 0.961 . S
C1799 H1815 0.961 . S
C1800 C1801 1.370 . S
C1800 C1802 1.363 1_565 S
C1800 H1816 0.902 1_655 S
C1801 C1800 1.370 . S
C1801 C1805 1.408 . S
C1802 C1800 1.363 1_545 S
C1802 C1803 1.370 . S
C1802 C1806 1.524 1_655 S
C1803 C1795 1.503 . S
C1803 C1802 1.370 . S
C1803 C1804 1.387 1_545 S
C1804 C1803 1.387 1_565 S
C1804 C1805 1.422 . S
C1804 C1807 1.536 1_565 S
C1805 C1801 1.408 . S
C1805 C1804 1.422 . S
C1805 H1817 0.930 . S
C1806 C1802 1.524 1_455 S
C1806 H1818 0.956 . S
C1806 H1819 0.961 1_455 S
C1806 H1820 0.961 . S
C1807 C1804 1.536 1_545 S
C1807 H1821 0.958 1_545 S
C1807 H1822 0.967 . S
C1807 H1823 0.960 . S
H1808 C1792 0.931 . S
H1809 C1797 0.929 . S
H1810 C1798 0.960 . S
H1811 C1798 0.962 . S
H1812 C1798 0.960 . S
H1813 C1799 0.961 . S
H1814 C1799 0.961 . S
H1815 C1799 0.961 . S
H1816 C1800 0.902 1_455 S
H1817 C1805 0.930 . S
H1818 C1806 0.956 . S
H1819 C1806 0.961 1_655 S
H1820 C1806 0.961 . S
H1821 C1807 0.958 1_565 S
H1822 C1807 0.967 . S
H1823 C1807 0.960 . S
C1824 C1825 1.391 . S
C1824 C1826 1.394 . S
C1824 H1840 0.931 . S
C1825 C1824 1.391 . S
C1825 C1829 1.376 . S
C1826 C1824 1.394 . S
C1826 C1827 1.369 . S
C1826 C1830 1.531 . S
C1827 C1826 1.369 . S
C1827 C1828 1.410 . S
C1827 C1835 1.503 . S
C1828 C1827 1.410 . S
C1828 C1829 1.392 . S
C1828 C1831 1.511 . S
C1829 C1825 1.376 . S
C1829 C1828 1.392 . S
C1829 H1841 0.929 . S
C1830 C1826 1.531 . S
C1830 H1842 0.960 . S
C1830 H1843 0.962 . S
C1830 H1844 0.960 . S
C1831 C1828 1.511 . S
C1831 H1845 0.961 . S
C1831 H1846 0.961 . S
C1831 H1847 0.961 . S
C1832 C1833 1.370 . S
C1832 C1834 1.363 . S
C1832 H1848 0.931 . S
C1833 C1832 1.370 . S
C1833 C1837 1.408 . S
C1834 C1832 1.363 . S
C1834 C1835 1.370 . S
C1834 C1838 1.524 . S
C1835 C1827 1.503 . S
C1835 C1834 1.370 . S
C1835 C1836 1.403 . S
C1836 C1835 1.403 . S
C1836 C1837 1.404 . S
C1836 C1839 1.539 . S
C1837 C1833 1.408 . S
C1837 C1836 1.404 . S
C1837 H1849 0.930 . S
C1838 C1834 1.524 . S
C1838 H1850 0.956 . S
C1838 H1851 0.961 . S
C1838 H1852 0.961 . S
C1839 C1836 1.539 . S
C1839 H1853 0.958 . S
C1839 H1854 0.961 . S
C1839 H1855 0.960 . S
H1840 C1824 0.931 . S
H1841 C1829 0.929 . S
H1842 C1830 0.960 . S
H1843 C1830 0.962 . S
H1844 C1830 0.960 . S
H1845 C1831 0.961 . S
H1846 C1831 0.961 . S
H1847 C1831 0.961 . S
H1848 C1832 0.931 . S
H1849 C1837 0.930 . S
H1850 C1838 0.956 . S
H1851 C1838 0.961 . S
H1852 C1838 0.961 . S
H1853 C1839 0.958 . S
H1854 C1839 0.961 . S
H1855 C1839 0.960 . S
C1856 C1857 1.391 . S
C1856 C1858 1.394 . S
C1856 H1872 0.931 . S
C1857 C1856 1.391 . S
C1857 C1861 1.387 . S
C1858 C1856 1.394 . S
C1858 C1859 1.369 1_565 S
C1858 C1862 1.531 . S
C1859 C1858 1.369 1_545 S
C1859 C1860 1.410 . S
C1859 C1867 1.503 . S
C1860 C1859 1.410 . S
C1860 C1861 1.382 1_545 S
C1860 C1863 1.511 1_455 S
C1861 C1857 1.387 . S
C1861 C1860 1.382 1_565 S
C1861 H1873 0.893 1_465 S
C1862 C1858 1.531 . S
C1862 H1874 0.960 . S
C1862 H1875 0.927 1_565 S
C1862 H1876 0.960 . S
C1863 C1860 1.511 1_655 S
C1863 H1877 0.961 . S
C1863 H1878 0.961 1_655 S
C1863 H1879 0.961 . S
C1864 C1865 1.370 . S
C1864 C1866 1.363 . S
C1864 H1880 0.931 . S
C1865 C1864 1.370 . S
C1865 C1869 1.408 . S
C1866 C1864 1.363 . S
C1866 C1867 1.370 . S
C1866 C1870 1.524 . S
C1867 C1859 1.503 . S
C1867 C1866 1.370 . S
C1867 C1868 1.403 . S
C1868 C1867 1.403 . S
C1868 C1869 1.404 . S
C1868 C1871 1.588 . S
C1869 C1865 1.408 . S
C1869 C1868 1.404 . S
C1869 H1881 0.930 . S
C1870 C1866 1.524 . S
C1870 H1882 0.956 . S
C1870 H1883 0.961 . S
C1870 H1884 0.961 . S
C1871 C1868 1.588 . S
C1871 H1885 0.915 1_545 S
C1871 H1886 0.976 . S
C1871 H1887 0.944 1_545 S
H1872 C1856 0.931 . S
H1873 C1861 0.893 1_645 S
H1874 C1862 0.960 . S
H1875 C1862 0.927 1_545 S
H1876 C1862 0.960 . S
H1877 C1863 0.961 . S
H1878 C1863 0.961 1_455 S
H1879 C1863 0.961 . S
H1880 C1864 0.931 . S
H1881 C1869 0.930 . S
H1882 C1870 0.956 . S
H1883 C1870 0.961 . S
H1884 C1870 0.961 . S
H1885 C1871 0.915 1_565 S
H1886 C1871 0.976 . S
H1887 C1871 0.944 1_565 S
C1888 C1889 1.391 . S
C1888 C1890 1.394 . S
C1888 H1904 0.931 . S
C1889 C1888 1.391 . S
C1889 C1893 1.376 . S
C1890 C1888 1.394 . S
C1890 C1891 1.369 . S
C1890 C1894 1.531 . S
C1891 C1890 1.369 . S
C1891 C1892 1.410 . S
C1891 C1899 1.503 . S
C1892 C1891 1.410 . S
C1892 C1893 1.392 . S
C1892 C1895 1.511 . S
C1893 C1889 1.376 . S
C1893 C1892 1.392 . S
C1893 H1905 0.929 . S
C1894 C1890 1.531 . S
C1894 H1906 0.960 . S
C1894 H1907 0.962 . S
C1894 H1908 0.960 . S
C1895 C1892 1.511 . S
C1895 H1909 0.961 . S
C1895 H1910 0.961 . S
C1895 H1911 0.961 . S
C1896 C1897 1.370 . S
C1896 C1898 1.363 . S
C1896 H1912 0.931 . S
C1897 C1896 1.370 . S
C1897 C1901 1.408 . S
C1898 C1896 1.363 . S
C1898 C1899 1.370 . S
C1898 C1902 1.524 . S
C1899 C1891 1.503 . S
C1899 C1898 1.370 . S
C1899 C1900 1.403 . S
C1900 C1899 1.403 . S
C1900 C1901 1.404 . S
C1900 C1903 1.539 . S
C1901 C1897 1.408 . S
C1901 C1900 1.404 . S
C1901 H1913 0.930 . S
C1902 C1898 1.524 . S
C1902 H1914 0.956 . S
C1902 H1915 0.961 . S
C1902 H1916 0.961 . S
C1903 C1900 1.539 . S
C1903 H1917 0.958 . S
C1903 H1918 0.961 . S
C1903 H1919 0.960 . S
H1904 C1888 0.931 . S
H1905 C1893 0.929 . S
H1906 C1894 0.960 . S
H1907 C1894 0.962 . S
H1908 C1894 0.960 . S
H1909 C1895 0.961 . S
H1910 C1895 0.961 . S
H1911 C1895 0.961 . S
H1912 C1896 0.931 . S
H1913 C1901 0.930 . S
H1914 C1902 0.956 . S
H1915 C1902 0.961 . S
H1916 C1902 0.961 . S
H1917 C1903 0.958 . S
H1918 C1903 0.961 . S
H1919 C1903 0.960 . S
C1920 C1921 1.391 . S
C1920 C1922 1.394 1_565 S
C1920 H1936 0.932 1_556 S
C1921 C1920 1.391 . S
C1921 C1925 1.376 . S
C1922 C1920 1.394 1_545 S
C1922 C1923 1.369 . S
C1922 C1926 1.531 1_556 S
C1923 C1922 1.369 . S
C1923 C1924 1.410 1_545 S
C1923 C1931 1.503 . S
C1924 C1923 1.410 1_565 S
C1924 C1925 1.392 . S
C1924 C1927 1.511 . S
C1925 C1921 1.376 . S
C1925 C1924 1.392 . S
C1925 H1937 0.929 . S
C1926 C1922 1.531 1_554 S
C1926 H1938 0.960 1_554 S
C1926 H1939 0.962 . S
C1926 H1940 0.960 . S
C1927 C1924 1.511 . S
C1927 H1941 0.961 . S
C1927 H1942 0.961 . S
C1927 H1943 0.961 1_565 S
C1928 C1929 1.370 . S
C1928 C1930 1.363 . S
C1928 H1944 0.931 . S
C1929 C1928 1.370 . S
C1929 C1933 1.408 . S
C1930 C1928 1.363 . S
C1930 C1931 1.370 . S
C1930 C1934 1.524 1_545 S
C1931 C1923 1.503 . S
C1931 C1930 1.370 . S
C1931 C1932 1.403 . S
C1932 C1931 1.403 . S
C1932 C1933 1.404 . S
C1932 C1935 1.539 . S
C1933 C1929 1.408 . S
C1933 C1932 1.404 . S
C1933 H1945 0.930 . S
C1934 C1930 1.524 1_565 S
C1934 H1946 0.956 . S
C1934 H1947 0.961 . S
C1934 H1948 0.961 . S
C1935 C1932 1.539 . S
C1935 H1949 0.958 . S
C1935 H1950 0.961 . S
C1935 H1951 0.960 . S
H1936 C1920 0.932 1_554 S
H1937 C1925 0.929 . S
H1938 C1926 0.960 1_556 S
H1939 C1926 0.962 . S
H1940 C1926 0.960 . S
H1941 C1927 0.961 . S
H1942 C1927 0.961 . S
H1943 C1927 0.961 1_545 S
H1944 C1928 0.931 . S
H1945 C1933 0.930 . S
H1946 C1934 0.956 . S
H1947 C1934 0.961 . S
H1948 C1934 0.961 . S
H1949 C1935 0.958 . S
H1950 C1935 0.961 . S
H1951 C1935 0.960 . S
C1952 C1953 1.391 . S
C1952 C1954 1.394 . S
C1952 H1968 0.931 . S
C1953 C1952 1.391 . S
C1953 C1957 1.376 . S
C1954 C1952 1.394 . S
C1954 C1955 1.369 . S
C1954 C1958 1.531 . S
C1955 C1954 1.369 . S
C1955 C1956 1.410 . S
C1955 C1963 1.503 . S
C1956 C1955 1.410 . S
C1956 C1957 1.392 . S
C1956 C1959 1.511 . S
C1957 C1953 1.376 . S
C1957 C1956 1.392 . S
C1957 H1969 0.929 . S
C1958 C1954 1.531 . S
C1958 H1970 0.960 . S
C1958 H1971 0.962 . S
C1958 H1972 0.979 . S
C1959 C1956 1.511 . S
C1959 H1973 0.961 . S
C1959 H1974 0.961 . S
C1959 H1975 0.961 . S
C1960 C1961 1.370 . S
C1960 C1962 1.363 . S
C1960 H1976 0.931 . S
C1961 C1960 1.370 . S
C1961 C1965 1.408 . S
C1962 C1960 1.363 . S
C1962 C1963 1.370 . S
C1962 C1966 1.524 . S
C1963 C1955 1.503 . S
C1963 C1962 1.370 . S
C1963 C1964 1.403 . S
C1964 C1963 1.403 . S
C1964 C1965 1.404 . S
C1964 C1967 1.539 1_655 S
C1965 C1961 1.408 . S
C1965 C1964 1.404 . S
C1965 H1977 0.930 . S
C1966 C1962 1.524 . S
C1966 H1978 0.956 . S
C1966 H1979 0.961 . S
C1966 H1980 0.961 . S
C1967 C1964 1.539 1_455 S
C1967 H1981 0.958 . S
C1967 H1982 0.961 . S
C1967 H1983 0.960 . S
H1968 C1952 0.931 . S
H1969 C1957 0.929 . S
H1970 C1958 0.960 . S
H1971 C1958 0.962 . S
H1972 C1958 0.979 . S
H1973 C1959 0.961 . S
H1974 C1959 0.961 . S
H1975 C1959 0.961 . S
H1976 C1960 0.931 . S
H1977 C1965 0.930 . S
H1978 C1966 0.956 . S
H1979 C1966 0.961 . S
H1980 C1966 0.961 . S
H1981 C1967 0.958 . S
H1982 C1967 0.961 . S
H1983 C1967 0.960 . S
C1984 C1985 1.391 . S
C1984 C1986 1.394 . S
C1984 H2000 0.931 . S
C1985 C1984 1.391 . S
C1985 C1989 1.376 . S
C1986 C1984 1.394 . S
C1986 C1987 1.369 . S
C1986 C1990 1.531 . S
C1987 C1986 1.369 . S
C1987 C1988 1.410 . S
C1987 C1995 1.503 . S
C1988 C1987 1.410 . S
C1988 C1989 1.392 . S
C1988 C1991 1.511 . S
C1989 C1985 1.376 . S
C1989 C1988 1.392 . S
C1989 H2001 0.929 . S
C1990 C1986 1.531 . S
C1990 H2002 0.960 . S
C1990 H2003 0.962 . S
C1990 H2004 0.960 . S
C1991 C1988 1.511 . S
C1991 H2005 0.961 . S
C1991 H2006 0.961 . S
C1991 H2007 0.961 . S
C1992 C1993 1.370 . S
C1992 C1994 1.363 . S
C1992 H2008 0.931 . S
C1993 C1992 1.370 . S
C1993 C1997 1.408 . S
C1994 C1992 1.363 . S
C1994 C1995 1.370 . S
C1994 C1998 1.524 . S
C1995 C1987 1.503 . S
C1995 C1994 1.370 . S
C1995 C1996 1.403 . S
C1996 C1995 1.403 . S
C1996 C1997 1.404 . S
C1996 C1999 1.539 . S
C1997 C1993 1.408 . S
C1997 C1996 1.404 . S
C1997 H2009 0.930 . S
C1998 C1994 1.524 . S
C1998 H2010 0.956 . S
C1998 H2011 0.961 . S
C1998 H2012 0.961 . S
C1999 C1996 1.539 . S
C1999 H2013 0.958 . S
C1999 H2014 0.961 . S
C1999 H2015 0.960 . S
H2000 C1984 0.931 . S
H2001 C1989 0.929 . S
H2002 C1990 0.960 . S
H2003 C1990 0.962 . S
H2004 C1990 0.960 . S
H2005 C1991 0.961 . S
H2006 C1991 0.961 . S
H2007 C1991 0.961 . S
H2008 C1992 0.931 . S
H2009 C1997 0.930 . S
H2010 C1998 0.956 . S
H2011 C1998 0.961 . S
H2012 C1998 0.961 . S
H2013 C1999 0.958 . S
H2014 C1999 0.961 . S
H2015 C1999 0.960 . S
C2016 C2017 1.391 . S
C2016 C2018 1.394 . S
C2016 H2032 0.931 . S
C2017 C2016 1.391 . S
C2017 C2021 1.376 . S
C2018 C2016 1.394 . S
C2018 C2019 1.369 . S
C2018 C2022 1.531 . S
C2019 C2018 1.369 . S
C2019 C2020 1.410 . S
C2019 C2027 1.503 . S
C2020 C2019 1.410 . S
C2020 C2021 1.392 . S
C2020 C2023 1.511 . S
C2021 C2017 1.376 . S
C2021 C2020 1.392 . S
C2021 H2033 0.929 . S
C2022 C2018 1.531 . S
C2022 H2034 0.960 . S
C2022 H2035 0.962 . S
C2022 H2036 0.960 . S
C2023 C2020 1.511 . S
C2023 H2037 0.961 . S
C2023 H2038 0.961 . S
C2023 H2039 0.961 . S
C2024 C2025 1.370 . S
C2024 C2026 1.363 . S
C2024 H2040 0.931 . S
C2025 C2024 1.370 . S
C2025 C2029 1.408 . S
C2026 C2024 1.363 . S
C2026 C2027 1.370 . S
C2026 C2030 1.524 . S
C2027 C2019 1.503 . S
C2027 C2026 1.370 . S
C2027 C2028 1.403 . S
C2028 C2027 1.403 . S
C2028 C2029 1.404 . S
C2028 C2031 1.539 . S
C2029 C2025 1.408 . S
C2029 C2028 1.404 . S
C2029 H2041 0.930 . S
C2030 C2026 1.524 . S
C2030 H2042 0.956 . S
C2030 H2043 0.961 . S
C2030 H2044 0.961 . S
C2031 C2028 1.539 . S
C2031 H2045 0.958 . S
C2031 H2046 0.961 . S
C2031 H2047 0.960 . S
H2032 C2016 0.931 . S
H2033 C2021 0.929 . S
H2034 C2022 0.960 . S
H2035 C2022 0.962 . S
H2036 C2022 0.960 . S
H2037 C2023 0.961 . S
H2038 C2023 0.961 . S
H2039 C2023 0.961 . S
H2040 C2024 0.931 . S
H2041 C2029 0.930 . S
H2042 C2030 0.956 . S
H2043 C2030 0.961 . S
H2044 C2030 0.961 . S
H2045 C2031 0.958 . S
H2046 C2031 0.961 . S
H2047 C2031 0.960 . S
C2048 C2049 1.391 . S
C2048 C2050 1.394 . S
C2048 H2064 0.931 . S
C2049 C2048 1.391 . S
C2049 C2053 1.376 . S
C2050 C2048 1.394 . S
C2050 C2051 1.369 . S
C2050 C2054 1.531 . S
C2051 C2050 1.369 . S
C2051 C2052 1.410 . S
C2051 C2059 1.503 . S
C2052 C2051 1.410 . S
C2052 C2053 1.392 . S
C2052 C2055 1.511 . S
C2053 C2049 1.376 . S
C2053 C2052 1.392 . S
C2053 H2065 0.929 . S
C2054 C2050 1.531 . S
C2054 H2066 0.960 . S
C2054 H2067 0.962 . S
C2054 H2068 0.960 . S
C2055 C2052 1.511 . S
C2055 H2069 0.961 . S
C2055 H2070 0.961 . S
C2055 H2071 0.961 . S
C2056 C2057 1.370 . S
C2056 C2058 1.363 . S
C2056 H2072 0.931 . S
C2057 C2056 1.370 . S
C2057 C2061 1.408 1_554 S
C2058 C2056 1.363 . S
C2058 C2059 1.370 . S
C2058 C2062 1.524 . S
C2059 C2051 1.503 . S
C2059 C2058 1.370 . S
C2059 C2060 1.403 . S
C2060 C2059 1.403 . S
C2060 C2061 1.404 1_554 S
C2060 C2063 1.539 1_554 S
C2061 C2057 1.408 1_556 S
C2061 C2060 1.404 1_556 S
C2061 H2073 0.930 . S
C2062 C2058 1.524 . S
C2062 H2074 0.956 . S
C2062 H2075 0.961 . S
C2062 H2076 0.961 . S
C2063 C2060 1.539 1_556 S
C2063 H2077 0.958 . S
C2063 H2078 0.961 . S
C2063 H2079 0.960 . S
H2064 C2048 0.931 . S
H2065 C2053 0.929 . S
H2066 C2054 0.960 . S
H2067 C2054 0.962 . S
H2068 C2054 0.960 . S
H2069 C2055 0.961 . S
H2070 C2055 0.961 . S
H2071 C2055 0.961 . S
H2072 C2056 0.931 . S
H2073 C2061 0.930 . S
H2074 C2062 0.956 . S
H2075 C2062 0.961 . S
H2076 C2062 0.961 . S
H2077 C2063 0.958 . S
H2078 C2063 0.961 . S
H2079 C2063 0.960 . S
C2080 C2081 1.391 . S
C2080 C2082 1.394 . S
C2080 H2096 0.931 . S
C2081 C2080 1.391 . S
C2081 C2085 1.376 . S
C2082 C2080 1.394 . S
C2082 C2083 1.369 . S
C2082 C2086 1.531 . S
C2083 C2082 1.369 . S
C2083 C2084 1.410 . S
C2083 C2091 1.503 . S
C2084 C2083 1.410 . S
C2084 C2085 1.392 . S
C2084 C2087 1.511 . S
C2085 C2081 1.376 . S
C2085 C2084 1.392 . S
C2085 H2097 0.929 . S
C2086 C2082 1.531 . S
C2086 H2098 0.960 . S
C2086 H2099 0.962 . S
C2086 H2100 0.960 . S
C2087 C2084 1.511 . S
C2087 H2101 0.961 . S
C2087 H2102 0.961 . S
C2087 H2103 0.961 . S
C2088 C2089 1.370 . S
C2088 C2090 1.363 . S
C2088 H2104 0.931 . S
C2089 C2088 1.370 . S
C2089 C2093 1.408 . S
C2090 C2088 1.363 . S
C2090 C2091 1.370 . S
C2090 C2094 1.524 . S
C2091 C2083 1.503 . S
C2091 C2090 1.370 . S
C2091 C2092 1.403 . S
C2092 C2091 1.403 . S
C2092 C2093 1.404 . S
C2092 C2095 1.539 . S
C2093 C2089 1.408 . S
C2093 C2092 1.404 . S
C2093 H2105 0.930 . S
C2094 C2090 1.524 . S
C2094 H2106 0.956 1_556 S
C2094 H2107 0.961 . S
C2094 H2108 0.961 1_556 S
C2095 C2092 1.539 . S
C2095 H2109 0.958 . S
C2095 H2110 0.961 . S
C2095 H2111 0.960 . S
H2096 C2080 0.931 . S
H2097 C2085 0.929 . S
H2098 C2086 0.960 . S
H2099 C2086 0.962 . S
H2100 C2086 0.960 . S
H2101 C2087 0.961 . S
H2102 C2087 0.961 . S
H2103 C2087 0.961 . S
H2104 C2088 0.931 . S
H2105 C2093 0.930 . S
H2106 C2094 0.956 1_554 S
H2107 C2094 0.961 . S
H2108 C2094 0.961 1_554 S
H2109 C2095 0.958 . S
H2110 C2095 0.961 . S
H2111 C2095 0.960 . S
C961 C21 1.963 . S
C969 C101 1.946 . S
C993 C61 0.694 . S
C1001 C141 0.611 . S
C1025 C181 1.913 . S
C1033 C261 2.032 . S
C1057 C221 0.701 . S
C1065 C301 0.571 . S
C1089 C341 0.656 . S
C1097 C501 0.593 . S
C1121 C541 0.687 . S
C1129 C381 0.716 . S
C1153 C421 0.578 . S
C1161 C581 0.597 . S
C1185 C621 1.583 . S
C1193 C461 1.524 . S
C1217 C781 0.773 . S
C1225 C661 0.738 . S
C1249 C861 1.494 . S
C1257 C701 1.795 . S
C1281 C741 1.881 . S
C1289 C901 1.979 . S
C1313 C821 1.934 . S
C1321 C941 1.962 . S
C1345 C895 2.271 . S
C1353 C15 2.243 . S
C1377 C655 1.907 . S
C1385 C55 1.794 . S
C1409 C95 2.247 . S
C1417 C935 2.211 . S
C1441 C122 2.278 . S
C1449 C842 2.044 . S
C1473 C722 2.187 . S
C1481 C162 2.215 . S
C1505 C215 1.774 . S
C1513 C775 1.861 . S
C1537 C255 2.199 . S
C1545 C815 2.247 . S
C1569 C695 2.077 . S
C1577 C282 2.285 . S
C1601 C535 1.888 . S
C1609 C322 1.831 . S
C1633 C362 1.819 . S
C1641 C562 1.821 . S
C1665 C415 2.214 . S
C1673 C602 2.033 . S
C1697 C482 2.298 . S
C1705 C442 2.029 . S
C1729 C295 2.157 . S
C1737 C575 2.084 . S
C1761 C615 2.914 . S
C1769 C175 3.084 . S
C1793 C202 2.082 . S
C1801 C495 2.171 . S
C1825 C522 1.712 . S
C1833 C242 1.750 . S
C1857 C402 2.147 . S
C1865 C42 2.044 . S
C1889 C455 2.995 . S
C1897 C82 3.207 . S
C1921 C135 2.167 . S
C1929 C335 2.121 . S
C1953 C2 1.741 . S
C1961 C375 1.694 . S
C1985 C855 2.964 . S
C1993 C802 3.203 . S
C2017 C682 3.077 . S
C2025 C882 3.152 . S
C2049 C642 1.640 . S
C2057 C735 1.692 . S
C2081 C922 1.676 . S
C2089 C762 1.649 . S
