# Generated by pormake.
# Topology crs, (6)-cn, num edge types: 1
# Building blocks:
#     Node 0, Type 0, BuildingBlock: CIFDUS_clean_sbu_1, # of connection points: 6
#     Node 1, Type 0, BuildingBlock: CIFDUS_clean_sbu_1, # of connection points: 6
#     Node 2, Type 0, BuildingBlock: CIFDUS_clean_sbu_1, # of connection points: 6
#     Node 3, Type 0, BuildingBlock: CIFDUS_clean_sbu_1, # of connection points: 6
#     Node 4, Type 0, BuildingBlock: CIFDUS_clean_sbu_1, # of connection points: 6
#     Node 5, Type 0, BuildingBlock: CIFDUS_clean_sbu_1, # of connection points: 6
#     Node 6, Type 0, BuildingBlock: CIFDUS_clean_sbu_1, # of connection points: 6
#     Node 7, Type 0, BuildingBlock: CIFDUS_clean_sbu_1, # of connection points: 6
#     Node 8, Type 0, BuildingBlock: CIFDUS_clean_sbu_1, # of connection points: 6
#     Node 9, Type 0, BuildingBlock: CIFDUS_clean_sbu_1, # of connection points: 6
#     Node 10, Type 0, BuildingBlock: CIFDUS_clean_sbu_1, # of connection points: 6
#     Node 11, Type 0, BuildingBlock: CIFDUS_clean_sbu_1, # of connection points: 6
#     Node 12, Type 0, BuildingBlock: CIFDUS_clean_sbu_1, # of connection points: 6
#     Node 13, Type 0, BuildingBlock: CIFDUS_clean_sbu_1, # of connection points: 6
#     Node 14, Type 0, BuildingBlock: CIFDUS_clean_sbu_1, # of connection points: 6
#     Node 15, Type 0, BuildingBlock: CIFDUS_clean_sbu_1, # of connection points: 6
#     Edge 16, Type (0, 0), BuildingBlock: OJICUG_clean_linker_0, # of connection points: 2
#     Edge 17, Type (0, 0), BuildingBlock: OJICUG_clean_linker_0, # of connection points: 2
#     Edge 18, Type (0, 0), BuildingBlock: OJICUG_clean_linker_0, # of connection points: 2
#     Edge 19, Type (0, 0), BuildingBlock: OJICUG_clean_linker_0, # of connection points: 2
#     Edge 20, Type (0, 0), BuildingBlock: OJICUG_clean_linker_0, # of connection points: 2
#     Edge 21, Type (0, 0), BuildingBlock: OJICUG_clean_linker_0, # of connection points: 2
#     Edge 22, Type (0, 0), BuildingBlock: OJICUG_clean_linker_0, # of connection points: 2
#     Edge 23, Type (0, 0), BuildingBlock: OJICUG_clean_linker_0, # of connection points: 2
#     Edge 24, Type (0, 0), BuildingBlock: OJICUG_clean_linker_0, # of connection points: 2
#     Edge 25, Type (0, 0), BuildingBlock: OJICUG_clean_linker_0, # of connection points: 2
#     Edge 26, Type (0, 0), BuildingBlock: OJICUG_clean_linker_0, # of connection points: 2
#     Edge 27, Type (0, 0), BuildingBlock: OJICUG_clean_linker_0, # of connection points: 2
#     Edge 28, Type (0, 0), BuildingBlock: OJICUG_clean_linker_0, # of connection points: 2
#     Edge 29, Type (0, 0), BuildingBlock: OJICUG_clean_linker_0, # of connection points: 2
#     Edge 30, Type (0, 0), BuildingBlock: OJICUG_clean_linker_0, # of connection points: 2
#     Edge 31, Type (0, 0), BuildingBlock: OJICUG_clean_linker_0, # of connection points: 2
#     Edge 32, Type (0, 0), BuildingBlock: OJICUG_clean_linker_0, # of connection points: 2
#     Edge 33, Type (0, 0), BuildingBlock: OJICUG_clean_linker_0, # of connection points: 2
#     Edge 34, Type (0, 0), BuildingBlock: OJICUG_clean_linker_0, # of connection points: 2
#     Edge 35, Type (0, 0), BuildingBlock: OJICUG_clean_linker_0, # of connection points: 2
#     Edge 36, Type (0, 0), BuildingBlock: OJICUG_clean_linker_0, # of connection points: 2
#     Edge 37, Type (0, 0), BuildingBlock: OJICUG_clean_linker_0, # of connection points: 2
#     Edge 38, Type (0, 0), BuildingBlock: OJICUG_clean_linker_0, # of connection points: 2
#     Edge 39, Type (0, 0), BuildingBlock: OJICUG_clean_linker_0, # of connection points: 2
#     Edge 40, Type (0, 0), BuildingBlock: OJICUG_clean_linker_0, # of connection points: 2
#     Edge 41, Type (0, 0), BuildingBlock: OJICUG_clean_linker_0, # of connection points: 2
#     Edge 42, Type (0, 0), BuildingBlock: OJICUG_clean_linker_0, # of connection points: 2
#     Edge 43, Type (0, 0), BuildingBlock: OJICUG_clean_linker_0, # of connection points: 2
#     Edge 44, Type (0, 0), BuildingBlock: OJICUG_clean_linker_0, # of connection points: 2
#     Edge 45, Type (0, 0), BuildingBlock: OJICUG_clean_linker_0, # of connection points: 2
#     Edge 46, Type (0, 0), BuildingBlock: OJICUG_clean_linker_0, # of connection points: 2
#     Edge 47, Type (0, 0), BuildingBlock: OJICUG_clean_linker_0, # of connection points: 2
#     Edge 48, Type (0, 0), BuildingBlock: OJICUG_clean_linker_0, # of connection points: 2
#     Edge 49, Type (0, 0), BuildingBlock: OJICUG_clean_linker_0, # of connection points: 2
#     Edge 50, Type (0, 0), BuildingBlock: OJICUG_clean_linker_0, # of connection points: 2
#     Edge 51, Type (0, 0), BuildingBlock: OJICUG_clean_linker_0, # of connection points: 2
#     Edge 52, Type (0, 0), BuildingBlock: OJICUG_clean_linker_0, # of connection points: 2
#     Edge 53, Type (0, 0), BuildingBlock: OJICUG_clean_linker_0, # of connection points: 2
#     Edge 54, Type (0, 0), BuildingBlock: OJICUG_clean_linker_0, # of connection points: 2
#     Edge 55, Type (0, 0), BuildingBlock: OJICUG_clean_linker_0, # of connection points: 2
#     Edge 56, Type (0, 0), BuildingBlock: OJICUG_clean_linker_0, # of connection points: 2
#     Edge 57, Type (0, 0), BuildingBlock: OJICUG_clean_linker_0, # of connection points: 2
#     Edge 58, Type (0, 0), BuildingBlock: OJICUG_clean_linker_0, # of connection points: 2
#     Edge 59, Type (0, 0), BuildingBlock: OJICUG_clean_linker_0, # of connection points: 2
#     Edge 60, Type (0, 0), BuildingBlock: OJICUG_clean_linker_0, # of connection points: 2
#     Edge 61, Type (0, 0), BuildingBlock: OJICUG_clean_linker_0, # of connection points: 2
#     Edge 62, Type (0, 0), BuildingBlock: OJICUG_clean_linker_0, # of connection points: 2
#     Edge 63, Type (0, 0), BuildingBlock: OJICUG_clean_linker_0, # of connection points: 2
# Relax obj value: 0.276
# Max RMSD: 0.234
# Mean RMSD: 0.228
data_MOF--net-crs--node1-CIFDUS_clean_sbu_1--edge1-OJICUG_clean_linker_0
_symmetry_space_group_name_H-M    P1
_symmetry_Int_Tables_number       1
_symmetry_cell_setting            triclinic
loop_
_symmetry_equiv_pos_as_xyz
'x, y, z'
_cell_length_a     30.007608
_cell_length_b     31.368902
_cell_length_c     30.468058
_cell_angle_alpha  90.777047
_cell_angle_beta   88.225795
_cell_angle_gamma 86.658711
loop_
_atom_site_label
_atom_site_type_symbol
_atom_site_fract_x
_atom_site_fract_y
_atom_site_fract_z
_atom_type_partial_charge
O0 O 0.94855 0.01042 0.98433 0.0
Mn1 Mn 0.00759 -0.00671 0.01574 0.0
O2 O 0.89238 -0.00063 0.03234 0.0
Mn3 Mn 0.92811 0.9754 0.07503 0.0
O4 O 0.06661 0.97612 0.04723 0.0
O5 O 0.03733 0.98399 0.95405 0.0
Mn6 Mn 0.08704 0.01122 0.9567 0.0
O7 O 0.02367 0.05896 0.01862 0.0
O8 O 0.12279 0.98717 0.99926 0.0
O9 O 0.99129 0.92767 0.01283 0.0
O10 O 0.94318 0.91835 0.069 0.0
O11 O 0.08955 -0.01065 0.90174 0.0
O12 O 0.07201 0.06824 0.96264 0.0
C13 C 0.96407 0.01193 0.11779 0.0
C14 C 0.90677 0.01105 0.99489 0.0
C15 C 0.10839 0.9754 0.03666 0.0
C16 C 0.05151 0.97484 0.91366 0.0
C17 C 0.0468 0.08323 0.99388 0.0
C18 C 0.96808 0.90339 0.0375 0.0
O19 O 0.97788 0.00258 0.07736 0.0
O20 O 0.92604 -0.00245 0.12996 0.0
O21 O 0.0665 0.25145 0.20684 0.0
Mn22 Mn 0.02405 0.23946 0.26 0.0
O23 O 0.02409 0.26026 0.14741 0.0
Mn24 Mn 0.97362 0.23759 0.17195 0.0
O25 O 0.98241 0.22919 0.31427 0.0
O26 O 0.07721 0.21911 0.29426 0.0
Mn27 Mn 0.07916 0.25022 0.3425 0.0
O28 O 0.02757 0.30297 0.28195 0.0
O29 O 0.02455 0.24314 0.37239 0.0
O30 O 0.02001 0.17651 0.23722 0.0
O31 O 0.97788 0.17916 0.17704 0.0
O32 O 0.12672 0.21018 0.34409 0.0
O33 O 0.08728 0.30472 0.32344 0.0
C34 C 0.93399 0.2792 0.21618 0.0
C35 C 0.06133 0.26113 0.16641 0.0
C36 C 0.98725 0.23453 0.35583 0.0
C37 C 0.11172 0.19682 0.30733 0.0
C38 C 0.0564 0.32376 0.30238 0.0
C39 C 1.00124 0.15875 0.2049 0.0
O40 O 0.9705 0.25831 0.22589 0.0
O41 O 0.92051 0.27051 0.17731 0.0
O42 O 0.76235 0.22429 0.58115 0.0
Mn43 Mn 0.76084 0.24489 0.51612 0.0
O44 O 0.81068 0.16672 0.58158 0.0
Mn45 Mn 0.81023 0.15566 0.52178 0.0
O46 O 0.75925 0.26543 0.45109 0.0
O47 O 0.70773 0.28386 0.53465 0.0
Mn48 Mn 0.71156 0.33412 0.51042 0.0
O49 O 0.80327 0.29148 0.53158 0.0
O50 O 0.71065 0.32281 0.45071 0.0
O51 O 0.7185 0.19826 0.5005 0.0
O52 O 0.75794 0.13497 0.50091 0.0
O53 O 0.65969 0.33776 0.54493 0.0
O54 O 0.76408 0.35486 0.53067 0.0
C55 C 0.85073 0.1914 0.4783 0.0
C56 C 0.78575 0.19568 0.60135 0.0
C57 C 0.73556 0.29386 0.43091 0.0
C58 C 0.67112 0.2986 0.55414 0.0
C59 C 0.79997 0.33212 0.53688 0.0
C60 C 0.72204 0.15768 0.49465 0.0
O61 O 0.81401 0.20598 0.49768 0.0
O62 O 0.86233 0.15231 0.48761 0.0
O63 O 0.74155 0.94029 0.78707 0.0
Mn64 Mn 0.74856 0.00375 0.76736 0.0
O65 O 0.68064 0.93998 0.83139 0.0
Mn66 Mn 0.68329 -0.00339 0.84723 0.0
O67 O 0.75556 0.06735 0.74841 0.0
O68 O 0.80617 0.98311 0.73649 0.0
Mn69 Mn 0.81457 0.01311 0.68901 0.0
O70 O 0.71463 -0.00615 0.71024 0.0
O71 O 0.8197 0.06799 0.70943 0.0
O72 O 0.78266 0.01451 0.82428 0.0
O73 O 0.73215 0.01002 0.88022 0.0
O74 O 0.8622 0.97314 0.6902 0.0
O75 O 0.76465 0.00447 0.65512 0.0
C76 C 0.65427 0.04581 0.80744 0.0
C77 C 0.71264 0.92037 0.80977 0.0
C78 C 0.78682 0.08752 0.72971 0.0
C79 C 0.84208 0.96035 0.72535 0.0
C80 C 0.72521 -0.00304 0.66923 0.0
C81 C 0.77168 0.01602 0.86541 0.0
O82 O 0.69088 0.02371 0.79784 0.0
O83 O 0.63432 0.03454 0.84334 0.0
O84 O 0.56579 0.75102 0.20662 0.0
Mn85 Mn 0.52344 0.73898 0.25983 0.0
O86 O 0.52324 0.76013 0.14733 0.0
Mn87 Mn 0.4727 0.73768 0.17197 0.0
O88 O 0.48189 0.72865 0.31415 0.0
O89 O 0.57664 0.71819 0.29384 0.0
Mn90 Mn 0.57882 0.74909 0.34219 0.0
O91 O 0.52734 0.80238 0.28206 0.0
O92 O 0.52427 0.74213 0.37222 0.0
O93 O 0.51907 0.67617 0.23677 0.0
O94 O 0.47661 0.67922 0.17683 0.0
O95 O 0.62624 0.70893 0.34358 0.0
O96 O 0.5872 0.80361 0.32338 0.0
C97 C 0.4334 0.77936 0.21637 0.0
C98 C 0.56055 0.7608 0.16623 0.0
C99 C 0.48687 0.73377 0.35572 0.0
C100 C 0.61114 0.69577 0.30678 0.0
C101 C 0.55637 0.82291 0.30248 0.0
C102 C 0.50005 0.65862 0.20449 0.0
O103 O 0.46984 0.75827 0.22597 0.0
O104 O 0.41977 0.77082 0.17753 0.0
O105 O 0.26226 0.72408 0.58124 0.0
Mn106 Mn 0.26084 0.74492 0.51631 0.0
O107 O 0.31 0.66605 0.58137 0.0
Mn108 Mn 0.30942 0.65528 0.52152 0.0
O109 O 0.25931 0.76573 0.45137 0.0
O110 O 0.2081 0.78426 0.53505 0.0
Mn111 Mn 0.21236 0.8346 0.51112 0.0
O112 O 0.30378 0.79106 0.53187 0.0
O113 O 0.21134 0.82362 0.45135 0.0
O114 O 0.21798 0.69875 0.50058 0.0
O115 O 0.25691 0.63516 0.50058 0.0
O116 O 0.16052 0.83844 0.54567 0.0
O117 O 0.26511 0.85474 0.53147 0.0
C118 C 0.35022 0.69087 0.47818 0.0
C119 C 0.2854 0.69516 0.60129 0.0
C120 C 0.2359 0.79451 0.43138 0.0
C121 C 0.17162 0.79916 0.55464 0.0
C122 C 0.30085 0.83168 0.53744 0.0
C123 C 0.22116 0.65819 0.49451 0.0
O124 O 0.31363 0.70565 0.49766 0.0
O125 O 0.3615 0.65167 0.4873 0.0
O126 O 0.24087 0.43947 0.78643 0.0
Mn127 Mn 0.24798 0.50295 0.76683 0.0
O128 O 0.17997 0.4392 0.83079 0.0
Mn129 Mn 0.18278 0.49579 0.84677 0.0
O130 O 0.25511 0.56657 0.74804 0.0
O131 O 0.30546 0.48222 0.73576 0.0
Mn132 Mn 0.31382 0.51243 0.68841 0.0
O133 O 0.21387 0.49332 0.70977 0.0
O134 O 0.31925 0.56718 0.70907 0.0
O135 O 0.28223 0.51347 0.82372 0.0
O136 O 0.23177 0.50897 0.87971 0.0
O137 O 0.36134 0.47233 0.68925 0.0
O138 O 0.26375 0.50419 0.6546 0.0
C139 C 0.15389 0.54518 0.80711 0.0
C140 C 0.21196 0.41956 0.80916 0.0
C141 C 0.28643 0.58673 0.72941 0.0
C142 C 0.34131 0.45945 0.72441 0.0
C143 C 0.22432 0.4967 0.66876 0.0
C144 C 0.27131 0.5149 0.86486 0.0
O145 O 0.19041 0.52297 0.79746 0.0
O146 O 0.13392 0.5339 0.84299 0.0
O147 O 0.00411 0.51958 0.57642 0.0
Mn148 Mn 0.01046 0.49539 0.51201 0.0
O149 O 0.96285 0.58184 0.57303 0.0
Mn150 Mn 0.96609 0.58738 0.51269 0.0
O151 O 0.01673 0.47112 0.44761 0.0
O152 O 0.06033 0.45548 0.53161 0.0
Mn153 Mn 0.05505 0.40345 0.5113 0.0
O154 O 0.96421 0.45169 0.52767 0.0
O155 O 0.05816 0.40896 0.45096 0.0
O156 O 0.05677 0.53907 0.49649 0.0
O157 O 0.02047 0.6033 0.48954 0.0
O158 O 0.10651 0.40148 0.5433 0.0
O159 O 1.00075 0.38756 0.53469 0.0
C160 C 0.92449 0.5492 0.47427 0.0
C161 C 0.98255 0.55208 0.59455 0.0
C162 C 0.03829 0.43862 0.42946 0.0
C163 C 0.0964 0.44173 0.54992 0.0
C164 C 0.96518 0.41199 0.53714 0.0
C165 C 0.05601 0.57882 0.48731 0.0
O166 O 0.96064 0.53536 0.4924 0.0
O167 O 0.91459 0.5895 0.48077 0.0
O168 O 0.26832 0.21573 0.07408 0.0
Mn169 Mn 0.2574 0.24322 0.01303 0.0
O170 O 0.26661 0.14434 0.06295 0.0
Mn171 Mn 0.25399 0.14348 1.00366 0.0
O172 O 0.24654 0.27068 0.95194 0.0
O173 O 0.23725 0.29746 0.0429 0.0
Mn174 Mn 0.26042 0.34308 0.02231 0.0
O175 O 0.32397 0.26274 0.01038 0.0
O176 O 0.24795 0.34209 0.96299 0.0
O177 O 0.19083 0.2238 0.01594 0.0
O178 O 0.19413 0.15464 0.99329 0.0
O179 O 0.21601 0.3608 0.06442 0.0
O180 O 0.32028 0.33202 0.0328 0.0
C181 C 0.30432 0.16572 0.95832 0.0
C182 C 0.2703 0.17709 0.0877 0.0
C183 C 0.24446 0.3093 0.93827 0.0
C184 C 0.21014 0.32048 0.06751 0.0
C185 C 0.34239 0.29737 0.02147 0.0
C186 C 0.17218 0.18928 1.00494 0.0
O187 O 0.27753 0.18896 0.98309 0.0
O188 O 0.2981 0.12545 0.96142 0.0
O189 O 0.26319 0.9213 0.28193 0.0
Mn190 Mn 0.26976 0.98457 0.26178 0.0
O191 O 0.1998 0.92111 0.32218 0.0
Mn192 Mn 0.20531 0.97626 0.34162 0.0
O193 O 0.27629 0.04769 0.24087 0.0
O194 O 0.32687 0.96429 0.23052 0.0
Mn195 Mn 0.33365 -0.00941 0.18058 0.0
O196 O 0.23456 0.97298 0.20573 0.0
O197 O 0.33641 0.04748 0.19541 0.0
O198 O 0.30485 -0.00475 0.31797 0.0
O199 O 0.25602 0.98525 0.37427 0.0
O200 O 0.38269 0.95265 0.18438 0.0
O201 O 0.28413 0.9766 0.14884 0.0
C202 C 0.17705 0.02846 0.30491 0.0
C203 C 0.23233 0.90135 0.30158 0.0
C204 C 0.30472 0.06733 0.21727 0.0
C205 C 0.36327 0.94196 0.22075 0.0
C206 C 0.24484 0.97083 0.16446 0.0
C207 C 0.29519 -0.00746 0.3592 0.0
O208 O 0.21276 0.00554 0.29349 0.0
O209 O 0.15765 0.01625 0.3407 0.0
O210 O 0.53617 0.2591 0.7153 0.0
Mn211 Mn 0.49338 0.24791 0.76839 0.0
O212 O 0.49564 0.24573 0.65587 0.0
Mn213 Mn 0.44034 0.23813 0.6843 0.0
O214 O 0.44982 0.23503 0.82043 0.0
O215 O 0.54618 0.22883 0.8034 0.0
Mn216 Mn 0.54184 0.24877 0.85762 0.0
O217 O 0.49664 0.31054 0.79216 0.0
O218 O 0.49103 0.22545 0.8806 0.0
O219 O 0.49067 0.18471 0.74532 0.0
O220 O 0.43207 0.1833 0.70231 0.0
O221 O 0.59519 0.21611 0.85276 0.0
O222 O 0.53723 0.3073 0.85337 0.0
C223 C 0.40685 0.29099 0.7197 0.0
C224 C 0.53242 0.25426 0.67354 0.0
C225 C 0.45423 0.22474 0.86081 0.0
C226 C 0.58256 0.20792 0.81347 0.0
C227 C 0.51446 0.32796 0.82523 0.0
C228 C 0.46251 0.16409 0.72381 0.0
O229 O 0.44104 0.26851 0.73315 0.0
O230 O 0.39275 0.27817 0.68235 0.0
O231 O 0.03658 0.75944 0.71563 0.0
Mn232 Mn 0.99382 0.74821 0.76872 0.0
O233 O 0.99585 0.74663 0.65621 0.0
Mn234 Mn 0.94058 0.73916 0.68472 0.0
O235 O 0.95029 0.73533 0.82078 0.0
O236 O 0.04663 0.72865 0.80354 0.0
Mn237 Mn 0.0425 0.74846 0.85782 0.0
O238 O 0.99747 0.81069 0.79279 0.0
O239 O 0.99159 0.7254 0.88084 0.0
O240 O 0.9907 0.68514 0.74536 0.0
O241 O 0.93199 0.68431 0.70244 0.0
O242 O 0.09566 0.71554 0.8528 0.0
O243 O 0.03829 0.80702 0.85381 0.0
C244 C 0.90733 0.79194 0.72038 0.0
C245 C 0.03273 0.75487 0.67386 0.0
C246 C 0.95473 0.72492 0.86112 0.0
C247 C 0.08292 0.70753 0.81352 0.0
C248 C 0.01552 0.82789 0.82584 0.0
C249 C 0.96235 0.66481 0.7238 0.0
O250 O 0.94148 0.7693 0.73371 0.0
O251 O 0.89315 0.77935 0.68297 0.0
O252 O 0.76287 0.42055 0.28138 0.0
Mn253 Mn 0.76925 0.48383 0.26119 0.0
O254 O 0.69948 0.42022 0.32166 0.0
Mn255 Mn 0.70465 0.47548 0.34095 0.0
O256 O 0.77559 0.54697 0.24027 0.0
O257 O 0.82648 0.46372 0.23004 0.0
Mn258 Mn 0.8332 0.49 0.18007 0.0
O259 O 0.7342 0.47206 0.20509 0.0
O260 O 0.83572 0.54693 0.19484 0.0
O261 O 0.80416 0.49473 0.31745 0.0
O262 O 0.7552 0.48487 0.37368 0.0
O263 O 0.88239 0.45228 0.18394 0.0
O264 O 0.78382 0.47578 0.14825 0.0
C265 C 0.67631 0.52748 0.304 0.0
C266 C 0.73208 0.40054 0.30107 0.0
C267 C 0.80399 0.56669 0.21672 0.0
C268 C 0.86299 0.44154 0.22031 0.0
C269 C 0.74455 0.46989 0.16384 0.0
C270 C 0.79437 0.49223 0.35868 0.0
O271 O 0.71211 0.50462 0.29274 0.0
O272 O 0.65684 0.51529 0.33975 0.0
O273 O 0.76796 0.71559 0.07405 0.0
Mn274 Mn 0.7572 0.74328 0.01308 0.0
O275 O 0.76622 0.64425 0.06261 0.0
Mn276 Mn 0.75401 0.64358 1.00322 0.0
O277 O 0.7465 0.77093 0.95206 0.0
O278 O 0.73674 0.79737 0.04308 0.0
Mn279 Mn 0.75994 0.84312 0.02282 0.0
O280 O 0.8237 0.76302 0.01075 0.0
O281 O 0.74784 0.84231 0.96342 0.0
O282 O 0.69067 0.72366 0.01566 0.0
O283 O 0.69423 0.65467 0.99248 0.0
O284 O 0.71526 0.86063 0.06474 0.0
O285 O 0.81972 0.83216 0.03367 0.0
C286 C 0.80457 0.666 0.9583 0.0
C287 C 0.76983 0.6769 0.08752 0.0
C288 C 0.74449 0.8096 0.93854 0.0
C289 C 0.70946 0.82027 0.06762 0.0
C290 C 0.84198 0.79763 0.02219 0.0
C291 C 0.67215 0.68917 1.00429 0.0
O292 O 0.77763 0.68915 0.983 0.0
O293 O 0.79837 0.62572 0.9612 0.0
O294 O 0.50541 0.01844 0.57706 0.0
Mn295 Mn 0.51175 -0.00579 0.51266 0.0
O296 O 0.46425 0.08075 0.5736 0.0
Mn297 Mn 0.46745 0.08621 0.51327 0.0
O298 O 0.51794 0.96993 0.44827 0.0
O299 O 0.56162 0.95431 0.53222 0.0
Mn300 Mn 0.55639 0.90228 0.5119 0.0
O301 O 0.46553 0.95051 0.52838 0.0
O302 O 0.55945 0.90782 0.45155 0.0
O303 O 0.55808 0.03786 0.49708 0.0
O304 O 0.52179 0.10207 0.49002 0.0
O305 O 0.60789 0.90039 0.54387 0.0
O306 O 0.50208 0.88636 0.53529 0.0
C307 C 0.42578 0.04809 0.4749 0.0
C308 C 0.4839 0.05099 0.59515 0.0
C309 C 0.5395 0.93746 0.43008 0.0
C310 C 0.59773 0.94063 0.55049 0.0
C311 C 0.46651 0.91079 0.5378 0.0
C312 C 0.55732 0.07759 0.4878 0.0
O313 O 0.4619 0.03417 0.49304 0.0
O314 O 0.41594 0.08841 0.48138 0.0
O315 O 0.44846 0.50978 0.98359 0.0
Mn316 Mn 0.50754 0.49276 0.01495 0.0
O317 O 0.39245 0.49778 0.03148 0.0
Mn318 Mn 0.4284 0.47435 0.0743 0.0
O319 O 0.56656 0.47562 0.04647 0.0
O320 O 0.53725 0.48358 0.95326 0.0
Mn321 Mn 0.58726 0.51034 0.95597 0.0
O322 O 0.52361 0.55843 0.01777 0.0
O323 O 0.62285 0.48575 0.99834 0.0
O324 O 0.49141 0.42709 0.01198 0.0
O325 O 0.44408 0.4174 0.06864 0.0
O326 O 0.58939 0.4887 0.90089 0.0
O327 O 0.57274 0.56743 0.96233 0.0
C328 C 0.4638 0.51141 0.11698 0.0
C329 C 0.40669 0.50985 0.99411 0.0
C330 C 0.60835 0.47438 0.03584 0.0
C331 C 0.55123 0.47446 0.91281 0.0
C332 C 0.54722 0.58254 0.9933 0.0
C333 C 0.46872 0.4026 0.03689 0.0
O334 O 0.47781 0.50207 0.07659 0.0
O335 O 0.42593 0.49669 0.12913 0.0
C336 C 0.96447 0.0507 0.1894 0.0
C337 C 0.98584 0.04065 0.14831 0.0
H338 H 0.95405 0.0971 0.24143 0.0
C339 C 0.0231 0.06278 0.13547 0.0
H340 H 0.93645 0.03332 0.20119 0.0
C341 C 0.03394 0.09882 0.15974 0.0
C342 C 0.00748 0.11279 0.19662 0.0
H343 H 0.04128 0.05439 0.1051 0.0
H344 H 0.05964 0.1186 0.14711 0.0
C345 C 0.97498 0.08679 0.21319 0.0
C346 C 0.91659 0.23242 0.46132 0.0
C347 C 0.87787 0.21456 0.44681 0.0
H348 H 0.98144 0.25284 0.44409 0.0
C349 C 0.87317 0.20726 0.40169 0.0
H350 H 0.92133 0.23728 0.49611 0.0
C351 C 0.90787 0.21543 0.37169 0.0
C352 C 0.94817 0.23046 0.38648 0.0
H353 H 0.84398 0.19239 0.38999 0.0
H354 H 0.90398 0.20783 0.33729 0.0
C355 C 0.95132 0.2405 0.43148 0.0
C356 C 0.81649 0.15643 0.70945 0.0
C357 C 0.77896 0.1327 0.71799 0.0
H358 H 0.84801 0.19707 0.66364 0.0
C359 C 0.73862 0.145 0.69812 0.0
H360 H 0.84787 0.14786 0.72467 0.0
C361 C 0.73854 0.17393 0.66355 0.0
C362 C 0.77883 0.19017 0.64875 0.0
H363 H 0.70924 0.1271 0.70367 0.0
H364 H 0.70898 0.17777 0.64408 0.0
C365 C 0.81662 0.18465 0.67445 0.0
C366 C 0.88537 0.01788 0.9162 0.0
C367 C 0.87338 0.02076 0.96117 0.0
H368 H 0.86256 0.01409 0.85043 0.0
C369 C 0.82802 0.02738 0.97375 0.0
H370 H 0.92003 0.01264 0.90543 0.0
C371 C 0.79517 0.02803 0.94238 0.0
C372 C 0.80685 0.0221 0.8976 0.0
H373 H 0.81764 0.03019 0.00809 0.0
H374 H 0.7605 0.03152 0.9535 0.0
C375 C 0.85238 0.01853 0.88468 0.0
C376 C 0.18696 0.95762 0.0573 0.0
C377 C 0.14184 0.96549 0.07024 0.0
H378 H 0.2547 0.95263 0.07682 0.0
C379 C 0.13037 0.96959 0.11525 0.0
H380 H 0.19689 0.95382 0.02291 0.0
C381 C 0.16376 0.96904 0.14638 0.0
C382 C 0.20912 0.96435 0.13299 0.0
H383 H 0.09591 0.97582 0.12627 0.0
H384 H 0.15406 0.97455 0.18063 0.0
C385 C 0.22018 0.95706 0.08826 0.0
C386 C 0.07724 0.42474 0.35832 0.0
C387 C 0.03652 0.43079 0.38206 0.0
H388 H 0.11523 0.38563 0.31101 0.0
C389 C 0.99872 0.41196 0.36644 0.0
H390 H 0.10685 0.43887 0.37003 0.0
C391 C 0.00364 0.38077 0.33312 0.0
C392 C 0.0463 0.36889 0.31498 0.0
H393 H 0.96709 0.4159 0.38464 0.0
H394 H 0.97566 0.36143 0.32718 0.0
C395 C 0.08204 0.39408 0.32461 0.0
C396 C 0.60673 0.25527 0.57036 0.0
C397 C 0.64382 0.27547 0.58552 0.0
H398 H 0.5424 0.23269 0.58619 0.0
C399 C 0.64632 0.28482 0.63052 0.0
H400 H 0.60362 0.24881 0.53559 0.0
C401 C 0.61105 0.2762 0.65965 0.0
C402 C 0.57226 0.2588 0.64404 0.0
H403 H 0.67418 0.30149 0.64266 0.0
H404 H 0.6132 0.28536 0.69389 0.0
C405 C 0.57133 0.24687 0.59932 0.0
C406 C 0.689 0.85202 0.84066 0.0
C407 C 0.72361 0.8762 0.82385 0.0
H408 H 0.66893 0.81004 0.89169 0.0
C409 C 0.7676 0.86544 0.83592 0.0
H410 H 0.65475 0.85966 0.83193 0.0
C411 C 0.77565 0.83666 0.86972 0.0
C412 C 0.73986 0.81846 0.89175 0.0
H413 H 0.79483 0.88409 0.82475 0.0
H414 H 0.80891 0.83342 0.88266 0.0
C415 C 0.69705 0.8235 0.87484 0.0
C416 C 0.12955 0.32222 0.0861 0.0
C417 C 0.17257 0.30402 0.09219 0.0
H418 H 0.06025 0.32202 0.10449 0.0
C419 C 0.1792 0.27121 0.1225 0.0
H420 H 0.12398 0.34762 0.06279 0.0
C421 C 0.14298 0.25719 0.14712 0.0
C422 C 0.09977 0.27524 0.14076 0.0
H423 H 0.21238 0.25742 0.12811 0.0
H424 H 0.14864 0.23216 0.17083 0.0
C425 C 0.09327 0.3075 0.10975 0.0
C426 C 0.7032 0.33171 0.32276 0.0
C427 C 0.74043 0.35559 0.31341 0.0
H428 H 0.6726 0.29135 0.36947 0.0
C429 C 0.7811 0.3439 0.33297 0.0
H430 H 0.67157 0.33985 0.30782 0.0
C431 C 0.78184 0.31541 0.36793 0.0
C432 C 0.74189 0.29901 0.38341 0.0
H433 H 0.81025 0.36197 0.3268 0.0
H434 H 0.81165 0.31205 0.38709 0.0
C435 C 0.70374 0.30391 0.35811 0.0
C436 C 0.61307 0.97969 0.61932 0.0
C437 C 0.62652 0.96655 0.57656 0.0
H438 H 0.63408 -0.00061 0.68272 0.0
C439 C 0.67145 0.96814 0.56308 0.0
H440 H 0.57863 0.97786 0.63054 0.0
C441 C 0.70314 0.98032 0.59261 0.0
C442 C 0.69059 -0.00987 0.63659 0.0
H443 H 0.68249 0.95745 0.53034 0.0
H444 H 0.73785 0.9795 0.58158 0.0
C445 C 0.64495 -0.00874 0.64926 0.0
C446 C 0.99292 0.92381 0.8955 0.0
C447 C 0.03013 0.9461 0.88292 0.0
H448 H 0.95687 0.86769 0.88369 0.0
C449 C 0.05187 0.93612 0.842 0.0
H450 H 0.97445 0.93224 0.9257 0.0
C451 C 0.04177 0.89993 0.81816 0.0
C452 C 0.00933 0.87377 0.83455 0.0
H453 H 0.07986 0.95365 0.83039 0.0
H454 H 0.0629 0.88972 0.79002 0.0
C455 C 0.98255 0.8876 0.87125 0.0
C456 C 0.06285 0.15645 0.97186 0.0
C457 C 0.05526 0.12784 0.00624 0.0
H458 H 0.1078 0.20049 0.94448 0.0
C459 C 0.07581 0.1348 0.04622 0.0
H460 H 0.0476 0.15186 0.94049 0.0
C461 C 0.10961 0.16366 0.0489 0.0
C462 C 0.1237 0.18534 0.01133 0.0
H463 H 0.07196 0.11272 0.07259 0.0
H464 H 0.12965 0.16331 0.07792 0.0
C465 C 0.09746 0.18449 0.97408 0.0
C466 C 0.61687 0.57904 0.28016 0.0
C467 C 0.6626 0.56904 0.28557 0.0
H468 H 0.56421 0.62784 0.28328 0.0
C469 C 0.69175 0.60223 0.28776 0.0
H470 H 0.59358 0.5539 0.27997 0.0
C471 C 0.67497 0.64475 0.28829 0.0
C472 C 0.62873 0.65467 0.28749 0.0
H473 H 0.72674 0.59552 0.29409 0.0
H474 H 0.69772 0.66968 0.29408 0.0
C475 C 0.59999 0.62157 0.28132 0.0
C476 C 0.3429 0.89746 0.54493 0.0
C477 C 0.34197 0.85284 0.54691 0.0
H478 H 0.38329 0.95101 0.541 0.0
C479 C 0.38188 0.82824 0.55311 0.0
H480 H 0.31265 0.91735 0.54066 0.0
C481 C 0.42244 0.84751 0.55323 0.0
C482 C 0.42374 0.8917 0.54719 0.0
H483 H 0.38218 0.7938 0.55552 0.0
H484 H 0.45284 0.8274 0.55559 0.0
C485 C 0.38347 0.91675 0.54509 0.0
C486 C 0.07459 0.63506 0.78459 0.0
C487 C 0.10191 0.66934 0.78999 0.0
H488 H 0.07095 0.56728 0.78253 0.0
C489 C 0.14846 0.6615 0.78865 0.0
H490 H 0.0388 0.63953 0.78914 0.0
C491 C 0.167 0.61956 0.78748 0.0
C492 C 0.13918 0.5852 0.78642 0.0
H493 H 0.17011 0.68734 0.79442 0.0
H494 H 0.20215 0.61435 0.79371 0.0
C495 C 0.09317 0.59333 0.78184 0.0
C496 C 0.84162 0.39823 0.54356 0.0
C497 C 0.84088 0.35365 0.54631 0.0
H498 H 0.88181 0.4519 0.53898 0.0
C499 C 0.88081 0.32934 0.55324 0.0
H500 H 0.81134 0.4179 0.53871 0.0
C501 C 0.92125 0.3488 0.55332 0.0
C502 C 0.92242 0.39288 0.54652 0.0
H503 H 0.88123 0.29495 0.55626 0.0
H504 H 0.9517 0.32888 0.55628 0.0
C505 C 0.88209 0.41771 0.54369 0.0
C506 C 0.35021 0.86801 0.24203 0.0
C507 C 0.37821 0.90226 0.2419 0.0
H508 H 0.34664 0.80019 0.23669 0.0
C509 C 0.42429 0.89404 0.24588 0.0
H510 H 0.31499 0.87322 0.23617 0.0
C511 C 0.44264 0.8522 0.24374 0.0
C512 C 0.41504 0.81796 0.23957 0.0
H513 H 0.44662 0.91997 0.24426 0.0
H514 H 0.47835 0.84751 0.23866 0.0
C515 C 0.36853 0.82602 0.24156 0.0
C516 C 0.40044 0.40747 0.74796 0.0
C517 C 0.35479 0.41752 0.74216 0.0
H518 H 0.4532 0.3588 0.74454 0.0
C519 C 0.32574 0.38433 0.73888 0.0
H520 H 0.42367 0.43262 0.74895 0.0
C521 C 0.34261 0.34182 0.73772 0.0
C522 C 0.38882 0.33193 0.73907 0.0
H523 H 0.29082 0.39115 0.73229 0.0
H524 H 0.32 0.31695 0.73117 0.0
C525 C 0.4174 0.36497 0.74618 0.0
C526 C 0.10676 0.75636 0.57054 0.0
C527 C 0.14412 0.77603 0.58584 0.0
H528 H 0.04223 0.73422 0.58626 0.0
C529 C 0.14686 0.78485 0.63092 0.0
H530 H 0.10348 0.75033 0.53571 0.0
C531 C 0.11157 0.77625 0.66003 0.0
C532 C 0.07254 0.75938 0.64433 0.0
H533 H 0.17495 0.80111 0.64317 0.0
H534 H 0.11391 0.785 0.69436 0.0
C535 C 0.07135 0.74798 0.59948 0.0
C536 C 0.20331 0.83261 0.32338 0.0
C537 C 0.24059 0.8564 0.31394 0.0
H538 H 0.17273 0.79228 0.37013 0.0
C539 C 0.28129 0.84461 0.3334 0.0
H540 H 0.17166 0.84084 0.30853 0.0
C541 C 0.28206 0.81608 0.36833 0.0
C542 C 0.2421 0.79974 0.38388 0.0
H543 H 0.31048 0.86262 0.32718 0.0
H544 H 0.31192 0.81263 0.38741 0.0
C545 C 0.20388 0.80477 0.3587 0.0
C546 C 0.93722 0.59492 0.69963 0.0
C547 C 0.97275 0.61995 0.71037 0.0
H548 H 0.91318 0.55097 0.65291 0.0
C549 C 0.01566 0.60854 0.69256 0.0
H550 H 0.90386 0.60306 0.71296 0.0
C551 C 0.0211 0.57809 0.65857 0.0
C552 C 0.9836 0.55945 0.64205 0.0
H553 H 0.04349 0.62779 0.69942 0.0
H554 H 0.05297 0.57458 0.64075 0.0
C555 C 0.94257 0.56495 0.66533 0.0
C556 C 0.41653 0.7313 0.46137 0.0
C557 C 0.37755 0.71398 0.44682 0.0
H558 H 0.48157 0.75123 0.44415 0.0
C559 C 0.37261 0.70715 0.40166 0.0
H560 H 0.42146 0.73578 0.49618 0.0
C561 C 0.40732 0.71525 0.37163 0.0
C562 C 0.44784 0.72975 0.38643 0.0
H563 H 0.3432 0.6927 0.38992 0.0
H564 H 0.40322 0.70802 0.33718 0.0
C565 C 0.45126 0.73932 0.43151 0.0
C566 C 0.3275 0.13542 0.18504 0.0
C567 C 0.29329 0.11122 0.20262 0.0
H568 H 0.34653 0.1772 0.13342 0.0
C569 C 0.24906 0.12154 0.191 0.0
H570 H 0.36192 0.12807 0.19336 0.0
C571 C 0.24033 0.14997 0.15704 0.0
C572 C 0.27567 0.1683 0.13441 0.0
H573 H 0.22211 0.10282 0.20275 0.0
H574 H 0.20687 0.15289 0.14454 0.0
C575 C 0.31876 0.16364 0.15075 0.0
C576 C 0.88512 0.66301 0.93941 0.0
C577 C 0.84243 0.68217 0.93379 0.0
H578 H 0.95449 0.66236 0.92112 0.0
C579 C 0.83641 0.71565 0.90414 0.0
H580 H 0.89022 0.63706 0.96218 0.0
C581 C 0.87295 0.72951 0.87984 0.0
C582 C 0.91585 0.71059 0.8859 0.0
H583 H 0.80348 0.73016 0.89882 0.0
H584 H 0.8678 0.75516 0.85674 0.0
C585 C 0.9217 0.67753 0.91612 0.0
C586 C 0.23831 0.64435 0.698 0.0
C587 C 0.27867 0.63195 0.71779 0.0
H588 H 0.20864 0.67729 0.64409 0.0
C589 C 0.31624 0.65562 0.70924 0.0
H590 H 0.2089 0.62649 0.70355 0.0
C591 C 0.31637 0.6839 0.67429 0.0
C592 C 0.27853 0.68955 0.64867 0.0
H593 H 0.34763 0.64695 0.72439 0.0
H594 H 0.34777 0.69628 0.66345 0.0
C595 C 0.23823 0.67337 0.66351 0.0
C596 C 0.37599 -0.00161 0.37707 0.0
C597 C 0.33068 -0.0007 0.39094 0.0
H598 H 0.44282 0.01173 0.39414 0.0
C599 C 0.31934 0.00857 0.43529 0.0
H600 H 0.38596 -0.00936 0.34329 0.0
C601 C 0.35185 0.02043 0.46409 0.0
C602 C 0.39642 0.02226 0.44945 0.0
H603 H 0.28493 0.00918 0.44725 0.0
H604 H 0.3417 0.03072 0.49719 0.0
C605 C 0.40869 0.00969 0.40624 0.0
C606 C 0.90558 0.82381 0.98017 0.0
C607 C 0.89056 0.8017 0.01709 0.0
H608 H 0.94387 0.87487 0.95805 0.0
C609 C 0.91579 0.80219 0.05505 0.0
H610 H 0.88628 0.82449 0.95065 0.0
C611 C 0.95033 0.8302 0.05853 0.0
C612 C 0.95896 0.85904 0.02462 0.0
H613 H 0.90468 0.78588 0.08418 0.0
H614 H 0.96478 0.83439 0.09035 0.0
C615 C 0.93934 0.85257 0.98407 0.0
C616 C 0.6419 0.16049 0.4756 0.0
C617 C 0.68151 0.13618 0.48379 0.0
H618 H 0.57128 0.16085 0.46975 0.0
C619 C 0.6808 0.09156 0.4858 0.0
H620 H 0.64153 0.19492 0.473 0.0
C621 C 0.64048 0.07198 0.48373 0.0
C622 C 0.60028 0.09677 0.47969 0.0
H623 H 0.71088 0.07189 0.49154 0.0
H624 H 0.64066 0.03774 0.48798 0.0
C625 C 0.6016 0.14095 0.47358 0.0
C626 C 0.92425 0.39395 0.24543 0.0
C627 C 0.87813 0.40193 0.24152 0.0
H628 H 0.97854 0.34769 0.23818 0.0
C629 C 0.85032 0.36753 0.24172 0.0
H630 H 0.94641 0.42 0.24375 0.0
C631 C 0.86888 0.32562 0.24125 0.0
C632 C 0.91542 0.3178 0.23924 0.0
H633 H 0.81507 0.37255 0.23592 0.0
H634 H 0.84714 0.29965 0.23646 0.0
C635 C 0.94282 0.3522 0.24332 0.0
C636 C 0.10042 0.64227 0.47394 0.0
C637 C 0.09899 0.598 0.47929 0.0
H638 H 0.14056 0.6961 0.47406 0.0
C639 C 0.13914 0.57301 0.48268 0.0
H640 H 0.07013 0.66235 0.47063 0.0
C641 C 0.17956 0.59239 0.48486 0.0
C642 C 0.18043 0.63704 0.4836 0.0
H643 H 0.13924 0.53869 0.48632 0.0
H644 H 0.20961 0.57252 0.49007 0.0
C645 C 0.14083 0.66164 0.47606 0.0
C646 C 0.59333 0.09363 0.78216 0.0
C647 C 0.63938 0.08571 0.78665 0.0
H648 H 0.53877 0.13958 0.78952 0.0
C649 C 0.66703 0.12022 0.78756 0.0
H650 H 0.57126 0.06747 0.78295 0.0
C651 C 0.64829 0.16208 0.78868 0.0
C652 C 0.60172 0.16971 0.7901 0.0
H653 H 0.70221 0.11517 0.7937 0.0
H654 H 0.66982 0.18804 0.79435 0.0
C655 C 0.57456 0.13529 0.78486 0.0
C656 C 0.74832 0.62086 0.19045 0.0
C657 C 0.79252 0.6106 0.2022 0.0
H658 H 0.70624 0.65231 0.14397 0.0
C659 C 0.82673 0.63496 0.18488 0.0
H660 H 0.7214 0.602 0.202 0.0
C661 C 0.81804 0.66332 0.1507 0.0
C662 C 0.77501 0.66794 0.13421 0.0
H663 H 0.86113 0.62766 0.19331 0.0
H664 H 0.84583 0.67703 0.13354 0.0
C665 C 0.73965 0.64942 0.15661 0.0
C666 C 0.85045 0.52179 0.46336 0.0
C667 C 0.89511 0.52326 0.44892 0.0
H668 H 0.78361 0.51038 0.44637 0.0
C669 C 0.90763 0.50994 0.40599 0.0
H670 H 0.84012 0.53263 0.49624 0.0
C671 C 0.87508 0.49823 0.37684 0.0
C672 C 0.8297 0.49943 0.39048 0.0
H673 H 0.94185 0.51168 0.39404 0.0
H674 H 0.88524 0.4899 0.34324 0.0
C675 C 0.81809 0.50949 0.43461 0.0
C676 C 0.14396 0.49114 0.64908 0.0
C677 C 0.18953 0.4903 0.63618 0.0
H678 H 0.07758 0.47785 0.6305 0.0
C679 C 0.20183 0.48127 0.59199 0.0
H680 H 0.13327 0.4987 0.68272 0.0
C681 C 0.16999 0.46951 0.56241 0.0
C682 C 0.12516 0.46756 0.5761 0.0
H683 H 0.23647 0.48072 0.58077 0.0
H684 H 0.18087 0.45935 0.52946 0.0
C685 C 0.11194 0.47997 0.61913 0.0
C686 C 0.59253 0.80717 0.10959 0.0
C687 C 0.59898 0.77484 0.14053 0.0
H688 H 0.6233 0.84739 0.06278 0.0
C689 C 0.64217 0.75671 0.14685 0.0
H690 H 0.55952 0.82174 0.10437 0.0
C691 C 0.67842 0.77076 0.12229 0.0
C692 C 0.67183 0.80367 0.0921 0.0
H693 H 0.6478 0.73163 0.1705 0.0
H694 H 0.71159 0.75694 0.12791 0.0
C695 C 0.62883 0.82191 0.08601 0.0
C696 C 0.72001 0.45584 0.08765 0.0
C697 C 0.70889 0.4633 0.13233 0.0
H698 H 0.69683 0.45245 0.02227 0.0
C699 C 0.66351 0.46811 0.14565 0.0
H700 H 0.75454 0.45131 0.07628 0.0
C701 C 0.63018 0.46865 0.11447 0.0
C702 C 0.64172 0.46441 0.06948 0.0
H703 H 0.65377 0.47375 0.17987 0.0
H704 H 0.59571 0.475 0.12543 0.0
C705 C 0.68684 0.45637 0.05663 0.0
C706 C 0.44006 0.35185 0.98338 0.0
C707 C 0.4596 0.35826 0.02397 0.0
H708 H 0.38691 0.32404 0.94988 0.0
C709 C 0.45088 0.32939 0.05783 0.0
H710 H 0.44483 0.37411 0.95737 0.0
C711 C 0.41623 0.30151 0.05429 0.0
C712 C 0.391 0.30121 0.01633 0.0
H713 H 0.46534 0.3335 0.08965 0.0
H714 H 0.40504 0.28522 0.0834 0.0
C715 C 0.40617 0.32324 0.97942 0.0
C716 C 0.17559 0.14573 0.28901 0.0
C717 C 0.12934 0.15562 0.28829 0.0
H718 H 0.22742 0.09655 0.29473 0.0
C719 C 0.1006 0.12248 0.28235 0.0
H720 H 0.19833 0.1707 0.29464 0.0
C721 C 0.11751 0.07996 0.28123 0.0
C722 C 0.16326 0.07001 0.2865 0.0
H723 H 0.06482 0.12873 0.28441 0.0
H724 H 0.09422 0.05482 0.28119 0.0
C725 C 0.1924 0.10322 0.28852 0.0
C726 C 0.1967 0.32295 0.87475 0.0
C727 C 0.23961 0.31799 0.89147 0.0
H728 H 0.15417 0.35888 0.83189 0.0
C729 C 0.27528 0.33612 0.86916 0.0
H730 H 0.16869 0.30954 0.89181 0.0
C731 C 0.26706 0.36473 0.83526 0.0
C732 C 0.22299 0.37543 0.82336 0.0
H733 H 0.30861 0.33293 0.88195 0.0
H734 H 0.29424 0.38334 0.82387 0.0
C735 C 0.18848 0.3513 0.84046 0.0
C736 C 0.38483 0.16279 0.93927 0.0
C737 C 0.34208 0.1818 0.93359 0.0
H738 H 0.45419 0.16232 0.92098 0.0
C739 C 0.33594 0.21513 0.90378 0.0
H740 H 0.39003 0.13696 0.96216 0.0
C741 C 0.37243 0.22902 0.87942 0.0
C742 C 0.41539 0.21029 0.88557 0.0
H743 H 0.30297 0.22952 0.89843 0.0
H744 H 0.36718 0.25457 0.85623 0.0
C745 C 0.42136 0.17735 0.9159 0.0
C746 C 0.32783 0.52581 0.97316 0.0
C747 C 0.37319 0.51948 0.96048 0.0
H748 H 0.26027 0.5298 0.95306 0.0
C749 C 0.3851 0.51683 0.91549 0.0
H750 H 0.31752 0.52843 0.00753 0.0
C751 C 0.35204 0.5175 0.88403 0.0
C752 C 0.30653 0.52084 0.89704 0.0
H753 H 0.41975 0.5118 0.90464 0.0
H754 H 0.36217 0.51327 0.84973 0.0
C755 C 0.29493 0.52649 0.94185 0.0
C756 C 0.59754 0.68395 0.97334 0.0
C757 C 0.6237 0.68501 0.01063 0.0
H758 H 0.54791 0.65106 0.93972 0.0
C759 C 0.60965 0.66333 0.04823 0.0
H760 H 0.60787 0.69994 0.94373 0.0
C761 C 0.57601 0.6343 0.04554 0.0
C762 C 0.55552 0.62721 0.00555 0.0
H763 H 0.62966 0.66313 0.07727 0.0
H764 H 0.57227 0.61223 0.07196 0.0
C765 C 0.56306 0.65576 0.97112 0.0
C766 C 0.91796 0.86576 0.7473 0.0
C767 C 0.88935 0.83279 0.73999 0.0
H768 H 0.92436 0.93339 0.75022 0.0
C769 C 0.84315 0.84276 0.73857 0.0
H770 H 0.95375 0.85951 0.74579 0.0
C771 C 0.82636 0.88529 0.73977 0.0
C772 C 0.85546 0.91842 0.74317 0.0
H773 H 0.82052 0.81794 0.73188 0.0
H774 H 0.79148 0.89216 0.73305 0.0
C775 C 0.90107 0.90828 0.74912 0.0
C776 C 0.51632 0.10809 0.69292 0.0
C777 C 0.47329 0.11924 0.71058 0.0
H778 H 0.55404 0.07414 0.64139 0.0
C779 C 0.43804 0.09383 0.69993 0.0
H780 H 0.54393 0.12764 0.6997 0.0
C781 C 0.44376 0.06367 0.66582 0.0
C782 C 0.48486 0.05839 0.64265 0.0
H783 H 0.40459 0.10177 0.71313 0.0
H784 H 0.41454 0.04935 0.65342 0.0
C785 C 0.52213 0.07745 0.65914 0.0
C786 C 0.48149 0.38787 0.87032 0.0
C787 C 0.50822 0.37389 0.83363 0.0
H788 H 0.47373 0.43243 0.92484 0.0
C789 C 0.54074 0.39993 0.81718 0.0
H790 H 0.4557 0.36809 0.88274 0.0
C791 C 0.55107 0.43604 0.84103 0.0
C792 C 0.52948 0.44604 0.88202 0.0
H793 H 0.56181 0.38963 0.78903 0.0
H794 H 0.57916 0.45342 0.82941 0.0
C795 C 0.49211 0.42397 0.8946 0.0
C796 C 0.50411 0.88014 0.3336 0.0
C797 C 0.54663 0.86804 0.31527 0.0
H798 H 0.46798 0.91524 0.38539 0.0
C799 C 0.58263 0.89291 0.32492 0.0
H800 H 0.47594 0.86105 0.32761 0.0
C801 C 0.57818 0.92339 0.35881 0.0
C802 C 0.53757 0.92963 0.38269 0.0
H803 H 0.61571 0.88428 0.31116 0.0
H804 H 0.60797 0.93724 0.37048 0.0
C805 C 0.49955 0.91116 0.3671 0.0
C806 C 0.52228 0.56282 0.13467 0.0
C807 C 0.48519 0.54042 0.14748 0.0
H808 H 0.55838 0.61891 0.14635 0.0
C809 C 0.46367 0.55038 0.18851 0.0
H810 H 0.54054 0.55453 0.10432 0.0
C811 C 0.47391 0.58655 0.21234 0.0
C812 C 0.50631 0.61271 0.19586 0.0
H813 H 0.43577 0.53282 0.20026 0.0
H814 H 0.45292 0.59672 0.24059 0.0
C815 C 0.53283 0.59896 0.15895 0.0
loop_
_geom_bond_atom_site_label_1
_geom_bond_atom_site_label_2
_geom_bond_distance
_geom_bond_site_symmetry_2
_ccdc_geom_bond_type
O0 Mn1 2.163 1_656 S
O0 C14 1.244 . S
Mn1 O0 2.163 1_454 S
Mn1 O4 2.160 1_545 S
Mn1 O5 2.221 1_544 S
Mn1 O7 2.163 1_554 S
Mn1 O9 2.160 1_445 S
Mn1 O19 2.221 1_455 S
O2 Mn3 2.087 1_556 S
O2 C14 1.256 . S
Mn3 O2 2.087 1_554 S
Mn3 O10 2.089 1_545 S
Mn3 O19 2.290 . S
Mn3 O20 2.251 . S
O4 Mn1 2.160 1_565 S
O4 C15 1.239 . S
O5 Mn1 2.221 1_566 S
O5 Mn6 2.290 . S
O5 C16 1.278 . S
Mn6 O5 2.290 . S
Mn6 O8 2.089 1_556 S
Mn6 O11 2.251 . S
Mn6 O12 2.087 1_565 S
O7 Mn1 2.163 1_556 S
O7 C17 1.244 . S
O8 Mn6 2.089 1_554 S
O8 C15 1.256 . S
O9 Mn1 2.160 1_665 S
O9 C18 1.239 . S
O10 Mn3 2.089 1_565 S
O10 C18 1.256 . S
O11 Mn6 2.251 . S
O11 C16 1.241 . S
O12 Mn6 2.087 1_545 S
O12 C17 1.256 . S
C13 O19 1.278 . S
C13 O20 1.241 . S
C14 O0 1.244 . S
C14 O2 1.256 . S
C15 O4 1.239 . S
C15 O8 1.256 . S
C16 O5 1.278 . S
C16 O11 1.241 . S
C17 O7 1.244 . S
C17 O12 1.256 . S
C18 O9 1.239 . S
C18 O10 1.256 . S
O19 Mn1 2.221 1_655 S
O19 Mn3 2.290 . S
O19 C13 1.278 . S
O20 Mn3 2.251 . S
O20 C13 1.241 . S
O21 Mn22 2.163 . S
O21 C35 1.244 . S
Mn22 O21 2.163 . S
Mn22 O25 2.160 1_455 S
Mn22 O26 2.221 . S
Mn22 O28 2.163 . S
Mn22 O30 2.160 1_455 S
Mn22 O40 2.221 1_455 S
O23 Mn24 2.087 1_455 S
O23 C35 1.256 . S
Mn24 O23 2.087 1_655 S
Mn24 O31 2.089 . S
Mn24 O40 2.290 . S
Mn24 O41 2.251 . S
O25 Mn22 2.160 1_655 S
O25 C36 1.239 . S
O26 Mn22 2.221 . S
O26 Mn27 2.290 . S
O26 C37 1.278 . S
Mn27 O26 2.290 . S
Mn27 O29 2.089 1_455 S
Mn27 O32 2.251 . S
Mn27 O33 2.087 . S
O28 Mn22 2.163 . S
O28 C38 1.244 . S
O29 Mn27 2.089 1_655 S
O29 C36 1.256 . S
O30 Mn22 2.160 1_655 S
O30 C39 1.239 . S
O31 Mn24 2.089 . S
O31 C39 1.256 . S
O32 Mn27 2.251 . S
O32 C37 1.241 . S
O33 Mn27 2.087 . S
O33 C38 1.256 . S
C34 O40 1.278 . S
C34 O41 1.241 . S
C35 O21 1.244 . S
C35 O23 1.256 . S
C36 O25 1.239 . S
C36 O29 1.256 . S
C37 O26 1.278 . S
C37 O32 1.241 . S
C38 O28 1.244 . S
C38 O33 1.256 . S
C39 O30 1.239 . S
C39 O31 1.256 . S
O40 Mn22 2.221 1_655 S
O40 Mn24 2.290 . S
O40 C34 1.278 . S
O41 Mn24 2.251 . S
O41 C34 1.241 . S
O42 Mn43 2.163 . S
O42 C56 1.244 . S
Mn43 O42 2.163 . S
Mn43 O46 2.160 . S
Mn43 O47 2.221 . S
Mn43 O49 2.163 . S
Mn43 O51 2.160 . S
Mn43 O61 2.221 . S
O44 Mn45 2.087 . S
O44 C56 1.256 . S
Mn45 O44 2.087 . S
Mn45 O52 2.089 . S
Mn45 O61 2.290 . S
Mn45 O62 2.251 . S
O46 Mn43 2.160 . S
O46 C57 1.239 . S
O47 Mn43 2.221 . S
O47 Mn48 2.290 . S
O47 C58 1.278 . S
Mn48 O47 2.290 . S
Mn48 O50 2.089 . S
Mn48 O53 2.251 . S
Mn48 O54 2.087 . S
O49 Mn43 2.163 . S
O49 C59 1.244 . S
O50 Mn48 2.089 . S
O50 C57 1.256 . S
O51 Mn43 2.160 . S
O51 C60 1.239 . S
O52 Mn45 2.089 . S
O52 C60 1.256 . S
O53 Mn48 2.251 . S
O53 C58 1.241 . S
O54 Mn48 2.087 . S
O54 C59 1.256 . S
C55 O61 1.278 . S
C55 O62 1.241 . S
C56 O42 1.244 . S
C56 O44 1.256 . S
C57 O46 1.239 . S
C57 O50 1.256 . S
C58 O47 1.278 . S
C58 O53 1.241 . S
C59 O49 1.244 . S
C59 O54 1.256 . S
C60 O51 1.239 . S
C60 O52 1.256 . S
O61 Mn43 2.221 . S
O61 Mn45 2.290 . S
O61 C55 1.278 . S
O62 Mn45 2.251 . S
O62 C55 1.241 . S
O63 Mn64 2.163 1_565 S
O63 C77 1.244 . S
Mn64 O63 2.163 1_545 S
Mn64 O67 2.160 . S
Mn64 O68 2.221 1_545 S
Mn64 O70 2.160 1_545 S
Mn64 O72 2.160 . S
Mn64 O82 2.221 . S
O65 Mn66 2.087 1_565 S
O65 C77 1.256 . S
Mn66 O65 2.087 1_545 S
Mn66 O73 2.089 . S
Mn66 O82 2.290 . S
Mn66 O83 2.251 . S
O67 Mn64 2.160 . S
O67 C78 1.239 . S
O68 Mn64 2.221 1_565 S
O68 Mn69 2.290 . S
O68 C79 1.278 . S
Mn69 O68 2.290 . S
Mn69 O71 2.089 1_565 S
Mn69 O74 2.251 . S
Mn69 O75 2.087 . S
O70 Mn64 2.160 1_565 S
O70 C80 1.251 . S
O71 Mn69 2.089 1_545 S
O71 C78 1.256 . S
O72 Mn64 2.160 . S
O72 C81 1.239 . S
O73 Mn66 2.089 . S
O73 C81 1.256 . S
O74 Mn69 2.251 . S
O74 C79 1.241 . S
O75 Mn69 2.087 . S
O75 C80 1.256 . S
C76 O82 1.278 . S
C76 O83 1.241 . S
C77 O63 1.244 . S
C77 O65 1.256 . S
C78 O67 1.239 . S
C78 O71 1.256 . S
C79 O68 1.278 . S
C79 O74 1.241 . S
C80 O70 1.251 . S
C80 O75 1.256 . S
C81 O72 1.239 . S
C81 O73 1.256 . S
O82 Mn64 2.221 . S
O82 Mn66 2.290 . S
O82 C76 1.278 . S
O83 Mn66 2.251 . S
O83 C76 1.241 . S
O84 Mn85 2.163 . S
O84 C98 1.244 . S
Mn85 O84 2.163 . S
Mn85 O88 2.160 . S
Mn85 O89 2.221 . S
Mn85 O91 2.163 . S
Mn85 O93 2.160 . S
Mn85 O103 2.221 . S
O86 Mn87 2.087 . S
O86 C98 1.256 . S
Mn87 O86 2.087 . S
Mn87 O94 2.089 . S
Mn87 O103 2.290 . S
Mn87 O104 2.251 . S
O88 Mn85 2.160 . S
O88 C99 1.239 . S
O89 Mn85 2.221 . S
O89 Mn90 2.290 . S
O89 C100 1.278 . S
Mn90 O89 2.290 . S
Mn90 O92 2.089 . S
Mn90 O95 2.251 . S
Mn90 O96 2.087 . S
O91 Mn85 2.163 . S
O91 C101 1.244 . S
O92 Mn90 2.089 . S
O92 C99 1.256 . S
O93 Mn85 2.160 . S
O93 C102 1.239 . S
O94 Mn87 2.089 . S
O94 C102 1.256 . S
O95 Mn90 2.251 . S
O95 C100 1.241 . S
O96 Mn90 2.087 . S
O96 C101 1.256 . S
C97 O103 1.278 . S
C97 O104 1.241 . S
C98 O84 1.244 . S
C98 O86 1.256 . S
C99 O88 1.239 . S
C99 O92 1.256 . S
C100 O89 1.278 . S
C100 O95 1.241 . S
C101 O91 1.244 . S
C101 O96 1.256 . S
C102 O93 1.239 . S
C102 O94 1.256 . S
O103 Mn85 2.221 . S
O103 Mn87 2.290 . S
O103 C97 1.278 . S
O104 Mn87 2.251 . S
O104 C97 1.241 . S
O105 Mn106 2.163 . S
O105 C119 1.244 . S
Mn106 O105 2.163 . S
Mn106 O109 2.160 . S
Mn106 O110 2.221 . S
Mn106 O112 2.163 . S
Mn106 O114 2.160 . S
Mn106 O124 2.221 . S
O107 Mn108 2.087 . S
O107 C119 1.256 . S
Mn108 O107 2.087 . S
Mn108 O115 2.089 . S
Mn108 O124 2.290 . S
Mn108 O125 2.251 . S
O109 Mn106 2.160 . S
O109 C120 1.239 . S
O110 Mn106 2.221 . S
O110 Mn111 2.290 . S
O110 C121 1.278 . S
Mn111 O110 2.290 . S
Mn111 O113 2.089 . S
Mn111 O116 2.251 . S
Mn111 O117 2.087 . S
O112 Mn106 2.163 . S
O112 C122 1.244 . S
O113 Mn111 2.089 . S
O113 C120 1.256 . S
O114 Mn106 2.160 . S
O114 C123 1.239 . S
O115 Mn108 2.089 . S
O115 C123 1.256 . S
O116 Mn111 2.251 . S
O116 C121 1.241 . S
O117 Mn111 2.087 . S
O117 C122 1.256 . S
C118 O124 1.278 . S
C118 O125 1.241 . S
C119 O105 1.244 . S
C119 O107 1.256 . S
C120 O109 1.239 . S
C120 O113 1.256 . S
C121 O110 1.278 . S
C121 O116 1.241 . S
C122 O112 1.244 . S
C122 O117 1.256 . S
C123 O114 1.239 . S
C123 O115 1.256 . S
O124 Mn106 2.221 . S
O124 Mn108 2.290 . S
O124 C118 1.278 . S
O125 Mn108 2.251 . S
O125 C118 1.241 . S
O126 Mn127 2.163 . S
O126 C140 1.244 . S
Mn127 O126 2.163 . S
Mn127 O130 2.160 . S
Mn127 O131 2.221 . S
Mn127 O133 2.163 . S
Mn127 O135 2.160 . S
Mn127 O145 2.221 . S
O128 Mn129 2.087 . S
O128 C140 1.256 . S
Mn129 O128 2.087 . S
Mn129 O136 2.089 . S
Mn129 O145 2.290 . S
Mn129 O146 2.251 . S
O130 Mn127 2.160 . S
O130 C141 1.239 . S
O131 Mn127 2.221 . S
O131 Mn132 2.290 . S
O131 C142 1.278 . S
Mn132 O131 2.290 . S
Mn132 O134 2.089 . S
Mn132 O137 2.251 . S
Mn132 O138 2.087 . S
O133 Mn127 2.163 . S
O133 C143 1.244 . S
O134 Mn132 2.089 . S
O134 C141 1.256 . S
O135 Mn127 2.160 . S
O135 C144 1.239 . S
O136 Mn129 2.089 . S
O136 C144 1.256 . S
O137 Mn132 2.251 . S
O137 C142 1.241 . S
O138 Mn132 2.087 . S
O138 C143 1.256 . S
C139 O145 1.278 . S
C139 O146 1.241 . S
C140 O126 1.244 . S
C140 O128 1.256 . S
C141 O130 1.239 . S
C141 O134 1.256 . S
C142 O131 1.278 . S
C142 O137 1.241 . S
C143 O133 1.244 . S
C143 O138 1.256 . S
C144 O135 1.239 . S
C144 O136 1.256 . S
O145 Mn127 2.221 . S
O145 Mn129 2.290 . S
O145 C139 1.278 . S
O146 Mn129 2.251 . S
O146 C139 1.241 . S
O147 Mn148 2.163 1_655 S
O147 C161 1.244 . S
Mn148 O147 2.163 1_455 S
Mn148 O151 2.160 . S
Mn148 O152 2.221 . S
Mn148 O154 2.163 1_455 S
Mn148 O156 2.160 . S
Mn148 O166 2.221 1_455 S
O149 Mn150 2.087 . S
O149 C161 1.256 . S
Mn150 O149 2.087 . S
Mn150 O157 2.089 1_655 S
Mn150 O166 2.290 . S
Mn150 O167 2.251 . S
O151 Mn148 2.160 . S
O151 C162 1.239 . S
O152 Mn148 2.221 . S
O152 Mn153 2.290 . S
O152 C163 1.278 . S
Mn153 O152 2.290 . S
Mn153 O155 2.089 . S
Mn153 O158 2.251 . S
Mn153 O159 2.087 1_455 S
O154 Mn148 2.163 1_655 S
O154 C164 1.244 . S
O155 Mn153 2.089 . S
O155 C162 1.256 . S
O156 Mn148 2.160 . S
O156 C165 1.239 . S
O157 Mn150 2.089 1_455 S
O157 C165 1.256 . S
O158 Mn153 2.251 . S
O158 C163 1.241 . S
O159 Mn153 2.087 1_655 S
O159 C164 1.256 . S
C160 O166 1.278 . S
C160 O167 1.241 . S
C161 O147 1.244 . S
C161 O149 1.256 . S
C162 O151 1.239 . S
C162 O155 1.256 . S
C163 O152 1.278 . S
C163 O158 1.241 . S
C164 O154 1.244 . S
C164 O159 1.256 . S
C165 O156 1.239 . S
C165 O157 1.256 . S
O166 Mn148 2.221 1_655 S
O166 Mn150 2.290 . S
O166 C160 1.278 . S
O167 Mn150 2.251 . S
O167 C160 1.241 . S
O168 Mn169 2.163 . S
O168 C182 1.244 . S
Mn169 O168 2.163 . S
Mn169 O172 2.160 1_554 S
Mn169 O173 2.221 . S
Mn169 O175 2.163 . S
Mn169 O177 2.160 1_554 S
Mn169 O187 2.221 1_554 S
O170 Mn171 2.087 1_554 S
O170 C182 1.256 . S
Mn171 O170 2.087 1_556 S
Mn171 O178 2.089 . S
Mn171 O187 2.290 . S
Mn171 O188 2.251 . S
O172 Mn169 2.160 1_556 S
O172 C183 1.239 . S
O173 Mn169 2.221 . S
O173 Mn174 2.290 . S
O173 C184 1.278 . S
Mn174 O173 2.290 . S
Mn174 O176 2.089 1_554 S
Mn174 O179 2.251 . S
Mn174 O180 2.087 . S
O175 Mn169 2.163 . S
O175 C185 1.244 . S
O176 Mn174 2.089 1_556 S
O176 C183 1.256 . S
O177 Mn169 2.160 1_556 S
O177 C186 1.239 . S
O178 Mn171 2.089 . S
O178 C186 1.256 . S
O179 Mn174 2.251 . S
O179 C184 1.241 . S
O180 Mn174 2.087 . S
O180 C185 1.256 . S
C181 O187 1.278 . S
C181 O188 1.241 . S
C182 O168 1.244 . S
C182 O170 1.256 . S
C183 O172 1.239 . S
C183 O176 1.256 . S
C184 O173 1.278 . S
C184 O179 1.241 . S
C185 O175 1.244 . S
C185 O180 1.256 . S
C186 O177 1.239 . S
C186 O178 1.256 . S
O187 Mn169 2.221 1_556 S
O187 Mn171 2.290 . S
O187 C181 1.278 . S
O188 Mn171 2.251 . S
O188 C181 1.241 . S
O189 Mn190 2.163 1_565 S
O189 C203 1.244 . S
Mn190 O189 2.163 1_545 S
Mn190 O193 2.160 . S
Mn190 O194 2.221 1_545 S
Mn190 O196 2.163 . S
Mn190 O198 2.160 . S
Mn190 O208 2.221 . S
O191 Mn192 2.087 1_565 S
O191 C203 1.256 . S
Mn192 O191 2.087 1_545 S
Mn192 O199 2.089 . S
Mn192 O208 2.290 . S
Mn192 O209 2.251 . S
O193 Mn190 2.160 . S
O193 C204 1.239 . S
O194 Mn190 2.221 1_565 S
O194 Mn195 2.290 . S
O194 C205 1.278 . S
Mn195 O194 2.290 . S
Mn195 O197 2.089 1_565 S
Mn195 O200 2.251 . S
Mn195 O201 2.087 . S
O196 Mn190 2.163 . S
O196 C206 1.244 1_545 S
O197 Mn195 2.089 1_545 S
O197 C204 1.256 . S
O198 Mn190 2.160 . S
O198 C207 1.239 . S
O199 Mn192 2.089 . S
O199 C207 1.256 . S
O200 Mn195 2.251 . S
O200 C205 1.241 . S
O201 Mn195 2.087 . S
O201 C206 1.256 . S
C202 O208 1.278 . S
C202 O209 1.241 . S
C203 O189 1.244 . S
C203 O191 1.256 . S
C204 O193 1.239 . S
C204 O197 1.256 . S
C205 O194 1.278 . S
C205 O200 1.241 . S
C206 O196 1.244 1_565 S
C206 O201 1.256 . S
C207 O198 1.239 . S
C207 O199 1.256 . S
O208 Mn190 2.221 . S
O208 Mn192 2.290 . S
O208 C202 1.278 . S
O209 Mn192 2.251 . S
O209 C202 1.241 . S
O210 Mn211 2.163 . S
O210 C224 1.244 . S
Mn211 O210 2.163 . S
Mn211 O214 2.160 . S
Mn211 O215 2.221 . S
Mn211 O217 2.163 . S
Mn211 O219 2.160 . S
Mn211 O229 2.221 . S
O212 Mn213 2.087 . S
O212 C224 1.256 . S
Mn213 O212 2.087 . S
Mn213 O220 2.089 . S
Mn213 O229 2.290 . S
Mn213 O230 2.251 . S
O214 Mn211 2.160 . S
O214 C225 1.239 . S
O215 Mn211 2.221 . S
O215 Mn216 2.290 . S
O215 C226 1.278 . S
Mn216 O215 2.290 . S
Mn216 O218 2.089 . S
Mn216 O221 2.251 . S
Mn216 O222 2.087 . S
O217 Mn211 2.163 . S
O217 C227 1.244 . S
O218 Mn216 2.089 . S
O218 C225 1.256 . S
O219 Mn211 2.160 . S
O219 C228 1.239 . S
O220 Mn213 2.089 . S
O220 C228 1.256 . S
O221 Mn216 2.251 . S
O221 C226 1.241 . S
O222 Mn216 2.087 . S
O222 C227 1.256 . S
C223 O229 1.278 . S
C223 O230 1.241 . S
C224 O210 1.244 . S
C224 O212 1.256 . S
C225 O214 1.239 . S
C225 O218 1.256 . S
C226 O215 1.278 . S
C226 O221 1.241 . S
C227 O217 1.244 . S
C227 O222 1.256 . S
C228 O219 1.239 . S
C228 O220 1.256 . S
O229 Mn211 2.221 . S
O229 Mn213 2.290 . S
O229 C223 1.278 . S
O230 Mn213 2.251 . S
O230 C223 1.241 . S
O231 Mn232 2.163 . S
O231 C245 1.244 . S
Mn232 O231 2.163 . S
Mn232 O235 2.160 1_455 S
Mn232 O236 2.221 . S
Mn232 O238 2.163 . S
Mn232 O240 2.160 1_455 S
Mn232 O250 2.221 1_455 S
O233 Mn234 2.087 1_455 S
O233 C245 1.256 . S
Mn234 O233 2.087 1_655 S
Mn234 O241 2.089 . S
Mn234 O250 2.290 . S
Mn234 O251 2.251 . S
O235 Mn232 2.160 1_655 S
O235 C246 1.239 . S
O236 Mn232 2.221 . S
O236 Mn237 2.290 . S
O236 C247 1.278 . S
Mn237 O236 2.290 . S
Mn237 O239 2.089 1_455 S
Mn237 O242 2.251 . S
Mn237 O243 2.087 . S
O238 Mn232 2.163 . S
O238 C248 1.244 . S
O239 Mn237 2.089 1_655 S
O239 C246 1.256 . S
O240 Mn232 2.160 1_655 S
O240 C249 1.239 . S
O241 Mn234 2.089 . S
O241 C249 1.256 . S
O242 Mn237 2.251 . S
O242 C247 1.241 . S
O243 Mn237 2.087 . S
O243 C248 1.256 . S
C244 O250 1.278 . S
C244 O251 1.241 . S
C245 O231 1.244 . S
C245 O233 1.256 . S
C246 O235 1.239 . S
C246 O239 1.256 . S
C247 O236 1.278 . S
C247 O242 1.241 . S
C248 O238 1.244 . S
C248 O243 1.256 . S
C249 O240 1.239 . S
C249 O241 1.256 . S
O250 Mn232 2.221 1_655 S
O250 Mn234 2.290 . S
O250 C244 1.278 . S
O251 Mn234 2.251 . S
O251 C244 1.241 . S
O252 Mn253 2.163 . S
O252 C266 1.244 . S
Mn253 O252 2.163 . S
Mn253 O256 2.160 . S
Mn253 O257 2.221 . S
Mn253 O259 2.163 . S
Mn253 O261 2.160 . S
Mn253 O271 2.221 . S
O254 Mn255 2.087 . S
O254 C266 1.256 . S
Mn255 O254 2.087 . S
Mn255 O262 2.089 . S
Mn255 O271 2.290 . S
Mn255 O272 2.251 . S
O256 Mn253 2.160 . S
O256 C267 1.239 . S
O257 Mn253 2.221 . S
O257 Mn258 2.290 . S
O257 C268 1.278 . S
Mn258 O257 2.290 . S
Mn258 O260 2.089 . S
Mn258 O263 2.251 . S
Mn258 O264 2.087 . S
O259 Mn253 2.163 . S
O259 C269 1.244 . S
O260 Mn258 2.089 . S
O260 C267 1.256 . S
O261 Mn253 2.160 . S
O261 C270 1.239 . S
O262 Mn255 2.089 . S
O262 C270 1.256 . S
O263 Mn258 2.251 . S
O263 C268 1.241 . S
O264 Mn258 2.087 . S
O264 C269 1.256 . S
C265 O271 1.278 . S
C265 O272 1.241 . S
C266 O252 1.244 . S
C266 O254 1.256 . S
C267 O256 1.239 . S
C267 O260 1.256 . S
C268 O257 1.278 . S
C268 O263 1.241 . S
C269 O259 1.244 . S
C269 O264 1.256 . S
C270 O261 1.239 . S
C270 O262 1.256 . S
O271 Mn253 2.221 . S
O271 Mn255 2.290 . S
O271 C265 1.278 . S
O272 Mn255 2.251 . S
O272 C265 1.241 . S
O273 Mn274 2.163 . S
O273 C287 1.244 . S
Mn274 O273 2.163 . S
Mn274 O277 2.160 1_554 S
Mn274 O278 2.221 . S
Mn274 O280 2.163 . S
Mn274 O282 2.160 1_554 S
Mn274 O292 2.221 1_554 S
O275 Mn276 2.087 1_554 S
O275 C287 1.256 . S
Mn276 O275 2.087 1_556 S
Mn276 O283 2.089 . S
Mn276 O292 2.290 . S
Mn276 O293 2.251 . S
O277 Mn274 2.160 1_556 S
O277 C288 1.239 . S
O278 Mn274 2.221 . S
O278 Mn279 2.290 . S
O278 C289 1.278 . S
Mn279 O278 2.290 . S
Mn279 O281 2.089 1_554 S
Mn279 O284 2.251 . S
Mn279 O285 2.087 . S
O280 Mn274 2.163 . S
O280 C290 1.244 . S
O281 Mn279 2.089 1_556 S
O281 C288 1.256 . S
O282 Mn274 2.160 1_556 S
O282 C291 1.239 . S
O283 Mn276 2.089 . S
O283 C291 1.256 . S
O284 Mn279 2.251 . S
O284 C289 1.241 . S
O285 Mn279 2.087 . S
O285 C290 1.256 . S
C286 O292 1.278 . S
C286 O293 1.241 . S
C287 O273 1.244 . S
C287 O275 1.256 . S
C288 O277 1.239 . S
C288 O281 1.256 . S
C289 O278 1.278 . S
C289 O284 1.241 . S
C290 O280 1.244 . S
C290 O285 1.256 . S
C291 O282 1.239 . S
C291 O283 1.256 . S
O292 Mn274 2.221 1_556 S
O292 Mn276 2.290 . S
O292 C286 1.278 . S
O293 Mn276 2.251 . S
O293 C286 1.241 . S
O294 Mn295 2.163 . S
O294 C308 1.244 . S
Mn295 O294 2.163 . S
Mn295 O298 2.160 1_545 S
Mn295 O299 2.221 1_545 S
Mn295 O301 2.163 1_545 S
Mn295 O303 2.160 . S
Mn295 O313 2.221 . S
O296 Mn297 2.087 . S
O296 C308 1.256 . S
Mn297 O296 2.087 . S
Mn297 O304 2.089 . S
Mn297 O313 2.290 . S
Mn297 O314 2.251 . S
O298 Mn295 2.160 1_565 S
O298 C309 1.239 . S
O299 Mn295 2.221 1_565 S
O299 Mn300 2.290 . S
O299 C310 1.278 . S
Mn300 O299 2.290 . S
Mn300 O302 2.089 . S
Mn300 O305 2.251 . S
Mn300 O306 2.087 . S
O301 Mn295 2.163 1_565 S
O301 C311 1.244 . S
O302 Mn300 2.089 . S
O302 C309 1.256 . S
O303 Mn295 2.160 . S
O303 C312 1.239 . S
O304 Mn297 2.089 . S
O304 C312 1.256 . S
O305 Mn300 2.251 . S
O305 C310 1.241 . S
O306 Mn300 2.087 . S
O306 C311 1.256 . S
C307 O313 1.278 . S
C307 O314 1.241 . S
C308 O294 1.244 . S
C308 O296 1.256 . S
C309 O298 1.239 . S
C309 O302 1.256 . S
C310 O299 1.278 . S
C310 O305 1.241 . S
C311 O301 1.244 . S
C311 O306 1.256 . S
C312 O303 1.239 . S
C312 O304 1.256 . S
O313 Mn295 2.221 . S
O313 Mn297 2.290 . S
O313 C307 1.278 . S
O314 Mn297 2.251 . S
O314 C307 1.241 . S
O315 Mn316 2.163 1_556 S
O315 C329 1.244 . S
Mn316 O315 2.163 1_554 S
Mn316 O319 2.160 . S
Mn316 O320 2.221 1_554 S
Mn316 O322 2.163 1_554 S
Mn316 O324 2.160 . S
Mn316 O334 2.221 . S
O317 Mn318 2.087 1_556 S
O317 C329 1.256 . S
Mn318 O317 2.087 1_554 S
Mn318 O325 2.089 . S
Mn318 O334 2.290 . S
Mn318 O335 2.251 . S
O319 Mn316 2.160 . S
O319 C330 1.239 . S
O320 Mn316 2.221 1_556 S
O320 Mn321 2.290 . S
O320 C331 1.278 . S
Mn321 O320 2.290 . S
Mn321 O323 2.089 1_556 S
Mn321 O326 2.251 . S
Mn321 O327 2.087 . S
O322 Mn316 2.163 1_556 S
O322 C332 1.244 . S
O323 Mn321 2.089 1_554 S
O323 C330 1.256 . S
O324 Mn316 2.160 . S
O324 C333 1.239 . S
O325 Mn318 2.089 . S
O325 C333 1.256 . S
O326 Mn321 2.251 . S
O326 C331 1.241 . S
O327 Mn321 2.087 . S
O327 C332 1.256 . S
C328 O334 1.278 . S
C328 O335 1.241 . S
C329 O315 1.244 . S
C329 O317 1.256 . S
C330 O319 1.239 . S
C330 O323 1.256 . S
C331 O320 1.278 . S
C331 O326 1.241 . S
C332 O322 1.244 . S
C332 O327 1.256 . S
C333 O324 1.239 . S
C333 O325 1.256 . S
O334 Mn316 2.221 . S
O334 Mn318 2.290 . S
O334 C328 1.278 . S
O335 Mn318 2.251 . S
O335 C328 1.241 . S
C336 C337 1.387 . S
C336 H340 0.950 . S
C336 C345 1.390 . S
C337 C336 1.387 . S
C337 C339 1.387 1_655 S
H338 C345 0.950 . S
C339 C337 1.387 1_455 S
C339 C341 1.390 . S
C339 H343 0.950 . S
H340 C336 0.950 . S
C341 C339 1.390 . S
C341 C342 1.387 1_455 S
C341 H344 0.950 . S
C342 C341 1.387 1_655 S
C342 C345 1.387 . S
H343 C339 0.950 . S
H344 C341 0.950 . S
C345 C336 1.390 . S
C345 H338 0.950 . S
C345 C342 1.387 . S
C346 C347 1.387 . S
C346 H350 0.950 . S
C346 C355 1.390 . S
C347 C346 1.387 . S
C347 C349 1.387 . S
H348 C355 0.950 . S
C349 C347 1.387 . S
C349 C351 1.390 . S
C349 H353 0.950 . S
H350 C346 0.950 . S
C351 C349 1.390 . S
C351 C352 1.387 . S
C351 H354 0.950 . S
C352 C351 1.387 . S
C352 C355 1.387 . S
H353 C349 0.950 . S
H354 C351 0.950 . S
C355 C346 1.390 . S
C355 H348 0.950 . S
C355 C352 1.387 . S
C356 C357 1.387 . S
C356 H360 0.950 . S
C356 C365 1.390 . S
C357 C356 1.387 . S
C357 C359 1.387 . S
H358 C365 0.950 . S
C359 C357 1.387 . S
C359 C361 1.390 . S
C359 H363 0.950 . S
H360 C356 0.950 . S
C361 C359 1.390 . S
C361 C362 1.387 . S
C361 H364 0.950 . S
C362 C361 1.387 . S
C362 C365 1.387 . S
H363 C359 0.950 . S
H364 C361 0.950 . S
C365 C356 1.390 . S
C365 H358 0.950 . S
C365 C362 1.387 . S
C366 C367 1.387 1_565 S
C366 H370 0.950 . S
C366 C375 1.390 . S
C367 C366 1.387 1_545 S
C367 C369 1.387 . S
H368 C375 0.950 . S
C369 C367 1.387 . S
C369 C371 1.390 . S
C369 H373 0.950 . S
H370 C366 0.950 . S
C371 C369 1.390 . S
C371 C372 1.387 . S
C371 H374 0.950 . S
C372 C371 1.387 . S
C372 C375 1.387 1_545 S
H373 C369 0.950 . S
H374 C371 0.950 . S
C375 C366 1.390 . S
C375 H368 0.950 . S
C375 C372 1.387 1_565 S
C376 C377 1.387 . S
C376 H380 0.950 . S
C376 C385 1.390 . S
C377 C376 1.387 . S
C377 C379 1.387 1_565 S
H378 C385 0.950 . S
C379 C377 1.387 1_545 S
C379 C381 1.390 . S
C379 H383 0.950 . S
H380 C376 0.950 . S
C381 C379 1.390 . S
C381 C382 1.387 1_545 S
C381 H384 0.950 . S
C382 C381 1.387 1_565 S
C382 C385 1.387 . S
H383 C379 0.950 . S
H384 C381 0.950 . S
C385 C376 1.390 . S
C385 H378 0.950 . S
C385 C382 1.387 . S
C386 C387 1.387 . S
C386 H390 0.950 . S
C386 C395 1.390 . S
C387 C386 1.387 . S
C387 C389 1.387 1_455 S
H388 C395 0.950 . S
C389 C387 1.387 1_655 S
C389 C391 1.390 . S
C389 H393 0.950 . S
H390 C386 0.950 . S
C391 C389 1.390 . S
C391 C392 1.387 1_655 S
C391 H394 0.950 . S
C392 C391 1.387 1_455 S
C392 C395 1.387 . S
H393 C389 0.950 . S
H394 C391 0.950 . S
C395 C386 1.390 . S
C395 H388 0.950 . S
C395 C392 1.387 . S
C396 C397 1.387 . S
C396 H400 0.950 . S
C396 C405 1.390 . S
C397 C396 1.387 . S
C397 C399 1.387 . S
H398 C405 0.950 . S
C399 C397 1.387 . S
C399 C401 1.390 . S
C399 H403 0.950 . S
H400 C396 0.950 . S
C401 C399 1.390 . S
C401 C402 1.387 . S
C401 H404 0.950 . S
C402 C401 1.387 . S
C402 C405 1.387 . S
H403 C399 0.950 . S
H404 C401 0.950 . S
C405 C396 1.390 . S
C405 H398 0.950 . S
C405 C402 1.387 . S
C406 C407 1.387 . S
C406 H410 0.950 . S
C406 C415 1.390 . S
C407 C406 1.387 . S
C407 C409 1.387 . S
H408 C415 0.950 . S
C409 C407 1.387 . S
C409 C411 1.390 . S
C409 H413 0.950 . S
H410 C406 0.950 . S
C411 C409 1.390 . S
C411 C412 1.387 . S
C411 H414 0.950 . S
C412 C411 1.387 . S
C412 C415 1.387 . S
H413 C409 0.950 . S
H414 C411 0.950 . S
C415 C406 1.390 . S
C415 H408 0.950 . S
C415 C412 1.387 . S
C416 C417 1.387 . S
C416 H420 0.950 . S
C416 C425 1.390 . S
C417 C416 1.387 . S
C417 C419 1.387 . S
H418 C425 0.950 . S
C419 C417 1.387 . S
C419 C421 1.390 . S
C419 H423 0.950 . S
H420 C416 0.950 . S
C421 C419 1.390 . S
C421 C422 1.387 . S
C421 H424 0.950 . S
C422 C421 1.387 . S
C422 C425 1.387 . S
H423 C419 0.950 . S
H424 C421 0.950 . S
C425 C416 1.390 . S
C425 H418 0.950 . S
C425 C422 1.387 . S
C426 C427 1.387 . S
C426 H430 0.950 . S
C426 C435 1.390 . S
C427 C426 1.387 . S
C427 C429 1.387 . S
H428 C435 0.950 . S
C429 C427 1.387 . S
C429 C431 1.390 . S
C429 H433 0.950 . S
H430 C426 0.950 . S
C431 C429 1.390 . S
C431 C432 1.387 . S
C431 H434 0.950 . S
C432 C431 1.387 . S
C432 C435 1.387 . S
H433 C429 0.950 . S
H434 C431 0.950 . S
C435 C426 1.390 . S
C435 H428 0.950 . S
C435 C432 1.387 . S
C436 C437 1.387 . S
C436 H440 0.950 . S
C436 C445 1.390 . S
C437 C436 1.387 . S
C437 C439 1.387 1_565 S
H438 C445 0.950 . S
C439 C437 1.387 1_545 S
C439 C441 1.390 . S
C439 H443 0.950 . S
H440 C436 0.950 . S
C441 C439 1.390 . S
C441 C442 1.387 1_545 S
C441 H444 0.950 . S
C442 C441 1.387 1_565 S
C442 C445 1.387 . S
H443 C439 0.950 . S
H444 C441 0.950 . S
C445 C436 1.390 . S
C445 H438 0.950 . S
C445 C442 1.387 . S
C446 C447 1.387 1_655 S
C446 H450 0.950 . S
C446 C455 1.390 . S
C447 C446 1.387 1_455 S
C447 C449 1.387 . S
H448 C455 0.950 . S
C449 C447 1.387 . S
C449 C451 1.390 . S
C449 H453 0.950 . S
H450 C446 0.950 . S
C451 C449 1.390 . S
C451 C452 1.387 . S
C451 H454 0.950 . S
C452 C451 1.387 . S
C452 C455 1.387 1_455 S
H453 C449 0.950 . S
H454 C451 0.950 . S
C455 C446 1.390 . S
C455 H448 0.950 . S
C455 C452 1.387 1_655 S
C456 C457 1.387 . S
C456 H460 0.950 . S
C456 C465 1.390 . S
C457 C456 1.387 . S
C457 C459 1.387 1_556 S
H458 C465 0.950 . S
C459 C457 1.387 1_554 S
C459 C461 1.390 . S
C459 H463 0.950 . S
H460 C456 0.950 . S
C461 C459 1.390 . S
C461 C462 1.387 1_554 S
C461 H464 0.950 . S
C462 C461 1.387 1_556 S
C462 C465 1.387 . S
H463 C459 0.950 . S
H464 C461 0.950 . S
C465 C456 1.390 . S
C465 H458 0.950 . S
C465 C462 1.387 . S
C466 C467 1.387 . S
C466 H470 0.950 . S
C466 C475 1.390 . S
C467 C466 1.387 . S
C467 C469 1.387 . S
H468 C475 0.950 . S
C469 C467 1.387 . S
C469 C471 1.390 . S
C469 H473 0.950 . S
H470 C466 0.950 . S
C471 C469 1.390 . S
C471 C472 1.387 . S
C471 H474 0.950 . S
C472 C471 1.387 . S
C472 C475 1.387 . S
H473 C469 0.950 . S
H474 C471 0.950 . S
C475 C466 1.390 . S
C475 H468 0.950 . S
C475 C472 1.387 . S
C476 C477 1.387 . S
C476 H480 0.950 . S
C476 C485 1.390 . S
C477 C476 1.387 . S
C477 C479 1.387 . S
H478 C485 0.950 . S
C479 C477 1.387 . S
C479 C481 1.390 . S
C479 H483 0.950 . S
H480 C476 0.950 . S
C481 C479 1.390 . S
C481 C482 1.387 . S
C481 H484 0.950 . S
C482 C481 1.387 . S
C482 C485 1.387 . S
H483 C479 0.950 . S
H484 C481 0.950 . S
C485 C476 1.390 . S
C485 H478 0.950 . S
C485 C482 1.387 . S
C486 C487 1.387 . S
C486 H490 0.950 . S
C486 C495 1.390 . S
C487 C486 1.387 . S
C487 C489 1.387 . S
H488 C495 0.950 . S
C489 C487 1.387 . S
C489 C491 1.390 . S
C489 H493 0.950 . S
H490 C486 0.950 . S
C491 C489 1.390 . S
C491 C492 1.387 . S
C491 H494 0.950 . S
C492 C491 1.387 . S
C492 C495 1.387 . S
H493 C489 0.950 . S
H494 C491 0.950 . S
C495 C486 1.390 . S
C495 H488 0.950 . S
C495 C492 1.387 . S
C496 C497 1.387 . S
C496 H500 0.950 . S
C496 C505 1.390 . S
C497 C496 1.387 . S
C497 C499 1.387 . S
H498 C505 0.950 . S
C499 C497 1.387 . S
C499 C501 1.390 . S
C499 H503 0.950 . S
H500 C496 0.950 . S
C501 C499 1.390 . S
C501 C502 1.387 . S
C501 H504 0.950 . S
C502 C501 1.387 . S
C502 C505 1.387 . S
H503 C499 0.950 . S
H504 C501 0.950 . S
C505 C496 1.390 . S
C505 H498 0.950 . S
C505 C502 1.387 . S
C506 C507 1.387 . S
C506 H510 0.950 . S
C506 C515 1.390 . S
C507 C506 1.387 . S
C507 C509 1.387 . S
H508 C515 0.950 . S
C509 C507 1.387 . S
C509 C511 1.390 . S
C509 H513 0.950 . S
H510 C506 0.950 . S
C511 C509 1.390 . S
C511 C512 1.387 . S
C511 H514 0.950 . S
C512 C511 1.387 . S
C512 C515 1.387 . S
H513 C509 0.950 . S
H514 C511 0.950 . S
C515 C506 1.390 . S
C515 H508 0.950 . S
C515 C512 1.387 . S
C516 C517 1.387 . S
C516 H520 0.950 . S
C516 C525 1.390 . S
C517 C516 1.387 . S
C517 C519 1.387 . S
H518 C525 0.950 . S
C519 C517 1.387 . S
C519 C521 1.390 . S
C519 H523 0.950 . S
H520 C516 0.950 . S
C521 C519 1.390 . S
C521 C522 1.387 . S
C521 H524 0.950 . S
C522 C521 1.387 . S
C522 C525 1.387 . S
H523 C519 0.950 . S
H524 C521 0.950 . S
C525 C516 1.390 . S
C525 H518 0.950 . S
C525 C522 1.387 . S
C526 C527 1.387 . S
C526 H530 0.950 . S
C526 C535 1.390 . S
C527 C526 1.387 . S
C527 C529 1.387 . S
H528 C535 0.950 . S
C529 C527 1.387 . S
C529 C531 1.390 . S
C529 H533 0.950 . S
H530 C526 0.950 . S
C531 C529 1.390 . S
C531 C532 1.387 . S
C531 H534 0.950 . S
C532 C531 1.387 . S
C532 C535 1.387 . S
H533 C529 0.950 . S
H534 C531 0.950 . S
C535 C526 1.390 . S
C535 H528 0.950 . S
C535 C532 1.387 . S
C536 C537 1.387 . S
C536 H540 0.950 . S
C536 C545 1.390 . S
C537 C536 1.387 . S
C537 C539 1.387 . S
H538 C545 0.950 . S
C539 C537 1.387 . S
C539 C541 1.390 . S
C539 H543 0.950 . S
H540 C536 0.950 . S
C541 C539 1.390 . S
C541 C542 1.387 . S
C541 H544 0.950 . S
C542 C541 1.387 . S
C542 C545 1.387 . S
H543 C539 0.950 . S
H544 C541 0.950 . S
C545 C536 1.390 . S
C545 H538 0.950 . S
C545 C542 1.387 . S
C546 C547 1.387 . S
C546 H550 0.950 . S
C546 C555 1.390 . S
C547 C546 1.387 . S
C547 C549 1.387 . S
H548 C555 0.950 . S
C549 C547 1.387 . S
C549 C551 1.390 . S
C549 H553 0.950 . S
H550 C546 0.950 . S
C551 C549 1.390 . S
C551 C552 1.387 . S
C551 H554 0.950 . S
C552 C551 1.387 . S
C552 C555 1.387 . S
H553 C549 0.950 . S
H554 C551 0.950 . S
C555 C546 1.390 . S
C555 H548 0.950 . S
C555 C552 1.387 . S
C556 C557 1.387 . S
C556 H560 0.950 . S
C556 C565 1.390 . S
C557 C556 1.387 . S
C557 C559 1.387 . S
H558 C565 0.950 . S
C559 C557 1.387 . S
C559 C561 1.390 . S
C559 H563 0.950 . S
H560 C556 0.950 . S
C561 C559 1.390 . S
C561 C562 1.387 . S
C561 H564 0.950 . S
C562 C561 1.387 . S
C562 C565 1.387 . S
H563 C559 0.950 . S
H564 C561 0.950 . S
C565 C556 1.390 . S
C565 H558 0.950 . S
C565 C562 1.387 . S
C566 C567 1.387 . S
C566 H570 0.950 . S
C566 C575 1.390 . S
C567 C566 1.387 . S
C567 C569 1.387 . S
H568 C575 0.950 . S
C569 C567 1.387 . S
C569 C571 1.390 . S
C569 H573 0.950 . S
H570 C566 0.950 . S
C571 C569 1.390 . S
C571 C572 1.387 . S
C571 H574 0.950 . S
C572 C571 1.387 . S
C572 C575 1.387 . S
H573 C569 0.950 . S
H574 C571 0.950 . S
C575 C566 1.390 . S
C575 H568 0.950 . S
C575 C572 1.387 . S
C576 C577 1.387 . S
C576 H580 0.950 . S
C576 C585 1.390 . S
C577 C576 1.387 . S
C577 C579 1.387 . S
H578 C585 0.950 . S
C579 C577 1.387 . S
C579 C581 1.390 . S
C579 H583 0.950 . S
H580 C576 0.950 . S
C581 C579 1.390 . S
C581 C582 1.387 . S
C581 H584 0.950 . S
C582 C581 1.387 . S
C582 C585 1.387 . S
H583 C579 0.950 . S
H584 C581 0.950 . S
C585 C576 1.390 . S
C585 H578 0.950 . S
C585 C582 1.387 . S
C586 C587 1.387 . S
C586 H590 0.950 . S
C586 C595 1.390 . S
C587 C586 1.387 . S
C587 C589 1.387 . S
H588 C595 0.950 . S
C589 C587 1.387 . S
C589 C591 1.390 . S
C589 H593 0.950 . S
H590 C586 0.950 . S
C591 C589 1.390 . S
C591 C592 1.387 . S
C591 H594 0.950 . S
C592 C591 1.387 . S
C592 C595 1.387 . S
H593 C589 0.950 . S
H594 C591 0.950 . S
C595 C586 1.390 . S
C595 H588 0.950 . S
C595 C592 1.387 . S
C596 C597 1.387 . S
C596 H600 0.950 . S
C596 C605 1.390 . S
C597 C596 1.387 . S
C597 C599 1.387 1_545 S
H598 C605 0.950 . S
C599 C597 1.387 1_565 S
C599 C601 1.390 . S
C599 H603 0.950 . S
H600 C596 0.950 . S
C601 C599 1.390 . S
C601 C602 1.387 1_565 S
C601 H604 0.950 . S
C602 C601 1.387 1_545 S
C602 C605 1.387 . S
H603 C599 0.950 . S
H604 C601 0.950 . S
C605 C596 1.390 . S
C605 H598 0.950 . S
C605 C602 1.387 . S
C606 C607 1.387 1_556 S
C606 H610 0.950 . S
C606 C615 1.390 . S
C607 C606 1.387 1_554 S
C607 C609 1.387 . S
H608 C615 0.950 . S
C609 C607 1.387 . S
C609 C611 1.390 . S
C609 H613 0.950 . S
H610 C606 0.950 . S
C611 C609 1.390 . S
C611 C612 1.387 . S
C611 H614 0.950 . S
C612 C611 1.387 . S
C612 C615 1.387 1_554 S
H613 C609 0.950 . S
H614 C611 0.950 . S
C615 C606 1.390 . S
C615 H608 0.950 . S
C615 C612 1.387 1_556 S
C616 C617 1.387 . S
C616 H620 0.950 . S
C616 C625 1.390 . S
C617 C616 1.387 . S
C617 C619 1.387 . S
H618 C625 0.950 . S
C619 C617 1.387 . S
C619 C621 1.390 . S
C619 H623 0.950 . S
H620 C616 0.950 . S
C621 C619 1.390 . S
C621 C622 1.387 . S
C621 H624 0.950 . S
C622 C621 1.387 . S
C622 C625 1.387 . S
H623 C619 0.950 . S
H624 C621 0.950 . S
C625 C616 1.390 . S
C625 H618 0.950 . S
C625 C622 1.387 . S
C626 C627 1.387 . S
C626 H630 0.950 . S
C626 C635 1.390 . S
C627 C626 1.387 . S
C627 C629 1.387 . S
H628 C635 0.950 . S
C629 C627 1.387 . S
C629 C631 1.390 . S
C629 H633 0.950 . S
H630 C626 0.950 . S
C631 C629 1.390 . S
C631 C632 1.387 . S
C631 H634 0.950 . S
C632 C631 1.387 . S
C632 C635 1.387 . S
H633 C629 0.950 . S
H634 C631 0.950 . S
C635 C626 1.390 . S
C635 H628 0.950 . S
C635 C632 1.387 . S
C636 C637 1.387 . S
C636 H640 0.950 . S
C636 C645 1.390 . S
C637 C636 1.387 . S
C637 C639 1.387 . S
H638 C645 0.950 . S
C639 C637 1.387 . S
C639 C641 1.390 . S
C639 H643 0.950 . S
H640 C636 0.950 . S
C641 C639 1.390 . S
C641 C642 1.387 . S
C641 H644 0.950 . S
C642 C641 1.387 . S
C642 C645 1.387 . S
H643 C639 0.950 . S
H644 C641 0.950 . S
C645 C636 1.390 . S
C645 H638 0.950 . S
C645 C642 1.387 . S
C646 C647 1.387 . S
C646 H650 0.950 . S
C646 C655 1.390 . S
C647 C646 1.387 . S
C647 C649 1.387 . S
H648 C655 0.950 . S
C649 C647 1.387 . S
C649 C651 1.390 . S
C649 H653 0.950 . S
H650 C646 0.950 . S
C651 C649 1.390 . S
C651 C652 1.387 . S
C651 H654 0.950 . S
C652 C651 1.387 . S
C652 C655 1.387 . S
H653 C649 0.950 . S
H654 C651 0.950 . S
C655 C646 1.390 . S
C655 H648 0.950 . S
C655 C652 1.387 . S
C656 C657 1.387 . S
C656 H660 0.950 . S
C656 C665 1.390 . S
C657 C656 1.387 . S
C657 C659 1.387 . S
H658 C665 0.950 . S
C659 C657 1.387 . S
C659 C661 1.390 . S
C659 H663 0.950 . S
H660 C656 0.950 . S
C661 C659 1.390 . S
C661 C662 1.387 . S
C661 H664 0.950 . S
C662 C661 1.387 . S
C662 C665 1.387 . S
H663 C659 0.950 . S
H664 C661 0.950 . S
C665 C656 1.390 . S
C665 H658 0.950 . S
C665 C662 1.387 . S
C666 C667 1.387 . S
C666 H670 0.950 . S
C666 C675 1.390 . S
C667 C666 1.387 . S
C667 C669 1.387 . S
H668 C675 0.950 . S
C669 C667 1.387 . S
C669 C671 1.390 . S
C669 H673 0.950 . S
H670 C666 0.950 . S
C671 C669 1.390 . S
C671 C672 1.387 . S
C671 H674 0.950 . S
C672 C671 1.387 . S
C672 C675 1.387 . S
H673 C669 0.950 . S
H674 C671 0.950 . S
C675 C666 1.390 . S
C675 H668 0.950 . S
C675 C672 1.387 . S
C676 C677 1.387 . S
C676 H680 0.950 . S
C676 C685 1.390 . S
C677 C676 1.387 . S
C677 C679 1.387 . S
H678 C685 0.950 . S
C679 C677 1.387 . S
C679 C681 1.390 . S
C679 H683 0.950 . S
H680 C676 0.950 . S
C681 C679 1.390 . S
C681 C682 1.387 . S
C681 H684 0.950 . S
C682 C681 1.387 . S
C682 C685 1.387 . S
H683 C679 0.950 . S
H684 C681 0.950 . S
C685 C676 1.390 . S
C685 H678 0.950 . S
C685 C682 1.387 . S
C686 C687 1.387 . S
C686 H690 0.950 . S
C686 C695 1.390 . S
C687 C686 1.387 . S
C687 C689 1.387 . S
H688 C695 0.950 . S
C689 C687 1.387 . S
C689 C691 1.390 . S
C689 H693 0.950 . S
H690 C686 0.950 . S
C691 C689 1.390 . S
C691 C692 1.387 . S
C691 H694 0.950 . S
C692 C691 1.387 . S
C692 C695 1.387 . S
H693 C689 0.950 . S
H694 C691 0.950 . S
C695 C686 1.390 . S
C695 H688 0.950 . S
C695 C692 1.387 . S
C696 C697 1.387 . S
C696 H700 0.950 . S
C696 C705 1.390 . S
C697 C696 1.387 . S
C697 C699 1.387 . S
H698 C705 0.950 . S
C699 C697 1.387 . S
C699 C701 1.390 . S
C699 H703 0.950 . S
H700 C696 0.950 . S
C701 C699 1.390 . S
C701 C702 1.387 . S
C701 H704 0.950 . S
C702 C701 1.387 . S
C702 C705 1.387 . S
H703 C699 0.950 . S
H704 C701 0.950 . S
C705 C696 1.390 . S
C705 H698 0.950 . S
C705 C702 1.387 . S
C706 C707 1.387 1_556 S
C706 H710 0.950 . S
C706 C715 1.390 . S
C707 C706 1.387 1_554 S
C707 C709 1.387 . S
H708 C715 0.950 . S
C709 C707 1.387 . S
C709 C711 1.390 . S
C709 H713 0.950 . S
H710 C706 0.950 . S
C711 C709 1.390 . S
C711 C712 1.387 . S
C711 H714 0.950 . S
C712 C711 1.387 . S
C712 C715 1.387 1_554 S
H713 C709 0.950 . S
H714 C711 0.950 . S
C715 C706 1.390 . S
C715 H708 0.950 . S
C715 C712 1.387 1_556 S
C716 C717 1.387 . S
C716 H720 0.950 . S
C716 C725 1.390 . S
C717 C716 1.387 . S
C717 C719 1.387 . S
H718 C725 0.950 . S
C719 C717 1.387 . S
C719 C721 1.390 . S
C719 H723 0.950 . S
H720 C716 0.950 . S
C721 C719 1.390 . S
C721 C722 1.387 . S
C721 H724 0.950 . S
C722 C721 1.387 . S
C722 C725 1.387 . S
H723 C719 0.950 . S
H724 C721 0.950 . S
C725 C716 1.390 . S
C725 H718 0.950 . S
C725 C722 1.387 . S
C726 C727 1.387 . S
C726 H730 0.950 . S
C726 C735 1.390 . S
C727 C726 1.387 . S
C727 C729 1.387 . S
H728 C735 0.950 . S
C729 C727 1.387 . S
C729 C731 1.390 . S
C729 H733 0.950 . S
H730 C726 0.950 . S
C731 C729 1.390 . S
C731 C732 1.387 . S
C731 H734 0.950 . S
C732 C731 1.387 . S
C732 C735 1.387 . S
H733 C729 0.950 . S
H734 C731 0.950 . S
C735 C726 1.390 . S
C735 H728 0.950 . S
C735 C732 1.387 . S
C736 C737 1.387 . S
C736 H740 0.950 . S
C736 C745 1.390 . S
C737 C736 1.387 . S
C737 C739 1.387 . S
H738 C745 0.950 . S
C739 C737 1.387 . S
C739 C741 1.390 . S
C739 H743 0.950 . S
H740 C736 0.950 . S
C741 C739 1.390 . S
C741 C742 1.387 . S
C741 H744 0.950 . S
C742 C741 1.387 . S
C742 C745 1.387 . S
H743 C739 0.950 . S
H744 C741 0.950 . S
C745 C736 1.390 . S
C745 H738 0.950 . S
C745 C742 1.387 . S
C746 C747 1.387 . S
C746 H750 0.950 . S
C746 C755 1.390 . S
C747 C746 1.387 . S
C747 C749 1.387 . S
H748 C755 0.950 . S
C749 C747 1.387 . S
C749 C751 1.390 . S
C749 H753 0.950 . S
H750 C746 0.950 . S
C751 C749 1.390 . S
C751 C752 1.387 . S
C751 H754 0.950 . S
C752 C751 1.387 . S
C752 C755 1.387 . S
H753 C749 0.950 . S
H754 C751 0.950 . S
C755 C746 1.390 . S
C755 H748 0.950 . S
C755 C752 1.387 . S
C756 C757 1.387 . S
C756 H760 0.950 . S
C756 C765 1.390 . S
C757 C756 1.387 . S
C757 C759 1.387 1_556 S
H758 C765 0.950 . S
C759 C757 1.387 1_554 S
C759 C761 1.390 . S
C759 H763 0.950 . S
H760 C756 0.950 . S
C761 C759 1.390 . S
C761 C762 1.387 1_554 S
C761 H764 0.950 . S
C762 C761 1.387 1_556 S
C762 C765 1.387 . S
H763 C759 0.950 . S
H764 C761 0.950 . S
C765 C756 1.390 . S
C765 H758 0.950 . S
C765 C762 1.387 . S
C766 C767 1.387 . S
C766 H770 0.950 . S
C766 C775 1.390 . S
C767 C766 1.387 . S
C767 C769 1.387 . S
H768 C775 0.950 . S
C769 C767 1.387 . S
C769 C771 1.390 . S
C769 H773 0.950 . S
H770 C766 0.950 . S
C771 C769 1.390 . S
C771 C772 1.387 . S
C771 H774 0.950 . S
C772 C771 1.387 . S
C772 C775 1.387 . S
H773 C769 0.950 . S
H774 C771 0.950 . S
C775 C766 1.390 . S
C775 H768 0.950 . S
C775 C772 1.387 . S
C776 C777 1.387 . S
C776 H780 0.950 . S
C776 C785 1.390 . S
C777 C776 1.387 . S
C777 C779 1.387 . S
H778 C785 0.950 . S
C779 C777 1.387 . S
C779 C781 1.390 . S
C779 H783 0.950 . S
H780 C776 0.950 . S
C781 C779 1.390 . S
C781 C782 1.387 . S
C781 H784 0.950 . S
C782 C781 1.387 . S
C782 C785 1.387 . S
H783 C779 0.950 . S
H784 C781 0.950 . S
C785 C776 1.390 . S
C785 H778 0.950 . S
C785 C782 1.387 . S
C786 C787 1.387 . S
C786 H790 0.950 . S
C786 C795 1.390 . S
C787 C786 1.387 . S
C787 C789 1.387 . S
H788 C795 0.950 . S
C789 C787 1.387 . S
C789 C791 1.390 . S
C789 H793 0.950 . S
H790 C786 0.950 . S
C791 C789 1.390 . S
C791 C792 1.387 . S
C791 H794 0.950 . S
C792 C791 1.387 . S
C792 C795 1.387 . S
H793 C789 0.950 . S
H794 C791 0.950 . S
C795 C786 1.390 . S
C795 H788 0.950 . S
C795 C792 1.387 . S
C796 C797 1.387 . S
C796 H800 0.950 . S
C796 C805 1.390 . S
C797 C796 1.387 . S
C797 C799 1.387 . S
H798 C805 0.950 . S
C799 C797 1.387 . S
C799 C801 1.390 . S
C799 H803 0.950 . S
H800 C796 0.950 . S
C801 C799 1.390 . S
C801 C802 1.387 . S
C801 H804 0.950 . S
C802 C801 1.387 . S
C802 C805 1.387 . S
H803 C799 0.950 . S
H804 C801 0.950 . S
C805 C796 1.390 . S
C805 H798 0.950 . S
C805 C802 1.387 . S
C806 C807 1.387 . S
C806 H810 0.950 . S
C806 C815 1.390 . S
C807 C806 1.387 . S
C807 C809 1.387 . S
H808 C815 0.950 . S
C809 C807 1.387 . S
C809 C811 1.390 . S
C809 H813 0.950 . S
H810 C806 0.950 . S
C811 C809 1.390 . S
C811 C812 1.387 . S
C811 H814 0.950 . S
C812 C811 1.387 . S
C812 C815 1.387 . S
H813 C809 0.950 . S
H814 C811 0.950 . S
C815 C806 1.390 . S
C815 H808 0.950 . S
C815 C812 1.387 . S
C337 C13 1.008 . S
C342 C39 1.037 . S
C347 C55 0.969 . S
C352 C36 0.997 . S
C357 C78 1.045 . S
C362 C56 1.054 . S
C367 C14 1.022 . S
C372 C81 1.006 . S
C377 C15 1.083 . S
C382 C206 1.088 . S
C387 C162 1.057 . S
C392 C38 1.069 . S
C397 C58 1.106 . S
C402 C224 1.166 . S
C407 C77 1.085 . S
C412 C288 1.074 . S
C417 C184 1.087 . S
C422 C35 1.138 . S
C427 C266 1.057 . S
C432 C57 1.045 . S
C437 C310 1.096 . S
C442 C80 1.151 . S
C447 C16 1.078 . S
C452 C248 1.141 . S
C457 C17 1.033 . S
C462 C186 1.030 . S
C467 C265 1.049 . S
C472 C100 1.037 . S
C477 C122 1.109 . S
C482 C311 1.109 . S
C487 C247 1.071 . S
C492 C139 1.067 . S
C497 C59 1.109 . S
C502 C164 1.109 . S
C507 C205 1.094 . S
C512 C97 1.098 . S
C517 C142 1.127 . S
C522 C223 1.114 . S
C527 C121 1.106 . S
C532 C245 1.166 . S
C537 C203 1.057 . S
C542 C120 1.045 . S
C547 C249 1.049 . S
C552 C161 1.062 . S
C557 C118 0.969 . S
C562 C99 0.997 . S
C567 C204 1.013 . S
C572 C182 1.027 . S
C577 C286 1.002 . S
C582 C246 1.033 . S
C587 C141 1.041 . S
C592 C119 1.057 . S
C597 C207 0.996 . S
C602 C307 0.964 . S
C607 C290 1.038 . S
C612 C18 1.026 . S
C617 C60 0.947 . S
C622 C312 0.948 . S
C627 C268 1.095 . S
C632 C34 1.099 . S
C637 C165 0.948 . S
C642 C123 0.947 . S
C647 C76 1.067 . S
C652 C226 1.071 . S
C657 C267 1.009 . S
C662 C287 1.030 . S
C667 C160 0.963 . S
C672 C270 0.991 . S
C677 C143 1.151 . S
C682 C163 1.096 . S
C687 C98 1.138 . S
C692 C289 1.087 . S
C697 C269 1.088 . S
C702 C330 1.083 . S
C707 C333 1.026 . S
C712 C185 1.038 . S
C717 C37 1.036 . S
C722 C202 1.048 . S
C727 C183 1.076 . S
C732 C140 1.084 . S
C737 C181 1.002 . S
C742 C225 1.033 . S
C747 C329 1.018 . S
C752 C144 1.010 . S
C757 C291 1.029 . S
C762 C332 1.033 . S
C767 C244 1.114 . S
C772 C79 1.127 . S
C777 C228 1.047 . S
C782 C308 1.063 . S
C787 C227 1.141 . S
C792 C331 1.077 . S
C797 C101 1.071 . S
C802 C309 1.052 . S
C807 C328 1.007 . S
C812 C102 1.032 . S
