# Generated by pormake.
# Topology snz, (6)-cn, num edge types: 1
# Building blocks:
#     Node 0, Type 0, BuildingBlock: GEDQOX_clean_sbu_0, # of connection points: 6
#     Node 1, Type 0, BuildingBlock: GEDQOX_clean_sbu_0, # of connection points: 6
#     Node 2, Type 0, BuildingBlock: GEDQOX_clean_sbu_0, # of connection points: 6
#     Node 3, Type 0, BuildingBlock: GEDQOX_clean_sbu_0, # of connection points: 6
#     Node 4, Type 0, BuildingBlock: GEDQOX_clean_sbu_0, # of connection points: 6
#     Node 5, Type 0, BuildingBlock: GEDQOX_clean_sbu_0, # of connection points: 6
#     Node 6, Type 0, BuildingBlock: GEDQOX_clean_sbu_0, # of connection points: 6
#     Node 7, Type 0, BuildingBlock: GEDQOX_clean_sbu_0, # of connection points: 6
#     Node 8, Type 0, BuildingBlock: GEDQOX_clean_sbu_0, # of connection points: 6
#     Edge 9, Type (0, 0), BuildingBlock: MIFKUJ_clean_linker_0, # of connection points: 2
#     Edge 10, Type (0, 0), BuildingBlock: MIFKUJ_clean_linker_0, # of connection points: 2
#     Edge 11, Type (0, 0), BuildingBlock: MIFKUJ_clean_linker_0, # of connection points: 2
#     Edge 12, Type (0, 0), BuildingBlock: MIFKUJ_clean_linker_0, # of connection points: 2
#     Edge 13, Type (0, 0), BuildingBlock: MIFKUJ_clean_linker_0, # of connection points: 2
#     Edge 14, Type (0, 0), BuildingBlock: MIFKUJ_clean_linker_0, # of connection points: 2
#     Edge 15, Type (0, 0), BuildingBlock: MIFKUJ_clean_linker_0, # of connection points: 2
#     Edge 16, Type (0, 0), BuildingBlock: MIFKUJ_clean_linker_0, # of connection points: 2
#     Edge 17, Type (0, 0), BuildingBlock: MIFKUJ_clean_linker_0, # of connection points: 2
#     Edge 18, Type (0, 0), BuildingBlock: MIFKUJ_clean_linker_0, # of connection points: 2
#     Edge 19, Type (0, 0), BuildingBlock: MIFKUJ_clean_linker_0, # of connection points: 2
#     Edge 20, Type (0, 0), BuildingBlock: MIFKUJ_clean_linker_0, # of connection points: 2
#     Edge 21, Type (0, 0), BuildingBlock: MIFKUJ_clean_linker_0, # of connection points: 2
#     Edge 22, Type (0, 0), BuildingBlock: MIFKUJ_clean_linker_0, # of connection points: 2
#     Edge 23, Type (0, 0), BuildingBlock: MIFKUJ_clean_linker_0, # of connection points: 2
#     Edge 24, Type (0, 0), BuildingBlock: MIFKUJ_clean_linker_0, # of connection points: 2
#     Edge 25, Type (0, 0), BuildingBlock: MIFKUJ_clean_linker_0, # of connection points: 2
#     Edge 26, Type (0, 0), BuildingBlock: MIFKUJ_clean_linker_0, # of connection points: 2
#     Edge 27, Type (0, 0), BuildingBlock: MIFKUJ_clean_linker_0, # of connection points: 2
#     Edge 28, Type (0, 0), BuildingBlock: MIFKUJ_clean_linker_0, # of connection points: 2
#     Edge 29, Type (0, 0), BuildingBlock: MIFKUJ_clean_linker_0, # of connection points: 2
#     Edge 30, Type (0, 0), BuildingBlock: MIFKUJ_clean_linker_0, # of connection points: 2
#     Edge 31, Type (0, 0), BuildingBlock: MIFKUJ_clean_linker_0, # of connection points: 2
#     Edge 32, Type (0, 0), BuildingBlock: MIFKUJ_clean_linker_0, # of connection points: 2
#     Edge 33, Type (0, 0), BuildingBlock: MIFKUJ_clean_linker_0, # of connection points: 2
#     Edge 34, Type (0, 0), BuildingBlock: MIFKUJ_clean_linker_0, # of connection points: 2
#     Edge 35, Type (0, 0), BuildingBlock: MIFKUJ_clean_linker_0, # of connection points: 2
# Relax obj value: 0.195
# Max RMSD: 0.244
# Mean RMSD: 0.199
data_MOF--net-snz--node1-GEDQOX_clean_sbu_0--edge1-MIFKUJ_clean_linker_0
_symmetry_space_group_name_H-M    P1
_symmetry_Int_Tables_number       1
_symmetry_cell_setting            triclinic
loop_
_symmetry_equiv_pos_as_xyz
'x, y, z'
_cell_length_a     73.494696
_cell_length_b     91.268353
_cell_length_c     18.868524
_cell_angle_alpha  88.432215
_cell_angle_beta   88.130443
_cell_angle_gamma 120.62235
loop_
_atom_site_label
_atom_site_type_symbol
_atom_site_fract_x
_atom_site_fract_y
_atom_site_fract_z
_atom_type_partial_charge
Nd0 Nd 0.11316 0.61636 0.97407 0.0
Nd1 Nd 0.15449 0.64823 0.93888 0.0
C2 C 0.08244 0.58571 0.02224 0.0
C3 C 0.07708 0.568 0.00683 0.0
C4 C 0.0807 0.55809 0.05644 0.0
C5 C 0.07643 0.54168 0.04107 0.0
C6 C 0.0684 0.53471 0.97559 0.0
C7 C 0.06453 0.54457 0.92646 0.0
C8 C 0.06877 0.56094 0.94181 0.0
C9 C 0.12412 0.62128 0.83184 0.0
C10 C 0.1573 0.61511 0.98083 0.0
C11 C 0.18756 0.67769 0.88921 0.0
C12 C 0.19894 0.69543 0.91156 0.0
C13 C 0.21653 0.70794 0.87036 0.0
C14 C 0.22855 0.72451 0.8937 0.0
C15 C 0.22326 0.72892 0.95899 0.0
C16 C 0.20524 0.71638 -0.00064 0.0
C17 C 0.19322 0.69979 0.97592 0.0
C18 C 0.14328 0.64351 0.08117 0.0
C19 C 0.11035 0.64959 0.93017 0.0
O20 O 0.09959 0.59492 0.0563 0.0
O21 O 0.08018 0.59461 0.97152 0.0
O22 O 0.10498 0.61447 0.85849 0.0
O23 O 0.13711 0.62427 0.87935 0.0
O24 O 0.13766 0.6089 0.00625 0.0
O25 O 0.16675 0.62939 0.94058 0.0
O26 O 0.1684 0.67178 0.86804 0.0
O27 O 0.18902 0.66664 0.93017 0.0
O28 O 0.16247 0.65054 0.05494 0.0
O29 O 0.13042 0.64041 0.03321 0.0
O30 O 0.1301 0.65576 0.90536 0.0
O31 O 0.1005 0.6351 0.96971 0.0
H32 H 0.08707 0.5631 0.107 0.0
H33 H 0.07982 0.53459 0.08007 0.0
H34 H 0.05802 0.5396 0.87603 0.0
H35 H 0.06565 0.56808 0.90223 0.0
H36 H 0.2212 0.70483 0.82058 0.0
H37 H 0.24208 0.73386 0.86062 0.0
H38 H 0.20078 0.71923 0.05013 0.0
H39 H 0.17974 0.69026 0.00875 0.0
Nd40 Nd 0.6246 0.59118 0.00608 0.0
Nd41 Nd 0.62498 0.55881 0.0354 0.0
C42 C 0.63358 0.62226 0.96651 0.0
C43 C 0.64961 0.63919 0.99078 0.0
C44 C 0.66444 0.65189 0.94187 0.0
C45 C 0.68029 0.6676 0.96499 0.0
C46 C 0.68166 0.67098 0.03767 0.0
C47 C 0.66666 0.65825 0.08639 0.0
C48 C 0.65093 0.64256 0.06336 0.0
C49 C 0.62227 0.58251 0.14703 0.0
C50 C 0.67098 0.59346 0.01124 0.0
C51 C 0.61843 0.52812 0.07473 0.0
C52 C 0.61312 0.51176 0.04228 0.0
C53 C 0.59367 0.49688 0.06104 0.0
C54 C 0.58861 0.48122 0.03318 0.0
C55 C 0.60293 0.47992 0.98596 0.0
C56 C 0.62239 0.49488 0.96693 0.0
C57 C 0.62742 0.51056 -0.00532 0.0
C58 C 0.62751 0.56741 0.8945 0.0
C59 C 0.57912 0.55849 0.03599 0.0
O60 O 0.64085 0.61402 0.93108 0.0
O61 O 0.61807 0.61228 0.01227 0.0
O62 O 0.61245 0.58955 0.12028 0.0
O63 O 0.63419 0.58131 0.10128 0.0
O64 O 0.65994 0.60005 0.98686 0.0
O65 O 0.66116 0.57801 0.0433 0.0
O66 O 0.6037 0.53208 0.07828 0.0
O67 O 0.63714 0.54143 0.05942 0.0
O68 O 0.63697 0.56011 0.92144 0.0
O69 O 0.61549 0.56857 0.93994 0.0
O70 O 0.58998 0.552 0.0647 0.0
O71 O 0.58913 0.57279 -0.00406 0.0
H72 H 0.66392 0.64957 0.88576 0.0
H73 H 0.69169 0.67697 0.92592 0.0
H74 H 0.66691 0.66042 0.14257 0.0
H75 H 0.63989 0.63303 0.10273 0.0
H76 H 0.58233 0.49733 0.09772 0.0
H77 H 0.57334 0.47013 0.04843 0.0
H78 H 0.634 0.49445 0.9316 0.0
H79 H 0.64261 0.52171 0.97923 0.0
Nd80 Nd 0.74053 0.12629 0.12796 0.0
Nd81 Nd 0.74389 0.09543 0.09929 0.0
C82 C 0.73327 0.14987 0.17758 0.0
C83 C 0.72075 0.1576 0.156 0.0
C84 C 0.71349 0.16466 0.20664 0.0
C85 C 0.70268 0.17291 0.18586 0.0
C86 C 0.69901 0.17433 0.11381 0.0
C87 C 0.70601 0.1669 0.06349 0.0
C88 C 0.71665 0.15856 0.08439 0.0
C89 C 0.73784 0.11956 0.98694 0.0
C90 C 0.69633 0.08899 0.13417 0.0
C91 C 0.75349 0.07201 0.06064 0.0
C92 C 0.76478 0.06328 0.08634 0.0
C93 C 0.76905 0.05353 0.03977 0.0
C94 C 0.77934 0.04492 0.06242 0.0
C95 C 0.78574 0.04577 0.13266 0.0
C96 C 0.78159 0.05574 0.17916 0.0
C97 C 0.77123 0.06435 0.15635 0.0
C98 C 0.74696 0.10326 0.23989 0.0
C99 C 0.78571 0.13433 0.06937 0.0
O100 O 0.72275 0.13395 0.20132 0.0
O101 O 0.74941 0.15325 0.13488 0.0
O102 O 0.74526 0.13458 0.01078 0.0
O103 O 0.72964 0.10815 0.03655 0.0
O104 O 0.70673 0.10429 0.15986 0.0
O105 O 0.7069 0.08301 0.09826 0.0
O106 O 0.76495 0.08819 0.04147 0.0
O107 O 0.73583 0.06838 0.0948 0.0
O108 O 0.73798 0.08798 0.21824 0.0
O109 O 0.75551 0.11403 0.18852 0.0
O110 O 0.77515 0.11857 0.0472 0.0
O111 O 0.77664 0.1392 0.11711 0.0
H112 H 0.71639 0.16398 0.26222 0.0
H113 H 0.69723 0.17819 0.22631 0.0
H114 H 0.70379 0.16789 0.0075 0.0
H115 H 0.72207 0.15316 0.04431 0.0
H116 H 0.76437 0.05252 0.98543 0.0
H117 H 0.78247 0.03772 0.02429 0.0
H118 H 0.78599 0.05667 0.23376 0.0
H119 H 0.76815 0.07177 0.19355 0.0
Nd120 Nd 0.89116 0.91584 0.36269 0.0
Nd121 Nd 0.93161 0.9495 0.35913 0.0
C122 C 0.85316 0.88776 0.37376 0.0
C123 C 0.84238 0.87016 0.34878 0.0
C124 C 0.84971 0.85888 0.36277 0.0
C125 C 0.83912 0.84236 0.33766 0.0
C126 C 0.82111 0.83685 0.29761 0.0
C127 C 0.81384 0.84818 0.28403 0.0
C128 C 0.82431 0.86459 0.30947 0.0
C129 C 0.91429 0.92421 0.23522 0.0
C130 C 0.93301 0.91435 0.3969 0.0
C131 C 0.96762 0.97903 0.34127 0.0
C132 C 0.97286 0.99697 0.3462 0.0
C133 C 0.95937 1.0024 0.32064 0.0
C134 C 0.96381 0.01909 0.32973 0.0
C135 C 0.98176 0.03077 0.36516 0.0
C136 C 0.99527 0.02525 0.39027 0.0
C137 C 0.99087 1.00858 0.3808 0.0
C138 C 0.90828 0.94107 0.48671 0.0
C139 C 0.88937 0.9511 0.33576 0.0
O140 O 0.86724 0.89178 0.42155 0.0
O141 O 0.85877 0.89997 0.32517 0.0
O142 O 0.90467 0.9091 0.26608 0.0
O143 O 0.91142 0.93428 0.27169 0.0
O144 O 0.91232 0.90668 0.40971 0.0
O145 O 0.94378 0.93012 0.36742 0.0
O146 O 0.95635 0.97063 0.28844 0.0
O147 O 0.96158 0.96981 0.40099 0.0
O148 O 0.91795 0.95618 0.45583 0.0
O149 O 0.91123 0.93108 0.45017 0.0
O150 O 0.91001 0.95917 0.32228 0.0
O151 O 0.87896 0.93505 0.36131 0.0
H152 H 0.86366 0.86281 0.39273 0.0
H153 H 0.84523 0.83399 0.34867 0.0
H154 H 0.79984 0.84429 0.25441 0.0
H155 H 0.81826 0.87299 0.29827 0.0
H156 H 0.94523 0.99369 0.29426 0.0
H157 H 0.95314 0.02283 0.3088 0.0
H158 H 1.00902 0.03366 0.41895 0.0
H159 H 1.00138 1.00466 0.40175 0.0
Nd160 Nd 0.42249 1.00865 0.30461 0.0
Nd161 Nd 0.41787 0.97472 0.28881 0.0
C162 C 0.41964 0.03661 0.30546 0.0
C163 C 0.42941 0.05448 0.32716 0.0
C164 C 0.427 0.06626 0.28522 0.0
C165 C 0.43376 0.08266 0.3081 0.0
C166 C 0.44316 0.08775 0.37366 0.0
C167 C 0.44609 0.07604 0.41481 0.0
C168 C 0.43922 0.05957 0.39197 0.0
C169 C 0.43263 0.99707 0.42422 0.0
C170 C 0.4662 1.00866 0.26927 0.0
C171 C 0.41567 0.94498 0.27792 0.0
C172 C 0.3994 0.9278 0.25628 0.0
C173 C 0.38039 0.91757 0.29718 0.0
C174 C 0.36508 0.90157 0.27484 0.0
C175 C 0.36837 0.89539 0.211 0.0
C176 C 0.38742 0.90568 0.17026 0.0
C177 C 0.40273 0.92162 0.19271 0.0
C178 C 0.40612 0.98646 0.17286 0.0
C179 C 0.37515 0.97344 0.33731 0.0
O180 O 0.4285 0.03317 0.25229 0.0
O181 O 0.41161 0.02457 0.35581 0.0
O182 O 0.44315 1.0127 0.39853 0.0
O183 O 0.41729 0.98813 0.38653 0.0
O184 O 0.45721 0.01809 0.26554 0.0
O185 O 0.45458 0.99211 0.28664 0.0
O186 O 0.41215 0.95021 0.33795 0.0
O187 O 0.42398 0.95708 0.22774 0.0
O188 O 0.39533 0.9711 0.20084 0.0
O189 O 0.42238 0.99517 0.20692 0.0
O190 O 0.38548 0.96525 0.34381 0.0
O191 O 0.38538 0.98958 0.31198 0.0
H192 H 0.41937 0.06262 0.23529 0.0
H193 H 0.43152 0.09136 0.27442 0.0
H194 H 0.4531 0.07941 0.4658 0.0
H195 H 0.44111 0.05071 0.42578 0.0
H196 H 0.37725 0.92191 0.34643 0.0
H197 H 0.35077 0.89396 0.30815 0.0
H198 H 0.39043 0.90154 0.12028 0.0
H199 H 0.41716 0.92922 0.15986 0.0
Nd200 Nd 0.30324 0.47224 0.22437 0.0
Nd201 Nd 0.30495 0.44088 0.19069 0.0
C202 C 0.29373 0.49555 0.2645 0.0
C203 C 0.28359 0.50499 0.23591 0.0
C204 C 0.29157 0.5221 0.25173 0.0
C205 C 0.28172 0.53102 0.22839 0.0
C206 C 0.26348 0.52308 0.18856 0.0
C207 C 0.25566 0.50594 0.17217 0.0
C208 C 0.26558 0.49705 0.19535 0.0
C209 C 0.30192 0.46624 0.08227 0.0
C210 C 0.26027 0.43383 0.24731 0.0
C211 C 0.3116 0.41727 0.13793 0.0
C212 C 0.32463 0.40986 0.15732 0.0
C213 C 0.33013 0.40155 0.10697 0.0
C214 C 0.34123 0.39347 0.12667 0.0
C215 C 0.34682 0.39343 0.19729 0.0
C216 C 0.34176 0.40218 0.24706 0.0
C217 C 0.33087 0.41038 0.2272 0.0
C218 C 0.30657 0.44632 0.33289 0.0
C219 C 0.35024 0.47761 0.19236 0.0
O220 O 0.28156 0.47918 0.27863 0.0
O221 O 0.31224 0.49943 0.23666 0.0
O222 O 0.31145 0.48117 0.10742 0.0
O223 O 0.29205 0.45489 0.13096 0.0
O224 O 0.27157 0.44906 0.27374 0.0
O225 O 0.26892 0.42918 0.19712 0.0
O226 O 0.32168 0.43313 0.11327 0.0
O227 O 0.296 0.41392 0.18328 0.0
O228 O 0.29808 0.43143 0.30684 0.0
O229 O 0.31596 0.45805 0.28503 0.0
O230 O 0.33966 0.46234 0.16629 0.0
O231 O 0.33994 0.4839 0.22757 0.0
H232 H 0.30533 0.52856 0.28317 0.0
H233 H 0.28817 0.54407 0.24309 0.0
H234 H 0.2419 0.49938 0.14084 0.0
H235 H 0.25904 0.4839 0.18189 0.0
H236 H 0.32547 0.40103 0.05278 0.0
H237 H 0.34483 0.38678 0.08724 0.0
H238 H 0.34612 0.40261 0.30157 0.0
H239 H 0.32696 0.41686 0.26681 0.0
Nd240 Nd 0.50133 0.28198 0.67047 0.0
Nd241 Nd 0.54542 0.2876 0.68584 0.0
C242 C 0.46435 0.27663 0.62909 0.0
C243 C 0.45629 0.28572 0.58569 0.0
C244 C 0.45966 0.28785 0.51132 0.0
C245 C 0.45153 0.29623 0.47159 0.0
C246 C 0.43987 0.30268 0.50526 0.0
C247 C 0.43673 0.30064 0.57971 0.0
C248 C 0.44472 0.29219 0.61924 0.0
C249 C 0.52882 0.31173 0.73347 0.0
C250 C 0.53552 0.29716 0.53226 0.0
C251 C 0.58383 0.29869 0.73029 0.0
C252 C 0.5929 0.28971 0.76781 0.0
C253 C 0.61424 0.29833 0.78437 0.0
C254 C 0.62283 0.2895 0.81801 0.0
C255 C 0.61023 0.27186 0.83493 0.0
C256 C 0.58875 0.26338 0.81914 0.0
C257 C 0.58016 0.27222 0.78626 0.0
C258 C 0.52067 0.25411 0.64968 0.0
C259 C 0.50871 0.26745 0.81271 0.0
O260 O 0.47521 0.27085 0.59638 0.0
O261 O 0.47211 0.28308 0.68945 0.0
O262 O 0.50932 0.3015 0.75533 0.0
O263 O 0.53352 0.30616 0.67931 0.0
O264 O 0.51644 0.29243 0.55917 0.0
O265 O 0.55033 0.2974 0.5705 0.0
O266 O 0.56925 0.29996 0.76664 0.0
O267 O 0.57873 0.29432 0.66514 0.0
O268 O 0.54056 0.26149 0.66155 0.0
O269 O 0.51405 0.26438 0.65753 0.0
O270 O 0.52891 0.27817 0.7961 0.0
O271 O 0.49401 0.26414 0.76747 0.0
H272 H 0.46846 0.28298 0.48362 0.0
H273 H 0.45407 0.29736 0.41437 0.0
H274 H 0.4282 0.30569 0.60781 0.0
H275 H 0.44183 0.29074 0.6764 0.0
H276 H 0.6243 0.31183 0.77067 0.0
H277 H 0.63945 0.29636 0.82916 0.0
H278 H 0.57856 0.24987 0.83242 0.0
H279 H 0.56358 0.26537 0.77477 0.0
Nd280 Nd 0.02973 0.26839 0.64403 0.0
Nd281 Nd 1.0164 0.29732 0.66572 0.0
C282 C 0.048 0.25108 0.60397 0.0
C283 C 0.04139 0.23378 0.57995 0.0
C284 C 0.05375 0.23174 0.52735 0.0
C285 C 0.04815 0.21548 0.50532 0.0
C286 C 0.03002 0.20077 0.53551 0.0
C287 C 1.01748 0.20292 0.58761 0.0
C288 C 1.02307 0.21921 0.60943 0.0
C289 C 0.988 0.25274 0.69927 0.0
C290 C 1.0042 0.27583 0.5222 0.0
C291 C 0.99932 0.3156 0.70474 0.0
C292 C 1.00647 0.33303 0.72861 0.0
C293 C 0.9938 0.33549 0.77846 0.0
C294 C 1.00006 0.35182 0.80132 0.0
C295 C 1.01921 0.36619 0.77482 0.0
C296 C 0.03195 0.36364 0.72503 0.0
C297 C 1.02569 0.34726 0.70236 0.0
C298 C 0.05829 0.3125 0.61088 0.0
C299 C 0.0387 0.28768 0.79224 0.0
O300 O 0.04548 0.26126 0.56035 0.0
O301 O 0.04327 0.25221 0.67044 0.0
O302 O 0.998 0.24487 0.68348 0.0
O303 O 1.00029 0.26858 0.68418 0.0
O304 O 1.01661 0.26987 0.53866 0.0
O305 O 0.99994 0.28521 0.56416 0.0
O306 O 1.00139 0.30525 0.74872 0.0
O307 O 1.00394 0.31426 0.6384 0.0
O308 O 0.04886 0.32077 0.62688 0.0
O309 O 0.0455 0.29685 0.62621 0.0
O310 O 0.02683 0.29403 0.77384 0.0
O311 O 0.04429 0.27927 0.7493 0.0
H312 H 0.06787 0.24277 0.50346 0.0
H313 H 0.05803 0.21446 0.46422 0.0
H314 H 1.00356 0.19197 0.61282 0.0
H315 H 1.01316 0.22038 0.64993 0.0
H316 H 0.97891 0.32474 0.79951 0.0
H317 H 0.98966 0.35322 0.83891 0.0
H318 H 0.04691 0.37429 0.70404 0.0
H319 H 0.03588 0.34575 0.66426 0.0
Nd320 Nd 0.04754 0.7972 0.65045 0.0
Nd321 Nd 0.99662 0.7664 0.68232 0.0
C322 C 0.08541 0.82384 0.61142 0.0
C323 C 0.10715 0.83883 0.59181 0.0
C324 C 0.11249 0.84687 0.52325 0.0
C325 C 0.13362 0.8593 0.50227 0.0
C326 C 0.15017 0.86397 0.5489 0.0
C327 C 0.14462 0.85623 0.61808 0.0
C328 C 0.12353 0.84392 0.63913 0.0
C329 C 0.04333 0.7658 0.69484 0.0
C330 C 1.01979 0.77314 0.52431 0.0
C331 C 0.96163 0.73687 0.72225 0.0
C332 C 0.93939 0.72728 0.75472 0.0
C333 C 0.93368 0.71401 0.80626 0.0
C334 C 0.9125 0.70345 0.83202 0.0
C335 C 0.89612 0.70563 0.80663 0.0
C336 C 0.90198 0.71918 0.75584 0.0
C337 C 0.92323 0.7298 0.73024 0.0
C338 C 0.99967 0.79689 0.6358 0.0
C339 C 1.02168 0.79537 0.79838 0.0
O340 O 0.07034 0.81653 0.56665 0.0
O341 O 0.07958 0.81771 0.67726 0.0
O342 O 0.06107 0.77956 0.67704 0.0
O343 O 0.02885 0.76923 0.68719 0.0
O344 O 0.03586 0.78782 0.54214 0.0
O345 O 1.00465 0.76183 0.56964 0.0
O346 O 0.97765 0.74485 0.76306 0.0
O347 O 0.96508 0.74459 0.65939 0.0
O348 O 0.98199 0.78295 0.65439 0.0
O349 O 1.01493 0.79429 0.64425 0.0
O350 O 1.00588 0.77993 0.78603 0.0
O351 O 0.03811 0.80492 0.75343 0.0
H352 H 0.10042 0.8432 0.48494 0.0
H353 H 0.13709 0.8648 0.44847 0.0
H354 H 0.15665 0.85957 0.65622 0.0
H355 H 0.12019 0.83799 0.69214 0.0
H356 H 0.94561 0.71152 0.82563 0.0
H357 H 0.90901 0.69347 0.87185 0.0
H358 H 0.89005 0.72132 0.73393 0.0
H359 H 0.9269 0.73974 0.68994 0.0
H360 H 0.15909 0.64539 0.7533 0.0
H361 H 0.16271 0.64901 0.62277 0.0
H362 H 0.10285 0.60231 0.6092 0.0
H363 H 0.09898 0.59891 0.73861 0.0
H364 H 0.13431 0.60718 0.50265 0.0
H365 H 0.10027 0.63523 0.60584 0.0
H366 H 0.09729 0.65441 0.68873 0.0
H367 H 0.15429 0.69692 0.59287 0.0
H368 H 0.15784 0.67789 0.51024 0.0
H369 H 0.10735 0.6201 0.15783 0.0
H370 H 0.10282 0.61636 0.28824 0.0
H371 H 0.16379 0.66179 0.30535 0.0
H372 H 0.16858 0.66527 0.1761 0.0
H373 H 0.13104 0.65723 0.41012 0.0
H374 H 0.16373 0.62786 0.30334 0.0
H375 H 0.16426 0.60792 0.21882 0.0
H376 H 0.1076 0.56674 0.32257 0.0
H377 H 0.10623 0.58657 0.40602 0.0
C378 C 0.14705 0.63573 0.72209 0.0
C379 C 0.12873 0.62196 0.75531 0.0
C380 C 0.14907 0.63781 0.64793 0.0
C381 C 0.13293 0.62596 0.60678 0.0
C382 C 0.11543 0.61155 0.64012 0.0
C383 C 0.11322 0.60968 0.71388 0.0
C384 C 0.13298 0.6294 0.52989 0.0
C385 C 0.13349 0.61805 0.48234 0.0
C386 C 0.13175 0.64354 0.50387 0.0
C387 C 0.12947 0.6551 0.55244 0.0
C388 C 0.11227 0.64864 0.60283 0.0
C389 C 0.11046 0.65948 0.64972 0.0
C390 C 0.12563 0.67686 0.64623 0.0
C391 C 0.14258 0.68344 0.59562 0.0
C392 C 0.14451 0.67263 0.54873 0.0
C393 C 0.11948 0.62944 0.18972 0.0
C394 C 0.13838 0.64283 0.15756 0.0
C395 C 0.11692 0.62732 0.26383 0.0
C396 C 0.13308 0.63876 0.30596 0.0
C397 C 0.15117 0.65287 0.27362 0.0
C398 C 0.15393 0.65477 0.19994 0.0
C399 C 0.13252 0.63507 0.38286 0.0
C400 C 0.1319 0.64637 0.43042 0.0
C401 C 0.13344 0.62079 0.40889 0.0
C402 C 0.13472 0.60875 0.36041 0.0
C403 C 0.15127 0.61458 0.30778 0.0
C404 C 0.15174 0.60331 0.26008 0.0
C405 C 0.136 0.58608 0.26539 0.0
C406 C 0.11976 0.5801 0.31847 0.0
C407 C 0.1191 0.59136 0.36586 0.0
H408 H 0.13641 0.57738 0.22841 0.0
H409 H 0.1242 0.68524 0.68261 0.0
H410 H 0.60104 0.57438 0.82238 0.0
H411 H 0.6004 0.57722 0.69286 0.0
H412 H 0.65466 0.57102 0.66757 0.0
H413 H 0.6554 0.56821 0.79622 0.0
H414 H 0.65674 0.59628 0.57688 0.0
H415 H 0.60839 0.53768 0.65322 0.0
H416 H 0.57845 0.51457 0.72572 0.0
H417 H 0.53639 0.52928 0.63951 0.0
H418 H 0.56618 0.55266 0.5672 0.0
H419 H 0.64829 0.57475 0.21743 0.0
H420 H 0.64878 0.57114 0.34658 0.0
H421 H 0.59518 0.5781 0.37505 0.0
H422 H 0.59461 0.58171 0.24665 0.0
H423 H 0.59286 0.55209 0.46408 0.0
H424 H 0.64162 0.61097 0.38873 0.0
H425 H 0.67178 0.63414 0.31717 0.0
H426 H 0.71332 0.61874 0.40231 0.0
H427 H 0.6833 0.5953 0.47358 0.0
C428 C 0.61292 0.57384 0.78894 0.0
C429 C 0.62806 0.57085 0.81842 0.0
C430 C 0.61253 0.57542 0.71545 0.0
C431 C 0.62734 0.57409 0.67145 0.0
C432 C 0.64311 0.57201 0.7011 0.0
C433 C 0.64343 0.57032 0.77428 0.0
C434 C 0.62576 0.5739 0.59432 0.0
C435 C 0.64289 0.58655 0.55201 0.0
C436 C 0.60755 0.56123 0.56276 0.0
C437 C 0.58955 0.54703 0.60537 0.0
C438 C 0.59279 0.53607 0.65011 0.0
C439 C 0.57584 0.52291 0.69111 0.0
C440 C 0.55554 0.52049 0.68739 0.0
C441 C 0.55213 0.53119 0.64242 0.0
C442 C 0.56903 0.54438 0.60137 0.0
C443 C 0.63651 0.5753 0.25144 0.0
C444 C 0.62162 0.57874 0.22292 0.0
C445 C 0.6368 0.57325 0.32474 0.0
C446 C 0.62214 0.57455 0.36958 0.0
C447 C 0.60659 0.57709 0.34084 0.0
C448 C 0.60639 0.57926 0.26782 0.0
C449 C 0.62384 0.5745 0.44666 0.0
C450 C 0.60672 0.5618 0.48896 0.0
C451 C 0.64209 0.58711 0.47825 0.0
C452 C 0.66018 0.60127 0.43583 0.0
C453 C 0.65715 0.61244 0.39171 0.0
C454 C 0.67422 0.62563 0.35129 0.0
C455 C 0.69444 0.62788 0.35503 0.0
C456 C 0.69764 0.61697 0.39936 0.0
C457 C 0.68061 0.60373 0.4398 0.0
H458 H 0.70764 0.63811 0.3237 0.0
H459 H 0.54244 0.51031 0.71922 0.0
H460 H 0.73984 0.14105 0.88195 0.0
H461 H 0.74114 0.13794 0.75418 0.0
H462 H 0.73542 0.08889 0.79122 0.0
H463 H 0.73364 0.09179 0.92043 0.0
H464 H 0.77092 0.11412 0.69419 0.0
H465 H 0.69566 0.08719 0.7326 0.0
H466 H 0.66218 0.08456 0.77731 0.0
H467 H 0.67626 0.12939 0.65158 0.0
H468 H 0.71002 0.13246 0.60699 0.0
H469 H 0.74647 0.08285 0.34709 0.0
H470 H 0.74742 0.08752 0.47414 0.0
H471 H 0.75316 0.13639 0.43052 0.0
H472 H 0.75292 0.13198 0.30217 0.0
H473 H 0.7182 0.11205 0.53071 0.0
H474 H 0.79278 0.13952 0.49189 0.0
H475 H 0.82726 0.14371 0.44938 0.0
H476 H 0.81563 0.09974 0.57646 0.0
H477 H 0.78091 0.09512 0.61895 0.0
C478 C 0.73856 0.12948 0.86295 0.0
C479 C 0.73655 0.1166 0.91069 0.0
C480 C 0.73928 0.12774 0.79006 0.0
C481 C 0.7383 0.11319 0.76364 0.0
C482 C 0.73611 0.10018 0.81105 0.0
C483 C 0.73498 0.10178 0.88443 0.0
C484 C 0.74063 0.11216 0.68631 0.0
C485 C 0.75926 0.11336 0.65833 0.0
C486 C 0.72574 0.1119 0.64002 0.0
C487 C 0.7055 0.11016 0.66708 0.0
C488 C 0.69174 0.0966 0.7151 0.0
C489 C 0.67269 0.09501 0.74028 0.0
C490 C 0.66713 0.10683 0.71747 0.0
C491 C 0.68061 0.12026 0.66931 0.0
C492 C 0.6997 0.12193 0.64403 0.0
C493 C 0.74827 0.09471 0.36452 0.0
C494 C 0.74959 0.10707 0.31527 0.0
C495 C 0.74889 0.09738 0.43694 0.0
C496 C 0.75042 0.11229 0.46137 0.0
C497 C 0.75209 0.12483 0.4123 0.0
C498 C 0.75199 0.12234 0.33937 0.0
C499 C 0.74847 0.11392 0.53845 0.0
C500 C 0.72989 0.11283 0.56647 0.0
C501 C 0.7635 0.11443 0.58477 0.0
C502 C 0.78409 0.11683 0.55781 0.0
C503 C 0.79742 0.13059 0.50999 0.0
C504 C 0.81706 0.13309 0.48612 0.0
C505 C 0.8236 0.12196 0.51 0.0
C506 C 0.81052 0.10832 0.55787 0.0
C507 C 0.79086 0.10576 0.58188 0.0
H508 H 0.83883 0.12394 0.49158 0.0
H509 H 0.65235 0.10557 0.73697 0.0
H510 H 0.89541 0.91184 0.56651 0.0
H511 H 0.89597 0.90904 0.69556 0.0
H512 H 0.91363 0.96171 0.71087 0.0
H513 H 0.91316 0.96461 0.58174 0.0
H514 H 0.94063 0.95414 0.77771 0.0
H515 H 0.86583 0.93111 0.7727 0.0
H516 H 0.82981 0.91218 0.73355 0.0
H517 H 0.8319 0.86837 0.8104 0.0
H518 H 0.86809 0.88704 0.84914 0.0
H519 H 0.92779 0.95355 0.15515 0.0
H520 H 0.9279 0.95643 0.02583 0.0
H521 H 0.90991 0.90367 0.01128 0.0
H522 H 0.90974 0.9007 0.14057 0.0
H523 H 0.88319 0.91124 0.94381 0.0
H524 H 0.95781 0.93413 0.94933 0.0
H525 H 0.99399 0.95293 0.98745 0.0
H526 H 0.99241 0.99686 0.90911 0.0
H527 H 0.95607 0.97833 0.87141 0.0
C528 C 0.89893 0.9227 0.59758 0.0
C529 C 0.9044 0.93847 0.56428 0.0
C530 C 0.89925 0.92109 0.67121 0.0
C531 C 0.90495 0.93521 0.71254 0.0
C532 C 0.90932 0.95072 0.6797 0.0
C533 C 0.90891 0.95232 0.60608 0.0
C534 C 0.90788 0.9341 0.78922 0.0
C535 C 0.92799 0.94495 0.81438 0.0
C536 C 0.89155 0.92174 0.83622 0.0
C537 C 0.86976 0.91047 0.81322 0.0
C538 C 0.85869 0.91743 0.78072 0.0
C539 C 0.83822 0.90675 0.75871 0.0
C540 C 0.82859 0.88908 0.76932 0.0
C541 C 0.83939 0.88206 0.80214 0.0
C542 C 0.85987 0.89269 0.82421 0.0
C543 C 0.92434 0.94269 0.12421 0.0
C544 C 0.91855 0.92686 0.15775 0.0
C545 C 0.92442 0.94434 0.05042 0.0
C546 C 0.91879 0.93022 0.00919 0.0
C547 C 0.91418 0.91467 0.04234 0.0
C548 C 0.91419 0.91303 0.11608 0.0
C549 C 0.91594 0.9313 0.9324 0.0
C550 C 0.89584 0.92043 0.90719 0.0
C551 C 0.93229 0.94363 0.88536 0.0
C552 C 0.95412 0.95484 0.90821 0.0
C553 C 0.96509 0.94781 0.94084 0.0
C554 C 0.98565 0.95841 0.96224 0.0
C555 C 0.99547 0.97608 0.95089 0.0
C556 C 0.98477 0.98317 0.91797 0.0
C557 C 0.96419 0.97262 0.89651 0.0
H558 H 1.01139 0.98427 0.96746 0.0
H559 H 0.81275 0.88083 0.75224 0.0
H560 H 0.40163 0.96947 0.50237 0.0
H561 H 0.39564 0.96719 0.63147 0.0
H562 H 0.45524 0.01393 0.64849 0.0
H563 H 0.46114 0.01648 0.51936 0.0
H564 H 0.41544 0.96625 0.7494 0.0
H565 H 0.44757 0.03879 0.76191 0.0
H566 H 0.45284 0.06267 0.68205 0.0
H567 H 0.40208 0.02775 0.55782 0.0
H568 H 0.39623 1.00372 0.63768 0.0
H569 H 0.43561 0.01345 0.08816 0.0
H570 H 0.43772 0.0153 0.9583 0.0
H571 H 0.37639 0.96949 0.95685 0.0
H572 H 0.37436 0.96737 0.08668 0.0
H573 H 0.41456 0.01593 0.84678 0.0
H574 H 0.38028 0.94382 0.83586 0.0
H575 H 0.37404 0.91944 0.91446 0.0
H576 H 0.42735 0.95278 0.03332 0.0
H577 H 0.43414 0.97728 0.95463 0.0
C578 C 0.41371 0.97903 0.53379 0.0
C579 C 0.43168 0.99333 0.50101 0.0
C580 C 0.41024 0.97771 0.60747 0.0
C581 C 0.42473 0.99063 0.64908 0.0
C582 C 0.44365 1.00404 0.61694 0.0
C583 C 0.44706 1.00542 0.54333 0.0
C584 C 0.41929 0.99089 0.72495 0.0
C585 C 0.41498 0.977 0.77058 0.0
C586 C 0.41875 1.00498 0.75232 0.0
C587 C 0.42162 0.01944 0.70545 0.0
C588 C 0.43744 0.03622 0.71786 0.0
C589 C 0.44053 0.04978 0.67254 0.0
C590 C 0.42785 0.04672 0.61477 0.0
C591 C 0.41193 0.0301 0.60247 0.0
C592 C 0.40872 0.01651 0.64775 0.0
C593 C 0.42234 1.00403 0.06015 0.0
C594 C 0.40503 0.99005 0.09715 0.0
C595 C 0.42355 1.00512 0.98603 0.0
C596 C 0.40745 0.99229 0.94824 0.0
C597 C 0.38916 0.97932 0.98524 0.0
C598 C 0.388 0.97815 0.05929 0.0
C599 C 0.41099 0.99139 0.87134 0.0
C600 C 0.41491 1.00515 0.82547 0.0
C601 C 0.41099 0.97711 0.8436 0.0
C602 C 0.40756 0.9624 0.88981 0.0
C603 C 0.39074 0.94592 0.87851 0.0
C604 C 0.3871 0.93209 0.92309 0.0
C605 C 0.40025 0.93457 0.97898 0.0
C606 C 0.41715 0.95088 0.99012 0.0
C607 C 0.4209 0.96474 0.94553 0.0
H608 H 0.39736 0.92386 0.01355 0.0
H609 H 0.43032 0.05722 0.57962 0.0
H610 H 0.32508 0.47633 0.40093 0.0
H611 H 0.32445 0.47959 0.52969 0.0
H612 H 0.28777 0.42488 0.56492 0.0
H613 H 0.28808 0.42158 0.43729 0.0
H614 H 0.27169 0.43999 0.64342 0.0
H615 H 0.34028 0.44675 0.59238 0.0
H616 H 0.37546 0.45956 0.53005 0.0
H617 H 0.39213 0.50851 0.60653 0.0
H618 H 0.35692 0.49603 0.66858 0.0
H619 H 0.28345 0.43586 0.01679 0.0
H620 H 0.28446 0.43197 0.88858 0.0
H621 H 0.32154 0.48655 0.84913 0.0
H622 H 0.32083 0.49046 0.97612 0.0
H623 H 0.33755 0.47112 0.77295 0.0
H624 H 0.26902 0.46466 0.8219 0.0
H625 H 0.23366 0.45218 0.88257 0.0
H626 H 0.21681 0.40294 0.80895 0.0
H627 H 0.25221 0.4151 0.74863 0.0
C628 C 0.31696 0.46505 0.4364 0.0
C629 C 0.30676 0.44872 0.40953 0.0
C630 C 0.31664 0.4669 0.50969 0.0
C631 C 0.3062 0.45244 0.55668 0.0
C632 C 0.29589 0.43618 0.52956 0.0
C633 C 0.29618 0.43433 0.45667 0.0
C634 C 0.30581 0.45411 0.6343 0.0
C635 C 0.28609 0.44662 0.67194 0.0
C636 C 0.32461 0.46301 0.67103 0.0
C637 C 0.34589 0.47049 0.63455 0.0
C638 C 0.35139 0.46027 0.59551 0.0
C639 C 0.37135 0.46747 0.56029 0.0
C640 C 0.386 0.48485 0.56414 0.0
C641 C 0.38075 0.49506 0.6035 0.0
C642 C 0.36081 0.48792 0.63877 0.0
C643 C 0.29173 0.44697 0.9805 0.0
C644 C 0.30194 0.46344 0.00599 0.0
C645 C 0.2923 0.44476 0.90753 0.0
C646 C 0.30297 0.45901 0.85949 0.0
C647 C 0.31328 0.47541 0.88529 0.0
C648 C 0.31276 0.47761 0.95782 0.0
C649 C 0.30342 0.45701 0.78209 0.0
C650 C 0.32315 0.46444 0.74447 0.0
C651 C 0.28463 0.44808 0.74532 0.0
C652 C 0.26334 0.44076 0.78143 0.0
C653 C 0.25784 0.45115 0.81915 0.0
C654 C 0.23778 0.44413 0.85338 0.0
C655 C 0.22302 0.42677 0.8498 0.0
C656 C 0.22827 0.41639 0.8118 0.0
C657 C 0.24833 0.42333 0.77754 0.0
H658 H 0.20749 0.42136 0.87632 0.0
H659 H 0.40143 0.4904 0.53676 0.0
H660 H 0.55774 0.2872 0.44982 0.0
H661 H 0.55239 0.28082 0.32509 0.0
H662 H 0.51397 0.3041 0.31454 0.0
H663 H 0.51842 0.3097 0.44059 0.0
H664 H 0.49306 0.27354 0.27097 0.0
H665 H 0.56416 0.32071 0.22042 0.0
H666 H 0.60272 0.33763 0.23362 0.0
H667 H 0.60864 0.295 0.17593 0.0
H668 H 0.57009 0.27776 0.16322 0.0
H669 H 0.48327 0.2735 0.89729 0.0
H670 H 0.48586 0.27609 0.02534 0.0
H671 H 0.52471 0.25309 0.02543 0.0
H672 H 0.52319 0.25158 0.89642 0.0
H673 H 0.54507 0.28227 0.07642 0.0
H674 H 0.4741 0.23541 0.12136 0.0
H675 H 0.43558 0.21853 0.10762 0.0
H676 H 0.42919 0.26028 0.17549 0.0
H677 H 0.4677 0.2775 0.18873 0.0
C678 C 0.5489 0.2916 0.42013 0.0
C679 C 0.5385 0.29895 0.45456 0.0
C680 C 0.54577 0.28788 0.34876 0.0
C681 C 0.53271 0.29194 0.3104 0.0
C682 C 0.52395 0.30073 0.34329 0.0
C683 C 0.52669 0.3041 0.41499 0.0
C684 C 0.52621 0.28533 0.2391 0.0
C685 C 0.50444 0.27566 0.22796 0.0
C686 C 0.54101 0.2875 0.18406 0.0
C687 C 0.56421 0.2979 0.19145 0.0
C688 C 0.57367 0.31491 0.21103 0.0
C689 C 0.59553 0.32456 0.21834 0.0
C690 C 0.60811 0.31738 0.20579 0.0
C691 C 0.59888 0.30054 0.1857 0.0
C692 C 0.57703 0.29083 0.17835 0.0
C693 C 0.49143 0.26821 0.92535 0.0
C694 C 0.50293 0.26225 0.88778 0.0
C695 C 0.49298 0.26973 -0.00137 0.0
C696 C 0.50558 0.26485 0.0352 0.0
C697 C 0.51505 0.25706 -0.0017 0.0
C698 C 0.51398 0.25599 0.92487 0.0
C699 C 0.51186 0.2705 0.10789 0.0
C700 C 0.53363 0.28002 0.1194 0.0
C701 C 0.49704 0.26818 0.16321 0.0
C702 C 0.47384 0.25779 0.15555 0.0
C703 C 0.46451 0.24104 0.13288 0.0
C704 C 0.44266 0.2314 0.12526 0.0
C705 C 0.42995 0.23834 0.14054 0.0
C706 C 0.43905 0.25492 0.16365 0.0
C707 C 0.46088 0.26462 0.17132 0.0
H708 H 0.41305 0.23086 0.13458 0.0
H709 H 0.62503 0.32488 0.2115 0.0
H710 H 1.0032 0.29901 0.43131 0.0
H711 H 1.00488 0.29831 0.30189 0.0
H712 H 0.99206 0.24661 0.31981 0.0
H713 H 0.99085 0.24742 0.449 0.0
H714 H 0.02939 0.26713 0.25462 0.0
H715 H 0.95943 0.25603 0.23174 0.0
H716 H 0.92846 0.25944 0.25009 0.0
H717 H 0.9636 0.31003 0.1528 0.0
H718 H 0.99492 0.30704 0.13488 0.0
H719 H 0.0362 0.26185 0.87498 0.0
H720 H 0.02908 0.25832 0.00378 0.0
H721 H 0.04143 0.30985 0.00838 0.0
H722 H 0.04807 0.31327 0.87966 0.0
H723 H 1.00206 0.28687 0.06017 0.0
H724 H 0.07284 0.298 0.091 0.0
H725 H 0.10314 0.29374 0.07164 0.0
H726 H 0.06514 0.24184 0.1529 0.0
H727 H 0.03451 0.24571 0.17188 0.0
C728 C 0.99972 0.28724 0.40749 0.0
C729 C 0.99718 0.27335 0.44949 0.0
C730 C 1.00074 0.28685 0.33357 0.0
C731 C 0.99889 0.27247 0.30146 0.0
C732 C 0.99375 0.25787 0.3437 0.0
C733 C 0.99296 0.25832 0.41732 0.0
C734 C 1.00617 0.27379 0.22645 0.0
C735 C 1.02311 0.27111 0.21178 0.0
C736 C 0.99835 0.27942 0.17121 0.0
C737 C 0.97962 0.28137 0.18266 0.0
C738 C 0.96066 0.26797 0.21505 0.0
C739 C 0.94301 0.26981 0.22521 0.0
C740 C 0.94408 0.28496 0.20282 0.0
C741 C 0.9628 0.2983 0.17017 0.0
C742 C 0.9805 0.29653 0.15994 0.0
C743 C 0.03837 0.27266 0.90402 0.0
C744 C 0.04255 0.28779 0.86789 0.0
C745 C 0.03415 0.2706 0.97746 0.0
C746 C 0.03446 0.28377 0.01519 0.0
C747 C 0.04089 0.2995 0.9799 0.0
C748 C 0.04487 0.30149 0.90666 0.0
C749 C 1.02547 0.28052 0.08888 0.0
C750 C 1.00822 0.28282 0.10311 0.0
C751 C 0.03291 0.27444 0.14367 0.0
C752 C 0.05132 0.2721 0.13215 0.0
C753 C 0.07088 0.28563 0.10413 0.0
C754 C 0.08813 0.2833 0.09337 0.0
C755 C 0.08605 0.26752 0.11083 0.0
C756 C 0.06672 0.25405 0.13929 0.0
C757 C 0.04942 0.25631 0.15012 0.0
H758 H 0.09943 0.26574 0.10247 0.0
H759 H 0.93039 0.28635 0.21063 0.0
H760 H 0.05088 0.78213 0.4228 0.0
H761 H 0.04883 0.78825 0.29752 0.0
H762 H 0.98147 0.76728 0.32974 0.0
H763 H 0.9834 0.76081 0.45525 0.0
H764 H 0.99264 0.76006 0.20136 0.0
H765 H 1.01446 0.81117 0.3339 0.0
H766 H 0.03678 0.83369 0.41434 0.0
H767 H 0.09227 0.84611 0.28486 0.0
H768 H 0.07036 0.82399 0.20279 0.0
H769 H 0.98791 0.79176 0.87592 0.0
H770 H 0.98558 0.79259 0.00509 0.0
H771 H 0.0527 0.81186 0.01009 0.0
H772 H 0.05521 0.81169 0.88071 0.0
H773 H 0.0382 0.82125 0.12445 0.0
H774 H 1.0197 0.76989 0.00195 0.0
H775 H 1.00003 0.74822 0.91537 0.0
H776 H 0.94123 0.73532 0.02497 0.0
H777 H 0.96057 0.75713 0.11161 0.0
C778 C 0.03553 0.77827 0.40243 0.0
C779 C 1.0173 0.7711 0.44815 0.0
C780 C 0.03444 0.782 0.33139 0.0
C781 C 1.01515 0.77881 0.30563 0.0
C782 C 0.99654 0.77007 0.3494 0.0
C783 C 0.9976 0.76617 0.4206 0.0
C784 C 1.01469 0.78526 0.23388 0.0
C785 C 1.00222 0.77348 0.18489 0.0
C786 C 0.02761 0.80274 0.21244 0.0
C787 C 0.04079 0.81585 0.26249 0.0
C788 C 0.03143 0.81864 0.32283 0.0
C789 C 0.04398 0.83135 0.3686 0.0
C790 C 0.06588 0.84119 0.35508 0.0
C791 C 0.0753 0.83846 0.29536 0.0
C792 C 0.06283 0.82592 0.24896 0.0
C793 C 1.00228 0.79688 0.90457 0.0
C794 C 1.02164 0.80128 0.86942 0.0
C795 C 1.00095 0.79737 0.97807 0.0
C796 C 1.01883 0.80172 0.01675 0.0
C797 C 0.0387 0.80832 0.9809 0.0
C798 C 0.04012 0.80819 0.90712 0.0
C799 C 1.01623 0.79605 0.09203 0.0
C800 C 0.0282 0.80791 0.1415 0.0
C801 C 1.00317 0.77859 0.11379 0.0
C802 C 0.99154 0.76524 0.06272 0.0
C803 C 1.00257 0.76248 0.00734 0.0
C804 C 0.99149 0.75019 0.95828 0.0
C805 C 0.9694 0.74044 0.96461 0.0
C806 C 0.95834 0.74292 0.02011 0.0
C807 C 0.96934 0.75524 0.0692 0.0
H808 H 0.96086 0.73092 0.92669 0.0
H809 H 0.07554 0.85097 0.39074 0.0
H810 H 0.22063 0.51096 0.18182 0.0
H811 H 0.20308 0.52638 0.14545 0.0
H812 H 0.26381 0.57224 0.10579 0.0
H813 H 0.28148 0.5569 0.14245 0.0
H814 H 0.23849 0.58045 0.16866 0.0
H815 H 0.23169 0.54753 0.96726 0.0
H816 H 0.22226 0.52152 0.90379 0.0
H817 H 0.15726 0.49953 0.9773 0.0
H818 H 0.16628 0.52543 0.04127 0.0
H819 H 0.2001 0.62641 0.96695 0.0
H820 H 0.21813 0.6111 0.00212 0.0
H821 H 0.15808 0.56725 0.07191 0.0
H822 H 0.14004 0.58248 0.03794 0.0
H823 H 0.18305 0.5582 0.99253 0.0
H824 H 0.19044 0.59154 0.19419 0.0
H825 H 0.20053 0.61766 0.2579 0.0
H826 H 0.26513 0.63918 0.18065 0.0
H827 H 0.25547 0.6132 0.11645 0.0
C828 C 0.23035 0.52427 0.16459 0.0
C829 C 0.25261 0.53255 0.16507 0.0
C830 C 0.22022 0.53314 0.14365 0.0
C831 C 0.23198 0.55055 0.1216 0.0
C832 C 0.2542 0.55887 0.12247 0.0
C833 C 0.26435 0.55003 0.14374 0.0
C834 C 0.2212 0.56012 0.09868 0.0
C835 C 0.22662 0.57565 0.12927 0.0
C836 C 0.20526 0.55388 0.04837 0.0
C837 C 0.1997 0.53835 0.0096 0.0
C838 C 0.2154 0.53711 0.97015 0.0
C839 C 0.21011 0.52242 0.93391 0.0
C840 C 0.18917 0.50889 0.93649 0.0
C841 C 0.17345 0.51005 0.97517 0.0
C842 C 0.17863 0.52475 0.0113 0.0
C843 C 0.1907 0.61349 0.98951 0.0
C844 C 0.16855 0.60575 -0.00074 0.0
C845 C 0.20107 0.60475 0.01004 0.0
C846 C 0.18955 0.58796 0.04014 0.0
C847 C 0.16741 0.58014 0.04886 0.0
C848 C 0.1571 0.58893 0.02939 0.0
C849 C 0.20046 0.5785 0.06227 0.0
C850 C 0.195 0.56299 0.03167 0.0
C851 C 0.21643 0.58479 0.11221 0.0
C852 C 0.2222 0.60051 0.14986 0.0
C853 C 0.20677 0.60191 0.19023 0.0
C854 C 0.2124 0.61666 0.22656 0.0
C855 C 0.23341 0.63009 0.22294 0.0
C856 C 0.24886 0.62878 0.18325 0.0
C857 C 0.24332 0.61403 0.14703 0.0
H858 H 0.23774 0.6415 0.25112 0.0
H859 H 0.18511 0.49751 0.9085 0.0
H860 H 0.70375 0.67697 0.15884 0.0
H861 H 0.7297 0.70441 0.2034 0.0
H862 H 0.72427 0.73036 0.01822 0.0
H863 H 0.69791 0.70301 0.97386 0.0
H864 H 0.76602 0.74373 0.05395 0.0
H865 H 0.6988 0.72845 0.17152 0.0
H866 H 0.66595 0.70966 0.24406 0.0
H867 H 0.70241 0.71037 0.41857 0.0
H868 H 0.7355 0.72898 0.34665 0.0
H869 H 0.8054 0.82755 0.16631 0.0
H870 H 0.78471 0.79882 0.12371 0.0
H871 H 0.79051 0.77774 0.32324 0.0
H872 H 0.81092 0.80653 0.36684 0.0
H873 H 0.7504 0.7609 0.28479 0.0
H874 H 0.81742 0.77746 0.17394 0.0
H875 H 0.85086 0.79567 0.10345 0.0
H876 H 0.81616 0.79201 0.9195 0.0
H877 H 0.78247 0.77397 0.98917 0.0
C878 C 0.7079 0.6885 0.12768 0.0
C879 C 0.69847 0.6877 0.06292 0.0
C880 C 0.72286 0.70419 0.15315 0.0
C881 C 0.7288 0.71948 0.11455 0.0
C882 C 0.71997 0.71874 0.04891 0.0
C883 C 0.70492 0.70304 0.0235 0.0
C884 C 0.74369 0.73626 0.14352 0.0
C885 C 0.76252 0.74758 0.10405 0.0
C886 C 0.73949 0.74106 0.21007 0.0
C887 C 0.71961 0.72995 0.25346 0.0
C888 C 0.69981 0.72448 0.22517 0.0
C889 C 0.68115 0.71389 0.2662 0.0
C890 C 0.68209 0.70878 0.33581 0.0
C891 C 0.7017 0.71431 0.3646 0.0
C892 C 0.72042 0.72489 0.32375 0.0
C893 C 0.80229 0.81681 0.20122 0.0
C894 C 0.80975 0.81936 0.27018 0.0
C895 C 0.79062 0.80038 0.17649 0.0
C896 C 0.78615 0.78607 0.21998 0.0
C897 C 0.79378 0.78857 0.28859 0.0
C898 C 0.80557 0.80504 0.31329 0.0
C899 C 0.77266 0.76854 0.19475 0.0
C900 C 0.75405 0.75706 0.23492 0.0
C901 C 0.77718 0.76355 0.12914 0.0
C902 C 0.7974 0.77449 0.08702 0.0
C903 C 0.8169 0.78067 0.11863 0.0
C904 C 0.83591 0.79093 0.07878 0.0
C905 C 0.83563 0.79503 0.00709 0.0
C906 C 0.81635 0.78884 0.97507 0.0
C907 C 0.79729 0.77858 0.01471 0.0
H908 H 0.85037 0.80297 0.97631 0.0
H909 H 0.66763 0.70058 0.3675 0.0
H910 H 0.67139 0.10209 0.17012 0.0
H911 H 0.63324 0.08787 0.18957 0.0
H912 H 0.62769 0.03989 0.14179 0.0
H913 H 0.66646 0.05443 0.11929 0.0
H914 H 0.59541 0.04038 0.08951 0.0
H915 H 0.6228 0.05194 0.31978 0.0
H916 H 0.64553 0.06919 0.41379 0.0
H917 H 0.61931 0.10176 0.40099 0.0
H918 H 0.59661 0.08484 0.30621 0.0
H919 H 0.48883 0.99257 0.24526 0.0
H920 H 0.52694 1.00518 0.22007 0.0
H921 H 0.5358 0.05543 0.2337 0.0
H922 H 0.49752 0.04286 0.2582 0.0
H923 H 0.56606 0.05244 0.30578 0.0
H924 H 0.53865 0.04019 0.07369 0.0
H925 H 0.51561 0.02207 0.98216 0.0
H926 H 0.54148 0.98938 0.0031 0.0
H927 H 0.56447 1.00717 0.09557 0.0
C928 C 0.66224 0.08848 0.16375 0.0
C929 C 0.6724 0.07948 0.14381 0.0
C930 C 0.64015 0.08026 0.17549 0.0
C931 C 0.62714 0.06255 0.16954 0.0
C932 C 0.63711 0.05351 0.14768 0.0
C933 C 0.6594 0.06185 0.13485 0.0
C934 C 0.60336 0.05381 0.18619 0.0
C935 C 0.5891 0.04284 0.13752 0.0
C936 C 0.5946 0.05704 0.24816 0.0
C937 C 0.60813 0.0672 0.30546 0.0
C938 C 0.62197 0.06284 0.3367 0.0
C939 C 0.63484 0.07255 0.39017 0.0
C940 C 0.6339 0.08658 0.41324 0.0
C941 C 0.62004 0.0909 0.38302 0.0
C942 C 0.60715 0.08124 0.32948 0.0
C943 C 0.4988 1.00633 0.24291 0.0
C944 C 0.4898 0.01661 0.25394 0.0
C945 C 0.52074 0.01357 0.22805 0.0
C946 C 0.53459 0.03137 0.22425 0.0
C947 C 0.52569 0.04168 0.23607 0.0
C948 C 0.50366 0.03444 0.24997 0.0
C949 C 0.55823 0.03917 0.20892 0.0
C950 C 0.57242 0.04995 0.25795 0.0
C951 C 0.56687 0.0356 0.1478 0.0
C952 C 0.55312 0.02491 0.09211 0.0
C953 C 0.5393 0.02905 0.05923 0.0
C954 C 0.52627 0.01886 0.00709 0.0
C955 C 0.52703 1.00455 0.98697 0.0
C956 C 0.54088 1.00044 0.01882 0.0
C957 C 0.55392 1.01059 0.07107 0.0
H958 H 0.51694 0.99667 0.94658 0.0
H959 H 0.64388 0.09408 0.45462 0.0
H960 H 0.70323 0.20367 0.16643 0.0
H961 H 0.68735 0.22 0.12466 0.0
H962 H 0.65581 0.18358 0.96558 0.0
H963 H 0.67108 0.16688 0.0082 0.0
H964 H 0.67633 0.21647 0.90999 0.0
H965 H 0.62798 0.18439 0.10688 0.0
H966 H 0.61722 0.17339 0.23119 0.0
H967 H 0.64354 0.22446 0.29947 0.0
H968 H 0.65476 0.2358 0.17556 0.0
H969 H 0.60471 0.24128 0.7968 0.0
H970 H 0.61977 0.22524 0.84897 0.0
H971 H 0.65171 0.26439 -0.00224 0.0
H972 H 0.63655 0.28053 0.9458 0.0
H973 H 0.63189 0.23112 0.06097 0.0
H974 H 0.67986 0.26315 0.86396 0.0
H975 H 0.69027 0.2741 0.73947 0.0
H976 H 0.66453 0.22303 0.6717 0.0
H977 H 0.65367 0.21174 0.7958 0.0
C978 C 0.6926 0.19891 0.12345 0.0
C979 C 0.68853 0.18391 0.09072 0.0
C980 C 0.6836 0.20833 0.09941 0.0
C981 C 0.67035 0.20301 0.04204 0.0
C982 C 0.66607 0.18799 0.00969 0.0
C983 C 0.67493 0.17849 0.03398 0.0
C984 C 0.66153 0.21338 0.01408 0.0
C985 C 0.66639 0.21948 0.94282 0.0
C986 C 0.64905 0.21773 0.05739 0.0
C987 C 0.64244 0.21096 0.132 0.0
C988 C 0.63167 0.19329 0.14846 0.0
C989 C 0.62545 0.18699 0.21884 0.0
C990 C 0.62975 0.19822 0.27322 0.0
C991 C 0.64026 0.21578 0.2573 0.0
C992 C 0.64654 0.22215 0.187 0.0
C993 C 0.61482 0.24644 0.84093 0.0
C994 C 0.61945 0.26219 0.86715 0.0
C995 C 0.62351 0.2373 0.87044 0.0
C996 C 0.63697 0.24367 0.92698 0.0
C997 C 0.64139 0.25926 0.9541 0.0
C998 C 0.63285 0.26852 0.92406 0.0
C999 C 0.64656 0.23406 0.95683 0.0
C1000 C 0.64188 0.22814 0.02833 0.0
C1001 C 0.65923 0.22986 0.91382 0.0
C1002 C 0.66577 0.23659 0.83913 0.0
C1003 C 0.67625 0.25424 0.82246 0.0
C1004 C 0.68227 0.26051 0.75198 0.0
C1005 C 0.67802 0.24926 0.69769 0.0
C1006 C 0.66779 0.23172 0.71381 0.0
C1007 C 0.66171 0.22538 0.78422 0.0
H1008 H 0.68269 0.25414 0.64315 0.0
H1009 H 0.6249 0.19332 0.32768 0.0
H1010 H 1.01491 0.37568 0.9088 0.0
H1011 H 1.02425 0.40399 0.94638 0.0
H1012 H 0.04758 0.42486 0.73298 0.0
H1013 H 0.03828 0.39656 0.69493 0.0
H1014 H 0.07384 0.446 0.82676 0.0
H1015 H 0.99822 0.41623 0.80205 0.0
H1016 H 0.96145 0.3926 0.82559 0.0
H1017 H 0.96615 0.40178 0.0481 0.0
H1018 H 1.00305 0.42533 0.02597 0.0
H1019 H 0.07556 0.52422 0.84773 0.0
H1020 H 0.06808 0.49584 0.81837 0.0
H1021 H 0.04479 0.47733 0.03416 0.0
H1022 H 0.05165 0.50562 0.0635 0.0
H1023 H 1.01908 0.45483 0.94454 0.0
H1024 H 0.09322 0.48534 0.97157 0.0
H1025 H 0.13009 0.50896 0.95196 0.0
H1026 H 0.12914 0.49815 0.73163 0.0
H1027 H 0.09199 0.47477 0.74941 0.0
C1028 C 1.0219 0.38625 0.86958 0.0
C1029 C 1.02565 0.38369 0.79852 0.0
C1030 C 0.02728 0.4025 0.89128 0.0
C1031 C 0.03637 0.41665 0.84245 0.0
C1032 C 0.04059 0.41422 0.77187 0.0
C1033 C 0.03529 0.39798 0.75016 0.0
C1034 C 0.04118 0.43388 0.86452 0.0
C1035 C 0.06178 0.44795 0.85165 0.0
C1036 C 1.0257 0.43648 0.8992 0.0
C1037 C 1.00345 0.42244 0.91243 0.0
C1038 C 0.99145 0.41314 0.85605 0.0
C1039 C 0.97058 0.39977 0.86913 0.0
C1040 C 0.96149 0.39566 0.93832 0.0
C1041 C 0.97322 0.40496 -0.00545 0.0
C1042 C 0.9941 0.41833 0.98176 0.0
C1043 C 0.06869 0.51411 0.889 0.0
C1044 C 0.06422 0.51733 0.95813 0.0
C1045 C 0.0646 0.49787 0.87222 0.0
C1046 C 0.05605 0.48436 0.92411 0.0
C1047 C 0.05145 0.48748 0.99308 0.0
C1048 C 0.05556 0.50376 0.00997 0.0
C1049 C 0.05168 0.467 0.90604 0.0
C1050 C 0.03117 0.4529 0.91974 0.0
C1051 C 0.06731 0.46437 0.87269 0.0
C1052 C 0.08971 0.47839 0.86171 0.0
C1053 C 0.10078 0.48809 0.91875 0.0
C1054 C 0.12175 0.50144 0.90798 0.0
C1055 C 0.13197 0.50505 0.84061 0.0
C1056 C 0.1212 0.49535 0.7838 0.0
C1057 C 0.10017 0.48206 0.79417 0.0
H1058 H 0.14824 0.51535 0.83247 0.0
H1059 H 0.94533 0.3853 0.94834 0.0
H1060 H 0.86374 0.71263 0.82669 0.0
H1061 H 0.82672 0.69313 0.86537 0.0
H1062 H 0.8389 0.65178 0.88515 0.0
H1063 H 0.8757 0.67102 0.84341 0.0
H1064 H 0.80229 0.63997 0.83056 0.0
H1065 H 0.83234 0.67259 0.03313 0.0
H1066 H 0.85184 0.69851 0.10024 0.0
H1067 H 0.80677 0.71337 0.04951 0.0
H1068 H 0.78717 0.68766 0.98122 0.0
H1069 H 0.70129 0.58373 0.01753 0.0
H1070 H 0.73972 0.60163 0.98949 0.0
H1071 H 0.73281 0.64527 0.95109 0.0
H1072 H 0.69489 0.6277 0.97907 0.0
H1073 H 0.76737 0.65478 0.02139 0.0
H1074 H 0.73843 0.62268 0.8142 0.0
H1075 H 0.71876 0.59649 0.74886 0.0
H1076 H 0.76177 0.58035 0.81126 0.0
H1077 H 0.78153 0.60636 0.87787 0.0
C1078 C 0.85863 0.69937 0.83857 0.0
C1079 C 0.87316 0.69364 0.83184 0.0
C1080 C 0.83732 0.68818 0.86175 0.0
C1081 C 0.82971 0.67084 0.87976 0.0
C1082 C 0.84409 0.66502 0.87227 0.0
C1083 C 0.86539 0.6762 0.84894 0.0
C1084 C 0.80687 0.65879 0.90558 0.0
C1085 C 0.79484 0.64317 0.87312 0.0
C1086 C 0.79665 0.66278 0.96052 0.0
C1087 C 0.80841 0.67827 0.00146 0.0
C1088 C 0.82668 0.68145 0.03581 0.0
C1089 C 0.83774 0.6961 0.07414 0.0
C1090 C 0.83058 0.7076 0.07897 0.0
C1091 C 0.81232 0.70446 0.04562 0.0
C1092 C 0.80122 0.68985 0.00714 0.0
C1093 C 0.708 0.59717 0.0038 0.0
C1094 C 0.69475 0.60412 0.00045 0.0
C1095 C 0.73004 0.60743 0.98716 0.0
C1096 C 0.73944 0.62494 0.9671 0.0
C1097 C 0.72624 0.63191 0.96609 0.0
C1098 C 0.70436 0.62171 0.98202 0.0
C1099 C 0.76279 0.6361 0.9459 0.0
C1100 C 0.7749 0.65156 0.97919 0.0
C1101 C 0.77308 0.63194 0.89196 0.0
C1102 C 0.76131 0.61636 0.85167 0.0
C1103 C 0.74359 0.61348 0.81443 0.0
C1104 C 0.73244 0.59868 0.77711 0.0
C1105 C 0.73897 0.58674 0.77608 0.0
C1106 C 0.75671 0.5896 0.81222 0.0
C1107 C 0.76789 0.60437 0.84975 0.0
H1108 H 0.73032 0.57529 0.74714 0.0
H1109 H 0.83916 0.71893 0.10869 0.0
H1110 H 0.06262 0.75119 0.628 0.0
H1111 H 0.0682 0.72848 0.67329 0.0
H1112 H 0.02943 0.72181 0.86157 0.0
H1113 H 1.02332 0.74443 0.81482 0.0
H1114 H 0.06976 0.72563 0.89045 0.0
H1115 H 1.01112 0.69088 0.7506 0.0
H1116 H 0.99075 0.68293 0.64281 0.0
H1117 H 0.04104 0.68085 0.5302 0.0
H1118 H 0.06187 0.68904 0.63704 0.0
H1119 H 0.06742 0.63877 0.93311 0.0
H1120 H 0.05088 0.6554 0.89855 0.0
H1121 H 0.11262 0.69971 0.85306 0.0
H1122 H 0.12912 0.68323 0.88571 0.0
H1123 H 0.05531 0.67411 0.76407 0.0
H1124 H 0.10953 0.7344 0.91244 0.0
H1125 H 0.12996 0.74229 0.02024 0.0
H1126 H 0.08727 0.69267 0.11788 0.0
H1127 H 0.06642 0.68457 0.01113 0.0
C1128 C 0.05467 0.74451 0.67803 0.0
C1129 C 0.0421 0.7494 0.71685 0.0
C1130 C 0.058 0.73154 0.70422 0.0
C1131 C 0.0493 0.72327 0.77112 0.0
C1132 C 0.03633 0.72788 0.80973 0.0
C1133 C 0.03258 0.74068 0.78257 0.0
C1134 C 0.05487 0.7106 0.80126 0.0
C1135 C 0.06642 0.71432 0.86291 0.0
C1136 C 0.05063 0.6957 0.76603 0.0
C1137 C 0.03812 0.6907 0.70175 0.0
C1138 C 1.01791 0.68886 0.70271 0.0
C1139 C 1.00627 0.68429 0.64179 0.0
C1140 C 1.01461 0.68142 0.57966 0.0
C1141 C 0.0346 0.68308 0.57836 0.0
C1142 C 0.04632 0.68767 0.63912 0.0
C1143 C 0.07748 0.65207 0.91602 0.0
C1144 C 0.09969 0.65956 0.91257 0.0
C1145 C 0.06798 0.66158 0.89582 0.0
C1146 C 0.08042 0.67894 0.87324 0.0
C1147 C 0.10256 0.68643 0.8705 0.0
C1148 C 0.11201 0.6769 0.88927 0.0
C1149 C 0.07055 0.68936 0.85229 0.0
C1150 C 0.05841 0.68531 0.79202 0.0
C1151 C 0.07431 0.704 0.88859 0.0
C1152 C 0.08653 0.70884 0.9535 0.0
C1153 C 0.10445 0.7252 0.95704 0.0
C1154 C 0.11611 0.72971 0.01795 0.0
C1155 C 0.10995 0.71798 0.07579 0.0
C1156 C 0.09207 0.70173 0.07295 0.0
C1157 C 0.08035 0.69717 0.01221 0.0
H1158 H 0.11901 0.72149 0.12286 0.0
H1159 H 1.00557 0.67788 0.53255 0.0
H1160 H 0.58133 0.4481 0.05462 0.0
H1161 H 0.57224 0.42067 0.00798 0.0
H1162 H 0.60417 0.44574 0.80704 0.0
H1163 H 0.61248 0.47322 0.85231 0.0
H1164 H 0.56877 0.41798 0.78304 0.0
H1165 H 0.62588 0.42989 0.92906 0.0
H1166 H 0.64613 0.43762 0.03714 0.0
H1167 H 0.59559 0.39331 0.15059 0.0
H1168 H 0.57489 0.38544 0.04344 0.0
H1169 H 0.56086 0.3408 0.662 0.0
H1170 H 0.57722 0.37025 0.70073 0.0
H1171 H 0.54048 0.35166 0.89973 0.0
H1172 H 0.52403 0.32247 0.8611 0.0
H1173 H 0.58203 0.37717 0.91754 0.0
H1174 H 0.52418 0.36705 0.77171 0.0
H1175 H 0.50467 0.35932 0.662 0.0
H1176 H 0.55838 0.4007 0.5459 0.0
H1177 H 0.57833 0.40852 0.65483 0.0
C1178 C 0.58627 0.44785 0.00021 0.0
C1179 C 0.59768 0.46305 0.95749 0.0
C1180 C 0.58129 0.43209 0.97379 0.0
C1181 C 0.58778 0.43102 0.9041 0.0
C1182 C 0.59904 0.44613 0.86108 0.0
C1183 C 0.60397 0.46192 0.88739 0.0
C1184 C 0.58241 0.41412 0.87598 0.0
C1185 C 0.57206 0.40923 0.81196 0.0
C1186 C 0.58639 0.40245 0.91364 0.0
C1187 C 0.59875 0.40716 0.97833 0.0
C1188 C 0.61901 0.42187 0.97721 0.0
C1189 C 0.63058 0.42626 0.03829 0.0
C1190 C 0.62213 0.41599 0.10074 0.0
C1191 C 0.6021 0.40127 0.1022 0.0
C1192 C 0.59045 0.39683 0.04128 0.0
C1193 C 0.55656 0.34302 0.71437 0.0
C1194 C 0.54112 0.32933 0.75844 0.0
C1195 C 0.56581 0.35985 0.73633 0.0
C1196 C 0.55996 0.36324 0.80306 0.0
C1197 C 0.54527 0.34945 0.84813 0.0
C1198 C 0.53585 0.33274 0.82588 0.0
C1199 C 0.56822 0.38105 0.82539 0.0
C1200 C 0.57904 0.38607 0.88835 0.0
C1201 C 0.56483 0.39288 0.78655 0.0
C1202 C 0.55283 0.38824 0.72118 0.0
C1203 C 0.5319 0.37441 0.72265 0.0
C1204 C 0.52075 0.37003 0.66064 0.0
C1205 C 0.53031 0.37948 0.59697 0.0
C1206 C 0.55102 0.39337 0.59523 0.0
C1207 C 0.56225 0.39778 0.65708 0.0
H1208 H 0.52165 0.37608 0.54902 0.0
H1209 H 0.63112 0.41941 0.14796 0.0
H1210 H 0.96588 0.26416 0.78315 0.0
H1211 H 0.93073 0.24619 0.84551 0.0
H1212 H 0.92541 0.20178 0.75096 0.0
H1213 H 0.95979 0.21941 0.68926 0.0
H1214 H 0.88844 0.19926 0.75078 0.0
H1215 H 0.9408 0.21287 0.9264 0.0
H1216 H 0.97047 0.23236 -0.00249 0.0
H1217 H 0.93324 0.2524 0.08348 0.0
H1218 H 0.90342 0.23315 0.01232 0.0
H1219 H 0.81019 0.12947 0.96931 0.0
H1220 H 0.84345 0.15095 0.9073 0.0
H1221 H 0.84245 0.19022 0.02628 0.0
H1222 H 0.80956 0.16874 0.08984 0.0
H1223 H 0.88135 0.19763 0.01344 0.0
H1224 H 0.82772 0.18216 0.84647 0.0
H1225 H 0.79808 0.16298 0.7746 0.0
H1226 H 0.83739 0.14707 0.66969 0.0
H1227 H 0.86717 0.16591 0.74193 0.0
C1228 C 0.95698 0.25062 0.77485 0.0
C1229 C 0.96574 0.24328 0.73099 0.0
C1230 C 0.93694 0.24028 0.8111 0.0
C1231 C 0.92525 0.22242 0.804 0.0
C1232 C 0.9338 0.21539 0.75791 0.0
C1233 C 0.95365 0.22558 0.7225 0.0
C1234 C 0.9045 0.21068 0.84515 0.0
C1235 C 0.88699 0.19887 0.80829 0.0
C1236 C 0.90212 0.21024 0.92028 0.0
C1237 C 0.91997 0.2217 0.96348 0.0
C1238 C 0.93899 0.22151 0.96015 0.0
C1239 C 0.95582 0.23249 0.00053 0.0
C1240 C 0.95375 0.24362 0.04492 0.0
C1241 C 0.93483 0.24377 0.04911 0.0
C1242 C 0.91795 0.23282 0.00879 0.0
C1243 C 0.8171 0.14264 0.98286 0.0
C1244 C 0.80697 0.14723 0.03492 0.0
C1245 C 0.83615 0.15503 0.94669 0.0
C1246 C 0.84554 0.17247 0.96047 0.0
C1247 C 0.83573 0.17698 0.01389 0.0
C1248 C 0.81678 0.16459 0.05043 0.0
C1249 C 0.86537 0.18596 0.91911 0.0
C1250 C 0.88268 0.19808 0.95591 0.0
C1251 C 0.86756 0.18672 0.84374 0.0
C1252 C 0.84965 0.17536 0.80016 0.0
C1253 C 0.83001 0.17447 0.80851 0.0
C1254 C 0.81319 0.16367 0.76766 0.0
C1255 C 0.81586 0.1538 0.71769 0.0
C1256 C 0.83535 0.15471 0.70849 0.0
C1257 C 0.85221 0.16545 0.74938 0.0
H1258 H 0.80285 0.14551 0.68593 0.0
H1259 H 0.96677 0.25207 0.07618 0.0
H1260 H 0.7782 0.01419 0.09455 0.0
H1261 H 0.79589 0.99896 0.13152 0.0
H1262 H 0.83514 0.03985 0.26451 0.0
H1263 H 0.81796 0.0555 0.22579 0.0
H1264 H 0.85872 0.02926 0.19893 0.0
H1265 H 0.79238 1.00101 0.33367 0.0
H1266 H 0.75352 0.9861 0.35245 0.0
H1267 H 0.74728 0.94613 0.22203 0.0
H1268 H 0.78611 0.96091 0.2017 0.0
H1269 H 0.90111 0.98355 0.36966 0.0
H1270 H 0.88352 0.99955 0.34386 0.0
H1271 H 0.83548 0.95663 0.23741 0.0
H1272 H 0.85205 0.94008 0.27003 0.0
H1273 H 0.81666 0.96926 0.29328 0.0
H1274 H 0.88359 0.99887 0.15199 0.0
H1275 H 0.92258 0.01382 0.13654 0.0
H1276 H 0.92792 0.0511 0.2815 0.0
H1277 H 0.88898 0.03646 0.29738 0.0
C1278 C 0.79072 0.02011 0.13117 0.0
C1279 C 0.79649 0.03622 0.15686 0.0
C1280 C 0.80074 1.01122 0.15304 0.0
C1281 C 0.81681 0.01802 0.20185 0.0
C1282 C 0.82279 0.03417 0.2271 0.0
C1283 C 0.81274 0.04308 0.20529 0.0
C1284 C 0.82728 1.0083 0.22626 0.0
C1285 C 0.84949 0.01619 0.22017 0.0
C1286 C 0.81548 0.9911 0.25327 0.0
C1287 C 0.79214 0.98215 0.26565 0.0
C1288 C 0.78271 0.9891 0.30859 0.0
C1289 C 0.76069 0.98066 0.31958 0.0
C1290 C 0.74794 0.9652 0.28831 0.0
C1291 C 0.75718 0.95811 0.24614 0.0
C1292 C 0.77919 0.96651 0.23493 0.0
C1293 C 0.88666 0.97749 0.34132 0.0
C1294 C 0.87799 0.96051 0.322 0.0
C1295 C 0.87671 0.98679 0.32532 0.0
C1296 C 0.85837 0.97977 0.28584 0.0
C1297 C 0.84958 0.96263 0.26748 0.0
C1298 C 0.85908 0.95309 0.28609 0.0
C1299 C 0.8482 0.99002 0.26442 0.0
C1300 C 0.82599 0.98227 0.27143 0.0
C1301 C 0.86003 1.00734 0.238 0.0
C1302 C 0.88339 0.01652 0.22614 0.0
C1303 C 0.89309 1.01029 0.18034 0.0
C1304 C 0.91518 0.01872 0.17146 0.0
C1305 C 0.92771 0.03343 0.20787 0.0
C1306 C 0.91819 0.03979 0.25296 0.0
C1307 C 0.89612 0.03146 0.26173 0.0
H1308 H 0.9448 0.03989 0.20124 0.0
H1309 H 0.7309 0.95869 0.29688 0.0
H1310 H 0.37487 0.8718 0.14555 0.0
H1311 H 0.34848 0.8443 0.10314 0.0
H1312 H 0.29851 0.85227 0.18055 0.0
H1313 H 0.32487 0.88005 0.22207 0.0
H1314 H 0.28936 0.81967 0.21269 0.0
H1315 H 0.31125 0.8572 0.00705 0.0
H1316 H 0.33665 0.87928 0.91918 0.0
H1317 H 0.35999 0.84654 0.85903 0.0
H1318 H 0.33497 0.82436 0.94747 0.0
H1319 H 0.21099 0.74901 0.02773 0.0
H1320 H 0.23367 0.77748 0.07145 0.0
H1321 H 0.28908 0.77669 -0.00528 0.0
H1322 H 0.26659 0.74833 0.95115 0.0
H1323 H 0.29313 0.80668 0.96088 0.0
H1324 H 0.27212 0.76983 0.17382 0.0
H1325 H 0.24658 0.74817 0.26284 0.0
H1326 H 0.22082 0.78006 0.30844 0.0
H1327 H 0.24603 0.80181 0.21898 0.0
C1328 C 0.3583 0.86786 0.15297 0.0
C1329 C 0.35211 0.87831 0.18688 0.0
C1330 C 0.34319 0.85205 0.12887 0.0
C1331 C 0.32147 0.84626 0.13788 0.0
C1332 C 0.31516 0.85645 0.17299 0.0
C1333 C 0.33029 0.87232 0.19694 0.0
C1334 C 0.30551 0.82962 0.11011 0.0
C1335 C 0.28997 0.81692 0.15739 0.0
C1336 C 0.30638 0.82592 0.0381 0.0
C1337 C 0.32135 0.83917 0.98437 0.0
C1338 C 0.32191 0.85475 0.97548 0.0
C1339 C 0.33622 0.86728 0.92552 0.0
C1340 C 0.34995 0.86433 0.88365 0.0
C1341 C 0.34936 0.84882 0.89156 0.0
C1342 C 0.3351 0.83626 0.94157 0.0
C1343 C 0.22801 0.75484 0.02062 0.0
C1344 C 0.23692 0.74633 0.98566 0.0
C1345 C 0.24098 0.77115 0.04565 0.0
C1346 C 0.26316 0.77925 0.03697 0.0
C1347 C 0.27204 0.7708 0.00186 0.0
C1348 C 0.25912 0.75456 0.97669 0.0
C1349 C 0.27725 0.79655 0.06376 0.0
C1350 C 0.29243 0.80944 0.01614 0.0
C1351 C 0.27594 0.80042 0.13535 0.0
C1352 C 0.2608 0.78736 0.18916 0.0
C1353 C 0.26089 0.77216 0.20243 0.0
C1354 C 0.2465 0.75988 0.25303 0.0
C1355 C 0.23204 0.76271 0.29112 0.0
C1356 C 0.23199 0.77786 0.27881 0.0
C1357 C 0.24634 0.79017 0.2282 0.0
H1358 H 0.22091 0.7532 0.33029 0.0
H1359 H 0.36103 0.87405 0.84499 0.0
H1360 H 0.55026 0.52535 0.08411 0.0
H1361 H 0.51206 0.51243 0.11266 0.0
H1362 H 0.51653 0.56033 0.05834 0.0
H1363 H 0.55449 0.57316 0.02772 0.0
H1364 H 0.49182 0.54261 0.1941 0.0
H1365 H 0.49628 0.53252 0.945 0.0
H1366 H 0.50757 0.52192 0.84389 0.0
H1367 H 0.47413 0.47131 0.94154 0.0
H1368 H 0.46291 0.48169 0.04381 0.0
H1369 H 0.3799 0.51237 0.1972 0.0
H1370 H 0.41845 0.52676 0.1727 0.0
H1371 H 0.41322 0.47806 0.14397 0.0
H1372 H 0.37505 0.46393 0.16502 0.0
H1373 H 0.43924 0.49708 0.04975 0.0
H1374 H 0.43513 0.50475 0.29731 0.0
H1375 H 0.42483 0.51343 0.40698 0.0
H1376 H 0.45796 0.56553 0.32599 0.0
H1377 H 0.46823 0.55712 0.21537 0.0
C1378 C 0.54314 0.53314 0.07794 0.0
C1379 C 0.55564 0.55033 0.05294 0.0
C1380 C 0.52121 0.52572 0.09446 0.0
C1381 C 0.51119 0.53535 0.08802 0.0
C1382 C 0.52371 0.55257 0.06417 0.0
C1383 C 0.5455 0.55988 0.04613 0.0
C1384 C 0.48766 0.52741 0.10429 0.0
C1385 C 0.4803 0.5328 0.16201 0.0
C1386 C 0.47243 0.5142 0.06422 0.0
C1387 C 0.47894 0.50792 0.00237 0.0
C1388 C 0.49148 0.51916 0.94518 0.0
C1389 C 0.49784 0.51319 0.88761 0.0
C1390 C 0.49162 0.49596 0.88638 0.0
C1391 C 0.47896 0.48466 0.94261 0.0
C1392 C 0.47259 0.49058 0.00036 0.0
C1393 C 0.387 0.50475 0.1861 0.0
C1394 C 0.3741 0.48692 0.18304 0.0
C1395 C 0.40921 0.513 0.17229 0.0
C1396 C 0.41928 0.50365 0.15666 0.0
C1397 C 0.40629 0.48582 0.15498 0.0
C1398 C 0.38423 0.47767 0.16749 0.0
C1399 C 0.44305 0.51214 0.14038 0.0
C1400 C 0.45057 0.50687 0.08233 0.0
C1401 C 0.4584 0.52515 0.18145 0.0
C1402 C 0.45223 0.53027 0.24771 0.0
C1403 C 0.44008 0.51804 0.30265 0.0
C1404 C 0.43427 0.52291 0.36502 0.0
C1405 C 0.44068 0.54002 0.37335 0.0
C1406 C 0.45297 0.55228 0.31939 0.0
C1407 C 0.4588 0.54747 0.25686 0.0
H1408 H 0.43618 0.54377 0.42168 0.0
H1409 H 0.49657 0.49136 0.84178 0.0
H1410 H 1.01233 0.81389 0.50474 0.0
H1411 H 1.00408 0.8352 0.45761 0.0
H1412 H 0.97738 0.83569 0.66381 0.0
H1413 H 0.98515 0.81422 0.7095 0.0
H1414 H 0.95091 0.83253 0.56807 0.0
H1415 H 0.02755 0.87092 0.58028 0.0
H1416 H 0.0643 0.87846 0.54926 0.0
H1417 H 0.05296 0.87851 0.32748 0.0
H1418 H 1.01611 0.87088 0.35723 0.0
H1419 H 0.92831 0.89773 0.52402 0.0
H1420 H 0.94346 0.88052 0.56041 0.0
H1421 H 0.97616 0.89089 0.35468 0.0
H1422 H 0.96222 0.90941 0.32047 0.0
H1423 H 0.99983 0.88762 0.43786 0.0
H1424 H 0.92642 0.85087 0.41337 0.0
H1425 H 0.88813 0.84003 0.42986 0.0
H1426 H 0.89081 0.83258 0.65411 0.0
H1427 H 0.92918 0.84361 0.63912 0.0
C1428 C 1.00558 0.81917 0.54047 0.0
C1429 C 1.00018 0.81284 0.61156 0.0
C1430 C 1.00062 0.83126 0.51341 0.0
C1431 C 0.9902 0.83743 0.55696 0.0
C1432 C 0.9854 0.83136 0.62854 0.0
C1433 C 0.99014 0.8192 0.65511 0.0
C1434 C 0.98305 0.84929 0.52826 0.0
C1435 C 0.96176 0.8447 0.54065 0.0
C1436 C 0.99666 0.86482 0.4886 0.0
C1437 C 1.01909 0.87029 0.47098 0.0
C1438 C 0.03293 0.87258 0.52492 0.0
C1439 C 0.05376 0.87685 0.50756 0.0
C1440 C 0.06095 0.87895 0.43645 0.0
C1441 C 0.04737 0.8769 0.38254 0.0
C1442 C 0.02654 0.87266 0.39961 0.0
C1443 C 0.93893 0.89651 0.4867 0.0
C1444 C 0.94394 0.90496 0.41919 0.0
C1445 C 0.94745 0.88641 0.50726 0.0
C1446 C 0.96049 0.88359 0.45982 0.0
C1447 C 0.96608 0.89252 0.39279 0.0
C1448 C 0.95807 0.90317 0.37301 0.0
C1449 C 0.96774 0.87116 0.4802 0.0
C1450 C 0.98895 0.87552 0.46569 0.0
C1451 C 0.95386 0.85506 0.51593 0.0
C1452 C 0.93072 0.8482 0.52517 0.0
C1453 C 0.91886 0.84699 0.46625 0.0
C1454 C 0.89715 0.84082 0.47533 0.0
C1455 C 0.88706 0.83565 0.54301 0.0
C1456 C 0.89865 0.8366 0.60173 0.0
C1457 C 0.92038 0.8428 0.59297 0.0
H1458 H 0.87025 0.83089 0.54994 0.0
H1459 H 0.07704 0.88216 0.42312 0.0
H1460 H 0.53351 0.23124 0.65058 0.0
H1461 H 0.51718 0.2035 0.59921 0.0
H1462 H 0.46487 0.209 0.53803 0.0
H1463 H 0.48134 0.23718 0.59071 0.0
H1464 H 0.4518 0.17568 0.58863 0.0
H1465 H 0.50126 0.21546 0.41408 0.0
H1466 H 0.53531 0.23962 0.36569 0.0
H1467 H 0.56647 0.21202 0.41769 0.0
H1468 H 0.53266 0.18779 0.46753 0.0
H1469 H 0.4216 0.10501 0.3644 0.0
H1470 H 0.43188 0.13323 0.40614 0.0
H1471 H 0.48896 0.13785 0.48424 0.0
H1472 H 0.47897 0.10976 0.44146 0.0
H1473 H 0.49678 0.16712 0.4125 0.0
H1474 H 0.4461 0.12811 0.59614 0.0
H1475 H 0.41127 0.10433 0.64121 0.0
H1476 H 0.38127 0.13107 0.56395 0.0
H1477 H 0.41591 0.15492 0.51755 0.0
C1478 C 0.51844 0.22657 0.62674 0.0
C1479 C 0.50881 0.23651 0.6243 0.0
C1480 C 0.50913 0.21067 0.59706 0.0
C1481 C 0.48998 0.20422 0.56335 0.0
C1482 C 0.47973 0.21374 0.56335 0.0
C1483 C 0.48911 0.22981 0.59348 0.0
C1484 C 0.48143 0.1878 0.5269 0.0
C1485 C 0.46146 0.1739 0.54907 0.0
C1486 C 0.49402 0.18535 0.47548 0.0
C1487 C 0.51442 0.19984 0.44503 0.0
C1488 C 0.5154 0.21458 0.41569 0.0
C1489 C 0.53465 0.22829 0.38793 0.0
C1490 C 0.55305 0.22736 0.38872 0.0
C1491 C 0.55221 0.21272 0.41715 0.0
C1492 C 0.53299 0.19898 0.4451 0.0
C1493 C 0.43644 0.11206 0.38995 0.0
C1494 C 0.44944 0.10502 0.39943 0.0
C1495 C 0.44221 0.12818 0.4144 0.0
C1496 C 0.46114 0.13769 0.44901 0.0
C1497 C 0.47425 0.13079 0.45791 0.0
C1498 C 0.46844 0.11464 0.43384 0.0
C1499 C 0.46742 0.15486 0.47572 0.0
C1500 C 0.48701 0.16893 0.45148 0.0
C1501 C 0.45433 0.15748 0.52434 0.0
C1502 C 0.43355 0.14321 0.55273 0.0
C1503 C 0.43205 0.12886 0.5883 0.0
C1504 C 0.41235 0.11538 0.61416 0.0
C1505 C 0.39406 0.11617 0.60527 0.0
C1506 C 0.39544 0.13047 0.5707 0.0
C1507 C 0.4151 0.14397 0.54465 0.0
H1508 H 0.37882 0.10572 0.62532 0.0
H1509 H 0.56794 0.23799 0.36721 0.0
H1510 H 0.09256 0.33953 0.66111 0.0
H1511 H 0.12696 0.35832 0.5996 0.0
H1512 H 0.10798 0.32554 0.42295 0.0
H1513 H 0.07373 0.30609 0.48714 0.0
H1514 H 0.14895 0.33889 0.43333 0.0
H1515 H 0.10506 0.36385 0.42939 0.0
H1516 H 0.08231 0.37373 0.48243 0.0
H1517 H 0.13365 0.40915 0.6034 0.0
H1518 H 0.15662 0.39932 0.5518 0.0
H1519 H 0.22951 0.40361 0.19538 0.0
H1520 H 0.19558 0.38205 0.25349 0.0
H1521 H 0.20888 0.4129 0.43535 0.0
H1522 H 0.24232 0.43479 0.37599 0.0
H1523 H 0.16981 0.39986 0.41689 0.0
H1524 H 0.21353 0.3745 0.42338 0.0
H1525 H 0.23622 0.36443 0.37165 0.0
H1526 H 0.18551 0.32991 0.24622 0.0
H1527 H 0.16259 0.33993 0.29658 0.0
C1528 C 0.09596 0.33603 0.61007 0.0
C1529 C 0.08047 0.32118 0.57957 0.0
C1530 C 0.11559 0.34698 0.57416 0.0
C1531 C 0.1201 0.34386 0.50496 0.0
C1532 C 0.10505 0.32847 0.47584 0.0
C1533 C 0.08547 0.31723 0.5128 0.0
C1534 C 0.13995 0.35704 0.46263 0.0
C1535 C 0.15331 0.35217 0.42907 0.0
C1536 C 0.14616 0.37458 0.45721 0.0
C1537 C 0.1325 0.38076 0.48709 0.0
C1538 C 0.11147 0.3737 0.46748 0.0
C1539 C 0.09853 0.37929 0.49731 0.0
C1540 C 0.10651 0.39204 0.54635 0.0
C1541 C 0.12748 0.39927 0.56545 0.0
C1542 C 0.14047 0.39372 0.53586 0.0
C1543 C 0.22515 0.40589 0.24754 0.0
C1544 C 0.23879 0.42107 0.28061 0.0
C1545 C 0.20572 0.39339 0.28134 0.0
C1546 C 0.19953 0.39543 0.35019 0.0
C1547 C 0.21302 0.41077 0.38256 0.0
C1548 C 0.23226 0.42339 0.34832 0.0
C1549 C 0.17909 0.38181 0.38845 0.0
C1550 C 0.16552 0.38659 0.42108 0.0
C1551 C 0.17274 0.36424 0.39295 0.0
C1552 C 0.18642 0.35808 0.36325 0.0
C1553 C 0.20726 0.36483 0.38448 0.0
C1554 C 0.22016 0.35912 0.35543 0.0
C1555 C 0.21233 0.34656 0.30555 0.0
C1556 C 0.19156 0.33965 0.28479 0.0
C1557 C 0.17861 0.34533 0.31361 0.0
H1558 H 0.22234 0.34217 0.28308 0.0
H1559 H 0.09646 0.39632 0.56948 0.0
H1560 H 0.40161 0.30064 0.52902 0.0
H1561 H 0.38735 0.31567 0.4645 0.0
H1562 H 0.44247 0.3388 0.3194 0.0
H1563 H 0.45747 0.32447 0.38641 0.0
H1564 H 0.43322 0.36181 0.35259 0.0
H1565 H 0.39338 0.30619 0.26987 0.0
H1566 H 0.37137 0.27482 0.27628 0.0
H1567 H 0.32198 0.27743 0.39256 0.0
H1568 H 0.34381 0.30881 0.38777 0.0
H1569 H 0.38033 0.3929 0.13116 0.0
H1570 H 0.39726 0.37702 0.17048 0.0
H1571 H 0.35338 0.35625 0.3534 0.0
H1572 H 0.33644 0.372 0.31448 0.0
H1573 H 0.35865 0.33176 0.28331 0.0
H1574 H 0.4021 0.38844 0.37138 0.0
H1575 H 0.42471 0.41973 0.3568 0.0
H1576 H 0.46814 0.4145 0.21705 0.0
H1577 H 0.44562 0.38316 0.23007 0.0
C1578 C 0.41087 0.30904 0.48385 0.0
C1579 C 0.43079 0.31135 0.46334 0.0
C1580 C 0.40251 0.31746 0.4462 0.0
C1581 C 0.41363 0.3282 0.38617 0.0
C1582 C 0.4335 0.33052 0.36526 0.0
C1583 C 0.44198 0.32218 0.40332 0.0
C1584 C 0.40469 0.33734 0.34717 0.0
C1585 C 0.41704 0.35516 0.33623 0.0
C1586 C 0.38354 0.32877 0.32576 0.0
C1587 C 0.37032 0.30987 0.32891 0.0
C1588 C 0.37789 0.30008 0.29729 0.0
C1589 C 0.36543 0.28229 0.30055 0.0
C1590 C 0.34531 0.27414 0.33493 0.0
C1591 C 0.33758 0.28376 0.36599 0.0
C1592 C 0.34998 0.30155 0.36294 0.0
C1593 C 0.37426 0.38488 0.17956 0.0
C1594 C 0.35714 0.38378 0.21999 0.0
C1595 C 0.38399 0.37588 0.2021 0.0
C1596 C 0.37664 0.36551 0.26508 0.0
C1597 C 0.35932 0.36418 0.30471 0.0
C1598 C 0.34977 0.37329 0.28269 0.0
C1599 C 0.387 0.35615 0.29076 0.0
C1600 C 0.37491 0.33831 0.29897 0.0
C1601 C 0.40847 0.36466 0.30838 0.0
C1602 C 0.42206 0.38347 0.30107 0.0
C1603 C 0.41639 0.39397 0.3371 0.0
C1604 C 0.4292 0.41171 0.3292 0.0
C1605 C 0.44782 0.4191 0.28586 0.0
C1606 C 0.4537 0.40876 0.2505 0.0
C1607 C 0.44092 0.39101 0.25816 0.0
H1608 H 0.45772 0.43283 0.2798 0.0
H1609 H 0.33569 0.26036 0.33738 0.0
H1610 H 0.95325 0.0413 0.39431 0.0
H1611 H 0.96071 0.06997 0.41802 0.0
H1612 H 0.02767 0.08914 0.38896 0.0
H1613 H 1.0204 0.0606 0.36382 0.0
H1614 H 1.01904 0.1008 0.50725 0.0
H1615 H 1.00047 0.09694 0.26372 0.0
H1616 H 0.97764 0.08389 0.16384 0.0
H1617 H 0.92849 0.0891 0.26737 0.0
H1618 H 0.95091 0.10195 0.36849 0.0
H1619 H 0.057 0.18908 0.50195 0.0
H1620 H 0.04808 0.16066 0.4683 0.0
H1621 H 0.98163 0.14397 0.48889 0.0
H1622 H 0.99045 0.17266 0.51952 0.0
H1623 H 0.98897 0.13069 0.37578 0.0
H1624 H 1.00642 0.13393 0.61891 0.0
H1625 H 0.02814 0.14612 0.72199 0.0
H1626 H 0.078 0.14112 0.62289 0.0
H1627 H 0.05668 0.12911 0.51873 0.0
C1628 C 0.96958 0.05161 0.3918 0.0
C1629 C 0.9862 0.04846 0.37726 0.0
C1630 C 0.97383 0.06806 0.40565 0.0
C1631 C 0.99478 0.08182 0.40511 0.0
C1632 C 1.01137 0.07876 0.39014 0.0
C1633 C 1.00716 0.06235 0.37607 0.0
C1634 C 0.99951 0.09931 0.42196 0.0
C1635 C 1.01269 0.10741 0.47776 0.0
C1636 C 0.99074 0.10782 0.38513 0.0
C1637 C 0.97732 0.10028 0.32399 0.0
C1638 C 0.98474 0.09521 0.26543 0.0
C1639 C 0.97189 0.08787 0.20854 0.0
C1640 C 0.95163 0.08569 0.20924 0.0
C1641 C 0.9442 0.09084 0.26685 0.0
C1642 C 0.95698 0.09815 0.32397 0.0
C1643 C 0.04046 0.17949 0.49842 0.0
C1644 C 1.02448 0.18331 0.51387 0.0
C1645 C 0.03536 0.1631 0.47988 0.0
C1646 C 1.01413 0.14997 0.47706 0.0
C1647 C 0.99813 0.15379 0.49098 0.0
C1648 C 1.00322 0.17022 0.50928 0.0
C1649 C 1.0087 0.13225 0.46069 0.0
C1650 C 0.99534 0.12409 0.4052 0.0
C1651 C 1.01718 0.12359 0.49814 0.0
C1652 C 0.03003 0.13078 0.56073 0.0
C1653 C 1.02208 0.13555 0.61887 0.0
C1654 C 0.03431 0.14241 0.67752 0.0
C1655 C 0.05446 0.14443 0.67891 0.0
C1656 C 0.0624 0.13957 0.6217 0.0
C1657 C 0.05025 0.13272 0.56286 0.0
H1658 H 0.0639 0.14974 0.72438 0.0
H1659 H 0.94168 0.07997 0.16522 0.0
H1660 H 0.16714 0.89361 0.46274 0.0
H1661 H 0.20432 0.91358 0.42604 0.0
H1662 H 0.22266 0.8824 0.54348 0.0
H1663 H 0.18567 0.86263 0.58117 0.0
H1664 H 0.24999 0.9133 0.56471 0.0
H1665 H 0.22089 0.88479 0.3508 0.0
H1666 H 0.19633 0.87485 0.2536 0.0
H1667 H 0.21581 0.92662 0.19161 0.0
H1668 H 0.2403 0.93686 0.28904 0.0
H1669 H 0.35205 0.94227 0.40791 0.0
H1670 H 0.31433 0.92596 0.44104 0.0
H1671 H 0.30657 0.96586 0.34709 0.0
H1672 H 0.34481 0.98251 0.31342 0.0
H1673 H 0.27404 0.93307 0.31345 0.0
H1674 H 0.30535 0.96126 0.52422 0.0
H1675 H 0.33083 0.97049 0.61859 0.0
H1676 H 0.30755 0.91825 0.68462 0.0
H1677 H 0.28214 0.9087 0.58989 0.0
C1678 C 0.17904 0.89091 0.48047 0.0
C1679 C 0.1731 0.87637 0.52534 0.0
C1680 C 0.20046 0.9024 0.45915 0.0
C1681 C 0.2167 0.8996 0.48085 0.0
C1682 C 0.21075 0.8851 0.52577 0.0
C1683 C 0.18941 0.87373 0.5476 0.0
C1684 C 0.2398 0.91172 0.45797 0.0
C1685 C 0.25512 0.9174 0.50953 0.0
C1686 C 0.24694 0.91769 0.38625 0.0
C1687 C 0.23224 0.91157 0.32769 0.0
C1688 C 0.21981 0.89405 0.31676 0.0
C1689 C 0.20593 0.88836 0.26158 0.0
C1690 C 0.20446 0.90009 0.2166 0.0
C1691 C 0.21693 0.91754 0.22658 0.0
C1692 C 0.23082 0.9233 0.28174 0.0
C1693 C 0.34248 0.94774 0.39411 0.0
C1694 C 0.35177 0.96388 0.35794 0.0
C1695 C 0.32073 0.93831 0.41347 0.0
C1696 C 0.30734 0.9446 0.39742 0.0
C1697 C 0.31642 0.96063 0.36043 0.0
C1698 C 0.33838 0.97022 0.34145 0.0
C1699 C 0.28405 0.93433 0.42007 0.0
C1700 C 0.26878 0.92902 0.3686 0.0
C1701 C 0.27692 0.92857 0.49177 0.0
C1702 C 0.29194 0.93426 0.54958 0.0
C1703 C 0.30575 0.95174 0.55858 0.0
C1704 C 0.32017 0.95703 0.61217 0.0
C1705 C 0.32084 0.94496 0.65748 0.0
C1706 C 0.30703 0.92758 0.64944 0.0
C1707 C 0.29259 0.92222 0.59586 0.0
H1708 H 0.33204 0.94908 0.69889 0.0
H1709 H 0.1937 0.89566 0.1739 0.0
loop_
_geom_bond_atom_site_label_1
_geom_bond_atom_site_label_2
_geom_bond_distance
_geom_bond_site_symmetry_2
_ccdc_geom_bond_type
Nd0 C2 2.836 . S
Nd0 O20 2.500 . S
Nd0 O21 2.492 . S
Nd0 O22 2.487 1_554 S
Nd0 O23 2.682 . S
Nd0 O24 2.410 . S
Nd0 O29 2.414 . S
Nd0 O31 2.424 . S
Nd1 C11 2.836 . S
Nd1 O23 2.414 . S
Nd1 O25 2.424 . S
Nd1 O26 2.500 . S
Nd1 O27 2.492 . S
Nd1 O28 2.487 . S
Nd1 O29 2.682 . S
Nd1 O30 2.410 . S
C2 Nd0 2.836 . S
C2 C3 1.498 . S
C2 O20 1.258 . S
C2 O21 1.239 . S
C3 C2 1.498 . S
C3 C4 1.366 . S
C3 C8 1.407 . S
C4 C3 1.366 . S
C4 C5 1.392 . S
C4 H32 0.930 . S
C5 C4 1.392 . S
C5 C6 1.398 . S
C5 H33 0.929 . S
C6 C5 1.398 . S
C6 C7 1.352 . S
C7 C6 1.352 . S
C7 C8 1.384 . S
C7 H34 0.930 . S
C8 C3 1.407 . S
C8 C7 1.384 . S
C8 H35 0.929 . S
C9 O22 1.241 . S
C9 O23 1.273 1_556 S
C10 O24 1.251 . S
C10 O25 1.268 . S
C11 Nd1 2.836 . S
C11 C12 1.498 . S
C11 O26 1.258 . S
C11 O27 1.239 . S
C12 C11 1.498 . S
C12 C13 1.366 . S
C12 C17 1.407 . S
C13 C12 1.366 . S
C13 C14 1.392 . S
C13 H36 0.930 . S
C14 C13 1.392 . S
C14 C15 1.398 . S
C14 H37 0.929 . S
C15 C14 1.398 . S
C15 C16 1.352 . S
C16 C15 1.352 . S
C16 C17 1.384 . S
C16 H38 0.930 . S
C17 C12 1.407 . S
C17 C16 1.384 . S
C17 H39 0.929 . S
C18 O28 1.241 . S
C18 O29 1.273 . S
C19 O30 1.251 . S
C19 O31 1.268 . S
O20 Nd0 2.500 . S
O20 C2 1.258 . S
O21 Nd0 2.492 . S
O21 C2 1.239 . S
O22 Nd0 2.487 1_556 S
O22 C9 1.241 . S
O23 Nd0 2.682 . S
O23 Nd1 2.414 . S
O23 C9 1.273 1_554 S
O24 Nd0 2.410 . S
O24 C10 1.251 . S
O25 Nd1 2.424 . S
O25 C10 1.268 . S
O26 Nd1 2.500 . S
O26 C11 1.258 . S
O27 Nd1 2.492 . S
O27 C11 1.239 . S
O28 Nd1 2.487 . S
O28 C18 1.241 . S
O29 Nd0 2.414 . S
O29 Nd1 2.682 . S
O29 C18 1.273 . S
O30 Nd1 2.410 . S
O30 C19 1.251 . S
O31 Nd0 2.424 . S
O31 C19 1.268 . S
H32 C4 0.930 . S
H33 C5 0.929 . S
H34 C7 0.930 . S
H35 C8 0.929 . S
H36 C13 0.930 . S
H37 C14 0.929 . S
H38 C16 0.930 . S
H39 C17 0.929 . S
Nd40 C42 2.836 . S
Nd40 O60 2.500 . S
Nd40 O61 2.492 . S
Nd40 O62 2.487 . S
Nd40 O63 2.682 . S
Nd40 O64 2.410 . S
Nd40 O69 2.414 . S
Nd40 O71 2.424 . S
Nd41 C51 2.836 . S
Nd41 O63 2.414 . S
Nd41 O65 2.424 . S
Nd41 O66 2.500 . S
Nd41 O67 2.492 . S
Nd41 O68 2.487 1_554 S
Nd41 O69 2.682 . S
Nd41 O70 2.410 . S
C42 Nd40 2.836 . S
C42 C43 1.498 . S
C42 O60 1.258 . S
C42 O61 1.239 . S
C43 C42 1.498 . S
C43 C44 1.366 . S
C43 C48 1.407 . S
C44 C43 1.366 . S
C44 C45 1.392 . S
C44 H72 0.930 . S
C45 C44 1.392 . S
C45 C46 1.398 . S
C45 H73 0.929 . S
C46 C45 1.398 . S
C46 C47 1.352 . S
C47 C46 1.352 . S
C47 C48 1.384 . S
C47 H74 0.930 . S
C48 C43 1.407 . S
C48 C47 1.384 . S
C48 H75 0.929 . S
C49 O62 1.241 . S
C49 O63 1.273 . S
C50 O64 1.251 . S
C50 O65 1.268 . S
C51 Nd41 2.836 . S
C51 C52 1.498 . S
C51 O66 1.258 . S
C51 O67 1.239 . S
C52 C51 1.498 . S
C52 C53 1.366 . S
C52 C57 1.407 . S
C53 C52 1.366 . S
C53 C54 1.392 . S
C53 H76 0.930 . S
C54 C53 1.392 . S
C54 C55 1.398 . S
C54 H77 0.929 . S
C55 C54 1.398 . S
C55 C56 1.352 . S
C56 C55 1.352 . S
C56 C57 1.384 . S
C56 H78 0.930 . S
C57 C52 1.407 . S
C57 C56 1.384 . S
C57 H79 0.929 . S
C58 O68 1.241 . S
C58 O69 1.273 1_556 S
C59 O70 1.251 . S
C59 O71 1.268 . S
O60 Nd40 2.500 . S
O60 C42 1.258 . S
O61 Nd40 2.492 . S
O61 C42 1.239 . S
O62 Nd40 2.487 . S
O62 C49 1.241 . S
O63 Nd40 2.682 . S
O63 Nd41 2.414 . S
O63 C49 1.273 . S
O64 Nd40 2.410 . S
O64 C50 1.251 . S
O65 Nd41 2.424 . S
O65 C50 1.268 . S
O66 Nd41 2.500 . S
O66 C51 1.258 . S
O67 Nd41 2.492 . S
O67 C51 1.239 . S
O68 Nd41 2.487 1_556 S
O68 C58 1.241 . S
O69 Nd40 2.414 . S
O69 Nd41 2.682 . S
O69 C58 1.273 1_554 S
O70 Nd41 2.410 . S
O70 C59 1.251 . S
O71 Nd40 2.424 . S
O71 C59 1.268 . S
H72 C44 0.930 . S
H73 C45 0.929 . S
H74 C47 0.930 . S
H75 C48 0.929 . S
H76 C53 0.930 . S
H77 C54 0.929 . S
H78 C56 0.930 . S
H79 C57 0.929 . S
Nd80 C82 2.836 . S
Nd80 O100 2.500 . S
Nd80 O101 2.492 . S
Nd80 O102 2.487 . S
Nd80 O103 2.682 . S
Nd80 O104 2.410 . S
Nd80 O109 2.414 . S
Nd80 O111 2.424 . S
Nd81 C91 2.836 . S
Nd81 O103 2.414 . S
Nd81 O105 2.424 . S
Nd81 O106 2.500 . S
Nd81 O107 2.492 . S
Nd81 O108 2.487 . S
Nd81 O109 2.682 . S
Nd81 O110 2.410 . S
C82 Nd80 2.836 . S
C82 C83 1.498 . S
C82 O100 1.258 . S
C82 O101 1.239 . S
C83 C82 1.498 . S
C83 C84 1.366 . S
C83 C88 1.407 . S
C84 C83 1.366 . S
C84 C85 1.392 . S
C84 H112 0.930 . S
C85 C84 1.392 . S
C85 C86 1.398 . S
C85 H113 0.929 . S
C86 C85 1.398 . S
C86 C87 1.352 . S
C87 C86 1.352 . S
C87 C88 1.384 . S
C87 H114 0.930 . S
C88 C83 1.407 . S
C88 C87 1.384 . S
C88 H115 0.929 . S
C89 O102 1.241 . S
C89 O103 1.273 . S
C90 O104 1.251 . S
C90 O105 1.268 . S
C91 Nd81 2.836 . S
C91 C92 1.498 . S
C91 O106 1.258 . S
C91 O107 1.239 . S
C92 C91 1.498 . S
C92 C93 1.366 . S
C92 C97 1.407 . S
C93 C92 1.366 . S
C93 C94 1.392 . S
C93 H116 0.930 . S
C94 C93 1.392 . S
C94 C95 1.398 . S
C94 H117 0.929 . S
C95 C94 1.398 . S
C95 C96 1.352 . S
C96 C95 1.352 . S
C96 C97 1.384 . S
C96 H118 0.930 . S
C97 C92 1.407 . S
C97 C96 1.384 . S
C97 H119 0.929 . S
C98 O108 1.241 . S
C98 O109 1.273 . S
C99 O110 1.251 . S
C99 O111 1.268 . S
O100 Nd80 2.500 . S
O100 C82 1.258 . S
O101 Nd80 2.492 . S
O101 C82 1.239 . S
O102 Nd80 2.487 . S
O102 C89 1.241 . S
O103 Nd80 2.682 . S
O103 Nd81 2.414 . S
O103 C89 1.273 . S
O104 Nd80 2.410 . S
O104 C90 1.251 . S
O105 Nd81 2.424 . S
O105 C90 1.268 . S
O106 Nd81 2.500 . S
O106 C91 1.258 . S
O107 Nd81 2.492 . S
O107 C91 1.239 . S
O108 Nd81 2.487 . S
O108 C98 1.241 . S
O109 Nd80 2.414 . S
O109 Nd81 2.682 . S
O109 C98 1.273 . S
O110 Nd81 2.410 . S
O110 C99 1.251 . S
O111 Nd80 2.424 . S
O111 C99 1.268 . S
H112 C84 0.930 . S
H113 C85 0.929 . S
H114 C87 0.930 . S
H115 C88 0.929 . S
H116 C93 0.930 . S
H117 C94 0.929 . S
H118 C96 0.930 . S
H119 C97 0.929 . S
Nd120 C122 2.836 . S
Nd120 O140 2.500 . S
Nd120 O141 2.492 . S
Nd120 O142 2.487 . S
Nd120 O143 2.682 . S
Nd120 O144 2.410 . S
Nd120 O149 2.414 . S
Nd120 O151 2.424 . S
Nd121 C131 2.836 . S
Nd121 O143 2.414 . S
Nd121 O145 2.424 . S
Nd121 O146 2.500 . S
Nd121 O147 2.492 . S
Nd121 O148 2.487 . S
Nd121 O149 2.682 . S
Nd121 O150 2.410 . S
C122 Nd120 2.836 . S
C122 C123 1.498 . S
C122 O140 1.258 . S
C122 O141 1.239 . S
C123 C122 1.498 . S
C123 C124 1.366 . S
C123 C128 1.407 . S
C124 C123 1.366 . S
C124 C125 1.392 . S
C124 H152 0.930 . S
C125 C124 1.392 . S
C125 C126 1.398 . S
C125 H153 0.929 . S
C126 C125 1.398 . S
C126 C127 1.352 . S
C127 C126 1.352 . S
C127 C128 1.384 . S
C127 H154 0.930 . S
C128 C123 1.407 . S
C128 C127 1.384 . S
C128 H155 0.929 . S
C129 O142 1.241 . S
C129 O143 1.273 . S
C130 O144 1.251 . S
C130 O145 1.268 . S
C131 Nd121 2.836 . S
C131 C132 1.498 1_565 S
C131 O146 1.258 . S
C131 O147 1.239 . S
C132 C131 1.498 1_545 S
C132 C133 1.366 . S
C132 C137 1.407 . S
C133 C132 1.366 . S
C133 C134 1.392 . S
C133 H156 0.930 . S
C134 C133 1.392 . S
C134 C135 1.398 . S
C134 H157 0.929 . S
C135 C134 1.398 . S
C135 C136 1.352 . S
C136 C135 1.352 . S
C136 C137 1.384 . S
C136 H158 0.930 . S
C137 C132 1.407 . S
C137 C136 1.384 . S
C137 H159 0.929 . S
C138 O148 1.241 . S
C138 O149 1.273 . S
C139 O150 1.251 . S
C139 O151 1.268 . S
O140 Nd120 2.500 . S
O140 C122 1.258 . S
O141 Nd120 2.492 . S
O141 C122 1.239 . S
O142 Nd120 2.487 . S
O142 C129 1.241 . S
O143 Nd120 2.682 . S
O143 Nd121 2.414 . S
O143 C129 1.273 . S
O144 Nd120 2.410 . S
O144 C130 1.251 . S
O145 Nd121 2.424 . S
O145 C130 1.268 . S
O146 Nd121 2.500 . S
O146 C131 1.258 . S
O147 Nd121 2.492 . S
O147 C131 1.239 . S
O148 Nd121 2.487 . S
O148 C138 1.241 . S
O149 Nd120 2.414 . S
O149 Nd121 2.682 . S
O149 C138 1.273 . S
O150 Nd121 2.410 . S
O150 C139 1.251 . S
O151 Nd120 2.424 . S
O151 C139 1.268 . S
H152 C124 0.930 . S
H153 C125 0.929 . S
H154 C127 0.930 . S
H155 C128 0.929 . S
H156 C133 0.930 . S
H157 C134 0.929 . S
H158 C136 0.930 . S
H159 C137 0.929 . S
Nd160 C162 2.836 . S
Nd160 O180 2.500 . S
Nd160 O181 2.492 . S
Nd160 O182 2.487 . S
Nd160 O183 2.682 1_545 S
Nd160 O184 2.410 . S
Nd160 O189 2.414 . S
Nd160 O191 2.424 1_545 S
Nd161 C171 2.836 . S
Nd161 O183 2.414 . S
Nd161 O185 2.424 1_565 S
Nd161 O186 2.500 . S
Nd161 O187 2.492 . S
Nd161 O188 2.487 . S
Nd161 O189 2.682 1_565 S
Nd161 O190 2.410 . S
C162 Nd160 2.836 . S
C162 C163 1.498 . S
C162 O180 1.258 . S
C162 O181 1.239 . S
C163 C162 1.498 . S
C163 C164 1.366 . S
C163 C168 1.407 . S
C164 C163 1.366 . S
C164 C165 1.392 . S
C164 H192 0.930 . S
C165 C164 1.392 . S
C165 C166 1.398 . S
C165 H193 0.929 . S
C166 C165 1.398 . S
C166 C167 1.352 . S
C167 C166 1.352 . S
C167 C168 1.384 . S
C167 H194 0.930 . S
C168 C163 1.407 . S
C168 C167 1.384 . S
C168 H195 0.929 . S
C169 O182 1.241 1_565 S
C169 O183 1.273 . S
C170 O184 1.251 . S
C170 O185 1.268 . S
C171 Nd161 2.836 . S
C171 C172 1.498 . S
C171 O186 1.258 . S
C171 O187 1.239 . S
C172 C171 1.498 . S
C172 C173 1.366 . S
C172 C177 1.407 . S
C173 C172 1.366 . S
C173 C174 1.392 . S
C173 H196 0.930 . S
C174 C173 1.392 . S
C174 C175 1.398 . S
C174 H197 0.929 . S
C175 C174 1.398 . S
C175 C176 1.352 . S
C176 C175 1.352 . S
C176 C177 1.384 . S
C176 H198 0.930 . S
C177 C172 1.407 . S
C177 C176 1.384 . S
C177 H199 0.929 . S
C178 O188 1.272 . S
C178 O189 1.260 1_565 S
C179 O190 1.251 . S
C179 O191 1.268 . S
O180 Nd160 2.500 . S
O180 C162 1.258 . S
O181 Nd160 2.492 . S
O181 C162 1.239 . S
O182 Nd160 2.487 . S
O182 C169 1.241 1_545 S
O183 Nd160 2.682 1_565 S
O183 Nd161 2.414 . S
O183 C169 1.273 . S
O184 Nd160 2.410 . S
O184 C170 1.251 . S
O185 Nd161 2.424 1_545 S
O185 C170 1.268 . S
O186 Nd161 2.500 . S
O186 C171 1.258 . S
O187 Nd161 2.492 . S
O187 C171 1.239 . S
O188 Nd161 2.487 . S
O188 C178 1.272 . S
O189 Nd160 2.414 . S
O189 Nd161 2.682 1_545 S
O189 C178 1.260 1_545 S
O190 Nd161 2.410 . S
O190 C179 1.251 . S
O191 Nd160 2.424 1_565 S
O191 C179 1.268 . S
H192 C164 0.930 . S
H193 C165 0.929 . S
H194 C167 0.930 . S
H195 C168 0.929 . S
H196 C173 0.930 . S
H197 C174 0.929 . S
H198 C176 0.930 . S
H199 C177 0.929 . S
Nd200 C202 2.836 . S
Nd200 O220 2.500 . S
Nd200 O221 2.492 . S
Nd200 O222 2.487 . S
Nd200 O223 2.682 . S
Nd200 O224 2.410 . S
Nd200 O229 2.414 . S
Nd200 O231 2.424 . S
Nd201 C211 2.836 . S
Nd201 O223 2.414 . S
Nd201 O225 2.424 . S
Nd201 O226 2.500 . S
Nd201 O227 2.492 . S
Nd201 O228 2.487 . S
Nd201 O229 2.682 . S
Nd201 O230 2.410 . S
C202 Nd200 2.836 . S
C202 C203 1.498 . S
C202 O220 1.258 . S
C202 O221 1.239 . S
C203 C202 1.498 . S
C203 C204 1.366 . S
C203 C208 1.407 . S
C204 C203 1.366 . S
C204 C205 1.392 . S
C204 H232 0.930 . S
C205 C204 1.392 . S
C205 C206 1.398 . S
C205 H233 0.929 . S
C206 C205 1.398 . S
C206 C207 1.352 . S
C207 C206 1.352 . S
C207 C208 1.384 . S
C207 H234 0.930 . S
C208 C203 1.407 . S
C208 C207 1.384 . S
C208 H235 0.929 . S
C209 O222 1.241 . S
C209 O223 1.273 . S
C210 O224 1.251 . S
C210 O225 1.268 . S
C211 Nd201 2.836 . S
C211 C212 1.498 . S
C211 O226 1.258 . S
C211 O227 1.239 . S
C212 C211 1.498 . S
C212 C213 1.366 . S
C212 C217 1.407 . S
C213 C212 1.366 . S
C213 C214 1.392 . S
C213 H236 0.930 . S
C214 C213 1.392 . S
C214 C215 1.398 . S
C214 H237 0.929 . S
C215 C214 1.398 . S
C215 C216 1.352 . S
C216 C215 1.352 . S
C216 C217 1.384 . S
C216 H238 0.930 . S
C217 C212 1.407 . S
C217 C216 1.384 . S
C217 H239 0.929 . S
C218 O228 1.241 . S
C218 O229 1.273 . S
C219 O230 1.251 . S
C219 O231 1.268 . S
O220 Nd200 2.500 . S
O220 C202 1.258 . S
O221 Nd200 2.492 . S
O221 C202 1.239 . S
O222 Nd200 2.487 . S
O222 C209 1.241 . S
O223 Nd200 2.682 . S
O223 Nd201 2.414 . S
O223 C209 1.273 . S
O224 Nd200 2.410 . S
O224 C210 1.251 . S
O225 Nd201 2.424 . S
O225 C210 1.268 . S
O226 Nd201 2.500 . S
O226 C211 1.258 . S
O227 Nd201 2.492 . S
O227 C211 1.239 . S
O228 Nd201 2.487 . S
O228 C218 1.241 . S
O229 Nd200 2.414 . S
O229 Nd201 2.682 . S
O229 C218 1.273 . S
O230 Nd201 2.410 . S
O230 C219 1.251 . S
O231 Nd200 2.424 . S
O231 C219 1.268 . S
H232 C204 0.930 . S
H233 C205 0.929 . S
H234 C207 0.930 . S
H235 C208 0.929 . S
H236 C213 0.930 . S
H237 C214 0.929 . S
H238 C216 0.930 . S
H239 C217 0.929 . S
Nd240 C242 2.836 . S
Nd240 O260 2.500 . S
Nd240 O261 2.492 . S
Nd240 O262 2.487 . S
Nd240 O263 2.682 . S
Nd240 O264 2.410 . S
Nd240 O269 2.414 . S
Nd240 O271 2.424 . S
Nd241 C251 2.836 . S
Nd241 O263 2.414 . S
Nd241 O265 2.424 . S
Nd241 O266 2.500 . S
Nd241 O267 2.492 . S
Nd241 O268 2.487 . S
Nd241 O269 2.682 . S
Nd241 O270 2.410 . S
C242 Nd240 2.836 . S
C242 C243 1.498 . S
C242 O260 1.258 . S
C242 O261 1.239 . S
C243 C242 1.498 . S
C243 C244 1.366 . S
C243 C248 1.407 . S
C244 C243 1.366 . S
C244 C245 1.392 . S
C244 H272 0.930 . S
C245 C244 1.392 . S
C245 C246 1.398 . S
C245 H273 0.929 . S
C246 C245 1.398 . S
C246 C247 1.352 . S
C247 C246 1.352 . S
C247 C248 1.384 . S
C247 H274 0.930 . S
C248 C243 1.407 . S
C248 C247 1.384 . S
C248 H275 0.929 . S
C249 O262 1.241 . S
C249 O263 1.273 . S
C250 O264 1.251 . S
C250 O265 1.268 . S
C251 Nd241 2.836 . S
C251 C252 1.498 . S
C251 O266 1.258 . S
C251 O267 1.239 . S
C252 C251 1.498 . S
C252 C253 1.366 . S
C252 C257 1.407 . S
C253 C252 1.366 . S
C253 C254 1.392 . S
C253 H276 0.930 . S
C254 C253 1.392 . S
C254 C255 1.398 . S
C254 H277 0.929 . S
C255 C254 1.398 . S
C255 C256 1.352 . S
C256 C255 1.352 . S
C256 C257 1.384 . S
C256 H278 0.930 . S
C257 C252 1.407 . S
C257 C256 1.384 . S
C257 H279 0.929 . S
C258 O268 1.241 . S
C258 O269 1.273 . S
C259 O270 1.251 . S
C259 O271 1.268 . S
O260 Nd240 2.500 . S
O260 C242 1.258 . S
O261 Nd240 2.492 . S
O261 C242 1.239 . S
O262 Nd240 2.487 . S
O262 C249 1.241 . S
O263 Nd240 2.682 . S
O263 Nd241 2.414 . S
O263 C249 1.273 . S
O264 Nd240 2.410 . S
O264 C250 1.251 . S
O265 Nd241 2.424 . S
O265 C250 1.268 . S
O266 Nd241 2.500 . S
O266 C251 1.258 . S
O267 Nd241 2.492 . S
O267 C251 1.239 . S
O268 Nd241 2.487 . S
O268 C258 1.241 . S
O269 Nd240 2.414 . S
O269 Nd241 2.682 . S
O269 C258 1.273 . S
O270 Nd241 2.410 . S
O270 C259 1.251 . S
O271 Nd240 2.424 . S
O271 C259 1.268 . S
H272 C244 0.930 . S
H273 C245 0.929 . S
H274 C247 0.930 . S
H275 C248 0.929 . S
H276 C253 0.930 . S
H277 C254 0.929 . S
H278 C256 0.930 . S
H279 C257 0.929 . S
Nd280 C282 2.836 . S
Nd280 O300 2.500 1_655 S
Nd280 O301 2.492 . S
Nd280 O302 2.487 . S
Nd280 O303 2.682 . S
Nd280 O304 2.410 . S
Nd280 O309 2.414 1_655 S
Nd280 O311 2.424 1_655 S
Nd281 C291 2.838 . S
Nd281 O303 2.414 . S
Nd281 O305 2.424 . S
Nd281 O306 2.500 . S
Nd281 O307 2.492 1_655 S
Nd281 O308 2.487 1_655 S
Nd281 O309 2.682 1_655 S
Nd281 O310 2.410 1_655 S
C282 Nd280 2.836 . S
C282 C283 1.498 . S
C282 O300 1.258 1_655 S
C282 O301 1.239 . S
C283 C282 1.498 . S
C283 C284 1.366 1_655 S
C283 C288 1.407 . S
C284 C283 1.366 1_455 S
C284 C285 1.392 . S
C284 H312 0.930 . S
C285 C284 1.392 . S
C285 C286 1.398 1_455 S
C285 H313 0.929 . S
C286 C285 1.398 1_655 S
C286 C287 1.352 . S
C287 C286 1.352 . S
C287 C288 1.384 . S
C287 H314 0.930 . S
C288 C283 1.407 . S
C288 C287 1.384 . S
C288 H315 0.929 . S
C289 O302 1.241 . S
C289 O303 1.273 . S
C290 O304 1.251 . S
C290 O305 1.268 . S
C291 Nd281 2.838 . S
C291 C292 1.497 1_655 S
C291 O306 1.256 . S
C291 O307 1.242 1_655 S
C292 C291 1.497 1_455 S
C292 C293 1.366 1_455 S
C292 C297 1.407 . S
C293 C292 1.366 1_655 S
C293 C294 1.392 . S
C293 H316 0.930 . S
C294 C293 1.392 . S
C294 C295 1.398 1_655 S
C294 H317 0.929 . S
C295 C294 1.398 1_455 S
C295 C296 1.352 . S
C296 C295 1.352 . S
C296 C297 1.384 . S
C296 H318 0.930 . S
C297 C292 1.407 . S
C297 C296 1.384 . S
C297 H319 0.929 . S
C298 O308 1.241 . S
C298 O309 1.273 . S
C299 O310 1.251 . S
C299 O311 1.268 . S
O300 Nd280 2.500 1_455 S
O300 C282 1.258 1_455 S
O301 Nd280 2.492 . S
O301 C282 1.239 . S
O302 Nd280 2.487 . S
O302 C289 1.241 . S
O303 Nd280 2.682 . S
O303 Nd281 2.414 . S
O303 C289 1.273 . S
O304 Nd280 2.410 . S
O304 C290 1.251 . S
O305 Nd281 2.424 . S
O305 C290 1.268 . S
O306 Nd281 2.500 . S
O306 C291 1.256 . S
O307 Nd281 2.492 1_455 S
O307 C291 1.242 1_455 S
O308 Nd281 2.487 1_455 S
O308 C298 1.241 . S
O309 Nd280 2.414 1_455 S
O309 Nd281 2.682 1_455 S
O309 C298 1.273 . S
O310 Nd281 2.410 1_455 S
O310 C299 1.251 . S
O311 Nd280 2.424 1_455 S
O311 C299 1.268 . S
H312 C284 0.930 . S
H313 C285 0.929 . S
H314 C287 0.930 . S
H315 C288 0.929 . S
H316 C293 0.930 . S
H317 C294 0.929 . S
H318 C296 0.930 . S
H319 C297 0.929 . S
Nd320 C322 2.836 . S
Nd320 O340 2.500 . S
Nd320 O341 2.492 . S
Nd320 O342 2.487 . S
Nd320 O343 2.678 1_455 S
Nd320 O344 2.410 . S
Nd320 O349 2.414 1_455 S
Nd320 O351 2.424 . S
Nd321 C331 2.836 . S
Nd321 O343 2.438 . S
Nd321 O345 2.424 . S
Nd321 O346 2.500 . S
Nd321 O347 2.492 . S
Nd321 O348 2.487 . S
Nd321 O349 2.682 . S
Nd321 O350 2.410 . S
C322 Nd320 2.836 . S
C322 C323 1.498 . S
C322 O340 1.258 . S
C322 O341 1.239 . S
C323 C322 1.498 . S
C323 C324 1.366 . S
C323 C328 1.407 . S
C324 C323 1.366 . S
C324 C325 1.392 . S
C324 H352 0.930 . S
C325 C324 1.392 . S
C325 C326 1.398 . S
C325 H353 0.929 . S
C326 C325 1.398 . S
C326 C327 1.352 . S
C327 C326 1.352 . S
C327 C328 1.384 . S
C327 H354 0.930 . S
C328 C323 1.407 . S
C328 C327 1.384 . S
C328 H355 0.929 . S
C329 O342 1.241 . S
C329 O343 1.248 1_455 S
C330 O344 1.251 . S
C330 O345 1.268 1_455 S
C331 Nd321 2.836 . S
C331 C332 1.498 . S
C331 O346 1.258 . S
C331 O347 1.239 . S
C332 C331 1.498 . S
C332 C333 1.366 . S
C332 C337 1.407 . S
C333 C332 1.366 . S
C333 C334 1.392 . S
C333 H356 0.930 . S
C334 C333 1.392 . S
C334 C335 1.398 . S
C334 H357 0.929 . S
C335 C334 1.398 . S
C335 C336 1.352 . S
C336 C335 1.352 . S
C336 C337 1.384 . S
C336 H358 0.930 . S
C337 C332 1.407 . S
C337 C336 1.384 . S
C337 H359 0.929 . S
C338 O348 1.241 . S
C338 O349 1.273 . S
C339 O350 1.251 . S
C339 O351 1.268 1_655 S
O340 Nd320 2.500 . S
O340 C322 1.258 . S
O341 Nd320 2.492 . S
O341 C322 1.239 . S
O342 Nd320 2.487 . S
O342 C329 1.241 . S
O343 Nd320 2.678 1_655 S
O343 Nd321 2.438 . S
O343 C329 1.248 1_655 S
O344 Nd320 2.410 . S
O344 C330 1.251 . S
O345 Nd321 2.424 . S
O345 C330 1.268 1_655 S
O346 Nd321 2.500 . S
O346 C331 1.258 . S
O347 Nd321 2.492 . S
O347 C331 1.239 . S
O348 Nd321 2.487 . S
O348 C338 1.241 . S
O349 Nd320 2.414 1_655 S
O349 Nd321 2.682 . S
O349 C338 1.273 . S
O350 Nd321 2.410 . S
O350 C339 1.251 . S
O351 Nd320 2.424 . S
O351 C339 1.268 1_455 S
H352 C324 0.930 . S
H353 C325 0.929 . S
H354 C327 0.930 . S
H355 C328 0.929 . S
H356 C333 0.930 . S
H357 C334 0.929 . S
H358 C336 0.930 . S
H359 C337 0.929 . S
H360 C378 0.951 . S
H361 C380 0.951 . S
H362 C382 0.950 . S
H363 C383 0.950 . S
H364 C385 0.950 . S
H365 C388 0.950 . S
H366 C389 0.950 . S
H367 C391 0.950 . S
H368 C392 0.950 . S
H369 C393 0.951 . S
H370 C395 0.951 . S
H371 C397 0.950 . S
H372 C398 0.950 . S
H373 C400 0.950 . S
H374 C403 0.950 . S
H375 C404 0.950 . S
H376 C406 0.950 . S
H377 C407 0.950 . S
C378 H360 0.951 . S
C378 C379 1.366 . S
C378 C380 1.388 . S
C379 C378 1.366 . S
C379 C383 1.385 . S
C380 H361 0.951 . S
C380 C378 1.388 . S
C380 C381 1.366 . S
C381 C380 1.366 . S
C381 C382 1.414 . S
C381 C384 1.499 . S
C382 H362 0.950 . S
C382 C381 1.414 . S
C382 C383 1.374 . S
C383 H363 0.950 . S
C383 C379 1.385 . S
C383 C382 1.374 . S
C384 C381 1.499 . S
C384 C385 1.373 . S
C384 C386 1.389 . S
C385 H364 0.950 . S
C385 C384 1.373 . S
C385 C401 1.377 . S
C386 C384 1.389 . S
C386 C387 1.524 . S
C386 C400 1.377 . S
C387 C386 1.524 . S
C387 C388 1.397 . S
C387 C392 1.363 . S
C388 H365 0.950 . S
C388 C387 1.397 . S
C388 C389 1.334 . S
C389 H366 0.950 . S
C389 C388 1.334 . S
C389 C390 1.287 . S
C390 C389 1.287 . S
C390 C391 1.524 . S
C390 H409 0.913 . S
C391 H367 0.950 . S
C391 C390 1.524 . S
C391 C392 1.415 . S
C392 H368 0.950 . S
C392 C387 1.363 . S
C392 C391 1.415 . S
C393 H369 0.951 . S
C393 C394 1.366 . S
C393 C395 1.388 . S
C394 C393 1.366 . S
C394 C398 1.385 . S
C395 H370 0.951 . S
C395 C393 1.388 . S
C395 C396 1.366 . S
C396 C395 1.366 . S
C396 C397 1.414 . S
C396 C399 1.499 . S
C397 H371 0.950 . S
C397 C396 1.414 . S
C397 C398 1.374 . S
C398 H372 0.950 . S
C398 C394 1.385 . S
C398 C397 1.374 . S
C399 C396 1.499 . S
C399 C400 1.373 . S
C399 C401 1.389 . S
C400 H373 0.950 . S
C400 C386 1.377 . S
C400 C399 1.373 . S
C401 C385 1.377 . S
C401 C399 1.389 . S
C401 C402 1.524 . S
C402 C401 1.524 . S
C402 C403 1.397 . S
C402 C407 1.363 . S
C403 H374 0.950 . S
C403 C402 1.397 . S
C403 C404 1.334 . S
C404 H375 0.950 . S
C404 C403 1.334 . S
C404 C405 1.287 . S
C405 C404 1.287 . S
C405 C406 1.524 . S
C405 H408 0.999 . S
C406 H376 0.950 . S
C406 C405 1.524 . S
C406 C407 1.415 . S
C407 H377 0.950 . S
C407 C402 1.363 . S
C407 C406 1.415 . S
H408 C405 0.999 . S
H409 C390 0.913 . S
H410 C428 0.951 . S
H411 C430 0.951 . S
H412 C432 0.950 . S
H413 C433 0.950 . S
H414 C435 0.950 . S
H415 C438 0.950 . S
H416 C439 0.950 . S
H417 C441 0.950 . S
H418 C442 0.950 . S
H419 C443 0.951 . S
H420 C445 0.951 . S
H421 C447 0.950 . S
H422 C448 0.950 . S
H423 C450 0.950 . S
H424 C453 0.950 . S
H425 C454 0.950 . S
H426 C456 0.950 . S
H427 C457 0.950 . S
C428 H410 0.951 . S
C428 C429 1.366 . S
C428 C430 1.388 . S
C429 C428 1.366 . S
C429 C433 1.385 . S
C430 H411 0.951 . S
C430 C428 1.388 . S
C430 C431 1.366 . S
C431 C430 1.366 . S
C431 C432 1.414 . S
C431 C434 1.499 . S
C432 H412 0.950 . S
C432 C431 1.414 . S
C432 C433 1.374 . S
C433 H413 0.950 . S
C433 C429 1.385 . S
C433 C432 1.374 . S
C434 C431 1.499 . S
C434 C435 1.373 . S
C434 C436 1.389 . S
C435 H414 0.950 . S
C435 C434 1.373 . S
C435 C451 1.377 . S
C436 C434 1.389 . S
C436 C437 1.524 . S
C436 C450 1.377 . S
C437 C436 1.524 . S
C437 C438 1.397 . S
C437 C442 1.363 . S
C438 H415 0.950 . S
C438 C437 1.397 . S
C438 C439 1.334 . S
C439 H416 0.950 . S
C439 C438 1.334 . S
C439 C440 1.287 . S
C440 C439 1.287 . S
C440 C441 1.524 . S
C440 H459 0.913 . S
C441 H417 0.950 . S
C441 C440 1.524 . S
C441 C442 1.415 . S
C442 H418 0.950 . S
C442 C437 1.363 . S
C442 C441 1.415 . S
C443 H419 0.951 . S
C443 C444 1.366 . S
C443 C445 1.388 . S
C444 C443 1.366 . S
C444 C448 1.385 . S
C445 H420 0.951 . S
C445 C443 1.388 . S
C445 C446 1.366 . S
C446 C445 1.366 . S
C446 C447 1.414 . S
C446 C449 1.499 . S
C447 H421 0.950 . S
C447 C446 1.414 . S
C447 C448 1.374 . S
C448 H422 0.950 . S
C448 C444 1.385 . S
C448 C447 1.374 . S
C449 C446 1.499 . S
C449 C450 1.373 . S
C449 C451 1.389 . S
C450 H423 0.950 . S
C450 C436 1.377 . S
C450 C449 1.373 . S
C451 C435 1.377 . S
C451 C449 1.389 . S
C451 C452 1.524 . S
C452 C451 1.524 . S
C452 C453 1.397 . S
C452 C457 1.363 . S
C453 H424 0.950 . S
C453 C452 1.397 . S
C453 C454 1.334 . S
C454 H425 0.950 . S
C454 C453 1.334 . S
C454 C455 1.287 . S
C455 C454 1.287 . S
C455 C456 1.524 . S
C455 H458 0.999 . S
C456 H426 0.950 . S
C456 C455 1.524 . S
C456 C457 1.415 . S
C457 H427 0.950 . S
C457 C452 1.363 . S
C457 C456 1.415 . S
H458 C455 0.999 . S
H459 C440 0.913 . S
H460 C478 0.951 . S
H461 C480 0.951 . S
H462 C482 0.950 . S
H463 C483 0.950 . S
H464 C485 0.950 . S
H465 C488 0.950 . S
H466 C489 0.950 . S
H467 C491 0.950 . S
H468 C492 0.950 . S
H469 C493 0.951 . S
H470 C495 0.951 . S
H471 C497 0.950 . S
H472 C498 0.950 . S
H473 C500 0.950 . S
H474 C503 0.950 . S
H475 C504 0.950 . S
H476 C506 0.950 . S
H477 C507 0.950 . S
C478 H460 0.951 . S
C478 C479 1.366 . S
C478 C480 1.388 . S
C479 C478 1.366 . S
C479 C483 1.385 . S
C480 H461 0.951 . S
C480 C478 1.388 . S
C480 C481 1.366 . S
C481 C480 1.366 . S
C481 C482 1.414 . S
C481 C484 1.499 . S
C482 H462 0.950 . S
C482 C481 1.414 . S
C482 C483 1.374 . S
C483 H463 0.950 . S
C483 C479 1.385 . S
C483 C482 1.374 . S
C484 C481 1.499 . S
C484 C485 1.373 . S
C484 C486 1.389 . S
C485 H464 0.950 . S
C485 C484 1.373 . S
C485 C501 1.377 . S
C486 C484 1.389 . S
C486 C487 1.524 . S
C486 C500 1.377 . S
C487 C486 1.524 . S
C487 C488 1.397 . S
C487 C492 1.363 . S
C488 H465 0.950 . S
C488 C487 1.397 . S
C488 C489 1.334 . S
C489 H466 0.950 . S
C489 C488 1.334 . S
C489 C490 1.287 . S
C490 C489 1.287 . S
C490 C491 1.524 . S
C490 H509 0.913 . S
C491 H467 0.950 . S
C491 C490 1.524 . S
C491 C492 1.415 . S
C492 H468 0.950 . S
C492 C487 1.363 . S
C492 C491 1.415 . S
C493 H469 0.951 . S
C493 C494 1.366 . S
C493 C495 1.388 . S
C494 C493 1.366 . S
C494 C498 1.385 . S
C495 H470 0.951 . S
C495 C493 1.388 . S
C495 C496 1.366 . S
C496 C495 1.366 . S
C496 C497 1.414 . S
C496 C499 1.499 . S
C497 H471 0.950 . S
C497 C496 1.414 . S
C497 C498 1.374 . S
C498 H472 0.950 . S
C498 C494 1.385 . S
C498 C497 1.374 . S
C499 C496 1.499 . S
C499 C500 1.373 . S
C499 C501 1.389 . S
C500 H473 0.950 . S
C500 C486 1.377 . S
C500 C499 1.373 . S
C501 C485 1.377 . S
C501 C499 1.389 . S
C501 C502 1.524 . S
C502 C501 1.524 . S
C502 C503 1.397 . S
C502 C507 1.363 . S
C503 H474 0.950 . S
C503 C502 1.397 . S
C503 C504 1.334 . S
C504 H475 0.950 . S
C504 C503 1.334 . S
C504 C505 1.287 . S
C505 C504 1.287 . S
C505 C506 1.524 . S
C505 H508 0.999 . S
C506 H476 0.950 . S
C506 C505 1.524 . S
C506 C507 1.415 . S
C507 H477 0.950 . S
C507 C502 1.363 . S
C507 C506 1.415 . S
H508 C505 0.999 . S
H509 C490 0.913 . S
H510 C528 0.951 . S
H511 C530 0.951 . S
H512 C532 0.950 . S
H513 C533 0.950 . S
H514 C535 0.950 . S
H515 C538 0.950 . S
H516 C539 0.950 . S
H517 C541 0.950 . S
H518 C542 0.950 . S
H519 C543 0.951 . S
H520 C545 0.951 . S
H521 C547 0.950 . S
H522 C548 0.950 1_554 S
H523 C550 0.950 . S
H524 C553 0.950 . S
H525 C554 0.950 . S
H526 C556 0.950 . S
H527 C557 0.950 . S
C528 H510 0.951 . S
C528 C529 1.366 . S
C528 C530 1.388 . S
C529 C528 1.366 . S
C529 C533 1.385 . S
C530 H511 0.951 . S
C530 C528 1.388 . S
C530 C531 1.366 . S
C531 C530 1.366 . S
C531 C532 1.414 . S
C531 C534 1.499 . S
C532 H512 0.950 . S
C532 C531 1.414 . S
C532 C533 1.374 . S
C533 H513 0.950 . S
C533 C529 1.385 . S
C533 C532 1.374 . S
C534 C531 1.499 . S
C534 C535 1.373 . S
C534 C536 1.389 . S
C535 H514 0.950 . S
C535 C534 1.373 . S
C535 C551 1.377 . S
C536 C534 1.389 . S
C536 C537 1.524 . S
C536 C550 1.377 . S
C537 C536 1.524 . S
C537 C538 1.397 . S
C537 C542 1.363 . S
C538 H515 0.950 . S
C538 C537 1.397 . S
C538 C539 1.334 . S
C539 H516 0.950 . S
C539 C538 1.334 . S
C539 C540 1.287 . S
C540 C539 1.287 . S
C540 C541 1.524 . S
C540 H559 0.913 . S
C541 H517 0.950 . S
C541 C540 1.524 . S
C541 C542 1.415 . S
C542 H518 0.950 . S
C542 C537 1.363 . S
C542 C541 1.415 . S
C543 H519 0.951 . S
C543 C544 1.366 1_556 S
C543 C545 1.388 . S
C544 C543 1.366 1_554 S
C544 C548 1.385 1_554 S
C545 H520 0.951 . S
C545 C543 1.388 . S
C545 C546 1.366 . S
C546 C545 1.366 . S
C546 C547 1.414 . S
C546 C549 1.499 . S
C547 H521 0.950 . S
C547 C546 1.414 . S
C547 C548 1.374 . S
C548 H522 0.950 1_556 S
C548 C544 1.385 1_556 S
C548 C547 1.374 . S
C549 C546 1.499 . S
C549 C550 1.373 . S
C549 C551 1.389 . S
C550 H523 0.950 . S
C550 C536 1.377 . S
C550 C549 1.373 . S
C551 C535 1.377 . S
C551 C549 1.389 . S
C551 C552 1.524 . S
C552 C551 1.524 . S
C552 C553 1.397 . S
C552 C557 1.363 . S
C553 H524 0.950 . S
C553 C552 1.397 . S
C553 C554 1.334 . S
C554 H525 0.950 . S
C554 C553 1.334 . S
C554 C555 1.287 . S
C555 C554 1.287 . S
C555 C556 1.524 . S
C555 H558 0.999 . S
C556 H526 0.950 . S
C556 C555 1.524 . S
C556 C557 1.415 . S
C557 H527 0.950 . S
C557 C552 1.363 . S
C557 C556 1.415 . S
H558 C555 0.999 . S
H559 C540 0.913 . S
H560 C578 0.951 . S
H561 C580 0.951 . S
H562 C582 0.950 . S
H563 C583 0.950 . S
H564 C585 0.950 . S
H565 C588 0.950 . S
H566 C589 0.950 . S
H567 C591 0.950 . S
H568 C592 0.950 . S
H569 C593 0.951 . S
H570 C595 0.951 . S
H571 C597 0.950 . S
H572 C598 0.950 . S
H573 C600 0.950 . S
H574 C603 0.950 . S
H575 C604 0.950 . S
H576 C606 0.950 . S
H577 C607 0.950 . S
C578 H560 0.951 . S
C578 C579 1.366 1_545 S
C578 C580 1.388 . S
C579 C578 1.366 1_565 S
C579 C583 1.385 . S
C580 H561 0.951 . S
C580 C578 1.388 . S
C580 C581 1.366 1_545 S
C581 C580 1.366 1_565 S
C581 C582 1.414 . S
C581 C584 1.499 . S
C582 H562 0.950 . S
C582 C581 1.414 . S
C582 C583 1.374 . S
C583 H563 0.950 . S
C583 C579 1.385 . S
C583 C582 1.374 . S
C584 C581 1.499 . S
C584 C585 1.373 . S
C584 C586 1.389 1_565 S
C585 H564 0.950 . S
C585 C584 1.373 . S
C585 C601 1.377 . S
C586 C584 1.389 1_545 S
C586 C587 1.524 . S
C586 C600 1.377 . S
C587 C586 1.524 . S
C587 C588 1.397 . S
C587 C592 1.363 . S
C588 H565 0.950 . S
C588 C587 1.397 . S
C588 C589 1.334 . S
C589 H566 0.950 . S
C589 C588 1.334 . S
C589 C590 1.287 . S
C590 C589 1.287 . S
C590 C591 1.524 . S
C590 H609 0.913 . S
C591 H567 0.950 . S
C591 C590 1.524 . S
C591 C592 1.415 . S
C592 H568 0.950 . S
C592 C587 1.363 . S
C592 C591 1.415 . S
C593 H569 0.951 . S
C593 C594 1.366 1_566 S
C593 C595 1.388 . S
C594 C593 1.366 1_544 S
C594 C598 1.385 1_554 S
C595 H570 0.951 . S
C595 C593 1.388 . S
C595 C596 1.314 1_565 S
C596 C595 1.314 1_545 S
C596 C597 1.477 . S
C596 C599 1.495 1_545 S
C597 H571 0.950 . S
C597 C596 1.477 . S
C597 C598 1.374 . S
C598 H572 0.950 . S
C598 C594 1.385 1_556 S
C598 C597 1.374 . S
C599 C596 1.495 1_565 S
C599 C600 1.367 1_565 S
C599 C601 1.396 . S
C600 H573 0.950 . S
C600 C586 1.377 . S
C600 C599 1.367 1_545 S
C601 C585 1.377 . S
C601 C599 1.396 . S
C601 C602 1.524 . S
C602 C601 1.524 . S
C602 C603 1.397 . S
C602 C607 1.363 . S
C603 H574 0.950 . S
C603 C602 1.397 . S
C603 C604 1.334 . S
C604 H575 0.950 . S
C604 C603 1.334 . S
C604 C605 1.287 . S
C605 C604 1.287 . S
C605 C606 1.524 . S
C605 H608 0.999 . S
C606 H576 0.950 . S
C606 C605 1.524 . S
C606 C607 1.415 . S
C607 H577 0.950 . S
C607 C602 1.363 . S
C607 C606 1.415 . S
H608 C605 0.999 . S
H609 C590 0.913 . S
H610 C628 0.951 . S
H611 C630 0.951 . S
H612 C632 0.950 . S
H613 C633 0.950 . S
H614 C635 0.950 . S
H615 C638 0.950 . S
H616 C639 0.950 . S
H617 C641 0.950 . S
H618 C642 0.950 . S
H619 C643 0.951 . S
H620 C645 0.951 . S
H621 C647 0.950 . S
H622 C648 0.950 . S
H623 C650 0.950 . S
H624 C653 0.950 . S
H625 C654 0.950 . S
H626 C656 0.950 . S
H627 C657 0.950 . S
C628 H610 0.951 . S
C628 C629 1.366 . S
C628 C630 1.388 . S
C629 C628 1.366 . S
C629 C633 1.385 . S
C630 H611 0.951 . S
C630 C628 1.388 . S
C630 C631 1.366 . S
C631 C630 1.366 . S
C631 C632 1.414 . S
C631 C634 1.499 . S
C632 H612 0.950 . S
C632 C631 1.414 . S
C632 C633 1.374 . S
C633 H613 0.950 . S
C633 C629 1.385 . S
C633 C632 1.374 . S
C634 C631 1.499 . S
C634 C635 1.373 . S
C634 C636 1.389 . S
C635 H614 0.950 . S
C635 C634 1.373 . S
C635 C651 1.377 . S
C636 C634 1.389 . S
C636 C637 1.524 . S
C636 C650 1.377 . S
C637 C636 1.524 . S
C637 C638 1.397 . S
C637 C642 1.363 . S
C638 H615 0.950 . S
C638 C637 1.397 . S
C638 C639 1.334 . S
C639 H616 0.950 . S
C639 C638 1.334 . S
C639 C640 1.287 . S
C640 C639 1.287 . S
C640 C641 1.524 . S
C640 H659 0.913 . S
C641 H617 0.950 . S
C641 C640 1.524 . S
C641 C642 1.415 . S
C642 H618 0.950 . S
C642 C637 1.363 . S
C642 C641 1.415 . S
C643 H619 0.951 . S
C643 C644 1.366 . S
C643 C645 1.388 . S
C644 C643 1.366 . S
C644 C648 1.385 . S
C645 H620 0.951 . S
C645 C643 1.388 . S
C645 C646 1.366 . S
C646 C645 1.366 . S
C646 C647 1.414 . S
C646 C649 1.499 . S
C647 H621 0.950 . S
C647 C646 1.414 . S
C647 C648 1.374 . S
C648 H622 0.950 . S
C648 C644 1.385 . S
C648 C647 1.374 . S
C649 C646 1.499 . S
C649 C650 1.373 . S
C649 C651 1.389 . S
C650 H623 0.950 . S
C650 C636 1.377 . S
C650 C649 1.373 . S
C651 C635 1.377 . S
C651 C649 1.389 . S
C651 C652 1.524 . S
C652 C651 1.524 . S
C652 C653 1.397 . S
C652 C657 1.363 . S
C653 H624 0.950 . S
C653 C652 1.397 . S
C653 C654 1.334 . S
C654 H625 0.950 . S
C654 C653 1.334 . S
C654 C655 1.287 . S
C655 C654 1.287 . S
C655 C656 1.524 . S
C655 H658 0.999 . S
C656 H626 0.950 . S
C656 C655 1.524 . S
C656 C657 1.415 . S
C657 H627 0.950 . S
C657 C652 1.363 . S
C657 C656 1.415 . S
H658 C655 0.999 . S
H659 C640 0.913 . S
H660 C678 0.951 . S
H661 C680 0.951 . S
H662 C682 0.950 . S
H663 C683 0.950 . S
H664 C685 0.950 . S
H665 C688 0.950 . S
H666 C689 0.950 . S
H667 C691 0.950 . S
H668 C692 0.950 . S
H669 C693 0.951 . S
H670 C695 0.951 . S
H671 C697 0.950 1_554 S
H672 C698 0.950 . S
H673 C700 0.950 . S
H674 C703 0.950 . S
H675 C704 0.950 1_556 S
H676 C706 0.950 . S
H677 C707 0.950 . S
C678 H660 0.951 . S
C678 C679 1.366 . S
C678 C680 1.388 . S
C679 C678 1.366 . S
C679 C683 1.385 . S
C680 H661 0.951 . S
C680 C678 1.388 . S
C680 C681 1.366 . S
C681 C680 1.366 . S
C681 C682 1.414 . S
C681 C684 1.499 . S
C682 H662 0.950 . S
C682 C681 1.414 . S
C682 C683 1.374 . S
C683 H663 0.950 . S
C683 C679 1.385 . S
C683 C682 1.374 . S
C684 C681 1.499 . S
C684 C685 1.373 . S
C684 C686 1.389 . S
C685 H664 0.950 . S
C685 C684 1.373 . S
C685 C701 1.377 . S
C686 C684 1.389 . S
C686 C687 1.524 . S
C686 C700 1.377 . S
C687 C686 1.524 . S
C687 C688 1.397 . S
C687 C692 1.363 . S
C688 H665 0.950 . S
C688 C687 1.397 . S
C688 C689 1.334 . S
C689 H666 0.950 . S
C689 C688 1.334 . S
C689 C690 1.287 . S
C690 C689 1.287 . S
C690 C691 1.524 . S
C690 H709 0.913 . S
C691 H667 0.950 . S
C691 C690 1.524 . S
C691 C692 1.415 . S
C692 H668 0.950 . S
C692 C687 1.363 . S
C692 C691 1.415 . S
C693 H669 0.951 . S
C693 C694 1.366 . S
C693 C695 1.388 . S
C694 C693 1.366 . S
C694 C698 1.385 . S
C695 H670 0.951 . S
C695 C693 1.388 . S
C695 C696 1.366 1_556 S
C696 C695 1.366 1_554 S
C696 C697 1.414 1_554 S
C696 C699 1.499 . S
C697 H671 0.950 1_556 S
C697 C696 1.414 1_556 S
C697 C698 1.374 . S
C698 H672 0.950 . S
C698 C694 1.385 . S
C698 C697 1.374 . S
C699 C696 1.499 . S
C699 C700 1.373 . S
C699 C701 1.389 . S
C700 H673 0.950 . S
C700 C686 1.377 . S
C700 C699 1.373 . S
C701 C685 1.377 . S
C701 C699 1.389 . S
C701 C702 1.524 . S
C702 C701 1.524 . S
C702 C703 1.397 . S
C702 C707 1.363 . S
C703 H674 0.950 . S
C703 C702 1.397 . S
C703 C704 1.334 . S
C704 H675 0.950 1_554 S
C704 C703 1.334 . S
C704 C705 1.287 . S
C705 C704 1.287 . S
C705 C706 1.524 . S
C705 H708 0.999 1_554 S
C706 H676 0.950 . S
C706 C705 1.524 . S
C706 C707 1.415 . S
C707 H677 0.950 . S
C707 C702 1.363 . S
C707 C706 1.415 . S
H708 C705 0.999 1_556 S
H709 C690 0.913 . S
H710 C728 0.951 . S
H711 C730 0.951 1_455 S
H712 C732 0.950 . S
H713 C733 0.950 . S
H714 C735 0.950 . S
H715 C738 0.950 . S
H716 C739 0.950 . S
H717 C741 0.950 . S
H718 C742 0.950 . S
H719 C743 0.948 . S
H720 C745 0.951 . S
H721 C747 0.950 1_554 S
H722 C748 0.950 . S
H723 C750 0.950 . S
H724 C753 0.950 . S
H725 C754 0.951 1_556 S
H726 C756 0.950 . S
H727 C757 0.950 . S
C728 H710 0.951 . S
C728 C729 1.366 . S
C728 C730 1.388 . S
C729 C728 1.366 . S
C729 C733 1.385 . S
C730 H711 0.951 1_655 S
C730 C728 1.388 . S
C730 C731 1.366 . S
C731 C730 1.366 . S
C731 C732 1.414 . S
C731 C734 1.499 . S
C732 H712 0.950 . S
C732 C731 1.414 . S
C732 C733 1.374 . S
C733 H713 0.950 . S
C733 C729 1.385 . S
C733 C732 1.374 . S
C734 C731 1.499 . S
C734 C735 1.373 1_655 S
C734 C736 1.389 . S
C735 H714 0.950 . S
C735 C734 1.373 1_455 S
C735 C751 1.377 . S
C736 C734 1.389 . S
C736 C737 1.524 . S
C736 C750 1.377 . S
C737 C736 1.524 . S
C737 C738 1.397 . S
C737 C742 1.363 . S
C738 H715 0.950 . S
C738 C737 1.397 . S
C738 C739 1.334 . S
C739 H716 0.950 . S
C739 C738 1.334 . S
C739 C740 1.287 . S
C740 C739 1.287 . S
C740 C741 1.524 . S
C740 H759 0.913 . S
C741 H717 0.950 . S
C741 C740 1.524 . S
C741 C742 1.415 . S
C742 H718 0.950 . S
C742 C737 1.363 . S
C742 C741 1.415 . S
C743 H719 0.948 . S
C743 C744 1.369 1_655 S
C743 C745 1.388 . S
C744 C743 1.369 1_455 S
C744 C748 1.385 . S
C745 H720 0.951 . S
C745 C743 1.388 . S
C745 C746 1.366 1_656 S
C746 C745 1.366 1_454 S
C746 C747 1.414 1_554 S
C746 C749 1.501 . S
C747 H721 0.950 1_556 S
C747 C746 1.414 1_556 S
C747 C748 1.374 . S
C748 H722 0.950 . S
C748 C744 1.385 . S
C748 C747 1.374 . S
C749 C746 1.501 . S
C749 C750 1.338 1_455 S
C749 C751 1.422 . S
C750 H723 0.950 . S
C750 C736 1.377 . S
C750 C749 1.338 1_655 S
C751 C735 1.377 . S
C751 C749 1.422 . S
C751 C752 1.524 . S
C752 C751 1.524 . S
C752 C753 1.397 . S
C752 C757 1.363 . S
C753 H724 0.950 . S
C753 C752 1.397 . S
C753 C754 1.334 . S
C754 H725 0.951 1_554 S
C754 C753 1.334 . S
C754 C755 1.287 . S
C755 C754 1.287 . S
C755 C756 1.524 . S
C755 H758 0.999 . S
C756 H726 0.950 . S
C756 C755 1.524 . S
C756 C757 1.415 . S
C757 H727 0.950 . S
C757 C752 1.363 . S
C757 C756 1.415 . S
H758 C755 0.999 . S
H759 C740 0.913 . S
H760 C778 0.951 . S
H761 C780 0.951 . S
H762 C782 0.950 . S
H763 C783 0.950 . S
H764 C785 0.950 . S
H765 C788 0.950 . S
H766 C789 0.950 . S
H767 C791 0.950 . S
H768 C792 0.950 . S
H769 C793 0.951 . S
H770 C795 0.951 1_554 S
H771 C797 0.950 . S
H772 C798 0.950 . S
H773 C800 0.950 . S
H774 C803 0.950 . S
H775 C804 0.950 . S
H776 C806 0.950 . S
H777 C807 0.950 . S
C778 H760 0.951 . S
C778 C779 1.366 . S
C778 C780 1.388 . S
C779 C778 1.366 . S
C779 C783 1.385 1_455 S
C780 H761 0.951 . S
C780 C778 1.388 . S
C780 C781 1.366 . S
C781 C780 1.366 . S
C781 C782 1.414 1_455 S
C781 C784 1.499 1_455 S
C782 H762 0.950 . S
C782 C781 1.414 1_655 S
C782 C783 1.374 . S
C783 H763 0.950 . S
C783 C779 1.385 1_655 S
C783 C782 1.374 . S
C784 C781 1.499 1_655 S
C784 C785 1.373 . S
C784 C786 1.389 1_655 S
C785 H764 0.950 . S
C785 C784 1.373 . S
C785 C801 1.377 . S
C786 C784 1.389 1_455 S
C786 C787 1.524 . S
C786 C800 1.377 . S
C787 C786 1.524 . S
C787 C788 1.397 . S
C787 C792 1.363 . S
C788 H765 0.950 . S
C788 C787 1.397 . S
C788 C789 1.334 . S
C789 H766 0.950 . S
C789 C788 1.334 . S
C789 C790 1.287 . S
C790 C789 1.287 . S
C790 C791 1.524 . S
C790 H809 0.913 . S
C791 H767 0.950 . S
C791 C790 1.524 . S
C791 C792 1.415 . S
C792 H768 0.950 . S
C792 C787 1.363 . S
C792 C791 1.415 . S
C793 H769 0.951 . S
C793 C794 1.366 . S
C793 C795 1.388 . S
C794 C793 1.366 . S
C794 C798 1.385 1_655 S
C795 H770 0.951 1_556 S
C795 C793 1.388 . S
C795 C796 1.366 1_556 S
C796 C795 1.366 1_554 S
C796 C797 1.414 1_654 S
C796 C799 1.499 . S
C797 H771 0.950 . S
C797 C796 1.414 1_456 S
C797 C798 1.374 . S
C798 H772 0.950 . S
C798 C794 1.385 1_455 S
C798 C797 1.374 . S
C799 C796 1.499 . S
C799 C800 1.373 1_655 S
C799 C801 1.389 . S
C800 H773 0.950 . S
C800 C786 1.377 . S
C800 C799 1.373 1_455 S
C801 C785 1.377 . S
C801 C799 1.389 . S
C801 C802 1.524 . S
C802 C801 1.524 . S
C802 C803 1.397 . S
C802 C807 1.363 . S
C803 H774 0.950 . S
C803 C802 1.397 . S
C803 C804 1.334 . S
C804 H775 0.950 . S
C804 C803 1.334 . S
C804 C805 1.287 . S
C805 C804 1.287 . S
C805 C806 1.524 . S
C805 H808 0.999 . S
C806 H776 0.950 . S
C806 C805 1.524 . S
C806 C807 1.415 . S
C807 H777 0.950 . S
C807 C802 1.363 . S
C807 C806 1.415 . S
H808 C805 0.999 . S
H809 C790 0.913 . S
H810 C828 0.951 . S
H811 C830 0.951 . S
H812 C832 0.950 . S
H813 C833 0.950 . S
H814 C835 0.950 . S
H815 C838 0.950 1_554 S
H816 C839 0.950 . S
H817 C841 0.950 . S
H818 C842 0.950 . S
H819 C843 0.951 . S
H820 C845 0.951 . S
H821 C847 0.950 . S
H822 C848 0.950 . S
H823 C850 0.950 . S
H824 C853 0.950 . S
H825 C854 0.950 . S
H826 C856 0.950 . S
H827 C857 0.950 . S
C828 H810 0.951 . S
C828 C829 1.366 . S
C828 C830 1.388 . S
C829 C828 1.366 . S
C829 C833 1.385 . S
C830 H811 0.951 . S
C830 C828 1.388 . S
C830 C831 1.366 . S
C831 C830 1.366 . S
C831 C832 1.414 . S
C831 C834 1.499 . S
C832 H812 0.950 . S
C832 C831 1.414 . S
C832 C833 1.374 . S
C833 H813 0.950 . S
C833 C829 1.385 . S
C833 C832 1.374 . S
C834 C831 1.499 . S
C834 C835 1.373 . S
C834 C836 1.389 . S
C835 H814 0.950 . S
C835 C834 1.373 . S
C835 C851 1.377 . S
C836 C834 1.389 . S
C836 C837 1.524 . S
C836 C850 1.377 . S
C837 C836 1.524 . S
C837 C838 1.397 1_554 S
C837 C842 1.363 . S
C838 H815 0.950 1_556 S
C838 C837 1.397 1_556 S
C838 C839 1.334 . S
C839 H816 0.950 . S
C839 C838 1.334 . S
C839 C840 1.287 . S
C840 C839 1.287 . S
C840 C841 1.524 . S
C840 H859 0.913 . S
C841 H817 0.950 . S
C841 C840 1.524 . S
C841 C842 1.415 1_556 S
C842 H818 0.950 . S
C842 C837 1.363 . S
C842 C841 1.415 1_554 S
C843 H819 0.951 . S
C843 C844 1.366 . S
C843 C845 1.388 . S
C844 C843 1.366 . S
C844 C848 1.385 . S
C845 H820 0.951 . S
C845 C843 1.388 . S
C845 C846 1.366 . S
C846 C845 1.366 . S
C846 C847 1.414 . S
C846 C849 1.499 . S
C847 H821 0.950 . S
C847 C846 1.414 . S
C847 C848 1.374 . S
C848 H822 0.950 . S
C848 C844 1.385 . S
C848 C847 1.374 . S
C849 C846 1.499 . S
C849 C850 1.373 . S
C849 C851 1.389 . S
C850 H823 0.950 . S
C850 C836 1.377 . S
C850 C849 1.373 . S
C851 C835 1.377 . S
C851 C849 1.389 . S
C851 C852 1.524 . S
C852 C851 1.524 . S
C852 C853 1.397 . S
C852 C857 1.363 . S
C853 H824 0.950 . S
C853 C852 1.397 . S
C853 C854 1.334 . S
C854 H825 0.950 . S
C854 C853 1.334 . S
C854 C855 1.287 . S
C855 C854 1.287 . S
C855 C856 1.524 . S
C855 H858 0.999 . S
C856 H826 0.950 . S
C856 C855 1.524 . S
C856 C857 1.415 . S
C857 H827 0.950 . S
C857 C852 1.363 . S
C857 C856 1.415 . S
H858 C855 0.999 . S
H859 C840 0.913 . S
H860 C878 0.951 . S
H861 C880 0.951 . S
H862 C882 0.950 . S
H863 C883 0.950 . S
H864 C885 0.950 . S
H865 C888 0.950 . S
H866 C889 0.950 . S
H867 C891 0.950 . S
H868 C892 0.950 . S
H869 C893 0.951 . S
H870 C895 0.951 . S
H871 C897 0.950 . S
H872 C898 0.950 . S
H873 C900 0.950 . S
H874 C903 0.950 . S
H875 C904 0.950 . S
H876 C906 0.950 . S
H877 C907 0.950 1_556 S
C878 H860 0.951 . S
C878 C879 1.366 . S
C878 C880 1.388 . S
C879 C878 1.366 . S
C879 C883 1.385 . S
C880 H861 0.951 . S
C880 C878 1.388 . S
C880 C881 1.366 . S
C881 C880 1.366 . S
C881 C882 1.414 . S
C881 C884 1.499 . S
C882 H862 0.950 . S
C882 C881 1.414 . S
C882 C883 1.374 . S
C883 H863 0.950 . S
C883 C879 1.385 . S
C883 C882 1.374 . S
C884 C881 1.499 . S
C884 C885 1.373 . S
C884 C886 1.389 . S
C885 H864 0.950 . S
C885 C884 1.373 . S
C885 C901 1.377 . S
C886 C884 1.389 . S
C886 C887 1.524 . S
C886 C900 1.377 . S
C887 C886 1.524 . S
C887 C888 1.397 . S
C887 C892 1.363 . S
C888 H865 0.950 . S
C888 C887 1.397 . S
C888 C889 1.334 . S
C889 H866 0.950 . S
C889 C888 1.334 . S
C889 C890 1.287 . S
C890 C889 1.287 . S
C890 C891 1.524 . S
C890 H909 0.913 . S
C891 H867 0.950 . S
C891 C890 1.524 . S
C891 C892 1.415 . S
C892 H868 0.950 . S
C892 C887 1.363 . S
C892 C891 1.415 . S
C893 H869 0.951 . S
C893 C894 1.366 . S
C893 C895 1.388 . S
C894 C893 1.366 . S
C894 C898 1.385 . S
C895 H870 0.951 . S
C895 C893 1.388 . S
C895 C896 1.366 . S
C896 C895 1.366 . S
C896 C897 1.414 . S
C896 C899 1.499 . S
C897 H871 0.950 . S
C897 C896 1.414 . S
C897 C898 1.374 . S
C898 H872 0.950 . S
C898 C894 1.385 . S
C898 C897 1.374 . S
C899 C896 1.499 . S
C899 C900 1.373 . S
C899 C901 1.389 . S
C900 H873 0.950 . S
C900 C886 1.377 . S
C900 C899 1.373 . S
C901 C885 1.377 . S
C901 C899 1.389 . S
C901 C902 1.524 . S
C902 C901 1.524 . S
C902 C903 1.397 . S
C902 C907 1.363 . S
C903 H874 0.950 . S
C903 C902 1.397 . S
C903 C904 1.334 . S
C904 H875 0.950 . S
C904 C903 1.334 . S
C904 C905 1.287 . S
C905 C904 1.287 . S
C905 C906 1.524 1_554 S
C905 H908 0.999 1_554 S
C906 H876 0.950 . S
C906 C905 1.524 1_556 S
C906 C907 1.415 1_556 S
C907 H877 0.950 1_554 S
C907 C902 1.363 . S
C907 C906 1.415 1_554 S
H908 C905 0.999 1_556 S
H909 C890 0.913 . S
H910 C928 0.951 . S
H911 C930 0.951 . S
H912 C932 0.950 . S
H913 C933 0.950 . S
H914 C935 0.950 . S
H915 C938 0.950 . S
H916 C939 0.950 . S
H917 C941 0.950 . S
H918 C942 0.950 . S
H919 C943 0.951 . S
H920 C945 0.951 . S
H921 C947 0.950 . S
H922 C948 0.950 . S
H923 C950 0.950 . S
H924 C953 0.950 . S
H925 C954 0.950 . S
H926 C956 0.950 . S
H927 C957 0.950 . S
C928 H910 0.951 . S
C928 C929 1.366 . S
C928 C930 1.388 . S
C929 C928 1.366 . S
C929 C933 1.385 . S
C930 H911 0.951 . S
C930 C928 1.388 . S
C930 C931 1.366 . S
C931 C930 1.366 . S
C931 C932 1.414 . S
C931 C934 1.499 . S
C932 H912 0.950 . S
C932 C931 1.414 . S
C932 C933 1.374 . S
C933 H913 0.950 . S
C933 C929 1.385 . S
C933 C932 1.374 . S
C934 C931 1.499 . S
C934 C935 1.373 . S
C934 C936 1.389 . S
C935 H914 0.950 . S
C935 C934 1.373 . S
C935 C951 1.377 . S
C936 C934 1.389 . S
C936 C937 1.524 . S
C936 C950 1.377 . S
C937 C936 1.524 . S
C937 C938 1.397 . S
C937 C942 1.363 . S
C938 H915 0.950 . S
C938 C937 1.397 . S
C938 C939 1.334 . S
C939 H916 0.950 . S
C939 C938 1.334 . S
C939 C940 1.287 . S
C940 C939 1.287 . S
C940 C941 1.524 . S
C940 H959 0.913 . S
C941 H917 0.950 . S
C941 C940 1.524 . S
C941 C942 1.415 . S
C942 H918 0.950 . S
C942 C937 1.363 . S
C942 C941 1.415 . S
C943 H919 0.951 . S
C943 C944 1.366 . S
C943 C945 1.388 . S
C944 C943 1.366 . S
C944 C948 1.385 . S
C945 H920 0.951 . S
C945 C943 1.388 . S
C945 C946 1.366 . S
C946 C945 1.366 . S
C946 C947 1.414 . S
C946 C949 1.499 . S
C947 H921 0.950 . S
C947 C946 1.414 . S
C947 C948 1.374 . S
C948 H922 0.950 . S
C948 C944 1.385 . S
C948 C947 1.374 . S
C949 C946 1.499 . S
C949 C950 1.373 . S
C949 C951 1.389 . S
C950 H923 0.950 . S
C950 C936 1.377 . S
C950 C949 1.373 . S
C951 C935 1.377 . S
C951 C949 1.389 . S
C951 C952 1.524 . S
C952 C951 1.524 . S
C952 C953 1.397 . S
C952 C957 1.363 . S
C953 H924 0.950 . S
C953 C952 1.397 . S
C953 C954 1.334 1_554 S
C954 H925 0.950 . S
C954 C953 1.334 1_556 S
C954 C955 1.287 . S
C955 C954 1.287 . S
C955 C956 1.524 . S
C955 H958 0.999 . S
C956 H926 0.950 . S
C956 C955 1.524 . S
C956 C957 1.415 1_556 S
C957 H927 0.950 . S
C957 C952 1.363 . S
C957 C956 1.415 1_554 S
H958 C955 0.999 . S
H959 C940 0.913 . S
H960 C978 0.951 . S
H961 C980 0.951 . S
H962 C982 0.950 . S
H963 C983 0.950 . S
H964 C985 0.950 1_556 S
H965 C988 0.950 . S
H966 C989 0.950 . S
H967 C991 0.950 . S
H968 C992 0.950 . S
H969 C993 0.951 . S
H970 C995 0.951 . S
H971 C997 0.950 . S
H972 C998 0.950 1_554 S
H973 C1000 0.950 . S
H974 C1003 0.950 . S
H975 C1004 0.950 . S
H976 C1006 0.950 . S
H977 C1007 0.950 . S
C978 H960 0.951 . S
C978 C979 1.366 . S
C978 C980 1.388 . S
C979 C978 1.366 . S
C979 C983 1.385 . S
C980 H961 0.951 . S
C980 C978 1.388 . S
C980 C981 1.366 . S
C981 C980 1.366 . S
C981 C982 1.414 . S
C981 C984 1.499 . S
C982 H962 0.950 . S
C982 C981 1.414 . S
C982 C983 1.374 . S
C983 H963 0.950 . S
C983 C979 1.385 . S
C983 C982 1.374 . S
C984 C981 1.499 . S
C984 C985 1.373 . S
C984 C986 1.389 . S
C985 H964 0.950 1_554 S
C985 C984 1.373 . S
C985 C1001 1.377 1_554 S
C986 C984 1.389 . S
C986 C987 1.524 . S
C986 C1000 1.377 . S
C987 C986 1.524 . S
C987 C988 1.397 . S
C987 C992 1.363 . S
C988 H965 0.950 . S
C988 C987 1.397 . S
C988 C989 1.334 . S
C989 H966 0.950 . S
C989 C988 1.334 . S
C989 C990 1.287 . S
C990 C989 1.287 . S
C990 C991 1.524 . S
C990 H1009 0.913 . S
C991 H967 0.950 . S
C991 C990 1.524 . S
C991 C992 1.415 . S
C992 H968 0.950 . S
C992 C987 1.363 . S
C992 C991 1.415 . S
C993 H969 0.951 . S
C993 C994 1.366 . S
C993 C995 1.388 . S
C994 C993 1.366 . S
C994 C998 1.385 . S
C995 H970 0.951 . S
C995 C993 1.388 . S
C995 C996 1.366 . S
C996 C995 1.366 . S
C996 C997 1.414 1_556 S
C996 C999 1.499 1_556 S
C997 H971 0.950 . S
C997 C996 1.414 1_554 S
C997 C998 1.374 1_554 S
C998 H972 0.950 1_556 S
C998 C994 1.385 . S
C998 C997 1.374 1_556 S
C999 C996 1.499 1_554 S
C999 C1000 1.373 . S
C999 C1001 1.389 1_554 S
C1000 H973 0.950 . S
C1000 C986 1.377 . S
C1000 C999 1.373 . S
C1001 C985 1.377 1_556 S
C1001 C999 1.389 1_556 S
C1001 C1002 1.524 . S
C1002 C1001 1.524 . S
C1002 C1003 1.397 . S
C1002 C1007 1.363 . S
C1003 H974 0.950 . S
C1003 C1002 1.397 . S
C1003 C1004 1.334 . S
C1004 H975 0.950 . S
C1004 C1003 1.334 . S
C1004 C1005 1.287 . S
C1005 C1004 1.287 . S
C1005 C1006 1.524 . S
C1005 H1008 0.999 . S
C1006 H976 0.950 . S
C1006 C1005 1.524 . S
C1006 C1007 1.415 . S
C1007 H977 0.950 . S
C1007 C1002 1.363 . S
C1007 C1006 1.415 . S
H1008 C1005 0.999 . S
H1009 C990 0.913 . S
H1010 C1028 0.951 1_654 S
H1011 C1030 0.951 . S
H1012 C1032 0.950 . S
H1013 C1033 0.950 . S
H1014 C1035 0.950 . S
H1015 C1038 0.950 . S
H1016 C1039 0.950 1_556 S
H1017 C1041 0.950 . S
H1018 C1042 0.950 . S
H1019 C1043 0.951 . S
H1020 C1045 0.951 1_556 S
H1021 C1047 0.950 . S
H1022 C1048 0.950 . S
H1023 C1050 0.950 1_655 S
H1024 C1053 0.950 . S
H1025 C1054 0.950 . S
H1026 C1056 0.950 . S
H1027 C1057 0.950 . S
C1028 H1010 0.951 1_456 S
C1028 C1029 1.366 . S
C1028 C1030 1.388 1_556 S
C1029 C1028 1.366 . S
C1029 C1033 1.385 . S
C1030 H1011 0.951 . S
C1030 C1028 1.388 1_554 S
C1030 C1031 1.366 1_554 S
C1031 C1030 1.366 1_556 S
C1031 C1032 1.414 . S
C1031 C1034 1.499 . S
C1032 H1012 0.950 . S
C1032 C1031 1.414 . S
C1032 C1033 1.374 . S
C1033 H1013 0.950 . S
C1033 C1029 1.385 . S
C1033 C1032 1.374 . S
C1034 C1031 1.499 . S
C1034 C1035 1.373 . S
C1034 C1036 1.389 1_456 S
C1035 H1014 0.950 . S
C1035 C1034 1.373 . S
C1035 C1051 1.377 1_556 S
C1036 C1034 1.389 1_654 S
C1036 C1037 1.524 . S
C1036 C1050 1.377 1_655 S
C1037 C1036 1.524 . S
C1037 C1038 1.397 1_554 S
C1037 C1042 1.363 . S
C1038 H1015 0.950 . S
C1038 C1037 1.397 1_556 S
C1038 C1039 1.334 1_556 S
C1039 H1016 0.950 1_554 S
C1039 C1038 1.334 1_554 S
C1039 C1040 1.287 . S
C1040 C1039 1.287 . S
C1040 C1041 1.524 . S
C1040 H1059 0.913 . S
C1041 H1017 0.950 . S
C1041 C1040 1.524 . S
C1041 C1042 1.415 . S
C1042 H1018 0.950 . S
C1042 C1037 1.363 . S
C1042 C1041 1.415 . S
C1043 H1019 0.951 . S
C1043 C1044 1.366 . S
C1043 C1045 1.388 . S
C1044 C1043 1.366 . S
C1044 C1048 1.385 . S
C1045 H1020 0.951 1_554 S
C1045 C1043 1.388 . S
C1045 C1046 1.366 . S
C1046 C1045 1.366 . S
C1046 C1047 1.414 . S
C1046 C1049 1.499 . S
C1047 H1021 0.950 . S
C1047 C1046 1.414 . S
C1047 C1048 1.374 . S
C1048 H1022 0.950 . S
C1048 C1044 1.385 . S
C1048 C1047 1.374 . S
C1049 C1046 1.499 . S
C1049 C1050 1.373 . S
C1049 C1051 1.389 . S
C1050 H1023 0.950 1_455 S
C1050 C1036 1.377 1_455 S
C1050 C1049 1.373 . S
C1051 C1035 1.377 1_554 S
C1051 C1049 1.389 . S
C1051 C1052 1.524 1_554 S
C1052 C1051 1.524 1_556 S
C1052 C1053 1.397 1_556 S
C1052 C1057 1.363 . S
C1053 H1024 0.950 . S
C1053 C1052 1.397 1_554 S
C1053 C1054 1.334 . S
C1054 H1025 0.950 . S
C1054 C1053 1.334 . S
C1054 C1055 1.287 1_554 S
C1055 C1054 1.287 1_556 S
C1055 C1056 1.524 . S
C1055 H1058 0.999 . S
C1056 H1026 0.950 . S
C1056 C1055 1.524 . S
C1056 C1057 1.415 . S
C1057 H1027 0.950 . S
C1057 C1052 1.363 . S
C1057 C1056 1.415 . S
H1058 C1055 0.999 . S
H1059 C1040 0.913 . S
H1060 C1078 0.951 . S
H1061 C1080 0.951 . S
H1062 C1082 0.950 . S
H1063 C1083 0.950 . S
H1064 C1085 0.950 . S
H1065 C1088 0.950 . S
H1066 C1089 0.950 . S
H1067 C1091 0.950 . S
H1068 C1092 0.950 . S
H1069 C1093 0.951 . S
H1070 C1095 0.951 . S
H1071 C1097 0.950 . S
H1072 C1098 0.950 . S
H1073 C1100 0.950 . S
H1074 C1103 0.950 . S
H1075 C1104 0.950 . S
H1076 C1106 0.950 . S
H1077 C1107 0.950 . S
C1078 H1060 0.951 . S
C1078 C1079 1.366 . S
C1078 C1080 1.388 . S
C1079 C1078 1.366 . S
C1079 C1083 1.385 . S
C1080 H1061 0.951 . S
C1080 C1078 1.388 . S
C1080 C1081 1.366 . S
C1081 C1080 1.366 . S
C1081 C1082 1.414 . S
C1081 C1084 1.499 . S
C1082 H1062 0.950 . S
C1082 C1081 1.414 . S
C1082 C1083 1.374 . S
C1083 H1063 0.950 . S
C1083 C1079 1.385 . S
C1083 C1082 1.374 . S
C1084 C1081 1.499 . S
C1084 C1085 1.373 . S
C1084 C1086 1.389 1_556 S
C1085 H1064 0.950 . S
C1085 C1084 1.373 . S
C1085 C1101 1.377 . S
C1086 C1084 1.389 1_554 S
C1086 C1087 1.524 . S
C1086 C1100 1.377 . S
C1087 C1086 1.524 . S
C1087 C1088 1.397 . S
C1087 C1092 1.363 . S
C1088 H1065 0.950 . S
C1088 C1087 1.397 . S
C1088 C1089 1.334 . S
C1089 H1066 0.950 . S
C1089 C1088 1.334 . S
C1089 C1090 1.287 . S
C1090 C1089 1.287 . S
C1090 C1091 1.524 . S
C1090 H1109 0.913 . S
C1091 H1067 0.950 . S
C1091 C1090 1.524 . S
C1091 C1092 1.415 . S
C1092 H1068 0.950 . S
C1092 C1087 1.363 . S
C1092 C1091 1.415 . S
C1093 H1069 0.951 . S
C1093 C1094 1.366 . S
C1093 C1095 1.388 . S
C1094 C1093 1.366 . S
C1094 C1098 1.385 . S
C1095 H1070 0.951 . S
C1095 C1093 1.388 . S
C1095 C1096 1.366 . S
C1096 C1095 1.366 . S
C1096 C1097 1.414 . S
C1096 C1099 1.499 . S
C1097 H1071 0.950 . S
C1097 C1096 1.414 . S
C1097 C1098 1.374 . S
C1098 H1072 0.950 . S
C1098 C1094 1.385 . S
C1098 C1097 1.374 . S
C1099 C1096 1.499 . S
C1099 C1100 1.373 . S
C1099 C1101 1.389 1_554 S
C1100 H1073 0.950 . S
C1100 C1086 1.377 . S
C1100 C1099 1.373 . S
C1101 C1085 1.377 . S
C1101 C1099 1.389 1_556 S
C1101 C1102 1.524 . S
C1102 C1101 1.524 . S
C1102 C1103 1.397 . S
C1102 C1107 1.363 . S
C1103 H1074 0.950 . S
C1103 C1102 1.397 . S
C1103 C1104 1.334 . S
C1104 H1075 0.950 . S
C1104 C1103 1.334 . S
C1104 C1105 1.287 . S
C1105 C1104 1.287 . S
C1105 C1106 1.524 . S
C1105 H1108 0.999 . S
C1106 H1076 0.950 . S
C1106 C1105 1.524 . S
C1106 C1107 1.415 . S
C1107 H1077 0.950 . S
C1107 C1102 1.363 . S
C1107 C1106 1.415 . S
H1108 C1105 0.999 . S
H1109 C1090 0.913 . S
H1110 C1128 0.951 . S
H1111 C1130 0.951 . S
H1112 C1132 0.950 . S
H1113 C1133 0.950 . S
H1114 C1135 0.950 . S
H1115 C1138 0.950 . S
H1116 C1139 0.950 . S
H1117 C1141 0.950 . S
H1118 C1142 0.950 . S
H1119 C1143 0.951 . S
H1120 C1145 0.951 . S
H1121 C1147 0.950 . S
H1122 C1148 0.950 . S
H1123 C1150 0.950 . S
H1124 C1153 0.950 1_556 S
H1125 C1154 0.950 . S
H1126 C1156 0.950 . S
H1127 C1157 0.950 . S
C1128 H1110 0.951 . S
C1128 C1129 1.366 . S
C1128 C1130 1.388 . S
C1129 C1128 1.366 . S
C1129 C1133 1.385 . S
C1130 H1111 0.951 . S
C1130 C1128 1.388 . S
C1130 C1131 1.366 . S
C1131 C1130 1.366 . S
C1131 C1132 1.414 . S
C1131 C1134 1.499 . S
C1132 H1112 0.950 . S
C1132 C1131 1.414 . S
C1132 C1133 1.374 . S
C1133 H1113 0.950 . S
C1133 C1129 1.385 . S
C1133 C1132 1.374 . S
C1134 C1131 1.499 . S
C1134 C1135 1.373 . S
C1134 C1136 1.389 . S
C1135 H1114 0.950 . S
C1135 C1134 1.373 . S
C1135 C1151 1.377 . S
C1136 C1134 1.389 . S
C1136 C1137 1.524 . S
C1136 C1150 1.377 . S
C1137 C1136 1.524 . S
C1137 C1138 1.397 1_455 S
C1137 C1142 1.363 . S
C1138 H1115 0.950 . S
C1138 C1137 1.397 1_655 S
C1138 C1139 1.334 . S
C1139 H1116 0.950 . S
C1139 C1138 1.334 . S
C1139 C1140 1.287 . S
C1140 C1139 1.287 . S
C1140 C1141 1.524 1_655 S
C1140 H1159 0.913 . S
C1141 H1117 0.950 . S
C1141 C1140 1.524 1_455 S
C1141 C1142 1.415 . S
C1142 H1118 0.950 . S
C1142 C1137 1.363 . S
C1142 C1141 1.415 . S
C1143 H1119 0.951 . S
C1143 C1144 1.366 . S
C1143 C1145 1.388 . S
C1144 C1143 1.366 . S
C1144 C1148 1.385 1_554 S
C1145 H1120 0.951 . S
C1145 C1143 1.388 . S
C1145 C1146 1.366 1_554 S
C1146 C1145 1.366 1_556 S
C1146 C1147 1.414 . S
C1146 C1149 1.499 . S
C1147 H1121 0.950 . S
C1147 C1146 1.414 . S
C1147 C1148 1.374 . S
C1148 H1122 0.950 . S
C1148 C1144 1.385 1_556 S
C1148 C1147 1.374 . S
C1149 C1146 1.499 . S
C1149 C1150 1.373 . S
C1149 C1151 1.389 . S
C1150 H1123 0.950 . S
C1150 C1136 1.377 . S
C1150 C1149 1.373 . S
C1151 C1135 1.377 . S
C1151 C1149 1.389 . S
C1151 C1152 1.524 1_556 S
C1152 C1151 1.524 1_554 S
C1152 C1153 1.397 . S
C1152 C1157 1.363 . S
C1153 H1124 0.950 1_554 S
C1153 C1152 1.397 . S
C1153 C1154 1.334 . S
C1154 H1125 0.950 . S
C1154 C1153 1.334 . S
C1154 C1155 1.287 . S
C1155 C1154 1.287 . S
C1155 C1156 1.524 . S
C1155 H1158 0.999 . S
C1156 H1126 0.950 . S
C1156 C1155 1.524 . S
C1156 C1157 1.415 . S
C1157 H1127 0.950 . S
C1157 C1152 1.363 . S
C1157 C1156 1.415 . S
H1158 C1155 0.999 . S
H1159 C1140 0.913 . S
H1160 C1178 0.951 . S
H1161 C1180 0.951 . S
H1162 C1182 0.950 . S
H1163 C1183 0.950 . S
H1164 C1185 0.950 . S
H1165 C1188 0.950 . S
H1166 C1189 0.950 . S
H1167 C1191 0.950 . S
H1168 C1192 0.950 . S
H1169 C1193 0.951 . S
H1170 C1195 0.951 . S
H1171 C1197 0.950 . S
H1172 C1198 0.950 . S
H1173 C1200 0.950 . S
H1174 C1203 0.950 . S
H1175 C1204 0.950 . S
H1176 C1206 0.950 . S
H1177 C1207 0.950 . S
C1178 H1160 0.951 . S
C1178 C1179 1.366 . S
C1178 C1180 1.388 . S
C1179 C1178 1.366 . S
C1179 C1183 1.385 . S
C1180 H1161 0.951 . S
C1180 C1178 1.388 . S
C1180 C1181 1.366 . S
C1181 C1180 1.366 . S
C1181 C1182 1.414 1_554 S
C1181 C1184 1.499 1_554 S
C1182 H1162 0.950 . S
C1182 C1181 1.414 1_556 S
C1182 C1183 1.374 1_556 S
C1183 H1163 0.950 . S
C1183 C1179 1.385 . S
C1183 C1182 1.374 1_554 S
C1184 C1181 1.499 1_556 S
C1184 C1185 1.373 . S
C1184 C1186 1.389 . S
C1185 H1164 0.950 . S
C1185 C1184 1.373 . S
C1185 C1201 1.377 . S
C1186 C1184 1.389 . S
C1186 C1187 1.524 1_556 S
C1186 C1200 1.377 . S
C1187 C1186 1.524 1_554 S
C1187 C1188 1.397 . S
C1187 C1192 1.363 . S
C1188 H1165 0.950 . S
C1188 C1187 1.397 . S
C1188 C1189 1.334 . S
C1189 H1166 0.950 . S
C1189 C1188 1.334 . S
C1189 C1190 1.287 . S
C1190 C1189 1.287 . S
C1190 C1191 1.524 . S
C1190 H1209 0.913 . S
C1191 H1167 0.950 . S
C1191 C1190 1.524 . S
C1191 C1192 1.415 . S
C1192 H1168 0.950 . S
C1192 C1187 1.363 . S
C1192 C1191 1.415 . S
C1193 H1169 0.951 . S
C1193 C1194 1.366 . S
C1193 C1195 1.388 . S
C1194 C1193 1.366 . S
C1194 C1198 1.385 . S
C1195 H1170 0.951 . S
C1195 C1193 1.388 . S
C1195 C1196 1.366 . S
C1196 C1195 1.366 . S
C1196 C1197 1.414 . S
C1196 C1199 1.499 . S
C1197 H1171 0.950 . S
C1197 C1196 1.414 . S
C1197 C1198 1.374 . S
C1198 H1172 0.950 . S
C1198 C1194 1.385 . S
C1198 C1197 1.374 . S
C1199 C1196 1.499 . S
C1199 C1200 1.373 . S
C1199 C1201 1.389 . S
C1200 H1173 0.950 . S
C1200 C1186 1.377 . S
C1200 C1199 1.373 . S
C1201 C1185 1.377 . S
C1201 C1199 1.389 . S
C1201 C1202 1.524 . S
C1202 C1201 1.524 . S
C1202 C1203 1.397 . S
C1202 C1207 1.363 . S
C1203 H1174 0.950 . S
C1203 C1202 1.397 . S
C1203 C1204 1.334 . S
C1204 H1175 0.950 . S
C1204 C1203 1.334 . S
C1204 C1205 1.287 . S
C1205 C1204 1.287 . S
C1205 C1206 1.524 . S
C1205 H1208 0.999 . S
C1206 H1176 0.950 . S
C1206 C1205 1.524 . S
C1206 C1207 1.415 . S
C1207 H1177 0.950 . S
C1207 C1202 1.363 . S
C1207 C1206 1.415 . S
H1208 C1205 0.999 . S
H1209 C1190 0.913 . S
H1210 C1228 0.951 . S
H1211 C1230 0.951 . S
H1212 C1232 0.950 . S
H1213 C1233 0.950 . S
H1214 C1235 0.950 . S
H1215 C1238 0.950 1_556 S
H1216 C1239 0.950 . S
H1217 C1241 0.950 . S
H1218 C1242 0.950 . S
H1219 C1243 0.951 . S
H1220 C1245 0.951 . S
H1221 C1247 0.950 . S
H1222 C1248 0.950 . S
H1223 C1250 0.950 . S
H1224 C1253 0.950 . S
H1225 C1254 0.950 . S
H1226 C1256 0.950 . S
H1227 C1257 0.950 . S
C1228 H1210 0.951 . S
C1228 C1229 1.366 . S
C1228 C1230 1.388 . S
C1229 C1228 1.366 . S
C1229 C1233 1.385 . S
C1230 H1211 0.951 . S
C1230 C1228 1.388 . S
C1230 C1231 1.366 . S
C1231 C1230 1.366 . S
C1231 C1232 1.414 . S
C1231 C1234 1.499 . S
C1232 H1212 0.950 . S
C1232 C1231 1.414 . S
C1232 C1233 1.374 . S
C1233 H1213 0.950 . S
C1233 C1229 1.385 . S
C1233 C1232 1.374 . S
C1234 C1231 1.499 . S
C1234 C1235 1.373 . S
C1234 C1236 1.389 . S
C1235 H1214 0.950 . S
C1235 C1234 1.373 . S
C1235 C1251 1.377 . S
C1236 C1234 1.389 . S
C1236 C1237 1.524 . S
C1236 C1250 1.377 1_556 S
C1237 C1236 1.524 . S
C1237 C1238 1.397 1_556 S
C1237 C1242 1.363 1_556 S
C1238 H1215 0.950 1_554 S
C1238 C1237 1.397 1_554 S
C1238 C1239 1.334 . S
C1239 H1216 0.950 . S
C1239 C1238 1.334 . S
C1239 C1240 1.287 . S
C1240 C1239 1.287 . S
C1240 C1241 1.524 . S
C1240 H1259 0.913 . S
C1241 H1217 0.950 . S
C1241 C1240 1.524 . S
C1241 C1242 1.415 . S
C1242 H1218 0.950 . S
C1242 C1237 1.363 1_554 S
C1242 C1241 1.415 . S
C1243 H1219 0.951 . S
C1243 C1244 1.366 . S
C1243 C1245 1.388 . S
C1244 C1243 1.366 . S
C1244 C1248 1.385 . S
C1245 H1220 0.951 . S
C1245 C1243 1.388 . S
C1245 C1246 1.366 . S
C1246 C1245 1.366 . S
C1246 C1247 1.414 . S
C1246 C1249 1.499 1_554 S
C1247 H1221 0.950 . S
C1247 C1246 1.414 . S
C1247 C1248 1.374 . S
C1248 H1222 0.950 . S
C1248 C1244 1.385 . S
C1248 C1247 1.374 . S
C1249 C1246 1.499 1_556 S
C1249 C1250 1.373 1_556 S
C1249 C1251 1.389 . S
C1250 H1223 0.950 . S
C1250 C1236 1.377 1_554 S
C1250 C1249 1.373 1_554 S
C1251 C1235 1.377 . S
C1251 C1249 1.389 . S
C1251 C1252 1.524 . S
C1252 C1251 1.524 . S
C1252 C1253 1.397 . S
C1252 C1257 1.363 . S
C1253 H1224 0.950 . S
C1253 C1252 1.397 . S
C1253 C1254 1.334 . S
C1254 H1225 0.950 . S
C1254 C1253 1.334 . S
C1254 C1255 1.287 . S
C1255 C1254 1.287 . S
C1255 C1256 1.524 . S
C1255 H1258 0.999 . S
C1256 H1226 0.950 . S
C1256 C1255 1.524 . S
C1256 C1257 1.415 . S
C1257 H1227 0.950 . S
C1257 C1252 1.363 . S
C1257 C1256 1.415 . S
H1258 C1255 0.999 . S
H1259 C1240 0.913 . S
H1260 C1278 0.951 . S
H1261 C1280 0.951 . S
H1262 C1282 0.950 . S
H1263 C1283 0.950 . S
H1264 C1285 0.950 . S
H1265 C1288 0.950 . S
H1266 C1289 0.950 . S
H1267 C1291 0.950 . S
H1268 C1292 0.950 . S
H1269 C1293 0.951 . S
H1270 C1295 0.951 1_545 S
H1271 C1297 0.950 . S
H1272 C1298 0.950 . S
H1273 C1300 0.922 1_565 S
H1274 C1303 0.950 . S
H1275 C1304 0.950 . S
H1276 C1306 0.950 . S
H1277 C1307 0.950 . S
C1278 H1260 0.951 . S
C1278 C1279 1.366 . S
C1278 C1280 1.388 . S
C1279 C1278 1.366 . S
C1279 C1283 1.385 . S
C1280 H1261 0.951 . S
C1280 C1278 1.388 . S
C1280 C1281 1.366 . S
C1281 C1280 1.366 . S
C1281 C1282 1.414 . S
C1281 C1284 1.499 . S
C1282 H1262 0.950 . S
C1282 C1281 1.414 . S
C1282 C1283 1.374 . S
C1283 H1263 0.950 . S
C1283 C1279 1.385 . S
C1283 C1282 1.374 . S
C1284 C1281 1.499 . S
C1284 C1285 1.373 . S
C1284 C1286 1.389 . S
C1285 H1264 0.950 . S
C1285 C1284 1.373 . S
C1285 C1301 1.377 . S
C1286 C1284 1.389 . S
C1286 C1287 1.524 . S
C1286 C1300 1.413 . S
C1287 C1286 1.524 . S
C1287 C1288 1.397 . S
C1287 C1292 1.363 1_545 S
C1288 H1265 0.950 . S
C1288 C1287 1.397 . S
C1288 C1289 1.334 . S
C1289 H1266 0.950 . S
C1289 C1288 1.334 . S
C1289 C1290 1.287 1_545 S
C1290 C1289 1.287 1_565 S
C1290 C1291 1.524 . S
C1290 H1309 0.913 . S
C1291 H1267 0.950 . S
C1291 C1290 1.524 . S
C1291 C1292 1.415 . S
C1292 H1268 0.950 . S
C1292 C1287 1.363 1_565 S
C1292 C1291 1.415 . S
C1293 H1269 0.951 . S
C1293 C1294 1.366 . S
C1293 C1295 1.388 . S
C1294 C1293 1.366 . S
C1294 C1298 1.385 . S
C1295 H1270 0.951 1_565 S
C1295 C1293 1.388 . S
C1295 C1296 1.366 . S
C1296 C1295 1.366 . S
C1296 C1297 1.414 . S
C1296 C1299 1.499 1_565 S
C1297 H1271 0.950 . S
C1297 C1296 1.414 . S
C1297 C1298 1.374 . S
C1298 H1272 0.950 . S
C1298 C1294 1.385 . S
C1298 C1297 1.374 . S
C1299 C1296 1.499 1_545 S
C1299 C1300 1.366 . S
C1299 C1301 1.389 . S
C1300 H1273 0.922 1_545 S
C1300 C1286 1.413 . S
C1300 C1299 1.366 . S
C1301 C1285 1.377 . S
C1301 C1299 1.389 . S
C1301 C1302 1.524 . S
C1302 C1301 1.524 . S
C1302 C1303 1.397 . S
C1302 C1307 1.363 . S
C1303 H1274 0.950 . S
C1303 C1302 1.397 . S
C1303 C1304 1.334 . S
C1304 H1275 0.950 . S
C1304 C1303 1.334 . S
C1304 C1305 1.287 . S
C1305 C1304 1.287 . S
C1305 C1306 1.524 . S
C1305 H1308 0.999 . S
C1306 H1276 0.950 . S
C1306 C1305 1.524 . S
C1306 C1307 1.415 . S
C1307 H1277 0.950 . S
C1307 C1302 1.363 . S
C1307 C1306 1.415 . S
H1308 C1305 0.999 . S
H1309 C1290 0.913 . S
H1310 C1328 0.951 . S
H1311 C1330 0.951 . S
H1312 C1332 0.950 . S
H1313 C1333 0.950 . S
H1314 C1335 0.950 . S
H1315 C1338 0.950 . S
H1316 C1339 0.950 . S
H1317 C1341 0.950 . S
H1318 C1342 0.950 . S
H1319 C1343 0.951 . S
H1320 C1345 0.951 . S
H1321 C1347 0.950 . S
H1322 C1348 0.950 . S
H1323 C1350 0.950 . S
H1324 C1353 0.950 . S
H1325 C1354 0.950 . S
H1326 C1356 0.950 . S
H1327 C1357 0.950 . S
C1328 H1310 0.951 . S
C1328 C1329 1.366 . S
C1328 C1330 1.388 . S
C1329 C1328 1.366 . S
C1329 C1333 1.385 . S
C1330 H1311 0.951 . S
C1330 C1328 1.388 . S
C1330 C1331 1.366 . S
C1331 C1330 1.366 . S
C1331 C1332 1.414 . S
C1331 C1334 1.499 . S
C1332 H1312 0.950 . S
C1332 C1331 1.414 . S
C1332 C1333 1.374 . S
C1333 H1313 0.950 . S
C1333 C1329 1.385 . S
C1333 C1332 1.374 . S
C1334 C1331 1.499 . S
C1334 C1335 1.373 . S
C1334 C1336 1.389 . S
C1335 H1314 0.950 . S
C1335 C1334 1.373 . S
C1335 C1351 1.377 . S
C1336 C1334 1.389 . S
C1336 C1337 1.524 . S
C1336 C1350 1.377 . S
C1337 C1336 1.524 . S
C1337 C1338 1.397 . S
C1337 C1342 1.363 . S
C1338 H1315 0.950 . S
C1338 C1337 1.397 . S
C1338 C1339 1.334 1_554 S
C1339 H1316 0.950 . S
C1339 C1338 1.334 1_556 S
C1339 C1340 1.287 . S
C1340 C1339 1.287 . S
C1340 C1341 1.524 . S
C1340 H1359 0.913 . S
C1341 H1317 0.950 . S
C1341 C1340 1.524 . S
C1341 C1342 1.415 1_556 S
C1342 H1318 0.950 . S
C1342 C1337 1.363 . S
C1342 C1341 1.415 1_554 S
C1343 H1319 0.951 . S
C1343 C1344 1.366 . S
C1343 C1345 1.388 . S
C1344 C1343 1.366 . S
C1344 C1348 1.385 . S
C1345 H1320 0.951 . S
C1345 C1343 1.388 . S
C1345 C1346 1.366 . S
C1346 C1345 1.366 . S
C1346 C1347 1.414 . S
C1346 C1349 1.499 . S
C1347 H1321 0.950 . S
C1347 C1346 1.414 . S
C1347 C1348 1.374 . S
C1348 H1322 0.950 . S
C1348 C1344 1.385 . S
C1348 C1347 1.374 . S
C1349 C1346 1.499 . S
C1349 C1350 1.373 . S
C1349 C1351 1.389 . S
C1350 H1323 0.950 . S
C1350 C1336 1.377 . S
C1350 C1349 1.373 . S
C1351 C1335 1.377 . S
C1351 C1349 1.389 . S
C1351 C1352 1.524 . S
C1352 C1351 1.524 . S
C1352 C1353 1.397 . S
C1352 C1357 1.363 . S
C1353 H1324 0.950 . S
C1353 C1352 1.397 . S
C1353 C1354 1.334 . S
C1354 H1325 0.950 . S
C1354 C1353 1.334 . S
C1354 C1355 1.287 . S
C1355 C1354 1.287 . S
C1355 C1356 1.524 . S
C1355 H1358 0.999 . S
C1356 H1326 0.950 . S
C1356 C1355 1.524 . S
C1356 C1357 1.415 . S
C1357 H1327 0.950 . S
C1357 C1352 1.363 . S
C1357 C1356 1.415 . S
H1358 C1355 0.999 . S
H1359 C1340 0.913 . S
H1360 C1378 0.951 . S
H1361 C1380 0.951 . S
H1362 C1382 0.950 . S
H1363 C1383 0.950 . S
H1364 C1385 0.950 . S
H1365 C1388 0.949 1_554 S
H1366 C1389 0.950 . S
H1367 C1391 0.950 . S
H1368 C1392 0.950 . S
H1369 C1393 0.951 . S
H1370 C1395 0.951 . S
H1371 C1397 0.950 . S
H1372 C1398 0.950 . S
H1373 C1400 0.950 . S
H1374 C1403 0.950 . S
H1375 C1404 0.950 . S
H1376 C1406 0.950 . S
H1377 C1407 0.950 . S
C1378 H1360 0.951 . S
C1378 C1379 1.366 . S
C1378 C1380 1.388 . S
C1379 C1378 1.366 . S
C1379 C1383 1.385 . S
C1380 H1361 0.951 . S
C1380 C1378 1.388 . S
C1380 C1381 1.366 . S
C1381 C1380 1.366 . S
C1381 C1382 1.414 . S
C1381 C1384 1.499 . S
C1382 H1362 0.950 . S
C1382 C1381 1.414 . S
C1382 C1383 1.374 . S
C1383 H1363 0.950 . S
C1383 C1379 1.385 . S
C1383 C1382 1.374 . S
C1384 C1381 1.499 . S
C1384 C1385 1.373 . S
C1384 C1386 1.389 . S
C1385 H1364 0.950 . S
C1385 C1384 1.373 . S
C1385 C1401 1.377 . S
C1386 C1384 1.389 . S
C1386 C1387 1.524 . S
C1386 C1400 1.377 . S
C1387 C1386 1.524 . S
C1387 C1388 1.397 1_554 S
C1387 C1392 1.363 . S
C1388 H1365 0.949 1_556 S
C1388 C1387 1.397 1_556 S
C1388 C1389 1.334 . S
C1389 H1366 0.950 . S
C1389 C1388 1.334 . S
C1389 C1390 1.287 . S
C1390 C1389 1.287 . S
C1390 C1391 1.524 . S
C1390 H1409 0.913 . S
C1391 H1367 0.950 . S
C1391 C1390 1.524 . S
C1391 C1392 1.415 1_556 S
C1392 H1368 0.950 . S
C1392 C1387 1.363 . S
C1392 C1391 1.415 1_554 S
C1393 H1369 0.951 . S
C1393 C1394 1.366 . S
C1393 C1395 1.388 . S
C1394 C1393 1.366 . S
C1394 C1398 1.385 . S
C1395 H1370 0.951 . S
C1395 C1393 1.388 . S
C1395 C1396 1.366 . S
C1396 C1395 1.366 . S
C1396 C1397 1.414 . S
C1396 C1399 1.499 . S
C1397 H1371 0.950 . S
C1397 C1396 1.414 . S
C1397 C1398 1.374 . S
C1398 H1372 0.950 . S
C1398 C1394 1.385 . S
C1398 C1397 1.374 . S
C1399 C1396 1.499 . S
C1399 C1400 1.373 . S
C1399 C1401 1.389 . S
C1400 H1373 0.950 . S
C1400 C1386 1.377 . S
C1400 C1399 1.373 . S
C1401 C1385 1.377 . S
C1401 C1399 1.389 . S
C1401 C1402 1.524 . S
C1402 C1401 1.524 . S
C1402 C1403 1.397 . S
C1402 C1407 1.363 . S
C1403 H1374 0.950 . S
C1403 C1402 1.397 . S
C1403 C1404 1.334 . S
C1404 H1375 0.950 . S
C1404 C1403 1.334 . S
C1404 C1405 1.287 . S
C1405 C1404 1.287 . S
C1405 C1406 1.524 . S
C1405 H1408 0.999 . S
C1406 H1376 0.950 . S
C1406 C1405 1.524 . S
C1406 C1407 1.415 . S
C1407 H1377 0.950 . S
C1407 C1402 1.363 . S
C1407 C1406 1.415 . S
H1408 C1405 0.999 . S
H1409 C1390 0.913 . S
H1410 C1428 0.951 . S
H1411 C1430 0.951 . S
H1412 C1432 0.950 . S
H1413 C1433 0.950 . S
H1414 C1435 0.950 . S
H1415 C1438 0.950 . S
H1416 C1439 0.950 . S
H1417 C1441 0.950 . S
H1418 C1442 0.950 . S
H1419 C1443 0.951 . S
H1420 C1445 0.951 . S
H1421 C1447 0.950 . S
H1422 C1448 0.950 . S
H1423 C1450 0.950 . S
H1424 C1453 0.950 . S
H1425 C1454 0.950 . S
H1426 C1456 0.950 . S
H1427 C1457 0.950 . S
C1428 H1410 0.951 . S
C1428 C1429 1.366 . S
C1428 C1430 1.388 . S
C1429 C1428 1.366 . S
C1429 C1433 1.385 . S
C1430 H1411 0.951 . S
C1430 C1428 1.388 . S
C1430 C1431 1.366 . S
C1431 C1430 1.366 . S
C1431 C1432 1.414 . S
C1431 C1434 1.499 . S
C1432 H1412 0.950 . S
C1432 C1431 1.414 . S
C1432 C1433 1.374 . S
C1433 H1413 0.950 . S
C1433 C1429 1.385 . S
C1433 C1432 1.374 . S
C1434 C1431 1.499 . S
C1434 C1435 1.373 . S
C1434 C1436 1.389 . S
C1435 H1414 0.950 . S
C1435 C1434 1.373 . S
C1435 C1451 1.377 . S
C1436 C1434 1.389 . S
C1436 C1437 1.524 . S
C1436 C1450 1.377 . S
C1437 C1436 1.524 . S
C1437 C1438 1.397 1_655 S
C1437 C1442 1.363 . S
C1438 H1415 0.950 . S
C1438 C1437 1.397 1_455 S
C1438 C1439 1.334 . S
C1439 H1416 0.950 . S
C1439 C1438 1.334 . S
C1439 C1440 1.287 . S
C1440 C1439 1.287 . S
C1440 C1441 1.524 . S
C1440 H1459 0.913 . S
C1441 H1417 0.950 . S
C1441 C1440 1.524 . S
C1441 C1442 1.415 1_455 S
C1442 H1418 0.950 . S
C1442 C1437 1.363 . S
C1442 C1441 1.415 1_655 S
C1443 H1419 0.951 . S
C1443 C1444 1.366 . S
C1443 C1445 1.388 . S
C1444 C1443 1.366 . S
C1444 C1448 1.385 . S
C1445 H1420 0.951 . S
C1445 C1443 1.388 . S
C1445 C1446 1.366 . S
C1446 C1445 1.366 . S
C1446 C1447 1.414 . S
C1446 C1449 1.499 . S
C1447 H1421 0.950 . S
C1447 C1446 1.414 . S
C1447 C1448 1.374 . S
C1448 H1422 0.950 . S
C1448 C1444 1.385 . S
C1448 C1447 1.374 . S
C1449 C1446 1.499 . S
C1449 C1450 1.373 . S
C1449 C1451 1.389 . S
C1450 H1423 0.950 . S
C1450 C1436 1.377 . S
C1450 C1449 1.373 . S
C1451 C1435 1.377 . S
C1451 C1449 1.389 . S
C1451 C1452 1.524 . S
C1452 C1451 1.524 . S
C1452 C1453 1.397 . S
C1452 C1457 1.363 . S
C1453 H1424 0.950 . S
C1453 C1452 1.397 . S
C1453 C1454 1.334 . S
C1454 H1425 0.950 . S
C1454 C1453 1.334 . S
C1454 C1455 1.287 . S
C1455 C1454 1.287 . S
C1455 C1456 1.524 . S
C1455 H1458 0.999 . S
C1456 H1426 0.950 . S
C1456 C1455 1.524 . S
C1456 C1457 1.415 . S
C1457 H1427 0.950 . S
C1457 C1452 1.363 . S
C1457 C1456 1.415 . S
H1458 C1455 0.999 . S
H1459 C1440 0.913 . S
H1460 C1478 0.951 . S
H1461 C1480 0.951 . S
H1462 C1482 0.950 . S
H1463 C1483 0.950 . S
H1464 C1485 0.950 . S
H1465 C1488 0.950 . S
H1466 C1489 0.950 . S
H1467 C1491 0.950 . S
H1468 C1492 0.950 . S
H1469 C1493 0.951 . S
H1470 C1495 0.951 . S
H1471 C1497 0.950 . S
H1472 C1498 0.950 . S
H1473 C1500 0.950 . S
H1474 C1503 0.950 . S
H1475 C1504 0.950 . S
H1476 C1506 0.950 . S
H1477 C1507 0.950 . S
C1478 H1460 0.951 . S
C1478 C1479 1.366 . S
C1478 C1480 1.388 . S
C1479 C1478 1.366 . S
C1479 C1483 1.385 . S
C1480 H1461 0.951 . S
C1480 C1478 1.388 . S
C1480 C1481 1.366 . S
C1481 C1480 1.366 . S
C1481 C1482 1.414 . S
C1481 C1484 1.499 . S
C1482 H1462 0.950 . S
C1482 C1481 1.414 . S
C1482 C1483 1.374 . S
C1483 H1463 0.950 . S
C1483 C1479 1.385 . S
C1483 C1482 1.374 . S
C1484 C1481 1.499 . S
C1484 C1485 1.373 . S
C1484 C1486 1.389 . S
C1485 H1464 0.950 . S
C1485 C1484 1.373 . S
C1485 C1501 1.377 . S
C1486 C1484 1.389 . S
C1486 C1487 1.524 . S
C1486 C1500 1.377 . S
C1487 C1486 1.524 . S
C1487 C1488 1.397 . S
C1487 C1492 1.363 . S
C1488 H1465 0.950 . S
C1488 C1487 1.397 . S
C1488 C1489 1.334 . S
C1489 H1466 0.950 . S
C1489 C1488 1.334 . S
C1489 C1490 1.287 . S
C1490 C1489 1.287 . S
C1490 C1491 1.524 . S
C1490 H1509 0.913 . S
C1491 H1467 0.950 . S
C1491 C1490 1.524 . S
C1491 C1492 1.415 . S
C1492 H1468 0.950 . S
C1492 C1487 1.363 . S
C1492 C1491 1.415 . S
C1493 H1469 0.951 . S
C1493 C1494 1.366 . S
C1493 C1495 1.388 . S
C1494 C1493 1.366 . S
C1494 C1498 1.385 . S
C1495 H1470 0.951 . S
C1495 C1493 1.388 . S
C1495 C1496 1.366 . S
C1496 C1495 1.366 . S
C1496 C1497 1.414 . S
C1496 C1499 1.499 . S
C1497 H1471 0.950 . S
C1497 C1496 1.414 . S
C1497 C1498 1.374 . S
C1498 H1472 0.950 . S
C1498 C1494 1.385 . S
C1498 C1497 1.374 . S
C1499 C1496 1.499 . S
C1499 C1500 1.373 . S
C1499 C1501 1.389 . S
C1500 H1473 0.950 . S
C1500 C1486 1.377 . S
C1500 C1499 1.373 . S
C1501 C1485 1.377 . S
C1501 C1499 1.389 . S
C1501 C1502 1.524 . S
C1502 C1501 1.524 . S
C1502 C1503 1.397 . S
C1502 C1507 1.363 . S
C1503 H1474 0.950 . S
C1503 C1502 1.397 . S
C1503 C1504 1.334 . S
C1504 H1475 0.950 . S
C1504 C1503 1.334 . S
C1504 C1505 1.287 . S
C1505 C1504 1.287 . S
C1505 C1506 1.524 . S
C1505 H1508 0.999 . S
C1506 H1476 0.950 . S
C1506 C1505 1.524 . S
C1506 C1507 1.415 . S
C1507 H1477 0.950 . S
C1507 C1502 1.363 . S
C1507 C1506 1.415 . S
H1508 C1505 0.999 . S
H1509 C1490 0.913 . S
H1510 C1528 0.951 . S
H1511 C1530 0.951 . S
H1512 C1532 0.950 . S
H1513 C1533 0.950 . S
H1514 C1535 0.950 . S
H1515 C1538 0.950 . S
H1516 C1539 0.950 . S
H1517 C1541 0.950 . S
H1518 C1542 0.950 . S
H1519 C1543 0.951 . S
H1520 C1545 0.951 . S
H1521 C1547 0.950 . S
H1522 C1548 0.950 . S
H1523 C1550 0.950 . S
H1524 C1553 0.950 . S
H1525 C1554 0.950 . S
H1526 C1556 0.950 . S
H1527 C1557 0.950 . S
C1528 H1510 0.951 . S
C1528 C1529 1.366 . S
C1528 C1530 1.388 . S
C1529 C1528 1.366 . S
C1529 C1533 1.385 . S
C1530 H1511 0.951 . S
C1530 C1528 1.388 . S
C1530 C1531 1.366 . S
C1531 C1530 1.366 . S
C1531 C1532 1.414 . S
C1531 C1534 1.499 . S
C1532 H1512 0.950 . S
C1532 C1531 1.414 . S
C1532 C1533 1.374 . S
C1533 H1513 0.950 . S
C1533 C1529 1.385 . S
C1533 C1532 1.374 . S
C1534 C1531 1.499 . S
C1534 C1535 1.373 . S
C1534 C1536 1.389 . S
C1535 H1514 0.950 . S
C1535 C1534 1.373 . S
C1535 C1551 1.377 . S
C1536 C1534 1.389 . S
C1536 C1537 1.524 . S
C1536 C1550 1.377 . S
C1537 C1536 1.524 . S
C1537 C1538 1.397 . S
C1537 C1542 1.363 . S
C1538 H1515 0.950 . S
C1538 C1537 1.397 . S
C1538 C1539 1.334 . S
C1539 H1516 0.950 . S
C1539 C1538 1.334 . S
C1539 C1540 1.287 . S
C1540 C1539 1.287 . S
C1540 C1541 1.524 . S
C1540 H1559 0.913 . S
C1541 H1517 0.950 . S
C1541 C1540 1.524 . S
C1541 C1542 1.415 . S
C1542 H1518 0.950 . S
C1542 C1537 1.363 . S
C1542 C1541 1.415 . S
C1543 H1519 0.951 . S
C1543 C1544 1.366 . S
C1543 C1545 1.388 . S
C1544 C1543 1.366 . S
C1544 C1548 1.385 . S
C1545 H1520 0.951 . S
C1545 C1543 1.388 . S
C1545 C1546 1.366 . S
C1546 C1545 1.366 . S
C1546 C1547 1.414 . S
C1546 C1549 1.499 . S
C1547 H1521 0.950 . S
C1547 C1546 1.414 . S
C1547 C1548 1.374 . S
C1548 H1522 0.950 . S
C1548 C1544 1.385 . S
C1548 C1547 1.374 . S
C1549 C1546 1.499 . S
C1549 C1550 1.373 . S
C1549 C1551 1.389 . S
C1550 H1523 0.950 . S
C1550 C1536 1.377 . S
C1550 C1549 1.373 . S
C1551 C1535 1.377 . S
C1551 C1549 1.389 . S
C1551 C1552 1.524 . S
C1552 C1551 1.524 . S
C1552 C1553 1.397 . S
C1552 C1557 1.363 . S
C1553 H1524 0.950 . S
C1553 C1552 1.397 . S
C1553 C1554 1.334 . S
C1554 H1525 0.950 . S
C1554 C1553 1.334 . S
C1554 C1555 1.287 . S
C1555 C1554 1.287 . S
C1555 C1556 1.524 . S
C1555 H1558 0.999 . S
C1556 H1526 0.950 . S
C1556 C1555 1.524 . S
C1556 C1557 1.415 . S
C1557 H1527 0.950 . S
C1557 C1552 1.363 . S
C1557 C1556 1.415 . S
H1558 C1555 0.999 . S
H1559 C1540 0.913 . S
H1560 C1578 0.951 . S
H1561 C1580 0.951 . S
H1562 C1582 0.950 . S
H1563 C1583 0.950 . S
H1564 C1585 0.950 . S
H1565 C1588 0.950 . S
H1566 C1589 0.950 . S
H1567 C1591 0.950 . S
H1568 C1592 0.950 . S
H1569 C1593 0.951 . S
H1570 C1595 0.951 . S
H1571 C1597 0.950 . S
H1572 C1598 0.950 . S
H1573 C1600 0.950 . S
H1574 C1603 0.950 . S
H1575 C1604 0.950 . S
H1576 C1606 0.950 . S
H1577 C1607 0.950 . S
C1578 H1560 0.951 . S
C1578 C1579 1.366 . S
C1578 C1580 1.388 . S
C1579 C1578 1.366 . S
C1579 C1583 1.385 . S
C1580 H1561 0.951 . S
C1580 C1578 1.388 . S
C1580 C1581 1.366 . S
C1581 C1580 1.366 . S
C1581 C1582 1.414 . S
C1581 C1584 1.499 . S
C1582 H1562 0.950 . S
C1582 C1581 1.414 . S
C1582 C1583 1.374 . S
C1583 H1563 0.950 . S
C1583 C1579 1.385 . S
C1583 C1582 1.374 . S
C1584 C1581 1.499 . S
C1584 C1585 1.373 . S
C1584 C1586 1.389 . S
C1585 H1564 0.950 . S
C1585 C1584 1.373 . S
C1585 C1601 1.377 . S
C1586 C1584 1.389 . S
C1586 C1587 1.524 . S
C1586 C1600 1.377 . S
C1587 C1586 1.524 . S
C1587 C1588 1.397 . S
C1587 C1592 1.363 . S
C1588 H1565 0.950 . S
C1588 C1587 1.397 . S
C1588 C1589 1.334 . S
C1589 H1566 0.950 . S
C1589 C1588 1.334 . S
C1589 C1590 1.287 . S
C1590 C1589 1.287 . S
C1590 C1591 1.524 . S
C1590 H1609 0.913 . S
C1591 H1567 0.950 . S
C1591 C1590 1.524 . S
C1591 C1592 1.415 . S
C1592 H1568 0.950 . S
C1592 C1587 1.363 . S
C1592 C1591 1.415 . S
C1593 H1569 0.951 . S
C1593 C1594 1.366 . S
C1593 C1595 1.388 . S
C1594 C1593 1.366 . S
C1594 C1598 1.385 . S
C1595 H1570 0.951 . S
C1595 C1593 1.388 . S
C1595 C1596 1.366 . S
C1596 C1595 1.366 . S
C1596 C1597 1.414 . S
C1596 C1599 1.499 . S
C1597 H1571 0.950 . S
C1597 C1596 1.414 . S
C1597 C1598 1.374 . S
C1598 H1572 0.950 . S
C1598 C1594 1.385 . S
C1598 C1597 1.374 . S
C1599 C1596 1.499 . S
C1599 C1600 1.373 . S
C1599 C1601 1.389 . S
C1600 H1573 0.950 . S
C1600 C1586 1.377 . S
C1600 C1599 1.373 . S
C1601 C1585 1.377 . S
C1601 C1599 1.389 . S
C1601 C1602 1.524 . S
C1602 C1601 1.524 . S
C1602 C1603 1.397 . S
C1602 C1607 1.363 . S
C1603 H1574 0.950 . S
C1603 C1602 1.397 . S
C1603 C1604 1.334 . S
C1604 H1575 0.950 . S
C1604 C1603 1.334 . S
C1604 C1605 1.287 . S
C1605 C1604 1.287 . S
C1605 C1606 1.524 . S
C1605 H1608 0.999 . S
C1606 H1576 0.950 . S
C1606 C1605 1.524 . S
C1606 C1607 1.415 . S
C1607 H1577 0.950 . S
C1607 C1602 1.363 . S
C1607 C1606 1.415 . S
H1608 C1605 0.999 . S
H1609 C1590 0.913 . S
H1610 C1628 0.951 . S
H1611 C1630 0.951 . S
H1612 C1632 0.950 1_455 S
H1613 C1633 0.950 . S
H1614 C1635 0.950 . S
H1615 C1638 0.950 . S
H1616 C1639 0.950 . S
H1617 C1641 0.950 . S
H1618 C1642 0.950 . S
H1619 C1643 0.951 . S
H1620 C1645 1.000 . S
H1621 C1647 0.950 . S
H1622 C1648 0.950 . S
H1623 C1650 0.950 . S
H1624 C1653 0.950 . S
H1625 C1654 0.950 . S
H1626 C1656 0.950 . S
H1627 C1657 0.950 . S
C1628 H1610 0.951 . S
C1628 C1629 1.366 . S
C1628 C1630 1.388 . S
C1629 C1628 1.366 . S
C1629 C1633 1.385 . S
C1630 H1611 0.951 . S
C1630 C1628 1.388 . S
C1630 C1631 1.366 . S
C1631 C1630 1.366 . S
C1631 C1632 1.414 . S
C1631 C1634 1.499 . S
C1632 H1612 0.950 1_655 S
C1632 C1631 1.414 . S
C1632 C1633 1.374 . S
C1633 H1613 0.950 . S
C1633 C1629 1.385 . S
C1633 C1632 1.374 . S
C1634 C1631 1.499 . S
C1634 C1635 1.373 . S
C1634 C1636 1.389 . S
C1635 H1614 0.950 . S
C1635 C1634 1.373 . S
C1635 C1651 1.377 . S
C1636 C1634 1.389 . S
C1636 C1637 1.524 . S
C1636 C1650 1.377 . S
C1637 C1636 1.524 . S
C1637 C1638 1.397 . S
C1637 C1642 1.363 . S
C1638 H1615 0.950 . S
C1638 C1637 1.397 . S
C1638 C1639 1.334 . S
C1639 H1616 0.950 . S
C1639 C1638 1.334 . S
C1639 C1640 1.287 . S
C1640 C1639 1.287 . S
C1640 C1641 1.524 . S
C1640 H1659 0.913 1_554 S
C1641 H1617 0.950 . S
C1641 C1640 1.524 . S
C1641 C1642 1.415 . S
C1642 H1618 0.950 . S
C1642 C1637 1.363 . S
C1642 C1641 1.415 . S
C1643 H1619 0.951 . S
C1643 C1644 1.366 1_455 S
C1643 C1645 1.371 . S
C1644 C1643 1.366 1_655 S
C1644 C1648 1.385 . S
C1645 H1620 1.000 . S
C1645 C1643 1.371 . S
C1645 C1646 1.336 1_455 S
C1646 C1645 1.336 1_655 S
C1646 C1647 1.414 . S
C1646 C1649 1.499 . S
C1647 H1621 0.950 . S
C1647 C1646 1.414 . S
C1647 C1648 1.374 . S
C1648 H1622 0.950 . S
C1648 C1644 1.385 . S
C1648 C1647 1.374 . S
C1649 C1646 1.499 . S
C1649 C1650 1.373 . S
C1649 C1651 1.389 . S
C1650 H1623 0.950 . S
C1650 C1636 1.377 . S
C1650 C1649 1.373 . S
C1651 C1635 1.377 . S
C1651 C1649 1.389 . S
C1651 C1652 1.524 . S
C1652 C1651 1.524 . S
C1652 C1653 1.397 . S
C1652 C1657 1.363 1_655 S
C1653 H1624 0.950 . S
C1653 C1652 1.397 . S
C1653 C1654 1.334 . S
C1654 H1625 0.950 . S
C1654 C1653 1.334 . S
C1654 C1655 1.286 . S
C1655 C1654 1.286 . S
C1655 C1656 1.524 1_655 S
C1655 H1658 0.999 1_655 S
C1656 H1626 0.950 . S
C1656 C1655 1.524 1_455 S
C1656 C1657 1.415 . S
C1657 H1627 0.950 . S
C1657 C1652 1.363 1_455 S
C1657 C1656 1.415 . S
H1658 C1655 0.999 1_455 S
H1659 C1640 0.913 1_556 S
H1660 C1678 0.951 . S
H1661 C1680 0.951 . S
H1662 C1682 0.950 . S
H1663 C1683 0.950 . S
H1664 C1685 0.950 . S
H1665 C1688 0.950 . S
H1666 C1689 0.950 . S
H1667 C1691 0.950 . S
H1668 C1692 0.950 . S
H1669 C1693 0.951 . S
H1670 C1695 0.951 . S
H1671 C1697 0.950 . S
H1672 C1698 0.950 . S
H1673 C1700 0.950 . S
H1674 C1703 0.950 . S
H1675 C1704 0.950 . S
H1676 C1706 0.950 . S
H1677 C1707 0.950 . S
C1678 H1660 0.951 . S
C1678 C1679 1.366 . S
C1678 C1680 1.388 . S
C1679 C1678 1.366 . S
C1679 C1683 1.385 . S
C1680 H1661 0.951 . S
C1680 C1678 1.388 . S
C1680 C1681 1.366 . S
C1681 C1680 1.366 . S
C1681 C1682 1.414 . S
C1681 C1684 1.499 . S
C1682 H1662 0.950 . S
C1682 C1681 1.414 . S
C1682 C1683 1.374 . S
C1683 H1663 0.950 . S
C1683 C1679 1.385 . S
C1683 C1682 1.374 . S
C1684 C1681 1.499 . S
C1684 C1685 1.373 . S
C1684 C1686 1.389 . S
C1685 H1664 0.950 . S
C1685 C1684 1.373 . S
C1685 C1701 1.377 . S
C1686 C1684 1.389 . S
C1686 C1687 1.524 . S
C1686 C1700 1.377 . S
C1687 C1686 1.524 . S
C1687 C1688 1.397 . S
C1687 C1692 1.363 . S
C1688 H1665 0.950 . S
C1688 C1687 1.397 . S
C1688 C1689 1.334 . S
C1689 H1666 0.950 . S
C1689 C1688 1.334 . S
C1689 C1690 1.287 . S
C1690 C1689 1.287 . S
C1690 C1691 1.524 . S
C1690 H1709 0.913 . S
C1691 H1667 0.950 . S
C1691 C1690 1.524 . S
C1691 C1692 1.415 . S
C1692 H1668 0.950 . S
C1692 C1687 1.363 . S
C1692 C1691 1.415 . S
C1693 H1669 0.951 . S
C1693 C1694 1.366 . S
C1693 C1695 1.388 . S
C1694 C1693 1.366 . S
C1694 C1698 1.385 . S
C1695 H1670 0.951 . S
C1695 C1693 1.388 . S
C1695 C1696 1.366 . S
C1696 C1695 1.366 . S
C1696 C1697 1.414 . S
C1696 C1699 1.499 . S
C1697 H1671 0.950 . S
C1697 C1696 1.414 . S
C1697 C1698 1.374 . S
C1698 H1672 0.950 . S
C1698 C1694 1.385 . S
C1698 C1697 1.374 . S
C1699 C1696 1.499 . S
C1699 C1700 1.373 . S
C1699 C1701 1.389 . S
C1700 H1673 0.950 . S
C1700 C1686 1.377 . S
C1700 C1699 1.373 . S
C1701 C1685 1.377 . S
C1701 C1699 1.389 . S
C1701 C1702 1.524 . S
C1702 C1701 1.524 . S
C1702 C1703 1.397 . S
C1702 C1707 1.363 . S
C1703 H1674 0.950 . S
C1703 C1702 1.397 . S
C1703 C1704 1.334 . S
C1704 H1675 0.950 . S
C1704 C1703 1.334 . S
C1704 C1705 1.287 . S
C1705 C1704 1.287 . S
C1705 C1706 1.524 . S
C1705 H1708 0.999 . S
C1706 H1676 0.950 . S
C1706 C1705 1.524 . S
C1706 C1707 1.415 . S
C1707 H1677 0.950 . S
C1707 C1702 1.363 . S
C1707 C1706 1.415 . S
H1708 C1705 0.999 . S
H1709 C1690 0.913 . S
C379 C9 1.092 . S
C394 C18 1.092 . S
C429 C58 1.093 . S
C444 C49 1.093 . S
C479 C89 1.090 1_556 S
C494 C98 1.090 . S
C529 C138 1.091 . S
C544 C129 1.091 . S
C579 C169 1.093 . S
C594 C178 1.082 1_545 S
C629 C218 1.091 . S
C644 C209 1.091 1_556 S
C679 C250 1.030 . S
C694 C259 1.030 . S
C729 C290 1.046 . S
C744 C299 1.046 . S
C779 C330 1.017 . S
C794 C339 1.017 . S
C829 C206 2.608 . S
C844 C10 2.627 . S
C879 C46 1.578 . S
C894 C126 1.559 . S
C929 C90 3.883 . S
C944 C170 3.842 . S
C979 C86 0.538 . S
C994 C255 0.516 . S
C1029 C295 1.300 . S
C1044 C6 1.273 . S
C1079 C335 1.650 . S
C1094 C50 1.671 . S
C1129 C329 2.577 . S
C1144 C19 2.636 . S
C1179 C55 1.266 . S
C1194 C249 1.239 . S
C1229 C289 1.630 . S
C1244 C99 1.698 . S
C1279 C95 2.608 . S
C1294 C139 2.627 . S
C1329 C175 1.578 . S
C1344 C15 1.559 . S
C1379 C59 3.842 . S
C1394 C219 3.884 . S
C1429 C338 2.577 . S
C1444 C130 2.636 . S
C1479 C258 1.239 . S
C1494 C166 1.267 . S
C1529 C298 1.631 . S
C1544 C210 1.699 . S
C1579 C246 0.516 . S
C1594 C215 0.540 . S
C1629 C135 1.272 . S
C1644 C286 1.300 . S
C1679 C326 1.650 . S
C1694 C179 1.671 . S
