# Generated by pormake.
# Topology wna, (6)-cn, num edge types: 1
# Building blocks:
#     Node 0, Type 0, BuildingBlock: GEDQOX_clean_sbu_0, # of connection points: 6
#     Node 1, Type 0, BuildingBlock: GEDQOX_clean_sbu_0, # of connection points: 6
#     Node 2, Type 0, BuildingBlock: GEDQOX_clean_sbu_0, # of connection points: 6
#     Node 3, Type 0, BuildingBlock: GEDQOX_clean_sbu_0, # of connection points: 6
#     Node 4, Type 0, BuildingBlock: GEDQOX_clean_sbu_0, # of connection points: 6
#     Node 5, Type 0, BuildingBlock: GEDQOX_clean_sbu_0, # of connection points: 6
#     Node 6, Type 0, BuildingBlock: GEDQOX_clean_sbu_0, # of connection points: 6
#     Node 7, Type 0, BuildingBlock: GEDQOX_clean_sbu_0, # of connection points: 6
#     Node 8, Type 0, BuildingBlock: GEDQOX_clean_sbu_0, # of connection points: 6
#     Node 9, Type 0, BuildingBlock: GEDQOX_clean_sbu_0, # of connection points: 6
#     Node 10, Type 0, BuildingBlock: GEDQOX_clean_sbu_0, # of connection points: 6
#     Node 11, Type 0, BuildingBlock: GEDQOX_clean_sbu_0, # of connection points: 6
#     Node 12, Type 0, BuildingBlock: GEDQOX_clean_sbu_0, # of connection points: 6
#     Node 13, Type 0, BuildingBlock: GEDQOX_clean_sbu_0, # of connection points: 6
#     Node 14, Type 0, BuildingBlock: GEDQOX_clean_sbu_0, # of connection points: 6
#     Node 15, Type 0, BuildingBlock: GEDQOX_clean_sbu_0, # of connection points: 6
#     Node 16, Type 0, BuildingBlock: GEDQOX_clean_sbu_0, # of connection points: 6
#     Node 17, Type 0, BuildingBlock: GEDQOX_clean_sbu_0, # of connection points: 6
#     Node 18, Type 0, BuildingBlock: GEDQOX_clean_sbu_0, # of connection points: 6
#     Node 19, Type 0, BuildingBlock: GEDQOX_clean_sbu_0, # of connection points: 6
#     Node 20, Type 0, BuildingBlock: GEDQOX_clean_sbu_0, # of connection points: 6
#     Node 21, Type 0, BuildingBlock: GEDQOX_clean_sbu_0, # of connection points: 6
#     Node 22, Type 0, BuildingBlock: GEDQOX_clean_sbu_0, # of connection points: 6
#     Node 23, Type 0, BuildingBlock: GEDQOX_clean_sbu_0, # of connection points: 6
#     Node 24, Type 0, BuildingBlock: GEDQOX_clean_sbu_0, # of connection points: 6
#     Node 25, Type 0, BuildingBlock: GEDQOX_clean_sbu_0, # of connection points: 6
#     Node 26, Type 0, BuildingBlock: GEDQOX_clean_sbu_0, # of connection points: 6
#     Node 27, Type 0, BuildingBlock: GEDQOX_clean_sbu_0, # of connection points: 6
#     Node 28, Type 0, BuildingBlock: GEDQOX_clean_sbu_0, # of connection points: 6
#     Node 29, Type 0, BuildingBlock: GEDQOX_clean_sbu_0, # of connection points: 6
#     Node 30, Type 0, BuildingBlock: GEDQOX_clean_sbu_0, # of connection points: 6
#     Node 31, Type 0, BuildingBlock: GEDQOX_clean_sbu_0, # of connection points: 6
#     Node 32, Type 0, BuildingBlock: GEDQOX_clean_sbu_0, # of connection points: 6
#     Node 33, Type 0, BuildingBlock: GEDQOX_clean_sbu_0, # of connection points: 6
#     Node 34, Type 0, BuildingBlock: GEDQOX_clean_sbu_0, # of connection points: 6
#     Node 35, Type 0, BuildingBlock: GEDQOX_clean_sbu_0, # of connection points: 6
#     Edge 36, Type (0, 0), BuildingBlock: UVAHIK_clean_linker_0, # of connection points: 2
#     Edge 37, Type (0, 0), BuildingBlock: UVAHIK_clean_linker_0, # of connection points: 2
#     Edge 38, Type (0, 0), BuildingBlock: UVAHIK_clean_linker_0, # of connection points: 2
#     Edge 39, Type (0, 0), BuildingBlock: UVAHIK_clean_linker_0, # of connection points: 2
#     Edge 40, Type (0, 0), BuildingBlock: UVAHIK_clean_linker_0, # of connection points: 2
#     Edge 41, Type (0, 0), BuildingBlock: UVAHIK_clean_linker_0, # of connection points: 2
#     Edge 42, Type (0, 0), BuildingBlock: UVAHIK_clean_linker_0, # of connection points: 2
#     Edge 43, Type (0, 0), BuildingBlock: UVAHIK_clean_linker_0, # of connection points: 2
#     Edge 44, Type (0, 0), BuildingBlock: UVAHIK_clean_linker_0, # of connection points: 2
#     Edge 45, Type (0, 0), BuildingBlock: UVAHIK_clean_linker_0, # of connection points: 2
#     Edge 46, Type (0, 0), BuildingBlock: UVAHIK_clean_linker_0, # of connection points: 2
#     Edge 47, Type (0, 0), BuildingBlock: UVAHIK_clean_linker_0, # of connection points: 2
#     Edge 48, Type (0, 0), BuildingBlock: UVAHIK_clean_linker_0, # of connection points: 2
#     Edge 49, Type (0, 0), BuildingBlock: UVAHIK_clean_linker_0, # of connection points: 2
#     Edge 50, Type (0, 0), BuildingBlock: UVAHIK_clean_linker_0, # of connection points: 2
#     Edge 51, Type (0, 0), BuildingBlock: UVAHIK_clean_linker_0, # of connection points: 2
#     Edge 52, Type (0, 0), BuildingBlock: UVAHIK_clean_linker_0, # of connection points: 2
#     Edge 53, Type (0, 0), BuildingBlock: UVAHIK_clean_linker_0, # of connection points: 2
#     Edge 54, Type (0, 0), BuildingBlock: UVAHIK_clean_linker_0, # of connection points: 2
#     Edge 55, Type (0, 0), BuildingBlock: UVAHIK_clean_linker_0, # of connection points: 2
#     Edge 56, Type (0, 0), BuildingBlock: UVAHIK_clean_linker_0, # of connection points: 2
#     Edge 57, Type (0, 0), BuildingBlock: UVAHIK_clean_linker_0, # of connection points: 2
#     Edge 58, Type (0, 0), BuildingBlock: UVAHIK_clean_linker_0, # of connection points: 2
#     Edge 59, Type (0, 0), BuildingBlock: UVAHIK_clean_linker_0, # of connection points: 2
#     Edge 60, Type (0, 0), BuildingBlock: UVAHIK_clean_linker_0, # of connection points: 2
#     Edge 61, Type (0, 0), BuildingBlock: UVAHIK_clean_linker_0, # of connection points: 2
#     Edge 62, Type (0, 0), BuildingBlock: UVAHIK_clean_linker_0, # of connection points: 2
#     Edge 63, Type (0, 0), BuildingBlock: UVAHIK_clean_linker_0, # of connection points: 2
#     Edge 64, Type (0, 0), BuildingBlock: UVAHIK_clean_linker_0, # of connection points: 2
#     Edge 65, Type (0, 0), BuildingBlock: UVAHIK_clean_linker_0, # of connection points: 2
#     Edge 66, Type (0, 0), BuildingBlock: UVAHIK_clean_linker_0, # of connection points: 2
#     Edge 67, Type (0, 0), BuildingBlock: UVAHIK_clean_linker_0, # of connection points: 2
#     Edge 68, Type (0, 0), BuildingBlock: UVAHIK_clean_linker_0, # of connection points: 2
#     Edge 69, Type (0, 0), BuildingBlock: UVAHIK_clean_linker_0, # of connection points: 2
#     Edge 70, Type (0, 0), BuildingBlock: UVAHIK_clean_linker_0, # of connection points: 2
#     Edge 71, Type (0, 0), BuildingBlock: UVAHIK_clean_linker_0, # of connection points: 2
#     Edge 72, Type (0, 0), BuildingBlock: UVAHIK_clean_linker_0, # of connection points: 2
#     Edge 73, Type (0, 0), BuildingBlock: UVAHIK_clean_linker_0, # of connection points: 2
#     Edge 74, Type (0, 0), BuildingBlock: UVAHIK_clean_linker_0, # of connection points: 2
#     Edge 75, Type (0, 0), BuildingBlock: UVAHIK_clean_linker_0, # of connection points: 2
#     Edge 76, Type (0, 0), BuildingBlock: UVAHIK_clean_linker_0, # of connection points: 2
#     Edge 77, Type (0, 0), BuildingBlock: UVAHIK_clean_linker_0, # of connection points: 2
#     Edge 78, Type (0, 0), BuildingBlock: UVAHIK_clean_linker_0, # of connection points: 2
#     Edge 79, Type (0, 0), BuildingBlock: UVAHIK_clean_linker_0, # of connection points: 2
#     Edge 80, Type (0, 0), BuildingBlock: UVAHIK_clean_linker_0, # of connection points: 2
#     Edge 81, Type (0, 0), BuildingBlock: UVAHIK_clean_linker_0, # of connection points: 2
#     Edge 82, Type (0, 0), BuildingBlock: UVAHIK_clean_linker_0, # of connection points: 2
#     Edge 83, Type (0, 0), BuildingBlock: UVAHIK_clean_linker_0, # of connection points: 2
#     Edge 84, Type (0, 0), BuildingBlock: UVAHIK_clean_linker_0, # of connection points: 2
#     Edge 85, Type (0, 0), BuildingBlock: UVAHIK_clean_linker_0, # of connection points: 2
#     Edge 86, Type (0, 0), BuildingBlock: UVAHIK_clean_linker_0, # of connection points: 2
#     Edge 87, Type (0, 0), BuildingBlock: UVAHIK_clean_linker_0, # of connection points: 2
#     Edge 88, Type (0, 0), BuildingBlock: UVAHIK_clean_linker_0, # of connection points: 2
#     Edge 89, Type (0, 0), BuildingBlock: UVAHIK_clean_linker_0, # of connection points: 2
#     Edge 90, Type (0, 0), BuildingBlock: UVAHIK_clean_linker_0, # of connection points: 2
#     Edge 91, Type (0, 0), BuildingBlock: UVAHIK_clean_linker_0, # of connection points: 2
#     Edge 92, Type (0, 0), BuildingBlock: UVAHIK_clean_linker_0, # of connection points: 2
#     Edge 93, Type (0, 0), BuildingBlock: UVAHIK_clean_linker_0, # of connection points: 2
#     Edge 94, Type (0, 0), BuildingBlock: UVAHIK_clean_linker_0, # of connection points: 2
#     Edge 95, Type (0, 0), BuildingBlock: UVAHIK_clean_linker_0, # of connection points: 2
#     Edge 96, Type (0, 0), BuildingBlock: UVAHIK_clean_linker_0, # of connection points: 2
#     Edge 97, Type (0, 0), BuildingBlock: UVAHIK_clean_linker_0, # of connection points: 2
#     Edge 98, Type (0, 0), BuildingBlock: UVAHIK_clean_linker_0, # of connection points: 2
#     Edge 99, Type (0, 0), BuildingBlock: UVAHIK_clean_linker_0, # of connection points: 2
#     Edge 100, Type (0, 0), BuildingBlock: UVAHIK_clean_linker_0, # of connection points: 2
#     Edge 101, Type (0, 0), BuildingBlock: UVAHIK_clean_linker_0, # of connection points: 2
#     Edge 102, Type (0, 0), BuildingBlock: UVAHIK_clean_linker_0, # of connection points: 2
#     Edge 103, Type (0, 0), BuildingBlock: UVAHIK_clean_linker_0, # of connection points: 2
#     Edge 104, Type (0, 0), BuildingBlock: UVAHIK_clean_linker_0, # of connection points: 2
#     Edge 105, Type (0, 0), BuildingBlock: UVAHIK_clean_linker_0, # of connection points: 2
#     Edge 106, Type (0, 0), BuildingBlock: UVAHIK_clean_linker_0, # of connection points: 2
#     Edge 107, Type (0, 0), BuildingBlock: UVAHIK_clean_linker_0, # of connection points: 2
#     Edge 108, Type (0, 0), BuildingBlock: UVAHIK_clean_linker_0, # of connection points: 2
#     Edge 109, Type (0, 0), BuildingBlock: UVAHIK_clean_linker_0, # of connection points: 2
#     Edge 110, Type (0, 0), BuildingBlock: UVAHIK_clean_linker_0, # of connection points: 2
#     Edge 111, Type (0, 0), BuildingBlock: UVAHIK_clean_linker_0, # of connection points: 2
#     Edge 112, Type (0, 0), BuildingBlock: UVAHIK_clean_linker_0, # of connection points: 2
#     Edge 113, Type (0, 0), BuildingBlock: UVAHIK_clean_linker_0, # of connection points: 2
#     Edge 114, Type (0, 0), BuildingBlock: UVAHIK_clean_linker_0, # of connection points: 2
#     Edge 115, Type (0, 0), BuildingBlock: UVAHIK_clean_linker_0, # of connection points: 2
#     Edge 116, Type (0, 0), BuildingBlock: UVAHIK_clean_linker_0, # of connection points: 2
#     Edge 117, Type (0, 0), BuildingBlock: UVAHIK_clean_linker_0, # of connection points: 2
#     Edge 118, Type (0, 0), BuildingBlock: UVAHIK_clean_linker_0, # of connection points: 2
#     Edge 119, Type (0, 0), BuildingBlock: UVAHIK_clean_linker_0, # of connection points: 2
#     Edge 120, Type (0, 0), BuildingBlock: UVAHIK_clean_linker_0, # of connection points: 2
#     Edge 121, Type (0, 0), BuildingBlock: UVAHIK_clean_linker_0, # of connection points: 2
#     Edge 122, Type (0, 0), BuildingBlock: UVAHIK_clean_linker_0, # of connection points: 2
#     Edge 123, Type (0, 0), BuildingBlock: UVAHIK_clean_linker_0, # of connection points: 2
#     Edge 124, Type (0, 0), BuildingBlock: UVAHIK_clean_linker_0, # of connection points: 2
#     Edge 125, Type (0, 0), BuildingBlock: UVAHIK_clean_linker_0, # of connection points: 2
#     Edge 126, Type (0, 0), BuildingBlock: UVAHIK_clean_linker_0, # of connection points: 2
#     Edge 127, Type (0, 0), BuildingBlock: UVAHIK_clean_linker_0, # of connection points: 2
#     Edge 128, Type (0, 0), BuildingBlock: UVAHIK_clean_linker_0, # of connection points: 2
#     Edge 129, Type (0, 0), BuildingBlock: UVAHIK_clean_linker_0, # of connection points: 2
#     Edge 130, Type (0, 0), BuildingBlock: UVAHIK_clean_linker_0, # of connection points: 2
#     Edge 131, Type (0, 0), BuildingBlock: UVAHIK_clean_linker_0, # of connection points: 2
#     Edge 132, Type (0, 0), BuildingBlock: UVAHIK_clean_linker_0, # of connection points: 2
#     Edge 133, Type (0, 0), BuildingBlock: UVAHIK_clean_linker_0, # of connection points: 2
#     Edge 134, Type (0, 0), BuildingBlock: UVAHIK_clean_linker_0, # of connection points: 2
#     Edge 135, Type (0, 0), BuildingBlock: UVAHIK_clean_linker_0, # of connection points: 2
#     Edge 136, Type (0, 0), BuildingBlock: UVAHIK_clean_linker_0, # of connection points: 2
#     Edge 137, Type (0, 0), BuildingBlock: UVAHIK_clean_linker_0, # of connection points: 2
#     Edge 138, Type (0, 0), BuildingBlock: UVAHIK_clean_linker_0, # of connection points: 2
#     Edge 139, Type (0, 0), BuildingBlock: UVAHIK_clean_linker_0, # of connection points: 2
#     Edge 140, Type (0, 0), BuildingBlock: UVAHIK_clean_linker_0, # of connection points: 2
#     Edge 141, Type (0, 0), BuildingBlock: UVAHIK_clean_linker_0, # of connection points: 2
#     Edge 142, Type (0, 0), BuildingBlock: UVAHIK_clean_linker_0, # of connection points: 2
#     Edge 143, Type (0, 0), BuildingBlock: UVAHIK_clean_linker_0, # of connection points: 2
# Relax obj value: 0.245
# Max RMSD: 0.235
# Mean RMSD: 0.211
data_MOF--net-wna--node1-GEDQOX_clean_sbu_0--edge1-UVAHIK_clean_linker_0
_symmetry_space_group_name_H-M    P1
_symmetry_Int_Tables_number       1
_symmetry_cell_setting            triclinic
loop_
_symmetry_equiv_pos_as_xyz
'x, y, z'
_cell_length_a     56.861248
_cell_length_b     57.156833
_cell_length_c     135.85911
_cell_angle_alpha  89.993675
_cell_angle_beta   89.969547
_cell_angle_gamma 120.05122
loop_
_atom_site_label
_atom_site_type_symbol
_atom_site_fract_x
_atom_site_fract_y
_atom_site_fract_z
_atom_type_partial_charge
Nd0 Nd 0.20272 0.31057 0.20136 0.0
Nd1 Nd 0.15819 0.25967 0.19087 0.0
C2 C 0.23438 0.35862 0.20909 0.0
C3 C 0.25618 0.38486 0.20576 0.0
C4 C 0.25321 0.39665 0.19715 0.0
C5 C 0.27595 0.41765 0.19268 0.0
C6 C 0.30187 0.42667 0.19665 0.0
C7 C 0.30442 0.41696 0.20585 0.0
C8 C 0.28157 0.39613 0.2104 0.0
C9 C 0.21108 0.26782 0.20114 0.0
C10 C 0.20293 0.30493 0.17679 0.0
C11 C 0.11751 0.21217 0.18632 0.0
C12 C 0.09384 0.19651 0.19275 0.0
C13 C 0.09765 0.19101 0.20251 0.0
C14 C 0.07652 0.18173 0.20931 0.0
C15 C 0.05073 0.17681 0.20643 0.0
C16 C 0.04678 0.18177 0.19657 0.0
C17 C 0.06817 0.19171 0.18983 0.0
C18 C 0.14866 0.30145 0.19378 0.0
C19 C 0.15813 0.26341 0.21517 0.0
O20 O 0.20995 0.35085 0.20574 0.0
O21 O 0.2404 0.33932 0.20906 0.0
O22 O 0.21918 0.28543 0.2082 0.0
O23 O 0.20199 0.27498 0.19399 0.0
O24 O 0.20994 0.32148 0.18453 0.0
O25 O 0.18644 0.27856 0.17773 0.0
O26 O 0.1408 0.21538 0.18942 0.0
O27 O 0.11953 0.23452 0.18294 0.0
O28 O 0.14423 0.28907 0.18541 0.0
O29 O 0.1582 0.29214 0.19983 0.0
O30 O 0.15127 0.24741 0.20739 0.0
O31 O 0.17463 0.28969 0.21438 0.0
H32 H 0.23377 0.3884 0.19347 0.0
H33 H 0.27357 0.42519 0.18565 0.0
H34 H 0.32422 0.42355 0.20904 0.0
H35 H 0.28408 0.3873 0.2171 0.0
H36 H 0.11723 0.19455 0.205 0.0
H37 H 0.08041 0.17825 0.2168 0.0
H38 H 1.02704 0.17746 0.19395 0.0
H39 H 0.06481 0.1962 0.18239 0.0
Nd40 Nd 0.76166 0.91079 0.20078 0.0
Nd41 Nd 0.8071 0.90544 0.19073 0.0
C42 C 0.71592 0.90302 0.20865 0.0
C43 C 0.68867 0.89599 0.20543 0.0
C44 C 0.67465 0.87542 0.1985 0.0
C45 C 0.65103 0.87214 0.19418 0.0
C46 C 0.64136 0.88962 0.19666 0.0
C47 C 0.65413 0.90864 0.20424 0.0
C48 C 0.67767 0.91176 0.20861 0.0
C49 C 0.80793 0.95861 0.19786 0.0
C50 C 0.76315 0.90647 0.17625 0.0
C51 C 0.85168 0.90562 0.18596 0.0
C52 C 0.86754 0.89901 0.19278 0.0
C53 C 0.87428 0.91109 0.20212 0.0
C54 C 0.88417 0.90121 0.2094 0.0
C55 C 0.88873 0.87974 0.20739 0.0
C56 C 0.88226 0.86783 0.19796 0.0
C57 C 0.8715 0.87721 0.19076 0.0
C58 C 0.76163 0.85817 0.19564 0.0
C59 C 0.80686 0.91002 0.21505 0.0
O60 O 0.72229 0.88403 0.20791 0.0
O61 O 0.73551 0.92682 0.20588 0.0
O62 O 0.7924 0.95355 0.20548 0.0
O63 O 0.7983 0.93941 0.19175 0.0
O64 O 0.74801 0.9029 0.18422 0.0
O65 O 0.78859 0.91199 0.17695 0.0
O66 O 0.85137 0.92801 0.18775 0.0
O67 O 0.82762 0.88523 0.18395 0.0
O68 O 0.77362 0.8619 0.1872 0.0
O69 O 0.77315 0.87896 0.2008 0.0
O70 O 0.82103 0.91265 0.20701 0.0
O71 O 0.78199 0.90612 0.21459 0.0
H72 H 0.68271 0.86295 0.19598 0.0
H73 H 0.64145 0.85728 0.18839 0.0
H74 H 0.64736 0.92269 0.20621 0.0
H75 H 0.68823 0.92765 0.214 0.0
H76 H 0.87143 0.92791 0.20393 0.0
H77 H 0.88864 0.91076 0.21656 0.0
H78 H 0.88614 0.85173 0.19598 0.0
H79 H 0.86594 0.86723 0.18366 0.0
Nd80 Nd 0.15502 0.859 0.20115 0.0
Nd81 Nd 0.16129 0.90825 0.19024 0.0
C82 C 0.16235 0.82117 0.20921 0.0
C83 C 0.16825 0.80013 0.20609 0.0
C84 C 0.19112 0.80634 0.2003 0.0
C85 C 0.1939 0.78567 0.19607 0.0
C86 C 0.17383 0.75861 0.19755 0.0
C87 C 0.15221 0.75246 0.20404 0.0
C88 C 0.1495 0.77313 0.20829 0.0
C89 C 0.10739 0.85765 0.19815 0.0
C90 C 0.15883 0.86281 0.17637 0.0
C91 C 0.16265 0.95277 0.1858 0.0
C92 C 0.17381 0.97555 0.19277 0.0
C93 C 0.15665 0.97822 0.19958 0.0
C94 C 0.16735 0.99919 0.20641 0.0
C95 C 0.19524 1.01797 0.2064 0.0
C96 C 0.21274 1.01336 0.2005 0.0
C97 C 0.2021 0.99256 0.19363 0.0
C98 C 0.20812 0.90952 0.1953 0.0
C99 C 0.15883 0.90797 0.21459 0.0
O100 O 0.18182 0.84627 0.20814 0.0
O101 O 0.13841 0.81733 0.20673 0.0
O102 O 0.11258 0.8481 0.20598 0.0
O103 O 0.12628 0.86611 0.19188 0.0
O104 O 0.16294 0.85228 0.18454 0.0
O105 O 0.15275 0.88218 0.17679 0.0
O106 O 0.1399 0.9314 0.18851 0.0
O107 O 0.18027 0.94685 0.18205 0.0
O108 O 0.20448 0.91672 0.18665 0.0
O109 O 0.18769 0.90174 0.20059 0.0
O110 O 0.15763 0.91907 0.20625 0.0
O111 O 0.15981 0.88535 0.21475 0.0
H112 H 0.20609 0.82705 0.1986 0.0
H113 H 0.21083 0.79085 0.19116 0.0
H114 H 0.13623 0.73177 0.20521 0.0
H115 H 0.13187 0.76799 0.21283 0.0
H116 H 0.13487 0.96466 0.19941 0.0
H117 H 0.15352 1.00247 0.21091 0.0
H118 H 0.23436 0.02776 0.2004 0.0
H119 H 0.21606 0.99044 0.18879 0.0
Nd120 Nd 0.28126 0.15022 0.34042 0.0
Nd121 Nd 0.28354 0.15331 0.36218 0.0
C122 C 0.26576 0.14615 0.3218 0.0
C123 C 0.25716 0.12617 0.31366 0.0
C124 C 0.22945 0.11081 0.31122 0.0
C125 C 0.22067 0.09185 0.30361 0.0
C126 C 0.2394 0.08791 0.29814 0.0
C127 C 0.26718 0.1034 0.30052 0.0
C128 C 0.27598 0.1223 0.30821 0.0
C129 C 0.31368 0.1266 0.34542 0.0
C130 C 0.23562 0.09554 0.3525 0.0
C131 C 0.30184 0.15463 0.38033 0.0
C132 C 0.31178 0.16898 0.38991 0.0
C133 C 0.33789 0.17566 0.39312 0.0
C134 C 0.34698 0.18601 0.40258 0.0
C135 C 0.33028 0.19016 0.40918 0.0
C136 C 0.30437 0.1843 0.40582 0.0
C137 C 0.29519 0.17374 0.39633 0.0
C138 C 0.24151 0.16319 0.35729 0.0
C139 C 0.31755 0.21314 0.35014 0.0
O140 O 0.24914 0.13925 0.32927 0.0
O141 O 0.29133 0.15885 0.32449 0.0
O142 O 0.30783 0.1312 0.33671 0.0
O143 O 0.30314 0.13593 0.35163 0.0
O144 O 0.2433 0.10846 0.34398 0.0
O145 O 0.24967 0.10746 0.36062 0.0
O146 O 0.31765 0.16452 0.37262 0.0
O147 O 0.27597 0.14304 0.37813 0.0
O148 O 0.25058 0.16409 0.36613 0.0
O149 O 0.25583 0.15851 0.3512 0.0
O150 O 0.31181 0.20029 0.35877 0.0
O151 O 0.30813 0.19823 0.34199 0.0
H152 H 0.21447 0.11351 0.31521 0.0
H153 H 0.19921 0.08061 0.30188 0.0
H154 H 0.28212 0.10072 0.2965 0.0
H155 H 0.29748 0.13383 0.30987 0.0
H156 H 0.35105 0.17194 0.38841 0.0
H157 H 0.36681 0.1897 0.40482 0.0
H158 H 0.29098 0.1876 0.41056 0.0
H159 H 0.27493 0.1688 0.39411 0.0
Nd160 Nd 0.91878 0.14187 0.34075 0.0
Nd161 Nd 0.91658 0.1407 0.36193 0.0
C162 C 0.92081 0.13025 0.32202 0.0
C163 C 0.94051 0.14132 0.31381 0.0
C164 C 0.9547 0.1281 0.31106 0.0
C165 C 0.97382 0.13825 0.30348 0.0
C166 C 0.97903 0.16175 0.29838 0.0
C167 C 0.96471 0.17495 0.30108 0.0
C168 C 0.94561 0.16483 0.30873 0.0
C169 C 0.94343 0.19797 0.34543 0.0
C170 C 0.97422 0.15101 0.35218 0.0
C171 C 0.91453 0.15772 0.37998 0.0
C172 C 0.89962 0.15296 0.38947 0.0
C173 C 0.89074 0.17093 0.39231 0.0
C174 C 0.87978 0.16943 0.40169 0.0
C175 C 0.87754 0.15001 0.40857 0.0
C176 C 0.88561 0.1314 0.40562 0.0
C177 C 0.89652 0.13285 0.39619 0.0
C178 C 0.90782 0.0892 0.35737 0.0
C179 C 0.85604 0.11468 0.35042 0.0
O180 O 0.92764 0.11999 0.32931 0.0
O181 O 0.90916 0.14379 0.32498 0.0
O182 O 0.93876 0.18722 0.33679 0.0
O183 O 0.93432 0.17851 0.3518 0.0
O184 O 0.96077 0.14543 0.34376 0.0
O185 O 0.96271 0.15349 0.36034 0.0
O186 O 0.90452 0.16309 0.37219 0.0
O187 O 0.92675 0.14404 0.37791 0.0
O188 O 0.90784 0.09809 0.36617 0.0
O189 O 0.9118 0.10752 0.35106 0.0
O190 O 0.86907 0.1202 0.35898 0.0
O191 O 0.87091 0.12187 0.34226 0.0
H192 H 0.95116 0.1099 0.31483 0.0
H193 H 0.98476 0.12781 0.30171 0.0
H194 H 0.96799 0.19291 0.29721 0.0
H195 H 0.93493 0.17544 0.31064 0.0
H196 H 0.89316 0.18687 0.38737 0.0
H197 H 0.87415 0.18431 0.4037 0.0
H198 H 0.88386 0.11593 0.41066 0.0
H199 H 0.90314 0.11867 0.39426 0.0
Nd200 Nd 0.92517 0.78533 0.3417 0.0
Nd201 Nd 0.92816 0.78655 0.36156 0.0
C202 C 0.92696 0.79443 0.32239 0.0
C203 C 0.91652 0.8056 0.31481 0.0
C204 C 0.92846 0.83368 0.31343 0.0
C205 C 0.91985 0.844 0.30578 0.0
C206 C 0.89912 0.82649 0.29934 0.0
C207 C 0.887 0.79844 0.30079 0.0
C208 C 0.89571 0.78812 0.3084 0.0
C209 C 0.87201 0.74986 0.34912 0.0
C210 C 0.9182 0.83388 0.35236 0.0
C211 C 0.91137 0.76806 0.37974 0.0
C212 C 0.91612 0.75817 0.38934 0.0
C213 C 0.90245 0.73031 0.39147 0.0
C214 C 0.90295 0.72087 0.40099 0.0
C215 C 0.91702 0.739 0.40872 0.0
C216 C 0.93172 0.76684 0.40645 0.0
C217 C 0.93118 0.77627 0.39693 0.0
C218 C 0.98071 0.82771 0.35726 0.0
C219 C 0.95417 0.75175 0.35037 0.0
O220 O 0.9446 0.81126 0.32866 0.0
O221 O 0.90985 0.7715 0.32647 0.0
O222 O 0.88503 0.74345 0.34282 0.0
O223 O 0.88894 0.77361 0.3523 0.0
O224 O 0.91944 0.82293 0.34392 0.0
O225 O 0.91955 0.82253 0.36069 0.0
O226 O 0.90508 0.75244 0.37197 0.0
O227 O 0.92568 0.7938 0.37755 0.0
O228 O 0.97114 0.81881 0.36598 0.0
O229 O 0.9629 0.81429 0.35063 0.0
O230 O 0.94527 0.75643 0.35877 0.0
O231 O 0.95004 0.7623 0.34234 0.0
H232 H 0.94471 0.84777 0.31817 0.0
H233 H 0.92941 0.8657 0.30491 0.0
H234 H 0.87122 0.78442 0.29588 0.0
H235 H 0.88643 0.7664 0.30918 0.0
H236 H 0.89035 0.71573 0.38587 0.0
H237 H 0.89117 0.69934 0.40236 0.0
H238 H 0.94332 0.78153 0.41208 0.0
H239 H 0.94186 0.79786 0.39563 0.0
Nd240 Nd 0.9255 0.7889 0.83957 0.0
Nd241 Nd 0.87777 0.74359 0.82889 0.0
C242 C 0.96941 0.83331 0.84447 0.0
C243 C 0.99164 0.84987 0.83762 0.0
C244 C 0.9865 0.86062 0.82911 0.0
C245 C 1.00679 0.87434 0.82218 0.0
C246 C 1.03267 0.8778 0.82365 0.0
C247 C 1.03759 0.86588 0.83184 0.0
C248 C 1.01716 0.85199 0.8388 0.0
C249 C 0.92767 0.74308 0.83641 0.0
C250 C 0.92551 0.78822 0.81525 0.0
C251 C 0.84142 0.69701 0.82123 0.0
C252 C 0.82385 0.66959 0.82478 0.0
C253 C 0.83108 0.66009 0.8331 0.0
C254 C 0.81183 0.63635 0.83769 0.0
C255 C 0.78499 0.62237 0.83415 0.0
C256 C 0.77887 0.63049 0.82518 0.0
C257 C 0.79824 0.65402 0.82053 0.0
C258 C 0.87476 0.78942 0.83034 0.0
C259 C 0.87946 0.74613 0.85348 0.0
O260 O 0.9463 0.83263 0.84294 0.0
O261 O 0.96639 0.80951 0.84633 0.0
O262 O 0.93314 0.75495 0.84491 0.0
O263 O 0.92083 0.75482 0.83031 0.0
O264 O 0.93487 0.80278 0.82333 0.0
O265 O 0.90512 0.76316 0.81552 0.0
O266 O 0.86745 0.7055 0.82135 0.0
O267 O 0.83543 0.71503 0.82443 0.0
O268 O 0.86659 0.77378 0.82269 0.0
O269 O 0.88284 0.78017 0.83715 0.0
O270 O 0.87139 0.73027 0.84554 0.0
O271 O 0.89755 0.77206 0.85276 0.0
H272 H 0.96691 0.85881 0.82783 0.0
H273 H 1.00275 0.88358 0.81592 0.0
H274 H 0.05766 0.86874 0.83317 0.0
H275 H 1.02137 0.84319 0.84514 0.0
H276 H 0.85094 0.67191 0.83644 0.0
H277 H 0.81723 0.63037 0.8445 0.0
H278 H 0.75841 0.62044 0.82226 0.0
H279 H 0.79253 0.66114 0.81407 0.0
Nd280 Nd 0.27523 0.14089 0.83814 0.0
Nd281 Nd 0.32801 0.15245 0.82813 0.0
C282 C 0.22615 0.13026 0.84187 0.0
C283 C 0.215 0.14496 0.8366 0.0
C284 C 0.19081 0.1307 0.83128 0.0
C285 C 0.18254 0.14445 0.82497 0.0
C286 C 0.19837 0.17269 0.82388 0.0
C287 C 0.22291 0.18686 0.82902 0.0
C288 C 0.23121 0.17312 0.83528 0.0
C289 C 0.31375 0.19439 0.83571 0.0
C290 C 0.27947 0.14685 0.81411 0.0
C291 C 0.37828 0.17441 0.82155 0.0
C292 C 0.40269 0.17308 0.82404 0.0
C293 C 0.42244 0.19274 0.83024 0.0
C294 C 0.44249 0.18863 0.83435 0.0
C295 C 0.44315 0.16497 0.83223 0.0
C296 C 0.42531 0.14684 0.82517 0.0
C297 C 0.40523 0.1509 0.82108 0.0
C298 C 0.29012 0.09882 0.82886 0.0
C299 C 0.32076 0.1443 0.8527 0.0
O300 O 0.23077 0.11438 0.83626 0.0
O301 O 0.24617 0.14476 0.84792 0.0
O302 O 0.2997 0.18487 0.84369 0.0
O303 O 0.30691 0.17595 0.82956 0.0
O304 O 0.2634 0.13579 0.82176 0.0
O305 O 0.30611 0.15845 0.81496 0.0
O306 O 0.37049 0.1861 0.82804 0.0
O307 O 0.35796 0.15245 0.81783 0.0
O308 O 0.3083 0.10965 0.82199 0.0
O309 O 0.29456 0.11554 0.83567 0.0
O310 O 0.33781 0.15455 0.84509 0.0
O311 O 0.29421 0.13302 0.85153 0.0
H312 H 0.17852 0.10892 0.83191 0.0
H313 H 0.1632 0.13309 0.82123 0.0
H314 H 0.23541 0.2086 0.82831 0.0
H315 H 0.25059 0.18462 0.83897 0.0
H316 H 0.42133 0.2104 0.83242 0.0
H317 H 0.45635 0.20304 0.83968 0.0
H318 H 0.42535 0.12836 0.82342 0.0
H319 H 0.39067 0.13571 0.81612 0.0
Nd320 Nd 0.92192 0.13983 0.83951 0.0
Nd321 Nd 0.92447 0.18844 0.82869 0.0
C322 C 0.92516 0.09705 0.8438 0.0
C323 C 0.91773 0.07426 0.83705 0.0
C324 C 0.9284 0.07893 0.82744 0.0
C325 C 0.91777 0.05836 0.82044 0.0
C326 C 0.89665 0.03243 0.82294 0.0
C327 C 0.88622 0.02775 0.83261 0.0
C328 C 0.89655 0.04849 0.83956 0.0
C329 C 0.87396 0.13835 0.8365 0.0
C330 C 0.91982 0.1401 0.81506 0.0
C331 C 0.91609 0.22566 0.82076 0.0
C332 C 0.90947 0.24605 0.82391 0.0
C333 C 0.89101 0.24077 0.8316 0.0
C334 C 0.88912 0.26191 0.83585 0.0
C335 C 0.90603 0.28856 0.83259 0.0
C336 C 0.92264 0.29332 0.82429 0.0
C337 C 0.92427 0.27211 0.81997 0.0
C338 C 0.97203 0.18839 0.82952 0.0
C339 C 0.92529 0.18611 0.85343 0.0
O340 O 0.94666 0.12009 0.8414 0.0
O341 O 0.90468 0.09978 0.84667 0.0
O342 O 0.87983 0.13125 0.84481 0.0
O343 O 0.89273 0.14555 0.83041 0.0
O344 O 0.92324 0.12956 0.82319 0.0
O345 O 0.91731 0.1618 0.81516 0.0
O346 O 0.89696 0.20036 0.82175 0.0
O347 O 0.94017 0.23019 0.82342 0.0
O348 O 0.96483 0.19758 0.82209 0.0
O349 O 0.95548 0.18184 0.83656 0.0
O350 O 0.91896 0.19552 0.84545 0.0
O351 O 0.93228 0.16734 0.85273 0.0
H352 H 0.94458 0.09867 0.82521 0.0
H353 H 0.92619 0.06285 0.81308 0.0
H354 H 0.87054 1.00788 0.83495 0.0
H355 H 0.88769 0.04451 0.84686 0.0
H356 H 0.8793 0.22068 0.83471 0.0
H357 H 0.87586 0.25769 0.84214 0.0
H358 H 0.9361 0.31365 0.82166 0.0
H359 H 0.93853 0.27638 0.814 0.0
Nd360 Nd 0.80156 0.89991 0.66726 0.0
Nd361 Nd 0.80344 0.90273 0.68936 0.0
C362 C 0.78339 0.89828 0.64906 0.0
C363 C 0.77258 0.88291 0.63967 0.0
C364 C 0.74459 0.87042 0.63767 0.0
C365 C 0.73431 0.85971 0.62834 0.0
C366 C 0.75169 0.86132 0.62065 0.0
C367 C 0.77957 0.87261 0.62279 0.0
C368 C 0.7899 0.88338 0.63216 0.0
C369 C 0.84337 0.89007 0.67275 0.0
C370 C 0.76733 0.84019 0.67939 0.0
C371 C 0.8189 0.90588 0.7079 0.0
C372 C 0.82773 0.92573 0.71605 0.0
C373 C 0.85559 0.9419 0.71815 0.0
C374 C 0.86448 0.96101 0.7257 0.0
C375 C 0.8457 0.96418 0.73142 0.0
C376 C 0.8178 0.94783 0.72941 0.0
C377 C 0.80889 0.9288 0.7218 0.0
C378 C 0.77143 0.92663 0.68417 0.0
C379 C 0.84921 0.95736 0.67727 0.0
O380 O 0.76775 0.88981 0.65686 0.0
O381 O 0.80923 0.90904 0.6512 0.0
O382 O 0.83539 0.88942 0.66374 0.0
O383 O 0.82821 0.89458 0.67843 0.0
O384 O 0.77325 0.85301 0.67075 0.0
O385 O 0.77649 0.85495 0.68757 0.0
O386 O 0.83549 0.91275 0.70041 0.0
O387 O 0.79331 0.89363 0.70524 0.0
O388 O 0.77714 0.92208 0.69292 0.0
O389 O 0.78208 0.91721 0.67801 0.0
O390 O 0.84139 0.94434 0.68578 0.0
O391 O 0.83537 0.94571 0.66907 0.0
H392 H 0.73062 0.8698 0.64323 0.0
H393 H 0.71267 0.8507 0.6271 0.0
H394 H 0.79369 0.87437 0.6171 0.0
H395 H 0.8116 0.893 0.63339 0.0
H396 H 0.8706 0.93979 0.71393 0.0
H397 H 0.88606 0.97302 0.72717 0.0
H398 H 0.80286 0.94996 0.73366 0.0
H399 H 0.78729 0.91662 0.72041 0.0
Nd400 Nd 0.1684 0.91243 0.66749 0.0
Nd401 Nd 0.16458 0.91042 0.6887 0.0
C402 C 0.17055 0.89614 0.6493 0.0
C403 C 0.1857 0.90145 0.6398 0.0
C404 C 0.20317 0.89102 0.63821 0.0
C405 C 0.21385 0.89165 0.62884 0.0
C406 C 0.20723 0.90252 0.6207 0.0
C407 C 0.19078 0.91414 0.62239 0.0
C408 C 0.18009 0.91352 0.63179 0.0
C409 C 0.17836 0.96418 0.6722 0.0
C410 C 0.22815 0.93765 0.67938 0.0
C411 C 0.16135 0.92199 0.70736 0.0
C412 C 0.1423 0.91062 0.7157 0.0
C413 C 0.14013 0.92837 0.72226 0.0
C414 C 0.12127 0.91839 0.72995 0.0
C415 C 0.10403 0.89043 0.73116 0.0
C416 C 0.1061 0.8726 0.72455 0.0
C417 C 0.12516 0.88262 0.71688 0.0
C418 C 0.14105 0.85461 0.68384 0.0
C419 C 0.1099 0.90179 0.67679 0.0
O420 O 0.18029 0.89034 0.65706 0.0
O421 O 0.15825 0.90966 0.65148 0.0
O422 O 0.17969 0.9559 0.66343 0.0
O423 O 0.17334 0.94546 0.67846 0.0
O424 O 0.21553 0.93137 0.67073 0.0
O425 O 0.21285 0.93137 0.68745 0.0
O426 O 0.15298 0.93063 0.70001 0.0
O427 O 0.1741 0.9094 0.70452 0.0
O428 O 0.14577 0.86519 0.69252 0.0
O429 O 0.15026 0.87418 0.6775 0.0
O430 O 0.12173 0.90456 0.68543 0.0
O431 O 0.1229 0.90216 0.6686 0.0
H432 H 0.20786 0.88138 0.64416 0.0
H433 H 0.22686 0.88301 0.62795 0.0
H434 H 0.18499 0.92257 0.61635 0.0
H435 H 0.16651 0.92151 0.63268 0.0
H436 H 0.15287 0.95003 0.72137 0.0
H437 H 0.11985 0.93257 0.73485 0.0
H438 H 0.09313 0.85095 0.72537 0.0
H439 H 0.12631 0.86855 0.71184 0.0
Nd440 Nd 0.15496 0.26504 0.66783 0.0
Nd441 Nd 0.15606 0.26417 0.68816 0.0
C442 C 0.16397 0.27839 0.64878 0.0
C443 C 0.16132 0.29174 0.63974 0.0
C444 C 0.18042 0.31885 0.63755 0.0
C445 C 0.18112 0.32976 0.62821 0.0
C446 C 0.16286 0.31381 0.62076 0.0
C447 C 0.14288 0.28712 0.62314 0.0
C448 C 0.14219 0.27624 0.63247 0.0
C449 C 0.1075 0.22008 0.6744 0.0
C450 C 0.1304 0.30113 0.67922 0.0
C451 C 0.14443 0.24814 0.70671 0.0
C452 C 0.15606 0.23989 0.7149 0.0
C453 C 0.14728 0.21234 0.71639 0.0
C454 C 0.15768 0.2041 0.72411 0.0
C455 C 0.17691 0.22315 0.73063 0.0
C456 C 0.18558 0.25069 0.7292 0.0
C457 C 0.17529 0.25898 0.72141 0.0
C458 C 0.21268 0.2967 0.68389 0.0
C459 C 0.16688 0.21906 0.67699 0.0
O460 O 0.1803 0.29304 0.65584 0.0
O461 O 0.14296 0.25639 0.65204 0.0
O462 O 0.12185 0.22052 0.66691 0.0
O463 O 0.11823 0.2438 0.67825 0.0
O464 O 0.13612 0.29368 0.67066 0.0
O465 O 0.13687 0.29272 0.68735 0.0
O466 O 0.13536 0.23178 0.69917 0.0
O467 O 0.15677 0.27366 0.70412 0.0
O468 O 0.20117 0.29157 0.69242 0.0
O469 O 0.19397 0.28606 0.67726 0.0
O470 O 0.15885 0.22545 0.68515 0.0
O471 O 0.17083 0.23417 0.66906 0.0
H472 H 0.19569 0.33135 0.64291 0.0
H473 H 0.19692 0.35031 0.62669 0.0
H474 H 0.12807 0.27431 0.61771 0.0
H475 H 0.12733 0.25524 0.63383 0.0
H476 H 0.1322 0.19703 0.7116 0.0
H477 H 0.15027 0.18272 0.7251 0.0
H478 H 0.20053 0.26588 0.73406 0.0
H479 H 0.18236 0.28033 0.72053 0.0
Nd480 Nd 0.8727 0.64305 0.53445 0.0
Nd481 Nd 0.82748 0.59287 0.52354 0.0
C482 C 0.90495 0.6904 0.54264 0.0
C483 C 0.92632 0.71732 0.53963 0.0
C484 C 0.92155 0.73185 0.53236 0.0
C485 C 0.94327 0.75414 0.52794 0.0
C486 C 0.97 0.76184 0.53063 0.0
C487 C 0.97451 0.74913 0.53868 0.0
C488 C 0.95273 0.72705 0.54319 0.0
C489 C 0.88055 0.60001 0.53389 0.0
C490 C 0.87287 0.63846 0.50976 0.0
C491 C 0.78737 0.5453 0.51926 0.0
C492 C 0.76198 0.5335 0.52494 0.0
C493 C 0.75215 0.50833 0.52948 0.0
C494 C 0.73093 0.49921 0.53626 0.0
C495 C 0.71921 0.51514 0.53861 0.0
C496 C 0.72923 0.54043 0.53413 0.0
C497 C 0.75052 0.54962 0.52741 0.0
C498 C 0.81675 0.63377 0.52725 0.0
C499 C 0.82611 0.59469 0.54785 0.0
O500 O 0.8801 0.68271 0.53981 0.0
O501 O 0.91119 0.67134 0.54179 0.0
O502 O 0.89018 0.61834 0.5407 0.0
O503 O 0.87101 0.6072 0.52687 0.0
O504 O 0.88037 0.65457 0.51764 0.0
O505 O 0.85611 0.61211 0.51051 0.0
O506 O 0.80837 0.54829 0.52428 0.0
O507 O 0.79271 0.56652 0.51393 0.0
O508 O 0.81071 0.62073 0.51899 0.0
O509 O 0.82808 0.62523 0.53287 0.0
O510 O 0.81767 0.58004 0.53975 0.0
O511 O 0.84534 0.62042 0.5477 0.0
H512 H 0.90133 0.72496 0.52959 0.0
H513 H 0.93929 0.76394 0.52186 0.0
H514 H 0.9949 0.75447 0.5409 0.0
H515 H 0.95673 0.71624 0.5489 0.0
H516 H 0.76122 0.49598 0.52792 0.0
H517 H 0.72315 0.47929 0.53945 0.0
H518 H 0.72051 0.55304 0.5358 0.0
H519 H 0.75836 0.56964 0.52432 0.0
Nd520 Nd 0.43065 0.24301 0.53432 0.0
Nd521 Nd 0.47612 0.24152 0.52296 0.0
C522 C 0.38479 0.23427 0.54235 0.0
C523 C 0.35772 0.22702 0.53892 0.0
C524 C 0.34608 0.20954 0.53089 0.0
C525 C 0.32351 0.20777 0.52621 0.0
C526 C 0.31272 0.22386 0.52938 0.0
C527 C 0.32286 0.23931 0.53802 0.0
C528 C 0.34527 0.24083 0.54277 0.0
C529 C 0.47746 0.29118 0.53321 0.0
C530 C 0.43247 0.24495 0.50964 0.0
C531 C 0.52195 0.24461 0.5185 0.0
C532 C 0.53376 0.23202 0.5247 0.0
C533 C 0.55935 0.2481 0.52896 0.0
C534 C 0.56873 0.23738 0.53616 0.0
C535 C 0.55268 0.21032 0.5392 0.0
C536 C 0.52699 0.19427 0.535 0.0
C537 C 0.51751 0.20505 0.52787 0.0
C538 C 0.43006 0.1931 0.52593 0.0
C539 C 0.47495 0.23762 0.5474 0.0
O540 O 0.3916 0.21558 0.54158 0.0
O541 O 0.40409 0.25825 0.5396 0.0
O542 O 0.46207 0.28301 0.54094 0.0
O543 O 0.46742 0.27484 0.52615 0.0
O544 O 0.41691 0.23703 0.5177 0.0
O545 O 0.4587 0.25336 0.51018 0.0
O546 O 0.5211 0.26485 0.52267 0.0
O547 O 0.4994 0.22791 0.5139 0.0
O548 O 0.44292 0.19948 0.51759 0.0
O549 O 0.44182 0.21149 0.53211 0.0
O550 O 0.48832 0.24086 0.53911 0.0
O551 O 0.45096 0.23585 0.54761 0.0
H552 H 0.35546 0.19868 0.52783 0.0
H553 H 0.31579 0.19543 0.51965 0.0
H554 H 0.31513 0.25211 0.5406 0.0
H555 H 0.35412 0.2544 0.54897 0.0
H556 H 0.57188 0.2691 0.52684 0.0
H557 H 0.58895 0.25005 0.53911 0.0
H558 H 0.51432 0.17335 0.53719 0.0
H559 H 0.49721 0.19235 0.525 0.0
Nd560 Nd 0.82656 0.19735 0.5341 0.0
Nd561 Nd 0.82879 0.24392 0.52303 0.0
C562 C 0.83458 0.15986 0.54199 0.0
C563 C 0.84127 0.13977 0.53854 0.0
C564 C 0.85903 0.14541 0.53058 0.0
C565 C 0.86089 0.12454 0.52607 0.0
C566 C 0.84463 0.09779 0.52934 0.0
C567 C 0.82863 0.09269 0.53785 0.0
C568 C 0.82704 0.11363 0.54243 0.0
C569 C 0.7785 0.19653 0.53347 0.0
C570 C 0.82429 0.19747 0.50941 0.0
C571 C 0.82687 0.28681 0.51841 0.0
C572 C 0.83849 0.31082 0.5248 0.0
C573 C 0.82327 0.31218 0.53271 0.0
C574 C 0.83481 0.33392 0.53918 0.0
C575 C 0.86162 0.35486 0.53778 0.0
C576 C 0.87761 0.35239 0.53044 0.0
C577 C 0.86607 0.33069 0.52394 0.0
C578 C 0.87741 0.24635 0.52585 0.0
C579 C 0.83283 0.24702 0.54736 0.0
O580 O 0.85371 0.18519 0.54118 0.0
O581 O 0.81058 0.15553 0.53936 0.0
O582 O 0.78715 0.18965 0.54113 0.0
O583 O 0.79436 0.20235 0.52623 0.0
O584 O 0.83169 0.18913 0.51739 0.0
O585 O 0.81649 0.21554 0.5101 0.0
O586 O 0.8055 0.26527 0.52193 0.0
O587 O 0.84453 0.28147 0.51432 0.0
O588 O 0.87061 0.25207 0.51747 0.0
O589 O 0.85912 0.23984 0.53211 0.0
O590 O 0.829 0.25682 0.53912 0.0
O591 O 0.8348 0.225 0.54744 0.0
H592 H 0.87023 0.16557 0.52749 0.0
H593 H 0.87368 0.12907 0.51963 0.0
H594 H 0.81561 0.07228 0.5405 0.0
H595 H 0.81326 0.10907 0.54858 0.0
H596 H 0.80226 0.29672 0.53381 0.0
H597 H 0.82198 0.33543 0.54475 0.0
H598 H 0.89839 0.36835 0.52926 0.0
H599 H 0.87866 0.32976 0.51814 0.0
Nd600 Nd 0.94871 0.48342 0.67542 0.0
Nd601 Nd 0.94885 0.48422 0.69497 0.0
C602 C 0.93589 0.47645 0.6564 0.0
C603 C 0.92566 0.45544 0.64861 0.0
C604 C 0.89766 0.43698 0.64762 0.0
C605 C 0.88791 0.41859 0.6398 0.0
C606 C 0.90589 0.41834 0.63276 0.0
C607 C 0.93389 0.43655 0.63383 0.0
C608 C 0.94365 0.45493 0.64165 0.0
C609 C 0.98469 0.46493 0.68183 0.0
C610 C 0.90192 0.42681 0.68592 0.0
C611 C 0.96493 0.48847 0.71367 0.0
C612 C 0.97782 0.50466 0.72275 0.0
C613 C 1.00543 0.51423 0.72477 0.0
C614 C 1.01647 0.52484 0.73406 0.0
C615 C 1.00019 0.52595 0.74167 0.0
C616 C 0.97286 0.51759 0.73948 0.0
C617 C 0.96185 0.50704 0.73017 0.0
C618 C 0.90396 0.48798 0.68925 0.0
C619 C 0.98385 0.54573 0.68397 0.0
O620 O 0.91903 0.47376 0.66339 0.0
O621 O 0.96058 0.48567 0.65965 0.0
O622 O 0.99009 0.48352 0.67529 0.0
O623 O 0.96144 0.45844 0.6855 0.0
O624 O 0.91038 0.44067 0.67764 0.0
O625 O 0.9154 0.43838 0.69411 0.0
O626 O 0.98013 0.49025 0.70614 0.0
O627 O 0.9409 0.48384 0.71103 0.0
O628 O 0.90498 0.47417 0.69664 0.0
O629 O 0.92742 0.50081 0.68502 0.0
O630 O 0.97763 0.53202 0.69241 0.0
O631 O 0.97446 0.53115 0.67585 0.0
H632 H 0.88315 0.43703 0.65278 0.0
H633 H 0.86621 0.40506 0.63913 0.0
H634 H 0.94833 0.43664 0.62861 0.0
H635 H 0.96527 0.46901 0.64215 0.0
H636 H 1.01836 0.51256 0.71929 0.0
H637 H 1.03772 0.53158 0.73532 0.0
H638 H 0.95948 0.51784 0.7451 0.0
H639 H 0.94042 0.49958 0.72896 0.0
Nd640 Nd 0.58561 0.47592 0.67407 0.0
Nd641 Nd 0.58302 0.47404 0.69529 0.0
C642 C 0.5891 0.46505 0.65534 0.0
C643 C 0.6094 0.47645 0.64728 0.0
C644 C 0.62703 0.46627 0.6456 0.0
C645 C 0.6461 0.47648 0.63799 0.0
C646 C 0.64787 0.49695 0.63178 0.0
C647 C 0.63017 0.50709 0.6334 0.0
C648 C 0.61114 0.49696 0.64107 0.0
C649 C 0.60932 0.53171 0.67901 0.0
C650 C 0.64125 0.4856 0.68557 0.0
C651 C 0.58075 0.49038 0.71345 0.0
C652 C 0.56581 0.48513 0.72299 0.0
C653 C 0.54915 0.49642 0.72474 0.0
C654 C 0.53864 0.49574 0.73415 0.0
C655 C 0.54461 0.48393 0.74216 0.0
C656 C 0.56026 0.47152 0.74031 0.0
C657 C 0.5708 0.47221 0.73087 0.0
C658 C 0.57412 0.42268 0.69058 0.0
C659 C 0.52261 0.44814 0.68366 0.0
O660 O 0.59523 0.45442 0.66271 0.0
O661 O 0.57721 0.47848 0.6582 0.0
O662 O 0.60421 0.52124 0.67031 0.0
O663 O 0.60042 0.51208 0.6853 0.0
O664 O 0.62847 0.48155 0.67706 0.0
O665 O 0.62895 0.48611 0.69383 0.0
O666 O 0.57059 0.49572 0.70569 0.0
O667 O 0.59342 0.47721 0.71128 0.0
O668 O 0.57365 0.43126 0.69938 0.0
O669 O 0.5783 0.44113 0.68427 0.0
O670 O 0.53557 0.4537 0.69224 0.0
O671 O 0.53756 0.45538 0.6755 0.0
H672 H 0.62602 0.45022 0.65014 0.0
H673 H 0.65912 0.46793 0.63684 0.0
H674 H 0.63116 0.52299 0.62877 0.0
H675 H 0.59778 0.50516 0.64212 0.0
H676 H 0.54499 0.50674 0.7189 0.0
H677 H 0.52625 0.50503 0.73517 0.0
H678 H 0.5655 0.46235 0.74625 0.0
H679 H 0.58375 0.46354 0.72986 0.0
Nd680 Nd 0.59301 0.11993 0.67563 0.0
Nd681 Nd 0.59344 0.11971 0.69512 0.0
C682 C 0.59845 0.13212 0.65656 0.0
C683 C 0.58741 0.14222 0.64882 0.0
C684 C 0.59967 0.17012 0.64695 0.0
C685 C 0.59062 0.17974 0.63923 0.0
C686 C 0.56923 0.16169 0.63313 0.0
C687 C 0.55677 0.1338 0.63505 0.0
C688 C 0.56579 0.12416 0.6428 0.0
C689 C 0.5384 0.08403 0.68205 0.0
C690 C 0.58321 0.16673 0.68606 0.0
C691 C 0.58117 0.10337 0.71379 0.0
C692 C 0.58474 0.09104 0.72297 0.0
C693 C 0.56539 0.06436 0.72559 0.0
C694 C 0.5655 0.05415 0.73499 0.0
C695 C 0.5849 0.07035 0.74211 0.0
C696 C 0.60504 0.09664 0.73931 0.0
C697 C 0.60489 0.10686 0.72991 0.0
C698 C 0.64219 0.16453 0.68951 0.0
C699 C 0.6204 0.08498 0.68416 0.0
O700 O 0.61288 0.14907 0.66347 0.0
O701 O 0.58302 0.10767 0.65993 0.0
O702 O 0.55183 0.07857 0.6756 0.0
O703 O 0.55503 0.10725 0.68564 0.0
O704 O 0.58902 0.15846 0.67781 0.0
O705 O 0.58072 0.15293 0.69421 0.0
O706 O 0.56845 0.08801 0.70623 0.0
O707 O 0.60007 0.12759 0.7112 0.0
O708 O 0.62717 0.16329 0.69689 0.0
O709 O 0.63178 0.14125 0.68525 0.0
O710 O 0.61281 0.09116 0.6926 0.0
O711 O 0.61527 0.09441 0.67605 0.0
H712 H 0.61665 0.18458 0.65134 0.0
H713 H 0.60092 0.20129 0.63785 0.0
H714 H 0.54006 0.11939 0.63055 0.0
H715 H 0.55607 0.10255 0.64398 0.0
H716 H 0.54931 0.0517 0.72051 0.0
H717 H 0.54948 0.03393 0.73681 0.0
H718 H 0.6207 0.10965 0.74445 0.0
H719 H 0.62004 0.12756 0.72823 0.0
Nd720 Nd 0.5882 0.12463 0.17174 0.0
Nd721 Nd 0.54659 0.07308 0.16164 0.0
C722 C 0.62762 0.17264 0.17539 0.0
C723 C 0.65167 0.18479 0.16893 0.0
C724 C 0.65266 0.20045 0.1608 0.0
C725 C 0.67457 0.21064 0.15432 0.0
C726 C 0.69606 0.20585 0.15605 0.0
C727 C 0.69374 0.18777 0.16345 0.0
C728 C 0.67182 0.1775 0.16992 0.0
C729 C 0.602 0.08549 0.16916 0.0
C730 C 0.58977 0.12107 0.14766 0.0
C731 C 0.51794 1.02424 0.15413 0.0
C732 C 0.49505 0.99825 0.15714 0.0
C733 C 0.49745 0.98405 0.16515 0.0
C734 C 0.47424 0.96342 0.16953 0.0
C735 C 0.44854 0.95694 0.16598 0.0
C736 C 0.44636 0.9689 0.15726 0.0
C737 C 0.46958 0.98939 0.15282 0.0
C738 C 0.53376 0.11314 0.16166 0.0
C739 C 0.54539 0.07965 0.18616 0.0
O740 O 0.60508 0.16892 0.17134 0.0
O741 O 0.62423 0.15194 0.18063 0.0
O742 O 0.60544 0.09815 0.1774 0.0
O743 O 0.59126 0.09329 0.16299 0.0
O744 O 0.59496 0.1371 0.15531 0.0
O745 O 0.5748 0.09463 0.14863 0.0
O746 O 0.54088 0.03254 0.15883 0.0
O747 O 0.51216 0.04346 0.15272 0.0
O748 O 0.52656 0.09507 0.1548 0.0
O749 O 0.54399 0.10728 0.16882 0.0
O750 O 0.53933 0.06276 0.17856 0.0
O751 O 0.56039 0.10608 0.18495 0.0
H752 H 0.63688 0.20549 0.15958 0.0
H753 H 0.67625 0.2248 0.14868 0.0
H754 H 0.7104 0.18419 0.16495 0.0
H755 H 0.6712 0.16457 0.17586 0.0
H756 H 0.51697 0.9901 0.16849 0.0
H757 H 0.47626 0.95405 0.17617 0.0
H758 H 0.42672 0.9643 0.15439 0.0
H759 H 0.46743 0.99984 0.14653 0.0
Nd760 Nd 0.9423 0.4779 0.17211 0.0
Nd761 Nd 0.99493 0.48875 0.16213 0.0
C762 C 0.89328 0.46776 0.17631 0.0
C763 C 0.8775 0.47565 0.16992 0.0
C764 C 0.87219 0.46663 0.16013 0.0
C765 C 0.86329 0.47876 0.15334 0.0
C766 C 0.85865 0.49965 0.15625 0.0
C767 C 0.86317 0.5081 0.16616 0.0
C768 C 0.87266 0.49634 0.1729 0.0
C769 C 0.98223 0.53084 0.16992 0.0
C770 C 0.9476 0.48401 0.14797 0.0
C771 C 0.04489 0.50925 0.15539 0.0
C772 C 0.06939 0.50825 0.15802 0.0
C773 C 0.08834 0.52732 0.16459 0.0
C774 C 0.10859 0.52339 0.16862 0.0
C775 C 0.11027 0.50053 0.16604 0.0
C776 C 0.09314 0.48304 0.15868 0.0
C777 C 0.07288 0.48694 0.15467 0.0
C778 C 0.9555 0.43578 0.16228 0.0
C779 C 0.9874 0.47965 0.1866 0.0
O780 O 0.89799 0.44905 0.17288 0.0
O781 O 0.91485 0.48813 0.1802 0.0
O782 O 0.96933 0.52127 0.17812 0.0
O783 O 0.97428 0.51263 0.16363 0.0
O784 O 0.93099 0.47217 0.15548 0.0
O785 O 0.97414 0.49661 0.14923 0.0
O786 O 1.03748 0.52208 0.16151 0.0
O787 O 1.02436 0.4867 0.15213 0.0
O788 O 0.97354 0.44665 0.15537 0.0
O789 O 0.96076 0.45195 0.16935 0.0
O790 O 1.00451 0.4904 0.17903 0.0
O791 O 0.96089 0.46889 0.18541 0.0
H792 H 0.87574 0.45073 0.15759 0.0
H793 H 0.86002 0.47167 0.14581 0.0
H794 H 0.85895 0.52349 0.16881 0.0
H795 H 0.87692 0.50391 0.18038 0.0
H796 H 0.08655 0.54437 0.16708 0.0
H797 H 0.12188 0.53729 0.17418 0.0
H798 H 0.09394 0.46516 0.1566 0.0
H799 H 0.05894 0.47228 0.14942 0.0
Nd800 Nd 0.58816 0.47506 0.17272 0.0
Nd801 Nd 0.59379 0.52359 0.16177 0.0
C802 C 0.587 0.43082 0.17777 0.0
C803 C 0.57601 0.40684 0.17137 0.0
C804 C 0.59164 0.40575 0.16355 0.0
C805 C 0.58084 0.38365 0.15723 0.0
C806 C 0.55434 0.36214 0.15869 0.0
C807 C 0.53785 0.36434 0.16589 0.0
C808 C 0.54867 0.38639 0.17225 0.0
C809 C 0.54113 0.47445 0.16858 0.0
C810 C 0.59003 0.47482 0.14837 0.0
C811 C 0.58619 0.56079 0.1534 0.0
C812 C 0.57732 0.57939 0.15657 0.0
C813 C 0.55955 0.57278 0.16458 0.0
C814 C 0.55634 0.59277 0.16913 0.0
C815 C 0.57112 0.61951 0.16576 0.0
C816 C 0.58674 0.62544 0.15712 0.0
C817 C 0.58985 0.60539 0.15255 0.0
C818 C 0.64161 0.52497 0.1645 0.0
C819 C 0.59146 0.52104 0.18647 0.0
O820 O 0.60951 0.45202 0.17475 0.0
O821 O 0.56906 0.43683 0.18112 0.0
O822 O 0.54597 0.46774 0.17714 0.0
O823 O 0.56057 0.48119 0.16283 0.0
O824 O 0.59094 0.46352 0.15671 0.0
O825 O 0.58956 0.49765 0.14822 0.0
O826 O 0.56769 0.53515 0.15359 0.0
O827 O 0.60966 0.56577 0.15695 0.0
O828 O 0.63583 0.53372 0.15659 0.0
O829 O 0.62318 0.51711 0.1709 0.0
O830 O 0.58556 0.53036 0.17837 0.0
O831 O 0.59894 0.50269 0.18584 0.0
H832 H 0.61246 0.42164 0.16242 0.0
H833 H 0.59402 0.38239 0.15175 0.0
H834 H 0.51726 0.34798 0.16708 0.0
H835 H 0.53579 0.38712 0.17797 0.0
H836 H 0.5498 0.55273 0.16777 0.0
H837 H 0.54418 0.58785 0.17576 0.0
H838 H 0.59863 0.64603 0.15447 0.0
H839 H 0.60368 0.61067 0.14637 0.0
Nd840 Nd 0.46713 0.23437 1.00109 0.0
Nd841 Nd 0.46821 0.23521 0.02074 0.0
C842 C 0.45069 0.23024 0.98243 0.0
C843 C 0.43782 0.2142 0.9733 0.0
C844 C 0.41025 0.20477 0.97125 0.0
C845 C 0.39922 0.19422 0.96196 0.0
C846 C 0.41547 0.19302 0.95434 0.0
C847 C 0.44277 0.2013 0.95656 0.0
C848 C 0.45378 0.21179 0.96587 0.0
C849 C 0.51199 0.23013 1.0065 0.0
C850 C 0.43266 0.17288 1.01224 0.0
C851 C 0.4815 0.24284 0.03974 0.0
C852 C 0.49157 0.26405 0.04747 0.0
C853 C 0.51965 0.28162 0.04879 0.0
C854 C 0.52929 0.30034 0.05651 0.0
C855 C 0.51114 0.30183 0.06316 0.0
C856 C 0.48307 0.28443 0.06179 0.0
C857 C 0.47341 0.26573 0.05406 0.0
C858 C 0.43234 0.25411 1.01445 0.0
C859 C 0.51495 0.29134 1.01009 0.0
O860 O 0.43552 0.22814 0.99001 0.0
O861 O 0.47485 0.23512 0.98499 0.0
O862 O 0.5107 0.24375 0.99909 0.0
O863 O 0.48877 0.21759 1.01089 0.0
O864 O 0.43739 0.18669 1.00385 0.0
O865 O 0.44354 0.18742 0.02027 0.0
O866 O 0.49832 0.24584 0.03269 0.0
O867 O 0.45663 0.23291 0.03657 0.0
O868 O 0.42693 0.23546 0.02097 0.0
O869 O 0.45551 0.26044 1.01077 0.0
O870 O 0.50755 0.27683 0.01823 0.0
O871 O 0.50007 0.28052 1.00208 0.0
H872 H 0.39734 0.20648 0.97673 0.0
H873 H 0.37799 0.18755 0.96069 0.0
H874 H 0.45614 0.201 0.95095 0.0
H875 H 0.47518 0.21914 0.9671 0.0
H876 H 0.53428 0.28064 0.04396 0.0
H877 H 0.55103 0.31316 0.05742 0.0
H878 H 0.4685 0.28525 0.06671 0.0
H879 H 0.4517 0.25234 0.05332 0.0
Nd880 Nd 0.8327 0.24393 1.00114 0.0
Nd881 Nd 0.83172 0.24364 0.02068 0.0
C882 C 0.83659 0.23207 0.98241 0.0
C883 C 0.85242 0.2342 0.97335 0.0
C884 C 0.8514 0.21082 0.96958 0.0
C885 C 0.86208 0.21083 0.96027 0.0
C886 C 0.87424 0.23431 0.95438 0.0
C887 C 0.8762 0.25808 0.95834 0.0
C888 C 0.86532 0.25799 0.96766 0.0
C889 C 0.83633 0.29252 1.00668 0.0
C890 C 0.89427 0.27079 1.01221 0.0
C891 C 0.82463 0.24912 0.03972 0.0
C892 C 0.80362 0.23779 0.04754 0.0
C893 C 0.78771 0.24974 0.04955 0.0
C894 C 0.76905 0.24042 0.0573 0.0
C895 C 0.76592 0.21898 0.06328 0.0
C896 C 0.78168 0.20687 0.06124 0.0
C897 C 0.80042 0.21624 0.05348 0.0
C898 C 0.81341 0.18927 1.01432 0.0
C899 C 0.77505 0.23356 1.01011 0.0
O900 O 0.83672 0.21764 0.98987 0.0
O901 O 0.83405 0.2526 0.98512 0.0
O902 O 0.82245 0.2774 0.99935 0.0
O903 O 0.8492 0.28215 1.011 0.0
O904 O 0.88047 0.26169 1.00383 0.0
O905 O 0.87966 0.2671 0.02024 0.0
O906 O 0.82114 0.26271 0.03274 0.0
O907 O 0.83465 0.23445 0.03643 0.0
O908 O 0.83217 0.2027 0.02081 0.0
O909 O 0.80672 0.20579 1.01068 0.0
O910 O 0.78904 0.23946 0.01838 0.0
O911 O 0.78658 0.23119 1.00198 0.0
H912 H 0.84123 0.19204 0.97368 0.0
H913 H 0.85961 0.19195 0.95754 0.0
H914 H 0.88581 0.27676 0.95419 0.0
H915 H 0.86635 0.27637 0.97028 0.0
H916 H 0.78986 0.26658 0.04519 0.0
H917 H 0.75703 0.24999 0.0586 0.0
H918 H 0.78001 0.19054 0.06579 0.0
H919 H 0.81265 0.20686 0.05224 0.0
Nd920 Nd 0.82168 0.5976 1.00115 0.0
Nd921 Nd 0.82363 0.59749 0.02136 0.0
C922 C 0.82965 0.61009 0.98202 0.0
C923 C 0.82748 0.62406 0.97307 0.0
C924 C 0.84792 0.65052 0.97068 0.0
C925 C 0.84863 0.66161 0.96138 0.0
C926 C 0.82903 0.64646 0.95416 0.0
C927 C 0.80781 0.62053 0.95677 0.0
C928 C 0.80711 0.60947 0.96605 0.0
C929 C 0.77462 0.55269 1.00799 0.0
C930 C 0.79767 0.63414 1.01245 0.0
C931 C 0.81205 0.58181 0.03993 0.0
C932 C 0.82356 0.57375 0.04816 0.0
C933 C 0.80905 0.54709 0.05167 0.0
C934 C 0.81939 0.53851 0.0593 0.0
C935 C 0.84444 0.55646 0.0637 0.0
C936 C 0.85899 0.58325 0.0602 0.0
C937 C 0.84868 0.59181 0.05249 0.0
C938 C 0.87993 0.63028 0.01701 0.0
C939 C 0.83453 0.55219 1.01027 0.0
O940 O 0.8473 0.62399 0.98886 0.0
O941 O 0.8079 0.58929 0.98554 0.0
O942 O 0.7889 0.55288 1.00052 0.0
O943 O 0.78532 0.57656 1.01171 0.0
O944 O 0.80279 0.62615 1.0039 0.0
O945 O 0.80475 0.62629 0.02057 0.0
O946 O 0.80318 0.56521 0.03246 0.0
O947 O 0.82436 0.60727 0.03726 0.0
O948 O 0.86849 0.62548 0.02555 0.0
O949 O 0.86128 0.61927 1.01035 0.0
O950 O 0.82819 0.55962 0.01858 0.0
O951 O 0.83649 0.56598 1.00217 0.0
H952 H 0.86414 0.66228 0.97584 0.0
H953 H 0.86539 0.68154 0.95968 0.0
H954 H 0.79201 0.60839 0.95152 0.0
H955 H 0.79118 0.58897 0.96758 0.0
H956 H 0.78967 0.53273 0.04845 0.0
H957 H 0.80782 0.51763 0.06166 0.0
H958 H 0.8782 0.59774 0.06348 0.0
H959 H 0.86039 0.61251 0.04995 0.0
Nd960 Nd 0.53761 0.97266 0.86766 0.0
Nd961 Nd 0.49203 0.92638 0.85621 0.0
C962 C 0.57312 1.01884 0.87579 0.0
C963 C 0.5928 0.04591 0.87244 0.0
C964 C 0.58728 0.05704 0.86417 0.0
C965 C 0.60828 0.07953 0.85956 0.0
C966 C 0.63503 0.0907 0.86303 0.0
C967 C 0.6399 0.08118 0.87191 0.0
C968 C 0.6188 0.05886 0.87659 0.0
C969 C 0.54019 0.9266 0.86734 0.0
C970 C 0.53911 0.97007 0.84301 0.0
C971 C 0.44996 0.88057 0.85151 0.0
C972 C 0.42487 0.86887 0.85738 0.0
C973 C 0.41621 0.84452 0.86241 0.0
C974 C 0.39509 0.83541 0.86922 0.0
C975 C 0.38214 0.85045 0.87108 0.0
C976 C 0.39113 0.87509 0.86621 0.0
C977 C 0.41238 0.8843 0.85946 0.0
C978 C 0.48741 0.97108 0.85907 0.0
C979 C 0.48787 0.92755 0.88058 0.0
O980 O 0.54745 1.0114 0.87463 0.0
O981 O 0.57882 1.00005 0.87335 0.0
O982 O 0.5472 0.94266 0.87485 0.0
O983 O 0.53417 0.93604 0.85999 0.0
O984 O 0.54565 0.98586 0.85096 0.0
O985 O 0.52223 0.94381 0.84367 0.0
O986 O 0.4708 0.88164 0.85607 0.0
O987 O 0.45612 0.90282 0.84671 0.0
O988 O 0.48216 0.95878 0.85066 0.0
O989 O 0.49439 0.95979 0.86529 0.0
O990 O 0.47891 0.91366 0.87233 0.0
O991 O 0.50913 0.95217 0.88072 0.0
H992 H 0.56725 0.04728 0.86087 0.0
H993 H 0.60399 0.0868 0.85281 0.0
H994 H 0.66033 0.08924 0.87473 0.0
H995 H 0.62324 0.05041 0.88299 0.0
H996 H 0.42605 0.83271 0.86117 0.0
H997 H 0.38816 0.816 0.87272 0.0
H998 H 0.3814 0.88697 0.8675 0.0
H999 H 0.4192 0.90371 0.85598 0.0
Nd1000 Nd 0.0937 0.57424 0.86746 0.0
Nd1001 Nd 0.14134 0.5737 0.85708 0.0
C1002 C 0.04754 0.56453 0.87553 0.0
C1003 C 1.02036 0.55824 0.87253 0.0
C1004 C 1.00522 0.53742 0.8658 0.0
C1005 C 0.98218 0.53552 0.86145 0.0
C1006 C 0.97436 0.55464 0.86369 0.0
C1007 C 0.9879 0.57358 0.87122 0.0
C1008 C 1.01076 0.57529 0.87563 0.0
C1009 C 0.14054 0.62267 0.8668 0.0
C1010 C 0.09762 0.57543 0.84284 0.0
C1011 C 0.18751 0.57689 0.85265 0.0
C1012 C 0.20301 0.56977 0.85947 0.0
C1013 C 0.20934 0.58116 0.86894 0.0
C1014 C 0.21815 0.57021 0.87622 0.0
C1015 C 0.22164 0.54808 0.87415 0.0
C1016 C 0.21595 0.53714 0.86457 0.0
C1017 C 0.20656 0.54777 0.85733 0.0
C1018 C 0.09537 0.52497 0.85988 0.0
C1019 C 0.13803 0.57163 0.88142 0.0
O1020 O 0.05398 0.5458 0.87403 0.0
O1021 O 0.06713 0.58888 0.87329 0.0
O1022 O 0.12392 0.61465 0.87419 0.0
O1023 O 0.1313 0.60621 0.85974 0.0
O1024 O 0.08147 0.56893 0.85072 0.0
O1025 O 0.12362 0.58293 0.84365 0.0
O1026 O 0.18589 0.59838 0.85487 0.0
O1027 O 0.16418 0.55634 0.84999 0.0
O1028 O 0.10869 0.53151 0.85165 0.0
O1029 O 0.10642 0.54362 0.866 0.0
O1030 O 0.15374 0.57831 0.87355 0.0
O1031 O 0.11239 0.56526 0.88076 0.0
H1032 H 1.01208 0.52376 0.8634 0.0
H1033 H 0.97181 0.52054 0.85576 0.0
H1034 H 0.9825 0.58874 0.87304 0.0
H1035 H 1.02213 0.59127 0.88091 0.0
H1036 H 0.2067 0.59809 0.87085 0.0
H1037 H 0.22236 0.57921 0.88347 0.0
H1038 H 0.21924 0.52069 0.86253 0.0
H1039 H 0.20142 0.53837 0.85013 0.0
Nd1040 Nd 0.48932 0.52647 0.86722 0.0
Nd1041 Nd 0.49223 0.57601 0.85808 0.0
C1042 C 0.49532 0.48705 0.87443 0.0
C1043 C 0.50686 0.47061 0.8713 0.0
C1044 C 0.52543 0.47903 0.86348 0.0
C1045 C 0.53085 0.46048 0.85883 0.0
C1046 C 0.51748 0.43338 0.86191 0.0
C1047 C 0.50112 0.42591 0.87042 0.0
C1048 C 0.49582 0.44446 0.87507 0.0
C1049 C 0.44089 0.52538 0.8669 0.0
C1050 C 0.49283 0.53201 0.84293 0.0
C1051 C 0.49093 0.61737 0.85087 0.0
C1052 C 0.50385 0.64358 0.856 0.0
C1053 C 0.48747 0.65203 0.86074 0.0
C1054 C 0.49885 0.67339 0.86741 0.0
C1055 C 0.52686 0.68683 0.86942 0.0
C1056 C 0.54334 0.67866 0.86461 0.0
C1057 C 0.53197 0.65723 0.85797 0.0
C1058 C 0.54066 0.58331 0.86508 0.0
C1059 C 0.49287 0.5733 0.88166 0.0
O1060 O 0.51255 0.51261 0.87611 0.0
O1061 O 0.47382 0.48297 0.86948 0.0
O1062 O 0.44881 0.51655 0.87418 0.0
O1063 O 0.45772 0.53377 0.85994 0.0
O1064 O 0.49398 0.51847 0.85069 0.0
O1065 O 0.49003 0.55347 0.84393 0.0
O1066 O 0.46996 0.59797 0.85549 0.0
O1067 O 0.50746 0.60966 0.84736 0.0
O1068 O 0.53377 0.60166 0.8656 0.0
O1069 O 0.52324 0.56319 0.86039 0.0
O1070 O 0.48318 0.58046 0.87418 0.0
O1071 O 0.50105 0.55554 0.88048 0.0
H1072 H 0.53411 0.49929 0.86051 0.0
H1073 H 0.54364 0.46674 0.85235 0.0
H1074 H 0.49017 0.40511 0.87291 0.0
H1075 H 0.48136 0.43777 0.88109 0.0
H1076 H 0.46572 0.64155 0.85952 0.0
H1077 H 0.48576 0.67979 0.87082 0.0
H1078 H 0.56501 0.68887 0.86598 0.0
H1079 H 0.54518 0.65092 0.85462 0.0
Nd1080 Nd 0.61499 0.81681 1.00701 0.0
Nd1081 Nd 0.61747 0.81987 0.02864 0.0
C1082 C 0.59958 0.81261 0.98838 0.0
C1083 C 0.59138 0.79273 0.98025 0.0
C1084 C 0.56488 0.78118 0.97649 0.0
C1085 C 0.55608 0.76187 0.969 0.0
C1086 C 0.57365 0.75372 0.96497 0.0
C1087 C 0.60028 0.76535 0.96873 0.0
C1088 C 0.60905 0.78463 0.97629 0.0
C1089 C 0.6474 0.79308 1.0119 0.0
C1090 C 0.56931 0.76219 0.0191 0.0
C1091 C 0.63638 0.82182 0.04673 0.0
C1092 C 0.64655 0.83698 0.05617 0.0
C1093 C 0.6744 0.8494 0.05838 0.0
C1094 C 0.68417 0.85998 0.06776 0.0
C1095 C 0.66636 0.8583 0.07529 0.0
C1096 C 0.63862 0.84714 0.07294 0.0
C1097 C 0.62881 0.83649 0.06352 0.0
C1098 C 0.57513 0.8294 0.02404 0.0
C1099 C 0.65105 0.87977 0.01666 0.0
O1100 O 0.58282 0.80529 0.99582 0.0
O1101 O 0.62511 0.82566 0.99111 0.0
O1102 O 0.64147 0.79773 1.00321 0.0
O1103 O 0.63696 0.80241 0.01814 0.0
O1104 O 0.57689 0.77516 1.01059 0.0
O1105 O 0.58356 0.77401 0.02719 0.0
O1106 O 0.65185 0.83138 0.03892 0.0
O1107 O 0.61042 0.80982 0.04464 0.0
O1108 O 0.58445 0.83013 0.03282 0.0
O1109 O 0.58924 0.82484 0.01779 0.0
O1110 O 0.6454 0.8669 0.02527 0.0
O1111 O 0.64166 0.86484 1.00852 0.0
H1112 H 0.55079 0.78695 0.97944 0.0
H1113 H 0.53532 0.75308 0.96645 0.0
H1114 H 0.61447 0.7598 0.96574 0.0
H1115 H 0.62961 0.79311 0.97904 0.0
H1116 H 0.68865 0.85004 0.05294 0.0
H1117 H 0.70571 0.86888 0.06917 0.0
H1118 H 0.62423 0.84537 0.07853 0.0
H1119 H 0.6072 0.82696 0.06212 0.0
Nd1120 Nd 0.25191 0.80898 1.00899 0.0
Nd1121 Nd 0.25104 0.80774 0.0285 0.0
C1122 C 0.25889 0.8041 0.9899 0.0
C1123 C 0.28024 0.81528 0.98222 0.0
C1124 C 0.30038 0.80785 0.98177 0.0
C1125 C 0.31908 0.81674 0.97402 0.0
C1126 C 0.31799 0.83314 0.96654 0.0
C1127 C 0.29819 0.84097 0.9671 0.0
C1128 C 0.27948 0.83207 0.97484 0.0
C1129 C 0.27054 0.86319 0.01551 0.0
C1130 C 0.30835 0.81797 0.01951 0.0
C1131 C 0.24664 0.81951 0.04718 0.0
C1132 C 0.23019 0.81659 0.05617 0.0
C1133 C 0.22347 0.83653 0.05847 0.0
C1134 C 0.21277 0.8371 0.06771 0.0
C1135 C 0.20863 0.81786 0.07501 0.0
C1136 C 0.21402 0.79705 0.07252 0.0
C1137 C 0.22475 0.79649 0.06325 0.0
C1138 C 0.24631 0.75896 0.02248 0.0
C1139 C 0.18943 0.78182 0.01755 0.0
O1140 O 0.26113 0.78937 0.99675 0.0
O1141 O 0.24999 0.81957 0.99332 0.0
O1142 O 0.25168 0.84993 1.00904 0.0
O1143 O 0.27711 0.8465 0.01913 0.0
O1144 O 0.29432 0.8124 1.01125 0.0
O1145 O 0.29699 0.82031 0.02767 0.0
O1146 O 0.24556 0.83321 0.03965 0.0
O1147 O 0.2507 0.79981 0.04458 0.0
O1148 O 0.25991 0.77306 0.03005 0.0
O1149 O 0.23389 0.77012 0.01839 0.0
O1150 O 0.20318 0.78927 0.02598 0.0
O1151 O 0.20402 0.78691 1.00942 0.0
H1152 H 0.30142 0.7947 0.98728 0.0
H1153 H 0.33388 0.81011 0.97375 0.0
H1154 H 0.29706 0.85389 0.96151 0.0
H1155 H 0.26411 0.83799 0.97496 0.0
H1156 H 0.22757 0.85248 0.05326 0.0
H1157 H 0.20839 0.85313 0.06923 0.0
H1158 H 0.21131 0.78194 0.0779 0.0
H1159 H 0.22993 0.78097 0.06181 0.0
Nd1160 Nd 0.26064 0.45509 1.00755 0.0
Nd1161 Nd 0.26148 0.45315 0.02906 0.0
C1162 C 0.27183 0.46992 0.98887 0.0
C1163 C 0.26011 0.47819 0.98075 0.0
C1164 C 0.27179 0.50575 0.97841 0.0
C1165 C 0.26129 0.51422 0.9708 0.0
C1166 C 0.23896 0.49534 0.96525 0.0
C1167 C 0.22719 0.46771 0.96758 0.0
C1168 C 0.23768 0.45921 0.97524 0.0
C1169 C 0.20439 0.42267 1.0124 0.0
C1170 C 0.25135 0.50078 0.01935 0.0
C1171 C 0.24439 0.43441 0.04718 0.0
C1172 C 0.24905 0.42436 0.05672 0.0
C1173 C 0.23154 0.39729 0.05943 0.0
C1174 C 0.23263 0.3879 0.06886 0.0
C1175 C 0.25133 0.40527 0.07594 0.0
C1176 C 0.26965 0.43219 0.07308 0.0
C1177 C 0.26844 0.44164 0.06362 0.0
C1178 C 0.31357 0.49522 0.02439 0.0
C1179 C 0.28749 0.41905 0.01716 0.0
O1180 O 0.28169 0.48667 0.99627 0.0
O1181 O 0.25909 0.44458 0.99167 0.0
O1182 O 0.21503 0.42848 1.00372 0.0
O1183 O 0.22412 0.43321 0.01868 0.0
O1184 O 0.25649 0.49286 1.01086 0.0
O1185 O 0.24936 0.48697 0.02752 0.0
O1186 O 0.23875 0.41895 0.03941 0.0
O1187 O 0.25834 0.46022 0.04505 0.0
O1188 O 0.305 0.48597 0.03318 0.0
O1189 O 0.29484 0.48113 0.01815 0.0
O1190 O 0.28056 0.42506 0.02577 0.0
O1191 O 0.28183 0.42828 1.00902 0.0
H1192 H 0.28912 0.52089 0.98249 0.0
H1193 H 0.27061 0.53567 0.96932 0.0
H1194 H 0.21015 0.45261 0.96338 0.0
H1195 H 0.22827 0.4378 0.97681 0.0
H1196 H 0.21615 0.3835 0.05435 0.0
H1197 H 0.21787 0.3672 0.0707 0.0
H1198 H 0.28476 0.44618 0.07818 0.0
H1199 H 0.28224 0.46263 0.06182 0.0
Nd1200 Nd 0.25539 0.45575 0.50607 0.0
Nd1201 Nd 0.21063 0.40719 0.4951 0.0
C1202 C 0.29693 0.50179 0.51069 0.0
C1203 C 0.3207 0.51534 0.50417 0.0
C1204 C 0.31888 0.52656 0.49518 0.0
C1205 C 0.34083 0.53792 0.48874 0.0
C1206 C 0.36499 0.53861 0.49127 0.0
C1207 C 0.36605 0.52516 0.49974 0.0
C1208 C 0.34409 0.51374 0.50619 0.0
C1209 C 0.2628 0.41263 0.50333 0.0
C1210 C 0.25839 0.45407 0.48189 0.0
C1211 C 0.17773 0.3593 0.48743 0.0
C1212 C 0.15241 0.33463 0.49 0.0
C1213 C 0.15341 0.31223 0.49371 0.0
C1214 C 0.13021 0.29049 0.49771 0.0
C1215 C 0.10573 0.29078 0.4979 0.0
C1216 C 0.1041 0.31193 0.49332 0.0
C1217 C 0.12731 0.33376 0.48939 0.0
C1218 C 0.20349 0.4508 0.49569 0.0
C1219 C 0.20924 0.41218 0.51976 0.0
O1220 O 0.27444 0.50014 0.50742 0.0
O1221 O 0.29318 0.47927 0.51462 0.0
O1222 O 0.26705 0.42489 0.51171 0.0
O1223 O 0.25461 0.42282 0.49706 0.0
O1224 O 0.26566 0.4691 0.4899 0.0
O1225 O 0.23984 0.42816 0.48215 0.0
O1226 O 0.19912 0.36454 0.49269 0.0
O1227 O 0.17596 0.38083 0.48559 0.0
O1228 O 0.19422 0.4329 0.48873 0.0
O1229 O 0.2122 0.44289 0.50273 0.0
O1230 O 0.20201 0.39584 0.51194 0.0
O1231 O 0.22632 0.43836 0.51891 0.0
H1232 H 0.30079 0.52723 0.49318 0.0
H1233 H 0.33991 0.54861 0.48229 0.0
H1234 H 0.38483 0.526 0.50186 0.0
H1235 H 0.34568 0.50435 0.51289 0.0
H1236 H 0.17243 0.31218 0.49402 0.0
H1237 H 0.13171 0.27418 0.50114 0.0
H1238 H 0.08539 0.31261 0.49343 0.0
H1239 H 0.1258 0.35051 0.48637 0.0
Nd1240 Nd 0.60905 0.80959 0.50532 0.0
Nd1241 Nd 0.66086 0.81722 0.49495 0.0
C1242 C 0.56062 0.80143 0.50922 0.0
C1243 C 0.54556 0.80955 0.50254 0.0
C1244 C 0.54059 0.80037 0.49273 0.0
C1245 C 0.53123 0.81194 0.48587 0.0
C1246 C 0.52605 0.83253 0.4887 0.0
C1247 C 0.53091 0.84162 0.49853 0.0
C1248 C 0.54064 0.83031 0.50536 0.0
C1249 C 0.65101 0.86129 0.50294 0.0
C1250 C 0.61313 0.81421 0.48112 0.0
C1251 C 0.70981 0.83543 0.48755 0.0
C1252 C 0.73607 0.84015 0.49106 0.0
C1253 C 0.74752 0.85495 0.49971 0.0
C1254 C 0.76871 0.85372 0.50428 0.0
C1255 C 0.77853 0.83769 0.50027 0.0
C1256 C 0.76897 0.82517 0.4911 0.0
C1257 C 0.74779 0.82644 0.4865 0.0
C1258 C 0.61914 0.76548 0.49495 0.0
C1259 C 0.65433 0.81096 0.51957 0.0
O1260 O 0.56451 0.78188 0.50616 0.0
O1261 O 0.58248 0.82165 0.51304 0.0
O1262 O 0.6375 0.85276 0.5111 0.0
O1263 O 0.64218 0.84284 0.4967 0.0
O1264 O 0.59736 0.80574 0.48894 0.0
O1265 O 0.63946 0.82328 0.48168 0.0
O1266 O 0.70132 0.85123 0.49106 0.0
O1267 O 0.69073 0.81 0.4872 0.0
O1268 O 0.63764 0.77562 0.48817 0.0
O1269 O 0.625 0.78161 0.50212 0.0
O1270 O 0.67115 0.81985 0.51185 0.0
O1271 O 0.62791 0.80134 0.51863 0.0
H1272 H 0.54445 0.78461 0.49026 0.0
H1273 H 0.52776 0.80453 0.47837 0.0
H1274 H 0.52645 0.85696 0.50105 0.0
H1275 H 0.54479 0.83811 0.51281 0.0
H1276 H 0.7389 0.86583 0.50333 0.0
H1277 H 0.77596 0.86351 0.51135 0.0
H1278 H 0.7761 0.8124 0.48796 0.0
H1279 H 0.73916 0.81497 0.47981 0.0
Nd1280 Nd 0.25601 0.80968 0.50566 0.0
Nd1281 Nd 0.25758 0.85676 0.49507 0.0
C1282 C 0.25488 0.7654 0.51071 0.0
C1283 C 0.24327 0.74136 0.50433 0.0
C1284 C 0.25849 0.73982 0.49646 0.0
C1285 C 0.24709 0.71773 0.49014 0.0
C1286 C 0.22036 0.69664 0.49163 0.0
C1287 C 0.20427 0.69944 0.49885 0.0
C1288 C 0.21572 0.72145 0.50523 0.0
C1289 C 0.20713 0.80572 0.50183 0.0
C1290 C 0.25641 0.80967 0.48147 0.0
C1291 C 0.24626 0.89216 0.48725 0.0
C1292 C 0.24067 0.913 0.49074 0.0
C1293 C 0.22349 0.9082 0.49883 0.0
C1294 C 0.22282 0.92966 0.50335 0.0
C1295 C 0.23968 0.95617 0.49996 0.0
C1296 C 0.2549 0.96052 0.49131 0.0
C1297 C 0.25531 0.93897 0.48671 0.0
C1298 C 0.30722 0.86155 0.49683 0.0
C1299 C 0.25865 0.85486 0.51973 0.0
O1300 O 0.27729 0.78645 0.50757 0.0
O1301 O 0.23736 0.77171 0.51423 0.0
O1302 O 0.21336 0.8006 0.51041 0.0
O1303 O 0.22647 0.81349 0.49598 0.0
O1304 O 0.26128 0.80018 0.48957 0.0
O1305 O 0.25098 0.82954 0.4817 0.0
O1306 O 0.22781 0.86713 0.48916 0.0
O1307 O 0.27109 0.89713 0.48872 0.0
O1308 O 0.29978 0.86993 0.48923 0.0
O1309 O 0.28948 0.85251 0.50356 0.0
O1310 O 0.2513 0.86355 0.51182 0.0
O1311 O 0.26707 0.83727 0.51884 0.0
H1312 H 0.27946 0.75533 0.49531 0.0
H1313 H 0.26003 0.71611 0.48465 0.0
H1314 H 0.18349 0.68352 0.50005 0.0
H1315 H 0.20311 0.72258 0.51097 0.0
H1316 H 0.21188 0.88822 0.50203 0.0
H1317 H 0.21059 0.92578 0.50992 0.0
H1318 H 0.26826 0.98075 0.48856 0.0
H1319 H 0.26856 0.94289 0.48043 0.0
Nd1320 Nd 0.13476 0.56835 0.33466 0.0
Nd1321 Nd 0.13518 0.56879 0.35434 0.0
C1322 C 0.1178 0.5643 0.31609 0.0
C1323 C 0.10542 0.54834 0.30692 0.0
C1324 C 0.07912 0.54213 0.3041 0.0
C1325 C 0.06888 0.53159 0.29473 0.0
C1326 C 0.08467 0.52699 0.28783 0.0
C1327 C 0.11057 0.53208 0.29085 0.0
C1328 C 0.12083 0.54271 0.30022 0.0
C1329 C 0.17916 0.56352 0.34019 0.0
C1330 C 0.10005 0.5067 0.34562 0.0
C1331 C 0.14788 0.57553 0.37339 0.0
C1332 C 0.15782 0.59617 0.3813 0.0
C1333 C 0.18451 0.60687 0.38481 0.0
C1334 C 0.19402 0.62527 0.39262 0.0
C1335 C 0.177 0.63334 0.39717 0.0
C1336 C 0.15031 0.62276 0.3936 0.0
C1337 C 0.1408 0.60435 0.38577 0.0
C1338 C 0.09951 0.58771 0.34795 0.0
C1339 C 0.18219 0.62511 0.34381 0.0
O1340 O 0.10238 0.56093 0.32374 0.0
O1341 O 0.14244 0.57042 0.31855 0.0
O1342 O 0.17817 0.57706 0.3327 0.0
O1343 O 0.15585 0.55121 0.34454 0.0
O1344 O 0.10591 0.52055 0.33722 0.0
O1345 O 0.10976 0.52109 0.35376 0.0
O1346 O 0.16501 0.57901 0.3664 0.0
O1347 O 0.12316 0.56595 0.37011 0.0
O1348 O 0.09393 0.569 0.35445 0.0
O1349 O 0.12281 0.59416 0.34436 0.0
O1350 O 0.17445 0.61062 0.35196 0.0
O1351 O 0.16772 0.61434 0.33573 0.0
H1352 H 0.06681 0.54657 0.309 0.0
H1353 H 0.04902 0.52832 0.29275 0.0
H1354 H 0.12324 0.52836 0.28589 0.0
H1355 H 0.14125 0.54737 0.30207 0.0
H1356 H 0.19799 0.60068 0.3816 0.0
H1357 H 0.21453 0.63266 0.39525 0.0
H1358 H 0.13674 0.62878 0.39684 0.0
H1359 H 0.12009 0.59641 0.38328 0.0
Nd1360 Nd 0.49987 0.57728 0.33477 0.0
Nd1361 Nd 0.499 0.57702 0.35427 0.0
C1362 C 0.5041 0.5656 0.31603 0.0
C1363 C 0.51992 0.56961 0.30677 0.0
C1364 C 0.53517 0.55668 0.30526 0.0
C1365 C 0.54591 0.55666 0.29593 0.0
C1366 C 0.54147 0.5693 0.28777 0.0
C1367 C 0.52711 0.58313 0.28944 0.0
C1368 C 0.51653 0.58326 0.29877 0.0
C1369 C 0.50375 0.62606 0.34025 0.0
C1370 C 0.56159 0.60418 0.3458 0.0
C1371 C 0.49158 0.58196 0.37335 0.0
C1372 C 0.47027 0.57061 0.38108 0.0
C1373 C 0.45078 0.57885 0.38184 0.0
C1374 C 0.43209 0.56979 0.3896 0.0
C1375 C 0.43249 0.55238 0.39683 0.0
C1376 C 0.45175 0.54388 0.39599 0.0
C1377 C 0.47046 0.55295 0.38823 0.0
C1378 C 0.48055 0.5226 0.34786 0.0
C1379 C 0.44232 0.56685 0.34377 0.0
O1380 O 0.50734 0.55316 0.32355 0.0
O1381 O 0.49815 0.58397 0.31869 0.0
O1382 O 0.49005 0.61102 0.33289 0.0
O1383 O 0.51651 0.61563 0.34461 0.0
O1384 O 0.54776 0.59546 0.33741 0.0
O1385 O 0.54698 0.60021 0.35385 0.0
O1386 O 0.48886 0.5962 0.36642 0.0
O1387 O 0.50114 0.56696 0.37001 0.0
O1388 O 0.49942 0.53603 0.35432 0.0
O1389 O 0.47385 0.53915 0.34427 0.0
O1390 O 0.45674 0.57376 0.35195 0.0
O1391 O 0.45346 0.56344 0.33573 0.0
H1392 H 0.53808 0.54578 0.31121 0.0
H1393 H 0.55729 0.54624 0.29509 0.0
H1394 H 0.52279 0.59284 0.28343 0.0
H1395 H 0.50456 0.59308 0.29959 0.0
H1396 H 0.45022 0.59273 0.37654 0.0
H1397 H 0.41781 0.57705 0.39008 0.0
H1398 H 0.45241 0.53022 0.40136 0.0
H1399 H 0.48535 0.54643 0.3879 0.0
Nd1400 Nd 0.48831 0.93117 0.33442 0.0
Nd1401 Nd 0.4904 0.93097 0.3548 0.0
C1402 C 0.49563 0.9432 0.31522 0.0
C1403 C 0.4945 0.95794 0.30629 0.0
C1404 C 0.51612 0.98377 0.30384 0.0
C1405 C 0.5173 0.99528 0.29457 0.0
C1406 C 0.49701 0.9812 0.28743 0.0
C1407 C 0.47475 0.95594 0.2901 0.0
C1408 C 0.47358 0.94447 0.29935 0.0
C1409 C 0.44158 0.88617 0.34139 0.0
C1410 C 0.46448 0.96773 0.34591 0.0
C1411 C 0.47901 0.9151 0.37337 0.0
C1412 C 0.49053 0.90687 0.38158 0.0
C1413 C 0.47782 0.87947 0.38429 0.0
C1414 C 0.48809 0.87097 0.39197 0.0
C1415 C 0.51123 0.88968 0.39722 0.0
C1416 C 0.52389 0.91716 0.39456 0.0
C1417 C 0.51369 0.92568 0.38681 0.0
C1418 C 0.54658 0.96393 0.35029 0.0
C1419 C 0.50113 0.8856 0.3436 0.0
O1420 O 0.51437 0.95588 0.32188 0.0
O1421 O 0.47313 0.9239 0.31896 0.0
O1422 O 0.45578 0.88639 0.33389 0.0
O1423 O 0.45223 0.91005 0.34509 0.0
O1424 O 0.46993 0.96011 0.33734 0.0
O1425 O 0.47125 0.95955 0.35403 0.0
O1426 O 0.46996 0.89862 0.36586 0.0
O1427 O 0.49136 0.94059 0.37074 0.0
O1428 O 0.53532 0.9591 0.35887 0.0
O1429 O 0.52777 0.95289 0.34369 0.0
O1430 O 0.49523 0.89329 0.35195 0.0
O1431 O 0.50267 0.89912 0.33546 0.0
H1432 H 0.53278 0.99466 0.30893 0.0
H1433 H 0.53487 1.01466 0.29283 0.0
H1434 H 0.45841 0.94462 0.28494 0.0
H1435 H 0.45673 0.92446 0.30092 0.0
H1436 H 0.45978 0.86454 0.38047 0.0
H1437 H 0.47756 0.84974 0.39392 0.0
H1438 H 0.54188 0.93207 0.39841 0.0
H1439 H 0.52396 0.94694 0.38492 0.0
C1440 C 0.19693 0.22136 0.19535 0.0
C1441 C 0.20364 0.23983 0.20307 0.0
C1442 C 0.19187 0.19533 0.19732 0.0
C1443 C 0.17979 0.14352 0.21521 0.0
H1444 H 0.24093 0.14364 0.20247 0.0
C1445 C 0.19943 0.05367 0.2182 0.0
C1446 C 0.20345 0.04591 0.20884 0.0
C1447 C 0.20137 0.07891 0.21945 0.0
C1448 C 0.22375 0.14327 0.20608 0.0
H1449 H 0.20739 0.24514 0.21895 0.0
H1450 H 0.19902 0.19975 0.22231 0.0
H1451 H 0.23292 0.18095 0.19971 0.0
H1452 H 0.21203 0.05755 0.19349 0.0
H1453 H 0.21444 0.10027 0.19551 0.0
H1454 H 0.16969 0.10479 0.22111 0.0
C1455 C 0.19766 0.20535 0.2148 0.0
C1456 C 0.21907 0.16445 0.20442 0.0
C1457 C 0.20298 0.23139 0.21283 0.0
C1458 C 0.21 0.06359 0.20086 0.0
C1459 C 0.21133 0.08814 0.20203 0.0
C1460 C 0.18402 0.12169 0.21666 0.0
C1461 C 0.19331 0.18767 0.20702 0.0
C1462 C 0.19679 0.16441 0.20878 0.0
C1463 C 0.20681 0.09604 0.21128 0.0
C1464 C 0.20561 0.12111 0.21184 0.0
H1465 H 0.1968 0.22739 0.18779 0.0
H1466 H 0.18852 0.18172 0.19124 0.0
H1467 H 0.1629 0.14372 0.21882 0.0
H1468 H 0.19381 0.0399 0.22438 0.0
H1469 H 0.19779 0.08464 0.22665 0.0
C1470 C 1.02503 0.142 0.21932 0.0
C1471 C 1.02712 0.16278 0.21317 0.0
C1472 C 0.99964 0.12166 0.22244 0.0
C1473 C 0.92565 0.09198 0.21813 0.0
H1474 H 0.93607 0.03958 0.20343 0.0
C1475 C 0.83837 1.00766 0.19653 0.0
C1476 C 0.83521 0.9819 0.19759 0.0
C1477 C 0.86243 0.03036 0.19951 0.0
C1478 C 0.93269 0.05369 0.20767 0.0
H1479 H 1.0054 0.18242 0.20776 0.0
H1480 H 0.9609 0.14584 0.21256 0.0
H1481 H 0.97485 0.07831 0.21064 0.0
H1482 H 0.85453 0.9594 0.20216 0.0
H1483 H 0.89629 0.9986 0.20747 0.0
H1484 H 0.88332 0.0673 0.21494 0.0
C1485 C 0.97869 0.14505 0.21491 0.0
C1486 C 0.9549 0.07579 0.21191 0.0
C1487 C 1.00419 0.16577 0.21198 0.0
C1488 C 0.85682 0.97909 0.20104 0.0
C1489 C 0.8807 1.00164 0.20415 0.0
C1490 C 0.90327 0.06958 0.21397 0.0
C1491 C 0.97619 0.12154 0.21918 0.0
C1492 C 0.95171 0.09547 0.217 0.0
C1493 C 0.88326 0.02737 0.2038 0.0
C1494 C 0.90673 0.05061 0.20849 0.0
H1495 H 0.04222 0.13922 0.22067 0.0
H1496 H 0.99814 0.10404 0.22604 0.0
H1497 H 0.92274 0.10697 0.22195 0.0
H1498 H 0.82164 1.01006 0.19398 0.0
H1499 H 0.86418 0.05007 0.19889 0.0
C1500 C 0.08842 0.88718 0.20117 0.0
C1501 C 0.08462 0.86235 0.19784 0.0
C1502 C 0.06631 0.88934 0.20428 0.0
C1503 C 1.00004 0.84645 0.21544 0.0
H1504 H 0.98904 0.90691 0.21032 0.0
C1505 C 0.90184 0.84712 0.21422 0.0
C1506 C 0.90426 0.87283 0.21443 0.0
C1507 C 0.92366 0.84412 0.21715 0.0
C1508 C 0.99228 0.89026 0.2121 0.0
H1509 H 0.05528 0.82064 0.19466 0.0
H1510 H 1.01612 0.82446 0.19986 0.0
H1511 H 1.02726 0.90609 0.20283 0.0
H1512 H 0.92836 0.9136 0.22034 0.0
H1513 H 0.96538 0.9078 0.22576 0.0
H1514 H 0.9641 0.83002 0.22434 0.0
C1515 C 1.0362 0.84219 0.20015 0.0
C1516 C 1.01399 0.88968 0.20768 0.0
C1517 C 0.05839 0.8401 0.19703 0.0
C1518 C 0.92588 0.89362 0.21975 0.0
C1519 C 0.94733 0.89038 0.22289 0.0
C1520 C 0.97815 0.84695 0.21984 0.0
C1521 C 1.04019 0.8665 0.20422 0.0
C1522 C 1.01768 0.86749 0.20913 0.0
C1523 C 0.94767 0.86674 0.22046 0.0
C1524 C 0.97379 0.86862 0.21804 0.0
H1525 H 0.10854 0.90419 0.20227 0.0
H1526 H 0.06995 0.90827 0.20744 0.0
H1527 H 1.00297 0.82943 0.21686 0.0
H1528 H 0.88465 0.83021 0.21069 0.0
H1529 H 0.92308 0.82531 0.21547 0.0
C1530 C 0.20513 0.17366 0.36285 0.0
C1531 C 0.21548 0.16413 0.35537 0.0
C1532 C 0.17999 0.1729 0.36191 0.0
C1533 C 0.11347 0.14064 0.34752 0.0
H1534 H 0.10328 0.19423 0.36133 0.0
C1535 C 1.0119 0.14542 0.34409 0.0
C1536 C 1.00225 0.15334 0.35232 0.0
C1537 C 1.03749 0.14672 0.34414 0.0
C1538 C 0.10535 0.17875 0.3575 0.0
H1539 H 0.20621 0.14594 0.34089 0.0
H1540 H 0.1624 0.14469 0.33918 0.0
H1541 H 0.14737 0.19701 0.36158 0.0
H1542 H 1.0132 0.16898 0.36713 0.0
H1543 H 0.05758 0.17161 0.36721 0.0
H1544 H 0.07132 0.12262 0.34336 0.0
C1545 C 0.1739 0.15286 0.34588 0.0
C1546 C 0.13105 0.18033 0.35765 0.0
C1547 C 0.19941 0.15384 0.3468 0.0
C1548 C 1.01955 0.16276 0.3606 0.0
C1549 C 0.04535 0.16438 0.36061 0.0
C1550 C 0.08771 0.13914 0.34733 0.0
C1551 C 0.1635 0.16236 0.35345 0.0
C1552 C 0.13582 0.16117 0.35276 0.0
C1553 C 0.05498 0.15632 0.35239 0.0
C1554 C 0.08291 0.15804 0.3524 0.0
H1555 H 0.21644 0.18155 0.36962 0.0
H1556 H 0.1732 0.18002 0.36806 0.0
H1557 H 0.11557 0.12517 0.34371 0.0
H1558 H 0.9995 0.13789 0.33753 0.0
H1559 H 0.0437 0.1405 0.33757 0.0
C1560 C 0.92084 0.87526 0.36099 0.0
C1561 C 0.91606 0.8596 0.35239 0.0
C1562 C 0.9201 0.89976 0.36093 0.0
C1563 C 0.89651 0.9412 0.34603 0.0
H1564 H 0.94396 0.9985 0.36377 0.0
C1565 C 0.9047 0.05012 0.34644 0.0
C1566 C 0.90854 0.06302 0.35567 0.0
C1567 C 0.90557 1.02563 0.34544 0.0
C1568 C 0.93018 0.98277 0.35881 0.0
H1569 H 0.90646 0.85846 0.33691 0.0
H1570 H 0.9048 0.90048 0.33681 0.0
H1571 H 0.94516 0.95657 0.36333 0.0
H1572 H 0.91674 0.05943 0.371 0.0
H1573 H 0.9186 1.01814 0.36928 0.0
H1574 H 0.88166 0.96774 0.3415 0.0
C1575 C 0.90913 0.89388 0.3437 0.0
C1576 C 0.93086 0.9583 0.35857 0.0
C1577 C 0.9102 0.86953 0.34374 0.0
C1578 C 0.91354 0.0505 0.36375 0.0
C1579 C 0.91486 0.02656 0.36273 0.0
C1580 C 0.89583 0.96581 0.34627 0.0
C1581 C 0.91428 0.90983 0.35228 0.0
C1582 C 0.91385 0.93666 0.35226 0.0
C1583 C 0.91091 1.01334 0.35358 0.0
C1584 C 0.91244 0.98716 0.35277 0.0
H1585 H 0.92556 0.86878 0.36783 0.0
H1586 H 0.92387 0.91068 0.36779 0.0
H1587 H 0.8828 0.92543 0.34107 0.0
H1588 H 0.90081 0.05879 0.33999 0.0
H1589 H 0.90247 1.01659 0.33822 0.0
C1590 C 1.01603 0.86823 0.34678 0.0
C1591 C 1.00796 0.85379 0.35576 0.0
C1592 C 1.04057 0.89367 0.346 0.0
C1593 C 0.10719 0.94005 0.3598 0.0
H1594 H 0.11302 0.99494 0.34168 0.0
C1595 C 0.20061 0.05185 0.36147 0.0
C1596 C 0.21008 0.06741 0.35277 0.0
C1597 C 0.17653 1.02605 0.36158 0.0
C1598 C 0.11215 0.97993 0.34676 0.0
H1599 H 1.02043 0.85589 0.37094 0.0
H1600 H 0.06208 0.89916 0.36966 0.0
H1601 H 0.0716 0.95077 0.34207 0.0
H1602 H 0.20032 0.06683 0.33731 0.0
H1603 H 0.15916 1.02258 0.33749 0.0
H1604 H 0.14761 0.96911 0.36451 0.0
C1605 C 0.05002 0.89102 0.36307 0.0
C1606 C 0.088 0.95417 0.34698 0.0
C1607 C 1.02564 0.86584 0.36384 0.0
C1608 C 0.1942 0.0559 0.34421 0.0
C1609 C 0.1701 0.03023 0.34433 0.0
C1610 C 0.13122 0.96575 0.35961 0.0
C1611 C 0.05825 0.90581 0.35416 0.0
C1612 C 0.08474 0.93352 0.35356 0.0
C1613 C 0.16055 1.01452 0.35302 0.0
C1614 C 0.13439 0.98652 0.35313 0.0
H1615 H 1.00313 0.86011 0.34036 0.0
H1616 H 0.04568 0.90373 0.33893 0.0
H1617 H 0.10652 0.92509 0.36485 0.0
H1618 H 0.21178 0.05965 0.36827 0.0
H1619 H 0.17023 1.01534 0.36852 0.0
C1620 C 0.9022 0.83799 0.82678 0.0
C1621 C 0.87783 0.81626 0.83018 0.0
C1622 C 0.90336 0.86188 0.8239 0.0
C1623 C 0.85835 0.8857 0.81464 0.0
H1624 H 0.92104 0.95634 0.81927 0.0
C1625 C 0.86231 0.98639 0.81681 0.0
C1626 C 0.88837 1.00935 0.81611 0.0
C1627 C 0.85826 0.96118 0.81398 0.0
C1628 C 0.90367 0.93671 0.81764 0.0
H1629 H 0.83581 0.80226 0.83378 0.0
H1630 H 0.83794 0.84474 0.82917 0.0
H1631 H 0.92039 0.91676 0.82587 0.0
H1632 H 0.9284 1.02493 0.80952 0.0
H1633 H 0.9208 0.98136 0.80427 0.0
H1634 H 0.84113 0.90617 0.80682 0.0
C1635 C 0.85605 0.84312 0.82848 0.0
C1636 C 0.90322 0.91403 0.82153 0.0
C1637 C 0.85491 0.81908 0.83127 0.0
C1638 C 0.90826 1.00766 0.81049 0.0
C1639 C 0.90398 0.98257 0.80747 0.0
C1640 C 0.85871 0.90854 0.81079 0.0
C1641 C 0.88002 0.86434 0.82441 0.0
C1642 C 0.88042 0.88834 0.8202 0.0
C1643 C 0.88014 0.95901 0.81027 0.0
C1644 C 0.88127 0.93428 0.81236 0.0
H1645 H 0.91984 0.83595 0.82568 0.0
H1646 H 0.92208 0.87775 0.82073 0.0
H1647 H 0.84073 0.86602 0.81331 0.0
H1648 H 0.84605 0.98731 0.8206 0.0
H1649 H 0.83931 0.94333 0.81597 0.0
C1650 C 0.24175 0.06667 0.83332 0.0
C1651 C 0.26415 0.07407 0.82712 0.0
C1652 C 0.21615 0.04553 0.83062 0.0
C1653 C 0.18139 0.98257 0.8193 0.0
H1654 H 0.12571 0.99789 0.81041 0.0
C1655 C 0.07542 0.89499 0.81386 0.0
C1656 C 0.05576 0.89935 0.81834 0.0
C1657 C 0.10054 0.91708 0.81127 0.0
C1658 C 0.14094 0.99319 0.81292 0.0
H1659 H 0.27797 0.06439 0.81363 0.0
H1660 H 0.23346 0.02671 0.80921 0.0
H1661 H 0.17036 0.03508 0.81507 0.0
H1662 H 0.04556 0.9294 0.82299 0.0
H1663 H 0.08927 0.96746 0.81916 0.0
H1664 H 0.15205 0.9409 0.818 0.0
C1665 C 0.23562 0.03777 0.81594 0.0
C1666 C 0.1664 1.01449 0.81557 0.0
C1667 C 0.26098 0.05914 0.81852 0.0
C1668 C 0.06046 0.92569 0.81944 0.0
C1669 C 0.08565 0.9476 0.81716 0.0
C1670 C 0.15578 0.96124 0.81693 0.0
C1671 C 0.21308 0.03126 0.82187 0.0
C1672 C 0.18648 1.00914 0.81892 0.0
C1673 C 0.10651 0.94359 0.81353 0.0
C1674 C 0.13498 0.96622 0.81394 0.0
H1675 H 0.24388 0.07764 0.84006 0.0
H1676 H 0.19882 0.04034 0.83532 0.0
H1677 H 0.19696 0.9783 0.8218 0.0
H1678 H 0.07193 0.87468 0.8129 0.0
H1679 H 0.11584 0.91328 0.80815 0.0
C1680 C 0.99557 0.17124 0.81921 0.0
C1681 C 0.99212 0.17989 0.82848 0.0
C1682 C 1.0182 0.16874 0.81733 0.0
C1683 C 0.08674 0.2076 0.82262 0.0
H1684 H 0.09724 0.15092 0.81169 0.0
C1685 C 0.18434 0.20706 0.82442 0.0
C1686 C 0.18653 0.18737 0.819 0.0
C1687 C 0.16351 0.21231 0.82237 0.0
C1688 C 0.09461 0.16726 0.81442 0.0
H1689 H 1.00723 0.18974 0.8434 0.0
H1690 H 0.04801 0.18651 0.83997 0.0
H1691 H 0.05184 0.14077 0.81652 0.0
H1692 H 0.17343 0.16264 0.80585 0.0
H1693 H 0.13735 0.17255 0.80203 0.0
H1694 H 0.12911 0.2344 0.82033 0.0
C1695 C 1.03303 0.18151 0.83423 0.0
C1696 C 0.06872 0.16118 0.81739 0.0
C1697 C 1.00992 0.18338 0.83617 0.0
C1698 C 0.17137 0.17721 0.81032 0.0
C1699 C 0.15069 0.18278 0.80818 0.0
C1700 C 0.11251 0.21388 0.81944 0.0
C1701 C 1.03779 0.17546 0.82467 0.0
C1702 C 0.0649 0.18114 0.82178 0.0
C1703 C 0.14486 0.19809 0.81482 0.0
C1704 C 0.11695 0.19358 0.81562 0.0
H1705 H 0.98163 0.16795 0.81323 0.0
H1706 H 1.02159 0.16398 0.80993 0.0
H1707 H 0.08382 0.22346 0.8257 0.0
H1708 H 0.19605 0.21551 0.83108 0.0
H1709 H 0.16002 0.22458 0.82758 0.0
C1710 C 0.87282 0.86801 0.67274 0.0
C1711 C 0.86949 0.8901 0.6753 0.0
C1712 C 0.89824 0.86914 0.67363 0.0
C1713 C 0.97414 0.91822 0.67457 0.0
H1714 H 0.97852 0.85489 0.68172 0.0
C1715 C 0.07472 0.91216 0.66914 0.0
C1716 C 0.08187 0.89931 0.67647 0.0
C1717 C 0.04942 0.9116 0.66936 0.0
C1718 C 0.97794 0.87293 0.67972 0.0
H1719 H 0.89147 0.93128 0.68062 0.0
H1720 H 0.93574 0.93355 0.68201 0.0
H1721 H 0.93459 0.85302 0.68185 0.0
H1722 H 0.06696 0.87551 0.68978 0.0
H1723 H 1.02282 0.87342 0.68992 0.0
H1724 H 1.01753 0.93801 0.67234 0.0
C1725 C 0.91847 0.91492 0.67946 0.0
C1726 C 0.9524 0.87179 0.67972 0.0
C1727 C 0.8928 0.91353 0.67879 0.0
C1728 C 0.06243 0.88554 0.68394 0.0
C1729 C 1.03686 0.88432 0.684 0.0
C1730 C 0.99965 0.91922 0.67441 0.0
C1731 C 0.9219 0.89279 0.67683 0.0
C1732 C 0.94977 0.89437 0.67713 0.0
C1733 C 1.02976 0.89754 0.67677 0.0
C1734 C 1.00221 0.89658 0.67697 0.0
H1735 H 0.85568 0.84979 0.66984 0.0
H1736 H 0.8995 0.85161 0.67142 0.0
H1737 H 0.97352 0.93616 0.67245 0.0
H1738 H 0.08906 0.92337 0.66333 0.0
H1739 H 0.04515 0.92203 0.66359 0.0
C1740 C 0.1772 0.18491 0.66828 0.0
C1741 C 0.16952 0.19362 0.6768 0.0
C1742 C 0.17866 0.16075 0.66821 0.0
C1743 C 0.1569 0.09508 0.68257 0.0
H1744 H 0.20911 0.09031 0.66568 0.0
C1745 C 0.17128 0.99829 0.68274 0.0
C1746 C 0.17918 0.99111 0.67388 0.0
C1747 C 0.17048 1.02282 0.68357 0.0
C1748 C 0.19397 0.09074 0.67038 0.0
H1749 H 0.15725 0.18251 0.69199 0.0
H1750 H 0.15994 0.14124 0.6919 0.0
H1751 H 0.20663 0.1315 0.66596 0.0
H1752 H 0.19238 1.00515 0.65901 0.0
H1753 H 0.19088 0.04665 0.66037 0.0
H1754 H 0.14424 0.05416 0.68697 0.0
C1755 C 0.16467 0.15281 0.68516 0.0
C1756 C 0.19256 0.11484 0.67054 0.0
C1757 C 0.16334 0.17696 0.68523 0.0
C1758 C 0.1864 1.00962 0.66601 0.0
C1759 C 0.18568 0.03394 0.66683 0.0
C1760 C 0.15826 0.07086 0.68239 0.0
C1761 C 0.17237 0.14396 0.67665 0.0
C1762 C 0.17391 0.11771 0.67659 0.0
C1763 C 0.17766 0.04134 0.6756 0.0
C1764 C 0.17671 0.0679 0.67622 0.0
H1765 H 0.18195 0.19669 0.66158 0.0
H1766 H 0.18431 0.15503 0.66141 0.0
H1767 H 0.14192 0.09572 0.6873 0.0
H1768 H 0.16528 0.98476 0.689 0.0
H1769 H 0.16432 0.02727 0.69053 0.0
C1770 C 0.88477 1.00112 0.6685 0.0
C1771 C 0.87479 0.98539 0.67714 0.0
C1772 C 0.90896 0.02681 0.66856 0.0
C1773 C 0.9723 0.0721 0.68401 0.0
H1774 H 0.9804 0.12745 0.66566 0.0
C1775 C 0.06845 0.18339 0.68487 0.0
C1776 C 0.07869 0.19651 0.67576 0.0
C1777 C 0.04334 0.15848 0.68547 0.0
C1778 C 0.9789 0.11232 0.67081 0.0
H1779 H 0.88367 0.98551 0.69268 0.0
H1780 H 0.92487 0.02957 0.69279 0.0
H1781 H 0.93885 0.08366 0.66566 0.0
H1782 H 0.06971 0.19298 0.66018 0.0
H1783 H 1.0265 0.1509 0.66121 0.0
H1784 H 1.01245 0.10098 0.68917 0.0
C1785 C 0.91435 1.02215 0.68586 0.0
C1786 C 0.9547 0.08677 0.67079 0.0
C1787 C 0.89021 0.99659 0.68581 0.0
C1788 C 0.06256 0.18401 0.66737 0.0
C1789 C 1.03745 0.15956 0.66798 0.0
C1790 C 0.99653 0.09773 0.68404 0.0
C1791 C 0.92446 0.03803 0.67725 0.0
C1792 C 0.95073 0.06586 0.67735 0.0
C1793 C 1.02727 0.14584 0.67701 0.0
C1794 C 1.00057 0.11848 0.67738 0.0
H1795 H 0.87396 0.99353 0.66163 0.0
H1796 H 0.91572 0.03767 0.66166 0.0
H1797 H 0.97085 0.05695 0.68913 0.0
H1798 H 0.08036 0.19177 0.69149 0.0
H1799 H 1.03662 0.14906 0.69262 0.0
C1800 C 0.86317 0.38523 0.55133 0.0
C1801 C 0.86912 0.3817 0.54157 0.0
C1802 C 0.86065 0.40764 0.55376 0.0
C1803 C 0.83501 0.44577 0.54257 0.0
H1804 H 0.88892 0.51268 0.55467 0.0
C1805 C 0.86333 0.55169 0.52939 0.0
C1806 C 0.87096 0.57187 0.53653 0.0
C1807 C 0.85556 0.52532 0.53228 0.0
C1808 C 0.87321 0.49392 0.55151 0.0
H1809 H 0.87941 0.39967 0.52698 0.0
H1810 H 0.87515 0.43841 0.53126 0.0
H1811 H 0.89199 0.47196 0.55685 0.0
H1812 H 0.87417 0.58017 0.55226 0.0
H1813 H 0.86075 0.53451 0.5572 0.0
H1814 H 0.81752 0.46821 0.53653 0.0
C1815 C 0.87234 0.42396 0.53697 0.0
C1816 C 0.87496 0.47072 0.55282 0.0
C1817 C 0.87523 0.40204 0.53459 0.0
C1818 C 0.86912 0.56513 0.54656 0.0
C1819 C 0.86119 0.53898 0.54943 0.0
C1820 C 0.83329 0.46899 0.54122 0.0
C1821 C 0.86378 0.42612 0.54639 0.0
C1822 C 0.85661 0.44697 0.54799 0.0
C1823 C 0.8553 0.51912 0.54233 0.0
C1824 C 0.85311 0.49345 0.54534 0.0
H1825 H 0.85843 0.3697 0.55681 0.0
H1826 H 0.85449 0.40954 0.56112 0.0
H1827 H 0.82083 0.42742 0.53873 0.0
H1828 H 0.86424 0.55647 0.52163 0.0
H1829 H 0.85122 0.51023 0.52667 0.0
C1830 C 0.52111 0.31325 0.54187 0.0
C1831 C 0.50556 0.31281 0.5338 0.0
C1832 C 0.54529 0.33659 0.5441 0.0
C1833 C 0.57141 0.40768 0.54329 0.0
H1834 H 0.6412 0.41489 0.54953 0.0
C1835 C 0.67108 0.50286 0.5403 0.0
C1836 C 0.6939 0.50323 0.5444 0.0
C1837 C 0.64516 0.48272 0.543 0.0
C1838 C 0.62159 0.41307 0.54816 0.0
H1839 H 0.50338 0.33494 0.52126 0.0
H1840 H 0.54589 0.37658 0.52532 0.0
H1841 H 0.60432 0.37158 0.54397 0.0
H1842 H 0.70798 0.48745 0.55607 0.0
H1843 H 0.66245 0.45227 0.56091 0.0
H1844 H 0.58861 0.44918 0.5474 0.0
C1845 C 0.53932 0.35878 0.52986 0.0
C1846 C 0.60071 0.38838 0.54479 0.0
C1847 C 0.51531 0.33511 0.5275 0.0
C1848 C 0.69054 0.48679 0.55257 0.0
C1849 C 0.66454 0.46673 0.55533 0.0
C1850 C 0.5922 0.43233 0.54679 0.0
C1851 C 0.55377 0.35989 0.53841 0.0
C1852 C 0.5758 0.3858 0.54205 0.0
C1853 C 0.64192 0.46284 0.54983 0.0
C1854 C 0.61782 0.43556 0.54895 0.0
H1855 H 0.51376 0.29608 0.54679 0.0
H1856 H 0.55622 0.33703 0.5507 0.0
H1857 H 0.55196 0.40575 0.54148 0.0
H1858 H 0.67308 0.5156 0.53409 0.0
H1859 H 0.62818 0.48065 0.5387 0.0
C1860 C 0.58194 0.21269 0.55329 0.0
C1861 C 0.56494 0.1981 0.54541 0.0
C1862 C 0.60257 0.20776 0.55621 0.0
C1863 C 0.63748 0.1698 0.54845 0.0
H1864 H 0.69781 0.24257 0.54439 0.0
C1865 C 0.73377 0.18964 0.52821 0.0
C1866 C 0.75674 0.20282 0.53422 0.0
C1867 C 0.7101 0.18984 0.53081 0.0
C1868 C 0.68113 0.22219 0.54556 0.0
H1869 H 0.55215 0.16337 0.53588 0.0
H1870 H 0.58806 0.15513 0.54075 0.0
H1871 H 0.65442 0.23609 0.55008 0.0
H1872 H 0.77452 0.22863 0.54694 0.0
H1873 H 0.73356 0.22995 0.55122 0.0
H1874 H 0.66418 0.15616 0.54331 0.0
C1875 C 0.58605 0.1705 0.5447 0.0
C1876 C 0.6564 0.21838 0.549 0.0
C1877 C 0.56534 0.17527 0.54186 0.0
C1878 C 0.75686 0.21834 0.54223 0.0
C1879 C 0.73351 0.21906 0.54469 0.0
C1880 C 0.66213 0.17366 0.54485 0.0
C1881 C 0.60646 0.18851 0.55114 0.0
C1882 C 0.63402 0.19211 0.55022 0.0
C1883 C 0.70963 0.20369 0.53929 0.0
C1884 C 0.68383 0.19985 0.54316 0.0
H1885 H 0.58129 0.22983 0.55638 0.0
H1886 H 0.61739 0.22119 0.56152 0.0
H1887 H 0.62077 0.14936 0.54941 0.0
H1888 H 0.73345 0.17751 0.52203 0.0
H1889 H 0.69184 0.17816 0.52649 0.0
C1890 C 0.87226 0.50022 0.67929 0.0
C1891 C 0.87926 0.49169 0.68802 0.0
C1892 C 0.84724 0.50039 0.67848 0.0
C1893 C 0.77848 0.47391 0.6919 0.0
H1894 H 0.76829 0.52076 0.67401 0.0
C1895 C 0.68152 0.48599 0.69443 0.0
C1896 C 0.66946 0.48837 0.68569 0.0
C1897 C 0.7069 0.48679 0.69435 0.0
C1898 C 0.77055 0.50734 0.67905 0.0
H1899 H 0.86478 0.47748 0.7028 0.0
H1900 H 0.82331 0.47892 0.70162 0.0
H1901 H 0.81178 0.52162 0.67434 0.0
H1902 H 0.67595 0.49382 0.66992 0.0
H1903 H 0.71992 0.49572 0.66981 0.0
H1904 H 0.7375 0.45992 0.6967 0.0
C1905 C 0.83606 0.48454 0.69514 0.0
C1906 C 0.79582 0.50778 0.67923 0.0
C1907 C 0.86056 0.48407 0.69589 0.0
C1908 C 0.68424 0.49202 0.67687 0.0
C1909 C 0.70979 0.49321 0.67681 0.0
C1910 C 0.75349 0.47376 0.69181 0.0
C1911 C 0.82826 0.49217 0.68639 0.0
C1912 C 0.80063 0.49126 0.68575 0.0
C1913 C 0.72168 0.49035 0.68553 0.0
C1914 C 0.74887 0.49057 0.68545 0.0
H1915 H 0.88568 0.506 0.67298 0.0
H1916 H 0.84259 0.50639 0.67153 0.0
H1917 H 0.78009 0.4599 0.69681 0.0
H1918 H 0.67108 0.48301 0.70139 0.0
H1919 H 0.71505 0.48476 0.70129 0.0
C1920 C 0.5792 0.20441 0.67721 0.0
C1921 C 0.58092 0.19234 0.68608 0.0
C1922 C 0.5783 0.22883 0.67713 0.0
C1923 C 0.59334 0.28972 0.69311 0.0
H1924 H 0.55297 0.30383 0.67331 0.0
C1925 C 0.57578 0.38192 0.69716 0.0
C1926 C 0.5744 0.39627 0.68891 0.0
C1927 C 0.57698 0.3579 0.69623 0.0
C1928 C 0.56468 0.30059 0.67887 0.0
H1929 H 0.58318 0.19773 0.70188 0.0
H1930 H 0.58175 0.23982 0.70179 0.0
H1931 H 0.55386 0.2614 0.67297 0.0
H1932 H 0.57303 0.39523 0.67299 0.0
H1933 H 0.57466 0.35299 0.67132 0.0
H1934 H 0.60433 0.32876 0.69899 0.0
C1935 C 0.58113 0.2305 0.69479 0.0
C1936 C 0.56519 0.27591 0.67868 0.0
C1937 C 0.5817 0.20591 0.69487 0.0
C1938 C 0.574 0.38509 0.67957 0.0
C1939 C 0.57488 0.36059 0.67863 0.0
C1940 C 0.59285 0.31428 0.69329 0.0
C1941 C 0.57949 0.24272 0.68592 0.0
C1942 C 0.57931 0.26966 0.68588 0.0
C1943 C 0.57667 0.3465 0.68697 0.0
C1944 C 0.57823 0.32033 0.68627 0.0
H1945 H 0.57865 0.195 0.67023 0.0
H1946 H 0.57729 0.23712 0.67008 0.0
H1947 H 0.60518 0.28667 0.69866 0.0
H1948 H 0.57618 0.38942 0.70451 0.0
H1949 H 0.57778 0.34804 0.70292 0.0
C1950 C 0.86613 0.38382 0.67712 0.0
C1951 C 0.87646 0.39878 0.68592 0.0
C1952 C 0.84184 0.35829 0.67698 0.0
C1953 C 0.77694 0.31578 0.69113 0.0
H1954 H 0.76952 0.25574 0.67551 0.0
C1955 C 0.68001 0.20955 0.69562 0.0
C1956 C 0.67035 0.18956 0.68819 0.0
C1957 C 0.70486 0.23403 0.69482 0.0
C1958 C 0.77078 0.27219 0.67985 0.0
H1959 H 0.8681 0.39771 0.70151 0.0
H1960 H 0.82581 0.35394 0.70125 0.0
H1961 H 0.8121 0.29918 0.67516 0.0
H1962 H 0.68071 0.18089 0.67385 0.0
H1963 H 0.72403 0.22396 0.67228 0.0
H1964 H 0.73571 0.28984 0.69553 0.0
C1965 C 0.83668 0.3618 0.6944 0.0
C1966 C 0.79559 0.2974 0.67967 0.0
C1967 C 0.86128 0.38706 0.69457 0.0
C1968 C 0.68717 0.19535 0.67982 0.0
C1969 C 0.71229 0.22035 0.67895 0.0
C1970 C 0.75212 0.29087 0.69118 0.0
C1971 C 0.82632 0.34676 0.6856 0.0
C1972 C 0.7994 0.31969 0.68544 0.0
C1973 C 0.72167 0.24055 0.68642 0.0
C1974 C 0.74838 0.26808 0.68572 0.0
H1975 H 0.87687 0.3919 0.67025 0.0
H1976 H 0.83486 0.34787 0.67001 0.0
H1977 H 0.77834 0.33227 0.6955 0.0
H1978 H 0.66818 0.20636 0.70225 0.0
H1979 H 0.71084 0.24776 0.70099 0.0
C1980 C 0.54093 0.14773 0.14925 0.0
C1981 C 0.54071 0.14084 0.15918 0.0
C1982 C 0.54841 0.17399 0.14659 0.0
C1983 C 0.5791 0.24405 0.1556 0.0
H1984 H 0.5237 0.24572 0.13936 0.0
C1985 C 0.54151 0.31518 0.16212 0.0
C1986 C 0.54766 0.33533 0.15505 0.0
C1987 C 0.54409 0.29301 0.15985 0.0
C1988 C 0.53981 0.24566 0.1436 0.0
H1989 H 0.54902 0.15599 0.17413 0.0
H1990 H 0.56112 0.20217 0.16951 0.0
H1991 H 0.52424 0.20358 0.14123 0.0
H1992 H 0.55861 0.34696 0.1398 0.0
H1993 H 0.56193 0.30666 0.13566 0.0
H1994 H 0.59308 0.28574 0.1586 0.0
C1995 C 0.55602 0.18723 0.16377 0.0
C1996 C 0.54013 0.22162 0.14473 0.0
C1997 C 0.54871 0.16083 0.16644 0.0
C1998 C 0.55379 0.33157 0.14535 0.0
C1999 C 0.55595 0.30889 0.14302 0.0
C2000 C 0.57873 0.26807 0.15448 0.0
C2001 C 0.55544 0.19384 0.15382 0.0
C2002 C 0.55899 0.22036 0.15109 0.0
C2003 C 0.55242 0.29036 0.15043 0.0
C2004 C 0.5583 0.26857 0.14884 0.0
H2005 H 0.53547 0.13286 0.14346 0.0
H2006 H 0.5482 0.17867 0.13887 0.0
H2007 H 0.5941 0.24366 0.1604 0.0
H2008 H 0.53721 0.31773 0.16969 0.0
H2009 H 0.5409 0.27855 0.16559 0.0
C2010 C 0.90894 0.4017 0.16781 0.0
C2011 C 0.92882 0.41214 0.16043 0.0
C2012 C 0.88346 0.37952 0.16581 0.0
C2013 C 0.83676 0.33825 0.14617 0.0
H2014 H 0.81364 0.28122 0.16563 0.0
C2015 C 0.73869 0.22915 0.14582 0.0
C2016 C 0.72324 0.22809 0.15403 0.0
C2017 C 0.76518 0.25106 0.14478 0.0
C2018 C 0.82022 0.29685 0.16006 0.0
H2019 H 0.93764 0.40861 0.14512 0.0
H2020 H 0.89333 0.36949 0.14173 0.0
H2021 H 0.85627 0.32327 0.16797 0.0
H2022 H 0.72197 0.24818 0.16737 0.0
H2023 H 0.76771 0.28593 0.1656 0.0
H2024 H 0.79969 0.31182 0.13853 0.0
C2025 C 0.89731 0.37855 0.14899 0.0
C2026 C 0.84422 0.32098 0.16148 0.0
C2027 C 0.92272 0.40064 0.15099 0.0
C2028 C 0.73384 0.24884 0.16101 0.0
C2029 C 0.75985 0.27028 0.16001 0.0
C2030 C 0.81245 0.314 0.14479 0.0
C2031 C 0.87772 0.36751 0.15643 0.0
C2032 C 0.85239 0.34205 0.15467 0.0
C2033 C 0.77583 0.27135 0.15202 0.0
C2034 C 0.80388 0.29351 0.15186 0.0
H2035 H 0.91316 0.41049 0.17511 0.0
H2036 H 0.86838 0.37144 0.17162 0.0
H2037 H 0.84285 0.35433 0.14082 0.0
H2038 H 0.7305 0.21313 0.14039 0.0
H2039 H 0.77748 0.25184 0.13856 0.0
C2040 C 0.8247 0.4917 0.14312 0.0
C2041 C 0.84539 0.50985 0.14945 0.0
C2042 C 0.80474 0.49722 0.13995 0.0
C2043 C 0.77548 0.54137 0.14476 0.0
H2044 H 0.72236 0.47785 0.15907 0.0
C2045 C 0.69047 0.54266 0.16655 0.0
C2046 C 0.66456 0.52058 0.16487 0.0
C2047 C 0.71333 0.54142 0.16368 0.0
C2048 C 0.73673 0.49554 0.15496 0.0
H2049 H 0.86556 0.5509 0.15511 0.0
H2050 H 0.82954 0.55956 0.15025 0.0
H2051 H 0.76133 0.47823 0.15178 0.0
H2052 H 0.64164 0.47965 0.15938 0.0
H2053 H 0.68134 0.47723 0.15438 0.0
H2054 H 0.75083 0.55879 0.14822 0.0
C2055 C 0.82852 0.54106 0.14778 0.0
C2056 C 0.75892 0.49569 0.15065 0.0
C2057 C 0.8489 0.53583 0.15075 0.0
C2058 C 0.66155 0.49661 0.16096 0.0
C2059 C 0.6843 0.49536 0.15803 0.0
C2060 C 0.75302 0.54112 0.14901 0.0
C2061 C 0.80488 0.52042 0.14337 0.0
C2062 C 0.77879 0.51876 0.14567 0.0
C2063 C 0.7103 0.5182 0.15895 0.0
C2064 C 0.7338 0.51839 0.15432 0.0
H2065 H 0.82157 0.47172 0.14167 0.0
H2066 H 0.78703 0.48142 0.13623 0.0
H2067 H 0.79065 0.55944 0.14104 0.0
H2068 H 0.69295 0.56144 0.16944 0.0
H2069 H 0.73323 0.55905 0.16468 0.0
C2070 C 0.73441 0.2323 1.00127 0.0
C2071 C 0.74694 0.23094 1.01006 0.0
C2072 C 0.70904 0.23152 1.00136 0.0
C2073 C 0.64606 0.2121 0.0168 0.0
H2074 H 0.63577 0.25829 0.99865 0.0
C2075 C 0.5441 0.2186 0.01649 0.0
C2076 C 0.53677 0.22658 1.0077 0.0
C2077 C 0.5692 0.21863 0.01729 0.0
C2078 C 0.63759 0.24463 1.00368 0.0
H2079 H 0.74141 0.22731 0.02588 0.0
H2080 H 0.69734 0.2253 0.02601 0.0
H2081 H 0.67849 0.25848 0.99879 0.0
H2082 H 0.55073 0.24002 0.99282 0.0
H2083 H 0.59238 0.23887 0.99399 0.0
H2084 H 0.60491 0.19788 0.02159 0.0
C2085 C 0.70712 0.22706 0.01899 0.0
C2086 C 0.66264 0.24492 1.00378 0.0
C2087 C 0.7327 0.22832 0.01892 0.0
C2088 C 0.55522 0.23385 0.99977 0.0
C2089 C 0.57982 0.23356 1.00051 0.0
C2090 C 0.62072 0.2115 0.01661 0.0
C2091 C 0.69474 0.2289 1.01022 0.0
C2092 C 0.66753 0.22856 1.01029 0.0
C2093 C 0.58794 0.22648 1.00932 0.0
C2094 C 0.61564 0.22757 1.00995 0.0
H2095 H 0.74446 0.23449 0.99428 0.0
H2096 H 0.7005 0.23276 0.9944 0.0
H2097 H 0.64855 0.19904 0.02195 0.0
H2098 H 0.53088 0.21313 0.02285 0.0
H2099 H 0.57411 0.21307 0.02428 0.0
C2100 C 0.84998 0.33722 0.01631 0.0
C2101 C 0.8397 0.32073 1.00786 0.0
C2102 C 0.85025 0.36235 0.01707 0.0
C2103 C 0.82154 0.40328 1.00416 0.0
H2104 H 0.87117 0.46154 0.02112 0.0
C2105 C 0.83447 0.51232 1.00136 0.0
C2106 C 0.83738 0.52692 1.0101 0.0
C2107 C 0.83511 0.48776 1.00142 0.0
C2108 C 0.85699 0.44552 0.01634 0.0
H2109 H 0.8223 0.31921 0.99351 0.0
H2110 H 0.82386 0.36195 0.99458 0.0
H2111 H 0.87185 0.41904 0.02079 0.0
H2112 H 0.84368 0.52629 0.0258 0.0
H2113 H 0.84561 0.4844 0.02586 0.0
H2114 H 0.80708 0.42992 0.99958 0.0
C2115 C 0.83086 0.35568 1.00091 0.0
C2116 C 0.8573 0.42074 0.01617 0.0
C2117 C 0.83032 0.33077 1.00022 0.0
C2118 C 0.84147 0.51604 0.01887 0.0
C2119 C 0.84266 0.4918 0.0189 0.0
C2120 C 0.82156 0.42809 1.00422 0.0
C2121 C 0.84037 0.37215 1.00939 0.0
C2122 C 0.83973 0.39891 1.00999 0.0
C2123 C 0.8392 0.47683 1.01019 0.0
C2124 C 0.83934 0.44995 1.01026 0.0
H2125 H 0.85722 0.33047 0.02245 0.0
H2126 H 0.85773 0.37377 0.02382 0.0
H2127 H 0.80674 0.38736 0.99951 0.0
H2128 H 0.83104 0.51954 0.99444 0.0
H2129 H 0.83255 0.47737 0.9945 0.0
C2130 C 0.55672 0.32946 0.01868 0.0
C2131 C 0.54064 0.31925 1.0101 0.0
C2132 C 0.58102 0.3549 0.01881 0.0
C2133 C 0.62074 0.4209 1.00442 0.0
H2134 H 0.67975 0.43271 0.02177 0.0
C2135 C 0.72889 0.51802 1.00103 0.0
C2136 C 0.7457 0.52935 1.00935 0.0
C2137 C 0.70365 0.49366 1.00157 0.0
C2138 C 0.66349 0.43014 0.01694 0.0
H2139 H 0.5387 0.32896 0.99484 0.0
H2140 H 0.58071 0.37289 0.99501 0.0
H2141 H 0.63787 0.38894 0.02161 0.0
H2142 H 0.74854 0.52263 0.02486 0.0
H2143 H 0.70461 0.48015 0.02586 0.0
H2144 H 0.64638 0.46201 0.9997 0.0
C2145 C 0.5744 0.36137 1.00177 0.0
C2146 C 0.6391 0.40466 0.01684 0.0
C2147 C 0.55006 0.33581 1.00164 0.0
C2148 C 0.73607 0.51518 0.01832 0.0
C2149 C 0.71085 0.49038 0.01884 0.0
C2150 C 0.64511 0.44631 1.0045 0.0
C2151 C 0.5906 0.37161 1.01037 0.0
C2152 C 0.61706 0.39928 1.01054 0.0
C2153 C 0.69406 0.47889 1.01043 0.0
C2154 C 0.66724 0.45162 1.01072 0.0
H2155 H 0.55058 0.31769 0.0254 0.0
H2156 H 0.59211 0.36157 0.02567 0.0
H2157 H 0.60455 0.41845 0.99958 0.0
H2158 H 0.73561 0.52782 0.99394 0.0
H2159 H 0.69213 0.48589 0.99484 0.0
C2160 C 0.53932 0.88531 0.86116 0.0
C2161 C 0.5329 0.89844 0.86847 0.0
C2162 C 0.53788 0.86076 0.86332 0.0
C2163 C 0.51239 0.80244 0.87887 0.0
H2164 H 0.58635 0.81567 0.87919 0.0
C2165 C 0.52575 0.71373 0.88371 0.0
C2166 C 0.53901 0.71187 0.87527 0.0
C2167 C 0.53032 0.7389 0.88684 0.0
C2168 C 0.56562 0.81168 0.87919 0.0
H2169 H 0.51667 0.89533 0.88317 0.0
H2170 H 0.51336 0.85198 0.8868 0.0
H2171 H 0.57765 0.85171 0.87427 0.0
H2172 H 0.57096 0.73466 0.86467 0.0
H2173 H 0.57852 0.77806 0.86989 0.0
H2174 H 0.49988 0.762 0.88309 0.0
C2175 C 0.5201 0.86084 0.87957 0.0
C2176 C 0.56068 0.83216 0.87629 0.0
C2177 C 0.52217 0.88559 0.8775 0.0
C2178 C 0.56019 0.7355 0.87112 0.0
C2179 C 0.56457 0.76056 0.87417 0.0
C2180 C 0.51723 0.78171 0.88156 0.0
C2181 C 0.52932 0.8491 0.87269 0.0
C2182 C 0.53401 0.82735 0.87586 0.0
C2183 C 0.54788 0.76223 0.88145 0.0
C2184 C 0.54386 0.78586 0.88143 0.0
H2185 H 0.54737 0.89494 0.85412 0.0
H2186 H 0.54485 0.85163 0.85792 0.0
H2187 H 0.49173 0.79869 0.87874 0.0
H2188 H 0.50992 0.69566 0.88723 0.0
H2189 H 0.51796 0.73975 0.89274 0.0
C2190 C 0.18102 0.6467 0.87729 0.0
C2191 C 0.16906 0.64312 0.86797 0.0
C2192 C 0.20634 0.66902 0.87915 0.0
C2193 C 0.2362 0.73666 0.87438 0.0
H2194 H 0.30565 0.74746 0.88327 0.0
C2195 C 0.33322 0.83511 0.87174 0.0
C2196 C 0.35623 0.83763 0.87651 0.0
C2197 C 0.30766 0.81366 0.87405 0.0
C2198 C 0.28609 0.74472 0.88112 0.0
H2199 H 0.17476 0.65788 0.853 0.0
H2200 H 0.21903 0.69828 0.85642 0.0
H2201 H 0.26985 0.70227 0.87864 0.0
H2202 H 0.37042 0.82417 0.88888 0.0
H2203 H 0.32538 0.78694 0.89317 0.0
H2204 H 0.25167 0.77861 0.87709 0.0
C2205 C 0.20881 0.6835 0.86219 0.0
C2206 C 0.26595 0.71897 0.87826 0.0
C2207 C 0.18365 0.66066 0.86026 0.0
C2208 C 0.3529 0.82191 0.88489 0.0
C2209 C 0.32719 0.80056 0.88729 0.0
C2210 C 0.25602 0.76223 0.87747 0.0
C2211 C 0.21958 0.68824 0.87176 0.0
C2212 C 0.2413 0.7151 0.87459 0.0
C2213 C 0.30487 0.7947 0.88122 0.0
C2214 C 0.28157 0.7668 0.88054 0.0
H2215 H 0.1702 0.63299 0.88329 0.0
H2216 H 0.21447 0.67245 0.88656 0.0
H2217 H 0.21681 0.73365 0.87185 0.0
H2218 H 0.33517 0.84719 0.86532 0.0
H2219 H 0.29097 0.81014 0.86927 0.0
C2220 C 0.41731 0.55124 0.86901 0.0
C2221 C 0.41598 0.52655 0.86719 0.0
C2222 C 0.39412 0.55179 0.87185 0.0
C2223 C 0.32783 0.50781 0.88361 0.0
H2224 H 0.31536 0.56627 0.87642 0.0
C2225 C 0.23082 0.51267 0.88098 0.0
C2226 C 0.23508 0.53912 0.88137 0.0
C2227 C 0.25124 0.50767 0.88411 0.0
C2228 C 0.31898 0.55017 0.87872 0.0
H2229 H 0.38982 0.48321 0.86628 0.0
H2230 H 0.34854 0.48409 0.8707 0.0
H2231 H 0.35362 0.56475 0.86941 0.0
H2232 H 0.26053 0.57897 0.88781 0.0
H2233 H 0.29523 0.56981 0.89347 0.0
H2234 H 0.29168 0.4924 0.89241 0.0
C2235 C 0.36761 0.50299 0.87028 0.0
C2236 C 0.3408 0.5492 0.87462 0.0
C2237 C 0.39101 0.50247 0.86761 0.0
C2238 C 0.25674 0.55853 0.88707 0.0
C2239 C 0.27678 0.5533 0.89039 0.0
C2240 C 0.30557 0.50854 0.88759 0.0
C2241 C 0.36919 0.52757 0.87282 0.0
C2242 C 0.34546 0.52801 0.87699 0.0
C2243 C 0.27562 0.52904 0.88777 0.0
C2244 C 0.30107 0.52979 0.88518 0.0
H2245 H 0.43647 0.56995 0.86895 0.0
H2246 H 0.39615 0.57105 0.87385 0.0
H2247 H 0.33122 0.49146 0.88571 0.0
H2248 H 0.21347 0.49678 0.87714 0.0
H2249 H 0.2496 0.48846 0.88227 0.0
C2250 C 0.53595 0.82619 1.01311 0.0
C2251 C 0.54853 0.8294 0.02238 0.0
C2252 C 0.51034 0.825 1.01221 0.0
C2253 C 0.44878 0.81261 0.02758 0.0
H2254 H 0.43062 0.84332 1.00549 0.0
C2255 C 0.35033 0.82223 0.02835 0.0
C2256 C 0.33633 0.82029 0.01953 0.0
C2257 C 0.37574 0.82313 0.02832 0.0
C2258 C 0.43498 0.83429 1.01171 0.0
H2259 H 0.54311 0.83407 0.03791 0.0
H2260 H 0.49971 0.83212 0.03638 0.0
H2261 H 0.47437 0.84475 1.00585 0.0
H2262 H 0.33922 0.81795 1.00369 0.0
H2263 H 0.38296 0.81953 1.00363 0.0
H2264 H 0.40955 0.80193 0.03343 0.0
C2265 C 0.50909 0.83014 0.02974 0.0
C2266 C 0.46042 0.83513 1.01191 0.0
C2267 C 0.53451 0.83154 0.03061 0.0
C2268 C 0.34906 0.81955 1.01068 0.0
C2269 C 0.37454 0.8206 1.01064 0.0
C2270 C 0.42343 0.81172 0.02737 0.0
C2271 C 0.49612 0.82662 0.02056 0.0
C2272 C 0.46812 0.8246 0.01992 0.0
C2273 C 0.38852 0.82224 0.01947 0.0
C2274 C 0.41589 0.82278 0.01949 0.0
H2275 H 0.54574 0.82431 1.00656 0.0
H2276 H 0.50142 0.8222 1.00497 0.0
H2277 H 0.45304 0.80351 0.0338 0.0
H2278 H 0.34151 0.82279 0.03534 0.0
H2279 H 0.38548 0.82481 0.03533 0.0
C2280 C 0.23744 0.71397 0.02947 0.0
C2281 C 0.24107 0.73015 0.0211 0.0
C2282 C 0.23691 0.68896 0.02885 0.0
C2283 C 0.25768 0.64783 1.01264 0.0
H2284 H 0.21505 0.59088 0.03132 0.0
C2285 C 0.25289 0.54174 1.01084 0.0
C2286 C 0.24878 0.52632 0.0195 0.0
C2287 C 0.25144 0.56584 1.01082 0.0
C2288 C 0.22753 0.6065 0.02609 0.0
H2289 H 0.2477 0.73188 1.00538 0.0
H2290 H 0.24686 0.68838 1.00423 0.0
H2291 H 0.21277 0.63228 0.03138 0.0
H2292 H 0.23988 0.52553 0.03502 0.0
H2293 H 0.2374 0.56712 0.03503 0.0
H2294 H 0.27253 0.62204 1.00738 0.0
C2295 C 0.24405 0.69498 1.01138 0.0
C2296 C 0.22617 0.63067 0.02611 0.0
C2297 C 0.24411 0.71998 1.012 0.0
C2298 C 0.24305 0.53631 0.02815 0.0
C2299 C 0.24149 0.56044 0.02812 0.0
C2300 C 0.25909 0.62363 1.01263 0.0
C2301 C 0.24058 0.67883 0.01983 0.0
C2302 C 0.24132 0.65214 0.01943 0.0
C2303 C 0.24571 0.57597 0.01945 0.0
C2304 C 0.24413 0.60226 0.01939 0.0
H2305 H 0.23553 0.72101 0.03666 0.0
H2306 H 0.23458 0.67803 0.03561 0.0
H2307 H 0.27008 0.66351 1.00741 0.0
H2308 H 0.25742 0.53524 1.00396 0.0
H2309 H 0.25451 0.57633 1.00389 0.0
C2310 C 0.34817 0.5359 1.01369 0.0
C2311 C 0.34056 0.52143 0.02267 0.0
C2312 C 0.37279 0.5613 1.01282 0.0
C2313 C 0.44014 0.60717 0.02639 0.0
H2314 H 0.44612 0.66245 1.00844 0.0
C2315 C 0.53408 0.71863 0.0281 0.0
C2316 C 0.54363 0.73416 0.01939 0.0
C2317 C 0.50985 0.69296 0.02822 0.0
C2318 C 0.44518 0.64732 1.01347 0.0
H2319 H 0.35387 0.52341 0.03774 0.0
H2320 H 0.39543 0.56652 0.03632 0.0
H2321 H 0.40445 0.61844 1.00886 0.0
H2322 H 0.53384 0.73366 1.00394 0.0
H2323 H 0.49241 0.68963 1.00414 0.0
H2324 H 0.48071 0.63595 0.03104 0.0
C2325 C 0.38307 0.55849 0.02979 0.0
C2326 C 0.4209 0.62167 1.0137 0.0
C2327 C 0.3587 0.53339 0.03064 0.0
C2328 C 0.52766 0.72275 1.01084 0.0
C2329 C 0.50341 0.69722 1.01097 0.0
C2330 C 0.46428 0.63278 0.02619 0.0
C2331 C 0.39094 0.5733 0.02088 0.0
C2332 C 0.41759 0.60088 0.02023 0.0
C2333 C 0.49379 0.68154 0.01966 0.0
C2334 C 0.46749 0.65367 0.01977 0.0
H2335 H 0.33494 0.52783 1.00736 0.0
H2336 H 0.37761 0.57141 1.00576 0.0
H2337 H 0.43947 0.59211 0.03138 0.0
H2338 H 0.5453 0.72637 0.03489 0.0
H2339 H 0.50349 0.68225 0.03515 0.0
C2340 C 0.21702 0.4872 0.48344 0.0
C2341 C 0.21352 0.47926 0.49336 0.0
C2342 C 0.22503 0.51363 0.48089 0.0
C2343 C 0.24908 0.58229 0.49038 0.0
H2344 H 0.19454 0.58031 0.47262 0.0
C2345 C 0.20554 0.64915 0.49508 0.0
C2346 C 0.21298 0.66958 0.48801 0.0
C2347 C 0.20868 0.62714 0.49311 0.0
C2348 C 0.2104 0.5813 0.47732 0.0
H2349 H 0.21767 0.49289 0.50845 0.0
H2350 H 0.23062 0.53944 0.50398 0.0
H2351 H 0.1985 0.54008 0.47473 0.0
H2352 H 0.22595 0.68135 0.47291 0.0
H2353 H 0.2305 0.64154 0.46932 0.0
H2354 H 0.25934 0.62302 0.49352 0.0
C2355 C 0.22754 0.52516 0.49819 0.0
C2356 C 0.21271 0.55838 0.47857 0.0
C2357 C 0.2198 0.49857 0.50076 0.0
C2358 C 0.2203 0.66588 0.47849 0.0
C2359 C 0.22313 0.64343 0.47646 0.0
C2360 C 0.24674 0.6052 0.48913 0.0
C2361 C 0.22927 0.53256 0.48821 0.0
C2362 C 0.23127 0.55837 0.48542 0.0
C2363 C 0.21883 0.62496 0.48399 0.0
C2364 C 0.22658 0.60433 0.48292 0.0
H2365 H 0.21315 0.47286 0.47758 0.0
H2366 H 0.22677 0.519 0.47317 0.0
H2367 H 0.26374 0.58283 0.49561 0.0
H2368 H 0.20015 0.65149 0.50252 0.0
H2369 H 0.20487 0.61268 0.49893 0.0
C2370 C 0.58705 0.73247 0.48307 0.0
C2371 C 0.59199 0.74316 0.49265 0.0
C2372 C 0.56132 0.71237 0.48035 0.0
C2373 C 0.49042 0.68251 0.48481 0.0
H2374 H 0.48495 0.61359 0.4786 0.0
C2375 C 0.39954 0.58503 0.49408 0.0
C2376 C 0.39006 0.56217 0.48811 0.0
C2377 C 0.42258 0.60869 0.4915 0.0
C2378 C 0.48625 0.6329 0.47994 0.0
H2379 H 0.57421 0.74124 0.50694 0.0
H2380 H 0.52834 0.70565 0.50206 0.0
H2381 H 0.52958 0.65355 0.48104 0.0
H2382 H 0.39623 0.54542 0.47472 0.0
H2383 H 0.43823 0.5877 0.4702 0.0
H2384 H 0.44712 0.66184 0.48395 0.0
C2385 C 0.54467 0.71332 0.49671 0.0
C2386 C 0.51163 0.65555 0.48148 0.0
C2387 C 0.57071 0.73341 0.4995 0.0
C2388 C 0.40367 0.56306 0.4794 0.0
C2389 C 0.4273 0.58706 0.47683 0.0
C2390 C 0.46508 0.66 0.48307 0.0
C2391 C 0.54007 0.70268 0.48713 0.0
C2392 C 0.51366 0.68007 0.48434 0.0
C2393 C 0.43671 0.61004 0.48288 0.0
C2394 C 0.46277 0.63474 0.48117 0.0
H2395 H 0.60304 0.73976 0.4776 0.0
H2396 H 0.55798 0.70431 0.47294 0.0
H2397 H 0.49183 0.70151 0.48683 0.0
H2398 H 0.38898 0.5845 0.5008 0.0
H2399 H 0.42981 0.62575 0.49647 0.0
C2400 C 0.5155 0.86768 0.48272 0.0
C2401 C 0.51134 0.84132 0.48205 0.0
C2402 C 0.49466 0.87264 0.48012 0.0
C2403 C 0.42673 0.83213 0.48602 0.0
H2404 H 0.4156 0.89065 0.47766 0.0
C2405 C 0.32963 0.83454 0.49501 0.0
C2406 C 0.33176 0.85965 0.49669 0.0
C2407 C 0.35235 0.83304 0.49221 0.0
C2408 C 0.41868 0.87437 0.48014 0.0
H2409 H 0.48494 0.80123 0.47606 0.0
H2410 H 0.449 0.81008 0.47149 0.0
H2411 H 0.45462 0.88804 0.47132 0.0
H2412 H 0.35884 0.9029 0.49704 0.0
H2413 H 0.39926 0.90043 0.49258 0.0
H2414 H 0.39218 0.81925 0.49529 0.0
C2415 C 0.46794 0.82666 0.47422 0.0
C2416 C 0.44066 0.8727 0.47638 0.0
C2417 C 0.48863 0.82164 0.47687 0.0
C2418 C 0.35705 0.88329 0.49595 0.0
C2419 C 0.37995 0.88186 0.49324 0.0
C2420 C 0.40515 0.83403 0.48988 0.0
C2421 C 0.46978 0.85127 0.47681 0.0
C2422 C 0.44477 0.85151 0.4793 0.0
C2423 C 0.37761 0.85676 0.49103 0.0
C2424 C 0.40092 0.8552 0.48702 0.0
H2425 H 0.53336 0.88354 0.48634 0.0
H2426 H 0.49665 0.89196 0.48203 0.0
H2427 H 0.43003 0.8161 0.48866 0.0
H2428 H 0.31014 0.81625 0.49506 0.0
H2429 H 0.34972 0.81342 0.4904 0.0
C2430 C 0.21907 0.56128 0.33302 0.0
C2431 C 0.2033 0.55897 0.34138 0.0
C2432 C 0.24361 0.56081 0.33367 0.0
C2433 C 0.28988 0.54906 0.35126 0.0
H2434 H 0.34096 0.58218 0.32979 0.0
C2435 C 0.40205 0.56641 0.35251 0.0
C2436 C 0.41419 0.56424 0.34372 0.0
C2437 C 0.37645 0.56513 0.35254 0.0
C2438 C 0.327 0.57248 0.33584 0.0
H2439 H 0.20214 0.5544 0.3572 0.0
H2440 H 0.24527 0.55426 0.35847 0.0
H2441 H 0.29819 0.58171 0.32952 0.0
H2442 H 0.40776 0.55893 0.32799 0.0
H2443 H 0.36361 0.55674 0.32799 0.0
H2444 H 0.3197 0.54085 0.3577 0.0
C2445 C 0.23828 0.55579 0.35122 0.0
C2446 C 0.30186 0.57202 0.33568 0.0
C2447 C 0.21318 0.55578 0.35053 0.0
C2448 C 0.39945 0.56065 0.33494 0.0
C2449 C 0.37394 0.55961 0.33495 0.0
C2450 C 0.31531 0.54986 0.35147 0.0
C2451 C 0.25445 0.55873 0.34279 0.0
C2452 C 0.28227 0.55994 0.3433 0.0
C2453 C 0.36179 0.5619 0.34375 0.0
C2454 C 0.33442 0.56133 0.3437 0.0
H2455 H 0.21249 0.56372 0.32581 0.0
H2456 H 0.254 0.56212 0.32686 0.0
H2457 H 0.27601 0.53936 0.35732 0.0
H2458 H 0.41246 0.56934 0.35947 0.0
H2459 H 0.36847 0.56731 0.35949 0.0
C2460 C 0.51771 0.67102 0.34982 0.0
C2461 C 0.5069 0.65421 0.34146 0.0
C2462 C 0.51786 0.69612 0.35059 0.0
C2463 C 0.48806 0.73644 0.33788 0.0
H2464 H 0.53846 0.79533 0.35446 0.0
C2465 C 0.5007 0.84538 0.33479 0.0
C2466 C 0.50401 0.86031 0.34347 0.0
C2467 C 0.50137 0.82083 0.3349 0.0
C2468 C 0.52407 0.77914 0.34979 0.0
H2469 H 0.48836 0.6521 0.3273 0.0
H2470 H 0.48969 0.6947 0.32837 0.0
H2471 H 0.53925 0.75288 0.35418 0.0
H2472 H 0.51103 0.86022 0.35915 0.0
H2473 H 0.51304 0.81838 0.35929 0.0
H2474 H 0.47328 0.76287 0.33336 0.0
C2475 C 0.49724 0.68874 0.33462 0.0
C2476 C 0.52444 0.75437 0.34964 0.0
C2477 C 0.49683 0.6639 0.33393 0.0
C2478 C 0.50851 0.84974 0.35225 0.0
C2479 C 0.50974 0.82551 0.35233 0.0
C2480 C 0.48802 0.76124 0.33791 0.0
C2481 C 0.50732 0.70556 0.34301 0.0
C2482 C 0.5066 0.73231 0.3436 0.0
C2483 C 0.5059 0.81022 0.34368 0.0
C2484 C 0.50609 0.78334 0.3438 0.0
H2485 H 0.5255 0.66457 0.35587 0.0
H2486 H 0.52582 0.7078 0.35726 0.0
H2487 H 0.47302 0.72036 0.33336 0.0
H2488 H 0.49694 0.85234 0.32787 0.0
H2489 H 0.49849 0.81019 0.32802 0.0
C2490 C 0.22334 0.66362 0.35255 0.0
C2491 C 0.2078 0.65304 0.34387 0.0
C2492 C 0.24758 0.6891 0.3527 0.0
C2493 C 0.28801 0.75433 0.33795 0.0
H2494 H 0.34608 0.76728 0.35598 0.0
C2495 C 0.39638 0.85059 0.3344 0.0
C2496 C 0.4127 0.86281 0.34277 0.0
C2497 C 0.37114 0.82632 0.33503 0.0
C2498 C 0.33007 0.76437 0.35095 0.0
H2499 H 0.20672 0.66208 0.32847 0.0
H2500 H 0.24865 0.706 0.32866 0.0
H2501 H 0.30419 0.72349 0.3559 0.0
H2502 H 0.4146 0.85782 0.35847 0.0
H2503 H 0.37059 0.8154 0.35962 0.0
H2504 H 0.31394 0.79509 0.33294 0.0
C2505 C 0.24196 0.6948 0.33549 0.0
C2506 C 0.30568 0.73889 0.35089 0.0
C2507 C 0.21767 0.66924 0.33534 0.0
C2508 C 0.40254 0.84964 0.35187 0.0
C2509 C 0.37728 0.8249 0.35249 0.0
C2510 C 0.31238 0.77971 0.33798 0.0
C2511 C 0.25762 0.70543 0.34417 0.0
C2512 C 0.28401 0.73311 0.34435 0.0
C2513 C 0.36102 0.81254 0.34404 0.0
C2514 C 0.33416 0.78539 0.34443 0.0
H2515 H 0.2168 0.65211 0.35932 0.0
H2516 H 0.25825 0.69608 0.35962 0.0
H2517 H 0.27209 0.75159 0.33291 0.0
H2518 H 0.40349 0.85963 0.32722 0.0
H2519 H 0.36 0.81783 0.32827 0.0
C2520 C 0.3249 0.43098 0.18079 0.0
C2521 C 0.32584 0.44107 0.19029 0.0
C2522 C 0.34817 0.44148 0.17507 0.0
C2523 C 0.41789 0.49743 0.1722 0.0
H2524 H 0.43194 0.44078 0.1637 0.0
C2525 C 0.51519 0.49617 0.17376 0.0
C2526 C 0.52032 0.48142 0.16674 0.0
C2527 C 0.49363 0.50075 0.17242 0.0
C2528 C 0.42793 0.45686 0.16564 0.0
H2529 H 0.35155 0.47017 0.20127 0.0
H2530 H 0.39282 0.48865 0.19117 0.0
H2531 H 0.38807 0.42872 0.17063 0.0
H2532 H 0.50982 0.46249 0.15238 0.0
H2533 H 0.47022 0.46845 0.15041 0.0
H2534 H 0.45897 0.52542 0.16799 0.0
C2535 C 0.37378 0.47298 0.18813 0.0
C2536 C 0.40291 0.44995 0.1697 0.0
C2537 C 0.35036 0.46237 0.1939 0.0
C2538 C 0.50548 0.47338 0.15796 0.0
C2539 C 0.48332 0.4772 0.15675 0.0
C2540 C 0.44313 0.50438 0.16818 0.0
C2541 C 0.37286 0.46218 0.17874 0.0
C2542 C 0.39798 0.47013 0.17326 0.0
C2543 C 0.47651 0.48969 0.16424 0.0
C2544 C 0.44853 0.48404 0.1652 0.0
H2545 H 0.30643 0.41399 0.17794 0.0
H2546 H 0.34707 0.43275 0.16788 0.0
H2547 H 0.41431 0.51325 0.17486 0.0
H2548 H 0.52722 0.5033 0.18042 0.0
H2549 H 0.48871 0.5104 0.17829 0.0
C2550 C 0.60785 0.05169 0.15981 0.0
C2551 C 0.59926 0.05894 0.16838 0.0
C2552 C 0.60515 1.02612 0.15907 0.0
C2553 C 0.61782 0.98789 0.17432 0.0
H2554 H 0.56723 0.91711 0.16367 0.0
C2555 C 0.60305 0.8982 0.19385 0.0
C2556 C 0.62251 0.89246 0.19002 0.0
C2557 C 0.59233 0.91038 0.1879 0.0
C2558 C 0.58152 0.9369 0.16655 0.0
H2559 H 0.57817 0.04494 0.1823 0.0
H2560 H 0.57315 1.00001 0.18096 0.0
H2561 H 0.56409 0.95704 0.15853 0.0
H2562 H 0.64357 0.89184 0.17675 0.0
H2563 H 0.625 0.91348 0.16646 0.0
H2564 H 0.63432 0.9681 0.18276 0.0
C2565 C 0.58242 1.0142 0.17494 0.0
C2566 C 0.57987 0.9595 0.1636 0.0
C2567 C 0.58584 0.0399 0.17581 0.0
C2568 C 0.62834 0.89575 0.17988 0.0
C2569 C 0.61768 0.90803 0.17395 0.0
C2570 C 0.61932 0.96556 0.17729 0.0
C2571 C 0.593 1.0076 0.16677 0.0
C2572 C 0.59755 0.98483 0.16775 0.0
C2573 C 0.601 0.91686 0.1781 0.0
C2574 C 0.60067 0.93991 0.17368 0.0
H2575 H 0.61758 0.06614 0.1539 0.0
H2576 H 0.61379 1.02135 0.1528 0.0
H2577 H 0.63146 1.00739 0.1776 0.0
H2578 H 0.59823 0.89577 0.20163 0.0
H2579 H 0.57979 0.91758 0.19122 0.0
C2580 C 0.16346 0.71131 0.19457 0.0
C2581 C 0.17215 0.73738 0.19095 0.0
C2582 C 0.15392 0.68957 0.18808 0.0
C2583 C 0.135 0.64674 0.17181 0.0
H2584 H 0.06988 0.64667 0.16322 0.0
C2585 C 1.01755 0.56777 0.15996 0.0
C2586 C 1.009 0.55475 0.1691 0.0
C2587 C 0.04397 0.58921 0.15878 0.0
C2588 C 0.08833 0.64661 0.16518 0.0
H2589 H 0.18015 0.76165 0.17775 0.0
H2590 H 0.16306 0.72351 0.16647 0.0
H2591 H 0.10945 0.6889 0.1682 0.0
H2592 H 1.02124 0.55205 0.18395 0.0
H2593 H 0.0677 0.58965 0.18191 0.0
H2594 H 0.11252 0.6038 0.16975 0.0
C2595 C 0.16405 0.72003 0.17427 0.0
C2596 C 0.11097 0.67074 0.16802 0.0
C2597 C 0.17385 0.74179 0.18073 0.0
C2598 C 1.02731 0.5625 0.17695 0.0
C2599 C 0.0539 0.58345 0.1757 0.0
C2600 C 0.11227 0.62254 0.16897 0.0
C2601 C 0.15277 0.69369 0.17794 0.0
C2602 C 0.13388 0.67069 0.17186 0.0
C2603 C 0.06223 0.59714 0.16666 0.0
C2604 C 0.08838 0.62226 0.16618 0.0
H2605 H 0.16202 0.70747 0.20242 0.0
H2606 H 0.14489 0.66931 0.19108 0.0
H2607 H 0.15253 0.64642 0.17476 0.0
H2608 H 1.00371 0.56146 0.15376 0.0
H2609 H 0.05006 0.5998 0.15181 0.0
C2610 C 0.34574 0.26135 0.35816 0.0
C2611 C 0.33454 0.24495 0.34965 0.0
C2612 C 0.36092 0.29041 0.3578 0.0
C2613 C 0.38127 0.3531 0.3406 0.0
H2614 H 0.42882 0.39287 0.36218 0.0
C2615 C 0.44044 0.47575 0.3415 0.0
C2616 C 0.46357 0.49085 0.34758 0.0
C2617 C 0.425 0.4466 0.34157 0.0
C2618 C 0.41598 0.3827 0.35593 0.0
H2619 H 0.33171 0.24891 0.33391 0.0
H2620 H 0.35765 0.2984 0.33324 0.0
H2621 H 0.40365 0.34385 0.36251 0.0
H2622 H 0.48754 0.48472 0.35854 0.0
H2623 H 0.46171 0.43548 0.35864 0.0
H2624 H 0.39403 0.39208 0.33395 0.0
C2625 C 0.35468 0.28894 0.34038 0.0
C2626 C 0.40079 0.35364 0.35619 0.0
C2627 C 0.33958 0.25983 0.34074 0.0
C2628 C 0.47016 0.47477 0.35369 0.0
C2629 C 0.45478 0.44576 0.35379 0.0
C2630 C 0.39645 0.38222 0.34034 0.0
C2631 C 0.36603 0.30548 0.34889 0.0
C2632 C 0.38278 0.33757 0.34854 0.0
C2633 C 0.43148 0.43037 0.34776 0.0
C2634 C 0.41451 0.39827 0.348 0.0
H2635 H 0.34273 0.25166 0.36526 0.0
H2636 H 0.36831 0.30102 0.36469 0.0
H2637 H 0.36796 0.34282 0.33446 0.0
H2638 H 0.43402 0.48652 0.33664 0.0
H2639 H 0.40754 0.43686 0.33677 0.0
C2640 C 0.59479 0.98607 0.3577 0.0
C2641 C 0.57825 0.97954 0.34916 0.0
C2642 C 0.62378 1.00015 0.35738 0.0
C2643 C 0.687 0.04268 0.3408 0.0
H2644 H 0.72497 0.03188 0.36236 0.0
C2645 C 0.80954 0.09562 0.34106 0.0
C2646 C 0.82421 0.09973 0.34997 0.0
C2647 C 0.78035 0.0815 0.34067 0.0
C2648 C 0.71528 0.03587 0.35627 0.0
H2649 H 0.58174 0.98418 0.33333 0.0
H2650 H 0.63196 1.00877 0.33271 0.0
H2651 H 0.67572 1.00766 0.36204 0.0
H2652 H 0.81728 0.091 0.36554 0.0
H2653 H 0.76769 0.0671 0.36494 0.0
H2654 H 0.72681 0.07089 0.33502 0.0
C2655 C 0.62225 1.00282 0.33984 0.0
C2656 C 0.68617 1.02156 0.35607 0.0
C2657 C 0.5929 0.98835 0.34017 0.0
C2658 C 0.80766 0.08875 0.35846 0.0
C2659 C 0.77852 0.07451 0.35807 0.0
C2660 C 0.71624 0.0571 0.341 0.0
C2661 C 0.63876 1.00908 0.34846 0.0
C2662 C 0.67083 1.02448 0.34838 0.0
C2663 C 0.76366 0.07026 0.34916 0.0
C2664 C 0.73155 0.05436 0.34878 0.0
H2665 H 0.5852 0.98014 0.36486 0.0
H2666 H 0.63442 1.00439 0.36432 0.0
H2667 H 0.67708 0.04634 0.33469 0.0
H2668 H 0.8207 0.10335 0.33425 0.0
H2669 H 0.77095 0.07912 0.33354 0.0
C2670 C 0.9801 0.73096 0.34111 0.0
C2671 C 0.96904 0.73483 0.34995 0.0
C2672 C 0.994 0.71575 0.34073 0.0
C2673 C 1.0099 0.66721 0.35614 0.0
H2674 H 0.05809 0.67654 0.33453 0.0
C2675 C 0.06179 0.59804 0.35359 0.0
C2676 C 0.08488 0.60482 0.34764 0.0
C2677 C 0.04826 0.61353 0.3537 0.0
C2678 C 0.04495 0.67336 0.34074 0.0
H2679 H 0.96513 0.72442 0.3654 0.0
H2680 H 0.98882 0.69865 0.36482 0.0
H2681 H 1.03515 0.70285 0.33512 0.0
H2682 H 0.11102 0.63479 0.33701 0.0
H2683 H 0.08808 0.66153 0.33718 0.0
H2684 H 1.02003 0.63825 0.36191 0.0
C2685 C 0.98666 0.70708 0.35799 0.0
C2686 C 1.03115 0.6887 0.34104 0.0
C2687 C 0.97286 0.72236 0.35837 0.0
C2688 C 0.09348 0.62825 0.34174 0.0
C2689 C 0.07989 0.64383 0.34183 0.0
C2690 C 1.02366 0.65191 0.35585 0.0
C2691 C 0.99784 0.70314 0.34915 0.0
C2692 C 1.01305 0.68627 0.34876 0.0
C2693 C 0.05675 0.63716 0.34786 0.0
C2694 C 1.04175 0.65427 0.34814 0.0
H2695 H 0.97808 0.73982 0.33435 0.0
H2696 H 1.00147 0.71371 0.33364 0.0
H2697 H 0.99636 0.66361 0.36227 0.0
H2698 H 0.05393 0.58042 0.3583 0.0
H2699 H 1.03067 0.60641 0.35841 0.0
C2700 C 0.57462 0.57183 0.87078 0.0
C2701 C 0.56858 0.5893 0.8656 0.0
C2702 C 0.59949 0.57316 0.86938 0.0
C2703 C 0.66778 0.61482 0.85885 0.0
H2704 H 0.66372 0.54562 0.8547 0.0
C2705 C 0.76313 0.61431 0.85053 0.0
C2706 C 0.7624 0.6051 0.84087 0.0
C2707 C 0.73912 0.60631 0.85563 0.0
C2708 C 0.66505 0.56497 0.85593 0.0
H2709 H 0.58324 0.62235 0.85521 0.0
H2710 H 0.62674 0.62452 0.85256 0.0
H2711 H 0.62286 0.54694 0.85948 0.0
H2712 H 0.73659 0.57651 0.82976 0.0
H2713 H 0.69433 0.5629 0.83867 0.0
H2714 H 0.70958 0.63289 0.8549 0.0
C2715 C 0.61272 0.61021 0.85788 0.0
C2716 C 0.64186 0.5658 0.85871 0.0
C2717 C 0.58798 0.6091 0.85941 0.0
C2718 C 0.73763 0.58439 0.8371 0.0
C2719 C 0.71349 0.5765 0.84221 0.0
C2720 C 0.69087 0.61398 0.85611 0.0
C2721 C 0.61834 0.59171 0.86265 0.0
C2722 C 0.64306 0.59076 0.86017 0.0
C2723 C 0.71412 0.58906 0.85115 0.0
C2724 C 0.68972 0.58908 0.85468 0.0
H2725 H 0.55974 0.55653 0.87562 0.0
H2726 H 0.60361 0.55911 0.87331 0.0
H2727 H 0.66928 0.63431 0.8599 0.0
H2728 H 0.78175 0.63025 0.85372 0.0
H2729 H 0.73995 0.61584 0.86262 0.0
C2730 C 0.45545 0.15684 0.84887 0.0
C2731 C 0.45842 0.15652 0.8386 0.0
C2732 C 0.46398 0.14294 0.85496 0.0
C2733 C 0.45812 0.08183 0.85572 0.0
H2734 H 0.52667 0.10112 0.86839 0.0
C2735 C 0.50321 1.01783 0.85366 0.0
C2736 C 0.49086 0.99763 0.86079 0.0
C2737 C 0.50558 0.04293 0.85528 0.0
C2738 C 0.50719 0.09572 0.86516 0.0
H2739 H 0.47421 0.14323 0.82666 0.0
H2740 H 0.48916 0.11877 0.83738 0.0
H2741 H 0.51815 0.137 0.86244 0.0
H2742 H 0.4737 0.98775 0.87547 0.0
H2743 H 0.47553 0.03122 0.8779 0.0
H2744 H 0.44773 0.04076 0.85778 0.0
C2745 C 0.48043 0.13001 0.84065 0.0
C2746 C 0.50242 0.11602 0.86174 0.0
C2747 C 0.47184 0.14382 0.83455 0.0
C2748 C 0.4827 1.00316 0.86982 0.0
C2749 C 0.48424 0.02798 0.87131 0.0
C2750 C 0.46268 0.06171 0.85924 0.0
C2751 C 0.47572 0.12886 0.85081 0.0
C2752 C 0.4784 0.10894 0.85662 0.0
C2753 C 0.49492 0.04757 0.8639 0.0
C2754 C 0.48768 0.06859 0.86355 0.0
H2755 H 0.44459 0.16597 0.85214 0.0
H2756 H 0.45977 0.14165 0.86278 0.0
H2757 H 0.4396 0.07621 0.85167 0.0
H2758 H 0.51044 1.01402 0.8468 0.0
H2759 H 0.51358 0.0579 0.84945 0.0
C2760 C 0.91423 0.31006 0.84905 0.0
C2761 C 0.91053 0.31145 0.83888 0.0
C2762 C 0.92464 0.33319 0.85483 0.0
C2763 C 0.94525 0.40569 0.85506 0.0
H2764 H 1.01061 0.41358 0.86716 0.0
C2765 C 0.04909 0.49753 0.85317 0.0
C2766 C 0.06732 0.50357 0.86095 0.0
C2767 C 1.02244 0.47654 0.85412 0.0
C2768 C 0.992 0.41153 0.86417 0.0
H2769 H 0.91282 0.33761 0.82692 0.0
H2770 H 0.93172 0.37836 0.837 0.0
H2771 H 0.9758 0.36951 0.86155 0.0
H2772 H 0.07223 0.49484 0.87607 0.0
H2773 H 1.02571 0.45659 0.87754 0.0
H2774 H 0.96303 0.4485 0.85692 0.0
C2775 C 0.9261 0.35926 0.84052 0.0
C2776 C 0.97205 0.38626 0.86092 0.0
C2777 C 0.91556 0.33603 0.83473 0.0
C2778 C 0.05837 0.48981 0.86993 0.0
C2779 C 1.03185 0.46835 0.87081 0.0
C2780 C 0.96535 0.43109 0.8583 0.0
C2781 C 0.9317 0.35816 0.85054 0.0
C2782 C 0.94905 0.38335 0.85597 0.0
C2783 C 1.014 0.46104 0.86278 0.0
C2784 C 0.9894 0.43431 0.86244 0.0
H2785 H 0.91108 0.29156 0.85245 0.0
H2786 H 0.92878 0.33186 0.86253 0.0
H2787 H 0.92755 0.40382 0.85134 0.0
H2788 H 0.05558 0.50868 0.84631 0.0
H2789 H 1.00908 0.47118 0.84781 0.0
C2790 C 0.629 0.57996 0.67209 0.0
C2791 C 0.62442 0.56319 0.68043 0.0
C2792 C 0.64358 0.6088 0.67248 0.0
C2793 C 0.69007 0.6714 0.68892 0.0
H2794 H 0.6795 0.71031 0.66769 0.0
C2795 C 0.74571 0.79371 0.68882 0.0
C2796 C 0.75045 0.80847 0.6799 0.0
C2797 C 0.73074 0.76465 0.68922 0.0
C2798 C 0.68342 0.70034 0.6737 0.0
H2799 H 0.63324 0.56628 0.69602 0.0
H2800 H 0.65836 0.61622 0.6968 0.0
H2801 H 0.65401 0.6614 0.66798 0.0
H2802 H 0.7419 0.80172 0.66431 0.0
H2803 H 0.71643 0.75235 0.66494 0.0
H2804 H 0.71933 0.71076 0.69468 0.0
C2805 C 0.65051 0.60681 0.68974 0.0
C2806 C 0.66837 0.67135 0.67387 0.0
C2807 C 0.63563 0.57757 0.68933 0.0
C2808 C 0.73909 0.79208 0.67141 0.0
C2809 C 0.724 0.76306 0.67181 0.0
C2810 C 0.70512 0.70053 0.68875 0.0
C2811 C 0.655 0.62357 0.68129 0.0
C2812 C 0.67119 0.65561 0.68143 0.0
C2813 C 0.7192 0.74813 0.68072 0.0
C2814 C 0.70253 0.71616 0.68109 0.0
H2815 H 0.62131 0.57066 0.66498 0.0
H2816 H 0.64625 0.61944 0.66563 0.0
H2817 H 0.69376 0.66129 0.69494 0.0
H2818 H 0.75376 0.8047 0.69563 0.0
H2819 H 0.72798 0.75517 0.69634 0.0
C2820 C 0.49042 0.04589 0.67653 0.0
C2821 C 0.50656 0.06917 0.68235 0.0
C2822 C 0.4613 0.03219 0.67642 0.0
C2823 C 0.3976 0.02815 0.68935 0.0
H2824 H 0.35912 0.98085 0.66756 0.0
C2825 C 0.27477 0.96209 0.6889 0.0
C2826 C 0.26003 0.95238 0.67995 0.0
C2827 C 0.30399 0.97608 0.68932 0.0
C2828 C 0.36898 0.99402 0.67376 0.0
H2829 H 0.5023 0.09544 0.69276 0.0
H2830 H 0.45241 0.07218 0.69259 0.0
H2831 H 0.4084 1.00475 0.66794 0.0
H2832 H 0.26698 0.95096 0.66436 0.0
H2833 H 0.31657 0.97467 0.66503 0.0
H2834 H 0.35798 1.01767 0.69506 0.0
C2835 C 0.46218 0.064 0.68805 0.0
C2836 C 0.39814 1.00789 0.67405 0.0
C2837 C 0.49145 0.07776 0.68814 0.0
C2838 C 0.2766 0.95759 0.67148 0.0
C2839 C 0.30576 0.97141 0.6719 0.0
C2840 C 0.36837 1.01419 0.68906 0.0
C2841 C 0.4459 0.04069 0.68213 0.0
C2842 C 0.41371 1.02554 0.68186 0.0
C2843 C 0.32069 0.98128 0.68083 0.0
C2844 C 0.35285 0.99657 0.68124 0.0
H2845 H 0.50042 0.03802 0.67192 0.0
H2846 H 0.45093 1.01446 0.67181 0.0
H2847 H 0.40749 0.04093 0.69564 0.0
H2848 H 0.26367 0.95899 0.6957 0.0
H2849 H 0.31342 0.98255 0.69647 0.0
C2850 C 0.9913 0.42484 0.68819 0.0
C2851 C 0.99944 0.44792 0.68213 0.0
C2852 C 1.005 0.40935 0.68809 0.0
C2853 C 0.05974 0.40001 0.67361 0.0
H2854 H 0.05183 0.35223 0.69508 0.0
C2855 C 0.11013 0.32911 0.67117 0.0
C2856 C 0.11582 0.31836 0.67969 0.0
C2857 C 0.09634 0.34442 0.67158 0.0
C2858 C 0.05479 0.36548 0.68894 0.0
H2859 H 1.02969 0.47175 0.67117 0.0
H2860 H 0.05306 0.44583 0.67103 0.0
H2861 H 1.02869 0.37842 0.69568 0.0
H2862 H 0.11008 0.31643 0.69548 0.0
H2863 H 0.08665 0.34253 0.69622 0.0
H2864 H 0.08612 0.38747 0.66694 0.0
C2865 C 1.03578 0.43898 0.67588 0.0
C2866 C 1.04088 0.38072 0.68925 0.0
C2867 C 1.02218 0.45441 0.67601 0.0
C2868 C 0.10662 0.32397 0.68865 0.0
C2869 C 0.09268 0.33915 0.68905 0.0
C2870 C 0.07355 0.38475 0.67329 0.0
C2871 C 1.02775 0.41572 0.68188 0.0
C2872 C 0.04282 0.39869 0.68159 0.0
C2873 C 0.08698 0.35004 0.68053 0.0
C2874 C 0.07169 0.36684 0.68094 0.0
H2875 H 0.97407 0.41852 0.69305 0.0
H2876 H 0.9972 0.39192 0.69288 0.0
H2877 H 0.06232 0.41278 0.66736 0.0
H2878 H 0.11634 0.32565 0.66404 0.0
H2879 H 0.0927 0.35149 0.66468 0.0
C2880 C 0.98914 0.77187 0.51373 0.0
C2881 C 0.99257 0.77819 0.52384 0.0
C2882 C 1.01164 0.78099 0.50759 0.0
C2883 C 0.06976 0.78059 0.50874 0.0
H2884 H 0.11215 0.84014 0.49084 0.0
C2885 C 0.17855 0.82482 0.50665 0.0
C2886 C 0.18447 0.80993 0.49996 0.0
C2887 C 0.15553 0.82698 0.50529 0.0
C2888 C 0.09997 0.82308 0.49561 0.0
H2889 H 1.02182 0.80106 0.53524 0.0
H2890 H 0.06134 0.81666 0.52445 0.0
H2891 H 0.0683 0.83296 0.49725 0.0
H2892 H 0.17349 0.78795 0.48618 0.0
H2893 H 0.13122 0.78948 0.48432 0.0
H2894 H 0.10156 0.77126 0.50754 0.0
C2895 C 1.04115 0.80494 0.52134 0.0
C2896 C 0.07529 0.81914 0.4993 0.0
C2897 C 1.01866 0.79589 0.52749 0.0
C2898 C 0.16862 0.79905 0.49149 0.0
C2899 C 0.14496 0.80037 0.49031 0.0
C2900 C 0.09399 0.78423 0.50498 0.0
C2901 C 1.03768 0.79658 0.51149 0.0
C2902 C 0.06082 0.79854 0.50617 0.0
C2903 C 0.13791 0.81349 0.49744 0.0
C2904 C 0.10963 0.80605 0.49871 0.0
H2905 H 0.96936 0.75779 0.51073 0.0
H2906 H 1.00883 0.77393 0.50005 0.0
H2907 H 0.05869 0.76461 0.51406 0.0
H2908 H 0.19118 0.83396 0.51307 0.0
H2909 H 0.15005 0.8369 0.5109 0.0
C2910 C 0.27446 0.23278 0.52651 0.0
C2911 C 0.29526 0.22893 0.52275 0.0
C2912 C 0.26245 0.24375 0.52056 0.0
C2913 C 0.2843 0.29244 0.50101 0.0
H2914 H 0.21181 0.28198 0.50402 0.0
C2915 C 0.26499 0.37825 0.49305 0.0
C2916 C 0.25872 0.38564 0.50209 0.0
C2917 C 0.26131 0.35245 0.49182 0.0
C2918 C 0.23191 0.28473 0.5029 0.0
H2919 H 0.31877 0.23211 0.50969 0.0
H2920 H 0.29736 0.25059 0.4993 0.0
H2921 H 0.22086 0.24609 0.50907 0.0
H2922 H 0.24107 0.37186 0.51653 0.0
H2923 H 0.23454 0.32656 0.51443 0.0
H2924 H 0.29589 0.33172 0.49554 0.0
C2925 C 0.29037 0.24519 0.50682 0.0
C2926 C 0.23712 0.26439 0.50584 0.0
C2927 C 0.30242 0.23433 0.51276 0.0
C2928 C 0.24685 0.36661 0.50963 0.0
C2929 C 0.24256 0.34065 0.50833 0.0
C2930 C 0.27905 0.31262 0.49803 0.0
C2931 C 0.2711 0.25099 0.51077 0.0
C2932 C 0.26366 0.26868 0.50536 0.0
C2933 C 0.25065 0.33371 0.49956 0.0
C2934 C 0.2532 0.30944 0.49945 0.0
H2935 H 0.2686 0.22876 0.53418 0.0
H2936 H 0.24791 0.24841 0.52384 0.0
H2937 H 0.30506 0.29654 0.5007 0.0
H2938 H 0.27359 0.39272 0.48708 0.0
H2939 H 0.26779 0.34746 0.48503 0.0
C2940 C 0.6879 0.89752 0.49323 0.0
C2941 C 0.6785 0.88408 0.50225 0.0
C2942 C 0.71455 0.91867 0.49237 0.0
C2943 C 0.78125 0.95437 0.50467 0.0
H2944 H 0.77519 1.01809 0.50009 0.0
C2945 C 0.83558 0.05054 0.5271 0.0
C2946 C 0.84027 0.07503 0.52298 0.0
C2947 C 0.82472 0.02724 0.52134 0.0
C2948 C 0.7778 1.00071 0.50107 0.0
H2949 H 0.68952 0.87988 0.51713 0.0
H2950 H 0.73621 0.91722 0.51569 0.0
H2951 H 0.73851 0.97431 0.49516 0.0
H2952 H 0.83932 0.09481 0.50944 0.0
H2953 H 0.82142 0.05448 0.49939 0.0
H2954 H 0.81994 0.98085 0.5112 0.0
C2955 C 0.72306 0.91158 0.50931 0.0
C2956 C 0.7567 0.97558 0.49823 0.0
C2957 C 0.69628 0.89076 0.51023 0.0
C2958 C 0.83632 0.07636 0.51283 0.0
C2959 C 0.82576 0.05317 0.50707 0.0
C2960 C 0.80258 0.97965 0.50744 0.0
C2961 C 0.73213 0.92619 0.50047 0.0
C2962 C 0.75766 0.95215 0.50049 0.0
C2963 C 0.8186 0.02817 0.51137 0.0
C2964 C 0.80037 1.00286 0.50612 0.0
H2965 H 0.67446 0.89196 0.48693 0.0
H2966 H 0.72119 0.92976 0.4855 0.0
H2967 H 0.78234 0.93644 0.50642 0.0
H2968 H 0.83866 0.04902 0.53488 0.0
H2969 H 0.81915 1.0082 0.52491 0.0
C2970 C 0.12049 0.80844 0.67358 0.0
C2971 C 0.12518 0.82303 0.68254 0.0
C2972 C 0.10575 0.77916 0.67325 0.0
C2973 C 0.05997 0.71511 0.68954 0.0
H2974 H 0.06848 0.67472 0.6684 0.0
C2975 C 1.00706 0.59401 0.69209 0.0
C2976 C 1.00067 0.57749 0.68357 0.0
C2977 C 1.02181 0.62306 0.69167 0.0
C2978 C 0.06533 0.68523 0.67442 0.0
H2979 H 0.11684 0.81582 0.69815 0.0
H2980 H 0.09241 0.76702 0.69761 0.0
H2981 H 0.09337 0.72422 0.66801 0.0
H2982 H 1.00626 0.5811 0.66776 0.0
H2983 H 1.03162 0.63061 0.66703 0.0
H2984 H 1.03197 0.67642 0.69595 0.0
C2985 C 0.09949 0.77754 0.69068 0.0
C2986 C 0.08 0.71438 0.67418 0.0
C2987 C 0.11415 0.8064 0.69101 0.0
C2988 C 1.01031 0.59217 0.67461 0.0
C2989 C 1.02531 0.62124 0.67419 0.0
C2990 C 0.04543 0.68611 0.68979 0.0
C2991 C 0.09453 0.76258 0.68183 0.0
C2992 C 0.07804 0.73052 0.68178 0.0
C2993 C 1.03153 0.6379 0.6827 0.0
C2994 C 0.04757 0.66992 0.68228 0.0
H2995 H 0.12828 0.81958 0.66679 0.0
H2996 H 0.10294 0.76958 0.66615 0.0
H2997 H 0.05644 0.72539 0.69554 0.0
H2998 H 1.00043 0.58442 0.69921 0.0
H2999 H 1.02582 0.63388 0.69856 0.0
C3000 C 0.261 0.31982 0.69133 0.0
C3001 C 0.24439 0.31248 0.68279 0.0
C3002 C 0.29001 0.33401 0.69099 0.0
C3003 C 0.35319 0.37469 0.67408 0.0
H3004 H 0.39148 0.36718 0.69627 0.0
C3005 C 0.47592 0.4282 0.6743 0.0
C3006 C 0.49074 0.43311 0.68322 0.0
C3007 C 0.4467 0.41403 0.67396 0.0
C3008 C 0.38174 0.37026 0.68998 0.0
H3009 H 0.24784 0.31575 0.66692 0.0
H3010 H 0.29802 0.34038 0.66627 0.0
H3011 H 0.34227 0.34296 0.69605 0.0
H3012 H 0.48398 0.42574 0.69887 0.0
H3013 H 0.43443 0.40185 0.69836 0.0
H3014 H 0.3929 0.40198 0.668 0.0
C3015 C 0.28838 0.33508 0.67342 0.0
C3016 C 0.35261 0.35593 0.68984 0.0
C3017 C 0.25903 0.32058 0.67377 0.0
C3018 C 0.47427 0.42285 0.69177 0.0
C3019 C 0.44512 0.40861 0.69143 0.0
C3020 C 0.38246 0.38913 0.67422 0.0
C3021 C 0.30498 0.34217 0.68205 0.0
C3022 C 0.33711 0.35765 0.68193 0.0
C3023 C 0.43009 0.40353 0.68252 0.0
C3024 C 0.39792 0.38759 0.68221 0.0
H3025 H 0.25144 0.31449 0.69851 0.0
H3026 H 0.30068 0.3389 0.69794 0.0
H3027 H 0.3432 0.37742 0.66778 0.0
H3028 H 0.48698 0.43533 0.66744 0.0
H3029 H 0.43721 0.41101 0.66682 0.0
C3030 C 0.74623 0.94758 0.67374 0.0
C3031 C 0.75586 0.94267 0.68273 0.0
C3032 C 0.73177 0.96246 0.67337 0.0
C3033 C 0.7134 1.00814 0.68965 0.0
H3034 H 0.66476 1.00044 0.66845 0.0
C3035 C 0.64531 0.06145 0.69226 0.0
C3036 C 0.63534 0.0681 0.68375 0.0
C3037 C 0.65957 0.04661 0.69182 0.0
C3038 C 0.67833 1.00335 0.6745 0.0
H3039 H 0.75658 0.95079 0.69835 0.0
H3040 H 0.73238 0.97539 0.69773 0.0
H3041 H 0.6893 0.97538 0.66804 0.0
H3042 H 0.63355 0.06285 0.66793 0.0
H3043 H 0.65763 0.03734 0.66715 0.0
H3044 H 0.7027 0.03606 0.69611 0.0
C3045 C 0.73597 0.96841 0.69081 0.0
C3046 C 0.69278 0.98858 0.67425 0.0
C3047 C 0.75008 0.95363 0.69118 0.0
C3048 C 0.64046 0.05861 0.67477 0.0
C3049 C 0.65449 0.04352 0.67433 0.0
C3050 C 0.69897 1.02276 0.68991 0.0
C3051 C 0.72625 0.97361 0.68193 0.0
C3052 C 0.71077 0.99024 0.68187 0.0
C3053 C 0.66479 0.03705 0.68283 0.0
C3054 C 0.68072 1.02091 0.68239 0.0
H3055 H 0.74972 0.93985 0.66696 0.0
H3056 H 0.72518 0.96544 0.66625 0.0
H3057 H 0.72714 1.01146 0.69567 0.0
H3058 H 0.64227 0.06795 0.6994 0.0
H3059 H 0.66625 0.0424 0.6987 0.0
C3060 C 0.23167 0.88403 0.19271 0.0
C3061 C 0.22967 0.9042 0.19776 0.0
C3062 C 0.25445 0.88146 0.19401 0.0
C3063 C 0.32115 0.90345 0.20205 0.0
H3064 H 0.34012 0.93509 0.17587 0.0
C3065 C 0.42619 0.9509 0.18216 0.0
C3066 C 0.42465 0.94251 0.17233 0.0
C3067 C 0.40265 0.94201 0.18768 0.0
C3068 C 0.33503 0.92615 0.18315 0.0
H3069 H 0.2469 0.93499 0.20905 0.0
H3070 H 0.2887 0.93257 0.21051 0.0
H3071 H 0.29693 0.92472 0.18309 0.0
H3072 H 0.39787 0.91726 0.16072 0.0
H3073 H 0.35648 0.90164 0.17042 0.0
H3074 H 0.35981 0.90522 0.20199 0.0
C3075 C 0.27223 0.91795 0.20596 0.0
C3076 C 0.31053 0.92036 0.18728 0.0
C3077 C 0.24884 0.9198 0.20493 0.0
C3078 C 0.39947 0.92386 0.16829 0.0
C3079 C 0.37596 0.91502 0.17381 0.0
C3080 C 0.34608 0.90952 0.19789 0.0
C3081 C 0.27584 0.9001 0.19994 0.0
C3082 C 0.30312 0.9082 0.19657 0.0
C3083 C 0.37742 0.92479 0.1834 0.0
C3084 C 0.35256 0.92003 0.18829 0.0
H3085 H 0.21649 0.87138 0.18735 0.0
H3086 H 0.25707 0.8676 0.18931 0.0
H3087 H 0.31565 0.89445 0.2093 0.0
H3088 H 0.44536 0.96585 0.18535 0.0
H3089 H 0.40402 0.95007 0.19502 0.0
C3090 C 0.14026 0.48068 0.16778 0.0
C3091 C 0.12598 0.49208 0.17215 0.0
C3092 C 0.14902 0.46639 0.17352 0.0
C3093 C 0.16628 0.4481 0.19564 0.0
H3094 H 0.11674 0.37425 0.18749 0.0
C3095 C 0.14328 0.33457 0.20363 0.0
C3096 C 0.15254 0.32827 0.19502 0.0
C3097 C 0.14608 0.36006 0.20471 0.0
C3098 C 0.13024 0.39474 0.19 0.0
H3099 H 0.11112 0.49907 0.18594 0.0
H3100 H 0.12663 0.47394 0.19596 0.0
H3101 H 0.11057 0.4107 0.18118 0.0
H3102 H 0.17543 0.34382 0.18152 0.0
H3103 H 0.1807 0.38875 0.18345 0.0
H3104 H 0.18723 0.43186 0.20385 0.0
C3105 C 0.13138 0.4766 0.18817 0.0
C3106 C 0.12685 0.41543 0.18637 0.0
C3107 C 0.1226 0.49093 0.18243 0.0
C3108 C 0.16725 0.34823 0.18801 0.0
C3109 C 0.17088 0.37393 0.18925 0.0
C3110 C 0.16998 0.42721 0.19919 0.0
C3111 C 0.14365 0.46348 0.18365 0.0
C3112 C 0.14538 0.4422 0.1889 0.0
C3113 C 0.15903 0.37942 0.19732 0.0
C3114 C 0.15238 0.40066 0.19609 0.0
H3115 H 0.14302 0.48131 0.15987 0.0
H3116 H 0.1582 0.45593 0.16996 0.0
H3117 H 0.18052 0.46882 0.19767 0.0
H3118 H 0.13262 0.31935 0.20924 0.0
H3119 H 0.13645 0.36398 0.21087 0.0
C3120 C 0.58505 0.64212 0.18193 0.0
C3121 C 0.57567 0.64174 0.17233 0.0
C3122 C 0.59723 0.666 0.18732 0.0
C3123 C 0.63879 0.73576 0.18104 0.0
H3124 H 0.64299 0.74945 0.20917 0.0
C3125 C 0.71273 0.83696 0.19269 0.0
C3126 C 0.73417 0.83664 0.19754 0.0
C3127 C 0.6868 0.81474 0.19327 0.0
C3128 C 0.64171 0.74574 0.20132 0.0
H3129 H 0.56901 0.66483 0.16117 0.0
H3130 H 0.58964 0.7066 0.17073 0.0
H3131 H 0.60709 0.7058 0.20259 0.0
H3132 H 0.7459 0.81478 0.20752 0.0
H3133 H 0.70045 0.77419 0.20777 0.0
H3134 H 0.67359 0.77479 0.17967 0.0
C3135 C 0.58798 0.68855 0.17401 0.0
C3136 C 0.62136 0.72101 0.19757 0.0
C3137 C 0.57611 0.66475 0.16857 0.0
C3138 C 0.72933 0.81492 0.20364 0.0
C3139 C 0.70341 0.7921 0.20394 0.0
C3140 C 0.65878 0.76017 0.18474 0.0
C3141 C 0.60001 0.6897 0.18317 0.0
C3142 C 0.61968 0.71606 0.18737 0.0
C3143 C 0.6825 0.79143 0.19825 0.0
C3144 C 0.66022 0.7655 0.19485 0.0
H3145 H 0.58535 0.62469 0.18492 0.0
H3146 H 0.60664 0.66644 0.1943 0.0
H3147 H 0.63884 0.73205 0.17322 0.0
H3148 H 0.71621 0.85369 0.18802 0.0
H3149 H 0.6708 0.81453 0.18888 0.0
C3150 C 0.31072 0.91033 0.02178 0.0
C3151 C 0.28758 0.89498 0.01573 0.0
C3152 C 0.32609 0.93951 0.02159 0.0
C3153 C 0.33443 1.00294 1.00697 0.0
H3154 H 0.38374 0.04361 0.02801 0.0
C3155 C 0.40339 0.12456 1.00427 0.0
C3156 C 0.4158 0.14106 1.01266 0.0
C3157 C 0.38834 0.09546 1.00471 0.0
C3158 C 0.37006 0.03314 0.02199 0.0
H3159 H 0.26355 0.90075 1.00468 0.0
H3160 H 0.28923 0.94991 1.00437 0.0
H3161 H 0.35787 0.99443 0.02876 0.0
H3162 H 0.42091 0.1373 0.02826 0.0
H3163 H 0.39522 0.08794 0.02907 0.0
H3164 H 0.34616 0.04151 1.00027 0.0
C3165 C 0.29625 0.93986 1.0093 0.0
C3166 C 0.35497 1.00402 0.02238 0.0
C3167 C 0.28093 0.91086 1.00953 0.0
C3168 C 0.41208 0.12629 0.02152 0.0
C3169 C 0.3971 0.09721 0.02196 0.0
C3170 C 0.34949 0.03199 1.00657 0.0
C3171 C 0.31956 0.95552 0.01529 0.0
C3172 C 0.33644 0.98764 0.01489 0.0
C3173 C 0.38456 0.08051 1.01357 0.0
C3174 C 0.36797 0.0484 1.01406 0.0
H3175 H 0.31717 0.89975 0.02672 0.0
H3176 H 0.34355 0.94942 0.02638 0.0
H3177 H 0.32122 0.99255 1.00082 0.0
H3178 H 0.40534 0.13418 0.99722 0.0
H3179 H 0.37995 0.08476 0.99789 0.0
C3180 C 0.15604 0.39392 1.00537 0.0
C3181 C 0.17272 0.40602 1.01376 0.0
C3182 C 0.12704 0.37949 1.0057 0.0
C3183 C 0.0638 0.36319 0.02187 0.0
H3184 H 1.0252 0.31289 1.0008 0.0
C3185 C 0.94095 0.29694 0.02151 0.0
C3186 C 0.92616 0.28577 1.01265 0.0
C3187 C 0.97014 0.31107 0.02195 0.0
C3188 C 1.03506 0.32702 1.00676 0.0
H3189 H 0.16928 0.4114 0.02936 0.0
H3190 H 0.11904 0.38632 0.03002 0.0
H3191 H 0.07437 0.33657 1.00124 0.0
H3192 H 0.93299 0.28196 0.99722 0.0
H3193 H 0.98266 0.30606 0.9979 0.0
H3194 H 1.02416 0.35323 0.02743 0.0
C3195 C 0.12868 0.38808 0.02298 0.0
C3196 C 0.06419 0.34107 1.00702 0.0
C3197 C 0.15808 0.40259 0.02264 0.0
C3198 C 0.94267 0.28973 1.00427 0.0
C3199 C 0.97186 0.30377 1.0047 0.0
C3200 C 1.03453 0.34904 0.02162 0.0
C3201 C 0.11203 0.3759 1.01448 0.0
C3202 C 0.07984 0.35993 1.01453 0.0
C3203 C 0.98682 0.31505 1.01356 0.0
C3204 C 1.01897 0.33049 1.014 0.0
H3205 H 0.16554 0.39574 0.99829 0.0
H3206 H 0.11646 0.37159 0.99883 0.0
H3207 H 0.07384 0.37722 0.02785 0.0
H3208 H 0.92987 0.29483 0.02824 0.0
H3209 H 0.97955 0.31863 0.02903 0.0
C3210 C 0.77413 0.65883 1.00432 0.0
C3211 C 0.78302 0.65126 1.01289 0.0
C3212 C 0.76008 0.67385 1.00469 0.0
C3213 C 0.73738 0.71362 0.02236 0.0
H3214 H 0.69698 0.71345 0.9995 0.0
C3215 C 0.67003 0.76979 0.02236 0.0
C3216 C 0.66342 0.77754 1.01329 0.0
C3217 C 0.68435 0.75481 0.02279 0.0
C3218 C 0.70832 0.7145 1.00602 0.0
H3219 H 0.78291 0.65487 0.02875 0.0
H3220 H 0.7588 0.68032 0.02943 0.0
H3221 H 0.72098 0.68856 0.99924 0.0
H3222 H 0.66809 0.77463 0.99759 0.0
H3223 H 0.69233 0.75002 0.99829 0.0
H3224 H 0.72421 0.7395 0.02914 0.0
C3225 C 0.76283 0.67495 0.02225 0.0
C3226 C 0.72255 0.69969 1.00587 0.0
C3227 C 0.77691 0.6599 0.02187 0.0
C3228 C 0.67219 0.76946 1.00481 0.0
C3229 C 0.68628 0.75468 1.00522 0.0
C3230 C 0.72305 0.72848 0.02252 0.0
C3231 C 0.7537 0.68246 1.01366 0.0
C3232 C 0.73785 0.69871 1.01399 0.0
C3233 C 0.69283 0.74649 1.01418 0.0
C3234 C 0.70811 0.7297 1.01431 0.0
H3235 H 0.77799 0.65304 0.99718 0.0
H3236 H 0.75448 0.67887 0.99774 0.0
H3237 H 0.74854 0.71432 0.0289 0.0
H3238 H 0.66403 0.77512 0.02918 0.0
H3239 H 0.68838 0.74942 0.02997 0.0
C3240 C 0.83823 0.1379 0.82614 0.0
C3241 C 0.85234 0.14445 0.83509 0.0
C3242 C 0.81637 0.14218 0.82496 0.0
C3243 C 0.77759 0.17106 0.83623 0.0
H3244 H 0.71793 0.09705 0.83561 0.0
C3245 C 0.68245 0.12871 0.86022 0.0
C3246 C 0.65799 0.10761 0.85646 0.0
C3247 C 0.70579 0.14038 0.85439 0.0
C3248 C 0.73409 0.11797 0.83549 0.0
H3249 H 0.85795 0.16386 0.84925 0.0
H3250 H 0.81968 0.17156 0.84721 0.0
H3251 H 0.76239 0.10713 0.82997 0.0
H3252 H 0.63844 0.083 0.84356 0.0
H3253 H 0.67888 0.1038 0.83339 0.0
H3254 H 0.74936 0.18144 0.84243 0.0
C3255 C 0.82506 0.16273 0.84118 0.0
C3256 C 0.75955 0.12375 0.83222 0.0
C3257 C 0.84644 0.15779 0.84246 0.0
C3258 C 0.65682 0.09965 0.84661 0.0
C3259 C 0.68004 0.11132 0.8408 0.0
C3260 C 0.75194 0.16529 0.83946 0.0
C3261 C 0.80905 0.15369 0.83264 0.0
C3262 C 0.78169 0.1501 0.83297 0.0
C3263 C 0.7049 0.13105 0.84475 0.0
C3264 C 0.73029 0.13852 0.83947 0.0
H3265 H 0.84321 0.12819 0.8203 0.0
H3266 H 0.80418 0.13502 0.81834 0.0
H3267 H 0.79455 0.19149 0.83689 0.0
H3268 H 0.68386 0.13515 0.8678 0.0
H3269 H 0.72485 0.15532 0.85765 0.0
C3270 C 0.93252 0.7112 0.82555 0.0
C3271 C 0.9239 0.71645 0.83454 0.0
C3272 C 0.93111 0.68643 0.82405 0.0
C3273 C 0.95152 0.65135 0.83593 0.0
H3274 H 0.89469 0.57658 0.83267 0.0
C3275 C 0.93908 0.56735 0.8603 0.0
C3276 C 0.95705 0.55914 0.8568 0.0
C3277 C 0.92926 0.57953 0.85391 0.0
C3278 C 0.91078 0.59741 0.8334 0.0
H3279 H 0.90383 0.6997 0.84843 0.0
H3280 H 0.90071 0.65588 0.8457 0.0
H3281 H 0.88726 0.61328 0.82685 0.0
H3282 H 0.97716 0.55528 0.8438 0.0
H3283 H 0.95997 0.57673 0.83273 0.0
H3284 H 0.97401 0.63589 0.84333 0.0
C3285 C 0.90901 0.67103 0.83994 0.0
C3286 C 0.90664 0.61817 0.83004 0.0
C3287 C 0.91131 0.69607 0.84159 0.0
C3288 C 0.9629 0.5609 0.84667 0.0
C3289 C 0.95319 0.5732 0.84032 0.0
C3290 C 0.95553 0.63076 0.83933 0.0
C3291 C 0.92003 0.6666 0.83138 0.0
C3292 C 0.92667 0.64513 0.83166 0.0
C3293 C 0.93726 0.58346 0.84401 0.0
C3294 C 0.9348 0.60382 0.83839 0.0
H3295 H 0.94181 0.72679 0.81998 0.0
H3296 H 0.94011 0.68336 0.8175 0.0
H3297 H 0.96683 0.67215 0.83744 0.0
H3298 H 0.93438 0.5663 0.86807 0.0
H3299 H 0.91739 0.58796 0.85686 0.0
C3300 C 0.35786 0.22352 0.84361 0.0
C3301 C 0.34069 0.21821 0.83555 0.0
C3302 C 0.38375 0.24595 0.84352 0.0
C3303 C 0.439 0.30073 0.83042 0.0
H3304 H 0.44071 0.34048 0.85384 0.0
C3305 C 0.50701 0.41228 0.84535 0.0
C3306 C 0.51476 0.41192 0.85516 0.0
C3307 C 0.49354 0.3883 0.83999 0.0
C3308 C 0.44053 0.3295 0.8473 0.0
H3309 H 0.33715 0.23021 0.82074 0.0
H3310 H 0.38241 0.27129 0.8209 0.0
H3311 H 0.3998 0.29836 0.84989 0.0
H3312 H 0.51868 0.38738 0.86648 0.0
H3313 H 0.49474 0.3454 0.85714 0.0
H3314 H 0.48019 0.33271 0.82791 0.0
C3315 C 0.37596 0.25766 0.82714 0.0
C3316 C 0.41722 0.30555 0.84504 0.0
C3317 C 0.35011 0.23464 0.82713 0.0
C3318 C 0.51268 0.38813 0.85897 0.0
C3319 C 0.49922 0.3642 0.85361 0.0
C3320 C 0.46262 0.32513 0.83268 0.0
C3321 C 0.3925 0.26379 0.83549 0.0
C3322 C 0.41653 0.29056 0.83679 0.0
C3323 C 0.48788 0.36393 0.84441 0.0
C3324 C 0.46358 0.33904 0.84132 0.0
H3325 H 0.35124 0.21038 0.85 0.0
H3326 H 0.39651 0.25019 0.84996 0.0
H3327 H 0.43859 0.28944 0.82395 0.0
H3328 H 0.50812 0.43026 0.84223 0.0
H3329 H 0.48457 0.38836 0.83296 0.0
C3330 C 0.67926 0.92798 0.02468 0.0
C3331 C 0.66792 0.91158 0.01618 0.0
C3332 C 0.69435 0.95704 0.02432 0.0
C3333 C 0.7142 1.0197 1.00717 0.0
H3334 H 0.76213 0.05955 0.02865 0.0
C3335 C 0.7734 0.14235 1.00794 0.0
C3336 C 0.79646 0.15751 1.01405 0.0
C3337 C 0.758 0.1132 1.00803 0.0
C3338 C 0.74918 0.04936 0.02243 0.0
H3339 H 0.66476 0.91555 1.00046 0.0
H3340 H 0.69055 0.96504 0.9998 0.0
H3341 H 0.73706 1.01054 0.02899 0.0
H3342 H 0.82032 0.15148 0.02509 0.0
H3343 H 0.79457 0.10226 0.02522 0.0
H3344 H 0.72674 0.05864 1.00054 0.0
C3345 C 0.68776 0.95558 1.00692 0.0
C3346 C 0.73405 1.02031 0.02269 0.0
C3347 C 0.67275 0.92647 1.00728 0.0
C3348 C 0.80301 0.14149 0.02021 0.0
C3349 C 0.78766 0.11248 0.02033 0.0
C3350 C 0.72933 0.04882 1.00691 0.0
C3351 C 0.69925 0.97211 0.01543 0.0
C3352 C 0.71591 1.0042 0.01508 0.0
C3353 C 0.76444 0.09702 1.01427 0.0
C3354 C 0.74753 0.06492 1.01453 0.0
H3355 H 0.67642 0.91828 0.03177 0.0
H3356 H 0.70186 0.96764 0.03122 0.0
H3357 H 0.70077 1.0094 1.00106 0.0
H3358 H 0.76702 0.15307 1.00305 0.0
H3359 H 0.7406 0.10343 1.00321 0.0
C3360 C 0.92645 0.65524 1.00701 0.0
C3361 C 0.91163 0.64589 0.01596 0.0
C3362 C 0.9558 0.66983 1.00675 0.0
C3363 C 1.01959 0.68828 0.02308 0.0
H3364 H 0.06036 0.73814 1.00218 0.0
C3365 C 0.14106 0.75668 0.02569 0.0
C3366 C 0.15761 0.76694 0.01717 0.0
C3367 C 0.1119 0.74234 0.02528 0.0
C3368 C 0.04974 0.7242 1.00812 0.0
H3369 H 0.91831 0.64561 0.03164 0.0
H3370 H 0.96753 0.67004 0.03122 0.0
H3371 H 1.01063 0.71342 1.00176 0.0
H3372 H 0.15409 0.76924 1.00137 0.0
H3373 H 0.10435 0.74501 1.00065 0.0
H3374 H 0.05841 0.69877 0.02944 0.0
C3375 C 0.95702 0.66617 0.02426 0.0
C3376 C 1.0205 0.70967 1.00787 0.0
C3377 C 0.92802 0.65198 0.02452 0.0
C3378 C 0.14294 0.76207 1.00821 0.0
C3379 C 0.11377 0.74797 1.0078 0.0
C3380 C 0.0487 0.70275 0.02334 0.0
C3381 C 0.97218 0.67567 0.0154 0.0
C3382 C 1.00427 0.69125 0.01539 0.0
C3383 C 0.09707 0.73738 0.01632 0.0
C3384 C 0.06499 0.7214 0.01591 0.0
H3385 H 0.91541 0.65146 1.00016 0.0
H3386 H 0.96562 0.67622 0.99966 0.0
H3387 H 1.00911 0.67422 0.02901 0.0
H3388 H 0.1507 0.75952 0.0328 0.0
H3389 H 0.101 0.7354 0.03216 0.0
C3390 C 0.30725 0.39051 0.02513 0.0
C3391 C 0.30222 0.40194 0.01665 0.0
C3392 C 0.32099 0.37516 0.02472 0.0
C3393 C 0.3633 0.35468 1.00745 0.0
H3394 H 0.35475 0.3066 0.02889 0.0
C3395 C 0.42589 0.29433 1.00809 0.0
C3396 C 0.41777 0.27132 1.0142 0.0
C3397 C 0.41235 0.30997 1.0082 0.0
C3398 C 0.35764 0.31958 0.02268 0.0
H3399 H 0.30914 0.40498 1.00091 0.0
H3400 H 0.33248 0.37878 1.00017 0.0
H3401 H 0.33116 0.33208 0.02929 0.0
H3402 H 0.38772 0.24783 0.02526 0.0
H3403 H 0.36459 0.27399 0.02542 0.0
H3404 H 0.38947 0.34176 1.00077 0.0
C3405 C 0.32595 0.38169 1.00731 0.0
C3406 C 0.34393 0.33495 0.02298 0.0
C3407 C 0.31207 0.39694 1.00772 0.0
C3408 C 0.3952 0.26509 0.02038 0.0
C3409 C 0.38175 0.28067 0.02052 0.0
C3410 C 0.37708 0.3393 1.00715 0.0
C3411 C 0.33097 0.3701 0.0158 0.0
C3412 C 0.34615 0.35317 0.01539 0.0
C3413 C 0.38974 0.30385 1.01447 0.0
C3414 C 0.37479 0.32104 1.01475 0.0
H3415 H 0.30052 0.39346 0.03224 0.0
H3416 H 0.32408 0.36758 0.0316 0.0
H3417 H 0.36655 0.36813 1.00136 0.0
H3418 H 0.443 0.30047 1.00318 0.0
H3419 H 0.42014 0.32731 1.00338 0.0
C3420 C 0.05656 0.25956 0.50103 0.0
C3421 C 0.08349 0.27211 0.50434 0.0
C3422 C 1.03534 0.24707 0.50776 0.0
C3423 C 0.99583 0.21502 0.52471 0.0
H3424 H 0.99256 0.27615 0.53554 0.0
C3425 C 0.91198 0.24633 0.53689 0.0
C3426 C 0.90044 0.24239 0.52746 0.0
C3427 C 0.934 0.24244 0.53848 0.0
C3428 C 0.99347 0.25863 0.53301 0.0
H3429 H 0.10965 0.28067 0.51705 0.0
H3430 H 0.07224 0.25937 0.52887 0.0
H3431 H 1.0358 0.28228 0.52965 0.0
H3432 H 0.90105 0.22972 0.51251 0.0
H3433 H 0.93933 0.22246 0.51529 0.0
H3434 H 0.95288 0.19214 0.52705 0.0
C3435 C 0.06772 0.25858 0.52109 0.0
C3436 C 1.01815 0.26214 0.52962 0.0
C3437 C 0.08895 0.27063 0.51434 0.0
C3438 C 0.91011 0.23333 0.51977 0.0
C3439 C 0.93156 0.22872 0.52142 0.0
C3440 C 0.97118 0.21146 0.52816 0.0
C3441 C 1.0409 0.24736 0.51784 0.0
C3442 C 1.01894 0.24079 0.52485 0.0
C3443 C 0.9439 0.23366 0.53072 0.0
C3444 C 0.96961 0.23377 0.53159 0.0
H3445 H 0.05199 0.26078 0.49337 0.0
H3446 H 1.01466 0.239 0.50518 0.0
H3447 H 0.99623 0.19843 0.52102 0.0
H3448 H 0.90441 0.2531 0.54293 0.0
H3449 H 0.94361 0.24675 0.54565 0.0
C3450 C 0.81692 0.82928 0.50293 0.0
C3451 C 0.79374 0.82905 0.50651 0.0
C3452 C 0.82761 0.81564 0.50805 0.0
C3453 C 0.81948 0.77423 0.5304 0.0
H3454 H 0.82846 0.72965 0.51098 0.0
C3455 C 0.80149 0.66454 0.53371 0.0
C3456 C 0.82019 0.66052 0.52833 0.0
C3457 C 0.80442 0.69032 0.5341 0.0
C3458 C 0.82654 0.74226 0.51651 0.0
H3459 H 0.76398 0.81558 0.51828 0.0
H3460 H 0.78186 0.79077 0.52697 0.0
H3461 H 0.82405 0.76728 0.50557 0.0
H3462 H 0.85757 0.67977 0.52 0.0
H3463 H 0.86343 0.72457 0.52103 0.0
H3464 H 0.82038 0.74736 0.5413 0.0
C3465 C 0.79259 0.80232 0.52052 0.0
C3466 C 0.82424 0.764 0.51342 0.0
C3467 C 0.78228 0.81643 0.51552 0.0
C3468 C 0.84288 0.68242 0.5241 0.0
C3469 C 0.84635 0.70807 0.52478 0.0
C3470 C 0.82164 0.75208 0.53352 0.0
C3471 C 0.81464 0.80088 0.5166 0.0
C3472 C 0.82061 0.78021 0.52029 0.0
C3473 C 0.82638 0.71193 0.52925 0.0
C3474 C 0.82524 0.73609 0.52655 0.0
H3475 H 0.82588 0.83883 0.49597 0.0
H3476 H 0.8449 0.81511 0.50495 0.0
H3477 H 0.81645 0.78634 0.53583 0.0
H3478 H 0.78406 0.64766 0.53716 0.0
H3479 H 0.78866 0.69292 0.53751 0.0
C3480 C 0.25056 0.97793 0.5164 0.0
C3481 C 0.24543 0.97923 0.50636 0.0
C3482 C 0.26137 1.00103 0.5222 0.0
C3483 C 0.28018 0.07309 0.52272 0.0
H3484 H 0.3469 0.08258 0.53415 0.0
C3485 C 0.38338 0.165 0.51963 0.0
C3486 C 0.4021 0.17174 0.52728 0.0
C3487 C 0.3568 0.14409 0.52089 0.0
C3488 C 0.32791 0.08006 0.53135 0.0
H3489 H 0.24601 1.00521 0.49463 0.0
H3490 H 0.26568 0.04594 0.50473 0.0
H3491 H 0.31243 0.03817 0.52871 0.0
H3492 H 0.408 0.16437 0.54247 0.0
H3493 H 0.36166 0.12623 0.54448 0.0
H3494 H 0.29731 0.11583 0.52451 0.0
C3495 C 0.26075 0.02691 0.50816 0.0
C3496 C 0.30815 0.0546 0.5282 0.0
C3497 C 0.24979 1.00371 0.50235 0.0
C3498 C 0.39375 0.15879 0.53642 0.0
C3499 C 0.36733 0.13742 0.53762 0.0
C3500 C 0.30012 0.0987 0.52582 0.0
C3501 C 0.26746 1.02589 0.51805 0.0
C3502 C 0.28467 0.05114 0.52346 0.0
C3503 C 0.34899 0.12937 0.52974 0.0
C3504 C 0.32463 0.10248 0.52971 0.0
H3505 H 0.24798 0.95949 0.51966 0.0
H3506 H 0.26639 0.99974 0.5298 0.0
H3507 H 0.26207 0.07078 0.51919 0.0
H3508 H 0.38939 0.17556 0.51264 0.0
H3509 H 0.34302 0.13811 0.51469 0.0
C3510 C 0.07411 0.46017 0.35491 0.0
C3511 C 0.08333 0.47495 0.34596 0.0
C3512 C 0.05921 0.43111 0.35529 0.0
C3513 C 1.03861 0.36649 0.3395 0.0
H3514 H 0.99148 0.32814 0.36143 0.0
C3515 C 0.97007 0.24619 0.33824 0.0
C3516 C 0.95931 0.22955 0.34672 0.0
C3517 C 0.98472 0.27504 0.33858 0.0
C3518 C 1.00462 0.33805 0.35521 0.0
H3519 H 0.08293 0.46826 0.33027 0.0
H3520 H 0.05767 0.41879 0.33085 0.0
H3521 H 1.01627 0.37763 0.3611 0.0
H3522 H 0.95668 0.23294 0.3625 0.0
H3523 H 0.982 0.28292 0.36315 0.0
H3524 H 1.02747 0.32729 0.33364 0.0
C3525 C 0.06196 0.42952 0.33776 0.0
C3526 C 1.01923 0.36719 0.355 0.0
C3527 C 0.07662 0.45857 0.33739 0.0
C3528 C 0.96426 0.2441 0.35569 0.0
C3529 C 0.97898 0.27336 0.35603 0.0
C3530 C 1.02414 0.3375 0.33971 0.0
C3531 C 0.05266 0.41458 0.34673 0.0
C3532 C 1.0367 0.38258 0.3471 0.0
C3533 C 0.98992 0.28996 0.34745 0.0
C3534 C 1.00635 0.32201 0.34752 0.0
H3535 H 0.07844 0.47115 0.36179 0.0
H3536 H 0.05323 0.42164 0.36244 0.0
H3537 H 0.05185 0.37628 0.33328 0.0
H3538 H 0.96716 0.23677 0.33109 0.0
H3539 H 0.99159 0.28559 0.33164 0.0
C3540 C 0.82401 0.71192 0.34359 0.0
C3541 C 0.84016 0.73528 0.34939 0.0
C3542 C 0.79491 0.69843 0.34335 0.0
C3543 C 0.73101 0.69475 0.35592 0.0
H3544 H 0.69308 0.64782 0.33397 0.0
C3545 C 0.6083 0.62965 0.35512 0.0
C3546 C 0.59351 0.61903 0.34623 0.0
C3547 C 0.63749 0.6436 0.35556 0.0
C3548 C 0.70276 0.66086 0.34022 0.0
H3549 H 0.83586 0.76192 0.3596 0.0
H3550 H 0.78593 0.7389 0.35925 0.0
H3551 H 0.74235 0.67162 0.33455 0.0
H3552 H 0.60038 0.61597 0.33074 0.0
H3553 H 0.65006 0.6398 0.33143 0.0
H3554 H 0.6913 0.68434 0.36148 0.0
C3555 C 0.79574 0.73055 0.35481 0.0
C3556 C 0.73192 0.67468 0.34063 0.0
C3557 C 0.82503 0.74416 0.35502 0.0
C3558 C 0.61005 0.62334 0.33781 0.0
C3559 C 0.63926 0.63724 0.33825 0.0
C3560 C 0.70178 0.68087 0.35551 0.0
C3561 C 0.77949 0.70718 0.34892 0.0
C3562 C 0.74731 0.69218 0.3485 0.0
C3563 C 0.65422 0.64799 0.34715 0.0
C3564 C 0.68642 0.66333 0.34764 0.0
H3565 H 0.83399 0.70384 0.33908 0.0
H3566 H 0.78456 0.68065 0.33877 0.0
H3567 H 0.74075 0.70742 0.36224 0.0
H3568 H 0.59723 0.62724 0.36188 0.0
H3569 H 0.64683 0.65068 0.36269 0.0
C3570 C 0.33626 0.10314 0.35588 0.0
C3571 C 0.32983 0.11116 0.34683 0.0
C3572 C 0.35078 0.08832 0.35627 0.0
C3573 C 0.38904 0.06171 0.33926 0.0
H3574 H 0.39272 1.02593 0.36283 0.0
C3575 C 0.44091 0.99244 0.33782 0.0
C3576 C 0.44981 0.98485 0.34638 0.0
C3577 C 0.42688 1.00748 0.33819 0.0
C3578 C 0.39235 0.03575 0.35608 0.0
H3579 H 0.33459 0.10842 0.33113 0.0
H3580 H 0.3582 0.0834 0.33174 0.0
H3581 H 0.36877 0.0514 0.36304 0.0
H3582 H 0.44966 0.98839 0.36224 0.0
H3583 H 0.4261 1.0144 0.36292 0.0
H3584 H 0.41263 0.04643 0.33228 0.0
C3585 C 0.353 0.08864 0.33872 0.0
C3586 C 0.37818 0.05079 0.35621 0.0
C3587 C 0.33879 0.10331 0.33834 0.0
C3588 C 0.44363 0.99341 0.35536 0.0
C3589 C 0.42961 1.00854 0.35575 0.0
C3590 C 0.40305 0.0467 0.33912 0.0
C3591 C 0.3598 0.08052 0.34766 0.0
C3592 C 0.37576 0.06429 0.34776 0.0
C3593 C 0.42065 1.01623 0.34717 0.0
C3594 C 0.40525 0.03295 0.34749 0.0
H3595 H 0.33004 0.1082 0.36271 0.0
H3596 H 0.35499 0.08317 0.36346 0.0
H3597 H 0.38919 0.07167 0.33249 0.0
H3598 H 0.4446 0.98652 0.33067 0.0
H3599 H 0.42056 1.01181 0.33126 0.0
C3600 C 0.25602 0.41324 0.09441 0.0
C3601 C 0.25049 0.39569 0.08636 0.0
C3602 C 0.25319 0.4039 0.10415 0.0
C3603 C 0.24456 0.34532 0.1196 0.0
H3604 H 0.21807 0.3766 0.13889 0.0
C3605 C 0.20632 0.29851 0.15855 0.0
C3606 C 0.2121 0.31607 0.16663 0.0
C3607 C 0.21273 0.30848 0.14889 0.0
C3608 C 0.22582 0.36783 0.13366 0.0
H3609 H 0.23871 0.35436 0.08252 0.0
H3610 H 0.23278 0.33797 0.09937 0.0
H3611 H 0.2257 0.39298 0.12202 0.0
H3612 H 0.22971 0.3582 0.17072 0.0
H3613 H 0.24102 0.37561 0.15389 0.0
H3614 H 0.24397 0.3197 0.13127 0.0
C3615 C 0.23965 0.35916 0.09818 0.0
C3616 C 0.2303 0.37731 0.12391 0.0
C3617 C 0.2427 0.36856 0.08844 0.0
C3618 C 0.22499 0.34401 0.16474 0.0
C3619 C 0.23126 0.35399 0.15504 0.0
C3620 C 0.23986 0.33569 0.12935 0.0
C3621 C 0.24448 0.37658 0.10623 0.0
C3622 C 0.23985 0.36633 0.1167 0.0
C3623 C 0.225 0.33636 0.14695 0.0
C3624 C 0.23049 0.34685 0.13655 0.0
H3625 H 0.26181 0.43418 0.09324 0.0
H3626 H 0.25776 0.41826 0.11005 0.0
H3627 H 0.25225 0.33646 0.11439 0.0
H3628 H 0.19635 0.27685 0.15965 0.0
H3629 H 0.2073 0.29418 0.1429 0.0
C3630 C 0.69572 0.85992 0.08948 0.0
C3631 C 0.67646 0.86611 0.08566 0.0
C3632 C 0.70439 0.86572 0.09927 0.0
C3633 C 0.70644 0.9054 0.12149 0.0
H3634 H 0.71805 0.85208 0.13484 0.0
C3635 C 0.72992 0.90733 0.16392 0.0
C3636 C 0.75148 0.90279 0.16615 0.0
C3637 C 0.71988 0.90404 0.15422 0.0
C3638 C 0.71505 0.86728 0.13123 0.0
H3639 H 0.65187 0.88414 0.08927 0.0
H3640 H 0.66673 0.89393 0.10646 0.0
H3641 H 0.70271 0.84464 0.11784 0.0
H3642 H 0.77895 0.89073 0.15992 0.0
H3643 H 0.76122 0.88446 0.14328 0.0
H3644 H 0.71866 0.92784 0.13506 0.0
C3645 C 0.67525 0.88466 0.1018 0.0
C3646 C 0.70636 0.86309 0.12142 0.0
C3647 C 0.6665 0.87879 0.09195 0.0
C3648 C 0.76246 0.89461 0.1585 0.0
C3649 C 0.75217 0.89084 0.14893 0.0
C3650 C 0.715 0.90952 0.13138 0.0
C3651 C 0.69402 0.87779 0.10566 0.0
C3652 C 0.70227 0.88222 0.11632 0.0
C3653 C 0.73074 0.89546 0.14662 0.0
C3654 C 0.71977 0.89064 0.13633 0.0
H3655 H 0.70371 0.84988 0.08496 0.0
H3656 H 0.71925 0.86057 0.10184 0.0
H3657 H 0.70374 0.92072 0.11782 0.0
H3658 H 0.72106 0.91373 0.16963 0.0
H3659 H 0.7033 0.9077 0.1527 0.0
C3660 C 0.15532 0.82878 0.16351 0.0
C3661 C 0.16382 0.85551 0.16635 0.0
C3662 C 0.15883 0.82288 0.1537 0.0
C3663 C 0.20124 0.85468 0.13159 0.0
H3664 H 0.14259 0.79764 0.1166 0.0
C3665 C 0.21154 0.8465 0.08965 0.0
C3666 C 0.20079 0.82074 0.08533 0.0
C3667 C 0.20577 0.84949 0.09945 0.0
C3668 C 0.15934 0.81344 0.1207 0.0
H3669 H 0.18327 0.89696 0.1612 0.0
H3670 H 0.19005 0.88687 0.1444 0.0
H3671 H 0.1355 0.80433 0.13395 0.0
H3672 H 0.17463 0.77788 0.08808 0.0
H3673 H 0.16498 0.78305 0.10523 0.0
H3674 H 0.22527 0.86377 0.11854 0.0
C3675 C 0.18039 0.87035 0.14961 0.0
C3676 C 0.15524 0.81725 0.13066 0.0
C3677 C 0.17638 0.87612 0.15926 0.0
C3678 C 0.18358 0.79805 0.09113 0.0
C3679 C 0.1778 0.80105 0.10097 0.0
C3680 C 0.20541 0.85076 0.12171 0.0
C3681 C 0.17158 0.84368 0.14664 0.0
C3682 C 0.17608 0.83813 0.13622 0.0
C3683 C 0.18914 0.82683 0.10534 0.0
C3684 C 0.18448 0.83028 0.11603 0.0
H3685 H 0.14538 0.81245 0.16877 0.0
H3686 H 0.15186 0.8021 0.15167 0.0
H3687 H 0.21788 0.87073 0.13566 0.0
H3688 H 0.22513 0.86452 0.08554 0.0
H3689 H 0.21452 0.86974 0.1024 0.0
C3690 C 0.39214 0.22933 0.49811 0.0
C3691 C 0.42041 0.24226 0.49962 0.0
C3692 C 0.38131 0.22512 0.48852 0.0
C3693 C 0.40025 0.24824 0.46242 0.0
H3694 H 0.33691 0.17959 0.4559 0.0
C3695 C 0.36722 0.21636 0.42184 0.0
C3696 C 0.33951 0.19918 0.41961 0.0
C3697 C 0.37618 0.22279 0.43161 0.0
C3698 C 0.35435 0.19911 0.45757 0.0
H3699 H 0.45931 0.26096 0.49206 0.0
H3700 H 0.4406 0.25358 0.47557 0.0
H3701 H 0.35358 0.18857 0.47278 0.0
H3702 H 0.29952 0.17613 0.42622 0.0
H3703 H 0.31488 0.18829 0.44312 0.0
H3704 H 0.40108 0.25892 0.44726 0.0
C3705 C 0.42668 0.24699 0.48174 0.0
C3706 C 0.36397 0.20424 0.46731 0.0
C3707 C 0.43744 0.25113 0.49127 0.0
C3708 C 0.32098 0.18954 0.42752 0.0
C3709 C 0.32992 0.19619 0.4373 0.0
C3710 C 0.39054 0.24319 0.4527 0.0
C3711 C 0.39844 0.2338 0.48018 0.0
C3712 C 0.38722 0.2288 0.46988 0.0
C3713 C 0.35773 0.21257 0.43955 0.0
C3714 C 0.36753 0.21844 0.45006 0.0
H3715 H 0.37834 0.22205 0.50432 0.0
H3716 H 0.35947 0.21509 0.48764 0.0
H3717 H 0.41795 0.26758 0.46409 0.0
H3718 H 0.38223 0.22476 0.41602 0.0
H3719 H 0.39777 0.23528 0.43292 0.0
C3720 C 0.88208 0.14715 0.42698 0.0
C3721 C 0.86844 0.15039 0.41892 0.0
C3722 C 0.87523 0.14982 0.43668 0.0
C3723 C 0.83698 0.17646 0.45125 0.0
H3724 H 0.85368 0.14291 0.47282 0.0
C3725 C 0.83219 0.20721 0.49138 0.0
C3726 C 0.82761 0.18941 0.49926 0.0
C3727 C 0.83579 0.20085 0.48177 0.0
C3728 C 0.84837 0.1522 0.46695 0.0
H3729 H 0.8359 0.15782 0.41488 0.0
H3730 H 0.82317 0.16133 0.43168 0.0
H3731 H 0.86044 0.13332 0.45606 0.0
H3732 H 0.82326 0.15073 0.5031 0.0
H3733 H 0.82793 0.13866 0.4862 0.0
H3734 H 0.8231 0.19382 0.46206 0.0
C3735 C 0.83997 0.15777 0.43059 0.0
C3736 C 0.85284 0.14708 0.45721 0.0
C3737 C 0.84714 0.15554 0.42088 0.0
C3738 C 0.82672 0.16489 0.49721 0.0
C3739 C 0.82965 0.15814 0.48747 0.0
C3740 C 0.83187 0.18103 0.46097 0.0
C3741 C 0.85417 0.1554 0.43871 0.0
C3742 C 0.84771 0.15949 0.44916 0.0
C3743 C 0.83428 0.17605 0.47954 0.0
C3744 C 0.83799 0.16947 0.46906 0.0
H3745 H 0.89884 0.14356 0.42579 0.0
H3746 H 0.88722 0.14832 0.44256 0.0
H3747 H 0.83292 0.18683 0.44542 0.0
H3748 H 0.8336 0.22658 0.49266 0.0
H3749 H 0.84027 0.21587 0.47613 0.0
C3750 C 0.91312 0.70408 0.42131 0.0
C3751 C 0.91499 0.72912 0.41917 0.0
C3752 C 0.90977 0.69443 0.43105 0.0
C3753 C 0.88838 0.70466 0.45617 0.0
H3754 H 0.92029 0.66225 0.46499 0.0
C3755 C 0.88816 0.67685 0.49751 0.0
C3756 C 0.88146 0.6501 0.49963 0.0
C3757 C 0.893 0.68657 0.48776 0.0
C3758 C 0.91106 0.67392 0.46265 0.0
H3759 H 0.91475 0.76343 0.42589 0.0
H3760 H 0.90993 0.74725 0.44269 0.0
H3761 H 0.92725 0.67868 0.44804 0.0
H3762 H 0.87525 0.61288 0.49304 0.0
H3763 H 0.88435 0.62996 0.47617 0.0
H3764 H 0.87246 0.70011 0.47082 0.0
C3765 C 0.91052 0.73468 0.43685 0.0
C3766 C 0.91498 0.68332 0.45287 0.0
C3767 C 0.91379 0.74427 0.42714 0.0
C3768 C 0.88048 0.63363 0.49173 0.0
C3769 C 0.88577 0.64347 0.48203 0.0
C3770 C 0.88467 0.69547 0.46596 0.0
C3771 C 0.90817 0.70946 0.439 0.0
C3772 C 0.90378 0.69897 0.44945 0.0
C3773 C 0.89174 0.66998 0.47985 0.0
C3774 C 0.89599 0.68 0.46937 0.0
H3775 H 0.91424 0.69183 0.41545 0.0
H3776 H 0.90789 0.67486 0.43229 0.0
H3777 H 0.87876 0.71599 0.45386 0.0
H3778 H 0.88877 0.69004 0.50335 0.0
H3779 H 0.89773 0.70715 0.48642 0.0
C3780 C 0.87564 0.75243 0.8716 0.0
C3781 C 0.87011 0.73482 0.86356 0.0
C3782 C 0.86943 0.7426 0.88125 0.0
C3783 C 0.85758 0.68406 0.89662 0.0
H3784 H 0.8312 0.71575 0.91581 0.0
C3785 C 0.8255 0.63905 0.93576 0.0
C3786 C 0.83174 0.65675 0.9438 0.0
C3787 C 0.82916 0.64854 0.92605 0.0
C3788 C 0.83887 0.70684 0.91059 0.0
H3789 H 0.85314 0.69277 0.85949 0.0
H3790 H 0.84209 0.67549 0.87638 0.0
H3791 H 0.83857 0.73164 0.8988 0.0
H3792 H 0.84633 0.69857 0.94775 0.0
H3793 H 0.85318 0.71522 0.93082 0.0
H3794 H 0.85826 0.65953 0.9084 0.0
C3795 C 0.8515 0.69706 0.87518 0.0
C3796 C 0.84304 0.71594 0.9008 0.0
C3797 C 0.85758 0.70693 0.86547 0.0
C3798 C 0.8415 0.68429 0.94179 0.0
C3799 C 0.84517 0.69382 0.93204 0.0
C3800 C 0.85349 0.67503 0.90641 0.0
C3801 C 0.85758 0.71481 0.88323 0.0
C3802 C 0.85242 0.70465 0.89365 0.0
C3803 C 0.83929 0.67611 0.92401 0.0
C3804 C 0.84396 0.68618 0.91356 0.0
H3805 H 0.88528 0.77406 0.87046 0.0
H3806 H 0.87472 0.75698 0.88721 0.0
H3807 H 0.86537 0.67525 0.89142 0.0
H3808 H 0.81831 0.61779 0.93694 0.0
H3809 H 0.82394 0.63411 0.92012 0.0
C3810 C 0.31788 0.15311 0.87058 0.0
C3811 C 0.33123 0.14755 0.86299 0.0
C3812 C 0.32736 0.15697 0.8803 0.0
C3813 C 0.36603 0.14141 0.89819 0.0
H3814 H 0.37493 0.20491 0.91181 0.0
C3815 C 0.41334 0.17129 0.93771 0.0
C3816 C 0.40454 0.185 0.94401 0.0
C3817 C 0.40432 0.16549 0.92789 0.0
C3818 C 0.37214 0.18675 0.90826 0.0
H3819 H 0.36489 0.1412 0.85976 0.0
H3820 H 0.38097 0.14691 0.87694 0.0
H3821 H 0.35964 0.19695 0.8948 0.0
H3822 H 0.37878 0.20294 0.94468 0.0
H3823 H 0.36234 0.19193 0.92793 0.0
H3824 H 0.37774 0.13072 0.91173 0.0
C3825 C 0.3633 0.14867 0.87526 0.0
C3826 C 0.36353 0.18233 0.89841 0.0
C3827 C 0.3542 0.14552 0.86543 0.0
C3828 C 0.38591 0.19209 0.9402 0.0
C3829 C 0.37679 0.18616 0.93043 0.0
C3830 C 0.3743 0.14563 0.90812 0.0
C3831 C 0.35016 0.15478 0.88281 0.0
C3832 C 0.36028 0.1596 0.89323 0.0
C3833 C 0.38613 0.17316 0.92402 0.0
C3834 C 0.37742 0.16837 0.91336 0.0
H3835 H 0.30026 0.15504 0.86897 0.0
H3836 H 0.31665 0.16151 0.88589 0.0
H3837 H 0.36348 0.12354 0.89446 0.0
H3838 H 0.42736 0.16508 0.94034 0.0
H3839 H 0.41221 0.15557 0.92327 0.0
C3840 C 0.92446 0.18075 0.87181 0.0
C3841 C 0.92267 0.19483 0.86358 0.0
C3842 C 0.92106 0.18753 0.88139 0.0
C3843 C 0.89246 0.22281 0.89587 0.0
H3844 H 0.9354 0.21692 0.91684 0.0
C3845 C 0.88127 0.24906 0.93642 0.0
C3846 C 0.88345 0.23344 0.94402 0.0
C3847 C 0.888 0.24676 0.92665 0.0
C3848 C 0.9229 0.21837 0.91114 0.0
H3849 H 0.91573 0.2273 0.85917 0.0
H3850 H 0.91033 0.2396 0.87601 0.0
H3851 H 0.94313 0.20869 0.89993 0.0
H3852 H 0.89584 0.20389 0.94708 0.0
H3853 H 0.90624 0.199 0.93015 0.0
H3854 H 0.87186 0.23199 0.9071 0.0
C3855 C 0.91408 0.22297 0.87496 0.0
C3856 C 0.92742 0.21369 0.90137 0.0
C3857 C 0.91736 0.21605 0.86529 0.0
C3858 C 0.89326 0.21594 0.9415 0.0
C3859 C 0.89971 0.21343 0.93172 0.0
C3860 C 0.88782 0.22736 0.90567 0.0
C3861 C 0.9159 0.20879 0.88318 0.0
C3862 C 0.91209 0.21553 0.89356 0.0
C3863 C 0.89695 0.2286 0.92408 0.0
C3864 C 0.90277 0.22497 0.91351 0.0
H3865 H 0.92806 0.16399 0.87088 0.0
H3866 H 0.92198 0.17562 0.88742 0.0
H3867 H 0.87999 0.22416 0.89013 0.0
H3868 H 0.87362 0.26263 0.93794 0.0
H3869 H 0.88604 0.25926 0.9211 0.0
C3870 C 0.68809 0.81197 0.53209 0.0
C3871 C 0.66518 0.81422 0.5298 0.0
C3872 C 0.69764 0.81528 0.54187 0.0
C3873 C 0.69865 0.8494 0.56504 0.0
H3874 H 0.71451 0.79866 0.57816 0.0
C3875 C 0.72105 0.85862 0.6067 0.0
C3876 C 0.74099 0.85316 0.61034 0.0
C3877 C 0.71181 0.85246 0.59697 0.0
C3878 C 0.71056 0.81327 0.57459 0.0
H3879 H 0.63477 0.8223 0.53597 0.0
H3880 H 0.65181 0.82887 0.55277 0.0
H3881 H 0.69946 0.79108 0.56095 0.0
H3882 H 0.76618 0.83599 0.60645 0.0
H3883 H 0.7505 0.82574 0.5894 0.0
H3884 H 0.7101 0.87196 0.57845 0.0
C3885 C 0.66218 0.82409 0.54712 0.0
C3886 C 0.70188 0.80886 0.56471 0.0
C3887 C 0.65231 0.82015 0.53746 0.0
C3888 C 0.75106 0.84083 0.60393 0.0
C3889 C 0.7418 0.83466 0.59414 0.0
C3890 C 0.70756 0.85396 0.57483 0.0
C3891 C 0.68497 0.82173 0.54948 0.0
C3892 C 0.69556 0.82676 0.55983 0.0
C3893 C 0.7223 0.84077 0.59045 0.0
C3894 C 0.7134 0.83586 0.57984 0.0
H3895 H 0.69844 0.80739 0.52637 0.0
H3896 H 0.71529 0.8134 0.54343 0.0
H3897 H 0.69436 0.86382 0.56149 0.0
H3898 H 0.71293 0.86837 0.61131 0.0
H3899 H 0.6964 0.85702 0.59456 0.0
C3900 C 0.25484 0.8465 0.53793 0.0
C3901 C 0.25538 0.86257 0.52996 0.0
C3902 C 0.2508 0.85224 0.54759 0.0
C3903 C 0.25599 0.90588 0.56414 0.0
H3904 H 0.20513 0.84556 0.58021 0.0
C3905 C 0.22233 0.9203 0.6033 0.0
C3906 C 0.21585 0.90007 0.61045 0.0
C3907 C 0.22858 0.91696 0.59357 0.0
C3908 C 0.21978 0.86268 0.57594 0.0
H3909 H 0.2523 0.89767 0.52606 0.0
H3910 H 0.24578 0.90816 0.54309 0.0
H3911 H 0.21306 0.83785 0.56325 0.0
H3912 H 0.21143 0.86048 0.61276 0.0
H3913 H 0.22317 0.85515 0.59606 0.0
H3914 H 0.26311 0.93067 0.5769 0.0
C3915 C 0.24843 0.89094 0.54176 0.0
C3916 C 0.22421 0.85823 0.56613 0.0
C3917 C 0.25206 0.88489 0.532 0.0
C3918 C 0.21654 0.87673 0.60757 0.0
C3919 C 0.22288 0.87345 0.59788 0.0
C3920 C 0.25175 0.91034 0.57401 0.0
C3921 C 0.24743 0.87445 0.54968 0.0
C3922 C 0.24237 0.87972 0.56007 0.0
C3923 C 0.22857 0.89328 0.59064 0.0
C3924 C 0.23356 0.88878 0.58009 0.0
H3925 H 0.2571 0.82899 0.53673 0.0
H3926 H 0.25045 0.83924 0.55346 0.0
H3927 H 0.27038 0.92287 0.55974 0.0
H3928 H 0.22244 0.93874 0.60521 0.0
H3929 H 0.2327 0.93272 0.58828 0.0
C3930 C 0.19007 0.37366 0.53206 0.0
C3931 C 0.20046 0.40119 0.52993 0.0
C3932 C 0.18511 0.36431 0.54184 0.0
C3933 C 0.17526 0.38267 0.56734 0.0
H3934 H 0.19563 0.33007 0.5752 0.0
C3935 C 0.1737 0.3514 0.60842 0.0
C3936 C 0.16578 0.32422 0.61039 0.0
C3937 C 0.17753 0.36112 0.59869 0.0
C3938 C 0.18942 0.34448 0.57314 0.0
H3939 H 0.21324 0.44034 0.53655 0.0
H3940 H 0.20451 0.4241 0.55345 0.0
H3941 H 0.20207 0.34558 0.5582 0.0
H3942 H 0.15588 0.28616 0.60347 0.0
H3943 H 0.16171 0.30273 0.58669 0.0
H3944 H 0.16254 0.38151 0.58229 0.0
C3945 C 0.19998 0.4096 0.54759 0.0
C3946 C 0.19314 0.35341 0.56334 0.0
C3947 C 0.20509 0.41894 0.53785 0.0
C3948 C 0.16158 0.30709 0.60233 0.0
C3949 C 0.16538 0.31677 0.59264 0.0
C3950 C 0.17143 0.37365 0.57715 0.0
C3951 C 0.19022 0.3822 0.54977 0.0
C3952 C 0.18601 0.37254 0.56026 0.0
C3953 C 0.17364 0.34399 0.59064 0.0
C3954 C 0.1783 0.35427 0.58021 0.0
H3955 H 0.18654 0.35944 0.52619 0.0
H3956 H 0.17733 0.34301 0.5432 0.0
H3957 H 0.16931 0.39726 0.56527 0.0
H3958 H 0.17693 0.36523 0.61439 0.0
H3959 H 0.18406 0.38225 0.59752 0.0
C3960 C 1.02951 0.52655 0.75581 0.0
C3961 C 1.01107 0.53388 0.75199 0.0
C3962 C 1.03851 0.5323 0.76559 0.0
C3963 C 1.04163 0.57305 0.78783 0.0
H3964 H 0.0544 0.52055 0.80122 0.0
C3965 C 0.06405 0.57505 0.83036 0.0
C3966 C 0.08632 0.5717 0.83267 0.0
C3967 C 0.05419 0.57143 0.82061 0.0
C3968 C 0.05105 0.5355 0.7976 0.0
H3969 H 0.98846 0.55403 0.75565 0.0
H3970 H 1.00347 0.56331 0.77275 0.0
H3971 H 1.03899 0.51277 0.78423 0.0
H3972 H 0.1151 0.56122 0.82657 0.0
H3973 H 0.09757 0.55424 0.80985 0.0
H3974 H 0.0533 0.59541 0.80143 0.0
C3975 C 1.01126 0.55331 0.76812 0.0
C3976 C 0.04235 0.53115 0.78777 0.0
C3977 C 1.00234 0.54766 0.75829 0.0
C3978 C 0.09812 0.56427 0.82506 0.0
C3979 C 0.08793 0.56007 0.81546 0.0
C3980 C 0.05006 0.57723 0.79774 0.0
C3981 C 1.02923 0.54538 0.77199 0.0
C3982 C 1.03781 0.54999 0.78265 0.0
C3983 C 0.06588 0.56361 0.81306 0.0
C3984 C 0.05519 0.55865 0.80272 0.0
H3985 H 1.03656 0.51564 0.75132 0.0
H3986 H 0.05277 0.52632 0.76812 0.0
H3987 H 1.03871 0.58824 0.78419 0.0
H3988 H 0.0545 0.58075 0.83603 0.0
H3989 H 1.0371 0.57423 0.81903 0.0
C3990 C 0.52838 0.4651 0.75936 0.0
C3991 C 0.536 0.48607 0.75244 0.0
C3992 C 0.52162 0.46788 0.76908 0.0
C3993 C 0.5014 0.5086 0.7848 0.0
H3994 H 0.52842 0.48394 0.80627 0.0
C3995 C 0.50003 0.54188 0.82481 0.0
C3996 C 0.49591 0.52419 0.83269 0.0
C3997 C 0.50344 0.53549 0.81517 0.0
C3998 C 0.5203 0.4906 0.80039 0.0
H3999 H 0.54251 0.52662 0.75056 0.0
H4000 H 0.53062 0.53129 0.76734 0.0
H4001 H 0.53643 0.47583 0.78929 0.0
H4002 H 0.49233 0.48571 0.83646 0.0
H4003 H 0.49758 0.47412 0.81954 0.0
H4004 H 0.48516 0.52328 0.79582 0.0
C4005 C 0.52945 0.51247 0.76524 0.0
C4006 C 0.52495 0.48596 0.79061 0.0
C4007 C 0.53627 0.50974 0.75555 0.0
C4008 C 0.49539 0.49982 0.8306 0.0
C4009 C 0.49859 0.49327 0.82088 0.0
C4010 C 0.49661 0.5131 0.79456 0.0
C4011 C 0.5222 0.49169 0.77219 0.0
C4012 C 0.51589 0.49521 0.78265 0.0
C4013 C 0.50262 0.51102 0.81299 0.0
C4014 C 0.50631 0.50455 0.80254 0.0
H4015 H 0.52749 0.4464 0.75726 0.0
H4016 H 0.51573 0.45123 0.77415 0.0
H4017 H 0.49358 0.51557 0.77892 0.0
H4018 H 0.501 0.56105 0.82608 0.0
H4019 H 0.50721 0.55013 0.80944 0.0
C4020 C 0.58942 0.07835 0.76055 0.0
C4021 C 0.58311 0.06052 0.75253 0.0
C4022 C 0.58644 0.06912 0.7703 0.0
C4023 C 0.57777 1.01086 0.78576 0.0
H4024 H 0.5527 0.04278 0.80533 0.0
C4025 C 0.54262 0.96448 0.82477 0.0
C4026 C 0.54824 0.98178 0.83292 0.0
C4027 C 0.54839 0.97461 0.81514 0.0
C4028 C 0.56009 0.03385 0.80002 0.0
H4029 H 0.56924 1.01874 0.74873 0.0
H4030 H 0.56339 1.00257 0.76566 0.0
H4031 H 0.5593 0.05873 0.78838 0.0
H4032 H 0.5648 1.02367 0.83715 0.0
H4033 H 0.57523 0.04147 0.82032 0.0
H4034 H 0.57817 0.98571 0.7974 0.0
C4035 C 0.57098 1.02388 0.76441 0.0
C4036 C 0.56391 0.04304 0.79023 0.0
C4037 C 0.57404 0.03314 0.75464 0.0
C4038 C 0.56034 1.00971 0.83111 0.0
C4039 C 0.56605 1.01988 0.82142 0.0
C4040 C 0.57386 1.0016 0.79554 0.0
C4041 C 0.5769 0.04168 0.77243 0.0
C4042 C 0.57285 0.03175 0.78292 0.0
C4043 C 0.55995 1.00245 0.81326 0.0
C4044 C 0.56494 1.01293 0.80285 0.0
H4045 H 0.59612 0.09949 0.75933 0.0
H4046 H 0.5917 0.08367 0.77618 0.0
H4047 H 0.58506 1.00183 0.78045 0.0
H4048 H 0.53317 0.94284 0.8258 0.0
H4049 H 0.54299 0.9604 0.80912 0.0
C4050 C 0.54394 0.08723 0.20441 0.0
C4051 C 0.53712 0.06911 0.19645 0.0
C4052 C 0.53842 0.07793 0.21417 0.0
C4053 C 0.52427 1.01843 0.22973 0.0
H4054 H 0.50337 0.05393 0.24933 0.0
C4055 C 0.49187 0.97408 0.26898 0.0
C4056 C 0.4999 0.99184 0.27708 0.0
C4057 C 0.49562 0.98377 0.25929 0.0
C4058 C 0.50949 0.04391 0.244 0.0
H4059 H 0.51863 0.0267 0.19269 0.0
H4060 H 0.50856 1.0104 0.20968 0.0
H4061 H 0.51071 0.06975 0.23231 0.0
H4062 H 0.51773 0.03406 0.28111 0.0
H4063 H 0.52469 0.05101 0.26422 0.0
H4064 H 0.52327 0.99274 0.24139 0.0
C4065 C 0.5186 0.03197 0.20837 0.0
C4066 C 0.51369 0.05301 0.23418 0.0
C4067 C 0.52413 0.0413 0.19858 0.0
C4068 C 0.5115 1.01969 0.27512 0.0
C4069 C 0.51525 0.02942 0.26539 0.0
C4070 C 0.52009 1.00937 0.23953 0.0
C4071 C 0.52588 0.05015 0.21634 0.0
C4072 C 0.52106 0.04034 0.22686 0.0
C4073 C 0.50763 1.01162 0.25729 0.0
C4074 C 0.51249 1.02183 0.24683 0.0
H4075 H 0.55412 0.10883 0.20315 0.0
H4076 H 0.54473 0.09269 0.22003 0.0
H4077 H 0.53053 1.00847 0.22443 0.0
H4078 H 0.48319 0.95255 0.2701 0.0
H4079 H 0.48901 0.96927 0.25333 0.0
C4080 C 0.04708 0.50166 0.27526 0.0
C4081 C 0.07487 0.51865 0.27741 0.0
C4082 C 1.03787 0.49557 0.26548 0.0
C4083 C 0.05924 0.52094 0.2397 0.0
H4084 H 0.99739 0.45196 0.23241 0.0
C4085 C 1.02601 0.49455 0.19882 0.0
C4086 C 0.99797 0.48094 0.19681 0.0
C4087 C 1.0356 0.49755 0.20855 0.0
C4088 C 1.01458 0.47145 0.23431 0.0
H4089 H 0.11467 0.54207 0.27068 0.0
H4090 H 0.0989 0.53072 0.25382 0.0
H4091 H 1.01342 0.45989 0.2494 0.0
H4092 H 0.9581 0.45929 0.20363 0.0
H4093 H 0.97471 0.46466 0.22044 0.0
H4094 H 0.06039 0.53253 0.22463 0.0
C4095 C 0.084 0.52252 0.25968 0.0
C4096 C 1.0238 0.47604 0.24411 0.0
C4097 C 0.09317 0.52871 0.26944 0.0
C4098 C 0.97985 0.46987 0.20482 0.0
C4099 C 0.98942 0.47283 0.21452 0.0
C4100 C 0.05011 0.51632 0.22991 0.0
C4101 C 0.05615 0.50618 0.2575 0.0
C4102 C 0.0463 0.50091 0.24699 0.0
C4103 C 1.01745 0.48702 0.21658 0.0
C4104 C 1.0276 0.49153 0.22703 0.0
H4105 H 1.03228 0.4931 0.28113 0.0
H4106 H 1.01627 0.48305 0.26419 0.0
H4107 H 0.0762 0.54059 0.24157 0.0
H4108 H 1.04063 0.50334 0.19289 0.0
H4109 H 0.05733 0.50824 0.20978 0.0
C4110 C 0.58423 0.55111 0.19862 0.0
C4111 C 0.58765 0.5288 0.19665 0.0
C4112 C 0.58037 0.55718 0.20838 0.0
C4113 C 0.55644 0.52463 0.23289 0.0
H4114 H 0.59586 0.59706 0.24362 0.0
C4115 C 0.5498 0.54293 0.2745 0.0
C4116 C 0.55012 0.56669 0.27751 0.0
C4117 C 0.55577 0.53956 0.26474 0.0
C4118 C 0.58431 0.57671 0.24075 0.0
H4119 H 0.58919 0.49526 0.20357 0.0
H4120 H 0.58228 0.50559 0.2202 0.0
H4121 H 0.60224 0.58926 0.22637 0.0
H4122 H 0.55847 0.60611 0.2724 0.0
H4123 H 0.56765 0.59981 0.25542 0.0
H4124 H 0.53802 0.51192 0.24706 0.0
C4125 C 0.58266 0.51854 0.2143 0.0
C4126 C 0.58805 0.57227 0.23081 0.0
C4127 C 0.58687 0.51276 0.20468 0.0
C4128 C 0.55739 0.58726 0.27042 0.0
C4129 C 0.56311 0.58377 0.26063 0.0
C4130 C 0.55247 0.52907 0.24275 0.0
C4131 C 0.57926 0.54075 0.21634 0.0
C4132 C 0.57432 0.54611 0.22676 0.0
C4133 C 0.56201 0.55968 0.25756 0.0
C4134 C 0.56646 0.55516 0.24692 0.0
H4135 H 0.58461 0.56386 0.19266 0.0
H4136 H 0.57772 0.57441 0.20966 0.0
H4137 H 0.54521 0.50424 0.23002 0.0
H4138 H 0.54412 0.5264 0.2796 0.0
H4139 H 0.5553 0.52093 0.26285 0.0
C4140 C 1.00095 0.15426 0.28359 0.0
C4141 C 0.99922 0.17221 0.29024 0.0
C4142 C 1.01999 0.16396 0.27596 0.0
C4143 C 0.06089 0.22469 0.26104 0.0
H4144 H 0.10144 0.18915 0.25397 0.0
C4145 C 0.14441 0.27017 0.23188 0.0
C4146 C 0.14436 0.25249 0.22469 0.0
C4147 C 0.1288 0.26012 0.24039 0.0
C4148 C 0.0901 0.19914 0.25582 0.0
H4149 H 1.01655 0.21445 0.29417 0.0
H4150 H 0.04964 0.23141 0.28079 0.0
H4151 H 0.0698 0.17223 0.26786 0.0
H4152 H 0.13003 0.21049 0.22125 0.0
H4153 H 0.10179 0.19273 0.23598 0.0
H4154 H 0.08075 0.25135 0.24898 0.0
C4155 C 1.03603 0.20982 0.28144 0.0
C4156 C 0.07201 0.18948 0.26376 0.0
C4157 C 1.01703 0.20011 0.28908 0.0
C4158 C 0.12969 0.22454 0.22649 0.0
C4159 C 0.11386 0.21441 0.235 0.0
C4160 C 0.07888 0.2343 0.25312 0.0
C4161 C 1.03767 0.19185 0.27478 0.0
C4162 C 0.05724 0.20219 0.26646 0.0
C4163 C 0.11269 0.23213 0.24191 0.0
C4164 C 0.09377 0.22172 0.25042 0.0
H4165 H 0.98726 0.13267 0.28416 0.0
H4166 H 1.02046 0.14963 0.27086 0.0
H4167 H 0.04942 0.2346 0.26281 0.0
H4168 H 0.15576 0.29186 0.23081 0.0
H4169 H 0.12892 0.27433 0.24569 0.0
C4170 C 0.8627 0.8263 0.28885 0.0
C4171 C 0.89039 0.83739 0.29105 0.0
C4172 C 0.85445 0.83608 0.28093 0.0
C4173 C 0.87794 0.89441 0.26384 0.0
H4174 H 0.81707 0.8425 0.24818 0.0
C4175 C 0.84548 0.9185 0.22619 0.0
C4176 C 0.81742 0.90694 0.2246 0.0
C4177 C 0.8552 0.91217 0.23466 0.0
C4178 C 0.83392 0.85729 0.25254 0.0
H4179 H 0.9312 0.86741 0.28663 0.0
H4180 H 0.91685 0.88427 0.27271 0.0
H4181 H 0.83263 0.82687 0.26203 0.0
H4182 H 0.77754 0.88084 0.23086 0.0
H4183 H 0.79444 0.86993 0.24564 0.0
H4184 H 0.87939 0.92475 0.25413 0.0
C4185 C 0.90144 0.86835 0.27722 0.0
C4186 C 0.84283 0.84835 0.26051 0.0
C4187 C 0.90968 0.85866 0.28519 0.0
C4188 C 0.7993 0.89008 0.23187 0.0
C4189 C 0.80896 0.8836 0.24029 0.0
C4190 C 0.86912 0.90335 0.2558 0.0
C4191 C 0.87371 0.85707 0.27495 0.0
C4192 C 0.86479 0.86678 0.26633 0.0
C4193 C 0.83696 0.89405 0.24167 0.0
C4194 C 0.84684 0.88489 0.25013 0.0
H4195 H 0.84733 0.81019 0.29332 0.0
H4196 H 0.8329 0.82727 0.27955 0.0
H4197 H 0.89474 0.90922 0.26821 0.0
H4198 H 0.85989 0.93201 0.22079 0.0
H4199 H 0.8769 0.92059 0.23553 0.0
C4200 C 0.24411 0.07468 0.2809 0.0
C4201 C 0.22992 0.06808 0.28988 0.0
C4202 C 0.23468 0.05647 0.27303 0.0
C4203 C 0.19233 0.98444 0.2668 0.0
H4204 H 0.19129 1.01172 0.24079 0.0
C4205 C 0.15209 0.91353 0.2326 0.0
C4206 C 0.16475 0.92453 0.22357 0.0
C4207 C 0.15806 0.93024 0.2409 0.0
C4208 C 0.19182 1.0037 0.24795 0.0
H4209 H 0.19493 0.03683 0.29767 0.0
H4210 H 0.17851 1.00501 0.2839 0.0
H4211 H 0.20618 0.04228 0.25477 0.0
H4212 H 0.19426 0.96116 0.21615 0.0
H4213 H 0.20582 0.98974 0.23056 0.0
H4214 H 0.17886 0.94605 0.25997 0.0
C4215 C 0.19694 1.02432 0.28297 0.0
C4216 C 0.20026 1.0213 0.25599 0.0
C4217 C 0.20623 0.04264 0.29083 0.0
C4218 C 0.18383 0.95224 0.223 0.0
C4219 C 0.19029 0.96871 0.23129 0.0
C4220 C 0.18427 0.96685 0.25872 0.0
C4221 C 0.21095 0.03111 0.27395 0.0
C4222 C 0.20089 1.01197 0.2655 0.0
C4223 C 0.17729 0.95813 0.24036 0.0
C4224 C 0.18422 0.97629 0.24914 0.0
H4225 H 0.26226 0.09417 0.27989 0.0
H4226 H 0.24609 0.0622 0.2662 0.0
H4227 H 0.19269 0.97666 0.27403 0.0
H4228 H 0.13722 0.89222 0.23319 0.0
H4229 H 0.14731 0.92133 0.24769 0.0
C4230 C 0.9529 0.82699 0.80384 0.0
C4231 C 0.94017 0.79924 0.80589 0.0
C4232 C 0.96818 0.83743 0.79521 0.0
C4233 C 0.9851 0.81577 0.77121 0.0
H4234 H 0.04664 0.88854 0.77198 0.0
C4235 C 0.05655 0.86139 0.73758 0.0
C4236 C 0.08403 0.88011 0.73934 0.0
C4237 C 1.03765 0.85247 0.74529 0.0
C4238 C 1.02984 0.86799 0.77164 0.0
H4239 H 0.93363 0.76066 0.80068 0.0
H4240 H 0.96142 0.77875 0.78606 0.0
H4241 H 1.01698 0.87104 0.78609 0.0
H4242 H 0.11345 0.90371 0.75055 0.0
H4243 H 0.08111 0.8872 0.76406 0.0
H4244 H 0.99927 0.81194 0.7571 0.0
C4245 C 0.95877 0.79258 0.79073 0.0
C4246 C 1.01228 0.85806 0.77973 0.0
C4247 C 0.94289 0.78211 0.79919 0.0
C4248 C 0.09232 0.88945 0.74898 0.0
C4249 C 0.0736 0.88011 0.75671 0.0
C4250 C 1.00309 0.82543 0.76324 0.0
C4251 C 0.97177 0.82045 0.78858 0.0
C4252 C 0.98971 0.83168 0.7797 0.0
C4253 C 0.04588 0.8616 0.75501 0.0
C4254 C 1.02592 0.85164 0.76335 0.0
H4255 H 0.95095 0.84062 0.80888 0.0
H4256 H 0.97716 0.85886 0.7938 0.0
H4257 H 0.96765 0.79563 0.77069 0.0
H4258 H 0.04958 0.8541 0.73019 0.0
H4259 H 1.01653 0.83869 0.74355 0.0
C4260 C 0.19503 0.19444 0.73755 0.0
C4261 C 0.18753 0.21421 0.73895 0.0
C4262 C 0.20502 0.18606 0.7454 0.0
C4263 C 0.23461 0.20722 0.77053 0.0
H4264 H 0.21782 0.13274 0.77272 0.0
C4265 C 0.24985 0.16143 0.80603 0.0
C4266 C 0.26768 0.15124 0.80514 0.0
C4267 C 0.24017 0.16805 0.79767 0.0
C4268 C 0.22277 0.15362 0.77213 0.0
H4269 H 0.18386 0.24006 0.74976 0.0
H4270 H 0.20061 0.22512 0.76346 0.0
H4271 H 0.20019 0.14644 0.75878 0.0
H4272 H 0.28866 0.13899 0.79491 0.0
H4273 H 0.27048 0.1494 0.78011 0.0
H4274 H 0.25625 0.21398 0.78411 0.0
C4275 C 0.19964 0.2166 0.75626 0.0
C4276 C 0.21282 0.16156 0.76413 0.0
C4277 C 0.18994 0.22516 0.7484 0.0
C4278 C 0.27497 0.14688 0.79574 0.0
C4279 C 0.26456 0.15275 0.78732 0.0
C4280 C 0.24411 0.19916 0.77858 0.0
C4281 C 0.20754 0.19707 0.75486 0.0
C4282 C 0.21849 0.18849 0.76325 0.0
C4283 C 0.24753 0.16389 0.78825 0.0
C4284 C 0.23821 0.17231 0.77947 0.0
H4285 H 0.19362 0.18576 0.73034 0.0
H4286 H 0.21121 0.17128 0.74397 0.0
H4287 H 0.24005 0.22824 0.77001 0.0
H4288 H 0.24417 0.16518 0.81322 0.0
H4289 H 0.22703 0.17657 0.79856 0.0
C4290 C 0.89885 0.09663 0.80607 0.0
C4291 C 0.9152 0.12486 0.80585 0.0
C4292 C 0.89315 0.08162 0.79744 0.0
C4293 C 0.91627 0.07875 0.77303 0.0
H4294 H 0.83983 0.02985 0.76776 0.0
C4295 C 0.87745 1.01045 0.73821 0.0
C4296 C 0.85518 0.98426 0.73954 0.0
C4297 C 0.88606 0.02941 0.74584 0.0
C4298 C 0.86128 0.04313 0.76917 0.0
H4299 H 0.93899 0.15969 0.79656 0.0
H4300 H 0.92942 0.13306 0.78129 0.0
H4301 H 0.85316 0.06003 0.78189 0.0
H4302 H 0.82515 0.95711 0.75001 0.0
H4303 H 0.84032 0.98986 0.76335 0.0
H4304 H 0.92444 0.06112 0.7605 0.0
C4305 C 0.92091 0.12274 0.78819 0.0
C4306 C 0.86886 0.06054 0.77721 0.0
C4307 C 0.92623 0.1379 0.79686 0.0
C4308 C 0.84201 0.97728 0.7487 0.0
C4309 C 0.85071 0.99612 0.75634 0.0
C4310 C 0.90867 0.06103 0.765 0.0
C4311 C 0.90394 0.09451 0.78842 0.0
C4312 C 0.89638 0.07818 0.77931 0.0
C4313 C 0.87263 1.02252 0.75498 0.0
C4314 C 0.88105 0.04267 0.76308 0.0
H4315 H 0.88982 0.08619 0.8129 0.0
H4316 H 0.88015 0.05987 0.79781 0.0
H4317 H 0.93764 0.09213 0.77454 0.0
H4318 H 0.8879 1.01646 0.73119 0.0
H4319 H 0.90286 0.0496 0.74451 0.0
C4320 C 0.65978 0.51087 0.61412 0.0
C4321 C 0.66769 0.5071 0.62351 0.0
C4322 C 0.67804 0.51926 0.60624 0.0
C4323 C 0.75027 0.55533 0.60001 0.0
H4324 H 0.72613 0.51669 0.57528 0.0
C4325 C 0.82189 0.58628 0.56609 0.0
C4326 C 0.80982 0.58315 0.55682 0.0
C4327 C 0.80561 0.57539 0.57449 0.0
C4328 C 0.7332 0.52808 0.58206 0.0
H4329 H 0.7012 0.50979 0.63204 0.0
H4330 H 0.73319 0.52471 0.61825 0.0
H4331 H 0.69559 0.50179 0.58934 0.0
H4332 H 0.77169 0.5671 0.54902 0.0
H4333 H 0.74344 0.54962 0.56354 0.0
H4334 H 0.78741 0.58238 0.59268 0.0
C4335 C 0.7128 0.52103 0.61701 0.0
C4336 C 0.71565 0.51935 0.59014 0.0
C4337 C 0.69443 0.51233 0.62488 0.0
C4338 C 0.78143 0.5693 0.55608 0.0
C4339 C 0.76523 0.5591 0.56444 0.0
C4340 C 0.7677 0.56441 0.59186 0.0
C4341 C 0.7047 0.52436 0.6076 0.0
C4342 C 0.72389 0.53303 0.59917 0.0
C4343 C 0.77699 0.56182 0.57379 0.0
C4344 C 0.75929 0.55112 0.58271 0.0
H4345 H 0.63927 0.50678 0.61281 0.0
H4346 H 0.67133 0.52191 0.59907 0.0
H4347 H 0.75711 0.5663 0.60688 0.0
H4348 H 0.8438 0.59679 0.5668 0.0
H4349 H 0.81552 0.57753 0.5815 0.0
C4350 C 0.55818 0.19512 0.62545 0.0
C4351 C 0.56061 0.17189 0.62459 0.0
C4352 C 0.55045 0.20484 0.61734 0.0
C4353 C 0.54905 0.20374 0.59032 0.0
H4354 H 0.49075 0.2199 0.59286 0.0
C4355 C 0.49673 0.21549 0.5562 0.0
C4356 C 0.48614 0.23295 0.55646 0.0
C4357 C 0.50711 0.21033 0.56469 0.0
C4358 C 0.50742 0.21602 0.59202 0.0
H4359 H 0.55728 0.14095 0.61451 0.0
H4360 H 0.54367 0.15782 0.60041 0.0
H4361 H 0.50692 0.20713 0.60739 0.0
H4362 H 0.47839 0.2592 0.56568 0.0
H4363 H 0.49783 0.25135 0.58055 0.0
H4364 H 0.55014 0.21302 0.57506 0.0
C4365 C 0.54778 0.16852 0.60734 0.0
C4366 C 0.51659 0.20857 0.60036 0.0
C4367 C 0.55527 0.15869 0.61545 0.0
C4368 C 0.4863 0.24547 0.56535 0.0
C4369 C 0.49732 0.24082 0.57386 0.0
C4370 C 0.54022 0.21157 0.58203 0.0
C4371 C 0.54529 0.19169 0.6082 0.0
C4372 C 0.53709 0.2018 0.59955 0.0
C4373 C 0.50778 0.22306 0.57365 0.0
C4374 C 0.51883 0.2172 0.5827 0.0
H4375 H 0.56201 0.20565 0.63241 0.0
H4376 H 0.54881 0.22281 0.61819 0.0
H4377 H 0.56526 0.19913 0.58951 0.0
H4378 H 0.49632 0.20523 0.54945 0.0
H4379 H 0.51415 0.19593 0.56423 0.0
C4380 C 0.87492 0.37252 0.62533 0.0
C4381 C 0.89557 0.39962 0.62419 0.0
C4382 C 0.86624 0.35477 0.6173 0.0
C4383 C 0.89013 0.34718 0.59273 0.0
H4384 H 0.8149 0.29214 0.58854 0.0
C4385 C 0.85167 0.29112 0.55603 0.0
C4386 C 0.83754 0.26277 0.55648 0.0
C4387 C 0.85741 0.30648 0.5646 0.0
C4388 C 0.83599 0.3073 0.58969 0.0
H4389 H 0.92208 0.42966 0.61359 0.0
H4390 H 0.90689 0.39897 0.59963 0.0
H4391 H 0.82713 0.32207 0.60288 0.0
H4392 H 0.8175 0.22814 0.56617 0.0
H4393 H 0.82684 0.25522 0.58127 0.0
H4394 H 0.89886 0.33292 0.57943 0.0
C4395 C 0.89793 0.39111 0.60677 0.0
C4396 C 0.84304 0.3244 0.5979 0.0
C4397 C 0.90666 0.40876 0.61478 0.0
C4398 C 0.82859 0.24999 0.56566 0.0
C4399 C 0.83379 0.26543 0.57425 0.0
C4400 C 0.88305 0.33037 0.58451 0.0
C4401 C 0.87798 0.36376 0.60794 0.0
C4402 C 0.87019 0.34477 0.59945 0.0
C4403 C 0.84864 0.29381 0.5738 0.0
C4404 C 0.85592 0.31046 0.58285 0.0
H4405 H 0.866 0.36482 0.63249 0.0
H4406 H 0.85092 0.33383 0.61848 0.0
H4407 H 0.91133 0.3621 0.59382 0.0
H4408 H 0.85896 0.30148 0.54905 0.0
H4409 H 0.86876 0.32833 0.56404 0.0
C4410 C 0.74459 0.22835 0.07784 0.0
C4411 C 0.74659 0.20962 0.0717 0.0
C4412 C 0.72664 0.21958 0.08583 0.0
C4413 C 0.68858 0.16054 0.10217 0.0
H4414 H 0.64753 0.19573 0.109 0.0
C4415 C 0.60355 0.11498 0.13084 0.0
C4416 C 0.60412 0.13242 0.13824 0.0
C4417 C 0.6197 0.12528 0.12246 0.0
C4418 C 0.65904 0.18587 0.10722 0.0
H4419 H 0.73081 0.16695 0.069 0.0
H4420 H 0.69938 0.1516 0.08286 0.0
H4421 H 0.67832 0.21181 0.09485 0.0
H4422 H 0.6208 0.17447 0.14235 0.0
H4423 H 0.6492 0.19252 0.12763 0.0
H4424 H 0.66922 0.13451 0.11446 0.0
C4425 C 0.71207 0.17312 0.08164 0.0
C4426 C 0.6767 0.19508 0.09913 0.0
C4427 C 0.73007 0.1819 0.07368 0.0
C4428 C 0.62016 0.1605 0.13683 0.0
C4429 C 0.63629 0.17085 0.12838 0.0
C4430 C 0.67087 0.15128 0.11019 0.0
C4431 C 0.71022 0.19185 0.08785 0.0
C4432 C 0.69158 0.18241 0.09648 0.0
C4433 C 0.63672 0.15326 0.12124 0.0
C4434 C 0.65578 0.16371 0.11277 0.0
H4435 H 0.75731 0.24987 0.0766 0.0
H4436 H 0.72605 0.23456 0.09054 0.0
H4437 H 0.70017 0.1507 0.1005 0.0
H4438 H 0.59131 0.09325 0.13164 0.0
H4439 H 0.61922 0.11125 0.11699 0.0
C4440 C 0.90868 0.47263 0.13642 0.0
C4441 C 0.93672 0.48638 0.13833 0.0
C4442 C 0.89853 0.47785 0.12781 0.0
C4443 C 0.91914 0.53157 0.10894 0.0
H4444 H 0.85436 0.47834 0.09535 0.0
C4445 C 0.88305 0.55605 0.07267 0.0
C4446 C 0.85515 0.54718 0.07193 0.0
C4447 C 0.89297 0.54724 0.0804 0.0
C4448 C 0.8724 0.49345 0.09911 0.0
H4449 H 0.9763 0.51442 0.1322 0.0
H4450 H 0.95884 0.52263 0.11711 0.0
H4451 H 0.87168 0.46446 0.1093 0.0
H4452 H 0.8159 0.52223 0.07888 0.0
H4453 H 0.8332 0.5067 0.09225 0.0
H4454 H 0.91993 0.56051 0.09876 0.0
C4455 C 0.94446 0.50879 0.12245 0.0
C4456 C 0.88231 0.48552 0.10712 0.0
C4457 C 0.95452 0.50385 0.13109 0.0
C4458 C 0.83744 0.52915 0.0791 0.0
C4459 C 0.84734 0.52022 0.08678 0.0
C4460 C 0.90938 0.53942 0.10092 0.0
C4461 C 0.91633 0.49659 0.12083 0.0
C4462 C 0.90582 0.50451 0.11215 0.0
C4463 C 0.87523 0.52924 0.08754 0.0
C4464 C 0.88586 0.52051 0.09592 0.0
H4465 H 0.89453 0.45826 0.14166 0.0
H4466 H 0.87674 0.46792 0.12681 0.0
H4467 H 0.9369 0.54694 0.11276 0.0
H4468 H 0.89724 0.56955 0.06721 0.0
H4469 H 0.91454 0.55431 0.08072 0.0
C4470 C 0.57072 0.43089 0.13954 0.0
C4471 C 0.58559 0.45927 0.13918 0.0
C4472 C 0.56432 0.41565 0.13092 0.0
C4473 C 0.58418 0.41371 0.10578 0.0
H4474 H 0.50781 0.3619 0.1018 0.0
C4475 C 0.54311 0.34761 0.07044 0.0
C4476 C 0.52139 0.32103 0.07161 0.0
C4477 C 0.55218 0.36573 0.07837 0.0
C4478 C 0.52927 0.37595 0.10284 0.0
H4479 H 0.60619 0.49397 0.12955 0.0
H4480 H 0.59573 0.46702 0.11435 0.0
H4481 H 0.52194 0.39139 0.11615 0.0
H4482 H 0.49308 0.29232 0.08218 0.0
H4483 H 0.50899 0.32358 0.09598 0.0
H4484 H 0.59167 0.39766 0.09264 0.0
C4485 C 0.58876 0.45676 0.12136 0.0
C4486 C 0.5373 0.39298 0.11103 0.0
C4487 C 0.59465 0.47212 0.13001 0.0
C4488 C 0.50941 0.31282 0.08095 0.0
C4489 C 0.51855 0.33082 0.08888 0.0
C4490 C 0.57617 0.39637 0.09761 0.0
C4491 C 0.57309 0.42839 0.12174 0.0
C4492 C 0.56483 0.41181 0.11264 0.0
C4493 C 0.53981 0.35764 0.08768 0.0
C4494 C 0.54859 0.37701 0.09611 0.0
H4495 H 0.56319 0.42039 0.14648 0.0
H4496 H 0.55234 0.39382 0.13142 0.0
H4497 H 0.60556 0.42799 0.1069 0.0
H4498 H 0.55271 0.35464 0.06332 0.0
H4499 H 0.56845 0.38624 0.07713 0.0
C4500 C 0.48489 0.92225 0.89891 0.0
C4501 C 0.47213 0.91596 0.88968 0.0
C4502 C 0.4696 0.91153 0.9075 0.0
C4503 C 0.40042 0.85893 0.91622 0.0
H4504 H 0.42147 0.9031 0.93979 0.0
C4505 C 0.32712 0.84028 0.94842 0.0
C4506 C 0.33685 0.84135 0.95801 0.0
C4507 C 0.34469 0.84785 0.94036 0.0
C4508 C 0.41552 0.89043 0.93329 0.0
H4509 H 0.43351 0.89405 0.88215 0.0
H4510 H 0.40667 0.87657 0.89704 0.0
H4511 H 0.45009 0.91947 0.92518 0.0
H4512 H 0.37269 0.85121 0.96666 0.0
H4513 H 0.40349 0.86465 0.95252 0.0
H4514 H 0.36518 0.83051 0.92427 0.0
C4515 C 0.42852 0.88873 0.89775 0.0
C4516 C 0.43198 0.89973 0.9249 0.0
C4517 C 0.44388 0.89891 0.88917 0.0
C4518 C 0.36457 0.85007 0.95936 0.0
C4519 C 0.38222 0.85792 0.95129 0.0
C4520 C 0.38378 0.84989 0.92454 0.0
C4521 C 0.44114 0.89481 0.90705 0.0
C4522 C 0.4245 0.88425 0.9162 0.0
C4523 C 0.37242 0.85686 0.94171 0.0
C4524 C 0.39102 0.86566 0.93312 0.0
H4525 H 0.50671 0.93519 0.89947 0.0
H4526 H 0.48018 0.91629 0.91448 0.0
H4527 H 0.39425 0.84604 0.90978 0.0
H4528 H 0.30583 0.83331 0.94712 0.0
H4529 H 0.33663 0.84706 0.93306 0.0
C4530 C 0.20023 0.4929 0.95542 0.0
C4531 C 0.22833 0.5046 0.95701 0.0
C4532 C 0.19038 0.50191 0.94773 0.0
C4533 C 0.21033 0.55946 0.93052 0.0
H4534 H 0.14922 0.50619 0.91533 0.0
C4535 C 0.17653 0.58169 0.89291 0.0
C4536 C 0.14851 0.56853 0.891 0.0
C4537 C 0.18636 0.57611 0.90152 0.0
C4538 C 0.16607 0.52139 0.91958 0.0
H4539 H 0.26808 0.53464 0.9516 0.0
H4540 H 0.25094 0.5502 0.9382 0.0
H4541 H 0.16599 0.49163 0.92912 0.0
H4542 H 0.10867 0.54077 0.89696 0.0
H4543 H 0.1257 0.53135 0.91201 0.0
H4544 H 0.21056 0.58917 0.9208 0.0
C4545 C 0.23647 0.53444 0.94301 0.0
C4546 C 0.17569 0.51303 0.9275 0.0
C4547 C 0.2463 0.52547 0.9507 0.0
C4548 C 0.13042 0.55101 0.89815 0.0
C4549 C 0.14018 0.54543 0.90674 0.0
C4550 C 0.20073 0.56783 0.92255 0.0
C4551 C 0.20839 0.52277 0.94142 0.0
C4552 C 0.19795 0.53192 0.93308 0.0
C4553 C 0.16826 0.55731 0.9084 0.0
C4554 C 0.17844 0.54887 0.917 0.0
H4555 H 0.18581 0.47707 0.96022 0.0
H4556 H 0.16861 0.49271 0.94681 0.0
H4557 H 0.2273 0.57461 0.93474 0.0
H4558 H 0.19087 0.59601 0.88768 0.0
H4559 H 0.20811 0.58572 0.90259 0.0
C4560 C 0.51126 0.58379 0.89894 0.0
C4561 C 0.4969 0.58744 0.89124 0.0
C4562 C 0.5175 0.5993 0.90754 0.0
C4563 C 0.50022 0.6441 0.92193 0.0
H4564 H 0.574 0.6749 0.93161 0.0
C4565 C 0.54691 0.73328 0.94944 0.0
C4566 C 0.5641 0.73325 0.95689 0.0
C4567 C 0.53757 0.71394 0.94193 0.0
C4568 C 0.5532 0.66619 0.92911 0.0
H4569 H 0.47688 0.6096 0.88675 0.0
H4570 H 0.48781 0.63658 0.90169 0.0
H4571 H 0.55896 0.6433 0.91786 0.0
H4572 H 0.58461 0.71241 0.96226 0.0
H4573 H 0.56847 0.6788 0.94912 0.0
H4574 H 0.49457 0.66725 0.93313 0.0
C4575 C 0.49417 0.62166 0.90113 0.0
C4576 C 0.54455 0.64801 0.92122 0.0
C4577 C 0.48802 0.60624 0.89251 0.0
C4578 C 0.57176 0.71336 0.95658 0.0
C4579 C 0.56245 0.69402 0.94904 0.0
C4580 C 0.50887 0.66227 0.92984 0.0
C4581 C 0.50944 0.61876 0.90868 0.0
C4582 C 0.51802 0.63689 0.91747 0.0
C4583 C 0.5452 0.69404 0.94162 0.0
C4584 C 0.53556 0.67376 0.93348 0.0
H4585 H 0.51835 0.56946 0.89823 0.0
H4586 H 0.52891 0.59623 0.91328 0.0
H4587 H 0.47953 0.63565 0.91933 0.0
H4588 H 0.54095 0.74854 0.94931 0.0
H4589 H 0.52475 0.71494 0.93624 0.0
C4590 C 0.26201 0.46275 0.46371 0.0
C4591 C 0.27448 0.46578 0.47288 0.0
C4592 C 0.27788 0.47407 0.45524 0.0
C4593 C 0.34929 0.52308 0.4473 0.0
H4594 H 0.32566 0.48411 0.42261 0.0
C4595 C 0.42243 0.54275 0.41487 0.0
C4596 C 0.41337 0.5437 0.40533 0.0
C4597 C 0.40462 0.53482 0.42288 0.0
C4598 C 0.33241 0.49538 0.42943 0.0
H4599 H 0.31293 0.48209 0.48048 0.0
H4600 H 0.3406 0.50072 0.46581 0.0
H4601 H 0.29606 0.4673 0.43697 0.0
H4602 H 0.37833 0.53695 0.39676 0.0
H4603 H 0.34723 0.52314 0.41079 0.0
H4604 H 0.38606 0.55058 0.43979 0.0
C4605 C 0.31873 0.49078 0.46505 0.0
C4606 C 0.31538 0.48581 0.43768 0.0
C4607 C 0.3029 0.47998 0.47349 0.0
C4608 C 0.38603 0.53659 0.40401 0.0
C4609 C 0.36815 0.52847 0.41203 0.0
C4610 C 0.36641 0.53242 0.43909 0.0
C4611 C 0.30651 0.48811 0.45579 0.0
C4612 C 0.32373 0.49931 0.44678 0.0
C4613 C 0.37726 0.52751 0.42156 0.0
C4614 C 0.35832 0.5185 0.4301 0.0
H4615 H 0.24006 0.452 0.46311 0.0
H4616 H 0.26765 0.47193 0.4483 0.0
H4617 H 0.35623 0.53453 0.45407 0.0
H4618 H 0.44341 0.54843 0.41618 0.0
H4619 H 0.4122 0.53405 0.43012 0.0
C4620 C 0.52266 0.85642 0.40484 0.0
C4621 C 0.52166 0.88048 0.40554 0.0
C4622 C 0.53158 0.8473 0.41278 0.0
C4623 C 0.53945 0.85307 0.43974 0.0
H4624 H 0.59055 0.82769 0.43591 0.0
C4625 C 0.59561 0.84006 0.47237 0.0
C4626 C 0.60195 0.81936 0.47219 0.0
C4627 C 0.58462 0.84545 0.46409 0.0
C4628 C 0.57592 0.83426 0.43711 0.0
H4629 H 0.52929 0.91377 0.41518 0.0
H4630 H 0.54506 0.898 0.42901 0.0
H4631 H 0.57381 0.84115 0.4217 0.0
H4632 H 0.60138 0.78744 0.46348 0.0
H4633 H 0.58123 0.79622 0.44894 0.0
H4634 H 0.54115 0.84595 0.45508 0.0
C4635 C 0.53876 0.88609 0.42232 0.0
C4636 C 0.56641 0.84208 0.42895 0.0
C4637 C 0.53002 0.8953 0.41436 0.0
C4638 C 0.59689 0.80376 0.46367 0.0
C4639 C 0.58546 0.80888 0.45538 0.0
C4640 C 0.54871 0.84501 0.44786 0.0
C4641 C 0.53952 0.86192 0.42164 0.0
C4642 C 0.54846 0.85205 0.4302 0.0
C4643 C 0.57921 0.82987 0.45549 0.0
C4644 C 0.56753 0.83604 0.44669 0.0
H4645 H 0.51661 0.84464 0.39812 0.0
H4646 H 0.53181 0.82854 0.41205 0.0
H4647 H 0.52516 0.86008 0.44093 0.0
H4648 H 0.59942 0.8523 0.47891 0.0
H4649 H 0.58073 0.86213 0.46443 0.0
C4650 C 0.27058 0.79851 0.46549 0.0
C4651 C 0.25042 0.79345 0.47248 0.0
C4652 C 0.26416 0.78226 0.45706 0.0
C4653 C 0.20486 0.73439 0.44196 0.0
H4654 H 0.25359 0.71102 0.4319 0.0
C4655 C 0.16962 0.64836 0.41372 0.0
C4656 C 0.18687 0.65231 0.4057 0.0
C4657 C 0.17865 0.66626 0.42167 0.0
C4658 C 0.2399 0.7176 0.43457 0.0
H4659 H 0.20827 0.76756 0.47644 0.0
H4660 H 0.19702 0.73901 0.46187 0.0
H4661 H 0.26722 0.74143 0.44609 0.0
H4662 H 0.22737 0.67825 0.39985 0.0
H4663 H 0.24318 0.70939 0.41381 0.0
H4664 H 0.17737 0.71028 0.43058 0.0
C4665 C 0.21758 0.75572 0.46267 0.0
C4666 C 0.24772 0.73508 0.44269 0.0
C4667 C 0.22399 0.77192 0.47104 0.0
C4668 C 0.21359 0.67442 0.40594 0.0
C4669 C 0.22268 0.69228 0.41393 0.0
C4670 C 0.197 0.71685 0.43392 0.0
C4671 C 0.23749 0.76074 0.45552 0.0
C4672 C 0.23013 0.74343 0.44655 0.0
C4673 C 0.2052 0.68854 0.42185 0.0
C4674 C 0.21427 0.708 0.43019 0.0
H4675 H 0.29117 0.81496 0.46656 0.0
H4676 H 0.27996 0.78678 0.45169 0.0
H4677 H 0.19104 0.74089 0.44457 0.0
H4678 H 0.14915 0.63122 0.41391 0.0
H4679 H 0.16485 0.66252 0.42775 0.0
loop_
_geom_bond_atom_site_label_1
_geom_bond_atom_site_label_2
_geom_bond_distance
_geom_bond_site_symmetry_2
_ccdc_geom_bond_type
Nd0 C2 2.836 . S
Nd0 O20 2.500 . S
Nd0 O21 2.492 . S
Nd0 O22 2.487 . S
Nd0 O23 2.682 . S
Nd0 O24 2.410 . S
Nd0 O29 2.414 . S
Nd0 O31 2.424 . S
Nd1 C11 2.836 . S
Nd1 O23 2.414 . S
Nd1 O25 2.424 . S
Nd1 O26 2.500 . S
Nd1 O27 2.492 . S
Nd1 O28 2.487 . S
Nd1 O29 2.682 . S
Nd1 O30 2.410 . S
C2 Nd0 2.836 . S
C2 C3 1.498 . S
C2 O20 1.258 . S
C2 O21 1.239 . S
C3 C2 1.498 . S
C3 C4 1.366 . S
C3 C8 1.407 . S
C4 C3 1.366 . S
C4 C5 1.392 . S
C4 H32 0.930 . S
C5 C4 1.392 . S
C5 C6 1.398 . S
C5 H33 0.929 . S
C6 C5 1.398 . S
C6 C7 1.352 . S
C7 C6 1.352 . S
C7 C8 1.384 . S
C7 H34 0.930 . S
C8 C3 1.407 . S
C8 C7 1.384 . S
C8 H35 0.929 . S
C9 O22 1.241 . S
C9 O23 1.273 . S
C10 O24 1.251 . S
C10 O25 1.268 . S
C11 Nd1 2.836 . S
C11 C12 1.498 . S
C11 O26 1.258 . S
C11 O27 1.239 . S
C12 C11 1.498 . S
C12 C13 1.366 . S
C12 C17 1.407 . S
C13 C12 1.366 . S
C13 C14 1.392 . S
C13 H36 0.930 . S
C14 C13 1.392 . S
C14 C15 1.398 1_455 S
C14 H37 0.929 . S
C15 C14 1.398 1_655 S
C15 C16 1.352 . S
C16 C15 1.352 . S
C16 C17 1.384 1_655 S
C16 H38 0.930 . S
C17 C12 1.407 . S
C17 C16 1.384 1_455 S
C17 H39 0.929 . S
C18 O28 1.241 . S
C18 O29 1.273 . S
C19 O30 1.251 . S
C19 O31 1.268 . S
O20 Nd0 2.500 . S
O20 C2 1.258 . S
O21 Nd0 2.492 . S
O21 C2 1.239 . S
O22 Nd0 2.487 . S
O22 C9 1.241 . S
O23 Nd0 2.682 . S
O23 Nd1 2.414 . S
O23 C9 1.273 . S
O24 Nd0 2.410 . S
O24 C10 1.251 . S
O25 Nd1 2.424 . S
O25 C10 1.268 . S
O26 Nd1 2.500 . S
O26 C11 1.258 . S
O27 Nd1 2.492 . S
O27 C11 1.239 . S
O28 Nd1 2.487 . S
O28 C18 1.241 . S
O29 Nd0 2.414 . S
O29 Nd1 2.682 . S
O29 C18 1.273 . S
O30 Nd1 2.410 . S
O30 C19 1.251 . S
O31 Nd0 2.424 . S
O31 C19 1.268 . S
H32 C4 0.930 . S
H33 C5 0.929 . S
H34 C7 0.930 . S
H35 C8 0.929 . S
H36 C13 0.930 . S
H37 C14 0.929 . S
H38 C16 0.930 . S
H39 C17 0.929 . S
Nd40 C42 2.836 . S
Nd40 O60 2.500 . S
Nd40 O61 2.492 . S
Nd40 O62 2.487 . S
Nd40 O63 2.682 . S
Nd40 O64 2.410 . S
Nd40 O69 2.414 . S
Nd40 O71 2.424 . S
Nd41 C51 2.836 . S
Nd41 O63 2.414 . S
Nd41 O65 2.424 . S
Nd41 O66 2.500 . S
Nd41 O67 2.492 . S
Nd41 O68 2.487 . S
Nd41 O69 2.682 . S
Nd41 O70 2.410 . S
C42 Nd40 2.836 . S
C42 C43 1.498 . S
C42 O60 1.258 . S
C42 O61 1.239 . S
C43 C42 1.498 . S
C43 C44 1.366 . S
C43 C48 1.407 . S
C44 C43 1.366 . S
C44 C45 1.392 . S
C44 H72 0.930 . S
C45 C44 1.392 . S
C45 C46 1.398 . S
C45 H73 0.929 . S
C46 C45 1.398 . S
C46 C47 1.352 . S
C47 C46 1.352 . S
C47 C48 1.384 . S
C47 H74 0.930 . S
C48 C43 1.407 . S
C48 C47 1.384 . S
C48 H75 0.929 . S
C49 O62 1.241 . S
C49 O63 1.273 . S
C50 O64 1.251 . S
C50 O65 1.268 . S
C51 Nd41 2.836 . S
C51 C52 1.498 . S
C51 O66 1.258 . S
C51 O67 1.239 . S
C52 C51 1.498 . S
C52 C53 1.366 . S
C52 C57 1.407 . S
C53 C52 1.366 . S
C53 C54 1.392 . S
C53 H76 0.930 . S
C54 C53 1.392 . S
C54 C55 1.398 . S
C54 H77 0.929 . S
C55 C54 1.398 . S
C55 C56 1.352 . S
C56 C55 1.352 . S
C56 C57 1.384 . S
C56 H78 0.930 . S
C57 C52 1.407 . S
C57 C56 1.384 . S
C57 H79 0.929 . S
C58 O68 1.241 . S
C58 O69 1.273 . S
C59 O70 1.251 . S
C59 O71 1.268 . S
O60 Nd40 2.500 . S
O60 C42 1.258 . S
O61 Nd40 2.492 . S
O61 C42 1.239 . S
O62 Nd40 2.487 . S
O62 C49 1.241 . S
O63 Nd40 2.682 . S
O63 Nd41 2.414 . S
O63 C49 1.273 . S
O64 Nd40 2.410 . S
O64 C50 1.251 . S
O65 Nd41 2.424 . S
O65 C50 1.268 . S
O66 Nd41 2.500 . S
O66 C51 1.258 . S
O67 Nd41 2.492 . S
O67 C51 1.239 . S
O68 Nd41 2.487 . S
O68 C58 1.241 . S
O69 Nd40 2.414 . S
O69 Nd41 2.682 . S
O69 C58 1.273 . S
O70 Nd41 2.410 . S
O70 C59 1.251 . S
O71 Nd40 2.424 . S
O71 C59 1.268 . S
H72 C44 0.930 . S
H73 C45 0.929 . S
H74 C47 0.930 . S
H75 C48 0.929 . S
H76 C53 0.930 . S
H77 C54 0.929 . S
H78 C56 0.930 . S
H79 C57 0.929 . S
Nd80 C82 2.836 . S
Nd80 O100 2.500 . S
Nd80 O101 2.492 . S
Nd80 O102 2.487 . S
Nd80 O103 2.682 . S
Nd80 O104 2.410 . S
Nd80 O109 2.414 . S
Nd80 O111 2.424 . S
Nd81 C91 2.836 . S
Nd81 O103 2.414 . S
Nd81 O105 2.424 . S
Nd81 O106 2.500 . S
Nd81 O107 2.492 . S
Nd81 O108 2.487 . S
Nd81 O109 2.682 . S
Nd81 O110 2.410 . S
C82 Nd80 2.836 . S
C82 C83 1.498 . S
C82 O100 1.258 . S
C82 O101 1.239 . S
C83 C82 1.498 . S
C83 C84 1.366 . S
C83 C88 1.407 . S
C84 C83 1.366 . S
C84 C85 1.392 . S
C84 H112 0.930 . S
C85 C84 1.392 . S
C85 C86 1.398 . S
C85 H113 0.929 . S
C86 C85 1.398 . S
C86 C87 1.352 . S
C87 C86 1.352 . S
C87 C88 1.384 . S
C87 H114 0.930 . S
C88 C83 1.407 . S
C88 C87 1.384 . S
C88 H115 0.929 . S
C89 O102 1.241 . S
C89 O103 1.273 . S
C90 O104 1.251 . S
C90 O105 1.268 . S
C91 Nd81 2.836 . S
C91 C92 1.498 . S
C91 O106 1.258 . S
C91 O107 1.239 . S
C92 C91 1.498 . S
C92 C93 1.366 . S
C92 C97 1.407 . S
C93 C92 1.366 . S
C93 C94 1.392 . S
C93 H116 0.930 . S
C94 C93 1.392 . S
C94 C95 1.398 1_565 S
C94 H117 0.929 . S
C95 C94 1.398 1_545 S
C95 C96 1.352 . S
C96 C95 1.352 . S
C96 C97 1.384 1_545 S
C96 H118 0.930 . S
C97 C92 1.407 . S
C97 C96 1.384 1_565 S
C97 H119 0.929 . S
C98 O108 1.241 . S
C98 O109 1.273 . S
C99 O110 1.251 . S
C99 O111 1.268 . S
O100 Nd80 2.500 . S
O100 C82 1.258 . S
O101 Nd80 2.492 . S
O101 C82 1.239 . S
O102 Nd80 2.487 . S
O102 C89 1.241 . S
O103 Nd80 2.682 . S
O103 Nd81 2.414 . S
O103 C89 1.273 . S
O104 Nd80 2.410 . S
O104 C90 1.251 . S
O105 Nd81 2.424 . S
O105 C90 1.268 . S
O106 Nd81 2.500 . S
O106 C91 1.258 . S
O107 Nd81 2.492 . S
O107 C91 1.239 . S
O108 Nd81 2.487 . S
O108 C98 1.241 . S
O109 Nd80 2.414 . S
O109 Nd81 2.682 . S
O109 C98 1.273 . S
O110 Nd81 2.410 . S
O110 C99 1.251 . S
O111 Nd80 2.424 . S
O111 C99 1.268 . S
H112 C84 0.930 . S
H113 C85 0.929 . S
H114 C87 0.930 . S
H115 C88 0.929 . S
H116 C93 0.930 . S
H117 C94 0.929 . S
H118 C96 0.930 . S
H119 C97 0.929 . S
Nd120 C122 2.836 . S
Nd120 O140 2.500 . S
Nd120 O141 2.492 . S
Nd120 O142 2.487 . S
Nd120 O143 2.682 . S
Nd120 O144 2.410 . S
Nd120 O149 2.414 . S
Nd120 O151 2.424 . S
Nd121 C131 2.836 . S
Nd121 O143 2.414 . S
Nd121 O145 2.424 . S
Nd121 O146 2.500 . S
Nd121 O147 2.492 . S
Nd121 O148 2.487 . S
Nd121 O149 2.682 . S
Nd121 O150 2.410 . S
C122 Nd120 2.836 . S
C122 C123 1.498 . S
C122 O140 1.258 . S
C122 O141 1.239 . S
C123 C122 1.498 . S
C123 C124 1.366 . S
C123 C128 1.407 . S
C124 C123 1.366 . S
C124 C125 1.392 . S
C124 H152 0.930 . S
C125 C124 1.392 . S
C125 C126 1.398 . S
C125 H153 0.929 . S
C126 C125 1.398 . S
C126 C127 1.352 . S
C127 C126 1.352 . S
C127 C128 1.384 . S
C127 H154 0.930 . S
C128 C123 1.407 . S
C128 C127 1.384 . S
C128 H155 0.929 . S
C129 O142 1.241 . S
C129 O143 1.273 . S
C130 O144 1.251 . S
C130 O145 1.268 . S
C131 Nd121 2.836 . S
C131 C132 1.498 . S
C131 O146 1.258 . S
C131 O147 1.239 . S
C132 C131 1.498 . S
C132 C133 1.366 . S
C132 C137 1.407 . S
C133 C132 1.366 . S
C133 C134 1.392 . S
C133 H156 0.930 . S
C134 C133 1.392 . S
C134 C135 1.398 . S
C134 H157 0.929 . S
C135 C134 1.398 . S
C135 C136 1.352 . S
C136 C135 1.352 . S
C136 C137 1.384 . S
C136 H158 0.930 . S
C137 C132 1.407 . S
C137 C136 1.384 . S
C137 H159 0.929 . S
C138 O148 1.241 . S
C138 O149 1.273 . S
C139 O150 1.251 . S
C139 O151 1.268 . S
O140 Nd120 2.500 . S
O140 C122 1.258 . S
O141 Nd120 2.492 . S
O141 C122 1.239 . S
O142 Nd120 2.487 . S
O142 C129 1.241 . S
O143 Nd120 2.682 . S
O143 Nd121 2.414 . S
O143 C129 1.273 . S
O144 Nd120 2.410 . S
O144 C130 1.251 . S
O145 Nd121 2.424 . S
O145 C130 1.268 . S
O146 Nd121 2.500 . S
O146 C131 1.258 . S
O147 Nd121 2.492 . S
O147 C131 1.239 . S
O148 Nd121 2.487 . S
O148 C138 1.241 . S
O149 Nd120 2.414 . S
O149 Nd121 2.682 . S
O149 C138 1.273 . S
O150 Nd121 2.410 . S
O150 C139 1.251 . S
O151 Nd120 2.424 . S
O151 C139 1.268 . S
H152 C124 0.930 . S
H153 C125 0.929 . S
H154 C127 0.930 . S
H155 C128 0.929 . S
H156 C133 0.930 . S
H157 C134 0.929 . S
H158 C136 0.930 . S
H159 C137 0.929 . S
Nd160 C162 2.836 . S
Nd160 O180 2.500 . S
Nd160 O181 2.492 . S
Nd160 O182 2.487 . S
Nd160 O183 2.682 . S
Nd160 O184 2.410 . S
Nd160 O189 2.414 . S
Nd160 O191 2.424 . S
Nd161 C171 2.836 . S
Nd161 O183 2.414 . S
Nd161 O185 2.424 . S
Nd161 O186 2.500 . S
Nd161 O187 2.492 . S
Nd161 O188 2.487 . S
Nd161 O189 2.682 . S
Nd161 O190 2.410 . S
C162 Nd160 2.836 . S
C162 C163 1.498 . S
C162 O180 1.258 . S
C162 O181 1.239 . S
C163 C162 1.498 . S
C163 C164 1.366 . S
C163 C168 1.407 . S
C164 C163 1.366 . S
C164 C165 1.392 . S
C164 H192 0.930 . S
C165 C164 1.392 . S
C165 C166 1.398 . S
C165 H193 0.929 . S
C166 C165 1.398 . S
C166 C167 1.352 . S
C167 C166 1.352 . S
C167 C168 1.384 . S
C167 H194 0.930 . S
C168 C163 1.407 . S
C168 C167 1.384 . S
C168 H195 0.929 . S
C169 O182 1.241 . S
C169 O183 1.273 . S
C170 O184 1.251 . S
C170 O185 1.268 . S
C171 Nd161 2.836 . S
C171 C172 1.498 . S
C171 O186 1.258 . S
C171 O187 1.239 . S
C172 C171 1.498 . S
C172 C173 1.366 . S
C172 C177 1.407 . S
C173 C172 1.366 . S
C173 C174 1.392 . S
C173 H196 0.930 . S
C174 C173 1.392 . S
C174 C175 1.398 . S
C174 H197 0.929 . S
C175 C174 1.398 . S
C175 C176 1.352 . S
C176 C175 1.352 . S
C176 C177 1.384 . S
C176 H198 0.930 . S
C177 C172 1.407 . S
C177 C176 1.384 . S
C177 H199 0.929 . S
C178 O188 1.241 . S
C178 O189 1.273 . S
C179 O190 1.251 . S
C179 O191 1.268 . S
O180 Nd160 2.500 . S
O180 C162 1.258 . S
O181 Nd160 2.492 . S
O181 C162 1.239 . S
O182 Nd160 2.487 . S
O182 C169 1.241 . S
O183 Nd160 2.682 . S
O183 Nd161 2.414 . S
O183 C169 1.273 . S
O184 Nd160 2.410 . S
O184 C170 1.251 . S
O185 Nd161 2.424 . S
O185 C170 1.268 . S
O186 Nd161 2.500 . S
O186 C171 1.258 . S
O187 Nd161 2.492 . S
O187 C171 1.239 . S
O188 Nd161 2.487 . S
O188 C178 1.241 . S
O189 Nd160 2.414 . S
O189 Nd161 2.682 . S
O189 C178 1.273 . S
O190 Nd161 2.410 . S
O190 C179 1.251 . S
O191 Nd160 2.424 . S
O191 C179 1.268 . S
H192 C164 0.930 . S
H193 C165 0.929 . S
H194 C167 0.930 . S
H195 C168 0.929 . S
H196 C173 0.930 . S
H197 C174 0.929 . S
H198 C176 0.930 . S
H199 C177 0.929 . S
Nd200 C202 2.836 . S
Nd200 O220 2.500 . S
Nd200 O221 2.492 . S
Nd200 O222 2.487 . S
Nd200 O223 2.682 . S
Nd200 O224 2.410 . S
Nd200 O229 2.414 . S
Nd200 O231 2.424 . S
Nd201 C211 2.836 . S
Nd201 O223 2.414 . S
Nd201 O225 2.424 . S
Nd201 O226 2.500 . S
Nd201 O227 2.492 . S
Nd201 O228 2.487 . S
Nd201 O229 2.682 . S
Nd201 O230 2.410 . S
C202 Nd200 2.836 . S
C202 C203 1.498 . S
C202 O220 1.258 . S
C202 O221 1.239 . S
C203 C202 1.498 . S
C203 C204 1.366 . S
C203 C208 1.407 . S
C204 C203 1.366 . S
C204 C205 1.392 . S
C204 H232 0.930 . S
C205 C204 1.392 . S
C205 C206 1.398 . S
C205 H233 0.929 . S
C206 C205 1.398 . S
C206 C207 1.352 . S
C207 C206 1.352 . S
C207 C208 1.384 . S
C207 H234 0.930 . S
C208 C203 1.407 . S
C208 C207 1.384 . S
C208 H235 0.929 . S
C209 O222 1.241 . S
C209 O223 1.273 . S
C210 O224 1.251 . S
C210 O225 1.268 . S
C211 Nd201 2.836 . S
C211 C212 1.498 . S
C211 O226 1.258 . S
C211 O227 1.239 . S
C212 C211 1.498 . S
C212 C213 1.366 . S
C212 C217 1.407 . S
C213 C212 1.366 . S
C213 C214 1.392 . S
C213 H236 0.930 . S
C214 C213 1.392 . S
C214 C215 1.398 . S
C214 H237 0.929 . S
C215 C214 1.398 . S
C215 C216 1.352 . S
C216 C215 1.352 . S
C216 C217 1.384 . S
C216 H238 0.930 . S
C217 C212 1.407 . S
C217 C216 1.384 . S
C217 H239 0.929 . S
C218 O228 1.241 . S
C218 O229 1.273 . S
C219 O230 1.251 . S
C219 O231 1.268 . S
O220 Nd200 2.500 . S
O220 C202 1.258 . S
O221 Nd200 2.492 . S
O221 C202 1.239 . S
O222 Nd200 2.487 . S
O222 C209 1.241 . S
O223 Nd200 2.682 . S
O223 Nd201 2.414 . S
O223 C209 1.273 . S
O224 Nd200 2.410 . S
O224 C210 1.251 . S
O225 Nd201 2.424 . S
O225 C210 1.268 . S
O226 Nd201 2.500 . S
O226 C211 1.258 . S
O227 Nd201 2.492 . S
O227 C211 1.239 . S
O228 Nd201 2.487 . S
O228 C218 1.241 . S
O229 Nd200 2.414 . S
O229 Nd201 2.682 . S
O229 C218 1.273 . S
O230 Nd201 2.410 . S
O230 C219 1.251 . S
O231 Nd200 2.424 . S
O231 C219 1.268 . S
H232 C204 0.930 . S
H233 C205 0.929 . S
H234 C207 0.930 . S
H235 C208 0.929 . S
H236 C213 0.930 . S
H237 C214 0.929 . S
H238 C216 0.930 . S
H239 C217 0.929 . S
Nd240 C242 2.836 . S
Nd240 O260 2.500 . S
Nd240 O261 2.492 . S
Nd240 O262 2.487 . S
Nd240 O263 2.682 . S
Nd240 O264 2.410 . S
Nd240 O269 2.414 . S
Nd240 O271 2.424 . S
Nd241 C251 2.836 . S
Nd241 O263 2.414 . S
Nd241 O265 2.424 . S
Nd241 O266 2.500 . S
Nd241 O267 2.492 . S
Nd241 O268 2.487 . S
Nd241 O269 2.682 . S
Nd241 O270 2.410 . S
C242 Nd240 2.836 . S
C242 C243 1.498 . S
C242 O260 1.258 . S
C242 O261 1.239 . S
C243 C242 1.498 . S
C243 C244 1.366 . S
C243 C248 1.407 . S
C244 C243 1.366 . S
C244 C245 1.392 . S
C244 H272 0.930 . S
C245 C244 1.392 . S
C245 C246 1.398 1_655 S
C245 H273 0.929 . S
C246 C245 1.398 1_455 S
C246 C247 1.352 . S
C247 C246 1.352 . S
C247 C248 1.384 1_455 S
C247 H274 0.930 . S
C248 C243 1.407 . S
C248 C247 1.384 1_655 S
C248 H275 0.929 . S
C249 O262 1.241 . S
C249 O263 1.273 . S
C250 O264 1.251 . S
C250 O265 1.268 . S
C251 Nd241 2.836 . S
C251 C252 1.498 . S
C251 O266 1.258 . S
C251 O267 1.239 . S
C252 C251 1.498 . S
C252 C253 1.366 . S
C252 C257 1.407 . S
C253 C252 1.366 . S
C253 C254 1.392 . S
C253 H276 0.930 . S
C254 C253 1.392 . S
C254 C255 1.398 . S
C254 H277 0.929 . S
C255 C254 1.398 . S
C255 C256 1.352 . S
C256 C255 1.352 . S
C256 C257 1.384 . S
C256 H278 0.930 . S
C257 C252 1.407 . S
C257 C256 1.384 . S
C257 H279 0.929 . S
C258 O268 1.241 . S
C258 O269 1.273 . S
C259 O270 1.251 . S
C259 O271 1.268 . S
O260 Nd240 2.500 . S
O260 C242 1.258 . S
O261 Nd240 2.492 . S
O261 C242 1.239 . S
O262 Nd240 2.487 . S
O262 C249 1.241 . S
O263 Nd240 2.682 . S
O263 Nd241 2.414 . S
O263 C249 1.273 . S
O264 Nd240 2.410 . S
O264 C250 1.251 . S
O265 Nd241 2.424 . S
O265 C250 1.268 . S
O266 Nd241 2.500 . S
O266 C251 1.258 . S
O267 Nd241 2.492 . S
O267 C251 1.239 . S
O268 Nd241 2.487 . S
O268 C258 1.241 . S
O269 Nd240 2.414 . S
O269 Nd241 2.682 . S
O269 C258 1.273 . S
O270 Nd241 2.410 . S
O270 C259 1.251 . S
O271 Nd240 2.424 . S
O271 C259 1.268 . S
H272 C244 0.930 . S
H273 C245 0.929 . S
H274 C247 0.930 . S
H275 C248 0.929 . S
H276 C253 0.930 . S
H277 C254 0.929 . S
H278 C256 0.930 . S
H279 C257 0.929 . S
Nd280 C282 2.836 . S
Nd280 O300 2.500 . S
Nd280 O301 2.492 . S
Nd280 O302 2.487 . S
Nd280 O303 2.682 . S
Nd280 O304 2.410 . S
Nd280 O309 2.414 . S
Nd280 O311 2.424 . S
Nd281 C291 2.836 . S
Nd281 O303 2.414 . S
Nd281 O305 2.424 . S
Nd281 O306 2.500 . S
Nd281 O307 2.492 . S
Nd281 O308 2.487 . S
Nd281 O309 2.682 . S
Nd281 O310 2.410 . S
C282 Nd280 2.836 . S
C282 C283 1.498 . S
C282 O300 1.258 . S
C282 O301 1.239 . S
C283 C282 1.498 . S
C283 C284 1.366 . S
C283 C288 1.407 . S
C284 C283 1.366 . S
C284 C285 1.392 . S
C284 H312 0.930 . S
C285 C284 1.392 . S
C285 C286 1.398 . S
C285 H313 0.929 . S
C286 C285 1.398 . S
C286 C287 1.352 . S
C287 C286 1.352 . S
C287 C288 1.384 . S
C287 H314 0.930 . S
C288 C283 1.407 . S
C288 C287 1.384 . S
C288 H315 0.929 . S
C289 O302 1.241 . S
C289 O303 1.273 . S
C290 O304 1.251 . S
C290 O305 1.268 . S
C291 Nd281 2.836 . S
C291 C292 1.498 . S
C291 O306 1.258 . S
C291 O307 1.239 . S
C292 C291 1.498 . S
C292 C293 1.366 . S
C292 C297 1.407 . S
C293 C292 1.366 . S
C293 C294 1.392 . S
C293 H316 0.930 . S
C294 C293 1.392 . S
C294 C295 1.398 . S
C294 H317 0.929 . S
C295 C294 1.398 . S
C295 C296 1.352 . S
C296 C295 1.352 . S
C296 C297 1.384 . S
C296 H318 0.930 . S
C297 C292 1.407 . S
C297 C296 1.384 . S
C297 H319 0.929 . S
C298 O308 1.241 . S
C298 O309 1.273 . S
C299 O310 1.251 . S
C299 O311 1.268 . S
O300 Nd280 2.500 . S
O300 C282 1.258 . S
O301 Nd280 2.492 . S
O301 C282 1.239 . S
O302 Nd280 2.487 . S
O302 C289 1.241 . S
O303 Nd280 2.682 . S
O303 Nd281 2.414 . S
O303 C289 1.273 . S
O304 Nd280 2.410 . S
O304 C290 1.251 . S
O305 Nd281 2.424 . S
O305 C290 1.268 . S
O306 Nd281 2.500 . S
O306 C291 1.258 . S
O307 Nd281 2.492 . S
O307 C291 1.239 . S
O308 Nd281 2.487 . S
O308 C298 1.241 . S
O309 Nd280 2.414 . S
O309 Nd281 2.682 . S
O309 C298 1.273 . S
O310 Nd281 2.410 . S
O310 C299 1.251 . S
O311 Nd280 2.424 . S
O311 C299 1.268 . S
H312 C284 0.930 . S
H313 C285 0.929 . S
H314 C287 0.930 . S
H315 C288 0.929 . S
H316 C293 0.930 . S
H317 C294 0.929 . S
H318 C296 0.930 . S
H319 C297 0.929 . S
Nd320 C322 2.836 . S
Nd320 O340 2.500 . S
Nd320 O341 2.492 . S
Nd320 O342 2.487 . S
Nd320 O343 2.682 . S
Nd320 O344 2.410 . S
Nd320 O349 2.414 . S
Nd320 O351 2.424 . S
Nd321 C331 2.836 . S
Nd321 O343 2.414 . S
Nd321 O345 2.424 . S
Nd321 O346 2.500 . S
Nd321 O347 2.492 . S
Nd321 O348 2.487 . S
Nd321 O349 2.682 . S
Nd321 O350 2.410 . S
C322 Nd320 2.836 . S
C322 C323 1.498 . S
C322 O340 1.258 . S
C322 O341 1.239 . S
C323 C322 1.498 . S
C323 C324 1.366 . S
C323 C328 1.407 . S
C324 C323 1.366 . S
C324 C325 1.392 . S
C324 H352 0.930 . S
C325 C324 1.392 . S
C325 C326 1.398 1_545 S
C325 H353 0.929 . S
C326 C325 1.398 1_565 S
C326 C327 1.352 . S
C327 C326 1.352 . S
C327 C328 1.384 1_565 S
C327 H354 0.930 . S
C328 C323 1.407 . S
C328 C327 1.384 1_545 S
C328 H355 0.929 . S
C329 O342 1.241 . S
C329 O343 1.273 . S
C330 O344 1.251 . S
C330 O345 1.268 . S
C331 Nd321 2.836 . S
C331 C332 1.498 . S
C331 O346 1.258 . S
C331 O347 1.239 . S
C332 C331 1.498 . S
C332 C333 1.366 . S
C332 C337 1.407 . S
C333 C332 1.366 . S
C333 C334 1.392 . S
C333 H356 0.930 . S
C334 C333 1.392 . S
C334 C335 1.398 . S
C334 H357 0.929 . S
C335 C334 1.398 . S
C335 C336 1.352 . S
C336 C335 1.352 . S
C336 C337 1.384 . S
C336 H358 0.930 . S
C337 C332 1.407 . S
C337 C336 1.384 . S
C337 H359 0.929 . S
C338 O348 1.241 . S
C338 O349 1.273 . S
C339 O350 1.251 . S
C339 O351 1.268 . S
O340 Nd320 2.500 . S
O340 C322 1.258 . S
O341 Nd320 2.492 . S
O341 C322 1.239 . S
O342 Nd320 2.487 . S
O342 C329 1.241 . S
O343 Nd320 2.682 . S
O343 Nd321 2.414 . S
O343 C329 1.273 . S
O344 Nd320 2.410 . S
O344 C330 1.251 . S
O345 Nd321 2.424 . S
O345 C330 1.268 . S
O346 Nd321 2.500 . S
O346 C331 1.258 . S
O347 Nd321 2.492 . S
O347 C331 1.239 . S
O348 Nd321 2.487 . S
O348 C338 1.241 . S
O349 Nd320 2.414 . S
O349 Nd321 2.682 . S
O349 C338 1.273 . S
O350 Nd321 2.410 . S
O350 C339 1.251 . S
O351 Nd320 2.424 . S
O351 C339 1.268 . S
H352 C324 0.930 . S
H353 C325 0.929 . S
H354 C327 0.930 . S
H355 C328 0.929 . S
H356 C333 0.930 . S
H357 C334 0.929 . S
H358 C336 0.930 . S
H359 C337 0.929 . S
Nd360 C362 2.836 . S
Nd360 O380 2.500 . S
Nd360 O381 2.492 . S
Nd360 O382 2.487 . S
Nd360 O383 2.682 . S
Nd360 O384 2.410 . S
Nd360 O389 2.414 . S
Nd360 O391 2.424 . S
Nd361 C371 2.836 . S
Nd361 O383 2.414 . S
Nd361 O385 2.424 . S
Nd361 O386 2.500 . S
Nd361 O387 2.492 . S
Nd361 O388 2.487 . S
Nd361 O389 2.682 . S
Nd361 O390 2.410 . S
C362 Nd360 2.836 . S
C362 C363 1.498 . S
C362 O380 1.258 . S
C362 O381 1.239 . S
C363 C362 1.498 . S
C363 C364 1.366 . S
C363 C368 1.407 . S
C364 C363 1.366 . S
C364 C365 1.392 . S
C364 H392 0.930 . S
C365 C364 1.392 . S
C365 C366 1.398 . S
C365 H393 0.929 . S
C366 C365 1.398 . S
C366 C367 1.352 . S
C367 C366 1.352 . S
C367 C368 1.384 . S
C367 H394 0.930 . S
C368 C363 1.407 . S
C368 C367 1.384 . S
C368 H395 0.929 . S
C369 O382 1.241 . S
C369 O383 1.273 . S
C370 O384 1.251 . S
C370 O385 1.268 . S
C371 Nd361 2.836 . S
C371 C372 1.498 . S
C371 O386 1.258 . S
C371 O387 1.239 . S
C372 C371 1.498 . S
C372 C373 1.366 . S
C372 C377 1.407 . S
C373 C372 1.366 . S
C373 C374 1.392 . S
C373 H396 0.930 . S
C374 C373 1.392 . S
C374 C375 1.398 . S
C374 H397 0.929 . S
C375 C374 1.398 . S
C375 C376 1.352 . S
C376 C375 1.352 . S
C376 C377 1.384 . S
C376 H398 0.930 . S
C377 C372 1.407 . S
C377 C376 1.384 . S
C377 H399 0.929 . S
C378 O388 1.241 . S
C378 O389 1.273 . S
C379 O390 1.251 . S
C379 O391 1.268 . S
O380 Nd360 2.500 . S
O380 C362 1.258 . S
O381 Nd360 2.492 . S
O381 C362 1.239 . S
O382 Nd360 2.487 . S
O382 C369 1.241 . S
O383 Nd360 2.682 . S
O383 Nd361 2.414 . S
O383 C369 1.273 . S
O384 Nd360 2.410 . S
O384 C370 1.251 . S
O385 Nd361 2.424 . S
O385 C370 1.268 . S
O386 Nd361 2.500 . S
O386 C371 1.258 . S
O387 Nd361 2.492 . S
O387 C371 1.239 . S
O388 Nd361 2.487 . S
O388 C378 1.241 . S
O389 Nd360 2.414 . S
O389 Nd361 2.682 . S
O389 C378 1.273 . S
O390 Nd361 2.410 . S
O390 C379 1.251 . S
O391 Nd360 2.424 . S
O391 C379 1.268 . S
H392 C364 0.930 . S
H393 C365 0.929 . S
H394 C367 0.930 . S
H395 C368 0.929 . S
H396 C373 0.930 . S
H397 C374 0.929 . S
H398 C376 0.930 . S
H399 C377 0.929 . S
Nd400 C402 2.836 . S
Nd400 O420 2.500 . S
Nd400 O421 2.492 . S
Nd400 O422 2.487 . S
Nd400 O423 2.682 . S
Nd400 O424 2.410 . S
Nd400 O429 2.414 . S
Nd400 O431 2.424 . S
Nd401 C411 2.836 . S
Nd401 O423 2.414 . S
Nd401 O425 2.424 . S
Nd401 O426 2.500 . S
Nd401 O427 2.492 . S
Nd401 O428 2.487 . S
Nd401 O429 2.682 . S
Nd401 O430 2.410 . S
C402 Nd400 2.836 . S
C402 C403 1.498 . S
C402 O420 1.258 . S
C402 O421 1.239 . S
C403 C402 1.498 . S
C403 C404 1.366 . S
C403 C408 1.407 . S
C404 C403 1.366 . S
C404 C405 1.392 . S
C404 H432 0.930 . S
C405 C404 1.392 . S
C405 C406 1.398 . S
C405 H433 0.929 . S
C406 C405 1.398 . S
C406 C407 1.352 . S
C407 C406 1.352 . S
C407 C408 1.384 . S
C407 H434 0.930 . S
C408 C403 1.407 . S
C408 C407 1.384 . S
C408 H435 0.929 . S
C409 O422 1.241 . S
C409 O423 1.273 . S
C410 O424 1.251 . S
C410 O425 1.268 . S
C411 Nd401 2.836 . S
C411 C412 1.498 . S
C411 O426 1.258 . S
C411 O427 1.239 . S
C412 C411 1.498 . S
C412 C413 1.366 . S
C412 C417 1.407 . S
C413 C412 1.366 . S
C413 C414 1.392 . S
C413 H436 0.930 . S
C414 C413 1.392 . S
C414 C415 1.398 . S
C414 H437 0.929 . S
C415 C414 1.398 . S
C415 C416 1.352 . S
C416 C415 1.352 . S
C416 C417 1.384 . S
C416 H438 0.930 . S
C417 C412 1.407 . S
C417 C416 1.384 . S
C417 H439 0.929 . S
C418 O428 1.241 . S
C418 O429 1.273 . S
C419 O430 1.251 . S
C419 O431 1.268 . S
O420 Nd400 2.500 . S
O420 C402 1.258 . S
O421 Nd400 2.492 . S
O421 C402 1.239 . S
O422 Nd400 2.487 . S
O422 C409 1.241 . S
O423 Nd400 2.682 . S
O423 Nd401 2.414 . S
O423 C409 1.273 . S
O424 Nd400 2.410 . S
O424 C410 1.251 . S
O425 Nd401 2.424 . S
O425 C410 1.268 . S
O426 Nd401 2.500 . S
O426 C411 1.258 . S
O427 Nd401 2.492 . S
O427 C411 1.239 . S
O428 Nd401 2.487 . S
O428 C418 1.241 . S
O429 Nd400 2.414 . S
O429 Nd401 2.682 . S
O429 C418 1.273 . S
O430 Nd401 2.410 . S
O430 C419 1.251 . S
O431 Nd400 2.424 . S
O431 C419 1.268 . S
H432 C404 0.930 . S
H433 C405 0.929 . S
H434 C407 0.930 . S
H435 C408 0.929 . S
H436 C413 0.930 . S
H437 C414 0.929 . S
H438 C416 0.930 . S
H439 C417 0.929 . S
Nd440 C442 2.836 . S
Nd440 O460 2.500 . S
Nd440 O461 2.492 . S
Nd440 O462 2.487 . S
Nd440 O463 2.682 . S
Nd440 O464 2.410 . S
Nd440 O469 2.414 . S
Nd440 O471 2.424 . S
Nd441 C451 2.836 . S
Nd441 O463 2.414 . S
Nd441 O465 2.424 . S
Nd441 O466 2.500 . S
Nd441 O467 2.492 . S
Nd441 O468 2.487 . S
Nd441 O469 2.682 . S
Nd441 O470 2.410 . S
C442 Nd440 2.836 . S
C442 C443 1.498 . S
C442 O460 1.258 . S
C442 O461 1.239 . S
C443 C442 1.498 . S
C443 C444 1.366 . S
C443 C448 1.407 . S
C444 C443 1.366 . S
C444 C445 1.392 . S
C444 H472 0.930 . S
C445 C444 1.392 . S
C445 C446 1.398 . S
C445 H473 0.929 . S
C446 C445 1.398 . S
C446 C447 1.352 . S
C447 C446 1.352 . S
C447 C448 1.384 . S
C447 H474 0.930 . S
C448 C443 1.407 . S
C448 C447 1.384 . S
C448 H475 0.929 . S
C449 O462 1.241 . S
C449 O463 1.273 . S
C450 O464 1.251 . S
C450 O465 1.268 . S
C451 Nd441 2.836 . S
C451 C452 1.498 . S
C451 O466 1.258 . S
C451 O467 1.239 . S
C452 C451 1.498 . S
C452 C453 1.366 . S
C452 C457 1.407 . S
C453 C452 1.366 . S
C453 C454 1.392 . S
C453 H476 0.930 . S
C454 C453 1.392 . S
C454 C455 1.398 . S
C454 H477 0.929 . S
C455 C454 1.398 . S
C455 C456 1.352 . S
C456 C455 1.352 . S
C456 C457 1.384 . S
C456 H478 0.930 . S
C457 C452 1.407 . S
C457 C456 1.384 . S
C457 H479 0.929 . S
C458 O468 1.241 . S
C458 O469 1.273 . S
C459 O470 1.251 . S
C459 O471 1.268 . S
O460 Nd440 2.500 . S
O460 C442 1.258 . S
O461 Nd440 2.492 . S
O461 C442 1.239 . S
O462 Nd440 2.487 . S
O462 C449 1.241 . S
O463 Nd440 2.682 . S
O463 Nd441 2.414 . S
O463 C449 1.273 . S
O464 Nd440 2.410 . S
O464 C450 1.251 . S
O465 Nd441 2.424 . S
O465 C450 1.268 . S
O466 Nd441 2.500 . S
O466 C451 1.258 . S
O467 Nd441 2.492 . S
O467 C451 1.239 . S
O468 Nd441 2.487 . S
O468 C458 1.241 . S
O469 Nd440 2.414 . S
O469 Nd441 2.682 . S
O469 C458 1.273 . S
O470 Nd441 2.410 . S
O470 C459 1.251 . S
O471 Nd440 2.424 . S
O471 C459 1.268 . S
H472 C444 0.930 . S
H473 C445 0.929 . S
H474 C447 0.930 . S
H475 C448 0.929 . S
H476 C453 0.930 . S
H477 C454 0.929 . S
H478 C456 0.930 . S
H479 C457 0.929 . S
Nd480 C482 2.836 . S
Nd480 O500 2.500 . S
Nd480 O501 2.492 . S
Nd480 O502 2.487 . S
Nd480 O503 2.682 . S
Nd480 O504 2.410 . S
Nd480 O509 2.414 . S
Nd480 O511 2.424 . S
Nd481 C491 2.836 . S
Nd481 O503 2.414 . S
Nd481 O505 2.424 . S
Nd481 O506 2.500 . S
Nd481 O507 2.492 . S
Nd481 O508 2.487 . S
Nd481 O509 2.682 . S
Nd481 O510 2.410 . S
C482 Nd480 2.836 . S
C482 C483 1.498 . S
C482 O500 1.258 . S
C482 O501 1.239 . S
C483 C482 1.498 . S
C483 C484 1.366 . S
C483 C488 1.407 . S
C484 C483 1.366 . S
C484 C485 1.392 . S
C484 H512 0.930 . S
C485 C484 1.392 . S
C485 C486 1.398 . S
C485 H513 0.929 . S
C486 C485 1.398 . S
C486 C487 1.352 . S
C487 C486 1.352 . S
C487 C488 1.384 . S
C487 H514 0.930 . S
C488 C483 1.407 . S
C488 C487 1.384 . S
C488 H515 0.929 . S
C489 O502 1.241 . S
C489 O503 1.273 . S
C490 O504 1.251 . S
C490 O505 1.268 . S
C491 Nd481 2.836 . S
C491 C492 1.498 . S
C491 O506 1.258 . S
C491 O507 1.239 . S
C492 C491 1.498 . S
C492 C493 1.366 . S
C492 C497 1.407 . S
C493 C492 1.366 . S
C493 C494 1.392 . S
C493 H516 0.930 . S
C494 C493 1.392 . S
C494 C495 1.398 . S
C494 H517 0.929 . S
C495 C494 1.398 . S
C495 C496 1.352 . S
C496 C495 1.352 . S
C496 C497 1.384 . S
C496 H518 0.930 . S
C497 C492 1.407 . S
C497 C496 1.384 . S
C497 H519 0.929 . S
C498 O508 1.241 . S
C498 O509 1.273 . S
C499 O510 1.251 . S
C499 O511 1.268 . S
O500 Nd480 2.500 . S
O500 C482 1.258 . S
O501 Nd480 2.492 . S
O501 C482 1.239 . S
O502 Nd480 2.487 . S
O502 C489 1.241 . S
O503 Nd480 2.682 . S
O503 Nd481 2.414 . S
O503 C489 1.273 . S
O504 Nd480 2.410 . S
O504 C490 1.251 . S
O505 Nd481 2.424 . S
O505 C490 1.268 . S
O506 Nd481 2.500 . S
O506 C491 1.258 . S
O507 Nd481 2.492 . S
O507 C491 1.239 . S
O508 Nd481 2.487 . S
O508 C498 1.241 . S
O509 Nd480 2.414 . S
O509 Nd481 2.682 . S
O509 C498 1.273 . S
O510 Nd481 2.410 . S
O510 C499 1.251 . S
O511 Nd480 2.424 . S
O511 C499 1.268 . S
H512 C484 0.930 . S
H513 C485 0.929 . S
H514 C487 0.930 . S
H515 C488 0.929 . S
H516 C493 0.930 . S
H517 C494 0.929 . S
H518 C496 0.930 . S
H519 C497 0.929 . S
Nd520 C522 2.836 . S
Nd520 O540 2.500 . S
Nd520 O541 2.492 . S
Nd520 O542 2.487 . S
Nd520 O543 2.682 . S
Nd520 O544 2.410 . S
Nd520 O549 2.414 . S
Nd520 O551 2.424 . S
Nd521 C531 2.836 . S
Nd521 O543 2.414 . S
Nd521 O545 2.424 . S
Nd521 O546 2.500 . S
Nd521 O547 2.492 . S
Nd521 O548 2.487 . S
Nd521 O549 2.682 . S
Nd521 O550 2.410 . S
C522 Nd520 2.836 . S
C522 C523 1.498 . S
C522 O540 1.258 . S
C522 O541 1.239 . S
C523 C522 1.498 . S
C523 C524 1.366 . S
C523 C528 1.407 . S
C524 C523 1.366 . S
C524 C525 1.392 . S
C524 H552 0.930 . S
C525 C524 1.392 . S
C525 C526 1.398 . S
C525 H553 0.929 . S
C526 C525 1.398 . S
C526 C527 1.352 . S
C527 C526 1.352 . S
C527 C528 1.384 . S
C527 H554 0.930 . S
C528 C523 1.407 . S
C528 C527 1.384 . S
C528 H555 0.929 . S
C529 O542 1.241 . S
C529 O543 1.273 . S
C530 O544 1.251 . S
C530 O545 1.268 . S
C531 Nd521 2.836 . S
C531 C532 1.498 . S
C531 O546 1.258 . S
C531 O547 1.239 . S
C532 C531 1.498 . S
C532 C533 1.366 . S
C532 C537 1.407 . S
C533 C532 1.366 . S
C533 C534 1.392 . S
C533 H556 0.930 . S
C534 C533 1.392 . S
C534 C535 1.398 . S
C534 H557 0.929 . S
C535 C534 1.398 . S
C535 C536 1.352 . S
C536 C535 1.352 . S
C536 C537 1.384 . S
C536 H558 0.930 . S
C537 C532 1.407 . S
C537 C536 1.384 . S
C537 H559 0.929 . S
C538 O548 1.241 . S
C538 O549 1.273 . S
C539 O550 1.251 . S
C539 O551 1.268 . S
O540 Nd520 2.500 . S
O540 C522 1.258 . S
O541 Nd520 2.492 . S
O541 C522 1.239 . S
O542 Nd520 2.487 . S
O542 C529 1.241 . S
O543 Nd520 2.682 . S
O543 Nd521 2.414 . S
O543 C529 1.273 . S
O544 Nd520 2.410 . S
O544 C530 1.251 . S
O545 Nd521 2.424 . S
O545 C530 1.268 . S
O546 Nd521 2.500 . S
O546 C531 1.258 . S
O547 Nd521 2.492 . S
O547 C531 1.239 . S
O548 Nd521 2.487 . S
O548 C538 1.241 . S
O549 Nd520 2.414 . S
O549 Nd521 2.682 . S
O549 C538 1.273 . S
O550 Nd521 2.410 . S
O550 C539 1.251 . S
O551 Nd520 2.424 . S
O551 C539 1.268 . S
H552 C524 0.930 . S
H553 C525 0.929 . S
H554 C527 0.930 . S
H555 C528 0.929 . S
H556 C533 0.930 . S
H557 C534 0.929 . S
H558 C536 0.930 . S
H559 C537 0.929 . S
Nd560 C562 2.836 . S
Nd560 O580 2.500 . S
Nd560 O581 2.492 . S
Nd560 O582 2.487 . S
Nd560 O583 2.682 . S
Nd560 O584 2.410 . S
Nd560 O589 2.414 . S
Nd560 O591 2.424 . S
Nd561 C571 2.836 . S
Nd561 O583 2.414 . S
Nd561 O585 2.424 . S
Nd561 O586 2.500 . S
Nd561 O587 2.492 . S
Nd561 O588 2.487 . S
Nd561 O589 2.682 . S
Nd561 O590 2.410 . S
C562 Nd560 2.836 . S
C562 C563 1.498 . S
C562 O580 1.258 . S
C562 O581 1.239 . S
C563 C562 1.498 . S
C563 C564 1.366 . S
C563 C568 1.407 . S
C564 C563 1.366 . S
C564 C565 1.392 . S
C564 H592 0.930 . S
C565 C564 1.392 . S
C565 C566 1.398 . S
C565 H593 0.929 . S
C566 C565 1.398 . S
C566 C567 1.352 . S
C567 C566 1.352 . S
C567 C568 1.384 . S
C567 H594 0.930 . S
C568 C563 1.407 . S
C568 C567 1.384 . S
C568 H595 0.929 . S
C569 O582 1.241 . S
C569 O583 1.273 . S
C570 O584 1.251 . S
C570 O585 1.268 . S
C571 Nd561 2.836 . S
C571 C572 1.498 . S
C571 O586 1.258 . S
C571 O587 1.239 . S
C572 C571 1.498 . S
C572 C573 1.366 . S
C572 C577 1.407 . S
C573 C572 1.366 . S
C573 C574 1.392 . S
C573 H596 0.930 . S
C574 C573 1.392 . S
C574 C575 1.398 . S
C574 H597 0.929 . S
C575 C574 1.398 . S
C575 C576 1.352 . S
C576 C575 1.352 . S
C576 C577 1.384 . S
C576 H598 0.930 . S
C577 C572 1.407 . S
C577 C576 1.384 . S
C577 H599 0.929 . S
C578 O588 1.241 . S
C578 O589 1.273 . S
C579 O590 1.251 . S
C579 O591 1.268 . S
O580 Nd560 2.500 . S
O580 C562 1.258 . S
O581 Nd560 2.492 . S
O581 C562 1.239 . S
O582 Nd560 2.487 . S
O582 C569 1.241 . S
O583 Nd560 2.682 . S
O583 Nd561 2.414 . S
O583 C569 1.273 . S
O584 Nd560 2.410 . S
O584 C570 1.251 . S
O585 Nd561 2.424 . S
O585 C570 1.268 . S
O586 Nd561 2.500 . S
O586 C571 1.258 . S
O587 Nd561 2.492 . S
O587 C571 1.239 . S
O588 Nd561 2.487 . S
O588 C578 1.241 . S
O589 Nd560 2.414 . S
O589 Nd561 2.682 . S
O589 C578 1.273 . S
O590 Nd561 2.410 . S
O590 C579 1.251 . S
O591 Nd560 2.424 . S
O591 C579 1.268 . S
H592 C564 0.930 . S
H593 C565 0.929 . S
H594 C567 0.930 . S
H595 C568 0.929 . S
H596 C573 0.930 . S
H597 C574 0.929 . S
H598 C576 0.930 . S
H599 C577 0.929 . S
Nd600 C602 2.836 . S
Nd600 O620 2.500 . S
Nd600 O621 2.492 . S
Nd600 O622 2.487 . S
Nd600 O623 2.682 . S
Nd600 O624 2.410 . S
Nd600 O629 2.414 . S
Nd600 O631 2.424 . S
Nd601 C611 2.836 . S
Nd601 O623 2.414 . S
Nd601 O625 2.424 . S
Nd601 O626 2.500 . S
Nd601 O627 2.492 . S
Nd601 O628 2.487 . S
Nd601 O629 2.682 . S
Nd601 O630 2.410 . S
C602 Nd600 2.836 . S
C602 C603 1.498 . S
C602 O620 1.258 . S
C602 O621 1.239 . S
C603 C602 1.498 . S
C603 C604 1.366 . S
C603 C608 1.407 . S
C604 C603 1.366 . S
C604 C605 1.392 . S
C604 H632 0.930 . S
C605 C604 1.392 . S
C605 C606 1.398 . S
C605 H633 0.929 . S
C606 C605 1.398 . S
C606 C607 1.352 . S
C607 C606 1.352 . S
C607 C608 1.384 . S
C607 H634 0.930 . S
C608 C603 1.407 . S
C608 C607 1.384 . S
C608 H635 0.929 . S
C609 O622 1.241 . S
C609 O623 1.273 . S
C610 O624 1.251 . S
C610 O625 1.268 . S
C611 Nd601 2.836 . S
C611 C612 1.498 . S
C611 O626 1.258 . S
C611 O627 1.239 . S
C612 C611 1.498 . S
C612 C613 1.366 . S
C612 C617 1.407 . S
C613 C612 1.366 . S
C613 C614 1.392 . S
C613 H636 0.930 . S
C614 C613 1.392 . S
C614 C615 1.398 . S
C614 H637 0.929 . S
C615 C614 1.398 . S
C615 C616 1.352 . S
C616 C615 1.352 . S
C616 C617 1.384 . S
C616 H638 0.930 . S
C617 C612 1.407 . S
C617 C616 1.384 . S
C617 H639 0.929 . S
C618 O628 1.241 . S
C618 O629 1.273 . S
C619 O630 1.251 . S
C619 O631 1.268 . S
O620 Nd600 2.500 . S
O620 C602 1.258 . S
O621 Nd600 2.492 . S
O621 C602 1.239 . S
O622 Nd600 2.487 . S
O622 C609 1.241 . S
O623 Nd600 2.682 . S
O623 Nd601 2.414 . S
O623 C609 1.273 . S
O624 Nd600 2.410 . S
O624 C610 1.251 . S
O625 Nd601 2.424 . S
O625 C610 1.268 . S
O626 Nd601 2.500 . S
O626 C611 1.258 . S
O627 Nd601 2.492 . S
O627 C611 1.239 . S
O628 Nd601 2.487 . S
O628 C618 1.241 . S
O629 Nd600 2.414 . S
O629 Nd601 2.682 . S
O629 C618 1.273 . S
O630 Nd601 2.410 . S
O630 C619 1.251 . S
O631 Nd600 2.424 . S
O631 C619 1.268 . S
H632 C604 0.930 . S
H633 C605 0.929 . S
H634 C607 0.930 . S
H635 C608 0.929 . S
H636 C613 0.930 . S
H637 C614 0.929 . S
H638 C616 0.930 . S
H639 C617 0.929 . S
Nd640 C642 2.836 . S
Nd640 O660 2.500 . S
Nd640 O661 2.492 . S
Nd640 O662 2.487 . S
Nd640 O663 2.682 . S
Nd640 O664 2.410 . S
Nd640 O669 2.414 . S
Nd640 O671 2.424 . S
Nd641 C651 2.836 . S
Nd641 O663 2.414 . S
Nd641 O665 2.424 . S
Nd641 O666 2.500 . S
Nd641 O667 2.492 . S
Nd641 O668 2.487 . S
Nd641 O669 2.682 . S
Nd641 O670 2.410 . S
C642 Nd640 2.836 . S
C642 C643 1.498 . S
C642 O660 1.258 . S
C642 O661 1.239 . S
C643 C642 1.498 . S
C643 C644 1.366 . S
C643 C648 1.407 . S
C644 C643 1.366 . S
C644 C645 1.392 . S
C644 H672 0.930 . S
C645 C644 1.392 . S
C645 C646 1.398 . S
C645 H673 0.929 . S
C646 C645 1.398 . S
C646 C647 1.352 . S
C647 C646 1.352 . S
C647 C648 1.384 . S
C647 H674 0.930 . S
C648 C643 1.407 . S
C648 C647 1.384 . S
C648 H675 0.929 . S
C649 O662 1.241 . S
C649 O663 1.273 . S
C650 O664 1.251 . S
C650 O665 1.268 . S
C651 Nd641 2.836 . S
C651 C652 1.498 . S
C651 O666 1.258 . S
C651 O667 1.239 . S
C652 C651 1.498 . S
C652 C653 1.366 . S
C652 C657 1.407 . S
C653 C652 1.366 . S
C653 C654 1.392 . S
C653 H676 0.930 . S
C654 C653 1.392 . S
C654 C655 1.398 . S
C654 H677 0.929 . S
C655 C654 1.398 . S
C655 C656 1.352 . S
C656 C655 1.352 . S
C656 C657 1.384 . S
C656 H678 0.930 . S
C657 C652 1.407 . S
C657 C656 1.384 . S
C657 H679 0.929 . S
C658 O668 1.241 . S
C658 O669 1.273 . S
C659 O670 1.251 . S
C659 O671 1.268 . S
O660 Nd640 2.500 . S
O660 C642 1.258 . S
O661 Nd640 2.492 . S
O661 C642 1.239 . S
O662 Nd640 2.487 . S
O662 C649 1.241 . S
O663 Nd640 2.682 . S
O663 Nd641 2.414 . S
O663 C649 1.273 . S
O664 Nd640 2.410 . S
O664 C650 1.251 . S
O665 Nd641 2.424 . S
O665 C650 1.268 . S
O666 Nd641 2.500 . S
O666 C651 1.258 . S
O667 Nd641 2.492 . S
O667 C651 1.239 . S
O668 Nd641 2.487 . S
O668 C658 1.241 . S
O669 Nd640 2.414 . S
O669 Nd641 2.682 . S
O669 C658 1.273 . S
O670 Nd641 2.410 . S
O670 C659 1.251 . S
O671 Nd640 2.424 . S
O671 C659 1.268 . S
H672 C644 0.930 . S
H673 C645 0.929 . S
H674 C647 0.930 . S
H675 C648 0.929 . S
H676 C653 0.930 . S
H677 C654 0.929 . S
H678 C656 0.930 . S
H679 C657 0.929 . S
Nd680 C682 2.836 . S
Nd680 O700 2.500 . S
Nd680 O701 2.492 . S
Nd680 O702 2.487 . S
Nd680 O703 2.682 . S
Nd680 O704 2.410 . S
Nd680 O709 2.414 . S
Nd680 O711 2.424 . S
Nd681 C691 2.836 . S
Nd681 O703 2.414 . S
Nd681 O705 2.424 . S
Nd681 O706 2.500 . S
Nd681 O707 2.492 . S
Nd681 O708 2.487 . S
Nd681 O709 2.682 . S
Nd681 O710 2.410 . S
C682 Nd680 2.836 . S
C682 C683 1.498 . S
C682 O700 1.258 . S
C682 O701 1.239 . S
C683 C682 1.498 . S
C683 C684 1.366 . S
C683 C688 1.407 . S
C684 C683 1.366 . S
C684 C685 1.392 . S
C684 H712 0.930 . S
C685 C684 1.392 . S
C685 C686 1.398 . S
C685 H713 0.929 . S
C686 C685 1.398 . S
C686 C687 1.352 . S
C687 C686 1.352 . S
C687 C688 1.384 . S
C687 H714 0.930 . S
C688 C683 1.407 . S
C688 C687 1.384 . S
C688 H715 0.929 . S
C689 O702 1.241 . S
C689 O703 1.273 . S
C690 O704 1.251 . S
C690 O705 1.268 . S
C691 Nd681 2.836 . S
C691 C692 1.498 . S
C691 O706 1.258 . S
C691 O707 1.239 . S
C692 C691 1.498 . S
C692 C693 1.366 . S
C692 C697 1.407 . S
C693 C692 1.366 . S
C693 C694 1.392 . S
C693 H716 0.930 . S
C694 C693 1.392 . S
C694 C695 1.398 . S
C694 H717 0.929 . S
C695 C694 1.398 . S
C695 C696 1.352 . S
C696 C695 1.352 . S
C696 C697 1.384 . S
C696 H718 0.930 . S
C697 C692 1.407 . S
C697 C696 1.384 . S
C697 H719 0.929 . S
C698 O708 1.241 . S
C698 O709 1.273 . S
C699 O710 1.251 . S
C699 O711 1.268 . S
O700 Nd680 2.500 . S
O700 C682 1.258 . S
O701 Nd680 2.492 . S
O701 C682 1.239 . S
O702 Nd680 2.487 . S
O702 C689 1.241 . S
O703 Nd680 2.682 . S
O703 Nd681 2.414 . S
O703 C689 1.273 . S
O704 Nd680 2.410 . S
O704 C690 1.251 . S
O705 Nd681 2.424 . S
O705 C690 1.268 . S
O706 Nd681 2.500 . S
O706 C691 1.258 . S
O707 Nd681 2.492 . S
O707 C691 1.239 . S
O708 Nd681 2.487 . S
O708 C698 1.241 . S
O709 Nd680 2.414 . S
O709 Nd681 2.682 . S
O709 C698 1.273 . S
O710 Nd681 2.410 . S
O710 C699 1.251 . S
O711 Nd680 2.424 . S
O711 C699 1.268 . S
H712 C684 0.930 . S
H713 C685 0.929 . S
H714 C687 0.930 . S
H715 C688 0.929 . S
H716 C693 0.930 . S
H717 C694 0.929 . S
H718 C696 0.930 . S
H719 C697 0.929 . S
Nd720 C722 2.836 . S
Nd720 O740 2.500 . S
Nd720 O741 2.492 . S
Nd720 O742 2.487 . S
Nd720 O743 2.682 . S
Nd720 O744 2.410 . S
Nd720 O749 2.414 . S
Nd720 O751 2.424 . S
Nd721 C731 2.836 . S
Nd721 O743 2.414 . S
Nd721 O745 2.424 . S
Nd721 O746 2.500 . S
Nd721 O747 2.492 . S
Nd721 O748 2.487 . S
Nd721 O749 2.682 . S
Nd721 O750 2.410 . S
C722 Nd720 2.836 . S
C722 C723 1.498 . S
C722 O740 1.258 . S
C722 O741 1.239 . S
C723 C722 1.498 . S
C723 C724 1.366 . S
C723 C728 1.407 . S
C724 C723 1.366 . S
C724 C725 1.392 . S
C724 H752 0.930 . S
C725 C724 1.392 . S
C725 C726 1.398 . S
C725 H753 0.929 . S
C726 C725 1.398 . S
C726 C727 1.352 . S
C727 C726 1.352 . S
C727 C728 1.384 . S
C727 H754 0.930 . S
C728 C723 1.407 . S
C728 C727 1.384 . S
C728 H755 0.929 . S
C729 O742 1.241 . S
C729 O743 1.273 . S
C730 O744 1.251 . S
C730 O745 1.268 . S
C731 Nd721 2.836 . S
C731 C732 1.498 1_545 S
C731 O746 1.258 . S
C731 O747 1.239 . S
C732 C731 1.498 1_565 S
C732 C733 1.366 . S
C732 C737 1.407 . S
C733 C732 1.366 . S
C733 C734 1.392 . S
C733 H756 0.930 . S
C734 C733 1.392 . S
C734 C735 1.398 . S
C734 H757 0.929 . S
C735 C734 1.398 . S
C735 C736 1.352 . S
C736 C735 1.352 . S
C736 C737 1.384 . S
C736 H758 0.930 . S
C737 C732 1.407 . S
C737 C736 1.384 . S
C737 H759 0.929 1_565 S
C738 O748 1.241 . S
C738 O749 1.273 . S
C739 O750 1.251 . S
C739 O751 1.268 . S
O740 Nd720 2.500 . S
O740 C722 1.258 . S
O741 Nd720 2.492 . S
O741 C722 1.239 . S
O742 Nd720 2.487 . S
O742 C729 1.241 . S
O743 Nd720 2.682 . S
O743 Nd721 2.414 . S
O743 C729 1.273 . S
O744 Nd720 2.410 . S
O744 C730 1.251 . S
O745 Nd721 2.424 . S
O745 C730 1.268 . S
O746 Nd721 2.500 . S
O746 C731 1.258 . S
O747 Nd721 2.492 . S
O747 C731 1.239 . S
O748 Nd721 2.487 . S
O748 C738 1.241 . S
O749 Nd720 2.414 . S
O749 Nd721 2.682 . S
O749 C738 1.273 . S
O750 Nd721 2.410 . S
O750 C739 1.251 . S
O751 Nd720 2.424 . S
O751 C739 1.268 . S
H752 C724 0.930 . S
H753 C725 0.929 . S
H754 C727 0.930 . S
H755 C728 0.929 . S
H756 C733 0.930 . S
H757 C734 0.929 . S
H758 C736 0.930 . S
H759 C737 0.929 1_545 S
Nd760 C762 2.836 . S
Nd760 O780 2.500 . S
Nd760 O781 2.492 . S
Nd760 O782 2.487 . S
Nd760 O783 2.682 . S
Nd760 O784 2.410 . S
Nd760 O789 2.414 . S
Nd760 O791 2.424 . S
Nd761 C771 2.836 . S
Nd761 O783 2.414 . S
Nd761 O785 2.424 . S
Nd761 O786 2.500 . S
Nd761 O787 2.492 . S
Nd761 O788 2.487 . S
Nd761 O789 2.682 . S
Nd761 O790 2.410 . S
C762 Nd760 2.836 . S
C762 C763 1.498 . S
C762 O780 1.258 . S
C762 O781 1.239 . S
C763 C762 1.498 . S
C763 C764 1.366 . S
C763 C768 1.407 . S
C764 C763 1.366 . S
C764 C765 1.392 . S
C764 H792 0.930 . S
C765 C764 1.392 . S
C765 C766 1.398 . S
C765 H793 0.929 . S
C766 C765 1.398 . S
C766 C767 1.352 . S
C767 C766 1.352 . S
C767 C768 1.384 . S
C767 H794 0.930 . S
C768 C763 1.407 . S
C768 C767 1.384 . S
C768 H795 0.929 . S
C769 O782 1.241 . S
C769 O783 1.273 . S
C770 O784 1.251 . S
C770 O785 1.268 . S
C771 Nd761 2.836 . S
C771 C772 1.498 1_655 S
C771 O786 1.258 . S
C771 O787 1.239 . S
C772 C771 1.498 1_455 S
C772 C773 1.366 . S
C772 C777 1.407 . S
C773 C772 1.366 . S
C773 C774 1.392 . S
C773 H796 0.930 . S
C774 C773 1.392 . S
C774 C775 1.398 . S
C774 H797 0.929 . S
C775 C774 1.398 . S
C775 C776 1.352 . S
C776 C775 1.352 . S
C776 C777 1.384 . S
C776 H798 0.930 . S
C777 C772 1.407 . S
C777 C776 1.384 . S
C777 H799 0.929 1_455 S
C778 O788 1.241 . S
C778 O789 1.273 . S
C779 O790 1.251 . S
C779 O791 1.268 . S
O780 Nd760 2.500 . S
O780 C762 1.258 . S
O781 Nd760 2.492 . S
O781 C762 1.239 . S
O782 Nd760 2.487 . S
O782 C769 1.241 . S
O783 Nd760 2.682 . S
O783 Nd761 2.414 . S
O783 C769 1.273 . S
O784 Nd760 2.410 . S
O784 C770 1.251 . S
O785 Nd761 2.424 . S
O785 C770 1.268 . S
O786 Nd761 2.500 . S
O786 C771 1.258 . S
O787 Nd761 2.492 . S
O787 C771 1.239 . S
O788 Nd761 2.487 . S
O788 C778 1.241 . S
O789 Nd760 2.414 . S
O789 Nd761 2.682 . S
O789 C778 1.273 . S
O790 Nd761 2.410 . S
O790 C779 1.251 . S
O791 Nd760 2.424 . S
O791 C779 1.268 . S
H792 C764 0.930 . S
H793 C765 0.929 . S
H794 C767 0.930 . S
H795 C768 0.929 . S
H796 C773 0.930 . S
H797 C774 0.929 . S
H798 C776 0.930 . S
H799 C777 0.929 1_655 S
Nd800 C802 2.836 . S
Nd800 O820 2.500 . S
Nd800 O821 2.492 . S
Nd800 O822 2.487 . S
Nd800 O823 2.682 . S
Nd800 O824 2.410 . S
Nd800 O829 2.414 . S
Nd800 O831 2.424 . S
Nd801 C811 2.836 . S
Nd801 O823 2.414 . S
Nd801 O825 2.424 . S
Nd801 O826 2.500 . S
Nd801 O827 2.492 . S
Nd801 O828 2.487 . S
Nd801 O829 2.682 . S
Nd801 O830 2.410 . S
C802 Nd800 2.836 . S
C802 C803 1.498 . S
C802 O820 1.258 . S
C802 O821 1.239 . S
C803 C802 1.498 . S
C803 C804 1.366 . S
C803 C808 1.407 . S
C804 C803 1.366 . S
C804 C805 1.392 . S
C804 H832 0.930 . S
C805 C804 1.392 . S
C805 C806 1.398 . S
C805 H833 0.929 . S
C806 C805 1.398 . S
C806 C807 1.352 . S
C807 C806 1.352 . S
C807 C808 1.384 . S
C807 H834 0.930 . S
C808 C803 1.407 . S
C808 C807 1.384 . S
C808 H835 0.929 . S
C809 O822 1.241 . S
C809 O823 1.273 . S
C810 O824 1.251 . S
C810 O825 1.268 . S
C811 Nd801 2.836 . S
C811 C812 1.498 . S
C811 O826 1.258 . S
C811 O827 1.239 . S
C812 C811 1.498 . S
C812 C813 1.366 . S
C812 C817 1.407 . S
C813 C812 1.366 . S
C813 C814 1.392 . S
C813 H836 0.930 . S
C814 C813 1.392 . S
C814 C815 1.398 . S
C814 H837 0.929 . S
C815 C814 1.398 . S
C815 C816 1.352 . S
C816 C815 1.352 . S
C816 C817 1.384 . S
C816 H838 0.930 . S
C817 C812 1.407 . S
C817 C816 1.384 . S
C817 H839 0.929 . S
C818 O828 1.241 . S
C818 O829 1.273 . S
C819 O830 1.251 . S
C819 O831 1.268 . S
O820 Nd800 2.500 . S
O820 C802 1.258 . S
O821 Nd800 2.492 . S
O821 C802 1.239 . S
O822 Nd800 2.487 . S
O822 C809 1.241 . S
O823 Nd800 2.682 . S
O823 Nd801 2.414 . S
O823 C809 1.273 . S
O824 Nd800 2.410 . S
O824 C810 1.251 . S
O825 Nd801 2.424 . S
O825 C810 1.268 . S
O826 Nd801 2.500 . S
O826 C811 1.258 . S
O827 Nd801 2.492 . S
O827 C811 1.239 . S
O828 Nd801 2.487 . S
O828 C818 1.241 . S
O829 Nd800 2.414 . S
O829 Nd801 2.682 . S
O829 C818 1.273 . S
O830 Nd801 2.410 . S
O830 C819 1.251 . S
O831 Nd800 2.424 . S
O831 C819 1.268 . S
H832 C804 0.930 . S
H833 C805 0.929 . S
H834 C807 0.930 . S
H835 C808 0.929 . S
H836 C813 0.930 . S
H837 C814 0.929 . S
H838 C816 0.930 . S
H839 C817 0.929 . S
Nd840 C842 2.836 . S
Nd840 O860 2.500 . S
Nd840 O861 2.492 . S
Nd840 O862 2.487 . S
Nd840 O863 2.682 1_556 S
Nd840 O864 2.410 . S
Nd840 O869 2.414 . S
Nd840 O871 2.424 . S
Nd841 C851 2.836 . S
Nd841 O863 2.414 . S
Nd841 O865 2.424 . S
Nd841 O866 2.500 . S
Nd841 O867 2.492 . S
Nd841 O868 2.487 . S
Nd841 O869 2.682 1_554 S
Nd841 O870 2.410 . S
C842 Nd840 2.836 . S
C842 C843 1.498 . S
C842 O860 1.258 . S
C842 O861 1.239 . S
C843 C842 1.498 . S
C843 C844 1.366 . S
C843 C848 1.407 . S
C844 C843 1.366 . S
C844 C845 1.392 . S
C844 H872 0.930 . S
C845 C844 1.392 . S
C845 C846 1.398 . S
C845 H873 0.929 . S
C846 C845 1.398 . S
C846 C847 1.352 . S
C847 C846 1.352 . S
C847 C848 1.384 . S
C847 H874 0.930 . S
C848 C843 1.407 . S
C848 C847 1.384 . S
C848 H875 0.929 . S
C849 O862 1.241 . S
C849 O863 1.273 1_556 S
C850 O864 1.251 . S
C850 O865 1.268 1_556 S
C851 Nd841 2.836 . S
C851 C852 1.498 . S
C851 O866 1.258 . S
C851 O867 1.239 . S
C852 C851 1.498 . S
C852 C853 1.366 . S
C852 C857 1.407 . S
C853 C852 1.366 . S
C853 C854 1.392 . S
C853 H876 0.930 . S
C854 C853 1.392 . S
C854 C855 1.398 . S
C854 H877 0.929 . S
C855 C854 1.398 . S
C855 C856 1.352 . S
C856 C855 1.352 . S
C856 C857 1.384 . S
C856 H878 0.930 . S
C857 C852 1.407 . S
C857 C856 1.384 . S
C857 H879 0.929 . S
C858 O868 1.241 . S
C858 O869 1.273 1_554 S
C859 O870 1.251 . S
C859 O871 1.268 1_554 S
O860 Nd840 2.500 . S
O860 C842 1.258 . S
O861 Nd840 2.492 . S
O861 C842 1.239 . S
O862 Nd840 2.487 . S
O862 C849 1.241 . S
O863 Nd840 2.682 1_554 S
O863 Nd841 2.414 . S
O863 C849 1.273 1_554 S
O864 Nd840 2.410 . S
O864 C850 1.251 . S
O865 Nd841 2.424 . S
O865 C850 1.268 1_554 S
O866 Nd841 2.500 . S
O866 C851 1.258 . S
O867 Nd841 2.492 . S
O867 C851 1.239 . S
O868 Nd841 2.487 . S
O868 C858 1.241 . S
O869 Nd840 2.414 . S
O869 Nd841 2.682 1_556 S
O869 C858 1.273 1_556 S
O870 Nd841 2.410 . S
O870 C859 1.251 . S
O871 Nd840 2.424 . S
O871 C859 1.268 1_556 S
H872 C844 0.930 . S
H873 C845 0.929 . S
H874 C847 0.930 . S
H875 C848 0.929 . S
H876 C853 0.930 . S
H877 C854 0.929 . S
H878 C856 0.930 . S
H879 C857 0.929 . S
Nd880 C882 2.836 . S
Nd880 O900 2.500 . S
Nd880 O901 2.492 . S
Nd880 O902 2.487 . S
Nd880 O903 2.682 1_556 S
Nd880 O904 2.410 . S
Nd880 O909 2.414 . S
Nd880 O911 2.424 . S
Nd881 C891 2.836 . S
Nd881 O903 2.414 . S
Nd881 O905 2.424 . S
Nd881 O906 2.500 . S
Nd881 O907 2.492 . S
Nd881 O908 2.487 . S
Nd881 O909 2.682 1_554 S
Nd881 O910 2.410 . S
C882 Nd880 2.836 . S
C882 C883 1.498 . S
C882 O900 1.258 . S
C882 O901 1.239 . S
C883 C882 1.498 . S
C883 C884 1.366 . S
C883 C888 1.407 . S
C884 C883 1.366 . S
C884 C885 1.392 . S
C884 H912 0.930 . S
C885 C884 1.392 . S
C885 C886 1.398 . S
C885 H913 0.929 . S
C886 C885 1.398 . S
C886 C887 1.352 . S
C887 C886 1.352 . S
C887 C888 1.384 . S
C887 H914 0.930 . S
C888 C883 1.407 . S
C888 C887 1.384 . S
C888 H915 0.929 . S
C889 O902 1.241 . S
C889 O903 1.273 1_556 S
C890 O904 1.251 . S
C890 O905 1.268 1_556 S
C891 Nd881 2.836 . S
C891 C892 1.498 . S
C891 O906 1.258 . S
C891 O907 1.239 . S
C892 C891 1.498 . S
C892 C893 1.366 . S
C892 C897 1.407 . S
C893 C892 1.366 . S
C893 C894 1.392 . S
C893 H916 0.930 . S
C894 C893 1.392 . S
C894 C895 1.398 . S
C894 H917 0.929 . S
C895 C894 1.398 . S
C895 C896 1.352 . S
C896 C895 1.352 . S
C896 C897 1.384 . S
C896 H918 0.930 . S
C897 C892 1.407 . S
C897 C896 1.384 . S
C897 H919 0.929 . S
C898 O908 1.241 . S
C898 O909 1.273 1_554 S
C899 O910 1.251 . S
C899 O911 1.268 1_554 S
O900 Nd880 2.500 . S
O900 C882 1.258 . S
O901 Nd880 2.492 . S
O901 C882 1.239 . S
O902 Nd880 2.487 . S
O902 C889 1.241 . S
O903 Nd880 2.682 1_554 S
O903 Nd881 2.414 . S
O903 C889 1.273 1_554 S
O904 Nd880 2.410 . S
O904 C890 1.251 . S
O905 Nd881 2.424 . S
O905 C890 1.268 1_554 S
O906 Nd881 2.500 . S
O906 C891 1.258 . S
O907 Nd881 2.492 . S
O907 C891 1.239 . S
O908 Nd881 2.487 . S
O908 C898 1.241 . S
O909 Nd880 2.414 . S
O909 Nd881 2.682 1_556 S
O909 C898 1.273 1_556 S
O910 Nd881 2.410 . S
O910 C899 1.251 . S
O911 Nd880 2.424 . S
O911 C899 1.268 1_556 S
H912 C884 0.930 . S
H913 C885 0.929 . S
H914 C887 0.930 . S
H915 C888 0.929 . S
H916 C893 0.930 . S
H917 C894 0.929 . S
H918 C896 0.930 . S
H919 C897 0.929 . S
Nd920 C922 2.836 . S
Nd920 O940 2.500 . S
Nd920 O941 2.492 . S
Nd920 O942 2.487 . S
Nd920 O943 2.682 1_556 S
Nd920 O944 2.410 . S
Nd920 O949 2.414 . S
Nd920 O951 2.424 . S
Nd921 C931 2.836 . S
Nd921 O943 2.414 . S
Nd921 O945 2.424 . S
Nd921 O946 2.500 . S
Nd921 O947 2.492 . S
Nd921 O948 2.487 . S
Nd921 O949 2.682 1_554 S
Nd921 O950 2.410 . S
C922 Nd920 2.836 . S
C922 C923 1.498 . S
C922 O940 1.258 . S
C922 O941 1.239 . S
C923 C922 1.498 . S
C923 C924 1.366 . S
C923 C928 1.407 . S
C924 C923 1.366 . S
C924 C925 1.392 . S
C924 H952 0.930 . S
C925 C924 1.392 . S
C925 C926 1.398 . S
C925 H953 0.929 . S
C926 C925 1.398 . S
C926 C927 1.352 . S
C927 C926 1.352 . S
C927 C928 1.384 . S
C927 H954 0.930 . S
C928 C923 1.407 . S
C928 C927 1.384 . S
C928 H955 0.929 . S
C929 O942 1.241 . S
C929 O943 1.273 1_556 S
C930 O944 1.251 . S
C930 O945 1.268 1_556 S
C931 Nd921 2.836 . S
C931 C932 1.498 . S
C931 O946 1.258 . S
C931 O947 1.239 . S
C932 C931 1.498 . S
C932 C933 1.366 . S
C932 C937 1.407 . S
C933 C932 1.366 . S
C933 C934 1.392 . S
C933 H956 0.930 . S
C934 C933 1.392 . S
C934 C935 1.398 . S
C934 H957 0.929 . S
C935 C934 1.398 . S
C935 C936 1.352 . S
C936 C935 1.352 . S
C936 C937 1.384 . S
C936 H958 0.930 . S
C937 C932 1.407 . S
C937 C936 1.384 . S
C937 H959 0.929 . S
C938 O948 1.241 . S
C938 O949 1.273 1_554 S
C939 O950 1.251 . S
C939 O951 1.268 1_554 S
O940 Nd920 2.500 . S
O940 C922 1.258 . S
O941 Nd920 2.492 . S
O941 C922 1.239 . S
O942 Nd920 2.487 . S
O942 C929 1.241 . S
O943 Nd920 2.682 1_554 S
O943 Nd921 2.414 . S
O943 C929 1.273 1_554 S
O944 Nd920 2.410 . S
O944 C930 1.251 . S
O945 Nd921 2.424 . S
O945 C930 1.268 1_554 S
O946 Nd921 2.500 . S
O946 C931 1.258 . S
O947 Nd921 2.492 . S
O947 C931 1.239 . S
O948 Nd921 2.487 . S
O948 C938 1.241 . S
O949 Nd920 2.414 . S
O949 Nd921 2.682 1_556 S
O949 C938 1.273 1_556 S
O950 Nd921 2.410 . S
O950 C939 1.251 . S
O951 Nd920 2.424 . S
O951 C939 1.268 1_556 S
H952 C924 0.930 . S
H953 C925 0.929 . S
H954 C927 0.930 . S
H955 C928 0.929 . S
H956 C933 0.930 . S
H957 C934 0.929 . S
H958 C936 0.930 . S
H959 C937 0.929 . S
Nd960 C962 2.836 . S
Nd960 O980 2.500 . S
Nd960 O981 2.492 . S
Nd960 O982 2.487 . S
Nd960 O983 2.682 . S
Nd960 O984 2.410 . S
Nd960 O989 2.414 . S
Nd960 O991 2.424 . S
Nd961 C971 2.836 . S
Nd961 O983 2.414 . S
Nd961 O985 2.424 . S
Nd961 O986 2.500 . S
Nd961 O987 2.492 . S
Nd961 O988 2.487 . S
Nd961 O989 2.682 . S
Nd961 O990 2.410 . S
C962 Nd960 2.836 . S
C962 C963 1.498 1_565 S
C962 O980 1.258 . S
C962 O981 1.239 . S
C963 C962 1.498 1_545 S
C963 C964 1.366 . S
C963 C968 1.407 . S
C964 C963 1.366 . S
C964 C965 1.392 . S
C964 H992 0.930 . S
C965 C964 1.392 . S
C965 C966 1.398 . S
C965 H993 0.929 . S
C966 C965 1.398 . S
C966 C967 1.352 . S
C967 C966 1.352 . S
C967 C968 1.384 . S
C967 H994 0.930 . S
C968 C963 1.407 . S
C968 C967 1.384 . S
C968 H995 0.929 1_545 S
C969 O982 1.241 . S
C969 O983 1.273 . S
C970 O984 1.251 . S
C970 O985 1.268 . S
C971 Nd961 2.836 . S
C971 C972 1.498 . S
C971 O986 1.258 . S
C971 O987 1.239 . S
C972 C971 1.498 . S
C972 C973 1.366 . S
C972 C977 1.407 . S
C973 C972 1.366 . S
C973 C974 1.392 . S
C973 H996 0.930 . S
C974 C973 1.392 . S
C974 C975 1.398 . S
C974 H997 0.929 . S
C975 C974 1.398 . S
C975 C976 1.352 . S
C976 C975 1.352 . S
C976 C977 1.384 . S
C976 H998 0.930 . S
C977 C972 1.407 . S
C977 C976 1.384 . S
C977 H999 0.929 . S
C978 O988 1.241 . S
C978 O989 1.273 . S
C979 O990 1.251 . S
C979 O991 1.268 . S
O980 Nd960 2.500 . S
O980 C962 1.258 . S
O981 Nd960 2.492 . S
O981 C962 1.239 . S
O982 Nd960 2.487 . S
O982 C969 1.241 . S
O983 Nd960 2.682 . S
O983 Nd961 2.414 . S
O983 C969 1.273 . S
O984 Nd960 2.410 . S
O984 C970 1.251 . S
O985 Nd961 2.424 . S
O985 C970 1.268 . S
O986 Nd961 2.500 . S
O986 C971 1.258 . S
O987 Nd961 2.492 . S
O987 C971 1.239 . S
O988 Nd961 2.487 . S
O988 C978 1.241 . S
O989 Nd960 2.414 . S
O989 Nd961 2.682 . S
O989 C978 1.273 . S
O990 Nd961 2.410 . S
O990 C979 1.251 . S
O991 Nd960 2.424 . S
O991 C979 1.268 . S
H992 C964 0.930 . S
H993 C965 0.929 . S
H994 C967 0.930 . S
H995 C968 0.929 1_565 S
H996 C973 0.930 . S
H997 C974 0.929 . S
H998 C976 0.930 . S
H999 C977 0.929 . S
Nd1000 C1002 2.836 . S
Nd1000 O1020 2.500 . S
Nd1000 O1021 2.492 . S
Nd1000 O1022 2.487 . S
Nd1000 O1023 2.682 . S
Nd1000 O1024 2.410 . S
Nd1000 O1029 2.414 . S
Nd1000 O1031 2.424 . S
Nd1001 C1011 2.836 . S
Nd1001 O1023 2.414 . S
Nd1001 O1025 2.424 . S
Nd1001 O1026 2.500 . S
Nd1001 O1027 2.492 . S
Nd1001 O1028 2.487 . S
Nd1001 O1029 2.682 . S
Nd1001 O1030 2.410 . S
C1002 Nd1000 2.836 . S
C1002 C1003 1.498 1_455 S
C1002 O1020 1.258 . S
C1002 O1021 1.239 . S
C1003 C1002 1.498 1_655 S
C1003 C1004 1.366 . S
C1003 C1008 1.407 . S
C1004 C1003 1.366 . S
C1004 C1005 1.392 . S
C1004 H1032 0.930 . S
C1005 C1004 1.392 . S
C1005 C1006 1.398 . S
C1005 H1033 0.929 . S
C1006 C1005 1.398 . S
C1006 C1007 1.352 . S
C1007 C1006 1.352 . S
C1007 C1008 1.384 . S
C1007 H1034 0.930 . S
C1008 C1003 1.407 . S
C1008 C1007 1.384 . S
C1008 H1035 0.929 1_655 S
C1009 O1022 1.241 . S
C1009 O1023 1.273 . S
C1010 O1024 1.251 . S
C1010 O1025 1.268 . S
C1011 Nd1001 2.836 . S
C1011 C1012 1.498 . S
C1011 O1026 1.258 . S
C1011 O1027 1.239 . S
C1012 C1011 1.498 . S
C1012 C1013 1.366 . S
C1012 C1017 1.407 . S
C1013 C1012 1.366 . S
C1013 C1014 1.392 . S
C1013 H1036 0.930 . S
C1014 C1013 1.392 . S
C1014 C1015 1.398 . S
C1014 H1037 0.929 . S
C1015 C1014 1.398 . S
C1015 C1016 1.352 . S
C1016 C1015 1.352 . S
C1016 C1017 1.384 . S
C1016 H1038 0.930 . S
C1017 C1012 1.407 . S
C1017 C1016 1.384 . S
C1017 H1039 0.929 . S
C1018 O1028 1.241 . S
C1018 O1029 1.273 . S
C1019 O1030 1.251 . S
C1019 O1031 1.268 . S
O1020 Nd1000 2.500 . S
O1020 C1002 1.258 . S
O1021 Nd1000 2.492 . S
O1021 C1002 1.239 . S
O1022 Nd1000 2.487 . S
O1022 C1009 1.241 . S
O1023 Nd1000 2.682 . S
O1023 Nd1001 2.414 . S
O1023 C1009 1.273 . S
O1024 Nd1000 2.410 . S
O1024 C1010 1.251 . S
O1025 Nd1001 2.424 . S
O1025 C1010 1.268 . S
O1026 Nd1001 2.500 . S
O1026 C1011 1.258 . S
O1027 Nd1001 2.492 . S
O1027 C1011 1.239 . S
O1028 Nd1001 2.487 . S
O1028 C1018 1.241 . S
O1029 Nd1000 2.414 . S
O1029 Nd1001 2.682 . S
O1029 C1018 1.273 . S
O1030 Nd1001 2.410 . S
O1030 C1019 1.251 . S
O1031 Nd1000 2.424 . S
O1031 C1019 1.268 . S
H1032 C1004 0.930 . S
H1033 C1005 0.929 . S
H1034 C1007 0.930 . S
H1035 C1008 0.929 1_455 S
H1036 C1013 0.930 . S
H1037 C1014 0.929 . S
H1038 C1016 0.930 . S
H1039 C1017 0.929 . S
Nd1040 C1042 2.836 . S
Nd1040 O1060 2.500 . S
Nd1040 O1061 2.492 . S
Nd1040 O1062 2.487 . S
Nd1040 O1063 2.682 . S
Nd1040 O1064 2.410 . S
Nd1040 O1069 2.414 . S
Nd1040 O1071 2.424 . S
Nd1041 C1051 2.836 . S
Nd1041 O1063 2.414 . S
Nd1041 O1065 2.424 . S
Nd1041 O1066 2.500 . S
Nd1041 O1067 2.492 . S
Nd1041 O1068 2.487 . S
Nd1041 O1069 2.682 . S
Nd1041 O1070 2.410 . S
C1042 Nd1040 2.836 . S
C1042 C1043 1.498 . S
C1042 O1060 1.258 . S
C1042 O1061 1.239 . S
C1043 C1042 1.498 . S
C1043 C1044 1.366 . S
C1043 C1048 1.407 . S
C1044 C1043 1.366 . S
C1044 C1045 1.392 . S
C1044 H1072 0.930 . S
C1045 C1044 1.392 . S
C1045 C1046 1.398 . S
C1045 H1073 0.929 . S
C1046 C1045 1.398 . S
C1046 C1047 1.352 . S
C1047 C1046 1.352 . S
C1047 C1048 1.384 . S
C1047 H1074 0.930 . S
C1048 C1043 1.407 . S
C1048 C1047 1.384 . S
C1048 H1075 0.929 . S
C1049 O1062 1.241 . S
C1049 O1063 1.273 . S
C1050 O1064 1.251 . S
C1050 O1065 1.268 . S
C1051 Nd1041 2.836 . S
C1051 C1052 1.498 . S
C1051 O1066 1.258 . S
C1051 O1067 1.239 . S
C1052 C1051 1.498 . S
C1052 C1053 1.366 . S
C1052 C1057 1.407 . S
C1053 C1052 1.366 . S
C1053 C1054 1.392 . S
C1053 H1076 0.930 . S
C1054 C1053 1.392 . S
C1054 C1055 1.398 . S
C1054 H1077 0.929 . S
C1055 C1054 1.398 . S
C1055 C1056 1.352 . S
C1056 C1055 1.352 . S
C1056 C1057 1.384 . S
C1056 H1078 0.930 . S
C1057 C1052 1.407 . S
C1057 C1056 1.384 . S
C1057 H1079 0.929 . S
C1058 O1068 1.241 . S
C1058 O1069 1.273 . S
C1059 O1070 1.251 . S
C1059 O1071 1.268 . S
O1060 Nd1040 2.500 . S
O1060 C1042 1.258 . S
O1061 Nd1040 2.492 . S
O1061 C1042 1.239 . S
O1062 Nd1040 2.487 . S
O1062 C1049 1.241 . S
O1063 Nd1040 2.682 . S
O1063 Nd1041 2.414 . S
O1063 C1049 1.273 . S
O1064 Nd1040 2.410 . S
O1064 C1050 1.251 . S
O1065 Nd1041 2.424 . S
O1065 C1050 1.268 . S
O1066 Nd1041 2.500 . S
O1066 C1051 1.258 . S
O1067 Nd1041 2.492 . S
O1067 C1051 1.239 . S
O1068 Nd1041 2.487 . S
O1068 C1058 1.241 . S
O1069 Nd1040 2.414 . S
O1069 Nd1041 2.682 . S
O1069 C1058 1.273 . S
O1070 Nd1041 2.410 . S
O1070 C1059 1.251 . S
O1071 Nd1040 2.424 . S
O1071 C1059 1.268 . S
H1072 C1044 0.930 . S
H1073 C1045 0.929 . S
H1074 C1047 0.930 . S
H1075 C1048 0.929 . S
H1076 C1053 0.930 . S
H1077 C1054 0.929 . S
H1078 C1056 0.930 . S
H1079 C1057 0.929 . S
Nd1080 C1082 2.836 . S
Nd1080 O1100 2.500 . S
Nd1080 O1101 2.492 . S
Nd1080 O1102 2.487 . S
Nd1080 O1103 2.682 1_556 S
Nd1080 O1104 2.410 . S
Nd1080 O1109 2.414 . S
Nd1080 O1111 2.424 . S
Nd1081 C1091 2.836 . S
Nd1081 O1103 2.414 . S
Nd1081 O1105 2.424 . S
Nd1081 O1106 2.500 . S
Nd1081 O1107 2.492 . S
Nd1081 O1108 2.487 . S
Nd1081 O1109 2.682 1_554 S
Nd1081 O1110 2.410 . S
C1082 Nd1080 2.836 . S
C1082 C1083 1.498 . S
C1082 O1100 1.258 . S
C1082 O1101 1.239 . S
C1083 C1082 1.498 . S
C1083 C1084 1.366 . S
C1083 C1088 1.407 . S
C1084 C1083 1.366 . S
C1084 C1085 1.392 . S
C1084 H1112 0.930 . S
C1085 C1084 1.392 . S
C1085 C1086 1.398 . S
C1085 H1113 0.929 . S
C1086 C1085 1.398 . S
C1086 C1087 1.352 . S
C1087 C1086 1.352 . S
C1087 C1088 1.384 . S
C1087 H1114 0.930 . S
C1088 C1083 1.407 . S
C1088 C1087 1.384 . S
C1088 H1115 0.929 . S
C1089 O1102 1.241 . S
C1089 O1103 1.273 1_556 S
C1090 O1104 1.251 . S
C1090 O1105 1.268 1_556 S
C1091 Nd1081 2.836 . S
C1091 C1092 1.498 . S
C1091 O1106 1.258 . S
C1091 O1107 1.239 . S
C1092 C1091 1.498 . S
C1092 C1093 1.366 . S
C1092 C1097 1.407 . S
C1093 C1092 1.366 . S
C1093 C1094 1.392 . S
C1093 H1116 0.930 . S
C1094 C1093 1.392 . S
C1094 C1095 1.398 . S
C1094 H1117 0.929 . S
C1095 C1094 1.398 . S
C1095 C1096 1.352 . S
C1096 C1095 1.352 . S
C1096 C1097 1.384 . S
C1096 H1118 0.930 . S
C1097 C1092 1.407 . S
C1097 C1096 1.384 . S
C1097 H1119 0.929 . S
C1098 O1108 1.241 . S
C1098 O1109 1.273 1_554 S
C1099 O1110 1.251 . S
C1099 O1111 1.268 1_554 S
O1100 Nd1080 2.500 . S
O1100 C1082 1.258 . S
O1101 Nd1080 2.492 . S
O1101 C1082 1.239 . S
O1102 Nd1080 2.487 . S
O1102 C1089 1.241 . S
O1103 Nd1080 2.682 1_554 S
O1103 Nd1081 2.414 . S
O1103 C1089 1.273 1_554 S
O1104 Nd1080 2.410 . S
O1104 C1090 1.251 . S
O1105 Nd1081 2.424 . S
O1105 C1090 1.268 1_554 S
O1106 Nd1081 2.500 . S
O1106 C1091 1.258 . S
O1107 Nd1081 2.492 . S
O1107 C1091 1.239 . S
O1108 Nd1081 2.487 . S
O1108 C1098 1.241 . S
O1109 Nd1080 2.414 . S
O1109 Nd1081 2.682 1_556 S
O1109 C1098 1.273 1_556 S
O1110 Nd1081 2.410 . S
O1110 C1099 1.251 . S
O1111 Nd1080 2.424 . S
O1111 C1099 1.268 1_556 S
H1112 C1084 0.930 . S
H1113 C1085 0.929 . S
H1114 C1087 0.930 . S
H1115 C1088 0.929 . S
H1116 C1093 0.930 . S
H1117 C1094 0.929 . S
H1118 C1096 0.930 . S
H1119 C1097 0.929 . S
Nd1120 C1122 2.836 . S
Nd1120 O1140 2.500 . S
Nd1120 O1141 2.492 . S
Nd1120 O1142 2.487 . S
Nd1120 O1143 2.682 1_556 S
Nd1120 O1144 2.410 . S
Nd1120 O1149 2.414 . S
Nd1120 O1151 2.424 . S
Nd1121 C1131 2.836 . S
Nd1121 O1143 2.414 . S
Nd1121 O1145 2.424 . S
Nd1121 O1146 2.500 . S
Nd1121 O1147 2.492 . S
Nd1121 O1148 2.487 . S
Nd1121 O1149 2.682 1_554 S
Nd1121 O1150 2.410 . S
C1122 Nd1120 2.836 . S
C1122 C1123 1.498 . S
C1122 O1140 1.258 . S
C1122 O1141 1.239 . S
C1123 C1122 1.498 . S
C1123 C1124 1.366 . S
C1123 C1128 1.407 . S
C1124 C1123 1.366 . S
C1124 C1125 1.392 . S
C1124 H1152 0.930 . S
C1125 C1124 1.392 . S
C1125 C1126 1.398 . S
C1125 H1153 0.929 . S
C1126 C1125 1.398 . S
C1126 C1127 1.352 . S
C1127 C1126 1.352 . S
C1127 C1128 1.384 . S
C1127 H1154 0.930 . S
C1128 C1123 1.407 . S
C1128 C1127 1.384 . S
C1128 H1155 0.929 . S
C1129 O1142 1.241 . S
C1129 O1143 1.273 1_556 S
C1130 O1144 1.251 . S
C1130 O1145 1.268 1_556 S
C1131 Nd1121 2.836 . S
C1131 C1132 1.498 . S
C1131 O1146 1.258 . S
C1131 O1147 1.239 . S
C1132 C1131 1.498 . S
C1132 C1133 1.366 . S
C1132 C1137 1.407 . S
C1133 C1132 1.366 . S
C1133 C1134 1.392 . S
C1133 H1156 0.930 . S
C1134 C1133 1.392 . S
C1134 C1135 1.398 . S
C1134 H1157 0.929 . S
C1135 C1134 1.398 . S
C1135 C1136 1.352 . S
C1136 C1135 1.352 . S
C1136 C1137 1.384 . S
C1136 H1158 0.930 . S
C1137 C1132 1.407 . S
C1137 C1136 1.384 . S
C1137 H1159 0.929 . S
C1138 O1148 1.241 . S
C1138 O1149 1.273 1_554 S
C1139 O1150 1.251 . S
C1139 O1151 1.268 1_554 S
O1140 Nd1120 2.500 . S
O1140 C1122 1.258 . S
O1141 Nd1120 2.492 . S
O1141 C1122 1.239 . S
O1142 Nd1120 2.487 . S
O1142 C1129 1.241 . S
O1143 Nd1120 2.682 1_554 S
O1143 Nd1121 2.414 . S
O1143 C1129 1.273 1_554 S
O1144 Nd1120 2.410 . S
O1144 C1130 1.251 . S
O1145 Nd1121 2.424 . S
O1145 C1130 1.268 1_554 S
O1146 Nd1121 2.500 . S
O1146 C1131 1.258 . S
O1147 Nd1121 2.492 . S
O1147 C1131 1.239 . S
O1148 Nd1121 2.487 . S
O1148 C1138 1.241 . S
O1149 Nd1120 2.414 . S
O1149 Nd1121 2.682 1_556 S
O1149 C1138 1.273 1_556 S
O1150 Nd1121 2.410 . S
O1150 C1139 1.251 . S
O1151 Nd1120 2.424 . S
O1151 C1139 1.268 1_556 S
H1152 C1124 0.930 . S
H1153 C1125 0.929 . S
H1154 C1127 0.930 . S
H1155 C1128 0.929 . S
H1156 C1133 0.930 . S
H1157 C1134 0.929 . S
H1158 C1136 0.930 . S
H1159 C1137 0.929 . S
Nd1160 C1162 2.836 . S
Nd1160 O1180 2.500 . S
Nd1160 O1181 2.492 . S
Nd1160 O1182 2.487 . S
Nd1160 O1183 2.682 1_556 S
Nd1160 O1184 2.410 . S
Nd1160 O1189 2.414 . S
Nd1160 O1191 2.424 . S
Nd1161 C1171 2.836 . S
Nd1161 O1183 2.414 . S
Nd1161 O1185 2.424 . S
Nd1161 O1186 2.500 . S
Nd1161 O1187 2.492 . S
Nd1161 O1188 2.487 . S
Nd1161 O1189 2.682 1_554 S
Nd1161 O1190 2.410 . S
C1162 Nd1160 2.836 . S
C1162 C1163 1.498 . S
C1162 O1180 1.258 . S
C1162 O1181 1.239 . S
C1163 C1162 1.498 . S
C1163 C1164 1.366 . S
C1163 C1168 1.407 . S
C1164 C1163 1.366 . S
C1164 C1165 1.392 . S
C1164 H1192 0.930 . S
C1165 C1164 1.392 . S
C1165 C1166 1.398 . S
C1165 H1193 0.929 . S
C1166 C1165 1.398 . S
C1166 C1167 1.352 . S
C1167 C1166 1.352 . S
C1167 C1168 1.384 . S
C1167 H1194 0.930 . S
C1168 C1163 1.407 . S
C1168 C1167 1.384 . S
C1168 H1195 0.929 . S
C1169 O1182 1.241 . S
C1169 O1183 1.273 1_556 S
C1170 O1184 1.251 . S
C1170 O1185 1.268 1_556 S
C1171 Nd1161 2.836 . S
C1171 C1172 1.498 . S
C1171 O1186 1.258 . S
C1171 O1187 1.239 . S
C1172 C1171 1.498 . S
C1172 C1173 1.366 . S
C1172 C1177 1.407 . S
C1173 C1172 1.366 . S
C1173 C1174 1.392 . S
C1173 H1196 0.930 . S
C1174 C1173 1.392 . S
C1174 C1175 1.398 . S
C1174 H1197 0.929 . S
C1175 C1174 1.398 . S
C1175 C1176 1.352 . S
C1176 C1175 1.352 . S
C1176 C1177 1.384 . S
C1176 H1198 0.930 . S
C1177 C1172 1.407 . S
C1177 C1176 1.384 . S
C1177 H1199 0.929 . S
C1178 O1188 1.241 . S
C1178 O1189 1.273 1_554 S
C1179 O1190 1.251 . S
C1179 O1191 1.268 1_554 S
O1180 Nd1160 2.500 . S
O1180 C1162 1.258 . S
O1181 Nd1160 2.492 . S
O1181 C1162 1.239 . S
O1182 Nd1160 2.487 . S
O1182 C1169 1.241 . S
O1183 Nd1160 2.682 1_554 S
O1183 Nd1161 2.414 . S
O1183 C1169 1.273 1_554 S
O1184 Nd1160 2.410 . S
O1184 C1170 1.251 . S
O1185 Nd1161 2.424 . S
O1185 C1170 1.268 1_554 S
O1186 Nd1161 2.500 . S
O1186 C1171 1.258 . S
O1187 Nd1161 2.492 . S
O1187 C1171 1.239 . S
O1188 Nd1161 2.487 . S
O1188 C1178 1.241 . S
O1189 Nd1160 2.414 . S
O1189 Nd1161 2.682 1_556 S
O1189 C1178 1.273 1_556 S
O1190 Nd1161 2.410 . S
O1190 C1179 1.251 . S
O1191 Nd1160 2.424 . S
O1191 C1179 1.268 1_556 S
H1192 C1164 0.930 . S
H1193 C1165 0.929 . S
H1194 C1167 0.930 . S
H1195 C1168 0.929 . S
H1196 C1173 0.930 . S
H1197 C1174 0.929 . S
H1198 C1176 0.930 . S
H1199 C1177 0.929 . S
Nd1200 C1202 2.836 . S
Nd1200 O1220 2.500 . S
Nd1200 O1221 2.492 . S
Nd1200 O1222 2.487 . S
Nd1200 O1223 2.682 . S
Nd1200 O1224 2.410 . S
Nd1200 O1229 2.414 . S
Nd1200 O1231 2.424 . S
Nd1201 C1211 2.836 . S
Nd1201 O1223 2.414 . S
Nd1201 O1225 2.424 . S
Nd1201 O1226 2.500 . S
Nd1201 O1227 2.492 . S
Nd1201 O1228 2.487 . S
Nd1201 O1229 2.682 . S
Nd1201 O1230 2.410 . S
C1202 Nd1200 2.836 . S
C1202 C1203 1.498 . S
C1202 O1220 1.258 . S
C1202 O1221 1.239 . S
C1203 C1202 1.498 . S
C1203 C1204 1.366 . S
C1203 C1208 1.407 . S
C1204 C1203 1.366 . S
C1204 C1205 1.392 . S
C1204 H1232 0.930 . S
C1205 C1204 1.392 . S
C1205 C1206 1.398 . S
C1205 H1233 0.929 . S
C1206 C1205 1.398 . S
C1206 C1207 1.352 . S
C1207 C1206 1.352 . S
C1207 C1208 1.384 . S
C1207 H1234 0.930 . S
C1208 C1203 1.407 . S
C1208 C1207 1.384 . S
C1208 H1235 0.929 . S
C1209 O1222 1.241 . S
C1209 O1223 1.273 . S
C1210 O1224 1.251 . S
C1210 O1225 1.268 . S
C1211 Nd1201 2.836 . S
C1211 C1212 1.498 . S
C1211 O1226 1.258 . S
C1211 O1227 1.239 . S
C1212 C1211 1.498 . S
C1212 C1213 1.366 . S
C1212 C1217 1.407 . S
C1213 C1212 1.366 . S
C1213 C1214 1.392 . S
C1213 H1236 0.930 . S
C1214 C1213 1.392 . S
C1214 C1215 1.398 . S
C1214 H1237 0.929 . S
C1215 C1214 1.398 . S
C1215 C1216 1.352 . S
C1216 C1215 1.352 . S
C1216 C1217 1.384 . S
C1216 H1238 0.930 . S
C1217 C1212 1.407 . S
C1217 C1216 1.384 . S
C1217 H1239 0.929 . S
C1218 O1228 1.241 . S
C1218 O1229 1.273 . S
C1219 O1230 1.251 . S
C1219 O1231 1.268 . S
O1220 Nd1200 2.500 . S
O1220 C1202 1.258 . S
O1221 Nd1200 2.492 . S
O1221 C1202 1.239 . S
O1222 Nd1200 2.487 . S
O1222 C1209 1.241 . S
O1223 Nd1200 2.682 . S
O1223 Nd1201 2.414 . S
O1223 C1209 1.273 . S
O1224 Nd1200 2.410 . S
O1224 C1210 1.251 . S
O1225 Nd1201 2.424 . S
O1225 C1210 1.268 . S
O1226 Nd1201 2.500 . S
O1226 C1211 1.258 . S
O1227 Nd1201 2.492 . S
O1227 C1211 1.239 . S
O1228 Nd1201 2.487 . S
O1228 C1218 1.241 . S
O1229 Nd1200 2.414 . S
O1229 Nd1201 2.682 . S
O1229 C1218 1.273 . S
O1230 Nd1201 2.410 . S
O1230 C1219 1.251 . S
O1231 Nd1200 2.424 . S
O1231 C1219 1.268 . S
H1232 C1204 0.930 . S
H1233 C1205 0.929 . S
H1234 C1207 0.930 . S
H1235 C1208 0.929 . S
H1236 C1213 0.930 . S
H1237 C1214 0.929 . S
H1238 C1216 0.930 . S
H1239 C1217 0.929 . S
Nd1240 C1242 2.836 . S
Nd1240 O1260 2.500 . S
Nd1240 O1261 2.492 . S
Nd1240 O1262 2.487 . S
Nd1240 O1263 2.682 . S
Nd1240 O1264 2.410 . S
Nd1240 O1269 2.414 . S
Nd1240 O1271 2.424 . S
Nd1241 C1251 2.836 . S
Nd1241 O1263 2.414 . S
Nd1241 O1265 2.424 . S
Nd1241 O1266 2.500 . S
Nd1241 O1267 2.492 . S
Nd1241 O1268 2.487 . S
Nd1241 O1269 2.682 . S
Nd1241 O1270 2.410 . S
C1242 Nd1240 2.836 . S
C1242 C1243 1.498 . S
C1242 O1260 1.258 . S
C1242 O1261 1.239 . S
C1243 C1242 1.498 . S
C1243 C1244 1.366 . S
C1243 C1248 1.407 . S
C1244 C1243 1.366 . S
C1244 C1245 1.392 . S
C1244 H1272 0.930 . S
C1245 C1244 1.392 . S
C1245 C1246 1.398 . S
C1245 H1273 0.929 . S
C1246 C1245 1.398 . S
C1246 C1247 1.352 . S
C1247 C1246 1.352 . S
C1247 C1248 1.384 . S
C1247 H1274 0.930 . S
C1248 C1243 1.407 . S
C1248 C1247 1.384 . S
C1248 H1275 0.929 . S
C1249 O1262 1.241 . S
C1249 O1263 1.273 . S
C1250 O1264 1.251 . S
C1250 O1265 1.268 . S
C1251 Nd1241 2.836 . S
C1251 C1252 1.498 . S
C1251 O1266 1.258 . S
C1251 O1267 1.239 . S
C1252 C1251 1.498 . S
C1252 C1253 1.366 . S
C1252 C1257 1.407 . S
C1253 C1252 1.366 . S
C1253 C1254 1.392 . S
C1253 H1276 0.930 . S
C1254 C1253 1.392 . S
C1254 C1255 1.398 . S
C1254 H1277 0.929 . S
C1255 C1254 1.398 . S
C1255 C1256 1.352 . S
C1256 C1255 1.352 . S
C1256 C1257 1.384 . S
C1256 H1278 0.930 . S
C1257 C1252 1.407 . S
C1257 C1256 1.384 . S
C1257 H1279 0.929 . S
C1258 O1268 1.241 . S
C1258 O1269 1.273 . S
C1259 O1270 1.251 . S
C1259 O1271 1.268 . S
O1260 Nd1240 2.500 . S
O1260 C1242 1.258 . S
O1261 Nd1240 2.492 . S
O1261 C1242 1.239 . S
O1262 Nd1240 2.487 . S
O1262 C1249 1.241 . S
O1263 Nd1240 2.682 . S
O1263 Nd1241 2.414 . S
O1263 C1249 1.273 . S
O1264 Nd1240 2.410 . S
O1264 C1250 1.251 . S
O1265 Nd1241 2.424 . S
O1265 C1250 1.268 . S
O1266 Nd1241 2.500 . S
O1266 C1251 1.258 . S
O1267 Nd1241 2.492 . S
O1267 C1251 1.239 . S
O1268 Nd1241 2.487 . S
O1268 C1258 1.241 . S
O1269 Nd1240 2.414 . S
O1269 Nd1241 2.682 . S
O1269 C1258 1.273 . S
O1270 Nd1241 2.410 . S
O1270 C1259 1.251 . S
O1271 Nd1240 2.424 . S
O1271 C1259 1.268 . S
H1272 C1244 0.930 . S
H1273 C1245 0.929 . S
H1274 C1247 0.930 . S
H1275 C1248 0.929 . S
H1276 C1253 0.930 . S
H1277 C1254 0.929 . S
H1278 C1256 0.930 . S
H1279 C1257 0.929 . S
Nd1280 C1282 2.836 . S
Nd1280 O1300 2.500 . S
Nd1280 O1301 2.492 . S
Nd1280 O1302 2.487 . S
Nd1280 O1303 2.682 . S
Nd1280 O1304 2.410 . S
Nd1280 O1309 2.414 . S
Nd1280 O1311 2.424 . S
Nd1281 C1291 2.836 . S
Nd1281 O1303 2.414 . S
Nd1281 O1305 2.424 . S
Nd1281 O1306 2.500 . S
Nd1281 O1307 2.492 . S
Nd1281 O1308 2.487 . S
Nd1281 O1309 2.682 . S
Nd1281 O1310 2.410 . S
C1282 Nd1280 2.836 . S
C1282 C1283 1.498 . S
C1282 O1300 1.258 . S
C1282 O1301 1.239 . S
C1283 C1282 1.498 . S
C1283 C1284 1.366 . S
C1283 C1288 1.407 . S
C1284 C1283 1.366 . S
C1284 C1285 1.392 . S
C1284 H1312 0.930 . S
C1285 C1284 1.392 . S
C1285 C1286 1.398 . S
C1285 H1313 0.929 . S
C1286 C1285 1.398 . S
C1286 C1287 1.352 . S
C1287 C1286 1.352 . S
C1287 C1288 1.384 . S
C1287 H1314 0.930 . S
C1288 C1283 1.407 . S
C1288 C1287 1.384 . S
C1288 H1315 0.929 . S
C1289 O1302 1.241 . S
C1289 O1303 1.273 . S
C1290 O1304 1.251 . S
C1290 O1305 1.268 . S
C1291 Nd1281 2.836 . S
C1291 C1292 1.498 . S
C1291 O1306 1.258 . S
C1291 O1307 1.239 . S
C1292 C1291 1.498 . S
C1292 C1293 1.366 . S
C1292 C1297 1.407 . S
C1293 C1292 1.366 . S
C1293 C1294 1.392 . S
C1293 H1316 0.930 . S
C1294 C1293 1.392 . S
C1294 C1295 1.398 . S
C1294 H1317 0.929 . S
C1295 C1294 1.398 . S
C1295 C1296 1.352 . S
C1296 C1295 1.352 . S
C1296 C1297 1.384 . S
C1296 H1318 0.930 . S
C1297 C1292 1.407 . S
C1297 C1296 1.384 . S
C1297 H1319 0.929 . S
C1298 O1308 1.241 . S
C1298 O1309 1.273 . S
C1299 O1310 1.251 . S
C1299 O1311 1.268 . S
O1300 Nd1280 2.500 . S
O1300 C1282 1.258 . S
O1301 Nd1280 2.492 . S
O1301 C1282 1.239 . S
O1302 Nd1280 2.487 . S
O1302 C1289 1.241 . S
O1303 Nd1280 2.682 . S
O1303 Nd1281 2.414 . S
O1303 C1289 1.273 . S
O1304 Nd1280 2.410 . S
O1304 C1290 1.251 . S
O1305 Nd1281 2.424 . S
O1305 C1290 1.268 . S
O1306 Nd1281 2.500 . S
O1306 C1291 1.258 . S
O1307 Nd1281 2.492 . S
O1307 C1291 1.239 . S
O1308 Nd1281 2.487 . S
O1308 C1298 1.241 . S
O1309 Nd1280 2.414 . S
O1309 Nd1281 2.682 . S
O1309 C1298 1.273 . S
O1310 Nd1281 2.410 . S
O1310 C1299 1.251 . S
O1311 Nd1280 2.424 . S
O1311 C1299 1.268 . S
H1312 C1284 0.930 . S
H1313 C1285 0.929 . S
H1314 C1287 0.930 . S
H1315 C1288 0.929 . S
H1316 C1293 0.930 . S
H1317 C1294 0.929 . S
H1318 C1296 0.930 . S
H1319 C1297 0.929 . S
Nd1320 C1322 2.836 . S
Nd1320 O1340 2.500 . S
Nd1320 O1341 2.492 . S
Nd1320 O1342 2.487 . S
Nd1320 O1343 2.682 . S
Nd1320 O1344 2.410 . S
Nd1320 O1349 2.414 . S
Nd1320 O1351 2.424 . S
Nd1321 C1331 2.836 . S
Nd1321 O1343 2.414 . S
Nd1321 O1345 2.424 . S
Nd1321 O1346 2.500 . S
Nd1321 O1347 2.492 . S
Nd1321 O1348 2.487 . S
Nd1321 O1349 2.682 . S
Nd1321 O1350 2.410 . S
C1322 Nd1320 2.836 . S
C1322 C1323 1.498 . S
C1322 O1340 1.258 . S
C1322 O1341 1.239 . S
C1323 C1322 1.498 . S
C1323 C1324 1.366 . S
C1323 C1328 1.407 . S
C1324 C1323 1.366 . S
C1324 C1325 1.392 . S
C1324 H1352 0.930 . S
C1325 C1324 1.392 . S
C1325 C1326 1.398 . S
C1325 H1353 0.929 . S
C1326 C1325 1.398 . S
C1326 C1327 1.352 . S
C1327 C1326 1.352 . S
C1327 C1328 1.384 . S
C1327 H1354 0.930 . S
C1328 C1323 1.407 . S
C1328 C1327 1.384 . S
C1328 H1355 0.929 . S
C1329 O1342 1.241 . S
C1329 O1343 1.273 . S
C1330 O1344 1.251 . S
C1330 O1345 1.268 . S
C1331 Nd1321 2.836 . S
C1331 C1332 1.498 . S
C1331 O1346 1.258 . S
C1331 O1347 1.239 . S
C1332 C1331 1.498 . S
C1332 C1333 1.366 . S
C1332 C1337 1.407 . S
C1333 C1332 1.366 . S
C1333 C1334 1.392 . S
C1333 H1356 0.930 . S
C1334 C1333 1.392 . S
C1334 C1335 1.398 . S
C1334 H1357 0.929 . S
C1335 C1334 1.398 . S
C1335 C1336 1.352 . S
C1336 C1335 1.352 . S
C1336 C1337 1.384 . S
C1336 H1358 0.930 . S
C1337 C1332 1.407 . S
C1337 C1336 1.384 . S
C1337 H1359 0.929 . S
C1338 O1348 1.241 . S
C1338 O1349 1.273 . S
C1339 O1350 1.251 . S
C1339 O1351 1.268 . S
O1340 Nd1320 2.500 . S
O1340 C1322 1.258 . S
O1341 Nd1320 2.492 . S
O1341 C1322 1.239 . S
O1342 Nd1320 2.487 . S
O1342 C1329 1.241 . S
O1343 Nd1320 2.682 . S
O1343 Nd1321 2.414 . S
O1343 C1329 1.273 . S
O1344 Nd1320 2.410 . S
O1344 C1330 1.251 . S
O1345 Nd1321 2.424 . S
O1345 C1330 1.268 . S
O1346 Nd1321 2.500 . S
O1346 C1331 1.258 . S
O1347 Nd1321 2.492 . S
O1347 C1331 1.239 . S
O1348 Nd1321 2.487 . S
O1348 C1338 1.241 . S
O1349 Nd1320 2.414 . S
O1349 Nd1321 2.682 . S
O1349 C1338 1.273 . S
O1350 Nd1321 2.410 . S
O1350 C1339 1.251 . S
O1351 Nd1320 2.424 . S
O1351 C1339 1.268 . S
H1352 C1324 0.930 . S
H1353 C1325 0.929 . S
H1354 C1327 0.930 . S
H1355 C1328 0.929 . S
H1356 C1333 0.930 . S
H1357 C1334 0.929 . S
H1358 C1336 0.930 . S
H1359 C1337 0.929 . S
Nd1360 C1362 2.836 . S
Nd1360 O1380 2.500 . S
Nd1360 O1381 2.492 . S
Nd1360 O1382 2.487 . S
Nd1360 O1383 2.682 . S
Nd1360 O1384 2.410 . S
Nd1360 O1389 2.414 . S
Nd1360 O1391 2.424 . S
Nd1361 C1371 2.836 . S
Nd1361 O1383 2.414 . S
Nd1361 O1385 2.424 . S
Nd1361 O1386 2.500 . S
Nd1361 O1387 2.492 . S
Nd1361 O1388 2.487 . S
Nd1361 O1389 2.682 . S
Nd1361 O1390 2.410 . S
C1362 Nd1360 2.836 . S
C1362 C1363 1.498 . S
C1362 O1380 1.258 . S
C1362 O1381 1.239 . S
C1363 C1362 1.498 . S
C1363 C1364 1.366 . S
C1363 C1368 1.407 . S
C1364 C1363 1.366 . S
C1364 C1365 1.392 . S
C1364 H1392 0.930 . S
C1365 C1364 1.392 . S
C1365 C1366 1.398 . S
C1365 H1393 0.929 . S
C1366 C1365 1.398 . S
C1366 C1367 1.352 . S
C1367 C1366 1.352 . S
C1367 C1368 1.384 . S
C1367 H1394 0.930 . S
C1368 C1363 1.407 . S
C1368 C1367 1.384 . S
C1368 H1395 0.929 . S
C1369 O1382 1.241 . S
C1369 O1383 1.273 . S
C1370 O1384 1.251 . S
C1370 O1385 1.268 . S
C1371 Nd1361 2.836 . S
C1371 C1372 1.498 . S
C1371 O1386 1.258 . S
C1371 O1387 1.239 . S
C1372 C1371 1.498 . S
C1372 C1373 1.366 . S
C1372 C1377 1.407 . S
C1373 C1372 1.366 . S
C1373 C1374 1.392 . S
C1373 H1396 0.930 . S
C1374 C1373 1.392 . S
C1374 C1375 1.398 . S
C1374 H1397 0.929 . S
C1375 C1374 1.398 . S
C1375 C1376 1.352 . S
C1376 C1375 1.352 . S
C1376 C1377 1.384 . S
C1376 H1398 0.930 . S
C1377 C1372 1.407 . S
C1377 C1376 1.384 . S
C1377 H1399 0.929 . S
C1378 O1388 1.241 . S
C1378 O1389 1.273 . S
C1379 O1390 1.251 . S
C1379 O1391 1.268 . S
O1380 Nd1360 2.500 . S
O1380 C1362 1.258 . S
O1381 Nd1360 2.492 . S
O1381 C1362 1.239 . S
O1382 Nd1360 2.487 . S
O1382 C1369 1.241 . S
O1383 Nd1360 2.682 . S
O1383 Nd1361 2.414 . S
O1383 C1369 1.273 . S
O1384 Nd1360 2.410 . S
O1384 C1370 1.251 . S
O1385 Nd1361 2.424 . S
O1385 C1370 1.268 . S
O1386 Nd1361 2.500 . S
O1386 C1371 1.258 . S
O1387 Nd1361 2.492 . S
O1387 C1371 1.239 . S
O1388 Nd1361 2.487 . S
O1388 C1378 1.241 . S
O1389 Nd1360 2.414 . S
O1389 Nd1361 2.682 . S
O1389 C1378 1.273 . S
O1390 Nd1361 2.410 . S
O1390 C1379 1.251 . S
O1391 Nd1360 2.424 . S
O1391 C1379 1.268 . S
H1392 C1364 0.930 . S
H1393 C1365 0.929 . S
H1394 C1367 0.930 . S
H1395 C1368 0.929 . S
H1396 C1373 0.930 . S
H1397 C1374 0.929 . S
H1398 C1376 0.930 . S
H1399 C1377 0.929 . S
Nd1400 C1402 2.836 . S
Nd1400 O1420 2.500 . S
Nd1400 O1421 2.492 . S
Nd1400 O1422 2.487 . S
Nd1400 O1423 2.682 . S
Nd1400 O1424 2.410 . S
Nd1400 O1429 2.414 . S
Nd1400 O1431 2.424 . S
Nd1401 C1411 2.836 . S
Nd1401 O1423 2.414 . S
Nd1401 O1425 2.424 . S
Nd1401 O1426 2.500 . S
Nd1401 O1427 2.492 . S
Nd1401 O1428 2.487 . S
Nd1401 O1429 2.682 . S
Nd1401 O1430 2.410 . S
C1402 Nd1400 2.836 . S
C1402 C1403 1.498 . S
C1402 O1420 1.258 . S
C1402 O1421 1.239 . S
C1403 C1402 1.498 . S
C1403 C1404 1.366 . S
C1403 C1408 1.407 . S
C1404 C1403 1.366 . S
C1404 C1405 1.392 . S
C1404 H1432 0.930 . S
C1405 C1404 1.392 . S
C1405 C1406 1.398 . S
C1405 H1433 0.929 . S
C1406 C1405 1.398 . S
C1406 C1407 1.352 . S
C1407 C1406 1.352 . S
C1407 C1408 1.384 . S
C1407 H1434 0.930 . S
C1408 C1403 1.407 . S
C1408 C1407 1.384 . S
C1408 H1435 0.929 . S
C1409 O1422 1.241 . S
C1409 O1423 1.273 . S
C1410 O1424 1.251 . S
C1410 O1425 1.268 . S
C1411 Nd1401 2.836 . S
C1411 C1412 1.498 . S
C1411 O1426 1.258 . S
C1411 O1427 1.239 . S
C1412 C1411 1.498 . S
C1412 C1413 1.366 . S
C1412 C1417 1.407 . S
C1413 C1412 1.366 . S
C1413 C1414 1.392 . S
C1413 H1436 0.930 . S
C1414 C1413 1.392 . S
C1414 C1415 1.398 . S
C1414 H1437 0.929 . S
C1415 C1414 1.398 . S
C1415 C1416 1.352 . S
C1416 C1415 1.352 . S
C1416 C1417 1.384 . S
C1416 H1438 0.930 . S
C1417 C1412 1.407 . S
C1417 C1416 1.384 . S
C1417 H1439 0.929 . S
C1418 O1428 1.241 . S
C1418 O1429 1.273 . S
C1419 O1430 1.251 . S
C1419 O1431 1.268 . S
O1420 Nd1400 2.500 . S
O1420 C1402 1.258 . S
O1421 Nd1400 2.492 . S
O1421 C1402 1.239 . S
O1422 Nd1400 2.487 . S
O1422 C1409 1.241 . S
O1423 Nd1400 2.682 . S
O1423 Nd1401 2.414 . S
O1423 C1409 1.273 . S
O1424 Nd1400 2.410 . S
O1424 C1410 1.251 . S
O1425 Nd1401 2.424 . S
O1425 C1410 1.268 . S
O1426 Nd1401 2.500 . S
O1426 C1411 1.258 . S
O1427 Nd1401 2.492 . S
O1427 C1411 1.239 . S
O1428 Nd1401 2.487 . S
O1428 C1418 1.241 . S
O1429 Nd1400 2.414 . S
O1429 Nd1401 2.682 . S
O1429 C1418 1.273 . S
O1430 Nd1401 2.410 . S
O1430 C1419 1.251 . S
O1431 Nd1400 2.424 . S
O1431 C1419 1.268 . S
H1432 C1404 0.930 . S
H1433 C1405 0.929 . S
H1434 C1407 0.930 . S
H1435 C1408 0.929 . S
H1436 C1413 0.930 . S
H1437 C1414 0.929 . S
H1438 C1416 0.930 . S
H1439 C1417 0.929 . S
C1440 C1441 1.349 . S
C1440 C1442 1.327 . S
C1440 H1465 0.950 . S
C1441 C1440 1.349 . S
C1441 C1457 1.349 . S
C1442 C1440 1.327 . S
C1442 C1461 1.429 . S
C1442 H1466 0.950 . S
C1443 C1460 1.574 . S
C1443 C1462 1.368 . S
C1443 H1467 0.949 . S
H1444 C1448 0.949 . S
C1445 C1446 1.349 . S
C1445 C1447 1.327 . S
C1445 H1468 0.950 . S
C1446 C1445 1.349 . S
C1446 C1458 1.349 . S
C1447 C1445 1.327 . S
C1447 C1463 1.429 . S
C1447 H1469 0.950 . S
C1448 H1444 0.949 . S
C1448 C1456 1.574 . S
C1448 C1464 1.368 . S
H1449 C1457 0.950 . S
H1450 C1455 0.950 . S
H1451 C1456 0.949 . S
H1452 C1458 0.950 . S
H1453 C1459 0.950 . S
H1454 C1460 0.949 . S
C1455 H1450 0.950 . S
C1455 C1457 1.327 . S
C1455 C1461 1.429 . S
C1456 C1448 1.574 . S
C1456 H1451 0.949 . S
C1456 C1462 1.368 . S
C1457 C1441 1.349 . S
C1457 H1449 0.950 . S
C1457 C1455 1.327 . S
C1458 C1446 1.349 . S
C1458 H1452 0.950 . S
C1458 C1459 1.327 . S
C1459 H1453 0.950 . S
C1459 C1458 1.327 . S
C1459 C1463 1.429 . S
C1460 C1443 1.574 . S
C1460 H1454 0.949 . S
C1460 C1464 1.368 . S
C1461 C1442 1.429 . S
C1461 C1455 1.429 . S
C1461 C1462 1.523 . S
C1462 C1443 1.368 . S
C1462 C1456 1.368 . S
C1462 C1461 1.523 . S
C1463 C1447 1.429 . S
C1463 C1459 1.429 . S
C1463 C1464 1.523 . S
C1464 C1448 1.368 . S
C1464 C1460 1.368 . S
C1464 C1463 1.523 . S
H1465 C1440 0.950 . S
H1466 C1442 0.950 . S
H1467 C1443 0.949 . S
H1468 C1445 0.950 . S
H1469 C1447 0.950 . S
C1470 C1471 1.349 . S
C1470 C1472 1.327 . S
C1470 H1495 0.950 . S
C1471 C1470 1.349 . S
C1471 C1487 1.349 . S
C1472 C1470 1.327 . S
C1472 C1491 1.429 . S
C1472 H1496 0.950 . S
C1473 C1490 1.574 . S
C1473 C1492 1.368 . S
C1473 H1497 0.949 . S
H1474 C1478 0.949 1_565 S
C1475 C1476 1.349 . S
C1475 C1477 1.327 . S
C1475 H1498 0.950 . S
C1476 C1475 1.349 . S
C1476 C1488 1.349 . S
C1477 C1475 1.327 . S
C1477 C1493 1.429 . S
C1477 H1499 0.950 . S
C1478 H1474 0.949 1_545 S
C1478 C1486 1.574 . S
C1478 C1494 1.368 . S
H1479 C1487 0.950 . S
H1480 C1485 0.950 . S
H1481 C1486 0.949 . S
H1482 C1488 0.950 . S
H1483 C1489 0.950 . S
H1484 C1490 0.949 . S
C1485 H1480 0.950 . S
C1485 C1487 1.327 . S
C1485 C1491 1.429 . S
C1486 C1478 1.574 . S
C1486 H1481 0.949 . S
C1486 C1492 1.368 . S
C1487 C1471 1.349 . S
C1487 H1479 0.950 . S
C1487 C1485 1.327 . S
C1488 C1476 1.349 . S
C1488 H1482 0.950 . S
C1488 C1489 1.327 . S
C1489 H1483 0.950 . S
C1489 C1488 1.327 . S
C1489 C1493 1.429 . S
C1490 C1473 1.574 . S
C1490 H1484 0.949 . S
C1490 C1494 1.368 . S
C1491 C1472 1.429 . S
C1491 C1485 1.429 . S
C1491 C1492 1.523 . S
C1492 C1473 1.368 . S
C1492 C1486 1.368 . S
C1492 C1491 1.523 . S
C1493 C1477 1.429 . S
C1493 C1489 1.429 . S
C1493 C1494 1.523 1_565 S
C1494 C1478 1.368 . S
C1494 C1490 1.368 . S
C1494 C1493 1.523 1_545 S
H1495 C1470 0.950 . S
H1496 C1472 0.950 . S
H1497 C1473 0.949 . S
H1498 C1475 0.950 . S
H1499 C1477 0.950 . S
C1500 C1501 1.349 . S
C1500 C1502 1.327 . S
C1500 H1525 0.950 . S
C1501 C1500 1.349 . S
C1501 C1517 1.349 . S
C1502 C1500 1.327 . S
C1502 C1521 1.429 . S
C1502 H1526 0.950 . S
C1503 C1520 1.574 . S
C1503 C1522 1.368 . S
C1503 H1527 0.949 . S
H1504 C1508 0.949 . S
C1505 C1506 1.349 . S
C1505 C1507 1.327 . S
C1505 H1528 0.950 . S
C1506 C1505 1.349 . S
C1506 C1518 1.349 . S
C1507 C1505 1.327 . S
C1507 C1523 1.429 . S
C1507 H1529 0.950 . S
C1508 H1504 0.949 . S
C1508 C1516 1.574 . S
C1508 C1524 1.368 . S
H1509 C1517 0.950 . S
H1510 C1515 0.950 . S
H1511 C1516 0.949 1_455 S
H1512 C1518 0.950 . S
H1513 C1519 0.950 . S
H1514 C1520 0.949 . S
C1515 H1510 0.950 . S
C1515 C1517 1.327 . S
C1515 C1521 1.429 . S
C1516 C1508 1.574 . S
C1516 H1511 0.949 1_655 S
C1516 C1522 1.368 . S
C1517 C1501 1.349 . S
C1517 H1509 0.950 . S
C1517 C1515 1.327 . S
C1518 C1506 1.349 . S
C1518 H1512 0.950 . S
C1518 C1519 1.327 . S
C1519 H1513 0.950 . S
C1519 C1518 1.327 . S
C1519 C1523 1.429 . S
C1520 C1503 1.574 . S
C1520 H1514 0.949 . S
C1520 C1524 1.368 . S
C1521 C1502 1.429 . S
C1521 C1515 1.429 . S
C1521 C1522 1.523 1_455 S
C1522 C1503 1.368 . S
C1522 C1516 1.368 . S
C1522 C1521 1.523 1_655 S
C1523 C1507 1.429 . S
C1523 C1519 1.429 . S
C1523 C1524 1.523 . S
C1524 C1508 1.368 . S
C1524 C1520 1.368 . S
C1524 C1523 1.523 . S
H1525 C1500 0.950 . S
H1526 C1502 0.950 . S
H1527 C1503 0.949 . S
H1528 C1505 0.950 . S
H1529 C1507 0.950 . S
C1530 C1531 1.349 . S
C1530 C1532 1.327 . S
C1530 H1555 0.950 . S
C1531 C1530 1.349 . S
C1531 C1547 1.349 . S
C1532 C1530 1.327 . S
C1532 C1551 1.429 . S
C1532 H1556 0.950 . S
C1533 C1550 1.574 . S
C1533 C1552 1.368 . S
C1533 H1557 0.949 . S
H1534 C1538 0.949 . S
C1535 C1536 1.349 . S
C1535 C1537 1.327 . S
C1535 H1558 0.950 . S
C1536 C1535 1.349 . S
C1536 C1548 1.349 . S
C1537 C1535 1.327 . S
C1537 C1553 1.429 1_655 S
C1537 H1559 0.950 . S
C1538 H1534 0.949 . S
C1538 C1546 1.574 . S
C1538 C1554 1.368 . S
H1539 C1547 0.950 . S
H1540 C1545 0.950 . S
H1541 C1546 0.949 . S
H1542 C1548 0.950 . S
H1543 C1549 0.950 . S
H1544 C1550 0.949 . S
C1545 H1540 0.950 . S
C1545 C1547 1.327 . S
C1545 C1551 1.429 . S
C1546 C1538 1.574 . S
C1546 H1541 0.949 . S
C1546 C1552 1.368 . S
C1547 C1531 1.349 . S
C1547 H1539 0.950 . S
C1547 C1545 1.327 . S
C1548 C1536 1.349 . S
C1548 H1542 0.950 . S
C1548 C1549 1.327 1_655 S
C1549 H1543 0.950 . S
C1549 C1548 1.327 1_455 S
C1549 C1553 1.429 . S
C1550 C1533 1.574 . S
C1550 H1544 0.949 . S
C1550 C1554 1.368 . S
C1551 C1532 1.429 . S
C1551 C1545 1.429 . S
C1551 C1552 1.523 . S
C1552 C1533 1.368 . S
C1552 C1546 1.368 . S
C1552 C1551 1.523 . S
C1553 C1537 1.429 1_455 S
C1553 C1549 1.429 . S
C1553 C1554 1.523 . S
C1554 C1538 1.368 . S
C1554 C1550 1.368 . S
C1554 C1553 1.523 . S
H1555 C1530 0.950 . S
H1556 C1532 0.950 . S
H1557 C1533 0.949 . S
H1558 C1535 0.950 . S
H1559 C1537 0.950 . S
C1560 C1561 1.349 . S
C1560 C1562 1.327 . S
C1560 H1585 0.950 . S
C1561 C1560 1.349 . S
C1561 C1577 1.349 . S
C1562 C1560 1.327 . S
C1562 C1581 1.429 . S
C1562 H1586 0.950 . S
C1563 C1580 1.574 . S
C1563 C1582 1.368 . S
C1563 H1587 0.949 . S
H1564 C1568 0.949 . S
C1565 C1566 1.349 . S
C1565 C1567 1.327 1_545 S
C1565 H1588 0.950 . S
C1566 C1565 1.349 . S
C1566 C1578 1.349 . S
C1567 C1565 1.327 1_565 S
C1567 C1583 1.429 . S
C1567 H1589 0.950 . S
C1568 H1564 0.949 . S
C1568 C1576 1.574 . S
C1568 C1584 1.368 . S
H1569 C1577 0.950 . S
H1570 C1575 0.950 . S
H1571 C1576 0.949 . S
H1572 C1578 0.950 . S
H1573 C1579 0.921 1_565 S
H1574 C1580 0.949 . S
C1575 H1570 0.950 . S
C1575 C1577 1.327 . S
C1575 C1581 1.429 . S
C1576 C1568 1.574 . S
C1576 H1571 0.949 . S
C1576 C1582 1.368 . S
C1577 C1561 1.349 . S
C1577 H1569 0.950 . S
C1577 C1575 1.327 . S
C1578 C1566 1.349 . S
C1578 H1572 0.950 . S
C1578 C1579 1.378 . S
C1579 H1573 0.921 1_545 S
C1579 C1578 1.378 . S
C1579 C1583 1.402 1_545 S
C1580 C1563 1.574 . S
C1580 H1574 0.949 . S
C1580 C1584 1.368 . S
C1581 C1562 1.429 . S
C1581 C1575 1.429 . S
C1581 C1582 1.523 . S
C1582 C1563 1.368 . S
C1582 C1576 1.368 . S
C1582 C1581 1.523 . S
C1583 C1567 1.429 . S
C1583 C1579 1.402 1_565 S
C1583 C1584 1.523 . S
C1584 C1568 1.368 . S
C1584 C1580 1.368 . S
C1584 C1583 1.523 . S
H1585 C1560 0.950 . S
H1586 C1562 0.950 . S
H1587 C1563 0.949 . S
H1588 C1565 0.950 . S
H1589 C1567 0.950 . S
C1590 C1591 1.349 . S
C1590 C1592 1.321 1_655 S
C1590 H1615 0.950 . S
C1591 C1590 1.349 . S
C1591 C1607 1.349 . S
C1592 C1590 1.321 1_455 S
C1592 C1611 1.438 . S
C1592 H1616 0.946 . S
C1593 C1610 1.574 . S
C1593 C1612 1.368 . S
C1593 H1617 0.949 . S
H1594 C1598 0.949 . S
C1595 C1596 1.349 . S
C1595 C1597 1.327 1_545 S
C1595 H1618 0.950 . S
C1596 C1595 1.349 . S
C1596 C1608 1.349 . S
C1597 C1595 1.327 1_565 S
C1597 C1613 1.429 . S
C1597 H1619 0.950 . S
C1598 H1594 0.949 . S
C1598 C1606 1.574 . S
C1598 C1614 1.368 . S
H1599 C1607 0.950 . S
H1600 C1605 0.950 . S
H1601 C1606 0.949 . S
H1602 C1608 0.950 . S
H1603 C1609 0.958 1_565 S
H1604 C1610 0.949 . S
C1605 H1600 0.950 . S
C1605 C1607 1.327 1_455 S
C1605 C1611 1.429 . S
C1606 C1598 1.574 . S
C1606 H1601 0.949 . S
C1606 C1612 1.368 . S
C1607 C1591 1.349 . S
C1607 H1599 0.950 . S
C1607 C1605 1.327 1_655 S
C1608 C1596 1.349 . S
C1608 H1602 0.950 . S
C1608 C1609 1.351 . S
C1609 H1603 0.958 1_545 S
C1609 C1608 1.351 . S
C1609 C1613 1.398 1_545 S
C1610 C1593 1.574 . S
C1610 H1604 0.949 . S
C1610 C1614 1.368 . S
C1611 C1592 1.438 . S
C1611 C1605 1.429 . S
C1611 C1612 1.523 . S
C1612 C1593 1.368 . S
C1612 C1606 1.368 . S
C1612 C1611 1.523 . S
C1613 C1597 1.429 . S
C1613 C1609 1.398 1_565 S
C1613 C1614 1.523 . S
C1614 C1598 1.368 . S
C1614 C1610 1.368 . S
C1614 C1613 1.523 . S
H1615 C1590 0.950 . S
H1616 C1592 0.946 . S
H1617 C1593 0.949 . S
H1618 C1595 0.950 . S
H1619 C1597 0.950 . S
C1620 C1621 1.349 . S
C1620 C1622 1.327 . S
C1620 H1645 0.950 . S
C1621 C1620 1.349 . S
C1621 C1637 1.349 . S
C1622 C1620 1.327 . S
C1622 C1641 1.429 . S
C1622 H1646 0.950 . S
C1623 C1640 1.574 . S
C1623 C1642 1.368 . S
C1623 H1647 0.949 . S
H1624 C1628 0.949 . S
C1625 C1626 1.349 . S
C1625 C1627 1.327 . S
C1625 H1648 0.950 . S
C1626 C1625 1.349 . S
C1626 C1638 1.349 . S
C1627 C1625 1.327 . S
C1627 C1643 1.429 . S
C1627 H1649 0.950 . S
C1628 H1624 0.949 . S
C1628 C1636 1.574 . S
C1628 C1644 1.368 . S
H1629 C1637 0.950 . S
H1630 C1635 0.950 . S
H1631 C1636 0.949 . S
H1632 C1638 0.950 . S
H1633 C1639 0.950 . S
H1634 C1640 0.949 . S
C1635 H1630 0.950 . S
C1635 C1637 1.327 . S
C1635 C1641 1.429 . S
C1636 C1628 1.574 . S
C1636 H1631 0.949 . S
C1636 C1642 1.368 . S
C1637 C1621 1.349 . S
C1637 H1629 0.950 . S
C1637 C1635 1.327 . S
C1638 C1626 1.349 . S
C1638 H1632 0.950 . S
C1638 C1639 1.327 . S
C1639 H1633 0.950 . S
C1639 C1638 1.327 . S
C1639 C1643 1.429 . S
C1640 C1623 1.574 . S
C1640 H1634 0.949 . S
C1640 C1644 1.368 . S
C1641 C1622 1.429 . S
C1641 C1635 1.429 . S
C1641 C1642 1.523 . S
C1642 C1623 1.368 . S
C1642 C1636 1.368 . S
C1642 C1641 1.523 . S
C1643 C1627 1.429 . S
C1643 C1639 1.429 . S
C1643 C1644 1.523 . S
C1644 C1628 1.368 . S
C1644 C1640 1.368 . S
C1644 C1643 1.523 . S
H1645 C1620 0.950 . S
H1646 C1622 0.950 . S
H1647 C1623 0.949 . S
H1648 C1625 0.950 . S
H1649 C1627 0.950 . S
C1650 C1651 1.349 . S
C1650 C1652 1.327 . S
C1650 H1675 0.950 . S
C1651 C1650 1.349 . S
C1651 C1667 1.349 . S
C1652 C1650 1.327 . S
C1652 C1671 1.429 . S
C1652 H1676 0.950 . S
C1653 C1670 1.574 . S
C1653 C1672 1.368 . S
C1653 H1677 0.949 . S
H1654 C1658 0.949 . S
C1655 C1656 1.349 . S
C1655 C1657 1.327 . S
C1655 H1678 0.950 . S
C1656 C1655 1.349 . S
C1656 C1668 1.349 . S
C1657 C1655 1.327 . S
C1657 C1673 1.429 . S
C1657 H1679 0.950 . S
C1658 H1654 0.949 . S
C1658 C1666 1.574 . S
C1658 C1674 1.368 . S
H1659 C1667 0.950 . S
H1660 C1665 0.950 . S
H1661 C1666 0.949 1_545 S
H1662 C1668 0.950 . S
H1663 C1669 0.950 . S
H1664 C1670 0.949 . S
C1665 H1660 0.950 . S
C1665 C1667 1.327 . S
C1665 C1671 1.429 . S
C1666 C1658 1.574 . S
C1666 H1661 0.949 1_565 S
C1666 C1672 1.368 . S
C1667 C1651 1.349 . S
C1667 H1659 0.950 . S
C1667 C1665 1.327 . S
C1668 C1656 1.349 . S
C1668 H1662 0.950 . S
C1668 C1669 1.327 . S
C1669 H1663 0.950 . S
C1669 C1668 1.327 . S
C1669 C1673 1.429 . S
C1670 C1653 1.574 . S
C1670 H1664 0.949 . S
C1670 C1674 1.368 . S
C1671 C1652 1.429 . S
C1671 C1665 1.429 . S
C1671 C1672 1.523 1_545 S
C1672 C1653 1.368 . S
C1672 C1666 1.368 . S
C1672 C1671 1.523 1_565 S
C1673 C1657 1.429 . S
C1673 C1669 1.429 . S
C1673 C1674 1.523 . S
C1674 C1658 1.368 . S
C1674 C1670 1.368 . S
C1674 C1673 1.523 . S
H1675 C1650 0.950 . S
H1676 C1652 0.950 . S
H1677 C1653 0.949 . S
H1678 C1655 0.950 . S
H1679 C1657 0.950 . S
C1680 C1681 1.349 . S
C1680 C1682 1.327 . S
C1680 H1705 0.950 . S
C1681 C1680 1.349 . S
C1681 C1697 1.349 . S
C1682 C1680 1.327 . S
C1682 C1701 1.429 . S
C1682 H1706 0.950 . S
C1683 C1700 1.574 . S
C1683 C1702 1.368 . S
C1683 H1707 0.949 . S
H1684 C1688 0.949 . S
C1685 C1686 1.349 . S
C1685 C1687 1.327 . S
C1685 H1708 0.950 . S
C1686 C1685 1.349 . S
C1686 C1698 1.349 . S
C1687 C1685 1.327 . S
C1687 C1703 1.429 . S
C1687 H1709 0.950 . S
C1688 H1684 0.949 . S
C1688 C1696 1.574 . S
C1688 C1704 1.368 . S
H1689 C1697 0.950 . S
H1690 C1695 0.950 . S
H1691 C1696 0.948 . S
H1692 C1698 0.950 . S
H1693 C1699 0.950 . S
H1694 C1700 0.949 . S
C1695 H1690 0.950 . S
C1695 C1697 1.327 . S
C1695 C1701 1.429 . S
C1696 C1688 1.574 . S
C1696 H1691 0.948 . S
C1696 C1702 1.368 . S
C1697 C1681 1.349 . S
C1697 H1689 0.950 . S
C1697 C1695 1.327 . S
C1698 C1686 1.349 . S
C1698 H1692 0.950 . S
C1698 C1699 1.327 . S
C1699 H1693 0.950 . S
C1699 C1698 1.327 . S
C1699 C1703 1.429 . S
C1700 C1683 1.574 . S
C1700 H1694 0.949 . S
C1700 C1704 1.368 . S
C1701 C1682 1.429 . S
C1701 C1695 1.429 . S
C1701 C1702 1.523 1_655 S
C1702 C1683 1.368 . S
C1702 C1696 1.368 . S
C1702 C1701 1.523 1_455 S
C1703 C1687 1.429 . S
C1703 C1699 1.429 . S
C1703 C1704 1.523 . S
C1704 C1688 1.368 . S
C1704 C1700 1.368 . S
C1704 C1703 1.523 . S
H1705 C1680 0.950 . S
H1706 C1682 0.950 . S
H1707 C1683 0.949 . S
H1708 C1685 0.950 . S
H1709 C1687 0.950 . S
C1710 C1711 1.349 . S
C1710 C1712 1.327 . S
C1710 H1735 0.950 . S
C1711 C1710 1.349 . S
C1711 C1727 1.349 . S
C1712 C1710 1.327 . S
C1712 C1731 1.429 . S
C1712 H1736 0.950 . S
C1713 C1730 1.574 . S
C1713 C1732 1.368 . S
C1713 H1737 0.949 . S
H1714 C1718 0.949 . S
C1715 C1716 1.349 . S
C1715 C1717 1.327 . S
C1715 H1738 0.950 . S
C1716 C1715 1.349 . S
C1716 C1728 1.349 . S
C1717 C1715 1.327 . S
C1717 C1733 1.429 1_455 S
C1717 H1739 0.950 . S
C1718 H1714 0.949 . S
C1718 C1726 1.574 . S
C1718 C1734 1.368 . S
H1719 C1727 0.950 . S
H1720 C1725 0.950 . S
H1721 C1726 0.949 . S
H1722 C1728 0.950 . S
H1723 C1729 0.950 . S
H1724 C1730 0.949 . S
C1725 H1720 0.950 . S
C1725 C1727 1.327 . S
C1725 C1731 1.429 . S
C1726 C1718 1.574 . S
C1726 H1721 0.949 . S
C1726 C1732 1.368 . S
C1727 C1711 1.349 . S
C1727 H1719 0.950 . S
C1727 C1725 1.327 . S
C1728 C1716 1.349 . S
C1728 H1722 0.950 . S
C1728 C1729 1.327 1_455 S
C1729 H1723 0.950 . S
C1729 C1728 1.327 1_655 S
C1729 C1733 1.429 . S
C1730 C1713 1.574 . S
C1730 H1724 0.949 . S
C1730 C1734 1.368 . S
C1731 C1712 1.429 . S
C1731 C1725 1.429 . S
C1731 C1732 1.523 . S
C1732 C1713 1.368 . S
C1732 C1726 1.368 . S
C1732 C1731 1.523 . S
C1733 C1717 1.429 1_655 S
C1733 C1729 1.429 . S
C1733 C1734 1.523 . S
C1734 C1718 1.368 . S
C1734 C1730 1.368 . S
C1734 C1733 1.523 . S
H1735 C1710 0.950 . S
H1736 C1712 0.950 . S
H1737 C1713 0.949 . S
H1738 C1715 0.950 . S
H1739 C1717 0.950 . S
C1740 C1741 1.349 . S
C1740 C1742 1.327 . S
C1740 H1765 0.950 . S
C1741 C1740 1.349 . S
C1741 C1757 1.349 . S
C1742 C1740 1.327 . S
C1742 C1761 1.429 . S
C1742 H1766 0.950 . S
C1743 C1760 1.574 . S
C1743 C1762 1.368 . S
C1743 H1767 0.949 . S
H1744 C1748 0.949 . S
C1745 C1746 1.349 . S
C1745 C1747 1.320 1_565 S
C1745 H1768 0.950 . S
C1746 C1745 1.349 . S
C1746 C1758 1.349 . S
C1747 C1745 1.320 1_545 S
C1747 C1763 1.432 . S
C1747 H1769 0.952 . S
C1748 H1744 0.949 . S
C1748 C1756 1.574 . S
C1748 C1764 1.368 . S
H1749 C1757 0.950 . S
H1750 C1755 0.950 . S
H1751 C1756 0.949 . S
H1752 C1758 0.950 . S
H1753 C1759 0.950 . S
H1754 C1760 0.949 . S
C1755 H1750 0.950 . S
C1755 C1757 1.327 . S
C1755 C1761 1.429 . S
C1756 C1748 1.574 . S
C1756 H1751 0.949 . S
C1756 C1762 1.368 . S
C1757 C1741 1.349 . S
C1757 H1749 0.950 . S
C1757 C1755 1.327 . S
C1758 C1746 1.349 . S
C1758 H1752 0.950 . S
C1758 C1759 1.327 1_565 S
C1759 H1753 0.950 . S
C1759 C1758 1.327 1_545 S
C1759 C1763 1.429 . S
C1760 C1743 1.574 . S
C1760 H1754 0.949 . S
C1760 C1764 1.368 . S
C1761 C1742 1.429 . S
C1761 C1755 1.429 . S
C1761 C1762 1.523 . S
C1762 C1743 1.368 . S
C1762 C1756 1.368 . S
C1762 C1761 1.523 . S
C1763 C1747 1.432 . S
C1763 C1759 1.429 . S
C1763 C1764 1.523 . S
C1764 C1748 1.368 . S
C1764 C1760 1.368 . S
C1764 C1763 1.523 . S
H1765 C1740 0.950 . S
H1766 C1742 0.950 . S
H1767 C1743 0.949 . S
H1768 C1745 0.950 . S
H1769 C1747 0.952 . S
C1770 C1771 1.349 . S
C1770 C1772 1.327 1_565 S
C1770 H1795 0.950 . S
C1771 C1770 1.349 . S
C1771 C1787 1.349 . S
C1772 C1770 1.327 1_545 S
C1772 C1791 1.429 . S
C1772 H1796 0.950 . S
C1773 C1790 1.574 . S
C1773 C1792 1.368 . S
C1773 H1797 0.949 . S
H1774 C1778 0.949 . S
C1775 C1776 1.349 . S
C1775 C1777 1.327 1_455 S
C1775 H1798 0.950 . S
C1776 C1775 1.349 . S
C1776 C1788 1.349 . S
C1777 C1775 1.327 1_655 S
C1777 C1793 1.429 . S
C1777 H1799 0.949 . S
C1778 H1774 0.949 . S
C1778 C1786 1.574 . S
C1778 C1794 1.368 . S
H1779 C1787 0.950 . S
H1780 C1785 0.950 1_545 S
H1781 C1786 0.949 . S
H1782 C1788 0.950 . S
H1783 C1789 0.950 . S
H1784 C1790 0.949 . S
C1785 H1780 0.950 1_565 S
C1785 C1787 1.327 . S
C1785 C1791 1.429 1_565 S
C1786 C1778 1.574 . S
C1786 H1781 0.949 . S
C1786 C1792 1.368 . S
C1787 C1771 1.349 . S
C1787 H1779 0.950 . S
C1787 C1785 1.327 . S
C1788 C1776 1.349 . S
C1788 H1782 0.950 . S
C1788 C1789 1.327 1_455 S
C1789 H1783 0.950 . S
C1789 C1788 1.327 1_655 S
C1789 C1793 1.429 . S
C1790 C1773 1.574 . S
C1790 H1784 0.949 . S
C1790 C1794 1.368 . S
C1791 C1772 1.429 . S
C1791 C1785 1.429 1_545 S
C1791 C1792 1.523 . S
C1792 C1773 1.368 . S
C1792 C1786 1.368 . S
C1792 C1791 1.523 . S
C1793 C1777 1.429 . S
C1793 C1789 1.429 . S
C1793 C1794 1.523 . S
C1794 C1778 1.368 . S
C1794 C1790 1.368 . S
C1794 C1793 1.523 . S
H1795 C1770 0.950 . S
H1796 C1772 0.950 . S
H1797 C1773 0.949 . S
H1798 C1775 0.950 . S
H1799 C1777 0.949 . S
C1800 C1801 1.349 . S
C1800 C1802 1.327 . S
C1800 H1825 0.950 . S
C1801 C1800 1.349 . S
C1801 C1817 1.349 . S
C1802 C1800 1.327 . S
C1802 C1821 1.429 . S
C1802 H1826 0.950 . S
C1803 C1820 1.574 . S
C1803 C1822 1.368 . S
C1803 H1827 0.949 . S
H1804 C1808 0.949 . S
C1805 C1806 1.349 . S
C1805 C1807 1.327 . S
C1805 H1828 0.950 . S
C1806 C1805 1.349 . S
C1806 C1818 1.349 . S
C1807 C1805 1.327 . S
C1807 C1823 1.429 . S
C1807 H1829 0.950 . S
C1808 H1804 0.949 . S
C1808 C1816 1.574 . S
C1808 C1824 1.368 . S
H1809 C1817 0.950 . S
H1810 C1815 0.950 . S
H1811 C1816 0.949 . S
H1812 C1818 0.950 . S
H1813 C1819 0.950 . S
H1814 C1820 0.949 . S
C1815 H1810 0.950 . S
C1815 C1817 1.327 . S
C1815 C1821 1.429 . S
C1816 C1808 1.574 . S
C1816 H1811 0.949 . S
C1816 C1822 1.368 . S
C1817 C1801 1.349 . S
C1817 H1809 0.950 . S
C1817 C1815 1.327 . S
C1818 C1806 1.349 . S
C1818 H1812 0.950 . S
C1818 C1819 1.327 . S
C1819 H1813 0.950 . S
C1819 C1818 1.327 . S
C1819 C1823 1.429 . S
C1820 C1803 1.574 . S
C1820 H1814 0.949 . S
C1820 C1824 1.368 . S
C1821 C1802 1.429 . S
C1821 C1815 1.429 . S
C1821 C1822 1.523 . S
C1822 C1803 1.368 . S
C1822 C1816 1.368 . S
C1822 C1821 1.523 . S
C1823 C1807 1.429 . S
C1823 C1819 1.429 . S
C1823 C1824 1.523 . S
C1824 C1808 1.368 . S
C1824 C1820 1.368 . S
C1824 C1823 1.523 . S
H1825 C1800 0.950 . S
H1826 C1802 0.950 . S
H1827 C1803 0.949 . S
H1828 C1805 0.950 . S
H1829 C1807 0.950 . S
C1830 C1831 1.349 . S
C1830 C1832 1.327 . S
C1830 H1855 0.950 . S
C1831 C1830 1.349 . S
C1831 C1847 1.349 . S
C1832 C1830 1.327 . S
C1832 C1851 1.429 . S
C1832 H1856 0.950 . S
C1833 C1850 1.574 . S
C1833 C1852 1.368 . S
C1833 H1857 0.949 . S
H1834 C1838 0.949 . S
C1835 C1836 1.349 . S
C1835 C1837 1.327 . S
C1835 H1858 0.950 . S
C1836 C1835 1.349 . S
C1836 C1848 1.349 . S
C1837 C1835 1.327 . S
C1837 C1853 1.429 . S
C1837 H1859 0.950 . S
C1838 H1834 0.949 . S
C1838 C1846 1.574 . S
C1838 C1854 1.368 . S
H1839 C1847 0.950 . S
H1840 C1845 0.950 . S
H1841 C1846 0.949 . S
H1842 C1848 0.950 . S
H1843 C1849 0.950 . S
H1844 C1850 0.949 . S
C1845 H1840 0.950 . S
C1845 C1847 1.327 . S
C1845 C1851 1.429 . S
C1846 C1838 1.574 . S
C1846 H1841 0.949 . S
C1846 C1852 1.368 . S
C1847 C1831 1.349 . S
C1847 H1839 0.950 . S
C1847 C1845 1.327 . S
C1848 C1836 1.349 . S
C1848 H1842 0.950 . S
C1848 C1849 1.327 . S
C1849 H1843 0.950 . S
C1849 C1848 1.327 . S
C1849 C1853 1.429 . S
C1850 C1833 1.574 . S
C1850 H1844 0.949 . S
C1850 C1854 1.368 . S
C1851 C1832 1.429 . S
C1851 C1845 1.429 . S
C1851 C1852 1.523 . S
C1852 C1833 1.368 . S
C1852 C1846 1.368 . S
C1852 C1851 1.523 . S
C1853 C1837 1.429 . S
C1853 C1849 1.429 . S
C1853 C1854 1.523 . S
C1854 C1838 1.368 . S
C1854 C1850 1.368 . S
C1854 C1853 1.523 . S
H1855 C1830 0.950 . S
H1856 C1832 0.950 . S
H1857 C1833 0.949 . S
H1858 C1835 0.950 . S
H1859 C1837 0.950 . S
C1860 C1861 1.349 . S
C1860 C1862 1.327 . S
C1860 H1885 0.950 . S
C1861 C1860 1.349 . S
C1861 C1877 1.349 . S
C1862 C1860 1.327 . S
C1862 C1881 1.429 . S
C1862 H1886 0.950 . S
C1863 C1880 1.574 . S
C1863 C1882 1.368 . S
C1863 H1887 0.949 . S
H1864 C1868 0.949 . S
C1865 C1866 1.349 . S
C1865 C1867 1.327 . S
C1865 H1888 0.950 . S
C1866 C1865 1.349 . S
C1866 C1878 1.349 . S
C1867 C1865 1.327 . S
C1867 C1883 1.429 . S
C1867 H1889 0.950 . S
C1868 H1864 0.949 . S
C1868 C1876 1.574 . S
C1868 C1884 1.368 . S
H1869 C1877 0.950 . S
H1870 C1875 0.950 . S
H1871 C1876 0.949 . S
H1872 C1878 0.950 . S
H1873 C1879 0.950 . S
H1874 C1880 0.949 . S
C1875 H1870 0.950 . S
C1875 C1877 1.327 . S
C1875 C1881 1.429 . S
C1876 C1868 1.574 . S
C1876 H1871 0.949 . S
C1876 C1882 1.368 . S
C1877 C1861 1.349 . S
C1877 H1869 0.950 . S
C1877 C1875 1.327 . S
C1878 C1866 1.349 . S
C1878 H1872 0.950 . S
C1878 C1879 1.327 . S
C1879 H1873 0.950 . S
C1879 C1878 1.327 . S
C1879 C1883 1.429 . S
C1880 C1863 1.574 . S
C1880 H1874 0.949 . S
C1880 C1884 1.368 . S
C1881 C1862 1.429 . S
C1881 C1875 1.429 . S
C1881 C1882 1.523 . S
C1882 C1863 1.368 . S
C1882 C1876 1.368 . S
C1882 C1881 1.523 . S
C1883 C1867 1.429 . S
C1883 C1879 1.429 . S
C1883 C1884 1.523 . S
C1884 C1868 1.368 . S
C1884 C1880 1.368 . S
C1884 C1883 1.523 . S
H1885 C1860 0.950 . S
H1886 C1862 0.950 . S
H1887 C1863 0.949 . S
H1888 C1865 0.950 . S
H1889 C1867 0.950 . S
C1890 C1891 1.349 . S
C1890 C1892 1.327 . S
C1890 H1915 0.950 . S
C1891 C1890 1.349 . S
C1891 C1907 1.349 . S
C1892 C1890 1.327 . S
C1892 C1911 1.429 . S
C1892 H1916 0.950 . S
C1893 C1910 1.574 . S
C1893 C1912 1.368 . S
C1893 H1917 0.949 . S
H1894 C1898 0.949 . S
C1895 C1896 1.349 . S
C1895 C1897 1.327 . S
C1895 H1918 0.950 . S
C1896 C1895 1.349 . S
C1896 C1908 1.349 . S
C1897 C1895 1.327 . S
C1897 C1913 1.429 . S
C1897 H1919 0.950 . S
C1898 H1894 0.949 . S
C1898 C1906 1.574 . S
C1898 C1914 1.368 . S
H1899 C1907 0.950 . S
H1900 C1905 0.950 . S
H1901 C1906 0.949 . S
H1902 C1908 0.950 . S
H1903 C1909 0.950 . S
H1904 C1910 0.949 . S
C1905 H1900 0.950 . S
C1905 C1907 1.327 . S
C1905 C1911 1.429 . S
C1906 C1898 1.574 . S
C1906 H1901 0.949 . S
C1906 C1912 1.368 . S
C1907 C1891 1.349 . S
C1907 H1899 0.950 . S
C1907 C1905 1.327 . S
C1908 C1896 1.349 . S
C1908 H1902 0.950 . S
C1908 C1909 1.327 . S
C1909 H1903 0.950 . S
C1909 C1908 1.327 . S
C1909 C1913 1.429 . S
C1910 C1893 1.574 . S
C1910 H1904 0.949 . S
C1910 C1914 1.368 . S
C1911 C1892 1.429 . S
C1911 C1905 1.429 . S
C1911 C1912 1.523 . S
C1912 C1893 1.368 . S
C1912 C1906 1.368 . S
C1912 C1911 1.523 . S
C1913 C1897 1.429 . S
C1913 C1909 1.429 . S
C1913 C1914 1.523 . S
C1914 C1898 1.368 . S
C1914 C1910 1.368 . S
C1914 C1913 1.523 . S
H1915 C1890 0.950 . S
H1916 C1892 0.950 . S
H1917 C1893 0.949 . S
H1918 C1895 0.950 . S
H1919 C1897 0.950 . S
C1920 C1921 1.349 . S
C1920 C1922 1.327 . S
C1920 H1945 0.950 . S
C1921 C1920 1.349 . S
C1921 C1937 1.349 . S
C1922 C1920 1.327 . S
C1922 C1941 1.429 . S
C1922 H1946 0.950 . S
C1923 C1940 1.574 . S
C1923 C1942 1.368 . S
C1923 H1947 0.949 . S
H1924 C1928 0.949 . S
C1925 C1926 1.349 . S
C1925 C1927 1.327 . S
C1925 H1948 0.950 . S
C1926 C1925 1.349 . S
C1926 C1938 1.349 . S
C1927 C1925 1.327 . S
C1927 C1943 1.429 . S
C1927 H1949 0.950 . S
C1928 H1924 0.949 . S
C1928 C1936 1.574 . S
C1928 C1944 1.368 . S
H1929 C1937 0.950 . S
H1930 C1935 0.950 . S
H1931 C1936 0.949 . S
H1932 C1938 0.950 . S
H1933 C1939 0.950 . S
H1934 C1940 0.949 . S
C1935 H1930 0.950 . S
C1935 C1937 1.327 . S
C1935 C1941 1.429 . S
C1936 C1928 1.574 . S
C1936 H1931 0.949 . S
C1936 C1942 1.368 . S
C1937 C1921 1.349 . S
C1937 H1929 0.950 . S
C1937 C1935 1.327 . S
C1938 C1926 1.349 . S
C1938 H1932 0.950 . S
C1938 C1939 1.327 . S
C1939 H1933 0.950 . S
C1939 C1938 1.327 . S
C1939 C1943 1.429 . S
C1940 C1923 1.574 . S
C1940 H1934 0.949 . S
C1940 C1944 1.368 . S
C1941 C1922 1.429 . S
C1941 C1935 1.429 . S
C1941 C1942 1.523 . S
C1942 C1923 1.368 . S
C1942 C1936 1.368 . S
C1942 C1941 1.523 . S
C1943 C1927 1.429 . S
C1943 C1939 1.429 . S
C1943 C1944 1.523 . S
C1944 C1928 1.368 . S
C1944 C1940 1.368 . S
C1944 C1943 1.523 . S
H1945 C1920 0.950 . S
H1946 C1922 0.950 . S
H1947 C1923 0.949 . S
H1948 C1925 0.950 . S
H1949 C1927 0.950 . S
C1950 C1951 1.349 . S
C1950 C1952 1.327 . S
C1950 H1975 0.950 . S
C1951 C1950 1.349 . S
C1951 C1967 1.349 . S
C1952 C1950 1.327 . S
C1952 C1971 1.429 . S
C1952 H1976 0.950 . S
C1953 C1970 1.574 . S
C1953 C1972 1.368 . S
C1953 H1977 0.949 . S
H1954 C1958 0.949 . S
C1955 C1956 1.349 . S
C1955 C1957 1.327 . S
C1955 H1978 0.950 . S
C1956 C1955 1.349 . S
C1956 C1968 1.349 . S
C1957 C1955 1.327 . S
C1957 C1973 1.429 . S
C1957 H1979 0.950 . S
C1958 H1954 0.949 . S
C1958 C1966 1.574 . S
C1958 C1974 1.368 . S
H1959 C1967 0.950 . S
H1960 C1965 0.950 . S
H1961 C1966 0.949 . S
H1962 C1968 0.950 . S
H1963 C1969 0.950 . S
H1964 C1970 0.949 . S
C1965 H1960 0.950 . S
C1965 C1967 1.327 . S
C1965 C1971 1.429 . S
C1966 C1958 1.574 . S
C1966 H1961 0.949 . S
C1966 C1972 1.368 . S
C1967 C1951 1.349 . S
C1967 H1959 0.950 . S
C1967 C1965 1.327 . S
C1968 C1956 1.349 . S
C1968 H1962 0.950 . S
C1968 C1969 1.327 . S
C1969 H1963 0.950 . S
C1969 C1968 1.327 . S
C1969 C1973 1.429 . S
C1970 C1953 1.574 . S
C1970 H1964 0.949 . S
C1970 C1974 1.368 . S
C1971 C1952 1.429 . S
C1971 C1965 1.429 . S
C1971 C1972 1.523 . S
C1972 C1953 1.368 . S
C1972 C1966 1.368 . S
C1972 C1971 1.523 . S
C1973 C1957 1.429 . S
C1973 C1969 1.429 . S
C1973 C1974 1.523 . S
C1974 C1958 1.368 . S
C1974 C1970 1.368 . S
C1974 C1973 1.523 . S
H1975 C1950 0.950 . S
H1976 C1952 0.950 . S
H1977 C1953 0.949 . S
H1978 C1955 0.950 . S
H1979 C1957 0.950 . S
C1980 C1981 1.349 . S
C1980 C1982 1.327 . S
C1980 H2005 0.950 . S
C1981 C1980 1.349 . S
C1981 C1997 1.349 . S
C1982 C1980 1.327 . S
C1982 C2001 1.429 . S
C1982 H2006 0.950 . S
C1983 C2000 1.574 . S
C1983 C2002 1.368 . S
C1983 H2007 0.949 . S
H1984 C1988 0.949 . S
C1985 C1986 1.349 . S
C1985 C1987 1.327 . S
C1985 H2008 0.950 . S
C1986 C1985 1.349 . S
C1986 C1998 1.349 . S
C1987 C1985 1.327 . S
C1987 C2003 1.429 . S
C1987 H2009 0.950 . S
C1988 H1984 0.949 . S
C1988 C1996 1.574 . S
C1988 C2004 1.368 . S
H1989 C1997 0.950 . S
H1990 C1995 0.950 . S
H1991 C1996 0.949 . S
H1992 C1998 0.950 . S
H1993 C1999 0.950 . S
H1994 C2000 0.949 . S
C1995 H1990 0.950 . S
C1995 C1997 1.327 . S
C1995 C2001 1.429 . S
C1996 C1988 1.574 . S
C1996 H1991 0.949 . S
C1996 C2002 1.368 . S
C1997 C1981 1.349 . S
C1997 H1989 0.950 . S
C1997 C1995 1.327 . S
C1998 C1986 1.349 . S
C1998 H1992 0.950 . S
C1998 C1999 1.327 . S
C1999 H1993 0.950 . S
C1999 C1998 1.327 . S
C1999 C2003 1.429 . S
C2000 C1983 1.574 . S
C2000 H1994 0.949 . S
C2000 C2004 1.368 . S
C2001 C1982 1.429 . S
C2001 C1995 1.429 . S
C2001 C2002 1.523 . S
C2002 C1983 1.368 . S
C2002 C1996 1.368 . S
C2002 C2001 1.523 . S
C2003 C1987 1.429 . S
C2003 C1999 1.429 . S
C2003 C2004 1.523 . S
C2004 C1988 1.368 . S
C2004 C2000 1.368 . S
C2004 C2003 1.523 . S
H2005 C1980 0.950 . S
H2006 C1982 0.950 . S
H2007 C1983 0.949 . S
H2008 C1985 0.950 . S
H2009 C1987 0.950 . S
C2010 C2011 1.349 . S
C2010 C2012 1.327 . S
C2010 H2035 0.950 . S
C2011 C2010 1.349 . S
C2011 C2027 1.349 . S
C2012 C2010 1.327 . S
C2012 C2031 1.429 . S
C2012 H2036 0.950 . S
C2013 C2030 1.574 . S
C2013 C2032 1.368 . S
C2013 H2037 0.949 . S
H2014 C2018 0.949 . S
C2015 C2016 1.349 . S
C2015 C2017 1.327 . S
C2015 H2038 0.950 . S
C2016 C2015 1.349 . S
C2016 C2028 1.349 . S
C2017 C2015 1.327 . S
C2017 C2033 1.429 . S
C2017 H2039 0.950 . S
C2018 H2014 0.949 . S
C2018 C2026 1.574 . S
C2018 C2034 1.368 . S
H2019 C2027 0.950 . S
H2020 C2025 0.950 . S
H2021 C2026 0.949 . S
H2022 C2028 0.950 . S
H2023 C2029 0.950 . S
H2024 C2030 0.949 . S
C2025 H2020 0.950 . S
C2025 C2027 1.327 . S
C2025 C2031 1.429 . S
C2026 C2018 1.574 . S
C2026 H2021 0.949 . S
C2026 C2032 1.368 . S
C2027 C2011 1.349 . S
C2027 H2019 0.950 . S
C2027 C2025 1.327 . S
C2028 C2016 1.349 . S
C2028 H2022 0.950 . S
C2028 C2029 1.327 . S
C2029 H2023 0.950 . S
C2029 C2028 1.327 . S
C2029 C2033 1.429 . S
C2030 C2013 1.574 . S
C2030 H2024 0.949 . S
C2030 C2034 1.368 . S
C2031 C2012 1.429 . S
C2031 C2025 1.429 . S
C2031 C2032 1.523 . S
C2032 C2013 1.368 . S
C2032 C2026 1.368 . S
C2032 C2031 1.523 . S
C2033 C2017 1.429 . S
C2033 C2029 1.429 . S
C2033 C2034 1.523 . S
C2034 C2018 1.368 . S
C2034 C2030 1.368 . S
C2034 C2033 1.523 . S
H2035 C2010 0.950 . S
H2036 C2012 0.950 . S
H2037 C2013 0.949 . S
H2038 C2015 0.950 . S
H2039 C2017 0.950 . S
C2040 C2041 1.349 . S
C2040 C2042 1.327 . S
C2040 H2065 0.950 . S
C2041 C2040 1.349 . S
C2041 C2057 1.349 . S
C2042 C2040 1.327 . S
C2042 C2061 1.429 . S
C2042 H2066 0.950 . S
C2043 C2060 1.574 . S
C2043 C2062 1.368 . S
C2043 H2067 0.949 . S
H2044 C2048 0.949 . S
C2045 C2046 1.349 . S
C2045 C2047 1.327 . S
C2045 H2068 0.950 . S
C2046 C2045 1.349 . S
C2046 C2058 1.349 . S
C2047 C2045 1.327 . S
C2047 C2063 1.429 . S
C2047 H2069 0.950 . S
C2048 H2044 0.949 . S
C2048 C2056 1.574 . S
C2048 C2064 1.368 . S
H2049 C2057 0.950 . S
H2050 C2055 0.950 . S
H2051 C2056 0.949 . S
H2052 C2058 0.950 . S
H2053 C2059 0.950 . S
H2054 C2060 0.949 . S
C2055 H2050 0.950 . S
C2055 C2057 1.327 . S
C2055 C2061 1.429 . S
C2056 C2048 1.574 . S
C2056 H2051 0.949 . S
C2056 C2062 1.368 . S
C2057 C2041 1.349 . S
C2057 H2049 0.950 . S
C2057 C2055 1.327 . S
C2058 C2046 1.349 . S
C2058 H2052 0.950 . S
C2058 C2059 1.327 . S
C2059 H2053 0.950 . S
C2059 C2058 1.327 . S
C2059 C2063 1.429 . S
C2060 C2043 1.574 . S
C2060 H2054 0.949 . S
C2060 C2064 1.368 . S
C2061 C2042 1.429 . S
C2061 C2055 1.429 . S
C2061 C2062 1.523 . S
C2062 C2043 1.368 . S
C2062 C2056 1.368 . S
C2062 C2061 1.523 . S
C2063 C2047 1.429 . S
C2063 C2059 1.429 . S
C2063 C2064 1.523 . S
C2064 C2048 1.368 . S
C2064 C2060 1.368 . S
C2064 C2063 1.523 . S
H2065 C2040 0.950 . S
H2066 C2042 0.950 . S
H2067 C2043 0.949 . S
H2068 C2045 0.950 . S
H2069 C2047 0.950 . S
C2070 C2071 1.349 1_556 S
C2070 C2072 1.327 . S
C2070 H2095 0.950 . S
C2071 C2070 1.349 1_554 S
C2071 C2087 1.349 . S
C2072 C2070 1.327 . S
C2072 C2091 1.429 1_556 S
C2072 H2096 0.950 . S
C2073 C2090 1.574 . S
C2073 C2092 1.368 . S
C2073 H2097 0.949 . S
H2074 C2078 0.949 . S
C2075 C2076 1.440 . S
C2075 C2077 1.327 . S
C2075 H2098 0.950 . S
C2076 C2075 1.440 . S
C2076 C2088 1.264 1_554 S
C2077 C2075 1.327 . S
C2077 C2093 1.429 . S
C2077 H2099 0.950 . S
C2078 H2074 0.949 . S
C2078 C2086 1.574 . S
C2078 C2094 1.368 1_556 S
H2079 C2087 0.950 . S
H2080 C2085 0.950 . S
H2081 C2086 0.949 . S
H2082 C2088 0.950 . S
H2083 C2089 0.950 . S
H2084 C2090 0.949 . S
C2085 H2080 0.950 . S
C2085 C2087 1.327 . S
C2085 C2091 1.429 . S
C2086 C2078 1.574 . S
C2086 H2081 0.949 . S
C2086 C2092 1.368 1_556 S
C2087 C2071 1.349 . S
C2087 H2079 0.950 . S
C2087 C2085 1.327 . S
C2088 C2076 1.264 1_556 S
C2088 H2082 0.950 . S
C2088 C2089 1.327 . S
C2089 H2083 0.950 . S
C2089 C2088 1.327 . S
C2089 C2093 1.429 1_556 S
C2090 C2073 1.574 . S
C2090 H2084 0.949 . S
C2090 C2094 1.368 . S
C2091 C2072 1.429 1_554 S
C2091 C2085 1.429 . S
C2091 C2092 1.523 . S
C2092 C2073 1.368 . S
C2092 C2086 1.368 1_554 S
C2092 C2091 1.523 . S
C2093 C2077 1.429 . S
C2093 C2089 1.429 1_554 S
C2093 C2094 1.523 . S
C2094 C2078 1.368 1_554 S
C2094 C2090 1.368 . S
C2094 C2093 1.523 . S
H2095 C2070 0.950 . S
H2096 C2072 0.950 . S
H2097 C2073 0.949 . S
H2098 C2075 0.950 . S
H2099 C2077 0.950 . S
C2100 C2101 1.434 . S
C2100 C2102 1.327 . S
C2100 H2125 0.950 . S
C2101 C2100 1.434 . S
C2101 C2117 1.272 1_554 S
C2102 C2100 1.327 . S
C2102 C2121 1.429 . S
C2102 H2126 0.950 . S
C2103 C2120 1.574 . S
C2103 C2122 1.368 1_556 S
C2103 H2127 0.949 . S
H2104 C2108 0.949 . S
C2105 C2106 1.349 1_556 S
C2105 C2107 1.327 . S
C2105 H2128 0.950 . S
C2106 C2105 1.349 1_554 S
C2106 C2118 1.349 . S
C2107 C2105 1.327 . S
C2107 C2123 1.429 1_556 S
C2107 H2129 0.950 . S
C2108 H2104 0.949 . S
C2108 C2116 1.574 . S
C2108 C2124 1.368 . S
H2109 C2117 0.950 . S
H2110 C2115 0.950 . S
H2111 C2116 0.949 . S
H2112 C2118 0.950 . S
H2113 C2119 0.950 . S
H2114 C2120 0.949 . S
C2115 H2110 0.950 . S
C2115 C2117 1.327 . S
C2115 C2121 1.429 1_556 S
C2116 C2108 1.574 . S
C2116 H2111 0.949 . S
C2116 C2122 1.368 . S
C2117 C2101 1.272 1_556 S
C2117 H2109 0.950 . S
C2117 C2115 1.327 . S
C2118 C2106 1.349 . S
C2118 H2112 0.950 . S
C2118 C2119 1.327 . S
C2119 H2113 0.950 . S
C2119 C2118 1.327 . S
C2119 C2123 1.429 . S
C2120 C2103 1.574 . S
C2120 H2114 0.949 . S
C2120 C2124 1.368 1_556 S
C2121 C2102 1.429 . S
C2121 C2115 1.429 1_554 S
C2121 C2122 1.523 . S
C2122 C2103 1.368 1_554 S
C2122 C2116 1.368 . S
C2122 C2121 1.523 . S
C2123 C2107 1.429 1_554 S
C2123 C2119 1.429 . S
C2123 C2124 1.523 . S
C2124 C2108 1.368 . S
C2124 C2120 1.368 1_554 S
C2124 C2123 1.523 . S
H2125 C2100 0.950 . S
H2126 C2102 0.950 . S
H2127 C2103 0.949 . S
H2128 C2105 0.950 . S
H2129 C2107 0.950 . S
C2130 C2131 1.349 . S
C2130 C2132 1.327 . S
C2130 H2155 0.950 . S
C2131 C2130 1.349 . S
C2131 C2147 1.349 1_554 S
C2132 C2130 1.327 . S
C2132 C2151 1.429 . S
C2132 H2156 0.950 . S
C2133 C2150 1.574 . S
C2133 C2152 1.368 1_556 S
C2133 H2157 0.949 . S
H2134 C2138 0.949 . S
C2135 C2136 1.277 1_556 S
C2135 C2137 1.327 . S
C2135 H2158 0.950 . S
C2136 C2135 1.277 1_554 S
C2136 C2148 1.429 . S
C2137 C2135 1.327 . S
C2137 C2153 1.429 1_556 S
C2137 H2159 0.950 . S
C2138 H2134 0.949 . S
C2138 C2146 1.574 . S
C2138 C2154 1.368 . S
H2139 C2147 0.950 . S
H2140 C2145 0.950 . S
H2141 C2146 0.949 . S
H2142 C2148 0.950 . S
H2143 C2149 0.950 . S
H2144 C2150 0.949 . S
C2145 H2140 0.950 . S
C2145 C2147 1.327 . S
C2145 C2151 1.429 1_556 S
C2146 C2138 1.574 . S
C2146 H2141 0.949 . S
C2146 C2152 1.368 . S
C2147 C2131 1.349 1_556 S
C2147 H2139 0.950 . S
C2147 C2145 1.327 . S
C2148 C2136 1.429 . S
C2148 H2142 0.950 . S
C2148 C2149 1.327 . S
C2149 H2143 0.950 . S
C2149 C2148 1.327 . S
C2149 C2153 1.429 . S
C2150 C2133 1.574 . S
C2150 H2144 0.949 . S
C2150 C2154 1.368 1_556 S
C2151 C2132 1.429 . S
C2151 C2145 1.429 1_554 S
C2151 C2152 1.523 . S
C2152 C2133 1.368 1_554 S
C2152 C2146 1.368 . S
C2152 C2151 1.523 . S
C2153 C2137 1.429 1_554 S
C2153 C2149 1.429 . S
C2153 C2154 1.523 . S
C2154 C2138 1.368 . S
C2154 C2150 1.368 1_554 S
C2154 C2153 1.523 . S
H2155 C2130 0.950 . S
H2156 C2132 0.950 . S
H2157 C2133 0.949 . S
H2158 C2135 0.950 . S
H2159 C2137 0.950 . S
C2160 C2161 1.349 . S
C2160 C2162 1.327 . S
C2160 H2185 0.950 . S
C2161 C2160 1.349 . S
C2161 C2177 1.349 . S
C2162 C2160 1.327 . S
C2162 C2181 1.429 . S
C2162 H2186 0.950 . S
C2163 C2180 1.574 . S
C2163 C2182 1.368 . S
C2163 H2187 0.949 . S
H2164 C2168 0.949 . S
C2165 C2166 1.349 . S
C2165 C2167 1.327 . S
C2165 H2188 0.950 . S
C2166 C2165 1.349 . S
C2166 C2178 1.349 . S
C2167 C2165 1.327 . S
C2167 C2183 1.429 . S
C2167 H2189 0.950 . S
C2168 H2164 0.949 . S
C2168 C2176 1.574 . S
C2168 C2184 1.368 . S
H2169 C2177 0.950 . S
H2170 C2175 0.950 . S
H2171 C2176 0.949 . S
H2172 C2178 0.950 . S
H2173 C2179 0.950 . S
H2174 C2180 0.949 . S
C2175 H2170 0.950 . S
C2175 C2177 1.327 . S
C2175 C2181 1.429 . S
C2176 C2168 1.574 . S
C2176 H2171 0.949 . S
C2176 C2182 1.368 . S
C2177 C2161 1.349 . S
C2177 H2169 0.950 . S
C2177 C2175 1.327 . S
C2178 C2166 1.349 . S
C2178 H2172 0.950 . S
C2178 C2179 1.327 . S
C2179 H2173 0.950 . S
C2179 C2178 1.327 . S
C2179 C2183 1.429 . S
C2180 C2163 1.574 . S
C2180 H2174 0.949 . S
C2180 C2184 1.368 . S
C2181 C2162 1.429 . S
C2181 C2175 1.429 . S
C2181 C2182 1.523 . S
C2182 C2163 1.368 . S
C2182 C2176 1.368 . S
C2182 C2181 1.523 . S
C2183 C2167 1.429 . S
C2183 C2179 1.429 . S
C2183 C2184 1.523 . S
C2184 C2168 1.368 . S
C2184 C2180 1.368 . S
C2184 C2183 1.523 . S
H2185 C2160 0.950 . S
H2186 C2162 0.950 . S
H2187 C2163 0.949 . S
H2188 C2165 0.950 . S
H2189 C2167 0.950 . S
C2190 C2191 1.349 . S
C2190 C2192 1.327 . S
C2190 H2215 0.950 . S
C2191 C2190 1.349 . S
C2191 C2207 1.349 . S
C2192 C2190 1.327 . S
C2192 C2211 1.429 . S
C2192 H2216 0.950 . S
C2193 C2210 1.574 . S
C2193 C2212 1.368 . S
C2193 H2217 0.949 . S
H2194 C2198 0.949 . S
C2195 C2196 1.349 . S
C2195 C2197 1.327 . S
C2195 H2218 0.950 . S
C2196 C2195 1.349 . S
C2196 C2208 1.349 . S
C2197 C2195 1.327 . S
C2197 C2213 1.429 . S
C2197 H2219 0.950 . S
C2198 H2194 0.949 . S
C2198 C2206 1.574 . S
C2198 C2214 1.368 . S
H2199 C2207 0.950 . S
H2200 C2205 0.950 . S
H2201 C2206 0.949 . S
H2202 C2208 0.950 . S
H2203 C2209 0.950 . S
H2204 C2210 0.949 . S
C2205 H2200 0.950 . S
C2205 C2207 1.327 . S
C2205 C2211 1.429 . S
C2206 C2198 1.574 . S
C2206 H2201 0.949 . S
C2206 C2212 1.368 . S
C2207 C2191 1.349 . S
C2207 H2199 0.950 . S
C2207 C2205 1.327 . S
C2208 C2196 1.349 . S
C2208 H2202 0.950 . S
C2208 C2209 1.327 . S
C2209 H2203 0.950 . S
C2209 C2208 1.327 . S
C2209 C2213 1.429 . S
C2210 C2193 1.574 . S
C2210 H2204 0.949 . S
C2210 C2214 1.368 . S
C2211 C2192 1.429 . S
C2211 C2205 1.429 . S
C2211 C2212 1.523 . S
C2212 C2193 1.368 . S
C2212 C2206 1.368 . S
C2212 C2211 1.523 . S
C2213 C2197 1.429 . S
C2213 C2209 1.429 . S
C2213 C2214 1.523 . S
C2214 C2198 1.368 . S
C2214 C2210 1.368 . S
C2214 C2213 1.523 . S
H2215 C2190 0.950 . S
H2216 C2192 0.950 . S
H2217 C2193 0.949 . S
H2218 C2195 0.950 . S
H2219 C2197 0.950 . S
C2220 C2221 1.349 . S
C2220 C2222 1.327 . S
C2220 H2245 0.950 . S
C2221 C2220 1.349 . S
C2221 C2237 1.349 . S
C2222 C2220 1.327 . S
C2222 C2241 1.429 . S
C2222 H2246 0.950 . S
C2223 C2240 1.574 . S
C2223 C2242 1.368 . S
C2223 H2247 0.949 . S
H2224 C2228 0.949 . S
C2225 C2226 1.349 . S
C2225 C2227 1.327 . S
C2225 H2248 0.950 . S
C2226 C2225 1.349 . S
C2226 C2238 1.349 . S
C2227 C2225 1.327 . S
C2227 C2243 1.429 . S
C2227 H2249 0.950 . S
C2228 H2224 0.949 . S
C2228 C2236 1.574 . S
C2228 C2244 1.368 . S
H2229 C2237 0.950 . S
H2230 C2235 0.950 . S
H2231 C2236 0.949 . S
H2232 C2238 0.950 . S
H2233 C2239 0.950 . S
H2234 C2240 0.949 . S
C2235 H2230 0.950 . S
C2235 C2237 1.327 . S
C2235 C2241 1.429 . S
C2236 C2228 1.574 . S
C2236 H2231 0.949 . S
C2236 C2242 1.368 . S
C2237 C2221 1.349 . S
C2237 H2229 0.950 . S
C2237 C2235 1.327 . S
C2238 C2226 1.349 . S
C2238 H2232 0.950 . S
C2238 C2239 1.327 . S
C2239 H2233 0.950 . S
C2239 C2238 1.327 . S
C2239 C2243 1.429 . S
C2240 C2223 1.574 . S
C2240 H2234 0.949 . S
C2240 C2244 1.368 . S
C2241 C2222 1.429 . S
C2241 C2235 1.429 . S
C2241 C2242 1.523 . S
C2242 C2223 1.368 . S
C2242 C2236 1.368 . S
C2242 C2241 1.523 . S
C2243 C2227 1.429 . S
C2243 C2239 1.429 . S
C2243 C2244 1.523 . S
C2244 C2228 1.368 . S
C2244 C2240 1.368 . S
C2244 C2243 1.523 . S
H2245 C2220 0.950 . S
H2246 C2222 0.950 . S
H2247 C2223 0.949 . S
H2248 C2225 0.950 . S
H2249 C2227 0.950 . S
C2250 C2251 1.446 . S
C2250 C2252 1.327 . S
C2250 H2275 0.950 . S
C2251 C2250 1.446 . S
C2251 C2267 1.258 1_556 S
C2252 C2250 1.327 . S
C2252 C2271 1.429 . S
C2252 H2276 0.950 . S
C2253 C2270 1.574 . S
C2253 C2272 1.368 1_554 S
C2253 H2277 0.949 . S
H2254 C2258 0.949 . S
C2255 C2256 1.349 1_554 S
C2255 C2257 1.327 . S
C2255 H2278 0.950 . S
C2256 C2255 1.349 1_556 S
C2256 C2268 1.349 . S
C2257 C2255 1.327 . S
C2257 C2273 1.429 1_554 S
C2257 H2279 0.950 . S
C2258 H2254 0.949 . S
C2258 C2266 1.574 . S
C2258 C2274 1.368 . S
H2259 C2267 0.950 . S
H2260 C2265 0.950 . S
H2261 C2266 0.949 . S
H2262 C2268 0.950 . S
H2263 C2269 0.950 . S
H2264 C2270 0.949 . S
C2265 H2260 0.950 . S
C2265 C2267 1.327 . S
C2265 C2271 1.429 1_554 S
C2266 C2258 1.574 . S
C2266 H2261 0.949 . S
C2266 C2272 1.368 . S
C2267 C2251 1.258 1_554 S
C2267 H2259 0.950 . S
C2267 C2265 1.327 . S
C2268 C2256 1.349 . S
C2268 H2262 0.950 . S
C2268 C2269 1.327 . S
C2269 H2263 0.950 . S
C2269 C2268 1.327 . S
C2269 C2273 1.429 . S
C2270 C2253 1.574 . S
C2270 H2264 0.949 . S
C2270 C2274 1.368 1_554 S
C2271 C2252 1.429 . S
C2271 C2265 1.429 1_556 S
C2271 C2272 1.523 . S
C2272 C2253 1.368 1_556 S
C2272 C2266 1.368 . S
C2272 C2271 1.523 . S
C2273 C2257 1.429 1_556 S
C2273 C2269 1.429 . S
C2273 C2274 1.523 . S
C2274 C2258 1.368 . S
C2274 C2270 1.368 1_556 S
C2274 C2273 1.523 . S
H2275 C2250 0.950 . S
H2276 C2252 0.950 . S
H2277 C2253 0.949 . S
H2278 C2255 0.950 . S
H2279 C2257 0.950 . S
C2280 C2281 1.273 1_554 S
C2280 C2282 1.327 . S
C2280 H2305 0.950 . S
C2281 C2280 1.273 1_556 S
C2281 C2297 1.432 . S
C2282 C2280 1.327 . S
C2282 C2301 1.429 1_554 S
C2282 H2306 0.950 . S
C2283 C2300 1.574 . S
C2283 C2302 1.368 . S
C2283 H2307 0.949 . S
H2284 C2288 0.949 . S
C2285 C2286 1.349 . S
C2285 C2287 1.327 . S
C2285 H2308 0.950 . S
C2286 C2285 1.349 . S
C2286 C2298 1.349 1_556 S
C2287 C2285 1.327 . S
C2287 C2303 1.429 . S
C2287 H2309 0.950 . S
C2288 H2284 0.949 . S
C2288 C2296 1.574 . S
C2288 C2304 1.368 1_554 S
H2289 C2297 0.950 . S
H2290 C2295 0.950 . S
H2291 C2296 0.949 . S
H2292 C2298 0.950 . S
H2293 C2299 0.950 . S
H2294 C2300 0.949 . S
C2295 H2290 0.950 . S
C2295 C2297 1.327 . S
C2295 C2301 1.429 . S
C2296 C2288 1.574 . S
C2296 H2291 0.949 . S
C2296 C2302 1.368 1_554 S
C2297 C2281 1.432 . S
C2297 H2289 0.950 . S
C2297 C2295 1.327 . S
C2298 C2286 1.349 1_554 S
C2298 H2292 0.950 . S
C2298 C2299 1.327 . S
C2299 H2293 0.950 . S
C2299 C2298 1.327 . S
C2299 C2303 1.429 1_554 S
C2300 C2283 1.574 . S
C2300 H2294 0.949 . S
C2300 C2304 1.368 . S
C2301 C2282 1.429 1_556 S
C2301 C2295 1.429 . S
C2301 C2302 1.523 . S
C2302 C2283 1.368 . S
C2302 C2296 1.368 1_556 S
C2302 C2301 1.523 . S
C2303 C2287 1.429 . S
C2303 C2299 1.429 1_556 S
C2303 C2304 1.523 . S
C2304 C2288 1.368 1_556 S
C2304 C2300 1.368 . S
C2304 C2303 1.523 . S
H2305 C2280 0.950 . S
H2306 C2282 0.950 . S
H2307 C2283 0.949 . S
H2308 C2285 0.950 . S
H2309 C2287 0.950 . S
C2310 C2311 1.436 . S
C2310 C2312 1.327 . S
C2310 H2335 0.950 . S
C2311 C2310 1.436 . S
C2311 C2327 1.269 1_556 S
C2312 C2310 1.327 . S
C2312 C2331 1.429 . S
C2312 H2336 0.950 . S
C2313 C2330 1.574 . S
C2313 C2332 1.368 1_554 S
C2313 H2337 0.949 . S
H2314 C2318 0.949 . S
C2315 C2316 1.349 1_554 S
C2315 C2317 1.327 . S
C2315 H2338 0.950 . S
C2316 C2315 1.349 1_556 S
C2316 C2328 1.349 . S
C2317 C2315 1.327 . S
C2317 C2333 1.429 1_554 S
C2317 H2339 0.950 . S
C2318 H2314 0.949 . S
C2318 C2326 1.574 . S
C2318 C2334 1.368 . S
H2319 C2327 0.950 . S
H2320 C2325 0.950 . S
H2321 C2326 0.949 . S
H2322 C2328 0.950 . S
H2323 C2329 0.950 . S
H2324 C2330 0.949 . S
C2325 H2320 0.950 . S
C2325 C2327 1.327 . S
C2325 C2331 1.429 1_554 S
C2326 C2318 1.574 . S
C2326 H2321 0.949 . S
C2326 C2332 1.368 . S
C2327 C2311 1.269 1_554 S
C2327 H2319 0.950 . S
C2327 C2325 1.327 . S
C2328 C2316 1.349 . S
C2328 H2322 0.950 . S
C2328 C2329 1.327 . S
C2329 H2323 0.950 . S
C2329 C2328 1.327 . S
C2329 C2333 1.429 . S
C2330 C2313 1.574 . S
C2330 H2324 0.949 . S
C2330 C2334 1.368 1_554 S
C2331 C2312 1.429 . S
C2331 C2325 1.429 1_556 S
C2331 C2332 1.523 . S
C2332 C2313 1.368 1_556 S
C2332 C2326 1.368 . S
C2332 C2331 1.523 . S
C2333 C2317 1.429 1_556 S
C2333 C2329 1.429 . S
C2333 C2334 1.523 . S
C2334 C2318 1.368 . S
C2334 C2330 1.368 1_556 S
C2334 C2333 1.523 . S
H2335 C2310 0.950 . S
H2336 C2312 0.950 . S
H2337 C2313 0.949 . S
H2338 C2315 0.950 . S
H2339 C2317 0.950 . S
C2340 C2341 1.349 . S
C2340 C2342 1.327 . S
C2340 H2365 0.950 . S
C2341 C2340 1.349 . S
C2341 C2357 1.349 . S
C2342 C2340 1.327 . S
C2342 C2361 1.429 . S
C2342 H2366 0.950 . S
C2343 C2360 1.574 . S
C2343 C2362 1.368 . S
C2343 H2367 0.949 . S
H2344 C2348 0.949 . S
C2345 C2346 1.349 . S
C2345 C2347 1.327 . S
C2345 H2368 0.950 . S
C2346 C2345 1.349 . S
C2346 C2358 1.349 . S
C2347 C2345 1.327 . S
C2347 C2363 1.429 . S
C2347 H2369 0.950 . S
C2348 H2344 0.949 . S
C2348 C2356 1.574 . S
C2348 C2364 1.368 . S
H2349 C2357 0.950 . S
H2350 C2355 0.950 . S
H2351 C2356 0.949 . S
H2352 C2358 0.950 . S
H2353 C2359 0.950 . S
H2354 C2360 0.949 . S
C2355 H2350 0.950 . S
C2355 C2357 1.327 . S
C2355 C2361 1.429 . S
C2356 C2348 1.574 . S
C2356 H2351 0.949 . S
C2356 C2362 1.368 . S
C2357 C2341 1.349 . S
C2357 H2349 0.950 . S
C2357 C2355 1.327 . S
C2358 C2346 1.349 . S
C2358 H2352 0.950 . S
C2358 C2359 1.327 . S
C2359 H2353 0.950 . S
C2359 C2358 1.327 . S
C2359 C2363 1.429 . S
C2360 C2343 1.574 . S
C2360 H2354 0.949 . S
C2360 C2364 1.368 . S
C2361 C2342 1.429 . S
C2361 C2355 1.429 . S
C2361 C2362 1.523 . S
C2362 C2343 1.368 . S
C2362 C2356 1.368 . S
C2362 C2361 1.523 . S
C2363 C2347 1.429 . S
C2363 C2359 1.429 . S
C2363 C2364 1.523 . S
C2364 C2348 1.368 . S
C2364 C2360 1.368 . S
C2364 C2363 1.523 . S
H2365 C2340 0.950 . S
H2366 C2342 0.950 . S
H2367 C2343 0.949 . S
H2368 C2345 0.950 . S
H2369 C2347 0.950 . S
C2370 C2371 1.349 . S
C2370 C2372 1.327 . S
C2370 H2395 0.950 . S
C2371 C2370 1.349 . S
C2371 C2387 1.349 . S
C2372 C2370 1.327 . S
C2372 C2391 1.429 . S
C2372 H2396 0.950 . S
C2373 C2390 1.574 . S
C2373 C2392 1.368 . S
C2373 H2397 0.949 . S
H2374 C2378 0.949 . S
C2375 C2376 1.349 . S
C2375 C2377 1.327 . S
C2375 H2398 0.950 . S
C2376 C2375 1.349 . S
C2376 C2388 1.349 . S
C2377 C2375 1.327 . S
C2377 C2393 1.429 . S
C2377 H2399 0.950 . S
C2378 H2374 0.949 . S
C2378 C2386 1.574 . S
C2378 C2394 1.368 . S
H2379 C2387 0.950 . S
H2380 C2385 0.950 . S
H2381 C2386 0.949 . S
H2382 C2388 0.950 . S
H2383 C2389 0.950 . S
H2384 C2390 0.949 . S
C2385 H2380 0.950 . S
C2385 C2387 1.327 . S
C2385 C2391 1.429 . S
C2386 C2378 1.574 . S
C2386 H2381 0.949 . S
C2386 C2392 1.368 . S
C2387 C2371 1.349 . S
C2387 H2379 0.950 . S
C2387 C2385 1.327 . S
C2388 C2376 1.349 . S
C2388 H2382 0.950 . S
C2388 C2389 1.327 . S
C2389 H2383 0.950 . S
C2389 C2388 1.327 . S
C2389 C2393 1.429 . S
C2390 C2373 1.574 . S
C2390 H2384 0.949 . S
C2390 C2394 1.368 . S
C2391 C2372 1.429 . S
C2391 C2385 1.429 . S
C2391 C2392 1.523 . S
C2392 C2373 1.368 . S
C2392 C2386 1.368 . S
C2392 C2391 1.523 . S
C2393 C2377 1.429 . S
C2393 C2389 1.429 . S
C2393 C2394 1.523 . S
C2394 C2378 1.368 . S
C2394 C2390 1.368 . S
C2394 C2393 1.523 . S
H2395 C2370 0.950 . S
H2396 C2372 0.950 . S
H2397 C2373 0.949 . S
H2398 C2375 0.950 . S
H2399 C2377 0.950 . S
C2400 C2401 1.349 . S
C2400 C2402 1.327 . S
C2400 H2425 0.950 . S
C2401 C2400 1.349 . S
C2401 C2417 1.349 . S
C2402 C2400 1.327 . S
C2402 C2421 1.429 . S
C2402 H2426 0.950 . S
C2403 C2420 1.574 . S
C2403 C2422 1.368 . S
C2403 H2427 0.949 . S
H2404 C2408 0.949 . S
C2405 C2406 1.349 . S
C2405 C2407 1.327 . S
C2405 H2428 0.950 . S
C2406 C2405 1.349 . S
C2406 C2418 1.349 . S
C2407 C2405 1.327 . S
C2407 C2423 1.429 . S
C2407 H2429 0.950 . S
C2408 H2404 0.949 . S
C2408 C2416 1.574 . S
C2408 C2424 1.368 . S
H2409 C2417 0.950 . S
H2410 C2415 0.950 . S
H2411 C2416 0.949 . S
H2412 C2418 0.950 . S
H2413 C2419 0.950 . S
H2414 C2420 0.949 . S
C2415 H2410 0.950 . S
C2415 C2417 1.327 . S
C2415 C2421 1.429 . S
C2416 C2408 1.574 . S
C2416 H2411 0.949 . S
C2416 C2422 1.368 . S
C2417 C2401 1.349 . S
C2417 H2409 0.950 . S
C2417 C2415 1.327 . S
C2418 C2406 1.349 . S
C2418 H2412 0.950 . S
C2418 C2419 1.327 . S
C2419 H2413 0.950 . S
C2419 C2418 1.327 . S
C2419 C2423 1.429 . S
C2420 C2403 1.574 . S
C2420 H2414 0.949 . S
C2420 C2424 1.368 . S
C2421 C2402 1.429 . S
C2421 C2415 1.429 . S
C2421 C2422 1.523 . S
C2422 C2403 1.368 . S
C2422 C2416 1.368 . S
C2422 C2421 1.523 . S
C2423 C2407 1.429 . S
C2423 C2419 1.429 . S
C2423 C2424 1.523 . S
C2424 C2408 1.368 . S
C2424 C2420 1.368 . S
C2424 C2423 1.523 . S
H2425 C2400 0.950 . S
H2426 C2402 0.950 . S
H2427 C2403 0.949 . S
H2428 C2405 0.950 . S
H2429 C2407 0.950 . S
C2430 C2431 1.349 . S
C2430 C2432 1.327 . S
C2430 H2455 0.950 . S
C2431 C2430 1.349 . S
C2431 C2447 1.349 . S
C2432 C2430 1.327 . S
C2432 C2451 1.429 . S
C2432 H2456 0.950 . S
C2433 C2450 1.574 . S
C2433 C2452 1.368 . S
C2433 H2457 0.949 . S
H2434 C2438 0.949 . S
C2435 C2436 1.349 . S
C2435 C2437 1.327 . S
C2435 H2458 0.950 . S
C2436 C2435 1.349 . S
C2436 C2448 1.349 . S
C2437 C2435 1.327 . S
C2437 C2453 1.429 . S
C2437 H2459 0.950 . S
C2438 H2434 0.949 . S
C2438 C2446 1.574 . S
C2438 C2454 1.368 . S
H2439 C2447 0.950 . S
H2440 C2445 0.950 . S
H2441 C2446 0.949 . S
H2442 C2448 0.950 . S
H2443 C2449 0.950 . S
H2444 C2450 0.949 . S
C2445 H2440 0.950 . S
C2445 C2447 1.327 . S
C2445 C2451 1.429 . S
C2446 C2438 1.574 . S
C2446 H2441 0.949 . S
C2446 C2452 1.368 . S
C2447 C2431 1.349 . S
C2447 H2439 0.950 . S
C2447 C2445 1.327 . S
C2448 C2436 1.349 . S
C2448 H2442 0.950 . S
C2448 C2449 1.327 . S
C2449 H2443 0.950 . S
C2449 C2448 1.327 . S
C2449 C2453 1.429 . S
C2450 C2433 1.574 . S
C2450 H2444 0.949 . S
C2450 C2454 1.368 . S
C2451 C2432 1.429 . S
C2451 C2445 1.429 . S
C2451 C2452 1.523 . S
C2452 C2433 1.368 . S
C2452 C2446 1.368 . S
C2452 C2451 1.523 . S
C2453 C2437 1.429 . S
C2453 C2449 1.429 . S
C2453 C2454 1.523 . S
C2454 C2438 1.368 . S
C2454 C2450 1.368 . S
C2454 C2453 1.523 . S
H2455 C2430 0.950 . S
H2456 C2432 0.950 . S
H2457 C2433 0.949 . S
H2458 C2435 0.950 . S
H2459 C2437 0.950 . S
C2460 C2461 1.349 . S
C2460 C2462 1.327 . S
C2460 H2485 0.950 . S
C2461 C2460 1.349 . S
C2461 C2477 1.349 . S
C2462 C2460 1.327 . S
C2462 C2481 1.429 . S
C2462 H2486 0.950 . S
C2463 C2480 1.574 . S
C2463 C2482 1.368 . S
C2463 H2487 0.949 . S
H2464 C2468 0.949 . S
C2465 C2466 1.349 . S
C2465 C2467 1.327 . S
C2465 H2488 0.950 . S
C2466 C2465 1.349 . S
C2466 C2478 1.349 . S
C2467 C2465 1.327 . S
C2467 C2483 1.429 . S
C2467 H2489 0.950 . S
C2468 H2464 0.949 . S
C2468 C2476 1.574 . S
C2468 C2484 1.368 . S
H2469 C2477 0.950 . S
H2470 C2475 0.950 . S
H2471 C2476 0.949 . S
H2472 C2478 0.950 . S
H2473 C2479 0.950 . S
H2474 C2480 0.949 . S
C2475 H2470 0.950 . S
C2475 C2477 1.327 . S
C2475 C2481 1.429 . S
C2476 C2468 1.574 . S
C2476 H2471 0.949 . S
C2476 C2482 1.368 . S
C2477 C2461 1.349 . S
C2477 H2469 0.950 . S
C2477 C2475 1.327 . S
C2478 C2466 1.349 . S
C2478 H2472 0.950 . S
C2478 C2479 1.327 . S
C2479 H2473 0.950 . S
C2479 C2478 1.327 . S
C2479 C2483 1.429 . S
C2480 C2463 1.574 . S
C2480 H2474 0.949 . S
C2480 C2484 1.368 . S
C2481 C2462 1.429 . S
C2481 C2475 1.429 . S
C2481 C2482 1.523 . S
C2482 C2463 1.368 . S
C2482 C2476 1.368 . S
C2482 C2481 1.523 . S
C2483 C2467 1.429 . S
C2483 C2479 1.429 . S
C2483 C2484 1.523 . S
C2484 C2468 1.368 . S
C2484 C2480 1.368 . S
C2484 C2483 1.523 . S
H2485 C2460 0.950 . S
H2486 C2462 0.950 . S
H2487 C2463 0.949 . S
H2488 C2465 0.950 . S
H2489 C2467 0.950 . S
C2490 C2491 1.349 . S
C2490 C2492 1.327 . S
C2490 H2515 0.950 . S
C2491 C2490 1.349 . S
C2491 C2507 1.349 . S
C2492 C2490 1.327 . S
C2492 C2511 1.429 . S
C2492 H2516 0.950 . S
C2493 C2510 1.574 . S
C2493 C2512 1.368 . S
C2493 H2517 0.949 . S
H2494 C2498 0.949 . S
C2495 C2496 1.349 . S
C2495 C2497 1.327 . S
C2495 H2518 0.950 . S
C2496 C2495 1.349 . S
C2496 C2508 1.349 . S
C2497 C2495 1.327 . S
C2497 C2513 1.429 . S
C2497 H2519 0.950 . S
C2498 H2494 0.949 . S
C2498 C2506 1.574 . S
C2498 C2514 1.368 . S
H2499 C2507 0.950 . S
H2500 C2505 0.950 . S
H2501 C2506 0.949 . S
H2502 C2508 0.950 . S
H2503 C2509 0.950 . S
H2504 C2510 0.949 . S
C2505 H2500 0.950 . S
C2505 C2507 1.327 . S
C2505 C2511 1.429 . S
C2506 C2498 1.574 . S
C2506 H2501 0.949 . S
C2506 C2512 1.368 . S
C2507 C2491 1.349 . S
C2507 H2499 0.950 . S
C2507 C2505 1.327 . S
C2508 C2496 1.349 . S
C2508 H2502 0.950 . S
C2508 C2509 1.327 . S
C2509 H2503 0.950 . S
C2509 C2508 1.327 . S
C2509 C2513 1.429 . S
C2510 C2493 1.574 . S
C2510 H2504 0.949 . S
C2510 C2514 1.368 . S
C2511 C2492 1.429 . S
C2511 C2505 1.429 . S
C2511 C2512 1.523 . S
C2512 C2493 1.368 . S
C2512 C2506 1.368 . S
C2512 C2511 1.523 . S
C2513 C2497 1.429 . S
C2513 C2509 1.429 . S
C2513 C2514 1.523 . S
C2514 C2498 1.368 . S
C2514 C2510 1.368 . S
C2514 C2513 1.523 . S
H2515 C2490 0.950 . S
H2516 C2492 0.950 . S
H2517 C2493 0.949 . S
H2518 C2495 0.950 . S
H2519 C2497 0.950 . S
C2520 C2521 1.349 . S
C2520 C2522 1.327 . S
C2520 H2545 0.950 . S
C2521 C2520 1.349 . S
C2521 C2537 1.349 . S
C2522 C2520 1.327 . S
C2522 C2541 1.429 . S
C2522 H2546 0.950 . S
C2523 C2540 1.574 . S
C2523 C2542 1.368 . S
C2523 H2547 0.949 . S
H2524 C2528 0.949 . S
C2525 C2526 1.349 . S
C2525 C2527 1.327 . S
C2525 H2548 0.950 . S
C2526 C2525 1.349 . S
C2526 C2538 1.349 . S
C2527 C2525 1.327 . S
C2527 C2543 1.429 . S
C2527 H2549 0.950 . S
C2528 H2524 0.949 . S
C2528 C2536 1.574 . S
C2528 C2544 1.368 . S
H2529 C2537 0.950 . S
H2530 C2535 0.950 . S
H2531 C2536 0.949 . S
H2532 C2538 0.950 . S
H2533 C2539 0.950 . S
H2534 C2540 0.949 . S
C2535 H2530 0.950 . S
C2535 C2537 1.327 . S
C2535 C2541 1.429 . S
C2536 C2528 1.574 . S
C2536 H2531 0.949 . S
C2536 C2542 1.368 . S
C2537 C2521 1.349 . S
C2537 H2529 0.950 . S
C2537 C2535 1.327 . S
C2538 C2526 1.349 . S
C2538 H2532 0.950 . S
C2538 C2539 1.327 . S
C2539 H2533 0.950 . S
C2539 C2538 1.327 . S
C2539 C2543 1.429 . S
C2540 C2523 1.574 . S
C2540 H2534 0.949 . S
C2540 C2544 1.368 . S
C2541 C2522 1.429 . S
C2541 C2535 1.429 . S
C2541 C2542 1.523 . S
C2542 C2523 1.368 . S
C2542 C2536 1.368 . S
C2542 C2541 1.523 . S
C2543 C2527 1.429 . S
C2543 C2539 1.429 . S
C2543 C2544 1.523 . S
C2544 C2528 1.368 . S
C2544 C2540 1.368 . S
C2544 C2543 1.523 . S
H2545 C2520 0.950 . S
H2546 C2522 0.950 . S
H2547 C2523 0.949 . S
H2548 C2525 0.950 . S
H2549 C2527 0.950 . S
C2550 C2551 1.349 . S
C2550 C2552 1.327 . S
C2550 H2575 0.950 . S
C2551 C2550 1.349 . S
C2551 C2567 1.349 . S
C2552 C2550 1.327 . S
C2552 C2571 1.429 1_545 S
C2552 H2576 0.950 1_545 S
C2553 C2570 1.574 . S
C2553 C2572 1.368 . S
C2553 H2577 0.949 . S
H2554 C2558 0.949 . S
C2555 C2556 1.349 . S
C2555 C2557 1.327 . S
C2555 H2578 0.950 . S
C2556 C2555 1.349 . S
C2556 C2568 1.349 . S
C2557 C2555 1.327 . S
C2557 C2573 1.429 . S
C2557 H2579 0.950 . S
C2558 H2554 0.949 . S
C2558 C2566 1.574 . S
C2558 C2574 1.368 . S
H2559 C2567 0.950 . S
H2560 C2565 0.950 . S
H2561 C2566 0.949 . S
H2562 C2568 0.950 . S
H2563 C2569 0.950 . S
H2564 C2570 0.949 . S
C2565 H2560 0.950 . S
C2565 C2567 1.327 . S
C2565 C2571 1.429 1_545 S
C2566 C2558 1.574 . S
C2566 H2561 0.949 . S
C2566 C2572 1.368 . S
C2567 C2551 1.349 . S
C2567 H2559 0.950 . S
C2567 C2565 1.327 . S
C2568 C2556 1.349 . S
C2568 H2562 0.950 . S
C2568 C2569 1.327 . S
C2569 H2563 0.950 . S
C2569 C2568 1.327 . S
C2569 C2573 1.429 . S
C2570 C2553 1.574 . S
C2570 H2564 0.949 . S
C2570 C2574 1.368 . S
C2571 C2552 1.429 1_565 S
C2571 C2565 1.429 1_565 S
C2571 C2572 1.523 . S
C2572 C2553 1.368 . S
C2572 C2566 1.368 . S
C2572 C2571 1.523 . S
C2573 C2557 1.429 . S
C2573 C2569 1.429 . S
C2573 C2574 1.523 . S
C2574 C2558 1.368 . S
C2574 C2570 1.368 . S
C2574 C2573 1.523 . S
H2575 C2550 0.950 . S
H2576 C2552 0.950 1_565 S
H2577 C2553 0.949 . S
H2578 C2555 0.950 . S
H2579 C2557 0.950 . S
C2580 C2581 1.349 . S
C2580 C2582 1.327 . S
C2580 H2605 0.950 . S
C2581 C2580 1.349 . S
C2581 C2597 1.349 . S
C2582 C2580 1.327 . S
C2582 C2601 1.429 . S
C2582 H2606 0.950 . S
C2583 C2600 1.574 . S
C2583 C2602 1.368 . S
C2583 H2607 0.949 . S
H2584 C2588 0.949 1_655 S
C2585 C2586 1.349 . S
C2585 C2587 1.327 1_655 S
C2585 H2608 0.950 . S
C2586 C2585 1.349 . S
C2586 C2598 1.349 . S
C2587 C2585 1.327 1_455 S
C2587 C2603 1.429 . S
C2587 H2609 0.950 . S
C2588 H2584 0.949 1_455 S
C2588 C2596 1.574 . S
C2588 C2604 1.368 . S
H2589 C2597 0.950 . S
H2590 C2595 0.950 . S
H2591 C2596 0.949 . S
H2592 C2598 0.950 . S
H2593 C2599 0.950 . S
H2594 C2600 0.949 . S
C2595 H2590 0.950 . S
C2595 C2597 1.327 . S
C2595 C2601 1.429 . S
C2596 C2588 1.574 . S
C2596 H2591 0.949 . S
C2596 C2602 1.368 . S
C2597 C2581 1.349 . S
C2597 H2589 0.950 . S
C2597 C2595 1.327 . S
C2598 C2586 1.349 . S
C2598 H2592 0.950 . S
C2598 C2599 1.327 . S
C2599 H2593 0.950 . S
C2599 C2598 1.327 . S
C2599 C2603 1.429 1_655 S
C2600 C2583 1.574 . S
C2600 H2594 0.949 . S
C2600 C2604 1.368 . S
C2601 C2582 1.429 . S
C2601 C2595 1.429 . S
C2601 C2602 1.523 . S
C2602 C2583 1.368 . S
C2602 C2596 1.368 . S
C2602 C2601 1.523 . S
C2603 C2587 1.429 . S
C2603 C2599 1.429 1_455 S
C2603 C2604 1.523 . S
C2604 C2588 1.368 . S
C2604 C2600 1.368 . S
C2604 C2603 1.523 . S
H2605 C2580 0.950 . S
H2606 C2582 0.950 . S
H2607 C2583 0.949 . S
H2608 C2585 0.950 . S
H2609 C2587 0.950 . S
C2610 C2611 1.349 . S
C2610 C2612 1.327 . S
C2610 H2635 0.950 . S
C2611 C2610 1.349 . S
C2611 C2627 1.349 . S
C2612 C2610 1.327 . S
C2612 C2631 1.429 . S
C2612 H2636 0.950 . S
C2613 C2630 1.574 . S
C2613 C2632 1.368 . S
C2613 H2637 0.949 . S
H2614 C2618 0.949 . S
C2615 C2616 1.349 . S
C2615 C2617 1.327 . S
C2615 H2638 0.950 . S
C2616 C2615 1.349 . S
C2616 C2628 1.349 . S
C2617 C2615 1.327 . S
C2617 C2633 1.429 . S
C2617 H2639 0.950 . S
C2618 H2614 0.949 . S
C2618 C2626 1.574 . S
C2618 C2634 1.368 . S
H2619 C2627 0.950 . S
H2620 C2625 0.950 . S
H2621 C2626 0.949 . S
H2622 C2628 0.950 . S
H2623 C2629 0.950 . S
H2624 C2630 0.949 . S
C2625 H2620 0.950 . S
C2625 C2627 1.327 . S
C2625 C2631 1.429 . S
C2626 C2618 1.574 . S
C2626 H2621 0.949 . S
C2626 C2632 1.368 . S
C2627 C2611 1.349 . S
C2627 H2619 0.950 . S
C2627 C2625 1.327 . S
C2628 C2616 1.349 . S
C2628 H2622 0.950 . S
C2628 C2629 1.327 . S
C2629 H2623 0.950 . S
C2629 C2628 1.327 . S
C2629 C2633 1.429 . S
C2630 C2613 1.574 . S
C2630 H2624 0.949 . S
C2630 C2634 1.368 . S
C2631 C2612 1.429 . S
C2631 C2625 1.429 . S
C2631 C2632 1.523 . S
C2632 C2613 1.368 . S
C2632 C2626 1.368 . S
C2632 C2631 1.523 . S
C2633 C2617 1.429 . S
C2633 C2629 1.429 . S
C2633 C2634 1.523 . S
C2634 C2618 1.368 . S
C2634 C2630 1.368 . S
C2634 C2633 1.523 . S
H2635 C2610 0.950 . S
H2636 C2612 0.950 . S
H2637 C2613 0.949 . S
H2638 C2615 0.950 . S
H2639 C2617 0.950 . S
C2640 C2641 1.349 . S
C2640 C2642 1.327 . S
C2640 H2665 0.950 . S
C2641 C2640 1.349 . S
C2641 C2657 1.349 . S
C2642 C2640 1.327 . S
C2642 C2661 1.409 1_565 S
C2642 H2666 0.950 . S
C2643 C2660 1.574 . S
C2643 C2662 1.368 . S
C2643 H2667 0.949 . S
H2644 C2648 0.949 . S
C2645 C2646 1.349 . S
C2645 C2647 1.327 . S
C2645 H2668 0.950 . S
C2646 C2645 1.349 . S
C2646 C2658 1.349 . S
C2647 C2645 1.327 . S
C2647 C2663 1.429 . S
C2647 H2669 0.950 . S
C2648 H2644 0.949 . S
C2648 C2656 1.574 . S
C2648 C2664 1.368 . S
H2649 C2657 0.950 . S
H2650 C2655 0.950 . S
H2651 C2656 0.949 1_565 S
H2652 C2658 0.950 . S
H2653 C2659 0.950 . S
H2654 C2660 0.949 . S
C2655 H2650 0.950 . S
C2655 C2657 1.327 1_545 S
C2655 C2661 1.449 . S
C2656 C2648 1.574 . S
C2656 H2651 0.949 1_545 S
C2656 C2662 1.368 . S
C2657 C2641 1.349 . S
C2657 H2649 0.950 . S
C2657 C2655 1.327 1_565 S
C2658 C2646 1.349 . S
C2658 H2652 0.950 . S
C2658 C2659 1.327 . S
C2659 H2653 0.950 . S
C2659 C2658 1.327 . S
C2659 C2663 1.429 . S
C2660 C2643 1.574 . S
C2660 H2654 0.949 . S
C2660 C2664 1.368 . S
C2661 C2642 1.409 1_545 S
C2661 C2655 1.449 . S
C2661 C2662 1.523 . S
C2662 C2643 1.368 . S
C2662 C2656 1.368 . S
C2662 C2661 1.523 . S
C2663 C2647 1.429 . S
C2663 C2659 1.429 . S
C2663 C2664 1.523 . S
C2664 C2648 1.368 . S
C2664 C2660 1.368 . S
C2664 C2663 1.523 . S
H2665 C2640 0.950 . S
H2666 C2642 0.950 . S
H2667 C2643 0.949 . S
H2668 C2645 0.950 . S
H2669 C2647 0.950 . S
C2670 C2671 1.349 . S
C2670 C2672 1.327 . S
C2670 H2695 0.950 . S
C2671 C2670 1.349 . S
C2671 C2687 1.349 . S
C2672 C2670 1.327 . S
C2672 C2691 1.429 . S
C2672 H2696 0.950 . S
C2673 C2690 1.574 . S
C2673 C2692 1.368 . S
C2673 H2697 0.949 . S
H2674 C2678 0.949 1_455 S
C2675 C2676 1.349 . S
C2675 C2677 1.327 1_455 S
C2675 H2698 0.950 . S
C2676 C2675 1.349 . S
C2676 C2688 1.349 . S
C2677 C2675 1.327 1_655 S
C2677 C2693 1.420 . S
C2677 H2699 0.950 . S
C2678 H2674 0.949 1_655 S
C2678 C2686 1.574 . S
C2678 C2694 1.368 . S
H2679 C2687 0.950 . S
H2680 C2685 0.950 . S
H2681 C2686 0.949 . S
H2682 C2688 0.950 . S
H2683 C2689 0.950 . S
H2684 C2690 0.949 . S
C2685 H2680 0.950 . S
C2685 C2687 1.327 . S
C2685 C2691 1.429 . S
C2686 C2678 1.574 . S
C2686 H2681 0.949 . S
C2686 C2692 1.368 . S
C2687 C2671 1.349 . S
C2687 H2679 0.950 . S
C2687 C2685 1.327 . S
C2688 C2676 1.349 . S
C2688 H2682 0.950 . S
C2688 C2689 1.327 . S
C2689 H2683 0.950 . S
C2689 C2688 1.327 . S
C2689 C2693 1.399 1_455 S
C2690 C2673 1.574 . S
C2690 H2684 0.949 . S
C2690 C2694 1.368 . S
C2691 C2672 1.429 . S
C2691 C2685 1.429 . S
C2691 C2692 1.523 . S
C2692 C2673 1.368 . S
C2692 C2686 1.368 . S
C2692 C2691 1.523 . S
C2693 C2677 1.420 . S
C2693 C2689 1.399 1_655 S
C2693 C2694 1.558 . S
C2694 C2678 1.368 . S
C2694 C2690 1.368 . S
C2694 C2693 1.558 . S
H2695 C2670 0.950 . S
H2696 C2672 0.950 . S
H2697 C2673 0.949 . S
H2698 C2675 0.950 . S
H2699 C2677 0.950 . S
C2700 C2701 1.349 . S
C2700 C2702 1.327 . S
C2700 H2725 0.950 . S
C2701 C2700 1.349 . S
C2701 C2717 1.349 . S
C2702 C2700 1.327 . S
C2702 C2721 1.429 . S
C2702 H2726 0.950 . S
C2703 C2720 1.574 . S
C2703 C2722 1.368 . S
C2703 H2727 0.949 . S
H2704 C2708 0.949 . S
C2705 C2706 1.349 . S
C2705 C2707 1.327 . S
C2705 H2728 0.950 . S
C2706 C2705 1.349 . S
C2706 C2718 1.349 . S
C2707 C2705 1.327 . S
C2707 C2723 1.429 . S
C2707 H2729 0.950 . S
C2708 H2704 0.949 . S
C2708 C2716 1.574 . S
C2708 C2724 1.368 . S
H2709 C2717 0.950 . S
H2710 C2715 0.950 . S
H2711 C2716 0.949 . S
H2712 C2718 0.950 . S
H2713 C2719 0.950 . S
H2714 C2720 0.949 . S
C2715 H2710 0.950 . S
C2715 C2717 1.327 . S
C2715 C2721 1.429 . S
C2716 C2708 1.574 . S
C2716 H2711 0.949 . S
C2716 C2722 1.368 . S
C2717 C2701 1.349 . S
C2717 H2709 0.950 . S
C2717 C2715 1.327 . S
C2718 C2706 1.349 . S
C2718 H2712 0.950 . S
C2718 C2719 1.327 . S
C2719 H2713 0.950 . S
C2719 C2718 1.327 . S
C2719 C2723 1.429 . S
C2720 C2703 1.574 . S
C2720 H2714 0.949 . S
C2720 C2724 1.368 . S
C2721 C2702 1.429 . S
C2721 C2715 1.429 . S
C2721 C2722 1.523 . S
C2722 C2703 1.368 . S
C2722 C2716 1.368 . S
C2722 C2721 1.523 . S
C2723 C2707 1.429 . S
C2723 C2719 1.429 . S
C2723 C2724 1.523 . S
C2724 C2708 1.368 . S
C2724 C2720 1.368 . S
C2724 C2723 1.523 . S
H2725 C2700 0.950 . S
H2726 C2702 0.950 . S
H2727 C2703 0.949 . S
H2728 C2705 0.950 . S
H2729 C2707 0.950 . S
C2730 C2731 1.349 . S
C2730 C2732 1.327 . S
C2730 H2755 0.950 . S
C2731 C2730 1.349 . S
C2731 C2747 1.349 . S
C2732 C2730 1.327 . S
C2732 C2751 1.429 . S
C2732 H2756 0.950 . S
C2733 C2750 1.574 . S
C2733 C2752 1.368 . S
C2733 H2757 0.949 . S
H2734 C2738 0.949 . S
C2735 C2736 1.349 . S
C2735 C2737 1.327 . S
C2735 H2758 0.950 . S
C2736 C2735 1.349 . S
C2736 C2748 1.349 . S
C2737 C2735 1.327 . S
C2737 C2753 1.429 1_565 S
C2737 H2759 0.950 . S
C2738 H2734 0.949 . S
C2738 C2746 1.574 . S
C2738 C2754 1.368 . S
H2739 C2747 0.950 . S
H2740 C2745 0.950 . S
H2741 C2746 0.949 . S
H2742 C2748 0.950 . S
H2743 C2749 0.950 1_545 S
H2744 C2750 0.949 . S
C2745 H2740 0.950 . S
C2745 C2747 1.327 . S
C2745 C2751 1.429 . S
C2746 C2738 1.574 . S
C2746 H2741 0.949 . S
C2746 C2752 1.368 . S
C2747 C2731 1.349 . S
C2747 H2739 0.950 . S
C2747 C2745 1.327 . S
C2748 C2736 1.349 . S
C2748 H2742 0.950 . S
C2748 C2749 1.327 . S
C2749 H2743 0.950 1_565 S
C2749 C2748 1.327 . S
C2749 C2753 1.429 1_565 S
C2750 C2733 1.574 . S
C2750 H2744 0.949 . S
C2750 C2754 1.368 . S
C2751 C2732 1.429 . S
C2751 C2745 1.429 . S
C2751 C2752 1.523 . S
C2752 C2733 1.368 . S
C2752 C2746 1.368 . S
C2752 C2751 1.523 . S
C2753 C2737 1.429 1_545 S
C2753 C2749 1.429 1_545 S
C2753 C2754 1.523 . S
C2754 C2738 1.368 . S
C2754 C2750 1.368 . S
C2754 C2753 1.523 . S
H2755 C2730 0.950 . S
H2756 C2732 0.950 . S
H2757 C2733 0.949 . S
H2758 C2735 0.950 . S
H2759 C2737 0.950 . S
C2760 C2761 1.349 . S
C2760 C2762 1.327 . S
C2760 H2785 0.950 . S
C2761 C2760 1.349 . S
C2761 C2777 1.349 . S
C2762 C2760 1.327 . S
C2762 C2781 1.429 . S
C2762 H2786 0.950 . S
C2763 C2780 1.574 . S
C2763 C2782 1.368 . S
C2763 H2787 0.949 . S
H2764 C2768 0.949 . S
C2765 C2766 1.349 . S
C2765 C2767 1.327 1_455 S
C2765 H2788 0.950 . S
C2766 C2765 1.349 . S
C2766 C2778 1.349 . S
C2767 C2765 1.327 1_655 S
C2767 C2783 1.429 . S
C2767 H2789 0.950 . S
C2768 H2764 0.949 . S
C2768 C2776 1.574 . S
C2768 C2784 1.368 . S
H2769 C2777 0.950 . S
H2770 C2775 0.950 . S
H2771 C2776 0.949 . S
H2772 C2778 0.950 . S
H2773 C2779 0.950 . S
H2774 C2780 0.949 . S
C2775 H2770 0.950 . S
C2775 C2777 1.327 . S
C2775 C2781 1.429 . S
C2776 C2768 1.574 . S
C2776 H2771 0.949 . S
C2776 C2782 1.368 . S
C2777 C2761 1.349 . S
C2777 H2769 0.950 . S
C2777 C2775 1.327 . S
C2778 C2766 1.349 . S
C2778 H2772 0.950 . S
C2778 C2779 1.327 . S
C2779 H2773 0.950 . S
C2779 C2778 1.327 . S
C2779 C2783 1.429 1_455 S
C2780 C2763 1.574 . S
C2780 H2774 0.949 . S
C2780 C2784 1.368 . S
C2781 C2762 1.429 . S
C2781 C2775 1.429 . S
C2781 C2782 1.523 . S
C2782 C2763 1.368 . S
C2782 C2776 1.368 . S
C2782 C2781 1.523 . S
C2783 C2767 1.429 . S
C2783 C2779 1.429 1_655 S
C2783 C2784 1.523 . S
C2784 C2768 1.368 . S
C2784 C2780 1.368 . S
C2784 C2783 1.523 . S
H2785 C2760 0.950 . S
H2786 C2762 0.950 . S
H2787 C2763 0.949 . S
H2788 C2765 0.950 . S
H2789 C2767 0.950 . S
C2790 C2791 1.349 . S
C2790 C2792 1.327 . S
C2790 H2815 0.950 . S
C2791 C2790 1.349 . S
C2791 C2807 1.349 . S
C2792 C2790 1.327 . S
C2792 C2811 1.429 . S
C2792 H2816 0.950 . S
C2793 C2810 1.574 . S
C2793 C2812 1.368 . S
C2793 H2817 0.949 . S
H2794 C2798 0.949 . S
C2795 C2796 1.349 . S
C2795 C2797 1.327 . S
C2795 H2818 0.950 . S
C2796 C2795 1.349 . S
C2796 C2808 1.349 . S
C2797 C2795 1.327 . S
C2797 C2813 1.429 . S
C2797 H2819 0.950 . S
C2798 H2794 0.949 . S
C2798 C2806 1.574 . S
C2798 C2814 1.368 . S
H2799 C2807 0.950 . S
H2800 C2805 0.950 . S
H2801 C2806 0.949 . S
H2802 C2808 0.950 . S
H2803 C2809 0.950 . S
H2804 C2810 0.949 . S
C2805 H2800 0.950 . S
C2805 C2807 1.327 . S
C2805 C2811 1.429 . S
C2806 C2798 1.574 . S
C2806 H2801 0.949 . S
C2806 C2812 1.368 . S
C2807 C2791 1.349 . S
C2807 H2799 0.950 . S
C2807 C2805 1.327 . S
C2808 C2796 1.349 . S
C2808 H2802 0.950 . S
C2808 C2809 1.327 . S
C2809 H2803 0.950 . S
C2809 C2808 1.327 . S
C2809 C2813 1.429 . S
C2810 C2793 1.574 . S
C2810 H2804 0.949 . S
C2810 C2814 1.368 . S
C2811 C2792 1.429 . S
C2811 C2805 1.429 . S
C2811 C2812 1.523 . S
C2812 C2793 1.368 . S
C2812 C2806 1.368 . S
C2812 C2811 1.523 . S
C2813 C2797 1.429 . S
C2813 C2809 1.429 . S
C2813 C2814 1.523 . S
C2814 C2798 1.368 . S
C2814 C2810 1.368 . S
C2814 C2813 1.523 . S
H2815 C2790 0.950 . S
H2816 C2792 0.950 . S
H2817 C2793 0.949 . S
H2818 C2795 0.950 . S
H2819 C2797 0.950 . S
C2820 C2821 1.349 . S
C2820 C2822 1.327 1_545 S
C2820 H2845 0.950 . S
C2821 C2820 1.349 . S
C2821 C2837 1.349 . S
C2822 C2820 1.327 1_565 S
C2822 C2841 1.451 . S
C2822 H2846 0.950 . S
C2823 C2840 1.574 . S
C2823 C2842 1.368 . S
C2823 H2847 0.949 1_565 S
H2824 C2828 0.949 . S
C2825 C2826 1.349 . S
C2825 C2827 1.327 . S
C2825 H2848 0.950 . S
C2826 C2825 1.349 . S
C2826 C2838 1.349 . S
C2827 C2825 1.327 . S
C2827 C2843 1.429 . S
C2827 H2849 0.950 . S
C2828 H2824 0.949 . S
C2828 C2836 1.574 . S
C2828 C2844 1.368 . S
H2829 C2837 0.950 . S
H2830 C2835 0.950 . S
H2831 C2836 0.949 . S
H2832 C2838 0.950 . S
H2833 C2839 0.950 . S
H2834 C2840 0.949 . S
C2835 H2830 0.950 . S
C2835 C2837 1.327 . S
C2835 C2841 1.408 1_545 S
C2836 C2828 1.574 . S
C2836 H2831 0.949 . S
C2836 C2842 1.368 . S
C2837 C2821 1.349 . S
C2837 H2829 0.950 . S
C2837 C2835 1.327 . S
C2838 C2826 1.349 . S
C2838 H2832 0.950 . S
C2838 C2839 1.327 . S
C2839 H2833 0.950 . S
C2839 C2838 1.327 . S
C2839 C2843 1.429 . S
C2840 C2823 1.574 . S
C2840 H2834 0.949 . S
C2840 C2844 1.368 . S
C2841 C2822 1.451 . S
C2841 C2835 1.408 1_565 S
C2841 C2842 1.523 . S
C2842 C2823 1.368 . S
C2842 C2836 1.368 . S
C2842 C2841 1.523 . S
C2843 C2827 1.429 . S
C2843 C2839 1.429 . S
C2843 C2844 1.523 . S
C2844 C2828 1.368 . S
C2844 C2840 1.368 . S
C2844 C2843 1.523 . S
H2845 C2820 0.950 . S
H2846 C2822 0.950 . S
H2847 C2823 0.949 1_545 S
H2848 C2825 0.950 . S
H2849 C2827 0.950 . S
C2850 C2851 1.349 . S
C2850 C2852 1.327 . S
C2850 H2875 0.950 . S
C2851 C2850 1.349 . S
C2851 C2867 1.349 . S
C2852 C2850 1.327 . S
C2852 C2871 1.400 1_655 S
C2852 H2876 0.950 . S
C2853 C2870 1.574 . S
C2853 C2872 1.368 . S
C2853 H2877 0.949 . S
H2854 C2858 0.949 . S
C2855 C2856 1.349 . S
C2855 C2857 1.327 . S
C2855 H2878 0.950 . S
C2856 C2855 1.349 . S
C2856 C2868 1.349 . S
C2857 C2855 1.327 . S
C2857 C2873 1.429 . S
C2857 H2879 0.950 . S
C2858 H2854 0.949 . S
C2858 C2866 1.574 . S
C2858 C2874 1.368 . S
H2859 C2867 0.950 . S
H2860 C2865 0.950 . S
H2861 C2866 0.949 1_655 S
H2862 C2868 0.950 . S
H2863 C2869 0.950 . S
H2864 C2870 0.949 . S
C2865 H2860 0.950 . S
C2865 C2867 1.327 1_455 S
C2865 C2871 1.419 . S
C2866 C2858 1.574 . S
C2866 H2861 0.949 1_455 S
C2866 C2872 1.368 . S
C2867 C2851 1.349 . S
C2867 H2859 0.950 . S
C2867 C2865 1.327 1_655 S
C2868 C2856 1.349 . S
C2868 H2862 0.950 . S
C2868 C2869 1.327 . S
C2869 H2863 0.950 . S
C2869 C2868 1.327 . S
C2869 C2873 1.429 . S
C2870 C2853 1.574 . S
C2870 H2864 0.949 . S
C2870 C2874 1.368 . S
C2871 C2852 1.400 1_455 S
C2871 C2865 1.419 . S
C2871 C2872 1.558 . S
C2872 C2853 1.368 . S
C2872 C2866 1.368 . S
C2872 C2871 1.558 . S
C2873 C2857 1.429 . S
C2873 C2869 1.429 . S
C2873 C2874 1.523 . S
C2874 C2858 1.368 . S
C2874 C2870 1.368 . S
C2874 C2873 1.523 . S
H2875 C2850 0.950 . S
H2876 C2852 0.950 . S
H2877 C2853 0.949 . S
H2878 C2855 0.950 . S
H2879 C2857 0.950 . S
C2880 C2881 1.349 . S
C2880 C2882 1.327 . S
C2880 H2905 0.950 . S
C2881 C2880 1.349 . S
C2881 C2897 1.349 . S
C2882 C2880 1.327 . S
C2882 C2901 1.429 1_655 S
C2882 H2906 0.950 . S
C2883 C2900 1.574 . S
C2883 C2902 1.368 . S
C2883 H2907 0.949 . S
H2884 C2888 0.949 . S
C2885 C2886 1.349 . S
C2885 C2887 1.327 . S
C2885 H2908 0.950 . S
C2886 C2885 1.349 . S
C2886 C2898 1.349 . S
C2887 C2885 1.327 . S
C2887 C2903 1.429 . S
C2887 H2909 0.950 . S
C2888 H2884 0.949 . S
C2888 C2896 1.574 . S
C2888 C2904 1.368 . S
H2889 C2897 0.950 . S
H2890 C2895 0.950 . S
H2891 C2896 0.949 . S
H2892 C2898 0.950 . S
H2893 C2899 0.950 . S
H2894 C2900 0.949 . S
C2895 H2890 0.950 . S
C2895 C2897 1.327 1_455 S
C2895 C2901 1.429 . S
C2896 C2888 1.574 . S
C2896 H2891 0.949 . S
C2896 C2902 1.368 . S
C2897 C2881 1.349 . S
C2897 H2889 0.950 . S
C2897 C2895 1.327 1_655 S
C2898 C2886 1.349 . S
C2898 H2892 0.950 . S
C2898 C2899 1.327 . S
C2899 H2893 0.950 . S
C2899 C2898 1.327 . S
C2899 C2903 1.429 . S
C2900 C2883 1.574 . S
C2900 H2894 0.949 . S
C2900 C2904 1.368 . S
C2901 C2882 1.429 1_455 S
C2901 C2895 1.429 . S
C2901 C2902 1.523 . S
C2902 C2883 1.368 . S
C2902 C2896 1.368 . S
C2902 C2901 1.523 . S
C2903 C2887 1.429 . S
C2903 C2899 1.429 . S
C2903 C2904 1.523 . S
C2904 C2888 1.368 . S
C2904 C2900 1.368 . S
C2904 C2903 1.523 . S
H2905 C2880 0.950 . S
H2906 C2882 0.950 . S
H2907 C2883 0.949 . S
H2908 C2885 0.950 . S
H2909 C2887 0.950 . S
C2910 C2911 1.349 . S
C2910 C2912 1.327 . S
C2910 H2935 0.950 . S
C2911 C2910 1.349 . S
C2911 C2927 1.349 . S
C2912 C2910 1.327 . S
C2912 C2931 1.429 . S
C2912 H2936 0.950 . S
C2913 C2930 1.574 . S
C2913 C2932 1.368 . S
C2913 H2937 0.949 . S
H2914 C2918 0.949 . S
C2915 C2916 1.349 . S
C2915 C2917 1.327 . S
C2915 H2938 0.950 . S
C2916 C2915 1.349 . S
C2916 C2928 1.349 . S
C2917 C2915 1.327 . S
C2917 C2933 1.429 . S
C2917 H2939 0.950 . S
C2918 H2914 0.949 . S
C2918 C2926 1.574 . S
C2918 C2934 1.368 . S
H2919 C2927 0.950 . S
H2920 C2925 0.950 . S
H2921 C2926 0.949 . S
H2922 C2928 0.950 . S
H2923 C2929 0.950 . S
H2924 C2930 0.949 . S
C2925 H2920 0.950 . S
C2925 C2927 1.327 . S
C2925 C2931 1.429 . S
C2926 C2918 1.574 . S
C2926 H2921 0.949 . S
C2926 C2932 1.368 . S
C2927 C2911 1.349 . S
C2927 H2919 0.950 . S
C2927 C2925 1.327 . S
C2928 C2916 1.349 . S
C2928 H2922 0.950 . S
C2928 C2929 1.327 . S
C2929 H2923 0.950 . S
C2929 C2928 1.327 . S
C2929 C2933 1.429 . S
C2930 C2913 1.574 . S
C2930 H2924 0.949 . S
C2930 C2934 1.368 . S
C2931 C2912 1.429 . S
C2931 C2925 1.429 . S
C2931 C2932 1.523 . S
C2932 C2913 1.368 . S
C2932 C2926 1.368 . S
C2932 C2931 1.523 . S
C2933 C2917 1.429 . S
C2933 C2929 1.429 . S
C2933 C2934 1.523 . S
C2934 C2918 1.368 . S
C2934 C2930 1.368 . S
C2934 C2933 1.523 . S
H2935 C2910 0.950 . S
H2936 C2912 0.950 . S
H2937 C2913 0.949 . S
H2938 C2915 0.950 . S
H2939 C2917 0.950 . S
C2940 C2941 1.349 . S
C2940 C2942 1.327 . S
C2940 H2965 0.950 . S
C2941 C2940 1.349 . S
C2941 C2957 1.349 . S
C2942 C2940 1.327 . S
C2942 C2961 1.429 . S
C2942 H2966 0.950 . S
C2943 C2960 1.574 . S
C2943 C2962 1.368 . S
C2943 H2967 0.949 . S
H2944 C2948 0.949 . S
C2945 C2946 1.349 . S
C2945 C2947 1.327 1_545 S
C2945 H2968 0.950 . S
C2946 C2945 1.349 . S
C2946 C2958 1.349 . S
C2947 C2945 1.327 1_565 S
C2947 C2963 1.429 . S
C2947 H2969 0.950 . S
C2948 H2944 0.949 . S
C2948 C2956 1.574 . S
C2948 C2964 1.368 . S
H2949 C2957 0.950 . S
H2950 C2955 0.950 . S
H2951 C2956 0.949 . S
H2952 C2958 0.950 . S
H2953 C2959 0.950 . S
H2954 C2960 0.949 . S
C2955 H2950 0.950 . S
C2955 C2957 1.327 . S
C2955 C2961 1.429 . S
C2956 C2948 1.574 . S
C2956 H2951 0.949 . S
C2956 C2962 1.368 . S
C2957 C2941 1.349 . S
C2957 H2949 0.950 . S
C2957 C2955 1.327 . S
C2958 C2946 1.349 . S
C2958 H2952 0.950 . S
C2958 C2959 1.327 . S
C2959 H2953 0.950 . S
C2959 C2958 1.327 . S
C2959 C2963 1.429 1_545 S
C2960 C2943 1.574 . S
C2960 H2954 0.949 . S
C2960 C2964 1.368 . S
C2961 C2942 1.429 . S
C2961 C2955 1.429 . S
C2961 C2962 1.523 . S
C2962 C2943 1.368 . S
C2962 C2956 1.368 . S
C2962 C2961 1.523 . S
C2963 C2947 1.429 . S
C2963 C2959 1.429 1_565 S
C2963 C2964 1.523 . S
C2964 C2948 1.368 . S
C2964 C2960 1.368 . S
C2964 C2963 1.523 . S
H2965 C2940 0.950 . S
H2966 C2942 0.950 . S
H2967 C2943 0.949 . S
H2968 C2945 0.950 . S
H2969 C2947 0.950 . S
C2970 C2971 1.349 . S
C2970 C2972 1.327 . S
C2970 H2995 0.950 . S
C2971 C2970 1.349 . S
C2971 C2987 1.349 . S
C2972 C2970 1.327 . S
C2972 C2991 1.429 . S
C2972 H2996 0.950 . S
C2973 C2990 1.574 . S
C2973 C2992 1.368 . S
C2973 H2997 0.949 . S
H2974 C2978 0.949 . S
C2975 C2976 1.349 . S
C2975 C2977 1.327 . S
C2975 H2998 0.950 . S
C2976 C2975 1.349 . S
C2976 C2988 1.349 . S
C2977 C2975 1.327 . S
C2977 C2993 1.429 1_655 S
C2977 H2999 0.950 . S
C2978 H2974 0.949 . S
C2978 C2986 1.574 . S
C2978 C2994 1.368 . S
H2979 C2987 0.950 . S
H2980 C2985 0.950 . S
H2981 C2986 0.949 . S
H2982 C2988 0.961 . S
H2983 C2989 0.950 . S
H2984 C2990 0.969 . S
C2985 H2980 0.950 . S
C2985 C2987 1.327 . S
C2985 C2991 1.429 . S
C2986 C2978 1.574 . S
C2986 H2981 0.949 . S
C2986 C2992 1.368 . S
C2987 C2971 1.349 . S
C2987 H2979 0.950 . S
C2987 C2985 1.327 . S
C2988 C2976 1.349 . S
C2988 H2982 0.961 . S
C2988 C2989 1.327 1_655 S
C2989 H2983 0.950 . S
C2989 C2988 1.327 1_455 S
C2989 C2993 1.429 . S
C2990 C2973 1.574 . S
C2990 H2984 0.969 . S
C2990 C2994 1.368 . S
C2991 C2972 1.429 . S
C2991 C2985 1.429 . S
C2991 C2992 1.523 . S
C2992 C2973 1.368 . S
C2992 C2986 1.368 . S
C2992 C2991 1.523 . S
C2993 C2977 1.429 1_455 S
C2993 C2989 1.429 . S
C2993 C2994 1.523 . S
C2994 C2978 1.368 . S
C2994 C2990 1.368 . S
C2994 C2993 1.523 . S
H2995 C2970 0.950 . S
H2996 C2972 0.950 . S
H2997 C2973 0.949 . S
H2998 C2975 0.950 . S
H2999 C2977 0.950 . S
C3000 C3001 1.349 . S
C3000 C3002 1.327 . S
C3000 H3025 0.950 . S
C3001 C3000 1.349 . S
C3001 C3017 1.349 . S
C3002 C3000 1.327 . S
C3002 C3021 1.429 . S
C3002 H3026 0.950 . S
C3003 C3020 1.574 . S
C3003 C3022 1.368 . S
C3003 H3027 0.949 . S
H3004 C3008 0.949 . S
C3005 C3006 1.349 . S
C3005 C3007 1.327 . S
C3005 H3028 0.950 . S
C3006 C3005 1.349 . S
C3006 C3018 1.349 . S
C3007 C3005 1.327 . S
C3007 C3023 1.429 . S
C3007 H3029 0.950 . S
C3008 H3004 0.949 . S
C3008 C3016 1.574 . S
C3008 C3024 1.368 . S
H3009 C3017 0.950 . S
H3010 C3015 0.950 . S
H3011 C3016 0.949 . S
H3012 C3018 0.950 . S
H3013 C3019 0.950 . S
H3014 C3020 0.949 . S
C3015 H3010 0.950 . S
C3015 C3017 1.327 . S
C3015 C3021 1.429 . S
C3016 C3008 1.574 . S
C3016 H3011 0.949 . S
C3016 C3022 1.368 . S
C3017 C3001 1.349 . S
C3017 H3009 0.950 . S
C3017 C3015 1.327 . S
C3018 C3006 1.349 . S
C3018 H3012 0.950 . S
C3018 C3019 1.327 . S
C3019 H3013 0.950 . S
C3019 C3018 1.327 . S
C3019 C3023 1.429 . S
C3020 C3003 1.574 . S
C3020 H3014 0.949 . S
C3020 C3024 1.368 . S
C3021 C3002 1.429 . S
C3021 C3015 1.429 . S
C3021 C3022 1.523 . S
C3022 C3003 1.368 . S
C3022 C3016 1.368 . S
C3022 C3021 1.523 . S
C3023 C3007 1.429 . S
C3023 C3019 1.429 . S
C3023 C3024 1.523 . S
C3024 C3008 1.368 . S
C3024 C3020 1.368 . S
C3024 C3023 1.523 . S
H3025 C3000 0.950 . S
H3026 C3002 0.950 . S
H3027 C3003 0.949 . S
H3028 C3005 0.950 . S
H3029 C3007 0.950 . S
C3030 C3031 1.349 . S
C3030 C3032 1.327 . S
C3030 H3055 0.950 . S
C3031 C3030 1.349 . S
C3031 C3047 1.349 . S
C3032 C3030 1.327 . S
C3032 C3051 1.429 . S
C3032 H3056 0.950 . S
C3033 C3050 1.574 . S
C3033 C3052 1.368 . S
C3033 H3057 0.949 . S
H3034 C3038 0.949 . S
C3035 C3036 1.349 . S
C3035 C3037 1.327 . S
C3035 H3058 0.950 . S
C3036 C3035 1.349 . S
C3036 C3048 1.349 . S
C3037 C3035 1.327 . S
C3037 C3053 1.429 1_545 S
C3037 H3059 0.950 . S
C3038 H3034 0.949 . S
C3038 C3046 1.574 . S
C3038 C3054 1.368 . S
H3039 C3047 0.950 . S
H3040 C3045 0.950 . S
H3041 C3046 0.949 . S
H3042 C3048 0.950 . S
H3043 C3049 0.950 . S
H3044 C3050 0.949 . S
C3045 H3040 0.950 . S
C3045 C3047 1.327 . S
C3045 C3051 1.429 . S
C3046 C3038 1.574 . S
C3046 H3041 0.949 . S
C3046 C3052 1.368 . S
C3047 C3031 1.349 . S
C3047 H3039 0.950 . S
C3047 C3045 1.327 . S
C3048 C3036 1.349 . S
C3048 H3042 0.950 . S
C3048 C3049 1.327 1_545 S
C3049 H3043 0.950 . S
C3049 C3048 1.327 1_565 S
C3049 C3053 1.429 . S
C3050 C3033 1.574 . S
C3050 H3044 0.949 . S
C3050 C3054 1.368 . S
C3051 C3032 1.429 . S
C3051 C3045 1.429 . S
C3051 C3052 1.523 . S
C3052 C3033 1.368 . S
C3052 C3046 1.368 . S
C3052 C3051 1.523 . S
C3053 C3037 1.429 1_565 S
C3053 C3049 1.429 . S
C3053 C3054 1.523 . S
C3054 C3038 1.368 . S
C3054 C3050 1.368 . S
C3054 C3053 1.523 . S
H3055 C3030 0.950 . S
H3056 C3032 0.950 . S
H3057 C3033 0.949 . S
H3058 C3035 0.950 . S
H3059 C3037 0.950 . S
C3060 C3061 1.349 . S
C3060 C3062 1.327 . S
C3060 H3085 0.950 . S
C3061 C3060 1.349 . S
C3061 C3077 1.349 . S
C3062 C3060 1.327 . S
C3062 C3081 1.429 . S
C3062 H3086 0.950 . S
C3063 C3080 1.574 . S
C3063 C3082 1.368 . S
C3063 H3087 0.949 . S
H3064 C3068 0.949 . S
C3065 C3066 1.349 . S
C3065 C3067 1.327 . S
C3065 H3088 0.950 . S
C3066 C3065 1.349 . S
C3066 C3078 1.349 . S
C3067 C3065 1.327 . S
C3067 C3083 1.429 . S
C3067 H3089 0.950 . S
C3068 H3064 0.949 . S
C3068 C3076 1.574 . S
C3068 C3084 1.368 . S
H3069 C3077 0.950 . S
H3070 C3075 0.950 . S
H3071 C3076 0.949 . S
H3072 C3078 0.950 . S
H3073 C3079 0.950 . S
H3074 C3080 0.949 . S
C3075 H3070 0.950 . S
C3075 C3077 1.327 . S
C3075 C3081 1.429 . S
C3076 C3068 1.574 . S
C3076 H3071 0.949 . S
C3076 C3082 1.368 . S
C3077 C3061 1.349 . S
C3077 H3069 0.950 . S
C3077 C3075 1.327 . S
C3078 C3066 1.349 . S
C3078 H3072 0.950 . S
C3078 C3079 1.327 . S
C3079 H3073 0.950 . S
C3079 C3078 1.327 . S
C3079 C3083 1.429 . S
C3080 C3063 1.574 . S
C3080 H3074 0.949 . S
C3080 C3084 1.368 . S
C3081 C3062 1.429 . S
C3081 C3075 1.429 . S
C3081 C3082 1.523 . S
C3082 C3063 1.368 . S
C3082 C3076 1.368 . S
C3082 C3081 1.523 . S
C3083 C3067 1.429 . S
C3083 C3079 1.429 . S
C3083 C3084 1.523 . S
C3084 C3068 1.368 . S
C3084 C3080 1.368 . S
C3084 C3083 1.523 . S
H3085 C3060 0.950 . S
H3086 C3062 0.950 . S
H3087 C3063 0.949 . S
H3088 C3065 0.950 . S
H3089 C3067 0.950 . S
C3090 C3091 1.349 . S
C3090 C3092 1.327 . S
C3090 H3115 0.950 . S
C3091 C3090 1.349 . S
C3091 C3107 1.349 . S
C3092 C3090 1.327 . S
C3092 C3111 1.429 . S
C3092 H3116 0.950 . S
C3093 C3110 1.574 . S
C3093 C3112 1.368 . S
C3093 H3117 0.949 . S
H3094 C3098 0.949 . S
C3095 C3096 1.349 . S
C3095 C3097 1.327 . S
C3095 H3118 0.950 . S
C3096 C3095 1.349 . S
C3096 C3108 1.349 . S
C3097 C3095 1.327 . S
C3097 C3113 1.429 . S
C3097 H3119 0.950 . S
C3098 H3094 0.949 . S
C3098 C3106 1.574 . S
C3098 C3114 1.368 . S
H3099 C3107 0.950 . S
H3100 C3105 0.950 . S
H3101 C3106 0.949 . S
H3102 C3108 0.950 . S
H3103 C3109 0.950 . S
H3104 C3110 0.949 . S
C3105 H3100 0.950 . S
C3105 C3107 1.327 . S
C3105 C3111 1.429 . S
C3106 C3098 1.574 . S
C3106 H3101 0.949 . S
C3106 C3112 1.368 . S
C3107 C3091 1.349 . S
C3107 H3099 0.950 . S
C3107 C3105 1.327 . S
C3108 C3096 1.349 . S
C3108 H3102 0.950 . S
C3108 C3109 1.327 . S
C3109 H3103 0.950 . S
C3109 C3108 1.327 . S
C3109 C3113 1.429 . S
C3110 C3093 1.574 . S
C3110 H3104 0.949 . S
C3110 C3114 1.368 . S
C3111 C3092 1.429 . S
C3111 C3105 1.429 . S
C3111 C3112 1.523 . S
C3112 C3093 1.368 . S
C3112 C3106 1.368 . S
C3112 C3111 1.523 . S
C3113 C3097 1.429 . S
C3113 C3109 1.429 . S
C3113 C3114 1.523 . S
C3114 C3098 1.368 . S
C3114 C3110 1.368 . S
C3114 C3113 1.523 . S
H3115 C3090 0.950 . S
H3116 C3092 0.950 . S
H3117 C3093 0.949 . S
H3118 C3095 0.950 . S
H3119 C3097 0.950 . S
C3120 C3121 1.349 . S
C3120 C3122 1.327 . S
C3120 H3145 0.950 . S
C3121 C3120 1.349 . S
C3121 C3137 1.349 . S
C3122 C3120 1.327 . S
C3122 C3141 1.429 . S
C3122 H3146 0.950 . S
C3123 C3140 1.574 . S
C3123 C3142 1.368 . S
C3123 H3147 0.949 . S
H3124 C3128 0.949 . S
C3125 C3126 1.349 . S
C3125 C3127 1.327 . S
C3125 H3148 0.950 . S
C3126 C3125 1.349 . S
C3126 C3138 1.349 . S
C3127 C3125 1.327 . S
C3127 C3143 1.429 . S
C3127 H3149 0.950 . S
C3128 H3124 0.949 . S
C3128 C3136 1.574 . S
C3128 C3144 1.368 . S
H3129 C3137 0.950 . S
H3130 C3135 0.950 . S
H3131 C3136 0.949 . S
H3132 C3138 0.950 . S
H3133 C3139 0.950 . S
H3134 C3140 0.949 . S
C3135 H3130 0.950 . S
C3135 C3137 1.327 . S
C3135 C3141 1.429 . S
C3136 C3128 1.574 . S
C3136 H3131 0.949 . S
C3136 C3142 1.368 . S
C3137 C3121 1.349 . S
C3137 H3129 0.950 . S
C3137 C3135 1.327 . S
C3138 C3126 1.349 . S
C3138 H3132 0.950 . S
C3138 C3139 1.327 . S
C3139 H3133 0.950 . S
C3139 C3138 1.327 . S
C3139 C3143 1.429 . S
C3140 C3123 1.574 . S
C3140 H3134 0.949 . S
C3140 C3144 1.368 . S
C3141 C3122 1.429 . S
C3141 C3135 1.429 . S
C3141 C3142 1.523 . S
C3142 C3123 1.368 . S
C3142 C3136 1.368 . S
C3142 C3141 1.523 . S
C3143 C3127 1.429 . S
C3143 C3139 1.429 . S
C3143 C3144 1.523 . S
C3144 C3128 1.368 . S
C3144 C3140 1.368 . S
C3144 C3143 1.523 . S
H3145 C3120 0.950 . S
H3146 C3122 0.950 . S
H3147 C3123 0.949 . S
H3148 C3125 0.950 . S
H3149 C3127 0.950 . S
C3150 C3151 1.361 . S
C3150 C3152 1.327 . S
C3150 H3175 0.950 . S
C3151 C3150 1.361 . S
C3151 C3167 1.336 1_554 S
C3152 C3150 1.327 . S
C3152 C3171 1.392 1_554 S
C3152 H3176 0.950 . S
C3153 C3170 1.574 1_565 S
C3153 C3172 1.451 . S
C3153 H3177 0.949 . S
H3154 C3158 0.949 . S
C3155 C3156 1.349 . S
C3155 C3157 1.327 . S
C3155 H3178 0.950 . S
C3156 C3155 1.349 . S
C3156 C3168 1.349 1_556 S
C3157 C3155 1.327 . S
C3157 C3173 1.429 . S
C3157 H3179 0.950 . S
C3158 H3154 0.949 . S
C3158 C3166 1.574 1_545 S
C3158 C3174 1.368 1_554 S
H3159 C3167 0.950 . S
H3160 C3165 0.950 . S
H3161 C3166 0.949 . S
H3162 C3168 0.950 . S
H3163 C3169 0.950 . S
H3164 C3170 0.949 . S
C3165 H3160 0.950 . S
C3165 C3167 1.327 . S
C3165 C3171 1.464 . S
C3166 C3158 1.574 1_565 S
C3166 H3161 0.949 . S
C3166 C3172 1.292 1_554 S
C3167 C3151 1.336 1_556 S
C3167 H3159 0.950 . S
C3167 C3165 1.327 . S
C3168 C3156 1.349 1_554 S
C3168 H3162 0.950 . S
C3168 C3169 1.327 . S
C3169 H3163 0.950 . S
C3169 C3168 1.327 . S
C3169 C3173 1.429 1_554 S
C3170 C3153 1.574 1_545 S
C3170 H3164 0.949 . S
C3170 C3174 1.368 . S
C3171 C3152 1.392 1_556 S
C3171 C3165 1.464 . S
C3171 C3172 1.522 . S
C3172 C3153 1.451 . S
C3172 C3166 1.292 1_556 S
C3172 C3171 1.522 . S
C3173 C3157 1.429 . S
C3173 C3169 1.429 1_556 S
C3173 C3174 1.523 . S
C3174 C3158 1.368 1_556 S
C3174 C3170 1.368 . S
C3174 C3173 1.523 . S
H3175 C3150 0.950 . S
H3176 C3152 0.950 . S
H3177 C3153 0.949 . S
H3178 C3155 0.950 . S
H3179 C3157 0.950 . S
C3180 C3181 1.336 1_556 S
C3180 C3182 1.327 . S
C3180 H3205 0.950 . S
C3181 C3180 1.336 1_554 S
C3181 C3197 1.361 . S
C3182 C3180 1.327 . S
C3182 C3201 1.463 . S
C3182 H3206 0.950 . S
C3183 C3200 1.574 1_455 S
C3183 C3202 1.293 1_554 S
C3183 H3207 0.949 . S
H3184 C3188 0.949 . S
C3185 C3186 1.349 1_554 S
C3185 C3187 1.327 . S
C3185 H3208 0.950 . S
C3186 C3185 1.349 1_556 S
C3186 C3198 1.349 . S
C3187 C3185 1.327 . S
C3187 C3203 1.429 1_554 S
C3187 H3209 0.950 . S
C3188 H3184 0.949 . S
C3188 C3196 1.574 1_655 S
C3188 C3204 1.368 . S
H3189 C3197 0.950 . S
H3190 C3195 0.950 . S
H3191 C3196 0.949 . S
H3192 C3198 0.950 . S
H3193 C3199 0.950 . S
H3194 C3200 0.949 . S
C3195 H3190 0.950 . S
C3195 C3197 1.327 . S
C3195 C3201 1.393 1_554 S
C3196 C3188 1.574 1_455 S
C3196 H3191 0.949 . S
C3196 C3202 1.450 . S
C3197 C3181 1.361 . S
C3197 H3189 0.950 . S
C3197 C3195 1.327 . S
C3198 C3186 1.349 . S
C3198 H3192 0.950 . S
C3198 C3199 1.327 . S
C3199 H3193 0.950 . S
C3199 C3198 1.327 . S
C3199 C3203 1.429 . S
C3200 C3183 1.574 1_655 S
C3200 H3194 0.949 . S
C3200 C3204 1.368 1_554 S
C3201 C3182 1.463 . S
C3201 C3195 1.393 1_556 S
C3201 C3202 1.522 . S
C3202 C3183 1.293 1_556 S
C3202 C3196 1.450 . S
C3202 C3201 1.522 . S
C3203 C3187 1.429 1_556 S
C3203 C3199 1.429 . S
C3203 C3204 1.523 . S
C3204 C3188 1.368 . S
C3204 C3200 1.368 1_556 S
C3204 C3203 1.523 . S
H3205 C3180 0.950 . S
H3206 C3182 0.950 . S
H3207 C3183 0.949 . S
H3208 C3185 0.950 . S
H3209 C3187 0.950 . S
C3210 C3211 1.349 . S
C3210 C3212 1.327 . S
C3210 H3235 0.950 . S
C3211 C3210 1.349 . S
C3211 C3227 1.349 1_556 S
C3212 C3210 1.327 . S
C3212 C3231 1.429 . S
C3212 H3236 0.950 . S
C3213 C3230 1.574 . S
C3213 C3232 1.368 1_554 S
C3213 H3237 0.949 . S
H3214 C3218 0.949 . S
C3215 C3216 1.340 . S
C3215 C3217 1.327 . S
C3215 H3238 0.950 . S
C3216 C3215 1.340 . S
C3216 C3228 1.358 1_554 S
C3217 C3215 1.327 . S
C3217 C3233 1.364 1_554 S
C3217 H3239 0.950 . S
C3218 H3214 0.949 . S
C3218 C3226 1.574 . S
C3218 C3234 1.368 . S
H3219 C3227 0.950 . S
H3220 C3225 0.950 . S
H3221 C3226 0.949 . S
H3222 C3228 0.950 . S
H3223 C3229 0.950 . S
H3224 C3230 0.949 . S
C3225 H3220 0.950 . S
C3225 C3227 1.327 . S
C3225 C3231 1.429 1_554 S
C3226 C3218 1.574 . S
C3226 H3221 0.949 . S
C3226 C3232 1.368 . S
C3227 C3211 1.349 1_554 S
C3227 H3219 0.950 . S
C3227 C3225 1.327 . S
C3228 C3216 1.358 1_556 S
C3228 H3222 0.950 . S
C3228 C3229 1.327 . S
C3229 H3223 0.950 . S
C3229 C3228 1.327 . S
C3229 C3233 1.492 . S
C3230 C3213 1.574 . S
C3230 H3224 0.949 . S
C3230 C3234 1.368 1_554 S
C3231 C3212 1.429 . S
C3231 C3225 1.429 1_556 S
C3231 C3232 1.523 . S
C3232 C3213 1.368 1_556 S
C3232 C3226 1.368 . S
C3232 C3231 1.523 . S
C3233 C3217 1.364 1_556 S
C3233 C3229 1.492 . S
C3233 C3234 1.528 . S
C3234 C3218 1.368 . S
C3234 C3230 1.368 1_556 S
C3234 C3233 1.528 . S
H3235 C3210 0.950 . S
H3236 C3212 0.950 . S
H3237 C3213 0.949 . S
H3238 C3215 0.950 . S
H3239 C3217 0.950 . S
C3240 C3241 1.349 . S
C3240 C3242 1.327 . S
C3240 H3265 0.950 . S
C3241 C3240 1.349 . S
C3241 C3257 1.349 . S
C3242 C3240 1.327 . S
C3242 C3261 1.429 . S
C3242 H3266 0.950 . S
C3243 C3260 1.574 . S
C3243 C3262 1.368 . S
C3243 H3267 0.949 . S
H3244 C3248 0.949 . S
C3245 C3246 1.349 . S
C3245 C3247 1.327 . S
C3245 H3268 0.950 . S
C3246 C3245 1.349 . S
C3246 C3258 1.349 . S
C3247 C3245 1.327 . S
C3247 C3263 1.429 . S
C3247 H3269 0.950 . S
C3248 H3244 0.949 . S
C3248 C3256 1.574 . S
C3248 C3264 1.368 . S
H3249 C3257 0.950 . S
H3250 C3255 0.950 . S
H3251 C3256 0.949 . S
H3252 C3258 0.950 . S
H3253 C3259 0.950 . S
H3254 C3260 0.949 . S
C3255 H3250 0.950 . S
C3255 C3257 1.327 . S
C3255 C3261 1.429 . S
C3256 C3248 1.574 . S
C3256 H3251 0.949 . S
C3256 C3262 1.368 . S
C3257 C3241 1.349 . S
C3257 H3249 0.950 . S
C3257 C3255 1.327 . S
C3258 C3246 1.349 . S
C3258 H3252 0.950 . S
C3258 C3259 1.327 . S
C3259 H3253 0.950 . S
C3259 C3258 1.327 . S
C3259 C3263 1.429 . S
C3260 C3243 1.574 . S
C3260 H3254 0.949 . S
C3260 C3264 1.368 . S
C3261 C3242 1.429 . S
C3261 C3255 1.429 . S
C3261 C3262 1.523 . S
C3262 C3243 1.368 . S
C3262 C3256 1.368 . S
C3262 C3261 1.523 . S
C3263 C3247 1.429 . S
C3263 C3259 1.429 . S
C3263 C3264 1.523 . S
C3264 C3248 1.368 . S
C3264 C3260 1.368 . S
C3264 C3263 1.523 . S
H3265 C3240 0.950 . S
H3266 C3242 0.950 . S
H3267 C3243 0.949 . S
H3268 C3245 0.950 . S
H3269 C3247 0.950 . S
C3270 C3271 1.349 . S
C3270 C3272 1.327 . S
C3270 H3295 0.950 . S
C3271 C3270 1.349 . S
C3271 C3287 1.349 . S
C3272 C3270 1.327 . S
C3272 C3291 1.429 . S
C3272 H3296 0.950 . S
C3273 C3290 1.574 . S
C3273 C3292 1.368 . S
C3273 H3297 0.949 . S
H3274 C3278 0.949 . S
C3275 C3276 1.349 . S
C3275 C3277 1.327 . S
C3275 H3298 0.950 . S
C3276 C3275 1.349 . S
C3276 C3288 1.349 . S
C3277 C3275 1.327 . S
C3277 C3293 1.429 . S
C3277 H3299 0.950 . S
C3278 H3274 0.949 . S
C3278 C3286 1.574 . S
C3278 C3294 1.368 . S
H3279 C3287 0.950 . S
H3280 C3285 0.950 . S
H3281 C3286 0.949 . S
H3282 C3288 0.950 . S
H3283 C3289 0.950 . S
H3284 C3290 0.949 . S
C3285 H3280 0.950 . S
C3285 C3287 1.327 . S
C3285 C3291 1.429 . S
C3286 C3278 1.574 . S
C3286 H3281 0.949 . S
C3286 C3292 1.368 . S
C3287 C3271 1.349 . S
C3287 H3279 0.950 . S
C3287 C3285 1.327 . S
C3288 C3276 1.349 . S
C3288 H3282 0.950 . S
C3288 C3289 1.327 . S
C3289 H3283 0.950 . S
C3289 C3288 1.327 . S
C3289 C3293 1.429 . S
C3290 C3273 1.574 . S
C3290 H3284 0.949 . S
C3290 C3294 1.368 . S
C3291 C3272 1.429 . S
C3291 C3285 1.429 . S
C3291 C3292 1.523 . S
C3292 C3273 1.368 . S
C3292 C3286 1.368 . S
C3292 C3291 1.523 . S
C3293 C3277 1.429 . S
C3293 C3289 1.429 . S
C3293 C3294 1.523 . S
C3294 C3278 1.368 . S
C3294 C3290 1.368 . S
C3294 C3293 1.523 . S
H3295 C3270 0.950 . S
H3296 C3272 0.950 . S
H3297 C3273 0.949 . S
H3298 C3275 0.950 . S
H3299 C3277 0.950 . S
C3300 C3301 1.349 . S
C3300 C3302 1.327 . S
C3300 H3325 0.950 . S
C3301 C3300 1.349 . S
C3301 C3317 1.349 . S
C3302 C3300 1.327 . S
C3302 C3321 1.429 . S
C3302 H3326 0.950 . S
C3303 C3320 1.574 . S
C3303 C3322 1.368 . S
C3303 H3327 0.949 . S
H3304 C3308 0.949 . S
C3305 C3306 1.349 . S
C3305 C3307 1.327 . S
C3305 H3328 0.950 . S
C3306 C3305 1.349 . S
C3306 C3318 1.349 . S
C3307 C3305 1.327 . S
C3307 C3323 1.429 . S
C3307 H3329 0.950 . S
C3308 H3304 0.949 . S
C3308 C3316 1.574 . S
C3308 C3324 1.368 . S
H3309 C3317 0.950 . S
H3310 C3315 0.950 . S
H3311 C3316 0.949 . S
H3312 C3318 0.950 . S
H3313 C3319 0.950 . S
H3314 C3320 0.949 . S
C3315 H3310 0.950 . S
C3315 C3317 1.327 . S
C3315 C3321 1.429 . S
C3316 C3308 1.574 . S
C3316 H3311 0.949 . S
C3316 C3322 1.368 . S
C3317 C3301 1.349 . S
C3317 H3309 0.950 . S
C3317 C3315 1.327 . S
C3318 C3306 1.349 . S
C3318 H3312 0.950 . S
C3318 C3319 1.327 . S
C3319 H3313 0.950 . S
C3319 C3318 1.327 . S
C3319 C3323 1.429 . S
C3320 C3303 1.574 . S
C3320 H3314 0.949 . S
C3320 C3324 1.368 . S
C3321 C3302 1.429 . S
C3321 C3315 1.429 . S
C3321 C3322 1.523 . S
C3322 C3303 1.368 . S
C3322 C3316 1.368 . S
C3322 C3321 1.523 . S
C3323 C3307 1.429 . S
C3323 C3319 1.429 . S
C3323 C3324 1.523 . S
C3324 C3308 1.368 . S
C3324 C3320 1.368 . S
C3324 C3323 1.523 . S
H3325 C3300 0.950 . S
H3326 C3302 0.950 . S
H3327 C3303 0.949 . S
H3328 C3305 0.950 . S
H3329 C3307 0.950 . S
C3330 C3331 1.349 . S
C3330 C3332 1.327 . S
C3330 H3355 0.950 . S
C3331 C3330 1.349 . S
C3331 C3347 1.349 1_554 S
C3332 C3330 1.327 . S
C3332 C3351 1.429 . S
C3332 H3356 0.950 . S
C3333 C3350 1.574 1_565 S
C3333 C3352 1.368 1_556 S
C3333 H3357 0.949 . S
H3334 C3338 0.949 . S
C3335 C3336 1.341 . S
C3335 C3337 1.327 . S
C3335 H3358 0.950 . S
C3336 C3335 1.341 . S
C3336 C3348 1.357 1_556 S
C3337 C3335 1.327 . S
C3337 C3353 1.375 1_556 S
C3337 H3359 0.950 . S
C3338 H3334 0.949 . S
C3338 C3346 1.574 1_545 S
C3338 C3354 1.368 . S
H3339 C3347 0.950 . S
H3340 C3345 0.950 . S
H3341 C3346 0.949 . S
H3342 C3348 0.950 . S
H3343 C3349 0.950 . S
H3344 C3350 0.949 . S
C3345 H3340 0.950 . S
C3345 C3347 1.327 . S
C3345 C3351 1.429 1_556 S
C3346 C3338 1.574 1_565 S
C3346 H3341 0.949 . S
C3346 C3352 1.368 . S
C3347 C3331 1.349 1_556 S
C3347 H3339 0.950 . S
C3347 C3345 1.327 . S
C3348 C3336 1.357 1_554 S
C3348 H3342 0.950 . S
C3348 C3349 1.327 . S
C3349 H3343 0.950 . S
C3349 C3348 1.327 . S
C3349 C3353 1.482 . S
C3350 C3333 1.574 1_545 S
C3350 H3344 0.949 . S
C3350 C3354 1.368 1_556 S
C3351 C3332 1.429 . S
C3351 C3345 1.429 1_554 S
C3351 C3352 1.523 . S
C3352 C3333 1.368 1_554 S
C3352 C3346 1.368 . S
C3352 C3351 1.523 . S
C3353 C3337 1.375 1_554 S
C3353 C3349 1.482 . S
C3353 C3354 1.528 . S
C3354 C3338 1.368 . S
C3354 C3350 1.368 1_554 S
C3354 C3353 1.528 . S
H3355 C3330 0.950 . S
H3356 C3332 0.950 . S
H3357 C3333 0.949 . S
H3358 C3335 0.950 . S
H3359 C3337 0.950 . S
C3360 C3361 1.360 . S
C3360 C3362 1.327 . S
C3360 H3385 0.950 . S
C3361 C3360 1.360 . S
C3361 C3377 1.337 1_556 S
C3362 C3360 1.327 . S
C3362 C3381 1.395 1_556 S
C3362 H3386 0.950 . S
C3363 C3380 1.574 1_655 S
C3363 C3382 1.446 . S
C3363 H3387 0.949 . S
H3364 C3368 0.949 . S
C3365 C3366 1.349 . S
C3365 C3367 1.327 . S
C3365 H3388 0.950 . S
C3366 C3365 1.349 . S
C3366 C3378 1.349 1_554 S
C3367 C3365 1.327 . S
C3367 C3383 1.429 . S
C3367 H3389 0.950 . S
C3368 H3364 0.949 . S
C3368 C3376 1.574 1_455 S
C3368 C3384 1.368 1_556 S
H3369 C3377 0.950 . S
H3370 C3375 0.950 . S
H3371 C3376 0.949 . S
H3372 C3378 0.950 . S
H3373 C3379 0.950 . S
H3374 C3380 0.949 . S
C3375 H3370 0.950 . S
C3375 C3377 1.327 . S
C3375 C3381 1.461 . S
C3376 C3368 1.574 1_655 S
C3376 H3371 0.949 . S
C3376 C3382 1.298 1_556 S
C3377 C3361 1.337 1_554 S
C3377 H3369 0.950 . S
C3377 C3375 1.327 . S
C3378 C3366 1.349 1_556 S
C3378 H3372 0.950 . S
C3378 C3379 1.327 . S
C3379 H3373 0.950 . S
C3379 C3378 1.327 . S
C3379 C3383 1.429 1_556 S
C3380 C3363 1.574 1_455 S
C3380 H3374 0.949 . S
C3380 C3384 1.368 . S
C3381 C3362 1.395 1_554 S
C3381 C3375 1.461 . S
C3381 C3382 1.522 . S
C3382 C3363 1.446 . S
C3382 C3376 1.298 1_554 S
C3382 C3381 1.522 . S
C3383 C3367 1.429 . S
C3383 C3379 1.429 1_554 S
C3383 C3384 1.523 . S
C3384 C3368 1.368 1_554 S
C3384 C3380 1.368 . S
C3384 C3383 1.523 . S
H3385 C3360 0.950 . S
H3386 C3362 0.950 . S
H3387 C3363 0.949 . S
H3388 C3365 0.950 . S
H3389 C3367 0.950 . S
C3390 C3391 1.349 . S
C3390 C3392 1.327 . S
C3390 H3415 0.950 . S
C3391 C3390 1.349 . S
C3391 C3407 1.349 1_554 S
C3392 C3390 1.327 . S
C3392 C3411 1.429 . S
C3392 H3416 0.950 . S
C3393 C3410 1.574 . S
C3393 C3412 1.368 1_556 S
C3393 H3417 0.949 . S
H3394 C3398 0.949 . S
C3395 C3396 1.342 . S
C3395 C3397 1.327 . S
C3395 H3418 0.950 . S
C3396 C3395 1.342 . S
C3396 C3408 1.357 1_556 S
C3397 C3395 1.327 . S
C3397 C3413 1.375 1_556 S
C3397 H3419 0.950 . S
C3398 H3394 0.949 . S
C3398 C3406 1.574 . S
C3398 C3414 1.368 . S
H3399 C3407 0.950 . S
H3400 C3405 0.950 . S
H3401 C3406 0.949 . S
H3402 C3408 0.950 . S
H3403 C3409 0.950 . S
H3404 C3410 0.949 . S
C3405 H3400 0.950 . S
C3405 C3407 1.327 . S
C3405 C3411 1.429 1_556 S
C3406 C3398 1.574 . S
C3406 H3401 0.949 . S
C3406 C3412 1.368 . S
C3407 C3391 1.349 1_556 S
C3407 H3399 0.950 . S
C3407 C3405 1.327 . S
C3408 C3396 1.357 1_554 S
C3408 H3402 0.950 . S
C3408 C3409 1.327 . S
C3409 H3403 0.950 . S
C3409 C3408 1.327 . S
C3409 C3413 1.482 . S
C3410 C3393 1.574 . S
C3410 H3404 0.949 . S
C3410 C3414 1.368 1_556 S
C3411 C3392 1.429 . S
C3411 C3405 1.429 1_554 S
C3411 C3412 1.523 . S
C3412 C3393 1.368 1_554 S
C3412 C3406 1.368 . S
C3412 C3411 1.523 . S
C3413 C3397 1.375 1_554 S
C3413 C3409 1.482 . S
C3413 C3414 1.528 . S
C3414 C3398 1.368 . S
C3414 C3410 1.368 1_554 S
C3414 C3413 1.528 . S
H3415 C3390 0.950 . S
H3416 C3392 0.950 . S
H3417 C3393 0.949 . S
H3418 C3395 0.950 . S
H3419 C3397 0.950 . S
C3420 C3421 1.349 . S
C3420 C3422 1.327 . S
C3420 H3445 0.950 . S
C3421 C3420 1.349 . S
C3421 C3437 1.349 . S
C3422 C3420 1.327 . S
C3422 C3441 1.429 1_455 S
C3422 H3446 0.950 1_455 S
C3423 C3440 1.574 . S
C3423 C3442 1.368 . S
C3423 H3447 0.949 . S
H3424 C3428 0.949 . S
C3425 C3426 1.349 . S
C3425 C3427 1.327 . S
C3425 H3448 0.950 . S
C3426 C3425 1.349 . S
C3426 C3438 1.349 . S
C3427 C3425 1.327 . S
C3427 C3443 1.429 . S
C3427 H3449 0.950 . S
C3428 H3424 0.949 . S
C3428 C3436 1.574 . S
C3428 C3444 1.368 . S
H3429 C3437 0.950 . S
H3430 C3435 0.950 . S
H3431 C3436 0.949 . S
H3432 C3438 0.950 . S
H3433 C3439 0.950 . S
H3434 C3440 0.949 . S
C3435 H3430 0.950 . S
C3435 C3437 1.327 . S
C3435 C3441 1.429 1_455 S
C3436 C3428 1.574 . S
C3436 H3431 0.949 . S
C3436 C3442 1.368 . S
C3437 C3421 1.349 . S
C3437 H3429 0.950 . S
C3437 C3435 1.327 . S
C3438 C3426 1.349 . S
C3438 H3432 0.950 . S
C3438 C3439 1.327 . S
C3439 H3433 0.950 . S
C3439 C3438 1.327 . S
C3439 C3443 1.429 . S
C3440 C3423 1.574 . S
C3440 H3434 0.949 . S
C3440 C3444 1.368 . S
C3441 C3422 1.429 1_655 S
C3441 C3435 1.429 1_655 S
C3441 C3442 1.523 . S
C3442 C3423 1.368 . S
C3442 C3436 1.368 . S
C3442 C3441 1.523 . S
C3443 C3427 1.429 . S
C3443 C3439 1.429 . S
C3443 C3444 1.523 . S
C3444 C3428 1.368 . S
C3444 C3440 1.368 . S
C3444 C3443 1.523 . S
H3445 C3420 0.950 . S
H3446 C3422 0.950 1_655 S
H3447 C3423 0.949 . S
H3448 C3425 0.950 . S
H3449 C3427 0.950 . S
C3450 C3451 1.349 . S
C3450 C3452 1.327 . S
C3450 H3475 0.950 . S
C3451 C3450 1.349 . S
C3451 C3467 1.349 . S
C3452 C3450 1.327 . S
C3452 C3471 1.429 . S
C3452 H3476 0.950 . S
C3453 C3470 1.574 . S
C3453 C3472 1.368 . S
C3453 H3477 0.949 . S
H3454 C3458 0.949 . S
C3455 C3456 1.349 . S
C3455 C3457 1.327 . S
C3455 H3478 0.950 . S
C3456 C3455 1.349 . S
C3456 C3468 1.349 . S
C3457 C3455 1.327 . S
C3457 C3473 1.429 . S
C3457 H3479 0.950 . S
C3458 H3454 0.949 . S
C3458 C3466 1.574 . S
C3458 C3474 1.368 . S
H3459 C3467 0.950 . S
H3460 C3465 0.950 . S
H3461 C3466 0.949 . S
H3462 C3468 0.950 . S
H3463 C3469 0.950 . S
H3464 C3470 0.949 . S
C3465 H3460 0.950 . S
C3465 C3467 1.327 . S
C3465 C3471 1.429 . S
C3466 C3458 1.574 . S
C3466 H3461 0.949 . S
C3466 C3472 1.368 . S
C3467 C3451 1.349 . S
C3467 H3459 0.950 . S
C3467 C3465 1.327 . S
C3468 C3456 1.349 . S
C3468 H3462 0.950 . S
C3468 C3469 1.327 . S
C3469 H3463 0.950 . S
C3469 C3468 1.327 . S
C3469 C3473 1.429 . S
C3470 C3453 1.574 . S
C3470 H3464 0.949 . S
C3470 C3474 1.368 . S
C3471 C3452 1.429 . S
C3471 C3465 1.429 . S
C3471 C3472 1.523 . S
C3472 C3453 1.368 . S
C3472 C3466 1.368 . S
C3472 C3471 1.523 . S
C3473 C3457 1.429 . S
C3473 C3469 1.429 . S
C3473 C3474 1.523 . S
C3474 C3458 1.368 . S
C3474 C3470 1.368 . S
C3474 C3473 1.523 . S
H3475 C3450 0.950 . S
H3476 C3452 0.950 . S
H3477 C3453 0.949 . S
H3478 C3455 0.950 . S
H3479 C3457 0.950 . S
C3480 C3481 1.349 . S
C3480 C3482 1.327 . S
C3480 H3505 0.950 . S
C3481 C3480 1.349 . S
C3481 C3497 1.349 . S
C3482 C3480 1.327 . S
C3482 C3501 1.429 1_565 S
C3482 H3506 0.950 . S
C3483 C3500 1.574 . S
C3483 C3502 1.368 . S
C3483 H3507 0.949 . S
H3484 C3488 0.949 . S
C3485 C3486 1.349 . S
C3485 C3487 1.327 . S
C3485 H3508 0.950 . S
C3486 C3485 1.349 . S
C3486 C3498 1.349 . S
C3487 C3485 1.327 . S
C3487 C3503 1.429 . S
C3487 H3509 0.950 . S
C3488 H3484 0.949 . S
C3488 C3496 1.574 . S
C3488 C3504 1.368 . S
H3489 C3497 0.950 . S
H3490 C3495 0.950 . S
H3491 C3496 0.949 . S
H3492 C3498 0.950 . S
H3493 C3499 0.950 . S
H3494 C3500 0.949 . S
C3495 H3490 0.950 . S
C3495 C3497 1.327 1_545 S
C3495 C3501 1.429 . S
C3496 C3488 1.574 . S
C3496 H3491 0.949 . S
C3496 C3502 1.368 . S
C3497 C3481 1.349 . S
C3497 H3489 0.950 . S
C3497 C3495 1.327 1_565 S
C3498 C3486 1.349 . S
C3498 H3492 0.950 . S
C3498 C3499 1.327 . S
C3499 H3493 0.950 . S
C3499 C3498 1.327 . S
C3499 C3503 1.429 . S
C3500 C3483 1.574 . S
C3500 H3494 0.949 . S
C3500 C3504 1.368 . S
C3501 C3482 1.429 1_545 S
C3501 C3495 1.429 . S
C3501 C3502 1.523 . S
C3502 C3483 1.368 . S
C3502 C3496 1.368 . S
C3502 C3501 1.523 . S
C3503 C3487 1.429 . S
C3503 C3499 1.429 . S
C3503 C3504 1.523 . S
C3504 C3488 1.368 . S
C3504 C3500 1.368 . S
C3504 C3503 1.523 . S
H3505 C3480 0.950 . S
H3506 C3482 0.950 . S
H3507 C3483 0.949 . S
H3508 C3485 0.950 . S
H3509 C3487 0.950 . S
C3510 C3511 1.349 . S
C3510 C3512 1.327 1_455 S
C3510 H3535 0.950 . S
C3511 C3510 1.349 . S
C3511 C3527 1.349 . S
C3512 C3510 1.327 1_655 S
C3512 C3531 1.429 . S
C3512 H3536 0.950 . S
C3513 C3530 1.574 . S
C3513 C3532 1.368 . S
C3513 H3537 0.949 . S
H3514 C3518 0.949 . S
C3515 C3516 1.349 . S
C3515 C3517 1.327 . S
C3515 H3538 0.950 . S
C3516 C3515 1.349 . S
C3516 C3528 1.349 . S
C3517 C3515 1.327 . S
C3517 C3533 1.429 . S
C3517 H3539 0.950 . S
C3518 H3514 0.949 . S
C3518 C3526 1.574 . S
C3518 C3534 1.368 . S
H3519 C3527 0.950 . S
H3520 C3525 0.950 . S
H3521 C3526 0.949 . S
H3522 C3528 0.950 . S
H3523 C3529 0.950 . S
H3524 C3530 0.949 . S
C3525 H3520 0.950 . S
C3525 C3527 1.327 . S
C3525 C3531 1.429 1_455 S
C3526 C3518 1.574 . S
C3526 H3521 0.949 . S
C3526 C3532 1.368 . S
C3527 C3511 1.349 . S
C3527 H3519 0.950 . S
C3527 C3525 1.327 . S
C3528 C3516 1.349 . S
C3528 H3522 0.950 . S
C3528 C3529 1.327 . S
C3529 H3523 0.950 . S
C3529 C3528 1.327 . S
C3529 C3533 1.429 . S
C3530 C3513 1.574 . S
C3530 H3524 0.949 . S
C3530 C3534 1.368 . S
C3531 C3512 1.429 . S
C3531 C3525 1.429 1_655 S
C3531 C3532 1.523 . S
C3532 C3513 1.368 . S
C3532 C3526 1.368 . S
C3532 C3531 1.523 . S
C3533 C3517 1.429 . S
C3533 C3529 1.429 . S
C3533 C3534 1.523 . S
C3534 C3518 1.368 . S
C3534 C3530 1.368 . S
C3534 C3533 1.523 . S
H3535 C3510 0.950 . S
H3536 C3512 0.950 . S
H3537 C3513 0.949 . S
H3538 C3515 0.950 . S
H3539 C3517 0.950 . S
C3540 C3541 1.349 . S
C3540 C3542 1.327 . S
C3540 H3565 0.950 . S
C3541 C3540 1.349 . S
C3541 C3557 1.349 . S
C3542 C3540 1.327 . S
C3542 C3561 1.429 . S
C3542 H3566 0.950 . S
C3543 C3560 1.574 . S
C3543 C3562 1.368 . S
C3543 H3567 0.949 . S
H3544 C3548 0.949 . S
C3545 C3546 1.349 . S
C3545 C3547 1.327 . S
C3545 H3568 0.950 . S
C3546 C3545 1.349 . S
C3546 C3558 1.349 . S
C3547 C3545 1.327 . S
C3547 C3563 1.429 . S
C3547 H3569 0.950 . S
C3548 H3544 0.949 . S
C3548 C3556 1.574 . S
C3548 C3564 1.368 . S
H3549 C3557 0.950 . S
H3550 C3555 0.950 . S
H3551 C3556 0.949 . S
H3552 C3558 0.950 . S
H3553 C3559 0.950 . S
H3554 C3560 0.949 . S
C3555 H3550 0.950 . S
C3555 C3557 1.327 . S
C3555 C3561 1.429 . S
C3556 C3548 1.574 . S
C3556 H3551 0.949 . S
C3556 C3562 1.368 . S
C3557 C3541 1.349 . S
C3557 H3549 0.950 . S
C3557 C3555 1.327 . S
C3558 C3546 1.349 . S
C3558 H3552 0.950 . S
C3558 C3559 1.327 . S
C3559 H3553 0.950 . S
C3559 C3558 1.327 . S
C3559 C3563 1.429 . S
C3560 C3543 1.574 . S
C3560 H3554 0.949 . S
C3560 C3564 1.368 . S
C3561 C3542 1.429 . S
C3561 C3555 1.429 . S
C3561 C3562 1.523 . S
C3562 C3543 1.368 . S
C3562 C3556 1.368 . S
C3562 C3561 1.523 . S
C3563 C3547 1.429 . S
C3563 C3559 1.429 . S
C3563 C3564 1.523 . S
C3564 C3548 1.368 . S
C3564 C3560 1.368 . S
C3564 C3563 1.523 . S
H3565 C3540 0.950 . S
H3566 C3542 0.950 . S
H3567 C3543 0.949 . S
H3568 C3545 0.950 . S
H3569 C3547 0.950 . S
C3570 C3571 1.349 . S
C3570 C3572 1.327 . S
C3570 H3595 0.950 . S
C3571 C3570 1.349 . S
C3571 C3587 1.349 . S
C3572 C3570 1.327 . S
C3572 C3591 1.429 . S
C3572 H3596 0.950 . S
C3573 C3590 1.574 . S
C3573 C3592 1.368 . S
C3573 H3597 0.949 . S
H3574 C3578 0.949 . S
C3575 C3576 1.349 . S
C3575 C3577 1.300 1_565 S
C3575 H3598 0.950 . S
C3576 C3575 1.349 . S
C3576 C3588 1.349 . S
C3577 C3575 1.300 1_545 S
C3577 C3593 1.441 . S
C3577 H3599 0.965 . S
C3578 H3574 0.949 . S
C3578 C3586 1.574 . S
C3578 C3594 1.368 . S
H3579 C3587 0.950 . S
H3580 C3585 0.950 . S
H3581 C3586 0.949 . S
H3582 C3588 0.950 . S
H3583 C3589 0.950 . S
H3584 C3590 0.949 . S
C3585 H3580 0.950 . S
C3585 C3587 1.327 . S
C3585 C3591 1.429 . S
C3586 C3578 1.574 . S
C3586 H3581 0.949 . S
C3586 C3592 1.368 . S
C3587 C3571 1.349 . S
C3587 H3579 0.950 . S
C3587 C3585 1.327 . S
C3588 C3576 1.349 . S
C3588 H3582 0.950 . S
C3588 C3589 1.327 . S
C3589 H3583 0.950 . S
C3589 C3588 1.327 . S
C3589 C3593 1.429 1_565 S
C3590 C3573 1.574 . S
C3590 H3584 0.949 . S
C3590 C3594 1.368 . S
C3591 C3572 1.429 . S
C3591 C3585 1.429 . S
C3591 C3592 1.523 . S
C3592 C3573 1.368 . S
C3592 C3586 1.368 . S
C3592 C3591 1.523 . S
C3593 C3577 1.441 . S
C3593 C3589 1.429 1_545 S
C3593 C3594 1.523 . S
C3594 C3578 1.368 . S
C3594 C3590 1.368 . S
C3594 C3593 1.523 . S
H3595 C3570 0.950 . S
H3596 C3572 0.950 . S
H3597 C3573 0.949 . S
H3598 C3575 0.950 . S
H3599 C3577 0.965 . S
C3600 C3601 1.349 . S
C3600 C3602 1.327 . S
C3600 H3625 0.950 . S
C3601 C3600 1.349 . S
C3601 C3617 1.349 . S
C3602 C3600 1.327 . S
C3602 C3621 1.429 . S
C3602 H3626 0.950 . S
C3603 C3620 1.574 . S
C3603 C3622 1.368 . S
C3603 H3627 0.949 . S
H3604 C3608 0.949 . S
C3605 C3606 1.349 . S
C3605 C3607 1.327 . S
C3605 H3628 0.950 . S
C3606 C3605 1.349 . S
C3606 C3618 1.349 . S
C3607 C3605 1.327 . S
C3607 C3623 1.429 . S
C3607 H3629 0.950 . S
C3608 H3604 0.949 . S
C3608 C3616 1.574 . S
C3608 C3624 1.368 . S
H3609 C3617 0.950 . S
H3610 C3615 0.950 . S
H3611 C3616 0.949 . S
H3612 C3618 0.950 . S
H3613 C3619 0.950 . S
H3614 C3620 0.949 . S
C3615 H3610 0.950 . S
C3615 C3617 1.327 . S
C3615 C3621 1.429 . S
C3616 C3608 1.574 . S
C3616 H3611 0.949 . S
C3616 C3622 1.368 . S
C3617 C3601 1.349 . S
C3617 H3609 0.950 . S
C3617 C3615 1.327 . S
C3618 C3606 1.349 . S
C3618 H3612 0.950 . S
C3618 C3619 1.327 . S
C3619 H3613 0.950 . S
C3619 C3618 1.327 . S
C3619 C3623 1.429 . S
C3620 C3603 1.574 . S
C3620 H3614 0.949 . S
C3620 C3624 1.368 . S
C3621 C3602 1.429 . S
C3621 C3615 1.429 . S
C3621 C3622 1.523 . S
C3622 C3603 1.368 . S
C3622 C3616 1.368 . S
C3622 C3621 1.523 . S
C3623 C3607 1.429 . S
C3623 C3619 1.429 . S
C3623 C3624 1.523 . S
C3624 C3608 1.368 . S
C3624 C3620 1.368 . S
C3624 C3623 1.523 . S
H3625 C3600 0.950 . S
H3626 C3602 0.950 . S
H3627 C3603 0.949 . S
H3628 C3605 0.950 . S
H3629 C3607 0.950 . S
C3630 C3631 1.349 . S
C3630 C3632 1.327 . S
C3630 H3655 0.950 . S
C3631 C3630 1.349 . S
C3631 C3647 1.349 . S
C3632 C3630 1.327 . S
C3632 C3651 1.429 . S
C3632 H3656 0.950 . S
C3633 C3650 1.574 . S
C3633 C3652 1.368 . S
C3633 H3657 0.949 . S
H3634 C3638 0.949 . S
C3635 C3636 1.349 . S
C3635 C3637 1.327 . S
C3635 H3658 0.950 . S
C3636 C3635 1.349 . S
C3636 C3648 1.349 . S
C3637 C3635 1.327 . S
C3637 C3653 1.429 . S
C3637 H3659 0.950 . S
C3638 H3634 0.949 . S
C3638 C3646 1.574 . S
C3638 C3654 1.368 . S
H3639 C3647 0.950 . S
H3640 C3645 0.950 . S
H3641 C3646 0.949 . S
H3642 C3648 0.950 . S
H3643 C3649 0.950 . S
H3644 C3650 0.949 . S
C3645 H3640 0.950 . S
C3645 C3647 1.327 . S
C3645 C3651 1.429 . S
C3646 C3638 1.574 . S
C3646 H3641 0.949 . S
C3646 C3652 1.368 . S
C3647 C3631 1.349 . S
C3647 H3639 0.950 . S
C3647 C3645 1.327 . S
C3648 C3636 1.349 . S
C3648 H3642 0.950 . S
C3648 C3649 1.327 . S
C3649 H3643 0.950 . S
C3649 C3648 1.327 . S
C3649 C3653 1.429 . S
C3650 C3633 1.574 . S
C3650 H3644 0.949 . S
C3650 C3654 1.368 . S
C3651 C3632 1.429 . S
C3651 C3645 1.429 . S
C3651 C3652 1.523 . S
C3652 C3633 1.368 . S
C3652 C3646 1.368 . S
C3652 C3651 1.523 . S
C3653 C3637 1.429 . S
C3653 C3649 1.429 . S
C3653 C3654 1.523 . S
C3654 C3638 1.368 . S
C3654 C3650 1.368 . S
C3654 C3653 1.523 . S
H3655 C3630 0.950 . S
H3656 C3632 0.950 . S
H3657 C3633 0.949 . S
H3658 C3635 0.950 . S
H3659 C3637 0.950 . S
C3660 C3661 1.349 . S
C3660 C3662 1.327 . S
C3660 H3685 0.950 . S
C3661 C3660 1.349 . S
C3661 C3677 1.349 . S
C3662 C3660 1.327 . S
C3662 C3681 1.429 . S
C3662 H3686 0.950 . S
C3663 C3680 1.574 . S
C3663 C3682 1.368 . S
C3663 H3687 0.949 . S
H3664 C3668 0.949 . S
C3665 C3666 1.349 . S
C3665 C3667 1.327 . S
C3665 H3688 0.950 . S
C3666 C3665 1.349 . S
C3666 C3678 1.349 . S
C3667 C3665 1.327 . S
C3667 C3683 1.429 . S
C3667 H3689 0.950 . S
C3668 H3664 0.949 . S
C3668 C3676 1.574 . S
C3668 C3684 1.368 . S
H3669 C3677 0.950 . S
H3670 C3675 0.950 . S
H3671 C3676 0.949 . S
H3672 C3678 0.950 . S
H3673 C3679 0.950 . S
H3674 C3680 0.949 . S
C3675 H3670 0.950 . S
C3675 C3677 1.327 . S
C3675 C3681 1.429 . S
C3676 C3668 1.574 . S
C3676 H3671 0.949 . S
C3676 C3682 1.368 . S
C3677 C3661 1.349 . S
C3677 H3669 0.950 . S
C3677 C3675 1.327 . S
C3678 C3666 1.349 . S
C3678 H3672 0.950 . S
C3678 C3679 1.327 . S
C3679 H3673 0.950 . S
C3679 C3678 1.327 . S
C3679 C3683 1.429 . S
C3680 C3663 1.574 . S
C3680 H3674 0.949 . S
C3680 C3684 1.368 . S
C3681 C3662 1.429 . S
C3681 C3675 1.429 . S
C3681 C3682 1.523 . S
C3682 C3663 1.368 . S
C3682 C3676 1.368 . S
C3682 C3681 1.523 . S
C3683 C3667 1.429 . S
C3683 C3679 1.429 . S
C3683 C3684 1.523 . S
C3684 C3668 1.368 . S
C3684 C3680 1.368 . S
C3684 C3683 1.523 . S
H3685 C3660 0.950 . S
H3686 C3662 0.950 . S
H3687 C3663 0.949 . S
H3688 C3665 0.950 . S
H3689 C3667 0.950 . S
C3690 C3691 1.349 . S
C3690 C3692 1.327 . S
C3690 H3715 0.950 . S
C3691 C3690 1.349 . S
C3691 C3707 1.349 . S
C3692 C3690 1.327 . S
C3692 C3711 1.429 . S
C3692 H3716 0.950 . S
C3693 C3710 1.574 . S
C3693 C3712 1.368 . S
C3693 H3717 0.949 . S
H3694 C3698 0.949 . S
C3695 C3696 1.349 . S
C3695 C3697 1.327 . S
C3695 H3718 0.950 . S
C3696 C3695 1.349 . S
C3696 C3708 1.349 . S
C3697 C3695 1.327 . S
C3697 C3713 1.429 . S
C3697 H3719 0.950 . S
C3698 H3694 0.949 . S
C3698 C3706 1.574 . S
C3698 C3714 1.368 . S
H3699 C3707 0.950 . S
H3700 C3705 0.950 . S
H3701 C3706 0.949 . S
H3702 C3708 0.950 . S
H3703 C3709 0.950 . S
H3704 C3710 0.949 . S
C3705 H3700 0.950 . S
C3705 C3707 1.327 . S
C3705 C3711 1.429 . S
C3706 C3698 1.574 . S
C3706 H3701 0.949 . S
C3706 C3712 1.368 . S
C3707 C3691 1.349 . S
C3707 H3699 0.950 . S
C3707 C3705 1.327 . S
C3708 C3696 1.349 . S
C3708 H3702 0.950 . S
C3708 C3709 1.327 . S
C3709 H3703 0.950 . S
C3709 C3708 1.327 . S
C3709 C3713 1.429 . S
C3710 C3693 1.574 . S
C3710 H3704 0.949 . S
C3710 C3714 1.368 . S
C3711 C3692 1.429 . S
C3711 C3705 1.429 . S
C3711 C3712 1.523 . S
C3712 C3693 1.368 . S
C3712 C3706 1.368 . S
C3712 C3711 1.523 . S
C3713 C3697 1.429 . S
C3713 C3709 1.429 . S
C3713 C3714 1.523 . S
C3714 C3698 1.368 . S
C3714 C3710 1.368 . S
C3714 C3713 1.523 . S
H3715 C3690 0.950 . S
H3716 C3692 0.950 . S
H3717 C3693 0.949 . S
H3718 C3695 0.950 . S
H3719 C3697 0.950 . S
C3720 C3721 1.349 . S
C3720 C3722 1.327 . S
C3720 H3745 0.950 . S
C3721 C3720 1.349 . S
C3721 C3737 1.349 . S
C3722 C3720 1.327 . S
C3722 C3741 1.429 . S
C3722 H3746 0.950 . S
C3723 C3740 1.574 . S
C3723 C3742 1.368 . S
C3723 H3747 0.949 . S
H3724 C3728 0.949 . S
C3725 C3726 1.349 . S
C3725 C3727 1.327 . S
C3725 H3748 0.950 . S
C3726 C3725 1.349 . S
C3726 C3738 1.349 . S
C3727 C3725 1.327 . S
C3727 C3743 1.429 . S
C3727 H3749 0.950 . S
C3728 H3724 0.949 . S
C3728 C3736 1.574 . S
C3728 C3744 1.368 . S
H3729 C3737 0.950 . S
H3730 C3735 0.950 . S
H3731 C3736 0.949 . S
H3732 C3738 0.950 . S
H3733 C3739 0.950 . S
H3734 C3740 0.949 . S
C3735 H3730 0.950 . S
C3735 C3737 1.327 . S
C3735 C3741 1.429 . S
C3736 C3728 1.574 . S
C3736 H3731 0.949 . S
C3736 C3742 1.368 . S
C3737 C3721 1.349 . S
C3737 H3729 0.950 . S
C3737 C3735 1.327 . S
C3738 C3726 1.349 . S
C3738 H3732 0.950 . S
C3738 C3739 1.327 . S
C3739 H3733 0.950 . S
C3739 C3738 1.327 . S
C3739 C3743 1.429 . S
C3740 C3723 1.574 . S
C3740 H3734 0.949 . S
C3740 C3744 1.368 . S
C3741 C3722 1.429 . S
C3741 C3735 1.429 . S
C3741 C3742 1.523 . S
C3742 C3723 1.368 . S
C3742 C3736 1.368 . S
C3742 C3741 1.523 . S
C3743 C3727 1.429 . S
C3743 C3739 1.429 . S
C3743 C3744 1.523 . S
C3744 C3728 1.368 . S
C3744 C3740 1.368 . S
C3744 C3743 1.523 . S
H3745 C3720 0.950 . S
H3746 C3722 0.950 . S
H3747 C3723 0.949 . S
H3748 C3725 0.950 . S
H3749 C3727 0.950 . S
C3750 C3751 1.349 . S
C3750 C3752 1.327 . S
C3750 H3775 0.950 . S
C3751 C3750 1.349 . S
C3751 C3767 1.349 . S
C3752 C3750 1.327 . S
C3752 C3771 1.429 . S
C3752 H3776 0.950 . S
C3753 C3770 1.574 . S
C3753 C3772 1.368 . S
C3753 H3777 0.949 . S
H3754 C3758 0.949 . S
C3755 C3756 1.349 . S
C3755 C3757 1.327 . S
C3755 H3778 0.950 . S
C3756 C3755 1.349 . S
C3756 C3768 1.349 . S
C3757 C3755 1.327 . S
C3757 C3773 1.429 . S
C3757 H3779 0.950 . S
C3758 H3754 0.949 . S
C3758 C3766 1.574 . S
C3758 C3774 1.368 . S
H3759 C3767 0.950 . S
H3760 C3765 0.950 . S
H3761 C3766 0.949 . S
H3762 C3768 0.950 . S
H3763 C3769 0.950 . S
H3764 C3770 0.949 . S
C3765 H3760 0.950 . S
C3765 C3767 1.327 . S
C3765 C3771 1.429 . S
C3766 C3758 1.574 . S
C3766 H3761 0.949 . S
C3766 C3772 1.368 . S
C3767 C3751 1.349 . S
C3767 H3759 0.950 . S
C3767 C3765 1.327 . S
C3768 C3756 1.349 . S
C3768 H3762 0.950 . S
C3768 C3769 1.327 . S
C3769 H3763 0.950 . S
C3769 C3768 1.327 . S
C3769 C3773 1.429 . S
C3770 C3753 1.574 . S
C3770 H3764 0.949 . S
C3770 C3774 1.368 . S
C3771 C3752 1.429 . S
C3771 C3765 1.429 . S
C3771 C3772 1.523 . S
C3772 C3753 1.368 . S
C3772 C3766 1.368 . S
C3772 C3771 1.523 . S
C3773 C3757 1.429 . S
C3773 C3769 1.429 . S
C3773 C3774 1.523 . S
C3774 C3758 1.368 . S
C3774 C3770 1.368 . S
C3774 C3773 1.523 . S
H3775 C3750 0.950 . S
H3776 C3752 0.950 . S
H3777 C3753 0.949 . S
H3778 C3755 0.950 . S
H3779 C3757 0.950 . S
C3780 C3781 1.349 . S
C3780 C3782 1.327 . S
C3780 H3805 0.950 . S
C3781 C3780 1.349 . S
C3781 C3797 1.349 . S
C3782 C3780 1.327 . S
C3782 C3801 1.429 . S
C3782 H3806 0.950 . S
C3783 C3800 1.574 . S
C3783 C3802 1.368 . S
C3783 H3807 0.949 . S
H3784 C3788 0.949 . S
C3785 C3786 1.349 . S
C3785 C3787 1.327 . S
C3785 H3808 0.950 . S
C3786 C3785 1.349 . S
C3786 C3798 1.349 . S
C3787 C3785 1.327 . S
C3787 C3803 1.429 . S
C3787 H3809 0.950 . S
C3788 H3784 0.949 . S
C3788 C3796 1.574 . S
C3788 C3804 1.368 . S
H3789 C3797 0.950 . S
H3790 C3795 0.950 . S
H3791 C3796 0.949 . S
H3792 C3798 0.950 . S
H3793 C3799 0.950 . S
H3794 C3800 0.949 . S
C3795 H3790 0.950 . S
C3795 C3797 1.327 . S
C3795 C3801 1.429 . S
C3796 C3788 1.574 . S
C3796 H3791 0.949 . S
C3796 C3802 1.368 . S
C3797 C3781 1.349 . S
C3797 H3789 0.950 . S
C3797 C3795 1.327 . S
C3798 C3786 1.349 . S
C3798 H3792 0.950 . S
C3798 C3799 1.327 . S
C3799 H3793 0.950 . S
C3799 C3798 1.327 . S
C3799 C3803 1.429 . S
C3800 C3783 1.574 . S
C3800 H3794 0.949 . S
C3800 C3804 1.368 . S
C3801 C3782 1.429 . S
C3801 C3795 1.429 . S
C3801 C3802 1.523 . S
C3802 C3783 1.368 . S
C3802 C3796 1.368 . S
C3802 C3801 1.523 . S
C3803 C3787 1.429 . S
C3803 C3799 1.429 . S
C3803 C3804 1.523 . S
C3804 C3788 1.368 . S
C3804 C3800 1.368 . S
C3804 C3803 1.523 . S
H3805 C3780 0.950 . S
H3806 C3782 0.950 . S
H3807 C3783 0.949 . S
H3808 C3785 0.950 . S
H3809 C3787 0.950 . S
C3810 C3811 1.349 . S
C3810 C3812 1.327 . S
C3810 H3835 0.950 . S
C3811 C3810 1.349 . S
C3811 C3827 1.349 . S
C3812 C3810 1.327 . S
C3812 C3831 1.429 . S
C3812 H3836 0.950 . S
C3813 C3830 1.574 . S
C3813 C3832 1.368 . S
C3813 H3837 0.949 . S
H3814 C3818 0.949 . S
C3815 C3816 1.349 . S
C3815 C3817 1.327 . S
C3815 H3838 0.950 . S
C3816 C3815 1.349 . S
C3816 C3828 1.349 . S
C3817 C3815 1.327 . S
C3817 C3833 1.429 . S
C3817 H3839 0.950 . S
C3818 H3814 0.949 . S
C3818 C3826 1.574 . S
C3818 C3834 1.368 . S
H3819 C3827 0.950 . S
H3820 C3825 0.950 . S
H3821 C3826 0.949 . S
H3822 C3828 0.950 . S
H3823 C3829 0.950 . S
H3824 C3830 0.949 . S
C3825 H3820 0.950 . S
C3825 C3827 1.327 . S
C3825 C3831 1.429 . S
C3826 C3818 1.574 . S
C3826 H3821 0.949 . S
C3826 C3832 1.368 . S
C3827 C3811 1.349 . S
C3827 H3819 0.950 . S
C3827 C3825 1.327 . S
C3828 C3816 1.349 . S
C3828 H3822 0.950 . S
C3828 C3829 1.327 . S
C3829 H3823 0.950 . S
C3829 C3828 1.327 . S
C3829 C3833 1.429 . S
C3830 C3813 1.574 . S
C3830 H3824 0.949 . S
C3830 C3834 1.368 . S
C3831 C3812 1.429 . S
C3831 C3825 1.429 . S
C3831 C3832 1.523 . S
C3832 C3813 1.368 . S
C3832 C3826 1.368 . S
C3832 C3831 1.523 . S
C3833 C3817 1.429 . S
C3833 C3829 1.429 . S
C3833 C3834 1.523 . S
C3834 C3818 1.368 . S
C3834 C3830 1.368 . S
C3834 C3833 1.523 . S
H3835 C3810 0.950 . S
H3836 C3812 0.950 . S
H3837 C3813 0.949 . S
H3838 C3815 0.950 . S
H3839 C3817 0.950 . S
C3840 C3841 1.349 . S
C3840 C3842 1.327 . S
C3840 H3865 0.950 . S
C3841 C3840 1.349 . S
C3841 C3857 1.349 . S
C3842 C3840 1.327 . S
C3842 C3861 1.429 . S
C3842 H3866 0.950 . S
C3843 C3860 1.574 . S
C3843 C3862 1.368 . S
C3843 H3867 0.949 . S
H3844 C3848 0.949 . S
C3845 C3846 1.349 . S
C3845 C3847 1.327 . S
C3845 H3868 0.950 . S
C3846 C3845 1.349 . S
C3846 C3858 1.349 . S
C3847 C3845 1.327 . S
C3847 C3863 1.429 . S
C3847 H3869 0.950 . S
C3848 H3844 0.949 . S
C3848 C3856 1.574 . S
C3848 C3864 1.368 . S
H3849 C3857 0.950 . S
H3850 C3855 0.950 . S
H3851 C3856 0.949 . S
H3852 C3858 0.950 . S
H3853 C3859 0.950 . S
H3854 C3860 0.949 . S
C3855 H3850 0.950 . S
C3855 C3857 1.327 . S
C3855 C3861 1.429 . S
C3856 C3848 1.574 . S
C3856 H3851 0.949 . S
C3856 C3862 1.368 . S
C3857 C3841 1.349 . S
C3857 H3849 0.950 . S
C3857 C3855 1.327 . S
C3858 C3846 1.349 . S
C3858 H3852 0.950 . S
C3858 C3859 1.327 . S
C3859 H3853 0.950 . S
C3859 C3858 1.327 . S
C3859 C3863 1.429 . S
C3860 C3843 1.574 . S
C3860 H3854 0.949 . S
C3860 C3864 1.368 . S
C3861 C3842 1.429 . S
C3861 C3855 1.429 . S
C3861 C3862 1.523 . S
C3862 C3843 1.368 . S
C3862 C3856 1.368 . S
C3862 C3861 1.523 . S
C3863 C3847 1.429 . S
C3863 C3859 1.429 . S
C3863 C3864 1.523 . S
C3864 C3848 1.368 . S
C3864 C3860 1.368 . S
C3864 C3863 1.523 . S
H3865 C3840 0.950 . S
H3866 C3842 0.950 . S
H3867 C3843 0.949 . S
H3868 C3845 0.950 . S
H3869 C3847 0.950 . S
C3870 C3871 1.349 . S
C3870 C3872 1.327 . S
C3870 H3895 0.950 . S
C3871 C3870 1.349 . S
C3871 C3887 1.349 . S
C3872 C3870 1.327 . S
C3872 C3891 1.429 . S
C3872 H3896 0.950 . S
C3873 C3890 1.574 . S
C3873 C3892 1.368 . S
C3873 H3897 0.949 . S
H3874 C3878 0.949 . S
C3875 C3876 1.349 . S
C3875 C3877 1.327 . S
C3875 H3898 0.950 . S
C3876 C3875 1.349 . S
C3876 C3888 1.349 . S
C3877 C3875 1.327 . S
C3877 C3893 1.429 . S
C3877 H3899 0.950 . S
C3878 H3874 0.949 . S
C3878 C3886 1.574 . S
C3878 C3894 1.368 . S
H3879 C3887 0.950 . S
H3880 C3885 0.950 . S
H3881 C3886 0.949 . S
H3882 C3888 0.950 . S
H3883 C3889 0.950 . S
H3884 C3890 0.949 . S
C3885 H3880 0.950 . S
C3885 C3887 1.327 . S
C3885 C3891 1.429 . S
C3886 C3878 1.574 . S
C3886 H3881 0.949 . S
C3886 C3892 1.368 . S
C3887 C3871 1.349 . S
C3887 H3879 0.950 . S
C3887 C3885 1.327 . S
C3888 C3876 1.349 . S
C3888 H3882 0.950 . S
C3888 C3889 1.327 . S
C3889 H3883 0.950 . S
C3889 C3888 1.327 . S
C3889 C3893 1.429 . S
C3890 C3873 1.574 . S
C3890 H3884 0.949 . S
C3890 C3894 1.368 . S
C3891 C3872 1.429 . S
C3891 C3885 1.429 . S
C3891 C3892 1.523 . S
C3892 C3873 1.368 . S
C3892 C3886 1.368 . S
C3892 C3891 1.523 . S
C3893 C3877 1.429 . S
C3893 C3889 1.429 . S
C3893 C3894 1.523 . S
C3894 C3878 1.368 . S
C3894 C3890 1.368 . S
C3894 C3893 1.523 . S
H3895 C3870 0.950 . S
H3896 C3872 0.950 . S
H3897 C3873 0.949 . S
H3898 C3875 0.950 . S
H3899 C3877 0.950 . S
C3900 C3901 1.349 . S
C3900 C3902 1.327 . S
C3900 H3925 0.950 . S
C3901 C3900 1.349 . S
C3901 C3917 1.349 . S
C3902 C3900 1.327 . S
C3902 C3921 1.429 . S
C3902 H3926 0.950 . S
C3903 C3920 1.574 . S
C3903 C3922 1.368 . S
C3903 H3927 0.949 . S
H3904 C3908 0.949 . S
C3905 C3906 1.349 . S
C3905 C3907 1.327 . S
C3905 H3928 0.950 . S
C3906 C3905 1.349 . S
C3906 C3918 1.349 . S
C3907 C3905 1.327 . S
C3907 C3923 1.429 . S
C3907 H3929 0.950 . S
C3908 H3904 0.949 . S
C3908 C3916 1.574 . S
C3908 C3924 1.368 . S
H3909 C3917 0.950 . S
H3910 C3915 0.950 . S
H3911 C3916 0.949 . S
H3912 C3918 0.950 . S
H3913 C3919 0.950 . S
H3914 C3920 0.949 . S
C3915 H3910 0.950 . S
C3915 C3917 1.327 . S
C3915 C3921 1.429 . S
C3916 C3908 1.574 . S
C3916 H3911 0.949 . S
C3916 C3922 1.368 . S
C3917 C3901 1.349 . S
C3917 H3909 0.950 . S
C3917 C3915 1.327 . S
C3918 C3906 1.349 . S
C3918 H3912 0.950 . S
C3918 C3919 1.327 . S
C3919 H3913 0.950 . S
C3919 C3918 1.327 . S
C3919 C3923 1.429 . S
C3920 C3903 1.574 . S
C3920 H3914 0.949 . S
C3920 C3924 1.368 . S
C3921 C3902 1.429 . S
C3921 C3915 1.429 . S
C3921 C3922 1.523 . S
C3922 C3903 1.368 . S
C3922 C3916 1.368 . S
C3922 C3921 1.523 . S
C3923 C3907 1.429 . S
C3923 C3919 1.429 . S
C3923 C3924 1.523 . S
C3924 C3908 1.368 . S
C3924 C3920 1.368 . S
C3924 C3923 1.523 . S
H3925 C3900 0.950 . S
H3926 C3902 0.950 . S
H3927 C3903 0.949 . S
H3928 C3905 0.950 . S
H3929 C3907 0.950 . S
C3930 C3931 1.349 . S
C3930 C3932 1.327 . S
C3930 H3955 0.950 . S
C3931 C3930 1.349 . S
C3931 C3947 1.349 . S
C3932 C3930 1.327 . S
C3932 C3951 1.429 . S
C3932 H3956 0.950 . S
C3933 C3950 1.574 . S
C3933 C3952 1.368 . S
C3933 H3957 0.949 . S
H3934 C3938 0.949 . S
C3935 C3936 1.349 . S
C3935 C3937 1.327 . S
C3935 H3958 0.950 . S
C3936 C3935 1.349 . S
C3936 C3948 1.349 . S
C3937 C3935 1.327 . S
C3937 C3953 1.429 . S
C3937 H3959 0.950 . S
C3938 H3934 0.949 . S
C3938 C3946 1.574 . S
C3938 C3954 1.368 . S
H3939 C3947 0.950 . S
H3940 C3945 0.950 . S
H3941 C3946 0.949 . S
H3942 C3948 0.950 . S
H3943 C3949 0.950 . S
H3944 C3950 0.949 . S
C3945 H3940 0.950 . S
C3945 C3947 1.327 . S
C3945 C3951 1.429 . S
C3946 C3938 1.574 . S
C3946 H3941 0.949 . S
C3946 C3952 1.368 . S
C3947 C3931 1.349 . S
C3947 H3939 0.950 . S
C3947 C3945 1.327 . S
C3948 C3936 1.349 . S
C3948 H3942 0.950 . S
C3948 C3949 1.327 . S
C3949 H3943 0.950 . S
C3949 C3948 1.327 . S
C3949 C3953 1.429 . S
C3950 C3933 1.574 . S
C3950 H3944 0.949 . S
C3950 C3954 1.368 . S
C3951 C3932 1.429 . S
C3951 C3945 1.429 . S
C3951 C3952 1.523 . S
C3952 C3933 1.368 . S
C3952 C3946 1.368 . S
C3952 C3951 1.523 . S
C3953 C3937 1.429 . S
C3953 C3949 1.429 . S
C3953 C3954 1.523 . S
C3954 C3938 1.368 . S
C3954 C3950 1.368 . S
C3954 C3953 1.523 . S
H3955 C3930 0.950 . S
H3956 C3932 0.950 . S
H3957 C3933 0.949 . S
H3958 C3935 0.950 . S
H3959 C3937 0.950 . S
C3960 C3961 1.349 . S
C3960 C3962 1.327 . S
C3960 H3985 0.950 . S
C3961 C3960 1.349 . S
C3961 C3977 1.349 . S
C3962 C3960 1.327 . S
C3962 C3981 1.429 . S
C3962 H3986 0.950 . S
C3963 C3980 1.574 . S
C3963 C3982 1.368 . S
C3963 H3987 0.979 . S
H3964 C3968 0.949 . S
C3965 C3966 1.349 . S
C3965 C3967 1.327 . S
C3965 H3988 0.950 . S
C3966 C3965 1.349 . S
C3966 C3978 1.349 . S
C3967 C3965 1.327 . S
C3967 C3983 1.429 . S
C3967 H3989 0.950 . S
C3968 H3964 0.949 . S
C3968 C3976 1.574 . S
C3968 C3984 1.368 . S
H3969 C3977 0.950 . S
H3970 C3975 0.950 . S
H3971 C3976 0.949 . S
H3972 C3978 0.950 . S
H3973 C3979 0.950 . S
H3974 C3980 0.949 . S
C3975 H3970 0.950 . S
C3975 C3977 1.327 . S
C3975 C3981 1.429 . S
C3976 C3968 1.574 . S
C3976 H3971 0.949 . S
C3976 C3982 1.368 . S
C3977 C3961 1.349 . S
C3977 H3969 0.950 . S
C3977 C3975 1.327 . S
C3978 C3966 1.349 . S
C3978 H3972 0.950 . S
C3978 C3979 1.327 . S
C3979 H3973 0.950 . S
C3979 C3978 1.327 . S
C3979 C3983 1.429 . S
C3980 C3963 1.574 . S
C3980 H3974 0.949 . S
C3980 C3984 1.368 . S
C3981 C3962 1.429 . S
C3981 C3975 1.429 . S
C3981 C3982 1.523 1_655 S
C3982 C3963 1.368 . S
C3982 C3976 1.368 . S
C3982 C3981 1.523 1_455 S
C3983 C3967 1.429 . S
C3983 C3979 1.429 . S
C3983 C3984 1.523 . S
C3984 C3968 1.368 . S
C3984 C3980 1.368 . S
C3984 C3983 1.523 . S
H3985 C3960 0.950 . S
H3986 C3962 0.950 . S
H3987 C3963 0.979 . S
H3988 C3965 0.950 . S
H3989 C3967 0.950 . S
C3990 C3991 1.349 . S
C3990 C3992 1.327 . S
C3990 H4015 0.950 . S
C3991 C3990 1.349 . S
C3991 C4007 1.349 . S
C3992 C3990 1.327 . S
C3992 C4011 1.429 . S
C3992 H4016 0.950 . S
C3993 C4010 1.574 . S
C3993 C4012 1.368 . S
C3993 H4017 0.949 . S
H3994 C3998 0.949 . S
C3995 C3996 1.349 . S
C3995 C3997 1.327 . S
C3995 H4018 0.950 . S
C3996 C3995 1.349 . S
C3996 C4008 1.349 . S
C3997 C3995 1.327 . S
C3997 C4013 1.429 . S
C3997 H4019 0.950 . S
C3998 H3994 0.949 . S
C3998 C4006 1.574 . S
C3998 C4014 1.368 . S
H3999 C4007 0.950 . S
H4000 C4005 0.950 . S
H4001 C4006 0.949 . S
H4002 C4008 0.950 . S
H4003 C4009 0.950 . S
H4004 C4010 0.949 . S
C4005 H4000 0.950 . S
C4005 C4007 1.327 . S
C4005 C4011 1.429 . S
C4006 C3998 1.574 . S
C4006 H4001 0.949 . S
C4006 C4012 1.368 . S
C4007 C3991 1.349 . S
C4007 H3999 0.950 . S
C4007 C4005 1.327 . S
C4008 C3996 1.349 . S
C4008 H4002 0.950 . S
C4008 C4009 1.327 . S
C4009 H4003 0.950 . S
C4009 C4008 1.327 . S
C4009 C4013 1.429 . S
C4010 C3993 1.574 . S
C4010 H4004 0.949 . S
C4010 C4014 1.368 . S
C4011 C3992 1.429 . S
C4011 C4005 1.429 . S
C4011 C4012 1.523 . S
C4012 C3993 1.368 . S
C4012 C4006 1.368 . S
C4012 C4011 1.523 . S
C4013 C3997 1.429 . S
C4013 C4009 1.429 . S
C4013 C4014 1.523 . S
C4014 C3998 1.368 . S
C4014 C4010 1.368 . S
C4014 C4013 1.523 . S
H4015 C3990 0.950 . S
H4016 C3992 0.950 . S
H4017 C3993 0.949 . S
H4018 C3995 0.950 . S
H4019 C3997 0.950 . S
C4020 C4021 1.349 . S
C4020 C4022 1.327 . S
C4020 H4045 0.950 . S
C4021 C4020 1.349 . S
C4021 C4037 1.349 1_545 S
C4022 C4020 1.327 . S
C4022 C4041 1.429 . S
C4022 H4046 0.950 . S
C4023 C4040 1.574 . S
C4023 C4042 1.368 . S
C4023 H4047 0.949 . S
H4024 C4028 0.949 . S
C4025 C4026 1.349 . S
C4025 C4027 1.327 . S
C4025 H4048 0.950 . S
C4026 C4025 1.349 . S
C4026 C4038 1.349 . S
C4027 C4025 1.327 . S
C4027 C4043 1.429 . S
C4027 H4049 0.950 . S
C4028 H4024 0.949 . S
C4028 C4036 1.574 . S
C4028 C4044 1.368 1_545 S
H4029 C4037 0.950 . S
H4030 C4035 0.950 . S
H4031 C4036 0.949 . S
H4032 C4038 0.950 . S
H4033 C4039 0.950 1_545 S
H4034 C4040 0.949 . S
C4035 H4030 0.950 . S
C4035 C4037 1.327 . S
C4035 C4041 1.429 1_565 S
C4036 C4028 1.574 . S
C4036 H4031 0.949 . S
C4036 C4042 1.368 1_545 S
C4037 C4021 1.349 1_565 S
C4037 H4029 0.950 . S
C4037 C4035 1.327 . S
C4038 C4026 1.349 . S
C4038 H4032 0.950 . S
C4038 C4039 1.327 . S
C4039 H4033 0.950 1_565 S
C4039 C4038 1.327 . S
C4039 C4043 1.429 . S
C4040 C4023 1.574 . S
C4040 H4034 0.949 . S
C4040 C4044 1.368 . S
C4041 C4022 1.429 . S
C4041 C4035 1.429 1_545 S
C4041 C4042 1.523 1_545 S
C4042 C4023 1.368 . S
C4042 C4036 1.368 1_565 S
C4042 C4041 1.523 1_565 S
C4043 C4027 1.429 . S
C4043 C4039 1.429 . S
C4043 C4044 1.523 . S
C4044 C4028 1.368 1_565 S
C4044 C4040 1.368 . S
C4044 C4043 1.523 . S
H4045 C4020 0.950 . S
H4046 C4022 0.950 . S
H4047 C4023 0.949 . S
H4048 C4025 0.950 . S
H4049 C4027 0.950 . S
C4050 C4051 1.349 . S
C4050 C4052 1.327 . S
C4050 H4075 0.950 . S
C4051 C4050 1.349 . S
C4051 C4067 1.349 . S
C4052 C4050 1.327 . S
C4052 C4071 1.429 . S
C4052 H4076 0.950 . S
C4053 C4070 1.574 . S
C4053 C4072 1.368 1_565 S
C4053 H4077 0.949 . S
H4054 C4058 0.949 . S
C4055 C4056 1.349 . S
C4055 C4057 1.327 . S
C4055 H4078 0.950 . S
C4056 C4055 1.349 . S
C4056 C4068 1.349 1_565 S
C4057 C4055 1.327 . S
C4057 C4073 1.429 . S
C4057 H4079 0.950 . S
C4058 H4054 0.949 . S
C4058 C4066 1.574 . S
C4058 C4074 1.368 . S
H4059 C4067 0.950 . S
H4060 C4065 0.950 1_565 S
H4061 C4066 0.949 . S
H4062 C4068 0.950 . S
H4063 C4069 0.950 . S
H4064 C4070 0.949 . S
C4065 H4060 0.950 1_545 S
C4065 C4067 1.327 . S
C4065 C4071 1.429 . S
C4066 C4058 1.574 . S
C4066 H4061 0.949 . S
C4066 C4072 1.368 . S
C4067 C4051 1.349 . S
C4067 H4059 0.950 . S
C4067 C4065 1.327 . S
C4068 C4056 1.349 1_545 S
C4068 H4062 0.950 . S
C4068 C4069 1.327 . S
C4069 H4063 0.950 . S
C4069 C4068 1.327 . S
C4069 C4073 1.429 1_545 S
C4070 C4053 1.574 . S
C4070 H4064 0.949 . S
C4070 C4074 1.368 1_565 S
C4071 C4052 1.429 . S
C4071 C4065 1.429 . S
C4071 C4072 1.523 . S
C4072 C4053 1.368 1_545 S
C4072 C4066 1.368 . S
C4072 C4071 1.523 . S
C4073 C4057 1.429 . S
C4073 C4069 1.429 1_565 S
C4073 C4074 1.523 1_565 S
C4074 C4058 1.368 . S
C4074 C4070 1.368 1_545 S
C4074 C4073 1.523 1_545 S
H4075 C4050 0.950 . S
H4076 C4052 0.950 . S
H4077 C4053 0.949 . S
H4078 C4055 0.950 . S
H4079 C4057 0.950 . S
C4080 C4081 1.349 1_655 S
C4080 C4082 1.327 . S
C4080 H4105 0.950 . S
C4081 C4080 1.349 1_455 S
C4081 C4097 1.349 . S
C4082 C4080 1.327 . S
C4082 C4101 1.429 1_655 S
C4082 H4106 0.950 . S
C4083 C4100 1.574 . S
C4083 C4102 1.368 1_455 S
C4083 H4107 0.949 . S
H4084 C4088 0.949 . S
C4085 C4086 1.349 . S
C4085 C4087 1.327 . S
C4085 H4108 0.950 . S
C4086 C4085 1.349 . S
C4086 C4098 1.349 . S
C4087 C4085 1.327 . S
C4087 C4103 1.429 . S
C4087 H4109 0.950 1_655 S
C4088 H4084 0.949 . S
C4088 C4096 1.574 . S
C4088 C4104 1.368 . S
H4089 C4097 0.950 . S
H4090 C4095 0.950 . S
H4091 C4096 0.949 . S
H4092 C4098 0.950 . S
H4093 C4099 0.950 . S
H4094 C4100 0.949 . S
C4095 H4090 0.950 . S
C4095 C4097 1.327 . S
C4095 C4101 1.429 . S
C4096 C4088 1.574 . S
C4096 H4091 0.949 . S
C4096 C4102 1.368 . S
C4097 C4081 1.349 . S
C4097 H4089 0.950 . S
C4097 C4095 1.327 . S
C4098 C4086 1.349 . S
C4098 H4092 0.950 . S
C4098 C4099 1.327 . S
C4099 H4093 0.950 . S
C4099 C4098 1.327 . S
C4099 C4103 1.429 . S
C4100 C4083 1.574 . S
C4100 H4094 0.949 . S
C4100 C4104 1.368 1_455 S
C4101 C4082 1.429 1_455 S
C4101 C4095 1.429 . S
C4101 C4102 1.523 1_455 S
C4102 C4083 1.368 1_655 S
C4102 C4096 1.368 . S
C4102 C4101 1.523 1_655 S
C4103 C4087 1.429 . S
C4103 C4099 1.429 . S
C4103 C4104 1.523 . S
C4104 C4088 1.368 . S
C4104 C4100 1.368 1_655 S
C4104 C4103 1.523 . S
H4105 C4080 0.950 . S
H4106 C4082 0.950 . S
H4107 C4083 0.949 . S
H4108 C4085 0.950 . S
H4109 C4087 0.950 1_455 S
C4110 C4111 1.349 . S
C4110 C4112 1.327 . S
C4110 H4135 0.950 . S
C4111 C4110 1.349 . S
C4111 C4127 1.349 . S
C4112 C4110 1.327 . S
C4112 C4131 1.429 . S
C4112 H4136 0.950 . S
C4113 C4130 1.574 . S
C4113 C4132 1.368 . S
C4113 H4137 0.949 . S
H4114 C4118 0.949 . S
C4115 C4116 1.349 . S
C4115 C4117 1.327 . S
C4115 H4138 0.950 . S
C4116 C4115 1.349 . S
C4116 C4128 1.349 . S
C4117 C4115 1.327 . S
C4117 C4133 1.429 . S
C4117 H4139 0.950 . S
C4118 H4114 0.949 . S
C4118 C4126 1.574 . S
C4118 C4134 1.368 . S
H4119 C4127 0.950 . S
H4120 C4125 0.950 . S
H4121 C4126 0.949 . S
H4122 C4128 0.950 . S
H4123 C4129 0.950 . S
H4124 C4130 0.949 . S
C4125 H4120 0.950 . S
C4125 C4127 1.327 . S
C4125 C4131 1.429 . S
C4126 C4118 1.574 . S
C4126 H4121 0.949 . S
C4126 C4132 1.368 . S
C4127 C4111 1.349 . S
C4127 H4119 0.950 . S
C4127 C4125 1.327 . S
C4128 C4116 1.349 . S
C4128 H4122 0.950 . S
C4128 C4129 1.327 . S
C4129 H4123 0.950 . S
C4129 C4128 1.327 . S
C4129 C4133 1.429 . S
C4130 C4113 1.574 . S
C4130 H4124 0.949 . S
C4130 C4134 1.368 . S
C4131 C4112 1.429 . S
C4131 C4125 1.429 . S
C4131 C4132 1.523 . S
C4132 C4113 1.368 . S
C4132 C4126 1.368 . S
C4132 C4131 1.523 . S
C4133 C4117 1.429 . S
C4133 C4129 1.429 . S
C4133 C4134 1.523 . S
C4134 C4118 1.368 . S
C4134 C4130 1.368 . S
C4134 C4133 1.523 . S
H4135 C4110 0.950 . S
H4136 C4112 0.950 . S
H4137 C4113 0.949 . S
H4138 C4115 0.950 . S
H4139 C4117 0.950 . S
C4140 C4141 1.349 . S
C4140 C4142 1.327 . S
C4140 H4165 0.950 . S
C4141 C4140 1.349 . S
C4141 C4157 1.349 . S
C4142 C4140 1.327 . S
C4142 C4161 1.429 . S
C4142 H4166 0.950 . S
C4143 C4160 1.574 . S
C4143 C4162 1.368 . S
C4143 H4167 0.949 . S
H4144 C4148 0.949 . S
C4145 C4146 1.349 . S
C4145 C4147 1.327 . S
C4145 H4168 0.950 . S
C4146 C4145 1.349 . S
C4146 C4158 1.349 . S
C4147 C4145 1.327 . S
C4147 C4163 1.429 . S
C4147 H4169 0.950 . S
C4148 H4144 0.949 . S
C4148 C4156 1.574 . S
C4148 C4164 1.368 . S
H4149 C4157 0.950 . S
H4150 C4155 0.950 . S
H4151 C4156 0.949 . S
H4152 C4158 0.950 . S
H4153 C4159 0.950 . S
H4154 C4160 0.949 . S
C4155 H4150 0.950 . S
C4155 C4157 1.327 . S
C4155 C4161 1.429 . S
C4156 C4148 1.574 . S
C4156 H4151 0.949 . S
C4156 C4162 1.368 . S
C4157 C4141 1.349 . S
C4157 H4149 0.950 . S
C4157 C4155 1.327 . S
C4158 C4146 1.349 . S
C4158 H4152 0.950 . S
C4158 C4159 1.327 . S
C4159 H4153 0.950 . S
C4159 C4158 1.327 . S
C4159 C4163 1.429 . S
C4160 C4143 1.574 . S
C4160 H4154 0.949 . S
C4160 C4164 1.368 . S
C4161 C4142 1.429 . S
C4161 C4155 1.429 . S
C4161 C4162 1.523 1_655 S
C4162 C4143 1.368 . S
C4162 C4156 1.368 . S
C4162 C4161 1.523 1_455 S
C4163 C4147 1.429 . S
C4163 C4159 1.429 . S
C4163 C4164 1.523 . S
C4164 C4148 1.368 . S
C4164 C4160 1.368 . S
C4164 C4163 1.523 . S
H4165 C4140 0.950 . S
H4166 C4142 0.950 . S
H4167 C4143 0.949 . S
H4168 C4145 0.950 . S
H4169 C4147 0.950 . S
C4170 C4171 1.349 . S
C4170 C4172 1.327 . S
C4170 H4195 0.950 . S
C4171 C4170 1.349 . S
C4171 C4187 1.349 . S
C4172 C4170 1.327 . S
C4172 C4191 1.429 . S
C4172 H4196 0.950 . S
C4173 C4190 1.574 . S
C4173 C4192 1.368 . S
C4173 H4197 0.949 . S
H4174 C4178 0.949 . S
C4175 C4176 1.349 . S
C4175 C4177 1.327 . S
C4175 H4198 0.950 . S
C4176 C4175 1.349 . S
C4176 C4188 1.349 . S
C4177 C4175 1.327 . S
C4177 C4193 1.429 . S
C4177 H4199 0.950 . S
C4178 H4174 0.949 . S
C4178 C4186 1.574 . S
C4178 C4194 1.368 . S
H4179 C4187 0.950 . S
H4180 C4185 0.950 . S
H4181 C4186 0.949 . S
H4182 C4188 0.950 . S
H4183 C4189 0.950 . S
H4184 C4190 0.949 . S
C4185 H4180 0.950 . S
C4185 C4187 1.327 . S
C4185 C4191 1.429 . S
C4186 C4178 1.574 . S
C4186 H4181 0.949 . S
C4186 C4192 1.368 . S
C4187 C4171 1.349 . S
C4187 H4179 0.950 . S
C4187 C4185 1.327 . S
C4188 C4176 1.349 . S
C4188 H4182 0.950 . S
C4188 C4189 1.327 . S
C4189 H4183 0.950 . S
C4189 C4188 1.327 . S
C4189 C4193 1.429 . S
C4190 C4173 1.574 . S
C4190 H4184 0.949 . S
C4190 C4194 1.368 . S
C4191 C4172 1.429 . S
C4191 C4185 1.429 . S
C4191 C4192 1.523 . S
C4192 C4173 1.368 . S
C4192 C4186 1.368 . S
C4192 C4191 1.523 . S
C4193 C4177 1.429 . S
C4193 C4189 1.429 . S
C4193 C4194 1.523 . S
C4194 C4178 1.368 . S
C4194 C4190 1.368 . S
C4194 C4193 1.523 . S
H4195 C4170 0.950 . S
H4196 C4172 0.950 . S
H4197 C4173 0.949 . S
H4198 C4175 0.950 . S
H4199 C4177 0.950 . S
C4200 C4201 1.349 . S
C4200 C4202 1.327 . S
C4200 H4225 0.950 . S
C4201 C4200 1.349 . S
C4201 C4217 1.349 . S
C4202 C4200 1.327 . S
C4202 C4221 1.429 . S
C4202 H4226 0.950 . S
C4203 C4220 1.574 . S
C4203 C4222 1.368 . S
C4203 H4227 0.949 . S
H4204 C4208 0.949 . S
C4205 C4206 1.349 . S
C4205 C4207 1.327 . S
C4205 H4228 0.950 . S
C4206 C4205 1.349 . S
C4206 C4218 1.349 . S
C4207 C4205 1.327 . S
C4207 C4223 1.429 . S
C4207 H4229 0.950 . S
C4208 H4204 0.949 . S
C4208 C4216 1.574 . S
C4208 C4224 1.368 . S
H4209 C4217 0.950 . S
H4210 C4215 0.950 . S
H4211 C4216 0.949 1_545 S
H4212 C4218 0.950 . S
H4213 C4219 0.950 . S
H4214 C4220 0.949 . S
C4215 H4210 0.950 . S
C4215 C4217 1.327 1_565 S
C4215 C4221 1.429 1_565 S
C4216 C4208 1.574 . S
C4216 H4211 0.949 1_565 S
C4216 C4222 1.368 . S
C4217 C4201 1.349 . S
C4217 H4209 0.950 . S
C4217 C4215 1.327 1_545 S
C4218 C4206 1.349 . S
C4218 H4212 0.950 . S
C4218 C4219 1.327 . S
C4219 H4213 0.950 . S
C4219 C4218 1.327 . S
C4219 C4223 1.429 . S
C4220 C4203 1.574 . S
C4220 H4214 0.949 . S
C4220 C4224 1.368 . S
C4221 C4202 1.429 . S
C4221 C4215 1.429 1_545 S
C4221 C4222 1.523 1_545 S
C4222 C4203 1.368 . S
C4222 C4216 1.368 . S
C4222 C4221 1.523 1_565 S
C4223 C4207 1.429 . S
C4223 C4219 1.429 . S
C4223 C4224 1.523 . S
C4224 C4208 1.368 . S
C4224 C4220 1.368 . S
C4224 C4223 1.523 . S
H4225 C4200 0.950 . S
H4226 C4202 0.950 . S
H4227 C4203 0.949 . S
H4228 C4205 0.950 . S
H4229 C4207 0.950 . S
C4230 C4231 1.349 . S
C4230 C4232 1.327 . S
C4230 H4255 0.950 . S
C4231 C4230 1.349 . S
C4231 C4247 1.349 . S
C4232 C4230 1.327 . S
C4232 C4251 1.429 . S
C4232 H4256 0.950 . S
C4233 C4250 1.574 . S
C4233 C4252 1.368 . S
C4233 H4257 0.949 . S
H4234 C4238 0.936 1_455 S
C4235 C4236 1.349 . S
C4235 C4237 1.325 . S
C4235 H4258 0.950 . S
C4236 C4235 1.349 . S
C4236 C4248 1.349 . S
C4237 C4235 1.325 . S
C4237 C4253 1.429 . S
C4237 H4259 0.951 1_455 S
C4238 H4234 0.936 1_655 S
C4238 C4246 1.574 . S
C4238 C4254 1.368 . S
H4239 C4247 0.950 . S
H4240 C4245 0.950 . S
H4241 C4246 0.949 . S
H4242 C4248 0.950 . S
H4243 C4249 0.950 . S
H4244 C4250 0.949 . S
C4245 H4240 0.950 . S
C4245 C4247 1.327 . S
C4245 C4251 1.429 . S
C4246 C4238 1.574 . S
C4246 H4241 0.949 . S
C4246 C4252 1.368 . S
C4247 C4231 1.349 . S
C4247 H4239 0.950 . S
C4247 C4245 1.327 . S
C4248 C4236 1.349 . S
C4248 H4242 0.950 . S
C4248 C4249 1.327 . S
C4249 H4243 0.950 . S
C4249 C4248 1.327 . S
C4249 C4253 1.429 . S
C4250 C4233 1.574 . S
C4250 H4244 0.949 . S
C4250 C4254 1.368 . S
C4251 C4232 1.429 . S
C4251 C4245 1.429 . S
C4251 C4252 1.523 . S
C4252 C4233 1.368 . S
C4252 C4246 1.368 . S
C4252 C4251 1.523 . S
C4253 C4237 1.429 . S
C4253 C4249 1.429 . S
C4253 C4254 1.523 1_455 S
C4254 C4238 1.368 . S
C4254 C4250 1.368 . S
C4254 C4253 1.523 1_655 S
H4255 C4230 0.950 . S
H4256 C4232 0.950 . S
H4257 C4233 0.949 . S
H4258 C4235 0.950 . S
H4259 C4237 0.951 1_655 S
C4260 C4261 1.349 . S
C4260 C4262 1.327 . S
C4260 H4285 0.950 . S
C4261 C4260 1.349 . S
C4261 C4277 1.349 . S
C4262 C4260 1.327 . S
C4262 C4281 1.429 . S
C4262 H4286 0.950 . S
C4263 C4280 1.574 . S
C4263 C4282 1.368 . S
C4263 H4287 0.949 . S
H4264 C4268 0.949 . S
C4265 C4266 1.349 . S
C4265 C4267 1.327 . S
C4265 H4288 0.950 . S
C4266 C4265 1.349 . S
C4266 C4278 1.349 . S
C4267 C4265 1.327 . S
C4267 C4283 1.429 . S
C4267 H4289 0.950 . S
C4268 H4264 0.949 . S
C4268 C4276 1.574 . S
C4268 C4284 1.368 . S
H4269 C4277 0.950 . S
H4270 C4275 0.950 . S
H4271 C4276 0.949 . S
H4272 C4278 0.950 . S
H4273 C4279 0.950 . S
H4274 C4280 0.949 . S
C4275 H4270 0.950 . S
C4275 C4277 1.327 . S
C4275 C4281 1.429 . S
C4276 C4268 1.574 . S
C4276 H4271 0.949 . S
C4276 C4282 1.368 . S
C4277 C4261 1.349 . S
C4277 H4269 0.950 . S
C4277 C4275 1.327 . S
C4278 C4266 1.349 . S
C4278 H4272 0.950 . S
C4278 C4279 1.327 . S
C4279 H4273 0.950 . S
C4279 C4278 1.327 . S
C4279 C4283 1.429 . S
C4280 C4263 1.574 . S
C4280 H4274 0.949 . S
C4280 C4284 1.368 . S
C4281 C4262 1.429 . S
C4281 C4275 1.429 . S
C4281 C4282 1.523 . S
C4282 C4263 1.368 . S
C4282 C4276 1.368 . S
C4282 C4281 1.523 . S
C4283 C4267 1.429 . S
C4283 C4279 1.429 . S
C4283 C4284 1.523 . S
C4284 C4268 1.368 . S
C4284 C4280 1.368 . S
C4284 C4283 1.523 . S
H4285 C4260 0.950 . S
H4286 C4262 0.950 . S
H4287 C4263 0.949 . S
H4288 C4265 0.950 . S
H4289 C4267 0.950 . S
C4290 C4291 1.349 . S
C4290 C4292 1.327 . S
C4290 H4315 0.950 . S
C4291 C4290 1.349 . S
C4291 C4307 1.349 . S
C4292 C4290 1.327 . S
C4292 C4311 1.429 . S
C4292 H4316 0.950 . S
C4293 C4310 1.574 . S
C4293 C4312 1.368 . S
C4293 H4317 0.949 . S
H4294 C4298 0.949 1_565 S
C4295 C4296 1.349 . S
C4295 C4297 1.327 1_565 S
C4295 H4318 0.950 . S
C4296 C4295 1.349 . S
C4296 C4308 1.349 . S
C4297 C4295 1.327 1_545 S
C4297 C4313 1.429 1_545 S
C4297 H4319 0.950 . S
C4298 H4294 0.949 1_545 S
C4298 C4306 1.574 . S
C4298 C4314 1.368 . S
H4299 C4307 0.950 . S
H4300 C4305 0.950 . S
H4301 C4306 0.949 . S
H4302 C4308 0.950 . S
H4303 C4309 0.950 . S
H4304 C4310 0.949 . S
C4305 H4300 0.950 . S
C4305 C4307 1.327 . S
C4305 C4311 1.429 . S
C4306 C4298 1.574 . S
C4306 H4301 0.949 . S
C4306 C4312 1.368 . S
C4307 C4291 1.349 . S
C4307 H4299 0.950 . S
C4307 C4305 1.327 . S
C4308 C4296 1.349 . S
C4308 H4302 0.950 . S
C4308 C4309 1.327 . S
C4309 H4303 0.950 . S
C4309 C4308 1.327 . S
C4309 C4313 1.429 . S
C4310 C4293 1.574 . S
C4310 H4304 0.949 . S
C4310 C4314 1.368 . S
C4311 C4292 1.429 . S
C4311 C4305 1.429 . S
C4311 C4312 1.523 . S
C4312 C4293 1.368 . S
C4312 C4306 1.368 . S
C4312 C4311 1.523 . S
C4313 C4297 1.429 1_565 S
C4313 C4309 1.429 . S
C4313 C4314 1.523 1_565 S
C4314 C4298 1.368 . S
C4314 C4310 1.368 . S
C4314 C4313 1.523 1_545 S
H4315 C4290 0.950 . S
H4316 C4292 0.950 . S
H4317 C4293 0.949 . S
H4318 C4295 0.950 . S
H4319 C4297 0.950 . S
C4320 C4321 1.349 . S
C4320 C4322 1.327 . S
C4320 H4345 0.950 . S
C4321 C4320 1.349 . S
C4321 C4337 1.349 . S
C4322 C4320 1.327 . S
C4322 C4341 1.429 . S
C4322 H4346 0.950 . S
C4323 C4340 1.574 . S
C4323 C4342 1.368 . S
C4323 H4347 0.949 . S
H4324 C4328 0.949 . S
C4325 C4326 1.349 . S
C4325 C4327 1.327 . S
C4325 H4348 0.950 . S
C4326 C4325 1.349 . S
C4326 C4338 1.349 . S
C4327 C4325 1.327 . S
C4327 C4343 1.429 . S
C4327 H4349 0.950 . S
C4328 H4324 0.949 . S
C4328 C4336 1.574 . S
C4328 C4344 1.368 . S
H4329 C4337 0.950 . S
H4330 C4335 0.950 . S
H4331 C4336 0.949 . S
H4332 C4338 0.950 . S
H4333 C4339 0.950 . S
H4334 C4340 0.949 . S
C4335 H4330 0.950 . S
C4335 C4337 1.327 . S
C4335 C4341 1.429 . S
C4336 C4328 1.574 . S
C4336 H4331 0.949 . S
C4336 C4342 1.368 . S
C4337 C4321 1.349 . S
C4337 H4329 0.950 . S
C4337 C4335 1.327 . S
C4338 C4326 1.349 . S
C4338 H4332 0.950 . S
C4338 C4339 1.327 . S
C4339 H4333 0.950 . S
C4339 C4338 1.327 . S
C4339 C4343 1.429 . S
C4340 C4323 1.574 . S
C4340 H4334 0.949 . S
C4340 C4344 1.368 . S
C4341 C4322 1.429 . S
C4341 C4335 1.429 . S
C4341 C4342 1.523 . S
C4342 C4323 1.368 . S
C4342 C4336 1.368 . S
C4342 C4341 1.523 . S
C4343 C4327 1.429 . S
C4343 C4339 1.429 . S
C4343 C4344 1.523 . S
C4344 C4328 1.368 . S
C4344 C4340 1.368 . S
C4344 C4343 1.523 . S
H4345 C4320 0.950 . S
H4346 C4322 0.950 . S
H4347 C4323 0.949 . S
H4348 C4325 0.950 . S
H4349 C4327 0.950 . S
C4350 C4351 1.349 . S
C4350 C4352 1.327 . S
C4350 H4375 0.950 . S
C4351 C4350 1.349 . S
C4351 C4367 1.349 . S
C4352 C4350 1.327 . S
C4352 C4371 1.429 . S
C4352 H4376 0.950 . S
C4353 C4370 1.574 . S
C4353 C4372 1.368 . S
C4353 H4377 0.949 . S
H4354 C4358 0.949 . S
C4355 C4356 1.349 . S
C4355 C4357 1.327 . S
C4355 H4378 0.950 . S
C4356 C4355 1.349 . S
C4356 C4368 1.349 . S
C4357 C4355 1.327 . S
C4357 C4373 1.429 . S
C4357 H4379 0.950 . S
C4358 H4354 0.949 . S
C4358 C4366 1.574 . S
C4358 C4374 1.368 . S
H4359 C4367 0.950 . S
H4360 C4365 0.950 . S
H4361 C4366 0.949 . S
H4362 C4368 0.950 . S
H4363 C4369 0.950 . S
H4364 C4370 0.949 . S
C4365 H4360 0.950 . S
C4365 C4367 1.327 . S
C4365 C4371 1.429 . S
C4366 C4358 1.574 . S
C4366 H4361 0.949 . S
C4366 C4372 1.368 . S
C4367 C4351 1.349 . S
C4367 H4359 0.950 . S
C4367 C4365 1.327 . S
C4368 C4356 1.349 . S
C4368 H4362 0.950 . S
C4368 C4369 1.327 . S
C4369 H4363 0.950 . S
C4369 C4368 1.327 . S
C4369 C4373 1.429 . S
C4370 C4353 1.574 . S
C4370 H4364 0.949 . S
C4370 C4374 1.368 . S
C4371 C4352 1.429 . S
C4371 C4365 1.429 . S
C4371 C4372 1.523 . S
C4372 C4353 1.368 . S
C4372 C4366 1.368 . S
C4372 C4371 1.523 . S
C4373 C4357 1.429 . S
C4373 C4369 1.429 . S
C4373 C4374 1.523 . S
C4374 C4358 1.368 . S
C4374 C4370 1.368 . S
C4374 C4373 1.523 . S
H4375 C4350 0.950 . S
H4376 C4352 0.950 . S
H4377 C4353 0.949 . S
H4378 C4355 0.950 . S
H4379 C4357 0.950 . S
C4380 C4381 1.349 . S
C4380 C4382 1.327 . S
C4380 H4405 0.950 . S
C4381 C4380 1.349 . S
C4381 C4397 1.349 . S
C4382 C4380 1.327 . S
C4382 C4401 1.429 . S
C4382 H4406 0.950 . S
C4383 C4400 1.574 . S
C4383 C4402 1.368 . S
C4383 H4407 0.949 . S
H4384 C4388 0.949 . S
C4385 C4386 1.349 . S
C4385 C4387 1.327 . S
C4385 H4408 0.950 . S
C4386 C4385 1.349 . S
C4386 C4398 1.349 . S
C4387 C4385 1.327 . S
C4387 C4403 1.429 . S
C4387 H4409 0.950 . S
C4388 H4384 0.949 . S
C4388 C4396 1.574 . S
C4388 C4404 1.368 . S
H4389 C4397 0.950 . S
H4390 C4395 0.950 . S
H4391 C4396 0.949 . S
H4392 C4398 0.950 . S
H4393 C4399 0.950 . S
H4394 C4400 0.949 . S
C4395 H4390 0.950 . S
C4395 C4397 1.327 . S
C4395 C4401 1.429 . S
C4396 C4388 1.574 . S
C4396 H4391 0.949 . S
C4396 C4402 1.368 . S
C4397 C4381 1.349 . S
C4397 H4389 0.950 . S
C4397 C4395 1.327 . S
C4398 C4386 1.349 . S
C4398 H4392 0.950 . S
C4398 C4399 1.327 . S
C4399 H4393 0.950 . S
C4399 C4398 1.327 . S
C4399 C4403 1.429 . S
C4400 C4383 1.574 . S
C4400 H4394 0.949 . S
C4400 C4404 1.368 . S
C4401 C4382 1.429 . S
C4401 C4395 1.429 . S
C4401 C4402 1.523 . S
C4402 C4383 1.368 . S
C4402 C4396 1.368 . S
C4402 C4401 1.523 . S
C4403 C4387 1.429 . S
C4403 C4399 1.429 . S
C4403 C4404 1.523 . S
C4404 C4388 1.368 . S
C4404 C4400 1.368 . S
C4404 C4403 1.523 . S
H4405 C4380 0.950 . S
H4406 C4382 0.950 . S
H4407 C4383 0.949 . S
H4408 C4385 0.950 . S
H4409 C4387 0.950 . S
C4410 C4411 1.349 . S
C4410 C4412 1.327 . S
C4410 H4435 0.950 . S
C4411 C4410 1.349 . S
C4411 C4427 1.349 . S
C4412 C4410 1.327 . S
C4412 C4431 1.429 . S
C4412 H4436 0.950 . S
C4413 C4430 1.574 . S
C4413 C4432 1.368 . S
C4413 H4437 0.949 . S
H4414 C4418 0.949 . S
C4415 C4416 1.349 . S
C4415 C4417 1.327 . S
C4415 H4438 0.950 . S
C4416 C4415 1.349 . S
C4416 C4428 1.349 . S
C4417 C4415 1.327 . S
C4417 C4433 1.429 . S
C4417 H4439 0.950 . S
C4418 H4414 0.949 . S
C4418 C4426 1.574 . S
C4418 C4434 1.368 . S
H4419 C4427 0.950 . S
H4420 C4425 0.950 . S
H4421 C4426 0.949 . S
H4422 C4428 0.950 . S
H4423 C4429 0.950 . S
H4424 C4430 0.949 . S
C4425 H4420 0.950 . S
C4425 C4427 1.327 . S
C4425 C4431 1.429 . S
C4426 C4418 1.574 . S
C4426 H4421 0.949 . S
C4426 C4432 1.368 . S
C4427 C4411 1.349 . S
C4427 H4419 0.950 . S
C4427 C4425 1.327 . S
C4428 C4416 1.349 . S
C4428 H4422 0.950 . S
C4428 C4429 1.327 . S
C4429 H4423 0.950 . S
C4429 C4428 1.327 . S
C4429 C4433 1.429 . S
C4430 C4413 1.574 . S
C4430 H4424 0.949 . S
C4430 C4434 1.368 . S
C4431 C4412 1.429 . S
C4431 C4425 1.429 . S
C4431 C4432 1.523 . S
C4432 C4413 1.368 . S
C4432 C4426 1.368 . S
C4432 C4431 1.523 . S
C4433 C4417 1.429 . S
C4433 C4429 1.429 . S
C4433 C4434 1.523 . S
C4434 C4418 1.368 . S
C4434 C4430 1.368 . S
C4434 C4433 1.523 . S
H4435 C4410 0.950 . S
H4436 C4412 0.950 . S
H4437 C4413 0.949 . S
H4438 C4415 0.950 . S
H4439 C4417 0.950 . S
C4440 C4441 1.349 . S
C4440 C4442 1.327 . S
C4440 H4465 0.950 . S
C4441 C4440 1.349 . S
C4441 C4457 1.349 . S
C4442 C4440 1.327 . S
C4442 C4461 1.429 . S
C4442 H4466 0.950 . S
C4443 C4460 1.574 . S
C4443 C4462 1.368 . S
C4443 H4467 0.949 . S
H4444 C4448 0.949 . S
C4445 C4446 1.349 . S
C4445 C4447 1.327 . S
C4445 H4468 0.950 . S
C4446 C4445 1.349 . S
C4446 C4458 1.349 . S
C4447 C4445 1.327 . S
C4447 C4463 1.429 . S
C4447 H4469 0.950 . S
C4448 H4444 0.949 . S
C4448 C4456 1.574 . S
C4448 C4464 1.368 . S
H4449 C4457 0.950 . S
H4450 C4455 0.950 . S
H4451 C4456 0.949 . S
H4452 C4458 0.950 . S
H4453 C4459 0.950 . S
H4454 C4460 0.949 . S
C4455 H4450 0.950 . S
C4455 C4457 1.327 . S
C4455 C4461 1.429 . S
C4456 C4448 1.574 . S
C4456 H4451 0.949 . S
C4456 C4462 1.368 . S
C4457 C4441 1.349 . S
C4457 H4449 0.950 . S
C4457 C4455 1.327 . S
C4458 C4446 1.349 . S
C4458 H4452 0.950 . S
C4458 C4459 1.327 . S
C4459 H4453 0.950 . S
C4459 C4458 1.327 . S
C4459 C4463 1.429 . S
C4460 C4443 1.574 . S
C4460 H4454 0.949 . S
C4460 C4464 1.368 . S
C4461 C4442 1.429 . S
C4461 C4455 1.429 . S
C4461 C4462 1.523 . S
C4462 C4443 1.368 . S
C4462 C4456 1.368 . S
C4462 C4461 1.523 . S
C4463 C4447 1.429 . S
C4463 C4459 1.429 . S
C4463 C4464 1.523 . S
C4464 C4448 1.368 . S
C4464 C4460 1.368 . S
C4464 C4463 1.523 . S
H4465 C4440 0.950 . S
H4466 C4442 0.950 . S
H4467 C4443 0.949 . S
H4468 C4445 0.950 . S
H4469 C4447 0.950 . S
C4470 C4471 1.349 . S
C4470 C4472 1.327 . S
C4470 H4495 0.950 . S
C4471 C4470 1.349 . S
C4471 C4487 1.349 . S
C4472 C4470 1.327 . S
C4472 C4491 1.429 . S
C4472 H4496 0.950 . S
C4473 C4490 1.574 . S
C4473 C4492 1.368 . S
C4473 H4497 0.949 . S
H4474 C4478 0.949 . S
C4475 C4476 1.349 . S
C4475 C4477 1.327 . S
C4475 H4498 0.950 . S
C4476 C4475 1.349 . S
C4476 C4488 1.349 . S
C4477 C4475 1.327 . S
C4477 C4493 1.429 . S
C4477 H4499 0.950 . S
C4478 H4474 0.949 . S
C4478 C4486 1.574 . S
C4478 C4494 1.368 . S
H4479 C4487 0.950 . S
H4480 C4485 0.950 . S
H4481 C4486 0.949 . S
H4482 C4488 0.950 . S
H4483 C4489 0.950 . S
H4484 C4490 0.949 . S
C4485 H4480 0.950 . S
C4485 C4487 1.327 . S
C4485 C4491 1.429 . S
C4486 C4478 1.574 . S
C4486 H4481 0.949 . S
C4486 C4492 1.368 . S
C4487 C4471 1.349 . S
C4487 H4479 0.950 . S
C4487 C4485 1.327 . S
C4488 C4476 1.349 . S
C4488 H4482 0.950 . S
C4488 C4489 1.327 . S
C4489 H4483 0.950 . S
C4489 C4488 1.327 . S
C4489 C4493 1.429 . S
C4490 C4473 1.574 . S
C4490 H4484 0.949 . S
C4490 C4494 1.368 . S
C4491 C4472 1.429 . S
C4491 C4485 1.429 . S
C4491 C4492 1.523 . S
C4492 C4473 1.368 . S
C4492 C4486 1.368 . S
C4492 C4491 1.523 . S
C4493 C4477 1.429 . S
C4493 C4489 1.429 . S
C4493 C4494 1.523 . S
C4494 C4478 1.368 . S
C4494 C4490 1.368 . S
C4494 C4493 1.523 . S
H4495 C4470 0.950 . S
H4496 C4472 0.950 . S
H4497 C4473 0.949 . S
H4498 C4475 0.950 . S
H4499 C4477 0.950 . S
C4500 C4501 1.349 . S
C4500 C4502 1.327 . S
C4500 H4525 0.950 . S
C4501 C4500 1.349 . S
C4501 C4517 1.349 . S
C4502 C4500 1.327 . S
C4502 C4521 1.429 . S
C4502 H4526 0.950 . S
C4503 C4520 1.574 . S
C4503 C4522 1.368 . S
C4503 H4527 0.949 . S
H4504 C4508 0.949 . S
C4505 C4506 1.349 . S
C4505 C4507 1.327 . S
C4505 H4528 0.950 . S
C4506 C4505 1.349 . S
C4506 C4518 1.349 . S
C4507 C4505 1.327 . S
C4507 C4523 1.429 . S
C4507 H4529 0.950 . S
C4508 H4504 0.949 . S
C4508 C4516 1.574 . S
C4508 C4524 1.368 . S
H4509 C4517 0.950 . S
H4510 C4515 0.950 . S
H4511 C4516 0.949 . S
H4512 C4518 0.950 . S
H4513 C4519 0.950 . S
H4514 C4520 0.949 . S
C4515 H4510 0.950 . S
C4515 C4517 1.327 . S
C4515 C4521 1.429 . S
C4516 C4508 1.574 . S
C4516 H4511 0.949 . S
C4516 C4522 1.368 . S
C4517 C4501 1.349 . S
C4517 H4509 0.950 . S
C4517 C4515 1.327 . S
C4518 C4506 1.349 . S
C4518 H4512 0.950 . S
C4518 C4519 1.327 . S
C4519 H4513 0.950 . S
C4519 C4518 1.327 . S
C4519 C4523 1.429 . S
C4520 C4503 1.574 . S
C4520 H4514 0.949 . S
C4520 C4524 1.368 . S
C4521 C4502 1.429 . S
C4521 C4515 1.429 . S
C4521 C4522 1.523 . S
C4522 C4503 1.368 . S
C4522 C4516 1.368 . S
C4522 C4521 1.523 . S
C4523 C4507 1.429 . S
C4523 C4519 1.429 . S
C4523 C4524 1.523 . S
C4524 C4508 1.368 . S
C4524 C4520 1.368 . S
C4524 C4523 1.523 . S
H4525 C4500 0.950 . S
H4526 C4502 0.950 . S
H4527 C4503 0.949 . S
H4528 C4505 0.950 . S
H4529 C4507 0.950 . S
C4530 C4531 1.349 . S
C4530 C4532 1.327 . S
C4530 H4555 0.950 . S
C4531 C4530 1.349 . S
C4531 C4547 1.349 . S
C4532 C4530 1.327 . S
C4532 C4551 1.429 . S
C4532 H4556 0.950 . S
C4533 C4550 1.574 . S
C4533 C4552 1.368 . S
C4533 H4557 0.949 . S
H4534 C4538 0.949 . S
C4535 C4536 1.349 . S
C4535 C4537 1.327 . S
C4535 H4558 0.950 . S
C4536 C4535 1.349 . S
C4536 C4548 1.349 . S
C4537 C4535 1.327 . S
C4537 C4553 1.429 . S
C4537 H4559 0.950 . S
C4538 H4534 0.949 . S
C4538 C4546 1.574 . S
C4538 C4554 1.368 . S
H4539 C4547 0.950 . S
H4540 C4545 0.950 . S
H4541 C4546 0.949 . S
H4542 C4548 0.950 . S
H4543 C4549 0.950 . S
H4544 C4550 0.949 . S
C4545 H4540 0.950 . S
C4545 C4547 1.327 . S
C4545 C4551 1.429 . S
C4546 C4538 1.574 . S
C4546 H4541 0.949 . S
C4546 C4552 1.368 . S
C4547 C4531 1.349 . S
C4547 H4539 0.950 . S
C4547 C4545 1.327 . S
C4548 C4536 1.349 . S
C4548 H4542 0.950 . S
C4548 C4549 1.327 . S
C4549 H4543 0.950 . S
C4549 C4548 1.327 . S
C4549 C4553 1.429 . S
C4550 C4533 1.574 . S
C4550 H4544 0.949 . S
C4550 C4554 1.368 . S
C4551 C4532 1.429 . S
C4551 C4545 1.429 . S
C4551 C4552 1.523 . S
C4552 C4533 1.368 . S
C4552 C4546 1.368 . S
C4552 C4551 1.523 . S
C4553 C4537 1.429 . S
C4553 C4549 1.429 . S
C4553 C4554 1.523 . S
C4554 C4538 1.368 . S
C4554 C4550 1.368 . S
C4554 C4553 1.523 . S
H4555 C4530 0.950 . S
H4556 C4532 0.950 . S
H4557 C4533 0.949 . S
H4558 C4535 0.950 . S
H4559 C4537 0.950 . S
C4560 C4561 1.349 . S
C4560 C4562 1.327 . S
C4560 H4585 0.950 . S
C4561 C4560 1.349 . S
C4561 C4577 1.349 . S
C4562 C4560 1.327 . S
C4562 C4581 1.429 . S
C4562 H4586 0.950 . S
C4563 C4580 1.574 . S
C4563 C4582 1.368 . S
C4563 H4587 0.949 . S
H4564 C4568 0.949 . S
C4565 C4566 1.349 . S
C4565 C4567 1.327 . S
C4565 H4588 0.950 . S
C4566 C4565 1.349 . S
C4566 C4578 1.349 . S
C4567 C4565 1.327 . S
C4567 C4583 1.429 . S
C4567 H4589 0.950 . S
C4568 H4564 0.949 . S
C4568 C4576 1.574 . S
C4568 C4584 1.368 . S
H4569 C4577 0.950 . S
H4570 C4575 0.950 . S
H4571 C4576 0.949 . S
H4572 C4578 0.950 . S
H4573 C4579 0.950 . S
H4574 C4580 0.949 . S
C4575 H4570 0.950 . S
C4575 C4577 1.327 . S
C4575 C4581 1.429 . S
C4576 C4568 1.574 . S
C4576 H4571 0.949 . S
C4576 C4582 1.368 . S
C4577 C4561 1.349 . S
C4577 H4569 0.950 . S
C4577 C4575 1.327 . S
C4578 C4566 1.349 . S
C4578 H4572 0.950 . S
C4578 C4579 1.327 . S
C4579 H4573 0.950 . S
C4579 C4578 1.327 . S
C4579 C4583 1.429 . S
C4580 C4563 1.574 . S
C4580 H4574 0.949 . S
C4580 C4584 1.368 . S
C4581 C4562 1.429 . S
C4581 C4575 1.429 . S
C4581 C4582 1.523 . S
C4582 C4563 1.368 . S
C4582 C4576 1.368 . S
C4582 C4581 1.523 . S
C4583 C4567 1.429 . S
C4583 C4579 1.429 . S
C4583 C4584 1.523 . S
C4584 C4568 1.368 . S
C4584 C4580 1.368 . S
C4584 C4583 1.523 . S
H4585 C4560 0.950 . S
H4586 C4562 0.950 . S
H4587 C4563 0.949 . S
H4588 C4565 0.950 . S
H4589 C4567 0.950 . S
C4590 C4591 1.349 . S
C4590 C4592 1.327 . S
C4590 H4615 0.950 . S
C4591 C4590 1.349 . S
C4591 C4607 1.349 . S
C4592 C4590 1.327 . S
C4592 C4611 1.429 . S
C4592 H4616 0.950 . S
C4593 C4610 1.574 . S
C4593 C4612 1.368 . S
C4593 H4617 0.949 . S
H4594 C4598 0.949 . S
C4595 C4596 1.349 . S
C4595 C4597 1.327 . S
C4595 H4618 0.950 . S
C4596 C4595 1.349 . S
C4596 C4608 1.349 . S
C4597 C4595 1.327 . S
C4597 C4613 1.429 . S
C4597 H4619 0.950 . S
C4598 H4594 0.949 . S
C4598 C4606 1.574 . S
C4598 C4614 1.368 . S
H4599 C4607 0.950 . S
H4600 C4605 0.950 . S
H4601 C4606 0.949 . S
H4602 C4608 0.950 . S
H4603 C4609 0.950 . S
H4604 C4610 0.949 . S
C4605 H4600 0.950 . S
C4605 C4607 1.327 . S
C4605 C4611 1.429 . S
C4606 C4598 1.574 . S
C4606 H4601 0.949 . S
C4606 C4612 1.368 . S
C4607 C4591 1.349 . S
C4607 H4599 0.950 . S
C4607 C4605 1.327 . S
C4608 C4596 1.349 . S
C4608 H4602 0.950 . S
C4608 C4609 1.327 . S
C4609 H4603 0.950 . S
C4609 C4608 1.327 . S
C4609 C4613 1.429 . S
C4610 C4593 1.574 . S
C4610 H4604 0.949 . S
C4610 C4614 1.368 . S
C4611 C4592 1.429 . S
C4611 C4605 1.429 . S
C4611 C4612 1.523 . S
C4612 C4593 1.368 . S
C4612 C4606 1.368 . S
C4612 C4611 1.523 . S
C4613 C4597 1.429 . S
C4613 C4609 1.429 . S
C4613 C4614 1.523 . S
C4614 C4598 1.368 . S
C4614 C4610 1.368 . S
C4614 C4613 1.523 . S
H4615 C4590 0.950 . S
H4616 C4592 0.950 . S
H4617 C4593 0.949 . S
H4618 C4595 0.950 . S
H4619 C4597 0.950 . S
C4620 C4621 1.349 . S
C4620 C4622 1.327 . S
C4620 H4645 0.950 . S
C4621 C4620 1.349 . S
C4621 C4637 1.349 . S
C4622 C4620 1.327 . S
C4622 C4641 1.429 . S
C4622 H4646 0.950 . S
C4623 C4640 1.574 . S
C4623 C4642 1.368 . S
C4623 H4647 0.949 . S
H4624 C4628 0.949 . S
C4625 C4626 1.349 . S
C4625 C4627 1.327 . S
C4625 H4648 0.950 . S
C4626 C4625 1.349 . S
C4626 C4638 1.349 . S
C4627 C4625 1.327 . S
C4627 C4643 1.429 . S
C4627 H4649 0.950 . S
C4628 H4624 0.949 . S
C4628 C4636 1.574 . S
C4628 C4644 1.368 . S
H4629 C4637 0.950 . S
H4630 C4635 0.950 . S
H4631 C4636 0.949 . S
H4632 C4638 0.950 . S
H4633 C4639 0.950 . S
H4634 C4640 0.949 . S
C4635 H4630 0.950 . S
C4635 C4637 1.327 . S
C4635 C4641 1.429 . S
C4636 C4628 1.574 . S
C4636 H4631 0.949 . S
C4636 C4642 1.368 . S
C4637 C4621 1.349 . S
C4637 H4629 0.950 . S
C4637 C4635 1.327 . S
C4638 C4626 1.349 . S
C4638 H4632 0.950 . S
C4638 C4639 1.327 . S
C4639 H4633 0.950 . S
C4639 C4638 1.327 . S
C4639 C4643 1.429 . S
C4640 C4623 1.574 . S
C4640 H4634 0.949 . S
C4640 C4644 1.368 . S
C4641 C4622 1.429 . S
C4641 C4635 1.429 . S
C4641 C4642 1.523 . S
C4642 C4623 1.368 . S
C4642 C4636 1.368 . S
C4642 C4641 1.523 . S
C4643 C4627 1.429 . S
C4643 C4639 1.429 . S
C4643 C4644 1.523 . S
C4644 C4628 1.368 . S
C4644 C4640 1.368 . S
C4644 C4643 1.523 . S
H4645 C4620 0.950 . S
H4646 C4622 0.950 . S
H4647 C4623 0.949 . S
H4648 C4625 0.950 . S
H4649 C4627 0.950 . S
C4650 C4651 1.349 . S
C4650 C4652 1.327 . S
C4650 H4675 0.950 . S
C4651 C4650 1.349 . S
C4651 C4667 1.349 . S
C4652 C4650 1.327 . S
C4652 C4671 1.429 . S
C4652 H4676 0.950 . S
C4653 C4670 1.574 . S
C4653 C4672 1.368 . S
C4653 H4677 0.949 . S
H4654 C4658 0.949 . S
C4655 C4656 1.349 . S
C4655 C4657 1.327 . S
C4655 H4678 0.950 . S
C4656 C4655 1.349 . S
C4656 C4668 1.349 . S
C4657 C4655 1.327 . S
C4657 C4673 1.429 . S
C4657 H4679 0.950 . S
C4658 H4654 0.949 . S
C4658 C4666 1.574 . S
C4658 C4674 1.368 . S
H4659 C4667 0.950 . S
H4660 C4665 0.950 . S
H4661 C4666 0.949 . S
H4662 C4668 0.950 . S
H4663 C4669 0.950 . S
H4664 C4670 0.949 . S
C4665 H4660 0.950 . S
C4665 C4667 1.327 . S
C4665 C4671 1.429 . S
C4666 C4658 1.574 . S
C4666 H4661 0.949 . S
C4666 C4672 1.368 . S
C4667 C4651 1.349 . S
C4667 H4659 0.950 . S
C4667 C4665 1.327 . S
C4668 C4656 1.349 . S
C4668 H4662 0.950 . S
C4668 C4669 1.327 . S
C4669 H4663 0.950 . S
C4669 C4668 1.327 . S
C4669 C4673 1.429 . S
C4670 C4653 1.574 . S
C4670 H4664 0.949 . S
C4670 C4674 1.368 . S
C4671 C4652 1.429 . S
C4671 C4665 1.429 . S
C4671 C4672 1.523 . S
C4672 C4653 1.368 . S
C4672 C4666 1.368 . S
C4672 C4671 1.523 . S
C4673 C4657 1.429 . S
C4673 C4669 1.429 . S
C4673 C4674 1.523 . S
C4674 C4658 1.368 . S
C4674 C4670 1.368 . S
C4674 C4673 1.523 . S
H4675 C4650 0.950 . S
H4676 C4652 0.950 . S
H4677 C4653 0.949 . S
H4678 C4655 0.950 . S
H4679 C4657 0.950 . S
C1441 C9 1.005 . S
C1446 C95 0.996 . S
C1471 C15 0.996 . S
C1476 C49 1.005 . S
C1501 C89 1.005 . S
C1506 C55 0.996 . S
C1531 C138 2.544 . S
C1536 C170 2.611 . S
C1561 C210 2.610 . S
C1566 C178 2.544 . S
C1591 C218 2.544 . S
C1596 C130 2.611 . S
C1621 C258 1.005 . S
C1626 C326 0.996 . S
C1651 C298 1.005 . S
C1656 C246 0.996 . S
C1681 C338 1.005 . S
C1686 C286 0.996 . S
C1711 C369 2.544 . S
C1716 C419 2.611 . S
C1741 C459 2.610 . S
C1746 C409 2.544 . S
C1771 C379 2.611 . S
C1776 C449 2.544 . S
C1801 C575 0.999 . S
C1806 C489 1.008 . S
C1831 C529 1.008 . S
C1836 C495 0.999 . S
C1861 C535 0.999 . S
C1866 C569 1.008 . S
C1891 C618 2.545 . S
C1896 C650 2.612 . S
C1921 C690 2.612 . S
C1926 C658 2.545 . S
C1951 C610 2.612 . S
C1956 C698 2.545 . S
C1981 C738 1.008 . S
C1986 C806 0.999 . S
C2011 C778 1.008 . S
C2016 C726 0.999 . S
C2041 C766 0.999 . S
C2046 C818 1.008 . S
C2071 C899 2.602 . S
C2076 C849 2.519 1_554 S
C2101 C889 2.519 1_554 S
C2106 C939 2.602 . S
C2131 C859 2.602 . S
C2136 C929 2.519 1_554 S
C2161 C969 1.008 . S
C2166 C1055 0.999 . S
C2191 C1009 1.008 . S
C2196 C975 0.999 . S
C2221 C1049 1.008 . S
C2226 C1015 0.999 . S
C2251 C1098 2.519 1_556 S
C2256 C1130 2.602 . S
C2281 C1138 2.519 1_556 S
C2286 C1170 2.602 . S
C2311 C1178 2.519 1_556 S
C2316 C1090 2.602 . S
C2341 C1218 1.008 . S
C2346 C1286 0.999 . S
C2371 C1258 1.008 . S
C2376 C1206 0.999 . S
C2401 C1246 0.999 . S
C2406 C1298 1.008 . S
C2431 C1329 2.545 . S
C2436 C1379 2.612 . S
C2461 C1369 2.545 . S
C2466 C1419 2.612 . S
C2491 C1339 2.612 . S
C2496 C1409 2.545 . S
C2521 C6 0.372 . S
C2526 C809 0.503 . S
C2551 C729 0.503 . S
C2556 C46 0.372 . S
C2581 C86 0.372 . S
C2586 C769 0.503 . S
C2611 C139 2.983 . S
C2616 C1378 2.960 . S
C2641 C1418 2.959 . S
C2646 C179 2.983 . S
C2671 C219 2.983 . S
C2676 C1338 2.960 . S
C2701 C1058 0.503 . S
C2706 C255 0.372 . S
C2731 C295 0.372 . S
C2736 C978 0.503 . S
C2761 C335 0.372 . S
C2766 C1018 0.503 . S
C2791 C649 2.960 . S
C2796 C370 2.983 . S
C2821 C689 2.959 . S
C2826 C410 2.983 . S
C2851 C609 2.960 . S
C2856 C450 2.983 . S
C2881 C486 0.372 . S
C2886 C1289 0.504 . S
C2911 C526 0.372 . S
C2916 C1209 0.504 . S
C2941 C1249 0.504 . S
C2946 C566 0.372 . S
C2971 C418 2.963 . S
C2976 C619 2.986 . S
C3001 C458 2.962 . S
C3006 C659 2.986 . S
C3031 C378 2.962 . S
C3036 C699 2.986 . S
C3061 C98 0.503 . S
C3066 C735 0.372 . S
C3091 C775 0.372 . S
C3096 C18 0.503 . S
C3121 C815 0.372 . S
C3126 C58 0.503 . S
C3151 C1129 2.964 1_554 S
C3156 C850 2.990 . S
C3181 C1169 2.964 1_554 S
C3186 C890 2.989 . S
C3211 C930 2.990 . S
C3216 C1089 2.963 1_554 S
C3241 C329 0.503 . S
C3246 C966 0.372 . S
C3271 C249 0.503 . S
C3276 C1006 0.372 . S
C3301 C289 0.503 . S
C3306 C1046 0.372 . S
C3331 C1099 2.991 . S
C3336 C898 2.964 1_556 S
C3361 C938 2.964 1_556 S
C3366 C1139 2.989 . S
C3391 C1179 2.990 . S
C3396 C858 2.963 1_556 S
C3421 C1215 0.372 . S
C3426 C578 0.504 . S
C3451 C1255 0.372 . S
C3456 C498 0.504 . S
C3481 C1295 0.372 . S
C3486 C538 0.504 . S
C3511 C1330 2.986 . S
C3516 C169 2.963 . S
C3541 C209 2.962 . S
C3546 C1370 2.986 . S
C3571 C129 2.962 . S
C3576 C1410 2.986 . S
C3601 C1175 2.764 . S
C3606 C10 2.802 . S
C3631 C1095 2.764 . S
C3636 C50 2.802 . S
C3661 C90 2.815 . S
C3666 C1135 2.751 . S
C3691 C530 2.841 . S
C3696 C135 2.790 . S
C3721 C175 2.790 . S
C3726 C570 2.841 . S
C3751 C215 2.790 . S
C3756 C490 2.841 . S
C3781 C259 2.815 . S
C3786 C926 2.751 . S
C3811 C299 2.815 . S
C3816 C846 2.751 . S
C3841 C339 2.815 . S
C3846 C886 2.751 . S
C3871 C1259 2.841 . S
C3876 C366 2.790 . S
C3901 C1299 2.841 . S
C3906 C406 2.790 . S
C3931 C1219 2.841 . S
C3936 C446 2.790 . S
C3961 C615 2.797 . S
C3966 C1010 2.848 . S
C3991 C655 2.797 . S
C3996 C1050 2.848 . S
C4021 C695 2.797 . S
C4026 C970 2.848 . S
C4051 C739 2.848 . S
C4056 C1406 2.797 . S
C4081 C1326 2.797 . S
C4086 C779 2.848 . S
C4111 C819 2.848 . S
C4116 C1366 2.797 . S
C4141 C166 1.191 . S
C4146 C19 1.208 . S
C4171 C206 1.190 . S
C4176 C59 1.208 . S
C4201 C126 1.191 . S
C4206 C99 1.208 . S
C4231 C250 1.208 . S
C4236 C415 1.191 . S
C4261 C455 1.190 . S
C4266 C290 1.208 . S
C4291 C330 1.208 . S
C4296 C375 1.191 . S
C4321 C646 1.202 . S
C4326 C499 1.219 . S
C4351 C686 1.202 . S
C4356 C539 1.219 . S
C4381 C606 1.202 . S
C4386 C579 1.220 . S
C4411 C895 1.225 . S
C4416 C730 1.255 . S
C4441 C770 1.243 . S
C4446 C935 1.236 . S
C4471 C810 1.244 . S
C4476 C855 1.237 . S
C4501 C979 1.243 . S
C4506 C1126 1.236 . S
C4531 C1166 1.225 . S
C4536 C1019 1.255 . S
C4561 C1059 1.244 . S
C4566 C1086 1.237 . S
C4591 C1210 1.219 . S
C4596 C1375 1.202 . S
C4621 C1415 1.202 . S
C4626 C1250 1.219 . S
C4651 C1290 1.220 . S
C4656 C1335 1.202 . S
