# Generated by pormake.
# Topology umb, (4)-cn, num edge types: 1
# Building blocks:
#     Node 0, Type 0, BuildingBlock: KUFVIS_clean_sbu_0, # of connection points: 4
#     Node 1, Type 0, BuildingBlock: KUFVIS_clean_sbu_0, # of connection points: 4
#     Node 2, Type 0, BuildingBlock: KUFVIS_clean_sbu_0, # of connection points: 4
#     Node 3, Type 0, BuildingBlock: KUFVIS_clean_sbu_0, # of connection points: 4
#     Node 4, Type 0, BuildingBlock: KUFVIS_clean_sbu_0, # of connection points: 4
#     Node 5, Type 0, BuildingBlock: KUFVIS_clean_sbu_0, # of connection points: 4
#     Node 6, Type 0, BuildingBlock: KUFVIS_clean_sbu_0, # of connection points: 4
#     Node 7, Type 0, BuildingBlock: KUFVIS_clean_sbu_0, # of connection points: 4
#     Node 8, Type 0, BuildingBlock: KUFVIS_clean_sbu_0, # of connection points: 4
#     Node 9, Type 0, BuildingBlock: KUFVIS_clean_sbu_0, # of connection points: 4
#     Node 10, Type 0, BuildingBlock: KUFVIS_clean_sbu_0, # of connection points: 4
#     Node 11, Type 0, BuildingBlock: KUFVIS_clean_sbu_0, # of connection points: 4
#     Edge 12, Type (0, 0), BuildingBlock: ZUJKAS_clean_linker_0, # of connection points: 2
#     Edge 13, Type (0, 0), BuildingBlock: ZUJKAS_clean_linker_0, # of connection points: 2
#     Edge 14, Type (0, 0), BuildingBlock: ZUJKAS_clean_linker_0, # of connection points: 2
#     Edge 15, Type (0, 0), BuildingBlock: ZUJKAS_clean_linker_0, # of connection points: 2
#     Edge 16, Type (0, 0), BuildingBlock: ZUJKAS_clean_linker_0, # of connection points: 2
#     Edge 17, Type (0, 0), BuildingBlock: ZUJKAS_clean_linker_0, # of connection points: 2
#     Edge 18, Type (0, 0), BuildingBlock: ZUJKAS_clean_linker_0, # of connection points: 2
#     Edge 19, Type (0, 0), BuildingBlock: ZUJKAS_clean_linker_0, # of connection points: 2
#     Edge 20, Type (0, 0), BuildingBlock: ZUJKAS_clean_linker_0, # of connection points: 2
#     Edge 21, Type (0, 0), BuildingBlock: ZUJKAS_clean_linker_0, # of connection points: 2
#     Edge 22, Type (0, 0), BuildingBlock: ZUJKAS_clean_linker_0, # of connection points: 2
#     Edge 23, Type (0, 0), BuildingBlock: ZUJKAS_clean_linker_0, # of connection points: 2
#     Edge 24, Type (0, 0), BuildingBlock: ZUJKAS_clean_linker_0, # of connection points: 2
#     Edge 25, Type (0, 0), BuildingBlock: ZUJKAS_clean_linker_0, # of connection points: 2
#     Edge 26, Type (0, 0), BuildingBlock: ZUJKAS_clean_linker_0, # of connection points: 2
#     Edge 27, Type (0, 0), BuildingBlock: ZUJKAS_clean_linker_0, # of connection points: 2
#     Edge 28, Type (0, 0), BuildingBlock: ZUJKAS_clean_linker_0, # of connection points: 2
#     Edge 29, Type (0, 0), BuildingBlock: ZUJKAS_clean_linker_0, # of connection points: 2
#     Edge 30, Type (0, 0), BuildingBlock: ZUJKAS_clean_linker_0, # of connection points: 2
#     Edge 31, Type (0, 0), BuildingBlock: ZUJKAS_clean_linker_0, # of connection points: 2
#     Edge 32, Type (0, 0), BuildingBlock: ZUJKAS_clean_linker_0, # of connection points: 2
#     Edge 33, Type (0, 0), BuildingBlock: ZUJKAS_clean_linker_0, # of connection points: 2
#     Edge 34, Type (0, 0), BuildingBlock: ZUJKAS_clean_linker_0, # of connection points: 2
#     Edge 35, Type (0, 0), BuildingBlock: ZUJKAS_clean_linker_0, # of connection points: 2
# Relax obj value: 0.260
# Max RMSD: 0.281
# Mean RMSD: 0.281
data_MOF--net-umb--node1-KUFVIS_clean_sbu_0--edge1-ZUJKAS_clean_linker_0
_symmetry_space_group_name_H-M    P1
_symmetry_Int_Tables_number       1
_symmetry_cell_setting            triclinic
loop_
_symmetry_equiv_pos_as_xyz
'x, y, z'
_cell_length_a     58.523475
_cell_length_b     58.540624
_cell_length_c     50.195723
_cell_angle_alpha  90.016089
_cell_angle_beta   89.871493
_cell_angle_gamma 119.84398
loop_
_atom_site_label
_atom_site_type_symbol
_atom_site_fract_x
_atom_site_fract_y
_atom_site_fract_z
_atom_type_partial_charge
Mn0 Mn 0.56584 0.21018 0.32872 0.0
Mn1 Mn 0.57024 0.15614 0.34533 0.0
C2 C 0.60678 0.21371 0.33307 0.0
C3 C 0.55952 0.23512 0.2956 0.0
C4 C 0.56069 0.18877 0.38595 0.0
O5 O 0.52854 0.1799 0.32252 0.0
O6 O 0.53523 0.14593 0.33081 0.0
C7 C 0.56652 0.13547 0.29072 0.0
N8 N 0.57935 0.14329 0.31445 0.0
C9 C 0.61163 0.13177 0.30038 0.0
C10 C 0.59862 0.12334 0.27586 0.0
C11 C 0.57603 0.12531 0.27098 0.0
C12 C 0.60128 0.14182 0.31923 0.0
H13 H 0.54913 0.13691 0.28691 0.0
C14 C 0.5208 0.1554 0.3234 0.0
O15 O 0.55394 0.23625 0.32046 0.0
O16 O 0.56879 0.21964 0.29006 0.0
N17 N 0.60296 0.16201 0.35972 0.0
C18 C 0.61323 0.17104 0.38437 0.0
C19 C 0.63577 0.17027 0.39248 0.0
C20 C 0.64732 0.15987 0.37535 0.0
C21 C 0.63613 0.15022 0.3503 0.0
C22 C 0.61349 0.15125 0.34342 0.0
H23 H 0.60427 0.17869 0.39783 0.0
O24 O 0.60423 0.2345 0.33327 0.0
O25 O 0.58547 0.19131 0.32887 0.0
O26 O 0.56188 0.20646 0.36998 0.0
O27 O 0.56169 0.16848 0.37828 0.0
C28 C 0.64668 0.13981 0.3318 0.0
C29 C 0.63452 0.13073 0.3068 0.0
H30 H 0.60587 0.11545 0.26061 0.0
H31 H 0.56592 0.11893 0.25208 0.0
H32 H 0.64415 0.17757 0.41195 0.0
H33 H 0.66476 0.15938 0.38163 0.0
H34 H 0.66427 0.1389 0.33652 0.0
H35 H 0.64296 0.12301 0.29265 0.0
Mn36 Mn 0.34176 0.51896 0.66138 0.0
Mn37 Mn 0.40714 0.55013 0.6736 0.0
C38 C 0.36693 0.5638 0.65619 0.0
C39 C 0.30799 0.49826 0.62957 0.0
C40 C 0.366 0.53254 0.71756 0.0
O41 O 0.34975 0.48886 0.66123 0.0
O42 O 0.39371 0.5121 0.66774 0.0
C43 C 0.42494 0.54307 0.62052 0.0
N44 N 0.4256 0.55927 0.64036 0.0
C45 C 0.45677 0.59774 0.61606 0.0
C46 C 0.45655 0.58146 0.59544 0.0
C47 C 0.4405 0.55402 0.59766 0.0
C48 C 0.44079 0.58571 0.63833 0.0
H49 H 0.41263 0.52197 0.62211 0.0
C50 C 0.37226 0.49055 0.66346 0.0
O51 O 0.30284 0.49432 0.65495 0.0
O52 O 0.33244 0.51294 0.62313 0.0
N53 N 0.42275 0.58727 0.6792 0.0
C54 C 0.42032 0.60024 0.70062 0.0
C55 C 0.43484 0.62787 0.70135 0.0
C56 C 0.45193 0.64185 0.68025 0.0
C57 C 0.4544 0.62806 0.65862 0.0
C58 C 0.43945 0.60053 0.659 0.0
H59 H 0.40734 0.58961 0.71698 0.0
O60 O 0.34164 0.55282 0.65929 0.0
O61 O 0.37668 0.54821 0.65595 0.0
O62 O 0.34543 0.52275 0.70268 0.0
O63 O 0.38944 0.54214 0.70849 0.0
C64 C 0.47109 0.64054 0.63669 0.0
C65 C 0.47212 0.62542 0.61533 0.0
H66 H 0.46853 0.58983 0.57778 0.0
H67 H 0.44015 0.54133 0.58178 0.0
H68 H 0.43289 0.63836 0.71815 0.0
H69 H 0.46308 0.66316 0.68089 0.0
H70 H 0.48315 0.66179 0.63599 0.0
H71 H 0.48479 0.63528 0.59844 0.0
Mn72 Mn 0.84686 0.36933 0.99483 0.0
Mn73 Mn 0.87581 0.43271 1.01601 0.0
C74 C 0.82139 0.38822 1.00365 0.0
C75 C 0.83339 0.33987 0.95865 0.0
C76 C 0.86423 0.38704 0.05263 0.0
O77 O 0.88552 0.38348 0.98565 0.0
O78 O 0.90181 0.42569 0.99826 0.0
C79 C 0.88943 0.45923 0.96341 0.0
N80 N 0.87744 0.45522 0.98762 0.0
C81 C 0.86502 0.48793 0.97861 0.0
C82 C 0.87734 0.49251 0.95363 0.0
C83 C 0.88953 0.47803 0.94598 0.0
C84 C 0.86561 0.46898 0.99515 0.0
H85 H 0.89889 0.44822 0.95748 0.0
C86 C 0.90425 0.40715 0.98775 0.0
O87 O 0.83742 0.33296 0.98204 0.0
O88 O 0.83788 0.36375 0.95636 0.0
N89 N 0.85313 0.44293 0.03335 0.0
C90 C 0.84091 0.43515 0.05747 0.0
C91 C 0.82746 0.44744 0.06786 0.0
C92 C 0.82694 0.46777 0.05349 0.0
C93 C 0.83966 0.47545 0.02874 0.0
C94 C 0.85298 0.46268 0.01951 0.0
H95 H 0.84147 0.41976 0.06876 0.0
O96 O 0.81093 0.36282 1.00278 0.0
O97 O 0.84648 0.40209 0.99857 0.0
O98 O 0.85313 0.36833 0.03556 0.0
O99 O 0.8745 0.41137 0.04669 0.0
C100 C 0.8393 0.495 1.01267 0.0
C101 C 0.85188 0.50116 0.98758 0.0
H102 H 0.87741 0.50696 0.9401 0.0
H103 H 0.89903 0.48141 0.92672 0.0
H104 H 0.8176 0.44134 0.08695 0.0
H105 H 0.81653 0.4772 0.06156 0.0
H106 H 0.82907 0.50515 0.01926 0.0
H107 H 0.85115 0.51596 0.97525 0.0
Mn108 Mn 0.40568 0.85088 0.31476 0.0
Mn109 Mn 0.35881 0.86026 0.34422 0.0
C110 C 0.36774 0.81553 0.33075 0.0
C111 C 0.42197 0.84178 0.27553 0.0
C112 C 0.40891 0.87037 0.37223 0.0
O113 O 0.41604 0.88841 0.30349 0.0
O114 O 0.38183 0.89062 0.3214 0.0
C115 C 0.32881 0.859 0.29631 0.0
N116 N 0.32944 0.84966 0.32097 0.0
C117 C 0.28259 0.82012 0.32051 0.0
C118 C 0.2814 0.82954 0.29516 0.0
C119 C 0.30462 0.84902 0.28299 0.0
C120 C 0.30722 0.83096 0.3329 0.0
H121 H 0.34662 0.87395 0.28688 0.0
C122 C 0.40288 0.90022 0.30734 0.0
O123 O 0.4369 0.85181 0.29635 0.0
O124 O 0.3986 0.83882 0.27708 0.0
N125 N 0.33483 0.8321 0.3668 0.0
C126 C 0.33967 0.82367 0.39032 0.0
C127 C 0.31868 0.80336 0.40448 0.0
C128 C 0.29292 0.79213 0.39451 0.0
C129 C 0.28837 0.80137 0.37045 0.0
C130 C 0.31005 0.82175 0.35726 0.0
H131 H 0.35942 0.83223 0.39811 0.0
O132 O 0.38857 0.81362 0.32654 0.0
O133 O 0.36939 0.83792 0.32497 0.0
O134 O 0.41867 0.86286 0.35353 0.0
O135 O 0.3876 0.87115 0.36996 0.0
C136 C 0.26329 0.79062 0.35865 0.0
C137 C 0.26041 0.79998 0.33369 0.0
H138 H 0.26282 0.82177 0.28474 0.0
H139 H 0.30388 0.85629 0.26338 0.0
H140 H 0.32236 0.79632 0.42302 0.0
H141 H 0.27682 0.77627 0.40535 0.0
H142 H 0.24617 0.7748 0.36835 0.0
H143 H 0.2411 0.79124 0.3246 0.0
Mn144 Mn 0.58524 0.41219 0.65475 0.0
Mn145 Mn 0.53125 0.35931 0.68031 0.0
C146 C 0.59059 0.38434 0.68281 0.0
C147 C 0.6129 0.42798 0.61686 0.0
C148 C 0.5561 0.41364 0.70556 0.0
O149 O 0.55512 0.41234 0.63471 0.0
O150 O 0.52156 0.37485 0.6506 0.0
C151 C 0.52112 0.32618 0.63238 0.0
N152 N 0.52514 0.32967 0.65915 0.0
C153 C 0.51977 0.28645 0.66441 0.0
C154 C 0.51538 0.28228 0.63693 0.0
C155 C 0.51622 0.30231 0.62083 0.0
C156 C 0.52506 0.31083 0.6747 0.0
H157 H 0.52167 0.34149 0.61994 0.0
C158 C 0.5309 0.39476 0.63516 0.0
O159 O 0.6122 0.44426 0.63409 0.0
O160 O 0.59752 0.40326 0.62152 0.0
N161 N 0.53574 0.34085 0.70942 0.0
C162 C 0.53837 0.34721 0.7358 0.0
C163 C 0.53696 0.3289 0.75475 0.0
C164 C 0.53202 0.30393 0.74648 0.0
C165 C 0.52855 0.2975 0.71936 0.0
C166 C 0.53008 0.31651 0.7014 0.0
H167 H 0.5414 0.36608 0.74237 0.0
O168 O 0.61056 0.40671 0.67602 0.0
O169 O 0.56851 0.37736 0.67044 0.0
O170 O 0.57556 0.42587 0.68915 0.0
O171 O 0.53804 0.38949 0.70294 0.0
C172 C 0.52299 0.27274 0.70952 0.0
C173 C 0.51885 0.26728 0.68202 0.0
H174 H 0.51133 0.26379 0.628 0.0
H175 H 0.51294 0.29929 0.59959 0.0
H176 H 0.53934 0.3339 0.7757 0.0
H177 H 0.53047 0.28966 0.76114 0.0
H178 H 0.5217 0.2577 0.72297 0.0
H179 H 0.5146 0.24816 0.67469 0.0
Mn180 Mn 0.17739 0.60544 0.99105 0.0
Mn181 Mn 0.12838 0.54386 1.00727 0.0
C182 C 0.1872 0.57218 0.99741 0.0
C183 C 0.20068 0.63715 0.95768 0.0
C184 C 0.15423 0.58797 0.04754 0.0
O185 O 0.14407 0.60681 0.98242 0.0
O186 O 0.11408 0.5644 0.99028 0.0
C187 C 0.11115 0.52364 0.95262 0.0
N188 N 0.11949 0.52107 0.97717 0.0
C189 C 0.11455 0.47896 0.96564 0.0
C190 C 0.10571 0.48105 0.94029 0.0
C191 C 0.10415 0.50357 0.93372 0.0
C192 C 0.12131 0.49963 0.98362 0.0
H193 H 0.10979 0.54084 0.94755 0.0
C194 C 0.12058 0.58755 0.98228 0.0
O195 O 0.19977 0.64397 0.98214 0.0
O196 O 0.18802 0.61212 0.95272 0.0
N197 N 0.13866 0.52094 0.02388 0.0
C198 C 0.1485 0.52241 0.04882 0.0
C199 C 0.15193 0.50173 0.05824 0.0
C200 C 0.14466 0.4795 0.04221 0.0
C201 C 0.13402 0.47814 1.01687 0.0
C202 C 0.13106 0.49936 1.00854 0.0
H203 H 0.15384 0.53927 0.06139 0.0
O204 O 0.20555 0.59673 0.99786 0.0
O205 O 0.1635 0.56745 0.992 0.0
O206 O 0.17152 0.60562 0.03207 0.0
O207 O 0.13646 0.56537 0.03956 0.0
C208 C 0.12685 0.45688 0.99928 0.0
C209 C 0.1172 0.45733 0.97366 0.0
H210 H 0.10026 0.46559 0.92566 0.0
H211 H 0.09747 0.50539 0.91416 0.0
H212 H 0.16011 0.5029 0.07784 0.0
H213 H 0.14753 0.46368 0.04947 0.0
H214 H 0.12903 0.44026 1.00513 0.0
H215 H 0.11207 0.44102 0.9602 0.0
Mn216 Mn 0.81435 0.43044 0.37936 0.0
Mn217 Mn 0.86273 0.41601 0.36562 0.0
C218 C 0.8038 0.38723 0.37292 0.0
C219 C 0.79009 0.43895 0.41164 0.0
C220 C 0.83938 0.43577 0.3239 0.0
O221 O 0.84785 0.46446 0.38917 0.0
O222 O 0.87723 0.45082 0.38256 0.0
C223 C 0.87733 0.41216 0.42119 0.0
N224 N 0.86974 0.40144 0.39648 0.0
C225 C 0.87194 0.36301 0.40939 0.0
C226 C 0.88005 0.37376 0.43491 0.0
C227 C 0.88261 0.39838 0.44087 0.0
C228 C 0.86692 0.37764 0.39062 0.0
H229 H 0.87937 0.43108 0.42583 0.0
C230 C 0.8711 0.46791 0.39011 0.0
O231 O 0.79199 0.44701 0.38718 0.0
O232 O 0.80244 0.42635 0.41726 0.0
N233 N 0.85207 0.38267 0.34924 0.0
C234 C 0.8433 0.37468 0.32393 0.0
C235 C 0.83913 0.35017 0.315 0.0
C236 C 0.84453 0.33436 0.33194 0.0
C237 C 0.85409 0.34323 0.35768 0.0
C238 C 0.85795 0.36788 0.36546 0.0
H239 H 0.83938 0.38683 0.31068 0.0
O240 O 0.78587 0.39404 0.37156 0.0
O241 O 0.82738 0.4056 0.37935 0.0
O242 O 0.82192 0.4368 0.3386 0.0
O243 O 0.85634 0.43003 0.33272 0.0
C244 C 0.85949 0.32837 0.37609 0.0
C245 C 0.86832 0.33821 0.40195 0.0
H246 H 0.88417 0.36321 0.45014 0.0
H247 H 0.88874 0.40676 0.46055 0.0
H248 H 0.83182 0.34349 0.29508 0.0
H249 H 0.84117 0.31541 0.32503 0.0
H250 H 0.85659 0.3092 0.37067 0.0
H251 H 0.8721 0.32647 0.41603 0.0
Mn252 Mn 0.39018 0.81823 0.70427 0.0
Mn253 Mn 0.45075 0.83605 0.67984 0.0
C254 C 0.39598 0.78924 0.67808 0.0
C255 C 0.36187 0.80062 0.74156 0.0
C256 C 0.4138 0.85206 0.65419 0.0
O257 O 0.41431 0.85229 0.72417 0.0
O258 O 0.45353 0.85816 0.71068 0.0
C259 C 0.46938 0.81891 0.72641 0.0
N260 N 0.46504 0.81826 0.6997 0.0
C261 C 0.48281 0.78952 0.69245 0.0
C262 C 0.48777 0.79013 0.71983 0.0
C263 C 0.48087 0.80477 0.7369 0.0
C264 C 0.47104 0.80378 0.68319 0.0
H265 H 0.46402 0.83007 0.73959 0.0
C266 C 0.43937 0.86404 0.72532 0.0
O267 O 0.35809 0.81459 0.72376 0.0
O268 O 0.38206 0.79764 0.73782 0.0
N269 N 0.45227 0.81667 0.64978 0.0
C270 C 0.44675 0.81861 0.62378 0.0
C271 C 0.45254 0.80519 0.60409 0.0
C272 C 0.46458 0.79047 0.61122 0.0
C273 C 0.47097 0.78953 0.63794 0.0
C274 C 0.46472 0.80332 0.65668 0.0
H275 H 0.43797 0.83028 0.61803 0.0
O276 O 0.37247 0.78497 0.68322 0.0
O277 O 0.41524 0.80908 0.69012 0.0
O278 O 0.39378 0.8392 0.66962 0.0
O279 O 0.43634 0.85396 0.65797 0.0
C280 C 0.48341 0.77557 0.64672 0.0
C281 C 0.48906 0.77532 0.67398 0.0
H282 H 0.49676 0.77935 0.72798 0.0
H283 H 0.48447 0.80519 0.75809 0.0
H284 H 0.44785 0.80629 0.58346 0.0
H285 H 0.46897 0.7801 0.59598 0.0
H286 H 0.48868 0.76489 0.63268 0.0
H287 H 0.49834 0.76426 0.68052 0.0
Mn288 Mn 0.56804 0.4234 0.04198 0.0
Mn289 Mn 0.61043 0.48285 1.01549 0.0
C290 C 0.60756 0.43099 0.02424 0.0
C291 C 0.5551 0.39694 0.08082 0.0
C292 C 0.56123 0.44159 0.98689 0.0
O293 O 0.55409 0.44712 0.05554 0.0
O294 O 0.58719 0.48661 0.0417 0.0
C295 C 0.64193 0.51002 0.0632 0.0
N296 N 0.64068 0.50187 0.03757 0.0
C297 C 0.68788 0.52202 0.03501 0.0
C298 C 0.68968 0.53086 0.06131 0.0
C299 C 0.6666 0.52475 0.07548 0.0
C300 C 0.66276 0.5076 0.02375 0.0
H301 H 0.62424 0.50522 0.07419 0.0
C302 C 0.56602 0.47228 0.05486 0.0
O303 O 0.5392 0.391 0.06063 0.0
O304 O 0.57731 0.41857 0.07877 0.0
N305 N 0.63436 0.48192 0.99 0.0
C306 C 0.6291 0.47005 0.96567 0.0
C307 C 0.65 0.47328 0.94933 0.0
C308 C 0.67608 0.48877 0.9581 0.0
C309 C 0.68103 0.50074 0.98323 0.0
C310 C 0.65941 0.49706 0.99852 0.0
H311 H 0.60913 0.45818 0.95873 0.0
O312 O 0.58848 0.40712 0.02782 0.0
O313 O 0.60317 0.44966 0.0317 0.0
O314 O 0.55379 0.4228 1.00389 0.0
O315 O 0.58059 0.46476 0.99081 0.0
C316 C 0.70653 0.51574 0.99391 0.0
C317 C 0.70995 0.52634 0.0198 0.0
H318 H 0.70865 0.54205 0.07092 0.0
H319 H 0.66782 0.53132 0.09585 0.0
H320 H 0.64602 0.46388 0.93 0.0
H321 H 0.69215 0.49122 0.94542 0.0
H322 H 0.72362 0.51885 0.98257 0.0
H323 H 0.72962 0.53743 0.02798 0.0
Mn324 Mn 0.13981 0.50963 0.37587 0.0
Mn325 Mn 0.1128 0.54546 0.35308 0.0
C326 C 0.16611 0.55396 0.36856 0.0
C327 C 0.15151 0.49296 0.41288 0.0
C328 C 0.12513 0.51124 0.31731 0.0
O329 O 0.10064 0.48565 0.38313 0.0
O330 O 0.08566 0.51269 0.37012 0.0
C331 C 0.0973 0.55865 0.40452 0.0
N332 N 0.11057 0.56651 0.38095 0.0
C333 C 0.12394 0.61184 0.38989 0.0
C334 C 0.11032 0.60422 0.41421 0.0
C335 C 0.09699 0.57751 0.42158 0.0
C336 C 0.12344 0.59214 0.37365 0.0
H337 H 0.08696 0.53815 0.41023 0.0
C338 C 0.08238 0.49134 0.38053 0.0
O339 O 0.14845 0.4823 0.38944 0.0
O340 O 0.14679 0.51224 0.41473 0.0
N341 N 0.13692 0.57818 0.3364 0.0
C342 C 0.15051 0.58248 0.31312 0.0
C343 C 0.16564 0.60829 0.30341 0.0
C344 C 0.16637 0.62937 0.3175 0.0
C345 C 0.152 0.62445 0.34125 0.0
C346 C 0.13722 0.5983 0.34994 0.0
H347 H 0.14991 0.56638 0.30207 0.0
O348 O 0.17627 0.53872 0.36982 0.0
O349 O 0.14081 0.543 0.3721 0.0
O350 O 0.13556 0.50327 0.33483 0.0
O351 O 0.11475 0.52533 0.32282 0.0
C352 C 0.15233 0.64454 0.357 0.0
C353 C 0.13834 0.63824 0.38132 0.0
H354 H 0.11012 0.61872 0.42747 0.0
H355 H 0.08647 0.57148 0.44033 0.0
H356 H 0.1767 0.61192 0.28508 0.0
H357 H 0.17821 0.64926 0.31003 0.0
H358 H 0.16365 0.66494 0.35083 0.0
H359 H 0.13906 0.65389 0.39344 0.0
Mn360 Mn 0.64518 0.18251 0.71345 0.0
Mn361 Mn 0.5811 0.16307 0.70412 0.0
C362 C 0.62989 0.21153 0.71982 0.0
C363 C 0.67797 0.18873 0.74454 0.0
C364 C 0.61967 0.1757 0.65835 0.0
O365 O 0.62797 0.14248 0.71433 0.0
O366 O 0.58546 0.13205 0.70988 0.0
C367 C 0.56099 0.14152 0.75786 0.0
N368 N 0.56435 0.1587 0.73792 0.0
C369 C 0.54013 0.17521 0.7622 0.0
C370 C 0.53632 0.15763 0.78296 0.0
C371 C 0.54692 0.1408 0.78083 0.0
C372 C 0.55458 0.17524 0.73993 0.0
H373 H 0.56894 0.12842 0.75622 0.0
C374 C 0.60335 0.12581 0.71325 0.0
O375 O 0.68203 0.18821 0.71907 0.0
O376 O 0.65486 0.18423 0.7514 0.0
N377 N 0.57438 0.19154 0.69875 0.0
C378 C 0.5808 0.20809 0.67747 0.0
C379 C 0.57249 0.22683 0.67694 0.0
C380 C 0.55731 0.22803 0.69802 0.0
C381 C 0.5506 0.2105 0.71949 0.0
C382 C 0.55979 0.19254 0.71914 0.0
H383 H 0.59226 0.20708 0.6611 0.0
O384 O 0.65463 0.22019 0.71512 0.0
O385 O 0.61491 0.1862 0.72041 0.0
O386 O 0.64055 0.18257 0.67221 0.0
O387 O 0.59693 0.16769 0.66856 0.0
C388 C 0.53518 0.21014 0.74124 0.0
C389 C 0.53014 0.19268 0.76269 0.0
H390 H 0.52534 0.15692 0.80065 0.0
H391 H 0.54411 0.12722 0.79679 0.0
H392 H 0.57769 0.24025 0.66027 0.0
H393 H 0.55099 0.24252 0.69755 0.0
H394 H 0.52751 0.22355 0.74197 0.0
H395 H 0.5187 0.19298 0.77954 0.0
Mn396 Mn 0.41619 0.63318 0.04511 0.0
Mn397 Mn 0.40841 0.57285 0.03098 0.0
C398 C 0.37458 0.5964 0.04622 0.0
C399 C 0.42546 0.66684 0.07634 0.0
C400 C 0.41588 0.61268 0.98839 0.0
O401 O 0.45367 0.63938 0.04794 0.0
O402 O 0.4449 0.59769 0.04152 0.0
C403 C 0.41709 0.55898 0.08528 0.0
N404 N 0.40198 0.55289 0.06296 0.0
C405 C 0.37093 0.51022 0.08041 0.0
C406 C 0.38625 0.51594 0.10353 0.0
C407 C 0.40937 0.54048 0.10601 0.0
C408 C 0.37958 0.52948 0.06047 0.0
H409 H 0.43493 0.57777 0.08717 0.0
C410 C 0.46058 0.62191 0.04674 0.0
O411 O 0.42898 0.67168 0.05094 0.0
O412 O 0.41708 0.64267 0.08351 0.0
N413 N 0.37407 0.54599 0.0203 0.0
C414 C 0.36113 0.54388 0.99707 0.0
C415 C 0.33749 0.52062 0.99158 0.0
C416 C 0.32765 0.49956 1.00973 0.0
C417 C 0.34154 0.50199 0.03327 0.0
C418 C 0.36505 0.52562 0.03763 0.0
H419 H 0.36878 0.55982 0.98283 0.0
O420 O 0.37764 0.61986 0.04435 0.0
O421 O 0.39594 0.5949 0.04825 0.0
O422 O 0.41645 0.63051 1.0037 0.0
O423 O 0.41429 0.59141 0.99692 0.0
C424 C 0.33272 0.48211 0.05284 0.0
C425 C 0.34733 0.48628 0.07645 0.0
H426 H 0.38038 0.5017 0.11954 0.0
H427 H 0.42126 0.54506 0.1238 0.0
H428 H 0.3269 0.51888 0.97334 0.0
H429 H 0.30933 0.48171 1.0055 0.0
H430 H 0.31453 0.46368 0.05009 0.0
H431 H 0.34017 0.47097 0.09148 0.0
H432 H 0.59249 0.2345 0.41273 0.0
H433 H 0.60588 0.23812 0.45967 0.0
H434 H 0.54904 0.15611 0.47163 0.0
H435 H 0.5358 0.15238 0.42491 0.0
H436 H 0.55345 0.19206 0.51508 0.0
H437 H 0.64939 0.20192 0.48398 0.0
H438 H 0.64001 0.22411 0.46932 0.0
H439 H 0.62155 0.18965 0.46171 0.0
C440 C 0.58214 0.21754 0.42565 0.0
C441 C 0.56284 0.19323 0.41518 0.0
C442 C 0.59013 0.21951 0.45236 0.0
C443 C 0.57878 0.19725 0.46907 0.0
C444 C 0.55818 0.17351 0.45912 0.0
H445 H 0.58652 0.13968 0.62308 0.0
H446 H 0.57959 0.14723 0.5767 0.0
C447 C 0.55045 0.17146 0.43246 0.0
C448 C 0.58908 0.19793 0.49641 0.0
H449 H 0.64047 0.19892 0.53003 0.0
C450 C 0.57259 0.19385 0.51835 0.0
C451 C 0.61409 0.20028 0.50073 0.0
C452 C 0.63235 0.20409 0.47778 0.0
C453 C 0.5802 0.19165 0.54437 0.0
C454 C 0.60473 0.19285 0.54862 0.0
C455 C 0.62166 0.19787 0.5268 0.0
C456 C 0.61206 0.18727 0.57536 0.0
C457 C 0.56175 0.18789 0.56714 0.0
C458 C 0.6338 0.20663 0.58962 0.0
C459 C 0.63814 0.20213 0.61623 0.0
C460 C 0.62079 0.17819 0.62888 0.0
C461 C 0.60028 0.15828 0.61385 0.0
C462 C 0.59611 0.16269 0.58741 0.0
H463 H 0.54798 0.19509 0.56194 0.0
H464 H 0.5498 0.16658 0.57184 0.0
H465 H 0.57284 0.19833 0.5853 0.0
H466 H 0.64652 0.2257 0.58069 0.0
H467 H 0.6538 0.21798 0.62744 0.0
H468 H 0.33188 0.5443 0.74423 0.0
H469 H 0.33728 0.56139 0.79004 0.0
H470 H 0.40209 0.54721 0.80187 0.0
H471 H 0.39698 0.53045 0.75649 0.0
H472 H 0.33984 0.54155 0.84297 0.0
H473 H 0.43487 0.62759 0.8128 0.0
H474 H 0.41089 0.60576 0.78891 0.0
H475 H 0.43261 0.5966 0.80497 0.0
C476 C 0.34671 0.54406 0.75691 0.0
C477 C 0.36404 0.53607 0.74667 0.0
C478 C 0.34995 0.55408 0.783 0.0
C479 C 0.37056 0.55624 0.79917 0.0
C480 C 0.38646 0.54634 0.78961 0.0
H481 H 0.44143 0.60047 0.95094 0.0
H482 H 0.42951 0.5905 0.90403 0.0
C483 C 0.38334 0.53652 0.76369 0.0
C484 C 0.37672 0.57003 0.82543 0.0
H485 H 0.42694 0.62058 0.85968 0.0
C486 C 0.35867 0.5591 0.84655 0.0
C487 C 0.40126 0.59306 0.8301 0.0
C488 C 0.42094 0.60663 0.80794 0.0
C489 C 0.36514 0.56968 0.8725 0.0
C490 C 0.39019 0.592 0.87737 0.0
C491 C 0.40776 0.60352 0.856 0.0
C492 C 0.39955 0.60184 0.90489 0.0
C493 C 0.34571 0.5561 0.89483 0.0
C494 C 0.38761 0.61283 0.92076 0.0
C495 C 0.39481 0.61906 0.94765 0.0
C496 C 0.41392 0.61422 0.95906 0.0
C497 C 0.42686 0.60471 0.94264 0.0
C498 C 0.41991 0.59881 0.91585 0.0
H499 H 0.32883 0.53693 0.88852 0.0
H500 H 0.35556 0.55267 0.91202 0.0
H501 H 0.3379 0.56891 0.90174 0.0
H502 H 0.37206 0.61566 0.91266 0.0
H503 H 0.38411 0.62582 0.95993 0.0
H504 H 0.88035 0.46035 0.28951 0.0
H505 H 0.88068 0.44886 0.24277 0.0
H506 H 0.79637 0.39824 0.24526 0.0
H507 H 0.79598 0.41012 0.29211 0.0
H508 H 0.86539 0.398 0.22841 0.0
H509 H 0.80685 0.43288 0.17223 0.0
H510 H 0.81999 0.44516 0.20495 0.0
H511 H 0.79097 0.41345 0.20129 0.0
C512 C 0.86172 0.44773 0.27974 0.0
C513 C 0.83808 0.43651 0.29441 0.0
C514 C 0.86196 0.4409 0.25308 0.0
C515 C 0.83859 0.42259 0.24035 0.0
C516 C 0.81465 0.41272 0.25438 0.0
H517 H 0.81923 0.35421 0.07978 0.0
H518 H 0.81106 0.35844 0.12709 0.0
C519 C 0.81438 0.41974 0.28115 0.0
C520 C 0.83996 0.41195 0.21366 0.0
H521 H 0.82055 0.40679 0.14863 0.0
C522 C 0.85552 0.39992 0.21099 0.0
C523 C 0.82685 0.41405 0.19092 0.0
C524 C 0.81038 0.42725 0.19229 0.0
C525 C 0.8587 0.39042 0.18631 0.0
C526 C 0.84626 0.39323 0.16341 0.0
C527 C 0.83003 0.40451 0.16617 0.0
C528 C 0.85165 0.38679 0.13611 0.0
C529 C 0.87539 0.37743 0.18499 0.0
C530 C 0.87729 0.40048 0.1256 0.0
C531 C 0.88198 0.39793 0.09871 0.0
C532 C 0.86118 0.38153 0.08164 0.0
C533 C 0.8358 0.36634 0.09257 0.0
C534 C 0.83104 0.36912 0.11952 0.0
H535 H 0.87652 0.3694 0.20469 0.0
H536 H 0.86753 0.36122 0.17016 0.0
H537 H 0.89571 0.39226 0.17895 0.0
H538 H 0.89347 0.41456 0.13775 0.0
H539 H 0.90159 0.41039 0.09074 0.0
H540 H 0.42068 0.83857 0.40198 0.0
H541 H 0.42313 0.83862 0.45085 0.0
H542 H 0.42228 0.91182 0.4533 0.0
H543 H 0.41892 0.9113 0.40471 0.0
H544 H 0.45397 0.86993 0.49092 0.0
H545 H 0.35673 0.86421 0.49536 0.0
H546 H 0.37074 0.86075 0.46464 0.0
H547 H 0.38088 0.89295 0.478 0.0
C548 C 0.42207 0.85517 0.41293 0.0
C549 C 0.41982 0.87504 0.39954 0.0
C550 C 0.42312 0.85503 0.4409 0.0
C551 C 0.42201 0.87479 0.45589 0.0
C552 C 0.42232 0.89592 0.44232 0.0
H553 H 0.44912 0.89585 0.62702 0.0
H554 H 0.45001 0.90254 0.57886 0.0
C555 C 0.42089 0.89586 0.41449 0.0
C556 C 0.4189 0.87257 0.4855 0.0
H557 H 0.3793 0.87122 0.53656 0.0
C558 C 0.43765 0.87022 0.50087 0.0
C559 C 0.39718 0.87219 0.4986 0.0
C560 C 0.37508 0.87236 0.4833 0.0
C561 C 0.43566 0.86818 0.52884 0.0
C562 C 0.41474 0.8693 0.542 0.0
C563 C 0.39563 0.87095 0.52661 0.0
C564 C 0.41208 0.868 0.57166 0.0
C565 C 0.45566 0.86416 0.54395 0.0
C566 C 0.38948 0.8477 0.58404 0.0
C567 C 0.38861 0.84427 0.61178 0.0
C568 C 0.41039 0.86104 0.62762 0.0
C569 C 0.43199 0.88266 0.61539 0.0
C570 C 0.43271 0.88623 0.58777 0.0
H571 H 0.46541 0.8562 0.53091 0.0
H572 H 0.47115 0.88336 0.55187 0.0
H573 H 0.44638 0.85046 0.56098 0.0
H574 H 0.37317 0.83351 0.5721 0.0
H575 H 0.37192 0.82714 0.62048 0.0
H576 H 0.54058 0.39563 0.95766 0.0
H577 H 0.53567 0.39212 0.90898 0.0
H578 H 0.55548 0.47353 0.90477 0.0
H579 H 0.55924 0.47676 0.95304 0.0
H580 H 0.5209 0.44724 0.86811 0.0
H581 H 0.59972 0.42109 0.86229 0.0
H582 H 0.57139 0.3976 0.88069 0.0
H583 H 0.59094 0.43068 0.89306 0.0
C584 C 0.5429 0.41246 0.94643 0.0
C585 C 0.55047 0.43652 0.95931 0.0
C586 C 0.54064 0.41062 0.9185 0.0
C587 C 0.54617 0.43286 0.90296 0.0
C588 C 0.55144 0.45614 0.91608 0.0
H589 H 0.59783 0.44872 0.7363 0.0
H590 H 0.59606 0.45709 0.78402 0.0
C591 C 0.5535 0.45793 0.94382 0.0
C592 C 0.54797 0.43272 0.87319 0.0
H593 H 0.57942 0.42138 0.82166 0.0
C594 C 0.53372 0.44157 0.858 0.0
C595 C 0.5653 0.42615 0.85981 0.0
C596 C 0.58293 0.41862 0.87477 0.0
C597 C 0.53595 0.44362 0.83004 0.0
C598 C 0.55227 0.43579 0.81657 0.0
C599 C 0.56682 0.42732 0.83178 0.0
C600 C 0.55348 0.43478 0.78681 0.0
C601 C 0.52122 0.45479 0.81538 0.0
C602 C 0.53024 0.42032 0.7721 0.0
C603 C 0.53124 0.41608 0.74483 0.0
C604 C 0.55552 0.4257 0.73148 0.0
C605 C 0.57881 0.44148 0.74577 0.0
C606 C 0.57779 0.44591 0.77319 0.0
H607 H 0.51823 0.46856 0.82821 0.0
H608 H 0.53179 0.46543 0.79703 0.0
H609 H 0.50146 0.43849 0.80973 0.0
H610 H 0.51125 0.4109 0.78195 0.0
H611 H 0.5129 0.4036 0.73454 0.0
H612 H 0.08906 0.49811 0.27801 0.0
H613 H 0.09894 0.5128 0.23174 0.0
H614 H 0.18099 0.53871 0.2451 0.0
H615 H 0.17104 0.5237 0.29153 0.0
H616 H 0.13291 0.56683 0.22197 0.0
H617 H 0.16817 0.50642 0.16951 0.0
H618 H 0.14858 0.4953 0.19957 0.0
H619 H 0.18285 0.51969 0.20134 0.0
C620 C 0.10899 0.50565 0.27072 0.0
C621 C 0.12917 0.50931 0.28838 0.0
C622 C 0.1147 0.51441 0.24432 0.0
C623 C 0.14074 0.52703 0.23484 0.0
C624 C 0.16068 0.52873 0.25175 0.0
H625 H 0.1981 0.6035 0.07816 0.0
H626 H 0.19821 0.59285 0.12554 0.0
C627 C 0.15492 0.51982 0.27827 0.0
C628 C 0.14707 0.54111 0.20866 0.0
H629 H 0.16987 0.54197 0.14563 0.0
C630 C 0.14106 0.5614 0.20531 0.0
C631 C 0.15813 0.53444 0.187 0.0
C632 C 0.1647 0.51267 0.1893 0.0
C633 C 0.14525 0.57474 0.1809 0.0
C634 C 0.1553 0.56737 0.15887 0.0
C635 C 0.16219 0.5477 0.16245 0.0
C636 C 0.15652 0.57804 0.13148 0.0
C637 C 0.13884 0.59666 0.17897 0.0
C638 C 0.13332 0.57415 0.11917 0.0
C639 C 0.13331 0.58044 0.09228 0.0
C640 C 0.1565 0.59086 0.07694 0.0
C641 C 0.1801 0.59634 0.08962 0.0
C642 C 0.18007 0.58979 0.1166 0.0
H643 H 0.14007 0.60573 0.19875 0.0
H644 H 0.15234 0.61227 0.16496 0.0
H645 H 0.11837 0.58851 0.17162 0.0
H646 H 0.11478 0.56467 0.12989 0.0
H647 H 0.1147 0.57536 0.08293 0.0
H648 H 0.8125 0.35405 0.4039 0.0
H649 H 0.79754 0.30751 0.39515 0.0
H650 H 0.7594 0.31243 0.32331 0.0
H651 H 0.7769 0.35892 0.33069 0.0
H652 H 0.7566 0.26979 0.39808 0.0
H653 H 0.77201 0.25914 0.29519 0.0
H654 H 0.79174 0.29093 0.31061 0.0
H655 H 0.76235 0.28348 0.29189 0.0
C656 C 0.80196 0.34516 0.38565 0.0
C657 C 0.79666 0.35999 0.36735 0.0
C658 C 0.79321 0.31854 0.3807 0.0
C659 C 0.77795 0.30614 0.35798 0.0
C660 C 0.77243 0.32131 0.34009 0.0
H661 H 0.6389 0.24004 0.37344 0.0
H662 H 0.68341 0.24894 0.38066 0.0
C663 C 0.78184 0.3479 0.34462 0.0
C664 C 0.76284 0.27692 0.3556 0.0
H665 H 0.72053 0.23781 0.30803 0.0
C666 C 0.74944 0.2623 0.3783 0.0
C667 C 0.75446 0.26476 0.3304 0.0
C668 C 0.77132 0.27544 0.3058 0.0
C669 C 0.72441 0.24009 0.37583 0.0
C670 C 0.7123 0.23395 0.35044 0.0
C671 C 0.72859 0.24387 0.32785 0.0
C672 C 0.68378 0.22511 0.34751 0.0
C673 C 0.71026 0.2254 0.40068 0.0
C674 C 0.66922 0.21026 0.32538 0.0
C675 C 0.64397 0.20638 0.3205 0.0
C676 C 0.63261 0.21644 0.3382 0.0
C677 C 0.64706 0.2314 0.36003 0.0
C678 C 0.67238 0.23587 0.36452 0.0
H679 H 0.72332 0.22055 0.41247 0.0
H680 H 0.70567 0.23811 0.41342 0.0
H681 H 0.69188 0.20693 0.39602 0.0
H682 H 0.67751 0.20215 0.31152 0.0
H683 H 0.63341 0.19569 0.30289 0.0
H684 H 0.38319 0.77923 0.62589 0.0
H685 H 0.38806 0.7476 0.59753 0.0
H686 H 0.41906 0.72575 0.66484 0.0
H687 H 0.41537 0.7581 0.69248 0.0
H688 H 0.44605 0.72969 0.61796 0.0
H689 H 0.33737 0.6698 0.60248 0.0
H690 H 0.35508 0.70325 0.59078 0.0
H691 H 0.35056 0.69664 0.62593 0.0
C692 C 0.39128 0.76772 0.6343 0.0
C693 C 0.39952 0.77119 0.66095 0.0
C694 C 0.39401 0.74974 0.6182 0.0
C695 C 0.40396 0.73439 0.62906 0.0
C696 C 0.41176 0.73774 0.65591 0.0
H697 H 0.37163 0.60658 0.68097 0.0
H698 H 0.38758 0.65012 0.66125 0.0
C699 C 0.40955 0.75602 0.67175 0.0
C700 C 0.40409 0.71279 0.61408 0.0
H701 H 0.36117 0.64771 0.60408 0.0
C702 C 0.42765 0.71194 0.61379 0.0
C703 C 0.38013 0.68985 0.6077 0.0
C704 C 0.35428 0.68971 0.60667 0.0
C705 C 0.42718 0.68783 0.61268 0.0
C706 C 0.40268 0.66453 0.61108 0.0
C707 C 0.37986 0.66587 0.60585 0.0
C708 C 0.3988 0.64025 0.62368 0.0
C709 C 0.45222 0.68712 0.61715 0.0
C710 C 0.40094 0.62091 0.60931 0.0
C711 C 0.39232 0.59621 0.62084 0.0
C712 C 0.38146 0.59087 0.64664 0.0
C713 C 0.38034 0.61059 0.66124 0.0
C714 C 0.38938 0.63529 0.64999 0.0
H715 H 0.4699 0.70631 0.61228 0.0
H716 H 0.45333 0.68266 0.63844 0.0
H717 H 0.45238 0.67141 0.60489 0.0
H718 H 0.40798 0.62448 0.58892 0.0
H719 H 0.39268 0.58084 0.60912 0.0
H720 H 0.65181 0.46213 0.05161 0.0
H721 H 0.69564 0.46825 0.04398 0.0
H722 H 0.66427 0.41038 0.98091 0.0
H723 H 0.62138 0.40738 0.9862 0.0
H724 H 0.71037 0.4378 0.05317 0.0
H725 H 0.73074 0.45714 0.94649 0.0
H726 H 0.70377 0.45861 0.96213 0.0
H727 H 0.6994 0.42782 0.94935 0.0
C728 C 0.65483 0.45202 0.03508 0.0
C729 C 0.63391 0.43558 0.0184 0.0
C730 C 0.67971 0.45509 0.03102 0.0
C731 C 0.68363 0.44034 1.01133 0.0
C732 C 0.66229 0.42309 0.99525 0.0
H733 H 0.77991 0.37233 0.03678 0.0
H734 H 0.74878 0.38848 0.03835 0.0
C735 C 0.63767 0.42098 0.99855 0.0
C736 C 0.70873 0.44 1.01029 0.0
H737 H 0.74926 0.43192 0.96752 0.0
C738 C 0.71934 0.43737 0.03439 0.0
C739 C 0.72109 0.44007 0.98603 0.0
C740 C 0.71326 0.44641 0.95963 0.0
C741 C 0.74079 0.43313 0.03484 0.0
C742 C 0.7508 0.42955 1.01043 0.0
C743 C 0.74136 0.43397 0.98636 0.0
C744 C 0.76965 0.41963 1.0093 0.0
C745 C 0.75199 0.43235 0.06167 0.0
C746 C 0.79045 0.43001 0.99075 0.0
C747 C 0.8071 0.41947 0.98863 0.0
C748 C 0.80429 0.39962 1.00612 0.0
C749 C 0.78312 0.38858 0.024 0.0
C750 C 0.76562 0.39815 0.02519 0.0
H751 H 0.75177 0.44723 0.07526 0.0
H752 H 0.73945 0.41276 0.07094 0.0
H753 H 0.77245 0.43616 0.06025 0.0
H754 H 0.79375 0.44614 0.97775 0.0
H755 H 0.82218 0.42682 0.97335 0.0
H756 H 0.36013 0.77874 0.36727 0.0
H757 H 0.31992 0.73686 0.37485 0.0
H758 H 0.27939 0.75826 0.31669 0.0
H759 H 0.32083 0.7982 0.30636 0.0
H760 H 0.27553 0.72253 0.39296 0.0
H761 H 0.25998 0.69051 0.28711 0.0
H762 H 0.28882 0.72012 0.29759 0.0
H763 H 0.25808 0.71972 0.29247 0.0
C764 C 0.34256 0.77427 0.35611 0.0
C765 C 0.34298 0.79188 0.33705 0.0
C766 C 0.31955 0.75053 0.36056 0.0
C767 C 0.29653 0.74419 0.3462 0.0
C768 C 0.29696 0.7622 0.32748 0.0
H769 H 0.16484 0.5911 0.39967 0.0
H770 H 0.19237 0.63885 0.39509 0.0
C771 C 0.32037 0.78537 0.32213 0.0
C772 C 0.2728 0.71816 0.35026 0.0
H773 H 0.22907 0.66217 0.31799 0.0
C774 C 0.26552 0.7092 0.37655 0.0
C775 C 0.25943 0.70094 0.3288 0.0
C776 C 0.26712 0.70822 0.29996 0.0
C777 C 0.24725 0.68283 0.38207 0.0
C778 C 0.23421 0.66555 0.36059 0.0
C779 C 0.23946 0.67531 0.33441 0.0
C780 C 0.21717 0.63681 0.36406 0.0
C781 C 0.2438 0.67368 0.41068 0.0
C782 C 0.22139 0.61969 0.34777 0.0
C783 C 0.20454 0.59266 0.34914 0.0
C784 C 0.18345 0.58232 0.36706 0.0
C785 C 0.18026 0.59904 0.38473 0.0
C786 C 0.19646 0.62624 0.38264 0.0
H787 H 0.26078 0.68737 0.42321 0.0
H788 H 0.22594 0.67301 0.4191 0.0
H789 H 0.24165 0.65379 0.41226 0.0
H790 H 0.23757 0.62726 0.33367 0.0
H791 H 0.20777 0.57985 0.33598 0.0
H792 H 0.60359 0.40273 0.73295 0.0
H793 H 0.61292 0.3815 0.77051 0.0
H794 H 0.5953 0.31498 0.72014 0.0
H795 H 0.58623 0.33619 0.68277 0.0
H796 H 0.57222 0.30875 0.78219 0.0
H797 H 0.67961 0.36556 0.76542 0.0
H798 H 0.65893 0.38047 0.76661 0.0
H799 H 0.66052 0.36427 0.73679 0.0
C800 C 0.60138 0.38336 0.73024 0.0
C801 C 0.59345 0.37048 0.7055 0.0
C802 C 0.60663 0.37137 0.75159 0.0
C803 C 0.60436 0.34664 0.74806 0.0
C804 C 0.59669 0.33396 0.72321 0.0
H805 H 0.6348 0.25619 0.69932 0.0
H806 H 0.63054 0.29008 0.7234 0.0
C807 C 0.59147 0.34591 0.70197 0.0
C808 C 0.61189 0.33407 0.7689 0.0
H809 H 0.65988 0.31783 0.76696 0.0
C810 C 0.59155 0.31084 0.77991 0.0
C811 C 0.63762 0.3379 0.76822 0.0
C812 C 0.66057 0.36355 0.7589 0.0
C813 C 0.59466 0.28874 0.78282 0.0
C814 C 0.61883 0.29083 0.77498 0.0
C815 C 0.64091 0.316 0.77154 0.0
C816 C 0.61934 0.26885 0.761 0.0
C817 C 0.57122 0.26278 0.79049 0.0
C818 C 0.61301 0.24506 0.77365 0.0
C819 C 0.61431 0.22521 0.75939 0.0
C820 C 0.62238 0.22922 0.73258 0.0
C821 C 0.62816 0.25268 0.71986 0.0
C822 C 0.62614 0.27211 0.73379 0.0
H823 H 0.56642 0.24858 0.77407 0.0
H824 H 0.5761 0.25476 0.80825 0.0
H825 H 0.55355 0.2645 0.79506 0.0
H826 H 0.60782 0.24212 0.79457 0.0
H827 H 0.61044 0.20734 0.76965 0.0
H828 H 0.2162 0.57271 0.03854 0.0
H829 H 0.23064 0.54165 0.04875 0.0
H830 H 0.18657 0.49381 0.98137 0.0
H831 H 0.17513 0.52745 0.96936 0.0
H832 H 0.21095 0.49399 0.06389 0.0
H833 H 0.24591 0.48772 0.96294 0.0
H834 H 0.23426 0.51078 0.966 0.0
H835 H 0.21176 0.47594 0.97025 0.0
C836 C 0.20974 0.55558 0.02589 0.0
C837 C 0.19392 0.55186 1.00374 0.0
C838 C 0.21759 0.5374 0.03191 0.0
C839 C 0.20954 0.5147 1.01612 0.0
C840 C 0.19361 0.51108 0.99378 0.0
H841 H 0.35219 0.55456 0.08065 0.0
H842 H 0.30835 0.51524 0.07663 0.0
C843 C 0.18654 0.53 0.98718 0.0
C844 C 0.22093 0.49746 0.02225 0.0
H845 H 0.27651 0.5007 0.99771 0.0
C846 C 0.22512 0.49478 0.0494 0.0
C847 C 0.23758 0.49481 1.00351 0.0
C848 C 0.23211 0.49214 0.97403 0.0
C849 C 0.25041 0.5012 0.0581 0.0
C850 C 0.27006 0.50689 0.03866 0.0
C851 C 0.26195 0.49868 1.01235 0.0
C852 C 0.29716 0.52952 0.04197 0.0
C853 C 0.25671 0.50593 0.08737 0.0
C854 C 0.30559 0.55082 0.02412 0.0
C855 C 0.33074 0.57246 0.02579 0.0
C856 C 0.34804 0.5735 0.04546 0.0
C857 C 0.33932 0.55339 0.0646 0.0
C858 C 0.31414 0.53118 0.06256 0.0
H859 H 0.23878 0.49978 0.0997 0.0
H860 H 0.26628 0.49467 0.09407 0.0
H861 H 0.27047 0.52718 0.09097 0.0
H862 H 0.29268 0.55074 1.00863 0.0
H863 H 0.33685 0.58821 1.01133 0.0
H864 H 0.47815 0.11627 0.3478 0.0
H865 H 0.45108 0.0734 0.32689 0.0
H866 H 0.48344 0.10708 0.25014 0.0
H867 H 0.50994 0.15028 0.27098 0.0
H868 H 0.42177 0.05242 0.26085 0.0
H869 H 0.5151 0.05806 0.29434 0.0
H870 H 0.50147 0.07314 0.31555 0.0
H871 H 0.51356 0.08653 0.28307 0.0
C872 C 0.47792 0.11493 0.32626 0.0
C873 C 0.49595 0.13642 0.31094 0.0
C874 C 0.46265 0.0904 0.31433 0.0
C875 C 0.46563 0.08715 0.28709 0.0
C876 C 0.4808 0.10933 0.27116 0.0
H877 H 0.44571 0.92956 0.27445 0.0
H878 H 0.46119 0.97447 0.2581 0.0
C879 C 0.49574 0.13403 0.28307 0.0
C880 C 0.45891 0.06071 0.27761 0.0
H881 H 0.47872 0.01562 0.28705 0.0
C882 C 0.43438 0.0444 0.26591 0.0
C883 C 0.47586 0.05064 0.28338 0.0
C884 C 0.50309 0.06794 0.29463 0.0
C885 C 0.4254 0.01748 0.26202 0.0
C886 C 0.44096 0.00668 0.27116 0.0
C887 C 0.46658 0.02368 0.28031 0.0
C888 C 0.42957 0.97809 0.2764 0.0
C889 C 0.39897 0.00078 0.24904 0.0
C890 C 0.40674 0.96519 0.29203 0.0
C891 C 0.3979 0.93977 0.30122 0.0
C892 C 0.41194 0.92658 0.29554 0.0
C893 C 0.43452 0.93918 0.27931 0.0
C894 C 0.44327 0.96477 0.26984 0.0
H895 H 0.39587 0.01198 0.23296 0.0
H896 H 0.39705 0.98242 0.24047 0.0
H897 H 0.38315 -0.00447 0.26404 0.0
H898 H 0.39633 0.97524 0.29835 0.0
H899 H 0.38041 0.93085 0.31362 0.0
H900 H 0.35025 0.45587 0.6225 0.0
H901 H 0.36552 0.42633 0.60551 0.0
H902 H 0.41706 0.44535 0.67328 0.0
H903 H 0.40223 0.47494 0.68995 0.0
H904 H 0.42025 0.44802 0.59311 0.0
H905 H 0.38658 0.36538 0.66412 0.0
H906 H 0.37013 0.38442 0.66051 0.0
H907 H 0.39907 0.39634 0.68099 0.0
C908 C 0.36398 0.45279 0.63427 0.0
C909 C 0.37501 0.46745 0.65759 0.0
C910 C 0.37282 0.43613 0.62445 0.0
C911 C 0.39225 0.43355 0.63825 0.0
C912 C 0.40171 0.4467 0.66257 0.0
H913 H 0.53315 0.44129 0.62334 0.0
H914 H 0.49533 0.44665 0.61332 0.0
C915 C 0.39327 0.4636 0.67209 0.0
C916 C 0.40583 0.42061 0.62593 0.0
H917 H 0.42884 0.37945 0.64264 0.0
C918 C 0.42157 0.43241 0.60336 0.0
C919 C 0.40721 0.40003 0.63902 0.0
C920 C 0.38961 0.38562 0.66235 0.0
C921 C 0.44064 0.42596 0.59523 0.0
C922 C 0.44415 0.40755 0.61033 0.0
C923 C 0.42647 0.39383 0.63116 0.0
C924 C 0.46803 0.40497 0.60793 0.0
C925 C 0.45758 0.43978 0.57135 0.0
C926 C 0.46561 0.37991 0.60721 0.0
C927 C 0.48715 0.37682 0.61337 0.0
C928 C 0.51149 0.39876 0.62023 0.0
C929 C 0.51469 0.42408 0.61795 0.0
C930 C 0.49302 0.42714 0.61209 0.0
H931 H 0.44635 0.44423 0.55642 0.0
H932 H 0.47458 0.4588 0.57775 0.0
H933 H 0.46517 0.42778 0.56171 0.0
H934 H 0.44657 0.36255 0.60401 0.0
H935 H 0.48422 0.35706 0.6148 0.0
H936 H 0.9086 0.40766 0.93443 0.0
H937 H 0.94718 0.44093 0.90999 0.0
H938 H -0.00735 0.46154 0.98239 0.0
H939 H 0.95388 0.42921 1.00697 0.0
H940 H 0.96582 0.49417 0.93279 0.0
H941 H 0.04532 0.47028 0.91959 0.0
H942 H 0.01107 0.44522 0.92301 0.0
H943 H 0.03051 0.46122 0.95206 0.0
C944 C 0.9273 0.41816 0.94471 0.0
C945 C 0.92851 0.41582 0.97247 0.0
C946 C 0.94921 0.43733 0.93078 0.0
C947 C 0.97268 0.45362 0.9444 0.0
C948 C 0.97478 0.44889 0.97147 0.0
H949 H 0.07469 0.58199 1.00086 0.0
H950 H 0.03423 0.55523 0.97638 0.0
C951 C 0.95272 0.43028 0.9855 0.0
C952 C -0.00731 0.47899 0.93286 0.0
H953 H 0.05924 0.51654 0.92821 0.0
C954 C 0.98621 0.49903 0.93069 0.0
C955 C 0.0191 0.4852 0.92983 0.0
C956 C 0.02689 0.46425 0.93099 0.0
C957 C 0.00595 0.52558 0.92907 0.0
C958 C 0.03259 0.532 0.92952 0.0
C959 C 0.03879 0.51169 0.928 0.0
C960 C 0.05371 0.55801 0.93879 0.0
C961 C -0.00178 0.54658 0.92921 0.0
C962 C 0.07788 0.57081 0.92518 0.0
C963 C 0.10109 0.58681 0.9392 0.0
C964 C 0.10021 0.58923 0.96698 0.0
C965 C 0.07579 0.58051 0.97942 0.0
C966 C 0.05258 0.565 0.96535 0.0
H967 H 0.97913 0.53965 0.91884 0.0
H968 H -0.0043 0.55112 0.95012 0.0
H969 H 0.01351 0.56497 0.91956 0.0
H970 H 0.07919 0.56567 0.90472 0.0
H971 H 0.11976 0.59321 0.92922 0.0
H972 H 0.07762 0.48589 0.43373 0.0
H973 H 0.04006 0.48276 0.45854 0.0
H974 H -0.00515 0.46267 0.386 0.0
H975 H 0.0327 0.46698 0.36105 0.0
H976 H 0.02457 0.52078 0.43655 0.0
H977 H 0.94117 0.41956 0.44899 0.0
H978 H 0.97485 0.42672 0.44523 0.0
H979 H 0.95577 0.42502 0.41643 0.0
C980 C 0.05909 0.47917 0.42343 0.0
C981 C 0.05783 0.47643 0.39556 0.0
C982 C 0.03779 0.47769 0.43758 0.0
C983 C 0.01478 0.47254 0.42407 0.0
C984 C 0.01237 0.46637 0.39682 0.0
H985 H 0.91703 0.50803 0.37165 0.0
H986 H 0.95736 0.51925 0.39534 0.0
C987 C 0.03388 0.46859 0.38257 0.0
C988 C -0.0041 0.47932 0.43613 0.0
H989 H 0.92982 0.45399 0.44203 0.0
C990 C 0.00389 0.50617 0.43881 0.0
C991 C 0.96912 0.4603 0.43936 0.0
C992 C 0.95974 0.43125 0.4376 0.0
C993 C 0.9853 0.51454 0.44126 0.0
C994 C 0.95823 0.49556 0.4411 0.0
C995 C 0.95058 0.46865 0.44201 0.0
C996 C 0.93794 0.5022 0.43283 0.0
C997 C -0.00535 0.54361 0.44179 0.0
C998 C 0.91398 0.49162 0.44678 0.0
C999 C 0.89086 0.48582 0.43321 0.0
C1000 C 0.89158 0.48967 0.40553 0.0
C1001 C 0.91603 0.50494 0.39301 0.0
C1002 C 0.93918 0.5112 0.40663 0.0
H1003 H 0.01394 0.55458 0.45209 0.0
H1004 H -0.00257 0.5511 0.42104 0.0
H1005 H 0.98016 0.54772 0.45187 0.0
H1006 H 0.91257 0.48455 0.46699 0.0
H1007 H 0.87217 0.47396 0.44327 0.0
H1008 H 0.62292 0.10437 0.74871 0.0
H1009 H 0.60052 0.05818 0.7639 0.0
H1010 H 0.53973 0.03858 0.70537 0.0
H1011 H 0.56167 0.08431 0.69035 0.0
H1012 H 0.53135 0.02924 0.77343 0.0
H1013 H 0.57748 0.98442 0.71094 0.0
H1014 H 0.5959 0.01784 0.72321 0.0
H1015 H 0.57294 0.01009 0.69647 0.0
C1016 C 0.60521 0.08998 0.73863 0.0
C1017 C 0.59396 0.09778 0.71838 0.0
C1018 C 0.59236 0.06379 0.74748 0.0
C1019 C 0.56844 0.04529 0.73585 0.0
C1020 C 0.55812 0.05275 0.71461 0.0
H1021 H 0.43023 0.90506 0.73059 0.0
H1022 H 0.46324 0.94966 0.74377 0.0
C1023 C 0.57072 0.07878 0.70599 0.0
C1024 C 0.55291 0.01833 0.74637 0.0
H1025 H 0.53618 0.95547 0.73056 0.0
C1026 C 0.53274 0.01301 0.76472 0.0
C1027 C 0.55497 -0.00255 0.735 0.0
C1028 C 0.57654 0.00253 0.71536 0.0
C1029 C 0.51339 0.98701 0.77066 0.0
C1030 C 0.51413 0.96605 0.7575 0.0
C1031 C 0.53554 0.97151 0.74069 0.0
C1032 C 0.49156 0.93877 0.7577 0.0
C1033 C 0.49188 0.98233 0.7902 0.0
C1034 C 0.49599 0.91764 0.76218 0.0
C1035 C 0.47732 0.89229 0.75425 0.0
C1036 C 0.45383 0.88763 0.74197 0.0
C1037 C 0.44805 0.90813 0.74034 0.0
C1038 C 0.46694 0.93364 0.74793 0.0
H1039 H 0.49916 -0.00185 0.80547 0.0
H1040 H 0.4755 0.98261 0.7794 0.0
H1041 H 0.48406 0.96302 0.80039 0.0
H1042 H 0.5148 0.92113 0.76968 0.0
H1043 H 0.48218 0.87673 0.75571 0.0
H1044 H 0.49731 0.62028 1.01585 0.0
H1045 H 0.52566 0.60405 0.03247 0.0
H1046 H 0.50976 0.61744 0.11319 0.0
H1047 H 0.48098 0.63347 0.09641 0.0
H1048 H 0.56632 0.61308 0.06785 0.0
H1049 H 0.46726 0.53693 0.10464 0.0
H1050 H 0.47158 0.56332 0.08299 0.0
H1051 H 0.48052 0.56975 0.11752 0.0
C1052 C 0.50129 0.62144 0.03704 0.0
C1053 C 0.48697 0.62795 0.05489 0.0
C1054 C 0.51729 0.61189 0.04659 0.0
C1055 C 0.51904 0.60871 0.07408 0.0
C1056 C 0.5082 0.61927 0.0919 0.0
H1057 H 0.58786 0.50654 0.0957 0.0
H1058 H 0.57645 0.5398 0.10946 0.0
C1059 C 0.49215 0.62888 0.08229 0.0
C1060 C 0.52698 0.58957 0.08304 0.0
H1061 H 0.4998 0.5252 0.10215 0.0
C1062 C 0.55209 0.59409 0.07606 0.0
C1063 C 0.50807 0.56463 0.09329 0.0
C1064 C 0.48028 0.55813 0.09995 0.0
C1065 C 0.5583 0.57384 0.07735 0.0
C1066 C 0.53901 0.54859 0.08657 0.0
C1067 C 0.51452 0.5446 0.09526 0.0
C1068 C 0.54251 0.52532 0.08361 0.0
C1069 C 0.58468 0.57914 0.06677 0.0
C1070 C 0.5259 0.50488 0.06628 0.0
C1071 C 0.53201 0.4855 0.05896 0.0
C1072 C 0.55485 0.48647 0.0688 0.0
C1073 C 0.57015 0.50552 0.08787 0.0
C1074 C 0.56382 0.52464 0.09552 0.0
H1075 H 0.59521 0.59815 0.05587 0.0
H1076 H 0.59728 0.57996 0.08364 0.0
H1077 H 0.58227 0.56315 0.05313 0.0
H1078 H 0.50927 0.50496 0.05696 0.0
H1079 H 0.5202 0.47117 0.04394 0.0
H1080 H 0.57977 0.24529 0.2451 0.0
H1081 H 0.57401 0.27119 0.21032 0.0
H1082 H 0.52311 0.28451 0.26246 0.0
H1083 H 0.5299 0.25964 0.2978 0.0
H1084 H 0.53403 0.26589 0.18299 0.0
H1085 H 0.57166 0.35824 0.24088 0.0
H1086 H 0.57419 0.33057 0.25281 0.0
H1087 H 0.54376 0.331 0.2563 0.0
C1088 C 0.56747 0.25388 0.24925 0.0
C1089 C 0.55555 0.25062 0.27439 0.0
C1090 C 0.5641 0.26865 0.22925 0.0
C1091 C 0.5485 0.28039 0.23371 0.0
C1092 C 0.53593 0.27649 0.25861 0.0
H1093 H 0.5106 0.3493 0.09344 0.0
H1094 H 0.50525 0.31997 0.131 0.0
C1095 C 0.53969 0.26208 0.27882 0.0
C1096 C 0.54556 0.29659 0.21224 0.0
H1097 H 0.5536 0.35745 0.19867 0.0
C1098 C 0.5383 0.28592 0.18646 0.0
C1099 C 0.55128 0.32286 0.21651 0.0
C1100 C 0.56091 0.33645 0.24303 0.0
C1101 C 0.53718 0.3008 0.16491 0.0
C1102 C 0.54259 0.32697 0.16928 0.0
C1103 C 0.5492 0.33737 0.1952 0.0
C1104 C 0.54437 0.34491 0.14701 0.0
C1105 C 0.53141 0.28867 0.13748 0.0
C1106 C 0.56755 0.36926 0.14396 0.0
C1107 C 0.57034 0.38619 0.12303 0.0
C1108 C 0.55013 0.37931 0.10422 0.0
C1109 C 0.52659 0.35519 0.10748 0.0
C1110 C 0.52365 0.33826 0.12882 0.0
H1111 H 0.53429 0.2713 0.13646 0.0
H1112 H 0.51059 0.28197 0.13236 0.0
H1113 H 0.54423 0.30318 0.12225 0.0
H1114 H 0.58388 0.37505 0.15755 0.0
H1115 H 0.58881 0.40453 0.12129 0.0
H1116 H 0.15637 0.44869 0.42017 0.0
H1117 H 0.17505 0.43822 0.45907 0.0
H1118 H 0.19044 0.51102 0.49614 0.0
H1119 H 0.1708 0.52071 0.45849 0.0
H1120 H 0.22128 0.45997 0.47861 0.0
H1121 H 0.1598 0.46515 0.55839 0.0
H1122 H 0.1515 0.46474 0.52374 0.0
H1123 H 0.17374 0.49537 0.54011 0.0
C1124 C 0.16333 0.46216 0.43688 0.0
C1125 C 0.16177 0.48536 0.43632 0.0
C1126 C 0.17404 0.4562 0.45912 0.0
C1127 C 0.18357 0.47344 0.48111 0.0
C1128 C 0.18228 0.49674 0.48019 0.0
H1129 H 0.31506 0.5135 0.5779 0.0
H1130 H 0.28237 0.50198 0.54336 0.0
C1131 C 0.17122 0.50242 0.45835 0.0
C1132 C 0.19681 0.46853 0.50411 0.0
H1133 H 0.20443 0.47622 0.57165 0.0
C1134 C 0.21716 0.46298 0.49898 0.0
C1135 C 0.19111 0.47147 0.53099 0.0
C1136 C 0.16761 0.47417 0.53858 0.0
C1137 C 0.23314 0.4624 0.51957 0.0
C1138 C 0.22952 0.4687 0.54599 0.0
C1139 C 0.20784 0.47209 0.55142 0.0
C1140 C 0.24935 0.47441 0.56747 0.0
C1141 C 0.25389 0.45525 0.51258 0.0
C1142 C 0.24186 0.46373 0.5933 0.0
C1143 C 0.26074 0.47095 0.61367 0.0
C1144 C 0.28745 0.48886 0.60849 0.0
C1145 C 0.29477 0.4993 0.58262 0.0
C1146 C 0.27601 0.49248 0.56259 0.0
H1147 H 0.24713 0.44077 0.49601 0.0
H1148 H 0.27196 0.47314 0.50566 0.0
H1149 H 0.25892 0.44678 0.52988 0.0
H1150 H 0.22139 0.44999 0.59778 0.0
H1151 H 0.25442 0.4627 0.63341 0.0
H1152 H 0.83272 0.29281 0.95062 0.0
H1153 H 0.81481 0.2633 0.91192 0.0
H1154 H 0.7905 0.31531 0.87745 0.0
H1155 H 0.80945 0.34516 0.91487 0.0
H1156 H 0.76875 0.23498 0.89337 0.0
H1157 H 0.82301 0.30535 0.81345 0.0
H1158 H 0.83173 0.31339 0.84798 0.0
H1159 H 0.80672 0.31864 0.83287 0.0
C1160 C 0.82386 0.29803 0.93454 0.0
C1161 C 0.82283 0.3215 0.93568 0.0
C1162 C 0.81362 0.28117 0.91241 0.0
C1163 C 0.80193 0.28735 0.89114 0.0
C1164 C 0.8004 0.3105 0.89278 0.0
H1165 H 0.67146 0.18991 0.79779 0.0
H1166 H 0.7048 0.21048 0.83169 0.0
C1167 C 0.81104 0.3275 0.91447 0.0
C1168 C 0.78961 0.26903 0.86807 0.0
H1169 H 0.77962 0.26887 0.80096 0.0
C1170 C 0.77161 0.24234 0.87311 0.0
C1171 C 0.79381 0.27802 0.84129 0.0
C1172 C 0.81514 0.30535 0.83362 0.0
C1173 C 0.75626 0.22517 0.85261 0.0
C1174 C 0.75799 0.23512 0.82645 0.0
C1175 C 0.77759 0.26118 0.82101 0.0
C1176 C 0.73784 0.22005 0.80551 0.0
C1177 C 0.73816 0.19657 0.85944 0.0
C1178 C 0.74494 0.21888 0.77887 0.0
C1179 C 0.72558 0.20749 0.7589 0.0
C1180 C 0.69879 0.19709 0.76525 0.0
C1181 C 0.69183 0.1975 0.79204 0.0
C1182 C 0.71101 0.20908 0.81172 0.0
H1183 H 0.74711 0.18997 0.87496 0.0
H1184 H 0.71949 0.19413 0.86778 0.0
H1185 H 0.73362 0.18364 0.84175 0.0
H1186 H 0.76549 0.22739 0.77339 0.0
H1187 H 0.73164 0.20772 0.73846 0.0
H1188 H 0.42039 0.66171 0.13051 0.0
H1189 H 0.4244 0.69449 0.16316 0.0
H1190 H 0.44364 0.75143 0.10035 0.0
H1191 H 0.43997 0.71872 0.06744 0.0
H1192 H 0.47494 0.77287 0.14667 0.0
H1193 H 0.36854 0.71656 0.17185 0.0
H1194 H 0.38526 0.69804 0.17541 0.0
H1195 H 0.3821 0.70919 0.14297 0.0
C1196 C 0.42561 0.68123 0.12357 0.0
C1197 C 0.42963 0.68747 0.09625 0.0
C1198 C 0.4278 0.69996 0.14232 0.0
C1199 C 0.43389 0.72536 0.13424 0.0
C1200 C 0.43881 0.73196 0.10709 0.0
H1201 H 0.39804 0.82832 0.22715 0.0
H1202 H 0.4037 0.80265 0.19213 0.0
C1203 C 0.43665 0.7132 0.08828 0.0
C1204 C 0.43417 0.7446 0.15401 0.0
H1205 H 0.39523 0.75347 0.19888 0.0
C1206 C 0.45751 0.76868 0.15806 0.0
C1207 C 0.41137 0.73933 0.1687 0.0
C1208 C 0.38532 0.71451 0.16441 0.0
C1209 C 0.45871 0.78738 0.17662 0.0
C1210 C 0.43604 0.78178 0.19176 0.0
C1211 C 0.41269 0.7578 0.18746 0.0
C1212 C 0.43554 0.80058 0.21165 0.0
C1213 C 0.48407 0.81318 0.17944 0.0
C1214 C 0.45204 0.80876 0.23417 0.0
C1215 C 0.44899 0.8238 0.25429 0.0
C1216 C 0.42917 0.83067 0.2524 0.0
C1217 C 0.4135 0.8234 0.22931 0.0
C1218 C 0.41665 0.80859 0.20925 0.0
H1219 H 0.49717 0.81727 0.1619 0.0
H1220 H 0.48017 0.82977 0.18198 0.0
H1221 H 0.49473 0.81233 0.19733 0.0
H1222 H 0.46645 0.8025 0.23684 0.0
H1223 H 0.46114 0.82876 0.27194 0.0
H1224 H 0.66326 0.47045 0.61145 0.0
H1225 H 0.69482 0.47739 0.57555 0.0
H1226 H 0.63429 0.4102 0.53363 0.0
H1227 H 0.60335 0.40273 0.56964 0.0
H1228 H 0.67594 0.4055 0.53774 0.0
H1229 H 0.70835 0.50638 0.50108 0.0
H1230 H 0.71294 0.50492 0.53625 0.0
H1231 H 0.68017 0.48886 0.52269 0.0
C1232 C 0.6566 0.45764 0.59421 0.0
C1233 C 0.63082 0.43605 0.59338 0.0
C1234 C 0.67465 0.46162 0.57362 0.0
C1235 C 0.66705 0.44439 0.55162 0.0
C1236 C 0.64084 0.42373 0.5503 0.0
H1237 H 0.75382 0.45547 0.40483 0.0
H1238 H 0.72494 0.45814 0.43883 0.0
C1239 C 0.62308 0.41953 0.57092 0.0
C1240 C 0.6865 0.44595 0.53115 0.0
H1241 H 0.73242 0.48608 0.48523 0.0
C1242 C 0.68819 0.42317 0.52625 0.0
C1243 C 0.70245 0.46883 0.51583 0.0
C1244 C 0.70077 0.49357 0.51899 0.0
C1245 C 0.70511 0.42254 0.5067 0.0
C1246 C 0.72169 0.44564 0.49196 0.0
C1247 C 0.71997 0.46844 0.49665 0.0
C1248 C 0.74069 0.44619 0.47155 0.0
C1249 C 0.70444 0.39679 0.50158 0.0
C1250 C 0.75974 0.43935 0.47858 0.0
C1251 C 0.77599 0.43751 0.45918 0.0
C1252 C 0.774 0.44294 0.43224 0.0
C1253 C 0.75582 0.45106 0.42535 0.0
C1254 C 0.73932 0.45263 0.44481 0.0
H1255 H 0.68562 0.3797 0.50845 0.0
H1256 H 0.70697 0.39419 0.48007 0.0
H1257 H 0.72067 0.39656 0.51271 0.0
H1258 H 0.76179 0.43499 0.49911 0.0
H1259 H 0.78999 0.43155 0.46531 0.0
H1260 H 0.2099 0.62727 0.90678 0.0
H1261 H 0.2354 0.65885 0.87187 0.0
H1262 H 0.25016 0.72296 0.92453 0.0
H1263 H 0.22524 0.69131 0.95996 0.0
H1264 H 0.22967 0.69535 0.8457 0.0
H1265 H 0.32391 0.74487 0.90142 0.0
H1266 H 0.29583 0.71484 0.91299 0.0
H1267 H 0.29721 0.74596 0.91784 0.0
C1268 C 0.2186 0.64809 0.91103 0.0
C1269 C 0.21567 0.65671 0.93633 0.0
C1270 C 0.23317 0.66619 0.89095 0.0
C1271 C 0.24518 0.69343 0.89552 0.0
C1272 C 0.24173 0.70212 0.92058 0.0
H1273 H 0.31711 0.80218 0.75718 0.0
H1274 H 0.28784 0.77886 0.79503 0.0
C1275 C 0.22731 0.68398 0.94082 0.0
C1276 C 0.26142 0.71241 0.87401 0.0
H1277 H 0.32361 0.762 0.85906 0.0
C1278 C 0.25019 0.71003 0.84868 0.0
C1279 C 0.2883 0.73151 0.8777 0.0
C1280 C 0.30215 0.73437 0.90386 0.0
C1281 C 0.26509 0.72566 0.82695 0.0
C1282 C 0.29197 0.74475 0.83066 0.0
C1283 C 0.303 0.74757 0.85615 0.0
C1284 C 0.30976 0.76002 0.80798 0.0
C1285 C 0.2522 0.72069 0.79995 0.0
C1286 C 0.33228 0.75799 0.80298 0.0
C1287 C 0.34908 0.77149 0.78173 0.0
C1288 C 0.34395 0.7875 0.76467 0.0
C1289 C 0.3216 0.78994 0.76981 0.0
C1290 C 0.30474 0.77643 0.79135 0.0
H1291 H 0.23347 0.70157 0.79922 0.0
H1292 H 0.24764 0.73654 0.79541 0.0
H1293 H 0.26554 0.72075 0.78415 0.0
H1294 H 0.33672 0.74555 0.81537 0.0
H1295 H 0.36605 0.76905 0.77852 0.0
loop_
_geom_bond_atom_site_label_1
_geom_bond_atom_site_label_2
_geom_bond_distance
_geom_bond_site_symmetry_2
_ccdc_geom_bond_type
Mn0 O5 2.095 . S
Mn0 O15 2.162 . S
Mn0 O16 2.297 . S
Mn0 O24 2.385 . S
Mn0 O25 2.209 . S
Mn0 O26 2.094 . S
Mn1 O6 2.121 . S
Mn1 N8 2.257 . S
Mn1 N17 2.282 . S
Mn1 O25 2.215 . S
Mn1 O27 2.117 . S
C2 O24 1.234 . S
C2 O25 1.283 . S
C3 O15 1.281 . S
C3 O16 1.236 . S
C4 O26 1.240 . S
C4 O27 1.264 . S
O5 Mn0 2.095 . S
O5 C14 1.250 . S
O6 Mn1 2.121 . S
O6 C14 1.258 . S
C7 N8 1.326 . S
C7 C11 1.460 . S
C7 H13 0.929 . S
N8 Mn1 2.257 . S
N8 C7 1.326 . S
N8 C12 1.362 . S
C9 C10 1.258 . S
C9 C12 1.431 . S
C9 C29 1.449 . S
C10 C9 1.258 . S
C10 C11 1.477 . S
C10 H30 0.931 . S
C11 C7 1.460 . S
C11 C10 1.477 . S
C11 H31 0.930 . S
C12 N8 1.362 . S
C12 C9 1.431 . S
C12 C22 1.476 . S
H13 C7 0.929 . S
C14 O5 1.250 . S
C14 O6 1.258 . S
O15 Mn0 2.162 . S
O15 C3 1.281 . S
O16 Mn0 2.297 . S
O16 C3 1.236 . S
N17 Mn1 2.282 . S
N17 C18 1.328 . S
N17 C22 1.318 . S
C18 N17 1.328 . S
C18 C19 1.457 . S
C18 H23 0.929 . S
C19 C18 1.457 . S
C19 C20 1.291 . S
C19 H32 0.931 . S
C20 C19 1.291 . S
C20 C21 1.373 . S
C20 H33 0.929 . S
C21 C20 1.373 . S
C21 C22 1.396 . S
C21 C28 1.403 . S
C22 C12 1.476 . S
C22 N17 1.318 . S
C22 C21 1.396 . S
H23 C18 0.929 . S
O24 Mn0 2.385 . S
O24 C2 1.234 . S
O25 Mn0 2.209 . S
O25 Mn1 2.215 . S
O25 C2 1.283 . S
O26 Mn0 2.094 . S
O26 C4 1.240 . S
O27 Mn1 2.117 . S
O27 C4 1.264 . S
C28 C21 1.403 . S
C28 C29 1.399 . S
C28 H34 0.929 . S
C29 C9 1.449 . S
C29 C28 1.399 . S
C29 H35 0.930 . S
H30 C10 0.931 . S
H31 C11 0.930 . S
H32 C19 0.931 . S
H33 C20 0.929 . S
H34 C28 0.929 . S
H35 C29 0.930 . S
Mn36 O41 2.095 . S
Mn36 O51 2.162 . S
Mn36 O52 2.297 . S
Mn36 O60 2.385 . S
Mn36 O61 2.209 . S
Mn36 O62 2.094 . S
Mn37 O42 2.121 . S
Mn37 N44 2.257 . S
Mn37 N53 2.282 . S
Mn37 O61 2.215 . S
Mn37 O63 2.117 . S
C38 O60 1.234 . S
C38 O61 1.283 . S
C39 O51 1.281 . S
C39 O52 1.236 . S
C40 O62 1.240 . S
C40 O63 1.264 . S
O41 Mn36 2.095 . S
O41 C50 1.250 . S
O42 Mn37 2.121 . S
O42 C50 1.258 . S
C43 N44 1.326 . S
C43 C47 1.460 . S
C43 H49 0.929 . S
N44 Mn37 2.257 . S
N44 C43 1.326 . S
N44 C48 1.362 . S
C45 C46 1.258 . S
C45 C48 1.431 . S
C45 C65 1.449 . S
C46 C45 1.258 . S
C46 C47 1.477 . S
C46 H66 0.931 . S
C47 C43 1.460 . S
C47 C46 1.477 . S
C47 H67 0.930 . S
C48 N44 1.362 . S
C48 C45 1.431 . S
C48 C58 1.476 . S
H49 C43 0.929 . S
C50 O41 1.250 . S
C50 O42 1.258 . S
O51 Mn36 2.162 . S
O51 C39 1.281 . S
O52 Mn36 2.297 . S
O52 C39 1.236 . S
N53 Mn37 2.282 . S
N53 C54 1.328 . S
N53 C58 1.318 . S
C54 N53 1.328 . S
C54 C55 1.457 . S
C54 H59 0.929 . S
C55 C54 1.457 . S
C55 C56 1.291 . S
C55 H68 0.931 . S
C56 C55 1.291 . S
C56 C57 1.373 . S
C56 H69 0.929 . S
C57 C56 1.373 . S
C57 C58 1.396 . S
C57 C64 1.403 . S
C58 C48 1.476 . S
C58 N53 1.318 . S
C58 C57 1.396 . S
H59 C54 0.929 . S
O60 Mn36 2.385 . S
O60 C38 1.234 . S
O61 Mn36 2.209 . S
O61 Mn37 2.215 . S
O61 C38 1.283 . S
O62 Mn36 2.094 . S
O62 C40 1.240 . S
O63 Mn37 2.117 . S
O63 C40 1.264 . S
C64 C57 1.403 . S
C64 C65 1.399 . S
C64 H70 0.929 . S
C65 C45 1.449 . S
C65 C64 1.399 . S
C65 H71 0.930 . S
H66 C46 0.931 . S
H67 C47 0.930 . S
H68 C55 0.931 . S
H69 C56 0.929 . S
H70 C64 0.929 . S
H71 C65 0.930 . S
Mn72 O77 2.095 . S
Mn72 O87 2.162 . S
Mn72 O88 2.297 . S
Mn72 O96 2.385 . S
Mn72 O97 2.209 . S
Mn72 O98 2.094 1_556 S
Mn73 O78 2.121 1_554 S
Mn73 N80 2.252 1_554 S
Mn73 N89 2.282 . S
Mn73 O97 2.215 1_554 S
Mn73 O99 2.117 . S
C74 O96 1.234 . S
C74 O97 1.283 . S
C75 O87 1.281 . S
C75 O88 1.236 . S
C76 O98 1.240 . S
C76 O99 1.264 . S
O77 Mn72 2.095 . S
O77 C86 1.250 . S
O78 Mn73 2.121 1_556 S
O78 C86 1.258 . S
C79 N80 1.335 . S
C79 C83 1.460 . S
C79 H85 0.929 . S
N80 Mn73 2.252 1_556 S
N80 C79 1.335 . S
N80 C84 1.357 1_556 S
C81 C82 1.258 1_554 S
C81 C84 1.431 . S
C81 C101 1.449 . S
C82 C81 1.258 1_556 S
C82 C83 1.477 . S
C82 H102 0.931 . S
C83 C79 1.460 . S
C83 C82 1.477 . S
C83 H103 0.930 . S
C84 N80 1.357 1_554 S
C84 C81 1.431 . S
C84 C94 1.476 . S
H85 C79 0.929 . S
C86 O77 1.250 . S
C86 O78 1.258 . S
O87 Mn72 2.162 . S
O87 C75 1.281 . S
O88 Mn72 2.297 . S
O88 C75 1.236 . S
N89 Mn73 2.282 . S
N89 C90 1.328 . S
N89 C94 1.318 . S
C90 N89 1.328 . S
C90 C91 1.457 . S
C90 H95 0.929 . S
C91 C90 1.457 . S
C91 C92 1.291 . S
C91 H104 0.931 . S
C92 C91 1.291 . S
C92 C93 1.373 . S
C92 H105 0.929 . S
C93 C92 1.373 . S
C93 C94 1.396 . S
C93 C100 1.403 . S
C94 C84 1.476 . S
C94 N89 1.318 . S
C94 C93 1.396 . S
H95 C90 0.929 . S
O96 Mn72 2.385 . S
O96 C74 1.234 . S
O97 Mn72 2.209 . S
O97 Mn73 2.215 1_556 S
O97 C74 1.283 . S
O98 Mn72 2.094 1_554 S
O98 C76 1.240 . S
O99 Mn73 2.117 . S
O99 C76 1.264 . S
C100 C93 1.403 . S
C100 C101 1.399 . S
C100 H106 0.929 . S
C101 C81 1.449 . S
C101 C100 1.399 . S
C101 H107 0.930 . S
H102 C82 0.931 . S
H103 C83 0.930 . S
H104 C91 0.931 . S
H105 C92 0.929 . S
H106 C100 0.929 . S
H107 C101 0.930 . S
Mn108 O113 2.095 . S
Mn108 O123 2.162 . S
Mn108 O124 2.297 . S
Mn108 O132 2.385 . S
Mn108 O133 2.209 . S
Mn108 O134 2.094 . S
Mn109 O114 2.121 . S
Mn109 N116 2.257 . S
Mn109 N125 2.282 . S
Mn109 O133 2.215 . S
Mn109 O135 2.117 . S
C110 O132 1.234 . S
C110 O133 1.283 . S
C111 O123 1.281 . S
C111 O124 1.236 . S
C112 O134 1.240 . S
C112 O135 1.264 . S
O113 Mn108 2.095 . S
O113 C122 1.250 . S
O114 Mn109 2.121 . S
O114 C122 1.258 . S
C115 N116 1.326 . S
C115 C119 1.460 . S
C115 H121 0.929 . S
N116 Mn109 2.257 . S
N116 C115 1.326 . S
N116 C120 1.362 . S
C117 C118 1.258 . S
C117 C120 1.431 . S
C117 C137 1.449 . S
C118 C117 1.258 . S
C118 C119 1.477 . S
C118 H138 0.931 . S
C119 C115 1.460 . S
C119 C118 1.477 . S
C119 H139 0.930 . S
C120 N116 1.362 . S
C120 C117 1.431 . S
C120 C130 1.476 . S
H121 C115 0.929 . S
C122 O113 1.250 . S
C122 O114 1.258 . S
O123 Mn108 2.162 . S
O123 C111 1.281 . S
O124 Mn108 2.297 . S
O124 C111 1.236 . S
N125 Mn109 2.282 . S
N125 C126 1.328 . S
N125 C130 1.318 . S
C126 N125 1.328 . S
C126 C127 1.457 . S
C126 H131 0.929 . S
C127 C126 1.457 . S
C127 C128 1.291 . S
C127 H140 0.931 . S
C128 C127 1.291 . S
C128 C129 1.373 . S
C128 H141 0.929 . S
C129 C128 1.373 . S
C129 C130 1.396 . S
C129 C136 1.403 . S
C130 C120 1.476 . S
C130 N125 1.318 . S
C130 C129 1.396 . S
H131 C126 0.929 . S
O132 Mn108 2.385 . S
O132 C110 1.234 . S
O133 Mn108 2.209 . S
O133 Mn109 2.215 . S
O133 C110 1.283 . S
O134 Mn108 2.094 . S
O134 C112 1.240 . S
O135 Mn109 2.117 . S
O135 C112 1.264 . S
C136 C129 1.403 . S
C136 C137 1.399 . S
C136 H142 0.929 . S
C137 C117 1.449 . S
C137 C136 1.399 . S
C137 H143 0.930 . S
H138 C118 0.931 . S
H139 C119 0.930 . S
H140 C127 0.931 . S
H141 C128 0.929 . S
H142 C136 0.929 . S
H143 C137 0.930 . S
Mn144 O149 2.095 . S
Mn144 O159 2.162 . S
Mn144 O160 2.297 . S
Mn144 O168 2.385 . S
Mn144 O169 2.209 . S
Mn144 O170 2.094 . S
Mn145 O150 2.121 . S
Mn145 N152 2.257 . S
Mn145 N161 2.282 . S
Mn145 O169 2.215 . S
Mn145 O171 2.117 . S
C146 O168 1.234 . S
C146 O169 1.283 . S
C147 O159 1.281 . S
C147 O160 1.236 . S
C148 O170 1.240 . S
C148 O171 1.264 . S
O149 Mn144 2.095 . S
O149 C158 1.250 . S
O150 Mn145 2.121 . S
O150 C158 1.258 . S
C151 N152 1.326 . S
C151 C155 1.460 . S
C151 H157 0.929 . S
N152 Mn145 2.257 . S
N152 C151 1.326 . S
N152 C156 1.362 . S
C153 C154 1.258 . S
C153 C156 1.431 . S
C153 C173 1.449 . S
C154 C153 1.258 . S
C154 C155 1.477 . S
C154 H174 0.931 . S
C155 C151 1.460 . S
C155 C154 1.477 . S
C155 H175 0.930 . S
C156 N152 1.362 . S
C156 C153 1.431 . S
C156 C166 1.476 . S
H157 C151 0.929 . S
C158 O149 1.250 . S
C158 O150 1.258 . S
O159 Mn144 2.162 . S
O159 C147 1.281 . S
O160 Mn144 2.297 . S
O160 C147 1.236 . S
N161 Mn145 2.282 . S
N161 C162 1.328 . S
N161 C166 1.318 . S
C162 N161 1.328 . S
C162 C163 1.457 . S
C162 H167 0.929 . S
C163 C162 1.457 . S
C163 C164 1.291 . S
C163 H176 0.931 . S
C164 C163 1.291 . S
C164 C165 1.373 . S
C164 H177 0.929 . S
C165 C164 1.373 . S
C165 C166 1.396 . S
C165 C172 1.403 . S
C166 C156 1.476 . S
C166 N161 1.318 . S
C166 C165 1.396 . S
H167 C162 0.929 . S
O168 Mn144 2.385 . S
O168 C146 1.234 . S
O169 Mn144 2.209 . S
O169 Mn145 2.215 . S
O169 C146 1.283 . S
O170 Mn144 2.094 . S
O170 C148 1.240 . S
O171 Mn145 2.117 . S
O171 C148 1.264 . S
C172 C165 1.403 . S
C172 C173 1.399 . S
C172 H178 0.929 . S
C173 C153 1.449 . S
C173 C172 1.399 . S
C173 H179 0.930 . S
H174 C154 0.931 . S
H175 C155 0.930 . S
H176 C163 0.931 . S
H177 C164 0.929 . S
H178 C172 0.929 . S
H179 C173 0.930 . S
Mn180 O185 2.095 . S
Mn180 O195 2.162 . S
Mn180 O196 2.297 . S
Mn180 O204 2.385 . S
Mn180 O205 2.209 . S
Mn180 O206 2.094 1_556 S
Mn181 O186 2.121 1_554 S
Mn181 N188 2.252 1_554 S
Mn181 N197 2.282 . S
Mn181 O205 2.215 1_554 S
Mn181 O207 2.117 . S
C182 O204 1.234 . S
C182 O205 1.283 . S
C183 O195 1.281 . S
C183 O196 1.236 . S
C184 O206 1.240 . S
C184 O207 1.264 . S
O185 Mn180 2.095 . S
O185 C194 1.250 . S
O186 Mn181 2.121 1_556 S
O186 C194 1.258 . S
C187 N188 1.335 . S
C187 C191 1.460 . S
C187 H193 0.929 . S
N188 Mn181 2.252 1_556 S
N188 C187 1.335 . S
N188 C192 1.357 1_556 S
C189 C190 1.258 1_554 S
C189 C192 1.431 . S
C189 C209 1.449 . S
C190 C189 1.258 1_556 S
C190 C191 1.477 . S
C190 H210 0.931 . S
C191 C187 1.460 . S
C191 C190 1.477 . S
C191 H211 0.930 . S
C192 N188 1.357 1_554 S
C192 C189 1.431 . S
C192 C202 1.476 . S
H193 C187 0.929 . S
C194 O185 1.250 . S
C194 O186 1.258 . S
O195 Mn180 2.162 . S
O195 C183 1.281 . S
O196 Mn180 2.297 . S
O196 C183 1.236 . S
N197 Mn181 2.282 . S
N197 C198 1.328 . S
N197 C202 1.318 . S
C198 N197 1.328 . S
C198 C199 1.457 . S
C198 H203 0.929 . S
C199 C198 1.457 . S
C199 C200 1.291 . S
C199 H212 0.931 . S
C200 C199 1.291 . S
C200 C201 1.373 . S
C200 H213 0.929 . S
C201 C200 1.373 . S
C201 C202 1.396 . S
C201 C208 1.403 . S
C202 C192 1.476 . S
C202 N197 1.318 . S
C202 C201 1.396 . S
H203 C198 0.929 . S
O204 Mn180 2.385 . S
O204 C182 1.234 . S
O205 Mn180 2.209 . S
O205 Mn181 2.215 1_556 S
O205 C182 1.283 . S
O206 Mn180 2.094 1_554 S
O206 C184 1.240 . S
O207 Mn181 2.117 . S
O207 C184 1.264 . S
C208 C201 1.403 . S
C208 C209 1.399 . S
C208 H214 0.929 . S
C209 C189 1.449 . S
C209 C208 1.399 . S
C209 H215 0.930 . S
H210 C190 0.931 . S
H211 C191 0.930 . S
H212 C199 0.931 . S
H213 C200 0.929 . S
H214 C208 0.929 . S
H215 C209 0.930 . S
Mn216 O221 2.095 . S
Mn216 O231 2.162 . S
Mn216 O232 2.297 . S
Mn216 O240 2.385 . S
Mn216 O241 2.209 . S
Mn216 O242 2.094 . S
Mn217 O222 2.121 . S
Mn217 N224 2.257 . S
Mn217 N233 2.282 . S
Mn217 O241 2.215 . S
Mn217 O243 2.117 . S
C218 O240 1.234 . S
C218 O241 1.283 . S
C219 O231 1.281 . S
C219 O232 1.236 . S
C220 O242 1.240 . S
C220 O243 1.264 . S
O221 Mn216 2.095 . S
O221 C230 1.250 . S
O222 Mn217 2.121 . S
O222 C230 1.258 . S
C223 N224 1.326 . S
C223 C227 1.460 . S
C223 H229 0.929 . S
N224 Mn217 2.257 . S
N224 C223 1.326 . S
N224 C228 1.362 . S
C225 C226 1.258 . S
C225 C228 1.431 . S
C225 C245 1.449 . S
C226 C225 1.258 . S
C226 C227 1.477 . S
C226 H246 0.931 . S
C227 C223 1.460 . S
C227 C226 1.477 . S
C227 H247 0.930 . S
C228 N224 1.362 . S
C228 C225 1.431 . S
C228 C238 1.476 . S
H229 C223 0.929 . S
C230 O221 1.250 . S
C230 O222 1.258 . S
O231 Mn216 2.162 . S
O231 C219 1.281 . S
O232 Mn216 2.297 . S
O232 C219 1.236 . S
N233 Mn217 2.282 . S
N233 C234 1.328 . S
N233 C238 1.318 . S
C234 N233 1.328 . S
C234 C235 1.457 . S
C234 H239 0.929 . S
C235 C234 1.457 . S
C235 C236 1.291 . S
C235 H248 0.931 . S
C236 C235 1.291 . S
C236 C237 1.373 . S
C236 H249 0.929 . S
C237 C236 1.373 . S
C237 C238 1.396 . S
C237 C244 1.403 . S
C238 C228 1.476 . S
C238 N233 1.318 . S
C238 C237 1.396 . S
H239 C234 0.929 . S
O240 Mn216 2.385 . S
O240 C218 1.234 . S
O241 Mn216 2.209 . S
O241 Mn217 2.215 . S
O241 C218 1.283 . S
O242 Mn216 2.094 . S
O242 C220 1.240 . S
O243 Mn217 2.117 . S
O243 C220 1.264 . S
C244 C237 1.403 . S
C244 C245 1.399 . S
C244 H250 0.929 . S
C245 C225 1.449 . S
C245 C244 1.399 . S
C245 H251 0.930 . S
H246 C226 0.931 . S
H247 C227 0.930 . S
H248 C235 0.931 . S
H249 C236 0.929 . S
H250 C244 0.929 . S
H251 C245 0.930 . S
Mn252 O257 2.095 . S
Mn252 O267 2.162 . S
Mn252 O268 2.297 . S
Mn252 O276 2.385 . S
Mn252 O277 2.209 . S
Mn252 O278 2.094 . S
Mn253 O258 2.121 . S
Mn253 N260 2.257 . S
Mn253 N269 2.282 . S
Mn253 O277 2.215 . S
Mn253 O279 2.117 . S
C254 O276 1.234 . S
C254 O277 1.283 . S
C255 O267 1.281 . S
C255 O268 1.236 . S
C256 O278 1.240 . S
C256 O279 1.264 . S
O257 Mn252 2.095 . S
O257 C266 1.250 . S
O258 Mn253 2.121 . S
O258 C266 1.258 . S
C259 N260 1.326 . S
C259 C263 1.460 . S
C259 H265 0.929 . S
N260 Mn253 2.257 . S
N260 C259 1.326 . S
N260 C264 1.362 . S
C261 C262 1.258 . S
C261 C264 1.431 . S
C261 C281 1.449 . S
C262 C261 1.258 . S
C262 C263 1.477 . S
C262 H282 0.931 . S
C263 C259 1.460 . S
C263 C262 1.477 . S
C263 H283 0.930 . S
C264 N260 1.362 . S
C264 C261 1.431 . S
C264 C274 1.476 . S
H265 C259 0.929 . S
C266 O257 1.250 . S
C266 O258 1.258 . S
O267 Mn252 2.162 . S
O267 C255 1.281 . S
O268 Mn252 2.297 . S
O268 C255 1.236 . S
N269 Mn253 2.282 . S
N269 C270 1.328 . S
N269 C274 1.318 . S
C270 N269 1.328 . S
C270 C271 1.457 . S
C270 H275 0.929 . S
C271 C270 1.457 . S
C271 C272 1.291 . S
C271 H284 0.931 . S
C272 C271 1.291 . S
C272 C273 1.373 . S
C272 H285 0.929 . S
C273 C272 1.373 . S
C273 C274 1.396 . S
C273 C280 1.403 . S
C274 C264 1.476 . S
C274 N269 1.318 . S
C274 C273 1.396 . S
H275 C270 0.929 . S
O276 Mn252 2.385 . S
O276 C254 1.234 . S
O277 Mn252 2.209 . S
O277 Mn253 2.215 . S
O277 C254 1.283 . S
O278 Mn252 2.094 . S
O278 C256 1.240 . S
O279 Mn253 2.117 . S
O279 C256 1.264 . S
C280 C273 1.403 . S
C280 C281 1.399 . S
C280 H286 0.929 . S
C281 C261 1.449 . S
C281 C280 1.399 . S
C281 H287 0.930 . S
H282 C262 0.931 . S
H283 C263 0.930 . S
H284 C271 0.931 . S
H285 C272 0.929 . S
H286 C280 0.929 . S
H287 C281 0.930 . S
Mn288 O293 2.095 . S
Mn288 O303 2.162 . S
Mn288 O304 2.297 . S
Mn288 O312 2.385 . S
Mn288 O313 2.209 . S
Mn288 O314 2.094 1_554 S
Mn289 O294 2.121 1_556 S
Mn289 N296 2.257 1_556 S
Mn289 N305 2.282 . S
Mn289 O313 2.215 1_556 S
Mn289 O315 2.117 . S
C290 O312 1.234 . S
C290 O313 1.283 . S
C291 O303 1.281 . S
C291 O304 1.236 . S
C292 O314 1.240 . S
C292 O315 1.264 . S
O293 Mn288 2.095 . S
O293 C302 1.250 . S
O294 Mn289 2.121 1_554 S
O294 C302 1.258 . S
C295 N296 1.326 . S
C295 C299 1.460 . S
C295 H301 0.929 . S
N296 Mn289 2.257 1_554 S
N296 C295 1.326 . S
N296 C300 1.362 1_554 S
C297 C298 1.232 1_556 S
C297 C300 1.443 . S
C297 C317 1.466 . S
C298 C297 1.232 1_554 S
C298 C299 1.477 . S
C298 H318 0.931 . S
C299 C295 1.460 . S
C299 C298 1.477 . S
C299 H319 0.930 . S
C300 N296 1.362 1_556 S
C300 C297 1.443 . S
C300 C310 1.476 . S
H301 C295 0.929 . S
C302 O293 1.250 . S
C302 O294 1.258 . S
O303 Mn288 2.162 . S
O303 C291 1.281 . S
O304 Mn288 2.297 . S
O304 C291 1.236 . S
N305 Mn289 2.282 . S
N305 C306 1.328 . S
N305 C310 1.318 . S
C306 N305 1.328 . S
C306 C307 1.457 . S
C306 H311 0.929 . S
C307 C306 1.457 . S
C307 C308 1.291 . S
C307 H320 0.931 . S
C308 C307 1.291 . S
C308 C309 1.373 . S
C308 H321 0.929 . S
C309 C308 1.373 . S
C309 C310 1.396 . S
C309 C316 1.403 . S
C310 C300 1.476 . S
C310 N305 1.318 . S
C310 C309 1.396 . S
H311 C306 0.929 . S
O312 Mn288 2.385 . S
O312 C290 1.234 . S
O313 Mn288 2.209 . S
O313 Mn289 2.215 1_554 S
O313 C290 1.283 . S
O314 Mn288 2.094 1_556 S
O314 C292 1.240 . S
O315 Mn289 2.117 . S
O315 C292 1.264 . S
C316 C309 1.403 . S
C316 C317 1.399 . S
C316 H322 0.929 . S
C317 C297 1.466 . S
C317 C316 1.399 . S
C317 H323 0.930 . S
H318 C298 0.931 . S
H319 C299 0.930 . S
H320 C307 0.931 . S
H321 C308 0.929 . S
H322 C316 0.929 . S
H323 C317 0.930 . S
Mn324 O329 2.095 . S
Mn324 O339 2.162 . S
Mn324 O340 2.297 . S
Mn324 O348 2.385 . S
Mn324 O349 2.209 . S
Mn324 O350 2.094 . S
Mn325 O330 2.121 . S
Mn325 N332 2.257 . S
Mn325 N341 2.282 . S
Mn325 O349 2.215 . S
Mn325 O351 2.117 . S
C326 O348 1.234 . S
C326 O349 1.283 . S
C327 O339 1.281 . S
C327 O340 1.236 . S
C328 O350 1.240 . S
C328 O351 1.264 . S
O329 Mn324 2.095 . S
O329 C338 1.250 . S
O330 Mn325 2.121 . S
O330 C338 1.258 . S
C331 N332 1.326 . S
C331 C335 1.460 . S
C331 H337 0.929 . S
N332 Mn325 2.257 . S
N332 C331 1.326 . S
N332 C336 1.362 . S
C333 C334 1.258 . S
C333 C336 1.431 . S
C333 C353 1.449 . S
C334 C333 1.258 . S
C334 C335 1.477 . S
C334 H354 0.931 . S
C335 C331 1.460 . S
C335 C334 1.477 . S
C335 H355 0.930 . S
C336 N332 1.362 . S
C336 C333 1.431 . S
C336 C346 1.476 . S
H337 C331 0.929 . S
C338 O329 1.250 . S
C338 O330 1.258 . S
O339 Mn324 2.162 . S
O339 C327 1.281 . S
O340 Mn324 2.297 . S
O340 C327 1.236 . S
N341 Mn325 2.282 . S
N341 C342 1.328 . S
N341 C346 1.318 . S
C342 N341 1.328 . S
C342 C343 1.457 . S
C342 H347 0.929 . S
C343 C342 1.457 . S
C343 C344 1.291 . S
C343 H356 0.931 . S
C344 C343 1.291 . S
C344 C345 1.373 . S
C344 H357 0.929 . S
C345 C344 1.373 . S
C345 C346 1.396 . S
C345 C352 1.403 . S
C346 C336 1.476 . S
C346 N341 1.318 . S
C346 C345 1.396 . S
H347 C342 0.929 . S
O348 Mn324 2.385 . S
O348 C326 1.234 . S
O349 Mn324 2.209 . S
O349 Mn325 2.215 . S
O349 C326 1.283 . S
O350 Mn324 2.094 . S
O350 C328 1.240 . S
O351 Mn325 2.117 . S
O351 C328 1.264 . S
C352 C345 1.403 . S
C352 C353 1.399 . S
C352 H358 0.929 . S
C353 C333 1.449 . S
C353 C352 1.399 . S
C353 H359 0.930 . S
H354 C334 0.931 . S
H355 C335 0.930 . S
H356 C343 0.931 . S
H357 C344 0.929 . S
H358 C352 0.929 . S
H359 C353 0.930 . S
Mn360 O365 2.095 . S
Mn360 O375 2.162 . S
Mn360 O376 2.297 . S
Mn360 O384 2.385 . S
Mn360 O385 2.209 . S
Mn360 O386 2.094 . S
Mn361 O366 2.121 . S
Mn361 N368 2.257 . S
Mn361 N377 2.282 . S
Mn361 O385 2.215 . S
Mn361 O387 2.117 . S
C362 O384 1.234 . S
C362 O385 1.283 . S
C363 O375 1.281 . S
C363 O376 1.236 . S
C364 O386 1.240 . S
C364 O387 1.264 . S
O365 Mn360 2.095 . S
O365 C374 1.250 . S
O366 Mn361 2.121 . S
O366 C374 1.258 . S
C367 N368 1.326 . S
C367 C371 1.460 . S
C367 H373 0.929 . S
N368 Mn361 2.257 . S
N368 C367 1.326 . S
N368 C372 1.362 . S
C369 C370 1.258 . S
C369 C372 1.431 . S
C369 C389 1.449 . S
C370 C369 1.258 . S
C370 C371 1.477 . S
C370 H390 0.931 . S
C371 C367 1.460 . S
C371 C370 1.477 . S
C371 H391 0.930 . S
C372 N368 1.362 . S
C372 C369 1.431 . S
C372 C382 1.476 . S
H373 C367 0.929 . S
C374 O365 1.250 . S
C374 O366 1.258 . S
O375 Mn360 2.162 . S
O375 C363 1.281 . S
O376 Mn360 2.297 . S
O376 C363 1.236 . S
N377 Mn361 2.282 . S
N377 C378 1.328 . S
N377 C382 1.318 . S
C378 N377 1.328 . S
C378 C379 1.457 . S
C378 H383 0.929 . S
C379 C378 1.457 . S
C379 C380 1.291 . S
C379 H392 0.931 . S
C380 C379 1.291 . S
C380 C381 1.373 . S
C380 H393 0.929 . S
C381 C380 1.373 . S
C381 C382 1.396 . S
C381 C388 1.403 . S
C382 C372 1.476 . S
C382 N377 1.318 . S
C382 C381 1.396 . S
H383 C378 0.929 . S
O384 Mn360 2.385 . S
O384 C362 1.234 . S
O385 Mn360 2.209 . S
O385 Mn361 2.215 . S
O385 C362 1.283 . S
O386 Mn360 2.094 . S
O386 C364 1.240 . S
O387 Mn361 2.117 . S
O387 C364 1.264 . S
C388 C381 1.403 . S
C388 C389 1.399 . S
C388 H394 0.929 . S
C389 C369 1.449 . S
C389 C388 1.399 . S
C389 H395 0.930 . S
H390 C370 0.931 . S
H391 C371 0.930 . S
H392 C379 0.931 . S
H393 C380 0.929 . S
H394 C388 0.929 . S
H395 C389 0.930 . S
Mn396 O401 2.095 . S
Mn396 O411 2.162 . S
Mn396 O412 2.297 . S
Mn396 O420 2.385 . S
Mn396 O421 2.209 . S
Mn396 O422 2.094 1_554 S
Mn397 O402 2.121 1_556 S
Mn397 N404 2.257 1_556 S
Mn397 N413 2.282 . S
Mn397 O421 2.215 1_556 S
Mn397 O423 2.117 . S
C398 O420 1.234 . S
C398 O421 1.283 . S
C399 O411 1.281 . S
C399 O412 1.236 . S
C400 O422 1.240 . S
C400 O423 1.264 . S
O401 Mn396 2.095 . S
O401 C410 1.250 . S
O402 Mn397 2.121 1_554 S
O402 C410 1.258 . S
C403 N404 1.326 . S
C403 C407 1.460 . S
C403 H409 0.929 . S
N404 Mn397 2.257 1_554 S
N404 C403 1.326 . S
N404 C408 1.362 1_554 S
C405 C406 1.232 1_556 S
C405 C408 1.443 . S
C405 C425 1.466 . S
C406 C405 1.232 1_554 S
C406 C407 1.477 . S
C406 H426 0.931 . S
C407 C403 1.460 . S
C407 C406 1.477 . S
C407 H427 0.930 . S
C408 N404 1.362 1_556 S
C408 C405 1.443 . S
C408 C418 1.476 . S
H409 C403 0.929 . S
C410 O401 1.250 . S
C410 O402 1.258 . S
O411 Mn396 2.162 . S
O411 C399 1.281 . S
O412 Mn396 2.297 . S
O412 C399 1.236 . S
N413 Mn397 2.282 . S
N413 C414 1.328 . S
N413 C418 1.318 . S
C414 N413 1.328 . S
C414 C415 1.457 . S
C414 H419 0.929 . S
C415 C414 1.457 . S
C415 C416 1.291 . S
C415 H428 0.931 . S
C416 C415 1.291 . S
C416 C417 1.373 . S
C416 H429 0.929 . S
C417 C416 1.373 . S
C417 C418 1.396 . S
C417 C424 1.403 . S
C418 C408 1.476 . S
C418 N413 1.318 . S
C418 C417 1.396 . S
H419 C414 0.929 . S
O420 Mn396 2.385 . S
O420 C398 1.234 . S
O421 Mn396 2.209 . S
O421 Mn397 2.215 1_554 S
O421 C398 1.283 . S
O422 Mn396 2.094 1_556 S
O422 C400 1.240 . S
O423 Mn397 2.117 . S
O423 C400 1.264 . S
C424 C417 1.403 . S
C424 C425 1.399 . S
C424 H430 0.929 . S
C425 C405 1.466 . S
C425 C424 1.399 . S
C425 H431 0.930 . S
H426 C406 0.931 . S
H427 C407 0.930 . S
H428 C415 0.931 . S
H429 C416 0.929 . S
H430 C424 0.929 . S
H431 C425 0.930 . S
H432 C440 0.929 . S
H433 C442 0.930 . S
H434 C444 0.930 . S
H435 C447 0.929 . S
H436 C450 0.930 . S
H437 C452 0.960 . S
H438 C452 0.960 . S
H439 C452 0.960 . S
C440 H432 0.929 . S
C440 C441 1.377 . S
C440 C442 1.384 . S
C441 C440 1.377 . S
C441 C447 1.390 . S
C442 H433 0.930 . S
C442 C440 1.384 . S
C442 C443 1.372 . S
C443 C442 1.372 . S
C443 C444 1.400 . S
C443 C448 1.490 . S
C444 H434 0.930 . S
C444 C443 1.400 . S
C444 C447 1.386 . S
H445 C461 0.930 . S
H446 C462 0.931 . S
C447 H435 0.929 . S
C447 C441 1.390 . S
C447 C444 1.386 . S
C448 C443 1.490 . S
C448 C450 1.395 . S
C448 C451 1.403 . S
H449 C455 0.930 . S
C450 H436 0.930 . S
C450 C448 1.395 . S
C450 C453 1.403 . S
C451 C448 1.403 . S
C451 C452 1.524 . S
C451 C455 1.400 . S
C452 H437 0.960 . S
C452 H438 0.960 . S
C452 H439 0.960 . S
C452 C451 1.524 . S
C453 C450 1.403 . S
C453 C454 1.392 . S
C453 C457 1.495 . S
C454 C453 1.392 . S
C454 C455 1.385 . S
C454 C456 1.478 . S
C455 H449 0.930 . S
C455 C451 1.400 . S
C455 C454 1.385 . S
C456 C454 1.478 . S
C456 C458 1.381 . S
C456 C462 1.383 . S
C457 C453 1.495 . S
C457 H463 0.959 . S
C457 H464 0.961 . S
C457 H465 0.960 . S
C458 C456 1.381 . S
C458 C459 1.394 . S
C458 H466 0.930 . S
C459 C458 1.394 . S
C459 C460 1.383 . S
C459 H467 0.929 . S
C460 C459 1.383 . S
C460 C461 1.377 . S
C461 H445 0.930 . S
C461 C460 1.377 . S
C461 C462 1.379 . S
C462 H446 0.931 . S
C462 C456 1.383 . S
C462 C461 1.379 . S
H463 C457 0.959 . S
H464 C457 0.961 . S
H465 C457 0.960 . S
H466 C458 0.930 . S
H467 C459 0.929 . S
H468 C476 0.929 . S
H469 C478 0.930 . S
H470 C480 0.930 . S
H471 C483 0.929 . S
H472 C486 0.930 . S
H473 C488 0.960 . S
H474 C488 0.960 . S
H475 C488 0.960 . S
C476 H468 0.929 . S
C476 C477 1.377 . S
C476 C478 1.384 . S
C477 C476 1.377 . S
C477 C483 1.390 . S
C478 H469 0.930 . S
C478 C476 1.384 . S
C478 C479 1.372 . S
C479 C478 1.372 . S
C479 C480 1.400 . S
C479 C484 1.490 . S
C480 H470 0.930 . S
C480 C479 1.400 . S
C480 C483 1.386 . S
H481 C497 0.930 . S
H482 C498 0.931 . S
C483 H471 0.929 . S
C483 C477 1.390 . S
C483 C480 1.386 . S
C484 C479 1.490 . S
C484 C486 1.395 . S
C484 C487 1.403 . S
H485 C491 0.930 . S
C486 H472 0.930 . S
C486 C484 1.395 . S
C486 C489 1.403 . S
C487 C484 1.403 . S
C487 C488 1.524 . S
C487 C491 1.400 . S
C488 H473 0.960 . S
C488 H474 0.960 . S
C488 H475 0.960 . S
C488 C487 1.524 . S
C489 C486 1.403 . S
C489 C490 1.392 . S
C489 C493 1.495 . S
C490 C489 1.392 . S
C490 C491 1.385 . S
C490 C492 1.478 . S
C491 H485 0.930 . S
C491 C487 1.400 . S
C491 C490 1.385 . S
C492 C490 1.478 . S
C492 C494 1.381 . S
C492 C498 1.383 . S
C493 C489 1.495 . S
C493 H499 0.959 . S
C493 H500 0.961 . S
C493 H501 0.960 . S
C494 C492 1.381 . S
C494 C495 1.394 . S
C494 H502 0.930 . S
C495 C494 1.394 . S
C495 C496 1.383 . S
C495 H503 0.929 . S
C496 C495 1.383 . S
C496 C497 1.377 . S
C497 H481 0.930 . S
C497 C496 1.377 . S
C497 C498 1.379 . S
C498 H482 0.931 . S
C498 C492 1.383 . S
C498 C497 1.379 . S
H499 C493 0.959 . S
H500 C493 0.961 . S
H501 C493 0.960 . S
H502 C494 0.930 . S
H503 C495 0.929 . S
H504 C512 0.929 . S
H505 C514 0.930 . S
H506 C516 0.930 . S
H507 C519 0.929 . S
H508 C522 0.930 . S
H509 C524 0.960 . S
H510 C524 0.960 . S
H511 C524 0.960 . S
C512 H504 0.929 . S
C512 C513 1.377 . S
C512 C514 1.384 . S
C513 C512 1.377 . S
C513 C519 1.390 . S
C514 H505 0.930 . S
C514 C512 1.384 . S
C514 C515 1.372 . S
C515 C514 1.372 . S
C515 C516 1.400 . S
C515 C520 1.490 . S
C516 H506 0.930 . S
C516 C515 1.400 . S
C516 C519 1.386 . S
H517 C533 0.930 . S
H518 C534 0.931 . S
C519 H507 0.929 . S
C519 C513 1.390 . S
C519 C516 1.386 . S
C520 C515 1.490 . S
C520 C522 1.395 . S
C520 C523 1.403 . S
H521 C527 0.930 . S
C522 H508 0.930 . S
C522 C520 1.395 . S
C522 C525 1.403 . S
C523 C520 1.403 . S
C523 C524 1.524 . S
C523 C527 1.400 . S
C524 H509 0.960 . S
C524 H510 0.960 . S
C524 H511 0.960 . S
C524 C523 1.524 . S
C525 C522 1.403 . S
C525 C526 1.392 . S
C525 C529 1.495 . S
C526 C525 1.392 . S
C526 C527 1.385 . S
C526 C528 1.478 . S
C527 H521 0.930 . S
C527 C523 1.400 . S
C527 C526 1.385 . S
C528 C526 1.478 . S
C528 C530 1.381 . S
C528 C534 1.383 . S
C529 C525 1.495 . S
C529 H535 0.959 . S
C529 H536 0.961 . S
C529 H537 0.960 . S
C530 C528 1.381 . S
C530 C531 1.394 . S
C530 H538 0.930 . S
C531 C530 1.394 . S
C531 C532 1.383 . S
C531 H539 0.929 . S
C532 C531 1.383 . S
C532 C533 1.377 . S
C533 H517 0.930 . S
C533 C532 1.377 . S
C533 C534 1.379 . S
C534 H518 0.931 . S
C534 C528 1.383 . S
C534 C533 1.379 . S
H535 C529 0.959 . S
H536 C529 0.961 . S
H537 C529 0.960 . S
H538 C530 0.930 . S
H539 C531 0.929 . S
H540 C548 0.929 . S
H541 C550 0.930 . S
H542 C552 0.930 . S
H543 C555 0.929 . S
H544 C558 0.930 . S
H545 C560 0.960 . S
H546 C560 0.960 . S
H547 C560 0.960 . S
C548 H540 0.929 . S
C548 C549 1.377 . S
C548 C550 1.384 . S
C549 C548 1.377 . S
C549 C555 1.390 . S
C550 H541 0.930 . S
C550 C548 1.384 . S
C550 C551 1.372 . S
C551 C550 1.372 . S
C551 C552 1.400 . S
C551 C556 1.490 . S
C552 H542 0.930 . S
C552 C551 1.400 . S
C552 C555 1.386 . S
H553 C569 0.930 . S
H554 C570 0.931 . S
C555 H543 0.929 . S
C555 C549 1.390 . S
C555 C552 1.386 . S
C556 C551 1.490 . S
C556 C558 1.395 . S
C556 C559 1.403 . S
H557 C563 0.930 . S
C558 H544 0.930 . S
C558 C556 1.395 . S
C558 C561 1.403 . S
C559 C556 1.403 . S
C559 C560 1.524 . S
C559 C563 1.400 . S
C560 H545 0.960 . S
C560 H546 0.960 . S
C560 H547 0.960 . S
C560 C559 1.524 . S
C561 C558 1.403 . S
C561 C562 1.392 . S
C561 C565 1.495 . S
C562 C561 1.392 . S
C562 C563 1.385 . S
C562 C564 1.478 . S
C563 H557 0.930 . S
C563 C559 1.400 . S
C563 C562 1.385 . S
C564 C562 1.478 . S
C564 C566 1.381 . S
C564 C570 1.383 . S
C565 C561 1.495 . S
C565 H571 0.959 . S
C565 H572 0.961 . S
C565 H573 0.960 . S
C566 C564 1.381 . S
C566 C567 1.394 . S
C566 H574 0.930 . S
C567 C566 1.394 . S
C567 C568 1.383 . S
C567 H575 0.929 . S
C568 C567 1.383 . S
C568 C569 1.377 . S
C569 H553 0.930 . S
C569 C568 1.377 . S
C569 C570 1.379 . S
C570 H554 0.931 . S
C570 C564 1.383 . S
C570 C569 1.379 . S
H571 C565 0.959 . S
H572 C565 0.961 . S
H573 C565 0.960 . S
H574 C566 0.930 . S
H575 C567 0.929 . S
H576 C584 0.929 . S
H577 C586 0.930 . S
H578 C588 0.930 . S
H579 C591 0.929 . S
H580 C594 0.930 . S
H581 C596 0.960 . S
H582 C596 0.960 . S
H583 C596 0.960 . S
C584 H576 0.929 . S
C584 C585 1.377 . S
C584 C586 1.384 . S
C585 C584 1.377 . S
C585 C591 1.390 . S
C586 H577 0.930 . S
C586 C584 1.384 . S
C586 C587 1.372 . S
C587 C586 1.372 . S
C587 C588 1.400 . S
C587 C592 1.490 . S
C588 H578 0.930 . S
C588 C587 1.400 . S
C588 C591 1.386 . S
H589 C605 0.930 . S
H590 C606 0.931 . S
C591 H579 0.929 . S
C591 C585 1.390 . S
C591 C588 1.386 . S
C592 C587 1.490 . S
C592 C594 1.395 . S
C592 C595 1.403 . S
H593 C599 0.930 . S
C594 H580 0.930 . S
C594 C592 1.395 . S
C594 C597 1.403 . S
C595 C592 1.403 . S
C595 C596 1.524 . S
C595 C599 1.400 . S
C596 H581 0.960 . S
C596 H582 0.960 . S
C596 H583 0.960 . S
C596 C595 1.524 . S
C597 C594 1.403 . S
C597 C598 1.392 . S
C597 C601 1.495 . S
C598 C597 1.392 . S
C598 C599 1.385 . S
C598 C600 1.478 . S
C599 H593 0.930 . S
C599 C595 1.400 . S
C599 C598 1.385 . S
C600 C598 1.478 . S
C600 C602 1.381 . S
C600 C606 1.383 . S
C601 C597 1.495 . S
C601 H607 0.959 . S
C601 H608 0.961 . S
C601 H609 0.960 . S
C602 C600 1.381 . S
C602 C603 1.394 . S
C602 H610 0.930 . S
C603 C602 1.394 . S
C603 C604 1.383 . S
C603 H611 0.929 . S
C604 C603 1.383 . S
C604 C605 1.377 . S
C605 H589 0.930 . S
C605 C604 1.377 . S
C605 C606 1.379 . S
C606 H590 0.931 . S
C606 C600 1.383 . S
C606 C605 1.379 . S
H607 C601 0.959 . S
H608 C601 0.961 . S
H609 C601 0.960 . S
H610 C602 0.930 . S
H611 C603 0.929 . S
H612 C620 0.929 . S
H613 C622 0.930 . S
H614 C624 0.930 . S
H615 C627 0.929 . S
H616 C630 0.930 . S
H617 C632 0.960 . S
H618 C632 0.960 . S
H619 C632 0.960 . S
C620 H612 0.929 . S
C620 C621 1.377 . S
C620 C622 1.384 . S
C621 C620 1.377 . S
C621 C627 1.390 . S
C622 H613 0.930 . S
C622 C620 1.384 . S
C622 C623 1.372 . S
C623 C622 1.372 . S
C623 C624 1.400 . S
C623 C628 1.490 . S
C624 H614 0.930 . S
C624 C623 1.400 . S
C624 C627 1.386 . S
H625 C641 0.930 . S
H626 C642 0.931 . S
C627 H615 0.929 . S
C627 C621 1.390 . S
C627 C624 1.386 . S
C628 C623 1.490 . S
C628 C630 1.395 . S
C628 C631 1.403 . S
H629 C635 0.930 . S
C630 H616 0.930 . S
C630 C628 1.395 . S
C630 C633 1.403 . S
C631 C628 1.403 . S
C631 C632 1.524 . S
C631 C635 1.400 . S
C632 H617 0.960 . S
C632 H618 0.960 . S
C632 H619 0.960 . S
C632 C631 1.524 . S
C633 C630 1.403 . S
C633 C634 1.392 . S
C633 C637 1.495 . S
C634 C633 1.392 . S
C634 C635 1.385 . S
C634 C636 1.478 . S
C635 H629 0.930 . S
C635 C631 1.400 . S
C635 C634 1.385 . S
C636 C634 1.478 . S
C636 C638 1.381 . S
C636 C642 1.383 . S
C637 C633 1.495 . S
C637 H643 0.959 . S
C637 H644 0.961 . S
C637 H645 0.960 . S
C638 C636 1.381 . S
C638 C639 1.394 . S
C638 H646 0.930 . S
C639 C638 1.394 . S
C639 C640 1.383 . S
C639 H647 0.929 . S
C640 C639 1.383 . S
C640 C641 1.377 . S
C641 H625 0.930 . S
C641 C640 1.377 . S
C641 C642 1.379 . S
C642 H626 0.931 . S
C642 C636 1.383 . S
C642 C641 1.379 . S
H643 C637 0.959 . S
H644 C637 0.961 . S
H645 C637 0.960 . S
H646 C638 0.930 . S
H647 C639 0.929 . S
H648 C656 0.929 . S
H649 C658 0.930 . S
H650 C660 0.930 . S
H651 C663 0.929 . S
H652 C666 0.930 . S
H653 C668 0.960 . S
H654 C668 0.960 . S
H655 C668 0.960 . S
C656 H648 0.929 . S
C656 C657 1.377 . S
C656 C658 1.384 . S
C657 C656 1.377 . S
C657 C663 1.390 . S
C658 H649 0.930 . S
C658 C656 1.384 . S
C658 C659 1.372 . S
C659 C658 1.372 . S
C659 C660 1.400 . S
C659 C664 1.490 . S
C660 H650 0.930 . S
C660 C659 1.400 . S
C660 C663 1.386 . S
H661 C677 0.930 . S
H662 C678 0.931 . S
C663 H651 0.929 . S
C663 C657 1.390 . S
C663 C660 1.386 . S
C664 C659 1.490 . S
C664 C666 1.395 . S
C664 C667 1.403 . S
H665 C671 0.930 . S
C666 H652 0.930 . S
C666 C664 1.395 . S
C666 C669 1.403 . S
C667 C664 1.403 . S
C667 C668 1.524 . S
C667 C671 1.400 . S
C668 H653 0.960 . S
C668 H654 0.960 . S
C668 H655 0.960 . S
C668 C667 1.524 . S
C669 C666 1.403 . S
C669 C670 1.392 . S
C669 C673 1.495 . S
C670 C669 1.392 . S
C670 C671 1.385 . S
C670 C672 1.478 . S
C671 H665 0.930 . S
C671 C667 1.400 . S
C671 C670 1.385 . S
C672 C670 1.478 . S
C672 C674 1.381 . S
C672 C678 1.383 . S
C673 C669 1.495 . S
C673 H679 0.959 . S
C673 H680 0.961 . S
C673 H681 0.960 . S
C674 C672 1.381 . S
C674 C675 1.394 . S
C674 H682 0.930 . S
C675 C674 1.394 . S
C675 C676 1.383 . S
C675 H683 0.929 . S
C676 C675 1.383 . S
C676 C677 1.377 . S
C677 H661 0.930 . S
C677 C676 1.377 . S
C677 C678 1.379 . S
C678 H662 0.931 . S
C678 C672 1.383 . S
C678 C677 1.379 . S
H679 C673 0.959 . S
H680 C673 0.961 . S
H681 C673 0.960 . S
H682 C674 0.930 . S
H683 C675 0.929 . S
H684 C692 0.929 . S
H685 C694 0.930 . S
H686 C696 0.930 . S
H687 C699 0.929 . S
H688 C702 0.930 . S
H689 C704 0.960 . S
H690 C704 0.960 . S
H691 C704 0.960 . S
C692 H684 0.929 . S
C692 C693 1.377 . S
C692 C694 1.384 . S
C693 C692 1.377 . S
C693 C699 1.390 . S
C694 H685 0.930 . S
C694 C692 1.384 . S
C694 C695 1.372 . S
C695 C694 1.372 . S
C695 C696 1.400 . S
C695 C700 1.490 . S
C696 H686 0.930 . S
C696 C695 1.400 . S
C696 C699 1.386 . S
H697 C713 0.930 . S
H698 C714 0.931 . S
C699 H687 0.929 . S
C699 C693 1.390 . S
C699 C696 1.386 . S
C700 C695 1.490 . S
C700 C702 1.395 . S
C700 C703 1.403 . S
H701 C707 0.930 . S
C702 H688 0.930 . S
C702 C700 1.395 . S
C702 C705 1.403 . S
C703 C700 1.403 . S
C703 C704 1.524 . S
C703 C707 1.400 . S
C704 H689 0.960 . S
C704 H690 0.960 . S
C704 H691 0.960 . S
C704 C703 1.524 . S
C705 C702 1.403 . S
C705 C706 1.392 . S
C705 C709 1.495 . S
C706 C705 1.392 . S
C706 C707 1.385 . S
C706 C708 1.478 . S
C707 H701 0.930 . S
C707 C703 1.400 . S
C707 C706 1.385 . S
C708 C706 1.478 . S
C708 C710 1.381 . S
C708 C714 1.383 . S
C709 C705 1.495 . S
C709 H715 0.959 . S
C709 H716 0.961 . S
C709 H717 0.960 . S
C710 C708 1.381 . S
C710 C711 1.394 . S
C710 H718 0.930 . S
C711 C710 1.394 . S
C711 C712 1.383 . S
C711 H719 0.929 . S
C712 C711 1.383 . S
C712 C713 1.377 . S
C713 H697 0.930 . S
C713 C712 1.377 . S
C713 C714 1.379 . S
C714 H698 0.931 . S
C714 C708 1.383 . S
C714 C713 1.379 . S
H715 C709 0.959 . S
H716 C709 0.961 . S
H717 C709 0.960 . S
H718 C710 0.930 . S
H719 C711 0.929 . S
H720 C728 0.929 . S
H721 C730 0.930 . S
H722 C732 0.952 . S
H723 C735 0.929 1_556 S
H724 C738 0.930 . S
H725 C740 0.960 . S
H726 C740 0.960 . S
H727 C740 0.960 . S
C728 H720 0.929 . S
C728 C729 1.377 . S
C728 C730 1.384 . S
C729 C728 1.377 . S
C729 C735 1.390 . S
C730 H721 0.930 . S
C730 C728 1.384 . S
C730 C731 1.372 . S
C731 C730 1.372 . S
C731 C732 1.385 1_554 S
C731 C736 1.490 . S
C732 H722 0.952 . S
C732 C731 1.385 1_556 S
C732 C735 1.380 1_556 S
H733 C749 0.930 . S
H734 C750 0.931 . S
C735 H723 0.929 1_554 S
C735 C729 1.390 . S
C735 C732 1.380 1_554 S
C736 C731 1.490 . S
C736 C738 1.395 . S
C736 C739 1.403 1_554 S
H737 C743 0.930 . S
C738 H724 0.930 . S
C738 C736 1.395 . S
C738 C741 1.403 . S
C739 C736 1.403 1_556 S
C739 C740 1.524 . S
C739 C743 1.400 . S
C740 H725 0.960 . S
C740 H726 0.960 . S
C740 H727 0.960 . S
C740 C739 1.524 . S
C741 C738 1.403 . S
C741 C742 1.392 . S
C741 C745 1.495 . S
C742 C741 1.392 . S
C742 C743 1.385 1_554 S
C742 C744 1.478 1_554 S
C743 H737 0.930 . S
C743 C739 1.400 . S
C743 C742 1.385 1_556 S
C744 C742 1.478 1_556 S
C744 C746 1.381 1_556 S
C744 C750 1.383 . S
C745 C741 1.495 . S
C745 H751 0.959 . S
C745 H752 0.961 . S
C745 H753 0.960 . S
C746 C744 1.381 1_554 S
C746 C747 1.394 1_554 S
C746 H754 0.930 . S
C747 C746 1.394 1_556 S
C747 C748 1.383 . S
C747 H755 0.929 1_556 S
C748 C747 1.383 . S
C748 C749 1.377 . S
C749 H733 0.930 . S
C749 C748 1.377 . S
C749 C750 1.379 . S
C750 H734 0.931 . S
C750 C744 1.383 . S
C750 C749 1.379 . S
H751 C745 0.959 . S
H752 C745 0.961 . S
H753 C745 0.960 . S
H754 C746 0.930 . S
H755 C747 0.929 1_554 S
H756 C764 0.929 . S
H757 C766 0.930 . S
H758 C768 0.930 . S
H759 C771 0.929 . S
H760 C774 0.930 . S
H761 C776 0.960 . S
H762 C776 0.960 . S
H763 C776 0.960 . S
C764 H756 0.929 . S
C764 C765 1.377 . S
C764 C766 1.384 . S
C765 C764 1.377 . S
C765 C771 1.390 . S
C766 H757 0.930 . S
C766 C764 1.384 . S
C766 C767 1.372 . S
C767 C766 1.372 . S
C767 C768 1.400 . S
C767 C772 1.490 . S
C768 H758 0.930 . S
C768 C767 1.400 . S
C768 C771 1.386 . S
H769 C785 0.930 . S
H770 C786 0.931 . S
C771 H759 0.929 . S
C771 C765 1.390 . S
C771 C768 1.386 . S
C772 C767 1.490 . S
C772 C774 1.395 . S
C772 C775 1.403 . S
H773 C779 0.930 . S
C774 H760 0.930 . S
C774 C772 1.395 . S
C774 C777 1.403 . S
C775 C772 1.403 . S
C775 C776 1.524 . S
C775 C779 1.400 . S
C776 H761 0.960 . S
C776 H762 0.960 . S
C776 H763 0.960 . S
C776 C775 1.524 . S
C777 C774 1.403 . S
C777 C778 1.392 . S
C777 C781 1.495 . S
C778 C777 1.392 . S
C778 C779 1.385 . S
C778 C780 1.478 . S
C779 H773 0.930 . S
C779 C775 1.400 . S
C779 C778 1.385 . S
C780 C778 1.478 . S
C780 C782 1.381 . S
C780 C786 1.383 . S
C781 C777 1.495 . S
C781 H787 0.959 . S
C781 H788 0.961 . S
C781 H789 0.960 . S
C782 C780 1.381 . S
C782 C783 1.394 . S
C782 H790 0.930 . S
C783 C782 1.394 . S
C783 C784 1.383 . S
C783 H791 0.929 . S
C784 C783 1.383 . S
C784 C785 1.377 . S
C785 H769 0.930 . S
C785 C784 1.377 . S
C785 C786 1.379 . S
C786 H770 0.931 . S
C786 C780 1.383 . S
C786 C785 1.379 . S
H787 C781 0.959 . S
H788 C781 0.961 . S
H789 C781 0.960 . S
H790 C782 0.930 . S
H791 C783 0.929 . S
H792 C800 0.929 . S
H793 C802 0.930 . S
H794 C804 0.930 . S
H795 C807 0.929 . S
H796 C810 0.930 . S
H797 C812 0.960 . S
H798 C812 0.960 . S
H799 C812 0.960 . S
C800 H792 0.929 . S
C800 C801 1.377 . S
C800 C802 1.384 . S
C801 C800 1.377 . S
C801 C807 1.390 . S
C802 H793 0.930 . S
C802 C800 1.384 . S
C802 C803 1.372 . S
C803 C802 1.372 . S
C803 C804 1.400 . S
C803 C808 1.490 . S
C804 H794 0.930 . S
C804 C803 1.400 . S
C804 C807 1.386 . S
H805 C821 0.930 . S
H806 C822 0.931 . S
C807 H795 0.929 . S
C807 C801 1.390 . S
C807 C804 1.386 . S
C808 C803 1.490 . S
C808 C810 1.395 . S
C808 C811 1.403 . S
H809 C815 0.930 . S
C810 H796 0.930 . S
C810 C808 1.395 . S
C810 C813 1.403 . S
C811 C808 1.403 . S
C811 C812 1.524 . S
C811 C815 1.400 . S
C812 H797 0.960 . S
C812 H798 0.960 . S
C812 H799 0.960 . S
C812 C811 1.524 . S
C813 C810 1.403 . S
C813 C814 1.392 . S
C813 C817 1.495 . S
C814 C813 1.392 . S
C814 C815 1.385 . S
C814 C816 1.478 . S
C815 H809 0.930 . S
C815 C811 1.400 . S
C815 C814 1.385 . S
C816 C814 1.478 . S
C816 C818 1.381 . S
C816 C822 1.383 . S
C817 C813 1.495 . S
C817 H823 0.959 . S
C817 H824 0.961 . S
C817 H825 0.960 . S
C818 C816 1.381 . S
C818 C819 1.394 . S
C818 H826 0.930 . S
C819 C818 1.394 . S
C819 C820 1.383 . S
C819 H827 0.929 . S
C820 C819 1.383 . S
C820 C821 1.377 . S
C821 H805 0.930 . S
C821 C820 1.377 . S
C821 C822 1.379 . S
C822 H806 0.931 . S
C822 C816 1.383 . S
C822 C821 1.379 . S
H823 C817 0.959 . S
H824 C817 0.961 . S
H825 C817 0.960 . S
H826 C818 0.930 . S
H827 C819 0.929 . S
H828 C836 0.929 . S
H829 C838 0.930 . S
H830 C840 0.930 . S
H831 C843 0.927 1_554 S
H832 C846 0.930 . S
H833 C848 0.960 . S
H834 C848 0.960 . S
H835 C848 0.960 . S
C836 H828 0.929 . S
C836 C837 1.377 . S
C836 C838 1.384 . S
C837 C836 1.377 . S
C837 C843 1.392 . S
C838 H829 0.930 . S
C838 C836 1.384 . S
C838 C839 1.372 . S
C839 C838 1.372 . S
C839 C840 1.400 1_556 S
C839 C844 1.490 . S
C840 H830 0.930 . S
C840 C839 1.400 1_554 S
C840 C843 1.385 1_554 S
H841 C857 0.930 . S
H842 C858 0.931 . S
C843 H831 0.927 1_556 S
C843 C837 1.392 . S
C843 C840 1.385 1_556 S
C844 C839 1.490 . S
C844 C846 1.395 1_556 S
C844 C847 1.403 . S
H845 C851 0.930 . S
C846 H832 0.930 . S
C846 C844 1.395 1_554 S
C846 C849 1.403 . S
C847 C844 1.403 . S
C847 C848 1.524 . S
C847 C851 1.400 . S
C848 H833 0.960 . S
C848 H834 0.960 . S
C848 H835 0.960 . S
C848 C847 1.524 . S
C849 C846 1.403 . S
C849 C850 1.392 . S
C849 C853 1.495 . S
C850 C849 1.392 . S
C850 C851 1.385 1_554 S
C850 C852 1.478 . S
C851 H845 0.930 . S
C851 C847 1.400 . S
C851 C850 1.385 1_556 S
C852 C850 1.478 . S
C852 C854 1.381 1_554 S
C852 C858 1.383 . S
C853 C849 1.495 . S
C853 H859 0.959 . S
C853 H860 0.961 . S
C853 H861 0.960 . S
C854 C852 1.381 1_556 S
C854 C855 1.392 1_556 S
C854 H862 0.930 . S
C855 C854 1.392 1_554 S
C855 C856 1.395 . S
C855 H863 0.920 1_554 S
C856 C855 1.395 . S
C856 C857 1.377 . S
C857 H841 0.930 . S
C857 C856 1.377 . S
C857 C858 1.379 . S
C858 H842 0.931 . S
C858 C852 1.383 . S
C858 C857 1.379 . S
H859 C853 0.959 . S
H860 C853 0.961 . S
H861 C853 0.960 . S
H862 C854 0.930 . S
H863 C855 0.920 1_556 S
H864 C872 0.929 . S
H865 C874 0.930 . S
H866 C876 0.930 . S
H867 C879 0.929 . S
H868 C882 0.930 . S
H869 C884 0.960 . S
H870 C884 0.960 . S
H871 C884 0.960 . S
C872 H864 0.929 . S
C872 C873 1.377 . S
C872 C874 1.384 . S
C873 C872 1.377 . S
C873 C879 1.390 . S
C874 H865 0.930 . S
C874 C872 1.384 . S
C874 C875 1.372 . S
C875 C874 1.372 . S
C875 C876 1.400 . S
C875 C880 1.490 . S
C876 H866 0.930 . S
C876 C875 1.400 . S
C876 C879 1.386 . S
H877 C893 0.930 . S
H878 C894 0.931 . S
C879 H867 0.929 . S
C879 C873 1.390 . S
C879 C876 1.386 . S
C880 C875 1.490 . S
C880 C882 1.395 . S
C880 C883 1.403 . S
H881 C887 0.930 . S
C882 H868 0.930 . S
C882 C880 1.395 . S
C882 C885 1.403 1_545 S
C883 C880 1.403 . S
C883 C884 1.524 . S
C883 C887 1.400 1_545 S
C884 H869 0.960 . S
C884 H870 0.960 . S
C884 H871 0.960 . S
C884 C883 1.524 . S
C885 C882 1.403 1_565 S
C885 C886 1.392 . S
C885 C889 1.495 . S
C886 C885 1.392 . S
C886 C887 1.385 . S
C886 C888 1.478 . S
C887 H881 0.930 . S
C887 C883 1.400 1_565 S
C887 C886 1.385 . S
C888 C886 1.478 . S
C888 C890 1.381 . S
C888 C894 1.383 . S
C889 C885 1.495 . S
C889 H895 0.959 . S
C889 H896 0.961 . S
C889 H897 0.960 . S
C890 C888 1.381 . S
C890 C891 1.394 . S
C890 H898 0.930 . S
C891 C890 1.394 . S
C891 C892 1.383 . S
C891 H899 0.929 . S
C892 C891 1.383 . S
C892 C893 1.377 . S
C893 H877 0.930 . S
C893 C892 1.377 . S
C893 C894 1.379 . S
C894 H878 0.931 . S
C894 C888 1.383 . S
C894 C893 1.379 . S
H895 C889 0.959 . S
H896 C889 0.961 . S
H897 C889 0.960 . S
H898 C890 0.930 . S
H899 C891 0.929 . S
H900 C908 0.929 . S
H901 C910 0.930 . S
H902 C912 0.930 . S
H903 C915 0.929 . S
H904 C918 0.930 . S
H905 C920 0.960 . S
H906 C920 0.960 . S
H907 C920 0.960 . S
C908 H900 0.929 . S
C908 C909 1.377 . S
C908 C910 1.384 . S
C909 C908 1.377 . S
C909 C915 1.390 . S
C910 H901 0.930 . S
C910 C908 1.384 . S
C910 C911 1.372 . S
C911 C910 1.372 . S
C911 C912 1.400 . S
C911 C916 1.490 . S
C912 H902 0.930 . S
C912 C911 1.400 . S
C912 C915 1.386 . S
H913 C929 0.930 . S
H914 C930 0.931 . S
C915 H903 0.929 . S
C915 C909 1.390 . S
C915 C912 1.386 . S
C916 C911 1.490 . S
C916 C918 1.395 . S
C916 C919 1.403 . S
H917 C923 0.930 . S
C918 H904 0.930 . S
C918 C916 1.395 . S
C918 C921 1.403 . S
C919 C916 1.403 . S
C919 C920 1.524 . S
C919 C923 1.400 . S
C920 H905 0.960 . S
C920 H906 0.960 . S
C920 H907 0.960 . S
C920 C919 1.524 . S
C921 C918 1.403 . S
C921 C922 1.392 . S
C921 C925 1.495 . S
C922 C921 1.392 . S
C922 C923 1.385 . S
C922 C924 1.478 . S
C923 H917 0.930 . S
C923 C919 1.400 . S
C923 C922 1.385 . S
C924 C922 1.478 . S
C924 C926 1.381 . S
C924 C930 1.383 . S
C925 C921 1.495 . S
C925 H931 0.959 . S
C925 H932 0.961 . S
C925 H933 0.960 . S
C926 C924 1.381 . S
C926 C927 1.394 . S
C926 H934 0.930 . S
C927 C926 1.394 . S
C927 C928 1.383 . S
C927 H935 0.929 . S
C928 C927 1.383 . S
C928 C929 1.377 . S
C929 H913 0.930 . S
C929 C928 1.377 . S
C929 C930 1.379 . S
C930 H914 0.931 . S
C930 C924 1.383 . S
C930 C929 1.379 . S
H931 C925 0.959 . S
H932 C925 0.961 . S
H933 C925 0.960 . S
H934 C926 0.930 . S
H935 C927 0.929 . S
H936 C944 0.929 . S
H937 C946 0.930 . S
H938 C948 0.953 . S
H939 C951 0.927 1_554 S
H940 C954 0.930 . S
H941 C956 0.960 1_455 S
H942 C956 0.960 . S
H943 C956 0.960 . S
C944 H936 0.929 . S
C944 C945 1.377 . S
C944 C946 1.384 . S
C945 C944 1.377 . S
C945 C951 1.390 . S
C946 H937 0.930 . S
C946 C944 1.384 . S
C946 C947 1.372 . S
C947 C946 1.372 . S
C947 C948 1.400 . S
C947 C952 1.490 . S
C948 H938 0.953 . S
C948 C947 1.400 . S
C948 C951 1.386 . S
H949 C965 0.930 1_554 S
H950 C966 0.931 1_554 S
C951 H939 0.927 1_556 S
C951 C945 1.390 . S
C951 C948 1.386 . S
C952 C947 1.490 . S
C952 C954 1.395 . S
C952 C955 1.403 . S
H953 C959 0.930 . S
C954 H940 0.930 . S
C954 C952 1.395 . S
C954 C957 1.403 1_655 S
C955 C952 1.403 . S
C955 C956 1.524 . S
C955 C959 1.400 1_655 S
C956 H941 0.960 1_655 S
C956 H942 0.960 . S
C956 H943 0.960 . S
C956 C955 1.524 . S
C957 C954 1.403 1_455 S
C957 C958 1.392 . S
C957 C961 1.495 . S
C958 C957 1.392 . S
C958 C959 1.385 . S
C958 C960 1.478 . S
C959 H953 0.930 . S
C959 C955 1.400 1_455 S
C959 C958 1.385 . S
C960 C958 1.478 . S
C960 C962 1.381 . S
C960 C966 1.383 . S
C961 C957 1.495 . S
C961 H967 0.959 1_455 S
C961 H968 0.961 1_556 S
C961 H969 0.960 . S
C962 C960 1.381 . S
C962 C963 1.394 . S
C962 H970 0.930 . S
C963 C962 1.394 . S
C963 C964 1.383 . S
C963 H971 0.929 . S
C964 C963 1.383 . S
C964 C965 1.377 . S
C965 H949 0.930 1_556 S
C965 C964 1.377 . S
C965 C966 1.379 . S
C966 H950 0.931 1_556 S
C966 C960 1.383 . S
C966 C965 1.379 . S
H967 C961 0.959 1_655 S
H968 C961 0.961 1_554 S
H969 C961 0.960 . S
H970 C962 0.930 . S
H971 C963 0.929 . S
H972 C980 0.929 . S
H973 C982 0.930 . S
H974 C984 0.930 . S
H975 C987 0.929 . S
H976 C990 0.930 . S
H977 C992 0.960 1_655 S
H978 C992 0.960 . S
H979 C992 0.960 . S
C980 H972 0.929 . S
C980 C981 1.377 . S
C980 C982 1.384 . S
C981 C980 1.377 . S
C981 C987 1.390 . S
C982 H973 0.930 . S
C982 C980 1.384 . S
C982 C983 1.372 . S
C983 C982 1.372 . S
C983 C984 1.400 . S
C983 C988 1.490 . S
C984 H974 0.930 . S
C984 C983 1.400 . S
C984 C987 1.386 . S
H985 C1001 0.930 . S
H986 C1002 0.931 . S
C987 H975 0.929 . S
C987 C981 1.390 . S
C987 C984 1.386 . S
C988 C983 1.490 . S
C988 C990 1.395 . S
C988 C991 1.403 . S
H989 C995 0.930 . S
C990 H976 0.930 . S
C990 C988 1.395 . S
C990 C993 1.403 1_455 S
C991 C988 1.403 . S
C991 C992 1.524 . S
C991 C995 1.400 1_455 S
C992 H977 0.960 1_455 S
C992 H978 0.960 . S
C992 H979 0.960 . S
C992 C991 1.524 . S
C993 C990 1.403 1_655 S
C993 C994 1.392 . S
C993 C997 1.495 . S
C994 C993 1.392 . S
C994 C995 1.385 . S
C994 C996 1.478 . S
C995 H989 0.930 . S
C995 C991 1.400 1_655 S
C995 C994 1.385 . S
C996 C994 1.478 . S
C996 C998 1.381 . S
C996 C1002 1.383 . S
C997 C993 1.495 . S
C997 H1003 0.959 1_655 S
C997 H1004 0.961 . S
C997 H1005 0.960 . S
C998 C996 1.381 . S
C998 C999 1.394 . S
C998 H1006 0.930 . S
C999 C998 1.394 . S
C999 C1000 1.383 . S
C999 H1007 0.929 . S
C1000 C999 1.383 . S
C1000 C1001 1.377 . S
C1001 H985 0.930 . S
C1001 C1000 1.377 . S
C1001 C1002 1.379 . S
C1002 H986 0.931 . S
C1002 C996 1.383 . S
C1002 C1001 1.379 . S
H1003 C997 0.959 1_455 S
H1004 C997 0.961 . S
H1005 C997 0.960 . S
H1006 C998 0.930 . S
H1007 C999 0.929 . S
H1008 C1016 0.929 . S
H1009 C1018 0.930 . S
H1010 C1020 0.930 . S
H1011 C1023 0.929 . S
H1012 C1026 0.930 . S
H1013 C1028 0.960 1_565 S
H1014 C1028 0.960 . S
H1015 C1028 0.960 . S
C1016 H1008 0.929 . S
C1016 C1017 1.377 . S
C1016 C1018 1.384 . S
C1017 C1016 1.377 . S
C1017 C1023 1.390 . S
C1018 H1009 0.930 . S
C1018 C1016 1.384 . S
C1018 C1019 1.372 . S
C1019 C1018 1.372 . S
C1019 C1020 1.400 . S
C1019 C1024 1.490 . S
C1020 H1010 0.930 . S
C1020 C1019 1.400 . S
C1020 C1023 1.386 . S
H1021 C1037 0.930 . S
H1022 C1038 0.931 . S
C1023 H1011 0.929 . S
C1023 C1017 1.390 . S
C1023 C1020 1.386 . S
C1024 C1019 1.490 . S
C1024 C1026 1.395 . S
C1024 C1027 1.403 . S
H1025 C1031 0.930 . S
C1026 H1012 0.930 . S
C1026 C1024 1.395 . S
C1026 C1029 1.403 1_545 S
C1027 C1024 1.403 . S
C1027 C1028 1.524 . S
C1027 C1031 1.400 1_545 S
C1028 H1013 0.960 1_545 S
C1028 H1014 0.960 . S
C1028 H1015 0.960 . S
C1028 C1027 1.524 . S
C1029 C1026 1.403 1_565 S
C1029 C1030 1.392 . S
C1029 C1033 1.495 . S
C1030 C1029 1.392 . S
C1030 C1031 1.385 . S
C1030 C1032 1.478 . S
C1031 H1025 0.930 . S
C1031 C1027 1.400 1_565 S
C1031 C1030 1.385 . S
C1032 C1030 1.478 . S
C1032 C1034 1.381 . S
C1032 C1038 1.383 . S
C1033 C1029 1.495 . S
C1033 H1039 0.954 1_565 S
C1033 H1040 0.961 . S
C1033 H1041 0.960 . S
C1034 C1032 1.381 . S
C1034 C1035 1.394 . S
C1034 H1042 0.930 . S
C1035 C1034 1.394 . S
C1035 C1036 1.383 . S
C1035 H1043 0.929 . S
C1036 C1035 1.383 . S
C1036 C1037 1.377 . S
C1037 H1021 0.930 . S
C1037 C1036 1.377 . S
C1037 C1038 1.379 . S
C1038 H1022 0.931 . S
C1038 C1032 1.383 . S
C1038 C1037 1.379 . S
H1039 C1033 0.954 1_545 S
H1040 C1033 0.961 . S
H1041 C1033 0.960 . S
H1042 C1034 0.930 . S
H1043 C1035 0.929 . S
H1044 C1052 0.929 1_556 S
H1045 C1054 0.930 1_556 S
H1046 C1056 0.930 . S
H1047 C1059 0.929 . S
H1048 C1062 0.930 1_556 S
H1049 C1064 0.960 . S
H1050 C1064 0.960 . S
H1051 C1064 0.960 . S
C1052 H1044 0.929 1_554 S
C1052 C1053 1.377 . S
C1052 C1054 1.384 . S
C1053 C1052 1.377 . S
C1053 C1059 1.390 . S
C1054 H1045 0.930 1_554 S
C1054 C1052 1.384 . S
C1054 C1055 1.372 . S
C1055 C1054 1.372 . S
C1055 C1056 1.400 . S
C1055 C1060 1.490 . S
C1056 H1046 0.930 . S
C1056 C1055 1.400 . S
C1056 C1059 1.386 . S
H1057 C1073 0.930 . S
H1058 C1074 0.931 . S
C1059 H1047 0.929 . S
C1059 C1053 1.390 . S
C1059 C1056 1.386 . S
C1060 C1055 1.490 . S
C1060 C1062 1.395 . S
C1060 C1063 1.403 . S
H1061 C1067 0.930 . S
C1062 H1048 0.930 1_554 S
C1062 C1060 1.395 . S
C1062 C1065 1.403 . S
C1063 C1060 1.403 . S
C1063 C1064 1.524 . S
C1063 C1067 1.400 . S
C1064 H1049 0.960 . S
C1064 H1050 0.960 . S
C1064 H1051 0.960 . S
C1064 C1063 1.524 . S
C1065 C1062 1.403 . S
C1065 C1066 1.392 . S
C1065 C1069 1.495 1_554 S
C1066 C1065 1.392 . S
C1066 C1067 1.385 . S
C1066 C1068 1.478 . S
C1067 H1061 0.930 . S
C1067 C1063 1.400 . S
C1067 C1066 1.385 . S
C1068 C1066 1.478 . S
C1068 C1070 1.381 . S
C1068 C1074 1.383 . S
C1069 C1065 1.495 1_556 S
C1069 H1075 0.959 . S
C1069 H1076 0.961 . S
C1069 H1077 0.960 . S
C1070 C1068 1.381 . S
C1070 C1071 1.394 . S
C1070 H1078 0.930 1_554 S
C1071 C1070 1.394 . S
C1071 C1072 1.383 . S
C1071 H1079 0.929 1_554 S
C1072 C1071 1.383 . S
C1072 C1073 1.377 . S
C1073 H1057 0.930 . S
C1073 C1072 1.377 . S
C1073 C1074 1.379 . S
C1074 H1058 0.931 . S
C1074 C1068 1.383 . S
C1074 C1073 1.379 . S
H1075 C1069 0.959 . S
H1076 C1069 0.961 . S
H1077 C1069 0.960 . S
H1078 C1070 0.930 1_556 S
H1079 C1071 0.929 1_556 S
H1080 C1088 0.929 . S
H1081 C1090 0.930 . S
H1082 C1092 0.930 . S
H1083 C1095 0.929 . S
H1084 C1098 0.930 . S
H1085 C1100 0.960 . S
H1086 C1100 0.960 . S
H1087 C1100 0.960 . S
C1088 H1080 0.929 . S
C1088 C1089 1.377 . S
C1088 C1090 1.384 . S
C1089 C1088 1.377 . S
C1089 C1095 1.390 . S
C1090 H1081 0.930 . S
C1090 C1088 1.384 . S
C1090 C1091 1.372 . S
C1091 C1090 1.372 . S
C1091 C1092 1.400 . S
C1091 C1096 1.490 . S
C1092 H1082 0.930 . S
C1092 C1091 1.400 . S
C1092 C1095 1.386 . S
H1093 C1109 0.930 . S
H1094 C1110 0.931 . S
C1095 H1083 0.929 . S
C1095 C1089 1.390 . S
C1095 C1092 1.386 . S
C1096 C1091 1.490 . S
C1096 C1098 1.395 . S
C1096 C1099 1.403 . S
H1097 C1103 0.930 . S
C1098 H1084 0.930 . S
C1098 C1096 1.395 . S
C1098 C1101 1.403 . S
C1099 C1096 1.403 . S
C1099 C1100 1.524 . S
C1099 C1103 1.400 . S
C1100 H1085 0.960 . S
C1100 H1086 0.960 . S
C1100 H1087 0.960 . S
C1100 C1099 1.524 . S
C1101 C1098 1.403 . S
C1101 C1102 1.392 . S
C1101 C1105 1.495 . S
C1102 C1101 1.392 . S
C1102 C1103 1.385 . S
C1102 C1104 1.478 . S
C1103 H1097 0.930 . S
C1103 C1099 1.400 . S
C1103 C1102 1.385 . S
C1104 C1102 1.478 . S
C1104 C1106 1.381 . S
C1104 C1110 1.383 . S
C1105 C1101 1.495 . S
C1105 H1111 0.959 . S
C1105 H1112 0.961 . S
C1105 H1113 0.960 . S
C1106 C1104 1.381 . S
C1106 C1107 1.394 . S
C1106 H1114 0.930 . S
C1107 C1106 1.394 . S
C1107 C1108 1.383 . S
C1107 H1115 0.929 . S
C1108 C1107 1.383 . S
C1108 C1109 1.377 . S
C1109 H1093 0.930 . S
C1109 C1108 1.377 . S
C1109 C1110 1.379 . S
C1110 H1094 0.931 . S
C1110 C1104 1.383 . S
C1110 C1109 1.379 . S
H1111 C1105 0.959 . S
H1112 C1105 0.961 . S
H1113 C1105 0.960 . S
H1114 C1106 0.930 . S
H1115 C1107 0.929 . S
H1116 C1124 0.929 . S
H1117 C1126 0.930 . S
H1118 C1128 0.930 . S
H1119 C1131 0.929 . S
H1120 C1134 0.930 . S
H1121 C1136 0.960 . S
H1122 C1136 0.960 . S
H1123 C1136 0.960 . S
C1124 H1116 0.929 . S
C1124 C1125 1.377 . S
C1124 C1126 1.384 . S
C1125 C1124 1.377 . S
C1125 C1131 1.390 . S
C1126 H1117 0.930 . S
C1126 C1124 1.384 . S
C1126 C1127 1.372 . S
C1127 C1126 1.372 . S
C1127 C1128 1.400 . S
C1127 C1132 1.490 . S
C1128 H1118 0.930 . S
C1128 C1127 1.400 . S
C1128 C1131 1.386 . S
H1129 C1145 0.930 . S
H1130 C1146 0.931 . S
C1131 H1119 0.929 . S
C1131 C1125 1.390 . S
C1131 C1128 1.386 . S
C1132 C1127 1.490 . S
C1132 C1134 1.395 . S
C1132 C1135 1.403 . S
H1133 C1139 0.930 . S
C1134 H1120 0.930 . S
C1134 C1132 1.395 . S
C1134 C1137 1.403 . S
C1135 C1132 1.403 . S
C1135 C1136 1.524 . S
C1135 C1139 1.400 . S
C1136 H1121 0.960 . S
C1136 H1122 0.960 . S
C1136 H1123 0.960 . S
C1136 C1135 1.524 . S
C1137 C1134 1.403 . S
C1137 C1138 1.392 . S
C1137 C1141 1.495 . S
C1138 C1137 1.392 . S
C1138 C1139 1.385 . S
C1138 C1140 1.478 . S
C1139 H1133 0.930 . S
C1139 C1135 1.400 . S
C1139 C1138 1.385 . S
C1140 C1138 1.478 . S
C1140 C1142 1.381 . S
C1140 C1146 1.383 . S
C1141 C1137 1.495 . S
C1141 H1147 0.959 . S
C1141 H1148 0.961 . S
C1141 H1149 0.960 . S
C1142 C1140 1.381 . S
C1142 C1143 1.394 . S
C1142 H1150 0.930 . S
C1143 C1142 1.394 . S
C1143 C1144 1.383 . S
C1143 H1151 0.929 . S
C1144 C1143 1.383 . S
C1144 C1145 1.377 . S
C1145 H1129 0.930 . S
C1145 C1144 1.377 . S
C1145 C1146 1.379 . S
C1146 H1130 0.931 . S
C1146 C1140 1.383 . S
C1146 C1145 1.379 . S
H1147 C1141 0.959 . S
H1148 C1141 0.961 . S
H1149 C1141 0.960 . S
H1150 C1142 0.930 . S
H1151 C1143 0.929 . S
H1152 C1160 0.929 . S
H1153 C1162 0.930 . S
H1154 C1164 0.930 . S
H1155 C1167 0.929 . S
H1156 C1170 0.930 . S
H1157 C1172 0.960 . S
H1158 C1172 0.960 . S
H1159 C1172 0.960 . S
C1160 H1152 0.929 . S
C1160 C1161 1.377 . S
C1160 C1162 1.384 . S
C1161 C1160 1.377 . S
C1161 C1167 1.390 . S
C1162 H1153 0.930 . S
C1162 C1160 1.384 . S
C1162 C1163 1.372 . S
C1163 C1162 1.372 . S
C1163 C1164 1.400 . S
C1163 C1168 1.490 . S
C1164 H1154 0.930 . S
C1164 C1163 1.400 . S
C1164 C1167 1.386 . S
H1165 C1181 0.930 . S
H1166 C1182 0.931 . S
C1167 H1155 0.929 . S
C1167 C1161 1.390 . S
C1167 C1164 1.386 . S
C1168 C1163 1.490 . S
C1168 C1170 1.395 . S
C1168 C1171 1.403 . S
H1169 C1175 0.930 . S
C1170 H1156 0.930 . S
C1170 C1168 1.395 . S
C1170 C1173 1.403 . S
C1171 C1168 1.403 . S
C1171 C1172 1.524 . S
C1171 C1175 1.400 . S
C1172 H1157 0.960 . S
C1172 H1158 0.960 . S
C1172 H1159 0.960 . S
C1172 C1171 1.524 . S
C1173 C1170 1.403 . S
C1173 C1174 1.392 . S
C1173 C1177 1.495 . S
C1174 C1173 1.392 . S
C1174 C1175 1.385 . S
C1174 C1176 1.478 . S
C1175 H1169 0.930 . S
C1175 C1171 1.400 . S
C1175 C1174 1.385 . S
C1176 C1174 1.478 . S
C1176 C1178 1.381 . S
C1176 C1182 1.383 . S
C1177 C1173 1.495 . S
C1177 H1183 0.959 . S
C1177 H1184 0.961 . S
C1177 H1185 0.960 . S
C1178 C1176 1.381 . S
C1178 C1179 1.394 . S
C1178 H1186 0.930 . S
C1179 C1178 1.394 . S
C1179 C1180 1.383 . S
C1179 H1187 0.929 . S
C1180 C1179 1.383 . S
C1180 C1181 1.377 . S
C1181 H1165 0.930 . S
C1181 C1180 1.377 . S
C1181 C1182 1.379 . S
C1182 H1166 0.931 . S
C1182 C1176 1.383 . S
C1182 C1181 1.379 . S
H1183 C1177 0.959 . S
H1184 C1177 0.961 . S
H1185 C1177 0.960 . S
H1186 C1178 0.930 . S
H1187 C1179 0.929 . S
H1188 C1196 0.929 . S
H1189 C1198 0.930 . S
H1190 C1200 0.930 . S
H1191 C1203 0.929 . S
H1192 C1206 0.930 . S
H1193 C1208 0.960 . S
H1194 C1208 0.960 . S
H1195 C1208 0.960 . S
C1196 H1188 0.929 . S
C1196 C1197 1.377 . S
C1196 C1198 1.384 . S
C1197 C1196 1.377 . S
C1197 C1203 1.390 . S
C1198 H1189 0.930 . S
C1198 C1196 1.384 . S
C1198 C1199 1.372 . S
C1199 C1198 1.372 . S
C1199 C1200 1.400 . S
C1199 C1204 1.490 . S
C1200 H1190 0.930 . S
C1200 C1199 1.400 . S
C1200 C1203 1.386 . S
H1201 C1217 0.930 . S
H1202 C1218 0.931 . S
C1203 H1191 0.929 . S
C1203 C1197 1.390 . S
C1203 C1200 1.386 . S
C1204 C1199 1.490 . S
C1204 C1206 1.395 . S
C1204 C1207 1.403 . S
H1205 C1211 0.930 . S
C1206 H1192 0.930 . S
C1206 C1204 1.395 . S
C1206 C1209 1.403 . S
C1207 C1204 1.403 . S
C1207 C1208 1.524 . S
C1207 C1211 1.400 . S
C1208 H1193 0.960 . S
C1208 H1194 0.960 . S
C1208 H1195 0.960 . S
C1208 C1207 1.524 . S
C1209 C1206 1.403 . S
C1209 C1210 1.392 . S
C1209 C1213 1.495 . S
C1210 C1209 1.392 . S
C1210 C1211 1.385 . S
C1210 C1212 1.478 . S
C1211 H1205 0.930 . S
C1211 C1207 1.400 . S
C1211 C1210 1.385 . S
C1212 C1210 1.478 . S
C1212 C1214 1.381 . S
C1212 C1218 1.383 . S
C1213 C1209 1.495 . S
C1213 H1219 0.959 . S
C1213 H1220 0.961 . S
C1213 H1221 0.960 . S
C1214 C1212 1.381 . S
C1214 C1215 1.394 . S
C1214 H1222 0.930 . S
C1215 C1214 1.394 . S
C1215 C1216 1.383 . S
C1215 H1223 0.929 . S
C1216 C1215 1.383 . S
C1216 C1217 1.377 . S
C1217 H1201 0.930 . S
C1217 C1216 1.377 . S
C1217 C1218 1.379 . S
C1218 H1202 0.931 . S
C1218 C1212 1.383 . S
C1218 C1217 1.379 . S
H1219 C1213 0.959 . S
H1220 C1213 0.961 . S
H1221 C1213 0.960 . S
H1222 C1214 0.930 . S
H1223 C1215 0.929 . S
H1224 C1232 0.929 . S
H1225 C1234 0.930 . S
H1226 C1236 0.930 . S
H1227 C1239 0.929 . S
H1228 C1242 0.930 . S
H1229 C1244 0.960 . S
H1230 C1244 0.960 . S
H1231 C1244 0.960 . S
C1232 H1224 0.929 . S
C1232 C1233 1.377 . S
C1232 C1234 1.384 . S
C1233 C1232 1.377 . S
C1233 C1239 1.390 . S
C1234 H1225 0.930 . S
C1234 C1232 1.384 . S
C1234 C1235 1.372 . S
C1235 C1234 1.372 . S
C1235 C1236 1.400 . S
C1235 C1240 1.490 . S
C1236 H1226 0.930 . S
C1236 C1235 1.400 . S
C1236 C1239 1.386 . S
H1237 C1253 0.930 . S
H1238 C1254 0.931 . S
C1239 H1227 0.929 . S
C1239 C1233 1.390 . S
C1239 C1236 1.386 . S
C1240 C1235 1.490 . S
C1240 C1242 1.395 . S
C1240 C1243 1.403 . S
H1241 C1247 0.930 . S
C1242 H1228 0.930 . S
C1242 C1240 1.395 . S
C1242 C1245 1.403 . S
C1243 C1240 1.403 . S
C1243 C1244 1.524 . S
C1243 C1247 1.400 . S
C1244 H1229 0.960 . S
C1244 H1230 0.960 . S
C1244 H1231 0.960 . S
C1244 C1243 1.524 . S
C1245 C1242 1.403 . S
C1245 C1246 1.392 . S
C1245 C1249 1.495 . S
C1246 C1245 1.392 . S
C1246 C1247 1.385 . S
C1246 C1248 1.478 . S
C1247 H1241 0.930 . S
C1247 C1243 1.400 . S
C1247 C1246 1.385 . S
C1248 C1246 1.478 . S
C1248 C1250 1.381 . S
C1248 C1254 1.383 . S
C1249 C1245 1.495 . S
C1249 H1255 0.959 . S
C1249 H1256 0.961 . S
C1249 H1257 0.960 . S
C1250 C1248 1.381 . S
C1250 C1251 1.394 . S
C1250 H1258 0.930 . S
C1251 C1250 1.394 . S
C1251 C1252 1.383 . S
C1251 H1259 0.929 . S
C1252 C1251 1.383 . S
C1252 C1253 1.377 . S
C1253 H1237 0.930 . S
C1253 C1252 1.377 . S
C1253 C1254 1.379 . S
C1254 H1238 0.931 . S
C1254 C1248 1.383 . S
C1254 C1253 1.379 . S
H1255 C1249 0.959 . S
H1256 C1249 0.961 . S
H1257 C1249 0.960 . S
H1258 C1250 0.930 . S
H1259 C1251 0.929 . S
H1260 C1268 0.929 . S
H1261 C1270 0.930 . S
H1262 C1272 0.930 . S
H1263 C1275 0.929 . S
H1264 C1278 0.930 . S
H1265 C1280 0.960 . S
H1266 C1280 0.960 . S
H1267 C1280 0.960 . S
C1268 H1260 0.929 . S
C1268 C1269 1.377 . S
C1268 C1270 1.384 . S
C1269 C1268 1.377 . S
C1269 C1275 1.390 . S
C1270 H1261 0.930 . S
C1270 C1268 1.384 . S
C1270 C1271 1.372 . S
C1271 C1270 1.372 . S
C1271 C1272 1.400 . S
C1271 C1276 1.490 . S
C1272 H1262 0.930 . S
C1272 C1271 1.400 . S
C1272 C1275 1.386 . S
H1273 C1289 0.930 . S
H1274 C1290 0.931 . S
C1275 H1263 0.929 . S
C1275 C1269 1.390 . S
C1275 C1272 1.386 . S
C1276 C1271 1.490 . S
C1276 C1278 1.395 . S
C1276 C1279 1.403 . S
H1277 C1283 0.930 . S
C1278 H1264 0.930 . S
C1278 C1276 1.395 . S
C1278 C1281 1.403 . S
C1279 C1276 1.403 . S
C1279 C1280 1.524 . S
C1279 C1283 1.400 . S
C1280 H1265 0.960 . S
C1280 H1266 0.960 . S
C1280 H1267 0.960 . S
C1280 C1279 1.524 . S
C1281 C1278 1.403 . S
C1281 C1282 1.392 . S
C1281 C1285 1.495 . S
C1282 C1281 1.392 . S
C1282 C1283 1.385 . S
C1282 C1284 1.478 . S
C1283 H1277 0.930 . S
C1283 C1279 1.400 . S
C1283 C1282 1.385 . S
C1284 C1282 1.478 . S
C1284 C1286 1.381 . S
C1284 C1290 1.383 . S
C1285 C1281 1.495 . S
C1285 H1291 0.959 . S
C1285 H1292 0.961 . S
C1285 H1293 0.960 . S
C1286 C1284 1.381 . S
C1286 C1287 1.394 . S
C1286 H1294 0.930 . S
C1287 C1286 1.394 . S
C1287 C1288 1.383 . S
C1287 H1295 0.929 . S
C1288 C1287 1.383 . S
C1288 C1289 1.377 . S
C1289 H1273 0.930 . S
C1289 C1288 1.377 . S
C1289 C1290 1.379 . S
C1290 H1274 0.931 . S
C1290 C1284 1.383 . S
C1290 C1289 1.379 . S
H1291 C1285 0.959 . S
H1292 C1285 0.961 . S
H1293 C1285 0.960 . S
H1294 C1286 0.930 . S
H1295 C1287 0.929 . S
C441 C4 1.401 . S
C460 C364 1.363 . S
C477 C40 1.395 . S
C496 C400 1.370 . S
C513 C220 1.412 . S
C532 C76 1.428 . S
C549 C112 1.401 . S
C568 C256 1.364 . S
C585 C292 1.405 . S
C604 C148 1.377 . S
C621 C328 1.412 . S
C640 C184 1.427 . S
C657 C218 0.350 . S
C676 C2 0.336 . S
C693 C254 0.331 . S
C712 C38 0.423 . S
C729 C290 0.360 . S
C748 C74 0.286 . S
C765 C110 0.351 . S
C784 C326 0.387 . S
C801 C146 0.328 . S
C820 C362 0.443 . S
C837 C182 0.363 . S
C856 C398 0.323 . S
C873 C14 1.155 . S
C892 C122 1.189 . S
C909 C50 1.161 . S
C928 C158 1.140 . S
C945 C86 1.163 . S
C964 C194 1.155 . S
C981 C338 1.163 . S
C1000 C230 1.175 . S
C1017 C374 1.161 . S
C1036 C266 1.194 . S
C1053 C410 1.148 . S
C1072 C302 1.112 . S
C1089 C3 1.464 . S
C1108 C291 1.465 . S
C1125 C327 1.471 . S
C1144 C39 1.460 . S
C1161 C75 1.471 . S
C1180 C363 1.463 . S
C1197 C399 1.466 . S
C1216 C111 1.482 . S
C1233 C147 1.471 . S
C1252 C219 1.451 . S
C1269 C183 1.465 . S
C1288 C255 1.464 . S
