# Generated by pormake.
# Topology bcs, (6)-cn, num edge types: 1
# Building blocks:
#     Node 0, Type 0, BuildingBlock: CUWYAW_clean_sbu_0, # of connection points: 6
#     Node 1, Type 0, BuildingBlock: CUWYAW_clean_sbu_0, # of connection points: 6
#     Node 2, Type 0, BuildingBlock: CUWYAW_clean_sbu_0, # of connection points: 6
#     Node 3, Type 0, BuildingBlock: CUWYAW_clean_sbu_0, # of connection points: 6
#     Node 4, Type 0, BuildingBlock: CUWYAW_clean_sbu_0, # of connection points: 6
#     Node 5, Type 0, BuildingBlock: CUWYAW_clean_sbu_0, # of connection points: 6
#     Node 6, Type 0, BuildingBlock: CUWYAW_clean_sbu_0, # of connection points: 6
#     Node 7, Type 0, BuildingBlock: CUWYAW_clean_sbu_0, # of connection points: 6
#     Node 8, Type 0, BuildingBlock: CUWYAW_clean_sbu_0, # of connection points: 6
#     Node 9, Type 0, BuildingBlock: CUWYAW_clean_sbu_0, # of connection points: 6
#     Node 10, Type 0, BuildingBlock: CUWYAW_clean_sbu_0, # of connection points: 6
#     Node 11, Type 0, BuildingBlock: CUWYAW_clean_sbu_0, # of connection points: 6
#     Node 12, Type 0, BuildingBlock: CUWYAW_clean_sbu_0, # of connection points: 6
#     Node 13, Type 0, BuildingBlock: CUWYAW_clean_sbu_0, # of connection points: 6
#     Node 14, Type 0, BuildingBlock: CUWYAW_clean_sbu_0, # of connection points: 6
#     Node 15, Type 0, BuildingBlock: CUWYAW_clean_sbu_0, # of connection points: 6
#     Edge 16, Type (0, 0), BuildingBlock: XUDNAN_clean_linker_2, # of connection points: 2
#     Edge 17, Type (0, 0), BuildingBlock: XUDNAN_clean_linker_2, # of connection points: 2
#     Edge 18, Type (0, 0), BuildingBlock: XUDNAN_clean_linker_2, # of connection points: 2
#     Edge 19, Type (0, 0), BuildingBlock: XUDNAN_clean_linker_2, # of connection points: 2
#     Edge 20, Type (0, 0), BuildingBlock: XUDNAN_clean_linker_2, # of connection points: 2
#     Edge 21, Type (0, 0), BuildingBlock: XUDNAN_clean_linker_2, # of connection points: 2
#     Edge 22, Type (0, 0), BuildingBlock: XUDNAN_clean_linker_2, # of connection points: 2
#     Edge 23, Type (0, 0), BuildingBlock: XUDNAN_clean_linker_2, # of connection points: 2
#     Edge 24, Type (0, 0), BuildingBlock: XUDNAN_clean_linker_2, # of connection points: 2
#     Edge 25, Type (0, 0), BuildingBlock: XUDNAN_clean_linker_2, # of connection points: 2
#     Edge 26, Type (0, 0), BuildingBlock: XUDNAN_clean_linker_2, # of connection points: 2
#     Edge 27, Type (0, 0), BuildingBlock: XUDNAN_clean_linker_2, # of connection points: 2
#     Edge 28, Type (0, 0), BuildingBlock: XUDNAN_clean_linker_2, # of connection points: 2
#     Edge 29, Type (0, 0), BuildingBlock: XUDNAN_clean_linker_2, # of connection points: 2
#     Edge 30, Type (0, 0), BuildingBlock: XUDNAN_clean_linker_2, # of connection points: 2
#     Edge 31, Type (0, 0), BuildingBlock: XUDNAN_clean_linker_2, # of connection points: 2
#     Edge 32, Type (0, 0), BuildingBlock: XUDNAN_clean_linker_2, # of connection points: 2
#     Edge 33, Type (0, 0), BuildingBlock: XUDNAN_clean_linker_2, # of connection points: 2
#     Edge 34, Type (0, 0), BuildingBlock: XUDNAN_clean_linker_2, # of connection points: 2
#     Edge 35, Type (0, 0), BuildingBlock: XUDNAN_clean_linker_2, # of connection points: 2
#     Edge 36, Type (0, 0), BuildingBlock: XUDNAN_clean_linker_2, # of connection points: 2
#     Edge 37, Type (0, 0), BuildingBlock: XUDNAN_clean_linker_2, # of connection points: 2
#     Edge 38, Type (0, 0), BuildingBlock: XUDNAN_clean_linker_2, # of connection points: 2
#     Edge 39, Type (0, 0), BuildingBlock: XUDNAN_clean_linker_2, # of connection points: 2
#     Edge 40, Type (0, 0), BuildingBlock: XUDNAN_clean_linker_2, # of connection points: 2
#     Edge 41, Type (0, 0), BuildingBlock: XUDNAN_clean_linker_2, # of connection points: 2
#     Edge 42, Type (0, 0), BuildingBlock: XUDNAN_clean_linker_2, # of connection points: 2
#     Edge 43, Type (0, 0), BuildingBlock: XUDNAN_clean_linker_2, # of connection points: 2
#     Edge 44, Type (0, 0), BuildingBlock: XUDNAN_clean_linker_2, # of connection points: 2
#     Edge 45, Type (0, 0), BuildingBlock: XUDNAN_clean_linker_2, # of connection points: 2
#     Edge 46, Type (0, 0), BuildingBlock: XUDNAN_clean_linker_2, # of connection points: 2
#     Edge 47, Type (0, 0), BuildingBlock: XUDNAN_clean_linker_2, # of connection points: 2
#     Edge 48, Type (0, 0), BuildingBlock: XUDNAN_clean_linker_2, # of connection points: 2
#     Edge 49, Type (0, 0), BuildingBlock: XUDNAN_clean_linker_2, # of connection points: 2
#     Edge 50, Type (0, 0), BuildingBlock: XUDNAN_clean_linker_2, # of connection points: 2
#     Edge 51, Type (0, 0), BuildingBlock: XUDNAN_clean_linker_2, # of connection points: 2
#     Edge 52, Type (0, 0), BuildingBlock: XUDNAN_clean_linker_2, # of connection points: 2
#     Edge 53, Type (0, 0), BuildingBlock: XUDNAN_clean_linker_2, # of connection points: 2
#     Edge 54, Type (0, 0), BuildingBlock: XUDNAN_clean_linker_2, # of connection points: 2
#     Edge 55, Type (0, 0), BuildingBlock: XUDNAN_clean_linker_2, # of connection points: 2
#     Edge 56, Type (0, 0), BuildingBlock: XUDNAN_clean_linker_2, # of connection points: 2
#     Edge 57, Type (0, 0), BuildingBlock: XUDNAN_clean_linker_2, # of connection points: 2
#     Edge 58, Type (0, 0), BuildingBlock: XUDNAN_clean_linker_2, # of connection points: 2
#     Edge 59, Type (0, 0), BuildingBlock: XUDNAN_clean_linker_2, # of connection points: 2
#     Edge 60, Type (0, 0), BuildingBlock: XUDNAN_clean_linker_2, # of connection points: 2
#     Edge 61, Type (0, 0), BuildingBlock: XUDNAN_clean_linker_2, # of connection points: 2
#     Edge 62, Type (0, 0), BuildingBlock: XUDNAN_clean_linker_2, # of connection points: 2
#     Edge 63, Type (0, 0), BuildingBlock: XUDNAN_clean_linker_2, # of connection points: 2
# Relax obj value: 0.261
# Max RMSD: 0.225
# Mean RMSD: 0.162
data_MOF--net-bcs--node1-CUWYAW_clean_sbu_0--edge1-XUDNAN_clean_linker_2
_symmetry_space_group_name_H-M    P1
_symmetry_Int_Tables_number       1
_symmetry_cell_setting            triclinic
loop_
_symmetry_equiv_pos_as_xyz
'x, y, z'
_cell_length_a     42.002372
_cell_length_b     41.881647
_cell_length_c     39.832431
_cell_angle_alpha  80.783743
_cell_angle_beta   113.46787
_cell_angle_gamma 106.82055
loop_
_atom_site_label
_atom_site_type_symbol
_atom_site_fract_x
_atom_site_fract_y
_atom_site_fract_z
_atom_type_partial_charge
C0 C 1.04376 0.08769 0.07117 0.0
Eu1 Eu 0.06876 0.05447 0.03656 0.0
C2 C 1.02574 0.10411 0.09083 0.0
C3 C 1.03853 0.13759 0.10292 0.0
C4 C 1.01995 0.1525 0.11808 0.0
C5 C 0.98727 0.13504 0.12327 0.0
C6 C 0.97487 0.10157 0.11131 0.0
C7 C 0.99284 0.08707 0.09544 0.0
C8 C 0.11019 0.08287 0.98492 0.0
C9 C 1.00921 0.05714 0.95073 0.0
C10 C 0.07984 0.96306 0.9514 0.0
Eu11 Eu 1.05585 0.9964 0.98691 0.0
C12 C 0.09689 0.94681 0.93064 0.0
C13 C 0.08761 0.91197 0.92414 0.0
C14 C 0.10589 0.89728 0.90847 0.0
C15 C 0.1346 0.91624 0.8971 0.0
C16 C 0.14345 0.95105 0.90338 0.0
C17 C 0.12597 0.96547 0.91992 0.0
C18 C 1.01548 0.96782 0.03955 0.0
C19 C 0.11495 0.99334 0.07246 0.0
O20 O 1.02444 0.06512 0.04681 0.0
O21 O 0.07825 0.09167 0.07819 0.0
O22 O 0.10819 0.09639 1.01178 0.0
O23 O 0.08954 0.05248 0.98934 0.0
O24 O 1.0263 0.06968 0.98347 0.0
O25 O 1.01548 0.02873 0.94483 0.0
O26 O 0.0994 0.98662 0.97445 0.0
O27 O 1.04559 0.95838 0.94587 0.0
O28 O 1.01799 0.95399 1.01324 0.0
O29 O 1.03567 0.99828 0.03455 0.0
O30 O 0.10094 0.98319 0.03867 0.0
O31 O 0.10596 1.01974 0.07931 0.0
H32 H 1.06305 0.15291 0.10012 0.0
H33 H 1.03189 0.17797 0.12643 0.0
H34 H 0.95024 0.08605 0.11368 0.0
H35 H 0.98055 0.06172 0.08675 0.0
H36 H 0.0663 0.89547 0.93197 0.0
H37 H 0.09683 0.87068 0.90468 0.0
H38 H 0.16489 0.96774 0.89591 0.0
H39 H 0.13551 0.99199 0.92421 0.0
C40 C 0.38046 0.83182 0.2256 0.0
Eu41 Eu 0.33311 0.78606 0.24463 0.0
C42 C 0.37979 0.86437 0.20485 0.0
C43 C 0.36485 0.86619 0.16638 0.0
C44 C 0.36522 0.8971 0.14708 0.0
C45 C 0.38055 0.92692 0.16578 0.0
C46 C 0.39429 0.92504 0.20428 0.0
C47 C 0.39404 0.89411 0.22361 0.0
C48 C 0.28098 0.73689 0.20338 0.0
C49 C 0.26207 0.82085 0.22235 0.0
C50 C 0.23013 0.70785 0.29255 0.0
Eu51 Eu 0.27852 0.75355 0.27483 0.0
C52 C 0.23031 0.67493 0.31181 0.0
C53 C 0.26237 0.66826 0.33763 0.0
C54 C 0.2623 0.63714 0.35639 0.0
C55 C 0.23016 0.61218 0.34973 0.0
C56 C 0.19835 0.61848 0.32266 0.0
C57 C 0.19846 0.64965 0.30381 0.0
C58 C 0.32981 0.80288 0.31591 0.0
C59 C 0.34986 0.71953 0.29818 0.0
O60 O 0.37779 0.83006 0.25747 0.0
O61 O 0.36172 0.80482 0.20742 0.0
O62 O 0.31477 0.74142 0.20957 0.0
O63 O 0.2765 0.75878 0.21833 0.0
O64 O 0.2944 0.82336 0.22141 0.0
O65 O 0.24897 0.79437 0.24085 0.0
O66 O 0.23268 0.71034 0.26054 0.0
O67 O 0.2504 0.73366 0.3122 0.0
O68 O 0.29608 0.79765 0.31012 0.0
O69 O 0.33498 0.78134 0.30112 0.0
O70 O 0.31605 0.71578 0.29533 0.0
O71 O 0.36459 0.74725 0.28241 0.0
H72 H 0.35358 0.84378 0.15106 0.0
H73 H 0.35512 0.8976 0.11743 0.0
H74 H 0.40622 0.94755 0.21947 0.0
H75 H 0.40557 0.89351 0.25329 0.0
H76 H 0.28734 0.68736 0.34399 0.0
H77 H 0.28717 0.63295 0.37704 0.0
H78 H 0.17303 0.59996 0.31738 0.0
H79 H 0.17356 0.65428 0.28365 0.0
C80 C 0.60995 1.0234 0.44133 0.0
Eu81 Eu 0.58179 0.0279 0.48737 0.0
C82 C 0.64498 1.02084 0.44332 0.0
C83 C 0.67558 0.04776 0.45396 0.0
C84 C 0.70783 0.04572 0.45298 0.0
C85 C 0.71012 1.0167 0.44163 0.0
C86 C 0.67984 0.98942 0.43225 0.0
C87 C 0.64759 0.99154 0.43296 0.0
C88 C 0.61295 0.07703 0.53585 0.0
C89 C 0.61042 0.97661 0.56207 0.0
C90 C 0.52434 1.02505 0.58631 0.0
Eu91 Eu 0.54864 1.01707 0.53821 0.0
C92 C 0.53126 0.05464 0.60569 0.0
C93 C 0.51618 0.05283 0.63169 0.0
C94 C 0.52405 0.08079 0.65117 0.0
C95 C 0.54736 0.11095 0.64507 0.0
C96 C 0.56236 0.11261 0.61881 0.0
C97 C 0.55436 0.08461 0.59928 0.0
C98 C 0.51465 0.97092 0.4855 0.0
C99 C 0.5215 0.06922 0.4672 0.0
O100 O 0.59091 0.99749 0.45396 0.0
O101 O 0.60875 0.0517 0.44996 0.0
O102 O 0.60603 0.08193 0.50111 0.0
O103 O 0.60405 0.04623 0.54427 0.0
O104 O 0.61174 0.98864 0.52924 0.0
O105 O 0.58828 0.98575 0.57249 0.0
O106 O 0.55217 1.01325 0.59463 0.0
O107 O 0.50642 0.02667 0.55107 0.0
O108 O 0.51962 0.96383 0.51979 0.0
O109 O 0.52632 1.00176 0.48064 0.0
O110 O 0.52956 0.06318 0.50317 0.0
O111 O 0.53525 0.05356 0.45174 0.0
H112 H 0.67451 0.0707 0.46225 0.0
H113 H 0.73075 0.06707 0.46034 0.0
H114 H 0.68055 0.96695 0.42266 0.0
H115 H 0.62439 0.97054 0.42447 0.0
H116 H 0.49836 0.02983 0.63692 0.0
H117 H 0.51135 0.07894 0.67057 0.0
H118 H 0.58041 0.13541 0.61355 0.0
H119 H 0.56634 0.08621 0.57931 0.0
C120 C 0.2563 0.34021 0.74515 0.0
Eu121 Eu 0.29573 0.29963 0.75253 0.0
C122 C 0.22345 0.3358 0.75215 0.0
C123 C 0.1963 0.35083 0.7282 0.0
C124 C 0.16458 0.34573 0.73436 0.0
C125 C 0.15927 0.32487 0.76416 0.0
C126 C 0.18616 0.30895 0.78712 0.0
C127 C 0.21813 0.31501 0.7817 0.0
C128 C 0.27258 0.24991 0.70656 0.0
C129 C 0.26941 0.23237 0.81356 0.0
C130 C 0.37883 0.21737 0.78973 0.0
Eu131 Eu 0.3371 0.25627 0.77957 0.0
C132 C 0.40999 0.22102 0.77983 0.0
C133 C 0.44239 0.21652 0.80693 0.0
C134 C 0.47222 0.22014 0.79788 0.0
C135 C 0.47003 0.22807 0.76145 0.0
C136 C 0.43773 0.23349 0.73462 0.0
C137 C 0.40812 0.23016 0.74373 0.0
C138 C 0.35836 0.30557 0.82572 0.0
C139 C 0.36202 0.32151 0.7167 0.0
O140 O 0.28531 0.33868 0.77391 0.0
O141 O 0.2527 0.32347 0.71841 0.0
O142 O 0.27586 0.2811 0.69582 0.0
O143 O 0.28139 0.24604 0.74085 0.0
O144 O 0.26614 0.26241 0.79419 0.0
O145 O 0.29623 0.22267 0.8103 0.0
O146 O 0.34773 0.21471 0.76276 0.0
O147 O 0.38362 0.23724 0.81431 0.0
O148 O 0.35172 0.27412 0.83541 0.0
O149 O 0.35179 0.3099 0.79172 0.0
O150 O 0.36515 0.29143 0.73594 0.0
O151 O 0.33613 0.33197 0.7209 0.0
H152 H 0.19983 0.36685 0.70507 0.0
H153 H 0.14486 0.35897 0.71643 0.0
H154 H 0.18291 0.29229 0.80992 0.0
H155 H 0.23883 0.30367 0.80101 0.0
H156 H 0.44456 0.20996 0.83506 0.0
H157 H 0.49677 0.21612 0.81928 0.0
H158 H 0.43469 0.23897 0.70616 0.0
H159 H 0.38361 0.23425 0.72229 0.0
C160 C 0.15791 1.01113 0.5268 0.0
Eu161 Eu 0.0952 1.0175 0.5163 0.0
C162 C 0.17445 1.0153 0.49957 0.0
C163 C 0.153 1.00554 0.46366 0.0
C164 C 0.16497 1.01823 0.43503 0.0
C165 C 0.19849 0.04112 0.44173 0.0
C166 C 0.22105 0.04882 0.47808 0.0
C167 C 0.20909 0.03596 0.50681 0.0
C168 C 1.0311 0.98064 0.47339 0.0
C169 C 1.05652 0.0581 0.44469 0.0
C170 C 0.97065 0.04503 0.51395 0.0
Eu171 Eu 1.02943 0.0402 0.51047 0.0
C172 C 0.95793 0.03317 0.54433 0.0
C173 C 0.98299 0.03443 0.58049 0.0
C174 C 0.97282 1.01797 0.60919 0.0
C175 C 0.93708 1.00032 0.60269 0.0
C176 C 0.91149 1.00077 0.56663 0.0
C177 C 0.92193 1.01682 0.53762 0.0
C178 C 0.09451 0.08431 0.53735 0.0
C179 C 0.06618 0.9959 0.58267 0.0
O180 O 0.15239 0.0389 0.53193 0.0
O181 O 0.13043 0.9853 0.52398 0.0
O182 O 1.05995 0.98726 0.46625 0.0
O183 O 1.03778 0.99225 0.50338 0.0
O184 O 0.08833 0.05591 0.4689 0.0
O185 O 1.02743 0.0486 0.45274 0.0
O186 O 0.97162 1.02154 0.49653 0.0
O187 O 0.9997 0.06947 0.52129 0.0
O188 O 0.06577 0.09353 0.51559 0.0
O189 O 0.08681 0.05347 0.54393 0.0
O190 O 1.03922 1.00971 0.56421 0.0
O191 O 0.09125 0.99617 0.57038 0.0
H192 H 0.12588 0.99015 0.45717 0.0
H193 H 0.1468 1.01205 0.40733 0.0
H194 H 0.24721 0.06608 0.48408 0.0
H195 H 0.22585 0.04415 0.53423 0.0
H196 H 1.01101 0.04681 0.58655 0.0
H197 H 0.99361 1.01774 0.63616 0.0
H198 H 0.88359 0.98797 0.56059 0.0
H199 H 0.9022 1.01548 0.50988 0.0
C200 C 0.3554 0.72622 0.85341 0.0
Eu201 Eu 0.3165 0.7533 0.79422 0.0
C202 C 0.38334 0.71013 0.85608 0.0
C203 C 0.37451 0.67572 0.85166 0.0
C204 C 0.39664 0.66194 0.84309 0.0
C205 C 0.42807 0.68228 0.8387 0.0
C206 C 0.43859 0.71609 0.84666 0.0
C207 C 0.41651 0.72987 0.85533 0.0
C208 C 0.25489 0.72367 0.74251 0.0
C209 C 0.35186 0.74532 0.73049 0.0
C210 C 0.25679 0.81677 0.66657 0.0
Eu211 Eu 0.29959 0.7928 0.72497 0.0
C212 C 0.22655 0.82836 0.66581 0.0
C213 C 0.22581 0.86186 0.65647 0.0
C214 C 0.20211 0.87472 0.66363 0.0
C215 C 0.17895 0.85434 0.68058 0.0
C216 C 0.1785 0.82044 0.68826 0.0
C217 C 0.20196 0.80753 0.68087 0.0
C218 C 0.35836 0.82404 0.77966 0.0
C219 C 0.26555 0.80251 0.78885 0.0
O220 O 0.3623 0.75843 0.84571 0.0
O221 O 0.32236 0.71099 0.83412 0.0
O222 O 0.25912 0.72332 0.77673 0.0
O223 O 0.28366 0.73862 0.73765 0.0
O224 O 0.35136 0.73989 0.76481 0.0
O225 O 0.33217 0.76558 0.70772 0.0
O226 O 0.25388 0.78468 0.67342 0.0
O227 O 0.28877 0.83465 0.68524 0.0
O228 O 0.35662 0.82681 0.74585 0.0
O229 O 0.3292 0.80669 0.78151 0.0
O230 O 0.26652 0.80822 0.75479 0.0
O231 O 0.28464 0.78167 0.81149 0.0
H232 H 0.34945 0.65977 0.85267 0.0
H233 H 0.38865 0.63537 0.83922 0.0
H234 H 0.46281 0.73246 0.84409 0.0
H235 H 0.42442 0.75649 0.85899 0.0
H236 H 0.24456 0.8784 0.64509 0.0
H237 H 0.20223 0.90078 0.65625 0.0
H238 H 0.16091 0.80415 0.70116 0.0
H239 H 0.20204 0.78157 0.68886 0.0
C240 C 0.54464 0.11807 0.94897 0.0
Eu241 Eu 0.55357 0.06007 0.97877 0.0
C242 C 0.52557 0.13795 0.95782 0.0
C243 C 0.49745 0.14932 0.92991 0.0
C244 C 0.47263 0.1593 0.93851 0.0
C245 C 0.47544 0.15769 0.97514 0.0
C246 C 0.50514 0.14847 1.00305 0.0
C247 C 0.53002 0.13898 0.99452 0.0
C248 C 0.51964 1.00086 0.94701 0.0
C249 C 0.50295 0.03503 0.02757 0.0
C250 C 0.57008 0.94154 0.06113 0.0
Eu251 Eu 0.56045 0.99943 0.03185 0.0
C252 C 0.58793 0.92126 0.05099 0.0
C253 C 0.61742 0.91104 0.07785 0.0
C254 C 0.64112 0.90093 0.06766 0.0
C255 C 0.63567 0.901 0.03043 0.0
C256 C 0.60458 0.90875 1.00365 0.0
C257 C 0.58093 0.91872 1.01381 0.0
C258 C 0.59495 0.05902 0.06315 0.0
C259 C 0.61144 1.02419 0.9845 0.0
O260 O 0.57467 0.11405 0.97492 0.0
O261 O 0.52414 0.09014 0.93364 0.0
O262 O 0.53578 0.02665 0.9318 0.0
O263 O 0.52058 1.008 0.97709 0.0
O264 O 0.51856 0.06016 1.01022 0.0
O265 O 0.51144 1.00609 0.03561 0.0
O266 O 0.53935 0.9455 0.03652 0.0
O267 O 0.59136 0.96955 0.07575 0.0
O268 O 0.57926 0.03332 0.07885 0.0
O269 O 0.59356 0.05138 0.03316 0.0
O270 O 0.59338 0.99845 0.99878 0.0
O271 O 0.60447 0.05379 0.97845 0.0
H272 H 0.49336 0.14845 0.90141 0.0
H273 H 0.45046 0.16689 0.91639 0.0
H274 H 0.50805 0.14628 0.03152 0.0
H275 H 0.55114 0.12994 0.0167 0.0
H276 H 0.6235 0.91309 0.10665 0.0
H277 H 0.66454 0.89453 0.0889 0.0
H278 H 0.59973 0.90944 0.97475 0.0
H279 H 0.55869 0.92689 0.99239 0.0
C280 C 0.29855 0.27518 0.35706 0.0
Eu281 Eu 0.30279 0.27189 0.29437 0.0
C282 C 0.29251 0.29489 0.38044 0.0
C283 C 0.3176 0.32418 0.39606 0.0
C284 C 0.31221 0.34061 0.42058 0.0
C285 C 0.2818 0.32789 0.42999 0.0
C286 C 0.25667 0.2988 0.41395 0.0
C287 C 0.26208 0.28243 0.38963 0.0
C288 C 0.34063 0.31964 0.25982 0.0
C289 C 0.25034 0.30158 0.21764 0.0
C290 C 0.30676 0.24248 0.16372 0.0
Eu291 Eu 0.30249 0.24905 0.22562 0.0
C292 C 0.30833 0.21893 0.14118 0.0
C293 C 0.33005 0.19637 0.15664 0.0
C294 C 0.33763 0.17981 0.13405 0.0
C295 C 0.3235 0.18551 0.09579 0.0
C296 C 0.29918 0.20572 0.08038 0.0
C297 C 0.29178 0.22243 0.10298 0.0
C298 C 0.26498 0.20124 0.25863 0.0
C299 C 0.35402 0.21933 0.30468 0.0
O300 O 0.27094 0.26301 0.32811 0.0
O301 O 0.32877 0.28479 0.35157 0.0
O302 O 0.32531 0.32624 0.27955 0.0
O303 O 0.3386 0.2886 0.26322 0.0
O304 O 0.25837 0.29621 0.25367 0.0
O305 O 0.26478 0.28702 0.20148 0.0
O306 O 0.33484 0.25101 0.19375 0.0
O307 O 0.27631 0.23901 0.16738 0.0
O308 O 0.28035 0.19525 0.23877 0.0
O309 O 0.26608 0.23201 0.25646 0.0
O310 O 0.34702 0.22366 0.26859 0.0
O311 O 0.3381 0.23394 0.3187 0.0
H312 H 0.34154 0.33415 0.38977 0.0
H313 H 0.33209 0.36292 0.4326 0.0
H314 H 0.23255 0.28874 0.41992 0.0
H315 H 0.24253 0.25972 0.37823 0.0
H316 H 0.34285 0.19309 0.18611 0.0
H317 H 0.35619 0.16405 0.14653 0.0
H318 H 0.28813 0.21071 0.051 0.0
H319 H 0.27496 0.23978 0.09063 0.0
C320 C 0.65221 0.5481 0.04381 0.0
Eu321 Eu 0.58398 0.5307 0.02804 0.0
C322 C 0.66912 0.57341 0.0217 0.0
C323 C 0.69386 0.56663 1.01014 0.0
C324 C 0.70201 0.58577 0.98107 0.0
C325 C 0.68506 0.61155 0.96293 0.0
C326 C 0.6622 0.61967 0.97614 0.0
C327 C 0.65443 0.6009 1.00534 0.0
C328 C 0.53466 0.47579 0.99469 0.0
C329 C 0.53796 0.55302 0.9494 0.0
C330 C 0.43859 0.52195 0.99654 0.0
Eu331 Eu 0.50657 0.52848 1.01387 0.0
C332 C 0.41767 0.51291 0.02012 0.0
C333 C 0.43557 0.5119 0.05833 0.0
C334 C 0.41681 0.4965 0.08108 0.0
C335 C 0.37984 0.48181 0.06593 0.0
C336 C 0.36152 0.48575 0.02781 0.0
C337 C 0.3804 0.50097 1.00502 0.0
C338 C 0.55702 0.58221 0.04899 0.0
C339 C 0.55159 0.49969 0.0916 0.0
O340 O 0.63711 0.55913 0.06121 0.0
O341 O 0.63173 0.5209 0.02677 0.0
O342 O 0.56312 0.49001 0.98732 0.0
O343 O 0.53479 0.48973 0.02044 0.0
O344 O 0.56995 0.56065 0.97522 0.0
O345 O 0.5094 0.53689 0.95714 0.0
O346 O 0.45164 0.49811 0.99368 0.0
O347 O 0.46214 0.55084 1.00203 0.0
O348 O 0.52974 0.5661 0.05762 0.0
O349 O 0.55594 0.56939 0.02192 0.0
O350 O 0.51886 0.49745 0.06694 0.0
O351 O 0.58051 0.51389 0.08371 0.0
H352 H 0.705 0.54525 0.02193 0.0
H353 H 0.71974 0.57906 0.97128 0.0
H354 H 0.6492 0.63971 0.96291 0.0
H355 H 0.63493 0.60655 1.01333 0.0
H356 H 0.46443 0.52103 0.07045 0.0
H357 H 0.43184 0.49365 0.11019 0.0
H358 H 0.33294 0.47506 0.0154 0.0
H359 H 0.36621 0.50165 0.97557 0.0
C360 C 0.84865 0.21999 0.34538 0.0
Eu361 Eu 0.81594 0.25532 0.29045 0.0
C362 C 0.87676 0.20551 0.34541 0.0
C363 C 0.871 0.1708 0.3458 0.0
C364 C 0.89383 0.1573 0.33783 0.0
C365 C 0.92266 0.17833 0.32905 0.0
C366 C 0.92887 0.21299 0.32958 0.0
C367 C 0.90641 0.22642 0.33792 0.0
C368 C 0.75728 0.23451 0.23066 0.0
C369 C 0.85592 0.25007 0.23027 0.0
C370 C 0.78013 0.33919 0.17165 0.0
Eu371 Eu 0.81053 0.30352 0.22825 0.0
C372 C 0.74986 0.35307 0.16654 0.0
C373 C 0.756 0.38708 0.17132 0.0
C374 C 0.73013 0.39883 0.17583 0.0
C375 C 0.69763 0.37677 0.17564 0.0
C376 C 0.69052 0.34324 0.1682 0.0
C377 C 0.7163 0.33151 0.16366 0.0
C378 C 0.86935 0.32426 0.28814 0.0
C379 C 0.76917 0.30709 0.28801 0.0
O380 O 0.85678 0.2526 0.34486 0.0
O381 O 0.81626 0.2076 0.32223 0.0
O382 O 0.75713 0.22916 0.26378 0.0
O383 O 0.78828 0.24941 0.23132 0.0
O384 O 0.84983 0.24021 0.26165 0.0
O385 O 0.84258 0.27555 0.21062 0.0
O386 O 0.77295 0.30664 0.17211 0.0
O387 O 0.81044 0.35178 0.19776 0.0
O388 O 0.86947 0.32962 0.25506 0.0
O389 O 0.83825 0.30958 0.2873 0.0
O390 O 0.77269 0.3152 0.25507 0.0
O391 O 0.78561 0.28396 0.30924 0.0
H392 H 0.84816 0.15418 0.35102 0.0
H393 H 0.88892 0.13039 0.33863 0.0
H394 H 0.95074 0.22982 0.32284 0.0
H395 H 0.91144 0.25337 0.33669 0.0
H396 H 0.78152 0.40425 0.17348 0.0
H397 H 0.73592 0.42511 0.18016 0.0
H398 H 0.66579 0.32558 0.16781 0.0
H399 H 0.71054 0.30507 0.16003 0.0
C400 C 0.07518 0.60983 0.48148 0.0
Eu401 Eu 0.07543 0.54813 0.5021 0.0
C402 C 1.06413 0.632 0.49787 0.0
C403 C 1.02916 0.63639 0.48131 0.0
C404 C 1.01411 0.64724 0.50157 0.0
C405 C 1.03389 0.65418 0.53865 0.0
C406 C 0.0701 0.65335 0.55395 0.0
C407 C 0.08515 0.64253 0.5337 0.0
C408 C 1.0395 0.49204 0.4636 0.0
C409 C 1.01538 0.51991 0.53879 0.0
C410 C 0.07933 0.42331 0.57483 0.0
Eu411 Eu 0.07369 0.48289 0.54855 0.0
C412 C 0.09903 0.40416 0.56582 0.0
C413 C 0.12762 0.39338 0.59387 0.0
C414 C 0.15395 0.38579 0.58558 0.0
C415 C 0.15195 0.38923 0.54923 0.0
C416 C 0.12185 0.39709 0.52101 0.0
C417 C 0.09547 0.40428 0.52916 0.0
C418 C 0.10444 0.53857 0.58714 0.0
C419 C 0.13171 0.50999 0.50898 0.0
O420 O 0.10442 0.60052 0.5025 0.0
O421 O 1.04946 0.58488 0.46423 0.0
O422 O 1.05779 0.5185 0.45125 0.0
O423 O 1.0394 0.49756 0.49362 0.0
O424 O 1.03717 0.54668 0.53013 0.0
O425 O 1.02078 0.48978 0.54245 0.0
O426 O 1.05039 0.42903 0.54822 0.0
O427 O 0.09983 0.45008 0.59265 0.0
O428 O 0.08482 0.51163 0.59699 0.0
O429 O 0.10858 0.53433 0.55858 0.0
O430 O 0.11067 0.48371 0.5192 0.0
O431 O 0.12661 0.54011 0.50514 0.0
H432 H 1.01241 0.62872 0.4537 0.0
H433 H 0.98612 0.64766 0.48895 0.0
H434 H 0.08628 0.6594 0.58219 0.0
H435 H 0.11243 0.64007 0.54715 0.0
H436 H 0.13112 0.39348 0.62232 0.0
H437 H 0.17705 0.37962 0.60765 0.0
H438 H 0.1198 0.39956 0.49276 0.0
H439 H 0.07397 0.41272 0.50687 0.0
C440 C 0.76211 0.8433 0.24719 0.0
Eu441 Eu 0.79219 0.79638 0.24857 0.0
C442 C 0.77703 0.87324 0.26867 0.0
C443 C 0.76275 0.90118 0.25617 0.0
C444 C 0.77469 0.92787 0.27891 0.0
C445 C 0.80095 0.92678 0.31442 0.0
C446 C 0.81663 0.8996 0.32588 0.0
C447 C 0.80474 0.87312 0.30317 0.0
C448 C 0.76268 0.74304 0.20518 0.0
C449 C 0.76645 0.73078 0.31067 0.0
C450 C 0.87193 0.7106 0.28423 0.0
Eu451 Eu 0.83301 0.75193 0.275 0.0
C452 C 0.90692 0.71356 0.28217 0.0
C453 C 0.93384 0.70301 0.31255 0.0
C454 C 0.96699 0.70499 0.311 0.0
C455 C 0.97372 0.71728 0.27884 0.0
C456 C 0.9471 0.729 0.24891 0.0
C457 C 0.91408 0.72727 0.25059 0.0
C458 C 0.85655 0.80177 0.32092 0.0
C459 C 0.85924 0.81751 0.21306 0.0
O460 O 0.77576 0.84249 0.22326 0.0
O461 O 0.75871 0.8152 0.26643 0.0
O462 O 0.76324 0.7736 0.19256 0.0
O463 O 0.77612 0.74224 0.23952 0.0
O464 O 0.76485 0.76181 0.29313 0.0
O465 O 0.79113 0.71947 0.30505 0.0
O466 O 0.84546 0.71437 0.25349 0.0
O467 O 0.87296 0.72559 0.31107 0.0
O468 O 0.8517 0.77054 0.33152 0.0
O469 O 0.8484 0.80547 0.28675 0.0
O470 O 0.86291 0.78783 0.23307 0.0
O471 O 0.83235 0.82729 0.21599 0.0
H472 H 0.74143 0.90174 0.22956 0.0
H473 H 0.76182 0.94837 0.26959 0.0
H474 H 0.83689 0.89815 0.35305 0.0
H475 H 0.81592 0.85172 0.31322 0.0
H476 H 0.92904 0.6928 0.33737 0.0
H477 H 0.98704 0.69611 0.33467 0.0
H478 H 0.95106 0.73811 0.22348 0.0
H479 H 0.89397 0.73601 0.22686 0.0
C480 C 0.89188 0.34218 0.7466 0.0
Eu481 Eu 0.84099 0.29287 0.75499 0.0
C482 C 0.8909 0.37378 0.72477 0.0
C483 C 0.85985 0.37709 0.69456 0.0
C484 C 0.85938 0.40688 0.67313 0.0
C485 C 0.89006 0.43372 0.68143 0.0
C486 C 0.92034 0.43092 0.71307 0.0
C487 C 0.92065 0.40116 0.73463 0.0
C488 C 0.79257 0.25036 0.70202 0.0
C489 C 0.76789 0.32591 0.72423 0.0
C490 C 0.72641 0.20442 0.77304 0.0
Eu491 Eu 0.77866 0.25467 0.76932 0.0
C492 C 0.72603 0.17155 0.7923 0.0
C493 C 0.75726 0.16573 0.82052 0.0
C494 C 0.75683 0.13483 0.83968 0.0
C495 C 0.72489 0.10947 0.83156 0.0
C496 C 0.69408 0.11484 0.80194 0.0
C497 C 0.69472 0.14569 0.78234 0.0
C498 C 0.82226 0.29893 0.82135 0.0
C499 C 0.8529 0.22279 0.80095 0.0
O500 O 0.88093 0.33932 0.7736 0.0
O501 O 0.87909 0.31507 0.7282 0.0
O502 O 0.82675 0.25244 0.71466 0.0
O503 O 0.78637 0.27006 0.7178 0.0
O504 O 0.80347 0.33094 0.73404 0.0
O505 O 0.75013 0.29557 0.7322 0.0
O506 O 0.73865 0.20934 0.7467 0.0
O507 O 0.73915 0.22998 0.79378 0.0
O508 O 0.78749 0.29184 0.80905 0.0
O509 O 0.83277 0.28088 0.80731 0.0
O510 O 0.81726 0.21748 0.7909 0.0
O511 O 0.87041 0.25306 0.79276 0.0
H512 H 0.83633 0.35634 0.68688 0.0
H513 H 0.83564 0.40838 0.64904 0.0
H514 H 0.94461 0.45093 0.71995 0.0
H515 H 0.94447 0.3992 0.75835 0.0
H516 H 0.78168 0.18542 0.82872 0.0
H517 H 0.78097 0.13141 0.86226 0.0
H518 H 0.66887 0.09602 0.79539 0.0
H519 H 0.67049 0.14972 0.76032 0.0
C520 C 0.81398 0.79568 0.85976 0.0
Eu521 Eu 0.82134 0.78382 0.80158 0.0
C522 C 0.80447 0.81842 0.87648 0.0
C523 C 0.82215 0.8225 0.91422 0.0
C524 C 0.81076 0.84021 0.93222 0.0
C525 C 0.78134 0.85409 0.91272 0.0
C526 C 0.76473 0.85133 0.87449 0.0
C527 C 0.77623 0.83362 0.85645 0.0
C528 C 0.86555 0.82066 0.76796 0.0
C529 C 0.76503 0.81584 0.72305 0.0
C530 C 0.81325 0.74286 0.67155 0.0
Eu531 Eu 0.80647 0.75855 0.72852 0.0
C532 C 0.83343 0.72338 0.66414 0.0
C533 C 0.82165 0.71165 0.62914 0.0
C534 C 0.84294 0.69674 0.62041 0.0
C535 C 0.8764 0.69346 0.6466 0.0
C536 C 0.88731 0.70391 0.68218 0.0
C537 C 0.866 0.71878 0.69085 0.0
C538 C 0.76312 0.72411 0.76389 0.0
C539 C 0.86331 0.72712 0.8064 0.0
O540 O 0.78808 0.77799 0.8332 0.0
O541 O 0.84435 0.8061 0.85466 0.0
O542 O 0.87553 0.81589 0.80335 0.0
O543 O 0.83262 0.80753 0.75285 0.0
O544 O 0.77807 0.81202 0.76 0.0
O545 O 0.77382 0.79863 0.7041 0.0
O546 O 0.83268 0.76984 0.68947 0.0
O547 O 0.78744 0.72622 0.68286 0.0
O548 O 0.75086 0.73015 0.72854 0.0
O549 O 0.79634 0.7355 0.77729 0.0
O550 O 0.85158 0.73236 0.7697 0.0
O551 O 0.85277 0.74271 0.8252 0.0
H552 H 0.8439 0.81078 0.93008 0.0
H553 H 0.82381 0.84149 0.9617 0.0
H554 H 0.74225 0.86211 0.85871 0.0
H555 H 0.76235 0.83085 0.8272 0.0
H556 H 0.79653 0.71498 0.60823 0.0
H557 H 0.83361 0.68849 0.59292 0.0
H558 H 0.91309 0.70213 0.70285 0.0
H559 H 0.87569 0.72794 0.71796 0.0
C560 C 0.54393 0.58672 0.57215 0.0
Eu561 Eu 0.5687 0.55456 0.5362 0.0
C562 C 0.52604 0.60471 0.59056 0.0
C563 C 0.54501 0.62211 0.62363 0.0
C564 C 0.52828 0.63746 0.64033 0.0
C565 C 0.49085 0.63724 0.62562 0.0
C566 C 0.47197 0.62026 0.59211 0.0
C567 C 0.48871 0.6046 0.57556 0.0
C568 C 0.60958 0.58294 0.48437 0.0
C569 C 0.5087 0.557 0.45074 0.0
C570 C 0.57966 0.46441 0.45038 0.0
Eu571 Eu 0.55537 0.49633 0.48704 0.0
C572 C 0.59719 0.44636 0.43165 0.0
C573 C 0.57856 0.43126 0.39713 0.0
C574 C 0.59513 0.41624 0.37996 0.0
C575 C 0.63196 0.41439 0.39565 0.0
C576 C 0.65042 0.42898 0.4306 0.0
C577 C 0.63392 0.44445 0.44757 0.0
C578 C 0.51512 0.46809 0.53948 0.0
C579 C 0.61447 0.49299 0.57257 0.0
O580 O 0.52444 0.56701 0.54495 0.0
O581 O 0.57837 0.58899 0.58058 0.0
O582 O 0.60762 0.59659 0.51117 0.0
O583 O 0.58913 0.55245 0.48883 0.0
O584 O 0.52657 0.57026 0.48308 0.0
O585 O 0.51444 0.52818 0.44529 0.0
O586 O 0.59937 0.48381 0.47783 0.0
O587 O 0.54529 0.46223 0.44221 0.0
O588 O 0.51702 0.45419 0.51281 0.0
O589 O 0.53533 0.49853 0.5346 0.0
O590 O 0.59713 0.48019 0.53997 0.0
O591 O 0.60871 0.52179 0.57817 0.0
H592 H 0.57344 0.62384 0.63724 0.0
H593 H 0.54563 0.65006 0.66531 0.0
H594 H 0.44353 0.61838 0.57851 0.0
H595 H 0.47178 0.59206 0.55039 0.0
H596 H 0.55061 0.43127 0.38268 0.0
H597 H 0.5782 0.40558 0.35375 0.0
H598 H 0.67843 0.42919 0.44498 0.0
H599 H 0.65054 0.4552 0.47383 0.0
C600 C 0.06792 0.50094 0.9235 0.0
Eu601 Eu 0.06813 0.51164 0.9861 0.0
C602 C 1.06116 0.47082 0.90514 0.0
C603 C 1.052 0.47252 0.86722 0.0
C604 C 1.04432 0.44373 0.84917 0.0
C605 C 1.04561 0.41275 0.86885 0.0
C606 C 1.0537 0.41108 0.90682 0.0
C607 C 1.06131 0.43991 0.92482 0.0
C608 C 0.11151 0.56284 0.03108 0.0
C609 C 0.09718 0.46457 0.05886 0.0
C610 C 1.04719 0.52892 0.10536 0.0
Eu611 Eu 1.04369 0.51762 0.04144 0.0
C612 C 1.05432 0.55689 0.12765 0.0
C613 C 1.02899 0.55769 0.14183 0.0
C614 C 1.03608 0.58264 0.16499 0.0
C615 C 0.06863 0.60734 0.17429 0.0
C616 C 0.09386 0.60694 0.15972 0.0
C617 C 0.08697 0.5816 0.13697 0.0
C618 C 0.99566 0.47003 0.99527 0.0
C619 C 1.0134 0.56318 0.96694 0.0
O620 O 1.04001 0.50455 0.92784 0.0
O621 O 0.09719 0.50764 0.95276 0.0
O622 O 0.1238 0.54396 0.01899 0.0
O623 O 0.07798 0.55494 0.01742 0.0
O624 O 0.09337 0.46982 0.02387 0.0
O625 O 0.08144 0.48126 0.07099 0.0
O626 O 0.07429 0.5257 0.09902 0.0
O627 O 1.01702 0.52274 0.07695 0.0
O628 O 0.98764 0.48944 1.01131 0.0
O629 O 1.02943 0.47423 1.00686 0.0
O630 O 1.01869 0.55954 1.0025 0.0
O631 O 1.02833 0.54556 0.95494 0.0
H632 H 1.05119 0.49619 0.85164 0.0
H633 H 1.03895 0.44608 0.82007 0.0
H634 H 1.05478 0.38759 0.92268 0.0
H635 H 0.06749 0.43813 0.95408 0.0
H636 H 1.00385 0.53875 0.13536 0.0
H637 H 1.01595 0.58276 0.17548 0.0
H638 H 0.11911 0.62574 0.16655 0.0
H639 H 0.10743 0.58106 0.12723 0.0
H640 H 0.25345 0.16032 0.85408 0.0
H641 H 0.22091 0.25239 0.83606 0.0
H642 H 0.18231 0.22752 0.87146 0.0
H643 H 0.16303 0.10232 0.84952 0.0
H644 H 0.18088 0.07266 0.88518 0.0
H645 H 0.20698 0.09714 0.85898 0.0
H646 H 0.25888 0.11878 0.9184 0.0
H647 H 0.23285 0.09387 0.94449 0.0
H648 H 0.25028 0.13816 0.95016 0.0
H649 H 0.14246 0.18881 0.91685 0.0
H650 H 0.11277 0.14893 0.95432 0.0
H651 H 0.16279 0.07518 0.94637 0.0
C652 C 0.23845 0.17605 0.85704 0.0
C653 C 0.24332 0.21108 0.83906 0.0
C654 C 0.22065 0.22698 0.84674 0.0
C655 C 0.1975 0.21221 0.86806 0.0
C656 C 0.1937 0.17886 0.88454 0.0
C657 C 0.21391 0.16078 0.87884 0.0
C658 C 0.20426 0.12494 0.89946 0.0
C659 C 0.18786 0.09761 0.87165 0.0
C660 C 0.23863 0.11849 0.9299 0.0
C661 C 0.1759 0.1251 0.91731 0.0
C662 C 0.17081 0.15721 0.9083 0.0
C663 C 0.14719 0.16409 0.92256 0.0
C664 C 0.12935 0.13993 0.94493 0.0
C665 C 0.13158 0.10557 0.95566 0.0
C666 C 0.15691 0.09943 0.94015 0.0
H667 H 0.1584 0.95488 0.06576 0.0
H668 H 0.12749 0.97965 0.14796 0.0
H669 H 0.15991 0.9402 0.19261 0.0
H670 H 0.15353 0.86731 0.09244 0.0
H671 H 0.19273 0.86638 0.08475 0.0
H672 H 0.16737 0.89641 0.05931 0.0
H673 H 0.22438 0.94434 0.08159 0.0
H674 H 0.24997 0.91445 0.10699 0.0
H675 H 0.24991 0.94811 0.13003 0.0
H676 H 0.19358 0.89158 0.22896 0.0
H677 H 0.22816 0.84859 0.25283 0.0
H678 H 0.24473 0.85775 0.15084 0.0
C679 C 0.15869 0.95257 0.09332 0.0
C680 C 0.13958 0.97178 0.10232 0.0
C681 C 0.14149 0.96664 0.13926 0.0
C682 C 0.15998 0.94362 0.16513 0.0
C683 C 0.17801 0.9252 0.15515 0.0
C684 C 0.1781 0.93012 0.12005 0.0
C685 C 0.20054 0.90803 0.11649 0.0
C686 C 0.17715 0.88306 0.08645 0.0
C687 C 0.23313 0.93004 0.10827 0.0
C688 C 0.21275 0.88943 0.15463 0.0
C689 C 0.19888 0.89946 0.17633 0.0
C690 C 0.20471 0.88447 0.21185 0.0
C691 C 0.22474 0.85953 0.22546 0.0
C692 C 0.24068 0.84891 0.20494 0.0
C693 C 0.23418 0.86485 0.16849 0.0
H694 H 0.4796 0.904 0.48917 0.0
H695 H 0.4915 0.98872 0.41273 0.0
H696 H 0.44648 0.95473 0.36144 0.0
H697 H 0.46817 0.84069 0.42865 0.0
H698 H 0.4357 0.81001 0.44353 0.0
H699 H 0.46955 0.84072 0.47447 0.0
H700 H 0.42016 0.85914 0.48414 0.0
H701 H 0.38617 0.8286 0.45315 0.0
H702 H 0.3851 0.87194 0.44493 0.0
H703 H 0.39751 0.91295 0.31857 0.0
H704 H 0.35041 0.86458 0.28668 0.0
H705 H 0.37151 0.80548 0.38929 0.0
C706 C 0.47287 0.91526 0.46159 0.0
C707 C 0.48901 0.94912 0.45503 0.0
C708 C 0.47951 0.9629 0.41852 0.0
C709 C 0.4539 0.94379 0.38913 0.0
C710 C 0.43814 0.91068 0.39648 0.0
C711 C 0.44746 0.89633 0.43171 0.0
C712 C 0.4263 0.86011 0.43184 0.0
C713 C 0.45144 0.83649 0.44543 0.0
C714 C 0.40305 0.85464 0.45488 0.0
C715 C 0.40335 0.85658 0.39132 0.0
C716 C 0.4106 0.88614 0.37146 0.0
C717 C 0.39196 0.88955 0.33376 0.0
C718 C 0.36537 0.86199 0.31585 0.0
C719 C 0.35801 0.83135 0.33547 0.0
C720 C 0.37713 0.82862 0.37368 0.0
H721 H 0.51138 0.18342 0.7868 0.0
H722 H 0.4932 0.2678 0.7093 0.0
H723 H 0.52786 0.25384 0.67883 0.0
H724 H 0.60501 0.18571 0.78411 0.0
H725 H 0.59413 0.14074 0.7886 0.0
H726 H 0.57952 0.1639 0.81181 0.0
H727 H 0.5142 0.12966 0.78078 0.0
H728 H 0.52822 0.10695 0.7571 0.0
H729 H 0.49428 0.12923 0.73144 0.0
H730 H 0.54607 0.22143 0.64627 0.0
H731 H 0.54871 0.17528 0.61691 0.0
H732 H 0.55938 0.11348 0.71714 0.0
C733 C 0.51652 0.2002 0.76485 0.0
C734 C 0.49929 0.22646 0.75026 0.0
C735 C 0.5057 0.24719 0.72066 0.0
C736 C 0.52575 0.23969 0.70342 0.0
C737 C 0.54006 0.21196 0.71673 0.0
C738 C 0.53665 0.19309 0.74757 0.0
C739 C 0.54894 0.16143 0.75275 0.0
C740 C 0.58399 0.16306 0.78631 0.0
C741 C 0.51965 0.13003 0.75562 0.0
C742 C 0.55542 0.16339 0.71769 0.0
C743 C 0.5516 0.19331 0.69794 0.0
C744 C 0.55053 0.19848 0.66206 0.0
C745 C 0.552 0.17207 0.64553 0.0
C746 C 0.55411 0.1408 0.66481 0.0
C747 C 0.55772 0.13716 0.70185 0.0
H748 H 0.12163 1.00699 0.64601 0.0
H749 H 1.01635 0.94313 0.59555 0.0
H750 H 1.03206 0.89859 0.64258 0.0
H751 H 0.1667 0.96505 0.65061 0.0
H752 H 0.20243 0.97005 0.69512 0.0
H753 H 0.17851 1.0015 0.67614 0.0
H754 H 0.16148 0.99582 0.73286 0.0
H755 H 0.18709 0.96496 0.75251 0.0
H756 H 0.14104 0.95532 0.74852 0.0
H757 H 1.06511 0.85695 0.66718 0.0
H758 H 0.10817 0.8268 0.6698 0.0
H759 H 0.19499 0.91407 0.70903 0.0
C760 C 0.10143 0.98433 0.64705 0.0
C761 C 0.06826 0.97788 0.61771 0.0
C762 C 1.0419 0.94832 0.61833 0.0
C763 C 1.05075 0.9229 0.6451 0.0
C764 C 0.08582 0.92789 0.67103 0.0
C765 C 0.11041 0.95877 0.67349 0.0
C766 C 0.14819 0.95584 0.69668 0.0
C767 C 0.17542 0.97409 0.67843 0.0
C768 C 0.16011 0.96871 0.73492 0.0
C769 C 0.14205 0.9183 0.69886 0.0
C770 C 0.10577 0.90249 0.68659 0.0
C771 C 0.09348 0.86885 0.67825 0.0
C772 C 0.11817 0.85183 0.67957 0.0
C773 C 0.15475 0.86854 0.68904 0.0
C774 C 0.16696 0.90113 0.70143 0.0
H775 H 0.41542 0.8788 0.77973 0.0
H776 H 0.36043 0.81758 0.84878 0.0
H777 H 0.40048 0.85245 0.90029 0.0
H778 H 0.50681 0.90077 0.85361 0.0
H779 H 0.51664 0.94329 0.83582 0.0
H780 H 0.4875 0.91053 0.80509 0.0
H781 H 0.43793 0.94286 0.78047 0.0
H782 H 0.46684 0.9756 0.81116 0.0
H783 H 0.42313 0.95495 0.81218 0.0
H784 H 0.44134 0.89576 0.94286 0.0
H785 H 0.48055 0.94724 0.97388 0.0
H786 H 0.50934 0.98358 0.87886 0.0
C787 C 0.41259 0.87232 0.806 0.0
C788 C 0.38546 0.84463 0.81042 0.0
C789 C 0.38173 0.83775 0.84489 0.0
C790 C 0.40428 0.85761 0.87445 0.0
C791 C 0.4304 0.88481 0.86929 0.0
C792 C 0.43477 0.89245 0.83603 0.0
C793 C 0.46286 0.92523 0.83742 0.0
C794 C 0.49538 0.91961 0.8327 0.0
C795 C 0.44671 0.95119 0.8086 0.0
C796 C 0.47253 0.93497 0.87613 0.0
C797 C 0.45378 0.9109 0.89407 0.0
C798 C 0.45659 0.91465 0.92935 0.0
C799 C 0.47893 0.94398 0.94678 0.0
C800 C 0.49812 0.96925 0.92892 0.0
C801 C 0.49517 0.96449 0.89328 0.0
H802 H 0.48186 0.18595 0.03583 0.0
H803 H 0.40263 0.1387 0.93642 0.0
H804 H 0.35436 0.14002 0.95625 0.0
H805 H 0.4379 0.13792 0.09412 0.0
H806 H 0.45064 0.17155 0.12366 0.0
H807 H 0.47875 0.16997 0.09997 0.0
H808 H 0.47537 0.22947 0.07069 0.0
H809 H 0.44777 0.2315 0.09477 0.0
H810 H 0.43217 0.23826 0.04563 0.0
H811 H 0.31478 0.14533 0.98847 0.0
H812 H 0.28756 0.1557 0.02951 0.0
H813 H 0.39385 0.19453 0.10917 0.0
C814 C 0.45442 0.17586 0.01807 0.0
C815 C 0.4462 0.1623 0.98448 0.0
C816 C 0.40975 0.14987 0.96195 0.0
C817 C 0.3821 0.15012 0.97318 0.0
C818 C 0.39137 0.16256 1.00713 0.0
C819 C 0.42669 0.17523 0.02916 0.0
C820 C 0.42989 0.18587 0.06506 0.0
C821 C 0.45051 0.16508 0.09761 0.0
C822 C 0.44731 0.22351 0.06926 0.0
C823 C 0.3908 0.17756 0.05971 0.0
C824 C 0.36888 0.16421 0.02615 0.0
C825 C 0.33163 0.15562 1.01488 0.0
C826 C 0.31646 0.16148 0.03831 0.0
C827 C 0.33867 0.17535 0.07268 0.0
C828 C 0.37623 0.18306 0.08349 0.0
H829 H 0.22763 0.10819 0.43462 0.0
H830 H 0.18911 1.0161 0.37798 0.0
H831 H 0.19813 0.04811 0.32335 0.0
H832 H 0.18777 0.15956 0.35806 0.0
H833 H 0.22497 0.1959 0.37016 0.0
H834 H 0.21636 0.16611 0.40545 0.0
H835 H 0.28089 0.15825 0.42917 0.0
H836 H 0.28993 0.18875 0.39462 0.0
H837 H 0.29689 0.14773 0.39758 0.0
H838 H 0.21128 0.08972 0.27531 0.0
H839 H 0.23169 0.13808 0.23801 0.0
H840 H 0.26187 0.20292 0.32584 0.0
C841 C 0.22176 0.09466 0.411 0.0
C842 C 0.20776 0.05961 0.41055 0.0
C843 C 0.19966 0.04294 0.3788 0.0
C844 C 0.20465 0.0609 0.34768 0.0
C845 C 0.21771 0.09546 0.34879 0.0
C846 C 0.22654 0.11218 0.37972 0.0
C847 C 0.24041 0.14945 0.37378 0.0
C848 C 0.2159 0.16888 0.37706 0.0
C849 C 0.27934 0.16175 0.40036 0.0
C850 C 0.23811 0.15104 0.33469 0.0
C851 C 0.22478 0.11962 0.32078 0.0
C852 C 0.22149 0.11447 0.28578 0.0
C853 C 0.23302 0.14206 0.2648 0.0
C854 C 0.24741 0.17435 0.27878 0.0
C855 C 0.24953 0.17891 0.31393 0.0
H856 H 0.89658 0.26713 0.18017 0.0
H857 H 0.86114 0.18449 0.24822 0.0
H858 H 0.88765 0.14914 0.2284 0.0
H859 H 0.88569 0.2172 0.10554 0.0
H860 H 0.92583 0.2412 0.09832 0.0
H861 H 0.90308 0.26062 0.11615 0.0
H862 H 0.96132 0.27852 0.17196 0.0
H863 H 0.98425 0.25919 0.15427 0.0
H864 H 0.9841 0.24746 0.19977 0.0
H865 H 0.91989 0.11976 0.2008 0.0
H866 H 0.95233 0.10194 0.17047 0.0
H867 H 0.97412 0.20193 0.12139 0.0
C868 C 0.89441 0.24164 0.19133 0.0
C869 C 0.87546 0.22968 0.21663 0.0
C870 C 0.8747 0.19567 0.22949 0.0
C871 C 0.89023 0.17491 0.21827 0.0
C872 C 0.90863 0.18734 0.19416 0.0
C873 C 0.91114 0.22026 0.18101 0.0
C874 C 0.93335 0.22719 0.15582 0.0
C875 C 0.91065 0.23717 0.11662 0.0
C876 C 0.9678 0.25475 0.17136 0.0
C877 C 0.94263 0.19337 0.15659 0.0
C878 C 0.9276 0.17074 0.17886 0.0
C879 C 0.93149 0.1378 0.18348 0.0
C880 C 0.95037 0.1276 0.16554 0.0
C881 C 0.96702 0.14945 0.14237 0.0
C882 C 0.96272 0.18351 0.13856 0.0
H883 H 0.19881 0.54764 0.52304 0.0
H884 H 0.12069 0.4643 0.46168 0.0
H885 H 0.15392 0.47176 0.42091 0.0
H886 H 0.20271 0.59865 0.45969 0.0
H887 H 0.2499 0.61893 0.47425 0.0
H888 H 0.23141 0.59826 0.50755 0.0
H889 H 0.27662 0.56138 0.53108 0.0
H890 H 0.2959 0.58244 0.49783 0.0
H891 H 0.28031 0.53756 0.4995 0.0
H892 H 0.17789 0.50174 0.37474 0.0
H893 H 0.19419 0.54714 0.33227 0.0
H894 H 0.25983 0.61042 0.42352 0.0
C895 C 0.19032 0.52978 0.5024 0.0
C896 C 0.15761 0.50554 0.49522 0.0
C897 C 0.14615 0.48274 0.46776 0.0
C898 C 0.16494 0.48686 0.44448 0.0
C899 C 0.19547 0.51332 0.44983 0.0
C900 C 0.20902 0.53362 0.47922 0.0
C901 C 0.23754 0.56405 0.47514 0.0
C902 C 0.22983 0.59683 0.47932 0.0
C903 C 0.2748 0.56117 0.5025 0.0
C904 C 0.23367 0.56059 0.4364 0.0
C905 C 0.21055 0.53045 0.4228 0.0
C906 C 0.19723 0.5247 0.3855 0.0
C907 C 0.20634 0.55072 0.36146 0.0
C908 C 0.22851 0.5821 0.37482 0.0
C909 C 0.24382 0.58628 0.41287 0.0
H910 H 0.65426 0.9367 0.55421 0.0
H911 H 0.62141 0.96256 0.63465 0.0
H912 H 0.65565 0.92669 0.68121 0.0
H913 H 0.65043 0.84888 0.58797 0.0
H914 H 0.68954 0.84677 0.58085 0.0
H915 H 0.66329 0.87533 0.55272 0.0
H916 H 0.71978 0.92436 0.57102 0.0
H917 H 0.74616 0.8959 0.59921 0.0
H918 H 0.74574 0.93158 0.61886 0.0
H919 H 0.69469 0.88726 0.72208 0.0
H920 H 0.73265 0.84763 0.75142 0.0
H921 H 0.74195 0.84241 0.64795 0.0
C922 C 0.65431 0.93505 0.58161 0.0
C923 C 0.63412 0.95358 0.58959 0.0
C924 C 0.63571 0.94948 0.62646 0.0
C925 C 0.6555 0.9288 0.65371 0.0
C926 C 0.67457 0.91105 0.64509 0.0
C927 C 0.67419 0.91378 0.60984 0.0
C928 C 0.69693 0.89101 0.60851 0.0
C929 C 0.67366 0.86389 0.58085 0.0
C930 C 0.72905 0.91196 0.5988 0.0
C931 C 0.7098 0.87526 0.6481 0.0
C932 C 0.69658 0.88758 0.66864 0.0
C933 C 0.7049 0.87753 0.7059 0.0
C934 C 0.72684 0.85466 0.72262 0.0
C935 C 0.74097 0.84077 0.70289 0.0
C936 C 0.73187 0.85171 0.66457 0.0
H937 H 0.5175 0.45912 0.92464 0.0
H938 H 0.48357 0.43339 0.0172 0.0
H939 H 0.43249 0.38916 0.98231 0.0
H940 H 0.42722 0.44646 0.85451 0.0
H941 H 0.43841 0.42975 0.82282 0.0
H942 H 0.4722 0.45956 0.85493 0.0
H943 H 0.51277 0.41812 0.87943 0.0
H944 H 0.47922 0.38829 0.84731 0.0
H945 H 0.49543 0.37659 0.89558 0.0
H946 H 0.38816 0.34536 0.93944 0.0
H947 H 0.35145 0.30599 0.89014 0.0
H948 H 0.41067 0.36241 0.82301 0.0
C949 C 0.49931 0.44405 0.93749 0.0
C950 C 0.50451 0.44931 0.97367 0.0
C951 C 0.47999 0.42958 0.98952 0.0
C952 C 0.45093 0.40449 0.96991 0.0
C953 C 0.44644 0.39989 0.93425 0.0
C954 C 0.46972 0.41928 0.918 0.0
C955 C 0.45863 0.40919 0.87922 0.0
C956 C 0.44851 0.43796 0.85122 0.0
C957 C 0.48827 0.39734 0.87516 0.0
C958 C 0.42599 0.38053 0.87653 0.0
C959 C 0.41955 0.37563 0.90867 0.0
C960 C 0.39253 0.34928 0.91393 0.0
C961 C 0.37186 0.32708 0.88584 0.0
C962 C 0.37792 0.33159 0.85273 0.0
C963 C 0.40494 0.35898 0.84775 0.0
H964 H 0.90145 0.86125 0.31135 0.0
H965 H 0.85463 0.8028 0.38798 0.0
H966 H 0.88829 0.84717 0.43242 0.0
H967 H 0.98718 0.88554 0.37594 0.0
H968 H 0.99835 0.92684 0.35563 0.0
H969 H 0.96569 0.89382 0.32738 0.0
H970 H 0.91922 0.92956 0.30444 0.0
H971 H 0.95173 0.96278 0.33282 0.0
H972 H 0.90884 0.94564 0.33717 0.0
H973 H 0.92981 0.89594 0.46986 0.0
H974 H 0.98166 0.94163 0.50064 0.0
H975 H 1.0058 0.96526 0.40199 0.0
C976 C 0.89781 0.85824 0.33722 0.0
C977 C 0.87537 0.82895 0.34636 0.0
C978 C 0.87177 0.82523 0.38067 0.0
C979 C 0.89049 0.85038 0.40586 0.0
C980 C 0.91299 0.87882 0.39638 0.0
C981 C 0.91702 0.88273 0.36303 0.0
C982 C 0.94626 0.9135 0.36144 0.0
C983 C 0.97613 0.90436 0.35472 0.0
C984 C 0.93057 0.93941 0.33223 0.0
C985 C 0.95911 0.92542 0.39966 0.0
C986 C 0.93869 0.90581 0.41889 0.0
C987 C 0.9459 0.91155 0.45504 0.0
C988 C 0.97534 0.9375 0.47228 0.0
C989 C 0.99765 0.95661 0.45363 0.0
C990 C 0.98907 0.95086 0.41675 0.0
H991 H 0.42449 0.66202 0.59985 0.0
H992 H 0.51399 0.65012 0.70008 0.0
H993 H 0.49004 0.67474 0.73393 0.0
H994 H 0.41803 0.7426 0.62163 0.0
H995 H 0.36977 0.73319 0.60247 0.0
H996 H 0.39322 0.71437 0.58492 0.0
H997 H 0.35683 0.65595 0.59757 0.0
H998 H 0.33331 0.67461 0.61519 0.0
H999 H 0.35662 0.64391 0.64302 0.0
H1000 H 0.45548 0.70299 0.76008 0.0
H1001 H 0.4156 0.72811 0.77354 0.0
H1002 H 0.3459 0.72506 0.65927 0.0
C1003 C 0.43943 0.66443 0.62896 0.0
C1004 C 0.47278 0.6534 0.64588 0.0
C1005 C 0.48962 0.65807 0.68454 0.0
C1006 C 0.4757 0.67226 0.70472 0.0
C1007 C 0.44374 0.68293 0.68733 0.0
C1008 C 0.42568 0.67919 0.65004 0.0
C1009 C 0.3917 0.69308 0.63835 0.0
C1010 C 0.39325 0.72255 0.61014 0.0
C1011 C 0.35758 0.66524 0.62256 0.0
C1012 C 0.39335 0.70506 0.67444 0.0
C1013 C 0.42382 0.69868 0.70234 0.0
C1014 C 0.43145 0.70728 0.73807 0.0
C1015 C 0.40809 0.72179 0.74577 0.0
C1016 C 0.37619 0.72916 0.71864 0.0
C1017 C 0.36947 0.72046 0.6818 0.0
H1018 H 0.67796 0.06274 0.99739 0.0
H1019 H 0.60217 0.9757 0.94123 0.0
H1020 H 0.63894 0.97794 0.90513 0.0
H1021 H 0.68856 0.10828 0.93124 0.0
H1022 H 0.73609 0.12718 0.94949 0.0
H1023 H 0.71304 0.11079 0.98005 0.0
H1024 H 0.7565 0.07277 1.0134 0.0
H1025 H 0.77998 0.08929 0.98259 0.0
H1026 H 0.76264 0.04485 0.98771 0.0
H1027 H 0.66801 1.00243 0.86113 0.0
H1028 H 0.68916 0.0435 0.81798 0.0
H1029 H 0.75038 0.11239 0.90482 0.0
C1030 C 0.67046 0.04324 0.97881 0.0
C1031 C 0.63764 1.01927 0.97162 0.0
C1032 C 0.62764 0.9941 0.94708 0.0
C1033 C 0.64847 0.99515 0.92664 0.0
C1034 C 0.67965 1.02086 0.93217 0.0
C1035 C 0.6914 0.04373 0.95885 0.0
C1036 C 0.72182 0.07222 0.95533 0.0
C1037 C 0.71434 0.10656 0.95385 0.0
C1038 C 0.75734 0.0696 0.98661 0.0
C1039 C 0.72139 0.06475 0.91924 0.0
C1040 C 0.69806 0.03429 0.90701 0.0
C1041 C 0.68751 0.02557 0.87102 0.0
C1042 C 0.69941 0.04912 0.84655 0.0
C1043 C 0.7216 0.08097 0.85826 0.0
C1044 C 0.73443 0.08781 0.89551 0.0
H1045 H 0.14253 0.4269 0.05131 0.0
H1046 H 0.10191 0.44436 0.12948 0.0
H1047 H 0.13447 0.40626 0.17472 0.0
H1048 H 0.14003 0.33791 0.07847 0.0
H1049 H 0.18145 0.33918 0.07402 0.0
H1050 H 0.15501 0.36784 0.04658 0.0
H1051 H 0.2097 0.41752 0.07115 0.0
H1052 H 0.23626 0.38898 0.09867 0.0
H1053 H 0.23227 0.42175 0.11992 0.0
H1054 H 0.1721 0.36538 0.2139 0.0
H1055 H 0.21091 0.32682 0.2428 0.0
H1056 H 0.23126 0.33237 0.14315 0.0
C1057 C 0.14031 0.42274 0.07789 0.0
C1058 C 0.11857 0.4396 0.08575 0.0
C1059 C 0.11755 0.43265 0.12157 0.0
C1060 C 0.13628 0.41066 0.14795 0.0
C1061 C 0.15711 0.39476 0.13947 0.0
C1062 C 0.15946 0.40052 0.10528 0.0
C1063 C 0.18447 0.38002 0.10412 0.0
C1064 C 0.16402 0.35474 0.07399 0.0
C1065 C 0.21764 0.40346 0.09808 0.0
C1066 C 0.19538 0.3618 0.14259 0.0
C1067 C 0.17908 0.37102 0.16231 0.0
C1068 C 0.18478 0.3582 0.19837 0.0
C1069 C 0.2073 0.33587 0.21483 0.0
C1070 C 0.22498 0.3253 0.19619 0.0
C1071 C 0.21845 0.33895 0.15893 0.0
H1072 H 0.7472 0.63961 0.95097 0.0
H1073 H 0.63165 0.62067 0.89784 0.0
H1074 H 0.63797 0.64717 0.83986 0.0
H1075 H 0.767 0.72055 0.90506 0.0
H1076 H 0.80655 0.71435 0.90227 0.0
H1077 H 0.79244 0.69428 0.93929 0.0
H1078 H 0.79122 0.63668 0.92174 0.0
H1079 H 0.80517 0.65671 0.88464 0.0
H1080 H 0.76469 0.62362 0.87565 0.0
H1081 H 0.65767 0.67499 0.78678 0.0
H1082 H 0.68955 0.7037 0.74502 0.0
H1083 H 0.79115 0.70374 0.83465 0.0
C1084 C 0.7233 0.64106 0.92711 0.0
C1085 C 0.68902 0.62828 0.92872 0.0
C1086 C 0.65823 0.63077 0.89709 0.0
C1087 C 0.66151 0.64558 0.86405 0.0
C1088 C 0.69579 0.65791 0.86329 0.0
C1089 C 0.72612 0.65601 0.89413 0.0
C1090 C 0.7599 0.67145 0.88646 0.0
C1091 C 0.7828 0.70196 0.90964 0.0
C1092 C 0.78149 0.64556 0.89247 0.0
C1093 C 0.74387 0.68178 0.8464 0.0
C1094 C 0.70692 0.67393 0.8333 0.0
C1095 C 0.68665 0.68133 0.7968 0.0
C1096 C 0.70485 0.69747 0.77332 0.0
C1097 C 0.74269 0.70593 0.78671 0.0
C1098 C 0.76219 0.69771 0.8236 0.0
H1099 H 0.62486 0.35926 0.14214 0.0
H1100 H 0.71114 0.42181 0.2256 0.0
H1101 H 0.66841 0.44905 0.22964 0.0
H1102 H 0.58763 0.41226 0.09168 0.0
H1103 H 0.5409 0.39077 0.07961 0.0
H1104 H 0.57369 0.36722 0.09465 0.0
H1105 H 0.55072 0.33777 0.14593 0.0
H1106 H 0.51779 0.36196 0.13101 0.0
H1107 H 0.54861 0.36219 0.17801 0.0
H1108 H 0.62622 0.48259 0.20799 0.0
H1109 H 0.59218 0.51851 0.16133 0.0
H1110 H 0.5272 0.43384 0.09543 0.0
C1111 C 0.63432 0.3775 0.16257 0.0
C1112 C 0.67127 0.38876 0.18308 0.0
C1113 C 0.683 0.41335 0.20886 0.0
C1114 C 0.65871 0.42844 0.21194 0.0
C1115 C 0.62262 0.41846 0.18942 0.0
C1116 C 0.61025 0.39284 0.16576 0.0
C1117 C 0.57231 0.39154 0.13905 0.0
C1118 C 0.56852 0.39049 0.09896 0.0
C1119 C 0.54579 0.36159 0.14913 0.0
C1120 C 0.568 0.42403 0.14674 0.0
C1121 C 0.59632 0.43803 0.1776 0.0
C1122 C 0.60319 0.47141 0.18484 0.0
C1123 C 0.58361 0.49181 0.15821 0.0
C1124 C 0.55705 0.47848 0.12529 0.0
C1125 C 0.54671 0.44385 0.12124 0.0
H1126 H 1.02782 0.47679 0.39354 0.0
H1127 H 0.99742 0.43942 0.48743 0.0
H1128 H 0.95576 0.38997 0.45457 0.0
H1129 H 0.94068 0.45296 0.3267 0.0
H1130 H 0.95387 0.44077 0.29373 0.0
H1131 H 0.98477 0.47179 0.32581 0.0
H1132 H 1.03169 0.43665 0.3481 0.0
H1133 H 1.00089 0.40547 0.31602 0.0
H1134 H 1.01971 0.39377 0.36409 0.0
H1135 H 0.91314 0.34803 0.4108 0.0
H1136 H 0.87154 0.31495 0.35778 0.0
H1137 H 0.92826 0.37673 0.29056 0.0
C1138 C 1.01281 0.45785 0.40726 0.0
C1139 C 1.0163 0.46178 0.44332 0.0
C1140 C 0.99575 0.43676 0.46017 0.0
C1141 C 0.97188 0.40852 0.44166 0.0
C1142 C 0.96867 0.40546 0.40614 0.0
C1143 C 0.9885 0.42927 0.38897 0.0
C1144 C 0.97783 0.42051 0.34967 0.0
C1145 C 0.96343 0.44815 0.32237 0.0
C1146 C 1.00942 0.41369 0.34415 0.0
C1147 C 0.94828 0.38868 0.34735 0.0
C1148 C 0.94383 0.38048 0.38049 0.0
C1149 C 0.9168 0.35371 0.3849 0.0
C1150 C 0.89334 0.33493 0.35459 0.0
C1151 C 0.89708 0.34267 0.32023 0.0
C1152 C 0.92526 0.36972 0.31671 0.0
H1153 H 0.65639 0.57319 0.43986 0.0
H1154 H 0.618 0.65075 0.45979 0.0
H1155 H 0.64826 0.69074 0.42295 0.0
H1156 H 0.74668 0.63032 0.4428 0.0
H1157 H 0.74974 0.61118 0.40713 0.0
H1158 H 0.72399 0.58711 0.43384 0.0
H1159 H 0.66882 0.57234 0.37494 0.0
H1160 H 0.69444 0.59637 0.34809 0.0
H1161 H 0.65324 0.60531 0.34303 0.0
H1162 H 0.68707 0.72912 0.37678 0.0
H1163 H 0.72391 0.75337 0.33936 0.0
H1164 H 0.746 0.65747 0.34627 0.0
C1165 C 0.65333 0.5984 0.43657 0.0
C1166 C 0.63113 0.60566 0.45531 0.0
C1167 C 0.63217 0.64099 0.44793 0.0
C1168 C 0.65034 0.6652 0.42594 0.0
C1169 C 0.67099 0.65729 0.40862 0.0
C1170 C 0.67278 0.62411 0.41416 0.0
C1171 C 0.69826 0.62285 0.39321 0.0
C1172 C 0.73164 0.61217 0.42087 0.0
C1173 C 0.67748 0.59768 0.36304 0.0
C1174 C 0.71022 0.65939 0.37507 0.0
C1175 C 0.69349 0.67873 0.38448 0.0
C1176 C 0.69963 0.71288 0.37051 0.0
C1177 C 0.72173 0.72725 0.34807 0.0
C1178 C 0.74103 0.71002 0.33688 0.0
C1179 C 0.73374 0.67419 0.3522 0.0
H1180 H 0.89626 0.32737 0.84562 0.0
H1181 H 0.80039 0.32316 0.86498 0.0
H1182 H 0.83568 0.36329 0.91311 0.0
H1183 H 0.95933 0.33741 0.94036 0.0
H1184 H 0.99477 0.36765 0.92971 0.0
H1185 H 0.96367 0.33697 0.89718 0.0
H1186 H 0.94781 0.38302 0.84744 0.0
H1187 H 0.97821 0.41497 0.87867 0.0
H1188 H 0.93184 0.41556 0.85551 0.0
H1189 H 0.8788 0.40461 0.95671 0.0
H1190 H 0.92831 0.44757 0.9938 0.0
H1191 H 0.99893 0.42914 0.94774 0.0
C1192 C 0.88287 0.33479 0.86022 0.0
C1193 C 0.84541 0.32195 0.85149 0.0
C1194 C 0.8289 0.33248 0.87108 0.0
C1195 C 0.84877 0.35529 0.89859 0.0
C1196 C 0.8853 0.36782 0.90622 0.0
C1197 C 0.9024 0.35825 0.88767 0.0
C1198 C 0.94182 0.37742 0.90048 0.0
C1199 C 0.96635 0.35342 0.91795 0.0
C1200 C 0.95042 0.39899 0.86862 0.0
C1201 C 0.94391 0.39908 0.92906 0.0
C1202 C 0.9108 0.39272 0.93173 0.0
C1203 C 0.90492 0.40973 0.95506 0.0
C1204 C 0.93339 0.43421 0.97607 0.0
C1205 C 0.96773 0.44176 0.97401 0.0
C1206 C 0.97317 0.42365 0.95033 0.0
H1207 H 0.86819 0.88603 0.16505 0.0
H1208 H 0.91516 0.80141 0.19886 0.0
H1209 H 0.95461 0.82733 0.16447 0.0
H1210 H 0.87439 0.90137 0.07027 0.0
H1211 H 0.88577 0.9463 0.06999 0.0
H1212 H 0.86045 0.92161 0.09683 0.0
H1213 H 0.90733 0.95132 0.15429 0.0
H1214 H 0.9328 0.97604 0.12759 0.0
H1215 H 0.95376 0.95159 0.16764 0.0
H1216 H 0.9945 0.86654 0.11902 0.0
H1217 H 1.02221 0.90595 0.07955 0.0
H1218 H 0.95643 0.97158 0.07098 0.0
C1219 C 0.88658 0.87217 0.16581 0.0
C1220 C 0.88542 0.83892 0.18773 0.0
C1221 C 0.91223 0.82532 0.18469 0.0
C1222 C 0.93598 0.84074 0.16411 0.0
C1223 C 0.93611 0.87236 0.14369 0.0
C1224 C 0.91156 0.88805 0.14465 0.0
C1225 C 0.9175 0.92229 0.1202 0.0
C1226 C 0.88243 0.92298 0.08739 0.0
C1227 C 0.92845 0.95211 0.1438 0.0
C1228 C 0.94871 0.92402 0.10557 0.0
C1229 C 0.95863 0.89425 0.11965 0.0
C1230 C 0.98589 0.88944 0.10926 0.0
C1231 C 1.00254 0.91331 0.08572 0.0
C1232 C 0.99531 0.94543 0.06989 0.0
C1233 C 0.96626 0.94937 0.08137 0.0
H1234 H 0.92454 0.22265 0.85513 0.0
H1235 H 0.82643 0.15445 0.79164 0.0
H1236 H 0.85452 0.10715 0.81851 0.0
H1237 H 0.98861 0.17912 0.85402 0.0
H1238 H 1.01818 0.18613 0.90103 0.0
H1239 H 0.99138 0.21507 0.87557 0.0
H1240 H 0.96439 0.20703 0.92516 0.0
H1241 H 0.99126 0.17822 0.95085 0.0
H1242 H 0.9433 0.16552 0.93794 0.0
H1243 H 0.89717 0.0642 0.8525 0.0
H1244 H 0.94266 0.03374 0.89322 0.0
H1245 H 1.01177 0.12689 0.94137 0.0
C1246 C 0.90878 0.19784 0.84653 0.0
C1247 C 0.8724 0.19359 0.81984 0.0
C1248 C 0.85383 0.15974 0.81116 0.0
C1249 C 0.86994 0.13218 0.82655 0.0
C1250 C 0.90544 0.13723 0.8523 0.0
C1251 C 0.92437 0.16943 0.8628 0.0
C1252 C 0.96136 0.16777 0.89289 0.0
C1253 C 0.99169 0.18826 0.88013 0.0
C1254 C 0.96532 0.1804 0.92885 0.0
C1255 C 0.96065 0.13007 0.89745 0.0
C1256 C 0.92829 0.11286 0.87322 0.0
C1257 C 0.92223 0.07799 0.87159 0.0
C1258 C 0.94877 0.0605 0.89503 0.0
C1259 C 0.982 0.07682 0.9215 0.0
C1260 C 0.98725 0.11262 0.92202 0.0
H1261 H 0.78588 0.1847 0.68938 0.0
H1262 H 0.73257 0.26554 0.6524 0.0
H1263 H 0.6803 0.22904 0.60851 0.0
H1264 H 0.75252 0.14741 0.60149 0.0
H1265 H 0.74582 0.10497 0.62026 0.0
H1266 H 0.77993 0.13775 0.648 0.0
H1267 H 0.75169 0.12115 0.69739 0.0
H1268 H 0.71721 0.08856 0.66958 0.0
H1269 H 0.70515 0.12002 0.68485 0.0
H1270 H 0.63474 0.18532 0.56736 0.0
H1271 H 0.59762 0.13587 0.53116 0.0
H1272 H 0.67627 0.08027 0.59662 0.0
C1273 C 0.76341 0.19473 0.6715 0.0
C1274 C 0.76353 0.2282 0.67374 0.0
C1275 C 0.7332 0.24015 0.6508 0.0
C1276 C 0.7033 0.21955 0.62588 0.0
C1277 C 0.70363 0.18664 0.62457 0.0
C1278 C 0.7327 0.17408 0.64677 0.0
C1279 C 0.72516 0.13728 0.64026 0.0
C1280 C 0.75248 0.13152 0.62669 0.0
C1281 C 0.72478 0.11546 0.6751 0.0
C1282 C 0.6878 0.13153 0.61036 0.0
C1283 C 0.67607 0.1605 0.60189 0.0
C1284 C 0.64341 0.16237 0.57401 0.0
C1285 C 0.62247 0.13418 0.55364 0.0
C1286 C 0.63373 0.1042 0.56158 0.0
C1287 C 0.66661 0.10265 0.59071 0.0
H1288 H 0.74364 0.966 0.45994 0.0
H1289 H 0.74698 0.06476 0.40646 0.0
H1290 H 0.7882 0.05709 0.38033 0.0
H1291 H 0.84005 0.96356 0.46976 0.0
H1292 H 0.82344 0.91987 0.46034 0.0
H1293 H 0.80598 0.93748 0.48579 0.0
H1294 H 0.74162 0.91537 0.43931 0.0
H1295 H 0.75868 0.89806 0.41371 0.0
H1296 H 0.73131 0.92718 0.39126 0.0
H1297 H 0.81033 0.03283 0.34451 0.0
H1298 H 0.81454 0.99511 0.30554 0.0
H1299 H 0.79868 0.912 0.38212 0.0
C1300 C 0.7545 0.9865 0.4441 0.0
C1301 C 0.74222 1.01589 0.43517 0.0
C1302 C 0.75648 0.04221 0.41409 0.0
C1303 C 0.77997 0.03805 0.39912 0.0
C1304 C 0.78946 1.00769 0.40607 0.0
C1305 C 0.77792 0.98261 0.42895 0.0
C1306 C 0.78637 0.95038 0.42686 0.0
C1307 C 0.81571 0.94236 0.46282 0.0
C1308 C 0.75249 0.92109 0.41716 0.0
C1309 C 0.80036 0.96009 0.39607 0.0
C1310 C 0.80326 0.99359 0.38537 0.0
C1311 C 0.80957 1.00692 0.35348 0.0
C1312 C 0.81165 0.98533 0.33133 0.0
C1313 C 0.80739 0.95086 0.3412 0.0
C1314 C 0.80327 0.9385 0.37471 0.0
H1315 H 0.99501 0.19916 0.35509 0.0
H1316 H 0.90647 0.12423 0.28927 0.0
H1317 H 0.94815 0.09263 0.29178 0.0
H1318 H 0.07042 0.17527 0.32799 0.0
H1319 H 0.10141 0.18414 0.37415 0.0
H1320 H 0.07076 0.21005 0.34962 0.0
H1321 H 1.04801 0.1998 0.40271 0.0
H1322 H 0.07816 0.17428 0.42698 0.0
H1323 H 1.03083 0.15747 0.41728 0.0
H1324 H 0.98822 0.05885 0.32338 0.0
H1325 H 1.01695 0.02878 0.3805 0.0
H1326 H 0.08447 0.12175 0.42868 0.0
C1327 C 0.98493 0.17712 0.33941 0.0
C1328 C 0.94771 0.16406 0.32209 0.0
C1329 C 0.93495 0.13466 0.30278 0.0
C1330 C 0.95867 0.11675 0.30372 0.0
C1331 C 0.99512 0.12829 0.32447 0.0
C1332 C 1.00847 0.15857 0.3412 0.0
C1333 C 1.04604 0.16131 0.36959 0.0
C1334 C 0.07378 0.18402 0.35441 0.0
C1335 C 1.0509 0.17382 0.40626 0.0
C1336 C 1.04781 0.12529 0.37262 0.0
C1337 C 1.01988 0.10751 0.3439 0.0
C1338 C 1.01078 0.07262 0.34512 0.0
C1339 C 1.02716 0.05557 0.37774 0.0
C1340 C 1.05278 0.07345 0.40825 0.0
C1341 C 0.06557 0.10818 0.40475 0.0
H1342 H 0.69937 0.18147 0.22892 0.0
H1343 H 0.75509 0.2433 0.16091 0.0
H1344 H 0.71505 0.20833 0.10885 0.0
H1345 H 0.69142 0.10578 0.19719 0.0
H1346 H 0.64756 0.08545 0.19797 0.0
H1347 H 0.67647 0.11825 0.22854 0.0
H1348 H 0.62724 0.15101 0.20332 0.0
H1349 H 0.59803 0.11813 0.17279 0.0
H1350 H 0.60816 0.16052 0.15472 0.0
H1351 H 0.6742 0.16372 0.06628 0.0
H1352 H 0.63473 0.11192 0.03584 0.0
H1353 H 0.60528 0.07739 0.13066 0.0
C1354 C 0.70237 0.18816 0.20274 0.0
C1355 C 0.72993 0.21559 0.19878 0.0
C1356 C 0.73374 0.22293 0.16441 0.0
C1357 C 0.71116 0.20311 0.13464 0.0
C1358 C 0.68484 0.17583 0.13957 0.0
C1359 C 0.68016 0.1683 0.17267 0.0
C1360 C 0.65193 0.13573 0.17142 0.0
C1361 C 0.66781 0.10978 0.2005 0.0
C1362 C 0.61941 0.14171 0.17582 0.0
C1363 C 0.6424 0.12574 0.13293 0.0
C1364 C 0.6614 0.14951 0.11493 0.0
C1365 C 0.65873 0.14517 0.07985 0.0
C1366 C 0.63624 0.11566 0.06276 0.0
C1367 C 0.61677 0.09081 0.08075 0.0
C1368 C 0.61964 0.09613 0.11614 0.0
H1369 H 0.71067 0.8437 0.90134 0.0
H1370 H 0.81749 0.89534 0.97047 0.0
H1371 H 0.79189 0.91281 1.00863 0.0
H1372 H 0.66469 0.90475 0.90519 0.0
H1373 H 0.62549 0.8727 0.90559 0.0
H1374 H 0.65236 0.86651 0.88262 0.0
H1375 H 0.65954 0.81135 0.92175 0.0
H1376 H 0.63326 0.8177 0.94527 0.0
H1377 H 0.67776 0.81213 0.97104 0.0
H1378 H 0.75464 0.92229 0.04069 0.0
H1379 H 0.70834 0.92578 0.06237 0.0
H1380 H 0.62637 0.86675 0.97259 0.0
C1381 C 0.72863 0.85944 0.9239 0.0
C1382 C 0.76605 0.8683 0.93286 0.0
C1383 C 0.78873 0.88815 0.96324 0.0
C1384 C 0.77445 0.89824 0.98499 0.0
C1385 C 0.73747 0.88833 0.97586 0.0
C1386 C 0.71486 0.86967 0.94583 0.0
C1387 C 0.67625 0.86138 0.94253 0.0
C1388 C 0.65336 0.87729 0.90687 0.0
C1389 C 0.66082 0.82339 0.94533 0.0
C1390 C 0.6807 0.87786 0.97574 0.0
C1391 C 0.71616 0.89339 0.99455 0.0
C1392 C 0.72678 0.91022 0.02618 0.0
C1393 C 0.70032 0.91172 0.03852 0.0
C1394 C 0.66373 0.89634 0.01933 0.0
C1395 C 0.65404 0.87893 0.98775 0.0
H1396 H 0.88742 0.93974 0.59827 0.0
H1397 H 0.96579 1.0128 0.67622 0.0
H1398 H 0.95845 0.97342 0.72708 0.0
H1399 H 0.82845 0.91077 0.65138 0.0
H1400 H 0.81571 0.86852 0.63763 0.0
H1401 H 0.8269 0.90295 0.60748 0.0
H1402 H 0.87456 0.8766 0.60474 0.0
H1403 H 0.86425 0.84258 0.63567 0.0
H1404 H 0.90957 0.86774 0.64668 0.0
H1405 H 0.94678 0.92398 0.7696 0.0
H1406 H 0.92293 0.87196 0.80057 0.0
H1407 H 0.84807 0.8344 0.6948 0.0
C1408 C 0.9024 0.94805 0.62588 0.0
C1409 C 0.92783 0.97927 0.63299 0.0
C1410 C 0.947 0.98864 0.66985 0.0
C1411 C 0.9429 0.96652 0.69903 0.0
C1412 C 0.91879 0.93546 0.69097 0.0
C1413 C 0.89801 0.92665 0.65532 0.0
C1414 C 0.87324 0.89211 0.65411 0.0
C1415 C 0.83375 0.89369 0.63663 0.0
C1416 C 0.88089 0.86837 0.63411 0.0
C1417 C 0.88407 0.88262 0.69464 0.0
C1418 C 0.91064 0.90777 0.71548 0.0
C1419 C 0.92563 0.90423 0.75361 0.0
C1420 C 0.91219 0.87455 0.77092 0.0
C1421 C 0.88382 0.8492 0.75001 0.0
C1422 C 0.87001 0.85323 0.71143 0.0
H1423 H 0.23724 0.79042 0.84876 0.0
H1424 H 0.24519 0.86155 0.75886 0.0
H1425 H 0.21585 0.89576 0.77646 0.0
H1426 H 0.14683 0.79722 0.83864 0.0
H1427 H 0.15571 0.79327 0.88708 0.0
H1428 H 0.17863 0.77431 0.869 0.0
H1429 H 0.23943 0.80615 0.91361 0.0
H1430 H 0.21668 0.82523 0.93178 0.0
H1431 H 0.24955 0.851 0.91394 0.0
H1432 H 0.18514 0.92566 0.8055 0.0
H1433 H 0.15538 0.94433 0.83831 0.0
H1434 H 0.15955 0.85403 0.90861 0.0
C1435 C 0.23282 0.81313 0.83242 0.0
C1436 C 0.24491 0.8223 0.80162 0.0
C1437 C 0.23722 0.85266 0.7821 0.0
C1438 C 0.22007 0.87272 0.79209 0.0
C1439 C 0.20868 0.86304 0.8219 0.0
C1440 C 0.2144 0.83351 0.84162 0.0
C1441 C 0.19822 0.82866 0.87191 0.0
C1442 C 0.16806 0.79643 0.86635 0.0
C1443 C 0.22772 0.82767 0.91009 0.0
C1444 C 0.18292 0.85984 0.86649 0.0
C1445 C 0.18982 0.87944 0.83752 0.0
C1446 C 0.17964 0.90993 0.82784 0.0
C1447 C 0.16245 0.92065 0.84727 0.0
C1448 C 0.15378 0.90162 0.87706 0.0
C1449 C 0.16458 0.87008 0.88619 0.0
H1450 H 0.94962 0.4786 0.52317 0.0
H1451 H 1.01782 0.56902 0.57775 0.0
H1452 H 0.97673 0.56555 0.60927 0.0
H1453 H 0.85926 0.49184 0.5232 0.0
H1454 H 0.84427 0.44727 0.53009 0.0
H1455 H 0.87022 0.46407 0.50162 0.0
H1456 H 0.91592 0.42962 0.54099 0.0
H1457 H 0.89042 0.41297 0.56926 0.0
H1458 H 0.93705 0.43445 0.58981 0.0
H1459 H 0.94374 0.54129 0.64998 0.0
H1460 H 0.92061 0.50086 0.69227 0.0
H1461 H 0.86999 0.42781 0.60914 0.0
C1462 C 0.95464 0.49848 0.54036 0.0
C1463 C 0.98661 0.52379 0.54852 0.0
C1464 C 0.99315 0.5495 0.57119 0.0
C1465 C 0.96981 0.54778 0.589 0.0
C1466 C 0.93961 0.52085 0.5827 0.0
C1467 C 0.93126 0.49726 0.55775 0.0
C1468 C 0.90139 0.46771 0.56047 0.0
C1469 C 0.86673 0.46775 0.52685 0.0
C1470 C 0.9119 0.4343 0.56551 0.0
C1471 C 0.89806 0.47586 0.59437 0.0
C1472 C 0.91909 0.50728 0.60592 0.0
C1473 C 0.92603 0.5173 0.64049 0.0
C1474 C 0.913 0.49412 0.66448 0.0
C1475 C 0.89336 0.46133 0.65376 0.0
C1476 C 0.88393 0.45305 0.61754 0.0
H1477 H 0.49117 0.08933 0.38928 0.0
H1478 H 0.49375 0.10524 0.49545 0.0
H1479 H 0.45392 0.14283 0.46597 0.0
H1480 H 0.48898 0.17583 0.35062 0.0
H1481 H 0.45826 0.16388 0.30517 0.0
H1482 H 0.48736 0.13774 0.33369 0.0
H1483 H 0.43252 0.08762 0.32593 0.0
H1484 H 0.40327 0.11363 0.2974 0.0
H1485 H 0.39642 0.09125 0.33754 0.0
H1486 H 0.41225 0.1793 0.42571 0.0
H1487 H 0.37369 0.21168 0.37915 0.0
H1488 H 0.39402 0.17653 0.29453 0.0
C1489 C 0.48353 0.10075 0.40648 0.0
C1490 C 0.49671 0.09337 0.44573 0.0
C1491 C 0.48503 0.10952 0.46598 0.0
C1492 C 0.46198 0.13131 0.44921 0.0
C1493 C 0.44962 0.13784 0.41117 0.0
C1494 C 0.45997 0.12314 0.3898 0.0
C1495 C 0.44213 0.13505 0.34921 0.0
C1496 C 0.4709 0.15426 0.33374 0.0
C1497 C 0.4171 0.1051 0.32614 0.0
C1498 C 0.42038 0.15854 0.35124 0.0
C1499 C 0.4254 0.15942 0.38759 0.0
C1500 C 0.40844 0.17866 0.39729 0.0
C1501 C 0.38614 0.19733 0.36999 0.0
C1502 C 0.37974 0.19782 0.33194 0.0
C1503 C 0.39768 0.17761 0.32282 0.0
H1504 H 0.60398 0.64043 0.03765 0.0
H1505 H 0.58358 0.56709 0.12142 0.0
H1506 H 0.63892 0.59693 0.1682 0.0
H1507 H 0.70324 0.66072 0.07775 0.0
H1508 H 0.70813 0.70489 0.06666 0.0
H1509 H 0.66995 0.67528 0.03809 0.0
H1510 H 0.62711 0.70407 0.04674 0.0
H1511 H 0.665 0.73393 0.07509 0.0
H1512 H 0.63122 0.70949 0.09242 0.0
H1513 H 0.69435 0.63418 0.20589 0.0
H1514 H 0.74231 0.68206 0.23564 0.0
H1515 H 0.72456 0.73699 0.13023 0.0
C1516 C 0.61172 0.63056 0.0658 0.0
C1517 C 0.59024 0.60098 0.07601 0.0
C1518 C 0.60021 0.58925 0.11311 0.0
C1519 C 0.63162 0.60599 0.13981 0.0
C1520 C 0.65231 0.63505 0.1291 0.0
C1521 C 0.64255 0.64779 0.09323 0.0
C1522 C 0.6674 0.6818 0.09037 0.0
C1523 C 0.68844 0.6806 0.06682 0.0
C1524 C 0.64643 0.70892 0.07527 0.0
C1525 C 0.6919 0.68639 0.1304 0.0
C1526 C 0.68322 0.65847 0.15182 0.0
C1527 C 0.70142 0.65627 0.18952 0.0
C1528 C 0.72866 0.6837 0.20615 0.0
C1529 C 0.73694 0.71343 0.18533 0.0
C1530 C 0.71871 0.7146 0.1468 0.0
H1531 H 0.22177 0.25113 0.63726 0.0
H1532 H 0.27933 0.18624 0.72082 0.0
H1533 H 0.24523 0.1386 0.68113 0.0
H1534 H 0.13847 0.19443 0.61589 0.0
H1535 H 0.1219 0.20539 0.56745 0.0
H1536 H 0.15518 0.23582 0.59891 0.0
H1537 H 0.19715 0.24411 0.56343 0.0
H1538 H 0.16366 0.21406 0.53144 0.0
H1539 H 0.20846 0.20855 0.55518 0.0
H1540 H 0.2028 0.09779 0.63591 0.0
H1541 H 0.14977 0.06392 0.59076 0.0
H1542 H 0.11506 0.15345 0.53716 0.0
C1543 C 0.22772 0.22701 0.64667 0.0
C1544 C 0.25359 0.22228 0.68172 0.0
C1545 C 0.25995 0.19031 0.69384 0.0
C1546 C 0.24084 0.16321 0.67142 0.0
C1547 C 0.21513 0.16848 0.63721 0.0
C1548 C 0.20816 0.19944 0.62494 0.0
C1549 C 0.17592 0.19722 0.58914 0.0
C1550 C 0.14611 0.20889 0.59311 0.0
C1551 C 0.18696 0.21715 0.55792 0.0
C1552 C 0.16515 0.15997 0.58397 0.0
C1553 C 0.1889 0.14421 0.61155 0.0
C1554 C 0.1842 0.10982 0.61397 0.0
C1555 C 0.15393 0.09082 0.58808 0.0
C1556 C 0.12835 0.1061 0.56038 0.0
C1557 C 0.13438 0.14122 0.55784 0.0
H1558 H 0.77103 0.32044 0.36009 0.0
H1559 H 0.71088 0.33294 0.24407 0.0
H1560 H 0.67181 0.35861 0.25817 0.0
H1561 H 0.69453 0.30397 0.3906 0.0
H1562 H 0.71922 0.32739 0.43131 0.0
H1563 H 0.74223 0.30881 0.41295 0.0
H1564 H 0.78512 0.36624 0.40961 0.0
H1565 H 0.76224 0.38497 0.42799 0.0
H1566 H 0.76697 0.40099 0.38499 0.0
H1567 H 0.63722 0.38603 0.28532 0.0
H1568 H 0.61292 0.40908 0.3202 0.0
H1569 H 0.69408 0.38348 0.42138 0.0
C1570 C 0.74975 0.3286 0.33732 0.0
C1571 C 0.74529 0.32373 0.29995 0.0
C1572 C 0.71643 0.33578 0.27248 0.0
C1573 C 0.69365 0.35084 0.28048 0.0
C1574 C 0.69906 0.35557 0.31684 0.0
C1575 C 0.72673 0.34484 0.34502 0.0
C1576 C 0.72672 0.35357 0.38182 0.0
C1577 C 0.72032 0.32153 0.40561 0.0
C1578 C 0.7624 0.37787 0.40234 0.0
C1579 C 0.69498 0.37061 0.3702 0.0
C1580 C 0.6794 0.37119 0.33233 0.0
C1581 C 0.64965 0.3852 0.31493 0.0
C1582 C 0.63549 0.39843 0.33564 0.0
C1583 C 0.64999 0.39887 0.37487 0.0
C1584 C 0.68108 0.38443 0.39184 0.0
H1585 H 0.51769 0.04333 0.09753 0.0
H1586 H 0.43256 0.03421 0.99086 0.0
H1587 H 0.38779 1.02266 0.01971 0.0
H1588 H 0.48619 0.97846 0.13547 0.0
H1589 H 0.49854 0.99177 0.18085 0.0
H1590 H 0.52323 1.01402 0.1532 0.0
H1591 H 0.51036 0.06903 0.15967 0.0
H1592 H 0.4855 0.0468 0.18787 0.0
H1593 H 0.46485 0.07121 0.14761 0.0
H1594 H 0.35401 0.99303 0.05795 0.0
H1595 H 0.33531 0.94919 0.10034 0.0
H1596 H 0.44186 0.97623 0.18345 0.0
C1597 C 0.48966 0.04097 0.08052 0.0
C1598 C 0.47816 0.04002 0.04235 0.0
C1599 C 0.44156 0.03568 0.02024 0.0
C1600 C 0.41607 0.02921 0.0365 0.0
C1601 C 0.4279 0.02754 0.07475 0.0
C1602 C 0.46412 0.03422 0.09654 0.0
C1603 C 0.47001 1.02372 0.1363 0.0
C1604 C 0.49593 1.00059 0.15229 0.0
C1605 C 0.48346 0.05453 0.15921 0.0
C1606 C 0.43207 1.00555 0.13265 0.0
C1607 C 0.40788 1.00963 0.0974 0.0
C1608 C 0.37245 0.99054 0.08587 0.0
C1609 C 0.3621 0.96544 0.11003 0.0
C1610 C 0.38726 0.95929 0.14511 0.0
C1611 C 0.42187 0.98099 0.15716 0.0
H1612 H 0.97505 0.60771 0.97528 0.0
H1613 H 1.00084 0.57477 0.89344 0.0
H1614 H 0.96737 0.6113 0.84664 0.0
H1615 H 0.88376 0.61415 0.91376 0.0
H1616 H 0.88572 0.65129 0.93271 0.0
H1617 H 0.9118 0.62262 0.96091 0.0
H1618 H 0.96937 0.67055 0.97573 0.0
H1619 H 0.94345 0.69936 0.94762 0.0
H1620 H 0.98085 0.69507 0.93876 0.0
H1621 H 0.92968 0.65236 0.80592 0.0
H1622 H 0.89278 0.69288 0.77699 0.0
H1623 H 0.88881 0.70253 0.88194 0.0
C1624 C 0.97378 0.60808 0.94755 0.0
C1625 C 0.99157 0.58735 0.93915 0.0
C1626 C 0.98828 0.58957 0.90185 0.0
C1627 C 0.96897 0.61061 0.87453 0.0
C1628 C 0.95204 0.63039 0.88358 0.0
C1629 C 0.95416 0.62939 0.91929 0.0
C1630 C 0.9331 0.65354 0.92108 0.0
C1631 C 0.90174 0.63425 0.93283 0.0
C1632 C 0.95818 0.68128 0.94738 0.0
C1633 C 0.91908 0.66816 0.88116 0.0
C1634 C 0.93043 0.65422 0.8601 0.0
C1635 C 0.92091 0.66328 0.82253 0.0
C1636 C 0.89962 0.68673 0.80605 0.0
C1637 C 0.88719 0.70202 0.8263 0.0
C1638 C 0.89751 0.6921 0.86489 0.0
H1639 H 0.38685 0.48564 0.13764 0.0
H1640 H 0.33572 0.42079 0.0459 0.0
H1641 H 0.31761 0.37442 0.08566 0.0
H1642 H 0.42368 0.42924 0.20311 0.0
H1643 H 0.41544 0.43997 0.24047 0.0
H1644 H 0.41973 0.47074 0.20436 0.0
H1645 H 0.35746 0.47994 0.19147 0.0
H1646 H 0.35328 0.44976 0.22819 0.0
H1647 H 0.31905 0.4446 0.18288 0.0
H1648 H 0.31691 0.33332 0.13528 0.0
H1649 H 0.32026 0.30024 0.19192 0.0
H1650 H 0.36656 0.38872 0.25394 0.0
C1651 C 0.37087 0.46193 0.12579 0.0
C1652 C 0.36249 0.457 0.08848 0.0
C1653 C 0.34183 0.42554 0.07401 0.0
C1654 C 0.33166 0.39885 0.09651 0.0
C1655 C 0.34183 0.40407 0.13333 0.0
C1656 C 0.35993 0.43489 0.1479 0.0
C1657 C 0.36866 0.43265 0.18906 0.0
C1658 C 0.4093 0.44382 0.2105 0.0
C1659 C 0.3484 0.45294 0.19845 0.0
C1660 C 0.35437 0.39539 0.19534 0.0
C1661 C 0.33934 0.37976 0.16258 0.0
C1662 C 0.32771 0.34539 0.16097 0.0
C1663 C 0.33044 0.32646 0.19353 0.0
C1664 C 0.34355 0.34126 0.22732 0.0
C1665 C 0.3559 0.37649 0.22835 0.0
H1666 H 0.57464 0.61168 0.9302 0.0
H1667 H 0.48985 0.52494 0.88552 0.0
H1668 H 0.46941 0.55564 0.82637 0.0
H1669 H 0.53547 0.65878 0.91936 0.0
H1670 H 0.55739 0.69781 0.90208 0.0
H1671 H 0.5823 0.66785 0.92599 0.0
H1672 H 0.60001 0.66866 0.87153 0.0
H1673 H 0.57408 0.69824 0.84615 0.0
H1674 H 0.56644 0.65956 0.8265 0.0
H1675 H 0.44025 0.59643 0.78925 0.0
H1676 H 0.40509 0.63365 0.78962 0.0
H1677 H 0.50087 0.69784 0.86178 0.0
C1678 C 0.5531 0.59905 0.90691 0.0
C1679 C 0.53326 0.56661 0.91198 0.0
C1680 C 0.50497 0.55015 0.88195 0.0
C1681 C 0.4936 0.56746 0.84804 0.0
C1682 C 0.50984 0.60153 0.84513 0.0
C1683 C 0.54007 0.6171 0.87377 0.0
C1684 C 0.54502 0.65465 0.86984 0.0
C1685 C 0.55549 0.67057 0.90648 0.0
C1686 C 0.573 0.6712 0.85243 0.0
C1687 C 0.50795 0.65614 0.84267 0.0
C1688 C 0.4904 0.62649 0.82474 0.0
C1689 C 0.45388 0.61956 0.80314 0.0
C1690 C 0.43385 0.64048 0.80421 0.0
C1691 C 0.45024 0.6676 0.82741 0.0
C1692 C 0.48791 0.67716 0.84397 0.0
H1693 H 0.16296 0.5904 0.58843 0.0
H1694 H 0.07701 0.55683 0.62987 0.0
H1695 H 0.10198 0.60601 0.66745 0.0
H1696 H 0.23072 0.61528 0.67073 0.0
H1697 H 0.25554 0.65173 0.65279 0.0
H1698 H 0.22768 0.61744 0.624 0.0
H1699 H 0.19314 0.6574 0.57612 0.0
H1700 H 0.22121 0.69191 0.6048 0.0
H1701 H 0.17315 0.68292 0.59021 0.0
H1702 H 0.14013 0.65323 0.70696 0.0
H1703 H 0.18934 0.69599 0.74605 0.0
H1704 H 0.25165 0.70018 0.68021 0.0
C1705 C 0.14906 0.59398 0.60479 0.0
C1706 C 0.11806 0.56997 0.60629 0.0
C1707 C 0.10083 0.57498 0.62843 0.0
C1708 C 0.1147 0.60293 0.64971 0.0
C1709 C 0.14592 0.62569 0.64863 0.0
C1710 C 0.16288 0.62172 0.62664 0.0
C1711 C 0.19796 0.64819 0.63341 0.0
C1712 C 0.22984 0.63219 0.64599 0.0
C1713 C 0.19625 0.67149 0.59909 0.0
C1714 C 0.19893 0.66638 0.664 0.0
C1715 C 0.16823 0.65337 0.67174 0.0
C1716 C 0.164 0.66408 0.70074 0.0
C1717 C 0.19213 0.68826 0.72288 0.0
C1718 C 0.22412 0.70143 0.71602 0.0
C1719 C 0.2272 0.6909 0.68567 0.0
H1720 H 0.37588 0.39233 0.67404 0.0
H1721 H 0.41077 0.30116 0.69484 0.0
H1722 H 0.44822 0.32556 0.65807 0.0
H1723 H 0.3766 0.4123 0.57744 0.0
H1724 H 0.39378 0.45682 0.58151 0.0
H1725 H 0.36885 0.43274 0.60897 0.0
H1726 H 0.42118 0.45559 0.66725 0.0
H1727 H 0.44626 0.47972 0.63993 0.0
H1728 H 0.46523 0.45098 0.67615 0.0
H1729 H 0.48647 0.36354 0.61107 0.0
H1730 H 0.51473 0.40286 0.57206 0.0
H1731 H 0.4631 0.47598 0.57829 0.0
C1732 C 0.39115 0.37671 0.67138 0.0
C1733 C 0.38731 0.34217 0.6904 0.0
C1734 C 0.41019 0.32625 0.68313 0.0
C1735 C 0.43268 0.34072 0.6611 0.0
C1736 C 0.43547 0.37364 0.64352 0.0
C1737 C 0.41498 0.39164 0.64887 0.0
C1738 C 0.42356 0.42703 0.62718 0.0
C1739 C 0.38861 0.4326 0.597 0.0
C1740 C 0.43999 0.45503 0.65421 0.0
C1741 C 0.45152 0.42669 0.60895 0.0
C1742 C 0.45749 0.39494 0.61888 0.0
C1743 C 0.48109 0.38801 0.60463 0.0
C1744 C 0.49805 0.41181 0.58136 0.0
C1745 C 0.49482 0.44579 0.56965 0.0
C1746 C 0.4696 0.45199 0.58518 0.0
H1747 H 0.28437 0.68528 0.1702 0.0
H1748 H 0.20981 0.73397 0.17866 0.0
H1749 H 0.15946 0.69553 0.13502 0.0
H1750 H 0.23932 0.66965 0.07393 0.0
H1751 H 0.24772 0.62901 0.07859 0.0
H1752 H 0.27836 0.66032 0.11052 0.0
H1753 H 0.27067 0.61976 0.16467 0.0
H1754 H 0.24016 0.58827 0.13292 0.0
H1755 H 0.22634 0.60113 0.16497 0.0
H1756 H 0.1174 0.65362 0.0892 0.0
H1757 H 0.08504 0.60737 0.04766 0.0
H1758 H 0.18535 0.58322 0.06893 0.0
C1759 C 0.25743 0.68782 0.16277 0.0
C1760 C 0.25107 0.71285 0.17768 0.0
C1761 C 0.2154 0.71514 0.16756 0.0
C1762 C 0.18659 0.69344 0.14269 0.0
C1763 C 0.19372 0.66932 0.12821 0.0
C1764 C 0.22815 0.66605 0.13808 0.0
C1765 C 0.228 0.63726 0.11894 0.0
C1766 C 0.24964 0.64982 0.09402 0.0
C1767 C 0.24213 0.60999 0.14706 0.0
C1768 C 0.18817 0.62513 0.09657 0.0
C1769 C 0.16907 0.64424 0.1023 0.0
C1770 C 0.13206 0.63843 0.0846 0.0
C1771 C 0.1139 0.61204 0.06096 0.0
C1772 C 0.13256 0.59152 0.05505 0.0
C1773 C 0.17033 0.59841 0.07291 0.0
H1774 H 0.69689 0.32655 0.66903 0.0
H1775 H 0.79463 0.39405 0.73423 0.0
H1776 H 0.76717 0.44168 0.70697 0.0
H1777 H 0.68008 0.38413 0.58657 0.0
H1778 H 0.632 0.37176 0.57264 0.0
H1779 H 0.65836 0.34265 0.59873 0.0
H1780 H 0.63006 0.33461 0.64726 0.0
H1781 H 0.60378 0.36384 0.62139 0.0
H1782 H 0.63257 0.37053 0.66869 0.0
H1783 H 0.72528 0.48503 0.67228 0.0
H1784 H 0.68049 0.51594 0.63088 0.0
H1785 H 0.61137 0.4232 0.5817 0.0
C1786 C 0.71266 0.35127 0.67795 0.0
C1787 C 0.74872 0.35525 0.70524 0.0
C1788 C 0.76742 0.38899 0.71428 0.0
C1789 C 0.75168 0.41673 0.69866 0.0
C1790 C 0.71648 0.41196 0.67232 0.0
C1791 C 0.69747 0.37986 0.66148 0.0
C1792 C 0.6609 0.38184 0.6308 0.0
C1793 C 0.65763 0.36934 0.59506 0.0
C1794 C 0.62999 0.36148 0.64274 0.0
C1795 C 0.66192 0.4196 0.62632 0.0
C1796 C 0.69408 0.43656 0.65106 0.0
C1797 C 0.70037 0.47145 0.6528 0.0
C1798 C 0.67424 0.48919 0.62896 0.0
C1799 C 0.64125 0.4731 0.60201 0.0
C1800 C 0.63576 0.43729 0.60139 0.0
H1801 H 1.00403 0.66464 0.30265 0.0
H1802 H 1.01468 0.76077 0.24315 0.0
H1803 H 1.0569 0.74712 0.22227 0.0
H1804 H 0.10062 0.65608 0.32244 0.0
H1805 H 0.08257 0.6119 0.31615 0.0
H1806 H 1.06413 0.63361 0.33677 0.0
H1807 H 1.00099 0.61153 0.28804 0.0
H1808 H 1.01908 0.59029 0.26714 0.0
H1809 H 0.99395 0.62003 0.24009 0.0
H1810 H 0.08249 0.71755 0.19413 0.0
H1811 H 0.08784 0.67497 0.16162 0.0
H1812 H 1.062 0.59842 0.24014 0.0
C1813 C 1.01686 0.68365 0.28705 0.0
C1814 C 1.00603 0.71371 0.27453 0.0
C1815 C 1.02239 0.73743 0.25288 0.0
C1816 C 1.04675 0.73003 0.24123 0.0
C1817 C 1.05502 0.6991 0.25204 0.0
C1818 C 1.04109 0.67653 0.27521 0.0
C1819 C 1.04841 0.64279 0.2774 0.0
C1820 C 0.07556 0.63569 0.31545 0.0
C1821 C 1.01354 0.61457 0.26753 0.0
C1822 C 1.06483 0.64875 0.24869 0.0
C1823 C 0.06997 0.68174 0.23551 0.0
C1824 C 0.07974 0.69195 0.20506 0.0
C1825 C 0.08268 0.66765 0.18669 0.0
C1826 C 0.0752 0.63362 0.19856 0.0
C1827 C 0.06806 0.62444 0.23092 0.0
H1828 H 0.98387 0.69022 0.52211 0.0
H1829 H 1.04181 0.62672 0.6077 0.0
H1830 H 1.00721 0.62896 0.64445 0.0
H1831 H 0.97718 0.74243 0.58191 0.0
H1832 H 0.9327 0.74548 0.55183 0.0
H1833 H 0.96318 0.73979 0.53316 0.0
H1834 H 0.91625 0.68716 0.50158 0.0
H1835 H 0.8858 0.69243 0.52056 0.0
H1836 H 0.89872 0.65357 0.52887 0.0
H1837 H 0.96455 0.63637 0.67079 0.0
H1838 H 0.91955 0.65147 0.68642 0.0
H1839 H 0.88991 0.71 0.58349 0.0
C1840 C 0.98941 0.67693 0.54866 0.0
C1841 C 1.01566 0.65846 0.5621 0.0
C1842 C 1.02227 0.64155 0.5971 0.0
C1843 C 1.00253 0.6424 0.61804 0.0
C1844 C 0.97635 0.66031 0.60363 0.0
C1845 C 0.96999 0.67751 0.5699 0.0
C1846 C 0.94026 0.69476 0.56057 0.0
C1847 C 0.95417 0.73287 0.55666 0.0
C1848 C 0.90838 0.68115 0.52584 0.0
C1849 C 0.93085 0.68452 0.5943 0.0
C1850 C 0.95184 0.66455 0.61877 0.0
C1851 C 0.94806 0.65213 0.65194 0.0
C1852 C 0.92252 0.66088 0.6606 0.0
C1853 C 0.90118 0.68184 0.63615 0.0
C1854 C 0.90533 0.69347 0.60248 0.0
H1855 H 0.51105 0.62674 0.43934 0.0
H1856 H 0.4415 0.53234 0.39497 0.0
H1857 H 0.39542 0.56199 0.35389 0.0
H1858 H 0.44313 0.66595 0.43578 0.0
H1859 H 0.46378 0.707 0.42148 0.0
H1860 H 0.49097 0.67855 0.44758 0.0
H1861 H 0.51648 0.68448 0.39713 0.0
H1862 H 0.48952 0.71311 0.37096 0.0
H1863 H 0.48619 0.67626 0.35055 0.0
H1864 H 0.3523 0.60423 0.31933 0.0
H1865 H 0.32368 0.65108 0.29138 0.0
H1866 H 0.4224 0.72082 0.35093 0.0
C1867 C 0.48629 0.61204 0.42075 0.0
C1868 C 0.48108 0.57615 0.42139 0.0
C1869 C 0.44756 0.5592 0.39586 0.0
C1870 C 0.42069 0.57622 0.37222 0.0
C1871 C 0.42673 0.61121 0.37268 0.0
C1872 C 0.45935 0.62899 0.39593 0.0
C1873 C 0.45988 0.66668 0.39011 0.0
C1874 C 0.46475 0.68036 0.42587 0.0
C1875 C 0.48981 0.68631 0.37639 0.0
C1876 C 0.42254 0.66766 0.36039 0.0
C1877 C 0.40357 0.63516 0.35125 0.0
C1878 C 0.36776 0.6295 0.32624 0.0
C1879 C 0.35135 0.65677 0.31021 0.0
C1880 C 0.36995 0.69087 0.3174 0.0
C1881 C 0.40666 0.69576 0.34336 0.0
H1882 H 0.15854 0.32095 0.83275 0.0
H1883 H 0.08977 0.32567 0.71793 0.0
H1884 H 1.04276 0.33372 0.73566 0.0
H1885 H 0.08153 0.28164 0.86927 0.0
H1886 H 0.10687 0.30605 0.90919 0.0
H1887 H 0.12974 0.29008 0.88824 0.0
H1888 H 0.16799 0.35004 0.88237 0.0
H1889 H 0.14535 0.36604 0.90292 0.0
H1890 H 0.14574 0.3826 0.85837 0.0
H1891 H 1.01141 0.35602 0.76413 0.0
H1892 H 1.00063 0.39182 0.79994 0.0
H1893 H 0.08878 0.37022 0.89606 0.0
C1894 C 0.13293 0.32169 0.81124 0.0
C1895 C 0.128 0.32264 0.77394 0.0
C1896 C 0.09445 0.32525 0.74675 0.0
C1897 C 0.06733 0.32929 0.7566 0.0
C1898 C 0.07384 0.32984 0.79373 0.0
C1899 C 0.10571 0.32543 0.82067 0.0
C1900 C 0.10915 0.33289 0.85802 0.0
C1901 C 0.10665 0.30075 0.88262 0.0
C1902 C 0.14406 0.35948 0.8764 0.0
C1903 C 0.07626 0.3459 0.84735 0.0
C1904 C 1.05533 0.34261 0.81044 0.0
C1905 C 1.02693 0.35779 0.79322 0.0
C1906 C 1.02111 0.37829 0.81367 0.0
C1907 C 1.04393 0.38379 0.85069 0.0
C1908 C 0.07032 0.36577 0.8681 0.0
H1909 H 0.25573 0.29947 0.48377 0.0
H1910 H 0.29174 0.39517 0.43264 0.0
H1911 H 0.27182 0.42294 0.46811 0.0
H1912 H 0.17733 0.31118 0.47581 0.0
H1913 H 0.17563 0.29076 0.51866 0.0
H1914 H 0.20064 0.27887 0.4973 0.0
H1915 H 0.2577 0.2909 0.55569 0.0
H1916 H 0.23364 0.30309 0.57821 0.0
H1917 H 0.27384 0.33136 0.57484 0.0
H1918 H 0.23761 0.43853 0.49841 0.0
H1919 H 0.19274 0.44089 0.5228 0.0
H1920 H 0.17798 0.33532 0.55405 0.0
C1921 C 0.26021 0.32639 0.4807 0.0
C1922 C 0.27529 0.34518 0.45545 0.0
C1923 C 0.28075 0.38033 0.45221 0.0
C1924 C 0.26949 0.39632 0.47224 0.0
C1925 C 0.25327 0.37684 0.49571 0.0
C1926 C 0.24903 0.34265 0.5004 0.0
C1927 C 0.22674 0.3269 0.52353 0.0
C1928 C 0.19311 0.30039 0.50256 0.0
C1929 C 0.24933 0.31219 0.56024 0.0
C1930 C 0.21714 0.35726 0.52912 0.0
C1931 C 0.23341 0.38594 0.51355 0.0
C1932 C 0.22554 0.41646 0.51158 0.0
C1933 C 0.19996 0.41755 0.52525 0.0
C1934 C 0.18251 0.38833 0.54047 0.0
C1935 C 0.1918 0.35804 0.54331 0.0
loop_
_geom_bond_atom_site_label_1
_geom_bond_atom_site_label_2
_geom_bond_distance
_geom_bond_site_symmetry_2
_ccdc_geom_bond_type
C0 Eu1 2.835 1_655 S
C0 C2 1.500 . S
C0 O20 1.257 . S
C0 O21 1.260 1_655 S
Eu1 C0 2.835 1_455 S
Eu1 O20 2.473 1_455 S
Eu1 O21 2.480 . S
Eu1 O22 2.430 . S
Eu1 O23 2.670 1_554 S
Eu1 O24 2.394 1_454 S
Eu1 O29 2.355 1_445 S
Eu1 O31 2.374 1_545 S
C2 C0 1.500 . S
C2 C3 1.377 . S
C2 C7 1.377 . S
C3 C2 1.377 . S
C3 C4 1.395 . S
C3 H32 0.931 1_655 S
C4 C3 1.395 . S
C4 C5 1.383 . S
C4 H33 0.934 . S
C5 C4 1.383 . S
C5 C6 1.394 . S
C6 C5 1.394 . S
C6 C7 1.378 . S
C6 H34 0.931 . S
C7 C2 1.377 . S
C7 C6 1.378 . S
C7 H35 0.931 . S
C8 O22 1.259 1_556 S
C8 O23 1.270 . S
C9 O24 1.251 . S
C9 O25 1.251 . S
C10 Eu11 2.835 1_455 S
C10 C12 1.500 . S
C10 O26 1.257 . S
C10 O27 1.260 1_455 S
Eu11 C10 2.835 1_655 S
Eu11 O23 2.355 1_665 S
Eu11 O25 2.374 1_565 S
Eu11 O26 2.473 1_655 S
Eu11 O27 2.480 . S
Eu11 O28 2.430 . S
Eu11 O29 2.670 1_556 S
Eu11 O30 2.394 1_656 S
C12 C10 1.500 . S
C12 C13 1.377 . S
C12 C17 1.377 . S
C13 C12 1.377 . S
C13 C14 1.395 . S
C13 H36 0.931 1_455 S
C14 C13 1.395 . S
C14 C15 1.383 . S
C14 H37 0.937 . S
C15 C14 1.383 . S
C15 C16 1.394 . S
C16 C15 1.394 . S
C16 C17 1.378 . S
C16 H38 0.931 . S
C17 C12 1.377 . S
C17 C16 1.378 . S
C17 H39 0.931 . S
C18 O28 1.259 1_554 S
C18 O29 1.270 . S
C19 O30 1.251 . S
C19 O31 1.251 . S
O20 C0 1.257 . S
O20 Eu1 2.473 1_655 S
O21 C0 1.260 1_455 S
O21 Eu1 2.480 . S
O22 Eu1 2.430 . S
O22 C8 1.259 1_554 S
O23 Eu1 2.670 1_556 S
O23 C8 1.270 . S
O23 Eu11 2.355 1_445 S
O24 Eu1 2.394 1_656 S
O24 C9 1.251 . S
O25 C9 1.251 . S
O25 Eu11 2.374 1_545 S
O26 C10 1.257 . S
O26 Eu11 2.473 1_455 S
O27 C10 1.260 1_655 S
O27 Eu11 2.480 . S
O28 Eu11 2.430 . S
O28 C18 1.259 1_556 S
O29 Eu1 2.355 1_665 S
O29 Eu11 2.670 1_554 S
O29 C18 1.270 . S
O30 Eu11 2.394 1_454 S
O30 C19 1.251 . S
O31 Eu1 2.374 1_565 S
O31 C19 1.251 . S
H32 C3 0.931 1_455 S
H33 C4 0.934 . S
H34 C6 0.931 . S
H35 C7 0.931 . S
H36 C13 0.931 1_655 S
H37 C14 0.937 . S
H38 C16 0.931 . S
H39 C17 0.931 . S
C40 Eu41 2.835 . S
C40 C42 1.500 . S
C40 O60 1.257 . S
C40 O61 1.260 . S
Eu41 C40 2.835 . S
Eu41 O60 2.473 . S
Eu41 O61 2.480 . S
Eu41 O62 2.430 . S
Eu41 O63 2.670 . S
Eu41 O64 2.394 . S
Eu41 O69 2.355 . S
Eu41 O71 2.374 . S
C42 C40 1.500 . S
C42 C43 1.377 . S
C42 C47 1.377 . S
C43 C42 1.377 . S
C43 C44 1.395 . S
C43 H72 0.931 . S
C44 C43 1.395 . S
C44 C45 1.383 . S
C44 H73 0.931 . S
C45 C44 1.383 . S
C45 C46 1.394 . S
C46 C45 1.394 . S
C46 C47 1.378 . S
C46 H74 0.931 . S
C47 C42 1.377 . S
C47 C46 1.378 . S
C47 H75 0.931 . S
C48 O62 1.259 . S
C48 O63 1.270 . S
C49 O64 1.251 . S
C49 O65 1.251 . S
C50 Eu51 2.835 . S
C50 C52 1.500 . S
C50 O66 1.257 . S
C50 O67 1.260 . S
Eu51 C50 2.835 . S
Eu51 O63 2.355 . S
Eu51 O65 2.374 . S
Eu51 O66 2.473 . S
Eu51 O67 2.480 . S
Eu51 O68 2.430 . S
Eu51 O69 2.670 . S
Eu51 O70 2.394 . S
C52 C50 1.500 . S
C52 C53 1.377 . S
C52 C57 1.377 . S
C53 C52 1.377 . S
C53 C54 1.395 . S
C53 H76 0.931 . S
C54 C53 1.395 . S
C54 C55 1.383 . S
C54 H77 0.931 . S
C55 C54 1.383 . S
C55 C56 1.394 . S
C56 C55 1.394 . S
C56 C57 1.378 . S
C56 H78 0.931 . S
C57 C52 1.377 . S
C57 C56 1.378 . S
C57 H79 0.931 . S
C58 O68 1.259 . S
C58 O69 1.270 . S
C59 O70 1.251 . S
C59 O71 1.251 . S
O60 C40 1.257 . S
O60 Eu41 2.473 . S
O61 C40 1.260 . S
O61 Eu41 2.480 . S
O62 Eu41 2.430 . S
O62 C48 1.259 . S
O63 Eu41 2.670 . S
O63 C48 1.270 . S
O63 Eu51 2.355 . S
O64 Eu41 2.394 . S
O64 C49 1.251 . S
O65 C49 1.251 . S
O65 Eu51 2.374 . S
O66 C50 1.257 . S
O66 Eu51 2.473 . S
O67 C50 1.260 . S
O67 Eu51 2.480 . S
O68 Eu51 2.430 . S
O68 C58 1.259 . S
O69 Eu41 2.355 . S
O69 Eu51 2.670 . S
O69 C58 1.270 . S
O70 Eu51 2.394 . S
O70 C59 1.251 . S
O71 Eu41 2.374 . S
O71 C59 1.251 . S
H72 C43 0.931 . S
H73 C44 0.931 . S
H74 C46 0.931 . S
H75 C47 0.931 . S
H76 C53 0.931 . S
H77 C54 0.931 . S
H78 C56 0.931 . S
H79 C57 0.931 . S
C80 Eu81 2.835 1_565 S
C80 C82 1.500 . S
C80 O100 1.257 . S
C80 O101 1.260 1_565 S
Eu81 C80 2.835 1_545 S
Eu81 O100 2.473 1_545 S
Eu81 O101 2.480 . S
Eu81 O102 2.430 . S
Eu81 O103 2.670 . S
Eu81 O104 2.394 1_545 S
Eu81 O109 2.355 1_545 S
Eu81 O111 2.374 . S
C82 C80 1.500 . S
C82 C83 1.377 . S
C82 C87 1.377 . S
C83 C82 1.377 . S
C83 C84 1.395 . S
C83 H112 0.931 . S
C84 C83 1.395 . S
C84 C85 1.383 . S
C84 H113 0.931 . S
C85 C84 1.383 . S
C85 C86 1.394 . S
C86 C85 1.394 . S
C86 C87 1.378 . S
C86 H114 0.931 . S
C87 C82 1.377 . S
C87 C86 1.378 . S
C87 H115 0.931 . S
C88 O102 1.259 . S
C88 O103 1.270 . S
C89 O104 1.251 . S
C89 O105 1.251 . S
C90 Eu91 2.835 1_545 S
C90 C92 1.500 . S
C90 O106 1.257 . S
C90 O107 1.260 1_545 S
Eu91 C90 2.835 1_565 S
Eu91 O103 2.355 1_565 S
Eu91 O105 2.374 . S
Eu91 O106 2.473 1_565 S
Eu91 O107 2.480 . S
Eu91 O108 2.430 . S
Eu91 O109 2.670 . S
Eu91 O110 2.394 1_565 S
C92 C90 1.500 . S
C92 C93 1.377 . S
C92 C97 1.377 . S
C93 C92 1.377 . S
C93 C94 1.395 . S
C93 H116 0.931 . S
C94 C93 1.395 . S
C94 C95 1.383 . S
C94 H117 0.931 . S
C95 C94 1.383 . S
C95 C96 1.394 . S
C96 C95 1.394 . S
C96 C97 1.378 . S
C96 H118 0.931 . S
C97 C92 1.377 . S
C97 C96 1.378 . S
C97 H119 0.931 . S
C98 O108 1.259 . S
C98 O109 1.270 . S
C99 O110 1.251 . S
C99 O111 1.251 . S
O100 C80 1.257 . S
O100 Eu81 2.473 1_565 S
O101 C80 1.260 1_545 S
O101 Eu81 2.480 . S
O102 Eu81 2.430 . S
O102 C88 1.259 . S
O103 Eu81 2.670 . S
O103 C88 1.270 . S
O103 Eu91 2.355 1_545 S
O104 Eu81 2.394 1_565 S
O104 C89 1.251 . S
O105 C89 1.251 . S
O105 Eu91 2.374 . S
O106 C90 1.257 . S
O106 Eu91 2.473 1_545 S
O107 C90 1.260 1_565 S
O107 Eu91 2.480 . S
O108 Eu91 2.430 . S
O108 C98 1.259 . S
O109 Eu81 2.355 1_565 S
O109 Eu91 2.670 . S
O109 C98 1.270 . S
O110 Eu91 2.394 1_545 S
O110 C99 1.251 . S
O111 Eu81 2.374 . S
O111 C99 1.251 . S
H112 C83 0.931 . S
H113 C84 0.931 . S
H114 C86 0.931 . S
H115 C87 0.931 . S
H116 C93 0.931 . S
H117 C94 0.931 . S
H118 C96 0.931 . S
H119 C97 0.931 . S
C120 Eu121 2.835 . S
C120 C122 1.500 . S
C120 O140 1.257 . S
C120 O141 1.260 . S
Eu121 C120 2.835 . S
Eu121 O140 2.473 . S
Eu121 O141 2.480 . S
Eu121 O142 2.430 . S
Eu121 O143 2.670 . S
Eu121 O144 2.394 . S
Eu121 O149 2.355 . S
Eu121 O151 2.374 . S
C122 C120 1.500 . S
C122 C123 1.377 . S
C122 C127 1.377 . S
C123 C122 1.377 . S
C123 C124 1.395 . S
C123 H152 0.931 . S
C124 C123 1.395 . S
C124 C125 1.383 . S
C124 H153 0.931 . S
C125 C124 1.383 . S
C125 C126 1.394 . S
C126 C125 1.394 . S
C126 C127 1.378 . S
C126 H154 0.931 . S
C127 C122 1.377 . S
C127 C126 1.378 . S
C127 H155 0.931 . S
C128 O142 1.259 . S
C128 O143 1.270 . S
C129 O144 1.251 . S
C129 O145 1.251 . S
C130 Eu131 2.835 . S
C130 C132 1.500 . S
C130 O146 1.257 . S
C130 O147 1.260 . S
Eu131 C130 2.835 . S
Eu131 O143 2.355 . S
Eu131 O145 2.374 . S
Eu131 O146 2.473 . S
Eu131 O147 2.480 . S
Eu131 O148 2.430 . S
Eu131 O149 2.670 . S
Eu131 O150 2.394 . S
C132 C130 1.500 . S
C132 C133 1.377 . S
C132 C137 1.377 . S
C133 C132 1.377 . S
C133 C134 1.395 . S
C133 H156 0.931 . S
C134 C133 1.395 . S
C134 C135 1.383 . S
C134 H157 0.931 . S
C135 C134 1.383 . S
C135 C136 1.394 . S
C136 C135 1.394 . S
C136 C137 1.378 . S
C136 H158 0.931 . S
C137 C132 1.377 . S
C137 C136 1.378 . S
C137 H159 0.931 . S
C138 O148 1.259 . S
C138 O149 1.270 . S
C139 O150 1.251 . S
C139 O151 1.251 . S
O140 C120 1.257 . S
O140 Eu121 2.473 . S
O141 C120 1.260 . S
O141 Eu121 2.480 . S
O142 Eu121 2.430 . S
O142 C128 1.259 . S
O143 Eu121 2.670 . S
O143 C128 1.270 . S
O143 Eu131 2.355 . S
O144 Eu121 2.394 . S
O144 C129 1.251 . S
O145 C129 1.251 . S
O145 Eu131 2.374 . S
O146 C130 1.257 . S
O146 Eu131 2.473 . S
O147 C130 1.260 . S
O147 Eu131 2.480 . S
O148 Eu131 2.430 . S
O148 C138 1.259 . S
O149 Eu121 2.355 . S
O149 Eu131 2.670 . S
O149 C138 1.270 . S
O150 Eu131 2.394 . S
O150 C139 1.251 . S
O151 Eu121 2.374 . S
O151 C139 1.251 . S
H152 C123 0.931 . S
H153 C124 0.931 . S
H154 C126 0.931 . S
H155 C127 0.931 . S
H156 C133 0.931 . S
H157 C134 0.931 . S
H158 C136 0.931 . S
H159 C137 0.931 . S
C160 Eu161 2.835 . S
C160 C162 1.500 . S
C160 O180 1.257 . S
C160 O181 1.260 . S
Eu161 C160 2.835 . S
Eu161 O180 2.473 . S
Eu161 O181 2.480 . S
Eu161 O182 2.430 1_445 S
Eu161 O183 2.670 1_445 S
Eu161 O184 2.394 1_455 S
Eu161 O189 2.355 . S
Eu161 O191 2.374 1_545 S
C162 C160 1.500 . S
C162 C163 1.377 . S
C162 C167 1.377 . S
C163 C162 1.377 . S
C163 C164 1.395 . S
C163 H192 0.931 . S
C164 C163 1.395 . S
C164 C165 1.383 . S
C164 H193 0.931 . S
C165 C164 1.383 . S
C165 C166 1.394 . S
C166 C165 1.394 . S
C166 C167 1.378 . S
C166 H194 0.931 . S
C167 C162 1.377 . S
C167 C166 1.378 . S
C167 H195 0.931 . S
C168 O182 1.259 . S
C168 O183 1.270 . S
C169 O184 1.251 . S
C169 O185 1.251 . S
C170 Eu171 2.835 . S
C170 C172 1.500 . S
C170 O186 1.257 . S
C170 O187 1.260 . S
Eu171 C170 2.835 . S
Eu171 O183 2.355 . S
Eu171 O185 2.374 1_565 S
Eu171 O186 2.473 . S
Eu171 O187 2.480 . S
Eu171 O188 2.430 1_665 S
Eu171 O189 2.670 1_665 S
Eu171 O190 2.394 1_655 S
C172 C170 1.500 . S
C172 C173 1.377 . S
C172 C177 1.377 . S
C173 C172 1.377 . S
C173 C174 1.395 . S
C173 H196 0.931 . S
C174 C173 1.395 . S
C174 C175 1.383 . S
C174 H197 0.931 . S
C175 C174 1.383 . S
C175 C176 1.394 . S
C176 C175 1.394 . S
C176 C177 1.378 . S
C176 H198 0.931 . S
C177 C172 1.377 . S
C177 C176 1.378 . S
C177 H199 0.931 . S
C178 O188 1.259 . S
C178 O189 1.270 . S
C179 O190 1.251 . S
C179 O191 1.251 . S
O180 C160 1.257 . S
O180 Eu161 2.473 . S
O181 C160 1.260 . S
O181 Eu161 2.480 . S
O182 Eu161 2.430 1_665 S
O182 C168 1.259 . S
O183 Eu161 2.670 1_665 S
O183 C168 1.270 . S
O183 Eu171 2.355 . S
O184 Eu161 2.394 1_655 S
O184 C169 1.251 . S
O185 C169 1.251 . S
O185 Eu171 2.374 1_545 S
O186 C170 1.257 . S
O186 Eu171 2.473 . S
O187 C170 1.260 . S
O187 Eu171 2.480 . S
O188 Eu171 2.430 1_445 S
O188 C178 1.259 . S
O189 Eu161 2.355 . S
O189 Eu171 2.670 1_445 S
O189 C178 1.270 . S
O190 Eu171 2.394 1_455 S
O190 C179 1.251 . S
O191 Eu161 2.374 1_565 S
O191 C179 1.251 . S
H192 C163 0.931 . S
H193 C164 0.931 . S
H194 C166 0.931 . S
H195 C167 0.931 . S
H196 C173 0.931 . S
H197 C174 0.931 . S
H198 C176 0.931 . S
H199 C177 0.931 . S
C200 Eu201 2.835 . S
C200 C202 1.500 . S
C200 O220 1.257 . S
C200 O221 1.260 . S
Eu201 C200 2.835 . S
Eu201 O220 2.473 . S
Eu201 O221 2.480 . S
Eu201 O222 2.430 . S
Eu201 O223 2.670 . S
Eu201 O224 2.394 . S
Eu201 O229 2.355 . S
Eu201 O231 2.374 . S
C202 C200 1.500 . S
C202 C203 1.377 . S
C202 C207 1.377 . S
C203 C202 1.377 . S
C203 C204 1.395 . S
C203 H232 0.931 . S
C204 C203 1.395 . S
C204 C205 1.383 . S
C204 H233 0.931 . S
C205 C204 1.383 . S
C205 C206 1.394 . S
C206 C205 1.394 . S
C206 C207 1.378 . S
C206 H234 0.931 . S
C207 C202 1.377 . S
C207 C206 1.378 . S
C207 H235 0.931 . S
C208 O222 1.259 . S
C208 O223 1.270 . S
C209 O224 1.251 . S
C209 O225 1.251 . S
C210 Eu211 2.835 . S
C210 C212 1.500 . S
C210 O226 1.257 . S
C210 O227 1.260 . S
Eu211 C210 2.835 . S
Eu211 O223 2.355 . S
Eu211 O225 2.374 . S
Eu211 O226 2.473 . S
Eu211 O227 2.480 . S
Eu211 O228 2.430 . S
Eu211 O229 2.670 . S
Eu211 O230 2.394 . S
C212 C210 1.500 . S
C212 C213 1.377 . S
C212 C217 1.377 . S
C213 C212 1.377 . S
C213 C214 1.395 . S
C213 H236 0.931 . S
C214 C213 1.395 . S
C214 C215 1.383 . S
C214 H237 0.931 . S
C215 C214 1.383 . S
C215 C216 1.394 . S
C216 C215 1.394 . S
C216 C217 1.378 . S
C216 H238 0.931 . S
C217 C212 1.377 . S
C217 C216 1.378 . S
C217 H239 0.931 . S
C218 O228 1.259 . S
C218 O229 1.270 . S
C219 O230 1.251 . S
C219 O231 1.251 . S
O220 C200 1.257 . S
O220 Eu201 2.473 . S
O221 C200 1.260 . S
O221 Eu201 2.480 . S
O222 Eu201 2.430 . S
O222 C208 1.259 . S
O223 Eu201 2.670 . S
O223 C208 1.270 . S
O223 Eu211 2.355 . S
O224 Eu201 2.394 . S
O224 C209 1.251 . S
O225 C209 1.251 . S
O225 Eu211 2.374 . S
O226 C210 1.257 . S
O226 Eu211 2.473 . S
O227 C210 1.260 . S
O227 Eu211 2.480 . S
O228 Eu211 2.430 . S
O228 C218 1.259 . S
O229 Eu201 2.355 . S
O229 Eu211 2.670 . S
O229 C218 1.270 . S
O230 Eu211 2.394 . S
O230 C219 1.251 . S
O231 Eu201 2.374 . S
O231 C219 1.251 . S
H232 C203 0.931 . S
H233 C204 0.931 . S
H234 C206 0.931 . S
H235 C207 0.931 . S
H236 C213 0.931 . S
H237 C214 0.931 . S
H238 C216 0.931 . S
H239 C217 0.931 . S
C240 Eu241 2.835 1_554 S
C240 C242 1.500 . S
C240 O260 1.257 . S
C240 O261 1.260 1_554 S
Eu241 C240 2.835 1_556 S
Eu241 O260 2.473 1_556 S
Eu241 O261 2.480 . S
Eu241 O262 2.430 1_545 S
Eu241 O263 2.670 1_545 S
Eu241 O264 2.394 1_546 S
Eu241 O269 2.355 1_556 S
Eu241 O271 2.374 . S
C242 C240 1.500 . S
C242 C243 1.377 . S
C242 C247 1.377 . S
C243 C242 1.377 . S
C243 C244 1.395 . S
C243 H272 0.931 1_554 S
C244 C243 1.395 . S
C244 C245 1.383 . S
C244 H273 0.931 . S
C245 C244 1.383 . S
C245 C246 1.394 . S
C246 C245 1.394 . S
C246 C247 1.378 . S
C246 H274 0.931 . S
C247 C242 1.377 . S
C247 C246 1.378 . S
C247 H275 0.931 . S
C248 O262 1.259 . S
C248 O263 1.270 . S
C249 O264 1.251 . S
C249 O265 1.251 . S
C250 Eu251 2.835 1_556 S
C250 C252 1.500 . S
C250 O266 1.257 . S
C250 O267 1.260 1_556 S
Eu251 C250 2.835 1_554 S
Eu251 O263 2.355 1_554 S
Eu251 O265 2.374 . S
Eu251 O266 2.473 1_554 S
Eu251 O267 2.480 . S
Eu251 O268 2.430 1_565 S
Eu251 O269 2.670 1_565 S
Eu251 O270 2.394 1_564 S
C252 C250 1.500 . S
C252 C253 1.377 . S
C252 C257 1.377 . S
C253 C252 1.377 . S
C253 C254 1.395 . S
C253 H276 0.931 1_556 S
C254 C253 1.395 . S
C254 C255 1.383 . S
C254 H277 0.931 . S
C255 C254 1.383 . S
C255 C256 1.394 . S
C256 C255 1.394 . S
C256 C257 1.378 . S
C256 H278 0.931 . S
C257 C252 1.377 . S
C257 C256 1.378 . S
C257 H279 0.931 . S
C258 O268 1.259 . S
C258 O269 1.270 . S
C259 O270 1.251 . S
C259 O271 1.251 . S
O260 C240 1.257 . S
O260 Eu241 2.473 1_554 S
O261 C240 1.260 1_556 S
O261 Eu241 2.480 . S
O262 Eu241 2.430 1_565 S
O262 C248 1.259 . S
O263 Eu241 2.670 1_565 S
O263 C248 1.270 . S
O263 Eu251 2.355 1_556 S
O264 Eu241 2.394 1_564 S
O264 C249 1.251 . S
O265 C249 1.251 . S
O265 Eu251 2.374 . S
O266 C250 1.257 . S
O266 Eu251 2.473 1_556 S
O267 C250 1.260 1_554 S
O267 Eu251 2.480 . S
O268 Eu251 2.430 1_545 S
O268 C258 1.259 . S
O269 Eu241 2.355 1_554 S
O269 Eu251 2.670 1_545 S
O269 C258 1.270 . S
O270 Eu251 2.394 1_546 S
O270 C259 1.251 . S
O271 Eu241 2.374 . S
O271 C259 1.251 . S
H272 C243 0.931 1_556 S
H273 C244 0.931 . S
H274 C246 0.931 . S
H275 C247 0.931 . S
H276 C253 0.931 1_554 S
H277 C254 0.931 . S
H278 C256 0.931 . S
H279 C257 0.931 . S
C280 Eu281 2.835 . S
C280 C282 1.500 . S
C280 O300 1.257 . S
C280 O301 1.260 . S
Eu281 C280 2.835 . S
Eu281 O300 2.473 . S
Eu281 O301 2.480 . S
Eu281 O302 2.430 . S
Eu281 O303 2.670 . S
Eu281 O304 2.394 . S
Eu281 O309 2.355 . S
Eu281 O311 2.374 . S
C282 C280 1.500 . S
C282 C283 1.377 . S
C282 C287 1.377 . S
C283 C282 1.377 . S
C283 C284 1.395 . S
C283 H312 0.931 . S
C284 C283 1.395 . S
C284 C285 1.383 . S
C284 H313 0.931 . S
C285 C284 1.383 . S
C285 C286 1.394 . S
C286 C285 1.394 . S
C286 C287 1.378 . S
C286 H314 0.931 . S
C287 C282 1.377 . S
C287 C286 1.378 . S
C287 H315 0.931 . S
C288 O302 1.259 . S
C288 O303 1.270 . S
C289 O304 1.251 . S
C289 O305 1.251 . S
C290 Eu291 2.835 . S
C290 C292 1.500 . S
C290 O306 1.257 . S
C290 O307 1.260 . S
Eu291 C290 2.835 . S
Eu291 O303 2.355 . S
Eu291 O305 2.374 . S
Eu291 O306 2.473 . S
Eu291 O307 2.480 . S
Eu291 O308 2.430 . S
Eu291 O309 2.670 . S
Eu291 O310 2.394 . S
C292 C290 1.500 . S
C292 C293 1.377 . S
C292 C297 1.377 . S
C293 C292 1.377 . S
C293 C294 1.395 . S
C293 H316 0.931 . S
C294 C293 1.395 . S
C294 C295 1.383 . S
C294 H317 0.931 . S
C295 C294 1.383 . S
C295 C296 1.394 . S
C296 C295 1.394 . S
C296 C297 1.378 . S
C296 H318 0.931 . S
C297 C292 1.377 . S
C297 C296 1.378 . S
C297 H319 0.931 . S
C298 O308 1.259 . S
C298 O309 1.270 . S
C299 O310 1.251 . S
C299 O311 1.251 . S
O300 C280 1.257 . S
O300 Eu281 2.473 . S
O301 C280 1.260 . S
O301 Eu281 2.480 . S
O302 Eu281 2.430 . S
O302 C288 1.259 . S
O303 Eu281 2.670 . S
O303 C288 1.270 . S
O303 Eu291 2.355 . S
O304 Eu281 2.394 . S
O304 C289 1.251 . S
O305 C289 1.251 . S
O305 Eu291 2.374 . S
O306 C290 1.257 . S
O306 Eu291 2.473 . S
O307 C290 1.260 . S
O307 Eu291 2.480 . S
O308 Eu291 2.430 . S
O308 C298 1.259 . S
O309 Eu281 2.355 . S
O309 Eu291 2.670 . S
O309 C298 1.270 . S
O310 Eu291 2.394 . S
O310 C299 1.251 . S
O311 Eu281 2.374 . S
O311 C299 1.251 . S
H312 C283 0.931 . S
H313 C284 0.931 . S
H314 C286 0.931 . S
H315 C287 0.931 . S
H316 C293 0.931 . S
H317 C294 0.931 . S
H318 C296 0.931 . S
H319 C297 0.931 . S
C320 Eu321 2.835 . S
C320 C322 1.500 . S
C320 O340 1.257 . S
C320 O341 1.260 . S
Eu321 C320 2.835 . S
Eu321 O340 2.473 . S
Eu321 O341 2.480 . S
Eu321 O342 2.430 . S
Eu321 O343 2.670 . S
Eu321 O344 2.394 . S
Eu321 O349 2.355 1_556 S
Eu321 O351 2.374 1_556 S
C322 C320 1.500 . S
C322 C323 1.377 . S
C322 C327 1.377 . S
C323 C322 1.377 . S
C323 C324 1.395 . S
C323 H352 0.931 . S
C324 C323 1.395 . S
C324 C325 1.383 . S
C324 H353 0.931 . S
C325 C324 1.383 . S
C325 C326 1.394 . S
C326 C325 1.394 . S
C326 C327 1.378 . S
C326 H354 0.931 . S
C327 C322 1.377 . S
C327 C326 1.378 . S
C327 H355 0.931 . S
C328 O342 1.259 . S
C328 O343 1.270 . S
C329 O344 1.251 . S
C329 O345 1.251 . S
C330 Eu331 2.835 . S
C330 C332 1.500 . S
C330 O346 1.257 . S
C330 O347 1.260 . S
Eu331 C330 2.835 . S
Eu331 O343 2.355 1_554 S
Eu331 O345 2.374 1_554 S
Eu331 O346 2.473 . S
Eu331 O347 2.480 . S
Eu331 O348 2.430 . S
Eu331 O349 2.670 . S
Eu331 O350 2.394 . S
C332 C330 1.500 . S
C332 C333 1.377 . S
C332 C337 1.377 . S
C333 C332 1.377 . S
C333 C334 1.395 . S
C333 H356 0.931 . S
C334 C333 1.395 . S
C334 C335 1.383 . S
C334 H357 0.931 . S
C335 C334 1.383 . S
C335 C336 1.394 . S
C336 C335 1.394 . S
C336 C337 1.378 . S
C336 H358 0.931 . S
C337 C332 1.377 . S
C337 C336 1.378 . S
C337 H359 0.931 . S
C338 O348 1.259 . S
C338 O349 1.270 . S
C339 O350 1.251 . S
C339 O351 1.251 . S
O340 C320 1.257 . S
O340 Eu321 2.473 . S
O341 C320 1.260 . S
O341 Eu321 2.480 . S
O342 Eu321 2.430 . S
O342 C328 1.259 . S
O343 Eu321 2.670 . S
O343 C328 1.270 . S
O343 Eu331 2.355 1_556 S
O344 Eu321 2.394 . S
O344 C329 1.251 . S
O345 C329 1.251 . S
O345 Eu331 2.374 1_556 S
O346 C330 1.257 . S
O346 Eu331 2.473 . S
O347 C330 1.260 . S
O347 Eu331 2.480 . S
O348 Eu331 2.430 . S
O348 C338 1.259 . S
O349 Eu321 2.355 1_554 S
O349 Eu331 2.670 . S
O349 C338 1.270 . S
O350 Eu331 2.394 . S
O350 C339 1.251 . S
O351 Eu321 2.374 1_554 S
O351 C339 1.251 . S
H352 C323 0.931 . S
H353 C324 0.931 . S
H354 C326 0.931 . S
H355 C327 0.931 . S
H356 C333 0.931 . S
H357 C334 0.931 . S
H358 C336 0.931 . S
H359 C337 0.931 . S
C360 Eu361 2.835 . S
C360 C362 1.500 . S
C360 O380 1.257 . S
C360 O381 1.260 . S
Eu361 C360 2.835 . S
Eu361 O380 2.473 . S
Eu361 O381 2.480 . S
Eu361 O382 2.430 . S
Eu361 O383 2.670 . S
Eu361 O384 2.394 . S
Eu361 O389 2.355 . S
Eu361 O391 2.374 . S
C362 C360 1.500 . S
C362 C363 1.377 . S
C362 C367 1.377 . S
C363 C362 1.377 . S
C363 C364 1.395 . S
C363 H392 0.931 . S
C364 C363 1.395 . S
C364 C365 1.383 . S
C364 H393 0.931 . S
C365 C364 1.383 . S
C365 C366 1.394 . S
C366 C365 1.394 . S
C366 C367 1.378 . S
C366 H394 0.931 . S
C367 C362 1.377 . S
C367 C366 1.378 . S
C367 H395 0.931 . S
C368 O382 1.259 . S
C368 O383 1.270 . S
C369 O384 1.251 . S
C369 O385 1.251 . S
C370 Eu371 2.835 . S
C370 C372 1.500 . S
C370 O386 1.257 . S
C370 O387 1.260 . S
Eu371 C370 2.835 . S
Eu371 O383 2.355 . S
Eu371 O385 2.374 . S
Eu371 O386 2.473 . S
Eu371 O387 2.480 . S
Eu371 O388 2.430 . S
Eu371 O389 2.670 . S
Eu371 O390 2.394 . S
C372 C370 1.500 . S
C372 C373 1.377 . S
C372 C377 1.377 . S
C373 C372 1.377 . S
C373 C374 1.395 . S
C373 H396 0.931 . S
C374 C373 1.395 . S
C374 C375 1.383 . S
C374 H397 0.931 . S
C375 C374 1.383 . S
C375 C376 1.394 . S
C376 C375 1.394 . S
C376 C377 1.378 . S
C376 H398 0.931 . S
C377 C372 1.377 . S
C377 C376 1.378 . S
C377 H399 0.931 . S
C378 O388 1.259 . S
C378 O389 1.270 . S
C379 O390 1.251 . S
C379 O391 1.251 . S
O380 C360 1.257 . S
O380 Eu361 2.473 . S
O381 C360 1.260 . S
O381 Eu361 2.480 . S
O382 Eu361 2.430 . S
O382 C368 1.259 . S
O383 Eu361 2.670 . S
O383 C368 1.270 . S
O383 Eu371 2.355 . S
O384 Eu361 2.394 . S
O384 C369 1.251 . S
O385 C369 1.251 . S
O385 Eu371 2.374 . S
O386 C370 1.257 . S
O386 Eu371 2.473 . S
O387 C370 1.260 . S
O387 Eu371 2.480 . S
O388 Eu371 2.430 . S
O388 C378 1.259 . S
O389 Eu361 2.355 . S
O389 Eu371 2.670 . S
O389 C378 1.270 . S
O390 Eu371 2.394 . S
O390 C379 1.251 . S
O391 Eu361 2.374 . S
O391 C379 1.251 . S
H392 C363 0.931 . S
H393 C364 0.931 . S
H394 C366 0.931 . S
H395 C367 0.931 . S
H396 C373 0.931 . S
H397 C374 0.931 . S
H398 C376 0.931 . S
H399 C377 0.931 . S
C400 Eu401 2.835 . S
C400 C402 1.500 . S
C400 O420 1.257 . S
C400 O421 1.260 . S
Eu401 C400 2.835 . S
Eu401 O420 2.473 . S
Eu401 O421 2.480 . S
Eu401 O422 2.430 . S
Eu401 O423 2.670 . S
Eu401 O424 2.394 . S
Eu401 O429 2.355 1_655 S
Eu401 O431 2.374 1_655 S
C402 C400 1.500 . S
C402 C403 1.377 . S
C402 C407 1.377 . S
C403 C402 1.377 . S
C403 C404 1.395 . S
C403 H432 0.931 . S
C404 C403 1.395 . S
C404 C405 1.383 . S
C404 H433 0.931 . S
C405 C404 1.383 . S
C405 C406 1.394 . S
C406 C405 1.394 . S
C406 C407 1.378 . S
C406 H434 0.931 . S
C407 C402 1.377 . S
C407 C406 1.378 . S
C407 H435 0.931 . S
C408 O422 1.259 . S
C408 O423 1.270 . S
C409 O424 1.251 . S
C409 O425 1.251 . S
C410 Eu411 2.835 . S
C410 C412 1.500 . S
C410 O426 1.257 . S
C410 O427 1.260 . S
Eu411 C410 2.835 . S
Eu411 O423 2.355 1_455 S
Eu411 O425 2.374 1_455 S
Eu411 O426 2.473 . S
Eu411 O427 2.480 . S
Eu411 O428 2.430 . S
Eu411 O429 2.670 . S
Eu411 O430 2.394 . S
C412 C410 1.500 . S
C412 C413 1.377 . S
C412 C417 1.377 . S
C413 C412 1.377 . S
C413 C414 1.395 . S
C413 H436 0.931 . S
C414 C413 1.395 . S
C414 C415 1.383 . S
C414 H437 0.931 . S
C415 C414 1.383 . S
C415 C416 1.394 . S
C416 C415 1.394 . S
C416 C417 1.378 . S
C416 H438 0.931 . S
C417 C412 1.377 . S
C417 C416 1.378 . S
C417 H439 0.931 . S
C418 O428 1.259 . S
C418 O429 1.270 . S
C419 O430 1.251 . S
C419 O431 1.251 . S
O420 C400 1.257 . S
O420 Eu401 2.473 . S
O421 C400 1.260 . S
O421 Eu401 2.480 . S
O422 Eu401 2.430 . S
O422 C408 1.259 . S
O423 Eu401 2.670 . S
O423 C408 1.270 . S
O423 Eu411 2.355 1_655 S
O424 Eu401 2.394 . S
O424 C409 1.251 . S
O425 C409 1.251 . S
O425 Eu411 2.374 1_655 S
O426 C410 1.257 . S
O426 Eu411 2.473 . S
O427 C410 1.260 . S
O427 Eu411 2.480 . S
O428 Eu411 2.430 . S
O428 C418 1.259 . S
O429 Eu401 2.355 1_455 S
O429 Eu411 2.670 . S
O429 C418 1.270 . S
O430 Eu411 2.394 . S
O430 C419 1.251 . S
O431 Eu401 2.374 1_455 S
O431 C419 1.251 . S
H432 C403 0.931 . S
H433 C404 0.931 . S
H434 C406 0.931 . S
H435 C407 0.931 . S
H436 C413 0.931 . S
H437 C414 0.931 . S
H438 C416 0.931 . S
H439 C417 0.931 . S
C440 Eu441 2.835 . S
C440 C442 1.500 . S
C440 O460 1.257 . S
C440 O461 1.260 . S
Eu441 C440 2.835 . S
Eu441 O460 2.473 . S
Eu441 O461 2.480 . S
Eu441 O462 2.430 . S
Eu441 O463 2.670 . S
Eu441 O464 2.394 . S
Eu441 O469 2.355 . S
Eu441 O471 2.374 . S
C442 C440 1.500 . S
C442 C443 1.377 . S
C442 C447 1.377 . S
C443 C442 1.377 . S
C443 C444 1.395 . S
C443 H472 0.931 . S
C444 C443 1.395 . S
C444 C445 1.383 . S
C444 H473 0.931 . S
C445 C444 1.383 . S
C445 C446 1.394 . S
C446 C445 1.394 . S
C446 C447 1.378 . S
C446 H474 0.931 . S
C447 C442 1.377 . S
C447 C446 1.378 . S
C447 H475 0.931 . S
C448 O462 1.259 . S
C448 O463 1.270 . S
C449 O464 1.251 . S
C449 O465 1.251 . S
C450 Eu451 2.835 . S
C450 C452 1.500 . S
C450 O466 1.257 . S
C450 O467 1.260 . S
Eu451 C450 2.835 . S
Eu451 O463 2.355 . S
Eu451 O465 2.374 . S
Eu451 O466 2.473 . S
Eu451 O467 2.480 . S
Eu451 O468 2.430 . S
Eu451 O469 2.670 . S
Eu451 O470 2.394 . S
C452 C450 1.500 . S
C452 C453 1.377 . S
C452 C457 1.377 . S
C453 C452 1.377 . S
C453 C454 1.395 . S
C453 H476 0.931 . S
C454 C453 1.395 . S
C454 C455 1.383 . S
C454 H477 0.931 . S
C455 C454 1.383 . S
C455 C456 1.394 . S
C456 C455 1.394 . S
C456 C457 1.378 . S
C456 H478 0.931 . S
C457 C452 1.377 . S
C457 C456 1.378 . S
C457 H479 0.931 . S
C458 O468 1.259 . S
C458 O469 1.270 . S
C459 O470 1.251 . S
C459 O471 1.251 . S
O460 C440 1.257 . S
O460 Eu441 2.473 . S
O461 C440 1.260 . S
O461 Eu441 2.480 . S
O462 Eu441 2.430 . S
O462 C448 1.259 . S
O463 Eu441 2.670 . S
O463 C448 1.270 . S
O463 Eu451 2.355 . S
O464 Eu441 2.394 . S
O464 C449 1.251 . S
O465 C449 1.251 . S
O465 Eu451 2.374 . S
O466 C450 1.257 . S
O466 Eu451 2.473 . S
O467 C450 1.260 . S
O467 Eu451 2.480 . S
O468 Eu451 2.430 . S
O468 C458 1.259 . S
O469 Eu441 2.355 . S
O469 Eu451 2.670 . S
O469 C458 1.270 . S
O470 Eu451 2.394 . S
O470 C459 1.251 . S
O471 Eu441 2.374 . S
O471 C459 1.251 . S
H472 C443 0.931 . S
H473 C444 0.931 . S
H474 C446 0.931 . S
H475 C447 0.931 . S
H476 C453 0.931 . S
H477 C454 0.931 . S
H478 C456 0.931 . S
H479 C457 0.931 . S
C480 Eu481 2.835 . S
C480 C482 1.500 . S
C480 O500 1.257 . S
C480 O501 1.260 . S
Eu481 C480 2.835 . S
Eu481 O500 2.473 . S
Eu481 O501 2.480 . S
Eu481 O502 2.430 . S
Eu481 O503 2.670 . S
Eu481 O504 2.394 . S
Eu481 O509 2.355 . S
Eu481 O511 2.374 . S
C482 C480 1.500 . S
C482 C483 1.377 . S
C482 C487 1.377 . S
C483 C482 1.377 . S
C483 C484 1.395 . S
C483 H512 0.931 . S
C484 C483 1.395 . S
C484 C485 1.383 . S
C484 H513 0.931 . S
C485 C484 1.383 . S
C485 C486 1.394 . S
C486 C485 1.394 . S
C486 C487 1.378 . S
C486 H514 0.931 . S
C487 C482 1.377 . S
C487 C486 1.378 . S
C487 H515 0.931 . S
C488 O502 1.259 . S
C488 O503 1.270 . S
C489 O504 1.251 . S
C489 O505 1.251 . S
C490 Eu491 2.835 . S
C490 C492 1.500 . S
C490 O506 1.257 . S
C490 O507 1.260 . S
Eu491 C490 2.835 . S
Eu491 O503 2.355 . S
Eu491 O505 2.374 . S
Eu491 O506 2.473 . S
Eu491 O507 2.480 . S
Eu491 O508 2.430 . S
Eu491 O509 2.670 . S
Eu491 O510 2.394 . S
C492 C490 1.500 . S
C492 C493 1.377 . S
C492 C497 1.377 . S
C493 C492 1.377 . S
C493 C494 1.395 . S
C493 H516 0.931 . S
C494 C493 1.395 . S
C494 C495 1.383 . S
C494 H517 0.931 . S
C495 C494 1.383 . S
C495 C496 1.394 . S
C496 C495 1.394 . S
C496 C497 1.378 . S
C496 H518 0.931 . S
C497 C492 1.377 . S
C497 C496 1.378 . S
C497 H519 0.931 . S
C498 O508 1.259 . S
C498 O509 1.270 . S
C499 O510 1.251 . S
C499 O511 1.251 . S
O500 C480 1.257 . S
O500 Eu481 2.473 . S
O501 C480 1.260 . S
O501 Eu481 2.480 . S
O502 Eu481 2.430 . S
O502 C488 1.259 . S
O503 Eu481 2.670 . S
O503 C488 1.270 . S
O503 Eu491 2.355 . S
O504 Eu481 2.394 . S
O504 C489 1.251 . S
O505 C489 1.251 . S
O505 Eu491 2.374 . S
O506 C490 1.257 . S
O506 Eu491 2.473 . S
O507 C490 1.260 . S
O507 Eu491 2.480 . S
O508 Eu491 2.430 . S
O508 C498 1.259 . S
O509 Eu481 2.355 . S
O509 Eu491 2.670 . S
O509 C498 1.270 . S
O510 Eu491 2.394 . S
O510 C499 1.251 . S
O511 Eu481 2.374 . S
O511 C499 1.251 . S
H512 C483 0.931 . S
H513 C484 0.931 . S
H514 C486 0.931 . S
H515 C487 0.931 . S
H516 C493 0.931 . S
H517 C494 0.931 . S
H518 C496 0.931 . S
H519 C497 0.931 . S
C520 Eu521 2.835 . S
C520 C522 1.500 . S
C520 O540 1.257 . S
C520 O541 1.260 . S
Eu521 C520 2.835 . S
Eu521 O540 2.473 . S
Eu521 O541 2.480 . S
Eu521 O542 2.430 . S
Eu521 O543 2.670 . S
Eu521 O544 2.394 . S
Eu521 O549 2.355 . S
Eu521 O551 2.374 . S
C522 C520 1.500 . S
C522 C523 1.377 . S
C522 C527 1.377 . S
C523 C522 1.377 . S
C523 C524 1.395 . S
C523 H552 0.931 . S
C524 C523 1.395 . S
C524 C525 1.383 . S
C524 H553 0.931 . S
C525 C524 1.383 . S
C525 C526 1.394 . S
C526 C525 1.394 . S
C526 C527 1.378 . S
C526 H554 0.931 . S
C527 C522 1.377 . S
C527 C526 1.378 . S
C527 H555 0.931 . S
C528 O542 1.259 . S
C528 O543 1.270 . S
C529 O544 1.251 . S
C529 O545 1.251 . S
C530 Eu531 2.835 . S
C530 C532 1.500 . S
C530 O546 1.257 . S
C530 O547 1.260 . S
Eu531 C530 2.835 . S
Eu531 O543 2.355 . S
Eu531 O545 2.374 . S
Eu531 O546 2.473 . S
Eu531 O547 2.480 . S
Eu531 O548 2.430 . S
Eu531 O549 2.670 . S
Eu531 O550 2.394 . S
C532 C530 1.500 . S
C532 C533 1.377 . S
C532 C537 1.377 . S
C533 C532 1.377 . S
C533 C534 1.395 . S
C533 H556 0.931 . S
C534 C533 1.395 . S
C534 C535 1.383 . S
C534 H557 0.931 . S
C535 C534 1.383 . S
C535 C536 1.394 . S
C536 C535 1.394 . S
C536 C537 1.378 . S
C536 H558 0.931 . S
C537 C532 1.377 . S
C537 C536 1.378 . S
C537 H559 0.931 . S
C538 O548 1.259 . S
C538 O549 1.270 . S
C539 O550 1.251 . S
C539 O551 1.251 . S
O540 C520 1.257 . S
O540 Eu521 2.473 . S
O541 C520 1.260 . S
O541 Eu521 2.480 . S
O542 Eu521 2.430 . S
O542 C528 1.259 . S
O543 Eu521 2.670 . S
O543 C528 1.270 . S
O543 Eu531 2.355 . S
O544 Eu521 2.394 . S
O544 C529 1.251 . S
O545 C529 1.251 . S
O545 Eu531 2.374 . S
O546 C530 1.257 . S
O546 Eu531 2.473 . S
O547 C530 1.260 . S
O547 Eu531 2.480 . S
O548 Eu531 2.430 . S
O548 C538 1.259 . S
O549 Eu521 2.355 . S
O549 Eu531 2.670 . S
O549 C538 1.270 . S
O550 Eu531 2.394 . S
O550 C539 1.251 . S
O551 Eu521 2.374 . S
O551 C539 1.251 . S
H552 C523 0.931 . S
H553 C524 0.931 . S
H554 C526 0.931 . S
H555 C527 0.931 . S
H556 C533 0.931 . S
H557 C534 0.931 . S
H558 C536 0.931 . S
H559 C537 0.931 . S
C560 Eu561 2.835 . S
C560 C562 1.500 . S
C560 O580 1.257 . S
C560 O581 1.260 . S
Eu561 C560 2.835 . S
Eu561 O580 2.473 . S
Eu561 O581 2.480 . S
Eu561 O582 2.430 . S
Eu561 O583 2.670 . S
Eu561 O584 2.394 . S
Eu561 O589 2.355 . S
Eu561 O591 2.374 . S
C562 C560 1.500 . S
C562 C563 1.377 . S
C562 C567 1.377 . S
C563 C562 1.377 . S
C563 C564 1.395 . S
C563 H592 0.931 . S
C564 C563 1.395 . S
C564 C565 1.383 . S
C564 H593 0.931 . S
C565 C564 1.383 . S
C565 C566 1.394 . S
C566 C565 1.394 . S
C566 C567 1.378 . S
C566 H594 0.931 . S
C567 C562 1.377 . S
C567 C566 1.378 . S
C567 H595 0.931 . S
C568 O582 1.259 . S
C568 O583 1.270 . S
C569 O584 1.251 . S
C569 O585 1.251 . S
C570 Eu571 2.835 . S
C570 C572 1.500 . S
C570 O586 1.257 . S
C570 O587 1.260 . S
Eu571 C570 2.835 . S
Eu571 O583 2.355 . S
Eu571 O585 2.374 . S
Eu571 O586 2.473 . S
Eu571 O587 2.480 . S
Eu571 O588 2.430 . S
Eu571 O589 2.670 . S
Eu571 O590 2.394 . S
C572 C570 1.500 . S
C572 C573 1.377 . S
C572 C577 1.377 . S
C573 C572 1.377 . S
C573 C574 1.395 . S
C573 H596 0.931 . S
C574 C573 1.395 . S
C574 C575 1.383 . S
C574 H597 0.931 . S
C575 C574 1.383 . S
C575 C576 1.394 . S
C576 C575 1.394 . S
C576 C577 1.378 . S
C576 H598 0.931 . S
C577 C572 1.377 . S
C577 C576 1.378 . S
C577 H599 0.931 . S
C578 O588 1.259 . S
C578 O589 1.270 . S
C579 O590 1.251 . S
C579 O591 1.251 . S
O580 C560 1.257 . S
O580 Eu561 2.473 . S
O581 C560 1.260 . S
O581 Eu561 2.480 . S
O582 Eu561 2.430 . S
O582 C568 1.259 . S
O583 Eu561 2.670 . S
O583 C568 1.270 . S
O583 Eu571 2.355 . S
O584 Eu561 2.394 . S
O584 C569 1.251 . S
O585 C569 1.251 . S
O585 Eu571 2.374 . S
O586 C570 1.257 . S
O586 Eu571 2.473 . S
O587 C570 1.260 . S
O587 Eu571 2.480 . S
O588 Eu571 2.430 . S
O588 C578 1.259 . S
O589 Eu561 2.355 . S
O589 Eu571 2.670 . S
O589 C578 1.270 . S
O590 Eu571 2.394 . S
O590 C579 1.251 . S
O591 Eu561 2.374 . S
O591 C579 1.251 . S
H592 C563 0.931 . S
H593 C564 0.931 . S
H594 C566 0.931 . S
H595 C567 0.931 . S
H596 C573 0.931 . S
H597 C574 0.931 . S
H598 C576 0.931 . S
H599 C577 0.931 . S
C600 Eu601 2.835 . S
C600 C602 1.500 . S
C600 O620 1.257 . S
C600 O621 1.260 . S
Eu601 C600 2.835 . S
Eu601 O620 2.473 . S
Eu601 O621 2.480 . S
Eu601 O622 2.430 1_556 S
Eu601 O623 2.670 1_556 S
Eu601 O624 2.394 1_556 S
Eu601 O629 2.355 1_455 S
Eu601 O631 2.374 1_455 S
C602 C600 1.500 . S
C602 C603 1.377 . S
C602 C607 1.377 . S
C603 C602 1.377 . S
C603 C604 1.395 . S
C603 H632 0.931 . S
C604 C603 1.395 . S
C604 C605 1.383 . S
C604 H633 0.931 . S
C605 C604 1.383 . S
C605 C606 1.394 . S
C606 C605 1.394 . S
C606 C607 1.378 . S
C606 H634 0.931 . S
C607 C602 1.377 . S
C607 C606 1.378 . S
C607 H635 0.931 . S
C608 O622 1.259 . S
C608 O623 1.270 . S
C609 O624 1.251 . S
C609 O625 1.251 . S
C610 Eu611 2.835 . S
C610 C612 1.500 . S
C610 O626 1.257 . S
C610 O627 1.260 . S
Eu611 C610 2.835 . S
Eu611 O623 2.355 1_655 S
Eu611 O625 2.374 1_655 S
Eu611 O626 2.473 . S
Eu611 O627 2.480 . S
Eu611 O628 2.430 1_554 S
Eu611 O629 2.670 1_554 S
Eu611 O630 2.394 1_554 S
C612 C610 1.500 . S
C612 C613 1.377 . S
C612 C617 1.377 . S
C613 C612 1.377 . S
C613 C614 1.395 . S
C613 H636 0.931 . S
C614 C613 1.395 . S
C614 C615 1.383 . S
C614 H637 0.931 . S
C615 C614 1.383 . S
C615 C616 1.394 . S
C616 C615 1.394 . S
C616 C617 1.378 . S
C616 H638 0.931 . S
C617 C612 1.377 . S
C617 C616 1.378 . S
C617 H639 0.931 . S
C618 O628 1.259 . S
C618 O629 1.270 . S
C619 O630 1.251 . S
C619 O631 1.251 . S
O620 C600 1.257 . S
O620 Eu601 2.473 . S
O621 C600 1.260 . S
O621 Eu601 2.480 . S
O622 Eu601 2.430 1_554 S
O622 C608 1.259 . S
O623 Eu601 2.670 1_554 S
O623 C608 1.270 . S
O623 Eu611 2.355 1_455 S
O624 Eu601 2.394 1_554 S
O624 C609 1.251 . S
O625 C609 1.251 . S
O625 Eu611 2.374 1_455 S
O626 C610 1.257 . S
O626 Eu611 2.473 . S
O627 C610 1.260 . S
O627 Eu611 2.480 . S
O628 Eu611 2.430 1_556 S
O628 C618 1.259 . S
O629 Eu601 2.355 1_655 S
O629 Eu611 2.670 1_556 S
O629 C618 1.270 . S
O630 Eu611 2.394 1_556 S
O630 C619 1.251 . S
O631 Eu601 2.374 1_655 S
O631 C619 1.251 . S
H632 C603 0.931 . S
H633 C604 0.931 . S
H634 C606 0.931 . S
H635 C607 0.931 . S
H636 C613 0.931 . S
H637 C614 0.931 . S
H638 C616 0.931 . S
H639 C617 0.931 . S
H640 C652 0.930 . S
H641 C654 0.930 . S
H642 C655 0.930 . S
H643 C659 0.959 . S
H644 C659 0.959 . S
H645 C659 0.961 . S
H646 C660 0.960 . S
H647 C660 0.961 . S
H648 C660 0.959 . S
H649 C663 0.929 . S
H650 C664 0.931 . S
H651 C666 0.930 . S
C652 H640 0.930 . S
C652 C653 1.399 . S
C652 C657 1.399 . S
C653 C652 1.399 . S
C653 C654 1.376 . S
C654 H641 0.930 . S
C654 C653 1.376 . S
C654 C655 1.388 . S
C655 H642 0.930 . S
C655 C654 1.388 . S
C655 C656 1.390 . S
C656 C655 1.390 . S
C656 C657 1.394 . S
C656 C662 1.465 . S
C657 C652 1.399 . S
C657 C656 1.394 . S
C657 C658 1.516 . S
C658 C657 1.516 . S
C658 C659 1.502 . S
C658 C660 1.561 . S
C658 C661 1.526 . S
C659 H643 0.959 . S
C659 H644 0.959 . S
C659 H645 0.961 . S
C659 C658 1.502 . S
C660 H646 0.960 . S
C660 H647 0.961 . S
C660 H648 0.959 . S
C660 C658 1.561 . S
C661 C658 1.526 . S
C661 C662 1.396 . S
C661 C666 1.390 . S
C662 C656 1.465 . S
C662 C661 1.396 . S
C662 C663 1.399 . S
C663 H649 0.929 . S
C663 C662 1.399 . S
C663 C664 1.385 . S
C664 H650 0.931 . S
C664 C663 1.385 . S
C664 C665 1.389 . S
C665 C664 1.389 . S
C665 C666 1.387 . S
C666 H651 0.930 . S
C666 C661 1.390 . S
C666 C665 1.387 . S
H667 C679 0.930 . S
H668 C681 0.930 . S
H669 C682 0.930 . S
H670 C686 0.959 . S
H671 C686 0.959 . S
H672 C686 0.961 . S
H673 C687 0.960 . S
H674 C687 0.961 . S
H675 C687 0.959 . S
H676 C690 0.929 . S
H677 C691 0.931 . S
H678 C693 0.930 . S
C679 H667 0.930 . S
C679 C680 1.399 . S
C679 C684 1.399 . S
C680 C679 1.399 . S
C680 C681 1.376 . S
C681 H668 0.930 . S
C681 C680 1.376 . S
C681 C682 1.388 . S
C682 H669 0.930 . S
C682 C681 1.388 . S
C682 C683 1.390 . S
C683 C682 1.390 . S
C683 C684 1.394 . S
C683 C689 1.465 . S
C684 C679 1.399 . S
C684 C683 1.394 . S
C684 C685 1.516 . S
C685 C684 1.516 . S
C685 C686 1.502 . S
C685 C687 1.561 . S
C685 C688 1.526 . S
C686 H670 0.959 . S
C686 H671 0.959 . S
C686 H672 0.961 . S
C686 C685 1.502 . S
C687 H673 0.960 . S
C687 H674 0.961 . S
C687 H675 0.959 . S
C687 C685 1.561 . S
C688 C685 1.526 . S
C688 C689 1.396 . S
C688 C693 1.390 . S
C689 C683 1.465 . S
C689 C688 1.396 . S
C689 C690 1.399 . S
C690 H676 0.929 . S
C690 C689 1.399 . S
C690 C691 1.385 . S
C691 H677 0.931 . S
C691 C690 1.385 . S
C691 C692 1.389 . S
C692 C691 1.389 . S
C692 C693 1.387 . S
C693 H678 0.930 . S
C693 C688 1.390 . S
C693 C692 1.387 . S
H694 C706 0.930 . S
H695 C708 0.930 . S
H696 C709 0.930 . S
H697 C713 0.959 . S
H698 C713 0.959 . S
H699 C713 0.961 . S
H700 C714 0.960 . S
H701 C714 0.961 . S
H702 C714 0.959 . S
H703 C717 0.929 . S
H704 C718 0.931 . S
H705 C720 0.930 . S
C706 H694 0.930 . S
C706 C707 1.399 . S
C706 C711 1.399 . S
C707 C706 1.399 . S
C707 C708 1.376 . S
C708 H695 0.930 . S
C708 C707 1.376 . S
C708 C709 1.388 . S
C709 H696 0.930 . S
C709 C708 1.388 . S
C709 C710 1.390 . S
C710 C709 1.390 . S
C710 C711 1.394 . S
C710 C716 1.465 . S
C711 C706 1.399 . S
C711 C710 1.394 . S
C711 C712 1.516 . S
C712 C711 1.516 . S
C712 C713 1.502 . S
C712 C714 1.561 . S
C712 C715 1.526 . S
C713 H697 0.959 . S
C713 H698 0.959 . S
C713 H699 0.961 . S
C713 C712 1.502 . S
C714 H700 0.960 . S
C714 H701 0.961 . S
C714 H702 0.959 . S
C714 C712 1.561 . S
C715 C712 1.526 . S
C715 C716 1.396 . S
C715 C720 1.390 . S
C716 C710 1.465 . S
C716 C715 1.396 . S
C716 C717 1.399 . S
C717 H703 0.929 . S
C717 C716 1.399 . S
C717 C718 1.385 . S
C718 H704 0.931 . S
C718 C717 1.385 . S
C718 C719 1.389 . S
C719 C718 1.389 . S
C719 C720 1.387 . S
C720 H705 0.930 . S
C720 C715 1.390 . S
C720 C719 1.387 . S
H721 C733 0.930 . S
H722 C735 0.930 . S
H723 C736 0.930 . S
H724 C740 0.959 . S
H725 C740 0.959 . S
H726 C740 0.961 . S
H727 C741 0.960 . S
H728 C741 0.961 . S
H729 C741 0.959 . S
H730 C744 0.929 . S
H731 C745 0.931 . S
H732 C747 0.930 . S
C733 H721 0.930 . S
C733 C734 1.399 . S
C733 C738 1.399 . S
C734 C733 1.399 . S
C734 C735 1.376 . S
C735 H722 0.930 . S
C735 C734 1.376 . S
C735 C736 1.388 . S
C736 H723 0.930 . S
C736 C735 1.388 . S
C736 C737 1.390 . S
C737 C736 1.390 . S
C737 C738 1.394 . S
C737 C743 1.465 . S
C738 C733 1.399 . S
C738 C737 1.394 . S
C738 C739 1.516 . S
C739 C738 1.516 . S
C739 C740 1.502 . S
C739 C741 1.561 . S
C739 C742 1.526 . S
C740 H724 0.959 . S
C740 H725 0.959 . S
C740 H726 0.961 . S
C740 C739 1.502 . S
C741 H727 0.960 . S
C741 H728 0.961 . S
C741 H729 0.959 . S
C741 C739 1.561 . S
C742 C739 1.526 . S
C742 C743 1.396 . S
C742 C747 1.390 . S
C743 C737 1.465 . S
C743 C742 1.396 . S
C743 C744 1.399 . S
C744 H730 0.929 . S
C744 C743 1.399 . S
C744 C745 1.385 . S
C745 H731 0.931 . S
C745 C744 1.385 . S
C745 C746 1.389 . S
C746 C745 1.389 . S
C746 C747 1.387 . S
C747 H732 0.930 . S
C747 C742 1.390 . S
C747 C746 1.387 . S
H748 C760 0.930 . S
H749 C762 0.930 . S
H750 C763 0.930 . S
H751 C767 0.959 . S
H752 C767 0.959 . S
H753 C767 0.961 . S
H754 C768 0.960 . S
H755 C768 0.961 . S
H756 C768 0.959 . S
H757 C771 0.929 . S
H758 C772 0.931 . S
H759 C774 0.930 . S
C760 H748 0.930 . S
C760 C761 1.399 . S
C760 C765 1.399 . S
C761 C760 1.399 . S
C761 C762 1.376 . S
C762 H749 0.930 . S
C762 C761 1.376 . S
C762 C763 1.388 . S
C763 H750 0.930 . S
C763 C762 1.388 . S
C763 C764 1.390 . S
C764 C763 1.390 . S
C764 C765 1.394 . S
C764 C770 1.465 . S
C765 C760 1.399 . S
C765 C764 1.394 . S
C765 C766 1.516 . S
C766 C765 1.516 . S
C766 C767 1.502 . S
C766 C768 1.561 . S
C766 C769 1.526 . S
C767 H751 0.959 . S
C767 H752 0.959 . S
C767 H753 0.961 . S
C767 C766 1.502 . S
C768 H754 0.960 . S
C768 H755 0.961 . S
C768 H756 0.959 . S
C768 C766 1.561 . S
C769 C766 1.526 . S
C769 C770 1.396 . S
C769 C774 1.390 . S
C770 C764 1.465 . S
C770 C769 1.396 . S
C770 C771 1.399 . S
C771 H757 0.929 . S
C771 C770 1.399 . S
C771 C772 1.385 . S
C772 H758 0.931 . S
C772 C771 1.385 . S
C772 C773 1.389 . S
C773 C772 1.389 . S
C773 C774 1.387 . S
C774 H759 0.930 . S
C774 C769 1.390 . S
C774 C773 1.387 . S
H775 C787 0.930 . S
H776 C789 0.930 . S
H777 C790 0.930 . S
H778 C794 0.959 . S
H779 C794 0.959 . S
H780 C794 0.961 . S
H781 C795 0.960 . S
H782 C795 0.961 . S
H783 C795 0.959 . S
H784 C798 0.929 . S
H785 C799 0.931 . S
H786 C801 0.930 . S
C787 H775 0.930 . S
C787 C788 1.399 . S
C787 C792 1.399 . S
C788 C787 1.399 . S
C788 C789 1.376 . S
C789 H776 0.930 . S
C789 C788 1.376 . S
C789 C790 1.388 . S
C790 H777 0.930 . S
C790 C789 1.388 . S
C790 C791 1.390 . S
C791 C790 1.390 . S
C791 C792 1.394 . S
C791 C797 1.465 . S
C792 C787 1.399 . S
C792 C791 1.394 . S
C792 C793 1.516 . S
C793 C792 1.516 . S
C793 C794 1.502 . S
C793 C795 1.561 . S
C793 C796 1.526 . S
C794 H778 0.959 . S
C794 H779 0.959 . S
C794 H780 0.961 . S
C794 C793 1.502 . S
C795 H781 0.960 . S
C795 H782 0.961 . S
C795 H783 0.959 . S
C795 C793 1.561 . S
C796 C793 1.526 . S
C796 C797 1.396 . S
C796 C801 1.390 . S
C797 C791 1.465 . S
C797 C796 1.396 . S
C797 C798 1.399 . S
C798 H784 0.929 . S
C798 C797 1.399 . S
C798 C799 1.385 . S
C799 H785 0.931 . S
C799 C798 1.385 . S
C799 C800 1.389 . S
C800 C799 1.389 . S
C800 C801 1.387 . S
C801 H786 0.930 . S
C801 C796 1.390 . S
C801 C800 1.387 . S
H802 C814 0.930 . S
H803 C816 0.930 . S
H804 C817 0.930 . S
H805 C821 0.959 . S
H806 C821 0.959 . S
H807 C821 0.961 . S
H808 C822 0.960 . S
H809 C822 0.961 . S
H810 C822 0.959 . S
H811 C825 0.929 . S
H812 C826 0.931 . S
H813 C828 0.930 . S
C814 H802 0.930 . S
C814 C815 1.399 . S
C814 C819 1.399 . S
C815 C814 1.399 . S
C815 C816 1.376 . S
C816 H803 0.930 . S
C816 C815 1.376 . S
C816 C817 1.388 . S
C817 H804 0.930 . S
C817 C816 1.388 . S
C817 C818 1.390 . S
C818 C817 1.390 . S
C818 C819 1.394 . S
C818 C824 1.465 . S
C819 C814 1.399 . S
C819 C818 1.394 . S
C819 C820 1.516 . S
C820 C819 1.516 . S
C820 C821 1.502 . S
C820 C822 1.561 . S
C820 C823 1.526 . S
C821 H805 0.959 . S
C821 H806 0.959 . S
C821 H807 0.961 . S
C821 C820 1.502 . S
C822 H808 0.960 . S
C822 H809 0.961 . S
C822 H810 0.959 . S
C822 C820 1.561 . S
C823 C820 1.526 . S
C823 C824 1.396 . S
C823 C828 1.390 . S
C824 C818 1.465 . S
C824 C823 1.396 . S
C824 C825 1.399 . S
C825 H811 0.929 . S
C825 C824 1.399 . S
C825 C826 1.385 . S
C826 H812 0.931 . S
C826 C825 1.385 . S
C826 C827 1.389 . S
C827 C826 1.389 . S
C827 C828 1.387 . S
C828 H813 0.930 . S
C828 C823 1.390 . S
C828 C827 1.387 . S
H829 C841 0.930 . S
H830 C843 0.930 . S
H831 C844 0.930 . S
H832 C848 0.959 . S
H833 C848 0.959 . S
H834 C848 0.961 . S
H835 C849 0.960 . S
H836 C849 0.961 . S
H837 C849 0.959 . S
H838 C852 0.929 . S
H839 C853 0.931 . S
H840 C855 0.930 . S
C841 H829 0.930 . S
C841 C842 1.399 . S
C841 C846 1.399 . S
C842 C841 1.399 . S
C842 C843 1.376 . S
C843 H830 0.930 . S
C843 C842 1.376 . S
C843 C844 1.388 . S
C844 H831 0.930 . S
C844 C843 1.388 . S
C844 C845 1.390 . S
C845 C844 1.390 . S
C845 C846 1.394 . S
C845 C851 1.465 . S
C846 C841 1.399 . S
C846 C845 1.394 . S
C846 C847 1.516 . S
C847 C846 1.516 . S
C847 C848 1.502 . S
C847 C849 1.561 . S
C847 C850 1.526 . S
C848 H832 0.959 . S
C848 H833 0.959 . S
C848 H834 0.961 . S
C848 C847 1.502 . S
C849 H835 0.960 . S
C849 H836 0.961 . S
C849 H837 0.959 . S
C849 C847 1.561 . S
C850 C847 1.526 . S
C850 C851 1.396 . S
C850 C855 1.390 . S
C851 C845 1.465 . S
C851 C850 1.396 . S
C851 C852 1.399 . S
C852 H838 0.929 . S
C852 C851 1.399 . S
C852 C853 1.385 . S
C853 H839 0.931 . S
C853 C852 1.385 . S
C853 C854 1.389 . S
C854 C853 1.389 . S
C854 C855 1.387 . S
C855 H840 0.930 . S
C855 C850 1.390 . S
C855 C854 1.387 . S
H856 C868 0.930 . S
H857 C870 0.930 . S
H858 C871 0.930 . S
H859 C875 0.959 . S
H860 C875 0.959 . S
H861 C875 0.961 . S
H862 C876 0.960 . S
H863 C876 0.961 . S
H864 C876 0.959 . S
H865 C879 0.929 . S
H866 C880 0.931 . S
H867 C882 0.930 . S
C868 H856 0.930 . S
C868 C869 1.399 . S
C868 C873 1.399 . S
C869 C868 1.399 . S
C869 C870 1.376 . S
C870 H857 0.930 . S
C870 C869 1.376 . S
C870 C871 1.388 . S
C871 H858 0.930 . S
C871 C870 1.388 . S
C871 C872 1.390 . S
C872 C871 1.390 . S
C872 C873 1.394 . S
C872 C878 1.465 . S
C873 C868 1.399 . S
C873 C872 1.394 . S
C873 C874 1.516 . S
C874 C873 1.516 . S
C874 C875 1.502 . S
C874 C876 1.561 . S
C874 C877 1.526 . S
C875 H859 0.959 . S
C875 H860 0.959 . S
C875 H861 0.961 . S
C875 C874 1.502 . S
C876 H862 0.960 . S
C876 H863 0.961 . S
C876 H864 0.959 . S
C876 C874 1.561 . S
C877 C874 1.526 . S
C877 C878 1.396 . S
C877 C882 1.390 . S
C878 C872 1.465 . S
C878 C877 1.396 . S
C878 C879 1.399 . S
C879 H865 0.929 . S
C879 C878 1.399 . S
C879 C880 1.385 . S
C880 H866 0.931 . S
C880 C879 1.385 . S
C880 C881 1.389 . S
C881 C880 1.389 . S
C881 C882 1.387 . S
C882 H867 0.930 . S
C882 C877 1.390 . S
C882 C881 1.387 . S
H883 C895 0.930 . S
H884 C897 0.930 . S
H885 C898 0.930 . S
H886 C902 0.959 . S
H887 C902 0.959 . S
H888 C902 0.961 . S
H889 C903 0.960 . S
H890 C903 0.961 . S
H891 C903 0.959 . S
H892 C906 0.929 . S
H893 C907 0.931 . S
H894 C909 0.930 . S
C895 H883 0.930 . S
C895 C896 1.399 . S
C895 C900 1.399 . S
C896 C895 1.399 . S
C896 C897 1.376 . S
C897 H884 0.930 . S
C897 C896 1.376 . S
C897 C898 1.388 . S
C898 H885 0.930 . S
C898 C897 1.388 . S
C898 C899 1.390 . S
C899 C898 1.390 . S
C899 C900 1.394 . S
C899 C905 1.465 . S
C900 C895 1.399 . S
C900 C899 1.394 . S
C900 C901 1.516 . S
C901 C900 1.516 . S
C901 C902 1.502 . S
C901 C903 1.561 . S
C901 C904 1.526 . S
C902 H886 0.959 . S
C902 H887 0.959 . S
C902 H888 0.961 . S
C902 C901 1.502 . S
C903 H889 0.960 . S
C903 H890 0.961 . S
C903 H891 0.959 . S
C903 C901 1.561 . S
C904 C901 1.526 . S
C904 C905 1.396 . S
C904 C909 1.390 . S
C905 C899 1.465 . S
C905 C904 1.396 . S
C905 C906 1.399 . S
C906 H892 0.929 . S
C906 C905 1.399 . S
C906 C907 1.385 . S
C907 H893 0.931 . S
C907 C906 1.385 . S
C907 C908 1.389 . S
C908 C907 1.389 . S
C908 C909 1.387 . S
C909 H894 0.930 . S
C909 C904 1.390 . S
C909 C908 1.387 . S
H910 C922 0.930 . S
H911 C924 0.930 . S
H912 C925 0.930 . S
H913 C929 0.959 . S
H914 C929 0.959 . S
H915 C929 0.961 . S
H916 C930 0.960 . S
H917 C930 0.961 . S
H918 C930 0.959 . S
H919 C933 0.929 . S
H920 C934 0.931 . S
H921 C936 0.930 . S
C922 H910 0.930 . S
C922 C923 1.399 . S
C922 C927 1.399 . S
C923 C922 1.399 . S
C923 C924 1.376 . S
C924 H911 0.930 . S
C924 C923 1.376 . S
C924 C925 1.388 . S
C925 H912 0.930 . S
C925 C924 1.388 . S
C925 C926 1.390 . S
C926 C925 1.390 . S
C926 C927 1.394 . S
C926 C932 1.465 . S
C927 C922 1.399 . S
C927 C926 1.394 . S
C927 C928 1.516 . S
C928 C927 1.516 . S
C928 C929 1.502 . S
C928 C930 1.561 . S
C928 C931 1.526 . S
C929 H913 0.959 . S
C929 H914 0.959 . S
C929 H915 0.961 . S
C929 C928 1.502 . S
C930 H916 0.960 . S
C930 H917 0.961 . S
C930 H918 0.959 . S
C930 C928 1.561 . S
C931 C928 1.526 . S
C931 C932 1.396 . S
C931 C936 1.390 . S
C932 C926 1.465 . S
C932 C931 1.396 . S
C932 C933 1.399 . S
C933 H919 0.929 . S
C933 C932 1.399 . S
C933 C934 1.385 . S
C934 H920 0.931 . S
C934 C933 1.385 . S
C934 C935 1.389 . S
C935 C934 1.389 . S
C935 C936 1.387 . S
C936 H921 0.930 . S
C936 C931 1.390 . S
C936 C935 1.387 . S
H937 C949 0.930 . S
H938 C951 0.930 . S
H939 C952 0.930 . S
H940 C956 0.959 . S
H941 C956 0.959 . S
H942 C956 0.961 . S
H943 C957 0.960 . S
H944 C957 0.961 . S
H945 C957 0.959 . S
H946 C960 0.929 . S
H947 C961 0.931 . S
H948 C963 0.930 . S
C949 H937 0.930 . S
C949 C950 1.399 . S
C949 C954 1.399 . S
C950 C949 1.399 . S
C950 C951 1.376 . S
C951 H938 0.930 . S
C951 C950 1.376 . S
C951 C952 1.388 . S
C952 H939 0.930 . S
C952 C951 1.388 . S
C952 C953 1.390 . S
C953 C952 1.390 . S
C953 C954 1.394 . S
C953 C959 1.465 . S
C954 C949 1.399 . S
C954 C953 1.394 . S
C954 C955 1.516 . S
C955 C954 1.516 . S
C955 C956 1.502 . S
C955 C957 1.561 . S
C955 C958 1.526 . S
C956 H940 0.959 . S
C956 H941 0.959 . S
C956 H942 0.961 . S
C956 C955 1.502 . S
C957 H943 0.960 . S
C957 H944 0.961 . S
C957 H945 0.959 . S
C957 C955 1.561 . S
C958 C955 1.526 . S
C958 C959 1.396 . S
C958 C963 1.390 . S
C959 C953 1.465 . S
C959 C958 1.396 . S
C959 C960 1.399 . S
C960 H946 0.929 . S
C960 C959 1.399 . S
C960 C961 1.385 . S
C961 H947 0.931 . S
C961 C960 1.385 . S
C961 C962 1.389 . S
C962 C961 1.389 . S
C962 C963 1.387 . S
C963 H948 0.930 . S
C963 C958 1.390 . S
C963 C962 1.387 . S
H964 C976 0.930 . S
H965 C978 0.930 . S
H966 C979 0.930 . S
H967 C983 0.959 . S
H968 C983 0.959 . S
H969 C983 0.961 . S
H970 C984 0.960 . S
H971 C984 0.961 . S
H972 C984 0.959 . S
H973 C987 0.929 . S
H974 C988 0.931 . S
H975 C990 0.930 . S
C976 H964 0.930 . S
C976 C977 1.399 . S
C976 C981 1.399 . S
C977 C976 1.399 . S
C977 C978 1.376 . S
C978 H965 0.930 . S
C978 C977 1.376 . S
C978 C979 1.388 . S
C979 H966 0.930 . S
C979 C978 1.388 . S
C979 C980 1.390 . S
C980 C979 1.390 . S
C980 C981 1.394 . S
C980 C986 1.465 . S
C981 C976 1.399 . S
C981 C980 1.394 . S
C981 C982 1.516 . S
C982 C981 1.516 . S
C982 C983 1.502 . S
C982 C984 1.561 . S
C982 C985 1.526 . S
C983 H967 0.959 . S
C983 H968 0.959 . S
C983 H969 0.961 . S
C983 C982 1.502 . S
C984 H970 0.960 . S
C984 H971 0.961 . S
C984 H972 0.959 . S
C984 C982 1.561 . S
C985 C982 1.526 . S
C985 C986 1.396 . S
C985 C990 1.390 . S
C986 C980 1.465 . S
C986 C985 1.396 . S
C986 C987 1.399 . S
C987 H973 0.929 . S
C987 C986 1.399 . S
C987 C988 1.385 . S
C988 H974 0.931 . S
C988 C987 1.385 . S
C988 C989 1.389 . S
C989 C988 1.389 . S
C989 C990 1.387 . S
C990 H975 0.930 . S
C990 C985 1.390 . S
C990 C989 1.387 . S
H991 C1003 0.930 . S
H992 C1005 0.930 . S
H993 C1006 0.930 . S
H994 C1010 0.959 . S
H995 C1010 0.959 . S
H996 C1010 0.961 . S
H997 C1011 0.960 . S
H998 C1011 0.961 . S
H999 C1011 0.959 . S
H1000 C1014 0.929 . S
H1001 C1015 0.931 . S
H1002 C1017 0.930 . S
C1003 H991 0.930 . S
C1003 C1004 1.399 . S
C1003 C1008 1.399 . S
C1004 C1003 1.399 . S
C1004 C1005 1.376 . S
C1005 H992 0.930 . S
C1005 C1004 1.376 . S
C1005 C1006 1.388 . S
C1006 H993 0.930 . S
C1006 C1005 1.388 . S
C1006 C1007 1.390 . S
C1007 C1006 1.390 . S
C1007 C1008 1.394 . S
C1007 C1013 1.465 . S
C1008 C1003 1.399 . S
C1008 C1007 1.394 . S
C1008 C1009 1.516 . S
C1009 C1008 1.516 . S
C1009 C1010 1.502 . S
C1009 C1011 1.561 . S
C1009 C1012 1.526 . S
C1010 H994 0.959 . S
C1010 H995 0.959 . S
C1010 H996 0.961 . S
C1010 C1009 1.502 . S
C1011 H997 0.960 . S
C1011 H998 0.961 . S
C1011 H999 0.959 . S
C1011 C1009 1.561 . S
C1012 C1009 1.526 . S
C1012 C1013 1.396 . S
C1012 C1017 1.390 . S
C1013 C1007 1.465 . S
C1013 C1012 1.396 . S
C1013 C1014 1.399 . S
C1014 H1000 0.929 . S
C1014 C1013 1.399 . S
C1014 C1015 1.385 . S
C1015 H1001 0.931 . S
C1015 C1014 1.385 . S
C1015 C1016 1.389 . S
C1016 C1015 1.389 . S
C1016 C1017 1.387 . S
C1017 H1002 0.930 . S
C1017 C1012 1.390 . S
C1017 C1016 1.387 . S
H1018 C1030 0.930 . S
H1019 C1032 0.930 1_565 S
H1020 C1033 0.930 . S
H1021 C1037 0.959 . S
H1022 C1037 0.959 . S
H1023 C1037 0.961 . S
H1024 C1038 0.960 . S
H1025 C1038 0.961 . S
H1026 C1038 0.959 . S
H1027 C1041 0.929 . S
H1028 C1042 0.931 . S
H1029 C1044 0.930 . S
C1030 H1018 0.930 . S
C1030 C1031 1.399 . S
C1030 C1035 1.399 . S
C1031 C1030 1.399 . S
C1031 C1032 1.376 . S
C1032 H1019 0.930 1_545 S
C1032 C1031 1.376 . S
C1032 C1033 1.388 . S
C1033 H1020 0.930 . S
C1033 C1032 1.388 . S
C1033 C1034 1.390 . S
C1034 C1033 1.390 . S
C1034 C1035 1.394 . S
C1034 C1040 1.465 . S
C1035 C1030 1.399 . S
C1035 C1034 1.394 . S
C1035 C1036 1.516 . S
C1036 C1035 1.516 . S
C1036 C1037 1.502 . S
C1036 C1038 1.561 . S
C1036 C1039 1.526 . S
C1037 H1021 0.959 . S
C1037 H1022 0.959 . S
C1037 H1023 0.961 . S
C1037 C1036 1.502 . S
C1038 H1024 0.960 . S
C1038 H1025 0.961 . S
C1038 H1026 0.959 . S
C1038 C1036 1.561 . S
C1039 C1036 1.526 . S
C1039 C1040 1.396 . S
C1039 C1044 1.390 . S
C1040 C1034 1.465 . S
C1040 C1039 1.396 . S
C1040 C1041 1.399 . S
C1041 H1027 0.929 . S
C1041 C1040 1.399 . S
C1041 C1042 1.385 . S
C1042 H1028 0.931 . S
C1042 C1041 1.385 . S
C1042 C1043 1.389 . S
C1043 C1042 1.389 . S
C1043 C1044 1.387 . S
C1044 H1029 0.930 . S
C1044 C1039 1.390 . S
C1044 C1043 1.387 . S
H1045 C1057 0.930 . S
H1046 C1059 0.930 . S
H1047 C1060 0.930 . S
H1048 C1064 0.959 . S
H1049 C1064 0.959 . S
H1050 C1064 0.961 . S
H1051 C1065 0.960 . S
H1052 C1065 0.961 . S
H1053 C1065 0.959 . S
H1054 C1068 0.929 . S
H1055 C1069 0.931 . S
H1056 C1071 0.930 . S
C1057 H1045 0.930 . S
C1057 C1058 1.399 . S
C1057 C1062 1.399 . S
C1058 C1057 1.399 . S
C1058 C1059 1.376 . S
C1059 H1046 0.930 . S
C1059 C1058 1.376 . S
C1059 C1060 1.388 . S
C1060 H1047 0.930 . S
C1060 C1059 1.388 . S
C1060 C1061 1.390 . S
C1061 C1060 1.390 . S
C1061 C1062 1.394 . S
C1061 C1067 1.465 . S
C1062 C1057 1.399 . S
C1062 C1061 1.394 . S
C1062 C1063 1.516 . S
C1063 C1062 1.516 . S
C1063 C1064 1.502 . S
C1063 C1065 1.561 . S
C1063 C1066 1.526 . S
C1064 H1048 0.959 . S
C1064 H1049 0.959 . S
C1064 H1050 0.961 . S
C1064 C1063 1.502 . S
C1065 H1051 0.960 . S
C1065 H1052 0.961 . S
C1065 H1053 0.959 . S
C1065 C1063 1.561 . S
C1066 C1063 1.526 . S
C1066 C1067 1.396 . S
C1066 C1071 1.390 . S
C1067 C1061 1.465 . S
C1067 C1066 1.396 . S
C1067 C1068 1.399 . S
C1068 H1054 0.929 . S
C1068 C1067 1.399 . S
C1068 C1069 1.385 . S
C1069 H1055 0.931 . S
C1069 C1068 1.385 . S
C1069 C1070 1.389 . S
C1070 C1069 1.389 . S
C1070 C1071 1.387 . S
C1071 H1056 0.930 . S
C1071 C1066 1.390 . S
C1071 C1070 1.387 . S
H1072 C1084 0.930 . S
H1073 C1086 0.930 . S
H1074 C1087 0.930 . S
H1075 C1091 0.959 . S
H1076 C1091 0.959 . S
H1077 C1091 0.961 . S
H1078 C1092 0.960 . S
H1079 C1092 0.961 . S
H1080 C1092 0.959 . S
H1081 C1095 0.929 . S
H1082 C1096 0.931 . S
H1083 C1098 0.930 . S
C1084 H1072 0.930 . S
C1084 C1085 1.399 . S
C1084 C1089 1.399 . S
C1085 C1084 1.399 . S
C1085 C1086 1.376 . S
C1086 H1073 0.930 . S
C1086 C1085 1.376 . S
C1086 C1087 1.388 . S
C1087 H1074 0.930 . S
C1087 C1086 1.388 . S
C1087 C1088 1.390 . S
C1088 C1087 1.390 . S
C1088 C1089 1.394 . S
C1088 C1094 1.465 . S
C1089 C1084 1.399 . S
C1089 C1088 1.394 . S
C1089 C1090 1.516 . S
C1090 C1089 1.516 . S
C1090 C1091 1.502 . S
C1090 C1092 1.561 . S
C1090 C1093 1.526 . S
C1091 H1075 0.959 . S
C1091 H1076 0.959 . S
C1091 H1077 0.961 . S
C1091 C1090 1.502 . S
C1092 H1078 0.960 . S
C1092 H1079 0.961 . S
C1092 H1080 0.959 . S
C1092 C1090 1.561 . S
C1093 C1090 1.526 . S
C1093 C1094 1.396 . S
C1093 C1098 1.390 . S
C1094 C1088 1.465 . S
C1094 C1093 1.396 . S
C1094 C1095 1.399 . S
C1095 H1081 0.929 . S
C1095 C1094 1.399 . S
C1095 C1096 1.385 . S
C1096 H1082 0.931 . S
C1096 C1095 1.385 . S
C1096 C1097 1.389 . S
C1097 C1096 1.389 . S
C1097 C1098 1.387 . S
C1098 H1083 0.930 . S
C1098 C1093 1.390 . S
C1098 C1097 1.387 . S
H1099 C1111 0.930 . S
H1100 C1113 0.930 . S
H1101 C1114 0.930 . S
H1102 C1118 0.959 . S
H1103 C1118 0.959 . S
H1104 C1118 0.961 . S
H1105 C1119 0.960 . S
H1106 C1119 0.961 1_556 S
H1107 C1119 0.959 . S
H1108 C1122 0.929 . S
H1109 C1123 0.931 . S
H1110 C1125 0.930 . S
C1111 H1099 0.930 . S
C1111 C1112 1.399 . S
C1111 C1116 1.399 . S
C1112 C1111 1.399 . S
C1112 C1113 1.376 . S
C1113 H1100 0.930 . S
C1113 C1112 1.376 . S
C1113 C1114 1.388 . S
C1114 H1101 0.930 . S
C1114 C1113 1.388 . S
C1114 C1115 1.390 . S
C1115 C1114 1.390 . S
C1115 C1116 1.394 . S
C1115 C1121 1.465 . S
C1116 C1111 1.399 . S
C1116 C1115 1.394 . S
C1116 C1117 1.516 . S
C1117 C1116 1.516 . S
C1117 C1118 1.502 . S
C1117 C1119 1.561 . S
C1117 C1120 1.526 . S
C1118 H1102 0.959 . S
C1118 H1103 0.959 . S
C1118 H1104 0.961 . S
C1118 C1117 1.502 . S
C1119 H1105 0.960 . S
C1119 H1106 0.961 1_554 S
C1119 H1107 0.959 . S
C1119 C1117 1.561 . S
C1120 C1117 1.526 . S
C1120 C1121 1.396 . S
C1120 C1125 1.390 . S
C1121 C1115 1.465 . S
C1121 C1120 1.396 . S
C1121 C1122 1.399 . S
C1122 H1108 0.929 . S
C1122 C1121 1.399 . S
C1122 C1123 1.385 . S
C1123 H1109 0.931 . S
C1123 C1122 1.385 . S
C1123 C1124 1.389 . S
C1124 C1123 1.389 . S
C1124 C1125 1.387 . S
C1125 H1110 0.930 . S
C1125 C1120 1.390 . S
C1125 C1124 1.387 . S
H1126 C1138 0.930 . S
H1127 C1140 0.930 . S
H1128 C1141 0.930 . S
H1129 C1145 0.959 . S
H1130 C1145 0.959 . S
H1131 C1145 0.961 . S
H1132 C1146 0.960 . S
H1133 C1146 0.961 . S
H1134 C1146 0.959 . S
H1135 C1149 0.929 . S
H1136 C1150 0.931 . S
H1137 C1152 0.930 . S
C1138 H1126 0.930 . S
C1138 C1139 1.399 . S
C1138 C1143 1.399 . S
C1139 C1138 1.399 . S
C1139 C1140 1.376 . S
C1140 H1127 0.930 . S
C1140 C1139 1.376 . S
C1140 C1141 1.388 . S
C1141 H1128 0.930 . S
C1141 C1140 1.388 . S
C1141 C1142 1.390 . S
C1142 C1141 1.390 . S
C1142 C1143 1.394 . S
C1142 C1148 1.465 . S
C1143 C1138 1.399 . S
C1143 C1142 1.394 . S
C1143 C1144 1.516 . S
C1144 C1143 1.516 . S
C1144 C1145 1.502 . S
C1144 C1146 1.561 . S
C1144 C1147 1.526 . S
C1145 H1129 0.959 . S
C1145 H1130 0.959 . S
C1145 H1131 0.961 . S
C1145 C1144 1.502 . S
C1146 H1132 0.960 . S
C1146 H1133 0.961 . S
C1146 H1134 0.959 . S
C1146 C1144 1.561 . S
C1147 C1144 1.526 . S
C1147 C1148 1.396 . S
C1147 C1152 1.390 . S
C1148 C1142 1.465 . S
C1148 C1147 1.396 . S
C1148 C1149 1.399 . S
C1149 H1135 0.929 . S
C1149 C1148 1.399 . S
C1149 C1150 1.385 . S
C1150 H1136 0.931 . S
C1150 C1149 1.385 . S
C1150 C1151 1.389 . S
C1151 C1150 1.389 . S
C1151 C1152 1.387 . S
C1152 H1137 0.930 . S
C1152 C1147 1.390 . S
C1152 C1151 1.387 . S
H1153 C1165 0.930 . S
H1154 C1167 0.930 . S
H1155 C1168 0.930 . S
H1156 C1172 0.959 . S
H1157 C1172 0.959 . S
H1158 C1172 0.961 . S
H1159 C1173 0.960 . S
H1160 C1173 0.961 . S
H1161 C1173 0.959 . S
H1162 C1176 0.929 . S
H1163 C1177 0.931 . S
H1164 C1179 0.930 . S
C1165 H1153 0.930 . S
C1165 C1166 1.399 . S
C1165 C1170 1.399 . S
C1166 C1165 1.399 . S
C1166 C1167 1.376 . S
C1167 H1154 0.930 . S
C1167 C1166 1.376 . S
C1167 C1168 1.388 . S
C1168 H1155 0.930 . S
C1168 C1167 1.388 . S
C1168 C1169 1.390 . S
C1169 C1168 1.390 . S
C1169 C1170 1.394 . S
C1169 C1175 1.465 . S
C1170 C1165 1.399 . S
C1170 C1169 1.394 . S
C1170 C1171 1.516 . S
C1171 C1170 1.516 . S
C1171 C1172 1.502 . S
C1171 C1173 1.561 . S
C1171 C1174 1.526 . S
C1172 H1156 0.959 . S
C1172 H1157 0.959 . S
C1172 H1158 0.961 . S
C1172 C1171 1.502 . S
C1173 H1159 0.960 . S
C1173 H1160 0.961 . S
C1173 H1161 0.959 . S
C1173 C1171 1.561 . S
C1174 C1171 1.526 . S
C1174 C1175 1.396 . S
C1174 C1179 1.390 . S
C1175 C1169 1.465 . S
C1175 C1174 1.396 . S
C1175 C1176 1.399 . S
C1176 H1162 0.929 . S
C1176 C1175 1.399 . S
C1176 C1177 1.385 . S
C1177 H1163 0.931 . S
C1177 C1176 1.385 . S
C1177 C1178 1.389 . S
C1178 C1177 1.389 . S
C1178 C1179 1.387 . S
C1179 H1164 0.930 . S
C1179 C1174 1.390 . S
C1179 C1178 1.387 . S
H1180 C1192 0.930 . S
H1181 C1194 0.930 . S
H1182 C1195 0.930 . S
H1183 C1199 0.959 . S
H1184 C1199 0.959 . S
H1185 C1199 0.961 . S
H1186 C1200 0.960 . S
H1187 C1200 0.961 . S
H1188 C1200 0.959 . S
H1189 C1203 0.929 . S
H1190 C1204 0.931 . S
H1191 C1206 0.930 . S
C1192 H1180 0.930 . S
C1192 C1193 1.399 . S
C1192 C1197 1.399 . S
C1193 C1192 1.399 . S
C1193 C1194 1.376 . S
C1194 H1181 0.930 . S
C1194 C1193 1.376 . S
C1194 C1195 1.388 . S
C1195 H1182 0.930 . S
C1195 C1194 1.388 . S
C1195 C1196 1.390 . S
C1196 C1195 1.390 . S
C1196 C1197 1.394 . S
C1196 C1202 1.465 . S
C1197 C1192 1.399 . S
C1197 C1196 1.394 . S
C1197 C1198 1.516 . S
C1198 C1197 1.516 . S
C1198 C1199 1.502 . S
C1198 C1200 1.561 . S
C1198 C1201 1.526 . S
C1199 H1183 0.959 . S
C1199 H1184 0.959 . S
C1199 H1185 0.961 . S
C1199 C1198 1.502 . S
C1200 H1186 0.960 . S
C1200 H1187 0.961 . S
C1200 H1188 0.959 . S
C1200 C1198 1.561 . S
C1201 C1198 1.526 . S
C1201 C1202 1.396 . S
C1201 C1206 1.390 . S
C1202 C1196 1.465 . S
C1202 C1201 1.396 . S
C1202 C1203 1.399 . S
C1203 H1189 0.929 . S
C1203 C1202 1.399 . S
C1203 C1204 1.385 . S
C1204 H1190 0.931 . S
C1204 C1203 1.385 . S
C1204 C1205 1.389 . S
C1205 C1204 1.389 . S
C1205 C1206 1.387 . S
C1206 H1191 0.930 . S
C1206 C1201 1.390 . S
C1206 C1205 1.387 . S
H1207 C1219 0.930 . S
H1208 C1221 0.930 . S
H1209 C1222 0.930 . S
H1210 C1226 0.959 . S
H1211 C1226 0.959 . S
H1212 C1226 0.961 . S
H1213 C1227 0.960 . S
H1214 C1227 0.961 . S
H1215 C1227 0.959 . S
H1216 C1230 0.929 . S
H1217 C1231 0.931 . S
H1218 C1233 0.930 . S
C1219 H1207 0.930 . S
C1219 C1220 1.399 . S
C1219 C1224 1.399 . S
C1220 C1219 1.399 . S
C1220 C1221 1.376 . S
C1221 H1208 0.930 . S
C1221 C1220 1.376 . S
C1221 C1222 1.388 . S
C1222 H1209 0.930 . S
C1222 C1221 1.388 . S
C1222 C1223 1.390 . S
C1223 C1222 1.390 . S
C1223 C1224 1.394 . S
C1223 C1229 1.465 . S
C1224 C1219 1.399 . S
C1224 C1223 1.394 . S
C1224 C1225 1.516 . S
C1225 C1224 1.516 . S
C1225 C1226 1.502 . S
C1225 C1227 1.561 . S
C1225 C1228 1.526 . S
C1226 H1210 0.959 . S
C1226 H1211 0.959 . S
C1226 H1212 0.961 . S
C1226 C1225 1.502 . S
C1227 H1213 0.960 . S
C1227 H1214 0.961 . S
C1227 H1215 0.959 . S
C1227 C1225 1.561 . S
C1228 C1225 1.526 . S
C1228 C1229 1.396 . S
C1228 C1233 1.390 . S
C1229 C1223 1.465 . S
C1229 C1228 1.396 . S
C1229 C1230 1.399 . S
C1230 H1216 0.929 . S
C1230 C1229 1.399 . S
C1230 C1231 1.385 . S
C1231 H1217 0.931 . S
C1231 C1230 1.385 . S
C1231 C1232 1.389 . S
C1232 C1231 1.389 . S
C1232 C1233 1.387 . S
C1233 H1218 0.930 . S
C1233 C1228 1.390 . S
C1233 C1232 1.387 . S
H1234 C1246 0.930 . S
H1235 C1248 0.930 . S
H1236 C1249 0.930 . S
H1237 C1253 0.959 . S
H1238 C1253 0.959 . S
H1239 C1253 0.961 . S
H1240 C1254 0.960 . S
H1241 C1254 0.961 . S
H1242 C1254 0.959 . S
H1243 C1257 0.929 . S
H1244 C1258 0.931 . S
H1245 C1260 0.930 . S
C1246 H1234 0.930 . S
C1246 C1247 1.399 . S
C1246 C1251 1.399 . S
C1247 C1246 1.399 . S
C1247 C1248 1.376 . S
C1248 H1235 0.930 . S
C1248 C1247 1.376 . S
C1248 C1249 1.388 . S
C1249 H1236 0.930 . S
C1249 C1248 1.388 . S
C1249 C1250 1.390 . S
C1250 C1249 1.390 . S
C1250 C1251 1.394 . S
C1250 C1256 1.465 . S
C1251 C1246 1.399 . S
C1251 C1250 1.394 . S
C1251 C1252 1.516 . S
C1252 C1251 1.516 . S
C1252 C1253 1.502 . S
C1252 C1254 1.561 . S
C1252 C1255 1.526 . S
C1253 H1237 0.959 . S
C1253 H1238 0.959 . S
C1253 H1239 0.961 . S
C1253 C1252 1.502 . S
C1254 H1240 0.960 . S
C1254 H1241 0.961 . S
C1254 H1242 0.959 . S
C1254 C1252 1.561 . S
C1255 C1252 1.526 . S
C1255 C1256 1.396 . S
C1255 C1260 1.390 . S
C1256 C1250 1.465 . S
C1256 C1255 1.396 . S
C1256 C1257 1.399 . S
C1257 H1243 0.929 . S
C1257 C1256 1.399 . S
C1257 C1258 1.385 . S
C1258 H1244 0.931 . S
C1258 C1257 1.385 . S
C1258 C1259 1.389 . S
C1259 C1258 1.389 . S
C1259 C1260 1.387 . S
C1260 H1245 0.930 . S
C1260 C1255 1.390 . S
C1260 C1259 1.387 . S
H1261 C1273 0.930 . S
H1262 C1275 0.930 . S
H1263 C1276 0.930 . S
H1264 C1280 0.959 . S
H1265 C1280 0.959 . S
H1266 C1280 0.961 . S
H1267 C1281 0.960 . S
H1268 C1281 0.961 . S
H1269 C1281 0.959 . S
H1270 C1284 0.929 . S
H1271 C1285 0.931 . S
H1272 C1287 0.930 . S
C1273 H1261 0.930 . S
C1273 C1274 1.399 . S
C1273 C1278 1.399 . S
C1274 C1273 1.399 . S
C1274 C1275 1.376 . S
C1275 H1262 0.930 . S
C1275 C1274 1.376 . S
C1275 C1276 1.388 . S
C1276 H1263 0.930 . S
C1276 C1275 1.388 . S
C1276 C1277 1.390 . S
C1277 C1276 1.390 . S
C1277 C1278 1.394 . S
C1277 C1283 1.465 . S
C1278 C1273 1.399 . S
C1278 C1277 1.394 . S
C1278 C1279 1.516 . S
C1279 C1278 1.516 . S
C1279 C1280 1.502 . S
C1279 C1281 1.561 . S
C1279 C1282 1.526 . S
C1280 H1264 0.959 . S
C1280 H1265 0.959 . S
C1280 H1266 0.961 . S
C1280 C1279 1.502 . S
C1281 H1267 0.960 . S
C1281 H1268 0.961 . S
C1281 H1269 0.959 . S
C1281 C1279 1.561 . S
C1282 C1279 1.526 . S
C1282 C1283 1.396 . S
C1282 C1287 1.390 . S
C1283 C1277 1.465 . S
C1283 C1282 1.396 . S
C1283 C1284 1.399 . S
C1284 H1270 0.929 . S
C1284 C1283 1.399 . S
C1284 C1285 1.385 . S
C1285 H1271 0.931 . S
C1285 C1284 1.385 . S
C1285 C1286 1.389 . S
C1286 C1285 1.389 . S
C1286 C1287 1.387 . S
C1287 H1272 0.930 . S
C1287 C1282 1.390 . S
C1287 C1286 1.387 . S
H1288 C1300 0.930 . S
H1289 C1302 0.930 . S
H1290 C1303 0.930 . S
H1291 C1307 0.959 . S
H1292 C1307 0.959 . S
H1293 C1307 0.961 . S
H1294 C1308 0.960 . S
H1295 C1308 0.961 . S
H1296 C1308 0.959 . S
H1297 C1311 0.929 . S
H1298 C1312 0.931 . S
H1299 C1314 0.930 . S
C1300 H1288 0.930 . S
C1300 C1301 1.399 . S
C1300 C1305 1.399 . S
C1301 C1300 1.399 . S
C1301 C1302 1.376 . S
C1302 H1289 0.930 . S
C1302 C1301 1.376 . S
C1302 C1303 1.388 . S
C1303 H1290 0.930 . S
C1303 C1302 1.388 . S
C1303 C1304 1.390 . S
C1304 C1303 1.390 . S
C1304 C1305 1.394 . S
C1304 C1310 1.465 . S
C1305 C1300 1.399 . S
C1305 C1304 1.394 . S
C1305 C1306 1.516 . S
C1306 C1305 1.516 . S
C1306 C1307 1.502 . S
C1306 C1308 1.561 . S
C1306 C1309 1.526 . S
C1307 H1291 0.959 . S
C1307 H1292 0.959 . S
C1307 H1293 0.961 . S
C1307 C1306 1.502 . S
C1308 H1294 0.960 . S
C1308 H1295 0.961 . S
C1308 H1296 0.959 . S
C1308 C1306 1.561 . S
C1309 C1306 1.526 . S
C1309 C1310 1.396 . S
C1309 C1314 1.390 . S
C1310 C1304 1.465 . S
C1310 C1309 1.396 . S
C1310 C1311 1.399 . S
C1311 H1297 0.929 . S
C1311 C1310 1.399 . S
C1311 C1312 1.385 . S
C1312 H1298 0.931 . S
C1312 C1311 1.385 . S
C1312 C1313 1.389 . S
C1313 C1312 1.389 . S
C1313 C1314 1.387 . S
C1314 H1299 0.930 . S
C1314 C1309 1.390 . S
C1314 C1313 1.387 . S
H1315 C1327 0.930 . S
H1316 C1329 0.930 . S
H1317 C1330 0.930 . S
H1318 C1334 0.959 . S
H1319 C1334 0.959 . S
H1320 C1334 0.961 . S
H1321 C1335 0.960 . S
H1322 C1335 0.961 . S
H1323 C1335 0.959 . S
H1324 C1338 0.929 . S
H1325 C1339 0.931 . S
H1326 C1341 0.930 . S
C1327 H1315 0.930 . S
C1327 C1328 1.399 . S
C1327 C1332 1.399 . S
C1328 C1327 1.399 . S
C1328 C1329 1.376 . S
C1329 H1316 0.930 . S
C1329 C1328 1.376 . S
C1329 C1330 1.388 . S
C1330 H1317 0.930 . S
C1330 C1329 1.388 . S
C1330 C1331 1.390 . S
C1331 C1330 1.390 . S
C1331 C1332 1.394 . S
C1331 C1337 1.465 . S
C1332 C1327 1.399 . S
C1332 C1331 1.394 . S
C1332 C1333 1.516 . S
C1333 C1332 1.516 . S
C1333 C1334 1.502 . S
C1333 C1335 1.561 . S
C1333 C1336 1.526 . S
C1334 H1318 0.959 . S
C1334 H1319 0.959 . S
C1334 H1320 0.961 . S
C1334 C1333 1.502 . S
C1335 H1321 0.960 . S
C1335 H1322 0.961 . S
C1335 H1323 0.959 . S
C1335 C1333 1.561 . S
C1336 C1333 1.526 . S
C1336 C1337 1.396 . S
C1336 C1341 1.390 . S
C1337 C1331 1.465 . S
C1337 C1336 1.396 . S
C1337 C1338 1.399 . S
C1338 H1324 0.929 . S
C1338 C1337 1.399 . S
C1338 C1339 1.385 . S
C1339 H1325 0.931 . S
C1339 C1338 1.385 . S
C1339 C1340 1.389 . S
C1340 C1339 1.389 . S
C1340 C1341 1.387 . S
C1341 H1326 0.930 . S
C1341 C1336 1.390 . S
C1341 C1340 1.387 . S
H1342 C1354 0.930 . S
H1343 C1356 0.930 . S
H1344 C1357 0.930 . S
H1345 C1361 0.959 . S
H1346 C1361 0.959 . S
H1347 C1361 0.961 . S
H1348 C1362 0.960 . S
H1349 C1362 0.961 . S
H1350 C1362 0.959 . S
H1351 C1365 0.929 . S
H1352 C1366 0.931 . S
H1353 C1368 0.930 . S
C1354 H1342 0.930 . S
C1354 C1355 1.399 . S
C1354 C1359 1.399 . S
C1355 C1354 1.399 . S
C1355 C1356 1.376 . S
C1356 H1343 0.930 . S
C1356 C1355 1.376 . S
C1356 C1357 1.388 . S
C1357 H1344 0.930 . S
C1357 C1356 1.388 . S
C1357 C1358 1.390 . S
C1358 C1357 1.390 . S
C1358 C1359 1.394 . S
C1358 C1364 1.465 . S
C1359 C1354 1.399 . S
C1359 C1358 1.394 . S
C1359 C1360 1.516 . S
C1360 C1359 1.516 . S
C1360 C1361 1.502 . S
C1360 C1362 1.561 . S
C1360 C1363 1.526 . S
C1361 H1345 0.959 . S
C1361 H1346 0.959 . S
C1361 H1347 0.961 . S
C1361 C1360 1.502 . S
C1362 H1348 0.960 . S
C1362 H1349 0.961 . S
C1362 H1350 0.959 . S
C1362 C1360 1.561 . S
C1363 C1360 1.526 . S
C1363 C1364 1.396 . S
C1363 C1368 1.390 . S
C1364 C1358 1.465 . S
C1364 C1363 1.396 . S
C1364 C1365 1.399 . S
C1365 H1351 0.929 . S
C1365 C1364 1.399 . S
C1365 C1366 1.385 . S
C1366 H1352 0.931 . S
C1366 C1365 1.385 . S
C1366 C1367 1.389 . S
C1367 C1366 1.389 . S
C1367 C1368 1.387 . S
C1368 H1353 0.930 . S
C1368 C1363 1.390 . S
C1368 C1367 1.387 . S
H1369 C1381 0.930 . S
H1370 C1383 0.930 . S
H1371 C1384 0.930 . S
H1372 C1388 0.959 . S
H1373 C1388 0.959 . S
H1374 C1388 0.961 . S
H1375 C1389 0.960 . S
H1376 C1389 0.961 . S
H1377 C1389 0.959 . S
H1378 C1392 0.929 . S
H1379 C1393 0.931 . S
H1380 C1395 0.930 . S
C1381 H1369 0.930 . S
C1381 C1382 1.399 . S
C1381 C1386 1.399 . S
C1382 C1381 1.399 . S
C1382 C1383 1.376 . S
C1383 H1370 0.930 . S
C1383 C1382 1.376 . S
C1383 C1384 1.388 . S
C1384 H1371 0.930 . S
C1384 C1383 1.388 . S
C1384 C1385 1.390 . S
C1385 C1384 1.390 . S
C1385 C1386 1.394 . S
C1385 C1391 1.465 . S
C1386 C1381 1.399 . S
C1386 C1385 1.394 . S
C1386 C1387 1.516 . S
C1387 C1386 1.516 . S
C1387 C1388 1.502 . S
C1387 C1389 1.561 . S
C1387 C1390 1.526 . S
C1388 H1372 0.959 . S
C1388 H1373 0.959 . S
C1388 H1374 0.961 . S
C1388 C1387 1.502 . S
C1389 H1375 0.960 . S
C1389 H1376 0.961 . S
C1389 H1377 0.959 . S
C1389 C1387 1.561 . S
C1390 C1387 1.526 . S
C1390 C1391 1.396 . S
C1390 C1395 1.390 . S
C1391 C1385 1.465 . S
C1391 C1390 1.396 . S
C1391 C1392 1.399 . S
C1392 H1378 0.929 . S
C1392 C1391 1.399 . S
C1392 C1393 1.385 . S
C1393 H1379 0.931 . S
C1393 C1392 1.385 . S
C1393 C1394 1.389 . S
C1394 C1393 1.389 . S
C1394 C1395 1.387 . S
C1395 H1380 0.930 . S
C1395 C1390 1.390 . S
C1395 C1394 1.387 . S
H1396 C1408 0.930 . S
H1397 C1410 0.930 . S
H1398 C1411 0.930 . S
H1399 C1415 0.959 . S
H1400 C1415 0.959 . S
H1401 C1415 0.961 . S
H1402 C1416 0.960 . S
H1403 C1416 0.961 . S
H1404 C1416 0.959 . S
H1405 C1419 0.929 . S
H1406 C1420 0.931 . S
H1407 C1422 0.930 . S
C1408 H1396 0.930 . S
C1408 C1409 1.399 . S
C1408 C1413 1.399 . S
C1409 C1408 1.399 . S
C1409 C1410 1.376 . S
C1410 H1397 0.930 . S
C1410 C1409 1.376 . S
C1410 C1411 1.388 . S
C1411 H1398 0.930 . S
C1411 C1410 1.388 . S
C1411 C1412 1.390 . S
C1412 C1411 1.390 . S
C1412 C1413 1.394 . S
C1412 C1418 1.465 . S
C1413 C1408 1.399 . S
C1413 C1412 1.394 . S
C1413 C1414 1.516 . S
C1414 C1413 1.516 . S
C1414 C1415 1.502 . S
C1414 C1416 1.561 . S
C1414 C1417 1.526 . S
C1415 H1399 0.959 . S
C1415 H1400 0.959 . S
C1415 H1401 0.961 . S
C1415 C1414 1.502 . S
C1416 H1402 0.960 . S
C1416 H1403 0.961 . S
C1416 H1404 0.959 . S
C1416 C1414 1.561 . S
C1417 C1414 1.526 . S
C1417 C1418 1.396 . S
C1417 C1422 1.390 . S
C1418 C1412 1.465 . S
C1418 C1417 1.396 . S
C1418 C1419 1.399 . S
C1419 H1405 0.929 . S
C1419 C1418 1.399 . S
C1419 C1420 1.385 . S
C1420 H1406 0.931 . S
C1420 C1419 1.385 . S
C1420 C1421 1.389 . S
C1421 C1420 1.389 . S
C1421 C1422 1.387 . S
C1422 H1407 0.930 . S
C1422 C1417 1.390 . S
C1422 C1421 1.387 . S
H1423 C1435 0.930 . S
H1424 C1437 0.930 . S
H1425 C1438 0.930 . S
H1426 C1442 0.959 . S
H1427 C1442 0.959 . S
H1428 C1442 0.961 . S
H1429 C1443 0.960 . S
H1430 C1443 0.961 . S
H1431 C1443 0.959 . S
H1432 C1446 0.929 . S
H1433 C1447 0.931 . S
H1434 C1449 0.930 . S
C1435 H1423 0.930 . S
C1435 C1436 1.399 . S
C1435 C1440 1.399 . S
C1436 C1435 1.399 . S
C1436 C1437 1.376 . S
C1437 H1424 0.930 . S
C1437 C1436 1.376 . S
C1437 C1438 1.388 . S
C1438 H1425 0.930 . S
C1438 C1437 1.388 . S
C1438 C1439 1.390 . S
C1439 C1438 1.390 . S
C1439 C1440 1.394 . S
C1439 C1445 1.465 . S
C1440 C1435 1.399 . S
C1440 C1439 1.394 . S
C1440 C1441 1.516 . S
C1441 C1440 1.516 . S
C1441 C1442 1.502 . S
C1441 C1443 1.561 . S
C1441 C1444 1.526 . S
C1442 H1426 0.959 . S
C1442 H1427 0.959 . S
C1442 H1428 0.961 . S
C1442 C1441 1.502 . S
C1443 H1429 0.960 . S
C1443 H1430 0.961 . S
C1443 H1431 0.959 . S
C1443 C1441 1.561 . S
C1444 C1441 1.526 . S
C1444 C1445 1.396 . S
C1444 C1449 1.390 . S
C1445 C1439 1.465 . S
C1445 C1444 1.396 . S
C1445 C1446 1.399 . S
C1446 H1432 0.929 . S
C1446 C1445 1.399 . S
C1446 C1447 1.385 . S
C1447 H1433 0.931 . S
C1447 C1446 1.385 . S
C1447 C1448 1.389 . S
C1448 C1447 1.389 . S
C1448 C1449 1.387 . S
C1449 H1434 0.930 . S
C1449 C1444 1.390 . S
C1449 C1448 1.387 . S
H1450 C1462 0.930 . S
H1451 C1464 0.930 . S
H1452 C1465 0.930 . S
H1453 C1469 0.959 . S
H1454 C1469 0.959 . S
H1455 C1469 0.961 . S
H1456 C1470 0.960 . S
H1457 C1470 0.961 . S
H1458 C1470 0.959 . S
H1459 C1473 0.929 . S
H1460 C1474 0.931 . S
H1461 C1476 0.930 . S
C1462 H1450 0.930 . S
C1462 C1463 1.399 . S
C1462 C1467 1.399 . S
C1463 C1462 1.399 . S
C1463 C1464 1.376 . S
C1464 H1451 0.930 . S
C1464 C1463 1.376 . S
C1464 C1465 1.388 . S
C1465 H1452 0.930 . S
C1465 C1464 1.388 . S
C1465 C1466 1.390 . S
C1466 C1465 1.390 . S
C1466 C1467 1.394 . S
C1466 C1472 1.465 . S
C1467 C1462 1.399 . S
C1467 C1466 1.394 . S
C1467 C1468 1.516 . S
C1468 C1467 1.516 . S
C1468 C1469 1.502 . S
C1468 C1470 1.561 . S
C1468 C1471 1.526 . S
C1469 H1453 0.959 . S
C1469 H1454 0.959 . S
C1469 H1455 0.961 . S
C1469 C1468 1.502 . S
C1470 H1456 0.960 . S
C1470 H1457 0.961 . S
C1470 H1458 0.959 . S
C1470 C1468 1.561 . S
C1471 C1468 1.526 . S
C1471 C1472 1.396 . S
C1471 C1476 1.390 . S
C1472 C1466 1.465 . S
C1472 C1471 1.396 . S
C1472 C1473 1.399 . S
C1473 H1459 0.929 . S
C1473 C1472 1.399 . S
C1473 C1474 1.385 . S
C1474 H1460 0.931 . S
C1474 C1473 1.385 . S
C1474 C1475 1.389 . S
C1475 C1474 1.389 . S
C1475 C1476 1.387 . S
C1476 H1461 0.930 . S
C1476 C1471 1.390 . S
C1476 C1475 1.387 . S
H1477 C1489 0.930 . S
H1478 C1491 0.930 . S
H1479 C1492 0.930 . S
H1480 C1496 0.959 . S
H1481 C1496 0.959 . S
H1482 C1496 0.961 . S
H1483 C1497 0.960 . S
H1484 C1497 0.961 . S
H1485 C1497 0.959 . S
H1486 C1500 0.929 . S
H1487 C1501 0.931 . S
H1488 C1503 0.930 . S
C1489 H1477 0.930 . S
C1489 C1490 1.399 . S
C1489 C1494 1.399 . S
C1490 C1489 1.399 . S
C1490 C1491 1.376 . S
C1491 H1478 0.930 . S
C1491 C1490 1.376 . S
C1491 C1492 1.388 . S
C1492 H1479 0.930 . S
C1492 C1491 1.388 . S
C1492 C1493 1.390 . S
C1493 C1492 1.390 . S
C1493 C1494 1.394 . S
C1493 C1499 1.465 . S
C1494 C1489 1.399 . S
C1494 C1493 1.394 . S
C1494 C1495 1.516 . S
C1495 C1494 1.516 . S
C1495 C1496 1.502 . S
C1495 C1497 1.561 . S
C1495 C1498 1.526 . S
C1496 H1480 0.959 . S
C1496 H1481 0.959 . S
C1496 H1482 0.961 . S
C1496 C1495 1.502 . S
C1497 H1483 0.960 . S
C1497 H1484 0.961 . S
C1497 H1485 0.959 . S
C1497 C1495 1.561 . S
C1498 C1495 1.526 . S
C1498 C1499 1.396 . S
C1498 C1503 1.390 . S
C1499 C1493 1.465 . S
C1499 C1498 1.396 . S
C1499 C1500 1.399 . S
C1500 H1486 0.929 . S
C1500 C1499 1.399 . S
C1500 C1501 1.385 . S
C1501 H1487 0.931 . S
C1501 C1500 1.385 . S
C1501 C1502 1.389 . S
C1502 C1501 1.389 . S
C1502 C1503 1.387 . S
C1503 H1488 0.930 . S
C1503 C1498 1.390 . S
C1503 C1502 1.387 . S
H1504 C1516 0.930 . S
H1505 C1518 0.930 . S
H1506 C1519 0.930 . S
H1507 C1523 0.959 . S
H1508 C1523 0.959 . S
H1509 C1523 0.961 . S
H1510 C1524 0.960 . S
H1511 C1524 0.961 . S
H1512 C1524 0.959 . S
H1513 C1527 0.929 . S
H1514 C1528 0.931 . S
H1515 C1530 0.930 . S
C1516 H1504 0.930 . S
C1516 C1517 1.399 . S
C1516 C1521 1.399 . S
C1517 C1516 1.399 . S
C1517 C1518 1.376 . S
C1518 H1505 0.930 . S
C1518 C1517 1.376 . S
C1518 C1519 1.388 . S
C1519 H1506 0.930 . S
C1519 C1518 1.388 . S
C1519 C1520 1.390 . S
C1520 C1519 1.390 . S
C1520 C1521 1.394 . S
C1520 C1526 1.465 . S
C1521 C1516 1.399 . S
C1521 C1520 1.394 . S
C1521 C1522 1.516 . S
C1522 C1521 1.516 . S
C1522 C1523 1.502 . S
C1522 C1524 1.561 . S
C1522 C1525 1.526 . S
C1523 H1507 0.959 . S
C1523 H1508 0.959 . S
C1523 H1509 0.961 . S
C1523 C1522 1.502 . S
C1524 H1510 0.960 . S
C1524 H1511 0.961 . S
C1524 H1512 0.959 . S
C1524 C1522 1.561 . S
C1525 C1522 1.526 . S
C1525 C1526 1.396 . S
C1525 C1530 1.390 . S
C1526 C1520 1.465 . S
C1526 C1525 1.396 . S
C1526 C1527 1.399 . S
C1527 H1513 0.929 . S
C1527 C1526 1.399 . S
C1527 C1528 1.385 . S
C1528 H1514 0.931 . S
C1528 C1527 1.385 . S
C1528 C1529 1.389 . S
C1529 C1528 1.389 . S
C1529 C1530 1.387 . S
C1530 H1515 0.930 . S
C1530 C1525 1.390 . S
C1530 C1529 1.387 . S
H1531 C1543 0.930 . S
H1532 C1545 0.930 . S
H1533 C1546 0.930 . S
H1534 C1550 0.959 . S
H1535 C1550 0.959 . S
H1536 C1550 0.961 . S
H1537 C1551 0.960 . S
H1538 C1551 0.961 . S
H1539 C1551 0.959 . S
H1540 C1554 0.929 . S
H1541 C1555 0.931 . S
H1542 C1557 0.930 . S
C1543 H1531 0.930 . S
C1543 C1544 1.399 . S
C1543 C1548 1.399 . S
C1544 C1543 1.399 . S
C1544 C1545 1.376 . S
C1545 H1532 0.930 . S
C1545 C1544 1.376 . S
C1545 C1546 1.388 . S
C1546 H1533 0.930 . S
C1546 C1545 1.388 . S
C1546 C1547 1.390 . S
C1547 C1546 1.390 . S
C1547 C1548 1.394 . S
C1547 C1553 1.465 . S
C1548 C1543 1.399 . S
C1548 C1547 1.394 . S
C1548 C1549 1.516 . S
C1549 C1548 1.516 . S
C1549 C1550 1.502 . S
C1549 C1551 1.561 . S
C1549 C1552 1.526 . S
C1550 H1534 0.959 . S
C1550 H1535 0.959 . S
C1550 H1536 0.961 . S
C1550 C1549 1.502 . S
C1551 H1537 0.960 . S
C1551 H1538 0.961 . S
C1551 H1539 0.959 . S
C1551 C1549 1.561 . S
C1552 C1549 1.526 . S
C1552 C1553 1.396 . S
C1552 C1557 1.390 . S
C1553 C1547 1.465 . S
C1553 C1552 1.396 . S
C1553 C1554 1.399 . S
C1554 H1540 0.929 . S
C1554 C1553 1.399 . S
C1554 C1555 1.385 . S
C1555 H1541 0.931 . S
C1555 C1554 1.385 . S
C1555 C1556 1.389 . S
C1556 C1555 1.389 . S
C1556 C1557 1.387 . S
C1557 H1542 0.930 . S
C1557 C1552 1.390 . S
C1557 C1556 1.387 . S
H1558 C1570 0.930 . S
H1559 C1572 0.930 . S
H1560 C1573 0.930 . S
H1561 C1577 0.959 . S
H1562 C1577 0.959 . S
H1563 C1577 0.961 . S
H1564 C1578 0.960 . S
H1565 C1578 0.961 . S
H1566 C1578 0.959 . S
H1567 C1581 0.929 . S
H1568 C1582 0.931 . S
H1569 C1584 0.930 . S
C1570 H1558 0.930 . S
C1570 C1571 1.399 . S
C1570 C1575 1.399 . S
C1571 C1570 1.399 . S
C1571 C1572 1.376 . S
C1572 H1559 0.930 . S
C1572 C1571 1.376 . S
C1572 C1573 1.388 . S
C1573 H1560 0.930 . S
C1573 C1572 1.388 . S
C1573 C1574 1.390 . S
C1574 C1573 1.390 . S
C1574 C1575 1.394 . S
C1574 C1580 1.465 . S
C1575 C1570 1.399 . S
C1575 C1574 1.394 . S
C1575 C1576 1.516 . S
C1576 C1575 1.516 . S
C1576 C1577 1.502 . S
C1576 C1578 1.561 . S
C1576 C1579 1.526 . S
C1577 H1561 0.959 . S
C1577 H1562 0.959 . S
C1577 H1563 0.961 . S
C1577 C1576 1.502 . S
C1578 H1564 0.960 . S
C1578 H1565 0.961 . S
C1578 H1566 0.959 . S
C1578 C1576 1.561 . S
C1579 C1576 1.526 . S
C1579 C1580 1.396 . S
C1579 C1584 1.390 . S
C1580 C1574 1.465 . S
C1580 C1579 1.396 . S
C1580 C1581 1.399 . S
C1581 H1567 0.929 . S
C1581 C1580 1.399 . S
C1581 C1582 1.385 . S
C1582 H1568 0.931 . S
C1582 C1581 1.385 . S
C1582 C1583 1.389 . S
C1583 C1582 1.389 . S
C1583 C1584 1.387 . S
C1584 H1569 0.930 . S
C1584 C1579 1.390 . S
C1584 C1583 1.387 . S
H1585 C1597 0.930 . S
H1586 C1599 0.930 . S
H1587 C1600 0.930 . S
H1588 C1604 0.959 . S
H1589 C1604 0.959 . S
H1590 C1604 0.961 . S
H1591 C1605 0.960 . S
H1592 C1605 0.961 . S
H1593 C1605 0.959 . S
H1594 C1608 0.929 . S
H1595 C1609 0.931 . S
H1596 C1611 0.930 . S
C1597 H1585 0.930 . S
C1597 C1598 1.399 . S
C1597 C1602 1.399 . S
C1598 C1597 1.399 . S
C1598 C1599 1.376 . S
C1599 H1586 0.930 . S
C1599 C1598 1.376 . S
C1599 C1600 1.388 . S
C1600 H1587 0.930 . S
C1600 C1599 1.388 . S
C1600 C1601 1.390 . S
C1601 C1600 1.390 . S
C1601 C1602 1.394 . S
C1601 C1607 1.465 . S
C1602 C1597 1.399 . S
C1602 C1601 1.394 . S
C1602 C1603 1.516 . S
C1603 C1602 1.516 . S
C1603 C1604 1.502 . S
C1603 C1605 1.561 . S
C1603 C1606 1.526 . S
C1604 H1588 0.959 . S
C1604 H1589 0.959 . S
C1604 H1590 0.961 . S
C1604 C1603 1.502 . S
C1605 H1591 0.960 . S
C1605 H1592 0.961 . S
C1605 H1593 0.959 . S
C1605 C1603 1.561 . S
C1606 C1603 1.526 . S
C1606 C1607 1.396 . S
C1606 C1611 1.390 . S
C1607 C1601 1.465 . S
C1607 C1606 1.396 . S
C1607 C1608 1.399 . S
C1608 H1594 0.929 . S
C1608 C1607 1.399 . S
C1608 C1609 1.385 . S
C1609 H1595 0.931 . S
C1609 C1608 1.385 . S
C1609 C1610 1.389 . S
C1610 C1609 1.389 . S
C1610 C1611 1.387 . S
C1611 H1596 0.930 . S
C1611 C1606 1.390 . S
C1611 C1610 1.387 . S
H1612 C1624 0.930 . S
H1613 C1626 0.930 . S
H1614 C1627 0.930 . S
H1615 C1631 0.959 . S
H1616 C1631 0.959 . S
H1617 C1631 0.961 . S
H1618 C1632 0.960 . S
H1619 C1632 0.961 . S
H1620 C1632 0.959 . S
H1621 C1635 0.929 . S
H1622 C1636 0.931 . S
H1623 C1638 0.930 . S
C1624 H1612 0.930 . S
C1624 C1625 1.399 . S
C1624 C1629 1.399 . S
C1625 C1624 1.399 . S
C1625 C1626 1.376 . S
C1626 H1613 0.930 . S
C1626 C1625 1.376 . S
C1626 C1627 1.388 . S
C1627 H1614 0.930 . S
C1627 C1626 1.388 . S
C1627 C1628 1.390 . S
C1628 C1627 1.390 . S
C1628 C1629 1.394 . S
C1628 C1634 1.465 . S
C1629 C1624 1.399 . S
C1629 C1628 1.394 . S
C1629 C1630 1.516 . S
C1630 C1629 1.516 . S
C1630 C1631 1.502 . S
C1630 C1632 1.561 . S
C1630 C1633 1.526 . S
C1631 H1615 0.959 . S
C1631 H1616 0.959 . S
C1631 H1617 0.961 . S
C1631 C1630 1.502 . S
C1632 H1618 0.960 . S
C1632 H1619 0.961 . S
C1632 H1620 0.959 . S
C1632 C1630 1.561 . S
C1633 C1630 1.526 . S
C1633 C1634 1.396 . S
C1633 C1638 1.390 . S
C1634 C1628 1.465 . S
C1634 C1633 1.396 . S
C1634 C1635 1.399 . S
C1635 H1621 0.929 . S
C1635 C1634 1.399 . S
C1635 C1636 1.385 . S
C1636 H1622 0.931 . S
C1636 C1635 1.385 . S
C1636 C1637 1.389 . S
C1637 C1636 1.389 . S
C1637 C1638 1.387 . S
C1638 H1623 0.930 . S
C1638 C1633 1.390 . S
C1638 C1637 1.387 . S
H1639 C1651 0.930 . S
H1640 C1653 0.930 . S
H1641 C1654 0.930 . S
H1642 C1658 0.959 . S
H1643 C1658 0.959 . S
H1644 C1658 0.961 . S
H1645 C1659 0.960 . S
H1646 C1659 0.961 . S
H1647 C1659 0.959 . S
H1648 C1662 0.929 . S
H1649 C1663 0.931 . S
H1650 C1665 0.930 . S
C1651 H1639 0.930 . S
C1651 C1652 1.399 . S
C1651 C1656 1.399 . S
C1652 C1651 1.399 . S
C1652 C1653 1.376 . S
C1653 H1640 0.930 . S
C1653 C1652 1.376 . S
C1653 C1654 1.388 . S
C1654 H1641 0.930 . S
C1654 C1653 1.388 . S
C1654 C1655 1.390 . S
C1655 C1654 1.390 . S
C1655 C1656 1.394 . S
C1655 C1661 1.465 . S
C1656 C1651 1.399 . S
C1656 C1655 1.394 . S
C1656 C1657 1.516 . S
C1657 C1656 1.516 . S
C1657 C1658 1.502 . S
C1657 C1659 1.561 . S
C1657 C1660 1.526 . S
C1658 H1642 0.959 . S
C1658 H1643 0.959 . S
C1658 H1644 0.961 . S
C1658 C1657 1.502 . S
C1659 H1645 0.960 . S
C1659 H1646 0.961 . S
C1659 H1647 0.959 . S
C1659 C1657 1.561 . S
C1660 C1657 1.526 . S
C1660 C1661 1.396 . S
C1660 C1665 1.390 . S
C1661 C1655 1.465 . S
C1661 C1660 1.396 . S
C1661 C1662 1.399 . S
C1662 H1648 0.929 . S
C1662 C1661 1.399 . S
C1662 C1663 1.385 . S
C1663 H1649 0.931 . S
C1663 C1662 1.385 . S
C1663 C1664 1.389 . S
C1664 C1663 1.389 . S
C1664 C1665 1.387 . S
C1665 H1650 0.930 . S
C1665 C1660 1.390 . S
C1665 C1664 1.387 . S
H1666 C1678 0.930 . S
H1667 C1680 0.930 . S
H1668 C1681 0.930 . S
H1669 C1685 0.959 . S
H1670 C1685 0.959 . S
H1671 C1685 0.961 . S
H1672 C1686 0.960 . S
H1673 C1686 0.961 . S
H1674 C1686 0.959 . S
H1675 C1689 0.929 . S
H1676 C1690 0.931 . S
H1677 C1692 0.930 . S
C1678 H1666 0.930 . S
C1678 C1679 1.399 . S
C1678 C1683 1.399 . S
C1679 C1678 1.399 . S
C1679 C1680 1.376 . S
C1680 H1667 0.930 . S
C1680 C1679 1.376 . S
C1680 C1681 1.388 . S
C1681 H1668 0.930 . S
C1681 C1680 1.388 . S
C1681 C1682 1.390 . S
C1682 C1681 1.390 . S
C1682 C1683 1.394 . S
C1682 C1688 1.465 . S
C1683 C1678 1.399 . S
C1683 C1682 1.394 . S
C1683 C1684 1.516 . S
C1684 C1683 1.516 . S
C1684 C1685 1.502 . S
C1684 C1686 1.561 . S
C1684 C1687 1.526 . S
C1685 H1669 0.959 . S
C1685 H1670 0.959 . S
C1685 H1671 0.961 . S
C1685 C1684 1.502 . S
C1686 H1672 0.960 . S
C1686 H1673 0.961 . S
C1686 H1674 0.959 . S
C1686 C1684 1.561 . S
C1687 C1684 1.526 . S
C1687 C1688 1.396 . S
C1687 C1692 1.390 . S
C1688 C1682 1.465 . S
C1688 C1687 1.396 . S
C1688 C1689 1.399 . S
C1689 H1675 0.929 . S
C1689 C1688 1.399 . S
C1689 C1690 1.385 . S
C1690 H1676 0.931 . S
C1690 C1689 1.385 . S
C1690 C1691 1.389 . S
C1691 C1690 1.389 . S
C1691 C1692 1.387 . S
C1692 H1677 0.930 . S
C1692 C1687 1.390 . S
C1692 C1691 1.387 . S
H1693 C1705 0.930 . S
H1694 C1707 0.930 . S
H1695 C1708 0.930 . S
H1696 C1712 0.959 . S
H1697 C1712 0.959 . S
H1698 C1712 0.961 . S
H1699 C1713 0.960 . S
H1700 C1713 0.961 . S
H1701 C1713 0.959 . S
H1702 C1716 0.929 . S
H1703 C1717 0.931 . S
H1704 C1719 0.930 . S
C1705 H1693 0.930 . S
C1705 C1706 1.399 . S
C1705 C1710 1.399 . S
C1706 C1705 1.399 . S
C1706 C1707 1.376 . S
C1707 H1694 0.930 . S
C1707 C1706 1.376 . S
C1707 C1708 1.388 . S
C1708 H1695 0.930 . S
C1708 C1707 1.388 . S
C1708 C1709 1.390 . S
C1709 C1708 1.390 . S
C1709 C1710 1.394 . S
C1709 C1715 1.465 . S
C1710 C1705 1.399 . S
C1710 C1709 1.394 . S
C1710 C1711 1.516 . S
C1711 C1710 1.516 . S
C1711 C1712 1.502 . S
C1711 C1713 1.561 . S
C1711 C1714 1.526 . S
C1712 H1696 0.959 . S
C1712 H1697 0.959 . S
C1712 H1698 0.961 . S
C1712 C1711 1.502 . S
C1713 H1699 0.960 . S
C1713 H1700 0.961 . S
C1713 H1701 0.959 . S
C1713 C1711 1.561 . S
C1714 C1711 1.526 . S
C1714 C1715 1.396 . S
C1714 C1719 1.390 . S
C1715 C1709 1.465 . S
C1715 C1714 1.396 . S
C1715 C1716 1.399 . S
C1716 H1702 0.929 . S
C1716 C1715 1.399 . S
C1716 C1717 1.385 . S
C1717 H1703 0.931 . S
C1717 C1716 1.385 . S
C1717 C1718 1.389 . S
C1718 C1717 1.389 . S
C1718 C1719 1.387 . S
C1719 H1704 0.930 . S
C1719 C1714 1.390 . S
C1719 C1718 1.387 . S
H1720 C1732 0.930 . S
H1721 C1734 0.930 . S
H1722 C1735 0.930 . S
H1723 C1739 0.959 . S
H1724 C1739 0.959 . S
H1725 C1739 0.961 . S
H1726 C1740 0.960 . S
H1727 C1740 0.961 . S
H1728 C1740 0.959 . S
H1729 C1743 0.929 . S
H1730 C1744 0.931 . S
H1731 C1746 0.930 . S
C1732 H1720 0.930 . S
C1732 C1733 1.399 . S
C1732 C1737 1.399 . S
C1733 C1732 1.399 . S
C1733 C1734 1.376 . S
C1734 H1721 0.930 . S
C1734 C1733 1.376 . S
C1734 C1735 1.388 . S
C1735 H1722 0.930 . S
C1735 C1734 1.388 . S
C1735 C1736 1.390 . S
C1736 C1735 1.390 . S
C1736 C1737 1.394 . S
C1736 C1742 1.465 . S
C1737 C1732 1.399 . S
C1737 C1736 1.394 . S
C1737 C1738 1.516 . S
C1738 C1737 1.516 . S
C1738 C1739 1.502 . S
C1738 C1740 1.561 . S
C1738 C1741 1.526 . S
C1739 H1723 0.959 . S
C1739 H1724 0.959 . S
C1739 H1725 0.961 . S
C1739 C1738 1.502 . S
C1740 H1726 0.960 . S
C1740 H1727 0.961 . S
C1740 H1728 0.959 . S
C1740 C1738 1.561 . S
C1741 C1738 1.526 . S
C1741 C1742 1.396 . S
C1741 C1746 1.390 . S
C1742 C1736 1.465 . S
C1742 C1741 1.396 . S
C1742 C1743 1.399 . S
C1743 H1729 0.929 . S
C1743 C1742 1.399 . S
C1743 C1744 1.385 . S
C1744 H1730 0.931 . S
C1744 C1743 1.385 . S
C1744 C1745 1.389 . S
C1745 C1744 1.389 . S
C1745 C1746 1.387 . S
C1746 H1731 0.930 . S
C1746 C1741 1.390 . S
C1746 C1745 1.387 . S
H1747 C1759 0.930 . S
H1748 C1761 0.930 . S
H1749 C1762 0.930 . S
H1750 C1766 0.959 . S
H1751 C1766 0.959 . S
H1752 C1766 0.961 . S
H1753 C1767 0.960 . S
H1754 C1767 0.961 . S
H1755 C1767 0.959 . S
H1756 C1770 0.929 . S
H1757 C1771 0.931 . S
H1758 C1773 0.930 . S
C1759 H1747 0.930 . S
C1759 C1760 1.399 . S
C1759 C1764 1.399 . S
C1760 C1759 1.399 . S
C1760 C1761 1.376 . S
C1761 H1748 0.930 . S
C1761 C1760 1.376 . S
C1761 C1762 1.388 . S
C1762 H1749 0.930 . S
C1762 C1761 1.388 . S
C1762 C1763 1.390 . S
C1763 C1762 1.390 . S
C1763 C1764 1.394 . S
C1763 C1769 1.465 . S
C1764 C1759 1.399 . S
C1764 C1763 1.394 . S
C1764 C1765 1.516 . S
C1765 C1764 1.516 . S
C1765 C1766 1.502 . S
C1765 C1767 1.561 . S
C1765 C1768 1.526 . S
C1766 H1750 0.959 . S
C1766 H1751 0.959 . S
C1766 H1752 0.961 . S
C1766 C1765 1.502 . S
C1767 H1753 0.960 . S
C1767 H1754 0.961 . S
C1767 H1755 0.959 . S
C1767 C1765 1.561 . S
C1768 C1765 1.526 . S
C1768 C1769 1.396 . S
C1768 C1773 1.390 . S
C1769 C1763 1.465 . S
C1769 C1768 1.396 . S
C1769 C1770 1.399 . S
C1770 H1756 0.929 . S
C1770 C1769 1.399 . S
C1770 C1771 1.385 . S
C1771 H1757 0.931 . S
C1771 C1770 1.385 . S
C1771 C1772 1.389 . S
C1772 C1771 1.389 . S
C1772 C1773 1.387 . S
C1773 H1758 0.930 . S
C1773 C1768 1.390 . S
C1773 C1772 1.387 . S
H1774 C1786 0.930 . S
H1775 C1788 0.930 . S
H1776 C1789 0.930 . S
H1777 C1793 0.959 . S
H1778 C1793 0.959 . S
H1779 C1793 0.961 . S
H1780 C1794 0.960 . S
H1781 C1794 0.961 . S
H1782 C1794 0.959 . S
H1783 C1797 0.929 . S
H1784 C1798 0.931 . S
H1785 C1800 0.930 . S
C1786 H1774 0.930 . S
C1786 C1787 1.399 . S
C1786 C1791 1.399 . S
C1787 C1786 1.399 . S
C1787 C1788 1.376 . S
C1788 H1775 0.930 . S
C1788 C1787 1.376 . S
C1788 C1789 1.388 . S
C1789 H1776 0.930 . S
C1789 C1788 1.388 . S
C1789 C1790 1.390 . S
C1790 C1789 1.390 . S
C1790 C1791 1.394 . S
C1790 C1796 1.465 . S
C1791 C1786 1.399 . S
C1791 C1790 1.394 . S
C1791 C1792 1.516 . S
C1792 C1791 1.516 . S
C1792 C1793 1.502 . S
C1792 C1794 1.561 . S
C1792 C1795 1.526 . S
C1793 H1777 0.959 . S
C1793 H1778 0.959 . S
C1793 H1779 0.961 . S
C1793 C1792 1.502 . S
C1794 H1780 0.960 . S
C1794 H1781 0.961 . S
C1794 H1782 0.959 . S
C1794 C1792 1.561 . S
C1795 C1792 1.526 . S
C1795 C1796 1.396 . S
C1795 C1800 1.390 . S
C1796 C1790 1.465 . S
C1796 C1795 1.396 . S
C1796 C1797 1.399 . S
C1797 H1783 0.929 . S
C1797 C1796 1.399 . S
C1797 C1798 1.385 . S
C1798 H1784 0.931 . S
C1798 C1797 1.385 . S
C1798 C1799 1.389 . S
C1799 C1798 1.389 . S
C1799 C1800 1.387 . S
C1800 H1785 0.930 . S
C1800 C1795 1.390 . S
C1800 C1799 1.387 . S
H1801 C1813 0.930 . S
H1802 C1815 0.930 . S
H1803 C1816 0.930 . S
H1804 C1820 0.959 . S
H1805 C1820 0.959 . S
H1806 C1820 0.961 . S
H1807 C1821 0.960 . S
H1808 C1821 0.961 . S
H1809 C1821 0.959 . S
H1810 C1824 0.929 . S
H1811 C1825 0.931 . S
H1812 C1827 0.930 . S
C1813 H1801 0.930 . S
C1813 C1814 1.399 . S
C1813 C1818 1.399 . S
C1814 C1813 1.399 . S
C1814 C1815 1.376 . S
C1815 H1802 0.930 . S
C1815 C1814 1.376 . S
C1815 C1816 1.388 . S
C1816 H1803 0.930 . S
C1816 C1815 1.388 . S
C1816 C1817 1.390 . S
C1817 C1816 1.390 . S
C1817 C1818 1.394 . S
C1817 C1823 1.465 . S
C1818 C1813 1.399 . S
C1818 C1817 1.394 . S
C1818 C1819 1.516 . S
C1819 C1818 1.516 . S
C1819 C1820 1.502 . S
C1819 C1821 1.561 . S
C1819 C1822 1.526 . S
C1820 H1804 0.959 . S
C1820 H1805 0.959 . S
C1820 H1806 0.961 . S
C1820 C1819 1.502 . S
C1821 H1807 0.960 . S
C1821 H1808 0.961 . S
C1821 H1809 0.959 . S
C1821 C1819 1.561 . S
C1822 C1819 1.526 . S
C1822 C1823 1.396 . S
C1822 C1827 1.390 . S
C1823 C1817 1.465 . S
C1823 C1822 1.396 . S
C1823 C1824 1.399 . S
C1824 H1810 0.929 . S
C1824 C1823 1.399 . S
C1824 C1825 1.385 . S
C1825 H1811 0.931 . S
C1825 C1824 1.385 . S
C1825 C1826 1.389 . S
C1826 C1825 1.389 . S
C1826 C1827 1.387 . S
C1827 H1812 0.930 . S
C1827 C1822 1.390 . S
C1827 C1826 1.387 . S
H1828 C1840 0.930 . S
H1829 C1842 0.930 . S
H1830 C1843 0.930 . S
H1831 C1847 0.959 . S
H1832 C1847 0.959 . S
H1833 C1847 0.961 . S
H1834 C1848 0.960 . S
H1835 C1848 0.961 . S
H1836 C1848 0.959 . S
H1837 C1851 0.929 . S
H1838 C1852 0.931 . S
H1839 C1854 0.930 . S
C1840 H1828 0.930 . S
C1840 C1841 1.399 . S
C1840 C1845 1.399 . S
C1841 C1840 1.399 . S
C1841 C1842 1.376 . S
C1842 H1829 0.930 . S
C1842 C1841 1.376 . S
C1842 C1843 1.388 . S
C1843 H1830 0.930 . S
C1843 C1842 1.388 . S
C1843 C1844 1.390 . S
C1844 C1843 1.390 . S
C1844 C1845 1.394 . S
C1844 C1850 1.465 . S
C1845 C1840 1.399 . S
C1845 C1844 1.394 . S
C1845 C1846 1.516 . S
C1846 C1845 1.516 . S
C1846 C1847 1.502 . S
C1846 C1848 1.561 . S
C1846 C1849 1.526 . S
C1847 H1831 0.959 . S
C1847 H1832 0.959 . S
C1847 H1833 0.961 . S
C1847 C1846 1.502 . S
C1848 H1834 0.960 . S
C1848 H1835 0.961 . S
C1848 H1836 0.959 . S
C1848 C1846 1.561 . S
C1849 C1846 1.526 . S
C1849 C1850 1.396 . S
C1849 C1854 1.390 . S
C1850 C1844 1.465 . S
C1850 C1849 1.396 . S
C1850 C1851 1.399 . S
C1851 H1837 0.929 . S
C1851 C1850 1.399 . S
C1851 C1852 1.385 . S
C1852 H1838 0.931 . S
C1852 C1851 1.385 . S
C1852 C1853 1.389 . S
C1853 C1852 1.389 . S
C1853 C1854 1.387 . S
C1854 H1839 0.930 . S
C1854 C1849 1.390 . S
C1854 C1853 1.387 . S
H1855 C1867 0.930 . S
H1856 C1869 0.930 . S
H1857 C1870 0.930 . S
H1858 C1874 0.959 . S
H1859 C1874 0.959 . S
H1860 C1874 0.961 . S
H1861 C1875 0.960 . S
H1862 C1875 0.961 . S
H1863 C1875 0.959 . S
H1864 C1878 0.929 . S
H1865 C1879 0.931 . S
H1866 C1881 0.930 . S
C1867 H1855 0.930 . S
C1867 C1868 1.399 . S
C1867 C1872 1.399 . S
C1868 C1867 1.399 . S
C1868 C1869 1.376 . S
C1869 H1856 0.930 . S
C1869 C1868 1.376 . S
C1869 C1870 1.388 . S
C1870 H1857 0.930 . S
C1870 C1869 1.388 . S
C1870 C1871 1.390 . S
C1871 C1870 1.390 . S
C1871 C1872 1.394 . S
C1871 C1877 1.465 . S
C1872 C1867 1.399 . S
C1872 C1871 1.394 . S
C1872 C1873 1.516 . S
C1873 C1872 1.516 . S
C1873 C1874 1.502 . S
C1873 C1875 1.561 . S
C1873 C1876 1.526 . S
C1874 H1858 0.959 . S
C1874 H1859 0.959 . S
C1874 H1860 0.961 . S
C1874 C1873 1.502 . S
C1875 H1861 0.960 . S
C1875 H1862 0.961 . S
C1875 H1863 0.959 . S
C1875 C1873 1.561 . S
C1876 C1873 1.526 . S
C1876 C1877 1.396 . S
C1876 C1881 1.390 . S
C1877 C1871 1.465 . S
C1877 C1876 1.396 . S
C1877 C1878 1.399 . S
C1878 H1864 0.929 . S
C1878 C1877 1.399 . S
C1878 C1879 1.385 . S
C1879 H1865 0.931 . S
C1879 C1878 1.385 . S
C1879 C1880 1.389 . S
C1880 C1879 1.389 . S
C1880 C1881 1.387 . S
C1881 H1866 0.930 . S
C1881 C1876 1.390 . S
C1881 C1880 1.387 . S
H1882 C1894 0.930 . S
H1883 C1896 0.930 . S
H1884 C1897 0.930 . S
H1885 C1901 0.959 . S
H1886 C1901 0.959 . S
H1887 C1901 0.961 . S
H1888 C1902 0.960 . S
H1889 C1902 0.961 . S
H1890 C1902 0.959 . S
H1891 C1905 0.929 . S
H1892 C1906 0.931 . S
H1893 C1908 0.930 . S
C1894 H1882 0.930 . S
C1894 C1895 1.399 . S
C1894 C1899 1.399 . S
C1895 C1894 1.399 . S
C1895 C1896 1.376 . S
C1896 H1883 0.930 . S
C1896 C1895 1.376 . S
C1896 C1897 1.388 . S
C1897 H1884 0.930 . S
C1897 C1896 1.388 . S
C1897 C1898 1.390 . S
C1898 C1897 1.390 . S
C1898 C1899 1.394 . S
C1898 C1904 1.465 . S
C1899 C1894 1.399 . S
C1899 C1898 1.394 . S
C1899 C1900 1.516 . S
C1900 C1899 1.516 . S
C1900 C1901 1.502 . S
C1900 C1902 1.561 . S
C1900 C1903 1.526 . S
C1901 H1885 0.959 . S
C1901 H1886 0.959 . S
C1901 H1887 0.961 . S
C1901 C1900 1.502 . S
C1902 H1888 0.960 . S
C1902 H1889 0.961 . S
C1902 H1890 0.959 . S
C1902 C1900 1.561 . S
C1903 C1900 1.526 . S
C1903 C1904 1.396 . S
C1903 C1908 1.390 . S
C1904 C1898 1.465 . S
C1904 C1903 1.396 . S
C1904 C1905 1.399 . S
C1905 H1891 0.929 . S
C1905 C1904 1.399 . S
C1905 C1906 1.385 . S
C1906 H1892 0.931 . S
C1906 C1905 1.385 . S
C1906 C1907 1.389 . S
C1907 C1906 1.389 . S
C1907 C1908 1.387 . S
C1908 H1893 0.930 . S
C1908 C1903 1.390 . S
C1908 C1907 1.387 . S
H1909 C1921 0.930 . S
H1910 C1923 0.930 . S
H1911 C1924 0.930 . S
H1912 C1928 0.959 . S
H1913 C1928 0.959 . S
H1914 C1928 0.961 . S
H1915 C1929 0.960 . S
H1916 C1929 0.961 . S
H1917 C1929 0.959 . S
H1918 C1932 0.929 . S
H1919 C1933 0.931 . S
H1920 C1935 0.930 . S
C1921 H1909 0.930 . S
C1921 C1922 1.399 . S
C1921 C1926 1.399 . S
C1922 C1921 1.399 . S
C1922 C1923 1.376 . S
C1923 H1910 0.930 . S
C1923 C1922 1.376 . S
C1923 C1924 1.388 . S
C1924 H1911 0.930 . S
C1924 C1923 1.388 . S
C1924 C1925 1.390 . S
C1925 C1924 1.390 . S
C1925 C1926 1.394 . S
C1925 C1931 1.465 . S
C1926 C1921 1.399 . S
C1926 C1925 1.394 . S
C1926 C1927 1.516 . S
C1927 C1926 1.516 . S
C1927 C1928 1.502 . S
C1927 C1929 1.561 . S
C1927 C1930 1.526 . S
C1928 H1912 0.959 . S
C1928 H1913 0.959 . S
C1928 H1914 0.961 . S
C1928 C1927 1.502 . S
C1929 H1915 0.960 . S
C1929 H1916 0.961 . S
C1929 H1917 0.959 . S
C1929 C1927 1.561 . S
C1930 C1927 1.526 . S
C1930 C1931 1.396 . S
C1930 C1935 1.390 . S
C1931 C1925 1.465 . S
C1931 C1930 1.396 . S
C1931 C1932 1.399 . S
C1932 H1918 0.929 . S
C1932 C1931 1.399 . S
C1932 C1933 1.385 . S
C1933 H1919 0.931 . S
C1933 C1932 1.385 . S
C1933 C1934 1.389 . S
C1934 C1933 1.389 . S
C1934 C1935 1.387 . S
C1935 H1920 0.930 . S
C1935 C1930 1.390 . S
C1935 C1934 1.387 . S
C653 C129 3.577 . S
C665 C8 3.579 . S
C680 C19 3.021 . S
C692 C49 3.036 . S
C707 C98 1.080 . S
C719 C58 1.059 . S
C734 C135 0.475 . S
C746 C95 0.646 . S
C761 C179 0.432 . S
C773 C215 0.235 . S
C788 C218 1.052 . S
C800 C248 1.099 . S
C815 C245 0.476 . S
C827 C295 0.541 . S
C842 C165 0.743 . S
C854 C298 0.815 . S
C869 C369 3.298 . S
C881 C5 3.280 . S
C896 C419 0.721 . S
C908 C55 0.741 . S
C923 C89 3.017 . S
C935 C529 2.994 . S
C950 C328 1.087 . S
C962 C138 1.079 . S
C977 C458 1.070 . S
C989 C168 1.075 . S
C1004 C565 3.284 . S
C1016 C209 3.299 . S
C1031 C259 0.707 . S
C1043 C495 0.750 . S
C1058 C609 3.021 . S
C1070 C289 2.972 . S
C1085 C325 0.854 . S
C1097 C538 0.787 . S
C1112 C375 0.100 . S
C1124 C339 0.454 . S
C1139 C408 1.136 . S
C1151 C378 1.131 . S
C1166 C568 3.588 . S
C1178 C449 3.569 . S
C1193 C498 0.987 . S
C1205 C618 1.016 . S
C1220 C459 3.564 . S
C1232 C18 3.587 . S
C1247 C499 3.044 . S
C1259 C9 3.025 . S
C1274 C488 1.074 . S
C1286 C88 1.043 . S
C1301 C85 0.552 . S
C1313 C445 0.575 . S
C1328 C365 0.191 . S
C1340 C169 0.297 . S
C1355 C368 1.133 . S
C1367 C258 1.126 . S
C1382 C525 0.559 . S
C1394 C255 0.425 . S
C1409 C175 0.784 . S
C1421 C528 0.785 . S
C1436 C219 3.279 . S
C1448 C15 3.273 . S
C1463 C409 0.789 . S
C1475 C485 0.706 . S
C1490 C99 3.028 . S
C1502 C299 2.974 . S
C1517 C338 1.030 . S
C1529 C448 1.087 . S
C1544 C128 1.099 . S
C1556 C178 1.088 . S
C1571 C379 3.299 . S
C1583 C575 3.290 . S
C1598 C249 0.649 . S
C1610 C45 0.768 . S
C1625 C619 3.027 . S
C1637 C539 3.001 . S
C1652 C335 0.802 . S
C1664 C288 0.827 . S
C1679 C329 0.318 . S
C1691 C205 0.177 . S
C1706 C418 1.136 . S
C1718 C208 1.106 . S
C1733 C139 3.557 . S
C1745 C578 3.593 . S
C1760 C48 1.087 . S
C1772 C608 1.060 . S
C1787 C489 3.042 . S
C1799 C579 3.027 . S
C1814 C455 0.492 . S
C1826 C615 0.627 . S
C1841 C405 0.396 . S
C1853 C535 0.554 . S
C1868 C569 3.023 . S
C1880 C59 3.032 . S
C1895 C125 0.671 . S
C1907 C605 0.472 . S
C1922 C285 0.570 . S
C1934 C415 0.409 . S
