# Generated by pormake.
# Topology wlb, (5)-cn, num edge types: 1
# Building blocks:
#     Node 0, Type 0, BuildingBlock: XOMCOT_clean_sbu_1, # of connection points: 5
#     Node 1, Type 0, BuildingBlock: XOMCOT_clean_sbu_1, # of connection points: 5
#     Node 2, Type 0, BuildingBlock: XOMCOT_clean_sbu_1, # of connection points: 5
#     Node 3, Type 0, BuildingBlock: XOMCOT_clean_sbu_1, # of connection points: 5
#     Node 4, Type 0, BuildingBlock: XOMCOT_clean_sbu_1, # of connection points: 5
#     Node 5, Type 0, BuildingBlock: XOMCOT_clean_sbu_1, # of connection points: 5
#     Node 6, Type 0, BuildingBlock: XOMCOT_clean_sbu_1, # of connection points: 5
#     Node 7, Type 0, BuildingBlock: XOMCOT_clean_sbu_1, # of connection points: 5
#     Node 8, Type 0, BuildingBlock: XOMCOT_clean_sbu_1, # of connection points: 5
#     Node 9, Type 0, BuildingBlock: XOMCOT_clean_sbu_1, # of connection points: 5
#     Node 10, Type 0, BuildingBlock: XOMCOT_clean_sbu_1, # of connection points: 5
#     Node 11, Type 0, BuildingBlock: XOMCOT_clean_sbu_1, # of connection points: 5
#     Node 12, Type 0, BuildingBlock: XOMCOT_clean_sbu_1, # of connection points: 5
#     Node 13, Type 0, BuildingBlock: XOMCOT_clean_sbu_1, # of connection points: 5
#     Node 14, Type 0, BuildingBlock: XOMCOT_clean_sbu_1, # of connection points: 5
#     Node 15, Type 0, BuildingBlock: XOMCOT_clean_sbu_1, # of connection points: 5
#     Node 16, Type 0, BuildingBlock: XOMCOT_clean_sbu_1, # of connection points: 5
#     Node 17, Type 0, BuildingBlock: XOMCOT_clean_sbu_1, # of connection points: 5
#     Edge 18, Type (0, 0), BuildingBlock: TEMPAE_clean_linker_10, # of connection points: 2
#     Edge 19, Type (0, 0), BuildingBlock: TEMPAE_clean_linker_10, # of connection points: 2
#     Edge 20, Type (0, 0), BuildingBlock: TEMPAE_clean_linker_10, # of connection points: 2
#     Edge 21, Type (0, 0), BuildingBlock: TEMPAE_clean_linker_10, # of connection points: 2
#     Edge 22, Type (0, 0), BuildingBlock: TEMPAE_clean_linker_10, # of connection points: 2
#     Edge 23, Type (0, 0), BuildingBlock: TEMPAE_clean_linker_10, # of connection points: 2
#     Edge 24, Type (0, 0), BuildingBlock: TEMPAE_clean_linker_10, # of connection points: 2
#     Edge 25, Type (0, 0), BuildingBlock: TEMPAE_clean_linker_10, # of connection points: 2
#     Edge 26, Type (0, 0), BuildingBlock: TEMPAE_clean_linker_10, # of connection points: 2
#     Edge 27, Type (0, 0), BuildingBlock: TEMPAE_clean_linker_10, # of connection points: 2
#     Edge 28, Type (0, 0), BuildingBlock: TEMPAE_clean_linker_10, # of connection points: 2
#     Edge 29, Type (0, 0), BuildingBlock: TEMPAE_clean_linker_10, # of connection points: 2
#     Edge 30, Type (0, 0), BuildingBlock: TEMPAE_clean_linker_10, # of connection points: 2
#     Edge 31, Type (0, 0), BuildingBlock: TEMPAE_clean_linker_10, # of connection points: 2
#     Edge 32, Type (0, 0), BuildingBlock: TEMPAE_clean_linker_10, # of connection points: 2
#     Edge 33, Type (0, 0), BuildingBlock: TEMPAE_clean_linker_10, # of connection points: 2
#     Edge 34, Type (0, 0), BuildingBlock: TEMPAE_clean_linker_10, # of connection points: 2
#     Edge 35, Type (0, 0), BuildingBlock: TEMPAE_clean_linker_10, # of connection points: 2
#     Edge 36, Type (0, 0), BuildingBlock: TEMPAE_clean_linker_10, # of connection points: 2
#     Edge 37, Type (0, 0), BuildingBlock: TEMPAE_clean_linker_10, # of connection points: 2
#     Edge 38, Type (0, 0), BuildingBlock: TEMPAE_clean_linker_10, # of connection points: 2
#     Edge 39, Type (0, 0), BuildingBlock: TEMPAE_clean_linker_10, # of connection points: 2
#     Edge 40, Type (0, 0), BuildingBlock: TEMPAE_clean_linker_10, # of connection points: 2
#     Edge 41, Type (0, 0), BuildingBlock: TEMPAE_clean_linker_10, # of connection points: 2
#     Edge 42, Type (0, 0), BuildingBlock: TEMPAE_clean_linker_10, # of connection points: 2
#     Edge 43, Type (0, 0), BuildingBlock: TEMPAE_clean_linker_10, # of connection points: 2
#     Edge 44, Type (0, 0), BuildingBlock: TEMPAE_clean_linker_10, # of connection points: 2
#     Edge 45, Type (0, 0), BuildingBlock: TEMPAE_clean_linker_10, # of connection points: 2
#     Edge 46, Type (0, 0), BuildingBlock: TEMPAE_clean_linker_10, # of connection points: 2
#     Edge 47, Type (0, 0), BuildingBlock: TEMPAE_clean_linker_10, # of connection points: 2
#     Edge 48, Type (0, 0), BuildingBlock: TEMPAE_clean_linker_10, # of connection points: 2
#     Edge 49, Type (0, 0), BuildingBlock: TEMPAE_clean_linker_10, # of connection points: 2
#     Edge 50, Type (0, 0), BuildingBlock: TEMPAE_clean_linker_10, # of connection points: 2
#     Edge 51, Type (0, 0), BuildingBlock: TEMPAE_clean_linker_10, # of connection points: 2
#     Edge 52, Type (0, 0), BuildingBlock: TEMPAE_clean_linker_10, # of connection points: 2
#     Edge 53, Type (0, 0), BuildingBlock: TEMPAE_clean_linker_10, # of connection points: 2
#     Edge 54, Type (0, 0), BuildingBlock: TEMPAE_clean_linker_10, # of connection points: 2
#     Edge 55, Type (0, 0), BuildingBlock: TEMPAE_clean_linker_10, # of connection points: 2
#     Edge 56, Type (0, 0), BuildingBlock: TEMPAE_clean_linker_10, # of connection points: 2
#     Edge 57, Type (0, 0), BuildingBlock: TEMPAE_clean_linker_10, # of connection points: 2
#     Edge 58, Type (0, 0), BuildingBlock: TEMPAE_clean_linker_10, # of connection points: 2
#     Edge 59, Type (0, 0), BuildingBlock: TEMPAE_clean_linker_10, # of connection points: 2
#     Edge 60, Type (0, 0), BuildingBlock: TEMPAE_clean_linker_10, # of connection points: 2
#     Edge 61, Type (0, 0), BuildingBlock: TEMPAE_clean_linker_10, # of connection points: 2
#     Edge 62, Type (0, 0), BuildingBlock: TEMPAE_clean_linker_10, # of connection points: 2
# Relax obj value: 0.337
# Max RMSD: 0.210
# Mean RMSD: 0.210
data_MOF--net-wlb--node1-XOMCOT_clean_sbu_1--edge1-TEMPAE_clean_linker_10
_symmetry_space_group_name_H-M    P1
_symmetry_Int_Tables_number       1
_symmetry_cell_setting            triclinic
loop_
_symmetry_equiv_pos_as_xyz
'x, y, z'
_cell_length_a     52.703902
_cell_length_b     52.681159
_cell_length_c     40.22717
_cell_angle_alpha  89.991405
_cell_angle_beta   90.032411
_cell_angle_gamma 120.05984
loop_
_atom_site_label
_atom_site_type_symbol
_atom_site_fract_x
_atom_site_fract_y
_atom_site_fract_z
_atom_type_partial_charge
C0 C 0.11409 0.20663 0.23176 0.0
C1 C 0.12661 0.18938 0.23607 0.0
N2 N 0.10522 0.16206 0.2437 0.0
N3 N 0.08493 0.19037 0.23691 0.0
C4 C 0.08025 0.16325 0.24388 0.0
H5 H 0.12561 0.22956 0.225 0.0
Co6 Co 0.05857 0.20433 0.23484 0.0
C7 C 1.00122 0.15615 0.25858 0.0
O8 O 0.98882 0.16563 0.23746 0.0
N9 N 0.03279 0.21979 0.2335 0.0
C10 C 1.00446 0.2367 0.25307 0.0
C11 C 0.02114 0.22432 0.26131 0.0
C12 C 0.02335 0.23049 0.20871 0.0
N13 N 1.0059 0.24059 0.21997 0.0
O14 O 0.07648 0.22787 0.27361 0.0
H15 H 0.02442 0.21873 0.2862 0.0
H16 H 0.02887 0.231 0.18284 0.0
O17 O 0.02931 0.1699 0.26119 0.0
C18 C 0.09476 0.25338 0.26258 0.0
O19 O 0.09715 0.25736 0.23022 0.0
N20 N 0.04409 0.18397 0.19463 0.0
C21 C 0.03106 0.1613 0.13001 0.0
C22 C 0.02194 0.14253 0.15774 0.0
C23 C 0.02879 0.15429 0.18982 0.0
C24 C 0.05505 0.20228 0.16808 0.0
C25 C 0.04792 0.19165 0.13577 0.0
H26 H 0.02255 0.13928 0.21041 0.0
H27 H 0.06921 0.22555 0.17212 0.0
H28 H 0.05903 0.14464 0.24884 0.0
H29 H 0.14955 0.19622 0.2329 0.0
H30 H 0.99265 0.2429 0.27019 0.0
H31 H 0.01009 0.11894 0.15487 0.0
H32 H 0.05549 0.2074 0.11567 0.0
C33 C 0.82308 0.91544 0.19618 0.0
C34 C 0.84202 0.94502 0.19977 0.0
N35 N 0.85978 0.94913 0.22578 0.0
N36 N 0.82902 0.90083 0.21959 0.0
C37 C 0.85126 0.92201 0.23761 0.0
H38 H 0.80625 0.90519 0.17741 0.0
Co39 Co 0.81043 0.86006 0.22296 0.0
C40 C 0.85669 0.84716 0.24593 0.0
O41 O 0.84304 0.82145 0.23126 0.0
N42 N 0.79082 0.81853 0.22693 0.0
C43 C 0.77114 0.77454 0.25108 0.0
C44 C 0.78569 0.8043 0.25635 0.0
C45 C 0.77851 0.7966 0.20419 0.0
N46 N 0.76664 0.76975 0.21823 0.0
O47 O 0.793 0.86141 0.26405 0.0
H48 H 0.79274 0.81491 0.28029 0.0
H49 H 0.77858 0.79982 0.17774 0.0
O50 O 0.84561 0.86394 0.24514 0.0
C51 C 0.76943 0.86158 0.25729 0.0
O52 O 0.76397 0.8644 0.22604 0.0
N53 N 0.82495 0.85911 0.1808 0.0
C54 C 0.83942 0.86104 0.11389 0.0
C55 C 0.86099 0.86939 0.13855 0.0
C56 C 0.85338 0.86872 0.17197 0.0
C57 C 0.80421 0.85255 0.15697 0.0
C58 C 0.81079 0.85287 0.12347 0.0
H59 H 0.87061 0.87695 0.19025 0.0
H60 H 0.78227 0.84707 0.16422 0.0
H61 H 0.8615 0.91769 0.25848 0.0
H62 H 0.84261 0.96222 0.18449 0.0
H63 H 0.76431 0.75773 0.26997 0.0
H64 H 0.88354 0.87653 0.13209 0.0
H65 H 0.7937 0.84733 0.10518 0.0
C66 C 0.09946 0.89673 0.19606 0.0
C67 C 0.06961 0.88361 0.20028 0.0
N68 N 0.06408 0.90064 0.22052 0.0
N69 N 0.11267 0.92206 0.21327 0.0
C70 C 0.09057 0.92367 0.22836 0.0
H71 H 0.11082 0.88897 0.18036 0.0
Co72 Co 0.15257 0.94909 0.21092 0.0
C73 C 0.15757 0.00662 0.21736 0.0
O74 O 0.17699 0.01468 0.19332 0.0
N75 N 0.19379 0.9763 0.20989 0.0
C76 C 0.23684 0.00987 0.23098 0.0
C77 C 0.20734 0.99331 0.23664 0.0
C78 C 0.21615 0.98262 0.18851 0.0
N79 N 0.24252 1.00316 0.20066 0.0
O80 O 0.15805 0.93732 0.25391 0.0
H81 H 0.19633 0.99373 0.25914 0.0
H82 H 0.21372 0.97204 0.16491 0.0
O83 O 0.14587 0.98041 0.22891 0.0
C84 C 0.16609 0.91848 0.24894 0.0
O85 O 0.16713 0.91049 0.21827 0.0
N86 N 0.14665 0.95768 0.16712 0.0
C87 C 0.13708 0.9651 0.10024 0.0
C88 C 0.12166 0.96989 0.12569 0.0
C89 C 0.12667 0.96597 0.15885 0.0
C90 C 0.15889 0.9494 0.14282 0.0
C91 C 0.15569 0.95429 0.10946 0.0
H92 H 0.1139 0.96897 0.1778 0.0
H93 H 0.17079 0.93836 0.14929 0.0
H94 H 0.09361 0.94206 0.24332 0.0
H95 H 0.05319 0.86341 0.18879 0.0
H96 H 0.25275 0.02594 0.24789 0.0
H97 H 0.10547 0.97621 0.12034 0.0
H98 H 0.16795 0.94958 0.09142 0.0
C99 C 0.20194 0.11033 0.782 0.0
C100 C 0.18478 0.12316 0.78064 0.0
N101 N 0.16418 0.10939 0.75706 0.0
N102 N 0.19211 0.08841 0.75957 0.0
C103 C 0.16937 0.0887 0.74435 0.0
H104 H 0.21953 0.11563 0.79944 0.0
Co105 Co 0.20542 0.06169 0.75661 0.0
C106 C 0.15437 0.00567 0.73427 0.0
O107 O 0.16435 0.99192 0.75259 0.0
N108 N 0.22001 0.03523 0.75311 0.0
C109 C 0.23476 0.00661 0.72906 0.0
C110 C 0.22255 0.02402 0.72384 0.0
C111 C 0.23152 0.02462 0.77562 0.0
N112 N 0.24045 0.00709 0.7617 0.0
O113 O 0.22651 0.08038 0.71683 0.0
H114 H 0.21576 0.02814 0.70003 0.0
H115 H 0.23337 0.02916 0.80183 0.0
O116 O 0.16914 0.03376 0.73227 0.0
C117 C 0.25144 0.10124 0.72632 0.0
O118 O 0.25603 0.10637 0.75836 0.0
N119 N 0.18748 0.04633 0.79766 0.0
C120 C 0.16784 0.03177 0.86322 0.0
C121 C 0.14791 0.02575 0.83702 0.0
C122 C 0.15819 0.03341 0.80444 0.0
C123 C 0.2071 0.05502 0.82302 0.0
C124 C 0.19791 0.04676 0.85558 0.0
H125 H 0.14264 0.0301 0.78513 0.0
H126 H 0.23028 0.06838 0.81781 0.0
H127 H 0.15578 0.07301 0.72569 0.0
H128 H 0.18661 0.14051 0.79665 0.0
H129 H 0.23955 0.99494 0.71023 0.0
H130 H 0.12462 0.0159 0.84149 0.0
H131 H 0.21457 0.05217 0.87431 0.0
C132 C 0.89626 0.09473 0.80824 0.0
C133 C 0.87633 0.06589 0.80156 0.0
N134 N 0.88195 0.0592 0.77105 0.0
N135 N 0.91475 0.10629 0.78234 0.0
C136 C 0.90405 0.08482 0.75916 0.0
H137 H 0.89838 0.10598 0.83146 0.0
Co138 Co 0.94923 0.14302 0.78285 0.0
C139 C 0.97337 0.10447 0.75342 0.0
O140 O 0.95138 0.07869 0.76167 0.0
N141 N 0.98341 0.18021 0.78359 0.0
C142 C 0.0297 0.21525 0.79119 0.0
C143 C 0.01123 0.18572 0.78653 0.0
C144 C 0.98558 0.20681 0.78672 0.0
N145 N 0.01355 0.22856 0.79156 0.0
O146 O 0.93784 0.15281 0.74168 0.0
H147 H 0.01757 0.16916 0.78781 0.0
H148 H 0.96684 0.20994 0.78723 0.0
O149 O 0.9727 0.12793 0.76027 0.0
C150 C 0.92137 0.16307 0.7502 0.0
O151 O 0.91506 0.16264 0.78189 0.0
N152 N 0.95887 0.13522 0.8253 0.0
C153 C 0.96945 0.12896 0.89217 0.0
C154 C 0.96682 0.10829 0.8683 0.0
C155 C 0.96168 0.11191 0.83496 0.0
C156 C 0.96034 0.15486 0.84833 0.0
C157 C 0.96649 0.15271 0.88145 0.0
H158 H 0.95885 0.0953 0.8176 0.0
H159 H 0.95661 0.17245 0.84099 0.0
H160 H 0.91429 0.08717 0.73519 0.0
H161 H 0.86029 0.05059 0.81892 0.0
H162 H 0.05295 0.22572 0.79639 0.0
H163 H 0.96803 0.08907 0.87524 0.0
H164 H 0.96889 0.16976 0.89834 0.0
C165 C 0.91042 0.82502 0.78394 0.0
C166 C 0.93989 0.84465 0.7818 0.0
N167 N 0.94411 0.86508 0.75894 0.0
N168 N 0.89583 0.83293 0.76269 0.0
C169 C 0.91703 0.85735 0.74742 0.0
H170 H 0.90016 0.8064 0.80052 0.0
Co171 Co 0.85482 0.81302 0.76085 0.0
C172 C 0.83784 0.85622 0.7383 0.0
O173 O 0.81382 0.84215 0.75606 0.0
N174 N 0.81311 0.79176 0.75881 0.0
C175 C 0.76829 0.77004 0.73655 0.0
C176 C 0.79782 0.78521 0.72999 0.0
C177 C 0.79204 0.7796 0.78254 0.0
N178 N 0.76469 0.76655 0.76963 0.0
O179 O 0.85542 0.79422 0.72027 0.0
H180 H 0.80753 0.79176 0.70557 0.0
H181 H 0.79625 0.78078 0.80888 0.0
O182 O 0.8561 0.84684 0.73737 0.0
C183 C 0.85488 0.77054 0.72854 0.0
O184 O 0.85716 0.76599 0.76024 0.0
N185 N 0.85484 0.82878 0.80254 0.0
C186 C 0.86117 0.84591 0.86893 0.0
C187 C 0.8668 0.86627 0.84351 0.0
C188 C 0.86419 0.85741 0.81029 0.0
C189 C 0.85015 0.80907 0.82703 0.0
C190 C 0.85275 0.81699 0.86033 0.0
H191 H 0.87105 0.87392 0.79126 0.0
H192 H 0.84466 0.78698 0.82049 0.0
H193 H 0.91273 0.86969 0.72901 0.0
H194 H 0.95698 0.84397 0.79604 0.0
H195 H 0.75081 0.76218 0.71838 0.0
H196 H 0.87422 0.88903 0.84924 0.0
H197 H 0.84828 0.8006 0.8792 0.0
C198 C 0.78027 0.53604 0.53264 0.0
C199 C 0.79205 0.51799 0.53474 0.0
N200 N 0.77756 0.49779 0.55851 0.0
N201 N 0.75831 0.52722 0.55483 0.0
C202 C 0.75747 0.50412 0.57063 0.0
H203 H 0.78646 0.55371 0.51506 0.0
Co204 Co 0.733 0.5423 0.5568 0.0
C205 C 0.67562 0.49283 0.57716 0.0
O206 O 0.66332 0.5034 0.55737 0.0
N207 N 0.70787 0.55849 0.55953 0.0
C208 C 0.6797 0.57388 0.58338 0.0
C209 C 0.69608 0.56058 0.58859 0.0
C210 C 0.69872 0.57148 0.53716 0.0
N211 N 0.68146 0.58076 0.55099 0.0
O212 O 0.7512 0.56268 0.59711 0.0
H213 H 0.69904 0.55266 0.61226 0.0
H214 H 0.70413 0.57414 0.51114 0.0
O215 O 0.7036 0.50657 0.58042 0.0
C216 C 0.77254 0.58765 0.58855 0.0
O217 O 0.77913 0.59243 0.55681 0.0
N218 N 0.71805 0.52496 0.51526 0.0
C219 C 0.70565 0.50583 0.44916 0.0
C220 C 0.6985 0.48568 0.47541 0.0
C221 C 0.705 0.49569 0.50823 0.0
C222 C 0.72751 0.54478 0.49006 0.0
C223 C 0.72032 0.53586 0.45722 0.0
H224 H 0.70086 0.47993 0.52762 0.0
H225 H 0.74108 0.56789 0.49554 0.0
H226 H 0.74161 0.49131 0.58953 0.0
H227 H 0.80954 0.51924 0.51944 0.0
H228 H 0.66783 0.57856 0.60206 0.0
H229 H 0.68877 0.46241 0.47086 0.0
H230 H 0.72652 0.55272 0.43858 0.0
C231 C 0.49222 0.24617 0.53364 0.0
C232 C 0.51075 0.276 0.53398 0.0
N233 N 0.52973 0.28272 0.55941 0.0
N234 N 0.49946 0.23397 0.55863 0.0
C235 C 0.52218 0.25684 0.57423 0.0
H236 H 0.475 0.234 0.51574 0.0
Co237 Co 0.48217 0.19359 0.56518 0.0
C238 C 0.52868 0.18392 0.59351 0.0
O239 O 0.51588 0.15778 0.57985 0.0
N240 N 0.46363 0.15231 0.57232 0.0
C241 C 0.44137 0.10981 0.60001 0.0
C242 C 0.45618 0.13983 0.60286 0.0
C243 C 0.45331 0.12903 0.55138 0.0
N244 N 0.43976 0.10316 0.56761 0.0
O245 O 0.4621 0.19612 0.60363 0.0
H246 H 0.46138 0.15178 0.62603 0.0
H247 H 0.45502 0.13042 0.52469 0.0
O248 O 0.51686 0.2 0.59093 0.0
C249 C 0.43808 0.19395 0.59364 0.0
O250 O 0.43397 0.19439 0.56147 0.0
N251 N 0.49927 0.1915 0.52522 0.0
C252 C 0.51848 0.19454 0.45979 0.0
C253 C 0.53867 0.20638 0.48611 0.0
C254 C 0.52862 0.20487 0.51864 0.0
C255 C 0.47958 0.1813 0.49983 0.0
C256 C 0.4885 0.18147 0.46729 0.0
H257 H 0.54458 0.21609 0.53791 0.0
H258 H 0.45662 0.17311 0.50496 0.0
H259 H 0.53358 0.25456 0.59534 0.0
H260 H 0.51038 0.29155 0.51667 0.0
H261 H 0.43275 0.09408 0.62015 0.0
H262 H 0.56206 0.21783 0.48162 0.0
H263 H 0.47183 0.17172 0.44823 0.0
C264 C 0.77234 0.23824 0.54153 0.0
C265 C 0.74241 0.22569 0.54429 0.0
N266 N 0.73662 0.24136 0.56637 0.0
N267 N 0.7854 0.26185 0.56159 0.0
C268 C 0.76308 0.26299 0.57676 0.0
H269 H 0.78393 0.23117 0.52524 0.0
Co270 Co 0.82562 0.28766 0.56325 0.0
C271 C 0.83296 0.34564 0.57866 0.0
O272 O 0.8555 0.357 0.55833 0.0
N273 N 0.86694 0.31344 0.56605 0.0
C274 C 0.91001 0.34253 0.59058 0.0
C275 C 0.8802 0.32671 0.59489 0.0
C276 C 0.8896 0.32126 0.54471 0.0
N277 N 0.91591 0.33904 0.55897 0.0
O278 O 0.82764 0.27171 0.60523 0.0
H279 H 0.86881 0.32493 0.61789 0.0
H280 H 0.88738 0.31438 0.51918 0.0
O281 O 0.81884 0.3179 0.58384 0.0
C282 C 0.83527 0.25269 0.59913 0.0
O283 O 0.83779 0.24681 0.56798 0.0
N284 N 0.82328 0.30038 0.52026 0.0
C285 C 0.81582 0.30878 0.45284 0.0
C286 C 0.8023 0.31651 0.47794 0.0
C287 C 0.80625 0.31209 0.51141 0.0
C288 C 0.83442 0.29053 0.49634 0.0
C289 C 0.83233 0.29581 0.46284 0.0
H290 H 0.79425 0.31663 0.52993 0.0
H291 H 0.84456 0.27784 0.5033 0.0
H292 H 0.76605 0.27992 0.59413 0.0
H293 H 0.72617 0.20666 0.53081 0.0
H294 H 0.92611 0.35511 0.60944 0.0
H295 H 0.78792 0.325 0.4721 0.0
H296 H 0.84349 0.2893 0.44525 0.0
C297 C 0.85414 0.42583 0.12449 0.0
C298 C 0.83496 0.43628 0.12355 0.0
N299 N 0.81431 0.42104 0.10048 0.0
N300 N 0.84569 0.40395 0.10222 0.0
C301 C 0.82145 0.40169 0.08763 0.0
H302 H 0.87269 0.43317 0.14104 0.0
Co303 Co 0.86416 0.38168 0.09838 0.0
C304 C 0.81835 0.32213 0.07937 0.0
O305 O 0.83135 0.31229 0.09914 0.0
N306 N 0.88382 0.35975 0.09375 0.0
C307 C 0.90163 0.33442 0.06799 0.0
C308 C 0.88663 0.34931 0.06405 0.0
C309 C 0.89803 0.35128 0.11524 0.0
N310 N 0.9088 0.33573 0.10024 0.0
O311 O 0.88204 0.40093 0.05738 0.0
H312 H 0.87776 0.35185 0.04085 0.0
H313 H 0.90012 0.35553 0.14155 0.0
O314 O 0.82899 0.34987 0.07601 0.0
C315 C 0.90616 0.42387 0.06506 0.0
O316 O 0.9115 0.43094 0.09664 0.0
N317 N 0.84942 0.36603 0.14057 0.0
C318 C 0.83412 0.35465 0.20791 0.0
C319 C 0.81243 0.34475 0.18297 0.0
C320 C 0.82053 0.35074 0.14947 0.0
C321 C 0.87048 0.3776 0.16443 0.0
C322 C 0.86358 0.371 0.19781 0.0
H323 H 0.80351 0.34447 0.13105 0.0
H324 H 0.89299 0.39245 0.15743 0.0
H325 H 0.80867 0.38555 0.06889 0.0
H326 H 0.83604 0.45371 0.13884 0.0
H327 H 0.90693 0.32356 0.04864 0.0
H328 H 0.78934 0.33337 0.18904 0.0
H329 H 0.88155 0.37913 0.21529 0.0
C330 C 0.56682 0.43008 0.12769 0.0
C331 C 0.55428 0.4001 0.12538 0.0
N332 N 0.56803 0.39403 0.10108 0.0
N333 N 0.58857 0.4429 0.10518 0.0
C334 C 0.58846 0.42035 0.08896 0.0
H335 H 0.56138 0.44184 0.14569 0.0
Co336 Co 0.61495 0.48316 0.10257 0.0
C337 C 0.67141 0.4886 0.08225 0.0
O338 O 0.68459 0.5118 0.10152 0.0
N339 N 0.64116 0.52435 0.09907 0.0
C340 C 0.67035 0.5673 0.07432 0.0
C341 C 0.65342 0.53752 0.06984 0.0
C342 C 0.65054 0.54704 0.12076 0.0
N343 N 0.66844 0.57323 0.10639 0.0
O344 O 0.59682 0.48539 0.06223 0.0
H345 H 0.65031 0.52609 0.04653 0.0
H346 H 0.64474 0.54495 0.14666 0.0
O347 O 0.64343 0.47528 0.07914 0.0
C348 C 0.57586 0.48951 0.07096 0.0
O349 O 0.56996 0.48864 0.10282 0.0
N350 N 0.62984 0.48079 0.14415 0.0
C351 C 0.64264 0.47469 0.21031 0.0
C352 C 0.64859 0.46054 0.18431 0.0
C353 C 0.64191 0.46376 0.15146 0.0
C354 C 0.62143 0.49227 0.16919 0.0
C355 C 0.62889 0.49086 0.20201 0.0
H356 H 0.64511 0.4513 0.13232 0.0
H357 H 0.6084 0.50235 0.16364 0.0
H358 H 0.60405 0.42309 0.06986 0.0
H359 H 0.53701 0.38405 0.14108 0.0
H360 H 0.68266 0.58339 0.05533 0.0
H361 H 0.65751 0.44634 0.18908 0.0
H362 H 0.62359 0.50238 0.22045 0.0
C363 C 0.57808 0.13469 0.1303 0.0
C364 C 0.60714 0.14411 0.12453 0.0
N365 N 0.61499 0.15889 0.09546 0.0
N366 N 0.56758 0.14381 0.10531 0.0
C367 C 0.58988 0.15636 0.08329 0.0
H368 H 0.566 0.1239 0.15258 0.0
Co369 Co 0.53121 0.14223 0.10635 0.0
C370 C 0.57069 0.20679 0.08143 0.0
O371 O 0.59637 0.21001 0.08892 0.0
N372 N 0.49442 0.13999 0.10755 0.0
C373 C 0.46016 0.15175 0.11756 0.0
C374 C 0.48969 0.16236 0.1142 0.0
C375 C 0.46733 0.11597 0.10703 0.0
N376 N 0.44589 0.12239 0.1132 0.0
O377 O 0.52159 0.12293 0.06382 0.0
H378 H 0.5067 0.18475 0.11871 0.0
H379 H 0.46364 0.09406 0.1039 0.0
O380 O 0.54715 0.18223 0.08671 0.0
C381 C 0.51083 0.09576 0.0709 0.0
O382 O 0.51045 0.08844 0.10222 0.0
N383 N 0.53872 0.15743 0.14994 0.0
C384 C 0.54531 0.17072 0.21787 0.0
C385 C 0.56654 0.18939 0.19486 0.0
C386 C 0.56279 0.18238 0.161 0.0
C387 C 0.51837 0.1387 0.17206 0.0
C388 C 0.52075 0.14526 0.20577 0.0
H389 H 0.57994 0.19635 0.1443 0.0
H390 H 0.50009 0.11823 0.16351 0.0
H391 H 0.5885 0.16614 0.06021 0.0
H392 H 0.62183 0.14217 0.14178 0.0
H393 H 0.4504 0.1647 0.12488 0.0
H394 H 0.58632 0.20886 0.20289 0.0
H395 H 0.50334 0.13027 0.22209 0.0
C396 C 0.43595 0.86832 0.87248 0.0
C397 C 0.44913 0.8515 0.87474 0.0
N398 N 0.43341 0.82918 0.89588 0.0
N399 N 0.41187 0.85655 0.89185 0.0
C400 C 0.41114 0.83295 0.90623 0.0
H401 H 0.44265 0.88716 0.85654 0.0
Co402 Co 0.38451 0.86906 0.8916 0.0
C403 C 0.32788 0.81737 0.90982 0.0
O404 O 0.31542 0.82659 0.88843 0.0
N405 N 0.35712 0.88274 0.89201 0.0
C406 C 0.32645 0.89615 0.91323 0.0
C407 C 0.34331 0.88362 0.91998 0.0
C408 C 0.34863 0.89563 0.86876 0.0
N409 N 0.32989 0.90376 0.88096 0.0
O410 O 0.40053 0.89016 0.93241 0.0
H411 H 0.34552 0.87572 0.94402 0.0
H412 H 0.35584 0.89933 0.84331 0.0
O413 O 0.35567 0.83247 0.91459 0.0
C414 C 0.41696 0.91695 0.92387 0.0
O415 O 0.42064 0.92329 0.89201 0.0
N416 N 0.37194 0.85136 0.8497 0.0
C417 C 0.36237 0.83254 0.78331 0.0
C418 C 0.35535 0.8124 0.80958 0.0
C419 C 0.36041 0.82226 0.84256 0.0
C420 C 0.38147 0.87129 0.82461 0.0
C421 C 0.37559 0.86246 0.7916 0.0
H422 H 0.35627 0.80659 0.86204 0.0
H423 H 0.39397 0.89443 0.83032 0.0
H424 H 0.39387 0.81788 0.92256 0.0
H425 H 0.46836 0.85495 0.86122 0.0
H426 H 0.31329 0.90005 0.93091 0.0
H427 H 0.34675 0.78929 0.805 0.0
H428 H 0.38161 0.87936 0.77306 0.0
C429 C 0.14381 0.5715 0.86946 0.0
C430 C 0.16228 0.60132 0.8704 0.0
N431 N 0.18214 0.60752 0.89471 0.0
N432 N 0.15197 0.55872 0.89289 0.0
C433 C 0.17513 0.58133 0.90833 0.0
H434 H 0.12598 0.55977 0.85213 0.0
Co435 Co 0.13498 0.51807 0.89736 0.0
C436 C 0.18133 0.50813 0.92849 0.0
O437 O 0.16774 0.48069 0.91864 0.0
N438 N 0.1167 0.47662 0.90178 0.0
C439 C 0.09424 0.43231 0.92531 0.0
C440 C 0.10778 0.46197 0.93096 0.0
C441 C 0.10789 0.45501 0.87871 0.0
N442 N 0.0943 0.42793 0.89237 0.0
O443 O 0.11439 0.51879 0.93639 0.0
H444 H 0.11127 0.47216 0.95512 0.0
H445 H 0.11157 0.45872 0.85238 0.0
O446 O 0.16976 0.52413 0.92297 0.0
C447 C 0.09004 0.5161 0.92681 0.0
O448 O 0.08577 0.51693 0.89474 0.0
N449 N 0.15243 0.51751 0.85706 0.0
C450 C 0.17085 0.51755 0.79216 0.0
C451 C 0.19062 0.52549 0.81876 0.0
C452 C 0.18107 0.52582 0.85107 0.0
C453 C 0.13344 0.51128 0.8313 0.0
C454 C 0.14203 0.51083 0.79874 0.0
H455 H 0.19705 0.53349 0.87068 0.0
H456 H 0.11122 0.50625 0.83627 0.0
H457 H 0.18718 0.57869 0.92847 0.0
H458 H 0.16133 0.61723 0.85419 0.0
H459 H 0.08479 0.41529 0.94402 0.0
H460 H 0.21324 0.53141 0.81469 0.0
H461 H 0.12629 0.50559 0.77887 0.0
C462 C 0.42682 0.57014 0.86892 0.0
C463 C 0.39693 0.55758 0.87178 0.0
N464 N 0.39112 0.57244 0.89498 0.0
N465 N 0.43998 0.59291 0.89013 0.0
C466 C 0.41765 0.59361 0.90596 0.0
H467 H 0.4383 0.56354 0.85187 0.0
Co468 Co 0.48054 0.61805 0.89228 0.0
C469 C 0.48899 0.67614 0.91025 0.0
O470 O 0.51204 0.68791 0.89069 0.0
N471 N 0.52205 0.64304 0.89528 0.0
C472 C 0.56546 0.67177 0.9194 0.0
C473 C 0.53569 0.65547 0.92428 0.0
C474 C 0.54445 0.65171 0.87331 0.0
N475 N 0.57091 0.66932 0.8873 0.0
O476 O 0.48207 0.60073 0.93358 0.0
H477 H 0.52459 0.65309 0.94766 0.0
H478 H 0.54196 0.64581 0.84742 0.0
O479 O 0.47436 0.64823 0.91411 0.0
C480 C 0.48505 0.5788 0.92611 0.0
O481 O 0.48357 0.57157 0.89461 0.0
N482 N 0.47877 0.63195 0.84994 0.0
C483 C 0.47317 0.64267 0.78288 0.0
C484 C 0.46001 0.65074 0.80806 0.0
C485 C 0.46297 0.64509 0.84141 0.0
C486 C 0.48927 0.62163 0.82583 0.0
C487 C 0.48809 0.62797 0.79252 0.0
H488 H 0.45132 0.64998 0.86001 0.0
H489 H 0.49855 0.6081 0.83257 0.0
H490 H 0.42071 0.60987 0.92436 0.0
H491 H 0.38072 0.53899 0.85769 0.0
H492 H 0.58184 0.68417 0.93809 0.0
H493 H 0.44679 0.66058 0.80231 0.0
H494 H 0.49889 0.62113 0.7748 0.0
C495 C 0.5387 0.77756 0.46268 0.0
C496 C 0.52065 0.78934 0.46043 0.0
N497 N 0.50175 0.7761 0.43515 0.0
N498 N 0.5311 0.75682 0.4391 0.0
C499 C 0.5088 0.75675 0.42234 0.0
H500 H 0.5556 0.78297 0.48112 0.0
Co501 Co 0.54669 0.73207 0.4357 0.0
C502 C 0.49792 0.67513 0.4129 0.0
O503 O 0.50872 0.66216 0.43127 0.0
N504 N 0.56344 0.70751 0.43145 0.0
C505 C 0.57977 0.68071 0.4061 0.0
C506 C 0.56635 0.6971 0.40177 0.0
C507 C 0.57599 0.69748 0.45332 0.0
N508 N 0.58586 0.68105 0.43858 0.0
O509 O 0.56675 0.75154 0.3959 0.0
H510 H 0.55887 0.70095 0.37828 0.0
H511 H 0.57783 0.70155 0.47965 0.0
O512 O 0.51133 0.70319 0.41135 0.0
C513 C 0.59134 0.77344 0.40436 0.0
O514 O 0.59641 0.77974 0.43615 0.0
N515 N 0.52931 0.71572 0.4768 0.0
C516 C 0.50954 0.70183 0.54258 0.0
C517 C 0.48966 0.69512 0.51612 0.0
C518 C 0.49998 0.7023 0.48349 0.0
C519 C 0.54887 0.72459 0.50224 0.0
C520 C 0.53963 0.71662 0.53488 0.0
H521 H 0.48439 0.69856 0.46406 0.0
H522 H 0.57201 0.73839 0.49716 0.0
H523 H 0.49709 0.74197 0.40209 0.0
H524 H 0.52106 0.806 0.47654 0.0
H525 H 0.585 0.66975 0.3868 0.0
H526 H 0.46636 0.68534 0.52035 0.0
H527 H 0.55632 0.72245 0.55366 0.0
C528 C 0.23532 0.76905 0.42727 0.0
C529 C 0.22259 0.73945 0.4211 0.0
N530 N 0.24406 0.73279 0.41874 0.0
N531 N 0.26471 0.78107 0.42846 0.0
C532 C 0.26929 0.75829 0.42344 0.0
H533 H 0.22382 0.78106 0.43032 0.0
Co534 Co 0.2914 0.82111 0.43305 0.0
C535 C 0.34973 0.83012 0.41505 0.0
O536 O 0.36094 0.85102 0.4375 0.0
N537 N 0.31789 0.86232 0.4366 0.0
C538 C 0.34596 0.90822 0.41845 0.0
C539 C 0.3306 0.87924 0.40947 0.0
C540 C 0.32627 0.88189 0.46196 0.0
N541 N 0.34324 0.90977 0.45143 0.0
O542 O 0.27695 0.82845 0.39233 0.0
H543 H 0.32856 0.87101 0.38441 0.0
H544 H 0.31951 0.8764 0.48748 0.0
O545 O 0.32194 0.81604 0.41002 0.0
C546 C 0.26055 0.8387 0.40119 0.0
O547 O 0.25603 0.84001 0.43313 0.0
N548 N 0.30227 0.81373 0.47482 0.0
C549 C 0.31006 0.80312 0.54131 0.0
C550 C 0.32085 0.79343 0.51511 0.0
C551 C 0.31681 0.79903 0.48207 0.0
C552 C 0.2896 0.82102 0.4996 0.0
C553 C 0.29423 0.81718 0.53279 0.0
H554 H 0.32474 0.79074 0.46264 0.0
H555 H 0.27632 0.83072 0.49346 0.0
H556 H 0.29063 0.76024 0.42261 0.0
H557 H 0.19935 0.72393 0.41896 0.0
H558 H 0.35815 0.92676 0.40208 0.0
H559 H 0.33198 0.78124 0.51974 0.0
H560 H 0.28562 0.82572 0.55129 0.0
C561 C 0.2578 0.48579 0.4616 0.0
C562 C 0.28728 0.50535 0.45893 0.0
N563 N 0.29111 0.52614 0.43675 0.0
N564 N 0.24299 0.49419 0.44134 0.0
C565 C 0.26391 0.51875 0.42619 0.0
H566 H 0.24769 0.467 0.47798 0.0
Co567 Co 0.20223 0.47557 0.44002 0.0
C568 C 0.18808 0.52212 0.42766 0.0
O569 O 0.16596 0.50793 0.44816 0.0
N570 N 0.16059 0.4559 0.43787 0.0
C571 C 0.1166 0.43907 0.4146 0.0
C572 C 0.14624 0.45359 0.40911 0.0
C573 C 0.13877 0.44204 0.46048 0.0
N574 N 0.1119 0.43192 0.44697 0.0
O575 O 0.20189 0.45929 0.39747 0.0
H576 H 0.15674 0.46273 0.38557 0.0
H577 H 0.14214 0.44012 0.48656 0.0
O578 O 0.20444 0.51124 0.42059 0.0
C579 C 0.20152 0.43519 0.4026 0.0
O580 O 0.20566 0.42906 0.43309 0.0
N581 N 0.20314 0.48888 0.48345 0.0
C582 C 0.20767 0.50247 0.55083 0.0
C583 C 0.21749 0.52473 0.52689 0.0
C584 C 0.21588 0.51755 0.49326 0.0
C585 C 0.19553 0.46736 0.50654 0.0
C586 C 0.19705 0.47352 0.54036 0.0
H587 H 0.22578 0.53517 0.47544 0.0
H588 H 0.18825 0.44515 0.49851 0.0
H589 H 0.25934 0.53158 0.40874 0.0
H590 H 0.3046 0.50449 0.47245 0.0
H591 H 0.09983 0.43433 0.39617 0.0
H592 H 0.22703 0.5475 0.53417 0.0
H593 H 0.18975 0.45575 0.5581 0.0
C594 C 0.91951 0.29532 0.10441 0.0
C595 C 0.92383 0.32235 0.11581 0.0
C596 C 0.93317 0.2815 0.12011 0.0
C597 C 0.95188 0.29524 0.14761 0.0
C598 C 0.95678 0.32283 0.15881 0.0
C599 C 0.94254 0.33596 0.14289 0.0
C600 C 0.92706 0.2519 0.10773 0.0
C601 C 0.97685 0.33836 0.18779 0.0
C602 C 0.96452 0.249 0.21055 0.0
C603 C 0.992 0.25342 0.20094 0.0
C604 C 0.95101 0.26207 0.19306 0.0
C605 C 0.96551 0.28032 0.16548 0.0
C606 C 0.99317 0.28468 0.15544 0.0
C607 C 1.00601 0.271 0.17319 0.0
C608 C 0.92129 0.2565 0.20424 0.0
C609 C 0.00945 0.30424 0.12639 0.0
H610 H 0.9048 0.28459 0.08373 0.0
H611 H 0.94621 0.35703 0.15146 0.0
H612 H 0.9479 0.25266 0.10133 0.0
H613 H 0.91645 0.23531 0.12768 0.0
H614 H 0.91258 0.24452 0.08553 0.0
H615 H 0.97932 0.36027 0.19249 0.0
H616 H 0.96812 0.32491 0.21062 0.0
H617 H 0.99885 0.34115 0.18311 0.0
H618 H 0.95347 0.23508 0.23171 0.0
H619 H 0.02739 0.2747 0.16593 0.0
H620 H 0.90544 0.24747 0.18335 0.0
H621 H 0.92276 0.27744 0.21183 0.0
H622 H 0.91253 0.24095 0.22545 0.0
H623 H 0.99571 0.29646 0.10365 0.0
H624 H 0.03053 0.30495 0.12141 0.0
H625 H 0.01404 0.32688 0.13135 0.0
C626 C 0.66836 0.60787 0.14766 0.0
C627 C 0.68246 0.60168 0.12202 0.0
C628 C 0.68176 0.63554 0.16303 0.0
C629 C 0.71011 0.65742 0.15279 0.0
C630 C 0.72448 0.65127 0.12696 0.0
C631 C 0.71039 0.62354 0.11175 0.0
C632 C 0.66556 0.64136 0.19017 0.0
C633 C 0.75489 0.67385 0.11567 0.0
C634 C 0.73596 0.73735 0.17281 0.0
C635 C 0.75268 0.74174 0.20159 0.0
C636 C 0.72188 0.71 0.15671 0.0
C637 C 0.72493 0.6866 0.16948 0.0
C638 C 0.74207 0.69103 0.19832 0.0
C639 C 0.75557 0.71848 0.21413 0.0
C640 C 0.7035 0.70604 0.12625 0.0
C641 C 0.74625 0.6668 0.21243 0.0
H642 H 0.64661 0.59118 0.15535 0.0
H643 H 0.72147 0.61871 0.09221 0.0
H644 H 0.67822 0.64679 0.21369 0.0
H645 H 0.66329 0.66057 0.1835 0.0
H646 H 0.64337 0.62226 0.19467 0.0
H647 H 0.76301 0.66562 0.09522 0.0
H648 H 0.75501 0.6939 0.10701 0.0
H649 H 0.77041 0.68033 0.13684 0.0
H650 H 0.73343 0.75519 0.16326 0.0
H651 H 0.76882 0.72192 0.23609 0.0
H652 H 0.68062 0.68824 0.13058 0.0
H653 H 0.71203 0.69939 0.10478 0.0
H654 H 0.70324 0.72638 0.11958 0.0
H655 H 0.72472 0.64782 0.21942 0.0
H656 H 0.76068 0.67397 0.23469 0.0
H657 H 0.75598 0.65905 0.19332 0.0
C658 C 0.40419 0.072 0.12347 0.0
C659 C 0.41495 0.1022 0.11897 0.0
C660 C 0.37492 0.05293 0.13282 0.0
C661 C 0.356 0.06429 0.13843 0.0
C662 C 0.36614 0.0943 0.13223 0.0
C663 C 0.39524 0.11271 0.12216 0.0
C664 C 0.36471 0.02086 0.13824 0.0
C665 C 0.34673 0.10738 0.13803 0.0
C666 C 0.27344 0.01648 0.14996 0.0
C667 C 0.27091 0.016 0.18475 0.0
C668 C 0.30106 0.03099 0.13441 0.0
C669 C 0.32673 0.04577 0.15408 0.0
C670 C 0.32437 0.04452 0.18915 0.0
C671 C 0.29661 0.02944 0.20398 0.0
C672 C 0.30272 0.03128 0.09694 0.0
C673 C 0.35115 0.06006 0.21111 0.0
H674 H 0.41868 0.06316 0.1209 0.0
H675 H 0.40263 0.1356 0.1177 0.0
H676 H 0.36266 0.01613 0.16528 0.0
H677 H 0.34278 0.00688 0.12695 0.0
H678 H 0.38023 0.01458 0.12758 0.0
H679 H 0.35727 0.13067 0.13003 0.0
H680 H 0.32572 0.09469 0.12445 0.0
H681 H 0.34143 0.1062 0.16489 0.0
H682 H 0.25385 0.00632 0.13476 0.0
H683 H 0.2951 0.02857 0.23082 0.0
H684 H 0.31925 0.02549 0.08861 0.0
H685 H 0.30979 0.05366 0.08761 0.0
H686 H 0.28126 0.01579 0.08542 0.0
H687 H 0.36685 0.05249 0.20532 0.0
H688 H 0.34562 0.05633 0.23797 0.0
H689 H 0.36248 0.08401 0.20623 0.0
C690 C 0.27073 1.00439 0.80692 0.0
C691 C 0.25347 0.99217 0.77843 0.0
C692 C 0.28333 0.99002 0.82365 0.0
C693 C 0.27846 0.96266 0.81169 0.0
C694 C 0.26108 0.95019 0.78293 0.0
C695 C 0.24888 0.96514 0.76659 0.0
C696 C 0.30192 1.00416 0.85407 0.0
C697 C 0.2552 0.92094 0.76958 0.0
C698 C 0.33195 0.93765 0.83721 0.0
C699 C 0.3169 0.9183 0.86338 0.0
C700 C 0.31968 0.95218 0.82012 0.0
C701 C 0.29159 0.94712 0.8293 0.0
C702 C 0.2762 0.92748 0.85557 0.0
C703 C 0.28908 0.91339 0.87235 0.0
C704 C 0.3369 0.97316 0.79245 0.0
C705 C 0.24611 0.92134 0.86595 0.0
H706 H 0.27474 0.02547 0.81591 0.0
H707 H 0.23528 0.95543 0.74484 0.0
H708 H 0.29246 0.98942 0.87584 0.0
H709 H 0.3243 0.00768 0.85018 0.0
H710 H 0.30369 0.02557 0.86007 0.0
H711 H 0.24119 0.91423 0.74698 0.0
H712 H 0.27619 0.92194 0.76341 0.0
H713 H 0.2442 0.90376 0.78885 0.0
H714 H 0.35363 0.94189 0.83048 0.0
H715 H 0.27721 0.8982 0.89228 0.0
H716 H 0.34088 0.99542 0.79844 0.0
H717 H 0.32412 0.96618 0.76899 0.0
H718 H 0.35836 0.97449 0.78819 0.0
H719 H 0.24715 0.94197 0.87406 0.0
H720 H 0.23689 0.90518 0.88656 0.0
H721 H 0.23086 0.9128 0.84448 0.0
C722 C 0.0717 0.39666 0.84284 0.0
C723 C 0.0824 0.40007 0.87547 0.0
C724 C 0.05969 0.36948 0.82642 0.0
C725 C 0.05846 0.34516 0.84297 0.0
C726 C 0.06938 0.34853 0.87582 0.0
C727 C 0.08116 0.37588 0.89163 0.0
C728 C 0.04816 0.36674 0.79146 0.0
C729 C 0.0687 0.32323 0.89428 0.0
C730 C 1.00524 0.26641 0.81759 0.0
C731 C 0.02378 0.25866 0.80092 0.0
C732 C 0.01595 0.29488 0.83017 0.0
C733 C 0.04594 0.31612 0.82613 0.0
C734 C 0.06446 0.30883 0.80808 0.0
C735 C 0.05314 0.28027 0.79564 0.0
C736 C 0.99543 0.30181 0.84912 0.0
C737 C 0.09654 0.33086 0.80307 0.0
H738 H 0.07223 0.41511 0.83031 0.0
H739 H 0.08979 0.37841 0.9166 0.0
H740 H 0.05967 0.35925 0.77448 0.0
H741 H 0.02452 0.34995 0.79069 0.0
H742 H 0.05094 0.38778 0.78194 0.0
H743 H 0.07803 0.32945 0.91972 0.0
H744 H 0.04581 0.30482 0.89625 0.0
H745 H 0.08132 0.31504 0.88032 0.0
H746 H 0.98262 0.24994 0.82213 0.0
H747 H 0.06749 0.27466 0.78226 0.0
H748 H 0.99706 0.32236 0.83966 0.0
H749 H 1.00182 0.30535 0.87573 0.0
H750 H 0.97224 0.28389 0.84731 0.0
H751 H 0.09919 0.35147 0.7924 0.0
H752 H 0.10747 0.32244 0.78641 0.0
H753 H 0.10796 0.33642 0.82744 0.0
C754 C 0.62117 0.71111 0.88079 0.0
C755 C 0.59914 0.68301 0.87119 0.0
C756 C 0.6486 0.72499 0.86494 0.0
C757 C 0.65432 0.71021 0.83917 0.0
C758 C 0.6323 0.68163 0.82972 0.0
C759 C 0.6049 0.66848 0.84567 0.0
C760 C 0.67129 0.75565 0.87537 0.0
C761 C 0.63766 0.66498 0.80271 0.0
C762 C 0.7134 0.75494 0.77555 0.0
C763 C 0.73724 0.75271 0.7874 0.0
C764 C 0.68643 0.74147 0.79232 0.0
C765 C 0.68303 0.72498 0.82147 0.0
C766 C 0.70702 0.72261 0.83357 0.0
C767 C 0.73392 0.73672 0.81652 0.0
C768 C 0.66159 0.74498 0.77891 0.0
C769 C 0.70417 0.70492 0.86429 0.0
H770 H 0.61667 0.72253 0.90024 0.0
H771 H 0.58806 0.64661 0.8385 0.0
H772 H 0.69167 0.75614 0.88334 0.0
H773 H 0.67702 0.77081 0.85393 0.0
H774 H 0.66351 0.76399 0.89606 0.0
H775 H 0.61866 0.64254 0.79915 0.0
H776 H 0.64218 0.67703 0.77884 0.0
H777 H 0.65726 0.66324 0.80883 0.0
H778 H 0.71602 0.76764 0.75333 0.0
H779 H 0.75222 0.73474 0.82556 0.0
H780 H 0.65413 0.75486 0.79817 0.0
H781 H 0.64263 0.72319 0.77264 0.0
H782 H 0.66798 0.759 0.75635 0.0
H783 H 0.69794 0.71372 0.88589 0.0
H784 H 0.72482 0.70509 0.87034 0.0
H785 H 0.68646 0.68186 0.86072 0.0
C786 C 0.68174 0.6142 0.50782 0.0
C787 C 0.66778 0.59513 0.53453 0.0
C788 C 0.66875 0.62852 0.49176 0.0
C789 C 0.64098 0.62338 0.50248 0.0
C790 C 0.62668 0.60398 0.52928 0.0
C791 C 0.64033 0.59021 0.5451 0.0
C792 C 0.68484 0.64931 0.46352 0.0
C793 C 0.59689 0.59766 0.54117 0.0
C794 C 0.61799 0.67945 0.48217 0.0
C795 C 0.59988 0.66674 0.4544 0.0
C796 C 0.63169 0.66569 0.4979 0.0
C797 C 0.62693 0.63842 0.48575 0.0
C798 C 0.60862 0.62545 0.45775 0.0
C799 C 0.59544 0.63985 0.44231 0.0
C800 C 0.65133 0.68039 0.52745 0.0
C801 C 0.60274 0.59623 0.44431 0.0
H802 H 0.70312 0.61835 0.49987 0.0
H803 H 0.62932 0.5752 0.56545 0.0
H804 H 0.67133 0.64191 0.4406 0.0
H805 H 0.68863 0.6715 0.46953 0.0
H806 H 0.70632 0.65097 0.45829 0.0
H807 H 0.58856 0.58172 0.56204 0.0
H808 H 0.59798 0.61826 0.54947 0.0
H809 H 0.58089 0.58874 0.52041 0.0
H810 H 0.6218 0.70041 0.49129 0.0
H811 H 0.58118 0.6298 0.42111 0.0
H812 H 0.67363 0.68406 0.52246 0.0
H813 H 0.64277 0.66594 0.54957 0.0
H814 H 0.65309 0.70178 0.53351 0.0
H815 H 0.62365 0.5975 0.43705 0.0
H816 H 0.58793 0.58909 0.42237 0.0
H817 H 0.59264 0.5792 0.46391 0.0
C818 C 0.37062 0.93884 0.50015 0.0
C819 C 0.35517 0.93614 0.47083 0.0
C820 C 0.3845 0.96549 0.51771 0.0
C821 C 0.38206 0.98957 0.50604 0.0
C822 C 0.36545 0.98644 0.47708 0.0
C823 C 0.35257 0.95987 0.45956 0.0
C824 C 0.40259 0.96819 0.54802 0.0
C825 C 0.36161 0.01128 0.46432 0.0
C826 C 0.39838 0.05255 0.56464 0.0
C827 C 0.42581 0.07437 0.55311 0.0
C828 C 0.38392 0.02471 0.54974 0.0
C829 C 0.39763 0.0184 0.5233 0.0
C830 C 0.42577 0.04017 0.51227 0.0
C831 C 0.43933 0.06806 0.52702 0.0
C832 C 0.35362 1.00238 0.56159 0.0
C833 C 0.44142 0.0341 0.48468 0.0
H834 H 0.37272 0.92043 0.50854 0.0
H835 H 0.34034 0.9575 0.43698 0.0
H836 H 0.42579 0.98519 0.54362 0.0
H837 H 0.39484 0.97537 0.56976 0.0
H838 H 0.40168 0.94721 0.55429 0.0
H839 H 0.3463 0.00456 0.44286 0.0
H840 H 0.35315 0.01947 0.48441 0.0
H841 H 0.38311 0.02982 0.45644 0.0
H842 H 0.3879 0.05764 0.58464 0.0
H843 H 0.4607 0.08493 0.51846 0.0
H844 H 0.35311 0.9819 0.56919 0.0
H845 H 0.33768 0.99666 0.54095 0.0
H846 H 0.34629 0.01053 0.58289 0.0
H847 H 0.44261 0.01412 0.49046 0.0
H848 H 0.46402 0.05267 0.48067 0.0
H849 H 0.42899 0.0299 0.46113 0.0
C850 C 0.06118 0.42217 0.45229 0.0
C851 C 0.08399 0.41804 0.4638 0.0
C852 C 0.03385 0.40889 0.4682 0.0
C853 C 0.02912 0.39092 0.49633 0.0
C854 C 0.05202 0.38663 0.50814 0.0
C855 C 0.07924 0.40033 0.49178 0.0
C856 C 0.0101 0.41425 0.45502 0.0
C857 C 0.04773 0.3675 0.53798 0.0
C858 C 0.96727 0.37901 0.55432 0.0
C859 C 0.94444 0.35166 0.54373 0.0
C860 C 0.99507 0.39183 0.53947 0.0
C861 C 1.00022 0.37689 0.51345 0.0
C862 C 0.97739 0.3491 0.50291 0.0
C863 C 0.94976 0.33686 0.51813 0.0
C864 C 0.01876 0.42162 0.5512 0.0
C865 C 0.9821 0.33243 0.47536 0.0
H866 H 0.06485 0.43624 0.43106 0.0
H867 H 0.09668 0.39684 0.50058 0.0
H868 H 0.99047 0.3931 0.44823 0.0
H869 H 1.00332 0.42447 0.47459 0.0
H870 H 0.01729 0.42875 0.43282 0.0
H871 H 0.06766 0.36625 0.54391 0.0
H872 H 0.04186 0.37615 0.56002 0.0
H873 H 0.02928 0.34498 0.53341 0.0
H874 H 0.96321 0.39071 0.57381 0.0
H875 H 0.93236 0.31553 0.5102 0.0
H876 H 0.02543 0.43764 0.53052 0.0
H877 H 0.03846 0.42063 0.55888 0.0
H878 H 0.01149 0.4299 0.57243 0.0
H879 H 0.98766 0.34526 0.45196 0.0
H880 H 0.96243 0.31061 0.47091 0.0
H881 H 1.00086 0.32928 0.4815 0.0
C882 C 0.16964 0.40837 0.35389 0.0
C883 C 0.19042 0.4114 0.37766 0.0
C884 C 0.15439 0.38246 0.33511 0.0
C885 C 0.16047 0.35935 0.33992 0.0
C886 C 0.18252 0.36302 0.36267 0.0
C887 C 0.19707 0.38889 0.38138 0.0
C888 C 0.13098 0.37934 0.31109 0.0
C889 C 0.19015 0.33924 0.36801 0.0
C890 C 0.10266 0.28132 0.31589 0.0
C891 C 0.11242 0.27891 0.28432 0.0
C892 C 0.11807 0.30745 0.33435 0.0
C893 C 0.14396 0.33139 0.32102 0.0
C894 C 0.15432 0.32857 0.28963 0.0
C895 C 0.13836 0.30248 0.27165 0.0
C896 C 0.1063 0.30973 0.36772 0.0
C897 C 0.18207 0.35327 0.27478 0.0
H898 H 0.16415 0.42553 0.35123 0.0
H899 H 0.21314 0.39117 0.39976 0.0
H900 H 0.13563 0.37422 0.28584 0.0
H901 H 0.10942 0.36079 0.31883 0.0
H902 H 0.12931 0.39952 0.30972 0.0
H903 H 0.20882 0.34611 0.38546 0.0
H904 H 0.17088 0.31933 0.37814 0.0
H905 H 0.19586 0.33303 0.34398 0.0
H906 H 0.08248 0.26326 0.32557 0.0
H907 H 0.14612 0.30065 0.2473 0.0
H908 H 0.10146 0.32794 0.36732 0.0
H909 H 0.12306 0.31492 0.38728 0.0
H910 H 0.08602 0.28917 0.37466 0.0
H911 H 0.17962 0.37281 0.27109 0.0
H912 H 0.18759 0.34722 0.2505 0.0
H913 H 0.20073 0.35972 0.29207 0.0
C914 C 0.61751 0.77547 0.35148 0.0
C915 C 0.61579 0.78907 0.38063 0.0
C916 C 0.64306 0.78854 0.33188 0.0
C917 C 0.6672 0.81595 0.34153 0.0
C918 C 0.66502 0.83025 0.37021 0.0
C919 C 0.63943 0.81658 0.38946 0.0
C920 C 0.6446 0.77261 0.30145 0.0
C921 C 0.69002 0.85966 0.38107 0.0
C922 C 0.74307 0.83602 0.30956 0.0
C923 C 0.74582 0.85349 0.282 0.0
C924 C 0.71769 0.82387 0.32943 0.0
C925 C 0.69481 0.82967 0.32173 0.0
C926 C 0.69818 0.84844 0.29488 0.0
C927 C 0.72355 0.85998 0.27529 0.0
C928 C 0.71488 0.80394 0.35788 0.0
C929 C 0.67458 0.85561 0.28618 0.0
H930 H 0.59944 0.75407 0.34478 0.0
H931 H 0.63817 0.82723 0.41195 0.0
H932 H 0.64975 0.78679 0.27919 0.0
H933 H 0.66254 0.76755 0.30438 0.0
H934 H 0.62377 0.7518 0.29693 0.0
H935 H 0.68433 0.86845 0.40318 0.0
H936 H 0.70946 0.85764 0.38718 0.0
H937 H 0.69642 0.87578 0.36053 0.0
H938 H 0.76006 0.83068 0.31464 0.0
H939 H 0.72561 0.87356 0.25404 0.0
H940 H 0.69603 0.78163 0.35336 0.0
H941 H 0.71041 0.81203 0.38137 0.0
H942 H 0.73494 0.80231 0.36122 0.0
H943 H 0.65433 0.83532 0.27864 0.0
H944 H 0.68126 0.87178 0.26562 0.0
H945 H 0.66905 0.86454 0.30823 0.0
C946 C 0.16385 0.88777 0.29707 0.0
C947 C 0.18044 0.91055 0.27486 0.0
C948 C 0.17738 0.87621 0.31734 0.0
C949 C 0.20813 0.88785 0.3152 0.0
C950 C 0.22496 0.9115 0.29335 0.0
C951 C 0.21083 0.92238 0.27323 0.0
C952 C 0.15871 0.85101 0.34033 0.0
C953 C 0.25779 0.92486 0.29068 0.0
C954 C 0.24526 0.87514 0.38882 0.0
C955 C 0.24907 0.85203 0.37764 0.0
C956 C 0.2325 0.88729 0.36853 0.0
C957 C 0.2228 0.87576 0.33634 0.0
C958 C 0.22703 0.85272 0.32458 0.0
C959 C 0.24046 0.84129 0.34533 0.0
C960 C 0.22911 0.91228 0.38175 0.0
C961 C 0.21675 0.83975 0.29043 0.0
H962 H 0.14024 0.87826 0.29758 0.0
H963 H 0.22344 0.93969 0.25546 0.0
H964 H 0.16084 0.83171 0.3337 0.0
H965 H 0.16643 0.857 0.36633 0.0
H966 H 0.13518 0.84458 0.33918 0.0
H967 H 0.26776 0.94385 0.27338 0.0
H968 H 0.26809 0.93226 0.3155 0.0
H969 H 0.2631 0.90813 0.28176 0.0
H970 H 0.25228 0.8838 0.41368 0.0
H971 H 0.24329 0.82336 0.33675 0.0
H972 H 0.20554 0.90553 0.38306 0.0
H973 H 0.23974 0.93133 0.36465 0.0
H974 H 0.23886 0.91946 0.40689 0.0
H975 H 0.1927 0.8305 0.2884 0.0
H976 H 0.22187 0.82213 0.28489 0.0
H977 H 0.22718 0.8571 0.27125 0.0
C978 C 0.40881 0.16876 0.64465 0.0
C979 C 0.41272 0.1854 0.61595 0.0
C980 C 0.38201 0.15573 0.662 0.0
C981 C 0.35884 0.15989 0.65065 0.0
C982 C 0.36328 0.17787 0.62264 0.0
C983 C 0.39005 0.19022 0.60555 0.0
C984 C 0.37809 0.13662 0.69173 0.0
C985 C 0.33946 0.18341 0.61013 0.0
C986 C 0.28054 0.10376 0.6758 0.0
C987 C 0.27651 0.11742 0.70353 0.0
C988 C 0.30717 0.11745 0.65807 0.0
C989 C 0.32999 0.14555 0.66811 0.0
C990 C 0.32535 0.1599 0.69514 0.0
C991 C 0.2988 0.14559 0.71262 0.0
C992 C 0.31135 0.10139 0.62945 0.0
C993 C 0.34878 0.19004 0.70628 0.0
H994 H 0.4261 0.16471 0.6526 0.0
H995 H 0.39298 0.20311 0.58337 0.0
H996 H 0.37172 0.14476 0.71381 0.0
H997 H 0.36009 0.11392 0.68687 0.0
H998 H 0.39833 0.13595 0.69771 0.0
H999 H 0.34691 0.1991 0.589 0.0
H1000 H 0.32029 0.16247 0.6019 0.0
H1001 H 0.33187 0.19224 0.63045 0.0
H1002 H 0.26354 0.08182 0.66905 0.0
H1003 H 0.29573 0.15622 0.73407 0.0
H1004 H 0.32952 0.09719 0.63518 0.0
H1005 H 0.31759 0.11509 0.60668 0.0
H1006 H 0.29126 0.0801 0.62415 0.0
H1007 H 0.36823 0.18915 0.71523 0.0
H1008 H 0.3411 0.19885 0.72656 0.0
H1009 H 0.35603 0.20557 0.68506 0.0
C1010 C 0.87862 0.25392 0.6241 0.0
C1011 C 0.8483 0.24286 0.62474 0.0
C1012 C 0.89161 0.24168 0.64401 0.0
C1013 C 0.87372 0.21739 0.66461 0.0
C1014 C 0.84303 0.20644 0.66568 0.0
C1015 C 0.83065 0.21939 0.64569 0.0
C1016 C 0.92441 0.2544 0.64251 0.0
C1017 C 0.82321 0.18055 0.68726 0.0
C1018 C 0.90364 0.1684 0.69387 0.0
C1019 C 0.91134 0.17785 0.72675 0.0
C1020 C 0.89129 0.18103 0.67323 0.0
C1021 C 0.88723 0.20399 0.68567 0.0
C1022 C 0.89606 0.21424 0.71848 0.0
C1023 C 0.90771 0.20088 0.73863 0.0
C1024 C 0.88192 0.16938 0.63843 0.0
C1025 C 0.8929 0.23912 0.73249 0.0
H1026 H 0.8921 0.2718 0.60732 0.0
H1027 H 0.80712 0.21048 0.64546 0.0
H1028 H 0.93399 0.2608 0.66778 0.0
H1029 H 0.92948 0.23761 0.63323 0.0
H1030 H 0.93528 0.27392 0.62604 0.0
H1031 H 0.79987 0.17466 0.68525 0.0
H1032 H 0.82512 0.16125 0.68004 0.0
H1033 H 0.83007 0.18548 0.71365 0.0
H1034 H 0.90627 0.15049 0.68473 0.0
H1035 H 0.91399 0.20852 0.76397 0.0
H1036 H 0.89322 0.18736 0.62011 0.0
H1037 H 0.85802 0.16069 0.63554 0.0
H1038 H 0.88674 0.15165 0.63239 0.0
H1039 H 0.90435 0.25873 0.7163 0.0
H1040 H 0.90193 0.24526 0.75806 0.0
H1041 H 0.86941 0.23281 0.73309 0.0
C1042 C 0.82973 0.74203 0.67696 0.0
C1043 C 0.84708 0.74606 0.70505 0.0
C1044 C 0.81807 0.71594 0.65826 0.0
C1045 C 0.8242 0.6936 0.66774 0.0
C1046 C 0.84271 0.69818 0.69527 0.0
C1047 C 0.8538 0.72424 0.7136 0.0
C1048 C 0.79843 0.71186 0.62902 0.0
C1049 C 0.85022 0.67522 0.70594 0.0
C1050 C 0.77235 0.61484 0.6398 0.0
C1051 C 0.78698 0.61277 0.61177 0.0
C1052 C 0.78424 0.64101 0.65838 0.0
C1053 C 0.81147 0.66546 0.64883 0.0
C1054 C 0.82678 0.66298 0.62132 0.0
C1055 C 0.81431 0.63677 0.6031 0.0
C1056 C 0.76726 0.64281 0.6876 0.0
C1057 C 0.85605 0.68827 0.6106 0.0
H1058 H 0.82417 0.75863 0.6705 0.0
H1059 H 0.86726 0.72725 0.73528 0.0
H1060 H 0.80715 0.70709 0.60624 0.0
H1061 H 0.77628 0.69275 0.63351 0.0
H1062 H 0.79628 0.73149 0.62443 0.0
H1063 H 0.86579 0.68264 0.72717 0.0
H1064 H 0.82996 0.65487 0.71331 0.0
H1065 H 0.86004 0.66953 0.68489 0.0
H1066 H 0.75105 0.59652 0.64633 0.0
H1067 H 0.82575 0.63528 0.58146 0.0
H1068 H 0.76165 0.66021 0.68312 0.0
H1069 H 0.78093 0.64893 0.71039 0.0
H1070 H 0.74668 0.62177 0.69215 0.0
H1071 H 0.85352 0.7072 0.60331 0.0
H1072 H 0.86557 0.68246 0.58931 0.0
H1073 H 0.8718 0.69555 0.63161 0.0
C1074 C 0.95234 0.46853 0.04843 0.0
C1075 C 0.93041 0.43971 0.04107 0.0
C1076 C 0.9785 0.48262 0.03017 0.0
C1077 C 0.98309 0.46744 0.004 0.0
C1078 C 0.96057 0.43869 0.9956 0.0
C1079 C 0.93437 0.42519 0.01414 0.0
C1080 C 1.00162 0.51342 0.03961 0.0
C1081 C 0.96465 0.42177 0.96787 0.0
C1082 C 0.04132 0.51075 0.93901 0.0
C1083 C 0.06475 0.50715 0.94945 0.0
C1084 C 0.01488 0.49837 0.95677 0.0
C1085 C 0.01156 0.48167 0.98565 0.0
C1086 C 0.03546 0.47872 0.99699 0.0
C1087 C 0.06189 0.49168 0.97886 0.0
C1088 C 0.99022 0.50254 0.94412 0.0
C1089 C 0.03278 0.46107 0.02769 0.0
H1090 H 0.94938 0.47986 0.06926 0.0
H1091 H 0.91769 0.40278 0.00867 0.0
H1092 H 0.02157 0.51348 0.04854 0.0
H1093 H 0.00804 0.52801 0.01758 0.0
H1094 H 0.99402 0.52274 0.05943 0.0
H1095 H 0.94477 0.40003 0.96375 0.0
H1096 H 0.97011 0.43447 0.94438 0.0
H1097 H 0.9833 0.41837 0.9738 0.0
H1098 H 0.0434 0.52277 0.91632 0.0
H1099 H 0.07978 0.48857 0.98689 0.0
H1100 H 0.98284 0.51201 0.96394 0.0
H1101 H 0.97117 0.481 0.93727 0.0
H1102 H 0.99674 0.51716 0.92205 0.0
H1103 H 0.02663 0.46985 0.04937 0.0
H1104 H 0.05348 0.46125 0.03356 0.0
H1105 H 0.01508 0.43801 0.02413 0.0
C1106 C 0.48858 0.53544 0.94343 0.0
C1107 C 0.49425 0.5639 0.95045 0.0
C1108 C 0.50092 0.52212 0.9626 0.0
C1109 C 0.51974 0.53776 0.98934 0.0
C1110 C 0.5249 0.56624 0.99722 0.0
C1111 C 0.51192 0.57894 0.97776 0.0
C1112 C 0.49435 0.49156 0.95371 0.0
C1113 C 0.54491 0.58364 0.0255 0.0
C1114 C 0.53305 0.49507 0.05649 0.0
C1115 C 0.56048 0.49888 0.04748 0.0
C1116 C 0.51948 0.50731 0.03763 0.0
C1117 C 0.53377 0.52412 0.00911 0.0
C1118 C 0.56117 0.52748 -0.00065 0.0
C1119 C 0.57416 0.51464 0.01857 0.0
C1120 C 0.49005 0.50271 0.04861 0.0
C1121 C 0.57712 0.54531 0.96912 0.0
H1122 H 0.4749 0.52372 0.92231 0.0
H1123 H 0.51671 0.6011 0.98295 0.0
H1124 H 0.51486 0.49204 0.94635 0.0
H1125 H 0.48543 0.47691 0.97563 0.0
H1126 H 0.47836 0.48194 0.93298 0.0
H1127 H 0.54626 0.60522 0.02881 0.0
H1128 H 0.53708 0.5711 0.04904 0.0
H1129 H 0.56728 0.58739 0.02083 0.0
H1130 H 0.52235 0.48285 0.07882 0.0
H1131 H 0.59553 0.518 0.01179 0.0
H1132 H 0.47386 0.49274 0.02816 0.0
H1133 H 0.49191 0.52414 0.05456 0.0
H1134 H 0.48146 0.48833 0.07082 0.0
H1135 H 0.56308 0.53627 0.94675 0.0
H1136 H 0.59809 0.54564 0.96468 0.0
H1137 H 0.58186 0.56821 0.97223 0.0
C1138 C 0.50861 0.07077 0.01685 0.0
C1139 C 0.49535 0.07186 0.04653 0.0
C1140 C 0.49556 0.04528 0.99695 0.0
C1141 C 0.4684 0.02075 0.00669 0.0
C1142 C 0.45443 0.02247 0.03592 0.0
C1143 C 0.46828 0.04777 0.05566 0.0
C1144 C 0.51131 0.04417 0.96615 0.0
C1145 C 0.42509 0.99736 0.04677 0.0
C1146 C 0.42263 0.96467 0.94068 0.0
C1147 C 0.4277 0.94151 0.94769 0.0
C1148 C 0.43537 0.99032 0.95993 0.0
C1149 C 0.45436 0.99329 0.98639 0.0
C1150 C 0.45928 0.96973 0.99387 0.0
C1151 C 0.44557 0.94389 0.9746 0.0
C1152 C 0.42867 0.01434 0.95173 0.0
C1153 C 0.47964 0.97217 0.02165 0.0
H1154 H 0.52977 0.0892 0.01012 0.0
H1155 H 0.45804 0.04854 0.07872 0.0
H1156 H 0.51635 0.02617 0.96847 0.0
H1157 H 0.49701 0.03932 0.94405 0.0
H1158 H 0.53208 0.06508 0.96182 0.0
H1159 H 0.4163 1.00298 0.06893 0.0
H1160 H 0.40893 0.99094 0.02626 0.0
H1161 H 0.42721 0.97796 0.0528 0.0
H1162 H 0.40874 0.96276 0.91979 0.0
H1163 H 0.44983 0.92614 0.97964 0.0
H1164 H 0.4491 0.03456 0.94447 0.0
H1165 H 0.41984 0.01973 0.97398 0.0
H1166 H 0.41255 0.0081 0.93116 0.0
H1167 H 0.50179 0.99131 0.01723 0.0
H1168 H 0.48154 0.95218 0.02397 0.0
H1169 H 0.47169 0.97597 0.04562 0.0
C1170 C 0.99621 0.12389 0.08877 0.0
C1171 C 0.02285 0.14971 0.0954 0.0
C1172 C 0.98694 0.11476 0.056 0.0
C1173 C 1.0039 0.13262 0.02926 0.0
C1174 C 0.03139 0.15781 0.03562 0.0
C1175 C 0.04089 0.16549 0.06849 0.0
C1176 C 0.95832 0.08674 0.05014 0.0
C1177 C 0.04999 0.17782 0.00786 0.0
C1178 C 0.99206 0.11345 0.93753 0.0
C1179 C 0.97524 0.12616 0.92796 0.0
C1180 C 0.99967 0.11324 0.97098 0.0
C1181 C 0.99154 0.12738 0.99513 0.0
C1182 C 0.97367 0.1392 0.98593 0.0
C1183 C 0.96501 0.1376 0.95276 0.0
C1184 C 0.01733 0.09888 0.9801 0.0
C1185 C 0.96497 0.15505 0.01073 0.0
H1186 H 0.9819 0.11126 0.10901 0.0
H1187 H 0.06218 0.18457 0.07296 0.0
H1188 H 0.94081 0.09196 0.04473 0.0
H1189 H 0.96001 0.07465 0.02844 0.0
H1190 H 0.95157 0.07215 0.07225 0.0
H1191 H 0.07086 0.19658 0.01705 0.0
H1192 H 0.05524 0.16542 0.98955 0.0
H1193 H 0.03759 0.18663 0.99453 0.0
H1194 H 1.00019 0.10445 0.91892 0.0
H1195 H 0.9508 0.14617 0.94623 0.0
H1196 H 0.01059 0.08791 0.00467 0.0
H1197 H 0.04088 0.11578 0.98163 0.0
H1198 H 0.01493 0.08245 0.96119 0.0
H1199 H 0.95235 0.14016 0.03142 0.0
H1200 H 0.95146 0.16351 -0.00067 0.0
H1201 H 0.98491 0.17381 0.02162 0.0
C1202 C 0.87841 0.84498 0.92645 0.0
C1203 C 0.86419 0.85439 0.9044 0.0
C1204 C 0.87802 0.8492 0.96077 0.0
C1205 C 0.86295 0.86308 0.97328 0.0
C1206 C 0.85012 0.87426 0.95098 0.0
C1207 C 0.85095 0.86983 0.91669 0.0
C1208 C 0.89221 0.83722 0.98372 0.0
C1209 C 0.8339 0.88923 0.96343 0.0
C1210 C 0.8273 0.83809 0.05766 0.0
C1211 C 0.84647 0.86133 0.0782 0.0
C1212 C 0.83251 0.83848 0.02351 0.0
C1213 C 0.85761 0.86269 0.00953 0.0
C1214 C 0.87737 0.88605 0.03017 0.0
C1215 C 0.87156 0.88509 0.06436 0.0
C1216 C 0.81101 0.81301 0.00236 0.0
C1217 C 0.90437 0.91216 0.01606 0.0
H1218 H 0.88916 0.83353 0.91688 0.0
H1219 H 0.83992 0.87708 0.89966 0.0
H1220 H 0.90609 0.85392 0.00242 0.0
H1221 H 0.87497 0.81804 -0.00257 0.0
H1222 H 0.90592 0.83017 0.96999 0.0
H1223 H 0.82825 0.8997 0.94297 0.0
H1224 H 0.81331 0.87286 0.97579 0.0
H1225 H 0.84722 0.90618 0.98217 0.0
H1226 H 0.80811 0.81949 0.06836 0.0
H1227 H 0.88628 0.90324 0.08013 0.0
H1228 H 0.82238 0.80277 0.98978 0.0
H1229 H 0.8019 0.82093 0.98268 0.0
H1230 H 0.79254 0.79592 0.01713 0.0
H1231 H 0.91803 0.90481 0.00283 0.0
H1232 H 0.91792 0.92815 0.0356 0.0
H1233 H 0.89788 0.9235 -0.00242 0.0
C1234 C 0.17614 0.03797 0.92504 0.0
C1235 C 0.1577 0.02264 0.89817 0.0
C1236 C 0.16908 0.02731 0.95755 0.0
C1237 C 0.14182 1.00187 0.96397 0.0
C1238 C 0.12176 0.98785 0.93766 0.0
C1239 C 0.13028 0.99781 0.90497 0.0
C1240 C 0.19153 0.04254 0.98474 0.0
C1241 C 0.09167 0.96175 0.94366 0.0
C1242 C 0.14057 0.95777 0.03874 0.0
C1243 C 0.13415 0.9716 0.06464 0.0
C1244 C 0.14247 0.96693 0.0057 0.0
C1245 C 0.13564 0.98899 -0.00217 0.0
C1246 C 0.12608 1.00085 0.02311 0.0
C1247 C 0.12641 0.99281 0.05628 0.0
C1248 C 0.1534 0.95412 0.97955 0.0
C1249 C 0.11658 0.02292 0.01542 0.0
H1250 H 0.19663 0.05806 0.92081 0.0
H1251 H 0.11561 0.98549 0.88484 0.0
H1252 H 0.18284 0.0514 0.00375 0.0
H1253 H 0.19628 0.02663 0.99735 0.0
H1254 H 0.21247 0.06091 0.97511 0.0
H1255 H 0.07613 0.95954 0.92367 0.0
H1256 H 0.09303 0.94142 0.94384 0.0
H1257 H 0.08263 0.96346 0.96793 0.0
H1258 H 0.14501 0.94025 0.04409 0.0
H1259 H 0.12148 1.00405 0.07549 0.0
H1260 H 0.17315 0.97193 0.96718 0.0
H1261 H 0.13645 0.94288 0.96015 0.0
H1262 H 0.15911 0.93812 0.99009 0.0
H1263 H 0.13614 0.04503 0.01266 0.0
H1264 H 0.10278 0.02399 0.03563 0.0
H1265 H 0.10404 0.01742 0.99177 0.0
C1266 C 0.63509 0.47666 0.27199 0.0
C1267 C 0.65028 0.47255 0.24572 0.0
C1268 C 0.64453 0.47901 0.30496 0.0
C1269 C 0.6683 0.47468 0.31252 0.0
C1270 C 0.6819 0.46753 0.28673 0.0
C1271 C 0.67343 0.46754 0.25362 0.0
C1272 C 0.62961 0.4873 0.33143 0.0
C1273 C 0.706 0.46065 0.29348 0.0
C1274 C 0.71429 0.51491 0.38752 0.0
C1275 C 0.69819 0.49599 0.41375 0.0
C1276 C 0.70503 0.50805 0.35446 0.0
C1277 C 0.6804 0.48048 0.34684 0.0
C1278 C 0.6659 0.45992 0.37261 0.0
C1279 C 0.67429 0.46825 0.40577 0.0
C1280 C 0.72107 0.53097 0.32797 0.0
C1281 C 0.64091 0.42935 0.36573 0.0
H1282 H 0.61607 0.47877 0.26702 0.0
H1283 H 0.68564 0.46429 0.2341 0.0
H1284 H 0.6162 0.46811 0.34755 0.0
H1285 H 0.64608 0.50518 0.34738 0.0
H1286 H 0.61495 0.49464 0.32062 0.0
H1287 H 0.70386 0.44298 0.27662 0.0
H1288 H 0.72754 0.48033 0.28823 0.0
H1289 H 0.70588 0.45367 0.31954 0.0
H1290 H 0.73388 0.53562 0.3926 0.0
H1291 H 0.66141 0.45307 0.42525 0.0
H1292 H 0.70532 0.53339 0.31181 0.0
H1293 H 0.73373 0.52413 0.31205 0.0
H1294 H 0.73659 0.55277 0.33874 0.0
H1295 H 0.61978 0.42867 0.36993 0.0
H1296 H 0.64166 0.41339 0.38318 0.0
H1297 H 0.64129 0.42214 0.33991 0.0
C1298 C 0.51169 0.1986 0.39862 0.0
C1299 C 0.5283 0.19641 0.42463 0.0
C1300 C 0.51841 0.19693 0.36534 0.0
C1301 C 0.54332 0.19458 0.35762 0.0
C1302 C 0.56164 0.19481 0.38348 0.0
C1303 C 0.55359 0.19509 0.41672 0.0
C1304 C 0.49793 0.1962 0.33854 0.0
C1305 C 0.58916 0.19372 0.37614 0.0
C1306 C 0.53671 0.15435 0.27745 0.0
C1307 C 0.54844 0.17734 0.2542 0.0
C1308 C 0.53577 0.15976 0.31136 0.0
C1309 C 0.54824 0.18901 0.32269 0.0
C1310 C 0.56246 0.21247 0.29991 0.0
C1311 C 0.56187 0.20638 0.26584 0.0
C1312 C 0.51985 0.13403 0.33471 0.0
C1313 C 0.57721 0.244 0.3113 0.0
H1314 H 0.4929 0.20102 0.40415 0.0
H1315 H 0.56672 0.19341 0.43637 0.0
H1316 H 0.51005 0.21423 0.32053 0.0
H1317 H 0.48872 0.17525 0.32457 0.0
H1318 H 0.47946 0.19824 0.34878 0.0
H1319 H 0.60381 0.19993 0.39817 0.0
H1320 H 0.58328 0.17117 0.36864 0.0
H1321 H 0.60143 0.2086 0.35525 0.0
H1322 H 0.52744 0.13188 0.26914 0.0
H1323 H 0.57106 0.22444 0.24836 0.0
H1324 H 0.5008 0.13444 0.34587 0.0
H1325 H 0.53447 0.13555 0.35537 0.0
H1326 H 0.51179 0.11263 0.32198 0.0
H1327 H 0.56038 0.25015 0.31677 0.0
H1328 H 0.59223 0.25923 0.29205 0.0
H1329 H 0.58986 0.24702 0.33448 0.0
C1330 C 0.84612 0.36713 0.26861 0.0
C1331 C 0.82648 0.34864 0.2441 0.0
C1332 C 0.84138 0.35993 0.30241 0.0
C1333 C 0.81506 0.33488 0.31261 0.0
C1334 C 0.79375 0.31762 0.28848 0.0
C1335 C 0.80011 0.3241 0.25457 0.0
C1336 C 0.86516 0.37887 0.32695 0.0
C1337 C 0.76438 0.29181 0.29785 0.0
C1338 C 0.81634 0.29684 0.39204 0.0
C1339 C 0.81247 0.3136 0.41666 0.0
C1340 C 0.81704 0.30342 0.35819 0.0
C1341 C 0.81125 0.32576 0.34814 0.0
C1342 C 0.80449 0.34091 0.37244 0.0
C1343 C 0.8062 0.3354 0.4063 0.0
C1344 C 0.8249 0.2869 0.33341 0.0
C1345 C 0.79612 0.36355 0.36327 0.0
H1346 H 0.86573 0.38718 0.26164 0.0
H1347 H 0.78445 0.30937 0.23647 0.0
H1348 H 0.85856 0.39283 0.34075 0.0
H1349 H 0.86871 0.36519 0.34529 0.0
H1350 H 0.88637 0.39352 0.31443 0.0
H1351 H 0.74688 0.29106 0.28175 0.0
H1352 H 0.76469 0.27118 0.29349 0.0
H1353 H 0.75849 0.29249 0.32419 0.0
H1354 H 0.81941 0.27872 0.39892 0.0
H1355 H 0.80314 0.34882 0.4244 0.0
H1356 H 0.84098 0.30209 0.31493 0.0
H1357 H 0.80494 0.27093 0.3198 0.0
H1358 H 0.83434 0.27458 0.34566 0.0
H1359 H 0.81525 0.38581 0.36702 0.0
H1360 H 0.77842 0.36162 0.37991 0.0
H1361 H 0.78852 0.36147 0.33716 0.0
C1362 C 0.3721 0.84246 0.72186 0.0
C1363 C 0.35625 0.82284 0.74767 0.0
C1364 C 0.36392 0.8355 0.68853 0.0
C1365 C 0.34093 0.80711 0.68013 0.0
C1366 C 0.32676 0.78608 0.70559 0.0
C1367 C 0.33386 0.79446 0.739 0.0
C1368 C 0.37948 0.85911 0.66258 0.0
C1369 C 0.30353 0.75481 0.69826 0.0
C1370 C 0.29735 0.79987 0.60228 0.0
C1371 C 0.31568 0.79946 0.57711 0.0
C1372 C 0.30502 0.80184 0.63592 0.0
C1373 C 0.33036 0.80074 0.64514 0.0
C1374 C 0.34706 0.79674 0.62029 0.0
C1375 C 0.34017 0.7972 0.58665 0.0
C1376 C 0.28643 0.80628 0.66128 0.0
C1377 C 0.37289 0.79293 0.62863 0.0
H1378 H 0.39069 0.86379 0.72741 0.0
H1379 H 0.32118 0.7787 0.75809 0.0
H1380 H 0.39549 0.85512 0.64912 0.0
H1381 H 0.36377 0.85904 0.64414 0.0
H1382 H 0.39168 0.88133 0.67386 0.0
H1383 H 0.30707 0.73953 0.714 0.0
H1384 H 0.28169 0.75162 0.70493 0.0
H1385 H 0.30324 0.74865 0.67183 0.0
H1386 H 0.27726 0.79957 0.59596 0.0
H1387 H 0.35473 0.79665 0.56809 0.0
H1388 H 0.30032 0.8234 0.67963 0.0
H1389 H 0.27282 0.78552 0.67495 0.0
H1390 H 0.27146 0.81278 0.64951 0.0
H1391 H 0.39353 0.81369 0.62353 0.0
H1392 H 0.3729 0.77588 0.61239 0.0
H1393 H 0.37289 0.78658 0.65493 0.0
C1394 C 0.19638 0.52634 0.59751 0.0
C1395 C 0.20812 0.50913 0.58658 0.0
C1396 C 0.19337 0.52995 0.63153 0.0
C1397 C 0.20258 0.51619 0.65501 0.0
C1398 C 0.21597 0.50015 0.64409 0.0
C1399 C 0.21844 0.49668 0.60992 0.0
C1400 C 0.17882 0.54706 0.64226 0.0
C1401 C 0.22641 0.48552 0.66843 0.0
C1402 C 0.2071 0.53872 0.74543 0.0
C1403 C 0.18001 0.51661 0.75757 0.0
C1404 C 0.21511 0.53864 0.71217 0.0
C1405 C 0.19545 0.51605 0.69067 0.0
C1406 C 0.16835 0.49339 0.70298 0.0
C1407 C 0.16106 0.49387 0.73631 0.0
C1408 C 0.24428 0.56299 0.69987 0.0
C1409 C 0.1468 0.46888 0.68079 0.0
H1410 H 0.18826 0.53584 0.57944 0.0
H1411 H 0.22794 0.48373 0.60142 0.0
H1412 H 0.15722 0.53191 0.65361 0.0
H1413 H 0.19223 0.56349 0.66143 0.0
H1414 H 0.17535 0.55856 0.62112 0.0
H1415 H 0.23923 0.4767 0.65608 0.0
H1416 H 0.24019 0.50124 0.68801 0.0
H1417 H 0.20726 0.46715 0.68094 0.0
H1418 H 0.22173 0.55649 0.76168 0.0
H1419 H 0.14035 0.47642 0.74575 0.0
H1420 H 0.24072 0.57607 0.68077 0.0
H1421 H 0.25678 0.55368 0.68788 0.0
H1422 H 0.2578 0.57791 0.72022 0.0
H1423 H 0.14015 0.47808 0.65994 0.0
H1424 H 0.12678 0.4528 0.69438 0.0
H1425 H 0.15726 0.45707 0.66979 0.0
C1426 C 0.47458 0.63247 0.72182 0.0
C1427 C 0.47148 0.64929 0.74696 0.0
C1428 C 0.47774 0.64097 0.68841 0.0
C1429 C 0.47522 0.66553 0.67924 0.0
C1430 C 0.46883 0.68072 0.70384 0.0
C1431 C 0.46806 0.6731 0.73742 0.0
C1432 C 0.48487 0.62414 0.66325 0.0
C1433 C 0.46363 0.70566 0.6953 0.0
C1434 C 0.51804 0.70982 0.6044 0.0
C1435 C 0.49931 0.69413 0.57785 0.0
C1436 C 0.51042 0.70075 0.63739 0.0
C1437 C 0.48226 0.67683 0.64462 0.0
C1438 C 0.46212 0.66254 0.61841 0.0
C1439 C 0.4712 0.67065 0.58539 0.0
C1440 C 0.53307 0.71637 0.66428 0.0
C1441 C 0.43111 0.63815 0.62459 0.0
H1442 H 0.47535 0.61289 0.72804 0.0
H1443 H 0.46553 0.68651 0.75602 0.0
H1444 H 0.4653 0.6105 0.64773 0.0
H1445 H 0.50287 0.63933 0.64654 0.0
H1446 H 0.49149 0.60936 0.6753 0.0
H1447 H 0.44614 0.70493 0.71138 0.0
H1448 H 0.48386 0.72684 0.70028 0.0
H1449 H 0.4572 0.70518 0.66893 0.0
H1450 H 0.53911 0.72906 0.59971 0.0
H1451 H 0.45619 0.65797 0.56568 0.0
H1452 H 0.53374 0.70043 0.6818 0.0
H1453 H 0.52733 0.73073 0.67865 0.0
H1454 H 0.5554 0.73029 0.65387 0.0
H1455 H 0.42944 0.61677 0.61886 0.0
H1456 H 0.41573 0.64044 0.60763 0.0
H1457 H 0.42385 0.63774 0.65057 0.0
C1458 C 0.15151 0.04929 0.20424 0.0
C1459 C 0.14647 0.02659 0.22629 0.0
C1460 C 0.14163 0.06888 0.21114 0.0
C1461 C 0.12661 0.06618 0.24122 0.0
C1462 C 0.12105 0.04313 0.26359 0.0
C1463 C 0.13085 0.02336 0.25571 0.0
C1464 C 0.14762 0.09274 0.18622 0.0
C1465 C 0.10533 0.03977 0.29603 0.0
C1466 C 0.13406 0.13951 0.2621 0.0
C1467 C 0.10833 0.1366 0.24825 0.0
C1468 C 0.13906 0.11574 0.26294 0.0
C1469 C 0.11802 0.0885 0.24908 0.0
C1470 C 0.09107 0.08486 0.23721 0.0
C1471 C 0.0865 0.10895 0.23707 0.0
C1472 C 0.16784 0.12045 0.27645 0.0
C1473 C 0.06806 0.0563 0.22204 0.0
H1474 H 0.1631 0.05171 0.18113 0.0
H1475 H 0.12679 0.00578 0.27275 0.0
H1476 H 0.12684 0.09186 0.17915 0.0
H1477 H 0.1621 0.11457 0.19749 0.0
H1478 H 0.15829 0.09089 0.16327 0.0
H1479 H 0.10109 0.0197 0.30972 0.0
H1480 H 0.11872 0.05913 0.31202 0.0
H1481 H 0.08414 0.0389 0.29154 0.0
H1482 H 0.15067 0.16067 0.27149 0.0
H1483 H 0.06654 0.10655 0.22636 0.0
H1484 H 0.18216 0.12182 0.25549 0.0
H1485 H 0.16429 0.10173 0.29232 0.0
H1486 H 0.17955 0.14099 0.29119 0.0
H1487 H 0.07515 0.05418 0.19672 0.0
H1488 H 0.0465 0.05519 0.22001 0.0
H1489 H 0.0653 0.03733 0.23686 0.0
C1490 C 0.99436 0.1069 0.27442 0.0
C1491 C 0.98284 0.12566 0.27092 0.0
C1492 C 0.97589 0.07624 0.27371 0.0
C1493 C 0.94519 0.06427 0.27062 0.0
C1494 C 0.93336 0.08316 0.272 0.0
C1495 C 0.95233 0.11361 0.27191 0.0
C1496 C 0.9895 0.05697 0.27264 0.0
C1497 C 0.90075 0.07142 0.2698 0.0
C1498 C 0.89992 0.99919 0.21454 0.0
C1499 C 0.88336 0.97687 0.2374 0.0
C1500 C 0.92125 0.02722 0.22517 0.0
C1501 C 0.92599 0.0333 0.25966 0.0
C1502 C 0.91029 0.01048 0.28291 0.0
C1503 C 0.88921 0.98242 0.27146 0.0
C1504 C 0.93784 0.05068 0.1994 0.0
C1505 C 0.91464 0.01603 0.31982 0.0
H1506 H 0.01778 0.1159 0.2748 0.0
H1507 H 0.9432 0.12798 0.27002 0.0
H1508 H 0.97642 0.03663 0.28726 0.0
H1509 H 0.98998 0.05045 0.24652 0.0
H1510 H 0.01236 0.06857 0.28221 0.0
H1511 H 0.89488 0.08825 0.27675 0.0
H1512 H 0.89328 0.06427 0.24392 0.0
H1513 H 0.88865 0.05208 0.2862 0.0
H1514 H 0.89587 0.99476 0.18819 0.0
H1515 H 0.87641 0.96519 0.28918 0.0
H1516 H 0.96178 0.06144 0.20401 0.0
H1517 H 0.93156 0.06784 0.20115 0.0
H1518 H 0.93333 0.04178 0.17369 0.0
H1519 H 0.9383 0.0291 0.32601 0.0
H1520 H 0.90469 0.99527 0.33426 0.0
H1521 H 0.9043 0.0289 0.32782 0.0
C1522 C 0.90842 0.88884 0.24919 0.0
C1523 C 0.88796 0.85915 0.25466 0.0
C1524 C 0.93866 0.89873 0.2484 0.0
C1525 C 0.94856 0.87854 0.25393 0.0
C1526 C 0.92811 0.84927 0.26292 0.0
C1527 C 0.89805 0.83986 0.26281 0.0
C1528 C 0.9596 0.93008 0.23853 0.0
C1529 C 0.93772 0.82718 0.2699 0.0
C1530 C 0.01322 0.8853 0.20508 0.0
C1531 C 0.03568 0.89656 0.22884 0.0
C1532 C 0.98517 0.88042 0.21271 0.0
C1533 C 0.97916 0.88642 0.24519 0.0
C1534 C 1.0019 0.8983 0.2692 0.0
C1535 C 0.03002 0.9035 0.26062 0.0
C1536 C 0.9618 0.86833 0.18607 0.0
C1537 C 0.99629 0.90463 0.30417 0.0
H1538 H 0.90081 0.90388 0.24276 0.0
H1539 H 0.88231 0.81694 0.26739 0.0
H1540 H 0.97981 0.93958 0.25386 0.0
H1541 H 0.9662 0.93065 0.21222 0.0
H1542 H 0.94948 0.9441 0.24096 0.0
H1543 H 0.92001 0.80694 0.28164 0.0
H1544 H 0.94402 0.821 0.24624 0.0
H1545 H 0.95719 0.83674 0.28642 0.0
H1546 H 0.01772 0.88048 0.18031 0.0
H1547 H 0.04739 0.91216 0.27901 0.0
H1548 H 0.95187 0.88247 0.18339 0.0
H1549 H 0.94403 0.84615 0.1933 0.0
H1550 H 0.97056 0.86671 0.16154 0.0
H1551 H 0.98587 0.91843 0.3038 0.0
H1552 H 0.01674 0.91591 0.31912 0.0
H1553 H 0.98081 0.88375 0.31672 0.0
C1554 C 1.00404 0.0811 0.74536 0.0
C1555 C 1.0014 0.10631 0.74355 0.0
C1556 C 0.03139 0.08289 0.74262 0.0
C1557 C 0.05679 0.1105 0.73738 0.0
C1558 C 0.05399 0.13565 0.73264 0.0
C1559 C 0.02629 0.13327 0.73583 0.0
C1560 C 0.03329 0.05545 0.74754 0.0
C1561 C 0.08046 0.16533 0.7261 0.0
C1562 C 0.12544 0.11845 0.77763 0.0
C1563 C 0.13877 0.11229 0.75114 0.0
C1564 C 0.09925 0.11882 0.77314 0.0
C1565 C 0.08623 0.11336 0.7412 0.0
C1566 C 0.10019 0.10828 0.71401 0.0
C1567 C 0.12614 0.10744 0.71941 0.0
C1568 C 0.08482 0.12371 0.80299 0.0
C1569 C 0.08736 0.10293 0.67946 0.0
H1570 H 0.98494 0.06002 0.75076 0.0
H1571 H 0.02437 0.15272 0.73347 0.0
H1572 H 0.04454 0.05224 0.72608 0.0
H1573 H 0.04646 0.05776 0.77006 0.0
H1574 H 0.01138 0.03552 0.75033 0.0
H1575 H 0.07423 0.18167 0.71812 0.0
H1576 H 0.09378 0.1735 0.7491 0.0
H1577 H 0.09453 0.16372 0.70668 0.0
H1578 H 0.13482 0.12171 0.8023 0.0
H1579 H 0.13652 0.10286 0.69886 0.0
H1580 H 0.0633 0.10376 0.80764 0.0
H1581 H 0.08063 0.14202 0.79818 0.0
H1582 H 0.09837 0.12879 0.82583 0.0
H1583 H 0.0679 0.08061 0.67808 0.0
H1584 H 0.10334 0.10467 0.66032 0.0
H1585 H 0.07999 0.11878 0.67344 0.0
C1586 C 0.86545 0.00696 0.78175 0.0
C1587 C 0.87374 0.03011 0.75909 0.0
C1588 C 0.86074 0.9795 0.77156 0.0
C1589 C 0.86434 0.9747 0.7377 0.0
C1590 C 0.87215 0.99763 0.71442 0.0
C1591 C 0.8768 0.02507 0.72539 0.0
C1592 C 0.85242 0.95572 0.79734 0.0
C1593 C 0.87606 0.99331 0.67811 0.0
C1594 C 0.87549 0.90921 0.73016 0.0
C1595 C 0.84636 0.88636 0.72753 0.0
C1596 C 0.88226 0.93868 0.73028 0.0
C1597 C 0.85936 0.94531 0.72736 0.0
C1598 C 0.83047 0.92241 0.72083 0.0
C1599 C 0.82431 0.89323 0.72119 0.0
C1600 C 0.91343 0.96239 0.73705 0.0
C1601 C 0.80543 0.92837 0.71702 0.0
H1602 H 0.86364 0.01046 0.80791 0.0
H1603 H 0.88312 0.04267 0.70763 0.0
H1604 H 0.83114 0.9362 0.79072 0.0
H1605 H 0.86909 0.94874 0.79799 0.0
H1606 H 0.85053 0.96299 0.82268 0.0
H1607 H 0.8808 0.0128 0.6629 0.0
H1608 H 0.89439 0.98884 0.67511 0.0
H1609 H 0.85604 0.97398 0.66826 0.0
H1610 H 0.89265 0.9041 0.73515 0.0
H1611 H 0.80177 0.87563 0.71878 0.0
H1612 H 0.91545 0.96926 0.76345 0.0
H1613 H 0.91954 0.98199 0.72146 0.0
H1614 H 0.92923 0.95466 0.73239 0.0
H1615 H 0.79939 0.93295 0.74182 0.0
H1616 H 0.78574 0.90936 0.70602 0.0
H1617 H 0.8119 0.94792 0.7012 0.0
C1618 C 0.10531 1.00172 0.72505 0.0
C1619 C 0.12307 0.98889 0.72416 0.0
C1620 C 0.0745 0.98426 0.72497 0.0
C1621 C 0.06123 0.95328 0.72376 0.0
C1622 C 0.07914 0.94053 0.71943 0.0
C1623 C 0.10977 0.95845 0.71982 0.0
C1624 C 0.05644 0.99895 0.72924 0.0
C1625 C 0.06609 0.90769 0.71752 0.0
C1626 C 0.99364 0.90396 0.77465 0.0
C1627 C 0.97205 0.89009 0.75016 0.0
C1628 C 0.02223 0.9258 0.76647 0.0
C1629 C 0.02967 0.93398 0.73278 0.0
C1630 C 0.00754 0.92129 0.70807 0.0
C1631 C 0.97889 0.89952 0.71709 0.0
C1632 C 0.04485 0.93902 0.79381 0.0
C1633 C 0.01447 0.92957 0.67197 0.0
H1634 H 0.11529 0.02516 0.72858 0.0
H1635 H 0.12336 0.94839 0.7188 0.0
H1636 H 0.03586 0.98765 0.71458 0.0
H1637 H 0.05036 0.99801 0.7558 0.0
H1638 H 0.0689 0.02236 0.72165 0.0
H1639 H 0.08245 0.90151 0.70953 0.0
H1640 H 0.05765 0.89793 0.74236 0.0
H1641 H 0.04736 0.89792 0.69994 0.0
H1642 H 0.98826 0.89719 0.80033 0.0
H1643 H 0.96225 0.88886 0.6981 0.0
H1644 H 0.05636 0.96331 0.79254 0.0
H1645 H 0.06157 0.93229 0.79055 0.0
H1646 H 0.03502 0.93204 0.81893 0.0
H1647 H 0.02775 0.95374 0.66917 0.0
H1648 H 0.99428 0.92129 0.65668 0.0
H1649 H 0.02765 0.92018 0.66207 0.0
C1650 C 0.84052 0.39445 0.59439 0.0
C1651 C 0.82107 0.36454 0.58903 0.0
C1652 C 0.83054 0.4146 0.59553 0.0
C1653 C 0.8004 0.40467 0.59051 0.0
C1654 C 0.7803 0.37415 0.58796 0.0
C1655 C 0.7909 0.35435 0.58748 0.0
C1656 C 0.8527 0.44683 0.59906 0.0
C1657 C 0.748 0.36256 0.58257 0.0
C1658 C 0.77724 0.46235 0.59924 0.0
C1659 C 0.78101 0.47301 0.56658 0.0
C1660 C 0.78238 0.43931 0.60744 0.0
C1661 C 0.79115 0.42648 0.58228 0.0
C1662 C 0.79362 0.43631 0.54903 0.0
C1663 C 0.78869 0.45949 0.54167 0.0
C1664 C 0.77959 0.42953 0.64316 0.0
C1665 C 0.80241 0.42297 0.52125 0.0
H1666 H 0.86386 0.40234 0.59581 0.0
H1667 H 0.77579 0.33126 0.5831 0.0
H1668 H 0.85588 0.45779 0.57461 0.0
H1669 H 0.84475 0.45747 0.61672 0.0
H1670 H 0.87429 0.45054 0.60782 0.0
H1671 H 0.7348 0.33866 0.58773 0.0
H1672 H 0.73999 0.37425 0.59852 0.0
H1673 H 0.74428 0.36631 0.55631 0.0
H1674 H 0.77127 0.47273 0.61854 0.0
H1675 H 0.7909 0.46714 0.51627 0.0
H1676 H 0.80168 0.4364 0.65333 0.0
H1677 H 0.76652 0.40527 0.64488 0.0
H1678 H 0.76917 0.43908 0.65894 0.0
H1679 H 0.82522 0.42776 0.52527 0.0
H1680 H 0.80118 0.43158 0.49646 0.0
H1681 H 0.78805 0.39878 0.52111 0.0
C1682 C 0.62718 0.45048 0.59238 0.0
C1683 C 0.6574 0.46203 0.58824 0.0
C1684 C 0.6079 0.42011 0.59387 0.0
C1685 C 0.61907 0.40075 0.59076 0.0
C1686 C 0.64983 0.41233 0.58967 0.0
C1687 C 0.66869 0.44292 0.58856 0.0
C1688 C 0.57534 0.40883 0.59561 0.0
C1689 C 0.66273 0.39253 0.58656 0.0
C1690 C 0.56316 0.31936 0.60048 0.0
C1691 C 0.55388 0.31144 0.56748 0.0
C1692 C 0.58528 0.34808 0.60854 0.0
C1693 C 0.59847 0.36923 0.58296 0.0
C1694 C 0.59008 0.36088 0.54949 0.0
C1695 C 0.56793 0.3322 0.54222 0.0
C1696 C 0.59366 0.35606 0.64448 0.0
C1697 C 0.60378 0.38256 0.52132 0.0
H1698 H 0.61837 0.46519 0.59243 0.0
H1699 H 0.69198 0.45163 0.58516 0.0
H1700 H 0.56534 0.40014 0.57091 0.0
H1701 H 0.56472 0.39059 0.61373 0.0
H1702 H 0.57046 0.42631 0.60277 0.0
H1703 H 0.6865 0.40424 0.59266 0.0
H1704 H 0.65121 0.37315 0.60306 0.0
H1705 H 0.66001 0.38439 0.56062 0.0
H1706 H 0.55239 0.30342 0.6201 0.0
H1707 H 0.56143 0.32603 0.51661 0.0
H1708 H 0.5855 0.37068 0.65312 0.0
H1709 H 0.61786 0.36828 0.64732 0.0
H1710 H 0.58434 0.33642 0.6608 0.0
H1711 H 0.59816 0.40014 0.5238 0.0
H1712 H 0.59622 0.37209 0.49656 0.0
H1713 H 0.62802 0.39313 0.52233 0.0
C1714 C 0.68555 0.22594 0.55148 0.0
C1715 C 0.70816 0.23704 0.57508 0.0
C1716 C 0.65743 0.22067 0.55958 0.0
C1717 C 0.65156 0.22631 0.59229 0.0
C1718 C 0.67446 0.23819 0.61609 0.0
C1719 C 0.70256 0.24357 0.60713 0.0
C1720 C 0.63382 0.20843 0.53322 0.0
C1721 C 0.66906 0.24435 0.65122 0.0
C1722 C 0.57986 0.22678 0.59728 0.0
C1723 C 0.55998 0.19694 0.60284 0.0
C1724 C 0.61024 0.23741 0.5963 0.0
C1725 C 0.62089 0.21779 0.60158 0.0
C1726 C 0.60107 0.18842 0.61083 0.0
C1727 C 0.57087 0.17833 0.61114 0.0
C1728 C 0.63054 0.26891 0.58644 0.0
C1729 C 0.61145 0.16687 0.61741 0.0
H1730 H 0.6899 0.22147 0.52649 0.0
H1731 H 0.71995 0.25208 0.62548 0.0
H1732 H 0.61625 0.18617 0.54053 0.0
H1733 H 0.62366 0.2224 0.53085 0.0
H1734 H 0.64239 0.20695 0.50851 0.0
H1735 H 0.68967 0.25605 0.66583 0.0
H1736 H 0.65815 0.2577 0.65117 0.0
H1737 H 0.6541 0.22338 0.66392 0.0
H1738 H 0.5717 0.24136 0.59083 0.0
H1739 H 0.55564 0.1553 0.61585 0.0
H1740 H 0.63677 0.26974 0.55995 0.0
H1741 H 0.65099 0.27872 0.60135 0.0
H1742 H 0.61999 0.2825 0.58946 0.0
H1743 H 0.61779 0.16099 0.59357 0.0
H1744 H 0.59417 0.14642 0.62924 0.0
H1745 H 0.63108 0.17678 0.6337 0.0
C1746 C 0.77917 0.42188 0.06007 0.0
C1747 C 0.78941 0.42444 0.09279 0.0
C1748 C 0.75709 0.42857 0.05214 0.0
C1749 C 0.74488 0.43777 0.07761 0.0
C1750 C 0.75401 0.43865 0.11093 0.0
C1751 C 0.77615 0.4321 0.11803 0.0
C1752 C 0.74793 0.42724 0.01637 0.0
C1753 C 0.74136 0.44786 0.13904 0.0
C1754 C 0.71883 0.49235 0.06684 0.0
C1755 C 0.68855 0.47468 0.07168 0.0
C1756 C 0.73717 0.48017 0.06557 0.0
C1757 C 0.72499 0.44954 0.06971 0.0
C1758 C 0.69411 0.4313 0.07167 0.0
C1759 C 0.6762 0.44411 0.07246 0.0
C1760 C 0.76987 0.50048 0.06284 0.0
C1761 C 0.6801 0.39855 0.07594 0.0
H1762 H 0.78935 0.41596 0.0405 0.0
H1763 H 0.78351 0.43344 0.14345 0.0
H1764 H 0.72371 0.4161 0.01429 0.0
H1765 H 0.75687 0.44985 0.00667 0.0
H1766 H 0.75604 0.41558 0.00042 0.0
H1767 H 0.74903 0.44508 0.16378 0.0
H1768 H 0.74782 0.47128 0.13601 0.0
H1769 H 0.71706 0.43488 0.13853 0.0
H1770 H 0.72846 0.51599 0.06597 0.0
H1771 H 0.65285 0.4303 0.07642 0.0
H1772 H 0.77952 0.49181 0.04474 0.0
H1773 H 0.78024 0.50199 0.08734 0.0
H1774 H 0.77548 0.52293 0.05505 0.0
H1775 H 0.6906 0.38954 0.05954 0.0
H1776 H 0.65622 0.38715 0.07053 0.0
H1777 H 0.68309 0.39361 0.10199 0.0
C1778 C 0.5944 0.26135 0.07815 0.0
C1779 C 0.56906 0.23371 0.07467 0.0
C1780 C 0.59292 0.28719 0.07817 0.0
C1781 C 0.56547 0.28555 0.07403 0.0
C1782 C 0.54015 0.25798 0.06788 0.0
C1783 C 0.54221 0.23235 0.06836 0.0
C1784 C 0.62053 0.31608 0.08471 0.0
C1785 C 0.51061 0.25541 0.06249 0.0
C1786 C 0.55854 0.34523 0.11876 0.0
C1787 C 0.56494 0.36585 0.09343 0.0
C1788 C 0.55777 0.31866 0.11246 0.0
C1789 C 0.56308 0.31225 0.07987 0.0
C1790 C 0.56846 0.33248 0.05388 0.0
C1791 C 0.56966 0.35922 0.06106 0.0
C1792 C 0.55256 0.29803 0.14108 0.0
C1793 C 0.57366 0.32626 0.01869 0.0
H1794 H 0.61539 0.26285 0.08262 0.0
H1795 H 0.52263 0.21121 0.06489 0.0
H1796 H 0.62391 0.33195 0.06473 0.0
H1797 H 0.61835 0.32556 0.10845 0.0
H1798 H 0.64032 0.31375 0.08622 0.0
H1799 H 0.49402 0.23327 0.05348 0.0
H1800 H 0.50271 0.25969 0.08623 0.0
H1801 H 0.51236 0.27203 0.04428 0.0
H1802 H 0.55532 0.35041 0.1439 0.0
H1803 H 0.57438 0.37501 0.04138 0.0
H1804 H 0.57232 0.29599 0.14499 0.0
H1805 H 0.53408 0.27582 0.1353 0.0
H1806 H 0.54759 0.30567 0.16464 0.0
H1807 H 0.59535 0.3277 0.01702 0.0
H1808 H 0.57325 0.34204 0.00068 0.0
H1809 H 0.55686 0.30369 0.01129 0.0
C1810 C 0.7657 0.30655 0.06865 0.0
C1811 C 0.78879 0.30062 0.06705 0.0
C1812 C 0.73637 0.28363 0.06655 0.0
C1813 C 0.73019 0.25431 0.06237 0.0
C1814 C 0.7536 0.24887 0.05712 0.0
C1815 C 0.78258 0.27204 0.05982 0.0
C1816 C 0.71213 0.29048 0.07218 0.0
C1817 C 0.74817 0.21814 0.05206 0.0
C1818 C 0.66599 0.19513 0.11073 0.0
C1819 C 0.64443 0.18111 0.08613 0.0
C1820 C 0.69369 0.21893 0.10316 0.0
C1821 C 0.70038 0.22921 0.07002 0.0
C1822 C 0.67901 0.21505 0.04484 0.0
C1823 C 0.65124 0.19122 0.05321 0.0
C1824 C 0.71571 0.23335 0.13092 0.0
C1825 C 0.68539 0.22525 0.00921 0.0
H1826 H 0.7704 0.32859 0.07444 0.0
H1827 H 0.80045 0.26745 0.05832 0.0
H1828 H 0.6935 0.27764 0.05505 0.0
H1829 H 0.70377 0.28429 0.09796 0.0
H1830 H 0.71989 0.31419 0.06878 0.0
H1831 H 0.76794 0.21816 0.04243 0.0
H1832 H 0.74204 0.20629 0.07615 0.0
H1833 H 0.72976 0.20577 0.03451 0.0
H1834 H 0.66097 0.18827 0.13637 0.0
H1835 H 0.63478 0.18063 0.03405 0.0
H1836 H 0.72237 0.25691 0.13265 0.0
H1837 H 0.73572 0.23213 0.12563 0.0
H1838 H 0.70692 0.22295 0.15545 0.0
H1839 H 0.69025 0.24828 0.00746 0.0
H1840 H 0.66675 0.21147 0.99241 0.0
H1841 H 0.70511 0.22485 0.00035 0.0
C1842 C 0.44718 0.79318 0.87735 0.0
C1843 C 0.43763 0.80466 0.90267 0.0
C1844 C 0.45226 0.76988 0.88346 0.0
C1845 C 0.44822 0.75801 0.91593 0.0
C1846 C 0.43792 0.76906 0.9415 0.0
C1847 C 0.43247 0.79211 0.93447 0.0
C1848 C 0.4626 0.75841 0.85523 0.0
C1849 C 0.43368 0.75728 0.97648 0.0
C1850 C 0.44704 0.68524 0.91777 0.0
C1851 C 0.47704 0.69497 0.92083 0.0
C1852 C 0.43677 0.7053 0.91848 0.0
C1853 C 0.45695 0.7356 0.92304 0.0
C1854 C 0.48678 0.74493 0.92952 0.0
C1855 C 0.4965 0.72457 0.92791 0.0
C1856 C 0.40483 0.69435 0.91124 0.0
C1857 C 0.50896 0.77685 0.93537 0.0
H1858 H 0.45056 0.8024 0.85259 0.0
H1859 H 0.42508 0.80098 0.95406 0.0
H1860 H 0.48525 0.7631 0.86027 0.0
H1861 H 0.44844 0.73426 0.85314 0.0
H1862 H 0.46247 0.76846 0.83099 0.0
H1863 H 0.42315 0.76636 0.99279 0.0
H1864 H 0.42006 0.73302 0.97642 0.0
H1865 H 0.45527 0.76297 0.98728 0.0
H1866 H 0.43193 0.6624 0.91204 0.0
H1867 H 0.5197 0.73212 0.93045 0.0
H1868 H 0.40255 0.69985 0.88518 0.0
H1869 H 0.39612 0.70514 0.92761 0.0
H1870 H 0.39123 0.6702 0.91438 0.0
H1871 H 0.51341 0.78907 0.91161 0.0
H1872 H 0.53002 0.77985 0.94511 0.0
H1873 H 0.50032 0.78673 0.95319 0.0
C1874 C 0.28012 0.77501 0.92669 0.0
C1875 C 0.31027 0.78676 0.92168 0.0
C1876 C 0.26108 0.74462 0.9287 0.0
C1877 C 0.27239 0.72541 0.92508 0.0
C1878 C 0.30316 0.73723 0.92308 0.0
C1879 C 0.32181 0.76787 0.92157 0.0
C1880 C 0.22854 0.73312 0.93149 0.0
C1881 C 0.31624 0.71763 0.91933 0.0
C1882 C 0.21677 0.6439 0.93524 0.0
C1883 C 0.20669 0.63608 0.90247 0.0
C1884 C 0.23912 0.67261 0.94305 0.0
C1885 C 0.25177 0.69383 0.91743 0.0
C1886 C 0.24266 0.6855 0.88412 0.0
C1887 C 0.22025 0.65686 0.87713 0.0
C1888 C 0.24825 0.68054 0.97883 0.0
C1889 C 0.25579 0.70718 0.85586 0.0
H1890 H 0.27115 0.78958 0.92699 0.0
H1891 H 0.34504 0.77675 0.91742 0.0
H1892 H 0.21801 0.72434 0.90704 0.0
H1893 H 0.21844 0.71491 0.94971 0.0
H1894 H 0.22367 0.7505 0.93912 0.0
H1895 H 0.34008 0.72949 0.92503 0.0
H1896 H 0.30505 0.69818 0.93577 0.0
H1897 H 0.31325 0.70961 0.89332 0.0
H1898 H 0.2064 0.6279 0.9549 0.0
H1899 H 0.2131 0.65075 0.85167 0.0
H1900 H 0.23997 0.69486 0.98816 0.0
H1901 H 0.27249 0.69304 0.981 0.0
H1902 H 0.23952 0.66084 0.99501 0.0
H1903 H 0.25005 0.72466 0.85875 0.0
H1904 H 0.24785 0.69668 0.83119 0.0
H1905 H 0.28005 0.71789 0.85633 0.0
C1906 C 0.22515 0.50419 0.94403 0.0
C1907 C 0.21318 0.52199 0.93619 0.0
C1908 C 0.25552 0.51514 0.9427 0.0
C1909 C 0.27449 0.54464 0.93314 0.0
C1910 C 0.26282 0.56345 0.92826 0.0
C1911 C 0.23232 0.55192 0.92999 0.0
C1912 C 0.26698 0.49438 0.94866 0.0
C1913 C 0.28217 0.59508 0.91824 0.0
C1914 C 0.35694 0.57324 0.93683 0.0
C1915 C 0.36248 0.56736 0.90443 0.0
C1916 C 0.32859 0.56671 0.94652 0.0
C1917 C 0.30532 0.55418 0.92319 0.0
C1918 C 0.31109 0.54919 0.89016 0.0
C1919 C 0.33948 0.55577 0.88127 0.0
C1920 C 0.32337 0.57241 0.98191 0.0
C1921 C 0.28709 0.53625 0.86427 0.0
H1922 H 0.21062 0.48112 0.94926 0.0
H1923 H 0.22347 0.56593 0.92379 0.0
H1924 H 0.27336 0.48895 0.92456 0.0
H1925 H 0.2868 0.50479 0.96463 0.0
H1926 H 0.2503 0.47363 0.96055 0.0
H1927 H 0.27094 0.60801 0.92153 0.0
H1928 H 0.30279 0.60551 0.93288 0.0
H1929 H 0.2882 0.59609 0.89165 0.0
H1930 H 0.37457 0.58212 0.95488 0.0
H1931 H 0.34369 0.55181 0.85601 0.0
H1932 H 0.30912 0.55124 0.99463 0.0
H1933 H 0.31174 0.58507 0.98241 0.0
H1934 H 0.34413 0.58462 0.99617 0.0
H1935 H 0.27009 0.51382 0.87184 0.0
H1936 H 0.29546 0.53498 0.83935 0.0
H1937 H 0.27625 0.54962 0.86225 0.0
C1938 C 0.39895 0.83949 0.39852 0.0
C1939 C 0.369 0.81938 0.40237 0.0
C1940 C 0.41952 0.83007 0.39685 0.0
C1941 C 0.40993 0.7998 0.39974 0.0
C1942 C 0.37947 0.77921 0.40018 0.0
C1943 C 0.35928 0.78929 0.40113 0.0
C1944 C 0.45171 0.8528 0.39552 0.0
C1945 C 0.36822 0.74674 0.40319 0.0
C1946 C 0.4687 0.77804 0.39273 0.0
C1947 C 0.47746 0.78 0.42602 0.0
C1948 C 0.44602 0.78344 0.38364 0.0
C1949 C 0.43164 0.79062 0.40852 0.0
C1950 C 0.43962 0.79133 0.4423 0.0
C1951 C 0.46249 0.78619 0.45056 0.0
C1952 C 0.43826 0.78259 0.3474 0.0
C1953 C 0.42457 0.79838 0.46977 0.0
H1954 H 0.40653 0.86279 0.39912 0.0
H1955 H 0.33621 0.77363 0.40395 0.0
H1956 H 0.46154 0.85506 0.42052 0.0
H1957 H 0.46347 0.84598 0.37805 0.0
H1958 H 0.45534 0.87461 0.38774 0.0
H1959 H 0.34462 0.73355 0.39656 0.0
H1960 H 0.3809 0.73999 0.38709 0.0
H1961 H 0.37091 0.74156 0.42925 0.0
H1962 H 0.48025 0.77325 0.37372 0.0
H1963 H 0.46871 0.78701 0.47637 0.0
H1964 H 0.44558 0.80519 0.33863 0.0
H1965 H 0.41417 0.76958 0.34385 0.0
H1966 H 0.44877 0.77311 0.33166 0.0
H1967 H 0.42916 0.82126 0.46697 0.0
H1968 H 0.43196 0.79603 0.49486 0.0
H1969 H 0.40047 0.78374 0.46815 0.0
C1970 C 0.18477 0.56699 0.43757 0.0
C1971 C 0.19757 0.55321 0.42002 0.0
C1972 C 0.1949 0.59698 0.43399 0.0
C1973 C 0.218 0.61377 0.41157 0.0
C1974 C 0.2305 0.59994 0.39287 0.0
C1975 C 0.22038 0.56982 0.39763 0.0
C1976 C 0.18123 0.61082 0.45494 0.0
C1977 C 0.25467 0.61699 0.36812 0.0
C1978 C 0.21939 0.68461 0.39106 0.0
C1979 C 0.24052 0.70417 0.41344 0.0
C1980 C 0.21368 0.65566 0.38796 0.0
C1981 C 0.22885 0.64581 0.40851 0.0
C1982 C 0.25124 0.66594 0.43001 0.0
C1983 C 0.25705 0.69502 0.4319 0.0
C1984 C 0.19026 0.6352 0.36403 0.0
C1985 C 0.26752 0.65629 0.45289 0.0
H1986 H 0.16728 0.55454 0.45513 0.0
H1987 H 0.2304 0.55936 0.38401 0.0
H1988 H 0.19835 0.62888 0.47012 0.0
H1989 H 0.17126 0.62049 0.43871 0.0
H1990 H 0.16402 0.59482 0.47191 0.0
H1991 H 0.26078 0.6027 0.35405 0.0
H1992 H 0.24777 0.62843 0.35025 0.0
H1993 H 0.27441 0.63407 0.38119 0.0
H1994 H 0.207 0.6919 0.37635 0.0
H1995 H 0.27335 0.71016 0.44924 0.0
H1996 H 0.17035 0.6197 0.37809 0.0
H1997 H 0.19775 0.62202 0.35 0.0
H1998 H 0.18414 0.64726 0.34607 0.0
H1999 H 0.2524 0.64191 0.47258 0.0
H2000 H 0.28658 0.67518 0.46499 0.0
H2001 H 0.27538 0.64332 0.43912 0.0
C2002 C 0.45561 0.62731 0.39583 0.0
C2003 C 0.46706 0.65727 0.40199 0.0
C2004 C 0.42527 0.60793 0.39493 0.0
C2005 C 0.40588 0.61873 0.40085 0.0
C2006 C 0.41729 0.64938 0.40372 0.0
C2007 C 0.44785 0.66838 0.40404 0.0
C2008 C 0.41413 0.57552 0.39102 0.0
C2009 C 0.39748 0.6619 0.40984 0.0
C2010 C 0.32445 0.56203 0.39519 0.0
C2011 C 0.31865 0.55154 0.42796 0.0
C2012 C 0.35245 0.58491 0.38599 0.0
C2013 C 0.37492 0.59765 0.41026 0.0
C2014 C 0.36854 0.58818 0.44373 0.0
C2015 C 0.34059 0.5652 0.45207 0.0
C2016 C 0.35833 0.59438 0.3501 0.0
C2017 C 0.39162 0.60145 0.47062 0.0
H2018 H 0.47042 0.6187 0.39387 0.0
H2019 H 0.45652 0.6915 0.40886 0.0
H2020 H 0.4067 0.56457 0.41552 0.0
H2021 H 0.39507 0.56541 0.3739 0.0
H2022 H 0.43135 0.57118 0.3814 0.0
H2023 H 0.40871 0.68578 0.4044 0.0
H2024 H 0.37731 0.65053 0.39451 0.0
H2025 H 0.3907 0.65862 0.43633 0.0
H2026 H 0.30749 0.55148 0.37652 0.0
H2027 H 0.33595 0.55757 0.47755 0.0
H2028 H 0.37185 0.58597 0.3387 0.0
H2029 H 0.37088 0.61864 0.34814 0.0
H2030 H 0.33773 0.58592 0.33555 0.0
H2031 H 0.40914 0.59609 0.46579 0.0
H2032 H 0.38248 0.59325 0.49577 0.0
H2033 H 0.40197 0.62569 0.47051 0.0
loop_
_geom_bond_atom_site_label_1
_geom_bond_atom_site_label_2
_geom_bond_distance
_geom_bond_site_symmetry_2
_ccdc_geom_bond_type
C0 C1 1.351 . S
C0 N3 1.368 . S
C0 H5 0.931 . S
C1 C0 1.351 . S
C1 N2 1.373 . S
C1 H29 0.930 . S
N2 C1 1.373 . S
N2 C4 1.340 . S
N3 C0 1.368 . S
N3 C4 1.321 . S
N3 Co6 2.135 . S
C4 N2 1.340 . S
C4 N3 1.321 . S
C4 H28 0.930 . S
H5 C0 0.931 . S
Co6 N3 2.135 . S
Co6 N9 2.121 1_455 S
Co6 O14 2.055 . S
Co6 O17 2.039 1_455 S
Co6 N20 2.140 . S
C7 O8 1.227 . S
C7 O17 1.265 . S
O8 C7 1.227 . S
N9 Co6 2.121 1_655 S
N9 C11 1.375 . S
N9 C12 1.313 . S
C10 C11 1.338 . S
C10 N13 1.377 . S
C10 H30 0.930 . S
C11 N9 1.375 . S
C11 C10 1.338 . S
C11 H15 0.931 . S
C12 N9 1.313 . S
C12 N13 1.344 . S
C12 H16 0.930 1_655 S
N13 C10 1.377 . S
N13 C12 1.344 . S
O14 Co6 2.055 . S
O14 C18 1.253 . S
H15 C11 0.931 . S
H16 C12 0.930 1_455 S
O17 Co6 2.039 1_655 S
O17 C7 1.265 . S
C18 O14 1.253 . S
C18 O19 1.227 . S
O19 C18 1.227 . S
N20 Co6 2.140 . S
N20 C23 1.346 . S
N20 C24 1.345 . S
C21 C22 1.387 . S
C21 C25 1.391 . S
C22 C21 1.387 . S
C22 C23 1.369 . S
C22 H31 0.929 . S
C23 N20 1.346 . S
C23 C22 1.369 . S
C23 H26 0.928 . S
C24 N20 1.345 . S
C24 C25 1.371 . S
C24 H27 0.931 . S
C25 C21 1.391 . S
C25 C24 1.371 . S
C25 H32 0.930 . S
H26 C23 0.928 . S
H27 C24 0.931 . S
H28 C4 0.930 . S
H29 C1 0.930 . S
H30 C10 0.930 . S
H31 C22 0.929 . S
H32 C25 0.930 . S
C33 C34 1.351 . S
C33 N36 1.368 . S
C33 H38 0.931 . S
C34 C33 1.351 . S
C34 N35 1.373 . S
C34 H62 0.930 . S
N35 C34 1.373 . S
N35 C37 1.340 . S
N36 C33 1.368 . S
N36 C37 1.321 . S
N36 Co39 2.135 . S
C37 N35 1.340 . S
C37 N36 1.321 . S
C37 H61 0.930 . S
H38 C33 0.931 . S
Co39 N36 2.135 . S
Co39 N42 2.121 . S
Co39 O47 2.055 . S
Co39 O50 2.039 . S
Co39 N53 2.140 . S
C40 O41 1.227 . S
C40 O50 1.265 . S
O41 C40 1.227 . S
N42 Co39 2.121 . S
N42 C44 1.375 . S
N42 C45 1.313 . S
C43 C44 1.338 . S
C43 N46 1.377 . S
C43 H63 0.930 . S
C44 N42 1.375 . S
C44 C43 1.338 . S
C44 H48 0.931 . S
C45 N42 1.313 . S
C45 N46 1.344 . S
C45 H49 0.930 . S
N46 C43 1.377 . S
N46 C45 1.344 . S
O47 Co39 2.055 . S
O47 C51 1.253 . S
H48 C44 0.931 . S
H49 C45 0.930 . S
O50 Co39 2.039 . S
O50 C40 1.265 . S
C51 O47 1.253 . S
C51 O52 1.227 . S
O52 C51 1.227 . S
N53 Co39 2.140 . S
N53 C56 1.346 . S
N53 C57 1.345 . S
C54 C55 1.387 . S
C54 C58 1.391 . S
C55 C54 1.387 . S
C55 C56 1.369 . S
C55 H64 0.929 . S
C56 N53 1.346 . S
C56 C55 1.369 . S
C56 H59 0.928 . S
C57 N53 1.345 . S
C57 C58 1.371 . S
C57 H60 0.931 . S
C58 C54 1.391 . S
C58 C57 1.371 . S
C58 H65 0.930 . S
H59 C56 0.928 . S
H60 C57 0.931 . S
H61 C37 0.930 . S
H62 C34 0.930 . S
H63 C43 0.930 . S
H64 C55 0.929 . S
H65 C58 0.930 . S
C66 C67 1.351 . S
C66 N69 1.368 . S
C66 H71 0.931 . S
C67 C66 1.351 . S
C67 N68 1.373 . S
C67 H95 0.930 . S
N68 C67 1.373 . S
N68 C70 1.340 . S
N69 C66 1.368 . S
N69 C70 1.321 . S
N69 Co72 2.135 . S
C70 N68 1.340 . S
C70 N69 1.321 . S
C70 H94 0.930 . S
H71 C66 0.931 . S
Co72 N69 2.135 . S
Co72 N75 2.121 1_565 S
Co72 O80 2.055 . S
Co72 O83 2.039 1_565 S
Co72 N86 2.140 . S
C73 O74 1.227 . S
C73 O83 1.265 . S
O74 C73 1.227 . S
N75 Co72 2.121 1_545 S
N75 C77 1.375 . S
N75 C78 1.313 . S
C76 C77 1.338 . S
C76 N79 1.377 . S
C76 H96 0.930 . S
C77 N75 1.375 . S
C77 C76 1.338 . S
C77 H81 0.931 . S
C78 N75 1.313 . S
C78 N79 1.344 . S
C78 H82 0.930 1_545 S
N79 C76 1.377 . S
N79 C78 1.344 . S
O80 Co72 2.055 . S
O80 C84 1.253 . S
H81 C77 0.931 . S
H82 C78 0.930 1_565 S
O83 Co72 2.039 1_545 S
O83 C73 1.265 . S
C84 O80 1.253 . S
C84 O85 1.227 . S
O85 C84 1.227 . S
N86 Co72 2.140 . S
N86 C89 1.346 . S
N86 C90 1.345 . S
C87 C88 1.387 . S
C87 C91 1.391 . S
C88 C87 1.387 . S
C88 C89 1.369 . S
C88 H97 0.929 . S
C89 N86 1.346 . S
C89 C88 1.369 . S
C89 H92 0.928 . S
C90 N86 1.345 . S
C90 C91 1.371 . S
C90 H93 0.931 . S
C91 C87 1.391 . S
C91 C90 1.371 . S
C91 H98 0.930 . S
H92 C89 0.928 . S
H93 C90 0.931 . S
H94 C70 0.930 . S
H95 C67 0.930 . S
H96 C76 0.930 . S
H97 C88 0.929 . S
H98 C91 0.930 . S
C99 C100 1.351 . S
C99 N102 1.368 . S
C99 H104 0.931 . S
C100 C99 1.351 . S
C100 N101 1.373 . S
C100 H128 0.930 . S
N101 C100 1.373 . S
N101 C103 1.340 . S
N102 C99 1.368 . S
N102 C103 1.321 . S
N102 Co105 2.135 . S
C103 N101 1.340 . S
C103 N102 1.321 . S
C103 H127 0.930 . S
H104 C99 0.931 . S
Co105 N102 2.135 . S
Co105 N108 2.121 1_545 S
Co105 O113 2.055 . S
Co105 O116 2.039 1_545 S
Co105 N119 2.140 . S
C106 O107 1.227 . S
C106 O116 1.265 . S
O107 C106 1.227 . S
N108 Co105 2.121 1_565 S
N108 C110 1.375 . S
N108 C111 1.313 . S
C109 C110 1.338 . S
C109 N112 1.377 . S
C109 H129 0.930 . S
C110 N108 1.375 . S
C110 C109 1.338 . S
C110 H114 0.931 . S
C111 N108 1.313 . S
C111 N112 1.344 . S
C111 H115 0.930 1_565 S
N112 C109 1.377 . S
N112 C111 1.344 . S
O113 Co105 2.055 . S
O113 C117 1.253 . S
H114 C110 0.931 . S
H115 C111 0.930 1_545 S
O116 Co105 2.039 1_565 S
O116 C106 1.265 . S
C117 O113 1.253 . S
C117 O118 1.227 . S
O118 C117 1.227 . S
N119 Co105 2.140 . S
N119 C122 1.346 . S
N119 C123 1.345 . S
C120 C121 1.387 . S
C120 C124 1.391 . S
C121 C120 1.387 . S
C121 C122 1.369 . S
C121 H130 0.929 . S
C122 N119 1.346 . S
C122 C121 1.369 . S
C122 H125 0.928 . S
C123 N119 1.345 . S
C123 C124 1.371 . S
C123 H126 0.931 . S
C124 C120 1.391 . S
C124 C123 1.371 . S
C124 H131 0.930 . S
H125 C122 0.928 . S
H126 C123 0.931 . S
H127 C103 0.930 . S
H128 C100 0.930 . S
H129 C109 0.930 . S
H130 C121 0.929 . S
H131 C124 0.930 . S
C132 C133 1.351 . S
C132 N135 1.368 . S
C132 H137 0.931 . S
C133 C132 1.351 . S
C133 N134 1.373 . S
C133 H161 0.930 . S
N134 C133 1.373 . S
N134 C136 1.340 . S
N135 C132 1.368 . S
N135 C136 1.321 . S
N135 Co138 2.135 . S
C136 N134 1.340 . S
C136 N135 1.321 . S
C136 H160 0.930 . S
H137 C132 0.931 . S
Co138 N135 2.135 . S
Co138 N141 2.121 1_655 S
Co138 O146 2.055 . S
Co138 O149 2.039 1_655 S
Co138 N152 2.140 . S
C139 O140 1.227 . S
C139 O149 1.265 . S
O140 C139 1.227 . S
N141 Co138 2.121 1_455 S
N141 C143 1.375 . S
N141 C144 1.313 . S
C142 C143 1.338 . S
C142 N145 1.377 . S
C142 H162 0.930 . S
C143 N141 1.375 . S
C143 C142 1.338 . S
C143 H147 0.931 . S
C144 N141 1.313 . S
C144 N145 1.344 . S
C144 H148 0.930 1_455 S
N145 C142 1.377 . S
N145 C144 1.344 . S
O146 Co138 2.055 . S
O146 C150 1.253 . S
H147 C143 0.931 . S
H148 C144 0.930 1_655 S
O149 Co138 2.039 1_455 S
O149 C139 1.265 . S
C150 O146 1.253 . S
C150 O151 1.227 . S
O151 C150 1.227 . S
N152 Co138 2.140 . S
N152 C155 1.346 . S
N152 C156 1.345 . S
C153 C154 1.387 . S
C153 C157 1.391 . S
C154 C153 1.387 . S
C154 C155 1.369 . S
C154 H163 0.929 . S
C155 N152 1.346 . S
C155 C154 1.369 . S
C155 H158 0.928 . S
C156 N152 1.345 . S
C156 C157 1.371 . S
C156 H159 0.931 . S
C157 C153 1.391 . S
C157 C156 1.371 . S
C157 H164 0.930 . S
H158 C155 0.928 . S
H159 C156 0.931 . S
H160 C136 0.930 . S
H161 C133 0.930 . S
H162 C142 0.930 . S
H163 C154 0.929 . S
H164 C157 0.930 . S
C165 C166 1.351 . S
C165 N168 1.368 . S
C165 H170 0.931 . S
C166 C165 1.351 . S
C166 N167 1.373 . S
C166 H194 0.930 . S
N167 C166 1.373 . S
N167 C169 1.340 . S
N168 C165 1.368 . S
N168 C169 1.321 . S
N168 Co171 2.135 . S
C169 N167 1.340 . S
C169 N168 1.321 . S
C169 H193 0.930 . S
H170 C165 0.931 . S
Co171 N168 2.135 . S
Co171 N174 2.121 . S
Co171 O179 2.055 . S
Co171 O182 2.039 . S
Co171 N185 2.140 . S
C172 O173 1.227 . S
C172 O182 1.265 . S
O173 C172 1.227 . S
N174 Co171 2.121 . S
N174 C176 1.375 . S
N174 C177 1.313 . S
C175 C176 1.338 . S
C175 N178 1.377 . S
C175 H195 0.930 . S
C176 N174 1.375 . S
C176 C175 1.338 . S
C176 H180 0.931 . S
C177 N174 1.313 . S
C177 N178 1.344 . S
C177 H181 0.930 . S
N178 C175 1.377 . S
N178 C177 1.344 . S
O179 Co171 2.055 . S
O179 C183 1.253 . S
H180 C176 0.931 . S
H181 C177 0.930 . S
O182 Co171 2.039 . S
O182 C172 1.265 . S
C183 O179 1.253 . S
C183 O184 1.227 . S
O184 C183 1.227 . S
N185 Co171 2.140 . S
N185 C188 1.346 . S
N185 C189 1.345 . S
C186 C187 1.387 . S
C186 C190 1.391 . S
C187 C186 1.387 . S
C187 C188 1.369 . S
C187 H196 0.929 . S
C188 N185 1.346 . S
C188 C187 1.369 . S
C188 H191 0.928 . S
C189 N185 1.345 . S
C189 C190 1.371 . S
C189 H192 0.931 . S
C190 C186 1.391 . S
C190 C189 1.371 . S
C190 H197 0.930 . S
H191 C188 0.928 . S
H192 C189 0.931 . S
H193 C169 0.930 . S
H194 C166 0.930 . S
H195 C175 0.930 . S
H196 C187 0.929 . S
H197 C190 0.930 . S
C198 C199 1.351 . S
C198 N201 1.368 . S
C198 H203 0.931 . S
C199 C198 1.351 . S
C199 N200 1.373 . S
C199 H227 0.930 . S
N200 C199 1.373 . S
N200 C202 1.340 . S
N201 C198 1.368 . S
N201 C202 1.321 . S
N201 Co204 2.135 . S
C202 N200 1.340 . S
C202 N201 1.321 . S
C202 H226 0.930 . S
H203 C198 0.931 . S
Co204 N201 2.135 . S
Co204 N207 2.121 . S
Co204 O212 2.055 . S
Co204 O215 2.039 . S
Co204 N218 2.140 . S
C205 O206 1.227 . S
C205 O215 1.265 . S
O206 C205 1.227 . S
N207 Co204 2.121 . S
N207 C209 1.375 . S
N207 C210 1.313 . S
C208 C209 1.338 . S
C208 N211 1.377 . S
C208 H228 0.930 . S
C209 N207 1.375 . S
C209 C208 1.338 . S
C209 H213 0.931 . S
C210 N207 1.313 . S
C210 N211 1.344 . S
C210 H214 0.930 . S
N211 C208 1.377 . S
N211 C210 1.344 . S
O212 Co204 2.055 . S
O212 C216 1.253 . S
H213 C209 0.931 . S
H214 C210 0.930 . S
O215 Co204 2.039 . S
O215 C205 1.265 . S
C216 O212 1.253 . S
C216 O217 1.227 . S
O217 C216 1.227 . S
N218 Co204 2.140 . S
N218 C221 1.346 . S
N218 C222 1.345 . S
C219 C220 1.387 . S
C219 C223 1.391 . S
C220 C219 1.387 . S
C220 C221 1.369 . S
C220 H229 0.929 . S
C221 N218 1.346 . S
C221 C220 1.369 . S
C221 H224 0.928 . S
C222 N218 1.345 . S
C222 C223 1.371 . S
C222 H225 0.931 . S
C223 C219 1.391 . S
C223 C222 1.371 . S
C223 H230 0.930 . S
H224 C221 0.928 . S
H225 C222 0.931 . S
H226 C202 0.930 . S
H227 C199 0.930 . S
H228 C208 0.930 . S
H229 C220 0.929 . S
H230 C223 0.930 . S
C231 C232 1.351 . S
C231 N234 1.368 . S
C231 H236 0.931 . S
C232 C231 1.351 . S
C232 N233 1.373 . S
C232 H260 0.930 . S
N233 C232 1.373 . S
N233 C235 1.340 . S
N234 C231 1.368 . S
N234 C235 1.321 . S
N234 Co237 2.135 . S
C235 N233 1.340 . S
C235 N234 1.321 . S
C235 H259 0.930 . S
H236 C231 0.931 . S
Co237 N234 2.135 . S
Co237 N240 2.121 . S
Co237 O245 2.055 . S
Co237 O248 2.039 . S
Co237 N251 2.140 . S
C238 O239 1.227 . S
C238 O248 1.265 . S
O239 C238 1.227 . S
N240 Co237 2.121 . S
N240 C242 1.375 . S
N240 C243 1.313 . S
C241 C242 1.338 . S
C241 N244 1.377 . S
C241 H261 0.930 . S
C242 N240 1.375 . S
C242 C241 1.338 . S
C242 H246 0.931 . S
C243 N240 1.313 . S
C243 N244 1.344 . S
C243 H247 0.930 . S
N244 C241 1.377 . S
N244 C243 1.344 . S
O245 Co237 2.055 . S
O245 C249 1.253 . S
H246 C242 0.931 . S
H247 C243 0.930 . S
O248 Co237 2.039 . S
O248 C238 1.265 . S
C249 O245 1.253 . S
C249 O250 1.227 . S
O250 C249 1.227 . S
N251 Co237 2.140 . S
N251 C254 1.346 . S
N251 C255 1.345 . S
C252 C253 1.387 . S
C252 C256 1.391 . S
C253 C252 1.387 . S
C253 C254 1.369 . S
C253 H262 0.929 . S
C254 N251 1.346 . S
C254 C253 1.369 . S
C254 H257 0.928 . S
C255 N251 1.345 . S
C255 C256 1.371 . S
C255 H258 0.931 . S
C256 C252 1.391 . S
C256 C255 1.371 . S
C256 H263 0.930 . S
H257 C254 0.928 . S
H258 C255 0.931 . S
H259 C235 0.930 . S
H260 C232 0.930 . S
H261 C241 0.930 . S
H262 C253 0.929 . S
H263 C256 0.930 . S
C264 C265 1.351 . S
C264 N267 1.368 . S
C264 H269 0.931 . S
C265 C264 1.351 . S
C265 N266 1.373 . S
C265 H293 0.930 . S
N266 C265 1.373 . S
N266 C268 1.340 . S
N267 C264 1.368 . S
N267 C268 1.321 . S
N267 Co270 2.135 . S
C268 N266 1.340 . S
C268 N267 1.321 . S
C268 H292 0.930 . S
H269 C264 0.931 . S
Co270 N267 2.135 . S
Co270 N273 2.121 . S
Co270 O278 2.055 . S
Co270 O281 2.039 . S
Co270 N284 2.140 . S
C271 O272 1.227 . S
C271 O281 1.265 . S
O272 C271 1.227 . S
N273 Co270 2.121 . S
N273 C275 1.375 . S
N273 C276 1.313 . S
C274 C275 1.338 . S
C274 N277 1.377 . S
C274 H294 0.930 . S
C275 N273 1.375 . S
C275 C274 1.338 . S
C275 H279 0.931 . S
C276 N273 1.313 . S
C276 N277 1.344 . S
C276 H280 0.930 . S
N277 C274 1.377 . S
N277 C276 1.344 . S
O278 Co270 2.055 . S
O278 C282 1.253 . S
H279 C275 0.931 . S
H280 C276 0.930 . S
O281 Co270 2.039 . S
O281 C271 1.265 . S
C282 O278 1.253 . S
C282 O283 1.227 . S
O283 C282 1.227 . S
N284 Co270 2.140 . S
N284 C287 1.346 . S
N284 C288 1.345 . S
C285 C286 1.387 . S
C285 C289 1.391 . S
C286 C285 1.387 . S
C286 C287 1.369 . S
C286 H295 0.929 . S
C287 N284 1.346 . S
C287 C286 1.369 . S
C287 H290 0.928 . S
C288 N284 1.345 . S
C288 C289 1.371 . S
C288 H291 0.931 . S
C289 C285 1.391 . S
C289 C288 1.371 . S
C289 H296 0.930 . S
H290 C287 0.928 . S
H291 C288 0.931 . S
H292 C268 0.930 . S
H293 C265 0.930 . S
H294 C274 0.930 . S
H295 C286 0.929 . S
H296 C289 0.930 . S
C297 C298 1.351 . S
C297 N300 1.368 . S
C297 H302 0.931 . S
C298 C297 1.351 . S
C298 N299 1.373 . S
C298 H326 0.930 . S
N299 C298 1.373 . S
N299 C301 1.340 . S
N300 C297 1.368 . S
N300 C301 1.321 . S
N300 Co303 2.135 . S
C301 N299 1.340 . S
C301 N300 1.321 . S
C301 H325 0.930 . S
H302 C297 0.931 . S
Co303 N300 2.135 . S
Co303 N306 2.121 . S
Co303 O311 2.055 . S
Co303 O314 2.039 . S
Co303 N317 2.140 . S
C304 O305 1.227 . S
C304 O314 1.265 . S
O305 C304 1.227 . S
N306 Co303 2.121 . S
N306 C308 1.375 . S
N306 C309 1.313 . S
C307 C308 1.338 . S
C307 N310 1.377 . S
C307 H327 0.930 . S
C308 N306 1.375 . S
C308 C307 1.338 . S
C308 H312 0.931 . S
C309 N306 1.313 . S
C309 N310 1.344 . S
C309 H313 0.930 . S
N310 C307 1.377 . S
N310 C309 1.344 . S
O311 Co303 2.055 . S
O311 C315 1.253 . S
H312 C308 0.931 . S
H313 C309 0.930 . S
O314 Co303 2.039 . S
O314 C304 1.265 . S
C315 O311 1.253 . S
C315 O316 1.227 . S
O316 C315 1.227 . S
N317 Co303 2.140 . S
N317 C320 1.346 . S
N317 C321 1.345 . S
C318 C319 1.387 . S
C318 C322 1.391 . S
C319 C318 1.387 . S
C319 C320 1.369 . S
C319 H328 0.929 . S
C320 N317 1.346 . S
C320 C319 1.369 . S
C320 H323 0.928 . S
C321 N317 1.345 . S
C321 C322 1.371 . S
C321 H324 0.931 . S
C322 C318 1.391 . S
C322 C321 1.371 . S
C322 H329 0.930 . S
H323 C320 0.928 . S
H324 C321 0.931 . S
H325 C301 0.930 . S
H326 C298 0.930 . S
H327 C307 0.930 . S
H328 C319 0.929 . S
H329 C322 0.930 . S
C330 C331 1.351 . S
C330 N333 1.368 . S
C330 H335 0.931 . S
C331 C330 1.351 . S
C331 N332 1.373 . S
C331 H359 0.930 . S
N332 C331 1.373 . S
N332 C334 1.340 . S
N333 C330 1.368 . S
N333 C334 1.321 . S
N333 Co336 2.135 . S
C334 N332 1.340 . S
C334 N333 1.321 . S
C334 H358 0.930 . S
H335 C330 0.931 . S
Co336 N333 2.135 . S
Co336 N339 2.121 . S
Co336 O344 2.055 . S
Co336 O347 2.039 . S
Co336 N350 2.140 . S
C337 O338 1.227 . S
C337 O347 1.265 . S
O338 C337 1.227 . S
N339 Co336 2.121 . S
N339 C341 1.375 . S
N339 C342 1.313 . S
C340 C341 1.338 . S
C340 N343 1.377 . S
C340 H360 0.930 . S
C341 N339 1.375 . S
C341 C340 1.338 . S
C341 H345 0.931 . S
C342 N339 1.313 . S
C342 N343 1.344 . S
C342 H346 0.930 . S
N343 C340 1.377 . S
N343 C342 1.344 . S
O344 Co336 2.055 . S
O344 C348 1.253 . S
H345 C341 0.931 . S
H346 C342 0.930 . S
O347 Co336 2.039 . S
O347 C337 1.265 . S
C348 O344 1.253 . S
C348 O349 1.227 . S
O349 C348 1.227 . S
N350 Co336 2.140 . S
N350 C353 1.346 . S
N350 C354 1.345 . S
C351 C352 1.387 . S
C351 C355 1.391 . S
C352 C351 1.387 . S
C352 C353 1.369 . S
C352 H361 0.929 . S
C353 N350 1.346 . S
C353 C352 1.369 . S
C353 H356 0.928 . S
C354 N350 1.345 . S
C354 C355 1.371 . S
C354 H357 0.931 . S
C355 C351 1.391 . S
C355 C354 1.371 . S
C355 H362 0.930 . S
H356 C353 0.928 . S
H357 C354 0.931 . S
H358 C334 0.930 . S
H359 C331 0.930 . S
H360 C340 0.930 . S
H361 C352 0.929 . S
H362 C355 0.930 . S
C363 C364 1.351 . S
C363 N366 1.368 . S
C363 H368 0.931 . S
C364 C363 1.351 . S
C364 N365 1.373 . S
C364 H392 0.930 . S
N365 C364 1.373 . S
N365 C367 1.340 . S
N366 C363 1.368 . S
N366 C367 1.321 . S
N366 Co369 2.135 . S
C367 N365 1.340 . S
C367 N366 1.321 . S
C367 H391 0.930 . S
H368 C363 0.931 . S
Co369 N366 2.135 . S
Co369 N372 2.121 . S
Co369 O377 2.055 . S
Co369 O380 2.039 . S
Co369 N383 2.140 . S
C370 O371 1.227 . S
C370 O380 1.265 . S
O371 C370 1.227 . S
N372 Co369 2.121 . S
N372 C374 1.375 . S
N372 C375 1.313 . S
C373 C374 1.338 . S
C373 N376 1.377 . S
C373 H393 0.930 . S
C374 N372 1.375 . S
C374 C373 1.338 . S
C374 H378 0.931 . S
C375 N372 1.313 . S
C375 N376 1.344 . S
C375 H379 0.930 . S
N376 C373 1.377 . S
N376 C375 1.344 . S
O377 Co369 2.055 . S
O377 C381 1.253 . S
H378 C374 0.931 . S
H379 C375 0.930 . S
O380 Co369 2.039 . S
O380 C370 1.265 . S
C381 O377 1.253 . S
C381 O382 1.227 . S
O382 C381 1.227 . S
N383 Co369 2.140 . S
N383 C386 1.346 . S
N383 C387 1.345 . S
C384 C385 1.387 . S
C384 C388 1.391 . S
C385 C384 1.387 . S
C385 C386 1.369 . S
C385 H394 0.929 . S
C386 N383 1.346 . S
C386 C385 1.369 . S
C386 H389 0.928 . S
C387 N383 1.345 . S
C387 C388 1.371 . S
C387 H390 0.931 . S
C388 C384 1.391 . S
C388 C387 1.371 . S
C388 H395 0.930 . S
H389 C386 0.928 . S
H390 C387 0.931 . S
H391 C367 0.930 . S
H392 C364 0.930 . S
H393 C373 0.930 . S
H394 C385 0.929 . S
H395 C388 0.930 . S
C396 C397 1.351 . S
C396 N399 1.368 . S
C396 H401 0.931 . S
C397 C396 1.351 . S
C397 N398 1.373 . S
C397 H425 0.930 . S
N398 C397 1.373 . S
N398 C400 1.340 . S
N399 C396 1.368 . S
N399 C400 1.321 . S
N399 Co402 2.135 . S
C400 N398 1.340 . S
C400 N399 1.321 . S
C400 H424 0.930 . S
H401 C396 0.931 . S
Co402 N399 2.135 . S
Co402 N405 2.121 . S
Co402 O410 2.055 . S
Co402 O413 2.039 . S
Co402 N416 2.140 . S
C403 O404 1.227 . S
C403 O413 1.265 . S
O404 C403 1.227 . S
N405 Co402 2.121 . S
N405 C407 1.375 . S
N405 C408 1.313 . S
C406 C407 1.338 . S
C406 N409 1.377 . S
C406 H426 0.930 . S
C407 N405 1.375 . S
C407 C406 1.338 . S
C407 H411 0.931 . S
C408 N405 1.313 . S
C408 N409 1.344 . S
C408 H412 0.930 . S
N409 C406 1.377 . S
N409 C408 1.344 . S
O410 Co402 2.055 . S
O410 C414 1.253 . S
H411 C407 0.931 . S
H412 C408 0.930 . S
O413 Co402 2.039 . S
O413 C403 1.265 . S
C414 O410 1.253 . S
C414 O415 1.227 . S
O415 C414 1.227 . S
N416 Co402 2.140 . S
N416 C419 1.346 . S
N416 C420 1.345 . S
C417 C418 1.387 . S
C417 C421 1.391 . S
C418 C417 1.387 . S
C418 C419 1.369 . S
C418 H427 0.929 . S
C419 N416 1.346 . S
C419 C418 1.369 . S
C419 H422 0.928 . S
C420 N416 1.345 . S
C420 C421 1.371 . S
C420 H423 0.931 . S
C421 C417 1.391 . S
C421 C420 1.371 . S
C421 H428 0.930 . S
H422 C419 0.928 . S
H423 C420 0.931 . S
H424 C400 0.930 . S
H425 C397 0.930 . S
H426 C406 0.930 . S
H427 C418 0.929 . S
H428 C421 0.930 . S
C429 C430 1.351 . S
C429 N432 1.368 . S
C429 H434 0.931 . S
C430 C429 1.351 . S
C430 N431 1.373 . S
C430 H458 0.930 . S
N431 C430 1.373 . S
N431 C433 1.340 . S
N432 C429 1.368 . S
N432 C433 1.321 . S
N432 Co435 2.135 . S
C433 N431 1.340 . S
C433 N432 1.321 . S
C433 H457 0.930 . S
H434 C429 0.931 . S
Co435 N432 2.135 . S
Co435 N438 2.121 . S
Co435 O443 2.055 . S
Co435 O446 2.039 . S
Co435 N449 2.140 . S
C436 O437 1.227 . S
C436 O446 1.265 . S
O437 C436 1.227 . S
N438 Co435 2.121 . S
N438 C440 1.375 . S
N438 C441 1.313 . S
C439 C440 1.338 . S
C439 N442 1.377 . S
C439 H459 0.930 . S
C440 N438 1.375 . S
C440 C439 1.338 . S
C440 H444 0.931 . S
C441 N438 1.313 . S
C441 N442 1.344 . S
C441 H445 0.930 . S
N442 C439 1.377 . S
N442 C441 1.344 . S
O443 Co435 2.055 . S
O443 C447 1.253 . S
H444 C440 0.931 . S
H445 C441 0.930 . S
O446 Co435 2.039 . S
O446 C436 1.265 . S
C447 O443 1.253 . S
C447 O448 1.227 . S
O448 C447 1.227 . S
N449 Co435 2.140 . S
N449 C452 1.346 . S
N449 C453 1.345 . S
C450 C451 1.387 . S
C450 C454 1.391 . S
C451 C450 1.387 . S
C451 C452 1.369 . S
C451 H460 0.929 . S
C452 N449 1.346 . S
C452 C451 1.369 . S
C452 H455 0.928 . S
C453 N449 1.345 . S
C453 C454 1.371 . S
C453 H456 0.931 . S
C454 C450 1.391 . S
C454 C453 1.371 . S
C454 H461 0.930 . S
H455 C452 0.928 . S
H456 C453 0.931 . S
H457 C433 0.930 . S
H458 C430 0.930 . S
H459 C439 0.930 . S
H460 C451 0.929 . S
H461 C454 0.930 . S
C462 C463 1.351 . S
C462 N465 1.368 . S
C462 H467 0.931 . S
C463 C462 1.351 . S
C463 N464 1.373 . S
C463 H491 0.930 . S
N464 C463 1.373 . S
N464 C466 1.340 . S
N465 C462 1.368 . S
N465 C466 1.321 . S
N465 Co468 2.135 . S
C466 N464 1.340 . S
C466 N465 1.321 . S
C466 H490 0.930 . S
H467 C462 0.931 . S
Co468 N465 2.135 . S
Co468 N471 2.121 . S
Co468 O476 2.055 . S
Co468 O479 2.039 . S
Co468 N482 2.140 . S
C469 O470 1.227 . S
C469 O479 1.265 . S
O470 C469 1.227 . S
N471 Co468 2.121 . S
N471 C473 1.375 . S
N471 C474 1.313 . S
C472 C473 1.338 . S
C472 N475 1.377 . S
C472 H492 0.930 . S
C473 N471 1.375 . S
C473 C472 1.338 . S
C473 H477 0.931 . S
C474 N471 1.313 . S
C474 N475 1.344 . S
C474 H478 0.930 . S
N475 C472 1.377 . S
N475 C474 1.344 . S
O476 Co468 2.055 . S
O476 C480 1.253 . S
H477 C473 0.931 . S
H478 C474 0.930 . S
O479 Co468 2.039 . S
O479 C469 1.265 . S
C480 O476 1.253 . S
C480 O481 1.227 . S
O481 C480 1.227 . S
N482 Co468 2.140 . S
N482 C485 1.346 . S
N482 C486 1.345 . S
C483 C484 1.387 . S
C483 C487 1.391 . S
C484 C483 1.387 . S
C484 C485 1.369 . S
C484 H493 0.929 . S
C485 N482 1.346 . S
C485 C484 1.369 . S
C485 H488 0.928 . S
C486 N482 1.345 . S
C486 C487 1.371 . S
C486 H489 0.931 . S
C487 C483 1.391 . S
C487 C486 1.371 . S
C487 H494 0.930 . S
H488 C485 0.928 . S
H489 C486 0.931 . S
H490 C466 0.930 . S
H491 C463 0.930 . S
H492 C472 0.930 . S
H493 C484 0.929 . S
H494 C487 0.930 . S
C495 C496 1.351 . S
C495 N498 1.368 . S
C495 H500 0.931 . S
C496 C495 1.351 . S
C496 N497 1.373 . S
C496 H524 0.930 . S
N497 C496 1.373 . S
N497 C499 1.340 . S
N498 C495 1.368 . S
N498 C499 1.321 . S
N498 Co501 2.135 . S
C499 N497 1.340 . S
C499 N498 1.321 . S
C499 H523 0.930 . S
H500 C495 0.931 . S
Co501 N498 2.135 . S
Co501 N504 2.121 . S
Co501 O509 2.055 . S
Co501 O512 2.039 . S
Co501 N515 2.140 . S
C502 O503 1.227 . S
C502 O512 1.265 . S
O503 C502 1.227 . S
N504 Co501 2.121 . S
N504 C506 1.375 . S
N504 C507 1.313 . S
C505 C506 1.338 . S
C505 N508 1.377 . S
C505 H525 0.930 . S
C506 N504 1.375 . S
C506 C505 1.338 . S
C506 H510 0.931 . S
C507 N504 1.313 . S
C507 N508 1.344 . S
C507 H511 0.930 . S
N508 C505 1.377 . S
N508 C507 1.344 . S
O509 Co501 2.055 . S
O509 C513 1.253 . S
H510 C506 0.931 . S
H511 C507 0.930 . S
O512 Co501 2.039 . S
O512 C502 1.265 . S
C513 O509 1.253 . S
C513 O514 1.227 . S
O514 C513 1.227 . S
N515 Co501 2.140 . S
N515 C518 1.346 . S
N515 C519 1.345 . S
C516 C517 1.387 . S
C516 C520 1.391 . S
C517 C516 1.387 . S
C517 C518 1.369 . S
C517 H526 0.929 . S
C518 N515 1.346 . S
C518 C517 1.369 . S
C518 H521 0.928 . S
C519 N515 1.345 . S
C519 C520 1.371 . S
C519 H522 0.931 . S
C520 C516 1.391 . S
C520 C519 1.371 . S
C520 H527 0.930 . S
H521 C518 0.928 . S
H522 C519 0.931 . S
H523 C499 0.930 . S
H524 C496 0.930 . S
H525 C505 0.930 . S
H526 C517 0.929 . S
H527 C520 0.930 . S
C528 C529 1.351 . S
C528 N531 1.368 . S
C528 H533 0.931 . S
C529 C528 1.351 . S
C529 N530 1.373 . S
C529 H557 0.930 . S
N530 C529 1.373 . S
N530 C532 1.340 . S
N531 C528 1.368 . S
N531 C532 1.321 . S
N531 Co534 2.135 . S
C532 N530 1.340 . S
C532 N531 1.321 . S
C532 H556 0.930 . S
H533 C528 0.931 . S
Co534 N531 2.135 . S
Co534 N537 2.121 . S
Co534 O542 2.055 . S
Co534 O545 2.039 . S
Co534 N548 2.140 . S
C535 O536 1.227 . S
C535 O545 1.265 . S
O536 C535 1.227 . S
N537 Co534 2.121 . S
N537 C539 1.375 . S
N537 C540 1.313 . S
C538 C539 1.338 . S
C538 N541 1.377 . S
C538 H558 0.930 . S
C539 N537 1.375 . S
C539 C538 1.338 . S
C539 H543 0.931 . S
C540 N537 1.313 . S
C540 N541 1.344 . S
C540 H544 0.930 . S
N541 C538 1.377 . S
N541 C540 1.344 . S
O542 Co534 2.055 . S
O542 C546 1.253 . S
H543 C539 0.931 . S
H544 C540 0.930 . S
O545 Co534 2.039 . S
O545 C535 1.265 . S
C546 O542 1.253 . S
C546 O547 1.227 . S
O547 C546 1.227 . S
N548 Co534 2.140 . S
N548 C551 1.346 . S
N548 C552 1.345 . S
C549 C550 1.387 . S
C549 C553 1.391 . S
C550 C549 1.387 . S
C550 C551 1.369 . S
C550 H559 0.929 . S
C551 N548 1.346 . S
C551 C550 1.369 . S
C551 H554 0.928 . S
C552 N548 1.345 . S
C552 C553 1.371 . S
C552 H555 0.931 . S
C553 C549 1.391 . S
C553 C552 1.371 . S
C553 H560 0.930 . S
H554 C551 0.928 . S
H555 C552 0.931 . S
H556 C532 0.930 . S
H557 C529 0.930 . S
H558 C538 0.930 . S
H559 C550 0.929 . S
H560 C553 0.930 . S
C561 C562 1.351 . S
C561 N564 1.368 . S
C561 H566 0.931 . S
C562 C561 1.351 . S
C562 N563 1.373 . S
C562 H590 0.930 . S
N563 C562 1.373 . S
N563 C565 1.340 . S
N564 C561 1.368 . S
N564 C565 1.321 . S
N564 Co567 2.135 . S
C565 N563 1.340 . S
C565 N564 1.321 . S
C565 H589 0.930 . S
H566 C561 0.931 . S
Co567 N564 2.135 . S
Co567 N570 2.121 . S
Co567 O575 2.055 . S
Co567 O578 2.039 . S
Co567 N581 2.140 . S
C568 O569 1.227 . S
C568 O578 1.265 . S
O569 C568 1.227 . S
N570 Co567 2.121 . S
N570 C572 1.375 . S
N570 C573 1.313 . S
C571 C572 1.338 . S
C571 N574 1.377 . S
C571 H591 0.930 . S
C572 N570 1.375 . S
C572 C571 1.338 . S
C572 H576 0.931 . S
C573 N570 1.313 . S
C573 N574 1.344 . S
C573 H577 0.930 . S
N574 C571 1.377 . S
N574 C573 1.344 . S
O575 Co567 2.055 . S
O575 C579 1.253 . S
H576 C572 0.931 . S
H577 C573 0.930 . S
O578 Co567 2.039 . S
O578 C568 1.265 . S
C579 O575 1.253 . S
C579 O580 1.227 . S
O580 C579 1.227 . S
N581 Co567 2.140 . S
N581 C584 1.346 . S
N581 C585 1.345 . S
C582 C583 1.387 . S
C582 C586 1.391 . S
C583 C582 1.387 . S
C583 C584 1.369 . S
C583 H592 0.929 . S
C584 N581 1.346 . S
C584 C583 1.369 . S
C584 H587 0.928 . S
C585 N581 1.345 . S
C585 C586 1.371 . S
C585 H588 0.931 . S
C586 C582 1.391 . S
C586 C585 1.371 . S
C586 H593 0.930 . S
H587 C584 0.928 . S
H588 C585 0.931 . S
H589 C565 0.930 . S
H590 C562 0.930 . S
H591 C571 0.930 . S
H592 C583 0.929 . S
H593 C586 0.930 . S
C594 C595 1.391 . S
C594 C596 1.394 . S
C594 H610 0.931 . S
C595 C594 1.391 . S
C595 C599 1.376 . S
C596 C594 1.394 . S
C596 C597 1.369 . S
C596 C600 1.531 . S
C597 C596 1.369 . S
C597 C598 1.410 . S
C597 C605 1.503 . S
C598 C597 1.410 . S
C598 C599 1.392 . S
C598 C601 1.511 . S
C599 C595 1.376 . S
C599 C598 1.392 . S
C599 H611 0.929 . S
C600 C596 1.531 . S
C600 H612 0.960 . S
C600 H613 0.962 . S
C600 H614 0.960 . S
C601 C598 1.511 . S
C601 H615 0.961 . S
C601 H616 0.961 . S
C601 H617 0.961 . S
C602 C603 1.370 . S
C602 C604 1.363 . S
C602 H618 0.931 . S
C603 C602 1.370 . S
C603 C607 1.408 . S
C604 C602 1.363 . S
C604 C605 1.370 . S
C604 C608 1.524 . S
C605 C597 1.503 . S
C605 C604 1.370 . S
C605 C606 1.403 . S
C606 C605 1.403 . S
C606 C607 1.404 . S
C606 C609 1.539 . S
C607 C603 1.408 . S
C607 C606 1.404 . S
C607 H619 0.930 . S
C608 C604 1.524 . S
C608 H620 0.956 . S
C608 H621 0.961 . S
C608 H622 0.961 . S
C609 C606 1.539 . S
C609 H623 0.958 . S
C609 H624 0.961 . S
C609 H625 0.960 . S
H610 C594 0.931 . S
H611 C599 0.929 . S
H612 C600 0.960 . S
H613 C600 0.962 . S
H614 C600 0.960 . S
H615 C601 0.961 . S
H616 C601 0.961 . S
H617 C601 0.961 . S
H618 C602 0.931 . S
H619 C607 0.930 . S
H620 C608 0.956 . S
H621 C608 0.961 . S
H622 C608 0.961 . S
H623 C609 0.958 . S
H624 C609 0.961 . S
H625 C609 0.960 . S
C626 C627 1.391 . S
C626 C628 1.394 . S
C626 H642 0.931 . S
C627 C626 1.391 . S
C627 C631 1.376 . S
C628 C626 1.394 . S
C628 C629 1.369 . S
C628 C632 1.531 . S
C629 C628 1.369 . S
C629 C630 1.410 . S
C629 C637 1.503 . S
C630 C629 1.410 . S
C630 C631 1.392 . S
C630 C633 1.511 . S
C631 C627 1.376 . S
C631 C630 1.392 . S
C631 H643 0.929 . S
C632 C628 1.531 . S
C632 H644 0.960 . S
C632 H645 0.962 . S
C632 H646 0.960 . S
C633 C630 1.511 . S
C633 H647 0.961 . S
C633 H648 0.961 . S
C633 H649 0.961 . S
C634 C635 1.370 . S
C634 C636 1.363 . S
C634 H650 0.931 . S
C635 C634 1.370 . S
C635 C639 1.408 . S
C636 C634 1.363 . S
C636 C637 1.370 . S
C636 C640 1.524 . S
C637 C629 1.503 . S
C637 C636 1.370 . S
C637 C638 1.403 . S
C638 C637 1.403 . S
C638 C639 1.404 . S
C638 C641 1.539 . S
C639 C635 1.408 . S
C639 C638 1.404 . S
C639 H651 0.930 . S
C640 C636 1.524 . S
C640 H652 0.956 . S
C640 H653 0.961 . S
C640 H654 0.961 . S
C641 C638 1.539 . S
C641 H655 0.958 . S
C641 H656 0.961 . S
C641 H657 0.960 . S
H642 C626 0.931 . S
H643 C631 0.929 . S
H644 C632 0.960 . S
H645 C632 0.962 . S
H646 C632 0.960 . S
H647 C633 0.961 . S
H648 C633 0.961 . S
H649 C633 0.961 . S
H650 C634 0.931 . S
H651 C639 0.930 . S
H652 C640 0.956 . S
H653 C640 0.961 . S
H654 C640 0.961 . S
H655 C641 0.958 . S
H656 C641 0.961 . S
H657 C641 0.960 . S
C658 C659 1.391 . S
C658 C660 1.394 . S
C658 H674 0.931 . S
C659 C658 1.391 . S
C659 C663 1.376 . S
C660 C658 1.394 . S
C660 C661 1.369 . S
C660 C664 1.531 . S
C661 C660 1.369 . S
C661 C662 1.410 . S
C661 C669 1.503 . S
C662 C661 1.410 . S
C662 C663 1.392 . S
C662 C665 1.511 . S
C663 C659 1.376 . S
C663 C662 1.392 . S
C663 H675 0.929 . S
C664 C660 1.531 . S
C664 H676 0.960 . S
C664 H677 0.962 . S
C664 H678 0.960 . S
C665 C662 1.511 . S
C665 H679 0.961 . S
C665 H680 0.961 . S
C665 H681 0.961 . S
C666 C667 1.370 . S
C666 C668 1.363 . S
C666 H682 0.931 . S
C667 C666 1.370 . S
C667 C671 1.408 . S
C668 C666 1.363 . S
C668 C669 1.370 . S
C668 C672 1.524 . S
C669 C661 1.503 . S
C669 C668 1.370 . S
C669 C670 1.403 . S
C670 C669 1.403 . S
C670 C671 1.404 . S
C670 C673 1.539 . S
C671 C667 1.408 . S
C671 C670 1.404 . S
C671 H683 0.930 . S
C672 C668 1.524 . S
C672 H684 0.956 . S
C672 H685 0.961 . S
C672 H686 0.961 . S
C673 C670 1.539 . S
C673 H687 0.958 . S
C673 H688 0.961 . S
C673 H689 0.960 . S
H674 C658 0.931 . S
H675 C663 0.929 . S
H676 C664 0.960 . S
H677 C664 0.962 . S
H678 C664 0.960 . S
H679 C665 0.961 . S
H680 C665 0.961 . S
H681 C665 0.961 . S
H682 C666 0.931 . S
H683 C671 0.930 . S
H684 C672 0.956 . S
H685 C672 0.961 . S
H686 C672 0.961 . S
H687 C673 0.958 . S
H688 C673 0.961 . S
H689 C673 0.960 . S
C690 C691 1.391 . S
C690 C692 1.394 . S
C690 H706 0.931 . S
C691 C690 1.391 . S
C691 C695 1.376 . S
C692 C690 1.394 . S
C692 C693 1.369 . S
C692 C696 1.531 . S
C693 C692 1.369 . S
C693 C694 1.410 . S
C693 C701 1.503 . S
C694 C693 1.410 . S
C694 C695 1.392 . S
C694 C697 1.511 . S
C695 C691 1.376 . S
C695 C694 1.392 . S
C695 H707 0.929 . S
C696 C692 1.531 . S
C696 H708 0.960 . S
C696 H709 0.962 . S
C696 H710 0.960 . S
C697 C694 1.511 . S
C697 H711 0.961 . S
C697 H712 0.961 . S
C697 H713 0.961 . S
C698 C699 1.370 . S
C698 C700 1.363 . S
C698 H714 0.931 . S
C699 C698 1.370 . S
C699 C703 1.408 . S
C700 C698 1.363 . S
C700 C701 1.370 . S
C700 C704 1.524 . S
C701 C693 1.503 . S
C701 C700 1.370 . S
C701 C702 1.403 . S
C702 C701 1.403 . S
C702 C703 1.404 . S
C702 C705 1.539 . S
C703 C699 1.408 . S
C703 C702 1.404 . S
C703 H715 0.930 . S
C704 C700 1.524 . S
C704 H716 0.956 . S
C704 H717 0.961 . S
C704 H718 0.961 . S
C705 C702 1.539 . S
C705 H719 0.958 . S
C705 H720 0.961 . S
C705 H721 0.960 . S
H706 C690 0.931 . S
H707 C695 0.929 . S
H708 C696 0.960 . S
H709 C696 0.962 . S
H710 C696 0.960 . S
H711 C697 0.961 . S
H712 C697 0.961 . S
H713 C697 0.961 . S
H714 C698 0.931 . S
H715 C703 0.930 . S
H716 C704 0.956 . S
H717 C704 0.961 . S
H718 C704 0.961 . S
H719 C705 0.958 . S
H720 C705 0.961 . S
H721 C705 0.960 . S
C722 C723 1.391 . S
C722 C724 1.394 . S
C722 H738 0.931 . S
C723 C722 1.391 . S
C723 C727 1.376 . S
C724 C722 1.394 . S
C724 C725 1.369 . S
C724 C728 1.531 . S
C725 C724 1.369 . S
C725 C726 1.410 . S
C725 C733 1.503 . S
C726 C725 1.410 . S
C726 C727 1.392 . S
C726 C729 1.511 . S
C727 C723 1.376 . S
C727 C726 1.392 . S
C727 H739 0.929 . S
C728 C724 1.531 . S
C728 H740 0.960 . S
C728 H741 0.962 . S
C728 H742 0.960 . S
C729 C726 1.511 . S
C729 H743 0.961 . S
C729 H744 0.961 . S
C729 H745 0.961 . S
C730 C731 1.370 . S
C730 C732 1.363 . S
C730 H746 0.931 . S
C731 C730 1.370 . S
C731 C735 1.408 . S
C732 C730 1.363 . S
C732 C733 1.370 . S
C732 C736 1.524 . S
C733 C725 1.503 . S
C733 C732 1.370 . S
C733 C734 1.403 . S
C734 C733 1.403 . S
C734 C735 1.404 . S
C734 C737 1.539 . S
C735 C731 1.408 . S
C735 C734 1.404 . S
C735 H747 0.930 . S
C736 C732 1.524 . S
C736 H748 0.956 . S
C736 H749 0.961 . S
C736 H750 0.961 . S
C737 C734 1.539 . S
C737 H751 0.958 . S
C737 H752 0.961 . S
C737 H753 0.960 . S
H738 C722 0.931 . S
H739 C727 0.929 . S
H740 C728 0.960 . S
H741 C728 0.962 . S
H742 C728 0.960 . S
H743 C729 0.961 . S
H744 C729 0.961 . S
H745 C729 0.961 . S
H746 C730 0.931 . S
H747 C735 0.930 . S
H748 C736 0.956 . S
H749 C736 0.961 . S
H750 C736 0.961 . S
H751 C737 0.958 . S
H752 C737 0.961 . S
H753 C737 0.960 . S
C754 C755 1.391 . S
C754 C756 1.394 . S
C754 H770 0.931 . S
C755 C754 1.391 . S
C755 C759 1.376 . S
C756 C754 1.394 . S
C756 C757 1.369 . S
C756 C760 1.531 . S
C757 C756 1.369 . S
C757 C758 1.410 . S
C757 C765 1.503 . S
C758 C757 1.410 . S
C758 C759 1.392 . S
C758 C761 1.511 . S
C759 C755 1.376 . S
C759 C758 1.392 . S
C759 H771 0.929 . S
C760 C756 1.531 . S
C760 H772 0.960 . S
C760 H773 0.962 . S
C760 H774 0.960 . S
C761 C758 1.511 . S
C761 H775 0.961 . S
C761 H776 0.961 . S
C761 H777 0.961 . S
C762 C763 1.370 . S
C762 C764 1.363 . S
C762 H778 0.931 . S
C763 C762 1.370 . S
C763 C767 1.408 . S
C764 C762 1.363 . S
C764 C765 1.370 . S
C764 C768 1.524 . S
C765 C757 1.503 . S
C765 C764 1.370 . S
C765 C766 1.403 . S
C766 C765 1.403 . S
C766 C767 1.404 . S
C766 C769 1.539 . S
C767 C763 1.408 . S
C767 C766 1.404 . S
C767 H779 0.930 . S
C768 C764 1.524 . S
C768 H780 0.956 . S
C768 H781 0.961 . S
C768 H782 0.961 . S
C769 C766 1.539 . S
C769 H783 0.958 . S
C769 H784 0.961 . S
C769 H785 0.960 . S
H770 C754 0.931 . S
H771 C759 0.929 . S
H772 C760 0.960 . S
H773 C760 0.962 . S
H774 C760 0.960 . S
H775 C761 0.961 . S
H776 C761 0.961 . S
H777 C761 0.961 . S
H778 C762 0.931 . S
H779 C767 0.930 . S
H780 C768 0.956 . S
H781 C768 0.961 . S
H782 C768 0.961 . S
H783 C769 0.958 . S
H784 C769 0.961 . S
H785 C769 0.960 . S
C786 C787 1.391 . S
C786 C788 1.394 . S
C786 H802 0.931 . S
C787 C786 1.391 . S
C787 C791 1.376 . S
C788 C786 1.394 . S
C788 C789 1.369 . S
C788 C792 1.531 . S
C789 C788 1.369 . S
C789 C790 1.410 . S
C789 C797 1.503 . S
C790 C789 1.410 . S
C790 C791 1.392 . S
C790 C793 1.511 . S
C791 C787 1.376 . S
C791 C790 1.392 . S
C791 H803 0.929 . S
C792 C788 1.531 . S
C792 H804 0.960 . S
C792 H805 0.962 . S
C792 H806 0.960 . S
C793 C790 1.511 . S
C793 H807 0.961 . S
C793 H808 0.961 . S
C793 H809 0.961 . S
C794 C795 1.370 . S
C794 C796 1.363 . S
C794 H810 0.931 . S
C795 C794 1.370 . S
C795 C799 1.408 . S
C796 C794 1.363 . S
C796 C797 1.370 . S
C796 C800 1.524 . S
C797 C789 1.503 . S
C797 C796 1.370 . S
C797 C798 1.403 . S
C798 C797 1.403 . S
C798 C799 1.404 . S
C798 C801 1.539 . S
C799 C795 1.408 . S
C799 C798 1.404 . S
C799 H811 0.930 . S
C800 C796 1.524 . S
C800 H812 0.956 . S
C800 H813 0.961 . S
C800 H814 0.961 . S
C801 C798 1.539 . S
C801 H815 0.958 . S
C801 H816 0.961 . S
C801 H817 0.960 . S
H802 C786 0.931 . S
H803 C791 0.929 . S
H804 C792 0.960 . S
H805 C792 0.962 . S
H806 C792 0.960 . S
H807 C793 0.961 . S
H808 C793 0.961 . S
H809 C793 0.961 . S
H810 C794 0.931 . S
H811 C799 0.930 . S
H812 C800 0.956 . S
H813 C800 0.961 . S
H814 C800 0.961 . S
H815 C801 0.958 . S
H816 C801 0.961 . S
H817 C801 0.960 . S
C818 C819 1.391 . S
C818 C820 1.394 . S
C818 H834 0.931 . S
C819 C818 1.391 . S
C819 C823 1.376 . S
C820 C818 1.394 . S
C820 C821 1.369 . S
C820 C824 1.531 . S
C821 C820 1.369 . S
C821 C822 1.410 . S
C821 C829 1.503 1_565 S
C822 C821 1.410 . S
C822 C823 1.392 . S
C822 C825 1.511 1_565 S
C823 C819 1.376 . S
C823 C822 1.392 . S
C823 H835 0.929 . S
C824 C820 1.531 . S
C824 H836 0.960 . S
C824 H837 0.962 . S
C824 H838 0.960 . S
C825 C822 1.511 1_545 S
C825 H839 0.961 . S
C825 H840 0.961 . S
C825 H841 0.961 . S
C826 C827 1.370 . S
C826 C828 1.363 . S
C826 H842 0.931 . S
C827 C826 1.370 . S
C827 C831 1.408 . S
C828 C826 1.363 . S
C828 C829 1.370 . S
C828 C832 1.524 1_545 S
C829 C821 1.503 1_545 S
C829 C828 1.370 . S
C829 C830 1.403 . S
C830 C829 1.403 . S
C830 C831 1.404 . S
C830 C833 1.539 . S
C831 C827 1.408 . S
C831 C830 1.404 . S
C831 H843 0.930 . S
C832 C828 1.524 1_565 S
C832 H844 0.956 . S
C832 H845 0.961 . S
C832 H846 0.961 . S
C833 C830 1.539 . S
C833 H847 0.958 . S
C833 H848 0.961 . S
C833 H849 0.960 . S
H834 C818 0.931 . S
H835 C823 0.929 . S
H836 C824 0.960 . S
H837 C824 0.962 . S
H838 C824 0.960 . S
H839 C825 0.961 . S
H840 C825 0.961 . S
H841 C825 0.961 . S
H842 C826 0.931 . S
H843 C831 0.930 . S
H844 C832 0.956 . S
H845 C832 0.961 . S
H846 C832 0.961 . S
H847 C833 0.958 . S
H848 C833 0.961 . S
H849 C833 0.960 . S
C850 C851 1.391 . S
C850 C852 1.394 . S
C850 H866 0.931 . S
C851 C850 1.391 . S
C851 C855 1.376 . S
C852 C850 1.394 . S
C852 C853 1.369 . S
C852 C856 1.531 1_455 S
C853 C852 1.369 . S
C853 C854 1.410 . S
C853 C861 1.503 1_455 S
C854 C853 1.410 . S
C854 C855 1.392 . S
C854 C857 1.511 . S
C855 C851 1.376 . S
C855 C854 1.392 . S
C855 H867 0.929 . S
C856 C852 1.531 1_655 S
C856 H868 0.960 . S
C856 H869 0.962 . S
C856 H870 0.960 . S
C857 C854 1.511 . S
C857 H871 0.961 . S
C857 H872 0.961 . S
C857 H873 0.961 . S
C858 C859 1.370 . S
C858 C860 1.363 . S
C858 H874 0.931 . S
C859 C858 1.370 . S
C859 C863 1.408 . S
C860 C858 1.363 . S
C860 C861 1.370 . S
C860 C864 1.524 . S
C861 C853 1.503 1_655 S
C861 C860 1.370 . S
C861 C862 1.403 . S
C862 C861 1.403 . S
C862 C863 1.404 . S
C862 C865 1.539 . S
C863 C859 1.408 . S
C863 C862 1.404 . S
C863 H875 0.930 . S
C864 C860 1.524 . S
C864 H876 0.956 . S
C864 H877 0.961 1_655 S
C864 H878 0.961 . S
C865 C862 1.539 . S
C865 H879 0.958 . S
C865 H880 0.961 . S
C865 H881 0.960 . S
H866 C850 0.931 . S
H867 C855 0.929 . S
H868 C856 0.960 . S
H869 C856 0.962 . S
H870 C856 0.960 . S
H871 C857 0.961 . S
H872 C857 0.961 . S
H873 C857 0.961 . S
H874 C858 0.931 . S
H875 C863 0.930 . S
H876 C864 0.956 . S
H877 C864 0.961 1_455 S
H878 C864 0.961 . S
H879 C865 0.958 . S
H880 C865 0.961 . S
H881 C865 0.960 . S
C882 C883 1.391 . S
C882 C884 1.394 . S
C882 H898 0.931 . S
C883 C882 1.391 . S
C883 C887 1.376 . S
C884 C882 1.394 . S
C884 C885 1.369 . S
C884 C888 1.531 . S
C885 C884 1.369 . S
C885 C886 1.410 . S
C885 C893 1.503 . S
C886 C885 1.410 . S
C886 C887 1.392 . S
C886 C889 1.511 . S
C887 C883 1.376 . S
C887 C886 1.392 . S
C887 H899 0.929 . S
C888 C884 1.531 . S
C888 H900 0.960 . S
C888 H901 0.962 . S
C888 H902 0.960 . S
C889 C886 1.511 . S
C889 H903 0.961 . S
C889 H904 0.961 . S
C889 H905 0.961 . S
C890 C891 1.370 . S
C890 C892 1.363 . S
C890 H906 0.931 . S
C891 C890 1.370 . S
C891 C895 1.408 . S
C892 C890 1.363 . S
C892 C893 1.370 . S
C892 C896 1.524 . S
C893 C885 1.503 . S
C893 C892 1.370 . S
C893 C894 1.403 . S
C894 C893 1.403 . S
C894 C895 1.404 . S
C894 C897 1.539 . S
C895 C891 1.408 . S
C895 C894 1.404 . S
C895 H907 0.930 . S
C896 C892 1.524 . S
C896 H908 0.956 . S
C896 H909 0.961 . S
C896 H910 0.961 . S
C897 C894 1.539 . S
C897 H911 0.958 . S
C897 H912 0.961 . S
C897 H913 0.960 . S
H898 C882 0.931 . S
H899 C887 0.929 . S
H900 C888 0.960 . S
H901 C888 0.962 . S
H902 C888 0.960 . S
H903 C889 0.961 . S
H904 C889 0.961 . S
H905 C889 0.961 . S
H906 C890 0.931 . S
H907 C895 0.930 . S
H908 C896 0.956 . S
H909 C896 0.961 . S
H910 C896 0.961 . S
H911 C897 0.958 . S
H912 C897 0.961 . S
H913 C897 0.960 . S
C914 C915 1.391 . S
C914 C916 1.394 . S
C914 H930 0.931 . S
C915 C914 1.391 . S
C915 C919 1.376 . S
C916 C914 1.394 . S
C916 C917 1.369 . S
C916 C920 1.531 . S
C917 C916 1.369 . S
C917 C918 1.410 . S
C917 C925 1.503 . S
C918 C917 1.410 . S
C918 C919 1.392 . S
C918 C921 1.511 . S
C919 C915 1.376 . S
C919 C918 1.392 . S
C919 H931 0.929 . S
C920 C916 1.531 . S
C920 H932 0.960 . S
C920 H933 0.962 . S
C920 H934 0.960 . S
C921 C918 1.511 . S
C921 H935 0.961 . S
C921 H936 0.961 . S
C921 H937 0.961 . S
C922 C923 1.370 . S
C922 C924 1.363 . S
C922 H938 0.931 . S
C923 C922 1.370 . S
C923 C927 1.408 . S
C924 C922 1.363 . S
C924 C925 1.370 . S
C924 C928 1.524 . S
C925 C917 1.503 . S
C925 C924 1.370 . S
C925 C926 1.403 . S
C926 C925 1.403 . S
C926 C927 1.404 . S
C926 C929 1.539 . S
C927 C923 1.408 . S
C927 C926 1.404 . S
C927 H939 0.930 . S
C928 C924 1.524 . S
C928 H940 0.956 . S
C928 H941 0.961 . S
C928 H942 0.961 . S
C929 C926 1.539 . S
C929 H943 0.958 . S
C929 H944 0.961 . S
C929 H945 0.960 . S
H930 C914 0.931 . S
H931 C919 0.929 . S
H932 C920 0.960 . S
H933 C920 0.962 . S
H934 C920 0.960 . S
H935 C921 0.961 . S
H936 C921 0.961 . S
H937 C921 0.961 . S
H938 C922 0.931 . S
H939 C927 0.930 . S
H940 C928 0.956 . S
H941 C928 0.961 . S
H942 C928 0.961 . S
H943 C929 0.958 . S
H944 C929 0.961 . S
H945 C929 0.960 . S
C946 C947 1.391 . S
C946 C948 1.394 . S
C946 H962 0.931 . S
C947 C946 1.391 . S
C947 C951 1.376 . S
C948 C946 1.394 . S
C948 C949 1.369 . S
C948 C952 1.531 . S
C949 C948 1.369 . S
C949 C950 1.410 . S
C949 C957 1.503 . S
C950 C949 1.410 . S
C950 C951 1.392 . S
C950 C953 1.511 . S
C951 C947 1.376 . S
C951 C950 1.392 . S
C951 H963 0.929 . S
C952 C948 1.531 . S
C952 H964 0.960 . S
C952 H965 0.962 . S
C952 H966 0.960 . S
C953 C950 1.511 . S
C953 H967 0.961 . S
C953 H968 0.961 . S
C953 H969 0.961 . S
C954 C955 1.370 . S
C954 C956 1.363 . S
C954 H970 0.931 . S
C955 C954 1.370 . S
C955 C959 1.408 . S
C956 C954 1.363 . S
C956 C957 1.370 . S
C956 C960 1.524 . S
C957 C949 1.503 . S
C957 C956 1.370 . S
C957 C958 1.403 . S
C958 C957 1.403 . S
C958 C959 1.404 . S
C958 C961 1.539 . S
C959 C955 1.408 . S
C959 C958 1.404 . S
C959 H971 0.930 . S
C960 C956 1.524 . S
C960 H972 0.956 . S
C960 H973 0.961 . S
C960 H974 0.961 . S
C961 C958 1.539 . S
C961 H975 0.958 . S
C961 H976 0.961 . S
C961 H977 0.960 . S
H962 C946 0.931 . S
H963 C951 0.929 . S
H964 C952 0.960 . S
H965 C952 0.962 . S
H966 C952 0.960 . S
H967 C953 0.961 . S
H968 C953 0.961 . S
H969 C953 0.961 . S
H970 C954 0.931 . S
H971 C959 0.930 . S
H972 C960 0.956 . S
H973 C960 0.961 . S
H974 C960 0.961 . S
H975 C961 0.958 . S
H976 C961 0.961 . S
H977 C961 0.960 . S
C978 C979 1.391 . S
C978 C980 1.394 . S
C978 H994 0.931 . S
C979 C978 1.391 . S
C979 C983 1.376 . S
C980 C978 1.394 . S
C980 C981 1.369 . S
C980 C984 1.531 . S
C981 C980 1.369 . S
C981 C982 1.410 . S
C981 C989 1.503 . S
C982 C981 1.410 . S
C982 C983 1.392 . S
C982 C985 1.511 . S
C983 C979 1.376 . S
C983 C982 1.392 . S
C983 H995 0.929 . S
C984 C980 1.531 . S
C984 H996 0.960 . S
C984 H997 0.962 . S
C984 H998 0.960 . S
C985 C982 1.511 . S
C985 H999 0.961 . S
C985 H1000 0.961 . S
C985 H1001 0.961 . S
C986 C987 1.370 . S
C986 C988 1.363 . S
C986 H1002 0.931 . S
C987 C986 1.370 . S
C987 C991 1.408 . S
C988 C986 1.363 . S
C988 C989 1.370 . S
C988 C992 1.524 . S
C989 C981 1.503 . S
C989 C988 1.370 . S
C989 C990 1.403 . S
C990 C989 1.403 . S
C990 C991 1.404 . S
C990 C993 1.539 . S
C991 C987 1.408 . S
C991 C990 1.404 . S
C991 H1003 0.930 . S
C992 C988 1.524 . S
C992 H1004 0.956 . S
C992 H1005 0.961 . S
C992 H1006 0.961 . S
C993 C990 1.539 . S
C993 H1007 0.958 . S
C993 H1008 0.961 . S
C993 H1009 0.960 . S
H994 C978 0.931 . S
H995 C983 0.929 . S
H996 C984 0.960 . S
H997 C984 0.962 . S
H998 C984 0.960 . S
H999 C985 0.961 . S
H1000 C985 0.961 . S
H1001 C985 0.961 . S
H1002 C986 0.931 . S
H1003 C991 0.930 . S
H1004 C992 0.956 . S
H1005 C992 0.961 . S
H1006 C992 0.961 . S
H1007 C993 0.958 . S
H1008 C993 0.961 . S
H1009 C993 0.960 . S
C1010 C1011 1.391 . S
C1010 C1012 1.394 . S
C1010 H1026 0.931 . S
C1011 C1010 1.391 . S
C1011 C1015 1.376 . S
C1012 C1010 1.394 . S
C1012 C1013 1.369 . S
C1012 C1016 1.531 . S
C1013 C1012 1.369 . S
C1013 C1014 1.410 . S
C1013 C1021 1.503 . S
C1014 C1013 1.410 . S
C1014 C1015 1.392 . S
C1014 C1017 1.511 . S
C1015 C1011 1.376 . S
C1015 C1014 1.392 . S
C1015 H1027 0.929 . S
C1016 C1012 1.531 . S
C1016 H1028 0.960 . S
C1016 H1029 0.962 . S
C1016 H1030 0.960 . S
C1017 C1014 1.511 . S
C1017 H1031 0.961 . S
C1017 H1032 0.961 . S
C1017 H1033 0.961 . S
C1018 C1019 1.370 . S
C1018 C1020 1.363 . S
C1018 H1034 0.931 . S
C1019 C1018 1.370 . S
C1019 C1023 1.408 . S
C1020 C1018 1.363 . S
C1020 C1021 1.370 . S
C1020 C1024 1.524 . S
C1021 C1013 1.503 . S
C1021 C1020 1.370 . S
C1021 C1022 1.403 . S
C1022 C1021 1.403 . S
C1022 C1023 1.404 . S
C1022 C1025 1.539 . S
C1023 C1019 1.408 . S
C1023 C1022 1.404 . S
C1023 H1035 0.930 . S
C1024 C1020 1.524 . S
C1024 H1036 0.956 . S
C1024 H1037 0.961 . S
C1024 H1038 0.961 . S
C1025 C1022 1.539 . S
C1025 H1039 0.958 . S
C1025 H1040 0.961 . S
C1025 H1041 0.960 . S
H1026 C1010 0.931 . S
H1027 C1015 0.929 . S
H1028 C1016 0.960 . S
H1029 C1016 0.962 . S
H1030 C1016 0.960 . S
H1031 C1017 0.961 . S
H1032 C1017 0.961 . S
H1033 C1017 0.961 . S
H1034 C1018 0.931 . S
H1035 C1023 0.930 . S
H1036 C1024 0.956 . S
H1037 C1024 0.961 . S
H1038 C1024 0.961 . S
H1039 C1025 0.958 . S
H1040 C1025 0.961 . S
H1041 C1025 0.960 . S
C1042 C1043 1.391 . S
C1042 C1044 1.394 . S
C1042 H1058 0.931 . S
C1043 C1042 1.391 . S
C1043 C1047 1.376 . S
C1044 C1042 1.394 . S
C1044 C1045 1.369 . S
C1044 C1048 1.531 . S
C1045 C1044 1.369 . S
C1045 C1046 1.410 . S
C1045 C1053 1.503 . S
C1046 C1045 1.410 . S
C1046 C1047 1.392 . S
C1046 C1049 1.511 . S
C1047 C1043 1.376 . S
C1047 C1046 1.392 . S
C1047 H1059 0.929 . S
C1048 C1044 1.531 . S
C1048 H1060 0.960 . S
C1048 H1061 0.962 . S
C1048 H1062 0.960 . S
C1049 C1046 1.511 . S
C1049 H1063 0.961 . S
C1049 H1064 0.961 . S
C1049 H1065 0.961 . S
C1050 C1051 1.370 . S
C1050 C1052 1.363 . S
C1050 H1066 0.931 . S
C1051 C1050 1.370 . S
C1051 C1055 1.408 . S
C1052 C1050 1.363 . S
C1052 C1053 1.370 . S
C1052 C1056 1.524 . S
C1053 C1045 1.503 . S
C1053 C1052 1.370 . S
C1053 C1054 1.403 . S
C1054 C1053 1.403 . S
C1054 C1055 1.404 . S
C1054 C1057 1.539 . S
C1055 C1051 1.408 . S
C1055 C1054 1.404 . S
C1055 H1067 0.930 . S
C1056 C1052 1.524 . S
C1056 H1068 0.956 . S
C1056 H1069 0.961 . S
C1056 H1070 0.961 . S
C1057 C1054 1.539 . S
C1057 H1071 0.958 . S
C1057 H1072 0.961 . S
C1057 H1073 0.960 . S
H1058 C1042 0.931 . S
H1059 C1047 0.929 . S
H1060 C1048 0.960 . S
H1061 C1048 0.962 . S
H1062 C1048 0.960 . S
H1063 C1049 0.961 . S
H1064 C1049 0.961 . S
H1065 C1049 0.961 . S
H1066 C1050 0.931 . S
H1067 C1055 0.930 . S
H1068 C1056 0.956 . S
H1069 C1056 0.961 . S
H1070 C1056 0.961 . S
H1071 C1057 0.958 . S
H1072 C1057 0.961 . S
H1073 C1057 0.960 . S
C1074 C1075 1.391 . S
C1074 C1076 1.394 . S
C1074 H1090 0.931 . S
C1075 C1074 1.391 . S
C1075 C1079 1.376 . S
C1076 C1074 1.394 . S
C1076 C1077 1.369 . S
C1076 C1080 1.531 . S
C1077 C1076 1.369 . S
C1077 C1078 1.410 . S
C1077 C1085 1.503 1_654 S
C1078 C1077 1.410 . S
C1078 C1079 1.392 . S
C1078 C1081 1.511 . S
C1079 C1075 1.376 . S
C1079 C1078 1.392 . S
C1079 H1091 0.929 . S
C1080 C1076 1.531 . S
C1080 H1092 0.960 1_655 S
C1080 H1093 0.962 . S
C1080 H1094 0.960 . S
C1081 C1078 1.511 . S
C1081 H1095 0.961 1_554 S
C1081 H1096 0.961 1_554 S
C1081 H1097 0.961 . S
C1082 C1083 1.370 . S
C1082 C1084 1.363 . S
C1082 H1098 0.931 . S
C1083 C1082 1.370 . S
C1083 C1087 1.408 . S
C1084 C1082 1.363 . S
C1084 C1085 1.370 . S
C1084 C1088 1.524 1_455 S
C1085 C1077 1.503 1_456 S
C1085 C1084 1.370 . S
C1085 C1086 1.403 1_556 S
C1086 C1085 1.403 1_554 S
C1086 C1087 1.404 1_554 S
C1086 C1089 1.539 . S
C1087 C1083 1.408 . S
C1087 C1086 1.404 1_556 S
C1087 H1099 0.930 . S
C1088 C1084 1.524 1_655 S
C1088 H1100 0.956 . S
C1088 H1101 0.961 . S
C1088 H1102 0.961 . S
C1089 C1086 1.539 . S
C1089 H1103 0.958 . S
C1089 H1104 0.961 . S
C1089 H1105 0.960 . S
H1090 C1074 0.931 . S
H1091 C1079 0.929 . S
H1092 C1080 0.960 1_455 S
H1093 C1080 0.962 . S
H1094 C1080 0.960 . S
H1095 C1081 0.961 1_556 S
H1096 C1081 0.961 1_556 S
H1097 C1081 0.961 . S
H1098 C1082 0.931 . S
H1099 C1087 0.930 . S
H1100 C1088 0.956 . S
H1101 C1088 0.961 . S
H1102 C1088 0.961 . S
H1103 C1089 0.958 . S
H1104 C1089 0.961 . S
H1105 C1089 0.960 . S
C1106 C1107 1.391 . S
C1106 C1108 1.394 . S
C1106 H1122 0.931 . S
C1107 C1106 1.391 . S
C1107 C1111 1.376 . S
C1108 C1106 1.394 . S
C1108 C1109 1.369 . S
C1108 C1112 1.531 . S
C1109 C1108 1.369 . S
C1109 C1110 1.410 . S
C1109 C1117 1.503 1_556 S
C1110 C1109 1.410 . S
C1110 C1111 1.392 . S
C1110 C1113 1.511 1_556 S
C1111 C1107 1.376 . S
C1111 C1110 1.392 . S
C1111 H1123 0.929 . S
C1112 C1108 1.531 . S
C1112 H1124 0.960 . S
C1112 H1125 0.962 . S
C1112 H1126 0.960 . S
C1113 C1110 1.511 1_554 S
C1113 H1127 0.961 . S
C1113 H1128 0.961 . S
C1113 H1129 0.961 1_554 S
C1114 C1115 1.370 . S
C1114 C1116 1.363 . S
C1114 H1130 0.931 . S
C1115 C1114 1.370 . S
C1115 C1119 1.408 . S
C1116 C1114 1.363 . S
C1116 C1117 1.370 . S
C1116 C1120 1.524 . S
C1117 C1109 1.503 1_554 S
C1117 C1116 1.370 . S
C1117 C1118 1.403 1_554 S
C1118 C1117 1.403 1_556 S
C1118 C1119 1.404 1_556 S
C1118 C1121 1.539 . S
C1119 C1115 1.408 . S
C1119 C1118 1.404 1_554 S
C1119 H1131 0.930 . S
C1120 C1116 1.524 . S
C1120 H1132 0.956 . S
C1120 H1133 0.961 . S
C1120 H1134 0.961 . S
C1121 C1118 1.539 . S
C1121 H1135 0.958 . S
C1121 H1136 0.961 . S
C1121 H1137 0.960 . S
H1122 C1106 0.931 . S
H1123 C1111 0.929 . S
H1124 C1112 0.960 . S
H1125 C1112 0.962 . S
H1126 C1112 0.960 . S
H1127 C1113 0.961 . S
H1128 C1113 0.961 . S
H1129 C1113 0.961 1_556 S
H1130 C1114 0.931 . S
H1131 C1119 0.930 . S
H1132 C1120 0.956 . S
H1133 C1120 0.961 . S
H1134 C1120 0.961 . S
H1135 C1121 0.958 . S
H1136 C1121 0.961 . S
H1137 C1121 0.960 . S
C1138 C1139 1.391 . S
C1138 C1140 1.394 . S
C1138 H1154 0.931 . S
C1139 C1138 1.391 . S
C1139 C1143 1.376 . S
C1140 C1138 1.394 . S
C1140 C1141 1.369 . S
C1140 C1144 1.531 1_554 S
C1141 C1140 1.369 . S
C1141 C1142 1.410 . S
C1141 C1149 1.503 1_544 S
C1142 C1141 1.410 . S
C1142 C1143 1.392 . S
C1142 C1145 1.511 1_545 S
C1143 C1139 1.376 . S
C1143 C1142 1.392 . S
C1143 H1155 0.929 . S
C1144 C1140 1.531 1_556 S
C1144 H1156 0.960 . S
C1144 H1157 0.962 . S
C1144 H1158 0.960 . S
C1145 C1142 1.511 1_565 S
C1145 H1159 0.961 . S
C1145 H1160 0.961 . S
C1145 H1161 0.961 . S
C1146 C1147 1.370 . S
C1146 C1148 1.363 . S
C1146 H1162 0.931 . S
C1147 C1146 1.370 . S
C1147 C1151 1.408 . S
C1148 C1146 1.363 . S
C1148 C1149 1.370 . S
C1148 C1152 1.524 1_565 S
C1149 C1141 1.503 1_566 S
C1149 C1148 1.370 . S
C1149 C1150 1.403 . S
C1150 C1149 1.403 . S
C1150 C1151 1.404 . S
C1150 C1153 1.539 1_556 S
C1151 C1147 1.408 . S
C1151 C1150 1.404 . S
C1151 H1163 0.930 . S
C1152 C1148 1.524 1_545 S
C1152 H1164 0.956 . S
C1152 H1165 0.961 . S
C1152 H1166 0.961 1_545 S
C1153 C1150 1.539 1_554 S
C1153 H1167 0.958 . S
C1153 H1168 0.961 . S
C1153 H1169 0.960 . S
H1154 C1138 0.931 . S
H1155 C1143 0.929 . S
H1156 C1144 0.960 . S
H1157 C1144 0.962 . S
H1158 C1144 0.960 . S
H1159 C1145 0.961 . S
H1160 C1145 0.961 . S
H1161 C1145 0.961 . S
H1162 C1146 0.931 . S
H1163 C1151 0.930 . S
H1164 C1152 0.956 . S
H1165 C1152 0.961 . S
H1166 C1152 0.961 1_565 S
H1167 C1153 0.958 . S
H1168 C1153 0.961 . S
H1169 C1153 0.960 . S
C1170 C1171 1.391 . S
C1170 C1172 1.394 1_455 S
C1170 H1186 0.931 1_455 S
C1171 C1170 1.391 . S
C1171 C1175 1.376 . S
C1172 C1170 1.394 1_655 S
C1172 C1173 1.369 1_655 S
C1172 C1176 1.531 . S
C1173 C1172 1.369 1_455 S
C1173 C1174 1.410 . S
C1173 C1181 1.503 1_454 S
C1174 C1173 1.410 . S
C1174 C1175 1.392 . S
C1174 C1177 1.511 1_554 S
C1175 C1171 1.376 . S
C1175 C1174 1.392 . S
C1175 H1187 0.929 . S
C1176 C1172 1.531 . S
C1176 H1188 0.960 . S
C1176 H1189 0.962 . S
C1176 H1190 0.960 . S
C1177 C1174 1.511 1_556 S
C1177 H1191 0.961 . S
C1177 H1192 0.961 . S
C1177 H1193 0.961 . S
C1178 C1179 1.370 . S
C1178 C1180 1.363 . S
C1178 H1194 0.931 . S
C1179 C1178 1.370 . S
C1179 C1183 1.408 . S
C1180 C1178 1.363 . S
C1180 C1181 1.370 . S
C1180 C1184 1.524 1_655 S
C1181 C1173 1.503 1_656 S
C1181 C1180 1.370 . S
C1181 C1182 1.403 . S
C1182 C1181 1.403 . S
C1182 C1183 1.404 . S
C1182 C1185 1.539 . S
C1183 C1179 1.408 . S
C1183 C1182 1.404 . S
C1183 H1195 0.930 . S
C1184 C1180 1.524 1_455 S
C1184 H1196 0.956 . S
C1184 H1197 0.961 . S
C1184 H1198 0.961 . S
C1185 C1182 1.539 . S
C1185 H1199 0.958 1_556 S
C1185 H1200 0.961 . S
C1185 H1201 0.960 1_556 S
H1186 C1170 0.931 1_655 S
H1187 C1175 0.929 . S
H1188 C1176 0.960 . S
H1189 C1176 0.962 . S
H1190 C1176 0.960 . S
H1191 C1177 0.961 . S
H1192 C1177 0.961 . S
H1193 C1177 0.961 . S
H1194 C1178 0.931 . S
H1195 C1183 0.930 . S
H1196 C1184 0.956 . S
H1197 C1184 0.961 . S
H1198 C1184 0.961 . S
H1199 C1185 0.958 1_554 S
H1200 C1185 0.961 . S
H1201 C1185 0.960 1_554 S
C1202 C1203 1.391 . S
C1202 C1204 1.394 . S
C1202 H1218 0.931 . S
C1203 C1202 1.391 . S
C1203 C1207 1.376 . S
C1204 C1202 1.394 . S
C1204 C1205 1.369 . S
C1204 C1208 1.531 1_556 S
C1205 C1204 1.369 . S
C1205 C1206 1.410 . S
C1205 C1213 1.503 1_556 S
C1206 C1205 1.410 . S
C1206 C1207 1.392 . S
C1206 C1209 1.511 . S
C1207 C1203 1.376 . S
C1207 C1206 1.392 . S
C1207 H1219 0.929 . S
C1208 C1204 1.531 1_554 S
C1208 H1220 0.960 . S
C1208 H1221 0.962 . S
C1208 H1222 0.960 . S
C1209 C1206 1.511 . S
C1209 H1223 0.961 . S
C1209 H1224 0.961 . S
C1209 H1225 0.961 . S
C1210 C1211 1.370 . S
C1210 C1212 1.363 . S
C1210 H1226 0.931 . S
C1211 C1210 1.370 . S
C1211 C1215 1.408 . S
C1212 C1210 1.363 . S
C1212 C1213 1.370 . S
C1212 C1216 1.524 . S
C1213 C1205 1.503 1_554 S
C1213 C1212 1.370 . S
C1213 C1214 1.403 . S
C1214 C1213 1.403 . S
C1214 C1215 1.404 . S
C1214 C1217 1.539 . S
C1215 C1211 1.408 . S
C1215 C1214 1.404 . S
C1215 H1227 0.930 . S
C1216 C1212 1.524 . S
C1216 H1228 0.956 . S
C1216 H1229 0.961 1_554 S
C1216 H1230 0.961 . S
C1217 C1214 1.539 . S
C1217 H1231 0.958 . S
C1217 H1232 0.961 . S
C1217 H1233 0.960 1_554 S
H1218 C1202 0.931 . S
H1219 C1207 0.929 . S
H1220 C1208 0.960 . S
H1221 C1208 0.962 . S
H1222 C1208 0.960 . S
H1223 C1209 0.961 . S
H1224 C1209 0.961 . S
H1225 C1209 0.961 . S
H1226 C1210 0.931 . S
H1227 C1215 0.930 . S
H1228 C1216 0.956 . S
H1229 C1216 0.961 1_556 S
H1230 C1216 0.961 . S
H1231 C1217 0.958 . S
H1232 C1217 0.961 . S
H1233 C1217 0.960 1_556 S
C1234 C1235 1.391 . S
C1234 C1236 1.394 . S
C1234 H1250 0.931 . S
C1235 C1234 1.391 . S
C1235 C1239 1.376 . S
C1236 C1234 1.394 . S
C1236 C1237 1.369 . S
C1236 C1240 1.531 1_556 S
C1237 C1236 1.369 . S
C1237 C1238 1.410 1_545 S
C1237 C1245 1.503 1_546 S
C1238 C1237 1.410 1_565 S
C1238 C1239 1.392 1_565 S
C1238 C1241 1.511 . S
C1239 C1235 1.376 . S
C1239 C1238 1.392 1_545 S
C1239 H1251 0.929 . S
C1240 C1236 1.531 1_554 S
C1240 H1252 0.960 . S
C1240 H1253 0.962 . S
C1240 H1254 0.960 . S
C1241 C1238 1.511 . S
C1241 H1255 0.961 . S
C1241 H1256 0.961 . S
C1241 H1257 0.961 . S
C1242 C1243 1.370 . S
C1242 C1244 1.363 . S
C1242 H1258 0.931 . S
C1243 C1242 1.370 . S
C1243 C1247 1.408 . S
C1244 C1242 1.363 . S
C1244 C1245 1.370 . S
C1244 C1248 1.524 1_554 S
C1245 C1237 1.503 1_564 S
C1245 C1244 1.370 . S
C1245 C1246 1.395 1_565 S
C1246 C1245 1.395 1_545 S
C1246 C1247 1.397 1_545 S
C1246 C1249 1.553 . S
C1247 C1243 1.408 . S
C1247 C1246 1.397 1_565 S
C1247 H1259 0.930 . S
C1248 C1244 1.524 1_556 S
C1248 H1260 0.956 . S
C1248 H1261 0.961 . S
C1248 H1262 0.961 1_556 S
C1249 C1246 1.553 . S
C1249 H1263 0.958 . S
C1249 H1264 0.961 . S
C1249 H1265 0.960 . S
H1250 C1234 0.931 . S
H1251 C1239 0.929 . S
H1252 C1240 0.960 . S
H1253 C1240 0.962 . S
H1254 C1240 0.960 . S
H1255 C1241 0.961 . S
H1256 C1241 0.961 . S
H1257 C1241 0.961 . S
H1258 C1242 0.931 . S
H1259 C1247 0.930 . S
H1260 C1248 0.956 . S
H1261 C1248 0.961 . S
H1262 C1248 0.961 1_554 S
H1263 C1249 0.958 . S
H1264 C1249 0.961 . S
H1265 C1249 0.960 . S
C1266 C1267 1.391 . S
C1266 C1268 1.394 . S
C1266 H1282 0.931 . S
C1267 C1266 1.391 . S
C1267 C1271 1.376 . S
C1268 C1266 1.394 . S
C1268 C1269 1.369 . S
C1268 C1272 1.531 . S
C1269 C1268 1.369 . S
C1269 C1270 1.410 . S
C1269 C1277 1.503 . S
C1270 C1269 1.410 . S
C1270 C1271 1.392 . S
C1270 C1273 1.511 . S
C1271 C1267 1.376 . S
C1271 C1270 1.392 . S
C1271 H1283 0.929 . S
C1272 C1268 1.531 . S
C1272 H1284 0.960 . S
C1272 H1285 0.962 . S
C1272 H1286 0.960 . S
C1273 C1270 1.511 . S
C1273 H1287 0.961 . S
C1273 H1288 0.961 . S
C1273 H1289 0.961 . S
C1274 C1275 1.370 . S
C1274 C1276 1.363 . S
C1274 H1290 0.931 . S
C1275 C1274 1.370 . S
C1275 C1279 1.408 . S
C1276 C1274 1.363 . S
C1276 C1277 1.370 . S
C1276 C1280 1.524 . S
C1277 C1269 1.503 . S
C1277 C1276 1.370 . S
C1277 C1278 1.403 . S
C1278 C1277 1.403 . S
C1278 C1279 1.404 . S
C1278 C1281 1.539 . S
C1279 C1275 1.408 . S
C1279 C1278 1.404 . S
C1279 H1291 0.930 . S
C1280 C1276 1.524 . S
C1280 H1292 0.956 . S
C1280 H1293 0.961 . S
C1280 H1294 0.961 . S
C1281 C1278 1.539 . S
C1281 H1295 0.958 . S
C1281 H1296 0.961 . S
C1281 H1297 0.960 . S
H1282 C1266 0.931 . S
H1283 C1271 0.929 . S
H1284 C1272 0.960 . S
H1285 C1272 0.962 . S
H1286 C1272 0.960 . S
H1287 C1273 0.961 . S
H1288 C1273 0.961 . S
H1289 C1273 0.961 . S
H1290 C1274 0.931 . S
H1291 C1279 0.930 . S
H1292 C1280 0.956 . S
H1293 C1280 0.961 . S
H1294 C1280 0.961 . S
H1295 C1281 0.958 . S
H1296 C1281 0.961 . S
H1297 C1281 0.960 . S
C1298 C1299 1.391 . S
C1298 C1300 1.394 . S
C1298 H1314 0.931 . S
C1299 C1298 1.391 . S
C1299 C1303 1.376 . S
C1300 C1298 1.394 . S
C1300 C1301 1.369 . S
C1300 C1304 1.531 . S
C1301 C1300 1.369 . S
C1301 C1302 1.410 . S
C1301 C1309 1.503 . S
C1302 C1301 1.410 . S
C1302 C1303 1.392 . S
C1302 C1305 1.511 . S
C1303 C1299 1.376 . S
C1303 C1302 1.392 . S
C1303 H1315 0.929 . S
C1304 C1300 1.531 . S
C1304 H1316 0.960 . S
C1304 H1317 0.962 . S
C1304 H1318 0.960 . S
C1305 C1302 1.511 . S
C1305 H1319 0.961 . S
C1305 H1320 0.961 . S
C1305 H1321 0.961 . S
C1306 C1307 1.370 . S
C1306 C1308 1.363 . S
C1306 H1322 0.931 . S
C1307 C1306 1.370 . S
C1307 C1311 1.408 . S
C1308 C1306 1.363 . S
C1308 C1309 1.370 . S
C1308 C1312 1.524 . S
C1309 C1301 1.503 . S
C1309 C1308 1.370 . S
C1309 C1310 1.403 . S
C1310 C1309 1.403 . S
C1310 C1311 1.404 . S
C1310 C1313 1.539 . S
C1311 C1307 1.408 . S
C1311 C1310 1.404 . S
C1311 H1323 0.930 . S
C1312 C1308 1.524 . S
C1312 H1324 0.956 . S
C1312 H1325 0.961 . S
C1312 H1326 0.961 . S
C1313 C1310 1.539 . S
C1313 H1327 0.958 . S
C1313 H1328 0.961 . S
C1313 H1329 0.960 . S
H1314 C1298 0.931 . S
H1315 C1303 0.929 . S
H1316 C1304 0.960 . S
H1317 C1304 0.962 . S
H1318 C1304 0.960 . S
H1319 C1305 0.961 . S
H1320 C1305 0.961 . S
H1321 C1305 0.961 . S
H1322 C1306 0.931 . S
H1323 C1311 0.930 . S
H1324 C1312 0.956 . S
H1325 C1312 0.961 . S
H1326 C1312 0.961 . S
H1327 C1313 0.958 . S
H1328 C1313 0.961 . S
H1329 C1313 0.960 . S
C1330 C1331 1.391 . S
C1330 C1332 1.394 . S
C1330 H1346 0.931 . S
C1331 C1330 1.391 . S
C1331 C1335 1.376 . S
C1332 C1330 1.394 . S
C1332 C1333 1.369 . S
C1332 C1336 1.531 . S
C1333 C1332 1.369 . S
C1333 C1334 1.410 . S
C1333 C1341 1.503 . S
C1334 C1333 1.410 . S
C1334 C1335 1.392 . S
C1334 C1337 1.511 . S
C1335 C1331 1.376 . S
C1335 C1334 1.392 . S
C1335 H1347 0.929 . S
C1336 C1332 1.531 . S
C1336 H1348 0.960 . S
C1336 H1349 0.962 . S
C1336 H1350 0.960 . S
C1337 C1334 1.511 . S
C1337 H1351 0.961 . S
C1337 H1352 0.961 . S
C1337 H1353 0.961 . S
C1338 C1339 1.370 . S
C1338 C1340 1.363 . S
C1338 H1354 0.931 . S
C1339 C1338 1.370 . S
C1339 C1343 1.408 . S
C1340 C1338 1.363 . S
C1340 C1341 1.370 . S
C1340 C1344 1.524 . S
C1341 C1333 1.503 . S
C1341 C1340 1.370 . S
C1341 C1342 1.403 . S
C1342 C1341 1.403 . S
C1342 C1343 1.404 . S
C1342 C1345 1.539 . S
C1343 C1339 1.408 . S
C1343 C1342 1.404 . S
C1343 H1355 0.930 . S
C1344 C1340 1.524 . S
C1344 H1356 0.956 . S
C1344 H1357 0.961 . S
C1344 H1358 0.961 . S
C1345 C1342 1.539 . S
C1345 H1359 0.958 . S
C1345 H1360 0.961 . S
C1345 H1361 0.960 . S
H1346 C1330 0.931 . S
H1347 C1335 0.929 . S
H1348 C1336 0.960 . S
H1349 C1336 0.962 . S
H1350 C1336 0.960 . S
H1351 C1337 0.961 . S
H1352 C1337 0.961 . S
H1353 C1337 0.961 . S
H1354 C1338 0.931 . S
H1355 C1343 0.930 . S
H1356 C1344 0.956 . S
H1357 C1344 0.961 . S
H1358 C1344 0.961 . S
H1359 C1345 0.958 . S
H1360 C1345 0.961 . S
H1361 C1345 0.960 . S
C1362 C1363 1.391 . S
C1362 C1364 1.394 . S
C1362 H1378 0.931 . S
C1363 C1362 1.391 . S
C1363 C1367 1.376 . S
C1364 C1362 1.394 . S
C1364 C1365 1.369 . S
C1364 C1368 1.531 . S
C1365 C1364 1.369 . S
C1365 C1366 1.410 . S
C1365 C1373 1.503 . S
C1366 C1365 1.410 . S
C1366 C1367 1.392 . S
C1366 C1369 1.511 . S
C1367 C1363 1.376 . S
C1367 C1366 1.392 . S
C1367 H1379 0.929 . S
C1368 C1364 1.531 . S
C1368 H1380 0.960 . S
C1368 H1381 0.962 . S
C1368 H1382 0.960 . S
C1369 C1366 1.511 . S
C1369 H1383 0.961 . S
C1369 H1384 0.961 . S
C1369 H1385 0.961 . S
C1370 C1371 1.370 . S
C1370 C1372 1.363 . S
C1370 H1386 0.931 . S
C1371 C1370 1.370 . S
C1371 C1375 1.408 . S
C1372 C1370 1.363 . S
C1372 C1373 1.370 . S
C1372 C1376 1.524 . S
C1373 C1365 1.503 . S
C1373 C1372 1.370 . S
C1373 C1374 1.403 . S
C1374 C1373 1.403 . S
C1374 C1375 1.404 . S
C1374 C1377 1.539 . S
C1375 C1371 1.408 . S
C1375 C1374 1.404 . S
C1375 H1387 0.930 . S
C1376 C1372 1.524 . S
C1376 H1388 0.956 . S
C1376 H1389 0.961 . S
C1376 H1390 0.961 . S
C1377 C1374 1.539 . S
C1377 H1391 0.958 . S
C1377 H1392 0.961 . S
C1377 H1393 0.960 . S
H1378 C1362 0.931 . S
H1379 C1367 0.929 . S
H1380 C1368 0.960 . S
H1381 C1368 0.962 . S
H1382 C1368 0.960 . S
H1383 C1369 0.961 . S
H1384 C1369 0.961 . S
H1385 C1369 0.961 . S
H1386 C1370 0.931 . S
H1387 C1375 0.930 . S
H1388 C1376 0.956 . S
H1389 C1376 0.961 . S
H1390 C1376 0.961 . S
H1391 C1377 0.958 . S
H1392 C1377 0.961 . S
H1393 C1377 0.960 . S
C1394 C1395 1.391 . S
C1394 C1396 1.394 . S
C1394 H1410 0.931 . S
C1395 C1394 1.391 . S
C1395 C1399 1.376 . S
C1396 C1394 1.394 . S
C1396 C1397 1.369 . S
C1396 C1400 1.531 . S
C1397 C1396 1.369 . S
C1397 C1398 1.410 . S
C1397 C1405 1.503 . S
C1398 C1397 1.410 . S
C1398 C1399 1.392 . S
C1398 C1401 1.511 . S
C1399 C1395 1.376 . S
C1399 C1398 1.392 . S
C1399 H1411 0.929 . S
C1400 C1396 1.531 . S
C1400 H1412 0.960 . S
C1400 H1413 0.962 . S
C1400 H1414 0.960 . S
C1401 C1398 1.511 . S
C1401 H1415 0.961 . S
C1401 H1416 0.961 . S
C1401 H1417 0.961 . S
C1402 C1403 1.370 . S
C1402 C1404 1.363 . S
C1402 H1418 0.931 . S
C1403 C1402 1.370 . S
C1403 C1407 1.408 . S
C1404 C1402 1.363 . S
C1404 C1405 1.370 . S
C1404 C1408 1.524 . S
C1405 C1397 1.503 . S
C1405 C1404 1.370 . S
C1405 C1406 1.403 . S
C1406 C1405 1.403 . S
C1406 C1407 1.404 . S
C1406 C1409 1.539 . S
C1407 C1403 1.408 . S
C1407 C1406 1.404 . S
C1407 H1419 0.930 . S
C1408 C1404 1.524 . S
C1408 H1420 0.956 . S
C1408 H1421 0.961 . S
C1408 H1422 0.961 . S
C1409 C1406 1.539 . S
C1409 H1423 0.958 . S
C1409 H1424 0.961 . S
C1409 H1425 0.960 . S
H1410 C1394 0.931 . S
H1411 C1399 0.929 . S
H1412 C1400 0.960 . S
H1413 C1400 0.962 . S
H1414 C1400 0.960 . S
H1415 C1401 0.961 . S
H1416 C1401 0.961 . S
H1417 C1401 0.961 . S
H1418 C1402 0.931 . S
H1419 C1407 0.930 . S
H1420 C1408 0.956 . S
H1421 C1408 0.961 . S
H1422 C1408 0.961 . S
H1423 C1409 0.958 . S
H1424 C1409 0.961 . S
H1425 C1409 0.960 . S
C1426 C1427 1.391 . S
C1426 C1428 1.394 . S
C1426 H1442 0.931 . S
C1427 C1426 1.391 . S
C1427 C1431 1.376 . S
C1428 C1426 1.394 . S
C1428 C1429 1.369 . S
C1428 C1432 1.531 . S
C1429 C1428 1.369 . S
C1429 C1430 1.410 . S
C1429 C1437 1.503 . S
C1430 C1429 1.410 . S
C1430 C1431 1.392 . S
C1430 C1433 1.511 . S
C1431 C1427 1.376 . S
C1431 C1430 1.392 . S
C1431 H1443 0.929 . S
C1432 C1428 1.531 . S
C1432 H1444 0.960 . S
C1432 H1445 0.962 . S
C1432 H1446 0.960 . S
C1433 C1430 1.511 . S
C1433 H1447 0.961 . S
C1433 H1448 0.961 . S
C1433 H1449 0.961 . S
C1434 C1435 1.370 . S
C1434 C1436 1.363 . S
C1434 H1450 0.931 . S
C1435 C1434 1.370 . S
C1435 C1439 1.408 . S
C1436 C1434 1.363 . S
C1436 C1437 1.370 . S
C1436 C1440 1.524 . S
C1437 C1429 1.503 . S
C1437 C1436 1.370 . S
C1437 C1438 1.403 . S
C1438 C1437 1.403 . S
C1438 C1439 1.404 . S
C1438 C1441 1.539 . S
C1439 C1435 1.408 . S
C1439 C1438 1.404 . S
C1439 H1451 0.930 . S
C1440 C1436 1.524 . S
C1440 H1452 0.956 . S
C1440 H1453 0.961 . S
C1440 H1454 0.961 . S
C1441 C1438 1.539 . S
C1441 H1455 0.958 . S
C1441 H1456 0.961 . S
C1441 H1457 0.960 . S
H1442 C1426 0.931 . S
H1443 C1431 0.929 . S
H1444 C1432 0.960 . S
H1445 C1432 0.962 . S
H1446 C1432 0.960 . S
H1447 C1433 0.961 . S
H1448 C1433 0.961 . S
H1449 C1433 0.961 . S
H1450 C1434 0.931 . S
H1451 C1439 0.930 . S
H1452 C1440 0.956 . S
H1453 C1440 0.961 . S
H1454 C1440 0.961 . S
H1455 C1441 0.958 . S
H1456 C1441 0.961 . S
H1457 C1441 0.960 . S
C1458 C1459 1.391 . S
C1458 C1460 1.394 . S
C1458 H1474 0.931 . S
C1459 C1458 1.391 . S
C1459 C1463 1.376 . S
C1460 C1458 1.394 . S
C1460 C1461 1.369 . S
C1460 C1464 1.531 . S
C1461 C1460 1.369 . S
C1461 C1462 1.410 . S
C1461 C1469 1.503 . S
C1462 C1461 1.410 . S
C1462 C1463 1.392 . S
C1462 C1465 1.511 . S
C1463 C1459 1.376 . S
C1463 C1462 1.392 . S
C1463 H1475 0.929 . S
C1464 C1460 1.531 . S
C1464 H1476 0.960 . S
C1464 H1477 0.962 . S
C1464 H1478 0.960 . S
C1465 C1462 1.511 . S
C1465 H1479 0.961 . S
C1465 H1480 0.961 . S
C1465 H1481 0.961 . S
C1466 C1467 1.370 . S
C1466 C1468 1.363 . S
C1466 H1482 0.931 . S
C1467 C1466 1.370 . S
C1467 C1471 1.408 . S
C1468 C1466 1.363 . S
C1468 C1469 1.370 . S
C1468 C1472 1.524 . S
C1469 C1461 1.503 . S
C1469 C1468 1.370 . S
C1469 C1470 1.403 . S
C1470 C1469 1.403 . S
C1470 C1471 1.404 . S
C1470 C1473 1.539 . S
C1471 C1467 1.408 . S
C1471 C1470 1.404 . S
C1471 H1483 0.930 . S
C1472 C1468 1.524 . S
C1472 H1484 0.956 . S
C1472 H1485 0.961 . S
C1472 H1486 0.961 . S
C1473 C1470 1.539 . S
C1473 H1487 0.958 . S
C1473 H1488 0.961 . S
C1473 H1489 0.960 . S
H1474 C1458 0.931 . S
H1475 C1463 0.929 . S
H1476 C1464 0.960 . S
H1477 C1464 0.962 . S
H1478 C1464 0.960 . S
H1479 C1465 0.961 . S
H1480 C1465 0.961 . S
H1481 C1465 0.961 . S
H1482 C1466 0.931 . S
H1483 C1471 0.930 . S
H1484 C1472 0.956 . S
H1485 C1472 0.961 . S
H1486 C1472 0.961 . S
H1487 C1473 0.958 . S
H1488 C1473 0.961 . S
H1489 C1473 0.960 . S
C1490 C1491 1.391 . S
C1490 C1492 1.394 . S
C1490 H1506 0.931 . S
C1491 C1490 1.391 . S
C1491 C1495 1.376 . S
C1492 C1490 1.394 . S
C1492 C1493 1.369 . S
C1492 C1496 1.531 . S
C1493 C1492 1.369 . S
C1493 C1494 1.410 . S
C1493 C1501 1.503 . S
C1494 C1493 1.410 . S
C1494 C1495 1.392 . S
C1494 C1497 1.511 . S
C1495 C1491 1.376 . S
C1495 C1494 1.392 . S
C1495 H1507 0.929 . S
C1496 C1492 1.531 . S
C1496 H1508 0.960 . S
C1496 H1509 0.962 . S
C1496 H1510 0.960 . S
C1497 C1494 1.511 . S
C1497 H1511 0.961 . S
C1497 H1512 0.961 . S
C1497 H1513 0.961 . S
C1498 C1499 1.370 . S
C1498 C1500 1.363 1_565 S
C1498 H1514 0.931 . S
C1499 C1498 1.370 . S
C1499 C1503 1.408 . S
C1500 C1498 1.363 1_545 S
C1500 C1501 1.370 . S
C1500 C1504 1.524 . S
C1501 C1493 1.503 . S
C1501 C1500 1.370 . S
C1501 C1502 1.403 1_545 S
C1502 C1501 1.403 1_565 S
C1502 C1503 1.404 . S
C1502 C1505 1.539 1_565 S
C1503 C1499 1.408 . S
C1503 C1502 1.404 . S
C1503 H1515 0.930 . S
C1504 C1500 1.524 . S
C1504 H1516 0.956 . S
C1504 H1517 0.961 . S
C1504 H1518 0.961 . S
C1505 C1502 1.539 1_545 S
C1505 H1519 0.958 . S
C1505 H1520 0.961 1_545 S
C1505 H1521 0.960 . S
H1506 C1490 0.931 . S
H1507 C1495 0.929 . S
H1508 C1496 0.960 . S
H1509 C1496 0.962 . S
H1510 C1496 0.960 . S
H1511 C1497 0.961 . S
H1512 C1497 0.961 . S
H1513 C1497 0.961 . S
H1514 C1498 0.931 . S
H1515 C1503 0.930 . S
H1516 C1504 0.956 . S
H1517 C1504 0.961 . S
H1518 C1504 0.961 . S
H1519 C1505 0.958 . S
H1520 C1505 0.961 1_565 S
H1521 C1505 0.960 . S
C1522 C1523 1.391 . S
C1522 C1524 1.394 . S
C1522 H1538 0.931 . S
C1523 C1522 1.391 . S
C1523 C1527 1.376 . S
C1524 C1522 1.394 . S
C1524 C1525 1.369 . S
C1524 C1528 1.531 . S
C1525 C1524 1.369 . S
C1525 C1526 1.410 . S
C1525 C1533 1.503 . S
C1526 C1525 1.410 . S
C1526 C1527 1.392 . S
C1526 C1529 1.511 . S
C1527 C1523 1.376 . S
C1527 C1526 1.392 . S
C1527 H1539 0.929 . S
C1528 C1524 1.531 . S
C1528 H1540 0.960 . S
C1528 H1541 0.962 . S
C1528 H1542 0.960 . S
C1529 C1526 1.511 . S
C1529 H1543 0.961 . S
C1529 H1544 0.961 . S
C1529 H1545 0.961 . S
C1530 C1531 1.370 . S
C1530 C1532 1.363 1_455 S
C1530 H1546 0.931 . S
C1531 C1530 1.370 . S
C1531 C1535 1.408 . S
C1532 C1530 1.363 1_655 S
C1532 C1533 1.370 . S
C1532 C1536 1.524 . S
C1533 C1525 1.503 . S
C1533 C1532 1.370 . S
C1533 C1534 1.403 1_655 S
C1534 C1533 1.403 1_455 S
C1534 C1535 1.404 . S
C1534 C1537 1.539 1_455 S
C1535 C1531 1.408 . S
C1535 C1534 1.404 . S
C1535 H1547 0.930 . S
C1536 C1532 1.524 . S
C1536 H1548 0.956 . S
C1536 H1549 0.961 . S
C1536 H1550 0.961 . S
C1537 C1534 1.539 1_655 S
C1537 H1551 0.958 . S
C1537 H1552 0.961 1_655 S
C1537 H1553 0.960 . S
H1538 C1522 0.931 . S
H1539 C1527 0.929 . S
H1540 C1528 0.960 . S
H1541 C1528 0.962 . S
H1542 C1528 0.960 . S
H1543 C1529 0.961 . S
H1544 C1529 0.961 . S
H1545 C1529 0.961 . S
H1546 C1530 0.931 . S
H1547 C1535 0.930 . S
H1548 C1536 0.956 . S
H1549 C1536 0.961 . S
H1550 C1536 0.961 . S
H1551 C1537 0.958 . S
H1552 C1537 0.961 1_455 S
H1553 C1537 0.960 . S
C1554 C1555 1.391 . S
C1554 C1556 1.394 . S
C1554 H1570 0.931 . S
C1555 C1554 1.391 . S
C1555 C1559 1.376 . S
C1556 C1554 1.394 . S
C1556 C1557 1.369 . S
C1556 C1560 1.531 . S
C1557 C1556 1.369 . S
C1557 C1558 1.410 . S
C1557 C1565 1.503 . S
C1558 C1557 1.410 . S
C1558 C1559 1.392 . S
C1558 C1561 1.511 . S
C1559 C1555 1.376 . S
C1559 C1558 1.392 . S
C1559 H1571 0.929 . S
C1560 C1556 1.531 . S
C1560 H1572 0.960 . S
C1560 H1573 0.962 . S
C1560 H1574 0.960 . S
C1561 C1558 1.511 . S
C1561 H1575 0.961 . S
C1561 H1576 0.961 . S
C1561 H1577 0.961 . S
C1562 C1563 1.370 . S
C1562 C1564 1.363 . S
C1562 H1578 0.931 . S
C1563 C1562 1.370 . S
C1563 C1567 1.408 . S
C1564 C1562 1.363 . S
C1564 C1565 1.370 . S
C1564 C1568 1.524 . S
C1565 C1557 1.503 . S
C1565 C1564 1.370 . S
C1565 C1566 1.403 . S
C1566 C1565 1.403 . S
C1566 C1567 1.404 . S
C1566 C1569 1.539 . S
C1567 C1563 1.408 . S
C1567 C1566 1.404 . S
C1567 H1579 0.930 . S
C1568 C1564 1.524 . S
C1568 H1580 0.956 . S
C1568 H1581 0.961 . S
C1568 H1582 0.961 . S
C1569 C1566 1.539 . S
C1569 H1583 0.958 . S
C1569 H1584 0.961 . S
C1569 H1585 0.960 . S
H1570 C1554 0.931 . S
H1571 C1559 0.929 . S
H1572 C1560 0.960 . S
H1573 C1560 0.962 . S
H1574 C1560 0.960 . S
H1575 C1561 0.961 . S
H1576 C1561 0.961 . S
H1577 C1561 0.961 . S
H1578 C1562 0.931 . S
H1579 C1567 0.930 . S
H1580 C1568 0.956 . S
H1581 C1568 0.961 . S
H1582 C1568 0.961 . S
H1583 C1569 0.958 . S
H1584 C1569 0.961 . S
H1585 C1569 0.960 . S
C1586 C1587 1.391 . S
C1586 C1588 1.390 . S
C1586 H1602 0.931 . S
C1587 C1586 1.391 . S
C1587 C1591 1.376 . S
C1588 C1586 1.390 . S
C1588 C1589 1.371 1_545 S
C1588 C1592 1.532 1_545 S
C1589 C1588 1.371 1_565 S
C1589 C1590 1.410 1_565 S
C1589 C1597 1.503 . S
C1590 C1589 1.410 1_545 S
C1590 C1591 1.392 . S
C1590 C1593 1.511 1_545 S
C1591 C1587 1.376 . S
C1591 C1590 1.392 . S
C1591 H1603 0.929 . S
C1592 C1588 1.532 1_565 S
C1592 H1604 0.960 . S
C1592 H1605 0.962 . S
C1592 H1606 0.960 . S
C1593 C1590 1.511 1_565 S
C1593 H1607 0.961 1_565 S
C1593 H1608 0.961 . S
C1593 H1609 0.961 . S
C1594 C1595 1.370 . S
C1594 C1596 1.363 . S
C1594 H1610 0.931 . S
C1595 C1594 1.370 . S
C1595 C1599 1.408 . S
C1596 C1594 1.363 . S
C1596 C1597 1.370 . S
C1596 C1600 1.524 . S
C1597 C1589 1.503 . S
C1597 C1596 1.370 . S
C1597 C1598 1.403 . S
C1598 C1597 1.403 . S
C1598 C1599 1.404 . S
C1598 C1601 1.539 . S
C1599 C1595 1.408 . S
C1599 C1598 1.404 . S
C1599 H1611 0.930 . S
C1600 C1596 1.524 . S
C1600 H1612 0.956 . S
C1600 H1613 0.961 . S
C1600 H1614 0.961 . S
C1601 C1598 1.539 . S
C1601 H1615 0.958 . S
C1601 H1616 0.961 . S
C1601 H1617 0.960 . S
H1602 C1586 0.931 . S
H1603 C1591 0.929 . S
H1604 C1592 0.960 . S
H1605 C1592 0.962 . S
H1606 C1592 0.960 . S
H1607 C1593 0.961 1_545 S
H1608 C1593 0.961 . S
H1609 C1593 0.961 . S
H1610 C1594 0.931 . S
H1611 C1599 0.930 . S
H1612 C1600 0.956 . S
H1613 C1600 0.961 . S
H1614 C1600 0.961 . S
H1615 C1601 0.958 . S
H1616 C1601 0.961 . S
H1617 C1601 0.960 . S
C1618 C1619 1.391 . S
C1618 C1620 1.394 . S
C1618 H1634 0.931 . S
C1619 C1618 1.391 . S
C1619 C1623 1.376 . S
C1620 C1618 1.394 . S
C1620 C1621 1.369 . S
C1620 C1624 1.531 . S
C1621 C1620 1.369 . S
C1621 C1622 1.410 . S
C1621 C1629 1.503 . S
C1622 C1621 1.410 . S
C1622 C1623 1.392 . S
C1622 C1625 1.511 . S
C1623 C1619 1.376 . S
C1623 C1622 1.392 . S
C1623 H1635 0.929 . S
C1624 C1620 1.531 . S
C1624 H1636 0.960 . S
C1624 H1637 0.962 . S
C1624 H1638 0.960 . S
C1625 C1622 1.511 . S
C1625 H1639 0.961 . S
C1625 H1640 0.961 . S
C1625 H1641 0.961 . S
C1626 C1627 1.370 . S
C1626 C1628 1.363 1_655 S
C1626 H1642 0.931 . S
C1627 C1626 1.370 . S
C1627 C1631 1.408 . S
C1628 C1626 1.363 1_455 S
C1628 C1629 1.370 . S
C1628 C1632 1.524 . S
C1629 C1621 1.503 . S
C1629 C1628 1.370 . S
C1629 C1630 1.403 1_455 S
C1630 C1629 1.403 1_655 S
C1630 C1631 1.404 . S
C1630 C1633 1.543 1_655 S
C1631 C1627 1.408 . S
C1631 C1630 1.404 . S
C1631 H1643 0.930 . S
C1632 C1628 1.524 . S
C1632 H1644 0.956 . S
C1632 H1645 0.961 . S
C1632 H1646 0.961 . S
C1633 C1630 1.543 1_455 S
C1633 H1647 0.959 . S
C1633 H1648 0.942 1_455 S
C1633 H1649 0.992 . S
H1634 C1618 0.931 . S
H1635 C1623 0.929 . S
H1636 C1624 0.960 . S
H1637 C1624 0.962 . S
H1638 C1624 0.960 . S
H1639 C1625 0.961 . S
H1640 C1625 0.961 . S
H1641 C1625 0.961 . S
H1642 C1626 0.931 . S
H1643 C1631 0.930 . S
H1644 C1632 0.956 . S
H1645 C1632 0.961 . S
H1646 C1632 0.961 . S
H1647 C1633 0.959 . S
H1648 C1633 0.942 1_655 S
H1649 C1633 0.992 . S
C1650 C1651 1.391 . S
C1650 C1652 1.394 . S
C1650 H1666 0.931 . S
C1651 C1650 1.391 . S
C1651 C1655 1.376 . S
C1652 C1650 1.394 . S
C1652 C1653 1.369 . S
C1652 C1656 1.531 . S
C1653 C1652 1.369 . S
C1653 C1654 1.410 . S
C1653 C1661 1.503 . S
C1654 C1653 1.410 . S
C1654 C1655 1.392 . S
C1654 C1657 1.511 . S
C1655 C1651 1.376 . S
C1655 C1654 1.392 . S
C1655 H1667 0.929 . S
C1656 C1652 1.531 . S
C1656 H1668 0.960 . S
C1656 H1669 0.962 . S
C1656 H1670 0.960 . S
C1657 C1654 1.511 . S
C1657 H1671 0.961 . S
C1657 H1672 0.961 . S
C1657 H1673 0.961 . S
C1658 C1659 1.370 . S
C1658 C1660 1.363 . S
C1658 H1674 0.931 . S
C1659 C1658 1.370 . S
C1659 C1663 1.408 . S
C1660 C1658 1.363 . S
C1660 C1661 1.370 . S
C1660 C1664 1.524 . S
C1661 C1653 1.503 . S
C1661 C1660 1.370 . S
C1661 C1662 1.403 . S
C1662 C1661 1.403 . S
C1662 C1663 1.404 . S
C1662 C1665 1.539 . S
C1663 C1659 1.408 . S
C1663 C1662 1.404 . S
C1663 H1675 0.930 . S
C1664 C1660 1.524 . S
C1664 H1676 0.956 . S
C1664 H1677 0.961 . S
C1664 H1678 0.961 . S
C1665 C1662 1.539 . S
C1665 H1679 0.958 . S
C1665 H1680 0.961 . S
C1665 H1681 0.960 . S
H1666 C1650 0.931 . S
H1667 C1655 0.929 . S
H1668 C1656 0.960 . S
H1669 C1656 0.962 . S
H1670 C1656 0.960 . S
H1671 C1657 0.961 . S
H1672 C1657 0.961 . S
H1673 C1657 0.961 . S
H1674 C1658 0.931 . S
H1675 C1663 0.930 . S
H1676 C1664 0.956 . S
H1677 C1664 0.961 . S
H1678 C1664 0.961 . S
H1679 C1665 0.958 . S
H1680 C1665 0.961 . S
H1681 C1665 0.960 . S
C1682 C1683 1.391 . S
C1682 C1684 1.394 . S
C1682 H1698 0.931 . S
C1683 C1682 1.391 . S
C1683 C1687 1.376 . S
C1684 C1682 1.394 . S
C1684 C1685 1.369 . S
C1684 C1688 1.531 . S
C1685 C1684 1.369 . S
C1685 C1686 1.410 . S
C1685 C1693 1.503 . S
C1686 C1685 1.410 . S
C1686 C1687 1.392 . S
C1686 C1689 1.511 . S
C1687 C1683 1.376 . S
C1687 C1686 1.392 . S
C1687 H1699 0.929 . S
C1688 C1684 1.531 . S
C1688 H1700 0.960 . S
C1688 H1701 0.962 . S
C1688 H1702 0.960 . S
C1689 C1686 1.511 . S
C1689 H1703 0.961 . S
C1689 H1704 0.961 . S
C1689 H1705 0.961 . S
C1690 C1691 1.370 . S
C1690 C1692 1.363 . S
C1690 H1706 0.931 . S
C1691 C1690 1.370 . S
C1691 C1695 1.408 . S
C1692 C1690 1.363 . S
C1692 C1693 1.370 . S
C1692 C1696 1.524 . S
C1693 C1685 1.503 . S
C1693 C1692 1.370 . S
C1693 C1694 1.403 . S
C1694 C1693 1.403 . S
C1694 C1695 1.404 . S
C1694 C1697 1.539 . S
C1695 C1691 1.408 . S
C1695 C1694 1.404 . S
C1695 H1707 0.930 . S
C1696 C1692 1.524 . S
C1696 H1708 0.956 . S
C1696 H1709 0.961 . S
C1696 H1710 0.961 . S
C1697 C1694 1.539 . S
C1697 H1711 0.958 . S
C1697 H1712 0.961 . S
C1697 H1713 0.960 . S
H1698 C1682 0.931 . S
H1699 C1687 0.929 . S
H1700 C1688 0.960 . S
H1701 C1688 0.962 . S
H1702 C1688 0.960 . S
H1703 C1689 0.961 . S
H1704 C1689 0.961 . S
H1705 C1689 0.961 . S
H1706 C1690 0.931 . S
H1707 C1695 0.930 . S
H1708 C1696 0.956 . S
H1709 C1696 0.961 . S
H1710 C1696 0.961 . S
H1711 C1697 0.958 . S
H1712 C1697 0.961 . S
H1713 C1697 0.960 . S
C1714 C1715 1.391 . S
C1714 C1716 1.394 . S
C1714 H1730 0.931 . S
C1715 C1714 1.391 . S
C1715 C1719 1.376 . S
C1716 C1714 1.394 . S
C1716 C1717 1.369 . S
C1716 C1720 1.531 . S
C1717 C1716 1.369 . S
C1717 C1718 1.410 . S
C1717 C1725 1.503 . S
C1718 C1717 1.410 . S
C1718 C1719 1.392 . S
C1718 C1721 1.511 . S
C1719 C1715 1.376 . S
C1719 C1718 1.392 . S
C1719 H1731 0.929 . S
C1720 C1716 1.531 . S
C1720 H1732 0.960 . S
C1720 H1733 0.962 . S
C1720 H1734 0.960 . S
C1721 C1718 1.511 . S
C1721 H1735 0.961 . S
C1721 H1736 0.961 . S
C1721 H1737 0.961 . S
C1722 C1723 1.370 . S
C1722 C1724 1.363 . S
C1722 H1738 0.931 . S
C1723 C1722 1.370 . S
C1723 C1727 1.408 . S
C1724 C1722 1.363 . S
C1724 C1725 1.370 . S
C1724 C1728 1.524 . S
C1725 C1717 1.503 . S
C1725 C1724 1.370 . S
C1725 C1726 1.403 . S
C1726 C1725 1.403 . S
C1726 C1727 1.404 . S
C1726 C1729 1.539 . S
C1727 C1723 1.408 . S
C1727 C1726 1.404 . S
C1727 H1739 0.930 . S
C1728 C1724 1.524 . S
C1728 H1740 0.956 . S
C1728 H1741 0.961 . S
C1728 H1742 0.961 . S
C1729 C1726 1.539 . S
C1729 H1743 0.958 . S
C1729 H1744 0.961 . S
C1729 H1745 0.960 . S
H1730 C1714 0.931 . S
H1731 C1719 0.929 . S
H1732 C1720 0.960 . S
H1733 C1720 0.962 . S
H1734 C1720 0.960 . S
H1735 C1721 0.961 . S
H1736 C1721 0.961 . S
H1737 C1721 0.961 . S
H1738 C1722 0.931 . S
H1739 C1727 0.930 . S
H1740 C1728 0.956 . S
H1741 C1728 0.961 . S
H1742 C1728 0.961 . S
H1743 C1729 0.958 . S
H1744 C1729 0.961 . S
H1745 C1729 0.960 . S
C1746 C1747 1.391 . S
C1746 C1748 1.394 . S
C1746 H1762 0.931 . S
C1747 C1746 1.391 . S
C1747 C1751 1.376 . S
C1748 C1746 1.394 . S
C1748 C1749 1.369 . S
C1748 C1752 1.531 . S
C1749 C1748 1.369 . S
C1749 C1750 1.410 . S
C1749 C1757 1.503 . S
C1750 C1749 1.410 . S
C1750 C1751 1.392 . S
C1750 C1753 1.511 . S
C1751 C1747 1.376 . S
C1751 C1750 1.392 . S
C1751 H1763 0.929 . S
C1752 C1748 1.531 . S
C1752 H1764 0.960 . S
C1752 H1765 0.962 . S
C1752 H1766 0.960 . S
C1753 C1750 1.511 . S
C1753 H1767 0.961 . S
C1753 H1768 0.961 . S
C1753 H1769 0.961 . S
C1754 C1755 1.370 . S
C1754 C1756 1.363 . S
C1754 H1770 0.931 . S
C1755 C1754 1.370 . S
C1755 C1759 1.408 . S
C1756 C1754 1.363 . S
C1756 C1757 1.370 . S
C1756 C1760 1.524 . S
C1757 C1749 1.503 . S
C1757 C1756 1.370 . S
C1757 C1758 1.403 . S
C1758 C1757 1.403 . S
C1758 C1759 1.404 . S
C1758 C1761 1.539 . S
C1759 C1755 1.408 . S
C1759 C1758 1.404 . S
C1759 H1771 0.930 . S
C1760 C1756 1.524 . S
C1760 H1772 0.956 . S
C1760 H1773 0.961 . S
C1760 H1774 0.961 . S
C1761 C1758 1.539 . S
C1761 H1775 0.958 . S
C1761 H1776 0.961 . S
C1761 H1777 0.960 . S
H1762 C1746 0.931 . S
H1763 C1751 0.929 . S
H1764 C1752 0.960 . S
H1765 C1752 0.962 . S
H1766 C1752 0.960 . S
H1767 C1753 0.961 . S
H1768 C1753 0.961 . S
H1769 C1753 0.961 . S
H1770 C1754 0.931 . S
H1771 C1759 0.930 . S
H1772 C1760 0.956 . S
H1773 C1760 0.961 . S
H1774 C1760 0.961 . S
H1775 C1761 0.958 . S
H1776 C1761 0.961 . S
H1777 C1761 0.960 . S
C1778 C1779 1.391 . S
C1778 C1780 1.394 . S
C1778 H1794 0.931 . S
C1779 C1778 1.391 . S
C1779 C1783 1.376 . S
C1780 C1778 1.394 . S
C1780 C1781 1.369 . S
C1780 C1784 1.531 . S
C1781 C1780 1.369 . S
C1781 C1782 1.410 . S
C1781 C1789 1.503 . S
C1782 C1781 1.410 . S
C1782 C1783 1.392 . S
C1782 C1785 1.511 . S
C1783 C1779 1.376 . S
C1783 C1782 1.392 . S
C1783 H1795 0.929 . S
C1784 C1780 1.531 . S
C1784 H1796 0.960 . S
C1784 H1797 0.962 . S
C1784 H1798 0.960 . S
C1785 C1782 1.511 . S
C1785 H1799 0.961 . S
C1785 H1800 0.961 . S
C1785 H1801 0.961 . S
C1786 C1787 1.370 . S
C1786 C1788 1.363 . S
C1786 H1802 0.931 . S
C1787 C1786 1.370 . S
C1787 C1791 1.408 . S
C1788 C1786 1.363 . S
C1788 C1789 1.370 . S
C1788 C1792 1.524 . S
C1789 C1781 1.503 . S
C1789 C1788 1.370 . S
C1789 C1790 1.403 . S
C1790 C1789 1.403 . S
C1790 C1791 1.404 . S
C1790 C1793 1.539 . S
C1791 C1787 1.408 . S
C1791 C1790 1.404 . S
C1791 H1803 0.930 . S
C1792 C1788 1.524 . S
C1792 H1804 0.956 . S
C1792 H1805 0.961 . S
C1792 H1806 0.961 . S
C1793 C1790 1.539 . S
C1793 H1807 0.958 . S
C1793 H1808 0.961 . S
C1793 H1809 0.960 . S
H1794 C1778 0.931 . S
H1795 C1783 0.929 . S
H1796 C1784 0.960 . S
H1797 C1784 0.962 . S
H1798 C1784 0.960 . S
H1799 C1785 0.961 . S
H1800 C1785 0.961 . S
H1801 C1785 0.961 . S
H1802 C1786 0.931 . S
H1803 C1791 0.930 . S
H1804 C1792 0.956 . S
H1805 C1792 0.961 . S
H1806 C1792 0.961 . S
H1807 C1793 0.958 . S
H1808 C1793 0.961 . S
H1809 C1793 0.960 . S
C1810 C1811 1.391 . S
C1810 C1812 1.394 . S
C1810 H1826 0.931 . S
C1811 C1810 1.391 . S
C1811 C1815 1.376 . S
C1812 C1810 1.394 . S
C1812 C1813 1.369 . S
C1812 C1816 1.531 . S
C1813 C1812 1.369 . S
C1813 C1814 1.410 . S
C1813 C1821 1.503 . S
C1814 C1813 1.410 . S
C1814 C1815 1.392 . S
C1814 C1817 1.511 . S
C1815 C1811 1.376 . S
C1815 C1814 1.392 . S
C1815 H1827 0.929 . S
C1816 C1812 1.531 . S
C1816 H1828 0.960 . S
C1816 H1829 0.962 . S
C1816 H1830 0.960 . S
C1817 C1814 1.511 . S
C1817 H1831 0.961 . S
C1817 H1832 0.961 . S
C1817 H1833 0.961 . S
C1818 C1819 1.370 . S
C1818 C1820 1.363 . S
C1818 H1834 0.931 . S
C1819 C1818 1.370 . S
C1819 C1823 1.408 . S
C1820 C1818 1.363 . S
C1820 C1821 1.370 . S
C1820 C1824 1.524 . S
C1821 C1813 1.503 . S
C1821 C1820 1.370 . S
C1821 C1822 1.403 . S
C1822 C1821 1.403 . S
C1822 C1823 1.404 . S
C1822 C1825 1.539 . S
C1823 C1819 1.408 . S
C1823 C1822 1.404 . S
C1823 H1835 0.930 . S
C1824 C1820 1.524 . S
C1824 H1836 0.956 . S
C1824 H1837 0.961 . S
C1824 H1838 0.961 . S
C1825 C1822 1.539 . S
C1825 H1839 0.958 . S
C1825 H1840 0.961 . S
C1825 H1841 0.960 . S
H1826 C1810 0.931 . S
H1827 C1815 0.929 . S
H1828 C1816 0.960 . S
H1829 C1816 0.962 . S
H1830 C1816 0.960 . S
H1831 C1817 0.961 . S
H1832 C1817 0.961 . S
H1833 C1817 0.961 . S
H1834 C1818 0.931 . S
H1835 C1823 0.930 . S
H1836 C1824 0.956 . S
H1837 C1824 0.961 . S
H1838 C1824 0.961 . S
H1839 C1825 0.958 . S
H1840 C1825 0.961 . S
H1841 C1825 0.960 . S
C1842 C1843 1.391 . S
C1842 C1844 1.394 . S
C1842 H1858 0.931 . S
C1843 C1842 1.391 . S
C1843 C1847 1.376 . S
C1844 C1842 1.394 . S
C1844 C1845 1.369 . S
C1844 C1848 1.531 . S
C1845 C1844 1.369 . S
C1845 C1846 1.410 . S
C1845 C1853 1.503 . S
C1846 C1845 1.410 . S
C1846 C1847 1.392 . S
C1846 C1849 1.511 . S
C1847 C1843 1.376 . S
C1847 C1846 1.392 . S
C1847 H1859 0.929 . S
C1848 C1844 1.531 . S
C1848 H1860 0.960 . S
C1848 H1861 0.962 . S
C1848 H1862 0.960 . S
C1849 C1846 1.511 . S
C1849 H1863 0.961 . S
C1849 H1864 0.961 . S
C1849 H1865 0.961 . S
C1850 C1851 1.370 . S
C1850 C1852 1.363 . S
C1850 H1866 0.931 . S
C1851 C1850 1.370 . S
C1851 C1855 1.408 . S
C1852 C1850 1.363 . S
C1852 C1853 1.370 . S
C1852 C1856 1.524 . S
C1853 C1845 1.503 . S
C1853 C1852 1.370 . S
C1853 C1854 1.403 . S
C1854 C1853 1.403 . S
C1854 C1855 1.404 . S
C1854 C1857 1.539 . S
C1855 C1851 1.408 . S
C1855 C1854 1.404 . S
C1855 H1867 0.930 . S
C1856 C1852 1.524 . S
C1856 H1868 0.956 . S
C1856 H1869 0.961 . S
C1856 H1870 0.961 . S
C1857 C1854 1.539 . S
C1857 H1871 0.958 . S
C1857 H1872 0.961 . S
C1857 H1873 0.960 . S
H1858 C1842 0.931 . S
H1859 C1847 0.929 . S
H1860 C1848 0.960 . S
H1861 C1848 0.962 . S
H1862 C1848 0.960 . S
H1863 C1849 0.961 . S
H1864 C1849 0.961 . S
H1865 C1849 0.961 . S
H1866 C1850 0.931 . S
H1867 C1855 0.930 . S
H1868 C1856 0.956 . S
H1869 C1856 0.961 . S
H1870 C1856 0.961 . S
H1871 C1857 0.958 . S
H1872 C1857 0.961 . S
H1873 C1857 0.960 . S
C1874 C1875 1.391 . S
C1874 C1876 1.394 . S
C1874 H1890 0.931 . S
C1875 C1874 1.391 . S
C1875 C1879 1.376 . S
C1876 C1874 1.394 . S
C1876 C1877 1.369 . S
C1876 C1880 1.531 . S
C1877 C1876 1.369 . S
C1877 C1878 1.410 . S
C1877 C1885 1.503 . S
C1878 C1877 1.410 . S
C1878 C1879 1.392 . S
C1878 C1881 1.511 . S
C1879 C1875 1.376 . S
C1879 C1878 1.392 . S
C1879 H1891 0.929 . S
C1880 C1876 1.531 . S
C1880 H1892 0.960 . S
C1880 H1893 0.962 . S
C1880 H1894 0.960 . S
C1881 C1878 1.511 . S
C1881 H1895 0.961 . S
C1881 H1896 0.961 . S
C1881 H1897 0.961 . S
C1882 C1883 1.370 . S
C1882 C1884 1.363 . S
C1882 H1898 0.931 . S
C1883 C1882 1.370 . S
C1883 C1887 1.408 . S
C1884 C1882 1.363 . S
C1884 C1885 1.370 . S
C1884 C1888 1.524 . S
C1885 C1877 1.503 . S
C1885 C1884 1.370 . S
C1885 C1886 1.403 . S
C1886 C1885 1.403 . S
C1886 C1887 1.404 . S
C1886 C1889 1.539 . S
C1887 C1883 1.408 . S
C1887 C1886 1.404 . S
C1887 H1899 0.930 . S
C1888 C1884 1.524 . S
C1888 H1900 0.956 . S
C1888 H1901 0.961 . S
C1888 H1902 0.961 . S
C1889 C1886 1.539 . S
C1889 H1903 0.958 . S
C1889 H1904 0.961 . S
C1889 H1905 0.960 . S
H1890 C1874 0.931 . S
H1891 C1879 0.929 . S
H1892 C1880 0.960 . S
H1893 C1880 0.962 . S
H1894 C1880 0.960 . S
H1895 C1881 0.961 . S
H1896 C1881 0.961 . S
H1897 C1881 0.961 . S
H1898 C1882 0.931 . S
H1899 C1887 0.930 . S
H1900 C1888 0.956 . S
H1901 C1888 0.961 . S
H1902 C1888 0.961 . S
H1903 C1889 0.958 . S
H1904 C1889 0.961 . S
H1905 C1889 0.960 . S
C1906 C1907 1.391 . S
C1906 C1908 1.394 . S
C1906 H1922 0.931 . S
C1907 C1906 1.391 . S
C1907 C1911 1.376 . S
C1908 C1906 1.394 . S
C1908 C1909 1.369 . S
C1908 C1912 1.531 . S
C1909 C1908 1.369 . S
C1909 C1910 1.410 . S
C1909 C1917 1.503 . S
C1910 C1909 1.410 . S
C1910 C1911 1.392 . S
C1910 C1913 1.511 . S
C1911 C1907 1.376 . S
C1911 C1910 1.392 . S
C1911 H1923 0.929 . S
C1912 C1908 1.531 . S
C1912 H1924 0.960 . S
C1912 H1925 0.962 . S
C1912 H1926 0.960 . S
C1913 C1910 1.511 . S
C1913 H1927 0.961 . S
C1913 H1928 0.961 . S
C1913 H1929 0.961 . S
C1914 C1915 1.370 . S
C1914 C1916 1.363 . S
C1914 H1930 0.931 . S
C1915 C1914 1.370 . S
C1915 C1919 1.408 . S
C1916 C1914 1.363 . S
C1916 C1917 1.370 . S
C1916 C1920 1.524 . S
C1917 C1909 1.503 . S
C1917 C1916 1.370 . S
C1917 C1918 1.403 . S
C1918 C1917 1.403 . S
C1918 C1919 1.404 . S
C1918 C1921 1.539 . S
C1919 C1915 1.408 . S
C1919 C1918 1.404 . S
C1919 H1931 0.930 . S
C1920 C1916 1.524 . S
C1920 H1932 0.956 . S
C1920 H1933 0.961 . S
C1920 H1934 0.961 . S
C1921 C1918 1.539 . S
C1921 H1935 0.958 . S
C1921 H1936 0.961 . S
C1921 H1937 0.960 . S
H1922 C1906 0.931 . S
H1923 C1911 0.929 . S
H1924 C1912 0.960 . S
H1925 C1912 0.962 . S
H1926 C1912 0.960 . S
H1927 C1913 0.961 . S
H1928 C1913 0.961 . S
H1929 C1913 0.961 . S
H1930 C1914 0.931 . S
H1931 C1919 0.930 . S
H1932 C1920 0.956 . S
H1933 C1920 0.961 . S
H1934 C1920 0.961 . S
H1935 C1921 0.958 . S
H1936 C1921 0.961 . S
H1937 C1921 0.960 . S
C1938 C1939 1.391 . S
C1938 C1940 1.394 . S
C1938 H1954 0.931 . S
C1939 C1938 1.391 . S
C1939 C1943 1.376 . S
C1940 C1938 1.394 . S
C1940 C1941 1.369 . S
C1940 C1944 1.531 . S
C1941 C1940 1.369 . S
C1941 C1942 1.410 . S
C1941 C1949 1.503 . S
C1942 C1941 1.410 . S
C1942 C1943 1.392 . S
C1942 C1945 1.511 . S
C1943 C1939 1.376 . S
C1943 C1942 1.392 . S
C1943 H1955 0.929 . S
C1944 C1940 1.531 . S
C1944 H1956 0.960 . S
C1944 H1957 0.962 . S
C1944 H1958 0.960 . S
C1945 C1942 1.511 . S
C1945 H1959 0.961 . S
C1945 H1960 0.961 . S
C1945 H1961 0.961 . S
C1946 C1947 1.370 . S
C1946 C1948 1.363 . S
C1946 H1962 0.931 . S
C1947 C1946 1.370 . S
C1947 C1951 1.408 . S
C1948 C1946 1.363 . S
C1948 C1949 1.370 . S
C1948 C1952 1.524 . S
C1949 C1941 1.503 . S
C1949 C1948 1.370 . S
C1949 C1950 1.403 . S
C1950 C1949 1.403 . S
C1950 C1951 1.404 . S
C1950 C1953 1.539 . S
C1951 C1947 1.408 . S
C1951 C1950 1.404 . S
C1951 H1963 0.930 . S
C1952 C1948 1.524 . S
C1952 H1964 0.956 . S
C1952 H1965 0.961 . S
C1952 H1966 0.961 . S
C1953 C1950 1.539 . S
C1953 H1967 0.958 . S
C1953 H1968 0.961 . S
C1953 H1969 0.960 . S
H1954 C1938 0.931 . S
H1955 C1943 0.929 . S
H1956 C1944 0.960 . S
H1957 C1944 0.962 . S
H1958 C1944 0.960 . S
H1959 C1945 0.961 . S
H1960 C1945 0.961 . S
H1961 C1945 0.961 . S
H1962 C1946 0.931 . S
H1963 C1951 0.930 . S
H1964 C1952 0.956 . S
H1965 C1952 0.961 . S
H1966 C1952 0.961 . S
H1967 C1953 0.958 . S
H1968 C1953 0.961 . S
H1969 C1953 0.960 . S
C1970 C1971 1.391 . S
C1970 C1972 1.394 . S
C1970 H1986 0.931 . S
C1971 C1970 1.391 . S
C1971 C1975 1.376 . S
C1972 C1970 1.394 . S
C1972 C1973 1.369 . S
C1972 C1976 1.531 . S
C1973 C1972 1.369 . S
C1973 C1974 1.410 . S
C1973 C1981 1.503 . S
C1974 C1973 1.410 . S
C1974 C1975 1.392 . S
C1974 C1977 1.511 . S
C1975 C1971 1.376 . S
C1975 C1974 1.392 . S
C1975 H1987 0.929 . S
C1976 C1972 1.531 . S
C1976 H1988 0.960 . S
C1976 H1989 0.962 . S
C1976 H1990 0.960 . S
C1977 C1974 1.511 . S
C1977 H1991 0.961 . S
C1977 H1992 0.961 . S
C1977 H1993 0.961 . S
C1978 C1979 1.370 . S
C1978 C1980 1.363 . S
C1978 H1994 0.931 . S
C1979 C1978 1.370 . S
C1979 C1983 1.408 . S
C1980 C1978 1.363 . S
C1980 C1981 1.370 . S
C1980 C1984 1.524 . S
C1981 C1973 1.503 . S
C1981 C1980 1.370 . S
C1981 C1982 1.403 . S
C1982 C1981 1.403 . S
C1982 C1983 1.404 . S
C1982 C1985 1.539 . S
C1983 C1979 1.408 . S
C1983 C1982 1.404 . S
C1983 H1995 0.930 . S
C1984 C1980 1.524 . S
C1984 H1996 0.956 . S
C1984 H1997 0.961 . S
C1984 H1998 0.961 . S
C1985 C1982 1.539 . S
C1985 H1999 0.958 . S
C1985 H2000 0.961 . S
C1985 H2001 0.960 . S
H1986 C1970 0.931 . S
H1987 C1975 0.929 . S
H1988 C1976 0.960 . S
H1989 C1976 0.962 . S
H1990 C1976 0.960 . S
H1991 C1977 0.961 . S
H1992 C1977 0.961 . S
H1993 C1977 0.961 . S
H1994 C1978 0.931 . S
H1995 C1983 0.930 . S
H1996 C1984 0.956 . S
H1997 C1984 0.961 . S
H1998 C1984 0.961 . S
H1999 C1985 0.958 . S
H2000 C1985 0.961 . S
H2001 C1985 0.960 . S
C2002 C2003 1.391 . S
C2002 C2004 1.394 . S
C2002 H2018 0.931 . S
C2003 C2002 1.391 . S
C2003 C2007 1.376 . S
C2004 C2002 1.394 . S
C2004 C2005 1.369 . S
C2004 C2008 1.531 . S
C2005 C2004 1.369 . S
C2005 C2006 1.410 . S
C2005 C2013 1.503 . S
C2006 C2005 1.410 . S
C2006 C2007 1.392 . S
C2006 C2009 1.511 . S
C2007 C2003 1.376 . S
C2007 C2006 1.392 . S
C2007 H2019 0.929 . S
C2008 C2004 1.531 . S
C2008 H2020 0.960 . S
C2008 H2021 0.962 . S
C2008 H2022 0.960 . S
C2009 C2006 1.511 . S
C2009 H2023 0.961 . S
C2009 H2024 0.961 . S
C2009 H2025 0.961 . S
C2010 C2011 1.370 . S
C2010 C2012 1.363 . S
C2010 H2026 0.931 . S
C2011 C2010 1.370 . S
C2011 C2015 1.408 . S
C2012 C2010 1.363 . S
C2012 C2013 1.370 . S
C2012 C2016 1.524 . S
C2013 C2005 1.503 . S
C2013 C2012 1.370 . S
C2013 C2014 1.403 . S
C2014 C2013 1.403 . S
C2014 C2015 1.404 . S
C2014 C2017 1.539 . S
C2015 C2011 1.408 . S
C2015 C2014 1.404 . S
C2015 H2027 0.930 . S
C2016 C2012 1.524 . S
C2016 H2028 0.956 . S
C2016 H2029 0.961 . S
C2016 H2030 0.961 . S
C2017 C2014 1.539 . S
C2017 H2031 0.958 . S
C2017 H2032 0.961 . S
C2017 H2033 0.960 . S
H2018 C2002 0.931 . S
H2019 C2007 0.929 . S
H2020 C2008 0.960 . S
H2021 C2008 0.962 . S
H2022 C2008 0.960 . S
H2023 C2009 0.961 . S
H2024 C2009 0.961 . S
H2025 C2009 0.961 . S
H2026 C2010 0.931 . S
H2027 C2015 0.930 . S
H2028 C2016 0.956 . S
H2029 C2016 0.961 . S
H2030 C2016 0.961 . S
H2031 C2017 0.958 . S
H2032 C2017 0.961 . S
H2033 C2017 0.960 . S
C595 N310 1.006 . S
C603 N13 0.924 . S
C627 N343 0.881 . S
C635 N46 0.960 . S
C659 N376 0.903 . S
C667 N79 0.977 . S
C691 N112 0.915 . S
C699 N409 0.936 . S
C723 N442 0.918 . S
C731 N145 0.935 . S
C755 N475 1.011 . S
C763 N178 0.927 . S
C787 N211 0.888 . S
C795 N508 0.974 . S
C819 N541 0.963 . S
C827 N244 0.923 . S
C851 N574 0.989 . S
C859 N277 0.960 . S
C883 C579 1.910 . S
C891 C18 1.904 . S
C915 C513 1.911 . S
C923 C51 1.906 . S
C947 C84 1.902 . S
C955 C546 1.910 . S
C979 C249 1.910 . S
C987 C117 1.905 . S
C1011 C282 1.900 . S
C1019 C150 1.901 . S
C1043 C183 1.911 . S
C1051 C216 1.908 . S
C1075 C315 1.892 . S
C1083 C447 1.906 . S
C1107 C480 1.890 . S
C1115 C348 1.905 . S
C1139 C381 1.904 . S
C1147 C414 1.910 . S
C1171 C21 1.191 . S
C1179 C153 1.225 . S
C1203 C186 1.207 . S
C1211 C54 1.220 . S
C1235 C120 1.235 . S
C1243 C87 1.208 . S
C1267 C351 1.253 . S
C1275 C219 1.200 . S
C1299 C252 1.213 . S
C1307 C384 1.218 . S
C1331 C318 1.251 . S
C1339 C285 1.201 . S
C1363 C417 1.234 . S
C1371 C549 1.209 . S
C1395 C582 1.222 . S
C1403 C450 1.212 . S
C1427 C483 1.243 . S
C1435 C516 1.205 . S
C1459 C73 1.004 . S
C1467 N2 1.081 . S
C1491 C7 1.073 . S
C1499 N35 1.070 . S
C1523 C40 1.071 . S
C1531 N68 1.070 . S
C1555 C139 1.088 . S
C1563 N101 1.067 . S
C1587 N134 1.057 . S
C1595 C172 1.062 . S
C1619 C106 1.053 . S
C1627 N167 1.073 . S
C1651 C271 1.007 . S
C1659 N200 1.081 . S
C1683 C205 1.004 . S
C1691 N233 1.081 . S
C1715 N266 1.063 . S
C1723 C238 1.057 . S
C1747 N299 1.083 . S
C1755 C337 1.037 . S
C1779 C370 1.088 . S
C1787 N332 1.067 . S
C1811 C304 1.085 . S
C1819 N365 1.067 . S
C1843 N398 1.065 . S
C1851 C469 1.055 . S
C1875 C403 1.026 . S
C1883 N431 1.077 . S
C1907 C436 1.007 . S
C1915 N464 1.081 . S
C1939 C535 1.006 . S
C1947 N497 1.081 . S
C1971 C568 1.004 . S
C1979 N530 1.082 . S
C2003 C502 1.013 . S
C2011 N563 1.080 . S
