# Generated by pormake.
# Topology snk, (6)-cn, num edge types: 1
# Building blocks:
#     Node 0, Type 0, BuildingBlock: PAMTUU_clean_sbu_0, # of connection points: 6
#     Node 1, Type 0, BuildingBlock: PAMTUU_clean_sbu_0, # of connection points: 6
#     Node 2, Type 0, BuildingBlock: PAMTUU_clean_sbu_0, # of connection points: 6
#     Node 3, Type 0, BuildingBlock: PAMTUU_clean_sbu_0, # of connection points: 6
#     Node 4, Type 0, BuildingBlock: PAMTUU_clean_sbu_0, # of connection points: 6
#     Node 5, Type 0, BuildingBlock: PAMTUU_clean_sbu_0, # of connection points: 6
#     Node 6, Type 0, BuildingBlock: PAMTUU_clean_sbu_0, # of connection points: 6
#     Node 7, Type 0, BuildingBlock: PAMTUU_clean_sbu_0, # of connection points: 6
#     Edge 8, Type (0, 0), BuildingBlock: XIVTED_clean_linker_0, # of connection points: 2
#     Edge 9, Type (0, 0), BuildingBlock: XIVTED_clean_linker_0, # of connection points: 2
#     Edge 10, Type (0, 0), BuildingBlock: XIVTED_clean_linker_0, # of connection points: 2
#     Edge 11, Type (0, 0), BuildingBlock: XIVTED_clean_linker_0, # of connection points: 2
#     Edge 12, Type (0, 0), BuildingBlock: XIVTED_clean_linker_0, # of connection points: 2
#     Edge 13, Type (0, 0), BuildingBlock: XIVTED_clean_linker_0, # of connection points: 2
#     Edge 14, Type (0, 0), BuildingBlock: XIVTED_clean_linker_0, # of connection points: 2
#     Edge 15, Type (0, 0), BuildingBlock: XIVTED_clean_linker_0, # of connection points: 2
#     Edge 16, Type (0, 0), BuildingBlock: XIVTED_clean_linker_0, # of connection points: 2
#     Edge 17, Type (0, 0), BuildingBlock: XIVTED_clean_linker_0, # of connection points: 2
#     Edge 18, Type (0, 0), BuildingBlock: XIVTED_clean_linker_0, # of connection points: 2
#     Edge 19, Type (0, 0), BuildingBlock: XIVTED_clean_linker_0, # of connection points: 2
#     Edge 20, Type (0, 0), BuildingBlock: XIVTED_clean_linker_0, # of connection points: 2
#     Edge 21, Type (0, 0), BuildingBlock: XIVTED_clean_linker_0, # of connection points: 2
#     Edge 22, Type (0, 0), BuildingBlock: XIVTED_clean_linker_0, # of connection points: 2
#     Edge 23, Type (0, 0), BuildingBlock: XIVTED_clean_linker_0, # of connection points: 2
#     Edge 24, Type (0, 0), BuildingBlock: XIVTED_clean_linker_0, # of connection points: 2
#     Edge 25, Type (0, 0), BuildingBlock: XIVTED_clean_linker_0, # of connection points: 2
#     Edge 26, Type (0, 0), BuildingBlock: XIVTED_clean_linker_0, # of connection points: 2
#     Edge 27, Type (0, 0), BuildingBlock: XIVTED_clean_linker_0, # of connection points: 2
#     Edge 28, Type (0, 0), BuildingBlock: XIVTED_clean_linker_0, # of connection points: 2
#     Edge 29, Type (0, 0), BuildingBlock: XIVTED_clean_linker_0, # of connection points: 2
#     Edge 30, Type (0, 0), BuildingBlock: XIVTED_clean_linker_0, # of connection points: 2
#     Edge 31, Type (0, 0), BuildingBlock: XIVTED_clean_linker_0, # of connection points: 2
# Relax obj value: 0.080
# Max RMSD: 0.124
# Mean RMSD: 0.124
data_MOF--net-snk--node1-PAMTUU_clean_sbu_0--edge1-XIVTED_clean_linker_0
_symmetry_space_group_name_H-M    P1
_symmetry_Int_Tables_number       1
_symmetry_cell_setting            triclinic
loop_
_symmetry_equiv_pos_as_xyz
'x, y, z'
_cell_length_a     39.420508
_cell_length_b     39.406843
_cell_length_c     25.456917
_cell_angle_alpha  89.985926
_cell_angle_beta   89.895902
_cell_angle_gamma 90.066048
loop_
_atom_site_label
_atom_site_type_symbol
_atom_site_fract_x
_atom_site_fract_y
_atom_site_fract_z
_atom_type_partial_charge
Tb0 Tb 0.98355 0.00343 0.57132 0.0
Tb1 Tb -0.01465 0.95934 0.45929 0.0
C2 C 0.94019 0.02491 0.47344 0.0
C3 C 0.98029 0.02526 0.71413 0.0
C4 C 0.97709 0.0088 0.82215 0.0
C5 C 0.97441 0.04271 0.80522 0.0
C6 C 0.97604 0.05082 0.75178 0.0
C7 C 0.98237 -0.00869 0.73048 0.0
C8 C 0.9808 0.98314 0.78401 0.0
C9 C 0.98344 0.03456 0.6583 0.0
O10 O 0.94023 0.96955 0.57249 0.0
O11 O 0.95852 0.92784 0.5159 0.0
O12 O 0.0281 0.94299 0.50709 0.0
O13 O 0.00687 0.95504 0.58895 0.0
O14 O 0.95998 0.93109 0.40132 0.0
O15 O 0.014 0.93933 0.39698 0.0
O16 O 0.0097 0.00743 0.44287 0.0
O17 O 0.02742 0.02032 0.52637 0.0
O18 O 0.95812 0.03519 0.51394 0.0
O19 O 0.94307 -0.00566 0.45326 0.0
C20 C 0.93863 0.9385 0.55398 0.0
O21 O 0.01076 0.02401 0.63452 0.0
O22 O 0.95654 0.03025 0.62936 0.0
C23 C 0.02816 0.93884 0.55832 0.0
C24 C 0.98423 0.93691 0.31701 0.0
C25 C 0.9801 0.954 0.20934 0.0
C26 C -0.01461 0.92017 0.22516 0.0
C27 C -0.01255 0.91176 0.27847 0.0
C28 C 0.97873 0.97067 0.3017 0.0
C29 C 0.97668 0.97914 0.24835 0.0
C30 C -0.01271 0.92768 0.37284 0.0
C31 C 0.02954 0.02407 0.47518 0.0
H32 H 0.97093 0.06307 0.83328 0.0
H33 H 0.97424 0.07716 0.73985 0.0
H34 H -0.01433 0.9712 0.7019 0.0
H35 H 0.98329 0.95681 0.79553 0.0
H36 H -0.01137 0.90023 0.19633 0.0
H37 H -0.00814 0.88559 0.28959 0.0
H38 H 0.97614 -0.00956 0.33101 0.0
H39 H 0.97217 0.00535 0.23769 0.0
Tb40 Tb 0.21471 0.73442 0.82389 0.0
Tb41 Tb 0.2586 0.73422 0.71155 0.0
C42 C 0.19515 0.68849 0.72772 0.0
C43 C 0.19165 0.73564 0.96641 0.0
C44 C 0.20749 0.7378 0.07459 0.0
C45 C 0.17376 0.73354 0.05769 0.0
C46 C 0.16597 0.73245 1.00416 0.0
C47 C 0.22531 0.74037 0.98276 0.0
C48 C 0.23316 0.74149 0.03641 0.0
C49 C 0.18301 0.73278 0.91039 0.0
O50 O 0.26379 0.71301 0.84166 0.0
O51 O 0.27691 0.69232 0.75987 0.0
O52 O 0.28937 0.76269 0.76675 0.0
O53 O 0.24828 0.77805 0.82698 0.0
O54 O 0.27908 0.70589 0.64933 0.0
O55 O 0.28575 0.76016 0.65269 0.0
O56 O 0.22318 0.7763 0.70688 0.0
O57 O 0.18256 0.75944 0.7667 0.0
O58 O 0.19962 0.69 0.77878 0.0
O59 O 0.21083 0.70924 0.69558 0.0
C60 C 0.28094 0.69245 0.81115 0.0
O61 O 0.18673 0.76008 0.88201 0.0
O62 O 0.19468 0.70601 0.8864 0.0
C63 C 0.27862 0.78147 0.80607 0.0
C64 C 0.28063 0.73532 0.56876 0.0
C65 C 0.26404 0.73863 0.4609 0.0
C66 C 0.29801 0.74093 0.47753 0.0
C67 C 0.30618 0.73925 0.53092 0.0
C68 C 0.24666 0.73338 0.55264 0.0
C69 C 0.23843 0.73494 0.49918 0.0
C70 C 0.28988 0.73281 0.62464 0.0
C71 C 0.19252 0.77836 0.72702 0.0
H72 H 0.15328 0.73117 0.08587 0.0
H73 H 0.13985 0.72882 0.99221 0.0
H74 H 0.24552 0.74274 0.95406 0.0
H75 H 0.25943 0.74447 0.04795 0.0
H76 H 0.31839 0.74334 0.4492 0.0
H77 H 0.33255 0.74074 0.54266 0.0
H78 H 0.22654 0.7305 0.58138 0.0
H79 H 0.212 0.73352 0.48787 0.0
Tb80 Tb 0.48278 0.96596 0.0737 0.0
Tb81 Tb 0.48382 0.01026 0.96164 0.0
C82 C 0.52833 0.94579 0.97678 0.0
C83 C 0.48062 0.94356 0.21653 0.0
C84 C 0.47825 0.95963 0.32474 0.0
C85 C 0.48 0.92565 0.30785 0.0
C86 C 0.48121 0.91774 0.25432 0.0
C87 C 0.47833 0.9775 0.23285 0.0
C88 C 0.47712 -0.01452 0.2865 0.0
C89 C 0.4835 0.93463 0.16054 0.0
O90 O 0.50554 0.01458 0.0912 0.0
O91 O 0.52655 0.02708 1.00934 0.0
O92 O 0.4569 0.04139 1.01844 0.0
O93 O 0.43932 -0.00037 0.07569 0.0
O94 O 0.51213 0.03069 0.89924 0.0
O95 O 0.45802 0.0382 0.90375 0.0
O96 O 0.44165 0.97496 0.9561 0.0
O97 O 0.4571 0.9342 1.01669 0.0
O98 O 0.5265 0.94944 0.02803 0.0
O99 O 0.50824 0.96235 0.94483 0.0
C100 C 0.52663 0.03109 0.06061 0.0
O101 O 0.45639 0.93872 0.13201 0.0
O102 O 0.51057 0.94568 0.13652 0.0
C103 C 0.43733 0.03061 0.05688 0.0
C104 C 0.48222 0.03298 0.81926 0.0
C105 C 0.47823 0.01656 0.7113 0.0
C106 C 0.47873 0.05064 0.72794 0.0
C107 C 0.48074 0.05872 0.78138 0.0
C108 C 0.48136 -0.00107 0.80314 0.0
C109 C 0.47944 -0.00921 0.74965 0.0
C110 C 0.48525 0.04202 0.87521 0.0
C111 C 0.43889 0.94442 0.97649 0.0
H112 H 0.48032 0.90506 0.33602 0.0
H113 H 0.48288 0.89139 0.24242 0.0
H114 H 0.47793 -0.00219 0.20414 0.0
H115 H 0.4761 0.01191 0.29799 0.0
H116 H 0.47828 0.07113 0.6996 0.0
H117 H 0.48145 0.08514 0.79311 0.0
H118 H 0.48235 0.97868 0.83191 0.0
H119 H 0.47866 0.96431 0.73836 0.0
Tb120 Tb 0.26058 0.23431 0.3402 0.0
Tb121 Tb 0.21647 0.2374 0.2287 0.0
C122 C 0.28062 0.2826 0.24829 0.0
C123 C 0.28349 0.23495 0.48252 0.0
C124 C 0.26746 0.23888 0.59071 0.0
C125 C 0.30142 0.23982 0.57354 0.0
C126 C 0.30932 0.23784 0.51999 0.0
C127 C 0.24953 0.23435 0.49918 0.0
C128 C 0.24159 0.23622 0.55278 0.0
C129 C 0.29239 0.23219 0.42643 0.0
O130 O 0.22542 0.27669 0.34658 0.0
O131 O 0.18424 0.26071 0.28735 0.0
O132 O 0.19978 0.19275 0.27218 0.0
O133 O 0.21284 0.20931 0.3562 0.0
O134 O 0.19066 0.26519 0.17055 0.0
O135 O 0.19517 0.21078 0.16544 0.0
O136 O 0.26493 0.21483 0.20994 0.0
O137 O 0.27726 0.19225 0.29077 0.0
O138 O 0.29191 0.26101 0.28341 0.0
O139 O 0.24916 0.28183 0.23145 0.0
C140 C 0.19452 0.279 0.32744 0.0
O141 O 0.28084 0.2055 0.402 0.0
O142 O 0.28875 0.25963 0.39838 0.0
C143 C 0.19619 0.18987 0.32334 0.0
C144 C 0.19443 0.24092 0.08573 0.0
C145 C 0.21079 0.24195 0.97754 0.0
C146 C 0.1768 0.23985 0.99435 0.0
C147 C 0.16875 0.23932 0.04787 0.0
C148 C 0.22838 0.24351 0.06947 0.0
C149 C 0.23649 0.2441 1.01581 0.0
C150 C 0.18537 0.23836 0.14174 0.0
C151 C 0.2812 0.19302 0.23945 0.0
H152 H 0.322 0.24141 0.60155 0.0
H153 H 0.33567 0.2383 0.50786 0.0
H154 H 0.2292 0.23229 0.47075 0.0
H155 H 0.21516 0.23588 0.56447 0.0
H156 H 0.15632 0.23871 0.96611 0.0
H157 H 0.14241 0.23731 0.05972 0.0
H158 H 0.24858 0.24458 0.09823 0.0
H159 H 0.26293 0.2454 1.00436 0.0
Tb160 Tb 0.71439 0.23463 0.32392 0.0
Tb161 Tb 0.75913 0.23553 0.21211 0.0
C162 C 0.69316 0.19077 0.22637 0.0
C163 C 0.69267 0.23255 0.46651 0.0
C164 C 0.71022 0.22977 0.57412 0.0
C165 C 0.67599 0.22962 0.55838 0.0
C166 C 0.66734 0.23105 0.50512 0.0
C167 C 0.72687 0.23218 0.48174 0.0
C168 C 0.73557 0.23086 0.53505 0.0
C169 C 0.68307 0.23562 0.41079 0.0
O170 O 0.74816 0.19119 0.32681 0.0
O171 O 0.7897 0.20701 0.26751 0.0
O172 O 0.77688 0.2774 0.26108 0.0
O173 O 0.76333 0.2561 0.34232 0.0
O174 O 0.78672 0.21017 0.15324 0.0
O175 O 0.77958 0.26437 0.15026 0.0
O176 O 0.71123 0.2599 0.19554 0.0
O177 O 0.69862 0.27878 0.2785 0.0
O178 O 0.68282 0.20925 0.2663 0.0
O179 O 0.72393 0.19324 0.20665 0.0
C180 C 0.77873 0.18811 0.30661 0.0
O181 O 0.69418 0.26262 0.38667 0.0
O182 O 0.68664 0.2085 0.38199 0.0
C183 C 0.78059 0.27694 0.31241 0.0
C184 C 0.78166 0.23533 0.06941 0.0
C185 C 0.76524 0.23246 0.96134 0.0
C186 C 0.79919 0.23562 0.97783 0.0
C187 C 0.80726 0.23705 0.03129 0.0
C188 C 0.74776 0.23191 0.05347 0.0
C189 C 0.73962 0.23047 0.99993 0.0
C190 C 0.7907 0.23767 0.12544 0.0
C191 C 0.69488 0.28035 0.22725 0.0
H192 H 0.6558 0.22923 0.58728 0.0
H193 H 0.64081 0.23144 0.49409 0.0
H194 H 0.74682 0.23322 0.45243 0.0
H195 H 0.76216 0.23056 0.54564 0.0
H196 H 0.81964 0.23667 0.94941 0.0
H197 H 0.83358 0.2396 0.04287 0.0
H198 H 0.72761 0.23062 0.08242 0.0
H199 H 0.7132 0.22841 0.98879 0.0
Tb200 Tb 0.75801 0.73633 0.83554 0.0
Tb201 Tb 0.71373 0.73547 0.72362 0.0
C202 C 0.78004 0.77747 0.73507 0.0
C203 C 0.78049 0.73589 0.9781 0.0
C204 C 0.76405 0.73218 0.08613 0.0
C205 C 0.79754 0.73878 0.06968 0.0
C206 C 0.80563 0.74062 1.01622 0.0
C207 C 0.74703 0.72923 0.99402 0.0
C208 C 0.73888 0.7274 0.04756 0.0
C209 C 0.7895 0.73845 0.92207 0.0
O210 O 0.71018 0.76105 0.85178 0.0
O211 O 0.69847 0.77995 0.7686 0.0
O212 O 0.68185 0.71054 0.78143 0.0
O213 O 0.72261 0.6942 0.84119 0.0
O214 O 0.6936 0.76343 0.66091 0.0
O215 O 0.68583 0.70932 0.66591 0.0
O216 O 0.74721 0.69183 0.72101 0.0
O217 O 0.7886 0.70762 0.78029 0.0
O218 O 0.77609 0.778 0.78638 0.0
O219 O 0.76282 0.75669 0.7051 0.0
C220 C 0.69429 0.78162 0.81975 0.0
O221 O 0.78566 0.71099 0.89415 0.0
O222 O 0.77821 0.76515 0.89749 0.0
C223 C 0.69193 0.69189 0.82127 0.0
C224 C 0.69117 0.73326 0.58113 0.0
C225 C 0.70685 0.73037 0.47275 0.0
C226 C 0.6732 0.72646 0.49048 0.0
C227 C 0.66548 0.72794 0.54409 0.0
C228 C 0.72489 0.73649 0.564 0.0
C229 C 0.73266 0.7351 0.5103 0.0
C230 C 0.68221 0.73644 0.63713 0.0
C231 C 0.77767 0.68863 0.74136 0.0
H232 H 0.81746 0.74312 0.09813 0.0
H233 H 0.83155 0.74596 1.00462 0.0
H234 H 0.72726 0.72549 0.96506 0.0
H235 H 0.71293 0.7219 0.05872 0.0
H236 H 0.65276 0.72216 0.46292 0.0
H237 H 0.63933 0.72524 0.55662 0.0
H238 H 0.74511 0.74061 0.59207 0.0
H239 H 0.75878 0.73854 0.49819 0.0
Tb240 Tb 0.48319 0.5092 0.08629 0.0
Tb241 Tb 0.4843 0.46477 0.97485 0.0
C242 C 0.43955 0.5305 0.98918 0.0
C243 C 0.47984 0.53117 0.2294 0.0
C244 C 0.47684 0.51538 0.33778 0.0
C245 C 0.47163 0.54882 0.32003 0.0
C246 C 0.47316 0.5566 0.26644 0.0
C247 C 0.48448 0.49764 0.24657 0.0
C248 C 0.48301 0.48981 0.30025 0.0
C249 C 0.48278 0.54029 0.17339 0.0
O250 O 0.43913 0.47604 0.08578 0.0
O251 O 0.45927 0.43322 0.03317 0.0
O252 O 0.52767 0.44878 1.02157 0.0
O253 O 0.50744 0.46126 0.10391 0.0
O254 O 0.45823 0.43655 0.91755 0.0
O255 O 0.51225 0.44455 0.91192 0.0
O256 O 0.50815 0.5129 0.95748 0.0
O257 O 0.52657 0.52665 0.04036 0.0
O258 O 0.45848 0.54108 0.02839 0.0
O259 O 0.44146 0.49939 0.97068 0.0
C260 C 0.43829 0.4445 0.06925 0.0
O261 O 0.51019 0.53013 0.14946 0.0
O262 O 0.45589 0.53559 0.14456 0.0
C263 C 0.52856 0.44511 0.07289 0.0
C264 C 0.48183 0.44181 0.83252 0.0
C265 C 0.47739 0.45822 0.72453 0.0
C266 C 0.48438 0.4248 0.74082 0.0
C267 C 0.48659 0.41673 0.79424 0.0
C268 C 0.47465 0.47517 0.81677 0.0
C269 C 0.47245 0.48331 0.76327 0.0
C270 C 0.48527 0.43293 0.88849 0.0
C271 C 0.52812 0.52999 0.98901 0.0
H272 H 0.46622 0.56906 0.34756 0.0
H273 H 0.46935 0.5826 0.25392 0.0
H274 H 0.48968 0.47762 0.21853 0.0
H275 H 0.48748 0.46386 0.31239 0.0
H276 H 0.48885 0.40493 0.71227 0.0
H277 H 0.49234 0.39088 0.80568 0.0
H278 H 0.4709 0.49491 0.84584 0.0
H279 H 0.46663 0.5092 0.75228 0.0
Tb280 Tb 0.98415 0.4588 0.59051 0.0
Tb281 Tb 0.98253 0.50302 0.47842 0.0
C282 C 0.02714 0.43849 0.49146 0.0
C283 C 0.98324 0.43517 0.73285 0.0
C284 C 0.98012 0.45044 0.8413 0.0
C285 C -0.01554 0.41679 0.82394 0.0
C286 C -0.01399 0.40928 0.77029 0.0
C287 C 0.97857 0.46876 0.74965 0.0
C288 C 0.97698 0.47633 0.80341 0.0
C289 C -0.01404 0.42673 0.67665 0.0
O290 O 0.00871 0.50678 0.60694 0.0
O291 O 0.02628 0.52006 0.52332 0.0
O292 O 0.95713 0.53479 0.53583 0.0
O293 O 0.94205 0.49403 0.5968 0.0
O294 O 0.00983 0.52331 0.4149 0.0
O295 O 0.95565 0.52987 0.4204 0.0
O296 O 0.9391 0.46927 0.47753 0.0
O297 O 0.95739 0.42743 0.53378 0.0
O298 O 0.02705 0.44263 0.54267 0.0
O299 O 0.00576 0.45459 0.46096 0.0
C300 C 0.02847 0.52357 0.57455 0.0
O301 O 0.9586 0.43069 0.64864 0.0
O302 O 0.01271 0.43835 0.65243 0.0
C303 C 0.93921 0.52456 0.57647 0.0
C304 C 0.97926 0.52421 0.33553 0.0
C305 C 0.97559 0.50684 0.22792 0.0
C306 C 0.97367 0.54096 0.24407 0.0
C307 C 0.97554 0.54952 0.29733 0.0
C308 C 0.98068 0.49008 0.31992 0.0
C309 C 0.97893 0.48147 0.26659 0.0
C310 C 0.98254 0.53387 0.39118 0.0
C311 C 0.93753 0.43815 0.4958 0.0
H312 H -0.01358 0.39614 0.85183 0.0
H313 H -0.01046 0.38319 0.75801 0.0
H314 H 0.97647 0.48912 0.72122 0.0
H315 H 0.97398 0.50255 0.81527 0.0
H316 H 0.97153 0.56118 0.21545 0.0
H317 H 0.97449 0.576 0.30866 0.0
H318 H 0.98342 0.47015 0.34893 0.0
H319 H 0.98004 0.45494 0.25567 0.0
H320 H 0.07418 0.06455 0.52878 0.0
H321 H 0.15475 0.14634 0.26899 0.0
H322 H 0.04249 0.03818 0.37162 0.0
H323 H 0.1829 0.17557 0.42656 0.0
H324 H 0.11467 0.10534 0.30566 0.0
H325 H 0.11533 0.10419 0.49176 0.0
C326 C 0.07586 0.06704 0.48648 0.0
C327 C 0.05477 0.04801 0.45329 0.0
C328 C 0.12964 0.12072 0.33218 0.0
C329 C 0.10191 0.09342 0.41061 0.0
C330 C 0.15257 0.14413 0.31127 0.0
C331 C 0.1722 0.16451 0.34471 0.0
C332 C 0.12634 0.11762 0.38692 0.0
C333 C 0.16827 0.16048 0.3992 0.0
C334 C 0.09939 0.08973 0.46536 0.0
C335 C 0.05816 0.05235 0.39877 0.0
N336 N 0.14579 0.13754 0.41856 0.0
N337 N 0.08127 0.07461 0.37915 0.0
H338 H 0.08255 0.90759 0.51172 0.0
H339 H 0.13113 0.79914 0.76599 0.0
H340 H 0.02927 0.91558 0.65961 0.0
H341 H 0.19801 0.8114 0.63274 0.0
H342 H 0.09089 0.83799 0.72472 0.0
H343 H 0.12259 0.86836 0.55267 0.0
C344 C 0.07922 0.90107 0.55274 0.0
C345 C 0.05253 0.91494 0.58228 0.0
C346 C 0.11442 0.83223 0.70462 0.0
C347 C 0.09819 0.87001 0.62926 0.0
C348 C 0.13737 0.80998 0.72808 0.0
C349 C 0.16805 0.80208 0.70288 0.0
C350 C 0.12203 0.8464 0.65536 0.0
C351 C 0.17478 0.81693 0.65379 0.0
C352 C 0.10215 0.87877 0.57612 0.0
C353 C 0.04953 0.90562 0.63534 0.0
N354 N 0.15189 0.83828 0.63156 0.0
N355 N 0.07202 0.88366 0.65707 0.0
H356 H 0.33122 0.81511 0.75897 0.0
H357 H 0.40599 0.89115 1.02274 0.0
H358 H 0.27967 0.80334 0.9076 0.0
H359 H 0.41804 0.94286 0.87437 0.0
H360 H 0.36645 0.85147 0.98075 0.0
H361 H 0.37048 0.85537 0.80048 0.0
C362 C 0.32822 0.821 0.80028 0.0
C363 C 0.30214 0.8061 0.82991 0.0
C364 C 0.37776 0.87158 0.95756 0.0
C365 C 0.34704 0.85136 0.87747 0.0
C366 C 0.40036 0.89406 0.98134 0.0
C367 C 0.41509 0.92034 0.95196 0.0
C368 C 0.37055 0.87498 0.90385 0.0
C369 C 0.40694 0.9231 0.89848 0.0
C370 C 0.35047 0.84398 0.82379 0.0
C371 C 0.29926 0.81456 0.88328 0.0
N372 N 0.38538 0.90049 0.87596 0.0
N373 N 0.32166 0.83644 0.90552 0.0
H374 H 0.41732 0.0933 1.02206 0.0
H375 H 0.312 0.13701 0.28206 0.0
H376 H 0.40411 0.02285 0.15052 0.0
H377 H 0.30428 0.19466 0.13824 0.0
H378 H 0.3501 0.09733 0.23745 0.0
H379 H 0.37975 0.13325 0.06702 0.0
C380 C 0.40647 0.08619 0.05961 0.0
C381 C 0.41376 0.05463 0.08243 0.0
C382 C 0.34001 0.11868 0.21573 0.0
C383 C 0.37105 0.1003 0.13423 0.0
C384 C 0.31838 0.14139 0.24121 0.0
C385 C 0.30485 0.16913 0.21382 0.0
C386 C 0.34841 0.12395 0.16269 0.0
C387 C 0.31395 0.17353 0.16088 0.0
C388 C 0.38501 0.10898 0.08522 0.0
C389 C 0.399 0.04679 0.13122 0.0
N390 N 0.33522 0.15122 0.13709 0.0
N391 N 0.37846 0.06952 0.15559 0.0
H392 H 0.91889 0.8756 0.51934 0.0
H393 H 0.8121 0.83259 0.77834 0.0
H394 H 0.90517 0.94627 0.64727 0.0
H395 H 0.80349 0.77555 0.63409 0.0
H396 H 0.85114 0.87167 0.7342 0.0
H397 H 0.88097 0.83571 0.5641 0.0
C398 C 0.90787 0.88276 0.55673 0.0
C399 C 0.91508 0.91437 0.57944 0.0
C400 C 0.84066 0.85058 0.71229 0.0
C401 C 0.87203 0.86881 0.63101 0.0
C402 C 0.8185 0.8282 0.7375 0.0
C403 C 0.80442 0.80085 0.70983 0.0
C404 C 0.84903 0.84534 0.65924 0.0
C405 C 0.81357 0.79642 0.65691 0.0
C406 C 0.88622 0.86001 0.58222 0.0
C407 C 0.90012 0.92229 0.62804 0.0
N408 N 0.83535 0.8184 0.63338 0.0
N409 N 0.87942 0.89961 0.65229 0.0
H410 H 0.92024 0.02604 0.37091 0.0
H411 H 0.77898 0.1666 0.40833 0.0
H412 H 0.90669 0.07824 0.51849 0.0
H413 H 0.83196 0.15463 0.26098 0.0
H414 H 0.81884 0.12703 0.44928 0.0
H415 H 0.88105 0.06614 0.32949 0.0
C416 C 0.90889 0.04585 0.39462 0.0
C417 C 0.91661 0.04888 0.44821 0.0
C418 C 0.82167 0.13311 0.408 0.0
C419 C 0.87168 0.09434 0.40127 0.0
C420 C 0.79887 0.15544 0.38453 0.0
C421 C 0.80221 0.16376 0.33118 0.0
C422 C 0.84749 0.11846 0.37763 0.0
C423 C 0.82863 0.1489 0.30227 0.0
C424 C 0.88675 0.06877 0.3709 0.0
C425 C 0.90147 0.07516 0.47702 0.0
N426 N 0.85014 0.12667 0.32578 0.0
N427 N 0.87942 0.09674 0.45328 0.0
H428 H 0.69926 0.15896 0.13118 0.0
H429 H 0.52719 0.05383 0.16199 0.0
H430 H 0.63186 0.16888 0.26424 0.0
H431 H 0.58118 0.06291 1.01485 0.0
H432 H 0.56762 0.09277 0.20214 0.0
H433 H 0.65862 0.12042 0.09011 0.0
C434 C 0.67599 0.15295 0.1519 0.0
C435 C 0.66899 0.16712 0.20135 0.0
C436 C 0.57058 0.08632 0.16104 0.0
C437 C 0.62241 0.12304 0.15445 0.0
C438 C 0.54755 0.06399 0.13806 0.0
C439 C 0.55081 0.05506 0.08491 0.0
C440 C 0.59729 0.09962 0.13087 0.0
C441 C 0.57766 0.06916 0.0559 0.0
C442 C 0.65274 0.13107 0.12826 0.0
C443 C 0.63829 0.15861 0.22607 0.0
N444 N 0.59998 0.09065 0.07934 0.0
N445 N 0.6162 0.13702 0.20244 0.0
H446 H 0.65368 0.82664 0.76695 0.0
H447 H 0.57296 0.90469 0.02929 0.0
H448 H 0.68063 0.79406 0.92343 0.0
H449 H 0.54126 0.93288 0.8729 0.0
H450 H 0.61402 0.86546 0.99108 0.0
H451 H 0.61385 0.86726 0.805 0.0
C452 C 0.6513 0.82804 0.80928 0.0
C453 C 0.67051 0.80683 0.842 0.0
C454 C 0.59809 0.88024 0.96513 0.0
C455 C 0.62492 0.85328 0.88581 0.0
C456 C 0.57462 0.90269 0.98693 0.0
C457 C 0.55355 0.9221 0.9543 0.0
C458 C 0.60058 0.8772 0.91028 0.0
C459 C 0.55691 0.9184 0.89965 0.0
C460 C 0.62851 0.85123 0.83099 0.0
C461 C 0.66632 0.80982 0.89661 0.0
N462 N 0.57996 0.89639 0.87939 0.0
N463 N 0.64398 0.83258 0.91676 0.0
H464 H 0.58108 0.56279 0.03717 0.0
H465 H 0.63116 0.67002 0.78205 0.0
H466 H 0.53054 0.55251 0.88759 0.0
H467 H 0.69705 0.65995 0.91651 0.0
H468 H 0.59107 0.63101 0.82352 0.0
H469 H 0.62109 0.6026 0.99678 0.0
C470 C 0.57835 0.56892 0.99592 0.0
C471 C 0.55247 0.55424 0.96571 0.0
C472 C 0.61435 0.63729 0.84388 0.0
C473 C 0.59799 0.59978 0.91944 0.0
C474 C 0.6372 0.65963 0.8203 0.0
C475 C 0.66757 0.66816 0.84575 0.0
C476 C 0.62172 0.62363 0.89351 0.0
C477 C 0.67407 0.65388 0.89527 0.0
C478 C 0.60125 0.59155 0.97288 0.0
C479 C 0.55018 0.56307 0.91239 0.0
N480 N 0.65126 0.63238 0.91764 0.0
N481 N 0.57258 0.58533 0.89103 0.0
H482 H 0.68286 0.29288 0.12323 0.0
H483 H 0.5395 0.43217 0.17729 0.0
H484 H 0.65266 0.32473 0.27877 0.0
H485 H 0.57448 0.4043 1.02231 0.0
H486 H 0.5804 0.39277 0.21527 0.0
H487 H 0.64298 0.33336 0.08582 0.0
C488 C 0.66787 0.3084 0.14961 0.0
C489 C 0.67112 0.30532 0.20433 0.0
C490 C 0.57916 0.39531 0.17297 0.0
C491 C 0.62525 0.35183 0.16151 0.0
C492 C 0.55577 0.4178 0.15118 0.0
C493 C 0.55348 0.42156 0.09643 0.0
C494 C 0.6004 0.37634 0.13983 0.0
C495 C 0.5753 0.40227 0.06469 0.0
C496 C 0.64509 0.33157 0.12813 0.0
C497 C 0.65103 0.32622 0.23639 0.0
N498 N 0.59779 0.38047 0.08686 0.0
N499 N 0.6289 0.34853 0.21449 0.0
H500 H 0.91791 0.375 0.52973 0.0
H501 H 0.81256 0.33242 0.26967 0.0
H502 H 0.90441 0.44617 0.40242 0.0
H503 H 0.80373 0.27477 0.41338 0.0
H504 H 0.85119 0.37159 0.31435 0.0
H505 H 0.88047 0.33509 0.48431 0.0
C506 C 0.90704 0.38227 0.49235 0.0
C507 C 0.91417 0.41403 0.47001 0.0
C508 C 0.84075 0.35034 0.33601 0.0
C509 C 0.87165 0.36844 0.41767 0.0
C510 C 0.81883 0.32791 0.31048 0.0
C511 C 0.80479 0.30037 0.33785 0.0
C512 C 0.84894 0.34493 0.38907 0.0
C513 C 0.81378 0.29579 0.39077 0.0
C514 C 0.88565 0.35951 0.46648 0.0
C515 C 0.8994 0.42208 0.42138 0.0
N516 N 0.83531 0.3178 0.4146 0.0
N517 N 0.87896 0.39938 0.39676 0.0
H518 H 0.77799 0.66648 0.64002 0.0
H519 H 0.9191 0.52602 0.67904 0.0
H520 H 0.83066 0.65523 0.78749 0.0
H521 H 0.90574 0.57762 0.53094 0.0
H522 H 0.87978 0.56626 0.7201 0.0
H523 H 0.8178 0.62656 0.59964 0.0
C524 C 0.79779 0.65541 0.66396 0.0
C525 C 0.80108 0.66405 0.71717 0.0
C526 C 0.88555 0.56871 0.67866 0.0
C527 C 0.8463 0.61836 0.67138 0.0
C528 C 0.90776 0.54573 0.65515 0.0
C529 C 0.91557 0.54856 0.60153 0.0
C530 C 0.87052 0.59414 0.64801 0.0
C531 C 0.90045 0.57469 0.57245 0.0
C532 C 0.82057 0.63287 0.64082 0.0
C533 C 0.82738 0.64928 0.74629 0.0
N534 N 0.87834 0.59634 0.59598 0.0
N535 N 0.84889 0.62685 0.7231 0.0
H536 H 0.34942 0.27703 0.23899 0.0
H537 H 0.37799 0.45978 0.1162 0.0
H538 H 0.26562 0.34323 0.20206 0.0
H539 H 0.44409 0.37574 0.07976 0.0
H540 H 0.33934 0.42047 0.16088 0.0
H541 H 0.38793 0.31653 0.19425 0.0
C542 C 0.3392 0.30002 0.22191 0.0
C543 C 0.30434 0.30696 0.22417 0.0
C544 C 0.36225 0.4107 0.14288 0.0
C545 C 0.34809 0.35204 0.17345 0.0
C546 C 0.38431 0.43304 0.11755 0.0
C547 C 0.41415 0.42089 0.09414 0.0
C548 C 0.37053 0.37615 0.14581 0.0
C549 C 0.42116 0.38604 0.09694 0.0
C550 C 0.36111 0.32233 0.1961 0.0
C551 C 0.29234 0.33692 0.20098 0.0
N552 N 0.39963 0.36487 0.12281 0.0
N553 N 0.31424 0.35852 0.17682 0.0
H554 H 0.41893 0.59273 0.02483 0.0
H555 H 0.31326 0.63796 0.76626 0.0
H556 H 0.40751 0.52358 0.89444 0.0
H557 H 0.30417 0.69314 0.91218 0.0
H558 H 0.3524 0.59856 0.8092 0.0
H559 H 0.38114 0.63266 0.98065 0.0
C560 C 0.40847 0.58592 0.98695 0.0
C561 C 0.41627 0.55469 0.96344 0.0
C562 C 0.34179 0.61931 0.83173 0.0
C563 C 0.37321 0.60038 0.91251 0.0
C564 C 0.31957 0.64188 0.80721 0.0
C565 C 0.30533 0.66883 0.83569 0.0
C566 C 0.35007 0.62397 0.8849 0.0
C567 C 0.31437 0.67263 0.88871 0.0
C568 C 0.38685 0.6087 0.9618 0.0
C569 C 0.40197 0.54725 0.91425 0.0
N570 N 0.3362 0.6505 0.91154 0.0
N571 N 0.38122 0.56998 0.89034 0.0
H572 H 0.15527 0.64306 0.78125 0.0
H573 H 0.07238 0.56506 0.52096 0.0
H574 H 0.18062 0.67626 0.62426 0.0
H575 H 0.04227 0.53645 0.67812 0.0
H576 H 0.11364 0.60449 0.55811 0.0
H577 H 0.11527 0.60231 0.74411 0.0
C578 C 0.1525 0.64177 0.73898 0.0
C579 C 0.17131 0.6632 0.70586 0.0
C580 C 0.09801 0.58958 0.58446 0.0
C581 C 0.1255 0.61658 0.66308 0.0
C582 C 0.07443 0.56702 0.56328 0.0
C583 C 0.05375 0.54741 0.59644 0.0
C584 C 0.10101 0.59256 0.63923 0.0
C585 C 0.0576 0.55107 0.65098 0.0
C586 C 0.12961 0.6185 0.7178 0.0
C587 C 0.16662 0.66033 0.65137 0.0
N588 N 0.08076 0.5732 0.67065 0.0
N589 N 0.14418 0.63748 0.63172 0.0
H590 H 0.20054 0.3113 0.42232 0.0
H591 H 0.02825 0.41556 0.39015 0.0
H592 H 0.13324 0.30036 0.28969 0.0
H593 H 0.08181 0.40747 0.53749 0.0
H594 H 0.06902 0.37674 0.35048 0.0
H595 H 0.15979 0.35003 0.46294 0.0
C596 C 0.17727 0.31711 0.40164 0.0
C597 C 0.17031 0.30261 0.35245 0.0
C598 C 0.07182 0.38339 0.39152 0.0
C599 C 0.12367 0.34689 0.39873 0.0
C600 C 0.0486 0.40565 0.41421 0.0
C601 C 0.05161 0.41479 0.46728 0.0
C602 C 0.09847 0.37037 0.42192 0.0
C603 C 0.07846 0.40104 0.49648 0.0
C604 C 0.15397 0.3391 0.42499 0.0
C605 C 0.13963 0.31088 0.32769 0.0
N606 N 0.10096 0.37959 0.47334 0.0
N607 N 0.11752 0.33256 0.35101 0.0
H608 H 0.94675 0.95444 0.87165 0.0
H609 H 0.00729 0.0098 0.15993 0.0
H610 H 0.00653 0.04394 0.90343 0.0
H611 H 0.94998 0.91865 0.12864 0.0
H612 H 0.00576 0.02347 0.06638 0.0
H613 H 0.9469 0.94121 0.96553 0.0
C614 C 0.96004 0.97126 0.89824 0.0
C615 C 0.97662 0.00041 0.87934 0.0
C616 C -0.00652 0.00048 0.07994 0.0
C617 C 0.97658 -0.01446 0.98728 0.0
C618 C -0.00586 -0.00724 0.13351 0.0
C619 C 0.97875 0.96299 0.15243 0.0
C620 C 0.97728 0.97833 0.04471 0.0
C621 C 0.9626 0.94164 0.11592 0.0
C622 C 0.95994 0.96378 0.95196 0.0
C623 C -0.00704 0.02147 0.91604 0.0
N624 N 0.96229 0.94972 0.06394 0.0
N625 N -0.00746 0.01362 0.96806 0.0
H626 H 0.29161 0.77904 0.38371 0.0
H627 H 0.18065 0.69745 0.15219 0.0
H628 H 0.2171 0.70019 0.40774 0.0
H629 H 0.25325 0.778 0.12763 0.0
H630 H 0.19376 0.69824 0.24581 0.0
H631 H 0.27826 0.77894 0.28994 0.0
C632 C 0.27252 0.76161 0.3693 0.0
C633 C 0.25551 0.73955 0.40386 0.0
C634 C 0.20683 0.71579 0.22002 0.0
C635 C 0.2399 0.73948 0.29628 0.0
C636 C 0.19921 0.71549 0.16647 0.0
C637 C 0.21573 0.73782 0.13177 0.0
C638 C 0.23122 0.73856 0.23938 0.0
C639 C 0.24009 0.7601 0.15267 0.0
C640 C 0.26479 0.76169 0.31572 0.0
C641 C 0.23061 0.71794 0.38285 0.0
N642 N 0.24704 0.75993 0.20504 0.0
N643 N 0.22365 0.7184 0.33054 0.0
H644 H 0.44123 0.04747 0.63321 0.0
H645 H 0.51511 0.92952 0.40339 0.0
H646 H 0.51275 0.96633 0.65884 0.0
H647 H 0.44156 0.00874 0.37694 0.0
H648 H 0.51436 0.94275 0.49699 0.0
H649 H 0.44108 0.03402 0.53942 0.0
C650 C 0.457 0.02689 0.61917 0.0
C651 C 0.47708 0.00805 0.6542 0.0
C652 C 0.49834 0.95725 0.47079 0.0
C653 C 0.47683 -0.00766 0.54656 0.0
C654 C 0.49859 0.94957 0.41723 0.0
C655 C 0.47823 0.9679 0.38197 0.0
C656 C 0.4776 0.98353 0.48964 0.0
C657 C 0.45794 -0.00589 0.40239 0.0
C658 C 0.45677 0.01912 0.56556 0.0
C659 C 0.49655 0.98131 0.63361 0.0
N660 N 0.4581 0.00108 0.45479 0.0
N661 N 0.496 0.97434 0.58127 0.0
H662 H 0.18184 0.203 0.90022 0.0
H663 H 0.29713 0.27797 0.66758 0.0
H664 H 0.2591 0.2791 0.92419 0.0
H665 H 0.21895 0.20269 0.64464 0.0
H666 H 0.28393 0.27866 0.76149 0.0
H667 H 0.19519 0.20272 0.80659 0.0
C668 C 0.20149 0.21985 0.88581 0.0
C669 C 0.21922 0.24126 0.92036 0.0
C670 C 0.26963 0.26201 0.73591 0.0
C671 C 0.23497 0.24076 0.81269 0.0
C672 C 0.27727 0.26147 0.68224 0.0
C673 C 0.25917 0.2402 0.64792 0.0
C674 C 0.24372 0.24107 0.7557 0.0
C675 C 0.23332 0.21981 0.6693 0.0
C676 C 0.20924 0.21953 0.83225 0.0
C677 C 0.24493 0.26196 0.89928 0.0
N678 N 0.22645 0.22072 0.72168 0.0
N679 N 0.25197 0.26124 0.84689 0.0
H680 H 0.71716 0.19347 0.9111 0.0
H681 H 0.76049 0.26579 0.62396 0.0
H682 H 0.79385 0.2693 0.88082 0.0
H683 H 0.68061 0.19339 0.65439 0.0
H684 H 0.77415 0.26602 0.71755 0.0
H685 H 0.70391 0.19238 0.81729 0.0
C686 C 0.73111 0.21004 0.88487 0.0
C687 C 0.75673 0.2315 0.90419 0.0
C688 C 0.75365 0.25004 0.7038 0.0
C689 C 0.74188 0.23007 0.79624 0.0
C690 C 0.74597 0.24971 0.6502 0.0
C691 C 0.71932 0.22953 0.63103 0.0
C692 C 0.73464 0.22998 0.73879 0.0
C693 C 0.70107 0.20968 0.66731 0.0
C694 C 0.72365 0.20925 0.83117 0.0
C695 C 0.77426 0.25197 0.86789 0.0
N696 N 0.70907 0.2104 0.7193 0.0
N697 N 0.76652 0.25075 0.81586 0.0
H698 H 0.66989 0.75818 0.39207 0.0
H699 H 0.80114 0.70392 0.1664 0.0
H700 H 0.762 0.70235 0.42215 0.0
H701 H 0.70745 0.75703 0.13642 0.0
H702 H 0.7874 0.70318 0.26003 0.0
H703 H 0.68312 0.75761 0.2984 0.0
C704 C 0.69279 0.74555 0.37905 0.0
C705 C 0.71477 0.73017 0.41536 0.0
C706 C 0.7698 0.71495 0.23298 0.0
C707 C 0.73036 0.72988 0.30762 0.0
C708 C 0.77772 0.71555 0.17944 0.0
C709 C 0.75549 0.73066 0.14322 0.0
C710 C 0.73941 0.7296 0.25077 0.0
C711 C 0.72522 0.74477 0.16261 0.0
C712 C 0.70044 0.74543 0.32544 0.0
C713 C 0.74444 0.71486 0.39589 0.0
N714 N 0.71815 0.74397 0.21495 0.0
N715 N 0.75133 0.7151 0.34347 0.0
H716 H 0.44992 0.4207 0.6439 0.0
H717 H 0.50236 0.55347 0.41911 0.0
H718 H 0.50138 0.51537 0.67451 0.0
H719 H 0.45052 0.4591 0.38781 0.0
H720 H 0.50132 0.54029 0.51277 0.0
H721 H 0.44941 0.43444 0.55027 0.0
C722 C 0.46123 0.44434 0.63101 0.0
C723 C 0.47582 0.46683 0.66743 0.0
C724 C 0.49012 0.52245 0.48547 0.0
C725 C 0.47503 0.4829 0.55985 0.0
C726 C 0.49051 0.53007 0.43186 0.0
C727 C 0.4764 0.50744 0.39519 0.0
C728 C 0.47554 0.49193 0.50297 0.0
C729 C 0.46205 0.47717 0.41434 0.0
C730 C 0.46076 0.45225 0.57746 0.0
C731 C 0.4895 0.49738 0.6482 0.0
N732 N 0.46198 0.47034 0.46679 0.0
N733 N 0.48885 0.50443 0.59587 0.0
H734 H 0.019 0.42285 0.91991 0.0
H735 H 0.93592 0.53433 0.14998 0.0
H736 H 0.93957 0.49621 0.89378 0.0
H737 H 0.01368 0.45916 0.17566 0.0
H738 H 0.9367 0.52075 0.05626 0.0
H739 H 0.017 0.4356 1.01367 0.0
C740 C 0.00094 0.4415 0.93385 0.0
C741 C 0.97933 0.45837 0.89863 0.0
C742 C 0.95355 0.50717 0.08239 0.0
C743 C 0.9772 0.47345 1.00645 0.0
C744 C 0.95324 0.51503 0.13595 0.0
C745 C 0.97483 0.49794 0.17096 0.0
C746 C 0.97569 0.48207 0.0634 0.0
C747 C -0.0037 0.47276 0.15042 0.0
C748 C -4e-05 0.44891 0.98749 0.0
C749 C 0.95698 0.4828 0.91919 0.0
N750 N -0.00375 0.46569 0.0981 0.0
N751 N 0.95648 0.48956 0.97164 0.0
loop_
_geom_bond_atom_site_label_1
_geom_bond_atom_site_label_2
_geom_bond_distance
_geom_bond_site_symmetry_2
_ccdc_geom_bond_type
Tb0 C9 2.764 1_455 S
Tb0 O10 2.325 1_445 S
Tb0 O13 2.303 1_545 S
Tb0 O17 2.322 . S
Tb0 O18 2.349 1_455 S
Tb0 O21 2.415 . S
Tb0 O22 2.399 1_455 S
Tb1 O11 2.322 . S
Tb1 O12 2.349 1_655 S
Tb1 O14 2.415 . S
Tb1 O15 2.399 1_655 S
Tb1 O16 2.325 1_665 S
Tb1 O19 2.303 1_565 S
Tb1 C30 2.764 1_655 S
C2 O18 1.261 . S
C2 O19 1.257 . S
C3 C6 1.358 . S
C3 C7 1.332 1_545 S
C3 C9 1.504 . S
C4 C5 1.373 . S
C4 C8 1.308 1_545 S
C5 C4 1.373 . S
C5 C6 1.429 . S
C5 H32 0.932 . S
C6 C3 1.358 . S
C6 C5 1.429 . S
C6 H33 0.930 . S
C7 C3 1.332 1_565 S
C7 C8 1.394 . S
C7 H34 0.932 1_655 S
C8 C4 1.308 1_565 S
C8 C7 1.394 . S
C8 H35 0.929 . S
C9 Tb0 2.764 1_655 S
C9 C3 1.504 . S
C9 O21 1.239 1_655 S
C9 O22 1.263 . S
O10 Tb0 2.325 1_665 S
O10 C20 1.236 . S
O11 Tb1 2.322 . S
O11 C20 1.257 . S
O12 Tb1 2.349 1_455 S
O12 C23 1.261 . S
O13 Tb0 2.303 1_565 S
O13 C23 1.257 . S
O14 Tb1 2.415 . S
O14 C30 1.239 1_655 S
O15 Tb1 2.399 1_455 S
O15 C30 1.263 . S
O16 Tb1 2.325 1_445 S
O16 C31 1.236 . S
O17 Tb0 2.322 . S
O17 C31 1.257 . S
O18 Tb0 2.349 1_655 S
O18 C2 1.261 . S
O19 Tb1 2.303 1_545 S
O19 C2 1.257 . S
C20 O10 1.236 . S
C20 O11 1.257 . S
O21 Tb0 2.415 . S
O21 C9 1.239 1_455 S
O22 Tb0 2.399 1_655 S
O22 C9 1.263 . S
C23 O12 1.261 . S
C23 O13 1.257 . S
C24 C27 1.358 . S
C24 C28 1.332 1_565 S
C24 C30 1.504 . S
C25 C26 1.373 . S
C25 C29 1.308 1_565 S
C26 C25 1.373 . S
C26 C27 1.429 . S
C26 H36 0.932 . S
C27 C24 1.358 . S
C27 C26 1.429 . S
C27 H37 0.930 . S
C28 C24 1.332 1_545 S
C28 C29 1.394 . S
C28 H38 0.932 1_455 S
C29 C25 1.308 1_545 S
C29 C28 1.394 . S
C29 H39 0.929 . S
C30 Tb1 2.764 1_455 S
C30 O14 1.239 1_455 S
C30 O15 1.263 . S
C30 C24 1.504 . S
C31 O16 1.236 . S
C31 O17 1.257 . S
H32 C5 0.932 . S
H33 C6 0.930 . S
H34 C7 0.932 1_455 S
H35 C8 0.929 . S
H36 C26 0.932 . S
H37 C27 0.930 . S
H38 C28 0.932 1_655 S
H39 C29 0.929 . S
Tb40 C49 2.764 . S
Tb40 O50 2.325 . S
Tb40 O53 2.303 . S
Tb40 O57 2.322 . S
Tb40 O58 2.349 . S
Tb40 O61 2.415 . S
Tb40 O62 2.399 . S
Tb41 O51 2.322 . S
Tb41 O52 2.349 . S
Tb41 O54 2.415 . S
Tb41 O55 2.399 . S
Tb41 O56 2.325 . S
Tb41 O59 2.303 . S
Tb41 C70 2.764 . S
C42 O58 1.261 . S
C42 O59 1.257 . S
C43 C46 1.358 . S
C43 C47 1.332 . S
C43 C49 1.504 . S
C44 C45 1.373 . S
C44 C48 1.308 . S
C45 C44 1.373 . S
C45 C46 1.429 1_554 S
C45 H72 0.932 . S
C46 C43 1.358 . S
C46 C45 1.429 1_556 S
C46 H73 0.930 . S
C47 C43 1.332 . S
C47 C48 1.394 1_556 S
C47 H74 0.932 . S
C48 C44 1.308 . S
C48 C47 1.394 1_554 S
C48 H75 0.929 . S
C49 Tb40 2.764 . S
C49 C43 1.504 . S
C49 O61 1.239 . S
C49 O62 1.263 . S
O50 Tb40 2.325 . S
O50 C60 1.236 . S
O51 Tb41 2.322 . S
O51 C60 1.257 . S
O52 Tb41 2.349 . S
O52 C63 1.261 . S
O53 Tb40 2.303 . S
O53 C63 1.257 . S
O54 Tb41 2.415 . S
O54 C70 1.239 . S
O55 Tb41 2.399 . S
O55 C70 1.263 . S
O56 Tb41 2.325 . S
O56 C71 1.236 . S
O57 Tb40 2.322 . S
O57 C71 1.257 . S
O58 Tb40 2.349 . S
O58 C42 1.261 . S
O59 Tb41 2.303 . S
O59 C42 1.257 . S
C60 O50 1.236 . S
C60 O51 1.257 . S
O61 Tb40 2.415 . S
O61 C49 1.239 . S
O62 Tb40 2.399 . S
O62 C49 1.263 . S
C63 O52 1.261 . S
C63 O53 1.257 . S
C64 C67 1.358 . S
C64 C68 1.332 . S
C64 C70 1.504 . S
C65 C66 1.373 . S
C65 C69 1.308 . S
C66 C65 1.373 . S
C66 C67 1.429 . S
C66 H76 0.932 . S
C67 C64 1.358 . S
C67 C66 1.429 . S
C67 H77 0.930 . S
C68 C64 1.332 . S
C68 C69 1.394 . S
C68 H78 0.932 . S
C69 C65 1.308 . S
C69 C68 1.394 . S
C69 H79 0.929 . S
C70 Tb41 2.764 . S
C70 O54 1.239 . S
C70 O55 1.263 . S
C70 C64 1.504 . S
C71 O56 1.236 . S
C71 O57 1.257 . S
H72 C45 0.932 . S
H73 C46 0.930 . S
H74 C47 0.932 . S
H75 C48 0.929 . S
H76 C66 0.932 . S
H77 C67 0.930 . S
H78 C68 0.932 . S
H79 C69 0.929 . S
Tb80 C89 2.764 . S
Tb80 O90 2.325 1_565 S
Tb80 O93 2.303 1_565 S
Tb80 O97 2.322 1_554 S
Tb80 O98 2.349 . S
Tb80 O101 2.415 . S
Tb80 O102 2.399 . S
Tb81 O91 2.322 1_556 S
Tb81 O92 2.349 . S
Tb81 O94 2.415 . S
Tb81 O95 2.399 . S
Tb81 O96 2.325 1_545 S
Tb81 O99 2.303 1_545 S
Tb81 C110 2.764 . S
C82 O98 1.261 1_556 S
C82 O99 1.257 . S
C83 C86 1.358 . S
C83 C87 1.332 1_565 S
C83 C89 1.504 . S
C84 C85 1.373 . S
C84 C88 1.308 1_565 S
C85 C84 1.373 . S
C85 C86 1.429 . S
C85 H112 0.932 . S
C86 C83 1.358 . S
C86 C85 1.429 . S
C86 H113 0.930 . S
C87 C83 1.332 1_545 S
C87 C88 1.394 . S
C87 H114 0.932 . S
C88 C84 1.308 1_545 S
C88 C87 1.394 . S
C88 H115 0.929 . S
C89 Tb80 2.764 . S
C89 C83 1.504 . S
C89 O101 1.239 . S
C89 O102 1.263 . S
O90 Tb80 2.325 1_545 S
O90 C100 1.236 . S
O91 Tb81 2.322 1_554 S
O91 C100 1.257 . S
O92 Tb81 2.349 . S
O92 C103 1.261 1_556 S
O93 Tb80 2.303 1_545 S
O93 C103 1.257 . S
O94 Tb81 2.415 . S
O94 C110 1.239 . S
O95 Tb81 2.399 . S
O95 C110 1.263 . S
O96 Tb81 2.325 1_565 S
O96 C111 1.236 . S
O97 Tb80 2.322 1_556 S
O97 C111 1.257 . S
O98 Tb80 2.349 . S
O98 C82 1.261 1_554 S
O99 Tb81 2.303 1_565 S
O99 C82 1.257 . S
C100 O90 1.236 . S
C100 O91 1.257 . S
O101 Tb80 2.415 . S
O101 C89 1.239 . S
O102 Tb80 2.399 . S
O102 C89 1.263 . S
C103 O92 1.261 1_554 S
C103 O93 1.257 . S
C104 C107 1.358 . S
C104 C108 1.332 1_545 S
C104 C110 1.504 . S
C105 C106 1.373 . S
C105 C109 1.308 1_545 S
C106 C105 1.373 . S
C106 C107 1.429 . S
C106 H116 0.932 . S
C107 C104 1.358 . S
C107 C106 1.429 . S
C107 H117 0.930 . S
C108 C104 1.332 1_565 S
C108 C109 1.394 . S
C108 H118 0.932 . S
C109 C105 1.308 1_565 S
C109 C108 1.394 . S
C109 H119 0.929 . S
C110 Tb81 2.764 . S
C110 O94 1.239 . S
C110 O95 1.263 . S
C110 C104 1.504 . S
C111 O96 1.236 . S
C111 O97 1.257 . S
H112 C85 0.932 . S
H113 C86 0.930 . S
H114 C87 0.932 . S
H115 C88 0.929 . S
H116 C106 0.932 . S
H117 C107 0.930 . S
H118 C108 0.932 . S
H119 C109 0.929 . S
Tb120 C129 2.764 . S
Tb120 O130 2.325 . S
Tb120 O133 2.303 . S
Tb120 O137 2.322 . S
Tb120 O138 2.349 . S
Tb120 O141 2.415 . S
Tb120 O142 2.399 . S
Tb121 O131 2.322 . S
Tb121 O132 2.349 . S
Tb121 O134 2.415 . S
Tb121 O135 2.399 . S
Tb121 O136 2.325 . S
Tb121 O139 2.303 . S
Tb121 C150 2.764 . S
C122 O138 1.261 . S
C122 O139 1.257 . S
C123 C126 1.358 . S
C123 C127 1.332 . S
C123 C129 1.504 . S
C124 C125 1.373 . S
C124 C128 1.308 . S
C125 C124 1.373 . S
C125 C126 1.429 . S
C125 H152 0.932 . S
C126 C123 1.358 . S
C126 C125 1.429 . S
C126 H153 0.930 . S
C127 C123 1.332 . S
C127 C128 1.394 . S
C127 H154 0.932 . S
C128 C124 1.308 . S
C128 C127 1.394 . S
C128 H155 0.929 . S
C129 Tb120 2.764 . S
C129 C123 1.504 . S
C129 O141 1.239 . S
C129 O142 1.263 . S
O130 Tb120 2.325 . S
O130 C140 1.236 . S
O131 Tb121 2.322 . S
O131 C140 1.257 . S
O132 Tb121 2.349 . S
O132 C143 1.261 . S
O133 Tb120 2.303 . S
O133 C143 1.257 . S
O134 Tb121 2.415 . S
O134 C150 1.239 . S
O135 Tb121 2.399 . S
O135 C150 1.263 . S
O136 Tb121 2.325 . S
O136 C151 1.236 . S
O137 Tb120 2.322 . S
O137 C151 1.257 . S
O138 Tb120 2.349 . S
O138 C122 1.261 . S
O139 Tb121 2.303 . S
O139 C122 1.257 . S
C140 O130 1.236 . S
C140 O131 1.257 . S
O141 Tb120 2.415 . S
O141 C129 1.239 . S
O142 Tb120 2.399 . S
O142 C129 1.263 . S
C143 O132 1.261 . S
C143 O133 1.257 . S
C144 C147 1.358 . S
C144 C148 1.332 . S
C144 C150 1.504 . S
C145 C146 1.373 . S
C145 C149 1.308 . S
C146 C145 1.373 . S
C146 C147 1.429 1_556 S
C146 H156 0.932 . S
C147 C144 1.358 . S
C147 C146 1.429 1_554 S
C147 H157 0.930 . S
C148 C144 1.332 . S
C148 C149 1.394 1_554 S
C148 H158 0.932 . S
C149 C145 1.308 . S
C149 C148 1.394 1_556 S
C149 H159 0.929 . S
C150 Tb121 2.764 . S
C150 O134 1.239 . S
C150 O135 1.263 . S
C150 C144 1.504 . S
C151 O136 1.236 . S
C151 O137 1.257 . S
H152 C125 0.932 . S
H153 C126 0.930 . S
H154 C127 0.932 . S
H155 C128 0.929 . S
H156 C146 0.932 . S
H157 C147 0.930 . S
H158 C148 0.932 . S
H159 C149 0.929 . S
Tb160 C169 2.764 . S
Tb160 O170 2.325 . S
Tb160 O173 2.303 . S
Tb160 O177 2.322 . S
Tb160 O178 2.349 . S
Tb160 O181 2.415 . S
Tb160 O182 2.399 . S
Tb161 O171 2.322 . S
Tb161 O172 2.349 . S
Tb161 O174 2.415 . S
Tb161 O175 2.399 . S
Tb161 O176 2.325 . S
Tb161 O179 2.303 . S
Tb161 C190 2.764 . S
C162 O178 1.261 . S
C162 O179 1.257 . S
C163 C166 1.358 . S
C163 C167 1.332 . S
C163 C169 1.504 . S
C164 C165 1.373 . S
C164 C168 1.308 . S
C165 C164 1.373 . S
C165 C166 1.429 . S
C165 H192 0.932 . S
C166 C163 1.358 . S
C166 C165 1.429 . S
C166 H193 0.930 . S
C167 C163 1.332 . S
C167 C168 1.394 . S
C167 H194 0.932 . S
C168 C164 1.308 . S
C168 C167 1.394 . S
C168 H195 0.929 . S
C169 Tb160 2.764 . S
C169 C163 1.504 . S
C169 O181 1.239 . S
C169 O182 1.263 . S
O170 Tb160 2.325 . S
O170 C180 1.236 . S
O171 Tb161 2.322 . S
O171 C180 1.257 . S
O172 Tb161 2.349 . S
O172 C183 1.261 . S
O173 Tb160 2.303 . S
O173 C183 1.257 . S
O174 Tb161 2.415 . S
O174 C190 1.239 . S
O175 Tb161 2.399 . S
O175 C190 1.263 . S
O176 Tb161 2.325 . S
O176 C191 1.236 . S
O177 Tb160 2.322 . S
O177 C191 1.257 . S
O178 Tb160 2.349 . S
O178 C162 1.261 . S
O179 Tb161 2.303 . S
O179 C162 1.257 . S
C180 O170 1.236 . S
C180 O171 1.257 . S
O181 Tb160 2.415 . S
O181 C169 1.239 . S
O182 Tb160 2.399 . S
O182 C169 1.263 . S
C183 O172 1.261 . S
C183 O173 1.257 . S
C184 C187 1.358 . S
C184 C188 1.332 . S
C184 C190 1.504 . S
C185 C186 1.373 . S
C185 C189 1.308 . S
C186 C185 1.373 . S
C186 C187 1.429 1_556 S
C186 H196 0.932 . S
C187 C184 1.358 . S
C187 C186 1.429 1_554 S
C187 H197 0.930 . S
C188 C184 1.332 . S
C188 C189 1.394 1_554 S
C188 H198 0.932 . S
C189 C185 1.308 . S
C189 C188 1.394 1_556 S
C189 H199 0.929 . S
C190 Tb161 2.764 . S
C190 O174 1.239 . S
C190 O175 1.263 . S
C190 C184 1.504 . S
C191 O176 1.236 . S
C191 O177 1.257 . S
H192 C165 0.932 . S
H193 C166 0.930 . S
H194 C167 0.932 . S
H195 C168 0.929 . S
H196 C186 0.932 . S
H197 C187 0.930 . S
H198 C188 0.932 . S
H199 C189 0.929 . S
Tb200 C209 2.764 . S
Tb200 O210 2.325 . S
Tb200 O213 2.303 . S
Tb200 O217 2.322 . S
Tb200 O218 2.349 . S
Tb200 O221 2.415 . S
Tb200 O222 2.399 . S
Tb201 O211 2.322 . S
Tb201 O212 2.349 . S
Tb201 O214 2.415 . S
Tb201 O215 2.399 . S
Tb201 O216 2.325 . S
Tb201 O219 2.303 . S
Tb201 C230 2.764 . S
C202 O218 1.261 . S
C202 O219 1.257 . S
C203 C206 1.358 . S
C203 C207 1.332 . S
C203 C209 1.504 . S
C204 C205 1.373 . S
C204 C208 1.308 . S
C205 C204 1.373 . S
C205 C206 1.429 1_554 S
C205 H232 0.932 . S
C206 C203 1.358 . S
C206 C205 1.429 1_556 S
C206 H233 0.930 . S
C207 C203 1.332 . S
C207 C208 1.394 1_556 S
C207 H234 0.932 . S
C208 C204 1.308 . S
C208 C207 1.394 1_554 S
C208 H235 0.929 . S
C209 Tb200 2.764 . S
C209 C203 1.504 . S
C209 O221 1.239 . S
C209 O222 1.263 . S
O210 Tb200 2.325 . S
O210 C220 1.236 . S
O211 Tb201 2.322 . S
O211 C220 1.257 . S
O212 Tb201 2.349 . S
O212 C223 1.261 . S
O213 Tb200 2.303 . S
O213 C223 1.257 . S
O214 Tb201 2.415 . S
O214 C230 1.239 . S
O215 Tb201 2.399 . S
O215 C230 1.263 . S
O216 Tb201 2.325 . S
O216 C231 1.236 . S
O217 Tb200 2.322 . S
O217 C231 1.257 . S
O218 Tb200 2.349 . S
O218 C202 1.261 . S
O219 Tb201 2.303 . S
O219 C202 1.257 . S
C220 O210 1.236 . S
C220 O211 1.257 . S
O221 Tb200 2.415 . S
O221 C209 1.239 . S
O222 Tb200 2.399 . S
O222 C209 1.263 . S
C223 O212 1.261 . S
C223 O213 1.257 . S
C224 C227 1.358 . S
C224 C228 1.332 . S
C224 C230 1.504 . S
C225 C226 1.373 . S
C225 C229 1.308 . S
C226 C225 1.373 . S
C226 C227 1.429 . S
C226 H236 0.932 . S
C227 C224 1.358 . S
C227 C226 1.429 . S
C227 H237 0.930 . S
C228 C224 1.332 . S
C228 C229 1.394 . S
C228 H238 0.932 . S
C229 C225 1.308 . S
C229 C228 1.394 . S
C229 H239 0.929 . S
C230 Tb201 2.764 . S
C230 O214 1.239 . S
C230 O215 1.263 . S
C230 C224 1.504 . S
C231 O216 1.236 . S
C231 O217 1.257 . S
H232 C205 0.932 . S
H233 C206 0.930 . S
H234 C207 0.932 . S
H235 C208 0.929 . S
H236 C226 0.932 . S
H237 C227 0.930 . S
H238 C228 0.932 . S
H239 C229 0.929 . S
Tb240 C249 2.764 . S
Tb240 O250 2.325 . S
Tb240 O253 2.303 . S
Tb240 O257 2.322 1_554 S
Tb240 O258 2.349 . S
Tb240 O261 2.415 . S
Tb240 O262 2.399 . S
Tb241 O251 2.322 1_556 S
Tb241 O252 2.349 . S
Tb241 O254 2.415 . S
Tb241 O255 2.399 . S
Tb241 O256 2.325 . S
Tb241 O259 2.303 . S
Tb241 C270 2.764 . S
C242 O258 1.261 1_556 S
C242 O259 1.257 . S
C243 C246 1.358 . S
C243 C247 1.332 . S
C243 C249 1.504 . S
C244 C245 1.373 . S
C244 C248 1.308 . S
C245 C244 1.373 . S
C245 C246 1.429 . S
C245 H272 0.932 . S
C246 C243 1.358 . S
C246 C245 1.429 . S
C246 H273 0.930 . S
C247 C243 1.332 . S
C247 C248 1.394 . S
C247 H274 0.932 . S
C248 C244 1.308 . S
C248 C247 1.394 . S
C248 H275 0.929 . S
C249 Tb240 2.764 . S
C249 C243 1.504 . S
C249 O261 1.239 . S
C249 O262 1.263 . S
O250 Tb240 2.325 . S
O250 C260 1.236 . S
O251 Tb241 2.322 1_554 S
O251 C260 1.257 . S
O252 Tb241 2.349 . S
O252 C263 1.261 1_556 S
O253 Tb240 2.303 . S
O253 C263 1.257 . S
O254 Tb241 2.415 . S
O254 C270 1.239 . S
O255 Tb241 2.399 . S
O255 C270 1.263 . S
O256 Tb241 2.325 . S
O256 C271 1.236 . S
O257 Tb240 2.322 1_556 S
O257 C271 1.257 . S
O258 Tb240 2.349 . S
O258 C242 1.261 1_554 S
O259 Tb241 2.303 . S
O259 C242 1.257 . S
C260 O250 1.236 . S
C260 O251 1.257 . S
O261 Tb240 2.415 . S
O261 C249 1.239 . S
O262 Tb240 2.399 . S
O262 C249 1.263 . S
C263 O252 1.261 1_554 S
C263 O253 1.257 . S
C264 C267 1.358 . S
C264 C268 1.332 . S
C264 C270 1.504 . S
C265 C266 1.373 . S
C265 C269 1.308 . S
C266 C265 1.373 . S
C266 C267 1.429 . S
C266 H276 0.932 . S
C267 C264 1.358 . S
C267 C266 1.429 . S
C267 H277 0.930 . S
C268 C264 1.332 . S
C268 C269 1.394 . S
C268 H278 0.932 . S
C269 C265 1.308 . S
C269 C268 1.394 . S
C269 H279 0.929 . S
C270 Tb241 2.764 . S
C270 O254 1.239 . S
C270 O255 1.263 . S
C270 C264 1.504 . S
C271 O256 1.236 . S
C271 O257 1.257 . S
H272 C245 0.932 . S
H273 C246 0.930 . S
H274 C247 0.932 . S
H275 C248 0.929 . S
H276 C266 0.932 . S
H277 C267 0.930 . S
H278 C268 0.932 . S
H279 C269 0.929 . S
Tb280 C289 2.764 1_655 S
Tb280 O290 2.325 1_655 S
Tb280 O293 2.303 . S
Tb280 O297 2.322 . S
Tb280 O298 2.349 1_655 S
Tb280 O301 2.415 . S
Tb280 O302 2.399 1_655 S
Tb281 O291 2.322 . S
Tb281 O292 2.349 1_455 S
Tb281 O294 2.415 . S
Tb281 O295 2.399 1_455 S
Tb281 O296 2.325 1_455 S
Tb281 O299 2.303 . S
Tb281 C310 2.764 1_455 S
C282 O298 1.261 . S
C282 O299 1.257 . S
C283 C286 1.358 . S
C283 C287 1.332 . S
C283 C289 1.504 . S
C284 C285 1.373 . S
C284 C288 1.308 . S
C285 C284 1.373 . S
C285 C286 1.429 . S
C285 H312 0.932 . S
C286 C283 1.358 . S
C286 C285 1.429 . S
C286 H313 0.930 . S
C287 C283 1.332 . S
C287 C288 1.394 . S
C287 H314 0.932 1_455 S
C288 C284 1.308 . S
C288 C287 1.394 . S
C288 H315 0.929 . S
C289 Tb280 2.764 1_455 S
C289 C283 1.504 . S
C289 O301 1.239 1_455 S
C289 O302 1.263 . S
O290 Tb280 2.325 1_455 S
O290 C300 1.236 . S
O291 Tb281 2.322 . S
O291 C300 1.257 . S
O292 Tb281 2.349 1_655 S
O292 C303 1.261 . S
O293 Tb280 2.303 . S
O293 C303 1.257 . S
O294 Tb281 2.415 . S
O294 C310 1.239 1_455 S
O295 Tb281 2.399 1_655 S
O295 C310 1.263 . S
O296 Tb281 2.325 1_655 S
O296 C311 1.236 . S
O297 Tb280 2.322 . S
O297 C311 1.257 . S
O298 Tb280 2.349 1_455 S
O298 C282 1.261 . S
O299 Tb281 2.303 . S
O299 C282 1.257 . S
C300 O290 1.236 . S
C300 O291 1.257 . S
O301 Tb280 2.415 . S
O301 C289 1.239 1_655 S
O302 Tb280 2.399 1_455 S
O302 C289 1.263 . S
C303 O292 1.261 . S
C303 O293 1.257 . S
C304 C307 1.358 . S
C304 C308 1.332 . S
C304 C310 1.504 . S
C305 C306 1.373 . S
C305 C309 1.308 . S
C306 C305 1.373 . S
C306 C307 1.429 . S
C306 H316 0.932 . S
C307 C304 1.358 . S
C307 C306 1.429 . S
C307 H317 0.930 . S
C308 C304 1.332 . S
C308 C309 1.394 . S
C308 H318 0.932 1_655 S
C309 C305 1.308 . S
C309 C308 1.394 . S
C309 H319 0.929 . S
C310 Tb281 2.764 1_655 S
C310 O294 1.239 1_655 S
C310 O295 1.263 . S
C310 C304 1.504 . S
C311 O296 1.236 . S
C311 O297 1.257 . S
H312 C285 0.932 . S
H313 C286 0.930 . S
H314 C287 0.932 1_655 S
H315 C288 0.929 . S
H316 C306 0.932 . S
H317 C307 0.930 . S
H318 C308 0.932 1_455 S
H319 C309 0.929 . S
H320 C326 0.930 . S
H321 C330 0.930 . S
H322 C335 0.929 . S
H323 C333 0.929 . S
H324 C328 0.929 . S
H325 C334 0.929 . S
C326 H320 0.930 . S
C326 C327 1.367 . S
C326 C334 1.378 . S
C327 C326 1.367 . S
C327 C335 1.433 . S
C328 H324 0.929 . S
C328 C330 1.378 . S
C328 C332 1.350 . S
C329 C332 1.463 . S
C329 C334 1.350 . S
C329 N337 1.427 . S
C330 H321 0.930 . S
C330 C328 1.378 . S
C330 C331 1.367 . S
C331 C330 1.367 . S
C331 C333 1.433 . S
C332 C328 1.350 . S
C332 C329 1.463 . S
C332 N336 1.427 . S
C333 H323 0.929 . S
C333 C331 1.433 . S
C333 N336 1.384 . S
C334 H325 0.929 . S
C334 C326 1.378 . S
C334 C329 1.350 . S
C335 H322 0.929 . S
C335 C327 1.433 . S
C335 N337 1.384 . S
N336 C332 1.427 . S
N336 C333 1.384 . S
N337 C329 1.427 . S
N337 C335 1.384 . S
H338 C344 0.930 . S
H339 C348 0.930 . S
H340 C353 0.929 . S
H341 C351 0.929 . S
H342 C346 0.929 . S
H343 C352 0.929 . S
C344 H338 0.930 . S
C344 C345 1.367 . S
C344 C352 1.378 . S
C345 C344 1.367 . S
C345 C353 1.433 . S
C346 H342 0.929 . S
C346 C348 1.378 . S
C346 C350 1.350 . S
C347 C350 1.463 . S
C347 C352 1.350 . S
C347 N355 1.427 . S
C348 H339 0.930 . S
C348 C346 1.378 . S
C348 C349 1.367 . S
C349 C348 1.367 . S
C349 C351 1.433 . S
C350 C346 1.350 . S
C350 C347 1.463 . S
C350 N354 1.427 . S
C351 H341 0.929 . S
C351 C349 1.433 . S
C351 N354 1.384 . S
C352 H343 0.929 . S
C352 C344 1.378 . S
C352 C347 1.350 . S
C353 H340 0.929 . S
C353 C345 1.433 . S
C353 N355 1.384 . S
N354 C350 1.427 . S
N354 C351 1.384 . S
N355 C347 1.427 . S
N355 C353 1.384 . S
H356 C362 0.930 . S
H357 C366 0.930 . S
H358 C371 0.929 . S
H359 C369 0.929 . S
H360 C364 0.929 . S
H361 C370 0.929 . S
C362 H356 0.930 . S
C362 C363 1.367 . S
C362 C370 1.378 . S
C363 C362 1.367 . S
C363 C371 1.433 . S
C364 H360 0.929 . S
C364 C366 1.378 . S
C364 C368 1.350 . S
C365 C368 1.463 . S
C365 C370 1.350 . S
C365 N373 1.427 . S
C366 H357 0.930 . S
C366 C364 1.378 . S
C366 C367 1.367 . S
C367 C366 1.367 . S
C367 C369 1.433 . S
C368 C364 1.350 . S
C368 C365 1.463 . S
C368 N372 1.427 . S
C369 H359 0.929 . S
C369 C367 1.433 . S
C369 N372 1.384 . S
C370 H361 0.929 . S
C370 C362 1.378 . S
C370 C365 1.350 . S
C371 H358 0.929 . S
C371 C363 1.433 . S
C371 N373 1.384 . S
N372 C368 1.427 . S
N372 C369 1.384 . S
N373 C365 1.427 . S
N373 C371 1.384 . S
H374 C380 0.930 . S
H375 C384 0.930 . S
H376 C389 0.929 . S
H377 C387 0.929 . S
H378 C382 0.929 . S
H379 C388 0.929 . S
C380 H374 0.930 . S
C380 C381 1.367 . S
C380 C388 1.378 . S
C381 C380 1.367 . S
C381 C389 1.433 . S
C382 H378 0.929 . S
C382 C384 1.378 . S
C382 C386 1.350 . S
C383 C386 1.463 . S
C383 C388 1.350 . S
C383 N391 1.427 . S
C384 H375 0.930 . S
C384 C382 1.378 . S
C384 C385 1.367 . S
C385 C384 1.367 . S
C385 C387 1.433 . S
C386 C382 1.350 . S
C386 C383 1.463 . S
C386 N390 1.427 . S
C387 H377 0.929 . S
C387 C385 1.433 . S
C387 N390 1.384 . S
C388 H379 0.929 . S
C388 C380 1.378 . S
C388 C383 1.350 . S
C389 H376 0.929 . S
C389 C381 1.433 . S
C389 N391 1.384 . S
N390 C386 1.427 . S
N390 C387 1.384 . S
N391 C383 1.427 . S
N391 C389 1.384 . S
H392 C398 0.930 . S
H393 C402 0.930 . S
H394 C407 0.929 . S
H395 C405 0.929 . S
H396 C400 0.929 . S
H397 C406 0.929 . S
C398 H392 0.930 . S
C398 C399 1.367 . S
C398 C406 1.378 . S
C399 C398 1.367 . S
C399 C407 1.433 . S
C400 H396 0.929 . S
C400 C402 1.378 . S
C400 C404 1.350 . S
C401 C404 1.463 . S
C401 C406 1.350 . S
C401 N409 1.427 . S
C402 H393 0.930 . S
C402 C400 1.378 . S
C402 C403 1.367 . S
C403 C402 1.367 . S
C403 C405 1.433 . S
C404 C400 1.350 . S
C404 C401 1.463 . S
C404 N408 1.427 . S
C405 H395 0.929 . S
C405 C403 1.433 . S
C405 N408 1.384 . S
C406 H397 0.929 . S
C406 C398 1.378 . S
C406 C401 1.350 . S
C407 H394 0.929 . S
C407 C399 1.433 . S
C407 N409 1.384 . S
N408 C404 1.427 . S
N408 C405 1.384 . S
N409 C401 1.427 . S
N409 C407 1.384 . S
H410 C416 0.930 . S
H411 C420 0.930 . S
H412 C425 0.929 . S
H413 C423 0.929 . S
H414 C418 0.929 . S
H415 C424 0.929 . S
C416 H410 0.930 . S
C416 C417 1.367 . S
C416 C424 1.378 . S
C417 C416 1.367 . S
C417 C425 1.433 . S
C418 H414 0.929 . S
C418 C420 1.378 . S
C418 C422 1.350 . S
C419 C422 1.463 . S
C419 C424 1.350 . S
C419 N427 1.427 . S
C420 H411 0.930 . S
C420 C418 1.378 . S
C420 C421 1.367 . S
C421 C420 1.367 . S
C421 C423 1.433 . S
C422 C418 1.350 . S
C422 C419 1.463 . S
C422 N426 1.427 . S
C423 H413 0.929 . S
C423 C421 1.433 . S
C423 N426 1.384 . S
C424 H415 0.929 . S
C424 C416 1.378 . S
C424 C419 1.350 . S
C425 H412 0.929 . S
C425 C417 1.433 . S
C425 N427 1.384 . S
N426 C422 1.427 . S
N426 C423 1.384 . S
N427 C419 1.427 . S
N427 C425 1.384 . S
H428 C434 0.930 . S
H429 C438 0.930 . S
H430 C443 0.929 . S
H431 C441 0.929 . S
H432 C436 0.929 . S
H433 C442 0.929 . S
C434 H428 0.930 . S
C434 C435 1.367 . S
C434 C442 1.378 . S
C435 C434 1.367 . S
C435 C443 1.433 . S
C436 H432 0.929 . S
C436 C438 1.378 . S
C436 C440 1.350 . S
C437 C440 1.463 . S
C437 C442 1.350 . S
C437 N445 1.427 . S
C438 H429 0.930 . S
C438 C436 1.378 . S
C438 C439 1.367 . S
C439 C438 1.367 . S
C439 C441 1.433 . S
C440 C436 1.350 . S
C440 C437 1.463 . S
C440 N444 1.427 . S
C441 H431 0.929 . S
C441 C439 1.433 . S
C441 N444 1.384 . S
C442 H433 0.929 . S
C442 C434 1.378 . S
C442 C437 1.350 . S
C443 H430 0.929 . S
C443 C435 1.433 . S
C443 N445 1.384 . S
N444 C440 1.427 . S
N444 C441 1.384 . S
N445 C437 1.427 . S
N445 C443 1.384 . S
H446 C452 0.930 . S
H447 C456 0.930 1_554 S
H448 C461 0.929 . S
H449 C459 0.929 . S
H450 C454 0.929 . S
H451 C460 0.929 . S
C452 H446 0.930 . S
C452 C453 1.367 . S
C452 C460 1.378 . S
C453 C452 1.367 . S
C453 C461 1.433 . S
C454 H450 0.929 . S
C454 C456 1.378 . S
C454 C458 1.350 . S
C455 C458 1.463 . S
C455 C460 1.350 . S
C455 N463 1.427 . S
C456 H447 0.930 1_556 S
C456 C454 1.378 . S
C456 C457 1.367 . S
C457 C456 1.367 . S
C457 C459 1.433 . S
C458 C454 1.350 . S
C458 C455 1.463 . S
C458 N462 1.427 . S
C459 H449 0.929 . S
C459 C457 1.433 . S
C459 N462 1.384 . S
C460 H451 0.929 . S
C460 C452 1.378 . S
C460 C455 1.350 . S
C461 H448 0.929 . S
C461 C453 1.433 . S
C461 N463 1.384 . S
N462 C458 1.427 . S
N462 C459 1.384 . S
N463 C455 1.427 . S
N463 C461 1.384 . S
H464 C470 0.930 . S
H465 C474 0.930 . S
H466 C479 0.929 . S
H467 C477 0.929 . S
H468 C472 0.929 . S
H469 C478 0.929 . S
C470 H464 0.930 . S
C470 C471 1.367 . S
C470 C478 1.378 . S
C471 C470 1.367 . S
C471 C479 1.433 . S
C472 H468 0.929 . S
C472 C474 1.378 . S
C472 C476 1.350 . S
C473 C476 1.463 . S
C473 C478 1.350 . S
C473 N481 1.427 . S
C474 H465 0.930 . S
C474 C472 1.378 . S
C474 C475 1.367 . S
C475 C474 1.367 . S
C475 C477 1.433 . S
C476 C472 1.350 . S
C476 C473 1.463 . S
C476 N480 1.427 . S
C477 H467 0.929 . S
C477 C475 1.433 . S
C477 N480 1.384 . S
C478 H469 0.929 . S
C478 C470 1.378 . S
C478 C473 1.350 . S
C479 H466 0.929 . S
C479 C471 1.433 . S
C479 N481 1.384 . S
N480 C476 1.427 . S
N480 C477 1.384 . S
N481 C473 1.427 . S
N481 C479 1.384 . S
H482 C488 0.930 . S
H483 C492 0.930 . S
H484 C497 0.929 . S
H485 C495 0.929 . S
H486 C490 0.929 . S
H487 C496 0.929 . S
C488 H482 0.930 . S
C488 C489 1.367 . S
C488 C496 1.378 . S
C489 C488 1.367 . S
C489 C497 1.433 . S
C490 H486 0.929 . S
C490 C492 1.378 . S
C490 C494 1.350 . S
C491 C494 1.463 . S
C491 C496 1.350 . S
C491 N499 1.427 . S
C492 H483 0.930 . S
C492 C490 1.378 . S
C492 C493 1.367 . S
C493 C492 1.367 . S
C493 C495 1.433 . S
C494 C490 1.350 . S
C494 C491 1.463 . S
C494 N498 1.427 . S
C495 H485 0.929 . S
C495 C493 1.433 . S
C495 N498 1.384 . S
C496 H487 0.929 . S
C496 C488 1.378 . S
C496 C491 1.350 . S
C497 H484 0.929 . S
C497 C489 1.433 . S
C497 N499 1.384 . S
N498 C494 1.427 . S
N498 C495 1.384 . S
N499 C491 1.427 . S
N499 C497 1.384 . S
H500 C506 0.930 . S
H501 C510 0.930 . S
H502 C515 0.929 . S
H503 C513 0.929 . S
H504 C508 0.929 . S
H505 C514 0.929 . S
C506 H500 0.930 . S
C506 C507 1.367 . S
C506 C514 1.378 . S
C507 C506 1.367 . S
C507 C515 1.433 . S
C508 H504 0.929 . S
C508 C510 1.378 . S
C508 C512 1.350 . S
C509 C512 1.463 . S
C509 C514 1.350 . S
C509 N517 1.427 . S
C510 H501 0.930 . S
C510 C508 1.378 . S
C510 C511 1.367 . S
C511 C510 1.367 . S
C511 C513 1.433 . S
C512 C508 1.350 . S
C512 C509 1.463 . S
C512 N516 1.427 . S
C513 H503 0.929 . S
C513 C511 1.433 . S
C513 N516 1.384 . S
C514 H505 0.929 . S
C514 C506 1.378 . S
C514 C509 1.350 . S
C515 H502 0.929 . S
C515 C507 1.433 . S
C515 N517 1.384 . S
N516 C512 1.427 . S
N516 C513 1.384 . S
N517 C509 1.427 . S
N517 C515 1.384 . S
H518 C524 0.930 . S
H519 C528 0.930 . S
H520 C533 0.929 . S
H521 C531 0.929 . S
H522 C526 0.929 . S
H523 C532 0.929 . S
C524 H518 0.930 . S
C524 C525 1.367 . S
C524 C532 1.378 . S
C525 C524 1.367 . S
C525 C533 1.433 . S
C526 H522 0.929 . S
C526 C528 1.378 . S
C526 C530 1.350 . S
C527 C530 1.463 . S
C527 C532 1.350 . S
C527 N535 1.427 . S
C528 H519 0.930 . S
C528 C526 1.378 . S
C528 C529 1.367 . S
C529 C528 1.367 . S
C529 C531 1.433 . S
C530 C526 1.350 . S
C530 C527 1.463 . S
C530 N534 1.427 . S
C531 H521 0.929 . S
C531 C529 1.433 . S
C531 N534 1.384 . S
C532 H523 0.929 . S
C532 C524 1.378 . S
C532 C527 1.350 . S
C533 H520 0.929 . S
C533 C525 1.433 . S
C533 N535 1.384 . S
N534 C530 1.427 . S
N534 C531 1.384 . S
N535 C527 1.427 . S
N535 C533 1.384 . S
H536 C542 0.930 . S
H537 C546 0.930 . S
H538 C551 0.929 . S
H539 C549 0.929 . S
H540 C544 0.929 . S
H541 C550 0.929 . S
C542 H536 0.930 . S
C542 C543 1.367 . S
C542 C550 1.378 . S
C543 C542 1.367 . S
C543 C551 1.433 . S
C544 H540 0.929 . S
C544 C546 1.378 . S
C544 C548 1.350 . S
C545 C548 1.463 . S
C545 C550 1.350 . S
C545 N553 1.427 . S
C546 H537 0.930 . S
C546 C544 1.378 . S
C546 C547 1.367 . S
C547 C546 1.367 . S
C547 C549 1.433 . S
C548 C544 1.350 . S
C548 C545 1.463 . S
C548 N552 1.427 . S
C549 H539 0.929 . S
C549 C547 1.433 . S
C549 N552 1.384 . S
C550 H541 0.929 . S
C550 C542 1.378 . S
C550 C545 1.350 . S
C551 H538 0.929 . S
C551 C543 1.433 . S
C551 N553 1.384 . S
N552 C548 1.427 . S
N552 C549 1.384 . S
N553 C545 1.427 . S
N553 C551 1.384 . S
H554 C560 0.930 . S
H555 C564 0.930 . S
H556 C569 0.929 . S
H557 C567 0.929 . S
H558 C562 0.929 . S
H559 C568 0.929 . S
C560 H554 0.930 . S
C560 C561 1.367 . S
C560 C568 1.378 . S
C561 C560 1.367 . S
C561 C569 1.433 . S
C562 H558 0.929 . S
C562 C564 1.378 . S
C562 C566 1.350 . S
C563 C566 1.463 . S
C563 C568 1.350 . S
C563 N571 1.427 . S
C564 H555 0.930 . S
C564 C562 1.378 . S
C564 C565 1.367 . S
C565 C564 1.367 . S
C565 C567 1.433 . S
C566 C562 1.350 . S
C566 C563 1.463 . S
C566 N570 1.427 . S
C567 H557 0.929 . S
C567 C565 1.433 . S
C567 N570 1.384 . S
C568 H559 0.929 . S
C568 C560 1.378 . S
C568 C563 1.350 . S
C569 H556 0.929 . S
C569 C561 1.433 . S
C569 N571 1.384 . S
N570 C566 1.427 . S
N570 C567 1.384 . S
N571 C563 1.427 . S
N571 C569 1.384 . S
H572 C578 0.930 . S
H573 C582 0.930 . S
H574 C587 0.929 . S
H575 C585 0.929 . S
H576 C580 0.929 . S
H577 C586 0.929 . S
C578 H572 0.930 . S
C578 C579 1.367 . S
C578 C586 1.378 . S
C579 C578 1.367 . S
C579 C587 1.433 . S
C580 H576 0.929 . S
C580 C582 1.378 . S
C580 C584 1.350 . S
C581 C584 1.463 . S
C581 C586 1.350 . S
C581 N589 1.427 . S
C582 H573 0.930 . S
C582 C580 1.378 . S
C582 C583 1.367 . S
C583 C582 1.367 . S
C583 C585 1.433 . S
C584 C580 1.350 . S
C584 C581 1.463 . S
C584 N588 1.427 . S
C585 H575 0.929 . S
C585 C583 1.433 . S
C585 N588 1.384 . S
C586 H577 0.929 . S
C586 C578 1.378 . S
C586 C581 1.350 . S
C587 H574 0.929 . S
C587 C579 1.433 . S
C587 N589 1.384 . S
N588 C584 1.427 . S
N588 C585 1.384 . S
N589 C581 1.427 . S
N589 C587 1.384 . S
H590 C596 0.930 . S
H591 C600 0.930 . S
H592 C605 0.929 . S
H593 C603 0.929 . S
H594 C598 0.929 . S
H595 C604 0.929 . S
C596 H590 0.930 . S
C596 C597 1.367 . S
C596 C604 1.378 . S
C597 C596 1.367 . S
C597 C605 1.433 . S
C598 H594 0.929 . S
C598 C600 1.378 . S
C598 C602 1.350 . S
C599 C602 1.463 . S
C599 C604 1.350 . S
C599 N607 1.427 . S
C600 H591 0.930 . S
C600 C598 1.378 . S
C600 C601 1.367 . S
C601 C600 1.367 . S
C601 C603 1.433 . S
C602 C598 1.350 . S
C602 C599 1.463 . S
C602 N606 1.427 . S
C603 H593 0.929 . S
C603 C601 1.433 . S
C603 N606 1.384 . S
C604 H595 0.929 . S
C604 C596 1.378 . S
C604 C599 1.350 . S
C605 H592 0.929 . S
C605 C597 1.433 . S
C605 N607 1.384 . S
N606 C602 1.427 . S
N606 C603 1.384 . S
N607 C599 1.427 . S
N607 C605 1.384 . S
H608 C614 0.930 . S
H609 C618 0.930 . S
H610 C623 0.929 . S
H611 C621 0.929 . S
H612 C616 0.929 . S
H613 C622 0.929 . S
C614 H608 0.930 . S
C614 C615 1.367 1_565 S
C614 C622 1.378 . S
C615 C614 1.367 1_545 S
C615 C623 1.433 . S
C616 H612 0.929 . S
C616 C618 1.378 . S
C616 C620 1.350 1_545 S
C617 C620 1.463 1_646 S
C617 C622 1.350 1_545 S
C617 N625 1.427 . S
C618 H609 0.930 . S
C618 C616 1.378 . S
C618 C619 1.367 1_545 S
C619 C618 1.367 1_565 S
C619 C621 1.433 . S
C620 C616 1.350 1_565 S
C620 C617 1.463 1_464 S
C620 N624 1.427 . S
C621 H611 0.929 . S
C621 C619 1.433 . S
C621 N624 1.384 . S
C622 H613 0.929 . S
C622 C614 1.378 . S
C622 C617 1.350 1_565 S
C623 H610 0.929 . S
C623 C615 1.433 . S
C623 N625 1.384 . S
N624 C620 1.427 . S
N624 C621 1.384 . S
N625 C617 1.427 . S
N625 C623 1.384 . S
H626 C632 0.930 . S
H627 C636 0.930 . S
H628 C641 0.929 . S
H629 C639 0.929 . S
H630 C634 0.929 . S
H631 C640 0.929 . S
C632 H626 0.930 . S
C632 C633 1.367 . S
C632 C640 1.378 . S
C633 C632 1.367 . S
C633 C641 1.433 . S
C634 H630 0.929 . S
C634 C636 1.378 . S
C634 C638 1.350 . S
C635 C638 1.463 . S
C635 C640 1.350 . S
C635 N643 1.427 . S
C636 H627 0.930 . S
C636 C634 1.378 . S
C636 C637 1.367 . S
C637 C636 1.367 . S
C637 C639 1.433 . S
C638 C634 1.350 . S
C638 C635 1.463 . S
C638 N642 1.427 . S
C639 H629 0.929 . S
C639 C637 1.433 . S
C639 N642 1.384 . S
C640 H631 0.929 . S
C640 C632 1.378 . S
C640 C635 1.350 . S
C641 H628 0.929 . S
C641 C633 1.433 . S
C641 N643 1.384 . S
N642 C638 1.427 . S
N642 C639 1.384 . S
N643 C635 1.427 . S
N643 C641 1.384 . S
H644 C650 0.930 . S
H645 C654 0.930 . S
H646 C659 0.929 . S
H647 C657 0.929 . S
H648 C652 0.929 . S
H649 C658 0.929 . S
C650 H644 0.930 . S
C650 C651 1.367 . S
C650 C658 1.378 . S
C651 C650 1.367 . S
C651 C659 1.433 1_545 S
C652 H648 0.929 . S
C652 C654 1.378 . S
C652 C656 1.350 . S
C653 C656 1.463 1_545 S
C653 C658 1.350 . S
C653 N661 1.427 1_545 S
C654 H645 0.930 . S
C654 C652 1.378 . S
C654 C655 1.367 . S
C655 C654 1.367 . S
C655 C657 1.433 1_565 S
C656 C652 1.350 . S
C656 C653 1.463 1_565 S
C656 N660 1.427 1_565 S
C657 H647 0.929 . S
C657 C655 1.433 1_545 S
C657 N660 1.384 . S
C658 H649 0.929 . S
C658 C650 1.378 . S
C658 C653 1.350 . S
C659 H646 0.929 . S
C659 C651 1.433 1_565 S
C659 N661 1.384 . S
N660 C656 1.427 1_545 S
N660 C657 1.384 . S
N661 C653 1.427 1_565 S
N661 C659 1.384 . S
H662 C668 0.930 . S
H663 C672 0.930 . S
H664 C677 0.929 . S
H665 C675 0.929 . S
H666 C670 0.929 . S
H667 C676 0.929 . S
C668 H662 0.930 . S
C668 C669 1.367 . S
C668 C676 1.378 . S
C669 C668 1.367 . S
C669 C677 1.433 . S
C670 H666 0.929 . S
C670 C672 1.378 . S
C670 C674 1.350 . S
C671 C674 1.463 . S
C671 C676 1.350 . S
C671 N679 1.427 . S
C672 H663 0.930 . S
C672 C670 1.378 . S
C672 C673 1.367 . S
C673 C672 1.367 . S
C673 C675 1.433 . S
C674 C670 1.350 . S
C674 C671 1.463 . S
C674 N678 1.427 . S
C675 H665 0.929 . S
C675 C673 1.433 . S
C675 N678 1.384 . S
C676 H667 0.929 . S
C676 C668 1.378 . S
C676 C671 1.350 . S
C677 H664 0.929 . S
C677 C669 1.433 . S
C677 N679 1.384 . S
N678 C674 1.427 . S
N678 C675 1.384 . S
N679 C671 1.427 . S
N679 C677 1.384 . S
H680 C686 0.930 . S
H681 C690 0.930 . S
H682 C695 0.929 . S
H683 C693 0.929 . S
H684 C688 0.929 . S
H685 C694 0.929 . S
C686 H680 0.930 . S
C686 C687 1.367 . S
C686 C694 1.378 . S
C687 C686 1.367 . S
C687 C695 1.433 . S
C688 H684 0.929 . S
C688 C690 1.378 . S
C688 C692 1.350 . S
C689 C692 1.463 . S
C689 C694 1.350 . S
C689 N697 1.427 . S
C690 H681 0.930 . S
C690 C688 1.378 . S
C690 C691 1.367 . S
C691 C690 1.367 . S
C691 C693 1.433 . S
C692 C688 1.350 . S
C692 C689 1.463 . S
C692 N696 1.427 . S
C693 H683 0.929 . S
C693 C691 1.433 . S
C693 N696 1.384 . S
C694 H685 0.929 . S
C694 C686 1.378 . S
C694 C689 1.350 . S
C695 H682 0.929 . S
C695 C687 1.433 . S
C695 N697 1.384 . S
N696 C692 1.427 . S
N696 C693 1.384 . S
N697 C689 1.427 . S
N697 C695 1.384 . S
H698 C704 0.930 . S
H699 C708 0.930 . S
H700 C713 0.929 . S
H701 C711 0.929 . S
H702 C706 0.929 . S
H703 C712 0.929 . S
C704 H698 0.930 . S
C704 C705 1.367 . S
C704 C712 1.378 . S
C705 C704 1.367 . S
C705 C713 1.433 . S
C706 H702 0.929 . S
C706 C708 1.378 . S
C706 C710 1.350 . S
C707 C710 1.463 . S
C707 C712 1.350 . S
C707 N715 1.427 . S
C708 H699 0.930 . S
C708 C706 1.378 . S
C708 C709 1.367 . S
C709 C708 1.367 . S
C709 C711 1.433 . S
C710 C706 1.350 . S
C710 C707 1.463 . S
C710 N714 1.427 . S
C711 H701 0.929 . S
C711 C709 1.433 . S
C711 N714 1.384 . S
C712 H703 0.929 . S
C712 C704 1.378 . S
C712 C707 1.350 . S
C713 H700 0.929 . S
C713 C705 1.433 . S
C713 N715 1.384 . S
N714 C710 1.427 . S
N714 C711 1.384 . S
N715 C707 1.427 . S
N715 C713 1.384 . S
H716 C722 0.930 . S
H717 C726 0.930 . S
H718 C731 0.929 . S
H719 C729 0.929 . S
H720 C724 0.929 . S
H721 C730 0.929 . S
C722 H716 0.930 . S
C722 C723 1.367 . S
C722 C730 1.378 . S
C723 C722 1.367 . S
C723 C731 1.433 . S
C724 H720 0.929 . S
C724 C726 1.378 . S
C724 C728 1.350 . S
C725 C728 1.463 . S
C725 C730 1.350 . S
C725 N733 1.427 . S
C726 H717 0.930 . S
C726 C724 1.378 . S
C726 C727 1.367 . S
C727 C726 1.367 . S
C727 C729 1.433 . S
C728 C724 1.350 . S
C728 C725 1.463 . S
C728 N732 1.427 . S
C729 H719 0.929 . S
C729 C727 1.433 . S
C729 N732 1.384 . S
C730 H721 0.929 . S
C730 C722 1.378 . S
C730 C725 1.350 . S
C731 H718 0.929 . S
C731 C723 1.433 . S
C731 N733 1.384 . S
N732 C728 1.427 . S
N732 C729 1.384 . S
N733 C725 1.427 . S
N733 C731 1.384 . S
H734 C740 0.930 . S
H735 C744 0.930 . S
H736 C749 0.929 . S
H737 C747 0.929 . S
H738 C742 0.929 . S
H739 C748 0.929 . S
C740 H734 0.930 . S
C740 C741 1.367 . S
C740 C748 1.378 . S
C741 C740 1.367 . S
C741 C749 1.433 1_455 S
C742 H738 0.929 . S
C742 C744 1.378 . S
C742 C746 1.350 . S
C743 C746 1.463 1_456 S
C743 C748 1.350 . S
C743 N751 1.427 1_455 S
C744 H735 0.930 . S
C744 C742 1.378 . S
C744 C745 1.367 . S
C745 C744 1.367 . S
C745 C747 1.433 1_655 S
C746 C742 1.350 . S
C746 C743 1.463 1_654 S
C746 N750 1.427 1_655 S
C747 H737 0.929 . S
C747 C745 1.433 1_455 S
C747 N750 1.384 . S
C748 H739 0.929 . S
C748 C740 1.378 . S
C748 C743 1.350 . S
C749 H736 0.929 . S
C749 C741 1.433 1_655 S
C749 N751 1.384 . S
N750 C746 1.427 1_455 S
N750 C747 1.384 . S
N751 C743 1.427 1_655 S
N751 C749 1.384 . S
C327 C31 1.523 . S
C331 C143 1.508 . S
C345 C23 1.512 . S
C349 C71 1.522 . S
C363 C63 1.510 . S
C367 C111 1.525 . S
C381 C103 1.513 . S
C385 C151 1.517 . S
C399 C20 1.522 . S
C403 C202 1.516 . S
C417 C2 1.515 . S
C421 C180 1.522 . S
C435 C162 1.516 . S
C439 C100 1.519 . S
C453 C220 1.521 . S
C457 C82 1.513 . S
C471 C271 1.521 . S
C475 C223 1.511 . S
C489 C191 1.523 . S
C493 C263 1.514 . S
C507 C311 1.523 . S
C511 C183 1.516 . S
C525 C231 1.522 . S
C529 C303 1.518 . S
C543 C122 1.512 . S
C547 C260 1.519 . S
C561 C242 1.510 . S
C565 C60 1.522 . S
C579 C42 1.512 . S
C583 C300 1.520 . S
C597 C140 1.521 . S
C601 C282 1.512 . S
C615 C4 1.508 . S
C619 C25 1.508 . S
C633 C65 1.519 . S
C637 C44 1.519 . S
C651 C105 1.519 . S
C655 C84 1.519 . S
C669 C145 1.519 . S
C673 C124 1.519 . S
C687 C185 1.506 . S
C691 C164 1.506 . S
C705 C225 1.519 . S
C709 C204 1.519 . S
C723 C265 1.514 . S
C727 C244 1.514 . S
C741 C284 1.519 . S
C745 C305 1.519 . S
