# Generated by pormake.
# Topology rho, (4)-cn, num edge types: 1
# Building blocks:
#     Node 0, Type 0, BuildingBlock: CEKHIL_clean_sbu_0, # of connection points: 4
#     Node 1, Type 0, BuildingBlock: CEKHIL_clean_sbu_0, # of connection points: 4
#     Node 2, Type 0, BuildingBlock: CEKHIL_clean_sbu_0, # of connection points: 4
#     Node 3, Type 0, BuildingBlock: CEKHIL_clean_sbu_0, # of connection points: 4
#     Node 4, Type 0, BuildingBlock: CEKHIL_clean_sbu_0, # of connection points: 4
#     Node 5, Type 0, BuildingBlock: CEKHIL_clean_sbu_0, # of connection points: 4
#     Node 6, Type 0, BuildingBlock: CEKHIL_clean_sbu_0, # of connection points: 4
#     Node 7, Type 0, BuildingBlock: CEKHIL_clean_sbu_0, # of connection points: 4
#     Node 8, Type 0, BuildingBlock: CEKHIL_clean_sbu_0, # of connection points: 4
#     Node 9, Type 0, BuildingBlock: CEKHIL_clean_sbu_0, # of connection points: 4
#     Node 10, Type 0, BuildingBlock: CEKHIL_clean_sbu_0, # of connection points: 4
#     Node 11, Type 0, BuildingBlock: CEKHIL_clean_sbu_0, # of connection points: 4
#     Node 12, Type 0, BuildingBlock: CEKHIL_clean_sbu_0, # of connection points: 4
#     Node 13, Type 0, BuildingBlock: CEKHIL_clean_sbu_0, # of connection points: 4
#     Node 14, Type 0, BuildingBlock: CEKHIL_clean_sbu_0, # of connection points: 4
#     Node 15, Type 0, BuildingBlock: CEKHIL_clean_sbu_0, # of connection points: 4
#     Node 16, Type 0, BuildingBlock: CEKHIL_clean_sbu_0, # of connection points: 4
#     Node 17, Type 0, BuildingBlock: CEKHIL_clean_sbu_0, # of connection points: 4
#     Node 18, Type 0, BuildingBlock: CEKHIL_clean_sbu_0, # of connection points: 4
#     Node 19, Type 0, BuildingBlock: CEKHIL_clean_sbu_0, # of connection points: 4
#     Node 20, Type 0, BuildingBlock: CEKHIL_clean_sbu_0, # of connection points: 4
#     Node 21, Type 0, BuildingBlock: CEKHIL_clean_sbu_0, # of connection points: 4
#     Node 22, Type 0, BuildingBlock: CEKHIL_clean_sbu_0, # of connection points: 4
#     Node 23, Type 0, BuildingBlock: CEKHIL_clean_sbu_0, # of connection points: 4
#     Node 24, Type 0, BuildingBlock: CEKHIL_clean_sbu_0, # of connection points: 4
#     Node 25, Type 0, BuildingBlock: CEKHIL_clean_sbu_0, # of connection points: 4
#     Node 26, Type 0, BuildingBlock: CEKHIL_clean_sbu_0, # of connection points: 4
#     Node 27, Type 0, BuildingBlock: CEKHIL_clean_sbu_0, # of connection points: 4
#     Node 28, Type 0, BuildingBlock: CEKHIL_clean_sbu_0, # of connection points: 4
#     Node 29, Type 0, BuildingBlock: CEKHIL_clean_sbu_0, # of connection points: 4
#     Node 30, Type 0, BuildingBlock: CEKHIL_clean_sbu_0, # of connection points: 4
#     Node 31, Type 0, BuildingBlock: CEKHIL_clean_sbu_0, # of connection points: 4
#     Node 32, Type 0, BuildingBlock: CEKHIL_clean_sbu_0, # of connection points: 4
#     Node 33, Type 0, BuildingBlock: CEKHIL_clean_sbu_0, # of connection points: 4
#     Node 34, Type 0, BuildingBlock: CEKHIL_clean_sbu_0, # of connection points: 4
#     Node 35, Type 0, BuildingBlock: CEKHIL_clean_sbu_0, # of connection points: 4
#     Node 36, Type 0, BuildingBlock: CEKHIL_clean_sbu_0, # of connection points: 4
#     Node 37, Type 0, BuildingBlock: CEKHIL_clean_sbu_0, # of connection points: 4
#     Node 38, Type 0, BuildingBlock: CEKHIL_clean_sbu_0, # of connection points: 4
#     Node 39, Type 0, BuildingBlock: CEKHIL_clean_sbu_0, # of connection points: 4
#     Node 40, Type 0, BuildingBlock: CEKHIL_clean_sbu_0, # of connection points: 4
#     Node 41, Type 0, BuildingBlock: CEKHIL_clean_sbu_0, # of connection points: 4
#     Node 42, Type 0, BuildingBlock: CEKHIL_clean_sbu_0, # of connection points: 4
#     Node 43, Type 0, BuildingBlock: CEKHIL_clean_sbu_0, # of connection points: 4
#     Node 44, Type 0, BuildingBlock: CEKHIL_clean_sbu_0, # of connection points: 4
#     Node 45, Type 0, BuildingBlock: CEKHIL_clean_sbu_0, # of connection points: 4
#     Node 46, Type 0, BuildingBlock: CEKHIL_clean_sbu_0, # of connection points: 4
#     Node 47, Type 0, BuildingBlock: CEKHIL_clean_sbu_0, # of connection points: 4
#     Edge 48, Type (0, 0), None
#     Edge 49, Type (0, 0), None
#     Edge 50, Type (0, 0), None
#     Edge 51, Type (0, 0), None
#     Edge 52, Type (0, 0), None
#     Edge 53, Type (0, 0), None
#     Edge 54, Type (0, 0), None
#     Edge 55, Type (0, 0), None
#     Edge 56, Type (0, 0), None
#     Edge 57, Type (0, 0), None
#     Edge 58, Type (0, 0), None
#     Edge 59, Type (0, 0), None
#     Edge 60, Type (0, 0), None
#     Edge 61, Type (0, 0), None
#     Edge 62, Type (0, 0), None
#     Edge 63, Type (0, 0), None
#     Edge 64, Type (0, 0), None
#     Edge 65, Type (0, 0), None
#     Edge 66, Type (0, 0), None
#     Edge 67, Type (0, 0), None
#     Edge 68, Type (0, 0), None
#     Edge 69, Type (0, 0), None
#     Edge 70, Type (0, 0), None
#     Edge 71, Type (0, 0), None
#     Edge 72, Type (0, 0), None
#     Edge 73, Type (0, 0), None
#     Edge 74, Type (0, 0), None
#     Edge 75, Type (0, 0), None
#     Edge 76, Type (0, 0), None
#     Edge 77, Type (0, 0), None
#     Edge 78, Type (0, 0), None
#     Edge 79, Type (0, 0), None
#     Edge 80, Type (0, 0), None
#     Edge 81, Type (0, 0), None
#     Edge 82, Type (0, 0), None
#     Edge 83, Type (0, 0), None
#     Edge 84, Type (0, 0), None
#     Edge 85, Type (0, 0), None
#     Edge 86, Type (0, 0), None
#     Edge 87, Type (0, 0), None
#     Edge 88, Type (0, 0), None
#     Edge 89, Type (0, 0), None
#     Edge 90, Type (0, 0), None
#     Edge 91, Type (0, 0), None
#     Edge 92, Type (0, 0), None
#     Edge 93, Type (0, 0), None
#     Edge 94, Type (0, 0), None
#     Edge 95, Type (0, 0), None
#     Edge 96, Type (0, 0), None
#     Edge 97, Type (0, 0), None
#     Edge 98, Type (0, 0), None
#     Edge 99, Type (0, 0), None
#     Edge 100, Type (0, 0), None
#     Edge 101, Type (0, 0), None
#     Edge 102, Type (0, 0), None
#     Edge 103, Type (0, 0), None
#     Edge 104, Type (0, 0), None
#     Edge 105, Type (0, 0), None
#     Edge 106, Type (0, 0), None
#     Edge 107, Type (0, 0), None
#     Edge 108, Type (0, 0), None
#     Edge 109, Type (0, 0), None
#     Edge 110, Type (0, 0), None
#     Edge 111, Type (0, 0), None
#     Edge 112, Type (0, 0), None
#     Edge 113, Type (0, 0), None
#     Edge 114, Type (0, 0), None
#     Edge 115, Type (0, 0), None
#     Edge 116, Type (0, 0), None
#     Edge 117, Type (0, 0), None
#     Edge 118, Type (0, 0), None
#     Edge 119, Type (0, 0), None
#     Edge 120, Type (0, 0), None
#     Edge 121, Type (0, 0), None
#     Edge 122, Type (0, 0), None
#     Edge 123, Type (0, 0), None
#     Edge 124, Type (0, 0), None
#     Edge 125, Type (0, 0), None
#     Edge 126, Type (0, 0), None
#     Edge 127, Type (0, 0), None
#     Edge 128, Type (0, 0), None
#     Edge 129, Type (0, 0), None
#     Edge 130, Type (0, 0), None
#     Edge 131, Type (0, 0), None
#     Edge 132, Type (0, 0), None
#     Edge 133, Type (0, 0), None
#     Edge 134, Type (0, 0), None
#     Edge 135, Type (0, 0), None
#     Edge 136, Type (0, 0), None
#     Edge 137, Type (0, 0), None
#     Edge 138, Type (0, 0), None
#     Edge 139, Type (0, 0), None
#     Edge 140, Type (0, 0), None
#     Edge 141, Type (0, 0), None
#     Edge 142, Type (0, 0), None
#     Edge 143, Type (0, 0), None
# Relax obj value: 0.081
# Max RMSD: 0.097
# Mean RMSD: 0.085
data_MOF--net-rho--node1-CEKHIL_clean_sbu_0--edge1-none
_symmetry_space_group_name_H-M    P1
_symmetry_Int_Tables_number       1
_symmetry_cell_setting            triclinic
loop_
_symmetry_equiv_pos_as_xyz
'x, y, z'
_cell_length_a     31.28951
_cell_length_b     31.323238
_cell_length_c     31.265736
_cell_angle_alpha  90.584993
_cell_angle_beta   90.197876
_cell_angle_gamma 92.031424
loop_
_atom_site_label
_atom_site_type_symbol
_atom_site_fract_x
_atom_site_fract_y
_atom_site_fract_z
_atom_type_partial_charge
Co0 Co 0.13594 0.25864 0.40485 0.0
O1 O 0.19656 0.24791 0.40718 0.0
O2 O 0.1441 0.19859 0.41111 0.0
C3 C 0.1419 0.30386 0.34951 0.0
O4 O 0.07082 0.25359 0.40199 0.0
Co5 Co 0.09454 0.34759 0.41125 0.0
O6 O 0.04081 0.31686 0.39341 0.0
C7 C 0.13074 0.30558 0.48779 0.0
C8 C 0.18477 0.20775 0.40944 0.0
C9 C 0.03809 0.27628 0.39564 0.0
O10 O 0.13385 0.26919 0.46852 0.0
O11 O 0.12085 0.34 0.4689 0.0
O12 O 0.13979 0.26283 0.34227 0.0
O13 O 0.14098 0.31582 0.38872 0.0
Co14 Co 0.76275 0.12896 0.38959 0.0
O15 O 0.74791 0.13248 0.3303 0.0
O16 O 0.70011 0.13132 0.38188 0.0
C17 C 0.81677 0.18029 0.3886 0.0
O18 O 0.77054 0.12519 0.4552 0.0
Co19 Co 0.85024 0.09168 0.40355 0.0
O20 O 0.84112 0.11447 0.46168 0.0
C21 C 0.778 0.03171 0.39075 0.0
C22 C 0.70816 0.13193 0.34093 0.0
C23 C 0.80477 0.12139 0.47812 0.0
O24 O 0.75527 0.06468 0.3867 0.0
O25 O 0.81856 0.0346 0.39607 0.0
O26 O 0.77709 0.18999 0.39268 0.0
O27 O 0.82233 0.14038 0.37894 0.0
Co28 Co 0.89488 0.75624 0.41104 0.0
O29 O 0.83383 0.76498 0.41475 0.0
O30 O 0.88472 0.81598 0.41815 0.0
C31 C 0.88962 0.71037 0.35461 0.0
O32 O 0.96005 0.76313 0.40668 0.0
Co33 Co 0.93848 0.66899 0.4172 0.0
O34 O 0.99014 0.70016 0.39539 0.0
C35 C 0.90313 0.71149 0.49467 0.0
C36 C 0.84428 0.80546 0.41759 0.0
C37 C 0.9926 0.74079 0.3978 0.0
O38 O 0.89854 0.7471 0.47506 0.0
O39 O 0.91413 0.67707 0.4758 0.0
O40 O 0.88991 0.75138 0.34834 0.0
O41 O 0.89116 0.69867 0.39376 0.0
Co42 Co 0.27067 0.88307 0.39278 0.0
O43 O 0.28786 0.87899 0.33402 0.0
O44 O 0.33366 0.88259 0.3877 0.0
C45 C 0.21684 0.83178 0.38925 0.0
O46 O 0.26118 0.88804 0.45824 0.0
Co47 Co 0.18049 0.91833 0.40441 0.0
O48 O 0.19016 0.89713 0.4629 0.0
C49 C 0.25178 0.979 0.39037 0.0
C50 C 0.32726 0.88167 0.3464 0.0
C51 C 0.22648 0.89163 0.48034 0.0
O52 O 0.27607 0.94698 0.3897 0.0
O53 O 0.21109 0.97512 0.39382 0.0
O54 O 0.25638 0.82172 0.39477 0.0
O55 O 0.21188 0.87159 0.38038 0.0
Co56 Co 0.12567 0.76529 0.62095 0.0
O57 O 0.18471 0.78036 0.61969 0.0
O58 O 0.13432 0.82785 0.62474 0.0
C59 C 0.13311 0.71405 0.66978 0.0
O60 O 0.0599 0.75485 0.6237 0.0
Co61 Co 0.10973 0.67396 0.58436 0.0
O62 O 0.05496 0.68322 0.6145 0.0
C63 C 0.12718 0.74322 0.52483 0.0
C64 C 0.17496 0.81973 0.62256 0.0
C65 C 0.03826 0.71873 0.62416 0.0
O66 O 0.12376 0.76906 0.55667 0.0
O67 O 0.12605 0.70258 0.52892 0.0
O68 O 0.12919 0.75338 0.68187 0.0
O69 O 0.13723 0.70804 0.62906 0.0
Co70 Co 0.26512 0.13129 0.61859 0.0
O71 O 0.2562 0.19227 0.61717 0.0
O72 O 0.20475 0.14204 0.61363 0.0
C73 C 0.31337 0.13191 0.67402 0.0
O74 O 0.25702 0.06742 0.62041 0.0
Co75 Co 0.35301 0.08707 0.60733 0.0
O76 O 0.31921 0.03398 0.61998 0.0
C77 C 0.30576 0.11926 0.53209 0.0
C78 C 0.21542 0.1823 0.61479 0.0
C79 C 0.27849 0.03358 0.62135 0.0
O80 O 0.27205 0.12763 0.554 0.0
O81 O 0.34114 0.10848 0.54884 0.0
O82 O 0.27254 0.13387 0.68145 0.0
O83 O 0.32377 0.13278 0.63446 0.0
Co84 Co 0.90547 0.25298 0.62396 0.0
O85 O 0.8454 0.24025 0.62436 0.0
O86 O 0.89366 0.19066 0.62474 0.0
C87 C 0.90384 0.30399 0.67606 0.0
O88 O 0.97172 0.261 0.62375 0.0
Co89 Co 0.92008 0.34355 0.58835 0.0
O90 O 0.97765 0.33194 0.61148 0.0
C91 C 0.90168 0.27518 0.52728 0.0
C92 C 0.85335 0.20035 0.62376 0.0
C93 C 0.99426 0.29652 0.62103 0.0
O94 O 0.90458 0.24986 0.55916 0.0
O95 O 0.9034 0.31584 0.5318 0.0
O96 O 0.90596 0.26408 0.68595 0.0
O97 O 0.89713 0.31071 0.63581 0.0
Co98 Co 0.77034 0.88895 0.62708 0.0
O99 O 0.77992 0.82819 0.6254 0.0
O100 O 0.83109 0.8784 0.62122 0.0
C101 C 0.72425 0.88626 0.6832 0.0
O102 O 0.77573 0.95372 0.62848 0.0
Co103 Co 0.67994 0.9295 0.61907 0.0
O104 O 0.71192 0.9846 0.62741 0.0
C105 C 0.7269 0.89968 0.54205 0.0
C106 C 0.82056 0.83803 0.62301 0.0
C107 C 0.75266 0.98677 0.62799 0.0
O108 O 0.76126 0.89133 0.56297 0.0
O109 O 0.69178 0.90995 0.55964 0.0
O110 O 0.76534 0.88685 0.68985 0.0
O111 O 0.71248 0.8853 0.64396 0.0
Co112 Co 0.39183 0.11304 0.26123 0.0
O113 O 0.33008 0.11271 0.26979 0.0
O114 O 0.3788 0.1095 0.32107 0.0
C115 C 0.39195 0.16851 0.21413 0.0
O116 O 0.45707 0.11422 0.26789 0.0
Co117 Co 0.43582 0.10148 0.17334 0.0
O118 O 0.48987 0.11576 0.20419 0.0
C119 C 0.3993 0.02581 0.22009 0.0
C120 C 0.33885 0.11207 0.31039 0.0
C121 C 0.49108 0.11614 0.24489 0.0
O122 O 0.39186 0.04785 0.25432 0.0
O123 O 0.41161 0.04287 0.18492 0.0
O124 O 0.39205 0.17607 0.25505 0.0
O125 O 0.39066 0.12881 0.20326 0.0
Co126 Co 0.90509 0.39226 0.23781 0.0
O127 O 0.84494 0.38884 0.22879 0.0
O128 O 0.89372 0.38514 0.17733 0.0
C129 C 0.90342 0.34663 0.29347 0.0
O130 O 0.97008 0.39301 0.23415 0.0
Co131 Co 0.94328 0.4295 0.32036 0.0
O132 O 0.99799 0.40611 0.29921 0.0
C133 C 0.90549 0.48756 0.25858 0.0
C134 C 0.85375 0.38509 0.18845 0.0
C135 C 1.00206 0.39571 0.25995 0.0
O136 O 0.90449 0.4564 0.23145 0.0
O137 O 0.9166 0.48293 0.2977 0.0
O138 O 0.90433 0.33245 0.25431 0.0
O139 O 0.90137 0.38763 0.29805 0.0
Co140 Co 0.63528 0.8914 0.26883 0.0
O141 O 0.69463 0.89046 0.28443 0.0
O142 O 0.64163 0.8872 0.33087 0.0
C143 C 0.64048 0.8424 0.21595 0.0
O144 O 0.56953 0.8916 0.25854 0.0
Co145 Co 0.62584 0.92871 0.17782 0.0
O146 O 0.56617 0.90873 0.18854 0.0
C147 C 0.63754 0.98792 0.24996 0.0
C148 C 0.68279 0.8878 0.32361 0.0
C149 C 0.54817 0.89765 0.22353 0.0
O150 O 0.63628 0.95565 0.27495 0.0
O151 O 0.63748 0.98433 0.20915 0.0
O152 O 0.63478 0.83023 0.255 0.0
O153 O 0.64784 0.88295 0.21128 0.0
Co154 Co 0.12698 0.62137 0.23652 0.0
O155 O 0.18708 0.62532 0.22732 0.0
O156 O 0.13796 0.6276 0.17591 0.0
C157 C 0.12834 0.66779 0.292 0.0
O158 O 0.06183 0.61996 0.23377 0.0
Co159 Co 0.09034 0.58554 0.32008 0.0
O160 O 0.03573 0.6097 0.29974 0.0
C161 C 0.12755 0.52668 0.25763 0.0
C162 C 0.17807 0.62861 0.18702 0.0
C163 C 0.03063 0.61876 0.26043 0.0
O164 O 0.12806 0.55719 0.23039 0.0
O165 O 0.11697 0.53203 0.29683 0.0
O166 O 0.1273 0.68142 0.25294 0.0
O167 O 0.13111 0.627 0.29651 0.0
Co168 Co 0.40588 0.90114 0.74791 0.0
O169 O 0.34546 0.8991 0.73716 0.0
O170 O 0.39533 0.90288 0.68689 0.0
C171 C 0.40136 0.84726 0.79604 0.0
O172 O 0.4712 0.90122 0.74395 0.0
Co173 Co 0.44901 0.91487 0.83627 0.0
O174 O 0.50107 0.89342 0.80847 0.0
C175 C 0.40739 0.98695 0.79146 0.0
C176 C 0.35518 0.89907 0.69679 0.0
C177 C 0.50368 0.8942 0.76786 0.0
O178 O 0.40563 0.96636 0.7553 0.0
O179 O 0.41918 0.96955 0.82635 0.0
O180 O 0.40338 0.83851 0.75537 0.0
O181 O 0.40209 0.88709 0.80603 0.0
Co182 Co 0.13491 0.39128 0.76675 0.0
O183 O 0.19435 0.38948 0.78176 0.0
O184 O 0.14167 0.38664 0.82864 0.0
C185 C 0.13877 0.3424 0.71361 0.0
O186 O 0.06918 0.3923 0.75715 0.0
Co187 Co 0.12505 0.42936 0.67624 0.0
O188 O 0.06535 0.40966 0.68724 0.0
C189 C 0.13802 0.48805 0.74859 0.0
C190 C 0.18275 0.38671 0.82101 0.0
C191 C 0.04759 0.39859 0.72234 0.0
O192 O 0.13677 0.45556 0.77328 0.0
O193 O 0.13742 0.48477 0.70775 0.0
O194 O 0.13345 0.33018 0.75268 0.0
O195 O 0.14674 0.38288 0.70898 0.0
Co196 Co 0.62202 0.1205 0.74315 0.0
O197 O 0.6801 0.12371 0.72661 0.0
O198 O 0.62685 0.12584 0.68031 0.0
C199 C 0.63185 0.16857 0.79604 0.0
O200 O 0.55655 0.11935 0.75499 0.0
Co201 Co 0.61138 0.08363 0.83473 0.0
O202 O 0.55548 0.11076 0.82663 0.0
C203 C 0.63075 0.02575 0.76414 0.0
C204 C 0.66805 0.12703 0.68753 0.0
C205 C 0.53674 0.11934 0.79147 0.0
O206 O 0.62264 0.05606 0.73811 0.0
O207 O 0.63171 0.03091 0.8048 0.0
O208 O 0.62472 0.18126 0.75741 0.0
O209 O 0.6368 0.12818 0.80027 0.0
Co210 Co 0.89412 0.61539 0.76523 0.0
O211 O 0.83258 0.61544 0.77455 0.0
O212 O 0.88173 0.61072 0.82522 0.0
C213 C 0.89433 0.67196 0.71945 0.0
O214 O 0.9594 0.61591 0.77068 0.0
Co215 Co 0.93622 0.60506 0.67611 0.0
O216 O 0.99085 0.61846 0.70628 0.0
C217 C 0.90032 0.52868 0.72205 0.0
C218 C 0.84172 0.61395 0.81502 0.0
C219 C 0.9929 0.61809 0.74695 0.0
O220 O 0.89352 0.55022 0.7568 0.0
O221 O 0.91208 0.54629 0.68698 0.0
O222 O 0.8949 0.67868 0.76049 0.0
O223 O 0.89232 0.63248 0.70779 0.0
Co224 Co 0.27025 0.38638 0.12452 0.0
O225 O 0.27808 0.32533 0.12216 0.0
O226 O 0.33041 0.37449 0.11834 0.0
C227 C 0.22384 0.38495 0.18063 0.0
O228 O 0.27807 0.4508 0.12647 0.0
Co229 Co 0.18184 0.4303 0.11639 0.0
O230 O 0.21569 0.48416 0.12598 0.0
C231 C 0.22744 0.39845 0.03941 0.0
C232 C 0.31889 0.33436 0.11932 0.0
C233 C 0.25643 0.48474 0.12657 0.0
O234 O 0.26152 0.38936 0.06039 0.0
O235 O 0.19271 0.40989 0.057 0.0
O236 O 0.26487 0.38405 0.18738 0.0
O237 O 0.21229 0.38457 0.14131 0.0
Co238 Co 0.26529 0.62642 0.88877 0.0
O239 O 0.25005 0.63084 0.82966 0.0
O240 O 0.2026 0.62966 0.88149 0.0
C241 C 0.31954 0.67716 0.88774 0.0
O242 O 0.27418 0.62179 0.95433 0.0
Co243 Co 0.35244 0.58797 0.90078 0.0
O244 O 0.3449 0.61093 0.95906 0.0
C245 C 0.27929 0.52908 0.88849 0.0
C246 C 0.21042 0.63072 0.84048 0.0
C247 C 0.30899 0.61781 0.97644 0.0
O248 O 0.25697 0.56236 0.8851 0.0
O249 O 0.31993 0.53137 0.89331 0.0
O250 O 0.28004 0.68716 0.8925 0.0
O251 O 0.32475 0.63736 0.87736 0.0
Co252 Co 0.39621 0.25492 0.9041 0.0
O253 O 0.33495 0.26294 0.90662 0.0
O254 O 0.3853 0.31424 0.91295 0.0
C255 C 0.39351 0.2107 0.84567 0.0
O256 O 0.46128 0.26252 0.90184 0.0
Co257 Co 0.43945 0.16782 0.91026 0.0
O258 O 0.49224 0.19973 0.89238 0.0
C259 C 0.40315 0.20857 0.98793 0.0
C260 C 0.34495 0.30335 0.91151 0.0
C261 C 0.49433 0.24035 0.89482 0.0
O262 O 0.39821 0.24417 0.96831 0.0
O263 O 0.41481 0.17448 0.96892 0.0
O264 O 0.39333 0.25187 0.84077 0.0
O265 O 0.39349 0.19796 0.88459 0.0
Co266 Co 0.77045 0.38508 0.89173 0.0
O267 O 0.7884 0.38027 0.83351 0.0
O268 O 0.83352 0.38482 0.88781 0.0
C269 C 0.71722 0.33381 0.88889 0.0
O270 O 0.7592 0.39089 0.95657 0.0
Co271 Co 0.68001 0.42091 0.90016 0.0
O272 O 0.68815 0.40129 0.95934 0.0
C273 C 0.75235 0.48099 0.88917 0.0
C274 C 0.82759 0.38342 0.84643 0.0
C275 C 0.72393 0.39526 0.97758 0.0
O276 O 0.77614 0.44871 0.88808 0.0
O277 O 0.71158 0.47762 0.892 0.0
O278 O 0.75676 0.32396 0.89466 0.0
O279 O 0.71199 0.37328 0.87865 0.0
Co280 Co 0.63812 0.75815 0.90765 0.0
O281 O 0.69883 0.74831 0.91107 0.0
O282 O 0.64679 0.69841 0.91453 0.0
C283 C 0.6444 0.80296 0.85227 0.0
O284 O 0.57305 0.75243 0.90368 0.0
Co285 Co 0.59563 0.84642 0.91324 0.0
O286 O 0.54271 0.81528 0.8936 0.0
C287 C 0.63264 0.80558 0.99 0.0
C288 C 0.68739 0.7081 0.91362 0.0
C289 C 0.54029 0.77471 0.896 0.0
O290 O 0.63528 0.76899 0.97111 0.0
O291 O 0.62254 0.83979 0.97085 0.0
O292 O 0.64281 0.7619 0.84514 0.0
O293 O 0.64278 0.81513 0.8914 0.0
Co294 Co 0.76375 0.62891 0.12332 0.0
O295 O 0.7559 0.68983 0.12137 0.0
O296 O 0.70371 0.64039 0.11629 0.0
C297 C 0.80959 0.63042 0.18058 0.0
O298 O 0.75578 0.5648 0.12496 0.0
Co299 Co 0.85169 0.58505 0.11498 0.0
O300 O 0.81806 0.53143 0.12574 0.0
C301 C 0.80642 0.61567 0.03768 0.0
C302 C 0.71514 0.68053 0.11776 0.0
C303 C 0.77732 0.5309 0.12602 0.0
O304 O 0.77265 0.62523 0.05893 0.0
O305 O 0.84112 0.60402 0.05523 0.0
O306 O 0.7685 0.63177 0.1864 0.0
O307 O 0.82162 0.63078 0.14139 0.0
Co308 Co 0.41104 0.75147 0.12351 0.0
O309 O 0.35188 0.73688 0.12397 0.0
O310 O 0.40203 0.68891 0.12413 0.0
C311 C 0.40731 0.80219 0.17568 0.0
O312 O 0.4766 0.76175 0.12323 0.0
Co313 Co 0.42226 0.84183 0.08742 0.0
O314 O 0.48019 0.83277 0.11107 0.0
C315 C 0.40598 0.77279 0.02659 0.0
C316 C 0.36141 0.69739 0.12303 0.0
C317 C 0.49786 0.79793 0.1207 0.0
O318 O 0.41008 0.74797 0.05868 0.0
O319 O 0.40632 0.81347 0.03085 0.0
O320 O 0.41115 0.76245 0.18546 0.0
O321 O 0.40042 0.80877 0.13538 0.0
Co322 Co 0.62229 0.26421 0.12135 0.0
O323 O 0.68102 0.27932 0.11991 0.0
O324 O 0.63048 0.32681 0.12443 0.0
C325 C 0.63021 0.21321 0.17009 0.0
O326 O 0.55682 0.2528 0.12343 0.0
Co327 Co 0.60892 0.17265 0.08401 0.0
O328 O 0.55315 0.18124 0.11254 0.0
C329 C 0.62571 0.24306 0.02568 0.0
C330 C 0.6711 0.31865 0.12155 0.0
C331 C 0.53576 0.21634 0.12246 0.0
O332 O 0.62038 0.26829 0.05749 0.0
O333 O 0.62612 0.20241 0.02936 0.0
O334 O 0.62584 0.25246 0.18224 0.0
O335 O 0.63437 0.20729 0.12939 0.0
Co336 Co 0.90011 0.75095 0.62979 0.0
O337 O 0.84051 0.76509 0.62938 0.0
O338 O 0.89389 0.81259 0.6236 0.0
C339 C 0.89414 0.70553 0.68662 0.0
O340 O 0.96609 0.74635 0.62874 0.0
Co341 Co 0.91975 0.65388 0.61554 0.0
O342 O 0.97728 0.67578 0.63325 0.0
C343 C 0.90013 0.70869 0.54157 0.0
C344 C 0.85273 0.8046 0.62487 0.0
C345 C 0.99125 0.71454 0.6315 0.0
O346 O 0.89918 0.74271 0.56513 0.0
O347 O 0.90379 0.67107 0.55652 0.0
O348 O 0.89944 0.74635 0.69356 0.0
O349 O 0.88925 0.69496 0.64723 0.0
Co350 Co 0.2671 0.89677 0.61723 0.0
O351 O 0.28211 0.89744 0.67649 0.0
O352 O 0.32857 0.89156 0.62349 0.0
C353 C 0.21069 0.8511 0.62294 0.0
O354 O 0.25989 0.89458 0.5514 0.0
Co355 Co 0.18075 0.93725 0.59819 0.0
O356 O 0.19016 0.90801 0.54263 0.0
C357 C 0.25512 0.99239 0.61911 0.0
C358 C 0.32138 0.89531 0.66445 0.0
C359 C 0.22605 0.89668 0.52771 0.0
O360 O 0.27773 0.95955 0.61611 0.0
O361 O 0.21427 0.99077 0.6161 0.0
O362 O 0.24927 0.83749 0.61966 0.0
O363 O 0.20777 0.89186 0.6284 0.0
Co364 Co 0.13384 0.26708 0.62093 0.0
O365 O 0.19396 0.25489 0.62028 0.0
O366 O 0.14176 0.2059 0.61393 0.0
C367 C 0.13928 0.31158 0.67822 0.0
O368 O 0.06737 0.26973 0.62067 0.0
Co369 Co 0.11073 0.36307 0.60905 0.0
O370 O 0.05515 0.33964 0.62987 0.0
C371 C 0.13306 0.30899 0.53443 0.0
C372 C 0.18274 0.21507 0.61574 0.0
C373 C 0.04168 0.3008 0.62666 0.0
O374 O 0.13421 0.27504 0.55708 0.0
O375 O 0.12825 0.34649 0.55003 0.0
O376 O 0.13479 0.27063 0.68369 0.0
O377 O 0.1438 0.32354 0.63941 0.0
Co378 Co 0.75953 0.12383 0.61236 0.0
O379 O 0.74105 0.12786 0.66978 0.0
O380 O 0.6971 0.12966 0.61421 0.0
C381 C 0.8166 0.16985 0.62036 0.0
O382 O 0.7697 0.12151 0.54744 0.0
Co383 Co 0.84782 0.08359 0.5996 0.0
O384 O 0.83985 0.10864 0.54214 0.0
C385 C 0.77394 0.02887 0.62262 0.0
C386 C 0.70229 0.12942 0.65559 0.0
C387 C 0.80428 0.11864 0.52542 0.0
O388 O 0.75004 0.06029 0.61492 0.0
O389 O 0.81484 0.03186 0.62143 0.0
O390 O 0.77852 0.18359 0.61317 0.0
O391 O 0.81824 0.12938 0.62697 0.0
Co392 Co 0.89971 0.27088 0.38511 0.0
O393 O 0.90088 0.27617 0.32364 0.0
O394 O 0.89712 0.33052 0.36913 0.0
C395 C 0.85028 0.2152 0.38734 0.0
O396 O 0.89776 0.27881 0.45046 0.0
Co397 Co 0.93257 0.19106 0.42687 0.0
O398 O 0.91299 0.21674 0.48136 0.0
C399 C 0.99506 0.25551 0.39621 0.0
C400 C 0.90021 0.31716 0.32978 0.0
C401 C 0.90265 0.25565 0.48388 0.0
O402 O 0.96359 0.27866 0.3868 0.0
O403 O 0.99008 0.2174 0.41025 0.0
O404 O 0.83914 0.25459 0.38438 0.0
O405 O 0.89111 0.20964 0.3849 0.0
Co406 Co 0.76535 0.89128 0.40988 0.0
O407 O 0.7715 0.83005 0.41569 0.0
O408 O 0.82479 0.87852 0.41381 0.0
C409 C 0.71554 0.88596 0.35718 0.0
O410 O 0.77545 0.95598 0.40227 0.0
Co411 Co 0.68173 0.94018 0.421 0.0
O412 O 0.71394 0.99004 0.39689 0.0
C413 C 0.72679 0.90263 0.49532 0.0
C414 C 0.81247 0.83872 0.41651 0.0
C415 C 0.7546 0.98989 0.39509 0.0
O416 O 0.76113 0.89766 0.47372 0.0
O417 O 0.69175 0.91463 0.47862 0.0
O418 O 0.75609 0.88383 0.34842 0.0
O419 O 0.70619 0.88983 0.3969 0.0
Co420 Co 0.13084 0.74453 0.38367 0.0
O421 O 0.13031 0.73848 0.32234 0.0
O422 O 0.13197 0.68464 0.36777 0.0
C423 C 0.18225 0.79809 0.38736 0.0
O424 O 0.13186 0.73789 0.44863 0.0
Co425 Co 0.09993 0.82641 0.4243 0.0
O426 O 0.11779 0.8011 0.47906 0.0
C427 C 0.03563 0.76179 0.3962 0.0
C428 C 0.13025 0.6976 0.32843 0.0
C429 C 0.12698 0.76193 0.48175 0.0
O430 O 0.0666 0.73866 0.38465 0.0
O431 O 0.04144 0.79985 0.41092 0.0
O432 O 0.19194 0.75829 0.38422 0.0
O433 O 0.14174 0.80531 0.3838 0.0
Co434 Co 0.26084 0.11975 0.39986 0.0
O435 O 0.25614 0.18123 0.40225 0.0
O436 O 0.20201 0.13378 0.40683 0.0
C437 C 0.30647 0.11761 0.34377 0.0
O438 O 0.25115 0.05495 0.3973 0.0
Co439 Co 0.34751 0.07482 0.41157 0.0
O440 O 0.31416 0.02298 0.39251 0.0
C441 C 0.30464 0.11586 0.48512 0.0
C442 C 0.21533 0.17349 0.4068 0.0
C443 C 0.27338 0.02159 0.39194 0.0
O444 O 0.26941 0.11872 0.46411 0.0
O445 O 0.33955 0.10428 0.46792 0.0
O446 O 0.2657 0.12092 0.33676 0.0
O447 O 0.31803 0.11916 0.38314 0.0
Co448 Co 0.64214 0.88584 0.76923 0.0
O449 O 0.64338 0.825 0.77871 0.0
O450 O 0.64467 0.87548 0.82927 0.0
C451 C 0.69228 0.88742 0.71746 0.0
O452 O 0.64128 0.9511 0.77172 0.0
Co453 Co 0.60992 0.91855 0.6837 0.0
O454 O 0.62346 0.97639 0.70724 0.0
C455 C 0.54668 0.89292 0.74856 0.0
C456 C 0.64436 0.8351 0.81898 0.0
C457 C 0.63348 0.98214 0.74642 0.0
O458 O 0.57785 0.88385 0.7732 0.0
O459 O 0.55207 0.90517 0.70995 0.0
O460 O 0.70336 0.88827 0.75741 0.0
O461 O 0.6516 0.88188 0.70974 0.0
Co462 Co 0.13154 0.62806 0.74991 0.0
O463 O 0.13004 0.68854 0.7416 0.0
O464 O 0.1371 0.64022 0.68976 0.0
C465 C 0.17811 0.63067 0.80579 0.0
O466 O 0.13584 0.5636 0.74441 0.0
Co467 Co 0.09646 0.5859 0.83007 0.0
O468 O 0.12142 0.53267 0.8072 0.0
C469 C 0.03579 0.61624 0.76655 0.0
C470 C 0.1337 0.67992 0.70106 0.0
C471 C 0.13339 0.53061 0.76836 0.0
O472 O 0.06786 0.62344 0.74202 0.0
O473 O 0.0399 0.60378 0.80519 0.0
O474 O 0.19099 0.63275 0.76642 0.0
O475 O 0.13697 0.63067 0.81117 0.0
Co476 Co 0.39642 0.12444 0.76103 0.0
O477 O 0.33566 0.12483 0.74756 0.0
O478 O 0.38671 0.12382 0.69928 0.0
C479 C 0.39269 0.17891 0.81047 0.0
O480 O 0.46289 0.12438 0.76484 0.0
Co481 Co 0.42028 0.10622 0.85672 0.0
O482 O 0.47762 0.12377 0.83553 0.0
C483 C 0.40089 0.03374 0.79597 0.0
C484 C 0.34602 0.12598 0.7077 0.0
C485 C 0.48972 0.12476 0.79656 0.0
O486 O 0.39605 0.05869 0.76361 0.0
O487 O 0.40582 0.0476 0.83446 0.0
O488 O 0.3968 0.18766 0.77025 0.0
O489 O 0.38797 0.13898 0.81847 0.0
Co490 Co 0.90884 0.39264 0.75801 0.0
O491 O 0.84977 0.38705 0.7738 0.0
O492 O 0.90216 0.39369 0.82089 0.0
C493 C 0.90441 0.33769 0.70929 0.0
O494 O 0.9749 0.39708 0.75183 0.0
Co495 Co 0.92864 0.41276 0.66186 0.0
O496 O 0.98612 0.39604 0.68065 0.0
C497 C 0.89953 0.48119 0.72002 0.0
C498 C 0.86133 0.38793 0.8135 0.0
C499 C 1.00002 0.39511 0.71908 0.0
O500 O 0.9048 0.45792 0.75355 0.0
O501 O 0.90166 0.46624 0.6818 0.0
O502 O 0.91034 0.3301 0.74959 0.0
O503 O 0.89809 0.37682 0.70063 0.0
Co504 Co 0.62964 0.12762 0.25011 0.0
O505 O 0.62749 0.18791 0.24177 0.0
O506 O 0.63543 0.13956 0.19002 0.0
C507 C 0.67593 0.13092 0.30616 0.0
O508 O 0.63465 0.06329 0.24501 0.0
Co509 Co 0.59387 0.08595 0.3299 0.0
O510 O 0.61972 0.03283 0.30792 0.0
C511 C 0.53363 0.11494 0.26545 0.0
C512 C 0.63137 0.1792 0.2013 0.0
C513 C 0.63224 0.03053 0.26926 0.0
O514 O 0.56607 0.12234 0.24152 0.0
O515 O 0.53724 0.10278 0.30424 0.0
O516 O 0.68895 0.13292 0.26685 0.0
O517 O 0.63472 0.13068 0.3114 0.0
Co518 Co 0.89216 0.62776 0.268 0.0
O519 O 0.89116 0.68863 0.28016 0.0
O520 O 0.89032 0.6377 0.32884 0.0
C521 C 0.84129 0.62815 0.21558 0.0
O522 O 0.89334 0.56221 0.26843 0.0
Co523 Co 0.92106 0.59516 0.17997 0.0
O524 O 0.90832 0.5372 0.20267 0.0
C525 C 0.98653 0.62138 0.24402 0.0
C526 C 0.89034 0.67823 0.32016 0.0
C527 C 0.90037 0.53125 0.24212 0.0
O528 O 0.9567 0.62906 0.2709 0.0
O529 O 0.9792 0.61069 0.20496 0.0
O530 O 0.83045 0.62625 0.25553 0.0
O531 O 0.88198 0.63267 0.20859 0.0
Co532 Co 0.40888 0.89056 0.2578 0.0
O533 O 0.34958 0.88451 0.27344 0.0
O534 O 0.40174 0.89197 0.32063 0.0
C535 C 0.40575 0.83557 0.20913 0.0
O536 O 0.47506 0.89557 0.25223 0.0
Co537 Co 0.42958 0.91035 0.16159 0.0
O538 O 0.48713 0.89464 0.18118 0.0
C539 C 0.39852 0.97836 0.21885 0.0
C540 C 0.36096 0.88589 0.31322 0.0
C541 C 0.5006 0.89384 0.21978 0.0
O542 O 0.40431 0.9557 0.25272 0.0
O543 O 0.40054 0.96288 0.18085 0.0
O544 O 0.41113 0.82803 0.24954 0.0
O545 O 0.39896 0.87454 0.20037 0.0
Co546 Co 0.14043 0.38677 0.26597 0.0
O547 O 0.14131 0.32597 0.27599 0.0
O548 O 0.14203 0.37658 0.32628 0.0
C549 C 0.1916 0.38708 0.21474 0.0
O550 O 0.13918 0.45222 0.26757 0.0
Co551 Co 0.11052 0.4181 0.17868 0.0
O552 O 0.12443 0.47615 0.2017 0.0
C553 C 0.04571 0.3929 0.24256 0.0
C554 C 0.14183 0.33613 0.31621 0.0
C555 C 0.13246 0.48274 0.24122 0.0
O556 O 0.07603 0.38528 0.26881 0.0
O557 O 0.05234 0.40341 0.2036 0.0
O558 O 0.20207 0.38869 0.25484 0.0
O559 O 0.151 0.38193 0.20676 0.0
Co560 Co 0.76362 0.62064 0.90454 0.0
O561 O 0.75914 0.68209 0.90807 0.0
O562 O 0.70491 0.63451 0.91123 0.0
C563 C 0.80954 0.61925 0.84867 0.0
O564 O 0.75302 0.55628 0.90022 0.0
Co565 Co 0.84912 0.57401 0.91577 0.0
O566 O 0.81543 0.52388 0.89288 0.0
C567 C 0.80607 0.61274 0.99059 0.0
C568 C 0.71824 0.67419 0.91178 0.0
C569 C 0.77465 0.52306 0.8925 0.0
O570 O 0.77159 0.61808 0.96893 0.0
O571 O 0.84073 0.59999 0.97377 0.0
O572 O 0.76886 0.62314 0.84164 0.0
O573 O 0.82103 0.61982 0.88811 0.0
Co574 Co 0.76406 0.39392 0.11338 0.0
O575 O 0.78061 0.38911 0.17153 0.0
O576 O 0.825 0.38527 0.11629 0.0
C577 C 0.70669 0.34973 0.11844 0.0
O578 O 0.75618 0.39622 0.04824 0.0
Co579 Co 0.67893 0.43687 0.09705 0.0
O580 O 0.68675 0.41036 0.0399 0.0
C581 C 0.75406 0.48971 0.12167 0.0
C582 C 0.81907 0.38511 0.15754 0.0
C583 C 0.72258 0.39932 0.02472 0.0
O584 O 0.77647 0.45673 0.11704 0.0
O585 O 0.71328 0.48866 0.11797 0.0
O586 O 0.74457 0.33544 0.11191 0.0
O587 O 0.7048 0.39023 0.12641 0.0
Co588 Co 0.63628 0.76739 0.12316 0.0
O589 O 0.69584 0.75367 0.1228 0.0
O590 O 0.64232 0.70603 0.11596 0.0
C591 C 0.6418 0.81162 0.18062 0.0
O592 O 0.57038 0.77139 0.12261 0.0
Co593 Co 0.61597 0.86437 0.11109 0.0
O594 O 0.55851 0.84188 0.12727 0.0
C595 C 0.63595 0.80938 0.03652 0.0
C596 C 0.68345 0.71412 0.11813 0.0
C597 C 0.545 0.80295 0.12593 0.0
O598 O 0.63692 0.77553 0.05935 0.0
O599 O 0.63219 0.84711 0.05192 0.0
O600 O 0.6368 0.77068 0.18594 0.0
O601 O 0.64718 0.82361 0.14192 0.0
Co602 Co 0.2683 0.62151 0.11228 0.0
O603 O 0.25146 0.62661 0.1704 0.0
O604 O 0.20707 0.62931 0.11493 0.0
C605 C 0.32564 0.66632 0.1185 0.0
O606 O 0.27626 0.61859 0.047 0.0
Co607 Co 0.35375 0.57884 0.09674 0.0
O608 O 0.34561 0.6039 0.03939 0.0
C609 C 0.27939 0.526 0.1215 0.0
C610 C 0.21285 0.62958 0.15625 0.0
C611 C 0.30989 0.6148 0.02377 0.0
O612 O 0.25665 0.5585 0.11542 0.0
O613 O 0.32021 0.52743 0.11863 0.0
O614 O 0.28768 0.68036 0.11174 0.0
O615 O 0.32749 0.62588 0.12586 0.0
Co616 Co 0.39756 0.24691 0.12398 0.0
O617 O 0.33796 0.26095 0.12328 0.0
O618 O 0.39163 0.30839 0.11836 0.0
C619 C 0.39154 0.20156 0.18078 0.0
O620 O 0.46341 0.24288 0.12397 0.0
Co621 Co 0.4186 0.15067 0.10936 0.0
O622 O 0.47507 0.17266 0.13025 0.0
C623 C 0.39974 0.2054 0.035 0.0
C624 C 0.35047 0.30051 0.11971 0.0
C625 C 0.48873 0.21149 0.12848 0.0
O626 O 0.39737 0.23909 0.05896 0.0
O627 O 0.40429 0.16782 0.04979 0.0
O628 O 0.39643 0.24241 0.18758 0.0
O629 O 0.38686 0.19071 0.14134 0.0
Co630 Co 0.26559 0.3889 0.90686 0.0
O631 O 0.27191 0.32755 0.91164 0.0
O632 O 0.32502 0.37625 0.91024 0.0
C633 C 0.21563 0.38422 0.85434 0.0
O634 O 0.27593 0.45351 0.89989 0.0
Co635 Co 0.18227 0.43832 0.91816 0.0
O636 O 0.21478 0.488 0.89407 0.0
C637 C 0.22731 0.40081 0.9926 0.0
C638 C 0.31288 0.33636 0.912 0.0
C639 C 0.25544 0.48755 0.89256 0.0
O640 O 0.26142 0.39475 0.97087 0.0
O641 O 0.19247 0.41339 0.97597 0.0
O642 O 0.25613 0.38215 0.84537 0.0
O643 O 0.2064 0.38778 0.89411 0.0
Co644 Co 0.63285 0.24569 0.88554 0.0
O645 O 0.63342 0.23931 0.8247 0.0
O646 O 0.63558 0.18596 0.8711 0.0
C647 C 0.68304 0.29996 0.88883 0.0
O648 O 0.63299 0.23909 0.95007 0.0
Co649 Co 0.59985 0.32674 0.9251 0.0
O650 O 0.61563 0.30124 0.98045 0.0
C651 C 0.53719 0.26165 0.89503 0.0
C652 C 0.63419 0.1986 0.83167 0.0
C653 C 0.62607 0.26243 0.98307 0.0
O654 O 0.56877 0.23866 0.88521 0.0
O655 O 0.54208 0.29992 0.90939 0.0
O656 O 0.69345 0.26031 0.88693 0.0
O657 O 0.64245 0.30664 0.88485 0.0
Co658 Co 0.40195 0.76766 0.88416 0.0
O659 O 0.40169 0.77441 0.82227 0.0
O660 O 0.39819 0.82698 0.86987 0.0
C661 C 0.35303 0.7119 0.88639 0.0
O662 O 0.40086 0.77533 0.94967 0.0
Co663 Co 0.43526 0.68839 0.92581 0.0
O664 O 0.41726 0.71392 0.98094 0.0
C665 C 0.49744 0.75349 0.89566 0.0
C666 C 0.40011 0.81512 0.83001 0.0
C667 C 0.40665 0.75274 0.9833 0.0
O668 O 0.46587 0.77604 0.88507 0.0
O669 O 0.49264 0.71562 0.91032 0.0
O670 O 0.34167 0.75125 0.88421 0.0
O671 O 0.39385 0.70631 0.8834 0.0
loop_
_geom_bond_atom_site_label_1
_geom_bond_atom_site_label_2
_geom_bond_distance
_geom_bond_site_symmetry_2
_ccdc_geom_bond_type
Co0 O1 2.216 . S
Co0 O2 2.091 . S
Co0 O4 2.004 . S
Co0 O10 2.021 . S
Co0 O12 2.137 . S
Co0 O13 2.244 . S
O1 Co0 2.216 . S
O1 C8 1.247 . S
O2 Co0 2.091 . S
O2 C8 1.261 . S
C3 O12 1.247 . S
C3 O13 1.272 . S
O4 Co0 2.004 . S
O4 C9 1.259 . S
Co5 O6 2.061 . S
Co5 O11 2.052 . S
Co5 O13 2.135 . S
O6 Co5 2.061 . S
O6 C9 1.235 . S
C7 O10 1.238 . S
C7 O11 1.241 . S
C8 O1 1.247 . S
C8 O2 1.261 . S
C9 O4 1.259 . S
C9 O6 1.235 . S
O10 Co0 2.021 . S
O10 C7 1.238 . S
O11 Co5 2.052 . S
O11 C7 1.241 . S
O12 Co0 2.137 . S
O12 C3 1.247 . S
O13 Co0 2.244 . S
O13 C3 1.272 . S
O13 Co5 2.135 . S
Co14 O15 2.216 . S
Co14 O16 2.091 . S
Co14 O18 2.004 . S
Co14 O24 2.021 . S
Co14 O26 2.137 . S
Co14 O27 2.244 . S
O15 Co14 2.216 . S
O15 C22 1.247 . S
O16 Co14 2.091 . S
O16 C22 1.261 . S
C17 O26 1.247 . S
C17 O27 1.272 . S
O18 Co14 2.004 . S
O18 C23 1.259 . S
Co19 O20 2.061 . S
Co19 O25 2.052 . S
Co19 O27 2.135 . S
O20 Co19 2.061 . S
O20 C23 1.235 . S
C21 O24 1.238 . S
C21 O25 1.241 . S
C22 O15 1.247 . S
C22 O16 1.261 . S
C23 O18 1.259 . S
C23 O20 1.235 . S
O24 Co14 2.021 . S
O24 C21 1.238 . S
O25 Co19 2.052 . S
O25 C21 1.241 . S
O26 Co14 2.137 . S
O26 C17 1.247 . S
O27 Co14 2.244 . S
O27 C17 1.272 . S
O27 Co19 2.135 . S
Co28 O29 2.216 . S
Co28 O30 2.091 . S
Co28 O32 2.004 . S
Co28 O38 2.021 . S
Co28 O40 2.137 . S
Co28 O41 2.244 . S
O29 Co28 2.216 . S
O29 C36 1.247 . S
O30 Co28 2.091 . S
O30 C36 1.261 . S
C31 O40 1.247 . S
C31 O41 1.272 . S
O32 Co28 2.004 . S
O32 C37 1.259 . S
Co33 O34 2.061 . S
Co33 O39 2.052 . S
Co33 O41 2.135 . S
O34 Co33 2.061 . S
O34 C37 1.235 . S
C35 O38 1.238 . S
C35 O39 1.241 . S
C36 O29 1.247 . S
C36 O30 1.261 . S
C37 O32 1.259 . S
C37 O34 1.235 . S
O38 Co28 2.021 . S
O38 C35 1.238 . S
O39 Co33 2.052 . S
O39 C35 1.241 . S
O40 Co28 2.137 . S
O40 C31 1.247 . S
O41 Co28 2.244 . S
O41 C31 1.272 . S
O41 Co33 2.135 . S
Co42 O43 2.216 . S
Co42 O44 2.091 . S
Co42 O46 2.004 . S
Co42 O52 2.021 . S
Co42 O54 2.137 . S
Co42 O55 2.244 . S
O43 Co42 2.216 . S
O43 C50 1.247 . S
O44 Co42 2.091 . S
O44 C50 1.261 . S
C45 O54 1.247 . S
C45 O55 1.272 . S
O46 Co42 2.004 . S
O46 C51 1.259 . S
Co47 O48 2.061 . S
Co47 O53 2.052 . S
Co47 O55 2.135 . S
O48 Co47 2.061 . S
O48 C51 1.235 . S
C49 O52 1.238 . S
C49 O53 1.241 . S
C50 O43 1.247 . S
C50 O44 1.261 . S
C51 O46 1.259 . S
C51 O48 1.235 . S
O52 Co42 2.021 . S
O52 C49 1.238 . S
O53 Co47 2.052 . S
O53 C49 1.241 . S
O54 Co42 2.137 . S
O54 C45 1.247 . S
O55 Co42 2.244 . S
O55 C45 1.272 . S
O55 Co47 2.135 . S
Co56 O57 2.216 . S
Co56 O58 2.091 . S
Co56 O60 2.004 . S
Co56 O66 2.021 . S
Co56 O68 2.137 . S
Co56 O69 2.244 . S
O57 Co56 2.216 . S
O57 C64 1.247 . S
O58 Co56 2.091 . S
O58 C64 1.261 . S
C59 O68 1.247 . S
C59 O69 1.272 . S
O60 Co56 2.004 . S
O60 C65 1.259 . S
Co61 O62 2.061 . S
Co61 O67 2.052 . S
Co61 O69 2.135 . S
O62 Co61 2.061 . S
O62 C65 1.235 . S
C63 O66 1.238 . S
C63 O67 1.241 . S
C64 O57 1.247 . S
C64 O58 1.261 . S
C65 O60 1.259 . S
C65 O62 1.235 . S
O66 Co56 2.021 . S
O66 C63 1.238 . S
O67 Co61 2.052 . S
O67 C63 1.241 . S
O68 Co56 2.137 . S
O68 C59 1.247 . S
O69 Co56 2.244 . S
O69 C59 1.272 . S
O69 Co61 2.135 . S
Co70 O71 2.216 . S
Co70 O72 2.091 . S
Co70 O74 2.004 . S
Co70 O80 2.021 . S
Co70 O82 2.137 . S
Co70 O83 2.244 . S
O71 Co70 2.216 . S
O71 C78 1.247 . S
O72 Co70 2.091 . S
O72 C78 1.261 . S
C73 O82 1.247 . S
C73 O83 1.272 . S
O74 Co70 2.004 . S
O74 C79 1.259 . S
Co75 O76 2.061 . S
Co75 O81 2.052 . S
Co75 O83 2.135 . S
O76 Co75 2.061 . S
O76 C79 1.235 . S
C77 O80 1.238 . S
C77 O81 1.241 . S
C78 O71 1.247 . S
C78 O72 1.261 . S
C79 O74 1.259 . S
C79 O76 1.235 . S
O80 Co70 2.021 . S
O80 C77 1.238 . S
O81 Co75 2.052 . S
O81 C77 1.241 . S
O82 Co70 2.137 . S
O82 C73 1.247 . S
O83 Co70 2.244 . S
O83 C73 1.272 . S
O83 Co75 2.135 . S
Co84 O85 2.216 . S
Co84 O86 2.091 . S
Co84 O88 2.004 . S
Co84 O94 2.021 . S
Co84 O96 2.137 . S
Co84 O97 2.244 . S
O85 Co84 2.216 . S
O85 C92 1.247 . S
O86 Co84 2.091 . S
O86 C92 1.261 . S
C87 O96 1.247 . S
C87 O97 1.272 . S
O88 Co84 2.004 . S
O88 C93 1.259 . S
Co89 O90 2.061 . S
Co89 O95 2.052 . S
Co89 O97 2.135 . S
O90 Co89 2.061 . S
O90 C93 1.235 . S
C91 O94 1.238 . S
C91 O95 1.241 . S
C92 O85 1.247 . S
C92 O86 1.261 . S
C93 O88 1.259 . S
C93 O90 1.235 . S
O94 Co84 2.021 . S
O94 C91 1.238 . S
O95 Co89 2.052 . S
O95 C91 1.241 . S
O96 Co84 2.137 . S
O96 C87 1.247 . S
O97 Co84 2.244 . S
O97 C87 1.272 . S
O97 Co89 2.135 . S
Co98 O99 2.216 . S
Co98 O100 2.091 . S
Co98 O102 2.004 . S
Co98 O108 2.021 . S
Co98 O110 2.137 . S
Co98 O111 2.244 . S
O99 Co98 2.216 . S
O99 C106 1.247 . S
O100 Co98 2.091 . S
O100 C106 1.261 . S
C101 O110 1.247 . S
C101 O111 1.272 . S
O102 Co98 2.004 . S
O102 C107 1.259 . S
Co103 O104 2.061 . S
Co103 O109 2.052 . S
Co103 O111 2.135 . S
O104 Co103 2.061 . S
O104 C107 1.235 . S
C105 O108 1.238 . S
C105 O109 1.241 . S
C106 O99 1.247 . S
C106 O100 1.261 . S
C107 O102 1.259 . S
C107 O104 1.235 . S
O108 Co98 2.021 . S
O108 C105 1.238 . S
O109 Co103 2.052 . S
O109 C105 1.241 . S
O110 Co98 2.137 . S
O110 C101 1.247 . S
O111 Co98 2.244 . S
O111 C101 1.272 . S
O111 Co103 2.135 . S
Co112 O113 2.216 . S
Co112 O114 2.091 . S
Co112 O116 2.004 . S
Co112 O122 2.021 . S
Co112 O124 2.137 . S
Co112 O125 2.244 . S
O113 Co112 2.216 . S
O113 C120 1.247 . S
O114 Co112 2.091 . S
O114 C120 1.261 . S
C115 O124 1.247 . S
C115 O125 1.272 . S
O116 Co112 2.004 . S
O116 C121 1.259 . S
Co117 O118 2.061 . S
Co117 O123 2.052 . S
Co117 O125 2.135 . S
O118 Co117 2.061 . S
O118 C121 1.235 . S
C119 O122 1.238 . S
C119 O123 1.241 . S
C120 O113 1.247 . S
C120 O114 1.261 . S
C121 O116 1.259 . S
C121 O118 1.235 . S
O122 Co112 2.021 . S
O122 C119 1.238 . S
O123 Co117 2.052 . S
O123 C119 1.241 . S
O124 Co112 2.137 . S
O124 C115 1.247 . S
O125 Co112 2.244 . S
O125 C115 1.272 . S
O125 Co117 2.135 . S
Co126 O127 2.216 . S
Co126 O128 2.091 . S
Co126 O130 2.004 . S
Co126 O136 2.021 . S
Co126 O138 2.137 . S
Co126 O139 2.244 . S
O127 Co126 2.216 . S
O127 C134 1.247 . S
O128 Co126 2.091 . S
O128 C134 1.261 . S
C129 O138 1.247 . S
C129 O139 1.272 . S
O130 Co126 2.004 . S
O130 C135 1.259 . S
Co131 O132 2.061 . S
Co131 O137 2.052 . S
Co131 O139 2.135 . S
O132 Co131 2.061 . S
O132 C135 1.235 . S
C133 O136 1.238 . S
C133 O137 1.241 . S
C134 O127 1.247 . S
C134 O128 1.261 . S
C135 O130 1.259 . S
C135 O132 1.235 . S
O136 Co126 2.021 . S
O136 C133 1.238 . S
O137 Co131 2.052 . S
O137 C133 1.241 . S
O138 Co126 2.137 . S
O138 C129 1.247 . S
O139 Co126 2.244 . S
O139 C129 1.272 . S
O139 Co131 2.135 . S
Co140 O141 2.216 . S
Co140 O142 2.091 . S
Co140 O144 2.004 . S
Co140 O150 2.021 . S
Co140 O152 2.137 . S
Co140 O153 2.244 . S
O141 Co140 2.216 . S
O141 C148 1.247 . S
O142 Co140 2.091 . S
O142 C148 1.261 . S
C143 O152 1.247 . S
C143 O153 1.272 . S
O144 Co140 2.004 . S
O144 C149 1.259 . S
Co145 O146 2.061 . S
Co145 O151 2.052 . S
Co145 O153 2.135 . S
O146 Co145 2.061 . S
O146 C149 1.235 . S
C147 O150 1.238 . S
C147 O151 1.241 . S
C148 O141 1.247 . S
C148 O142 1.261 . S
C149 O144 1.259 . S
C149 O146 1.235 . S
O150 Co140 2.021 . S
O150 C147 1.238 . S
O151 Co145 2.052 . S
O151 C147 1.241 . S
O152 Co140 2.137 . S
O152 C143 1.247 . S
O153 Co140 2.244 . S
O153 C143 1.272 . S
O153 Co145 2.135 . S
Co154 O155 2.216 . S
Co154 O156 2.091 . S
Co154 O158 2.004 . S
Co154 O164 2.021 . S
Co154 O166 2.137 . S
Co154 O167 2.244 . S
O155 Co154 2.216 . S
O155 C162 1.247 . S
O156 Co154 2.091 . S
O156 C162 1.261 . S
C157 O166 1.247 . S
C157 O167 1.272 . S
O158 Co154 2.004 . S
O158 C163 1.259 . S
Co159 O160 2.061 . S
Co159 O165 2.052 . S
Co159 O167 2.135 . S
O160 Co159 2.061 . S
O160 C163 1.235 . S
C161 O164 1.238 . S
C161 O165 1.241 . S
C162 O155 1.247 . S
C162 O156 1.261 . S
C163 O158 1.259 . S
C163 O160 1.235 . S
O164 Co154 2.021 . S
O164 C161 1.238 . S
O165 Co159 2.052 . S
O165 C161 1.241 . S
O166 Co154 2.137 . S
O166 C157 1.247 . S
O167 Co154 2.244 . S
O167 C157 1.272 . S
O167 Co159 2.135 . S
Co168 O169 2.216 . S
Co168 O170 2.091 . S
Co168 O172 2.004 . S
Co168 O178 2.021 . S
Co168 O180 2.137 . S
Co168 O181 2.244 . S
O169 Co168 2.216 . S
O169 C176 1.247 . S
O170 Co168 2.091 . S
O170 C176 1.261 . S
C171 O180 1.247 . S
C171 O181 1.272 . S
O172 Co168 2.004 . S
O172 C177 1.259 . S
Co173 O174 2.061 . S
Co173 O179 2.052 . S
Co173 O181 2.135 . S
O174 Co173 2.061 . S
O174 C177 1.235 . S
C175 O178 1.238 . S
C175 O179 1.241 . S
C176 O169 1.247 . S
C176 O170 1.261 . S
C177 O172 1.259 . S
C177 O174 1.235 . S
O178 Co168 2.021 . S
O178 C175 1.238 . S
O179 Co173 2.052 . S
O179 C175 1.241 . S
O180 Co168 2.137 . S
O180 C171 1.247 . S
O181 Co168 2.244 . S
O181 C171 1.272 . S
O181 Co173 2.135 . S
Co182 O183 2.216 . S
Co182 O184 2.091 . S
Co182 O186 2.004 . S
Co182 O192 2.021 . S
Co182 O194 2.137 . S
Co182 O195 2.244 . S
O183 Co182 2.216 . S
O183 C190 1.247 . S
O184 Co182 2.091 . S
O184 C190 1.261 . S
C185 O194 1.247 . S
C185 O195 1.272 . S
O186 Co182 2.004 . S
O186 C191 1.259 . S
Co187 O188 2.061 . S
Co187 O193 2.052 . S
Co187 O195 2.135 . S
O188 Co187 2.061 . S
O188 C191 1.235 . S
C189 O192 1.238 . S
C189 O193 1.241 . S
C190 O183 1.247 . S
C190 O184 1.261 . S
C191 O186 1.259 . S
C191 O188 1.235 . S
O192 Co182 2.021 . S
O192 C189 1.238 . S
O193 Co187 2.052 . S
O193 C189 1.241 . S
O194 Co182 2.137 . S
O194 C185 1.247 . S
O195 Co182 2.244 . S
O195 C185 1.272 . S
O195 Co187 2.135 . S
Co196 O197 2.216 . S
Co196 O198 2.091 . S
Co196 O200 2.004 . S
Co196 O206 2.021 . S
Co196 O208 2.137 . S
Co196 O209 2.244 . S
O197 Co196 2.216 . S
O197 C204 1.247 . S
O198 Co196 2.091 . S
O198 C204 1.261 . S
C199 O208 1.247 . S
C199 O209 1.272 . S
O200 Co196 2.004 . S
O200 C205 1.259 . S
Co201 O202 2.061 . S
Co201 O207 2.052 . S
Co201 O209 2.135 . S
O202 Co201 2.061 . S
O202 C205 1.235 . S
C203 O206 1.238 . S
C203 O207 1.241 . S
C204 O197 1.247 . S
C204 O198 1.261 . S
C205 O200 1.259 . S
C205 O202 1.235 . S
O206 Co196 2.021 . S
O206 C203 1.238 . S
O207 Co201 2.052 . S
O207 C203 1.241 . S
O208 Co196 2.137 . S
O208 C199 1.247 . S
O209 Co196 2.244 . S
O209 C199 1.272 . S
O209 Co201 2.135 . S
Co210 O211 2.216 . S
Co210 O212 2.091 . S
Co210 O214 2.004 . S
Co210 O220 2.021 . S
Co210 O222 2.137 . S
Co210 O223 2.244 . S
O211 Co210 2.216 . S
O211 C218 1.247 . S
O212 Co210 2.091 . S
O212 C218 1.261 . S
C213 O222 1.247 . S
C213 O223 1.272 . S
O214 Co210 2.004 . S
O214 C219 1.259 . S
Co215 O216 2.061 . S
Co215 O221 2.052 . S
Co215 O223 2.135 . S
O216 Co215 2.061 . S
O216 C219 1.235 . S
C217 O220 1.238 . S
C217 O221 1.241 . S
C218 O211 1.247 . S
C218 O212 1.261 . S
C219 O214 1.259 . S
C219 O216 1.235 . S
O220 Co210 2.021 . S
O220 C217 1.238 . S
O221 Co215 2.052 . S
O221 C217 1.241 . S
O222 Co210 2.137 . S
O222 C213 1.247 . S
O223 Co210 2.244 . S
O223 C213 1.272 . S
O223 Co215 2.135 . S
Co224 O225 2.216 . S
Co224 O226 2.091 . S
Co224 O228 2.004 . S
Co224 O234 2.021 . S
Co224 O236 2.137 . S
Co224 O237 2.244 . S
O225 Co224 2.216 . S
O225 C232 1.247 . S
O226 Co224 2.091 . S
O226 C232 1.261 . S
C227 O236 1.247 . S
C227 O237 1.272 . S
O228 Co224 2.004 . S
O228 C233 1.259 . S
Co229 O230 2.061 . S
Co229 O235 2.052 . S
Co229 O237 2.135 . S
O230 Co229 2.061 . S
O230 C233 1.235 . S
C231 O234 1.238 . S
C231 O235 1.241 . S
C232 O225 1.247 . S
C232 O226 1.261 . S
C233 O228 1.259 . S
C233 O230 1.235 . S
O234 Co224 2.021 . S
O234 C231 1.238 . S
O235 Co229 2.052 . S
O235 C231 1.241 . S
O236 Co224 2.137 . S
O236 C227 1.247 . S
O237 Co224 2.244 . S
O237 C227 1.272 . S
O237 Co229 2.135 . S
Co238 O239 2.216 . S
Co238 O240 2.091 . S
Co238 O242 2.004 . S
Co238 O248 2.021 . S
Co238 O250 2.137 . S
Co238 O251 2.244 . S
O239 Co238 2.216 . S
O239 C246 1.247 . S
O240 Co238 2.091 . S
O240 C246 1.261 . S
C241 O250 1.247 . S
C241 O251 1.272 . S
O242 Co238 2.004 . S
O242 C247 1.259 . S
Co243 O244 2.061 . S
Co243 O249 2.052 . S
Co243 O251 2.135 . S
O244 Co243 2.061 . S
O244 C247 1.235 . S
C245 O248 1.238 . S
C245 O249 1.241 . S
C246 O239 1.247 . S
C246 O240 1.261 . S
C247 O242 1.259 . S
C247 O244 1.235 . S
O248 Co238 2.021 . S
O248 C245 1.238 . S
O249 Co243 2.052 . S
O249 C245 1.241 . S
O250 Co238 2.137 . S
O250 C241 1.247 . S
O251 Co238 2.244 . S
O251 C241 1.272 . S
O251 Co243 2.135 . S
Co252 O253 2.216 . S
Co252 O254 2.091 . S
Co252 O256 2.004 . S
Co252 O262 2.021 . S
Co252 O264 2.137 . S
Co252 O265 2.244 . S
O253 Co252 2.216 . S
O253 C260 1.247 . S
O254 Co252 2.091 . S
O254 C260 1.261 . S
C255 O264 1.247 . S
C255 O265 1.272 . S
O256 Co252 2.004 . S
O256 C261 1.259 . S
Co257 O258 2.061 . S
Co257 O263 2.052 . S
Co257 O265 2.135 . S
O258 Co257 2.061 . S
O258 C261 1.235 . S
C259 O262 1.238 . S
C259 O263 1.241 . S
C260 O253 1.247 . S
C260 O254 1.261 . S
C261 O256 1.259 . S
C261 O258 1.235 . S
O262 Co252 2.021 . S
O262 C259 1.238 . S
O263 Co257 2.052 . S
O263 C259 1.241 . S
O264 Co252 2.137 . S
O264 C255 1.247 . S
O265 Co252 2.244 . S
O265 C255 1.272 . S
O265 Co257 2.135 . S
Co266 O267 2.216 . S
Co266 O268 2.091 . S
Co266 O270 2.004 . S
Co266 O276 2.021 . S
Co266 O278 2.137 . S
Co266 O279 2.244 . S
O267 Co266 2.216 . S
O267 C274 1.247 . S
O268 Co266 2.091 . S
O268 C274 1.261 . S
C269 O278 1.247 . S
C269 O279 1.272 . S
O270 Co266 2.004 . S
O270 C275 1.259 . S
Co271 O272 2.061 . S
Co271 O277 2.052 . S
Co271 O279 2.135 . S
O272 Co271 2.061 . S
O272 C275 1.235 . S
C273 O276 1.238 . S
C273 O277 1.241 . S
C274 O267 1.247 . S
C274 O268 1.261 . S
C275 O270 1.259 . S
C275 O272 1.235 . S
O276 Co266 2.021 . S
O276 C273 1.238 . S
O277 Co271 2.052 . S
O277 C273 1.241 . S
O278 Co266 2.137 . S
O278 C269 1.247 . S
O279 Co266 2.244 . S
O279 C269 1.272 . S
O279 Co271 2.135 . S
Co280 O281 2.216 . S
Co280 O282 2.091 . S
Co280 O284 2.004 . S
Co280 O290 2.021 . S
Co280 O292 2.137 . S
Co280 O293 2.244 . S
O281 Co280 2.216 . S
O281 C288 1.247 . S
O282 Co280 2.091 . S
O282 C288 1.261 . S
C283 O292 1.247 . S
C283 O293 1.272 . S
O284 Co280 2.004 . S
O284 C289 1.259 . S
Co285 O286 2.061 . S
Co285 O291 2.052 . S
Co285 O293 2.135 . S
O286 Co285 2.061 . S
O286 C289 1.235 . S
C287 O290 1.238 . S
C287 O291 1.241 . S
C288 O281 1.247 . S
C288 O282 1.261 . S
C289 O284 1.259 . S
C289 O286 1.235 . S
O290 Co280 2.021 . S
O290 C287 1.238 . S
O291 Co285 2.052 . S
O291 C287 1.241 . S
O292 Co280 2.137 . S
O292 C283 1.247 . S
O293 Co280 2.244 . S
O293 C283 1.272 . S
O293 Co285 2.135 . S
Co294 O295 2.216 . S
Co294 O296 2.091 . S
Co294 O298 2.004 . S
Co294 O304 2.021 . S
Co294 O306 2.137 . S
Co294 O307 2.244 . S
O295 Co294 2.216 . S
O295 C302 1.247 . S
O296 Co294 2.091 . S
O296 C302 1.261 . S
C297 O306 1.247 . S
C297 O307 1.272 . S
O298 Co294 2.004 . S
O298 C303 1.259 . S
Co299 O300 2.061 . S
Co299 O305 2.052 . S
Co299 O307 2.135 . S
O300 Co299 2.061 . S
O300 C303 1.235 . S
C301 O304 1.238 . S
C301 O305 1.241 . S
C302 O295 1.247 . S
C302 O296 1.261 . S
C303 O298 1.259 . S
C303 O300 1.235 . S
O304 Co294 2.021 . S
O304 C301 1.238 . S
O305 Co299 2.052 . S
O305 C301 1.241 . S
O306 Co294 2.137 . S
O306 C297 1.247 . S
O307 Co294 2.244 . S
O307 C297 1.272 . S
O307 Co299 2.135 . S
Co308 O309 2.216 . S
Co308 O310 2.091 . S
Co308 O312 2.004 . S
Co308 O318 2.021 . S
Co308 O320 2.137 . S
Co308 O321 2.244 . S
O309 Co308 2.216 . S
O309 C316 1.247 . S
O310 Co308 2.091 . S
O310 C316 1.261 . S
C311 O320 1.247 . S
C311 O321 1.272 . S
O312 Co308 2.004 . S
O312 C317 1.259 . S
Co313 O314 2.061 . S
Co313 O319 2.052 . S
Co313 O321 2.135 . S
O314 Co313 2.061 . S
O314 C317 1.235 . S
C315 O318 1.238 . S
C315 O319 1.241 . S
C316 O309 1.247 . S
C316 O310 1.261 . S
C317 O312 1.259 . S
C317 O314 1.235 . S
O318 Co308 2.021 . S
O318 C315 1.238 . S
O319 Co313 2.052 . S
O319 C315 1.241 . S
O320 Co308 2.137 . S
O320 C311 1.247 . S
O321 Co308 2.244 . S
O321 C311 1.272 . S
O321 Co313 2.135 . S
Co322 O323 2.216 . S
Co322 O324 2.091 . S
Co322 O326 2.004 . S
Co322 O332 2.021 . S
Co322 O334 2.137 . S
Co322 O335 2.244 . S
O323 Co322 2.216 . S
O323 C330 1.247 . S
O324 Co322 2.091 . S
O324 C330 1.261 . S
C325 O334 1.247 . S
C325 O335 1.272 . S
O326 Co322 2.004 . S
O326 C331 1.259 . S
Co327 O328 2.061 . S
Co327 O333 2.052 . S
Co327 O335 2.135 . S
O328 Co327 2.061 . S
O328 C331 1.235 . S
C329 O332 1.238 . S
C329 O333 1.241 . S
C330 O323 1.247 . S
C330 O324 1.261 . S
C331 O326 1.259 . S
C331 O328 1.235 . S
O332 Co322 2.021 . S
O332 C329 1.238 . S
O333 Co327 2.052 . S
O333 C329 1.241 . S
O334 Co322 2.137 . S
O334 C325 1.247 . S
O335 Co322 2.244 . S
O335 C325 1.272 . S
O335 Co327 2.135 . S
Co336 O337 2.216 . S
Co336 O338 2.091 . S
Co336 O340 2.004 . S
Co336 O346 2.021 . S
Co336 O348 2.137 . S
Co336 O349 2.244 . S
O337 Co336 2.216 . S
O337 C344 1.247 . S
O338 Co336 2.091 . S
O338 C344 1.261 . S
C339 O348 1.247 . S
C339 O349 1.272 . S
O340 Co336 2.004 . S
O340 C345 1.259 . S
Co341 O342 2.061 . S
Co341 O347 2.052 . S
Co341 O349 2.135 . S
O342 Co341 2.061 . S
O342 C345 1.235 . S
C343 O346 1.238 . S
C343 O347 1.241 . S
C344 O337 1.247 . S
C344 O338 1.261 . S
C345 O340 1.259 . S
C345 O342 1.235 . S
O346 Co336 2.021 . S
O346 C343 1.238 . S
O347 Co341 2.052 . S
O347 C343 1.241 . S
O348 Co336 2.137 . S
O348 C339 1.247 . S
O349 Co336 2.244 . S
O349 C339 1.272 . S
O349 Co341 2.135 . S
Co350 O351 2.216 . S
Co350 O352 2.091 . S
Co350 O354 2.004 . S
Co350 O360 2.021 . S
Co350 O362 2.137 . S
Co350 O363 2.244 . S
O351 Co350 2.216 . S
O351 C358 1.247 . S
O352 Co350 2.091 . S
O352 C358 1.261 . S
C353 O362 1.247 . S
C353 O363 1.272 . S
O354 Co350 2.004 . S
O354 C359 1.259 . S
Co355 O356 2.061 . S
Co355 O361 2.052 . S
Co355 O363 2.135 . S
O356 Co355 2.061 . S
O356 C359 1.235 . S
C357 O360 1.238 . S
C357 O361 1.241 . S
C358 O351 1.247 . S
C358 O352 1.261 . S
C359 O354 1.259 . S
C359 O356 1.235 . S
O360 Co350 2.021 . S
O360 C357 1.238 . S
O361 Co355 2.052 . S
O361 C357 1.241 . S
O362 Co350 2.137 . S
O362 C353 1.247 . S
O363 Co350 2.244 . S
O363 C353 1.272 . S
O363 Co355 2.135 . S
Co364 O365 2.216 . S
Co364 O366 2.091 . S
Co364 O368 2.004 . S
Co364 O374 2.021 . S
Co364 O376 2.137 . S
Co364 O377 2.244 . S
O365 Co364 2.216 . S
O365 C372 1.247 . S
O366 Co364 2.091 . S
O366 C372 1.261 . S
C367 O376 1.247 . S
C367 O377 1.272 . S
O368 Co364 2.004 . S
O368 C373 1.259 . S
Co369 O370 2.061 . S
Co369 O375 2.052 . S
Co369 O377 2.135 . S
O370 Co369 2.061 . S
O370 C373 1.235 . S
C371 O374 1.238 . S
C371 O375 1.241 . S
C372 O365 1.247 . S
C372 O366 1.261 . S
C373 O368 1.259 . S
C373 O370 1.235 . S
O374 Co364 2.021 . S
O374 C371 1.238 . S
O375 Co369 2.052 . S
O375 C371 1.241 . S
O376 Co364 2.137 . S
O376 C367 1.247 . S
O377 Co364 2.244 . S
O377 C367 1.272 . S
O377 Co369 2.135 . S
Co378 O379 2.216 . S
Co378 O380 2.091 . S
Co378 O382 2.004 . S
Co378 O388 2.021 . S
Co378 O390 2.137 . S
Co378 O391 2.244 . S
O379 Co378 2.216 . S
O379 C386 1.247 . S
O380 Co378 2.091 . S
O380 C386 1.261 . S
C381 O390 1.247 . S
C381 O391 1.272 . S
O382 Co378 2.004 . S
O382 C387 1.259 . S
Co383 O384 2.061 . S
Co383 O389 2.052 . S
Co383 O391 2.135 . S
O384 Co383 2.061 . S
O384 C387 1.235 . S
C385 O388 1.238 . S
C385 O389 1.241 . S
C386 O379 1.247 . S
C386 O380 1.261 . S
C387 O382 1.259 . S
C387 O384 1.235 . S
O388 Co378 2.021 . S
O388 C385 1.238 . S
O389 Co383 2.052 . S
O389 C385 1.241 . S
O390 Co378 2.137 . S
O390 C381 1.247 . S
O391 Co378 2.244 . S
O391 C381 1.272 . S
O391 Co383 2.135 . S
Co392 O393 2.216 . S
Co392 O394 2.091 . S
Co392 O396 2.004 . S
Co392 O402 2.021 . S
Co392 O404 2.137 . S
Co392 O405 2.244 . S
O393 Co392 2.216 . S
O393 C400 1.247 . S
O394 Co392 2.091 . S
O394 C400 1.261 . S
C395 O404 1.247 . S
C395 O405 1.272 . S
O396 Co392 2.004 . S
O396 C401 1.259 . S
Co397 O398 2.061 . S
Co397 O403 2.052 . S
Co397 O405 2.135 . S
O398 Co397 2.061 . S
O398 C401 1.235 . S
C399 O402 1.238 . S
C399 O403 1.241 . S
C400 O393 1.247 . S
C400 O394 1.261 . S
C401 O396 1.259 . S
C401 O398 1.235 . S
O402 Co392 2.021 . S
O402 C399 1.238 . S
O403 Co397 2.052 . S
O403 C399 1.241 . S
O404 Co392 2.137 . S
O404 C395 1.247 . S
O405 Co392 2.244 . S
O405 C395 1.272 . S
O405 Co397 2.135 . S
Co406 O407 2.216 . S
Co406 O408 2.091 . S
Co406 O410 2.004 . S
Co406 O416 2.021 . S
Co406 O418 2.137 . S
Co406 O419 2.244 . S
O407 Co406 2.216 . S
O407 C414 1.247 . S
O408 Co406 2.091 . S
O408 C414 1.261 . S
C409 O418 1.247 . S
C409 O419 1.272 . S
O410 Co406 2.004 . S
O410 C415 1.259 . S
Co411 O412 2.061 . S
Co411 O417 2.052 . S
Co411 O419 2.135 . S
O412 Co411 2.061 . S
O412 C415 1.235 . S
C413 O416 1.238 . S
C413 O417 1.241 . S
C414 O407 1.247 . S
C414 O408 1.261 . S
C415 O410 1.259 . S
C415 O412 1.235 . S
O416 Co406 2.021 . S
O416 C413 1.238 . S
O417 Co411 2.052 . S
O417 C413 1.241 . S
O418 Co406 2.137 . S
O418 C409 1.247 . S
O419 Co406 2.244 . S
O419 C409 1.272 . S
O419 Co411 2.135 . S
Co420 O421 2.216 . S
Co420 O422 2.091 . S
Co420 O424 2.004 . S
Co420 O430 2.021 . S
Co420 O432 2.137 . S
Co420 O433 2.244 . S
O421 Co420 2.216 . S
O421 C428 1.247 . S
O422 Co420 2.091 . S
O422 C428 1.261 . S
C423 O432 1.247 . S
C423 O433 1.272 . S
O424 Co420 2.004 . S
O424 C429 1.259 . S
Co425 O426 2.061 . S
Co425 O431 2.052 . S
Co425 O433 2.135 . S
O426 Co425 2.061 . S
O426 C429 1.235 . S
C427 O430 1.238 . S
C427 O431 1.241 . S
C428 O421 1.247 . S
C428 O422 1.261 . S
C429 O424 1.259 . S
C429 O426 1.235 . S
O430 Co420 2.021 . S
O430 C427 1.238 . S
O431 Co425 2.052 . S
O431 C427 1.241 . S
O432 Co420 2.137 . S
O432 C423 1.247 . S
O433 Co420 2.244 . S
O433 C423 1.272 . S
O433 Co425 2.135 . S
Co434 O435 2.216 . S
Co434 O436 2.091 . S
Co434 O438 2.004 . S
Co434 O444 2.021 . S
Co434 O446 2.137 . S
Co434 O447 2.244 . S
O435 Co434 2.216 . S
O435 C442 1.247 . S
O436 Co434 2.091 . S
O436 C442 1.261 . S
C437 O446 1.247 . S
C437 O447 1.272 . S
O438 Co434 2.004 . S
O438 C443 1.259 . S
Co439 O440 2.061 . S
Co439 O445 2.052 . S
Co439 O447 2.135 . S
O440 Co439 2.061 . S
O440 C443 1.235 . S
C441 O444 1.238 . S
C441 O445 1.241 . S
C442 O435 1.247 . S
C442 O436 1.261 . S
C443 O438 1.259 . S
C443 O440 1.235 . S
O444 Co434 2.021 . S
O444 C441 1.238 . S
O445 Co439 2.052 . S
O445 C441 1.241 . S
O446 Co434 2.137 . S
O446 C437 1.247 . S
O447 Co434 2.244 . S
O447 C437 1.272 . S
O447 Co439 2.135 . S
Co448 O449 2.216 . S
Co448 O450 2.091 . S
Co448 O452 2.004 . S
Co448 O458 2.021 . S
Co448 O460 2.137 . S
Co448 O461 2.244 . S
O449 Co448 2.216 . S
O449 C456 1.247 . S
O450 Co448 2.091 . S
O450 C456 1.261 . S
C451 O460 1.247 . S
C451 O461 1.272 . S
O452 Co448 2.004 . S
O452 C457 1.259 . S
Co453 O454 2.061 . S
Co453 O459 2.052 . S
Co453 O461 2.135 . S
O454 Co453 2.061 . S
O454 C457 1.235 . S
C455 O458 1.238 . S
C455 O459 1.241 . S
C456 O449 1.247 . S
C456 O450 1.261 . S
C457 O452 1.259 . S
C457 O454 1.235 . S
O458 Co448 2.021 . S
O458 C455 1.238 . S
O459 Co453 2.052 . S
O459 C455 1.241 . S
O460 Co448 2.137 . S
O460 C451 1.247 . S
O461 Co448 2.244 . S
O461 C451 1.272 . S
O461 Co453 2.135 . S
Co462 O463 2.216 . S
Co462 O464 2.091 . S
Co462 O466 2.004 . S
Co462 O472 2.021 . S
Co462 O474 2.137 . S
Co462 O475 2.244 . S
O463 Co462 2.216 . S
O463 C470 1.247 . S
O464 Co462 2.091 . S
O464 C470 1.261 . S
C465 O474 1.247 . S
C465 O475 1.272 . S
O466 Co462 2.004 . S
O466 C471 1.259 . S
Co467 O468 2.061 . S
Co467 O473 2.052 . S
Co467 O475 2.135 . S
O468 Co467 2.061 . S
O468 C471 1.235 . S
C469 O472 1.238 . S
C469 O473 1.241 . S
C470 O463 1.247 . S
C470 O464 1.261 . S
C471 O466 1.259 . S
C471 O468 1.235 . S
O472 Co462 2.021 . S
O472 C469 1.238 . S
O473 Co467 2.052 . S
O473 C469 1.241 . S
O474 Co462 2.137 . S
O474 C465 1.247 . S
O475 Co462 2.244 . S
O475 C465 1.272 . S
O475 Co467 2.135 . S
Co476 O477 2.216 . S
Co476 O478 2.091 . S
Co476 O480 2.004 . S
Co476 O486 2.021 . S
Co476 O488 2.137 . S
Co476 O489 2.244 . S
O477 Co476 2.216 . S
O477 C484 1.247 . S
O478 Co476 2.091 . S
O478 C484 1.261 . S
C479 O488 1.247 . S
C479 O489 1.272 . S
O480 Co476 2.004 . S
O480 C485 1.259 . S
Co481 O482 2.061 . S
Co481 O487 2.052 . S
Co481 O489 2.135 . S
O482 Co481 2.061 . S
O482 C485 1.235 . S
C483 O486 1.238 . S
C483 O487 1.241 . S
C484 O477 1.247 . S
C484 O478 1.261 . S
C485 O480 1.259 . S
C485 O482 1.235 . S
O486 Co476 2.021 . S
O486 C483 1.238 . S
O487 Co481 2.052 . S
O487 C483 1.241 . S
O488 Co476 2.137 . S
O488 C479 1.247 . S
O489 Co476 2.244 . S
O489 C479 1.272 . S
O489 Co481 2.135 . S
Co490 O491 2.216 . S
Co490 O492 2.091 . S
Co490 O494 2.004 . S
Co490 O500 2.021 . S
Co490 O502 2.137 . S
Co490 O503 2.244 . S
O491 Co490 2.216 . S
O491 C498 1.247 . S
O492 Co490 2.091 . S
O492 C498 1.261 . S
C493 O502 1.247 . S
C493 O503 1.272 . S
O494 Co490 2.004 . S
O494 C499 1.259 . S
Co495 O496 2.061 . S
Co495 O501 2.052 . S
Co495 O503 2.135 . S
O496 Co495 2.061 . S
O496 C499 1.235 . S
C497 O500 1.238 . S
C497 O501 1.241 . S
C498 O491 1.247 . S
C498 O492 1.261 . S
C499 O494 1.259 . S
C499 O496 1.235 . S
O500 Co490 2.021 . S
O500 C497 1.238 . S
O501 Co495 2.052 . S
O501 C497 1.241 . S
O502 Co490 2.137 . S
O502 C493 1.247 . S
O503 Co490 2.244 . S
O503 C493 1.272 . S
O503 Co495 2.135 . S
Co504 O505 2.216 . S
Co504 O506 2.091 . S
Co504 O508 2.004 . S
Co504 O514 2.021 . S
Co504 O516 2.137 . S
Co504 O517 2.244 . S
O505 Co504 2.216 . S
O505 C512 1.247 . S
O506 Co504 2.091 . S
O506 C512 1.261 . S
C507 O516 1.247 . S
C507 O517 1.272 . S
O508 Co504 2.004 . S
O508 C513 1.259 . S
Co509 O510 2.061 . S
Co509 O515 2.052 . S
Co509 O517 2.135 . S
O510 Co509 2.061 . S
O510 C513 1.235 . S
C511 O514 1.238 . S
C511 O515 1.241 . S
C512 O505 1.247 . S
C512 O506 1.261 . S
C513 O508 1.259 . S
C513 O510 1.235 . S
O514 Co504 2.021 . S
O514 C511 1.238 . S
O515 Co509 2.052 . S
O515 C511 1.241 . S
O516 Co504 2.137 . S
O516 C507 1.247 . S
O517 Co504 2.244 . S
O517 C507 1.272 . S
O517 Co509 2.135 . S
Co518 O519 2.216 . S
Co518 O520 2.091 . S
Co518 O522 2.004 . S
Co518 O528 2.021 . S
Co518 O530 2.137 . S
Co518 O531 2.244 . S
O519 Co518 2.216 . S
O519 C526 1.247 . S
O520 Co518 2.091 . S
O520 C526 1.261 . S
C521 O530 1.247 . S
C521 O531 1.272 . S
O522 Co518 2.004 . S
O522 C527 1.259 . S
Co523 O524 2.061 . S
Co523 O529 2.052 . S
Co523 O531 2.135 . S
O524 Co523 2.061 . S
O524 C527 1.235 . S
C525 O528 1.238 . S
C525 O529 1.241 . S
C526 O519 1.247 . S
C526 O520 1.261 . S
C527 O522 1.259 . S
C527 O524 1.235 . S
O528 Co518 2.021 . S
O528 C525 1.238 . S
O529 Co523 2.052 . S
O529 C525 1.241 . S
O530 Co518 2.137 . S
O530 C521 1.247 . S
O531 Co518 2.244 . S
O531 C521 1.272 . S
O531 Co523 2.135 . S
Co532 O533 2.216 . S
Co532 O534 2.091 . S
Co532 O536 2.004 . S
Co532 O542 2.021 . S
Co532 O544 2.137 . S
Co532 O545 2.244 . S
O533 Co532 2.216 . S
O533 C540 1.247 . S
O534 Co532 2.091 . S
O534 C540 1.261 . S
C535 O544 1.247 . S
C535 O545 1.272 . S
O536 Co532 2.004 . S
O536 C541 1.259 . S
Co537 O538 2.061 . S
Co537 O543 2.052 . S
Co537 O545 2.135 . S
O538 Co537 2.061 . S
O538 C541 1.235 . S
C539 O542 1.238 . S
C539 O543 1.241 . S
C540 O533 1.247 . S
C540 O534 1.261 . S
C541 O536 1.259 . S
C541 O538 1.235 . S
O542 Co532 2.021 . S
O542 C539 1.238 . S
O543 Co537 2.052 . S
O543 C539 1.241 . S
O544 Co532 2.137 . S
O544 C535 1.247 . S
O545 Co532 2.244 . S
O545 C535 1.272 . S
O545 Co537 2.135 . S
Co546 O547 2.216 . S
Co546 O548 2.091 . S
Co546 O550 2.004 . S
Co546 O556 2.021 . S
Co546 O558 2.137 . S
Co546 O559 2.244 . S
O547 Co546 2.216 . S
O547 C554 1.247 . S
O548 Co546 2.091 . S
O548 C554 1.261 . S
C549 O558 1.247 . S
C549 O559 1.272 . S
O550 Co546 2.004 . S
O550 C555 1.259 . S
Co551 O552 2.061 . S
Co551 O557 2.052 . S
Co551 O559 2.135 . S
O552 Co551 2.061 . S
O552 C555 1.235 . S
C553 O556 1.238 . S
C553 O557 1.241 . S
C554 O547 1.247 . S
C554 O548 1.261 . S
C555 O550 1.259 . S
C555 O552 1.235 . S
O556 Co546 2.021 . S
O556 C553 1.238 . S
O557 Co551 2.052 . S
O557 C553 1.241 . S
O558 Co546 2.137 . S
O558 C549 1.247 . S
O559 Co546 2.244 . S
O559 C549 1.272 . S
O559 Co551 2.135 . S
Co560 O561 2.216 . S
Co560 O562 2.091 . S
Co560 O564 2.004 . S
Co560 O570 2.021 . S
Co560 O572 2.137 . S
Co560 O573 2.244 . S
O561 Co560 2.216 . S
O561 C568 1.247 . S
O562 Co560 2.091 . S
O562 C568 1.261 . S
C563 O572 1.247 . S
C563 O573 1.272 . S
O564 Co560 2.004 . S
O564 C569 1.259 . S
Co565 O566 2.061 . S
Co565 O571 2.052 . S
Co565 O573 2.135 . S
O566 Co565 2.061 . S
O566 C569 1.235 . S
C567 O570 1.238 . S
C567 O571 1.241 . S
C568 O561 1.247 . S
C568 O562 1.261 . S
C569 O564 1.259 . S
C569 O566 1.235 . S
O570 Co560 2.021 . S
O570 C567 1.238 . S
O571 Co565 2.052 . S
O571 C567 1.241 . S
O572 Co560 2.137 . S
O572 C563 1.247 . S
O573 Co560 2.244 . S
O573 C563 1.272 . S
O573 Co565 2.135 . S
Co574 O575 2.216 . S
Co574 O576 2.091 . S
Co574 O578 2.004 . S
Co574 O584 2.021 . S
Co574 O586 2.137 . S
Co574 O587 2.244 . S
O575 Co574 2.216 . S
O575 C582 1.247 . S
O576 Co574 2.091 . S
O576 C582 1.261 . S
C577 O586 1.247 . S
C577 O587 1.272 . S
O578 Co574 2.004 . S
O578 C583 1.259 . S
Co579 O580 2.061 . S
Co579 O585 2.052 . S
Co579 O587 2.135 . S
O580 Co579 2.061 . S
O580 C583 1.235 . S
C581 O584 1.238 . S
C581 O585 1.241 . S
C582 O575 1.247 . S
C582 O576 1.261 . S
C583 O578 1.259 . S
C583 O580 1.235 . S
O584 Co574 2.021 . S
O584 C581 1.238 . S
O585 Co579 2.052 . S
O585 C581 1.241 . S
O586 Co574 2.137 . S
O586 C577 1.247 . S
O587 Co574 2.244 . S
O587 C577 1.272 . S
O587 Co579 2.135 . S
Co588 O589 2.216 . S
Co588 O590 2.091 . S
Co588 O592 2.004 . S
Co588 O598 2.021 . S
Co588 O600 2.137 . S
Co588 O601 2.244 . S
O589 Co588 2.216 . S
O589 C596 1.247 . S
O590 Co588 2.091 . S
O590 C596 1.261 . S
C591 O600 1.247 . S
C591 O601 1.272 . S
O592 Co588 2.004 . S
O592 C597 1.259 . S
Co593 O594 2.061 . S
Co593 O599 2.052 . S
Co593 O601 2.135 . S
O594 Co593 2.061 . S
O594 C597 1.235 . S
C595 O598 1.238 . S
C595 O599 1.241 . S
C596 O589 1.247 . S
C596 O590 1.261 . S
C597 O592 1.259 . S
C597 O594 1.235 . S
O598 Co588 2.021 . S
O598 C595 1.238 . S
O599 Co593 2.052 . S
O599 C595 1.241 . S
O600 Co588 2.137 . S
O600 C591 1.247 . S
O601 Co588 2.244 . S
O601 C591 1.272 . S
O601 Co593 2.135 . S
Co602 O603 2.216 . S
Co602 O604 2.091 . S
Co602 O606 2.004 . S
Co602 O612 2.021 . S
Co602 O614 2.137 . S
Co602 O615 2.244 . S
O603 Co602 2.216 . S
O603 C610 1.247 . S
O604 Co602 2.091 . S
O604 C610 1.261 . S
C605 O614 1.247 . S
C605 O615 1.272 . S
O606 Co602 2.004 . S
O606 C611 1.259 . S
Co607 O608 2.061 . S
Co607 O613 2.052 . S
Co607 O615 2.135 . S
O608 Co607 2.061 . S
O608 C611 1.235 . S
C609 O612 1.238 . S
C609 O613 1.241 . S
C610 O603 1.247 . S
C610 O604 1.261 . S
C611 O606 1.259 . S
C611 O608 1.235 . S
O612 Co602 2.021 . S
O612 C609 1.238 . S
O613 Co607 2.052 . S
O613 C609 1.241 . S
O614 Co602 2.137 . S
O614 C605 1.247 . S
O615 Co602 2.244 . S
O615 C605 1.272 . S
O615 Co607 2.135 . S
Co616 O617 2.216 . S
Co616 O618 2.091 . S
Co616 O620 2.004 . S
Co616 O626 2.021 . S
Co616 O628 2.137 . S
Co616 O629 2.244 . S
O617 Co616 2.216 . S
O617 C624 1.247 . S
O618 Co616 2.091 . S
O618 C624 1.261 . S
C619 O628 1.247 . S
C619 O629 1.272 . S
O620 Co616 2.004 . S
O620 C625 1.259 . S
Co621 O622 2.061 . S
Co621 O627 2.052 . S
Co621 O629 2.135 . S
O622 Co621 2.061 . S
O622 C625 1.235 . S
C623 O626 1.238 . S
C623 O627 1.241 . S
C624 O617 1.247 . S
C624 O618 1.261 . S
C625 O620 1.259 . S
C625 O622 1.235 . S
O626 Co616 2.021 . S
O626 C623 1.238 . S
O627 Co621 2.052 . S
O627 C623 1.241 . S
O628 Co616 2.137 . S
O628 C619 1.247 . S
O629 Co616 2.244 . S
O629 C619 1.272 . S
O629 Co621 2.135 . S
Co630 O631 2.216 . S
Co630 O632 2.091 . S
Co630 O634 2.004 . S
Co630 O640 2.021 . S
Co630 O642 2.137 . S
Co630 O643 2.244 . S
O631 Co630 2.216 . S
O631 C638 1.247 . S
O632 Co630 2.091 . S
O632 C638 1.261 . S
C633 O642 1.247 . S
C633 O643 1.272 . S
O634 Co630 2.004 . S
O634 C639 1.259 . S
Co635 O636 2.061 . S
Co635 O641 2.052 . S
Co635 O643 2.135 . S
O636 Co635 2.061 . S
O636 C639 1.235 . S
C637 O640 1.238 . S
C637 O641 1.241 . S
C638 O631 1.247 . S
C638 O632 1.261 . S
C639 O634 1.259 . S
C639 O636 1.235 . S
O640 Co630 2.021 . S
O640 C637 1.238 . S
O641 Co635 2.052 . S
O641 C637 1.241 . S
O642 Co630 2.137 . S
O642 C633 1.247 . S
O643 Co630 2.244 . S
O643 C633 1.272 . S
O643 Co635 2.135 . S
Co644 O645 2.216 . S
Co644 O646 2.091 . S
Co644 O648 2.004 . S
Co644 O654 2.021 . S
Co644 O656 2.137 . S
Co644 O657 2.244 . S
O645 Co644 2.216 . S
O645 C652 1.247 . S
O646 Co644 2.091 . S
O646 C652 1.261 . S
C647 O656 1.247 . S
C647 O657 1.272 . S
O648 Co644 2.004 . S
O648 C653 1.259 . S
Co649 O650 2.061 . S
Co649 O655 2.052 . S
Co649 O657 2.135 . S
O650 Co649 2.061 . S
O650 C653 1.235 . S
C651 O654 1.238 . S
C651 O655 1.241 . S
C652 O645 1.247 . S
C652 O646 1.261 . S
C653 O648 1.259 . S
C653 O650 1.235 . S
O654 Co644 2.021 . S
O654 C651 1.238 . S
O655 Co649 2.052 . S
O655 C651 1.241 . S
O656 Co644 2.137 . S
O656 C647 1.247 . S
O657 Co644 2.244 . S
O657 C647 1.272 . S
O657 Co649 2.135 . S
Co658 O659 2.216 . S
Co658 O660 2.091 . S
Co658 O662 2.004 . S
Co658 O668 2.021 . S
Co658 O670 2.137 . S
Co658 O671 2.244 . S
O659 Co658 2.216 . S
O659 C666 1.247 . S
O660 Co658 2.091 . S
O660 C666 1.261 . S
C661 O670 1.247 . S
C661 O671 1.272 . S
O662 Co658 2.004 . S
O662 C667 1.259 . S
Co663 O664 2.061 . S
Co663 O669 2.052 . S
Co663 O671 2.135 . S
O664 Co663 2.061 . S
O664 C667 1.235 . S
C665 O668 1.238 . S
C665 O669 1.241 . S
C666 O659 1.247 . S
C666 O660 1.261 . S
C667 O662 1.259 . S
C667 O664 1.235 . S
O668 Co658 2.021 . S
O668 C665 1.238 . S
O669 Co663 2.052 . S
O669 C665 1.241 . S
O670 Co658 2.137 . S
O670 C661 1.247 . S
O671 Co658 2.244 . S
O671 C661 1.272 . S
O671 Co663 2.135 . S
C554 C3 1.379 . S
C22 C507 1.396 . S
C31 C526 1.368 . S
C540 C50 1.342 . S
C470 C59 1.231 . S
C73 C484 1.427 . S
C87 C493 1.256 . S
C101 C451 1.478 . S
C120 C437 1.463 . S
C400 C129 1.304 . S
C409 C148 1.388 . S
C157 C428 1.291 . S
C176 C358 1.232 . S
C185 C367 1.308 . S
C386 C204 1.146 . S
C339 C213 1.422 . S
C232 C624 1.469 . S
C661 C241 1.432 . S
C638 C260 1.412 . S
C647 C269 1.317 . S
C568 C288 1.376 . S
C596 C302 1.430 . S
C316 C605 1.253 . S
C577 C330 1.169 . S
C456 C283 1.374 . S
C246 C465 1.400 . S
C479 C255 1.387 . S
C498 C274 1.353 . S
C325 C512 1.246 . S
C521 C297 1.458 . S
C311 C535 1.264 . S
C227 C549 1.475 . S
C563 C218 1.461 . S
C171 C666 1.325 . S
C633 C190 1.392 . S
C199 C652 1.182 . S
C134 C582 1.151 . S
C143 C591 1.311 . S
C162 C610 1.175 . S
C619 C115 1.423 . S
C344 C106 1.469 . S
C395 C17 1.418 . S
C414 C36 1.366 . S
C423 C45 1.327 . S
C442 C8 1.374 . S
C78 C372 1.387 . S
C381 C92 1.238 . S
C353 C64 1.177 . S
C7 C371 1.488 . S
C387 C23 1.294 . S
C35 C343 1.486 . S
C51 C359 1.283 . S
C63 C429 1.469 . S
C441 C77 1.496 . S
C91 C401 1.510 . S
C413 C105 1.526 . S
C121 C511 1.629 . S
C527 C133 1.548 . S
C149 C541 1.434 . S
C161 C555 1.558 . S
C177 C455 1.546 . S
C189 C471 1.463 . S
C485 C205 1.348 . S
C217 C497 1.516 . S
C609 C233 1.568 . S
C245 C639 1.560 . S
C261 C651 1.629 . S
C569 C273 1.560 . S
C665 C289 1.580 . S
C303 C581 1.534 . S
C597 C317 1.409 . S
C331 C625 1.387 . S
C595 C287 1.494 1_554 S
C247 C611 1.303 1_556 S
C623 C259 1.504 1_554 S
C583 C275 1.279 1_554 S
C653 C329 1.476 1_556 S
C301 C567 1.516 1_554 S
C667 C315 1.517 1_556 S
C231 C637 1.533 1_554 S
C469 C219 1.632 1_455 S
C175 C483 1.481 1_565 S
C191 C499 1.431 1_455 S
C457 C203 1.510 1_565 S
C135 C553 1.486 1_655 S
C513 C147 1.461 1_545 S
C163 C525 1.474 1_455 S
C119 C539 1.517 1_545 S
C385 C107 1.579 1_545 S
C21 C415 1.546 1_545 S
C37 C427 1.560 1_655 S
C443 C49 1.535 1_545 S
C9 C399 1.588 1_455 S
C79 C357 1.460 1_545 S
C93 C373 1.399 1_655 S
C65 C345 1.381 1_455 S
