# Generated by pormake.
# Topology wfa, (4)-cn, num edge types: 1
# Building blocks:
#     Node 0, Type 0, BuildingBlock: NAWXER_clean_sbu_0, # of connection points: 4
#     Node 1, Type 0, BuildingBlock: NAWXER_clean_sbu_0, # of connection points: 4
#     Node 2, Type 0, BuildingBlock: NAWXER_clean_sbu_0, # of connection points: 4
#     Node 3, Type 0, BuildingBlock: NAWXER_clean_sbu_0, # of connection points: 4
#     Node 4, Type 0, BuildingBlock: NAWXER_clean_sbu_0, # of connection points: 4
#     Node 5, Type 0, BuildingBlock: NAWXER_clean_sbu_0, # of connection points: 4
#     Node 6, Type 0, BuildingBlock: NAWXER_clean_sbu_0, # of connection points: 4
#     Node 7, Type 0, BuildingBlock: NAWXER_clean_sbu_0, # of connection points: 4
#     Node 8, Type 0, BuildingBlock: NAWXER_clean_sbu_0, # of connection points: 4
#     Node 9, Type 0, BuildingBlock: NAWXER_clean_sbu_0, # of connection points: 4
#     Node 10, Type 0, BuildingBlock: NAWXER_clean_sbu_0, # of connection points: 4
#     Node 11, Type 0, BuildingBlock: NAWXER_clean_sbu_0, # of connection points: 4
#     Node 12, Type 0, BuildingBlock: NAWXER_clean_sbu_0, # of connection points: 4
#     Node 13, Type 0, BuildingBlock: NAWXER_clean_sbu_0, # of connection points: 4
#     Node 14, Type 0, BuildingBlock: NAWXER_clean_sbu_0, # of connection points: 4
#     Node 15, Type 0, BuildingBlock: NAWXER_clean_sbu_0, # of connection points: 4
#     Edge 16, Type (0, 0), BuildingBlock: XIVTED_clean_linker_0, # of connection points: 2
#     Edge 17, Type (0, 0), BuildingBlock: XIVTED_clean_linker_0, # of connection points: 2
#     Edge 18, Type (0, 0), BuildingBlock: XIVTED_clean_linker_0, # of connection points: 2
#     Edge 19, Type (0, 0), BuildingBlock: XIVTED_clean_linker_0, # of connection points: 2
#     Edge 20, Type (0, 0), BuildingBlock: XIVTED_clean_linker_0, # of connection points: 2
#     Edge 21, Type (0, 0), BuildingBlock: XIVTED_clean_linker_0, # of connection points: 2
#     Edge 22, Type (0, 0), BuildingBlock: XIVTED_clean_linker_0, # of connection points: 2
#     Edge 23, Type (0, 0), BuildingBlock: XIVTED_clean_linker_0, # of connection points: 2
#     Edge 24, Type (0, 0), BuildingBlock: XIVTED_clean_linker_0, # of connection points: 2
#     Edge 25, Type (0, 0), BuildingBlock: XIVTED_clean_linker_0, # of connection points: 2
#     Edge 26, Type (0, 0), BuildingBlock: XIVTED_clean_linker_0, # of connection points: 2
#     Edge 27, Type (0, 0), BuildingBlock: XIVTED_clean_linker_0, # of connection points: 2
#     Edge 28, Type (0, 0), BuildingBlock: XIVTED_clean_linker_0, # of connection points: 2
#     Edge 29, Type (0, 0), BuildingBlock: XIVTED_clean_linker_0, # of connection points: 2
#     Edge 30, Type (0, 0), BuildingBlock: XIVTED_clean_linker_0, # of connection points: 2
#     Edge 31, Type (0, 0), BuildingBlock: XIVTED_clean_linker_0, # of connection points: 2
#     Edge 32, Type (0, 0), BuildingBlock: XIVTED_clean_linker_0, # of connection points: 2
#     Edge 33, Type (0, 0), BuildingBlock: XIVTED_clean_linker_0, # of connection points: 2
#     Edge 34, Type (0, 0), BuildingBlock: XIVTED_clean_linker_0, # of connection points: 2
#     Edge 35, Type (0, 0), BuildingBlock: XIVTED_clean_linker_0, # of connection points: 2
#     Edge 36, Type (0, 0), BuildingBlock: XIVTED_clean_linker_0, # of connection points: 2
#     Edge 37, Type (0, 0), BuildingBlock: XIVTED_clean_linker_0, # of connection points: 2
#     Edge 38, Type (0, 0), BuildingBlock: XIVTED_clean_linker_0, # of connection points: 2
#     Edge 39, Type (0, 0), BuildingBlock: XIVTED_clean_linker_0, # of connection points: 2
#     Edge 40, Type (0, 0), BuildingBlock: XIVTED_clean_linker_0, # of connection points: 2
#     Edge 41, Type (0, 0), BuildingBlock: XIVTED_clean_linker_0, # of connection points: 2
#     Edge 42, Type (0, 0), BuildingBlock: XIVTED_clean_linker_0, # of connection points: 2
#     Edge 43, Type (0, 0), BuildingBlock: XIVTED_clean_linker_0, # of connection points: 2
#     Edge 44, Type (0, 0), BuildingBlock: XIVTED_clean_linker_0, # of connection points: 2
#     Edge 45, Type (0, 0), BuildingBlock: XIVTED_clean_linker_0, # of connection points: 2
#     Edge 46, Type (0, 0), BuildingBlock: XIVTED_clean_linker_0, # of connection points: 2
#     Edge 47, Type (0, 0), BuildingBlock: XIVTED_clean_linker_0, # of connection points: 2
# Relax obj value: 0.153
# Max RMSD: 0.233
# Mean RMSD: 0.220
data_MOF--net-wfa--node1-NAWXER_clean_sbu_0--edge1-XIVTED_clean_linker_0
_symmetry_space_group_name_H-M    P1
_symmetry_Int_Tables_number       1
_symmetry_cell_setting            triclinic
loop_
_symmetry_equiv_pos_as_xyz
'x, y, z'
_cell_length_a     48.836132
_cell_length_b     48.771252
_cell_length_c     22.987248
_cell_angle_alpha  88.672523
_cell_angle_beta   88.79968
_cell_angle_gamma 88.985542
loop_
_atom_site_label
_atom_site_type_symbol
_atom_site_fract_x
_atom_site_fract_y
_atom_site_fract_z
_atom_type_partial_charge
C0 C 0.6132 0.013 0.18231 0.0
C1 C 0.67673 0.03786 0.01867 0.0
O2 O 0.61782 0.03857 0.17513 0.0
Zn3 Zn 0.63996 0.0663 0.11965 0.0
O4 O 0.62541 0.99557 0.14977 0.0
Zn5 Zn 0.64555 0.02323 0.10239 0.0
O6 O 0.67308 0.03818 0.16591 0.0
O7 O 0.66451 0.08212 0.17799 0.0
O8 O 0.66957 0.01395 0.03557 0.0
O9 O 0.66696 0.05863 0.04607 0.0
O10 O 0.60653 0.08503 0.0865 0.0
O11 O 0.60966 0.04148 0.06443 0.0
C12 C 0.67833 0.06054 0.19151 0.0
C13 C 0.59614 0.06422 0.06309 0.0
C14 C 0.53004 0.68303 0.08085 0.0
C15 C 0.52479 0.58996 0.00618 0.0
O16 O 0.54806 0.66392 0.08206 0.0
Zn17 Zn 0.53013 0.63906 0.03132 0.0
O18 O 0.5092 0.68058 0.04802 0.0
Zn19 Zn 0.4938 0.64841 0.99156 0.0
O20 O 0.45827 0.64517 0.02275 0.0
O21 O 0.49167 0.6326 0.08225 0.0
O22 O 0.50458 0.605 0.98906 0.0
O23 O 0.545 0.60152 0.02859 0.0
O24 O 0.53561 0.65819 0.94453 0.0
O25 O 0.49337 0.66197 0.91427 0.0
C26 C 0.466 0.6359 0.07184 0.0
C27 C 0.51862 0.66529 0.90468 0.0
C28 C 0.79818 0.48411 0.05099 0.0
C29 C 0.88791 0.48603 0.94697 0.0
O30 O 0.80745 0.5078 0.03724 0.0
Zn31 Zn 0.84013 0.52662 0.99106 0.0
O32 O 0.81058 0.46276 0.03193 0.0
Zn33 Zn 0.84069 0.48143 0.98917 0.0
O34 O 0.85953 0.49822 0.06055 0.0
O35 O 0.85906 0.54352 0.05807 0.0
O36 O 0.87481 0.46412 0.95912 0.0
O37 O 0.87606 0.50932 0.95389 0.0
O38 O 0.82134 0.54514 0.92436 0.0
O39 O 0.82141 0.50024 0.91614 0.0
C40 C 0.86606 0.52075 0.08283 0.0
C41 C 0.81478 0.52412 0.89603 0.0
C42 C 0.99051 0.87415 0.16713 0.0
C43 C 0.01177 0.81558 0.99535 0.0
O44 O 0.01547 0.86981 0.15273 0.0
Zn45 Zn 0.04136 0.85093 0.09189 0.0
O46 O 0.97141 0.86378 0.13781 0.0
Zn47 Zn 0.99709 0.84545 0.08097 0.0
O48 O 0.01551 0.81658 0.14017 0.0
O49 O 0.05937 0.82472 0.14901 0.0
O50 O 0.98787 0.82217 0.01435 0.0
O51 O 0.03259 0.82536 0.02038 0.0
O52 O 0.05513 0.88693 0.05816 0.0
O53 O 0.01119 0.88284 0.04243 0.0
C54 C 0.03841 0.81062 0.1639 0.0
C55 C 0.03277 0.8973 0.03872 0.0
C56 C 0.10505 0.98467 0.39177 0.0
C57 C 0.17057 0.01685 0.53295 0.0
O58 O 0.11858 0.9715 0.43022 0.0
Zn59 Zn 0.13853 1.00194 0.4573 0.0
O60 O 0.11003 0.01029 0.3823 0.0
Zn61 Zn 0.13683 0.04111 0.42234 0.0
O62 O 0.16126 0.05208 0.35809 0.0
O63 O 0.1682 0.00916 0.3855 0.0
O64 O 0.16406 0.03686 0.49805 0.0
O65 O 0.15997 0.99376 0.52525 0.0
O66 O 0.10335 0.02723 0.48677 0.0
O67 O 0.1088 0.06805 0.44595 0.0
C68 C 0.17435 0.02962 0.35161 0.0
C69 C 0.0944 0.05188 0.47753 0.0
C70 C 0.53334 0.17432 0.44569 0.0
C71 C 0.55187 0.09054 0.55952 0.0
O72 O 0.5114 0.16321 0.46592 0.0
Zn73 Zn 0.5008 0.13004 0.52491 0.0
O74 O 0.55648 0.16498 0.46197 0.0
Zn75 Zn 0.54384 0.13515 0.51168 0.0
O76 O 0.52427 0.10971 0.4509 0.0
O77 O 0.48031 0.10598 0.47415 0.0
O78 O 0.56971 0.10716 0.53922 0.0
O79 O 0.5265 0.0978 0.5601 0.0
O80 O 0.48361 0.14785 0.59264 0.0
O81 O 0.52803 0.15457 0.58816 0.0
C82 C 0.50086 0.09948 0.44185 0.0
C83 C 0.50476 0.15828 0.61394 0.0
C84 C 0.38427 0.49903 0.47218 0.0
C85 C 0.29359 0.49294 0.38248 0.0
O86 O 0.37231 0.47782 0.45506 0.0
Zn87 Zn 0.33592 0.49425 0.43938 0.0
O88 O 0.36997 0.52115 0.47833 0.0
Zn89 Zn 0.32778 0.53421 0.46199 0.0
O90 O 0.31092 0.54251 0.53408 0.0
O91 O 0.31363 0.49797 0.52326 0.0
O92 O 0.29678 0.5161 0.40697 0.0
O93 O 0.31114 0.47383 0.39155 0.0
O94 O 0.34758 0.52705 0.37627 0.0
O95 O 0.33513 0.56609 0.4177 0.0
C96 C 0.30578 0.51871 0.55345 0.0
C97 C 0.34595 0.55343 0.37523 0.0
C98 C 0.96526 0.39091 0.33227 0.0
C99 C 0.98839 0.3231 0.48584 0.0
O100 O 0.95002 0.37681 0.36644 0.0
Zn101 Zn 0.97854 0.35596 0.40367 0.0
O102 O 0.99129 0.38583 0.33131 0.0
Zn103 Zn 0.01939 0.35776 0.38184 0.0
O104 O 0.0353 0.3336 0.32289 0.0
O105 O 0.99132 0.32682 0.33562 0.0
O106 O 0.01044 0.3301 0.45786 0.0
O107 O 0.96589 0.33354 0.46924 0.0
O108 O 1.00087 0.39057 0.44064 0.0
O109 O 0.04391 0.385 0.41265 0.0
C110 C 0.01408 0.32076 0.30925 0.0
C111 C 0.02567 0.39919 0.43903 0.0
C112 C 0.37558 0.97591 0.8688 0.0
C113 C 0.31759 0.01231 0.02654 0.0
O114 O 0.3723 1.00209 0.86275 0.0
Zn115 Zn 0.35157 0.03508 0.91316 0.0
O116 O 0.36473 0.96356 0.91249 0.0
Zn117 Zn 0.3484 0.99554 0.9465 0.0
O118 O 0.31798 0.00724 0.88002 0.0
O119 O 0.32678 0.04998 0.85438 0.0
O120 O 0.3274 0.98857 0.01739 0.0
O121 O 0.32468 0.03203 0.99145 0.0
O122 O 0.38287 0.05775 0.93421 0.0
O123 O 0.38593 0.01593 0.97084 0.0
C124 C 0.3125 0.02872 0.84836 0.0
C125 C 0.39654 0.03966 0.96237 0.0
C126 C 0.50207 0.29255 0.94071 0.0
C127 C 0.50643 0.38368 0.02876 0.0
O128 O 0.52542 0.29737 0.96261 0.0
Zn129 Zn 0.54365 0.32898 0.01293 0.0
O130 O 0.48212 0.30902 0.95075 0.0
Zn131 Zn 0.50202 0.33552 0.9962 0.0
O132 O 0.53138 0.3495 0.93012 0.0
O133 O 0.57293 0.33843 0.96092 0.0
O134 O 0.485 0.37137 0.01376 0.0
O135 O 0.52899 0.36994 0.03239 0.0
O136 O 0.5545 0.31232 0.08416 0.0
O137 O 0.50958 0.31429 0.07906 0.0
C138 C 0.55751 0.34948 0.92282 0.0
C139 C 0.53128 0.30701 0.10663 0.0
C140 C 0.15861 0.48334 0.05555 0.0
C141 C 0.1009 0.47696 0.87922 0.0
O142 O 0.15098 0.46122 0.03279 0.0
Zn143 Zn 0.13082 0.47679 0.96514 0.0
O144 O 0.15185 0.50632 0.03118 0.0
Zn145 Zn 0.13078 0.5212 0.95616 0.0
O146 O 0.09833 0.54145 0.98533 0.0
O147 O 0.09609 0.49685 0.00256 0.0
O148 O 0.10879 0.50074 0.89254 0.0
O149 O 0.10879 0.45598 0.90921 0.0
O150 O 0.16229 0.49251 0.90871 0.0
O151 O 0.15946 0.5377 0.90689 0.0
C152 C 0.08489 0.52073 0.0041 0.0
C153 C 0.17113 0.51568 0.88965 0.0
C154 C 0.02328 0.17927 0.98912 0.0
C155 C 0.03182 0.1153 0.82088 0.0
O156 O 0.04575 0.17123 0.9652 0.0
Zn157 Zn 0.03179 0.14763 0.90267 0.0
O158 O 1.00073 0.17069 0.96904 0.0
Zn159 Zn 0.98679 0.1456 0.90079 0.0
O160 O 0.97155 0.11134 0.93999 0.0
O161 O 0.01621 0.11291 0.94873 0.0
O162 O 0.00803 0.12288 0.8382 0.0
O163 O 0.05296 0.12441 0.84563 0.0
O164 O 0.01356 0.17663 0.84343 0.0
O165 O 0.96876 0.17259 0.84544 0.0
C166 C 0.99388 0.10004 0.95736 0.0
C167 C 0.99011 0.18429 0.82432 0.0
C168 C 0.8168 0.06326 0.68924 0.0
C169 C 0.89375 0.08352 0.54986 0.0
O170 O 0.82656 0.08672 0.67636 0.0
Zn171 Zn 0.85226 0.07643 0.61278 0.0
O172 O 0.82533 0.04251 0.66017 0.0
Zn173 Zn 0.85365 0.03438 0.58898 0.0
O174 O 0.88119 0.00917 0.6238 0.0
O175 O 0.88154 0.051 0.65828 0.0
O176 O 0.88402 0.0594 0.54732 0.0
O177 O 0.88091 0.10137 0.58029 0.0
O178 O 0.82608 0.06799 0.53998 0.0
O179 O 0.8306 0.02383 0.52449 0.0
C180 C 0.89169 0.02666 0.65681 0.0
C181 C 0.81962 0.04689 0.51099 0.0
C182 C 0.53704 0.80061 0.5778 0.0
C183 C 0.54699 0.89104 0.49065 0.0
O184 O 0.51518 0.8077 0.55044 0.0
Zn185 Zn 0.50292 0.84259 0.49383 0.0
O186 O 0.55797 0.81559 0.57301 0.0
Zn187 Zn 0.54234 0.84325 0.52332 0.0
O188 O 0.50949 0.8605 0.58168 0.0
O189 O 0.47096 0.85576 0.53439 0.0
O190 O 0.56543 0.87464 0.50912 0.0
O191 O 0.52308 0.88178 0.48128 0.0
O192 O 0.4961 0.82801 0.41833 0.0
O193 O 0.53927 0.82228 0.44052 0.0
C194 C 0.48334 0.86412 0.57854 0.0
C195 C 0.51963 0.81842 0.40542 0.0
C196 C 0.63413 0.45388 0.58309 0.0
C197 C 0.66961 0.48353 0.39671 0.0
O198 O 0.63102 0.48007 0.57774 0.0
Zn199 Zn 0.64086 0.51107 0.50942 0.0
O200 O 0.64451 0.44017 0.54166 0.0
Zn201 Zn 0.64942 0.47058 0.49155 0.0
O202 O 0.68093 0.49092 0.54078 0.0
O203 O 0.66608 0.53325 0.55332 0.0
O204 O 0.66527 0.46025 0.41977 0.0
O205 O 0.66184 0.50507 0.42447 0.0
O206 O 0.604 0.52626 0.4943 0.0
O207 O 0.60666 0.48224 0.47694 0.0
C208 C 0.6841 0.51462 0.56287 0.0
C209 C 0.59214 0.50436 0.4809 0.0
C210 C 0.02253 0.67213 0.50058 0.0
C211 C 1.00355 0.60267 0.65922 0.0
O212 O 0.99927 0.6627 0.51624 0.0
Zn213 Zn 0.00971 0.63914 0.5835 0.0
O214 O 0.04367 0.66449 0.52952 0.0
Zn215 Zn 0.05287 0.63836 0.60413 0.0
O216 O 0.07557 0.60711 0.57137 0.0
O217 O 0.03278 0.60734 0.54355 0.0
O218 O 0.02796 0.61159 0.65556 0.0
O219 O 0.98523 0.61306 0.62606 0.0
O220 O 0.01955 0.66735 0.64972 0.0
O221 O 0.06383 0.66454 0.66479 0.0
C222 C 0.05648 0.59584 0.54367 0.0
C223 C 0.04047 0.6753 0.67718 0.0
H224 H 0.51183 0.04721 0.47354 0.0
H225 H 0.56074 0.01342 0.15011 0.0
H226 H 0.4945 0.09877 0.32391 0.0
H227 H 0.61172 1.00198 0.29949 0.0
H228 H 0.52226 0.0263 0.21453 0.0
H229 H 0.53354 0.01326 0.40955 0.0
C230 C 0.51116 0.05063 0.42686 0.0
C231 C 0.50101 0.07562 0.40379 0.0
C232 C 0.5415 0.01971 0.23337 0.0
C233 C 0.52605 0.03712 0.3306 0.0
C234 C 0.56335 0.01192 0.19679 0.0
C235 C 0.58933 0.00623 0.21965 0.0
C236 C 0.54561 0.02146 0.29332 0.0
C237 C 0.5919 0.00569 0.28029 0.0
C238 C 0.52387 0.03142 0.39054 0.0
C239 C 0.50157 0.07953 0.34322 0.0
N240 N 0.57039 0.01362 0.31509 0.0
N241 N 0.5142 0.0606 0.30866 0.0
H242 H 0.36837 0.6037 0.38123 0.0
H243 H 0.41601 0.61537 0.05138 0.0
H244 H 0.35385 0.53843 0.26249 0.0
H245 H 0.46947 0.63676 0.18988 0.0
H246 H 0.38288 0.59793 0.12412 0.0
H247 H 0.3954 0.62726 0.30503 0.0
C248 C 0.37045 0.59462 0.33875 0.0
C249 C 0.35912 0.56909 0.32781 0.0
C250 C 0.40177 0.60672 0.13827 0.0
C251 C 0.38943 0.59591 0.24141 0.0
C252 C 0.42055 0.61672 0.09716 0.0
C253 C 0.44542 0.6273 0.11512 0.0
C254 C 0.40775 0.60805 0.19735 0.0
C255 C 0.45055 0.6285 0.17465 0.0
C256 C 0.38594 0.60796 0.29574 0.0
C257 C 0.36252 0.55802 0.27243 0.0
N258 N 0.43171 0.61902 0.21399 0.0
N259 N 0.37744 0.57159 0.23091 0.0
H260 H 0.85092 0.51177 0.19549 0.0
H261 H 0.98972 0.4249 0.24858 0.0
H262 H 0.92153 0.51792 0.08119 0.0
H263 H 0.91289 0.41147 0.34001 0.0
H264 H 0.9686 0.46446 0.19697 0.0
H265 H 0.87762 0.4828 0.26241 0.0
C266 C 0.87254 0.50836 0.18615 0.0
C267 C 0.88414 0.51791 0.13331 0.0
C268 C 0.95645 0.45287 0.22855 0.0
C269 C 0.91454 0.48303 0.20793 0.0
C270 C 0.96846 0.43017 0.25779 0.0
C271 C 0.95305 0.41448 0.29836 0.0
C272 C 0.92891 0.46021 0.24045 0.0
C273 C 0.92562 0.4226 0.30877 0.0
C274 C 0.88765 0.49116 0.22364 0.0
C275 C 0.91198 0.51167 0.12223 0.0
N276 N 0.91454 0.44474 0.28017 0.0
N277 N 0.92608 0.49422 0.15852 0.0
H278 H 0.99205 0.86383 0.28309 0.0
H279 H 0.07202 0.00484 0.30369 0.0
H280 H 0.98518 0.92925 0.15529 0.0
H281 H 0.08499 0.93343 0.41472 0.0
H282 H 0.03355 0.98169 0.25943 0.0
H283 H 0.01648 0.89434 0.34599 0.0
C284 C 0.9941 0.88518 0.26983 0.0
C285 C 0.98639 0.89398 0.2139 0.0
C286 C 0.04475 0.9712 0.29374 0.0
C287 C 0.01603 0.92872 0.28408 0.0
C288 C 0.06686 0.98433 0.31874 0.0
C289 C 0.08214 0.97098 0.36252 0.0
C290 C 0.03763 0.94461 0.313 0.0
C291 C 0.07417 0.9445 0.38065 0.0
C292 C 0.00883 0.90243 0.30506 0.0
C293 C 0.99043 0.9217 0.19839 0.0
N294 N 0.05264 0.93226 0.35582 0.0
N295 N 0.00569 0.93785 0.23238 0.0
H296 H 0.38406 0.98757 0.75257 0.0
H297 H 0.49499 0.86971 0.69427 0.0
H298 H 0.40491 0.92837 0.88747 0.0
H299 H 0.43687 0.89507 0.56405 0.0
H300 H 0.46915 0.89728 0.76599 0.0
H301 H 0.4107 0.96016 0.68215 0.0
C302 C 0.39437 0.96893 0.76741 0.0
C303 C 0.39215 0.96014 0.82584 0.0
C304 C 0.46212 0.89668 0.72167 0.0
C305 C 0.42298 0.92909 0.74599 0.0
C306 C 0.47683 0.88104 0.68082 0.0
C307 C 0.46792 0.8799 0.62328 0.0
C308 C 0.43887 0.91192 0.70432 0.0
C309 C 0.44429 0.89509 0.6081 0.0
C310 C 0.40943 0.95327 0.72725 0.0
C311 C 0.4059 0.93575 0.84271 0.0
N312 N 0.43076 0.91066 0.64815 0.0
N313 N 0.42091 0.92119 0.80311 0.0
H314 H 0.65223 0.40425 0.62414 0.0
H315 H 0.53272 0.38925 0.85739 0.0
H316 H 0.59569 0.47077 0.66267 0.0
H317 H 0.6092 0.34431 0.87565 0.0
H318 H 0.55303 0.41601 0.77728 0.0
H319 H 0.63465 0.37888 0.70954 0.0
C320 C 0.63619 0.41353 0.6508 0.0
C321 C 0.62518 0.43949 0.63646 0.0
C322 C 0.56535 0.40033 0.79895 0.0
C323 C 0.60499 0.41063 0.73304 0.0
C324 C 0.55374 0.38487 0.84416 0.0
C325 C 0.56935 0.36449 0.87278 0.0
C326 C 0.59256 0.39504 0.78174 0.0
C327 C 0.59655 0.35987 0.85451 0.0
C328 C 0.62632 0.39913 0.69947 0.0
C329 C 0.60466 0.45078 0.67246 0.0
N330 N 0.60732 0.37497 0.80961 0.0
N331 N 0.59493 0.43607 0.71893 0.0
H332 H 0.0052 0.55303 0.61008 0.0
H333 H 0.10313 0.47874 0.76051 0.0
H334 H 1.00026 0.59171 0.77646 0.0
H335 H 0.04722 0.48033 0.9075 0.0
H336 H 0.06859 0.50276 0.7015 0.0
H337 H 0.02287 0.51099 0.65775 0.0
C338 C 0.00627 0.55215 0.65713 0.0
C339 C 1.00067 0.57577 0.68952 0.0
C340 C 0.06332 0.49673 0.74593 0.0
C341 C 0.02172 0.52799 0.74415 0.0
C342 C 0.08296 0.48262 0.77939 0.0
C343 C 0.07783 0.47688 0.83867 0.0
C344 C 0.03879 0.5061 0.77258 0.0
C345 C 0.05176 0.48379 0.86164 0.0
C346 C 0.01691 0.52831 0.68411 0.0
C347 C 1.0037 0.57382 0.75008 0.0
N348 N 0.03362 0.4989 0.8293 0.0
N349 N 0.0142 0.55045 0.77539 0.0
H350 H 0.03393 0.06232 0.85599 0.0
H351 H 0.90773 0.02303 0.77015 0.0
H352 H 0.02443 0.11419 0.70354 0.0
H353 H 0.93895 0.02707 0.5938 0.0
H354 H 0.95312 0.03517 0.80443 0.0
H355 H 1.0035 0.02899 0.81418 0.0
C356 C 0.02705 0.06586 0.81186 0.0
C357 C 0.03185 0.09119 0.78327 0.0
C358 C 0.95041 0.03226 0.75835 0.0
C359 C 0.99621 0.05344 0.73586 0.0
C360 C 0.92452 0.02511 0.73889 0.0
C361 C 0.91978 0.02318 0.6792 0.0
C362 C 0.97142 0.0387 0.71765 0.0
C363 C 0.94198 0.02755 0.64028 0.0
C364 C 0.00901 0.04712 0.78876 0.0
C365 C 0.02153 0.0949 0.72694 0.0
N366 N 0.96656 0.03592 0.65996 0.0
N367 N 1.00374 0.07656 0.70556 0.0
H368 H 0.69771 0.08625 0.97451 0.0
H369 H 0.79328 0.0154 0.72921 0.0
H370 H 0.70188 0.99893 0.94899 0.0
H371 H 0.79224 0.10235 0.75971 0.0
H372 H 0.75925 0.00923 0.80776 0.0
H373 H 0.73125 0.09266 0.89493 0.0
C374 C 0.70557 0.06837 0.95216 0.0
C375 C 0.69676 0.04195 0.9689 0.0
C376 C 0.76641 0.02968 0.79738 0.0
C377 C 0.73557 0.04926 0.87695 0.0
C378 C 0.78593 0.03327 0.75231 0.0
C379 C 0.79585 0.0595 0.73739 0.0
C380 C 0.75644 0.05245 0.82826 0.0
C381 C 0.78535 0.08174 0.76937 0.0
C382 C 0.72484 0.07208 0.9066 0.0
C383 C 0.70792 0.01968 0.93794 0.0
N384 N 0.7663 0.07772 0.81305 0.0
N385 N 0.72664 0.02384 0.89372 0.0
H386 H 0.49782 0.76142 0.59376 0.0
H387 H 0.56499 0.69549 0.87976 0.0
H388 H 0.57707 0.78465 0.65399 0.0
H389 H 0.49081 0.66727 0.80389 0.0
H390 H 0.57262 0.72525 0.79319 0.0
H391 H 0.49714 0.72417 0.66657 0.0
C392 C 0.51518 0.75856 0.62195 0.0
C393 C 0.53741 0.77635 0.61794 0.0
C394 C 0.55491 0.7122 0.79523 0.0
C395 C 0.53672 0.73379 0.70209 0.0
C396 C 0.55067 0.6951 0.84444 0.0
C397 C 0.52707 0.67916 0.84934 0.0
C398 C 0.53536 0.71327 0.75097 0.0
C399 C 0.50909 0.67953 0.80239 0.0
C400 C 0.51483 0.73724 0.66358 0.0
C401 C 0.55943 0.77151 0.6556 0.0
N402 N 0.51344 0.6965 0.75568 0.0
N403 N 0.5584 0.75091 0.69649 0.0
H404 H 0.78424 0.56813 0.85085 0.0
H405 H 0.72598 0.47896 0.5915 0.0
H406 H 0.80779 0.48431 0.81653 0.0
H407 H 0.69384 0.55951 0.63089 0.0
H408 H 0.7596 0.48337 0.66751 0.0
H409 H 0.75456 0.56807 0.7653 0.0
C410 C 0.78347 0.54986 0.82511 0.0
C411 C 0.79855 0.52616 0.84142 0.0
C412 C 0.74536 0.50024 0.65944 0.0
C413 C 0.76454 0.52592 0.74336 0.0
C414 C 0.72613 0.49776 0.61564 0.0
C415 C 0.70682 0.51884 0.60445 0.0
C416 C 0.74553 0.52397 0.69309 0.0
C417 C 0.70825 0.54269 0.63769 0.0
C418 C 0.7664 0.54979 0.77638 0.0
C419 C 0.79651 0.50305 0.80629 0.0
N420 N 0.72708 0.54454 0.68062 0.0
N421 N 0.7799 0.50352 0.75945 0.0
H422 H 0.06054 0.7958 0.94972 0.0
H423 H 0.99238 0.69927 0.71564 0.0
H424 H 0.97329 0.78967 0.92936 0.0
H425 H 0.07931 0.70001 0.7449 0.0
H426 H 0.98539 0.73334 0.79089 0.0
H427 H 0.0679 0.76238 0.87298 0.0
C428 C 0.04284 0.78757 0.92905 0.0
C429 C 0.01616 0.79582 0.94652 0.0
C430 C 0.00602 0.72613 0.781 0.0
C431 C 0.02464 0.75703 0.85765 0.0
C432 C 0.01012 0.70658 0.73773 0.0
C433 C 0.03657 0.69651 0.72335 0.0
C434 C 0.0285 0.7361 0.81073 0.0
C435 C 0.05855 0.707 0.75413 0.0
C436 C 0.04713 0.76833 0.8851 0.0
C437 C 0.99421 0.78412 0.91769 0.0
N438 N 0.05403 0.72614 0.79611 0.0
N439 N 0.99894 0.76545 0.87494 0.0
H440 H 0.18573 0.97815 0.6148 0.0
H441 H 0.29615 0.07015 0.772 0.0
H442 H 0.20141 0.06193 0.56178 0.0
H443 H 0.27863 0.98636 0.82159 0.0
H444 H 0.26133 0.06838 0.69676 0.0
H445 H 0.21902 0.98169 0.69156 0.0
C446 C 0.19611 0.99742 0.61922 0.0
C447 C 0.19056 0.01978 0.58118 0.0
C448 C 0.26504 0.05041 0.72419 0.0
C449 C 0.22932 0.02394 0.67028 0.0
C450 C 0.28495 0.05139 0.76738 0.0
C451 C 0.29051 0.02836 0.80365 0.0
C452 C 0.2504 0.0262 0.71675 0.0
C453 C 0.27521 1.00467 0.79505 0.0
C454 C 0.21524 0.99939 0.66337 0.0
C455 C 0.20487 0.04412 0.58981 0.0
N456 N 0.25603 1.00422 0.75271 0.0
N457 N 0.22357 0.04553 0.6332 0.0
H458 H 0.54671 0.17431 0.68133 0.0
H459 H 0.45735 0.27756 0.87704 0.0
H460 H 0.45892 0.18162 0.66734 0.0
H461 H 0.54181 0.25542 0.90829 0.0
H462 H 0.45653 0.24288 0.8011 0.0
H463 H 0.54456 0.20441 0.76443 0.0
C464 C 0.5269 0.18215 0.69584 0.0
C465 C 0.50297 0.17536 0.66696 0.0
C466 C 0.47513 0.24547 0.82505 0.0
C467 C 0.50035 0.21037 0.76273 0.0
C468 C 0.4756 0.26524 0.86857 0.0
C469 C 0.49972 0.2696 0.89926 0.0
C470 C 0.49899 0.23008 0.81173 0.0
C471 C 0.52274 0.25299 0.88595 0.0
C472 C 0.52568 0.19938 0.74358 0.0
C473 C 0.4779 0.18621 0.68826 0.0
N474 N 0.52184 0.23426 0.84314 0.0
N475 N 0.47727 0.20334 0.7345 0.0
H476 H 0.28185 0.47252 0.60376 0.0
H477 H 0.19766 0.56025 0.84072 0.0
H478 H 0.29205 0.55918 0.62867 0.0
H479 H 0.19582 0.47186 0.83633 0.0
H480 H 0.23279 0.55989 0.7632 0.0
H481 H 0.25099 0.47114 0.68977 0.0
C482 C 0.27788 0.49113 0.62754 0.0
C483 C 0.28944 0.516 0.60854 0.0
C484 C 0.22482 0.54055 0.77946 0.0
C485 C 0.254 0.5147 0.7064 0.0
C486 C 0.20472 0.54077 0.82377 0.0
C487 C 0.19366 0.51609 0.84514 0.0
C488 C 0.23381 0.51547 0.75586 0.0
C489 C 0.2037 0.49144 0.82131 0.0
C490 C 0.2602 0.49039 0.67651 0.0
C491 C 0.28348 0.53953 0.64112 0.0
N492 N 0.22301 0.49177 0.77781 0.0
N493 N 0.26611 0.53833 0.68793 0.0
H494 H 0.94423 0.30214 0.54704 0.0
H495 H 0.0333 0.21018 0.77034 0.0
H496 H 0.03251 0.29756 0.54083 0.0
H497 H 0.94513 0.20729 0.76636 0.0
H498 H 0.03296 0.24344 0.68966 0.0
H499 H 0.94397 0.26918 0.62887 0.0
C500 C 0.96366 0.29428 0.5628 0.0
C501 C 0.98849 0.30289 0.53642 0.0
C502 C 0.01363 0.23565 0.70628 0.0
C503 C 0.98821 0.26471 0.63141 0.0
C504 C 0.01373 0.21656 0.7528 0.0
C505 C 0.98915 0.20566 0.77592 0.0
C506 C 0.98875 0.24435 0.68189 0.0
C507 C 0.96461 0.215 0.75048 0.0
C508 C 0.96342 0.27533 0.60974 0.0
C509 C 0.01285 0.2917 0.55933 0.0
N510 N 0.96505 0.23373 0.70507 0.0
N511 N 0.01207 0.27334 0.60529 0.0
H512 H 0.20641 0.98446 0.32344 0.0
H513 H 0.28827 0.05927 0.05747 0.0
H514 H 0.19238 0.06916 0.27273 0.0
H515 H 0.30049 0.97439 0.10889 0.0
H516 H 0.25404 0.06394 0.13689 0.0
H517 H 0.24157 0.98092 0.24623 0.0
C518 C 0.21069 1.00236 0.29622 0.0
C519 C 0.19621 0.02714 0.305 0.0
C520 C 0.26428 0.04431 0.13084 0.0
C521 C 0.23679 0.02323 0.21569 0.0
C522 C 0.28392 0.04165 0.08547 0.0
C523 C 0.29746 0.01639 0.07605 0.0
C524 C 0.25802 0.02157 0.16738 0.0
C525 C 0.29072 0.9943 0.11402 0.0
C526 C 0.23085 1.00033 0.25195 0.0
C527 C 0.20287 0.04959 0.2679 0.0
N528 N 0.27161 0.9974 0.15758 0.0
N529 N 0.22255 0.04709 0.22511 0.0
H530 H 0.4875 0.19529 0.39231 0.0
H531 H 0.57316 0.29569 0.18018 0.0
H532 H 0.57516 0.20454 0.39723 0.0
H533 H 0.48678 0.28208 0.16049 0.0
H534 H 0.57272 0.26609 0.26664 0.0
H535 H 0.48553 0.23027 0.31433 0.0
C536 C 0.50632 0.20481 0.37738 0.0
C537 C 0.53159 0.19683 0.4013 0.0
C538 C 0.55378 0.26961 0.24375 0.0
C539 C 0.52941 0.2369 0.31191 0.0
C540 C 0.55398 0.2866 0.19423 0.0
C541 C 0.52999 0.29124 0.16256 0.0
C542 C 0.52943 0.25693 0.26209 0.0
C543 C 0.50576 0.27904 0.18345 0.0
C544 C 0.50515 0.22475 0.33274 0.0
C545 C 0.55525 0.20989 0.38006 0.0
N546 N 0.50614 0.26225 0.23171 0.0
N547 N 0.55358 0.22917 0.33656 0.0
H548 H 0.28055 0.44688 0.3216 0.0
H549 H 0.17073 0.52695 0.12251 0.0
H550 H 0.25556 0.53127 0.34472 0.0
H551 H 0.18677 0.44004 0.10941 0.0
H552 H 0.20136 0.52817 0.2047 0.0
H553 H 0.24623 0.44322 0.24572 0.0
C554 C 0.26772 0.46459 0.31124 0.0
C555 C 0.27111 0.48946 0.33996 0.0
C556 C 0.19815 0.50875 0.18424 0.0
C557 C 0.23178 0.48542 0.25219 0.0
C558 C 0.18059 0.50801 0.13701 0.0
C559 C 0.17605 0.48333 0.10848 0.0
C560 C 0.21174 0.48468 0.20351 0.0
C561 C 0.18951 0.45953 0.1299 0.0
C562 C 0.24812 0.46247 0.26771 0.0
C563 C 0.25382 0.51165 0.32415 0.0
N564 N 0.20685 0.46083 0.17573 0.0
N565 N 0.23515 0.50914 0.28136 0.0
H566 H 0.9783 0.19762 0.05167 0.0
H567 H 0.05973 0.30231 0.24818 0.0
H568 H 0.06592 0.20675 0.03979 0.0
H569 H 0.97268 0.28986 0.26427 0.0
H570 H 0.06251 0.26772 0.17259 0.0
H571 H 0.97615 0.23103 0.12924 0.0
C572 C 0.9972 0.20654 0.06535 0.0
C573 C 0.02239 0.1991 0.03855 0.0
C574 C 0.04279 0.27248 0.19261 0.0
C575 C 0.01993 0.23803 0.12849 0.0
C576 C 0.04113 0.29234 0.23599 0.0
C577 C 0.01588 0.29927 0.26316 0.0
C578 C 0.01902 0.2592 0.17552 0.0
C579 C 0.99262 0.28538 0.24496 0.0
C580 C 0.9959 0.22575 0.10992 0.0
C581 C 0.04603 0.21163 0.05885 0.0
N582 N 0.99476 0.26619 0.20251 0.0
N583 N 0.04421 0.23043 0.10223 0.0
H584 H 0.69536 0.10289 0.2608 0.0
H585 H 0.802 0.00659 0.43926 0.0
H586 H 0.71047 0.01713 0.22836 0.0
H587 H 0.79046 0.09276 0.47221 0.0
H588 H 0.76847 0.01065 0.36187 0.0
H589 H 0.72983 0.1003 0.3376 0.0
C590 C 0.70591 0.08356 0.2695 0.0
C591 C 0.69981 0.06022 0.23757 0.0
C592 C 0.77323 0.02874 0.38587 0.0
C593 C 0.73941 0.05706 0.32606 0.0
C594 C 0.79248 0.02642 0.4303 0.0
C595 C 0.79928 0.04934 0.46277 0.0
C596 C 0.76036 0.05419 0.37322 0.0
C597 C 0.78603 0.07447 0.44859 0.0
C598 C 0.72561 0.08208 0.31353 0.0
C599 C 0.71428 0.03575 0.25138 0.0
N600 N 0.76728 0.0762 0.40517 0.0
N601 N 0.73319 0.03485 0.29424 0.0
H602 H 0.48353 0.81217 0.31742 0.0
H603 H 0.57083 0.69419 0.15736 0.0
H604 H 0.56408 0.78603 0.37171 0.0
H605 H 0.49226 0.72463 0.09953 0.0
H606 H 0.57024 0.72917 0.23217 0.0
H607 H 0.48782 0.78197 0.23454 0.0
C608 C 0.50226 0.80021 0.31179 0.0
C609 C 0.52344 0.80168 0.35208 0.0
C610 C 0.55324 0.72837 0.20279 0.0
C611 C 0.52841 0.76657 0.25654 0.0
C612 C 0.55358 0.70841 0.15982 0.0
C613 C 0.53152 0.70629 0.12184 0.0
C614 C 0.53062 0.74641 0.20834 0.0
C615 C 0.50975 0.72536 0.12757 0.0
C616 C 0.50468 0.7829 0.26423 0.0
C617 C 0.54722 0.78565 0.34194 0.0
N618 N 0.50978 0.74439 0.1701 0.0
N619 N 0.54897 0.76865 0.29554 0.0
H620 H 0.68797 0.52899 0.33362 0.0
H621 H 0.77647 0.43864 0.10828 0.0
H622 H 0.68632 0.44055 0.33036 0.0
H623 H 0.76732 0.52671 0.09283 0.0
H624 H 0.74232 0.43878 0.18819 0.0
H625 H 0.71629 0.52881 0.24393 0.0
C626 C 0.69332 0.50961 0.31392 0.0
C627 C 0.68482 0.4848 0.33996 0.0
C628 C 0.74763 0.45804 0.16685 0.0
C629 C 0.71738 0.48434 0.23769 0.0
C630 C 0.76705 0.45791 0.12102 0.0
C631 C 0.77497 0.48266 0.09386 0.0
C632 C 0.7362 0.4831 0.1859 0.0
C633 C 0.76209 0.50708 0.11261 0.0
C634 C 0.70951 0.50947 0.26274 0.0
C635 C 0.69246 0.46025 0.31232 0.0
N636 N 0.74362 0.5067 0.15763 0.0
N637 N 0.70839 0.46065 0.26319 0.0
H638 H 0.08031 0.79414 0.23905 0.0
H639 H 0.98304 0.6905 0.42415 0.0
H640 H 0.99669 0.77686 0.19767 0.0
H641 H 0.06871 0.6992 0.46025 0.0
H642 H 0.98819 0.72287 0.34188 0.0
H643 H 0.07733 0.76009 0.32006 0.0
C644 C 0.06145 0.78313 0.24646 0.0
C645 C 0.03876 0.78861 0.21097 0.0
C646 C 0.00595 0.71772 0.36764 0.0
C647 C 0.03507 0.74969 0.30437 0.0
C648 C 1.00297 0.69917 0.41491 0.0
C649 C 0.02542 0.6919 0.44966 0.0
C650 C 0.03157 0.72947 0.35453 0.0
C651 C 0.05075 0.70403 0.43493 0.0
C652 C 0.05971 0.76372 0.29295 0.0
C653 C 0.01481 0.77362 0.22343 0.0
N654 N 0.05311 0.72216 0.38884 0.0
N655 N 0.01362 0.75515 0.26874 0.0
H656 H 0.43517 1.00215 0.99992 0.0
H657 H 0.55637 0.10636 0.05892 0.0
H658 H 0.42432 0.08889 0.96514 0.0
H659 H 0.56869 0.02061 0.02214 0.0
H660 H 0.50746 0.1019 0.03543 0.0
H661 H 0.48312 0.0098 0.02193 0.0
C662 C 0.44272 0.0229 0.99744 0.0
C663 C 0.42539 0.04486 0.98051 0.0
C664 C 0.52104 0.08419 0.03215 0.0
C665 C 0.48098 0.05386 0.00592 0.0
C666 C 0.54903 0.08675 0.04528 0.0
C667 C 0.56706 0.06391 0.04242 0.0
C668 C 0.51081 0.05848 0.01714 0.0
C669 C 0.55597 0.03895 0.02501 0.0
C670 C 0.47029 0.02725 0.00968 0.0
C671 C 0.43678 0.07127 0.97789 0.0
N672 N 0.52883 0.03691 0.01377 0.0
N673 N 0.46373 0.07505 0.99058 0.0
H674 H 0.46594 0.42188 0.00124 0.0
H675 H 0.5632 0.55139 0.04165 0.0
H676 H 0.54867 0.41548 0.06301 0.0
H677 H 0.48172 0.5585 0.97327 0.0
H678 H 0.55783 0.50168 0.05092 0.0
H679 H 0.47035 0.47193 0.9946 0.0
C680 C 0.48487 0.43095 0.01435 0.0
C681 C 0.50692 0.41424 0.03289 0.0
C682 C 0.54114 0.51406 0.03362 0.0
C683 C 0.5123 0.47174 0.02435 0.0
C684 C 0.54426 0.54253 0.02799 0.0
C685 C 0.52296 0.55936 0.00636 0.0
C686 C 0.51644 0.50208 0.0178 0.0
C687 C 0.49881 0.54648 0.98985 0.0
C688 C 0.48746 0.45958 0.01004 0.0
C689 C 0.53105 0.42736 0.04856 0.0
N690 N 0.4962 0.51875 0.99608 0.0
N691 N 0.5331 0.45514 0.04372 0.0
H692 H 0.91928 0.52189 0.88366 0.0
H693 H 0.05257 0.48702 0.07072 0.0
H694 H 0.92504 0.45349 0.00506 0.0
H695 H 0.04841 0.55352 0.94427 0.0
H696 H 0.00498 0.4763 0.05147 0.0
H697 H 0.96676 0.53319 0.90324 0.0
C698 C 0.93089 0.50864 0.91292 0.0
C699 C 0.91822 0.48644 0.94208 0.0
C700 C 0.01425 0.49355 0.02859 0.0
C701 C 0.97231 0.50016 0.96716 0.0
C702 C 0.04132 0.50003 0.0404 0.0
C703 C 0.05455 0.52137 0.00945 0.0
C704 C 1.00018 0.50839 0.98513 0.0
C705 C 0.039 0.53721 0.96993 0.0
C706 C 0.95786 0.51543 0.92493 0.0
C707 C 0.93409 0.47039 0.98059 0.0
N708 N 0.0128 0.53016 0.95832 0.0
N709 N 0.96014 0.47778 0.99259 0.0
H710 H 0.95933 0.0565 0.93791 0.0
H711 H 0.06701 0.94124 0.0571 0.0
H712 H 0.03544 0.0754 0.01836 0.0
H713 H 0.98962 0.92203 0.98236 0.0
H714 H 0.05637 0.99033 0.04101 0.0
H715 H 0.96955 0.00733 0.95469 0.0
C716 C 0.97781 0.05045 0.96044 0.0
C717 C 0.99629 0.07045 0.97733 0.0
C718 C 0.0418 0.97536 0.02767 0.0
C719 C 0.00869 0.01375 0.99525 0.0
C720 C 0.04806 0.9472 0.03629 0.0
C721 C 0.02939 0.92712 0.02079 0.0
C722 C 0.01661 0.98378 0.0033 0.0
C723 C 0.00483 0.93651 0.99499 0.0
C724 C 0.98387 0.02226 0.96933 0.0
C725 C 0.02037 0.06097 0.00482 0.0
N726 N 0.9992 0.96388 0.98731 0.0
N727 N 0.02585 0.03358 0.01261 0.0
H728 H 0.05256 0.01772 0.50828 0.0
H729 H 0.93258 0.12063 0.58439 0.0
H730 H 0.07023 0.10368 0.48477 0.0
H731 H 0.9219 0.05228 0.47171 0.0
H732 H 0.98272 0.11562 0.56969 0.0
H733 H 0.00408 0.02966 0.52234 0.0
C734 C 0.04641 0.03917 0.50721 0.0
C735 C 0.0657 0.05969 0.49517 0.0
C736 C 0.96921 0.10217 0.54742 0.0
C737 C 0.00984 0.07346 0.51141 0.0
C738 C 0.94059 0.1052 0.55518 0.0
C739 C 0.92278 0.08688 0.52924 0.0
C740 C 0.97997 0.08034 0.51463 0.0
C741 C 0.93461 0.06687 0.49285 0.0
C742 C 0.01864 0.04592 0.51472 0.0
C743 C 0.05615 0.08716 0.49381 0.0
N744 N 0.96227 0.0638 0.48771 0.0
N745 N 0.02889 0.09329 0.50194 0.0
H746 H 0.59552 0.91916 0.49215 0.0
H747 H 0.52099 0.05187 0.61553 0.0
H748 H 0.50774 0.93123 0.49815 0.0
H749 H 0.59562 0.06106 0.51363 0.0
H750 H 0.52194 1.00296 0.59573 0.0
H751 H 0.60084 0.9678 0.51579 0.0
C752 C 0.57742 0.93209 0.49738 0.0
C753 C 0.55113 0.92107 0.49291 0.0
C754 C 0.53838 0.01561 0.57859 0.0
C755 C 0.55714 0.97607 0.52237 0.0
C756 C 0.5381 0.04348 0.59057 0.0
C757 C 0.55811 0.06075 0.56578 0.0
C758 C 0.55902 1.00467 0.54223 0.0
C759 C 0.5798 0.04856 0.53376 0.0
C760 C 0.5805 0.95972 0.51122 0.0
C761 C 0.5284 0.93875 0.50063 0.0
N762 N 0.57953 0.02123 0.52225 0.0
N763 N 0.53193 0.96518 0.51587 0.0
H764 H 0.55994 0.46045 0.45588 0.0
H765 H 0.41659 0.54216 0.5011 0.0
H766 H 0.55406 0.54633 0.49603 0.0
H767 H 0.42216 0.45694 0.45543 0.0
H768 H 0.46666 0.54369 0.50171 0.0
H769 H 0.50983 0.45868 0.45585 0.0
C770 C 0.54819 0.47904 0.4642 0.0
C771 C 0.56153 0.50363 0.47574 0.0
C772 C 0.45699 0.52459 0.49183 0.0
C773 C 0.50361 0.5016 0.47652 0.0
C774 C 0.42826 0.52363 0.49178 0.0
C775 C 0.41483 0.49933 0.47842 0.0
C776 C 0.47277 0.50108 0.47834 0.0
C777 C 0.43139 0.47613 0.46627 0.0
C778 C 0.51946 0.47796 0.46443 0.0
C779 C 0.5449 0.52692 0.48661 0.0
N780 N 0.45932 0.47761 0.4664 0.0
N781 N 0.51699 0.5253 0.48688 0.0
H782 H 0.09356 0.55302 0.56937 0.0
H783 H 0.98987 0.44149 0.46291 0.0
H784 H 0.02215 0.5727 0.4682 0.0
H785 H 0.07621 0.42129 0.46216 0.0
H786 H 1.00054 0.48878 0.48577 0.0
H787 H 0.08789 0.50407 0.54667 0.0
C788 C 0.07719 0.54729 0.54128 0.0
C789 C 0.05839 0.56729 0.52061 0.0
C790 C 0.01718 0.47397 0.48105 0.0
C791 C 0.05113 0.51125 0.49673 0.0
C792 C 0.01108 0.44681 0.46849 0.0
C793 C 0.03212 0.42715 0.46048 0.0
C794 C 0.04455 0.4818 0.48683 0.0
C795 C 0.05928 0.43567 0.46782 0.0
C796 C 0.07379 0.51929 0.5289 0.0
C797 C 0.03719 0.55828 0.48543 0.0
N798 N 0.06473 0.46229 0.48074 0.0
N799 N 0.03394 0.53116 0.47553 0.0
loop_
_geom_bond_atom_site_label_1
_geom_bond_atom_site_label_2
_geom_bond_distance
_geom_bond_site_symmetry_2
_ccdc_geom_bond_type
C0 O2 1.247 . S
C0 O4 1.258 1_545 S
C1 O8 1.247 . S
C1 O9 1.258 1_565 S
O2 C0 1.247 . S
O2 Zn3 2.028 . S
Zn3 O2 2.028 . S
Zn3 O7 2.035 . S
Zn3 O9 2.035 . S
Zn3 O10 2.028 . S
O4 C0 1.258 1_565 S
O4 Zn5 2.035 . S
Zn5 O4 2.035 . S
Zn5 O6 2.028 . S
Zn5 O8 2.028 . S
Zn5 O11 2.035 . S
O6 Zn5 2.028 . S
O6 C12 1.247 1_565 S
O7 Zn3 2.035 . S
O7 C12 1.258 . S
O8 C1 1.247 . S
O8 Zn5 2.028 . S
O9 C1 1.258 1_545 S
O9 Zn3 2.035 . S
O10 Zn3 2.028 . S
O10 C13 1.247 1_545 S
O11 Zn5 2.035 . S
O11 C13 1.258 . S
C12 O6 1.247 1_545 S
C12 O7 1.258 . S
C13 O10 1.247 1_565 S
C13 O11 1.258 . S
C14 O16 1.247 . S
C14 O18 1.258 . S
C15 O22 1.247 . S
C15 O23 1.258 . S
O16 C14 1.247 . S
O16 Zn17 2.028 . S
Zn17 O16 2.028 . S
Zn17 O21 2.035 . S
Zn17 O23 2.035 . S
Zn17 O24 2.028 . S
O18 C14 1.258 . S
O18 Zn19 2.035 . S
Zn19 O18 2.035 . S
Zn19 O20 2.028 . S
Zn19 O22 2.028 . S
Zn19 O25 2.035 . S
O20 Zn19 2.028 . S
O20 C26 1.247 . S
O21 Zn17 2.035 . S
O21 C26 1.258 . S
O22 C15 1.247 . S
O22 Zn19 2.028 . S
O23 C15 1.258 . S
O23 Zn17 2.035 . S
O24 Zn17 2.028 . S
O24 C27 1.247 . S
O25 Zn19 2.035 . S
O25 C27 1.258 . S
C26 O20 1.247 . S
C26 O21 1.258 . S
C27 O24 1.247 . S
C27 O25 1.258 . S
C28 O30 1.247 . S
C28 O32 1.258 . S
C29 O36 1.247 . S
C29 O37 1.258 . S
O30 C28 1.247 . S
O30 Zn31 2.028 . S
Zn31 O30 2.028 . S
Zn31 O35 2.035 . S
Zn31 O37 2.035 . S
Zn31 O38 2.028 . S
O32 C28 1.258 . S
O32 Zn33 2.035 . S
Zn33 O32 2.035 . S
Zn33 O34 2.028 . S
Zn33 O36 2.028 . S
Zn33 O39 2.035 . S
O34 Zn33 2.028 . S
O34 C40 1.247 . S
O35 Zn31 2.035 . S
O35 C40 1.258 . S
O36 C29 1.247 . S
O36 Zn33 2.028 . S
O37 C29 1.258 . S
O37 Zn31 2.035 . S
O38 Zn31 2.028 . S
O38 C41 1.247 . S
O39 Zn33 2.035 . S
O39 C41 1.258 . S
C40 O34 1.247 . S
C40 O35 1.258 . S
C41 O38 1.247 . S
C41 O39 1.258 . S
C42 O44 1.247 . S
C42 O46 1.258 1_455 S
C43 O50 1.247 . S
C43 O51 1.258 1_655 S
O44 C42 1.247 . S
O44 Zn45 2.028 . S
Zn45 O44 2.028 . S
Zn45 O49 2.035 . S
Zn45 O51 2.035 . S
Zn45 O52 2.028 . S
O46 C42 1.258 1_655 S
O46 Zn47 2.035 . S
Zn47 O46 2.035 . S
Zn47 O48 2.028 . S
Zn47 O50 2.028 . S
Zn47 O53 2.035 . S
O48 Zn47 2.028 . S
O48 C54 1.211 1_655 S
O49 Zn45 2.035 . S
O49 C54 1.295 . S
O50 C43 1.247 . S
O50 Zn47 2.028 . S
O51 C43 1.258 1_455 S
O51 Zn45 2.035 . S
O52 Zn45 2.028 . S
O52 C55 1.219 1_455 S
O53 Zn47 2.035 . S
O53 C55 1.287 . S
C54 O48 1.211 1_455 S
C54 O49 1.295 . S
C55 O52 1.219 1_655 S
C55 O53 1.287 . S
C56 O58 1.247 . S
C56 O60 1.258 1_565 S
C57 O64 1.247 . S
C57 O65 1.258 1_545 S
O58 C56 1.247 . S
O58 Zn59 2.028 . S
Zn59 O58 2.028 . S
Zn59 O63 2.035 . S
Zn59 O65 2.035 . S
Zn59 O66 2.028 . S
O60 C56 1.258 1_545 S
O60 Zn61 2.035 . S
Zn61 O60 2.035 . S
Zn61 O62 2.028 . S
Zn61 O64 2.028 . S
Zn61 O67 2.035 . S
O62 Zn61 2.028 . S
O62 C68 1.211 1_545 S
O63 Zn59 2.035 . S
O63 C68 1.295 . S
O64 C57 1.247 . S
O64 Zn61 2.028 . S
O65 C57 1.258 1_565 S
O65 Zn59 2.035 . S
O66 Zn59 2.028 . S
O66 C69 1.219 1_565 S
O67 Zn61 2.035 . S
O67 C69 1.287 . S
C68 O62 1.211 1_565 S
C68 O63 1.295 . S
C69 O66 1.219 1_545 S
C69 O67 1.287 . S
C70 O72 1.247 . S
C70 O74 1.258 . S
C71 O78 1.247 . S
C71 O79 1.258 . S
O72 C70 1.247 . S
O72 Zn73 2.028 . S
Zn73 O72 2.028 . S
Zn73 O77 2.035 . S
Zn73 O79 2.035 . S
Zn73 O80 2.028 . S
O74 C70 1.258 . S
O74 Zn75 2.035 . S
Zn75 O74 2.035 . S
Zn75 O76 2.028 . S
Zn75 O78 2.028 . S
Zn75 O81 2.035 . S
O76 Zn75 2.028 . S
O76 C82 1.247 . S
O77 Zn73 2.035 . S
O77 C82 1.258 . S
O78 C71 1.247 . S
O78 Zn75 2.028 . S
O79 C71 1.258 . S
O79 Zn73 2.035 . S
O80 Zn73 2.028 . S
O80 C83 1.247 . S
O81 Zn75 2.035 . S
O81 C83 1.258 . S
C82 O76 1.247 . S
C82 O77 1.258 . S
C83 O80 1.247 . S
C83 O81 1.258 . S
C84 O86 1.247 . S
C84 O88 1.258 . S
C85 O92 1.247 . S
C85 O93 1.258 . S
O86 C84 1.247 . S
O86 Zn87 2.028 . S
Zn87 O86 2.028 . S
Zn87 O91 2.035 . S
Zn87 O93 2.035 . S
Zn87 O94 2.028 . S
O88 C84 1.258 . S
O88 Zn89 2.035 . S
Zn89 O88 2.035 . S
Zn89 O90 2.028 . S
Zn89 O92 2.028 . S
Zn89 O95 2.035 . S
O90 Zn89 2.028 . S
O90 C96 1.247 . S
O91 Zn87 2.035 . S
O91 C96 1.258 . S
O92 C85 1.247 . S
O92 Zn89 2.028 . S
O93 C85 1.258 . S
O93 Zn87 2.035 . S
O94 Zn87 2.028 . S
O94 C97 1.247 . S
O95 Zn89 2.035 . S
O95 C97 1.258 . S
C96 O90 1.247 . S
C96 O91 1.258 . S
C97 O94 1.247 . S
C97 O95 1.258 . S
C98 O100 1.247 . S
C98 O102 1.258 1_655 S
C99 O106 1.247 . S
C99 O107 1.258 1_455 S
O100 C98 1.247 . S
O100 Zn101 2.028 . S
Zn101 O100 2.028 . S
Zn101 O105 2.035 . S
Zn101 O107 2.035 . S
Zn101 O108 2.028 . S
O102 C98 1.258 1_455 S
O102 Zn103 2.035 . S
Zn103 O102 2.035 . S
Zn103 O104 2.028 . S
Zn103 O106 2.028 . S
Zn103 O109 2.035 . S
O104 Zn103 2.028 . S
O104 C110 1.247 1_455 S
O105 Zn101 2.035 . S
O105 C110 1.258 . S
O106 C99 1.247 . S
O106 Zn103 2.028 . S
O107 C99 1.258 1_655 S
O107 Zn101 2.035 . S
O108 Zn101 2.028 . S
O108 C111 1.247 1_655 S
O109 Zn103 2.035 . S
O109 C111 1.258 . S
C110 O104 1.247 1_655 S
C110 O105 1.258 . S
C111 O108 1.247 1_455 S
C111 O109 1.258 . S
C112 O114 1.247 1_565 S
C112 O116 1.258 . S
C113 O120 1.247 1_545 S
C113 O121 1.258 . S
O114 C112 1.247 1_545 S
O114 Zn115 2.028 . S
Zn115 O114 2.028 . S
Zn115 O119 2.035 . S
Zn115 O121 2.035 . S
Zn115 O122 2.028 . S
O116 C112 1.258 . S
O116 Zn117 2.035 . S
Zn117 O116 2.035 . S
Zn117 O118 2.028 . S
Zn117 O120 2.028 . S
Zn117 O123 2.035 . S
O118 Zn117 2.028 . S
O118 C124 1.247 . S
O119 Zn115 2.035 . S
O119 C124 1.258 1_545 S
O120 C113 1.247 1_565 S
O120 Zn117 2.028 . S
O121 C113 1.258 . S
O121 Zn115 2.035 . S
O122 Zn115 2.028 . S
O122 C125 1.247 . S
O123 Zn117 2.035 . S
O123 C125 1.258 1_565 S
C124 O118 1.247 . S
C124 O119 1.258 1_565 S
C125 O122 1.247 . S
C125 O123 1.258 1_545 S
C126 O128 1.247 . S
C126 O130 1.258 . S
C127 O134 1.247 . S
C127 O135 1.258 . S
O128 C126 1.247 . S
O128 Zn129 2.028 . S
Zn129 O128 2.028 . S
Zn129 O133 2.035 . S
Zn129 O135 2.035 . S
Zn129 O136 2.028 . S
O130 C126 1.258 . S
O130 Zn131 2.035 . S
Zn131 O130 2.035 . S
Zn131 O132 2.028 . S
Zn131 O134 2.028 . S
Zn131 O137 2.035 . S
O132 Zn131 2.028 . S
O132 C138 1.247 . S
O133 Zn129 2.035 . S
O133 C138 1.258 . S
O134 C127 1.247 . S
O134 Zn131 2.028 . S
O135 C127 1.258 . S
O135 Zn129 2.035 . S
O136 Zn129 2.028 . S
O136 C139 1.247 . S
O137 Zn131 2.035 . S
O137 C139 1.258 . S
C138 O132 1.247 . S
C138 O133 1.258 . S
C139 O136 1.247 . S
C139 O137 1.258 . S
C140 O142 1.247 . S
C140 O144 1.258 . S
C141 O148 1.247 . S
C141 O149 1.258 . S
O142 C140 1.247 . S
O142 Zn143 2.028 . S
Zn143 O142 2.028 . S
Zn143 O147 2.035 . S
Zn143 O149 2.035 . S
Zn143 O150 2.028 . S
O144 C140 1.258 . S
O144 Zn145 2.035 . S
Zn145 O144 2.035 . S
Zn145 O146 2.028 . S
Zn145 O148 2.028 . S
Zn145 O151 2.035 . S
O146 Zn145 2.028 . S
O146 C152 1.247 . S
O147 Zn143 2.035 . S
O147 C152 1.258 . S
O148 C141 1.247 . S
O148 Zn145 2.028 . S
O149 C141 1.258 . S
O149 Zn143 2.035 . S
O150 Zn143 2.028 . S
O150 C153 1.247 . S
O151 Zn145 2.035 . S
O151 C153 1.258 . S
C152 O146 1.247 . S
C152 O147 1.258 . S
C153 O150 1.247 . S
C153 O151 1.258 . S
C154 O156 1.247 . S
C154 O158 1.258 1_455 S
C155 O162 1.247 . S
C155 O163 1.258 1_655 S
O156 C154 1.247 . S
O156 Zn157 2.028 . S
Zn157 O156 2.028 . S
Zn157 O161 2.035 . S
Zn157 O163 2.035 . S
Zn157 O164 2.028 . S
O158 C154 1.258 1_655 S
O158 Zn159 2.035 . S
Zn159 O158 2.035 . S
Zn159 O160 2.028 . S
Zn159 O162 2.028 . S
Zn159 O165 2.035 . S
O160 Zn159 2.028 . S
O160 C166 1.219 1_655 S
O161 Zn157 2.035 . S
O161 C166 1.287 . S
O162 C155 1.247 . S
O162 Zn159 2.028 . S
O163 C155 1.258 1_455 S
O163 Zn157 2.035 . S
O164 Zn157 2.028 . S
O164 C167 1.211 1_455 S
O165 Zn159 2.035 . S
O165 C167 1.295 . S
C166 O160 1.219 1_455 S
C166 O161 1.287 . S
C167 O164 1.211 1_655 S
C167 O165 1.295 . S
C168 O170 1.247 . S
C168 O172 1.258 1_545 S
C169 O176 1.283 . S
C169 O177 1.223 1_565 S
O170 C168 1.247 . S
O170 Zn171 2.028 . S
Zn171 O170 2.028 . S
Zn171 O175 2.035 . S
Zn171 O177 2.035 . S
Zn171 O178 2.028 . S
O172 C168 1.258 1_565 S
O172 Zn173 2.035 . S
Zn173 O172 2.035 . S
Zn173 O174 2.028 . S
Zn173 O176 2.028 . S
Zn173 O179 2.035 . S
O174 Zn173 2.028 . S
O174 C180 1.247 1_565 S
O175 Zn171 2.035 . S
O175 C180 1.258 . S
O176 C169 1.283 . S
O176 Zn173 2.028 . S
O177 C169 1.223 1_545 S
O177 Zn171 2.035 . S
O178 Zn171 2.028 . S
O178 C181 1.247 1_545 S
O179 Zn173 2.035 . S
O179 C181 1.258 . S
C180 O174 1.247 1_545 S
C180 O175 1.258 . S
C181 O178 1.247 1_565 S
C181 O179 1.258 . S
C182 O184 1.247 . S
C182 O186 1.258 . S
C183 O190 1.247 . S
C183 O191 1.258 . S
O184 C182 1.247 . S
O184 Zn185 2.028 . S
Zn185 O184 2.028 . S
Zn185 O189 2.035 . S
Zn185 O191 2.035 . S
Zn185 O192 2.028 . S
O186 C182 1.258 . S
O186 Zn187 2.035 . S
Zn187 O186 2.035 . S
Zn187 O188 2.028 . S
Zn187 O190 2.028 . S
Zn187 O193 2.035 . S
O188 Zn187 2.028 . S
O188 C194 1.247 . S
O189 Zn185 2.035 . S
O189 C194 1.258 . S
O190 C183 1.247 . S
O190 Zn187 2.028 . S
O191 C183 1.258 . S
O191 Zn185 2.035 . S
O192 Zn185 2.028 . S
O192 C195 1.247 . S
O193 Zn187 2.035 . S
O193 C195 1.258 . S
C194 O188 1.247 . S
C194 O189 1.258 . S
C195 O192 1.247 . S
C195 O193 1.258 . S
C196 O198 1.247 . S
C196 O200 1.258 . S
C197 O204 1.247 . S
C197 O205 1.258 . S
O198 C196 1.247 . S
O198 Zn199 2.028 . S
Zn199 O198 2.028 . S
Zn199 O203 2.035 . S
Zn199 O205 2.035 . S
Zn199 O206 2.028 . S
O200 C196 1.258 . S
O200 Zn201 2.035 . S
Zn201 O200 2.035 . S
Zn201 O202 2.028 . S
Zn201 O204 2.028 . S
Zn201 O207 2.035 . S
O202 Zn201 2.028 . S
O202 C208 1.247 . S
O203 Zn199 2.035 . S
O203 C208 1.258 . S
O204 C197 1.247 . S
O204 Zn201 2.028 . S
O205 C197 1.258 . S
O205 Zn199 2.035 . S
O206 Zn199 2.028 . S
O206 C209 1.247 . S
O207 Zn201 2.035 . S
O207 C209 1.258 . S
C208 O202 1.247 . S
C208 O203 1.258 . S
C209 O206 1.247 . S
C209 O207 1.258 . S
C210 O212 1.247 . S
C210 O214 1.258 1_655 S
C211 O218 1.247 . S
C211 O219 1.258 1_455 S
O212 C210 1.247 . S
O212 Zn213 2.028 . S
Zn213 O212 2.028 . S
Zn213 O217 2.035 . S
Zn213 O219 2.035 . S
Zn213 O220 2.028 . S
O214 C210 1.258 1_455 S
O214 Zn215 2.035 . S
Zn215 O214 2.035 . S
Zn215 O216 2.028 . S
Zn215 O218 2.028 . S
Zn215 O221 2.035 . S
O216 Zn215 2.028 . S
O216 C222 1.247 1_455 S
O217 Zn213 2.035 . S
O217 C222 1.258 . S
O218 C211 1.247 . S
O218 Zn215 2.028 . S
O219 C211 1.258 1_655 S
O219 Zn213 2.035 . S
O220 Zn213 2.028 . S
O220 C223 1.247 1_655 S
O221 Zn215 2.035 . S
O221 C223 1.258 . S
C222 O216 1.247 1_655 S
C222 O217 1.258 . S
C223 O220 1.247 1_455 S
C223 O221 1.258 . S
H224 C230 0.930 . S
H225 C234 0.930 . S
H226 C239 0.929 . S
H227 C237 0.929 1_565 S
H228 C232 0.929 . S
H229 C238 0.929 . S
C230 H224 0.930 . S
C230 C231 1.367 . S
C230 C238 1.378 . S
C231 C230 1.367 . S
C231 C239 1.433 . S
C232 H228 0.929 . S
C232 C234 1.378 . S
C232 C236 1.350 . S
C233 C236 1.463 . S
C233 C238 1.350 . S
C233 N241 1.427 . S
C234 H225 0.930 . S
C234 C232 1.378 . S
C234 C235 1.367 . S
C235 C234 1.367 . S
C235 C237 1.433 . S
C236 C232 1.350 . S
C236 C233 1.463 . S
C236 N240 1.427 . S
C237 H227 0.929 1_545 S
C237 C235 1.433 . S
C237 N240 1.384 . S
C238 H229 0.929 . S
C238 C230 1.378 . S
C238 C233 1.350 . S
C239 H226 0.929 . S
C239 C231 1.433 . S
C239 N241 1.384 . S
N240 C236 1.427 . S
N240 C237 1.384 . S
N241 C233 1.427 . S
N241 C239 1.384 . S
H242 C248 0.930 . S
H243 C252 0.930 . S
H244 C257 0.929 . S
H245 C255 0.929 . S
H246 C250 0.929 . S
H247 C256 0.929 . S
C248 H242 0.930 . S
C248 C249 1.367 . S
C248 C256 1.378 . S
C249 C248 1.367 . S
C249 C257 1.433 . S
C250 H246 0.929 . S
C250 C252 1.378 . S
C250 C254 1.350 . S
C251 C254 1.463 . S
C251 C256 1.350 . S
C251 N259 1.427 . S
C252 H243 0.930 . S
C252 C250 1.378 . S
C252 C253 1.367 . S
C253 C252 1.367 . S
C253 C255 1.433 . S
C254 C250 1.350 . S
C254 C251 1.463 . S
C254 N258 1.427 . S
C255 H245 0.929 . S
C255 C253 1.433 . S
C255 N258 1.384 . S
C256 H247 0.929 . S
C256 C248 1.378 . S
C256 C251 1.350 . S
C257 H244 0.929 . S
C257 C249 1.433 . S
C257 N259 1.384 . S
N258 C254 1.427 . S
N258 C255 1.384 . S
N259 C251 1.427 . S
N259 C257 1.384 . S
H260 C266 0.930 . S
H261 C270 0.930 . S
H262 C275 0.929 . S
H263 C273 0.929 . S
H264 C268 0.929 . S
H265 C274 0.929 . S
C266 H260 0.930 . S
C266 C267 1.367 . S
C266 C274 1.378 . S
C267 C266 1.367 . S
C267 C275 1.433 . S
C268 H264 0.929 . S
C268 C270 1.378 . S
C268 C272 1.350 . S
C269 C272 1.463 . S
C269 C274 1.350 . S
C269 N277 1.427 . S
C270 H261 0.930 . S
C270 C268 1.378 . S
C270 C271 1.367 . S
C271 C270 1.367 . S
C271 C273 1.433 . S
C272 C268 1.350 . S
C272 C269 1.463 . S
C272 N276 1.427 . S
C273 H263 0.929 . S
C273 C271 1.433 . S
C273 N276 1.384 . S
C274 H265 0.929 . S
C274 C266 1.378 . S
C274 C269 1.350 . S
C275 H262 0.929 . S
C275 C267 1.433 . S
C275 N277 1.384 . S
N276 C272 1.427 . S
N276 C273 1.384 . S
N277 C269 1.427 . S
N277 C275 1.384 . S
H278 C284 0.930 . S
H279 C288 0.930 1_545 S
H280 C293 0.929 . S
H281 C291 0.929 . S
H282 C286 0.929 . S
H283 C292 0.929 . S
C284 H278 0.930 . S
C284 C285 1.367 . S
C284 C292 1.378 . S
C285 C284 1.367 . S
C285 C293 1.433 . S
C286 H282 0.929 . S
C286 C288 1.378 . S
C286 C290 1.350 . S
C287 C290 1.463 . S
C287 C292 1.350 . S
C287 N295 1.427 . S
C288 H279 0.930 1_565 S
C288 C286 1.378 . S
C288 C289 1.367 . S
C289 C288 1.367 . S
C289 C291 1.433 . S
C290 C286 1.350 . S
C290 C287 1.463 . S
C290 N294 1.427 . S
C291 H281 0.929 . S
C291 C289 1.433 . S
C291 N294 1.384 . S
C292 H283 0.929 . S
C292 C284 1.378 . S
C292 C287 1.350 . S
C293 H280 0.929 . S
C293 C285 1.433 . S
C293 N295 1.384 . S
N294 C290 1.427 . S
N294 C291 1.384 . S
N295 C287 1.427 . S
N295 C293 1.384 . S
H296 C302 0.930 . S
H297 C306 0.930 . S
H298 C311 0.929 . S
H299 C309 0.929 . S
H300 C304 0.929 . S
H301 C310 0.929 . S
C302 H296 0.930 . S
C302 C303 1.367 . S
C302 C310 1.378 . S
C303 C302 1.367 . S
C303 C311 1.433 . S
C304 H300 0.929 . S
C304 C306 1.378 . S
C304 C308 1.350 . S
C305 C308 1.463 . S
C305 C310 1.350 . S
C305 N313 1.427 . S
C306 H297 0.930 . S
C306 C304 1.378 . S
C306 C307 1.367 . S
C307 C306 1.367 . S
C307 C309 1.433 . S
C308 C304 1.350 . S
C308 C305 1.463 . S
C308 N312 1.427 . S
C309 H299 0.929 . S
C309 C307 1.433 . S
C309 N312 1.384 . S
C310 H301 0.929 . S
C310 C302 1.378 . S
C310 C305 1.350 . S
C311 H298 0.929 . S
C311 C303 1.433 . S
C311 N313 1.384 . S
N312 C308 1.427 . S
N312 C309 1.384 . S
N313 C305 1.427 . S
N313 C311 1.384 . S
H314 C320 0.930 . S
H315 C324 0.930 . S
H316 C329 0.929 . S
H317 C327 0.929 . S
H318 C322 0.929 . S
H319 C328 0.929 . S
C320 H314 0.930 . S
C320 C321 1.367 . S
C320 C328 1.378 . S
C321 C320 1.367 . S
C321 C329 1.433 . S
C322 H318 0.929 . S
C322 C324 1.378 . S
C322 C326 1.350 . S
C323 C326 1.463 . S
C323 C328 1.350 . S
C323 N331 1.427 . S
C324 H315 0.930 . S
C324 C322 1.378 . S
C324 C325 1.367 . S
C325 C324 1.367 . S
C325 C327 1.433 . S
C326 C322 1.350 . S
C326 C323 1.463 . S
C326 N330 1.427 . S
C327 H317 0.929 . S
C327 C325 1.433 . S
C327 N330 1.384 . S
C328 H319 0.929 . S
C328 C320 1.378 . S
C328 C323 1.350 . S
C329 H316 0.929 . S
C329 C321 1.433 . S
C329 N331 1.384 . S
N330 C326 1.427 . S
N330 C327 1.384 . S
N331 C323 1.427 . S
N331 C329 1.384 . S
H332 C338 0.930 1_655 S
H333 C342 0.930 . S
H334 C347 0.929 . S
H335 C345 0.929 . S
H336 C340 0.929 . S
H337 C346 0.929 . S
C338 H332 0.930 1_455 S
C338 C339 1.367 . S
C338 C346 1.378 . S
C339 C338 1.367 . S
C339 C347 1.433 . S
C340 H336 0.929 . S
C340 C342 1.378 . S
C340 C344 1.350 . S
C341 C344 1.463 . S
C341 C346 1.350 . S
C341 N349 1.427 . S
C342 H333 0.930 . S
C342 C340 1.378 . S
C342 C343 1.367 . S
C343 C342 1.367 . S
C343 C345 1.433 . S
C344 C340 1.350 . S
C344 C341 1.463 . S
C344 N348 1.427 . S
C345 H335 0.929 . S
C345 C343 1.433 . S
C345 N348 1.384 . S
C346 H337 0.929 . S
C346 C338 1.378 . S
C346 C341 1.350 . S
C347 H334 0.929 . S
C347 C339 1.433 . S
C347 N349 1.384 . S
N348 C344 1.427 . S
N348 C345 1.384 . S
N349 C341 1.427 . S
N349 C347 1.384 . S
H350 C356 0.930 1_455 S
H351 C360 0.930 . S
H352 C365 0.929 . S
H353 C363 0.929 . S
H354 C358 0.929 . S
H355 C364 0.929 . S
C356 H350 0.930 1_655 S
C356 C357 1.367 . S
C356 C364 1.378 . S
C357 C356 1.367 . S
C357 C365 1.433 . S
C358 H354 0.929 . S
C358 C360 1.378 . S
C358 C362 1.350 . S
C359 C362 1.463 . S
C359 C364 1.350 . S
C359 N367 1.427 . S
C360 H351 0.930 . S
C360 C358 1.378 . S
C360 C361 1.367 . S
C361 C360 1.367 . S
C361 C363 1.433 . S
C362 C358 1.350 . S
C362 C359 1.463 . S
C362 N366 1.427 . S
C363 H353 0.929 . S
C363 C361 1.433 . S
C363 N366 1.384 . S
C364 H355 0.929 . S
C364 C356 1.378 . S
C364 C359 1.350 . S
C365 H352 0.929 . S
C365 C357 1.433 . S
C365 N367 1.384 . S
N366 C362 1.427 . S
N366 C363 1.384 . S
N367 C359 1.427 . S
N367 C365 1.384 . S
H368 C374 0.930 . S
H369 C378 0.930 . S
H370 C383 0.929 . S
H371 C381 0.929 . S
H372 C376 0.929 . S
H373 C382 0.929 . S
C374 H368 0.930 . S
C374 C375 1.367 1_545 S
C374 C382 1.378 . S
C375 C374 1.367 1_565 S
C375 C383 1.433 . S
C376 H372 0.929 . S
C376 C378 1.378 . S
C376 C380 1.350 . S
C377 C380 1.463 . S
C377 C382 1.350 1_565 S
C377 N385 1.427 . S
C378 H369 0.930 . S
C378 C376 1.378 . S
C378 C379 1.367 . S
C379 C378 1.367 . S
C379 C381 1.433 1_565 S
C380 C376 1.350 . S
C380 C377 1.463 . S
C380 N384 1.427 1_565 S
C381 H371 0.929 . S
C381 C379 1.433 1_545 S
C381 N384 1.384 . S
C382 H373 0.929 . S
C382 C374 1.378 . S
C382 C377 1.350 1_545 S
C383 H370 0.929 . S
C383 C375 1.433 . S
C383 N385 1.384 . S
N384 C380 1.427 1_545 S
N384 C381 1.384 . S
N385 C377 1.427 . S
N385 C383 1.384 . S
H386 C392 0.930 . S
H387 C396 0.930 . S
H388 C401 0.929 . S
H389 C399 0.927 1_554 S
H390 C394 0.929 . S
H391 C400 0.929 . S
C392 H386 0.930 . S
C392 C393 1.367 . S
C392 C400 1.378 . S
C393 C392 1.367 . S
C393 C401 1.433 . S
C394 H390 0.929 . S
C394 C396 1.378 . S
C394 C398 1.350 . S
C395 C398 1.463 . S
C395 C400 1.350 . S
C395 N403 1.427 . S
C396 H387 0.930 . S
C396 C394 1.378 . S
C396 C397 1.367 . S
C397 C396 1.367 . S
C397 C399 1.433 . S
C398 C394 1.350 . S
C398 C395 1.463 . S
C398 N402 1.427 . S
C399 H389 0.927 1_556 S
C399 C397 1.433 . S
C399 N402 1.384 . S
C400 H391 0.929 . S
C400 C392 1.378 . S
C400 C395 1.350 . S
C401 H388 0.929 . S
C401 C393 1.433 . S
C401 N403 1.384 . S
N402 C398 1.427 . S
N402 C399 1.384 . S
N403 C395 1.427 . S
N403 C401 1.384 . S
H404 C410 0.930 . S
H405 C414 0.930 . S
H406 C419 0.929 . S
H407 C417 0.929 . S
H408 C412 0.929 . S
H409 C418 0.929 . S
C410 H404 0.930 . S
C410 C411 1.367 . S
C410 C418 1.378 . S
C411 C410 1.367 . S
C411 C419 1.433 . S
C412 H408 0.929 . S
C412 C414 1.378 . S
C412 C416 1.350 . S
C413 C416 1.463 . S
C413 C418 1.350 . S
C413 N421 1.427 . S
C414 H405 0.930 . S
C414 C412 1.378 . S
C414 C415 1.367 . S
C415 C414 1.367 . S
C415 C417 1.433 . S
C416 C412 1.350 . S
C416 C413 1.463 . S
C416 N420 1.427 . S
C417 H407 0.929 . S
C417 C415 1.433 . S
C417 N420 1.384 . S
C418 H409 0.929 . S
C418 C410 1.378 . S
C418 C413 1.350 . S
C419 H406 0.929 . S
C419 C411 1.433 . S
C419 N421 1.384 . S
N420 C416 1.427 . S
N420 C417 1.384 . S
N421 C413 1.427 . S
N421 C419 1.384 . S
H422 C428 0.930 . S
H423 C432 0.930 . S
H424 C437 0.929 . S
H425 C435 0.929 . S
H426 C430 0.929 . S
H427 C436 0.929 . S
C428 H422 0.930 . S
C428 C429 1.367 1_455 S
C428 C436 1.378 . S
C429 C428 1.367 1_655 S
C429 C437 1.433 . S
C430 H426 0.929 . S
C430 C432 1.378 . S
C430 C434 1.350 . S
C431 C434 1.463 . S
C431 C436 1.350 1_655 S
C431 N439 1.427 . S
C432 H423 0.930 . S
C432 C430 1.378 . S
C432 C433 1.367 . S
C433 C432 1.367 . S
C433 C435 1.433 1_655 S
C434 C430 1.350 . S
C434 C431 1.463 . S
C434 N438 1.427 1_655 S
C435 H425 0.929 . S
C435 C433 1.433 1_455 S
C435 N438 1.384 . S
C436 H427 0.929 . S
C436 C428 1.378 . S
C436 C431 1.350 1_455 S
C437 H424 0.929 . S
C437 C429 1.433 . S
C437 N439 1.384 . S
N438 C434 1.427 1_455 S
N438 C435 1.384 . S
N439 C431 1.427 . S
N439 C437 1.384 . S
H440 C446 0.930 . S
H441 C450 0.930 . S
H442 C455 0.929 . S
H443 C453 0.929 . S
H444 C448 0.929 . S
H445 C454 0.929 . S
C446 H440 0.930 . S
C446 C447 1.367 1_565 S
C446 C454 1.378 . S
C447 C446 1.367 1_545 S
C447 C455 1.433 . S
C448 H444 0.929 . S
C448 C450 1.378 . S
C448 C452 1.350 . S
C449 C452 1.463 . S
C449 C454 1.350 1_545 S
C449 N457 1.427 . S
C450 H441 0.930 . S
C450 C448 1.378 . S
C450 C451 1.367 . S
C451 C450 1.367 . S
C451 C453 1.433 1_545 S
C452 C448 1.350 . S
C452 C449 1.463 . S
C452 N456 1.427 1_545 S
C453 H443 0.929 . S
C453 C451 1.433 1_565 S
C453 N456 1.384 . S
C454 H445 0.929 . S
C454 C446 1.378 . S
C454 C449 1.350 1_565 S
C455 H442 0.929 . S
C455 C447 1.433 . S
C455 N457 1.384 . S
N456 C452 1.427 1_565 S
N456 C453 1.384 . S
N457 C449 1.427 . S
N457 C455 1.384 . S
H458 C464 0.930 . S
H459 C468 0.930 . S
H460 C473 0.929 . S
H461 C471 0.929 . S
H462 C466 0.929 . S
H463 C472 0.929 . S
C464 H458 0.930 . S
C464 C465 1.367 . S
C464 C472 1.378 . S
C465 C464 1.367 . S
C465 C473 1.433 . S
C466 H462 0.929 . S
C466 C468 1.378 . S
C466 C470 1.350 . S
C467 C470 1.463 . S
C467 C472 1.350 . S
C467 N475 1.427 . S
C468 H459 0.930 . S
C468 C466 1.378 . S
C468 C469 1.367 . S
C469 C468 1.367 . S
C469 C471 1.433 . S
C470 C466 1.350 . S
C470 C467 1.463 . S
C470 N474 1.427 . S
C471 H461 0.929 . S
C471 C469 1.433 . S
C471 N474 1.384 . S
C472 H463 0.929 . S
C472 C464 1.378 . S
C472 C467 1.350 . S
C473 H460 0.929 . S
C473 C465 1.433 . S
C473 N475 1.384 . S
N474 C470 1.427 . S
N474 C471 1.384 . S
N475 C467 1.427 . S
N475 C473 1.384 . S
H476 C482 0.930 . S
H477 C486 0.930 . S
H478 C491 0.929 . S
H479 C489 0.929 . S
H480 C484 0.929 . S
H481 C490 0.929 . S
C482 H476 0.930 . S
C482 C483 1.367 . S
C482 C490 1.378 . S
C483 C482 1.367 . S
C483 C491 1.433 . S
C484 H480 0.929 . S
C484 C486 1.378 . S
C484 C488 1.350 . S
C485 C488 1.463 . S
C485 C490 1.350 . S
C485 N493 1.427 . S
C486 H477 0.930 . S
C486 C484 1.378 . S
C486 C487 1.367 . S
C487 C486 1.367 . S
C487 C489 1.433 . S
C488 C484 1.350 . S
C488 C485 1.463 . S
C488 N492 1.427 . S
C489 H479 0.929 . S
C489 C487 1.433 . S
C489 N492 1.384 . S
C490 H481 0.929 . S
C490 C482 1.378 . S
C490 C485 1.350 . S
C491 H478 0.929 . S
C491 C483 1.433 . S
C491 N493 1.384 . S
N492 C488 1.427 . S
N492 C489 1.384 . S
N493 C485 1.427 . S
N493 C491 1.384 . S
H494 C500 0.930 . S
H495 C504 0.930 . S
H496 C509 0.929 . S
H497 C507 0.929 . S
H498 C502 0.929 . S
H499 C508 0.929 . S
C500 H494 0.930 . S
C500 C501 1.367 1_655 S
C500 C508 1.378 . S
C501 C500 1.367 1_455 S
C501 C509 1.433 . S
C502 H498 0.929 . S
C502 C504 1.378 . S
C502 C506 1.350 . S
C503 C506 1.463 . S
C503 C508 1.350 1_455 S
C503 N511 1.427 . S
C504 H495 0.930 . S
C504 C502 1.378 . S
C504 C505 1.367 . S
C505 C504 1.367 . S
C505 C507 1.433 1_455 S
C506 C502 1.350 . S
C506 C503 1.463 . S
C506 N510 1.427 1_455 S
C507 H497 0.929 . S
C507 C505 1.433 1_655 S
C507 N510 1.384 . S
C508 H499 0.929 . S
C508 C500 1.378 . S
C508 C503 1.350 1_655 S
C509 H496 0.929 . S
C509 C501 1.433 . S
C509 N511 1.384 . S
N510 C506 1.427 1_655 S
N510 C507 1.384 . S
N511 C503 1.427 . S
N511 C509 1.384 . S
H512 C518 0.930 . S
H513 C522 0.930 . S
H514 C527 0.929 . S
H515 C525 0.929 . S
H516 C520 0.929 . S
H517 C526 0.929 . S
C518 H512 0.930 . S
C518 C519 1.367 1_565 S
C518 C526 1.378 . S
C519 C518 1.367 1_545 S
C519 C527 1.433 . S
C520 H516 0.929 . S
C520 C522 1.378 . S
C520 C524 1.350 . S
C521 C524 1.463 . S
C521 C526 1.350 1_545 S
C521 N529 1.427 . S
C522 H513 0.930 . S
C522 C520 1.378 . S
C522 C523 1.367 . S
C523 C522 1.367 . S
C523 C525 1.433 1_545 S
C524 C520 1.350 . S
C524 C521 1.463 . S
C524 N528 1.427 1_545 S
C525 H515 0.929 . S
C525 C523 1.433 1_565 S
C525 N528 1.384 . S
C526 H517 0.929 . S
C526 C518 1.378 . S
C526 C521 1.350 1_565 S
C527 H514 0.929 . S
C527 C519 1.433 . S
C527 N529 1.384 . S
N528 C524 1.427 1_565 S
N528 C525 1.384 . S
N529 C521 1.427 . S
N529 C527 1.384 . S
H530 C536 0.930 . S
H531 C540 0.930 1_556 S
H532 C545 0.929 . S
H533 C543 0.929 . S
H534 C538 0.929 . S
H535 C544 0.929 . S
C536 H530 0.930 . S
C536 C537 1.367 . S
C536 C544 1.378 . S
C537 C536 1.367 . S
C537 C545 1.433 . S
C538 H534 0.929 . S
C538 C540 1.378 . S
C538 C542 1.350 . S
C539 C542 1.463 . S
C539 C544 1.350 . S
C539 N547 1.427 . S
C540 H531 0.930 1_554 S
C540 C538 1.378 . S
C540 C541 1.367 . S
C541 C540 1.367 . S
C541 C543 1.433 . S
C542 C538 1.350 . S
C542 C539 1.463 . S
C542 N546 1.427 . S
C543 H533 0.929 . S
C543 C541 1.433 . S
C543 N546 1.384 . S
C544 H535 0.929 . S
C544 C536 1.378 . S
C544 C539 1.350 . S
C545 H532 0.929 . S
C545 C537 1.433 . S
C545 N547 1.384 . S
N546 C542 1.427 . S
N546 C543 1.384 . S
N547 C539 1.427 . S
N547 C545 1.384 . S
H548 C554 0.930 . S
H549 C558 0.930 . S
H550 C563 0.929 . S
H551 C561 0.929 . S
H552 C556 0.929 . S
H553 C562 0.929 . S
C554 H548 0.930 . S
C554 C555 1.367 . S
C554 C562 1.378 . S
C555 C554 1.367 . S
C555 C563 1.433 . S
C556 H552 0.929 . S
C556 C558 1.378 . S
C556 C560 1.350 . S
C557 C560 1.463 . S
C557 C562 1.350 . S
C557 N565 1.427 . S
C558 H549 0.930 . S
C558 C556 1.378 . S
C558 C559 1.367 . S
C559 C558 1.367 . S
C559 C561 1.433 . S
C560 C556 1.350 . S
C560 C557 1.463 . S
C560 N564 1.427 . S
C561 H551 0.929 . S
C561 C559 1.433 . S
C561 N564 1.384 . S
C562 H553 0.929 . S
C562 C554 1.378 . S
C562 C557 1.350 . S
C563 H550 0.929 . S
C563 C555 1.433 . S
C563 N565 1.384 . S
N564 C560 1.427 . S
N564 C561 1.384 . S
N565 C557 1.427 . S
N565 C563 1.384 . S
H566 C572 0.930 . S
H567 C576 0.930 . S
H568 C581 0.929 . S
H569 C579 0.929 . S
H570 C574 0.929 . S
H571 C580 0.929 . S
C572 H566 0.930 . S
C572 C573 1.367 1_655 S
C572 C580 1.378 . S
C573 C572 1.367 1_455 S
C573 C581 1.433 . S
C574 H570 0.929 . S
C574 C576 1.378 . S
C574 C578 1.350 . S
C575 C578 1.463 . S
C575 C580 1.350 1_455 S
C575 N583 1.427 . S
C576 H567 0.930 . S
C576 C574 1.378 . S
C576 C577 1.367 . S
C577 C576 1.367 . S
C577 C579 1.433 1_455 S
C578 C574 1.350 . S
C578 C575 1.463 . S
C578 N582 1.427 1_455 S
C579 H569 0.929 . S
C579 C577 1.433 1_655 S
C579 N582 1.384 . S
C580 H571 0.929 . S
C580 C572 1.378 . S
C580 C575 1.350 1_655 S
C581 H568 0.929 . S
C581 C573 1.433 . S
C581 N583 1.384 . S
N582 C578 1.427 1_655 S
N582 C579 1.384 . S
N583 C575 1.427 . S
N583 C581 1.384 . S
H584 C590 0.930 . S
H585 C594 0.930 . S
H586 C599 0.929 . S
H587 C597 0.929 . S
H588 C592 0.929 . S
H589 C598 0.929 . S
C590 H584 0.930 . S
C590 C591 1.367 1_545 S
C590 C598 1.378 . S
C591 C590 1.367 1_565 S
C591 C599 1.433 . S
C592 H588 0.929 . S
C592 C594 1.378 . S
C592 C596 1.350 . S
C593 C596 1.463 . S
C593 C598 1.350 1_565 S
C593 N601 1.427 . S
C594 H585 0.930 . S
C594 C592 1.378 . S
C594 C595 1.367 . S
C595 C594 1.367 . S
C595 C597 1.433 1_565 S
C596 C592 1.350 . S
C596 C593 1.463 . S
C596 N600 1.427 1_565 S
C597 H587 0.929 . S
C597 C595 1.433 1_545 S
C597 N600 1.384 . S
C598 H589 0.929 . S
C598 C590 1.378 . S
C598 C593 1.350 1_545 S
C599 H586 0.929 . S
C599 C591 1.433 . S
C599 N601 1.384 . S
N600 C596 1.427 1_545 S
N600 C597 1.384 . S
N601 C593 1.427 . S
N601 C599 1.384 . S
H602 C608 0.930 . S
H603 C612 0.930 . S
H604 C617 0.929 . S
H605 C615 0.929 . S
H606 C610 0.929 . S
H607 C616 0.929 . S
C608 H602 0.930 . S
C608 C609 1.367 . S
C608 C616 1.378 . S
C609 C608 1.367 . S
C609 C617 1.433 . S
C610 H606 0.929 . S
C610 C612 1.378 . S
C610 C614 1.350 . S
C611 C614 1.463 . S
C611 C616 1.350 . S
C611 N619 1.427 . S
C612 H603 0.930 . S
C612 C610 1.378 . S
C612 C613 1.367 . S
C613 C612 1.367 . S
C613 C615 1.433 . S
C614 C610 1.350 . S
C614 C611 1.463 . S
C614 N618 1.427 . S
C615 H605 0.929 . S
C615 C613 1.433 . S
C615 N618 1.384 . S
C616 H607 0.929 . S
C616 C608 1.378 . S
C616 C611 1.350 . S
C617 H604 0.929 . S
C617 C609 1.433 . S
C617 N619 1.384 . S
N618 C614 1.427 . S
N618 C615 1.384 . S
N619 C611 1.427 . S
N619 C617 1.384 . S
H620 C626 0.930 . S
H621 C630 0.930 . S
H622 C635 0.929 . S
H623 C633 0.929 . S
H624 C628 0.929 . S
H625 C634 0.929 . S
C626 H620 0.930 . S
C626 C627 1.367 . S
C626 C634 1.378 . S
C627 C626 1.367 . S
C627 C635 1.433 . S
C628 H624 0.929 . S
C628 C630 1.378 . S
C628 C632 1.350 . S
C629 C632 1.463 . S
C629 C634 1.350 . S
C629 N637 1.427 . S
C630 H621 0.930 . S
C630 C628 1.378 . S
C630 C631 1.367 . S
C631 C630 1.367 . S
C631 C633 1.433 . S
C632 C628 1.350 . S
C632 C629 1.463 . S
C632 N636 1.427 . S
C633 H623 0.929 . S
C633 C631 1.433 . S
C633 N636 1.384 . S
C634 H625 0.929 . S
C634 C626 1.378 . S
C634 C629 1.350 . S
C635 H622 0.929 . S
C635 C627 1.433 . S
C635 N637 1.384 . S
N636 C632 1.427 . S
N636 C633 1.384 . S
N637 C629 1.427 . S
N637 C635 1.384 . S
H638 C644 0.928 1_455 S
H639 C648 0.930 . S
H640 C653 0.929 . S
H641 C651 0.929 . S
H642 C646 0.929 . S
H643 C652 0.929 . S
C644 H638 0.928 1_655 S
C644 C645 1.367 . S
C644 C652 1.381 . S
C645 C644 1.367 . S
C645 C653 1.433 . S
C646 H642 0.929 . S
C646 C648 1.378 . S
C646 C650 1.350 . S
C647 C650 1.463 . S
C647 C652 1.350 . S
C647 N655 1.427 . S
C648 H639 0.930 . S
C648 C646 1.378 . S
C648 C649 1.367 . S
C649 C648 1.367 . S
C649 C651 1.433 . S
C650 C646 1.350 . S
C650 C647 1.463 . S
C650 N654 1.427 . S
C651 H641 0.929 . S
C651 C649 1.433 . S
C651 N654 1.384 . S
C652 H643 0.929 . S
C652 C644 1.381 . S
C652 C647 1.350 . S
C653 H640 0.929 . S
C653 C645 1.433 . S
C653 N655 1.384 . S
N654 C650 1.427 . S
N654 C651 1.384 . S
N655 C647 1.427 . S
N655 C653 1.384 . S
H656 C662 0.930 . S
H657 C666 0.930 . S
H658 C671 0.929 . S
H659 C669 0.929 . S
H660 C664 0.929 . S
H661 C670 0.930 . S
C662 H656 0.930 . S
C662 C663 1.367 1_564 S
C662 C670 1.378 . S
C663 C662 1.367 1_546 S
C663 C671 1.435 . S
C664 H660 0.929 . S
C664 C666 1.378 . S
C664 C668 1.350 1_546 S
C665 C668 1.463 1_546 S
C665 C670 1.350 1_546 S
C665 N673 1.427 . S
C666 H657 0.930 . S
C666 C664 1.378 . S
C666 C667 1.367 1_546 S
C667 C666 1.367 1_564 S
C667 C669 1.433 . S
C668 C664 1.350 1_564 S
C668 C665 1.463 1_564 S
C668 N672 1.428 . S
C669 H659 0.929 . S
C669 C667 1.433 . S
C669 N672 1.384 . S
C670 H661 0.930 . S
C670 C662 1.378 . S
C670 C665 1.350 1_564 S
C671 H658 0.929 . S
C671 C663 1.435 . S
C671 N673 1.384 . S
N672 C668 1.428 . S
N672 C669 1.384 . S
N673 C665 1.427 . S
N673 C671 1.384 . S
H674 C680 0.930 . S
H675 C684 0.930 . S
H676 C689 0.929 . S
H677 C687 0.929 . S
H678 C682 0.929 . S
H679 C688 0.929 . S
C680 H674 0.930 . S
C680 C681 1.367 . S
C680 C688 1.378 . S
C681 C680 1.367 . S
C681 C689 1.433 1_556 S
C682 H678 0.929 . S
C682 C684 1.378 . S
C682 C686 1.350 . S
C683 C686 1.463 1_556 S
C683 C688 1.350 . S
C683 N691 1.427 1_556 S
C684 H675 0.930 . S
C684 C682 1.378 . S
C684 C685 1.367 . S
C685 C684 1.367 . S
C685 C687 1.433 1_554 S
C686 C682 1.350 . S
C686 C683 1.463 1_554 S
C686 N690 1.427 1_554 S
C687 H677 0.929 . S
C687 C685 1.433 1_556 S
C687 N690 1.384 . S
C688 H679 0.929 . S
C688 C680 1.378 . S
C688 C683 1.350 . S
C689 H676 0.929 . S
C689 C681 1.433 1_554 S
C689 N691 1.384 . S
N690 C686 1.427 1_556 S
N690 C687 1.384 . S
N691 C683 1.427 1_554 S
N691 C689 1.384 . S
H692 C698 0.930 . S
H693 C702 0.930 . S
H694 C707 0.929 . S
H695 C705 0.929 . S
H696 C700 0.929 . S
H697 C706 0.929 . S
C698 H692 0.930 . S
C698 C699 1.367 . S
C698 C706 1.378 . S
C699 C698 1.367 . S
C699 C707 1.433 . S
C700 H696 0.929 . S
C700 C702 1.378 . S
C700 C704 1.350 . S
C701 C704 1.463 1_654 S
C701 C706 1.350 . S
C701 N709 1.427 . S
C702 H693 0.930 . S
C702 C700 1.378 . S
C702 C703 1.367 . S
C703 C702 1.367 . S
C703 C705 1.433 . S
C704 C700 1.350 . S
C704 C701 1.463 1_456 S
C704 N708 1.427 . S
C705 H695 0.929 . S
C705 C703 1.433 . S
C705 N708 1.384 . S
C706 H697 0.929 . S
C706 C698 1.378 . S
C706 C701 1.350 . S
C707 H694 0.929 . S
C707 C699 1.433 . S
C707 N709 1.384 . S
N708 C704 1.427 . S
N708 C705 1.384 . S
N709 C701 1.427 . S
N709 C707 1.384 . S
H710 C716 0.930 . S
H711 C720 0.930 . S
H712 C725 0.929 . S
H713 C723 0.929 . S
H714 C718 0.929 . S
H715 C724 0.929 . S
C716 H710 0.930 . S
C716 C717 1.370 1_654 S
C716 C724 1.378 . S
C717 C716 1.370 1_456 S
C717 C725 1.430 . S
C718 H714 0.929 . S
C718 C720 1.378 . S
C718 C722 1.361 1_556 S
C719 C722 1.462 1_646 S
C719 C724 1.367 1_556 S
C719 N727 1.409 1_655 S
C720 H711 0.930 . S
C720 C718 1.378 . S
C720 C721 1.363 1_456 S
C721 C720 1.363 1_654 S
C721 C723 1.437 . S
C722 C718 1.361 1_554 S
C722 C719 1.462 1_464 S
C722 N726 1.416 1_455 S
C723 H713 0.929 . S
C723 C721 1.437 . S
C723 N726 1.384 . S
C724 H715 0.929 . S
C724 C716 1.378 . S
C724 C719 1.367 1_554 S
C725 H712 0.929 . S
C725 C717 1.430 . S
C725 N727 1.384 . S
N726 C722 1.416 1_655 S
N726 C723 1.384 . S
N727 C719 1.409 1_455 S
N727 C725 1.384 . S
H728 C734 0.930 . S
H729 C738 0.930 . S
H730 C743 0.929 . S
H731 C741 0.929 . S
H732 C736 0.929 . S
H733 C742 0.929 . S
C734 H728 0.930 . S
C734 C735 1.366 1_565 S
C734 C742 1.378 . S
C735 C734 1.366 1_545 S
C735 C743 1.434 . S
C736 H732 0.929 . S
C736 C738 1.378 . S
C736 C740 1.353 . S
C737 C740 1.462 1_465 S
C737 C742 1.358 . S
C737 N745 1.419 1_565 S
C738 H729 0.930 . S
C738 C736 1.378 . S
C738 C739 1.361 1_545 S
C739 C738 1.361 1_565 S
C739 C741 1.439 . S
C740 C736 1.353 . S
C740 C737 1.462 1_645 S
C740 N744 1.424 1_545 S
C741 H731 0.929 . S
C741 C739 1.439 . S
C741 N744 1.384 . S
C742 H733 0.929 . S
C742 C734 1.378 . S
C742 C737 1.358 . S
C743 H730 0.929 . S
C743 C735 1.434 . S
C743 N745 1.384 . S
N744 C740 1.424 1_565 S
N744 C741 1.384 . S
N745 C737 1.419 1_545 S
N745 C743 1.384 . S
H746 C752 0.930 . S
H747 C756 0.930 . S
H748 C761 0.929 . S
H749 C759 0.929 . S
H750 C754 0.929 . S
H751 C760 0.929 . S
C752 H746 0.930 . S
C752 C753 1.367 . S
C752 C760 1.378 . S
C753 C752 1.367 . S
C753 C761 1.433 . S
C754 H750 0.929 . S
C754 C756 1.378 . S
C754 C758 1.350 . S
C755 C758 1.463 1_565 S
C755 C760 1.350 . S
C755 N763 1.427 . S
C756 H747 0.930 . S
C756 C754 1.378 . S
C756 C757 1.367 . S
C757 C756 1.367 . S
C757 C759 1.433 . S
C758 C754 1.350 . S
C758 C755 1.463 1_545 S
C758 N762 1.427 . S
C759 H749 0.929 . S
C759 C757 1.433 . S
C759 N762 1.384 . S
C760 H751 0.929 . S
C760 C752 1.378 . S
C760 C755 1.350 . S
C761 H748 0.929 . S
C761 C753 1.433 . S
C761 N763 1.384 . S
N762 C758 1.427 . S
N762 C759 1.384 . S
N763 C755 1.427 . S
N763 C761 1.384 . S
H764 C770 0.930 . S
H765 C774 0.930 . S
H766 C779 0.929 . S
H767 C777 0.929 . S
H768 C772 0.929 . S
H769 C778 0.929 . S
C770 H764 0.930 . S
C770 C771 1.367 . S
C770 C778 1.378 . S
C771 C770 1.367 . S
C771 C779 1.433 . S
C772 H768 0.929 . S
C772 C774 1.378 . S
C772 C776 1.350 . S
C773 C776 1.463 . S
C773 C778 1.350 . S
C773 N781 1.427 . S
C774 H765 0.930 . S
C774 C772 1.378 . S
C774 C775 1.367 . S
C775 C774 1.367 . S
C775 C777 1.433 . S
C776 C772 1.350 . S
C776 C773 1.463 . S
C776 N780 1.427 . S
C777 H767 0.929 . S
C777 C775 1.433 . S
C777 N780 1.384 . S
C778 H769 0.929 . S
C778 C770 1.378 . S
C778 C773 1.350 . S
C779 H766 0.929 . S
C779 C771 1.433 . S
C779 N781 1.384 . S
N780 C776 1.427 . S
N780 C777 1.384 . S
N781 C773 1.427 . S
N781 C779 1.384 . S
H782 C788 0.930 . S
H783 C792 0.930 . S
H784 C797 0.929 . S
H785 C795 0.929 . S
H786 C790 0.929 . S
H787 C796 0.929 . S
C788 H782 0.930 . S
C788 C789 1.361 1_455 S
C788 C796 1.378 . S
C789 C788 1.361 1_655 S
C789 C797 1.440 . S
C790 H786 0.929 . S
C790 C792 1.378 . S
C790 C794 1.350 1_655 S
C791 C794 1.463 . S
C791 C796 1.350 . S
C791 N799 1.428 1_455 S
C792 H783 0.930 . S
C792 C790 1.378 . S
C792 C793 1.360 1_655 S
C793 C792 1.360 1_455 S
C793 C795 1.442 . S
C794 C790 1.350 1_455 S
C794 C791 1.463 . S
C794 N798 1.428 . S
C795 H785 0.929 . S
C795 C793 1.442 . S
C795 N798 1.384 . S
C796 H787 0.929 . S
C796 C788 1.378 . S
C796 C791 1.350 . S
C797 H784 0.929 . S
C797 C789 1.440 . S
C797 N799 1.384 . S
N798 C794 1.428 . S
N798 C795 1.384 . S
N799 C791 1.428 1_655 S
N799 C797 1.384 . S
C231 C82 0.812 . S
C235 C0 0.806 . S
C249 C97 1.034 . S
C253 C26 1.030 . S
C267 C40 0.823 . S
C271 C98 0.826 . S
C285 C42 0.546 . S
C289 C56 0.550 . S
C303 C112 0.827 . S
C307 C194 0.821 . S
C321 C196 1.044 . S
C325 C138 1.050 . S
C339 C211 0.826 . S
C343 C141 0.805 . S
C357 C155 0.555 . S
C361 C180 0.532 . S
C375 C1 1.879 1_556 S
C379 C168 1.887 1_565 S
C393 C182 2.030 . S
C397 C27 2.019 1_556 S
C411 C41 2.132 1_556 S
C415 C208 2.162 . S
C429 C43 1.958 1_556 S
C433 C223 1.972 1_655 S
C447 C57 1.959 . S
C451 C124 1.977 1_545 S
C465 C83 2.124 . S
C469 C126 2.161 . S
C483 C96 2.017 . S
C487 C153 2.036 . S
C501 C99 1.877 . S
C505 C167 1.879 1_455 S
C519 C68 1.882 1_545 S
C523 C113 1.882 1_554 S
C537 C70 2.036 . S
C541 C139 2.015 1_554 S
C555 C85 2.165 . S
C559 C140 2.125 1_554 S
C573 C154 1.958 1_554 S
C577 C110 1.974 1_455 S
C591 C12 1.978 1_565 S
C595 C181 1.964 . S
C609 C195 2.122 . S
C613 C14 2.164 . S
C627 C197 2.014 . S
C631 C28 2.029 . S
C645 C54 1.887 1_655 S
C649 C210 1.885 . S
C663 C125 1.469 . S
C667 C13 1.469 . S
C681 C127 1.550 . S
C685 C15 1.550 . S
C699 C29 1.859 . S
C703 C152 1.859 . S
C717 C166 1.718 . S
C721 C55 1.718 . S
C735 C69 1.711 . S
C739 C169 1.710 . S
C753 C183 1.860 . S
C757 C71 1.860 . S
C771 C209 1.558 . S
C775 C84 1.558 . S
C789 C222 1.469 . S
C793 C111 1.469 . S
