# Generated by pormake.
# Topology umr, (4)-cn, num edge types: 1
# Building blocks:
#     Node 0, Type 0, BuildingBlock: UXUYUI_clean_sbu_0, # of connection points: 4
#     Node 1, Type 0, BuildingBlock: UXUYUI_clean_sbu_0, # of connection points: 4
#     Node 2, Type 0, BuildingBlock: UXUYUI_clean_sbu_0, # of connection points: 4
#     Node 3, Type 0, BuildingBlock: UXUYUI_clean_sbu_0, # of connection points: 4
#     Node 4, Type 0, BuildingBlock: UXUYUI_clean_sbu_0, # of connection points: 4
#     Node 5, Type 0, BuildingBlock: UXUYUI_clean_sbu_0, # of connection points: 4
#     Node 6, Type 0, BuildingBlock: UXUYUI_clean_sbu_0, # of connection points: 4
#     Node 7, Type 0, BuildingBlock: UXUYUI_clean_sbu_0, # of connection points: 4
#     Node 8, Type 0, BuildingBlock: UXUYUI_clean_sbu_0, # of connection points: 4
#     Node 9, Type 0, BuildingBlock: UXUYUI_clean_sbu_0, # of connection points: 4
#     Node 10, Type 0, BuildingBlock: UXUYUI_clean_sbu_0, # of connection points: 4
#     Node 11, Type 0, BuildingBlock: UXUYUI_clean_sbu_0, # of connection points: 4
#     Node 12, Type 0, BuildingBlock: UXUYUI_clean_sbu_0, # of connection points: 4
#     Node 13, Type 0, BuildingBlock: UXUYUI_clean_sbu_0, # of connection points: 4
#     Node 14, Type 0, BuildingBlock: UXUYUI_clean_sbu_0, # of connection points: 4
#     Node 15, Type 0, BuildingBlock: UXUYUI_clean_sbu_0, # of connection points: 4
#     Node 16, Type 0, BuildingBlock: UXUYUI_clean_sbu_0, # of connection points: 4
#     Node 17, Type 0, BuildingBlock: UXUYUI_clean_sbu_0, # of connection points: 4
#     Node 18, Type 0, BuildingBlock: UXUYUI_clean_sbu_0, # of connection points: 4
#     Node 19, Type 0, BuildingBlock: UXUYUI_clean_sbu_0, # of connection points: 4
#     Node 20, Type 0, BuildingBlock: UXUYUI_clean_sbu_0, # of connection points: 4
#     Node 21, Type 0, BuildingBlock: UXUYUI_clean_sbu_0, # of connection points: 4
#     Node 22, Type 0, BuildingBlock: UXUYUI_clean_sbu_0, # of connection points: 4
#     Node 23, Type 0, BuildingBlock: UXUYUI_clean_sbu_0, # of connection points: 4
#     Node 24, Type 0, BuildingBlock: UXUYUI_clean_sbu_0, # of connection points: 4
#     Node 25, Type 0, BuildingBlock: UXUYUI_clean_sbu_0, # of connection points: 4
#     Node 26, Type 0, BuildingBlock: UXUYUI_clean_sbu_0, # of connection points: 4
#     Node 27, Type 0, BuildingBlock: UXUYUI_clean_sbu_0, # of connection points: 4
#     Node 28, Type 0, BuildingBlock: UXUYUI_clean_sbu_0, # of connection points: 4
#     Node 29, Type 0, BuildingBlock: UXUYUI_clean_sbu_0, # of connection points: 4
#     Node 30, Type 0, BuildingBlock: UXUYUI_clean_sbu_0, # of connection points: 4
#     Node 31, Type 0, BuildingBlock: UXUYUI_clean_sbu_0, # of connection points: 4
#     Edge 32, Type (0, 0), BuildingBlock: AJUNOK_clean_linker_0, # of connection points: 2
#     Edge 33, Type (0, 0), BuildingBlock: AJUNOK_clean_linker_0, # of connection points: 2
#     Edge 34, Type (0, 0), BuildingBlock: AJUNOK_clean_linker_0, # of connection points: 2
#     Edge 35, Type (0, 0), BuildingBlock: AJUNOK_clean_linker_0, # of connection points: 2
#     Edge 36, Type (0, 0), BuildingBlock: AJUNOK_clean_linker_0, # of connection points: 2
#     Edge 37, Type (0, 0), BuildingBlock: AJUNOK_clean_linker_0, # of connection points: 2
#     Edge 38, Type (0, 0), BuildingBlock: AJUNOK_clean_linker_0, # of connection points: 2
#     Edge 39, Type (0, 0), BuildingBlock: AJUNOK_clean_linker_0, # of connection points: 2
#     Edge 40, Type (0, 0), BuildingBlock: AJUNOK_clean_linker_0, # of connection points: 2
#     Edge 41, Type (0, 0), BuildingBlock: AJUNOK_clean_linker_0, # of connection points: 2
#     Edge 42, Type (0, 0), BuildingBlock: AJUNOK_clean_linker_0, # of connection points: 2
#     Edge 43, Type (0, 0), BuildingBlock: AJUNOK_clean_linker_0, # of connection points: 2
#     Edge 44, Type (0, 0), BuildingBlock: AJUNOK_clean_linker_0, # of connection points: 2
#     Edge 45, Type (0, 0), BuildingBlock: AJUNOK_clean_linker_0, # of connection points: 2
#     Edge 46, Type (0, 0), BuildingBlock: AJUNOK_clean_linker_0, # of connection points: 2
#     Edge 47, Type (0, 0), BuildingBlock: AJUNOK_clean_linker_0, # of connection points: 2
#     Edge 48, Type (0, 0), BuildingBlock: AJUNOK_clean_linker_0, # of connection points: 2
#     Edge 49, Type (0, 0), BuildingBlock: AJUNOK_clean_linker_0, # of connection points: 2
#     Edge 50, Type (0, 0), BuildingBlock: AJUNOK_clean_linker_0, # of connection points: 2
#     Edge 51, Type (0, 0), BuildingBlock: AJUNOK_clean_linker_0, # of connection points: 2
#     Edge 52, Type (0, 0), BuildingBlock: AJUNOK_clean_linker_0, # of connection points: 2
#     Edge 53, Type (0, 0), BuildingBlock: AJUNOK_clean_linker_0, # of connection points: 2
#     Edge 54, Type (0, 0), BuildingBlock: AJUNOK_clean_linker_0, # of connection points: 2
#     Edge 55, Type (0, 0), BuildingBlock: AJUNOK_clean_linker_0, # of connection points: 2
#     Edge 56, Type (0, 0), BuildingBlock: AJUNOK_clean_linker_0, # of connection points: 2
#     Edge 57, Type (0, 0), BuildingBlock: AJUNOK_clean_linker_0, # of connection points: 2
#     Edge 58, Type (0, 0), BuildingBlock: AJUNOK_clean_linker_0, # of connection points: 2
#     Edge 59, Type (0, 0), BuildingBlock: AJUNOK_clean_linker_0, # of connection points: 2
#     Edge 60, Type (0, 0), BuildingBlock: AJUNOK_clean_linker_0, # of connection points: 2
#     Edge 61, Type (0, 0), BuildingBlock: AJUNOK_clean_linker_0, # of connection points: 2
#     Edge 62, Type (0, 0), BuildingBlock: AJUNOK_clean_linker_0, # of connection points: 2
#     Edge 63, Type (0, 0), BuildingBlock: AJUNOK_clean_linker_0, # of connection points: 2
#     Edge 64, Type (0, 0), BuildingBlock: AJUNOK_clean_linker_0, # of connection points: 2
#     Edge 65, Type (0, 0), BuildingBlock: AJUNOK_clean_linker_0, # of connection points: 2
#     Edge 66, Type (0, 0), BuildingBlock: AJUNOK_clean_linker_0, # of connection points: 2
#     Edge 67, Type (0, 0), BuildingBlock: AJUNOK_clean_linker_0, # of connection points: 2
#     Edge 68, Type (0, 0), BuildingBlock: AJUNOK_clean_linker_0, # of connection points: 2
#     Edge 69, Type (0, 0), BuildingBlock: AJUNOK_clean_linker_0, # of connection points: 2
#     Edge 70, Type (0, 0), BuildingBlock: AJUNOK_clean_linker_0, # of connection points: 2
#     Edge 71, Type (0, 0), BuildingBlock: AJUNOK_clean_linker_0, # of connection points: 2
#     Edge 72, Type (0, 0), BuildingBlock: AJUNOK_clean_linker_0, # of connection points: 2
#     Edge 73, Type (0, 0), BuildingBlock: AJUNOK_clean_linker_0, # of connection points: 2
#     Edge 74, Type (0, 0), BuildingBlock: AJUNOK_clean_linker_0, # of connection points: 2
#     Edge 75, Type (0, 0), BuildingBlock: AJUNOK_clean_linker_0, # of connection points: 2
#     Edge 76, Type (0, 0), BuildingBlock: AJUNOK_clean_linker_0, # of connection points: 2
#     Edge 77, Type (0, 0), BuildingBlock: AJUNOK_clean_linker_0, # of connection points: 2
#     Edge 78, Type (0, 0), BuildingBlock: AJUNOK_clean_linker_0, # of connection points: 2
#     Edge 79, Type (0, 0), BuildingBlock: AJUNOK_clean_linker_0, # of connection points: 2
#     Edge 80, Type (0, 0), BuildingBlock: AJUNOK_clean_linker_0, # of connection points: 2
#     Edge 81, Type (0, 0), BuildingBlock: AJUNOK_clean_linker_0, # of connection points: 2
#     Edge 82, Type (0, 0), BuildingBlock: AJUNOK_clean_linker_0, # of connection points: 2
#     Edge 83, Type (0, 0), BuildingBlock: AJUNOK_clean_linker_0, # of connection points: 2
#     Edge 84, Type (0, 0), BuildingBlock: AJUNOK_clean_linker_0, # of connection points: 2
#     Edge 85, Type (0, 0), BuildingBlock: AJUNOK_clean_linker_0, # of connection points: 2
#     Edge 86, Type (0, 0), BuildingBlock: AJUNOK_clean_linker_0, # of connection points: 2
#     Edge 87, Type (0, 0), BuildingBlock: AJUNOK_clean_linker_0, # of connection points: 2
#     Edge 88, Type (0, 0), BuildingBlock: AJUNOK_clean_linker_0, # of connection points: 2
#     Edge 89, Type (0, 0), BuildingBlock: AJUNOK_clean_linker_0, # of connection points: 2
#     Edge 90, Type (0, 0), BuildingBlock: AJUNOK_clean_linker_0, # of connection points: 2
#     Edge 91, Type (0, 0), BuildingBlock: AJUNOK_clean_linker_0, # of connection points: 2
#     Edge 92, Type (0, 0), BuildingBlock: AJUNOK_clean_linker_0, # of connection points: 2
#     Edge 93, Type (0, 0), BuildingBlock: AJUNOK_clean_linker_0, # of connection points: 2
#     Edge 94, Type (0, 0), BuildingBlock: AJUNOK_clean_linker_0, # of connection points: 2
#     Edge 95, Type (0, 0), BuildingBlock: AJUNOK_clean_linker_0, # of connection points: 2
# Relax obj value: 0.219
# Max RMSD: 0.163
# Mean RMSD: 0.162
data_MOF--net-umr--node1-UXUYUI_clean_sbu_0--edge1-AJUNOK_clean_linker_0
_symmetry_space_group_name_H-M    P1
_symmetry_Int_Tables_number       1
_symmetry_cell_setting            triclinic
loop_
_symmetry_equiv_pos_as_xyz
'x, y, z'
_cell_length_a     105.05409
_cell_length_b     105.05855
_cell_length_c     29.523386
_cell_angle_alpha  90.002626
_cell_angle_beta   90.008807
_cell_angle_gamma 90.002712
loop_
_atom_site_label
_atom_site_type_symbol
_atom_site_fract_x
_atom_site_fract_y
_atom_site_fract_z
_atom_type_partial_charge
Li0 Li 0.15758 0.3098 0.06482 0.0
Li1 Li 0.16572 0.28956 0.09197 0.0
Li2 Li 0.17988 0.30416 0.04641 0.0
Li3 Li 0.16269 0.29186 0.01165 0.0
C4 C 0.17567 0.31637 0.13617 0.0
N5 N 0.1833 0.33531 0.1954 0.0
C6 C 0.1728 0.31548 0.18233 0.0
C7 C 0.18272 0.32676 0.12047 0.0
C8 C 0.17665 0.32519 0.21163 0.0
C9 C 0.18641 0.33627 0.15083 0.0
C10 C 0.14094 0.2857 0.08385 0.0
C11 C 0.13272 0.26537 0.10804 0.0
N12 N 0.12434 0.27143 0.13577 0.0
C13 C 0.13218 0.29173 0.11229 0.0
C14 C 0.14114 0.27242 0.08137 0.0
C15 C 0.12389 0.28435 0.13835 0.0
C16 C 0.13967 0.32926 0.04539 0.0
N17 N 0.14607 0.32321 0.07913 0.0
C18 C 0.1354 0.33567 0.13518 0.0
C19 C 0.14401 0.32612 0.12338 0.0
C20 C 0.12883 0.34225 0.10107 0.0
C21 C 0.131 0.33891 0.05565 0.0
H22 H 0.14126 0.32655 0.01052 0.0
H23 H 0.1488 0.32081 0.1496 0.0
C24 C 0.17115 0.26707 0.14289 0.0
N25 N 0.16493 0.27842 0.14273 0.0
C26 C 0.17039 0.25908 0.18064 0.0
C27 C 0.15693 0.27466 0.21725 0.0
C28 C 0.15786 0.28228 0.17874 0.0
C29 C 0.16331 0.26295 0.21853 0.0
H30 H 0.17676 0.26427 0.11388 0.0
H31 H 0.15288 0.29127 0.17743 0.0
C32 C 0.16791 0.32166 0.98236 0.0
N33 N 0.171 0.34452 0.93718 0.0
C34 C 0.16818 0.32196 0.93502 0.0
C35 C 0.16899 0.33304 0.00662 0.0
C36 C 0.16982 0.33359 0.91282 0.0
C37 C 0.17059 0.34448 0.98322 0.0
C38 C 0.18242 0.27614 0.01477 0.0
C39 C 0.19267 0.27872 0.98597 0.0
C40 C 0.17649 0.26424 0.01298 0.0
C41 C 0.1967 0.2694 0.95544 0.0
C42 C 0.18078 0.25518 0.98187 0.0
N43 N 0.19071 0.25793 0.95397 0.0
C44 C 0.20575 0.30522 0.06739 0.0
C45 C 0.20048 0.31624 -0.00013 0.0
C46 C 0.21871 0.30719 0.05958 0.0
N47 N 0.19697 0.30955 0.03728 0.0
C48 C 0.21332 0.31851 0.99093 0.0
C49 C 0.22263 0.31365 0.02032 0.0
H50 H 0.20268 0.29979 0.09654 0.0
H51 H 0.1934 0.3194 0.97598 0.0
C52 C 0.14936 0.27474 0.95236 0.0
N53 N 0.15894 0.28338 0.95633 0.0
C54 C 0.14808 0.26761 0.91259 0.0
C55 C 0.16627 0.2787 0.88162 0.0
C56 C 0.16722 0.28556 0.92185 0.0
C57 C 0.15667 0.26953 0.87676 0.0
H58 H 0.14296 0.27314 0.98041 0.0
H59 H 0.17492 0.29226 0.92643 0.0
O60 O 0.17209 0.30683 0.1071 0.0
O61 O 0.14929 0.29277 0.0587 0.0
O62 O 0.16633 0.31032 0.00456 0.0
O63 O 0.17811 0.28527 0.04409 0.0
H64 H 0.1676 0.30742 0.19548 0.0
H65 H 0.18548 0.32745 0.08536 0.0
H66 H 0.17437 0.32466 0.24732 0.0
H67 H 0.19181 0.34438 0.13898 0.0
H68 H 0.13286 0.25508 0.10677 0.0
H69 H 0.13181 0.30199 0.11439 0.0
H70 H 0.14785 0.26759 0.0596 0.0
H71 H 0.11711 0.28889 0.16069 0.0
H72 H 0.13369 0.33767 0.17065 0.0
H73 H 0.12605 0.34372 0.02839 0.0
H74 H 0.17544 0.25009 0.18062 0.0
H75 H 0.15124 0.27785 0.24566 0.0
H76 H 0.16713 0.31333 0.91551 0.0
H77 H 0.16833 0.3331 0.04307 0.0
H78 H 0.17012 0.33394 0.87622 0.0
H79 H 0.17143 0.35334 0.00165 0.0
H80 H 0.19737 0.28787 0.98673 0.0
H81 H 0.16856 0.26206 0.03494 0.0
H82 H 0.20456 0.2713 0.93276 0.0
H83 H 0.1762 0.24598 0.97985 0.0
H84 H 0.22559 0.30323 0.08295 0.0
H85 H 0.21595 0.32373 0.96072 0.0
H86 H 0.14058 0.26058 0.91005 0.0
H87 H 0.17328 0.28022 0.85528 0.0
Li88 Li 0.95847 0.91598 0.3421 0.0
Li89 Li 0.93904 0.9086 0.31153 0.0
Li90 Li 0.95664 0.91343 0.26175 0.0
Li91 Li 0.94413 0.93092 0.29832 0.0
C92 C 0.96311 0.89238 0.33525 0.0
N93 N 0.97822 0.87821 0.39312 0.0
C94 C 0.95766 0.88582 0.37164 0.0
C95 C 0.97627 0.89172 0.32841 0.0
C96 C 0.96545 0.8787 0.40043 0.0
C97 C 0.98374 0.88452 0.35804 0.0
C98 C 0.93046 0.922 0.38391 0.0
C99 C 0.91074 0.93138 0.40925 0.0
N100 N 0.90886 0.9213 0.43734 0.0
C101 C 0.92835 0.91176 0.41326 0.0
C102 C 0.9216 0.93192 0.382 0.0
C103 C 0.91736 0.91156 0.43988 0.0
C104 C 0.98214 0.9188 0.38918 0.0
N105 N 0.96973 0.9153 0.39319 0.0
C106 C 0.97288 0.9097 0.47084 0.0
C107 C 0.96499 0.91099 0.43316 0.0
C108 C 0.98579 0.91296 0.46747 0.0
C109 C 0.9904 0.91768 0.4261 0.0
H110 H 0.98566 0.92239 0.35733 0.0
H111 H 0.95512 0.90832 0.43565 0.0
C112 C 0.92719 0.88453 0.31651 0.0
N113 N 0.92488 0.89724 0.31932 0.0
C114 C 0.91757 0.87579 0.32628 0.0
C115 C 0.90313 0.89335 0.33867 0.0
C116 C 0.91299 0.90174 0.3281 0.0
C117 C 0.90549 0.88022 0.33888 0.0
H118 H 0.93658 0.88117 0.30758 0.0
H119 H 0.91121 0.91187 0.32811 0.0
C120 C 0.97203 0.9333 0.26581 0.0
N121 N 0.98973 0.9421 0.20395 0.0
C122 C 0.96952 0.94422 0.24026 0.0
C123 C 0.9836 0.92691 0.26006 0.0
C124 C 0.97858 0.94851 0.20917 0.0
C125 C 0.9924 0.93148 0.22853 0.0
C126 C 0.92927 0.91207 0.23021 0.0
C127 C 0.93205 0.90061 0.20827 0.0
C128 C 0.91684 0.9168 0.22968 0.0
C129 C 0.9223 0.89405 0.18612 0.0
C130 C 0.90736 0.90995 0.20715 0.0
N131 N 0.91026 0.89882 0.18603 0.0
C132 C 0.97312 0.90015 0.19974 0.0
C133 C 0.96267 0.91858 0.1721 0.0
C134 C 0.98 0.89903 0.15939 0.0
N135 N 0.9649 0.91 0.20562 0.0
C136 C 0.96933 0.91784 0.13136 0.0
C137 C 0.97824 0.90806 0.12483 0.0
H138 H 0.97455 0.89332 0.22658 0.0
H139 H 0.95604 0.92629 0.17776 0.0
C140 C 0.94311 0.9569 0.31911 0.0
N141 N 0.93863 0.94789 0.29021 0.0
C142 C 0.94081 0.96976 0.31063 0.0
C143 C 0.92898 0.96378 0.24364 0.0
C144 C 0.93159 0.95103 0.25324 0.0
C145 C 0.93378 0.97335 0.27217 0.0
H146 H 0.94893 0.95409 0.34765 0.0
H147 H 0.92844 0.94368 0.23024 0.0
O148 O 0.95568 0.8997 0.30738 0.0
O149 O 0.94119 0.92245 0.35762 0.0
O150 O 0.96313 0.92876 0.29565 0.0
O151 O 0.93862 0.91843 0.25312 0.0
H152 H 0.94756 0.88641 0.37823 0.0
H153 H 0.98072 0.89691 0.30112 0.0
H154 H 0.96135 0.87364 0.42882 0.0
H155 H 0.99393 0.88402 0.35329 0.0
H156 H 0.9038 0.93898 0.408 0.0
H157 H 0.9349 0.90384 0.41451 0.0
H158 H 0.92306 0.93993 0.35963 0.0
H159 H 0.91554 0.90362 0.46229 0.0
H160 H 0.96896 0.90601 0.50213 0.0
H161 H 0.00024 0.92059 0.42245 0.0
H162 H 0.91966 0.8657 0.32549 0.0
H163 H 0.89381 0.89707 0.3471 0.0
H164 H 0.96063 0.94929 0.24397 0.0
H165 H 0.98566 0.91835 0.27896 0.0
H166 H 0.97673 0.95692 0.18906 0.0
H167 H 0.00132 0.92654 0.22343 0.0
H168 H 0.9416 0.89675 0.20882 0.0
H169 H 0.9145 0.92556 0.24708 0.0
H170 H 0.92429 0.88515 0.16915 0.0
H171 H 0.89768 0.91346 0.20665 0.0
H172 H 0.98673 0.8913 0.15543 0.0
H173 H 0.96787 0.92513 0.10595 0.0
H174 H 0.94502 0.97682 0.33275 0.0
H175 H 0.92358 0.96616 0.21356 0.0
Li176 Li 0.33266 0.70911 0.59898 0.0
Li177 Li 0.34097 0.69016 0.56121 0.0
Li178 Li 0.33675 0.70819 0.51792 0.0
Li179 Li 0.31892 0.69508 0.54488 0.0
C180 C 0.35871 0.71465 0.55475 0.0
N181 N 0.37822 0.73036 0.52632 0.0
C182 C 0.3675 0.71033 0.52275 0.0
C183 C 0.35992 0.72689 0.57273 0.0
C184 C 0.37727 0.71843 0.50867 0.0
C185 C 0.36983 0.73471 0.55782 0.0
C186 C 0.32812 0.6802 0.62939 0.0
C187 C 0.32393 0.65791 0.64157 0.0
N188 N 0.33235 0.65792 0.6766 0.0
C189 C 0.33664 0.68004 0.66572 0.0
C190 C 0.32165 0.66909 0.61728 0.0
C191 C 0.33869 0.66865 0.68907 0.0
C192 C 0.32294 0.72644 0.66408 0.0
N193 N 0.33291 0.71885 0.65275 0.0
C194 C 0.3444 0.7253 0.71868 0.0
C195 C 0.34348 0.71809 0.67912 0.0
C196 C 0.33431 0.73334 0.73115 0.0
C197 C 0.32348 0.73389 0.70322 0.0
H198 H 0.31464 0.72681 0.64245 0.0
H199 H 0.35125 0.71194 0.66915 0.0
C200 C 0.35024 0.66416 0.56646 0.0
N201 N 0.35282 0.67669 0.57377 0.0
C202 C 0.35905 0.65483 0.57894 0.0
C203 C 0.37279 0.6714 0.60767 0.0
C204 C 0.36381 0.68039 0.59418 0.0
C205 C 0.37053 0.65843 0.5997 0.0
H206 H 0.34126 0.66134 0.5519 0.0
H207 H 0.36549 0.69035 0.60109 0.0
C208 C 0.31709 0.7246 0.52613 0.0
N209 N 0.30975 0.74589 0.47779 0.0
C210 C 0.3109 0.72327 0.48449 0.0
C211 C 0.31951 0.73677 0.54326 0.0
C212 C 0.30729 0.73415 0.46051 0.0
C213 C 0.31572 0.74741 0.5183 0.0
C214 C 0.33597 0.67959 0.48074 0.0
C215 C 0.34804 0.67865 0.46118 0.0
C216 C 0.32763 0.66924 0.47862 0.0
C217 C 0.35166 0.66727 0.44035 0.0
C218 C 0.33159 0.65803 0.45737 0.0
N219 N 0.34343 0.65729 0.43891 0.0
C220 C 0.34009 0.71309 0.42505 0.0
C221 C 0.34343 0.73118 0.4716 0.0
C222 C 0.34086 0.72059 0.38612 0.0
N223 N 0.34111 0.71851 0.46673 0.0
C224 C 0.34411 0.73905 0.43362 0.0
C225 C 0.3425 0.73378 0.39037 0.0
H226 H 0.33803 0.70306 0.42202 0.0
H227 H 0.34402 0.73532 0.50498 0.0
C228 C 0.29323 0.6886 0.56426 0.0
N229 N 0.30208 0.69002 0.53103 0.0
C230 C 0.28042 0.68685 0.55299 0.0
C231 C 0.28621 0.68769 0.47374 0.0
C232 C 0.29888 0.68931 0.48649 0.0
C233 C 0.27679 0.68677 0.50722 0.0
H234 H 0.29606 0.68934 0.59939 0.0
H235 H 0.30613 0.69054 0.46086 0.0
O236 O 0.34908 0.70685 0.56888 0.0
O237 O 0.32623 0.69115 0.60536 0.0
O238 O 0.32087 0.71406 0.54983 0.0
O239 O 0.33222 0.69068 0.50097 0.0
H240 H 0.36678 0.70082 0.50896 0.0
H241 H 0.35318 0.7304 0.59746 0.0
H242 H 0.38411 0.71524 0.48375 0.0
H243 H 0.37083 0.74424 0.57118 0.0
H244 H 0.31906 0.64921 0.63244 0.0
H245 H 0.34174 0.68857 0.67537 0.0
H246 H 0.31506 0.66908 0.5891 0.0
H247 H 0.34534 0.66834 0.71702 0.0
H248 H 0.35288 0.72457 0.73939 0.0
H249 H 0.31561 0.74016 0.71109 0.0
H250 H 0.35688 0.64492 0.57254 0.0
H251 H 0.3813 0.67457 0.62504 0.0
H252 H 0.30909 0.71394 0.47049 0.0
H253 H 0.32445 0.73799 0.57511 0.0
H254 H 0.30258 0.73325 0.42808 0.0
H255 H 0.31759 0.75689 0.53102 0.0
H256 H 0.35455 0.68663 0.46209 0.0
H257 H 0.31826 0.66978 0.49369 0.0
H258 H 0.361 0.66639 0.42527 0.0
H259 H 0.32527 0.64992 0.45572 0.0
H260 H 0.3395 0.71625 0.35319 0.0
H261 H 0.34544 0.7492 0.43803 0.0
H262 H 0.27336 0.68622 0.57964 0.0
H263 H 0.28373 0.68758 0.43812 0.0
Li264 Li 0.56108 0.09116 0.81095 0.0
Li265 Li 0.54113 0.08435 0.84446 0.0
Li266 Li 0.55411 0.0689 0.79767 0.0
Li267 Li 0.54245 0.08639 0.76369 0.0
C268 C 0.56546 0.07843 0.89487 0.0
N269 N 0.58001 0.0808 0.97244 0.0
C270 C 0.56601 0.09004 0.91784 0.0
C271 C 0.57246 0.06806 0.91103 0.0
C272 C 0.57338 0.09105 0.95707 0.0
C273 C 0.57971 0.06944 0.9504 0.0
C274 C 0.53792 0.10919 0.83317 0.0
C275 C 0.51814 0.11862 0.85771 0.0
N276 N 0.52474 0.12711 0.88334 0.0
C277 C 0.54451 0.11805 0.85971 0.0
C278 C 0.52462 0.10953 0.83206 0.0
C279 C 0.53768 0.12701 0.88482 0.0
C280 C 0.57424 0.11413 0.8024 0.0
N281 N 0.57548 0.10208 0.8185 0.0
C282 C 0.59533 0.10736 0.85334 0.0
C283 C 0.58604 0.09841 0.84175 0.0
C284 C 0.59375 0.12011 0.84035 0.0
C285 C 0.58331 0.12336 0.81303 0.0
H286 H 0.56588 0.11672 0.78311 0.0
H287 H 0.58702 0.08869 0.85312 0.0
C288 C 0.52013 0.07754 0.89979 0.0
N289 N 0.53034 0.08548 0.89698 0.0
C290 C 0.51195 0.07812 0.9371 0.0
C291 C 0.52503 0.09485 0.96838 0.0
C292 C 0.53289 0.09401 0.93046 0.0
C293 C 0.51445 0.0868 0.97209 0.0
H294 H 0.51835 0.07071 0.87316 0.0
H295 H 0.54094 0.10028 0.92781 0.0
C296 C 0.57271 0.07868 0.73972 0.0
N297 N 0.59735 0.07325 0.71344 0.0
C298 C 0.57684 0.08177 0.69611 0.0
C299 C 0.5811 0.07282 0.76998 0.0
C300 C 0.58934 0.07895 0.68346 0.0
C301 C 0.59353 0.07016 0.75605 0.0
C302 C 0.52541 0.06839 0.77166 0.0
C303 C 0.52686 0.05886 0.73905 0.0
C304 C 0.51372 0.07466 0.77568 0.0
C305 C 0.51668 0.05591 0.71046 0.0
C306 C 0.50377 0.07146 0.74643 0.0
N307 N 0.50545 0.06224 0.71464 0.0
C308 C 0.55819 0.0433 0.82394 0.0
C309 C 0.56139 0.04761 0.74596 0.0
C310 C 0.56024 0.03032 0.81667 0.0
N311 N 0.55875 0.0516 0.78874 0.0
C312 C 0.56334 0.03471 0.73706 0.0
C313 C 0.56268 0.02585 0.77261 0.0
H314 H 0.55575 0.04671 0.85739 0.0
H315 H 0.56141 0.05438 0.71837 0.0
C316 C 0.52414 0.0985 0.70503 0.0
N317 N 0.53375 0.08989 0.70853 0.0
C318 C 0.51704 0.09933 0.66508 0.0
C319 C 0.53018 0.08276 0.63277 0.0
C320 C 0.53701 0.08226 0.67321 0.0
C321 C 0.51996 0.09127 0.62853 0.0
H322 H 0.52175 0.10447 0.73354 0.0
H323 H 0.5446 0.0754 0.67721 0.0
O324 O 0.55853 0.0773 0.85581 0.0
O325 O 0.54443 0.10028 0.80844 0.0
O326 O 0.5605 0.08143 0.75248 0.0
O327 O 0.53542 0.07172 0.7989 0.0
H328 H 0.56119 0.09831 0.90459 0.0
H329 H 0.57238 0.05907 0.8932 0.0
H330 H 0.57394 0.10001 0.975 0.0
H331 H 0.58516 0.06148 0.9633 0.0
H332 H 0.50784 0.11891 0.85733 0.0
H333 H 0.55477 0.11791 0.86161 0.0
H334 H 0.51934 0.10273 0.81211 0.0
H335 H 0.54267 0.13386 0.90566 0.0
H336 H 0.60334 0.10445 0.874 0.0
H337 H 0.58197 0.13302 0.80114 0.0
H338 H 0.50388 0.07171 0.93897 0.0
H339 H 0.52716 0.1018 0.99441 0.0
H340 H 0.57044 0.0863 0.67231 0.0
H341 H 0.57808 0.07033 0.80382 0.0
H342 H 0.59267 0.08129 0.6498 0.0
H343 H 0.60012 0.06563 0.77912 0.0
H344 H 0.5358 0.05389 0.73539 0.0
H345 H 0.51237 0.08199 0.80088 0.0
H346 H 0.51772 0.04863 0.68481 0.0
H347 H 0.49472 0.07632 0.74894 0.0
H348 H 0.55961 0.02381 0.84502 0.0
H349 H 0.56478 0.03168 0.70239 0.0
H350 H 0.50923 0.10603 0.663 0.0
H351 H 0.53256 0.07619 0.6058 0.0
Li352 Li 0.16228 0.709 0.48774 0.0
Li353 Li 0.1796 0.69698 0.4472 0.0
Li354 Li 0.1634 0.71105 0.4068 0.0
Li355 Li 0.15725 0.6913 0.43874 0.0
C356 C 0.18152 0.72521 0.47873 0.0
N357 N 0.19064 0.74371 0.53694 0.0
C358 C 0.19287 0.72326 0.5025 0.0
C359 C 0.17492 0.73666 0.48414 0.0
C360 C 0.1973 0.73271 0.53183 0.0
C361 C 0.17964 0.74587 0.51387 0.0
C362 C 0.16328 0.68087 0.51708 0.0
C363 C 0.16414 0.65856 0.53586 0.0
N364 N 0.15318 0.65983 0.56003 0.0
C365 C 0.15207 0.68198 0.54224 0.0
C366 C 0.1694 0.6691 0.51392 0.0
C367 C 0.1471 0.67121 0.56366 0.0
C368 C 0.14943 0.72489 0.55264 0.0
N369 N 0.15954 0.71715 0.54444 0.0
C370 C 0.16847 0.72194 0.61686 0.0
C371 C 0.16881 0.71535 0.5759 0.0
C372 C 0.15836 0.73031 0.62582 0.0
C373 C 0.14868 0.73166 0.59332 0.0
H374 H 0.14208 0.72599 0.52739 0.0
H375 H 0.17672 0.7091 0.56842 0.0
C376 C 0.20485 0.69349 0.41647 0.0
N377 N 0.19682 0.6919 0.45208 0.0
C378 C 0.2179 0.69147 0.42194 0.0
C379 C 0.21409 0.68603 0.50035 0.0
C380 C 0.2011 0.68798 0.49321 0.0
C381 C 0.22271 0.6881 0.46474 0.0
H382 H 0.20115 0.6967 0.38422 0.0
H383 H 0.19449 0.68699 0.52107 0.0
C384 C 0.13949 0.71498 0.42088 0.0
N385 N 0.12286 0.72992 0.3713 0.0
C386 C 0.13143 0.70943 0.38873 0.0
C387 C 0.13904 0.72814 0.42779 0.0
C388 C 0.12309 0.71714 0.36408 0.0
C389 C 0.13061 0.73552 0.40235 0.0
C390 C 0.16877 0.68401 0.36054 0.0
C391 C 0.15768 0.68277 0.33473 0.0
C392 C 0.17845 0.67496 0.35622 0.0
C393 C 0.15641 0.67244 0.30527 0.0
C394 C 0.17684 0.66479 0.32627 0.0
N395 N 0.16594 0.66374 0.30167 0.0
C396 C 0.16816 0.73385 0.35824 0.0
C397 C 0.15443 0.71941 0.32065 0.0
C398 C 0.16718 0.74248 0.32242 0.0
N399 N 0.16176 0.7226 0.3569 0.0
C400 C 0.15307 0.7278 0.28435 0.0
C401 C 0.15948 0.73949 0.28505 0.0
H402 H 0.17413 0.73609 0.38691 0.0
H403 H 0.14961 0.71037 0.3198 0.0
C404 C 0.13366 0.67838 0.43961 0.0
N405 N 0.14635 0.67671 0.43273 0.0
C406 C 0.12513 0.66854 0.43021 0.0
C407 C 0.14295 0.65511 0.41038 0.0
C408 C 0.15114 0.66516 0.4206 0.0
C409 C 0.12976 0.6569 0.4139 0.0
H410 H 0.13013 0.68747 0.45128 0.0
H411 H 0.16129 0.66385 0.41754 0.0
O412 O 0.17684 0.71591 0.45077 0.0
O413 O 0.16809 0.69122 0.49495 0.0
O414 O 0.14787 0.70762 0.44498 0.0
O415 O 0.17021 0.69403 0.38975 0.0
H416 H 0.19818 0.71453 0.49862 0.0
H417 H 0.16618 0.73839 0.46594 0.0
H418 H 0.20603 0.73128 0.55061 0.0
H419 H 0.17455 0.75471 0.51867 0.0
H420 H 0.16873 0.64937 0.53354 0.0
H421 H 0.1472 0.69104 0.54478 0.0
H422 H 0.17806 0.6681 0.49432 0.0
H423 H 0.1384 0.6719 0.58307 0.0
H424 H 0.17625 0.72082 0.64057 0.0
H425 H 0.14069 0.73797 0.59916 0.0
H426 H 0.22418 0.69285 0.39329 0.0
H427 H 0.2174 0.6835 0.53392 0.0
H428 H 0.13176 0.69933 0.38204 0.0
H429 H 0.14524 0.73265 0.45212 0.0
H430 H 0.11687 0.71297 0.33893 0.0
H431 H 0.13024 0.74572 0.40723 0.0
H432 H 0.14996 0.68947 0.3384 0.0
H433 H 0.18707 0.67572 0.37604 0.0
H434 H 0.14781 0.67129 0.28552 0.0
H435 H 0.18424 0.6577 0.32272 0.0
H436 H 0.17235 0.75139 0.32389 0.0
H437 H 0.14727 0.72505 0.25562 0.0
H438 H 0.11501 0.67018 0.43401 0.0
H439 H 0.14686 0.6461 0.39915 0.0
Li440 Li 0.54101 0.91178 0.73532 0.0
Li441 Li 0.55279 0.92914 0.70061 0.0
Li442 Li 0.53881 0.91427 0.65441 0.0
Li443 Li 0.5593 0.90698 0.68338 0.0
C444 C 0.52388 0.93026 0.7284 0.0
N445 N 0.50383 0.93681 0.78442 0.0
C446 C 0.52502 0.94052 0.75828 0.0
C447 C 0.51243 0.9235 0.72641 0.0
C448 C 0.5148 0.94365 0.78644 0.0
C449 C 0.50244 0.9269 0.75519 0.0
C450 C 0.57057 0.91922 0.76389 0.0
C451 C 0.59299 0.92412 0.76001 0.0
N452 N 0.59321 0.92572 0.80571 0.0
C453 C 0.57108 0.92074 0.81091 0.0
C454 C 0.58165 0.92078 0.73832 0.0
C455 C 0.58259 0.92411 0.83138 0.0
C456 C 0.52411 0.89825 0.79477 0.0
N457 N 0.53245 0.90807 0.79039 0.0
C458 C 0.52715 0.91583 0.86401 0.0
C459 C 0.53422 0.91665 0.82422 0.0
C460 C 0.51812 0.90609 0.86893 0.0
C461 C 0.51679 0.89707 0.8341 0.0
H462 H 0.52289 0.89156 0.76733 0.0
H463 H 0.54074 0.9245 0.81937 0.0
C464 C 0.55855 0.95484 0.67678 0.0
N465 N 0.55788 0.94627 0.71125 0.0
C466 C 0.56083 0.96769 0.68598 0.0
C467 C 0.5617 0.96263 0.7658 0.0
C468 C 0.55953 0.94989 0.75507 0.0
C469 C 0.56222 0.97171 0.73107 0.0
H470 H 0.55688 0.95175 0.64233 0.0
H471 H 0.55851 0.943 0.78193 0.0
C472 C 0.53599 0.88889 0.66648 0.0
N473 N 0.52284 0.8702 0.62 0.0
C474 C 0.54259 0.87966 0.64177 0.0
C475 C 0.5227 0.88846 0.66817 0.0
C476 C 0.53577 0.87032 0.61836 0.0
C477 C 0.51622 0.87899 0.64425 0.0
C478 C 0.56506 0.92391 0.60843 0.0
C479 C 0.56354 0.91967 0.56387 0.0
C480 C 0.57564 0.93135 0.61957 0.0
C481 C 0.57283 0.92256 0.53163 0.0
C482 C 0.58472 0.93407 0.58637 0.0
N483 N 0.58315 0.92963 0.54347 0.0
C484 C 0.5171 0.9202 0.60106 0.0
C485 C 0.53058 0.90426 0.57067 0.0
C486 C 0.50878 0.91898 0.56438 0.0
N487 N 0.52769 0.91282 0.60365 0.0
C488 C 0.52254 0.90271 0.53346 0.0
C489 C 0.51144 0.91008 0.53015 0.0
H490 H 0.51513 0.92708 0.62736 0.0
H491 H 0.53912 0.89858 0.57335 0.0
C492 C 0.57999 0.89054 0.70437 0.0
N493 N 0.57311 0.89579 0.67013 0.0
C494 C 0.5897 0.88185 0.69487 0.0
C495 C 0.58491 0.88397 0.61516 0.0
C496 C 0.57537 0.89267 0.62618 0.0
C497 C 0.59214 0.87835 0.64976 0.0
H498 H 0.57785 0.89299 0.73912 0.0
H499 H 0.56946 0.89657 0.59974 0.0
O500 O 0.53395 0.92678 0.70162 0.0
O501 O 0.55934 0.91598 0.74332 0.0
O502 O 0.54252 0.89822 0.68912 0.0
O503 O 0.55595 0.92126 0.64032 0.0
H504 H 0.53373 0.94595 0.76008 0.0
H505 H 0.51128 0.91568 0.70309 0.0
H506 H 0.51561 0.95149 0.80999 0.0
H507 H 0.49358 0.92166 0.7543 0.0
H508 H 0.60162 0.92535 0.74054 0.0
H509 H 0.56267 0.91937 0.83145 0.0
H510 H 0.58157 0.91918 0.70225 0.0
H511 H 0.58308 0.9254 0.86769 0.0
H512 H 0.52837 0.92303 0.88991 0.0
H513 H 0.51004 0.88932 0.83701 0.0
H514 H 0.56093 0.97449 0.6584 0.0
H515 H 0.56261 0.96542 0.80098 0.0
H516 H 0.55286 0.87967 0.64063 0.0
H517 H 0.51742 0.89541 0.6874 0.0
H518 H 0.54077 0.86317 0.59892 0.0
H519 H 0.50593 0.87863 0.64496 0.0
H520 H 0.55532 0.91411 0.55428 0.0
H521 H 0.57679 0.93517 0.65329 0.0
H522 H 0.57181 0.91922 0.49716 0.0
H523 H 0.59297 0.93977 0.59466 0.0
H524 H 0.50047 0.92505 0.56247 0.0
H525 H 0.52493 0.89577 0.50772 0.0
H526 H 0.59519 0.87788 0.72251 0.0
H527 H 0.58636 0.88139 0.58002 0.0
Li528 Li 0.31954 0.30342 0.9523 0.0
Li529 Li 0.33588 0.29039 0.98802 0.0
Li530 Li 0.34159 0.30874 0.93516 0.0
Li531 Li 0.33208 0.2895 0.90769 0.0
C532 C 0.32785 0.31516 0.03228 0.0
N533 N 0.31763 0.32734 0.1069 0.0
C534 C 0.32223 0.3081 0.06706 0.0
C535 C 0.32851 0.32841 0.03594 0.0
C536 C 0.31705 0.31443 0.10435 0.0
C537 C 0.32322 0.3344 0.0738 0.0
C538 C 0.3093 0.27957 0.93995 0.0
C539 C 0.29125 0.26554 0.94755 0.0
N540 N 0.28661 0.26987 0.9074 0.0
C541 C 0.30433 0.28391 0.89879 0.0
C542 C 0.30269 0.27034 0.9646 0.0
C543 C 0.29286 0.27888 0.8829 0.0
C544 C 0.29559 0.31678 0.93625 0.0
N545 N 0.30245 0.30908 0.9642 0.0
C546 C 0.28419 0.30566 0.01107 0.0
C547 C 0.29697 0.30353 0.00096 0.0
C548 C 0.27687 0.31336 0.98245 0.0
C549 C 0.28272 0.3191 0.94492 0.0
H550 H 0.29984 0.32077 0.90628 0.0
H551 H 0.30238 0.29694 0.02137 0.0
C552 C 0.34702 0.28593 0.07482 0.0
N553 N 0.33999 0.28093 0.04049 0.0
C554 C 0.34858 0.27912 0.11514 0.0
C555 C 0.33596 0.26209 0.08322 0.0
C556 C 0.3347 0.26918 0.0436 0.0
C557 C 0.34277 0.26714 0.11998 0.0
H558 H 0.3511 0.29534 0.07131 0.0
H559 H 0.32921 0.26545 0.01562 0.0
C560 C 0.32365 0.3186 0.87489 0.0
N561 N 0.31658 0.342 0.84041 0.0
C562 C 0.31916 0.31958 0.83047 0.0
C563 C 0.32457 0.32951 0.90172 0.0
C564 C 0.31562 0.3315 0.81367 0.0
C565 C 0.32095 0.34126 0.8837 0.0
C566 C 0.35594 0.28282 0.91537 0.0
C567 C 0.36251 0.28679 0.87671 0.0
C568 C 0.35638 0.27005 0.9285 0.0
C569 C 0.36929 0.27783 0.85138 0.0
C570 C 0.36328 0.26139 0.90228 0.0
N571 N 0.36952 0.26543 0.86456 0.0
C572 C 0.36032 0.32754 0.95479 0.0
C573 C 0.35557 0.32436 0.87709 0.0
C574 C 0.36937 0.33678 0.94371 0.0
N575 N 0.3537 0.32154 0.92151 0.0
C576 C 0.36437 0.33364 0.86455 0.0
C577 C 0.37155 0.33987 0.898 0.0
H578 H 0.35863 0.32506 0.98985 0.0
H579 H 0.3502 0.31939 0.85134 0.0
C580 C 0.33034 0.26559 0.86324 0.0
N581 N 0.33251 0.27824 0.85742 0.0
C582 C 0.33137 0.25727 0.82657 0.0
C583 C 0.33684 0.27517 0.77883 0.0
C584 C 0.33563 0.28315 0.81632 0.0
C585 C 0.33468 0.26206 0.78377 0.0
H586 H 0.32805 0.26195 0.89653 0.0
H587 H 0.33741 0.29325 0.81295 0.0
O588 O 0.3331 0.30912 0.99564 0.0
O589 O 0.32036 0.28457 0.95694 0.0
O590 O 0.3273 0.30701 0.89143 0.0
O591 O 0.34891 0.29135 0.93976 0.0
H592 H 0.32174 0.29784 0.06515 0.0
H593 H 0.33315 0.33405 0.01012 0.0
H594 H 0.31257 0.30907 0.13129 0.0
H595 H 0.32362 0.34465 0.07696 0.0
H596 H 0.28604 0.2584 0.96632 0.0
H597 H 0.30919 0.29113 0.8793 0.0
H598 H 0.30631 0.26698 0.99677 0.0
H599 H 0.28891 0.28216 0.85114 0.0
H600 H 0.27993 0.30086 0.03979 0.0
H601 H 0.27731 0.32507 0.922 0.0
H602 H 0.35413 0.28324 0.14236 0.0
H603 H 0.33131 0.25291 0.08558 0.0
H604 H 0.31843 0.31122 0.80922 0.0
H605 H 0.32803 0.3289 0.93602 0.0
H606 H 0.31211 0.3324 0.77936 0.0
H607 H 0.32162 0.34978 0.90413 0.0
H608 H 0.36222 0.29664 0.86607 0.0
H609 H 0.3513 0.26683 0.95828 0.0
H610 H 0.37434 0.28074 0.82116 0.0
H611 H 0.36363 0.25146 0.91182 0.0
H612 H 0.37473 0.34135 0.97053 0.0
H613 H 0.36546 0.33596 0.82903 0.0
H614 H 0.32983 0.24718 0.83174 0.0
H615 H 0.33939 0.27918 0.74628 0.0
Li616 Li 0.96006 0.08533 0.23145 0.0
Li617 Li 0.94743 0.0689 0.19512 0.0
Li618 Li 0.96064 0.08359 0.15044 0.0
Li619 Li 0.94121 0.09071 0.18631 0.0
C620 C 0.97549 0.06478 0.17175 0.0
N621 N 0.99399 0.0531 0.11972 0.0
C622 C 0.97305 0.05303 0.15131 0.0
C623 C 0.98736 0.07058 0.16573 0.0
C624 C 0.98253 0.04727 0.1252 0.0
C625 C 0.99657 0.06453 0.13925 0.0
C626 C 0.93548 0.07326 0.27196 0.0
C627 C 0.91709 0.06037 0.28916 0.0
N628 N 0.92283 0.05638 0.32793 0.0
C629 C 0.94117 0.06908 0.3121 0.0
C630 C 0.92331 0.06893 0.2605 0.0
C631 C 0.93463 0.06053 0.33991 0.0
C632 C 0.96524 0.09525 0.31999 0.0
N633 N 0.96987 0.08842 0.2845 0.0
C634 C 0.98866 0.08323 0.32597 0.0
C635 C 0.98137 0.08255 0.28671 0.0
C636 C 0.98402 0.0899 0.36366 0.0
C637 C 0.97221 0.09611 0.36027 0.0
H638 H 0.95595 0.09964 0.31754 0.0
H639 H 0.98473 0.077 0.25846 0.0
C640 C 0.93356 0.04555 0.1789 0.0
N641 N 0.94238 0.05175 0.20437 0.0
C642 C 0.93045 0.03288 0.18874 0.0
C643 C 0.94552 0.03341 0.25067 0.0
C644 C 0.94846 0.04591 0.23927 0.0
C645 C 0.9364 0.02677 0.22537 0.0
H646 H 0.92899 0.05039 0.15097 0.0
H647 H 0.95562 0.05103 0.25829 0.0
C648 C 0.96275 0.10898 0.21144 0.0
N649 N 0.97212 0.12812 0.26629 0.0
C650 C 0.95439 0.11721 0.23373 0.0
C651 C 0.97589 0.11048 0.21705 0.0
C652 C 0.95932 0.12684 0.26126 0.0
C653 C 0.98043 0.12021 0.24496 0.0
C654 C 0.93371 0.08078 0.10873 0.0
C655 C 0.93655 0.088 0.07028 0.0
C656 C 0.9211 0.0774 0.11773 0.0
C657 C 0.92668 0.09186 0.04172 0.0
C658 C 0.91149 0.08148 0.08842 0.0
N659 N 0.91445 0.08857 0.05135 0.0
C660 C 0.97083 0.07642 0.06547 0.0
C661 C 0.9784 0.09606 0.09452 0.0
C662 C 0.97876 0.07752 0.02774 0.0
N663 N 0.97093 0.08554 0.0981 0.0
C664 C 0.98648 0.09755 0.05744 0.0
C665 C 0.98682 0.08812 0.02379 0.0
H666 H 0.96469 0.06822 0.0691 0.0
H667 H 0.97811 0.10327 0.12054 0.0
C668 C 0.91632 0.10166 0.19899 0.0
N669 N 0.9276 0.10229 0.17654 0.0
C670 C 0.9064 0.10992 0.18745 0.0
C671 C 0.92002 0.11939 0.13067 0.0
C672 C 0.92967 0.11105 0.14353 0.0
C673 C 0.90815 0.1188 0.15237 0.0
H674 H 0.91499 0.09469 0.22549 0.0
H675 H 0.93877 0.11135 0.12645 0.0
O676 O 0.96624 0.07072 0.19667 0.0
O677 O 0.94186 0.08137 0.24369 0.0
O678 O 0.95812 0.0993 0.18517 0.0
O679 O 0.94321 0.0772 0.13776 0.0
H680 H 0.96391 0.04844 0.1551 0.0
H681 H 0.98935 0.0798 0.18049 0.0
H682 H 0.98076 0.03819 0.1091 0.0
H683 H 0.00575 0.06897 0.13399 0.0
H684 H 0.90772 0.05686 0.28048 0.0
H685 H 0.95061 0.07222 0.32139 0.0
H686 H 0.9188 0.07198 0.22942 0.0
H687 H 0.93895 0.05715 0.3709 0.0
H688 H 0.99774 0.07835 0.32717 0.0
H689 H 0.96819 0.10115 0.38889 0.0
H690 H 0.92347 0.02795 0.16825 0.0
H691 H 0.95051 0.02888 0.27848 0.0
H692 H 0.9442 0.11612 0.23019 0.0
H693 H 0.9825 0.10405 0.20072 0.0
H694 H 0.95295 0.13326 0.2788 0.0
H695 H 0.99056 0.12143 0.24984 0.0
H696 H 0.94625 0.09076 0.0629 0.0
H697 H 0.91873 0.07183 0.14737 0.0
H698 H 0.92872 0.09753 0.01202 0.0
H699 H 0.90167 0.07903 0.09521 0.0
H700 H 0.97876 0.07008 0.00235 0.0
H701 H 0.99235 0.10599 0.05498 0.0
H702 H 0.8975 0.10939 0.20583 0.0
H703 H 0.92176 0.12606 0.1034 0.0
Li704 Li 0.83689 0.70744 0.9856 0.0
Li705 Li 0.84102 0.6901 0.93622 0.0
Li706 Li 0.83379 0.71018 0.90533 0.0
Li707 Li 0.81945 0.6967 0.95084 0.0
C708 C 0.86194 0.70528 0.95494 0.0
N709 N 0.88612 0.70202 0.98985 0.0
C710 C 0.86367 0.6989 0.99604 0.0
C711 C 0.8725 0.71001 0.93163 0.0
C712 C 0.87597 0.69735 0.01311 0.0
C713 C 0.88465 0.70826 0.94984 0.0
C714 C 0.82835 0.67727 0.0044 0.0
C715 C 0.82088 0.65662 0.98057 0.0
N716 N 0.82152 0.65249 0.02417 0.0
C717 C 0.82893 0.67282 0.04895 0.0
C718 C 0.8243 0.66911 0.96987 0.0
C719 C 0.82544 0.66026 0.05827 0.0
C720 C 0.8341 0.71244 0.07726 0.0
N721 N 0.84097 0.71598 0.04038 0.0
C722 C 0.85045 0.73311 0.08145 0.0
C723 C 0.84923 0.72593 0.04185 0.0
C724 C 0.84325 0.72983 0.11976 0.0
C725 C 0.83515 0.71923 0.11764 0.0
H726 H 0.82745 0.70461 0.07472 0.0
H727 H 0.85447 0.7286 0.01177 0.0
C728 C 0.85437 0.67366 0.87886 0.0
N729 N 0.85195 0.67617 0.92319 0.0
C730 C 0.86274 0.66391 0.86689 0.0
C731 C 0.86598 0.6595 0.94645 0.0
C732 C 0.85749 0.6693 0.9569 0.0
C733 C 0.86868 0.65672 0.90094 0.0
H734 H 0.84993 0.67939 0.85285 0.0
H735 H 0.85544 0.67153 0.9919 0.0
C736 C 0.82178 0.72736 0.97182 0.0
N737 N 0.82171 0.75145 0.00954 0.0
C738 C 0.81241 0.73077 0.00313 0.0
C739 C 0.8311 0.73622 0.9596 0.0
C740 C 0.81255 0.74299 0.02187 0.0
C741 C 0.8309 0.74835 0.97902 0.0
C742 C 0.81863 0.6935 0.85643 0.0
C743 C 0.80905 0.70273 0.8576 0.0
C744 C 0.81929 0.68507 0.81988 0.0
C745 C 0.80028 0.70337 0.82211 0.0
C746 C 0.81034 0.68602 0.78505 0.0
N747 N 0.80109 0.69507 0.78687 0.0
C748 C 0.84512 0.71948 0.82595 0.0
C749 C 0.82625 0.73036 0.84696 0.0
C750 C 0.84652 0.72724 0.78785 0.0
N751 N 0.83513 0.7212 0.85454 0.0
C752 C 0.82731 0.73838 0.80944 0.0
C753 C 0.83758 0.73689 0.77938 0.0
H754 H 0.85195 0.71201 0.83266 0.0
H755 H 0.81835 0.73146 0.87008 0.0
C756 C 0.79741 0.69635 0.0014 0.0
N757 N 0.80236 0.69161 0.96242 0.0
C758 C 0.78475 0.69403 0.01282 0.0
C759 C 0.78267 0.68128 0.94508 0.0
C760 C 0.79541 0.6839 0.93484 0.0
C761 C 0.77712 0.68661 0.98403 0.0
H762 H 0.80331 0.70207 0.02341 0.0
H763 H 0.79967 0.67988 0.90478 0.0
O764 O 0.85001 0.70688 0.9372 0.0
O765 O 0.83177 0.68957 0.9951 0.0
O766 O 0.82207 0.71532 0.95412 0.0
O767 O 0.82743 0.69269 0.89051 0.0
H768 H 0.85563 0.69515 0.01458 0.0
H769 H 0.87131 0.71496 0.89975 0.0
H770 H 0.87745 0.69241 0.04484 0.0
H771 H 0.89291 0.71187 0.93214 0.0
H772 H 0.81773 0.6502 0.95419 0.0
H773 H 0.83206 0.67902 0.07605 0.0
H774 H 0.8238 0.67232 0.93517 0.0
H775 H 0.82584 0.65669 0.09261 0.0
H776 H 0.85675 0.74127 0.08194 0.0
H777 H 0.82927 0.71658 0.14628 0.0
H778 H 0.86478 0.6622 0.83144 0.0
H779 H 0.8704 0.65416 0.97361 0.0
H780 H 0.8051 0.72409 0.01297 0.0
H781 H 0.83859 0.73369 0.93613 0.0
H782 H 0.80537 0.74574 0.04625 0.0
H783 H 0.8381 0.75526 0.97008 0.0
H784 H 0.80831 0.70929 0.88563 0.0
H785 H 0.82665 0.67787 0.81847 0.0
H786 H 0.79281 0.71045 0.82262 0.0
H787 H 0.81073 0.67955 0.75656 0.0
H788 H 0.85439 0.72557 0.76493 0.0
H789 H 0.82022 0.74571 0.80413 0.0
H790 H 0.78087 0.69828 0.04326 0.0
H791 H 0.77722 0.6752 0.92267 0.0
Li792 Li 0.04355 0.08556 0.73458 0.0
Li793 Li 0.06137 0.08998 0.68648 0.0
Li794 Li 0.04084 0.08258 0.65377 0.0
Li795 Li 0.05471 0.06812 0.70078 0.0
C796 C 0.03822 0.10965 0.68819 0.0
N797 N 0.02532 0.13257 0.69046 0.0
C798 C 0.04443 0.12072 0.70244 0.0
C799 C 0.02552 0.1103 0.67426 0.0
C800 C 0.03772 0.1322 0.7036 0.0
C801 C 0.01914 0.12195 0.6759 0.0
C802 C 0.06774 0.08732 0.77732 0.0
C803 C 0.08396 0.08899 0.83478 0.0
N804 N 0.08038 0.10124 0.84272 0.0
C805 C 0.06419 0.09989 0.78612 0.0
C806 C 0.07767 0.08179 0.80188 0.0
C807 C 0.07071 0.10678 0.81929 0.0
C808 C 0.03819 0.08273 0.82624 0.0
N809 N 0.03472 0.08963 0.7893 0.0
C810 C 0.01719 0.09864 0.82967 0.0
C811 C 0.02456 0.09765 0.79049 0.0
C812 C 0.02038 0.09136 0.86787 0.0
C813 C 0.03112 0.08346 0.86611 0.0
H814 H 0.04608 0.07616 0.82399 0.0
H815 H 0.02176 0.10279 0.76055 0.0
C816 C 0.07236 0.1098 0.63984 0.0
N817 N 0.07499 0.10108 0.67247 0.0
C818 C 0.08152 0.11866 0.62691 0.0
C819 C 0.09611 0.10923 0.68067 0.0
C820 C 0.08663 0.1005 0.69257 0.0
C821 C 0.0935 0.11857 0.64789 0.0
H822 H 0.06308 0.10986 0.62396 0.0
H823 H 0.08855 0.09331 0.71784 0.0
C824 C 0.0255 0.06828 0.72835 0.0
N825 N 0.00463 0.06438 0.7836 0.0
C826 C 0.02608 0.0594 0.76352 0.0
C827 C 0.01425 0.07507 0.72094 0.0
C828 C 0.01544 0.05759 0.79117 0.0
C829 C 0.00381 0.07298 0.74931 0.0
C830 C 0.07003 0.07252 0.62337 0.0
C831 C 0.07178 0.07188 0.57653 0.0
C832 C 0.08011 0.06953 0.6524 0.0
C833 C 0.08361 0.06817 0.55942 0.0
C834 C 0.09179 0.06587 0.63397 0.0
N835 N 0.09329 0.06527 0.58825 0.0
C836 C 0.03248 0.09347 0.57265 0.0
C837 C 0.02002 0.07602 0.5978 0.0
C838 C 0.02464 0.09508 0.53492 0.0
N839 N 0.03002 0.08407 0.60304 0.0
C840 C 0.01189 0.07732 0.56071 0.0
C841 C 0.01415 0.08697 0.52873 0.0
H842 H 0.04057 0.09968 0.57776 0.0
H843 H 0.01836 0.06858 0.62243 0.0
C844 C 0.06041 0.04707 0.75388 0.0
N845 N 0.05976 0.05103 0.71017 0.0
C846 C 0.06254 0.03427 0.76384 0.0
C847 C 0.0641 0.03002 0.68355 0.0
C848 C 0.06167 0.04288 0.67511 0.0
C849 C 0.06434 0.02551 0.72842 0.0
H850 H 0.05872 0.05379 0.781 0.0
H851 H 0.06098 0.04628 0.64063 0.0
O852 O 0.04473 0.09838 0.68579 0.0
O853 O 0.06159 0.08038 0.7448 0.0
O854 O 0.03597 0.07051 0.70191 0.0
O855 O 0.05854 0.07628 0.64058 0.0
H856 H 0.05436 0.12049 0.71221 0.0
H857 H 0.02059 0.10189 0.66257 0.0
H858 H 0.0424 0.14082 0.71472 0.0
H859 H 0.00928 0.12256 0.66553 0.0
H860 H 0.09169 0.08485 0.85398 0.0
H861 H 0.05645 0.10424 0.76781 0.0
H862 H 0.08051 0.07205 0.79542 0.0
H863 H 0.06806 0.11652 0.82646 0.0
H864 H 0.00891 0.10478 0.82978 0.0
H865 H 0.03369 0.07746 0.8945 0.0
H866 H 0.07926 0.1255 0.60066 0.0
H867 H 0.10528 0.10883 0.69737 0.0
H868 H 0.03469 0.05406 0.76977 0.0
H869 H 0.01363 0.08201 0.69402 0.0
H870 H 0.0158 0.05082 0.81876 0.0
H871 H 0.99509 0.07826 0.74421 0.0
H872 H 0.06407 0.07423 0.55366 0.0
H873 H 0.07895 0.07005 0.68875 0.0
H874 H 0.08511 0.06762 0.52322 0.0
H875 H 0.09968 0.06353 0.65601 0.0
H876 H 0.0269 0.10241 0.51044 0.0
H877 H 0.00391 0.07087 0.55706 0.0
H878 H 0.06222 0.03122 0.79884 0.0
H879 H 0.06547 0.02361 0.65522 0.0
Li880 Li 0.65853 0.31002 0.44222 0.0
Li881 Li 0.66474 0.29313 0.49204 0.0
Li882 Li 0.68057 0.30495 0.45136 0.0
Li883 Li 0.66668 0.29053 0.41165 0.0
C884 C 0.66175 0.31654 0.53289 0.0
N885 N 0.64755 0.32677 0.60273 0.0
C886 C 0.64868 0.31413 0.53562 0.0
C887 C 0.66759 0.32415 0.56567 0.0
C888 C 0.64167 0.31939 0.57119 0.0
C889 C 0.66024 0.32923 0.60072 0.0
C890 C 0.64425 0.28159 0.44889 0.0
C891 C 0.6437 0.25895 0.46244 0.0
N892 N 0.63103 0.25887 0.45289 0.0
C893 C 0.63123 0.28129 0.43926 0.0
C894 C 0.65054 0.27034 0.46061 0.0
C895 C 0.62472 0.26971 0.44144 0.0
C896 C 0.63721 0.31996 0.40009 0.0
N897 N 0.64667 0.32309 0.42941 0.0
C898 C 0.63926 0.34455 0.43335 0.0
C899 C 0.64784 0.33507 0.44633 0.0
C900 C 0.62947 0.34162 0.40267 0.0
C901 C 0.62842 0.32912 0.38633 0.0
H902 H 0.63663 0.31037 0.38689 0.0
H903 H 0.65551 0.3373 0.46944 0.0
C904 C 0.67317 0.27999 0.56664 0.0
N905 N 0.6623 0.28452 0.54771 0.0
C906 C 0.67269 0.27281 0.60621 0.0
C907 C 0.64983 0.27549 0.60724 0.0
C908 C 0.65074 0.28253 0.56718 0.0
C909 C 0.6609 0.27036 0.62684 0.0
H910 H 0.68222 0.28183 0.5505 0.0
H911 H 0.64224 0.28629 0.55139 0.0
C912 C 0.6745 0.31983 0.37661 0.0
N913 N 0.68038 0.34358 0.34225 0.0
C914 C 0.67459 0.32187 0.32985 0.0
C915 C 0.6774 0.32987 0.40592 0.0
C916 C 0.67759 0.33394 0.31313 0.0
C917 C 0.68034 0.34181 0.38788 0.0
C918 C 0.68988 0.28069 0.43871 0.0
C919 C 0.69422 0.28478 0.39635 0.0
C920 C 0.69627 0.27086 0.46107 0.0
C921 C 0.7049 0.27899 0.37717 0.0
C922 C 0.70692 0.2653 0.44075 0.0
N923 N 0.71098 0.26945 0.39958 0.0
C924 C 0.70189 0.30953 0.50187 0.0
C925 C 0.70531 0.3144 0.42438 0.0
C926 C 0.71465 0.31179 0.51177 0.0
N927 N 0.69754 0.3107 0.45877 0.0
C928 C 0.71817 0.31687 0.43287 0.0
C929 C 0.72302 0.3154 0.47698 0.0
H930 H 0.6955 0.30629 0.52823 0.0
H931 H 0.70166 0.31498 0.3902 0.0
C932 C 0.65996 0.28342 0.32346 0.0
N933 N 0.66498 0.27893 0.36273 0.0
C934 C 0.65856 0.27537 0.28616 0.0
C935 C 0.66734 0.25818 0.33078 0.0
C936 C 0.66855 0.26655 0.3672 0.0
C937 C 0.66243 0.26262 0.28948 0.0
H938 H 0.65712 0.2933 0.32109 0.0
H939 H 0.67237 0.26316 0.39898 0.0
O940 O 0.6689 0.31151 0.49853 0.0
O941 O 0.65068 0.29291 0.44685 0.0
O942 O 0.67142 0.30807 0.39324 0.0
O943 O 0.67947 0.28622 0.45851 0.0
H944 H 0.64396 0.30829 0.5106 0.0
H945 H 0.6777 0.32609 0.56401 0.0
H946 H 0.63155 0.3176 0.5737 0.0
H947 H 0.66464 0.33514 0.62633 0.0
H948 H 0.64845 0.25018 0.47147 0.0
H949 H 0.62621 0.28992 0.4302 0.0
H950 H 0.6606 0.27036 0.46832 0.0
H951 H 0.61464 0.26933 0.43405 0.0
H952 H 0.64025 0.35405 0.4472 0.0
H953 H 0.62102 0.32653 0.36248 0.0
H954 H 0.68145 0.26899 0.62001 0.0
H955 H 0.64058 0.27407 0.62263 0.0
H956 H 0.67235 0.31419 0.30672 0.0
H957 H 0.67739 0.32851 0.44219 0.0
H958 H 0.67769 0.33565 0.277 0.0
H959 H 0.68259 0.34966 0.41018 0.0
H960 H 0.68941 0.29233 0.37833 0.0
H961 H 0.69302 0.26753 0.49378 0.0
H962 H 0.70835 0.28207 0.34445 0.0
H963 H 0.71195 0.25769 0.4577 0.0
H964 H 0.71803 0.31011 0.54589 0.0
H965 H 0.72434 0.31954 0.40505 0.0
H966 H 0.65477 0.27913 0.25477 0.0
H967 H 0.67022 0.24834 0.33481 0.0
Li968 Li 0.45679 0.91229 0.23578 0.0
Li969 Li 0.43968 0.90787 0.18591 0.0
Li970 Li 0.46005 0.91445 0.1556 0.0
Li971 Li 0.44647 0.92947 0.19855 0.0
C972 C 0.45437 0.88695 0.2084 0.0
N973 N 0.45045 0.86319 0.24603 0.0
C974 C 0.4477 0.88574 0.24914 0.0
C975 C 0.45905 0.87608 0.18682 0.0
C976 C 0.44581 0.87365 0.26761 0.0
C977 C 0.45697 0.86415 0.20639 0.0
C978 C 0.42662 0.92125 0.25152 0.0
C979 C 0.40627 0.9289 0.22524 0.0
N980 N 0.40179 0.92849 0.26843 0.0
C981 C 0.42182 0.92091 0.29562 0.0
C982 C 0.41879 0.92528 0.21598 0.0
C983 C 0.40923 0.92461 0.30349 0.0
C984 C 0.46185 0.91621 0.32704 0.0
N985 N 0.46504 0.90862 0.29157 0.0
C986 C 0.48164 0.89891 0.33467 0.0
C987 C 0.47457 0.89991 0.29474 0.0
C988 C 0.47877 0.90687 0.37149 0.0
C989 C 0.46862 0.9155 0.36757 0.0
H990 H 0.45437 0.92321 0.32311 0.0
H991 H 0.47702 0.89414 0.2657 0.0
C992 C 0.42364 0.89449 0.12791 0.0
N993 N 0.42573 0.89707 0.17239 0.0
C994 C 0.41395 0.88616 0.11513 0.0
C995 C 0.40875 0.88327 0.19427 0.0
C996 C 0.41849 0.89174 0.20552 0.0
C997 C 0.40641 0.8804 0.14857 0.0
H998 H 0.42968 0.89876 0.10241 0.0
H999 H 0.4204 0.89392 0.24066 0.0
C1000 C 0.47661 0.92731 0.22402 0.0
N1001 N 0.49966 0.92793 0.2691 0.0
C1002 C 0.47899 0.93671 0.25644 0.0
C1003 C 0.48599 0.91827 0.21434 0.0
C1004 C 0.49069 0.93684 0.27894 0.0
C1005 C 0.49758 0.91874 0.23749 0.0
C1006 C 0.44373 0.92928 0.10349 0.0
C1007 C 0.4534 0.93842 0.10251 0.0
C1008 C 0.43509 0.92854 0.06758 0.0
C1009 C 0.45426 0.94668 0.06554 0.0
C1010 C 0.43627 0.93697 0.03123 0.0
N1011 N 0.44575 0.94579 0.03097 0.0
C1012 C 0.46883 0.90231 0.07752 0.0
C1013 C 0.4807 0.9207 0.09726 0.0
C1014 C 0.47633 0.90045 0.03904 0.0
N1015 N 0.47112 0.91232 0.1055 0.0
C1016 C 0.48845 0.91918 0.05926 0.0
C1017 C 0.48623 0.90901 0.02942 0.0
H1018 H 0.46111 0.89583 0.08501 0.0
H1019 H 0.48223 0.92864 0.11993 0.0
C1020 C 0.44473 0.95121 0.24977 0.0
N1021 N 0.44147 0.94667 0.20829 0.0
C1022 C 0.44238 0.96387 0.26107 0.0
C1023 C 0.43279 0.96686 0.1874 0.0
C1024 C 0.43528 0.95408 0.17759 0.0
C1025 C 0.43648 0.97191 0.22946 0.0
H1026 H 0.44935 0.94499 0.27387 0.0
H1027 H 0.43237 0.95017 0.14538 0.0
O1028 O 0.45629 0.89866 0.18927 0.0
O1029 O 0.43895 0.91764 0.24367 0.0
O1030 O 0.46505 0.92673 0.2027 0.0
O1031 O 0.44275 0.92093 0.1389 0.0
H1032 H 0.44397 0.89402 0.26634 0.0
H1033 H 0.46422 0.87686 0.15522 0.0
H1034 H 0.44065 0.87257 0.29907 0.0
H1035 H 0.46054 0.85565 0.19004 0.0
H1036 H 0.40011 0.93203 0.19807 0.0
H1037 H 0.42776 0.91782 0.32349 0.0
H1038 H 0.42229 0.92561 0.18161 0.0
H1039 H 0.40539 0.92439 0.33747 0.0
H1040 H 0.48943 0.89217 0.33646 0.0
H1041 H 0.46631 0.92199 0.39483 0.0
H1042 H 0.41257 0.88399 0.0796 0.0
H1043 H 0.40312 0.87897 0.22094 0.0
H1044 H 0.47187 0.9438 0.26433 0.0
H1045 H 0.48424 0.9108 0.18989 0.0
H1046 H 0.49263 0.94402 0.30428 0.0
H1047 H 0.50488 0.91175 0.23058 0.0
H1048 H 0.46013 0.93922 0.13003 0.0
H1049 H 0.42756 0.92151 0.06779 0.0
H1050 H 0.46169 0.9538 0.06438 0.0
H1051 H 0.42965 0.9365 0.00321 0.0
H1052 H 0.47444 0.89239 0.01714 0.0
H1053 H 0.49596 0.92602 0.05276 0.0
H1054 H 0.44551 0.96743 0.29364 0.0
H1055 H 0.42812 0.97277 0.16232 0.0
Li1056 Li 0.81927 0.30061 0.55115 0.0
Li1057 Li 0.8334 0.28726 0.59188 0.0
Li1058 Li 0.8409 0.30827 0.56033 0.0
Li1059 Li 0.8356 0.28942 0.51002 0.0
C1060 C 0.81949 0.31264 0.62923 0.0
N1061 N 0.80191 0.32838 0.67056 0.0
C1062 C 0.80873 0.30746 0.65014 0.0
C1063 C 0.82135 0.32581 0.62961 0.0
C1064 C 0.79993 0.31558 0.67072 0.0
C1065 C 0.81235 0.33361 0.65067 0.0
C1066 C 0.81784 0.27044 0.55972 0.0
C1067 C 0.82017 0.2476 0.56007 0.0
N1068 N 0.81127 0.24679 0.5934 0.0
C1069 C 0.80865 0.26938 0.59374 0.0
C1070 C 0.82362 0.25947 0.54258 0.0
C1071 C 0.80549 0.25734 0.61043 0.0
C1072 C 0.79395 0.29606 0.52899 0.0
N1073 N 0.80177 0.30554 0.5433 0.0
C1074 C 0.78487 0.32071 0.53655 0.0
C1075 C 0.79747 0.31772 0.54744 0.0
C1076 C 0.77663 0.31106 0.52154 0.0
C1077 C 0.78131 0.29859 0.51821 0.0
H1078 H 0.79758 0.28652 0.52486 0.0
H1079 H 0.80389 0.32519 0.55781 0.0
C1080 C 0.83129 0.27991 0.68367 0.0
N1081 N 0.83549 0.27605 0.64233 0.0
C1082 C 0.83226 0.27183 0.72105 0.0
C1083 C 0.84203 0.25602 0.67284 0.0
C1084 C 0.84097 0.26444 0.63651 0.0
C1085 C 0.83753 0.25965 0.71564 0.0
H1086 H 0.82712 0.28925 0.68759 0.0
H1087 H 0.84435 0.26161 0.60357 0.0
C1088 C 0.82306 0.3153 0.47923 0.0
N1089 N 0.80636 0.33049 0.43123 0.0
C1090 C 0.81543 0.31002 0.44529 0.0
C1091 C 0.82225 0.32831 0.48861 0.0
C1092 C 0.80702 0.31785 0.4215 0.0
C1093 C 0.81375 0.33584 0.46394 0.0
C1094 C 0.86026 0.28665 0.53856 0.0
C1095 C 0.86994 0.2952 0.52711 0.0
C1096 C 0.86195 0.27365 0.53052 0.0
C1097 C 0.88117 0.29057 0.50781 0.0
C1098 C 0.87332 0.2694 0.51112 0.0
N1099 N 0.88261 0.27788 0.50028 0.0
C1100 C 0.85682 0.32248 0.61493 0.0
C1101 C 0.855 0.33097 0.54077 0.0
C1102 C 0.86489 0.33238 0.62773 0.0
N1103 N 0.852 0.32203 0.57227 0.0
C1104 C 0.86299 0.34111 0.55223 0.0
C1105 C 0.86793 0.34196 0.59639 0.0
H1106 H 0.85434 0.31513 0.63902 0.0
H1107 H 0.85117 0.33024 0.50686 0.0
C1108 C 0.82771 0.27521 0.43735 0.0
N1109 N 0.83837 0.2809 0.45381 0.0
C1110 C 0.82809 0.26842 0.39689 0.0
C1111 C 0.85045 0.27356 0.39028 0.0
C1112 C 0.84957 0.2805 0.43061 0.0
C1113 C 0.8396 0.26741 0.37332 0.0
H1114 H 0.81886 0.27591 0.45589 0.0
H1115 H 0.8578 0.28551 0.44327 0.0
O1116 O 0.8282 0.30485 0.60885 0.0
O1117 O 0.82126 0.28218 0.54375 0.0
O1118 O 0.83119 0.30774 0.50342 0.0
O1119 O 0.84927 0.291 0.55797 0.0
H1120 H 0.80714 0.29729 0.65019 0.0
H1121 H 0.82959 0.33 0.61349 0.0
H1122 H 0.79153 0.31172 0.68679 0.0
H1123 H 0.81365 0.34382 0.65106 0.0
H1124 H 0.82463 0.23904 0.54735 0.0
H1125 H 0.80407 0.27777 0.60733 0.0
H1126 H 0.83086 0.2601 0.51662 0.0
H1127 H 0.79845 0.25639 0.63696 0.0
H1128 H 0.78172 0.33051 0.53866 0.0
H1129 H 0.77526 0.29086 0.50703 0.0
H1130 H 0.82871 0.27496 0.75365 0.0
H1131 H 0.84636 0.24677 0.66758 0.0
H1132 H 0.8159 0.29996 0.43775 0.0
H1133 H 0.82794 0.33252 0.51522 0.0
H1134 H 0.80099 0.31388 0.39536 0.0
H1135 H 0.81296 0.34591 0.47103 0.0
H1136 H 0.86883 0.30529 0.5331 0.0
H1137 H 0.85448 0.26692 0.53817 0.0
H1138 H 0.88874 0.29708 0.4988 0.0
H1139 H 0.87471 0.25937 0.50443 0.0
H1140 H 0.8688 0.33245 0.66166 0.0
H1141 H 0.86519 0.34827 0.52702 0.0
H1142 H 0.81955 0.2638 0.38456 0.0
H1143 H 0.85944 0.27305 0.37241 0.0
Li1144 Li 0.46087 0.08272 0.34427 0.0
Li1145 Li 0.44682 0.06836 0.29782 0.0
Li1146 Li 0.45797 0.0856 0.26337 0.0
Li1147 Li 0.44036 0.09019 0.3123 0.0
C1148 C 0.47506 0.06719 0.26717 0.0
N1149 N 0.49411 0.06092 0.20661 0.0
C1150 C 0.47292 0.05794 0.23401 0.0
C1151 C 0.48694 0.07312 0.26995 0.0
C1152 C 0.48266 0.05492 0.20363 0.0
C1153 C 0.49643 0.06986 0.23889 0.0
C1154 C 0.4318 0.07268 0.37564 0.0
C1155 C 0.41012 0.06568 0.36584 0.0
N1156 N 0.40867 0.06534 0.4116 0.0
C1157 C 0.43011 0.07228 0.42255 0.0
C1158 C 0.42174 0.06937 0.34699 0.0
C1159 C 0.41834 0.06853 0.44009 0.0
C1160 C 0.46886 0.09318 0.42647 0.0
N1161 N 0.4717 0.08414 0.39515 0.0
C1162 C 0.49022 0.07794 0.43653 0.0
C1163 C 0.48208 0.07652 0.39946 0.0
C1164 C 0.4876 0.08729 0.46927 0.0
C1165 C 0.47672 0.09491 0.46412 0.0
H1166 H 0.46054 0.09911 0.42192 0.0
H1167 H 0.48403 0.06936 0.37408 0.0
C1168 C 0.43602 0.04802 0.2498 0.0
N1169 N 0.44165 0.05129 0.28956 0.0
C1170 C 0.43338 0.03528 0.24028 0.0
C1171 C 0.44215 0.02958 0.31327 0.0
C1172 C 0.4446 0.04244 0.32141 0.0
C1173 C 0.43661 0.02586 0.27199 0.0
H1174 H 0.43397 0.05527 0.22487 0.0
H1175 H 0.44926 0.04535 0.35242 0.0
C1176 C 0.46457 0.1092 0.30997 0.0
N1177 N 0.4795 0.13085 0.30815 0.0
C1178 C 0.4593 0.12089 0.29725 0.0
C1179 C 0.4774 0.10858 0.32242 0.0
C1180 C 0.46702 0.13171 0.29633 0.0
C1181 C 0.4848 0.11961 0.32109 0.0
C1182 C 0.43394 0.0882 0.22222 0.0
C1183 C 0.43805 0.10068 0.21496 0.0
C1184 C 0.42366 0.08345 0.19739 0.0
C1185 C 0.43181 0.10821 0.18291 0.0
C1186 C 0.41766 0.09128 0.16565 0.0
N1187 N 0.42183 0.1034 0.15912 0.0
C1188 C 0.46328 0.08205 0.17168 0.0
C1189 C 0.47675 0.09746 0.20539 0.0
C1190 C 0.47046 0.08228 0.13192 0.0
N1191 N 0.4667 0.08933 0.20779 0.0
C1192 C 0.48417 0.09803 0.16622 0.0
C1193 C 0.48127 0.09007 0.12942 0.0
H1194 H 0.45536 0.07552 0.17467 0.0
H1195 H 0.47942 0.10307 0.23434 0.0
C1196 C 0.42956 0.11067 0.35673 0.0
N1197 N 0.42675 0.10128 0.32674 0.0
C1198 C 0.42021 0.11929 0.37017 0.0
C1199 C 0.40516 0.10831 0.32201 0.0
C1200 C 0.41484 0.09989 0.30939 0.0
C1201 C 0.40782 0.11815 0.35281 0.0
H1202 H 0.43909 0.11143 0.37032 0.0
H1203 H 0.41284 0.09226 0.28592 0.0
O1204 O 0.4655 0.07057 0.29621 0.0
O1205 O 0.44323 0.07648 0.35804 0.0
O1206 O 0.45705 0.09858 0.31207 0.0
O1207 O 0.43977 0.08067 0.25385 0.0
H1208 H 0.46377 0.05327 0.23134 0.0
H1209 H 0.48876 0.0803 0.29538 0.0
H1210 H 0.4811 0.04787 0.17753 0.0
H1211 H 0.50563 0.07448 0.24031 0.0
H1212 H 0.40224 0.06311 0.34407 0.0
H1213 H 0.4378 0.07487 0.44514 0.0
H1214 H 0.42285 0.06971 0.31059 0.0
H1215 H 0.41688 0.06818 0.47634 0.0
H1216 H 0.49838 0.07172 0.43983 0.0
H1217 H 0.4744 0.10222 0.48867 0.0
H1218 H 0.42913 0.03279 0.20805 0.0
H1219 H 0.44506 0.02258 0.33814 0.0
H1220 H 0.44933 0.12161 0.28835 0.0
H1221 H 0.48164 0.09966 0.33252 0.0
H1222 H 0.46307 0.1408 0.2864 0.0
H1223 H 0.49476 0.11924 0.33034 0.0
H1224 H 0.446 0.10451 0.23366 0.0
H1225 H 0.42029 0.07383 0.20281 0.0
H1226 H 0.43491 0.11789 0.17694 0.0
H1227 H 0.40968 0.08773 0.14626 0.0
H1228 H 0.46794 0.07598 0.10431 0.0
H1229 H 0.49231 0.10435 0.16523 0.0
H1230 H 0.4226 0.1267 0.39423 0.0
H1231 H 0.39576 0.10723 0.30745 0.0
Li1232 Li 0.68052 0.6936 0.05588 0.0
Li1233 Li 0.6658 0.7078 0.10059 0.0
Li1234 Li 0.65864 0.68731 0.0629 0.0
Li1235 Li 0.66406 0.70556 0.01848 0.0
C1236 C 0.68056 0.68427 0.13811 0.0
N1237 N 0.70024 0.67343 0.18668 0.0
C1238 C 0.68727 0.6915 0.16988 0.0
C1239 C 0.68377 0.67151 0.13135 0.0
C1240 C 0.69721 0.68585 0.19404 0.0
C1241 C 0.69378 0.66621 0.15614 0.0
C1242 C 0.68251 0.72251 0.03061 0.0
C1243 C 0.68093 0.74473 0.01098 0.0
N1244 N 0.68968 0.74294 0.9776 0.0
C1245 C 0.69156 0.72091 0.99641 0.0
C1246 C 0.6772 0.73451 0.03825 0.0
C1247 C 0.69503 0.73136 0.96987 0.0
C1248 C 0.70121 0.68032 0.01686 0.0
N1249 N 0.69785 0.68868 0.0499 0.0
C1250 C 0.71969 0.69308 0.06612 0.0
C1251 C 0.70676 0.69495 0.07475 0.0
C1252 C 0.72342 0.68487 0.03101 0.0
C1253 C 0.71403 0.67822 0.00691 0.0
H1254 H 0.69395 0.6757 0.99686 0.0
H1255 H 0.70381 0.70183 0.09988 0.0
C1256 C 0.65257 0.71806 0.17451 0.0
N1257 N 0.66376 0.71851 0.15149 0.0
C1258 C 0.65068 0.7258 0.21235 0.0
C1259 C 0.672 0.73407 0.20265 0.0
C1260 C 0.67341 0.7263 0.16458 0.0
C1261 C 0.66049 0.73389 0.22679 0.0
H1262 H 0.64513 0.71166 0.16345 0.0
H1263 H 0.68223 0.72639 0.14564 0.0
C1264 C 0.66508 0.67731 0.98408 0.0
N1265 N 0.65658 0.65596 0.93853 0.0
C1266 C 0.65728 0.67859 0.94598 0.0
C1267 C 0.66864 0.66517 0.99876 0.0
C1268 C 0.65306 0.66768 0.92346 0.0
C1269 C 0.66421 0.6545 0.97537 0.0
C1270 C 0.63967 0.70964 0.04555 0.0
C1271 C 0.63417 0.7042 0.00705 0.0
C1272 C 0.6343 0.72059 0.0645 0.0
C1273 C 0.62336 0.70982 0.98807 0.0
C1274 C 0.62348 0.72591 0.04455 0.0
N1275 N 0.61828 0.72046 0.00707 0.0
C1276 C 0.64738 0.66819 0.11527 0.0
C1277 C 0.63829 0.66993 0.0421 0.0
C1278 C 0.63846 0.65895 0.12742 0.0
N1279 N 0.64708 0.67355 0.07337 0.0
C1280 C 0.62926 0.66064 0.05266 0.0
C1281 C 0.62911 0.65523 0.09615 0.0
H1282 H 0.65433 0.67136 0.13982 0.0
H1283 H 0.63809 0.67437 0.0092 0.0
C1284 C 0.66799 0.71151 0.92746 0.0
N1285 N 0.6614 0.71535 0.96464 0.0
C1286 C 0.66813 0.71898 0.8884 0.0
C1287 C 0.65442 0.7341 0.92609 0.0
C1288 C 0.65468 0.72642 0.96464 0.0
C1289 C 0.66144 0.73054 0.88763 0.0
H1290 H 0.6736 0.70289 0.92883 0.0
H1291 H 0.64994 0.72958 0.99504 0.0
O1292 O 0.67096 0.6897 0.11348 0.0
O1293 O 0.67866 0.71231 0.05584 0.0
O1294 O 0.6693 0.68788 0.00663 0.0
O1295 O 0.65028 0.70431 0.06456 0.0
H1296 H 0.6849 0.70138 0.17555 0.0
H1297 H 0.67859 0.66576 0.10718 0.0
H1298 H 0.70254 0.69134 0.21855 0.0
H1299 H 0.6964 0.65635 0.15111 0.0
H1300 H 0.67681 0.75405 0.01618 0.0
H1301 H 0.69572 0.71165 0.99001 0.0
H1302 H 0.67013 0.73587 0.06448 0.0
H1303 H 0.70195 0.73025 0.94301 0.0
H1304 H 0.72668 0.69848 0.08507 0.0
H1305 H 0.71657 0.67177 0.97976 0.0
H1306 H 0.64175 0.7253 0.23062 0.0
H1307 H 0.67977 0.74019 0.21301 0.0
H1308 H 0.65439 0.68789 0.93413 0.0
H1309 H 0.67471 0.66401 0.02803 0.0
H1310 H 0.64697 0.66853 0.89407 0.0
H1311 H 0.66684 0.64505 0.98652 0.0
H1312 H 0.63833 0.69589 0.99152 0.0
H1313 H 0.6385 0.725 0.09404 0.0
H1314 H 0.61905 0.70575 0.95812 0.0
H1315 H 0.61924 0.7344 0.0588 0.0
H1316 H 0.63863 0.65506 0.16138 0.0
H1317 H 0.62239 0.65784 0.02722 0.0
H1318 H 0.67378 0.71595 0.85967 0.0
H1319 H 0.64897 0.74285 0.9267 0.0
Li1320 Li 0.05286 0.92907 0.79799 0.0
Li1321 Li 0.03811 0.91456 0.84217 0.0
Li1322 Li 0.05896 0.90714 0.80799 0.0
Li1323 Li 0.04131 0.91213 0.76112 0.0
C1324 C 0.06089 0.92903 0.88481 0.0
N1325 N 0.07067 0.9476 0.94128 0.0
C1326 C 0.05331 0.93431 0.91889 0.0
C1327 C 0.07349 0.93308 0.87982 0.0
C1328 C 0.05842 0.94371 0.94703 0.0
C1329 C 0.07824 0.94252 0.90858 0.0
C1330 C 0.02496 0.93148 0.76634 0.0
C1331 C 0.00308 0.93225 0.74174 0.0
N1332 N 0.00658 0.93967 0.7061 0.0
C1333 C 0.02833 0.93918 0.72966 0.0
C1334 C 0.01224 0.92802 0.77261 0.0
C1335 C 0.0189 0.9432 0.6995 0.0
C1336 C 0.06404 0.94938 0.7511 0.0
N1337 N 0.05816 0.94627 0.79062 0.0
C1338 C 0.05747 0.96814 0.81282 0.0
C1339 C 0.05482 0.95533 0.8213 0.0
C1340 C 0.06326 0.9716 0.77183 0.0
C1341 C 0.06664 0.96209 0.74085 0.0
H1342 H 0.06622 0.94205 0.72663 0.0
H1343 H 0.04966 0.9527 0.8515 0.0
C1344 C 0.0284 0.90295 0.92039 0.0
N1345 N 0.02688 0.913 0.89194 0.0
C1346 C 0.02035 0.90145 0.95763 0.0
C1347 C 0.00938 0.92073 0.9356 0.0
C1348 C 0.01768 0.92187 0.89888 0.0
C1349 C 0.01064 0.91037 0.96537 0.0
H1350 H 0.03587 0.89609 0.91403 0.0
H1351 H 0.01686 0.9299 0.87613 0.0
C1352 C 0.0705 0.91378 0.733 0.0
N1353 N 0.09369 0.90637 0.69759 0.0
C1354 C 0.07102 0.9046 0.69877 0.0
C1355 C 0.08175 0.91928 0.74886 0.0
C1356 C 0.08284 0.90096 0.68137 0.0
C1357 C 0.09339 0.91538 0.73065 0.0
C1358 C 0.03541 0.8888 0.78981 0.0
C1359 C 0.04029 0.88237 0.7522 0.0
C1360 C 0.02372 0.8851 0.80818 0.0
C1361 C 0.03331 0.87237 0.73328 0.0
C1362 C 0.01705 0.87504 0.78833 0.0
N1363 N 0.02194 0.86894 0.75158 0.0
C1364 C 0.07919 0.89771 0.86023 0.0
C1365 C 0.076 0.88637 0.79175 0.0
C1366 C 0.08908 0.88955 0.87249 0.0
N1367 N 0.07289 0.89602 0.82042 0.0
C1368 C 0.08596 0.87809 0.80236 0.0
C1369 C 0.09256 0.87962 0.84328 0.0
H1370 H 0.07638 0.90527 0.8829 0.0
H1371 H 0.07066 0.88497 0.76094 0.0
C1372 C 0.03748 0.91296 0.66686 0.0
N1373 N 0.03215 0.90885 0.7062 0.0
C1374 C 0.03054 0.91265 0.62656 0.0
C1375 C 0.01275 0.90382 0.66786 0.0
C1376 C 0.02005 0.90425 0.70731 0.0
C1377 C 0.01795 0.9082 0.62696 0.0
H1378 H 0.04691 0.91706 0.66714 0.0
H1379 H 0.01581 0.90152 0.73918 0.0
O1380 O 0.05605 0.91985 0.85683 0.0
O1381 O 0.03412 0.92713 0.79538 0.0
O1382 O 0.05903 0.91736 0.75088 0.0
O1383 O 0.04207 0.89862 0.80882 0.0
H1384 H 0.04357 0.93126 0.92343 0.0
H1385 H 0.07953 0.92899 0.85402 0.0
H1386 H 0.05264 0.94792 0.97339 0.0
H1387 H 0.08795 0.94579 0.90493 0.0
H1388 H 0.99322 0.92956 0.74594 0.0
H1389 H 0.03815 0.94186 0.72411 0.0
H1390 H 0.00949 0.92193 0.80051 0.0
H1391 H 0.02138 0.94908 0.67075 0.0
H1392 H 0.05449 0.97531 0.83696 0.0
H1393 H 0.07095 0.96449 0.70865 0.0
H1394 H 0.02162 0.89337 0.97995 0.0
H1395 H 0.0022 0.92796 0.94109 0.0
H1396 H 0.06241 0.90018 0.68621 0.0
H1397 H 0.08151 0.92649 0.77498 0.0
H1398 H 0.08339 0.8938 0.65511 0.0
H1399 H 0.10218 0.91952 0.74278 0.0
H1400 H 0.04924 0.8852 0.73731 0.0
H1401 H 0.0198 0.88999 0.83724 0.0
H1402 H 0.03692 0.86737 0.70395 0.0
H1403 H 0.00797 0.87209 0.80207 0.0
H1404 H 0.09394 0.89094 0.90447 0.0
H1405 H 0.08826 0.87037 0.77944 0.0
H1406 H 0.03476 0.91642 0.59589 0.0
H1407 H 0.00302 0.90043 0.66951 0.0
Li1408 Li 0.66745 0.78748 0.59742 0.0
Li1409 Li 0.65882 0.80838 0.56276 0.0
Li1410 Li 0.66338 0.7895 0.51696 0.0
Li1411 Li 0.68031 0.80115 0.54724 0.0
C1412 C 0.64079 0.78441 0.55117 0.0
N1413 N 0.62065 0.77073 0.51597 0.0
C1414 C 0.63294 0.78985 0.51825 0.0
C1415 C 0.63836 0.77206 0.5665 0.0
C1416 C 0.62281 0.78276 0.50077 0.0
C1417 C 0.62813 0.76529 0.54821 0.0
C1418 C 0.68275 0.81199 0.6259 0.0
C1419 C 0.69454 0.8314 0.63732 0.0
N1420 N 0.70361 0.82475 0.66018 0.0
C1421 C 0.69213 0.80534 0.64968 0.0
C1422 C 0.68391 0.82512 0.61975 0.0
C1423 C 0.70263 0.81196 0.66668 0.0
C1424 C 0.67504 0.76743 0.65578 0.0
N1425 N 0.66678 0.77725 0.6499 0.0
C1426 C 0.65675 0.77283 0.72075 0.0
C1427 C 0.65777 0.78009 0.68132 0.0
C1428 C 0.66503 0.76253 0.72742 0.0
C1429 C 0.67424 0.7598 0.69441 0.0
H1430 H 0.68226 0.76557 0.63059 0.0
H1431 H 0.65136 0.78799 0.6756 0.0
C1432 C 0.63982 0.82696 0.54388 0.0
N1433 N 0.6475 0.82186 0.57618 0.0
C1434 C 0.63106 0.83643 0.55538 0.0
C1435 C 0.6383 0.83514 0.63303 0.0
C1436 C 0.64696 0.82577 0.62 0.0
C1437 C 0.63013 0.84048 0.60059 0.0
H1438 H 0.64043 0.82358 0.50933 0.0
H1439 H 0.65316 0.82148 0.64494 0.0
C1440 C 0.68347 0.7738 0.51761 0.0
N1441 N 0.69254 0.75635 0.45543 0.0
C1442 C 0.68914 0.77796 0.47742 0.0
C1443 C 0.68253 0.76076 0.52639 0.0
C1444 C 0.69363 0.76899 0.44636 0.0
C1445 C 0.68715 0.75209 0.49448 0.0
C1446 C 0.67247 0.81708 0.47828 0.0
C1447 C 0.67941 0.81431 0.43907 0.0
C1448 C 0.6707 0.82976 0.49118 0.0
C1449 C 0.6846 0.82427 0.41377 0.0
C1450 C 0.676 0.83946 0.46486 0.0
N1451 N 0.68281 0.83654 0.42707 0.0
C1452 C 0.65767 0.78555 0.42428 0.0
C1453 C 0.6565 0.76699 0.46976 0.0
C1454 C 0.65637 0.77828 0.38495 0.0
N1455 N 0.65813 0.77978 0.46546 0.0
C1456 C 0.65536 0.75935 0.43136 0.0
C1457 C 0.65561 0.76499 0.38834 0.0
H1458 H 0.65887 0.79574 0.42183 0.0
H1459 H 0.65682 0.76264 0.5029 0.0
C1460 C 0.70654 0.79698 0.54718 0.0
N1461 N 0.69779 0.80622 0.5387 0.0
C1462 C 0.71941 0.79912 0.53864 0.0
C1463 C 0.71423 0.82051 0.51504 0.0
C1464 C 0.70145 0.818 0.52457 0.0
C1465 C 0.72332 0.8109 0.52127 0.0
H1466 H 0.70351 0.78783 0.55992 0.0
H1467 H 0.69452 0.82545 0.52038 0.0
O1468 O 0.65086 0.7911 0.56813 0.0
O1469 O 0.67264 0.80561 0.60775 0.0
O1470 O 0.67871 0.78246 0.54787 0.0
O1471 O 0.66716 0.80745 0.50315 0.0
H1472 H 0.63474 0.79939 0.506 0.0
H1473 H 0.64438 0.76773 0.59196 0.0
H1474 H 0.6167 0.78681 0.47506 0.0
H1475 H 0.62617 0.7557 0.55956 0.0
H1476 H 0.69561 0.84156 0.63263 0.0
H1477 H 0.69137 0.79515 0.65446 0.0
H1478 H 0.67674 0.83038 0.6012 0.0
H1479 H 0.71001 0.80694 0.68492 0.0
H1480 H 0.6495 0.77513 0.74551 0.0
H1481 H 0.68083 0.75197 0.69879 0.0
H1482 H 0.62487 0.84033 0.52953 0.0
H1483 H 0.63796 0.83816 0.6681 0.0
H1484 H 0.68999 0.788 0.47022 0.0
H1485 H 0.67804 0.75734 0.55701 0.0
H1486 H 0.69796 0.77209 0.415 0.0
H1487 H 0.68638 0.74197 0.50064 0.0
H1488 H 0.68076 0.80458 0.42816 0.0
H1489 H 0.66547 0.83213 0.52153 0.0
H1490 H 0.69004 0.82226 0.38349 0.0
H1491 H 0.67477 0.84931 0.47462 0.0
H1492 H 0.65666 0.78293 0.35221 0.0
H1493 H 0.65473 0.74911 0.43512 0.0
H1494 H 0.72619 0.79151 0.54425 0.0
H1495 H 0.71699 0.82983 0.50275 0.0
Li1496 Li 0.46001 0.4174 0.8494 0.0
Li1497 Li 0.43989 0.40882 0.8151 0.0
Li1498 Li 0.45831 0.41344 0.76831 0.0
Li1499 Li 0.44586 0.43045 0.79685 0.0
C1500 C 0.46145 0.39013 0.79937 0.0
N1501 N 0.47056 0.36853 0.75696 0.0
C1502 C 0.45362 0.38326 0.76991 0.0
C1503 C 0.47391 0.38603 0.80727 0.0
C1504 C 0.4584 0.37236 0.7488 0.0
C1505 C 0.47834 0.37508 0.7855 0.0
C1506 C 0.43329 0.42208 0.89175 0.0
C1507 C 0.41164 0.42333 0.91866 0.0
N1508 N 0.41548 0.4189 0.95973 0.0
C1509 C 0.43704 0.41767 0.9344 0.0
C1510 C 0.42051 0.42506 0.88394 0.0
C1511 C 0.42789 0.41608 0.96826 0.0
C1512 C 0.4744 0.42775 0.92209 0.0
N1513 N 0.47036 0.41687 0.90176 0.0
C1514 C 0.48116 0.40415 0.95667 0.0
C1515 C 0.47342 0.40521 0.91849 0.0
C1516 C 0.48572 0.4152 0.97785 0.0
C1517 C 0.48214 0.42713 0.96052 0.0
H1518 H 0.47169 0.43688 0.90818 0.0
H1519 H 0.46978 0.39674 0.90228 0.0
C1520 C 0.41818 0.3933 0.79622 0.0
N1521 N 0.42672 0.39692 0.82837 0.0
C1522 C 0.40896 0.38413 0.80624 0.0
C1523 C 0.41752 0.3826 0.88206 0.0
C1524 C 0.4267 0.3916 0.87036 0.0
C1525 C 0.40857 0.37874 0.84969 0.0
H1526 H 0.41868 0.39733 0.76259 0.0
H1527 H 0.43396 0.3942 0.89456 0.0
C1528 C 0.47621 0.43183 0.77942 0.0
N1529 N 0.49939 0.43734 0.73947 0.0
C1530 C 0.47672 0.43617 0.73465 0.0
C1531 C 0.48752 0.43033 0.80384 0.0
C1532 C 0.48852 0.43888 0.71505 0.0
C1533 C 0.49913 0.43317 0.78306 0.0
C1534 C 0.4312 0.42331 0.73011 0.0
C1535 C 0.43435 0.42885 0.68853 0.0
C1536 C 0.41887 0.42472 0.74716 0.0
C1537 C 0.42515 0.4358 0.66496 0.0
C1538 C 0.40993 0.43173 0.72259 0.0
N1539 N 0.41323 0.43709 0.68235 0.0
C1540 C 0.46257 0.4067 0.67654 0.0
C1541 C 0.48105 0.40631 0.72253 0.0
C1542 C 0.46994 0.40522 0.63753 0.0
N1543 N 0.46827 0.40783 0.71768 0.0
C1544 C 0.48879 0.40498 0.68446 0.0
C1545 C 0.48324 0.40484 0.64129 0.0
H1546 H 0.45235 0.4075 0.67378 0.0
H1547 H 0.48534 0.40692 0.75572 0.0
C1548 C 0.43266 0.45389 0.8152 0.0
N1549 N 0.44007 0.44741 0.78526 0.0
C1550 C 0.42921 0.46654 0.80649 0.0
C1551 C 0.44103 0.4655 0.73639 0.0
C1552 C 0.44425 0.45298 0.7465 0.0
C1553 C 0.43343 0.47246 0.76655 0.0
H1554 H 0.42963 0.44935 0.84621 0.0
H1555 H 0.45022 0.44774 0.7235 0.0
O1556 O 0.45701 0.40097 0.81952 0.0
O1557 O 0.44212 0.42361 0.85809 0.0
O1558 O 0.46476 0.42911 0.79941 0.0
O1559 O 0.44014 0.41665 0.75418 0.0
H1560 H 0.44401 0.38639 0.76299 0.0
H1561 H 0.48015 0.39133 0.82949 0.0
H1562 H 0.45247 0.36697 0.7258 0.0
H1563 H 0.48797 0.37182 0.79115 0.0
H1564 H 0.40171 0.42554 0.91298 0.0
H1565 H 0.44689 0.41538 0.94122 0.0
H1566 H 0.41746 0.42871 0.8515 0.0
H1567 H 0.43065 0.41258 0.00129 0.0
H1568 H 0.48344 0.3948 0.96977 0.0
H1569 H 0.48545 0.43585 0.97617 0.0
H1570 H 0.40222 0.38127 0.7804 0.0
H1571 H 0.41761 0.37844 0.91564 0.0
H1572 H 0.46818 0.43699 0.7146 0.0
H1573 H 0.48738 0.42692 0.83834 0.0
H1574 H 0.48904 0.44208 0.68028 0.0
H1575 H 0.50794 0.43202 0.80157 0.0
H1576 H 0.44388 0.42808 0.67501 0.0
H1577 H 0.41622 0.42046 0.77907 0.0
H1578 H 0.4275 0.44024 0.63297 0.0
H1579 H 0.40037 0.43292 0.73553 0.0
H1580 H 0.46534 0.4051 0.60469 0.0
H1581 H 0.49903 0.40458 0.68853 0.0
H1582 H 0.42345 0.47166 0.83083 0.0
H1583 H 0.44481 0.46981 0.70591 0.0
Li1584 Li 0.8323 0.20711 0.09161 0.0
Li1585 Li 0.83976 0.1864 0.05992 0.0
Li1586 Li 0.83502 0.20418 0.00887 0.0
Li1587 Li 0.81796 0.19257 0.05117 0.0
C1588 C 0.85797 0.21184 0.04968 0.0
N1589 N 0.87755 0.22891 0.03461 0.0
C1590 C 0.87011 0.20745 0.03806 0.0
C1591 C 0.85587 0.22491 0.0542 0.0
C1592 C 0.87986 0.21623 0.03043 0.0
C1593 C 0.86586 0.23339 0.0463 0.0
C1594 C 0.81797 0.18374 0.13426 0.0
C1595 C 0.80411 0.16588 0.14845 0.0
N1596 N 0.79892 0.17223 0.1841 0.0
C1597 C 0.81258 0.19005 0.17125 0.0
C1598 C 0.81379 0.17152 0.12295 0.0
C1599 C 0.80293 0.18408 0.19596 0.0
C1600 C 0.82372 0.22454 0.15892 0.0
N1601 N 0.83409 0.21863 0.14114 0.0
C1602 C 0.84768 0.22866 0.19543 0.0
C1603 C 0.84588 0.22038 0.15903 0.0
C1604 C 0.83715 0.23486 0.21469 0.0
C1605 C 0.82504 0.23272 0.19588 0.0
H1606 H 0.81439 0.22267 0.14513 0.0
H1607 H 0.85394 0.21534 0.14504 0.0
C1608 C 0.8617 0.17115 0.04569 0.0
N1609 N 0.85109 0.17263 0.07152 0.0
C1610 C 0.87067 0.16184 0.05666 0.0
C1611 C 0.85743 0.15547 0.11967 0.0
C1612 C 0.84878 0.16499 0.10776 0.0
C1613 C 0.8686 0.15395 0.0943 0.0
H1614 H 0.86332 0.17735 0.0171 0.0
H1615 H 0.84041 0.1665 0.12825 0.0
C1616 C 0.81548 0.2233 0.04297 0.0
N1617 N 0.80586 0.24782 0.04324 0.0
C1618 C 0.80344 0.22578 0.06111 0.0
C1619 C 0.8225 0.2333 0.02414 0.0
C1620 C 0.79878 0.23823 0.06121 0.0
C1621 C 0.81751 0.24562 0.0248 0.0
C1622 C 0.83489 0.1761 0.98098 0.0
C1623 C 0.84413 0.17821 0.94776 0.0
C1624 C 0.83131 0.16365 0.99179 0.0
C1625 C 0.84974 0.16779 0.92618 0.0
C1626 C 0.83717 0.15349 0.96951 0.0
N1627 N 0.84619 0.15575 0.93745 0.0
C1628 C 0.84923 0.21713 0.93788 0.0
C1629 C 0.82699 0.21436 0.92837 0.0
C1630 C 0.84991 0.22412 0.89766 0.0
N1631 N 0.83783 0.21261 0.95269 0.0
C1632 C 0.82724 0.22121 0.88797 0.0
C1633 C 0.83879 0.22627 0.87239 0.0
H1634 H 0.85776 0.21549 0.9573 0.0
H1635 H 0.81807 0.21068 0.94112 0.0
C1636 C 0.79174 0.19155 0.07404 0.0
N1637 N 0.80075 0.18716 0.04495 0.0
C1638 C 0.77889 0.18903 0.06615 0.0
C1639 C 0.78484 0.17711 0.9994 0.0
C1640 C 0.79759 0.17991 0.00851 0.0
C1641 C 0.77529 0.18188 0.02802 0.0
H1642 H 0.79449 0.19739 0.10252 0.0
H1643 H 0.80493 0.17666 0.98561 0.0
O1644 O 0.8483 0.20334 0.05707 0.0
O1645 O 0.82733 0.18949 0.10934 0.0
O1646 O 0.82013 0.21111 0.04226 0.0
O1647 O 0.82943 0.18616 0.00296 0.0
H1648 H 0.87199 0.19738 0.03486 0.0
H1649 H 0.84667 0.22848 0.06432 0.0
H1650 H 0.88928 0.21296 0.02121 0.0
H1651 H 0.86434 0.24353 0.04965 0.0
H1652 H 0.80071 0.15646 0.13985 0.0
H1653 H 0.81578 0.19945 0.18076 0.0
H1654 H 0.81788 0.1665 0.09448 0.0
H1655 H 0.79863 0.18887 0.22456 0.0
H1656 H 0.85721 0.23021 0.20818 0.0
H1657 H 0.81663 0.23715 0.2101 0.0
H1658 H 0.8792 0.1609 0.03633 0.0
H1659 H 0.85563 0.14969 0.14936 0.0
H1660 H 0.79778 0.2182 0.07536 0.0
H1661 H 0.83166 0.2316 0.00874 0.0
H1662 H 0.78952 0.24027 0.07552 0.0
H1663 H 0.82288 0.25343 0.01047 0.0
H1664 H 0.84702 0.18778 0.93905 0.0
H1665 H 0.82414 0.16186 0.01728 0.0
H1666 H 0.85696 0.16928 0.90058 0.0
H1667 H 0.83455 0.1438 0.97771 0.0
H1668 H 0.85899 0.22787 0.88651 0.0
H1669 H 0.81844 0.22285 0.8698 0.0
H1670 H 0.77183 0.19317 0.08846 0.0
H1671 H 0.78245 0.17158 0.96963 0.0
Li1672 Li 0.05988 0.59111 0.31924 0.0
Li1673 Li 0.03964 0.58358 0.34935 0.0
Li1674 Li 0.05393 0.56925 0.30709 0.0
Li1675 Li 0.04199 0.58608 0.26878 0.0
C1676 C 0.06201 0.56856 0.39183 0.0
N1677 N 0.07184 0.54885 0.44298 0.0
C1678 C 0.05462 0.56288 0.42561 0.0
C1679 C 0.07443 0.56428 0.38427 0.0
C1680 C 0.05976 0.55292 0.45108 0.0
C1681 C 0.07921 0.55428 0.41041 0.0
C1682 C 0.03669 0.60839 0.34005 0.0
C1683 C 0.01705 0.61765 0.3666 0.0
N1684 N 0.02378 0.62555 0.39412 0.0
C1685 C 0.04342 0.61664 0.36844 0.0
C1686 C 0.0234 0.60894 0.33889 0.0
C1687 C 0.03672 0.62524 0.39555 0.0
C1688 C 0.07565 0.61283 0.30598 0.0
N1689 N 0.07367 0.6023 0.33178 0.0
C1690 C 0.09054 0.60822 0.38177 0.0
C1691 C 0.08087 0.59987 0.36904 0.0
C1692 C 0.09284 0.61914 0.35573 0.0
C1693 C 0.08532 0.6214 0.31722 0.0
H1694 H 0.06954 0.61472 0.27729 0.0
H1695 H 0.07893 0.59158 0.38952 0.0
C1696 C 0.01717 0.57874 0.39996 0.0
N1697 N 0.02854 0.58491 0.39997 0.0
C1698 C 0.00909 0.57964 0.43737 0.0
C1699 C 0.02456 0.59323 0.47396 0.0
C1700 C 0.0324 0.59196 0.43608 0.0
C1701 C 0.01279 0.58694 0.47494 0.0
H1702 H 0.01442 0.57305 0.37109 0.0
H1703 H 0.04161 0.59655 0.43545 0.0
C1704 C 0.07039 0.58645 0.24023 0.0
N1705 N 0.09127 0.59755 0.1994 0.0
C1706 C 0.0687 0.59573 0.20686 0.0
C1707 C 0.08268 0.58274 0.25261 0.0
C1708 C 0.07939 0.60124 0.18663 0.0
C1709 C 0.09312 0.5885 0.23166 0.0
C1710 C 0.02613 0.56669 0.27357 0.0
C1711 C 0.02878 0.55642 0.245 0.0
C1712 C 0.01431 0.57276 0.27078 0.0
C1713 C 0.01961 0.55247 0.21375 0.0
C1714 C 0.0054 0.56855 0.23901 0.0
N1715 N 0.00821 0.55858 0.21137 0.0
C1716 C 0.05517 0.54284 0.32686 0.0
C1717 C 0.06655 0.54947 0.26159 0.0
C1718 C 0.05788 0.53011 0.31742 0.0
N1719 N 0.05951 0.55219 0.299 0.0
C1720 C 0.06926 0.53685 0.25035 0.0
C1721 C 0.06479 0.52704 0.2783 0.0
H1722 H 0.04917 0.54523 0.35534 0.0
H1723 H 0.06958 0.55706 0.23937 0.0
C1724 C 0.02433 0.59843 0.2089 0.0
N1725 N 0.03354 0.58941 0.21304 0.0
C1726 C 0.01711 0.59919 0.16918 0.0
C1727 C 0.0293 0.58167 0.13852 0.0
C1728 C 0.03632 0.58131 0.17856 0.0
C1729 C 0.01943 0.59056 0.13378 0.0
H1730 H 0.02228 0.60471 0.23694 0.0
H1731 H 0.04368 0.57421 0.18298 0.0
O1732 O 0.05713 0.57826 0.3663 0.0
O1733 O 0.04307 0.59977 0.3138 0.0
O1734 O 0.06006 0.58109 0.26095 0.0
O1735 O 0.03514 0.57096 0.30341 0.0
H1736 H 0.04498 0.56605 0.43189 0.0
H1737 H 0.08027 0.56857 0.35823 0.0
H1738 H 0.05413 0.5484 0.47721 0.0
H1739 H 0.08878 0.55082 0.40475 0.0
H1740 H 0.00676 0.61809 0.36634 0.0
H1741 H 0.0537 0.61634 0.36989 0.0
H1742 H 0.01803 0.60255 0.31743 0.0
H1743 H 0.04181 0.63164 0.41784 0.0
H1744 H 0.09612 0.60623 0.41181 0.0
H1745 H 0.08666 0.62987 0.2969 0.0
H1746 H 3e-05 0.57471 0.43695 0.0
H1747 H 0.02776 0.59885 0.50256 0.0
H1748 H 0.05924 0.59874 0.19701 0.0
H1749 H 0.08413 0.57556 0.27838 0.0
H1750 H 0.07823 0.60848 0.16091 0.0
H1751 H 0.10269 0.58578 0.24109 0.0
H1752 H 0.03788 0.55163 0.2465 0.0
H1753 H 0.01213 0.58079 0.29236 0.0
H1754 H 0.02156 0.54459 0.19125 0.0
H1755 H 0.99627 0.57325 0.23617 0.0
H1756 H 0.05408 0.52271 0.33911 0.0
H1757 H 0.07447 0.53474 0.2196 0.0
H1758 H 0.00947 0.60608 0.1669 0.0
H1759 H 0.0314 0.57491 0.11185 0.0
Li1760 Li 0.67977 0.19625 0.95345 0.0
Li1761 Li 0.66362 0.20916 0.99086 0.0
Li1762 Li 0.65781 0.19087 0.94317 0.0
Li1763 Li 0.66567 0.21039 0.90954 0.0
C1764 C 0.67483 0.18415 0.02969 0.0
N1765 N 0.69117 0.17113 0.08658 0.0
C1766 C 0.67832 0.1894 0.07139 0.0
C1767 C 0.67956 0.17222 0.0171 0.0
C1768 C 0.6866 0.18267 0.09965 0.0
C1769 C 0.68785 0.16581 0.04626 0.0
C1770 C 0.68475 0.22478 0.93609 0.0
C1771 C 0.68556 0.24664 0.91125 0.0
N1772 N 0.69721 0.24448 0.89271 0.0
C1773 C 0.69675 0.22278 0.91691 0.0
C1774 C 0.67912 0.23682 0.93343 0.0
C1775 C 0.70289 0.23287 0.89512 0.0
C1776 C 0.70301 0.18228 0.93591 0.0
N1777 N 0.6968 0.19079 0.96268 0.0
C1778 C 0.71507 0.1932 0.00993 0.0
C1779 C 0.70259 0.19633 0.9988 0.0
C1780 C 0.72173 0.18442 0.98321 0.0
C1781 C 0.71564 0.17898 0.94552 0.0
H1782 H 0.69821 0.17815 0.90704 0.0
H1783 H 0.69748 0.20326 0.01888 0.0
C1784 C 0.6521 0.21565 0.0766 0.0
N1785 N 0.66096 0.21876 0.04483 0.0
C1786 C 0.6515 0.22243 0.1174 0.0
C1787 C 0.66912 0.23536 0.09179 0.0
C1788 C 0.66933 0.22843 0.05167 0.0
C1789 C 0.66028 0.23224 0.12551 0.0
H1790 H 0.64575 0.20771 0.07084 0.0
H1791 H 0.67646 0.23056 0.02653 0.0
C1792 C 0.66736 0.1839 0.86505 0.0
N1793 N 0.65833 0.1657 0.80565 0.0
C1794 C 0.65952 0.18744 0.82895 0.0
C1795 C 0.6707 0.17112 0.87075 0.0
C1796 C 0.65504 0.17809 0.79931 0.0
C1797 C 0.666 0.16206 0.84042 0.0
C1798 C 0.64013 0.21352 0.96753 0.0
C1799 C 0.6309 0.20589 0.98818 0.0
C1800 C 0.63948 0.22675 0.97194 0.0
C1801 C 0.62116 0.21165 0.01299 0.0
C1802 C 0.62961 0.23214 0.99714 0.0
N1803 N 0.62072 0.22455 0.01696 0.0
C1804 C 0.64734 0.16561 0.94749 0.0
C1805 C 0.63611 0.18077 0.90339 0.0
C1806 C 0.63886 0.15603 0.93438 0.0
N1807 N 0.64585 0.17766 0.93157 0.0
C1808 C 0.62739 0.17155 0.88969 0.0
C1809 C 0.62874 0.15899 0.90515 0.0
H1810 H 0.65522 0.16338 0.96959 0.0
H1811 H 0.63529 0.19041 0.89077 0.0
C1812 C 0.67425 0.22243 0.82951 0.0
N1813 N 0.66423 0.22122 0.85832 0.0
C1814 C 0.67345 0.23061 0.7924 0.0
C1815 C 0.6518 0.23561 0.81394 0.0
C1816 C 0.65309 0.22749 0.85107 0.0
C1817 C 0.6621 0.23729 0.78439 0.0
H1818 H 0.68288 0.21709 0.83554 0.0
H1819 H 0.64521 0.22617 0.87406 0.0
O1820 O 0.66697 0.19072 0.00108 0.0
O1821 O 0.67849 0.215 0.95706 0.0
O1822 O 0.67151 0.19285 0.89524 0.0
O1823 O 0.64982 0.20806 0.94347 0.0
H1824 H 0.67479 0.19862 0.08167 0.0
H1825 H 0.6771 0.16809 0.98473 0.0
H1826 H 0.68944 0.18666 0.13189 0.0
H1827 H 0.69168 0.15664 0.03674 0.0
H1828 H 0.68127 0.25598 0.90867 0.0
H1829 H 0.70123 0.21353 0.91837 0.0
H1830 H 0.66981 0.23851 0.94791 0.0
H1831 H 0.71216 0.23144 0.87996 0.0
H1832 H 0.71957 0.19782 0.03856 0.0
H1833 H 0.72058 0.17228 0.92391 0.0
H1834 H 0.64458 0.21977 0.14288 0.0
H1835 H 0.67595 0.24296 0.09674 0.0
H1836 H 0.65679 0.19728 0.8242 0.0
H1837 H 0.67669 0.16821 0.89871 0.0
H1838 H 0.64889 0.18068 0.77138 0.0
H1839 H 0.66842 0.15212 0.84464 0.0
H1840 H 0.63132 0.19563 0.98546 0.0
H1841 H 0.64661 0.23278 0.95644 0.0
H1842 H 0.61397 0.20587 0.02926 0.0
H1843 H 0.62902 0.24236 0.00102 0.0
H1844 H 0.64017 0.14643 0.94693 0.0
H1845 H 0.61984 0.17413 0.86648 0.0
H1846 H 0.68153 0.23162 0.76991 0.0
H1847 H 0.64292 0.24064 0.80864 0.0
Li1848 Li 0.05266 0.43158 0.1982 0.0
Li1849 Li 0.04007 0.41482 0.23327 0.0
Li1850 Li 0.0581 0.40921 0.18037 0.0
Li1851 Li 0.03788 0.41753 0.15241 0.0
C1852 C 0.0694 0.42133 0.26383 0.0
N1853 N 0.0911 0.42786 0.31158 0.0
C1854 C 0.06865 0.42435 0.3099 0.0
C1855 C 0.08126 0.42136 0.24243 0.0
C1856 C 0.0797 0.42771 0.33335 0.0
C1857 C 0.09211 0.42475 0.26702 0.0
C1858 C 0.02359 0.4342 0.2253 0.0
C1859 C 0.0023 0.43106 0.25393 0.0
N1860 N 0.00329 0.44204 0.27803 0.0
C1861 C 0.02432 0.44555 0.24987 0.0
C1862 C 0.01241 0.42699 0.22688 0.0
C1863 C 0.01398 0.44932 0.27647 0.0
C1864 C 0.06169 0.45651 0.17517 0.0
N1865 N 0.05864 0.44839 0.20934 0.0
C1866 C 0.06137 0.46489 0.26417 0.0
C1867 C 0.05856 0.4523 0.2532 0.0
C1868 C 0.0645 0.47356 0.22971 0.0
C1869 C 0.06482 0.46917 0.18471 0.0
H1870 H 0.06133 0.45329 0.14043 0.0
H1871 H 0.05558 0.4458 0.27949 0.0
C1872 C 0.02421 0.40082 0.29513 0.0
N1873 N 0.0315 0.41136 0.28862 0.0
C1874 C 0.01727 0.39938 0.33526 0.0
C1875 C 0.02571 0.41952 0.36123 0.0
C1876 C 0.0324 0.42059 0.3207 0.0
C1877 C 0.018 0.40884 0.36883 0.0
H1878 H 0.02362 0.39365 0.26894 0.0
H1879 H 0.03803 0.429 0.31411 0.0
C1880 C 0.065 0.42604 0.10754 0.0
N1881 N 0.08446 0.43086 0.0468 0.0
C1882 C 0.06341 0.42333 0.06151 0.0
C1883 C 0.0764 0.43148 0.1224 0.0
C1884 C 0.07338 0.42575 0.03141 0.0
C1885 C 0.08615 0.43378 0.09127 0.0
C1886 C 0.03409 0.39244 0.16217 0.0
C1887 C 0.04035 0.38413 0.13262 0.0
C1888 C 0.02087 0.39165 0.16682 0.0
C1889 C 0.03325 0.37539 0.10746 0.0
C1890 C 0.0141 0.38279 0.14102 0.0
N1891 N 0.02038 0.37492 0.11207 0.0
C1892 C 0.07763 0.39151 0.20138 0.0
C1893 C 0.07444 0.39516 0.12297 0.0
C1894 C 0.08732 0.3828 0.19202 0.0
N1895 N 0.0715 0.39757 0.16698 0.0
C1896 C 0.084 0.38648 0.11207 0.0
C1897 C 0.09061 0.38022 0.14683 0.0
H1898 H 0.07492 0.39341 0.23608 0.0
H1899 H 0.06914 0.39972 0.09622 0.0
C1900 C 0.01555 0.42345 0.10202 0.0
N1901 N 0.02658 0.41668 0.10202 0.0
C1902 C 0.00721 0.42267 0.06526 0.0
C1903 C 0.02179 0.40808 0.02902 0.0
C1904 C 0.02981 0.4091 0.06653 0.0
C1905 C 0.01035 0.41498 0.02797 0.0
H1906 H 0.01322 0.42946 0.13051 0.0
H1907 H 0.03864 0.40384 0.06733 0.0
O1908 O 0.05863 0.41801 0.24036 0.0
O1909 O 0.03375 0.43017 0.19994 0.0
O1910 O 0.05531 0.42367 0.13749 0.0
O1911 O 0.04088 0.40122 0.18655 0.0
H1912 H 0.05964 0.42412 0.32747 0.0
H1913 H 0.08217 0.4186 0.20739 0.0
H1914 H 0.07921 0.43016 0.36889 0.0
H1915 H 0.10133 0.42483 0.25073 0.0
H1916 H 0.99365 0.42548 0.25576 0.0
H1917 H 0.03274 0.45141 0.24844 0.0
H1918 H 0.01159 0.4183 0.20767 0.0
H1919 H 0.01447 0.45805 0.29586 0.0
H1920 H 0.06045 0.46791 0.29907 0.0
H1921 H 0.06711 0.47553 0.15704 0.0
H1922 H 0.01136 0.39104 0.33997 0.0
H1923 H 0.02627 0.42716 0.3858 0.0
H1924 H 0.0546 0.41935 0.0491 0.0
H1925 H 0.07765 0.43415 0.1574 0.0
H1926 H 0.0723 0.4236 0.99578 0.0
H1927 H 0.09502 0.43796 0.10243 0.0
H1928 H 0.05056 0.38446 0.12891 0.0
H1929 H 0.01587 0.3978 0.19 0.0
H1930 H 0.03798 0.36898 0.08423 0.0
H1931 H 0.00386 0.38216 0.14408 0.0
H1932 H 0.09202 0.37794 0.21972 0.0
H1933 H 0.08621 0.38467 0.07681 0.0
H1934 H 0.99837 0.42796 0.06616 0.0
H1935 H 0.02459 0.40209 0.00087 0.0
Li1936 Li 0.81911 0.80289 0.44439 0.0
Li1937 Li 0.83603 0.79164 0.4844 0.0
Li1938 Li 0.84076 0.80949 0.43347 0.0
Li1939 Li 0.83402 0.78895 0.40378 0.0
C1940 C 0.83555 0.82008 0.51178 0.0
N1941 N 0.84612 0.84126 0.55251 0.0
C1942 C 0.84447 0.81864 0.54653 0.0
C1943 C 0.83194 0.83227 0.49793 0.0
C1944 C 0.84971 0.82947 0.56668 0.0
C1945 C 0.83742 0.84287 0.51886 0.0
C1946 C 0.81718 0.77518 0.4791 0.0
C1947 C 0.81938 0.7546 0.51454 0.0
N1948 N 0.80927 0.75729 0.54171 0.0
C1949 C 0.80677 0.77771 0.50723 0.0
C1950 C 0.82349 0.7635 0.48258 0.0
C1951 C 0.80293 0.76854 0.53867 0.0
C1952 C 0.7928 0.80195 0.42541 0.0
N1953 N 0.80184 0.80793 0.45051 0.0
C1954 C 0.78593 0.81875 0.49358 0.0
C1955 C 0.79869 0.81631 0.48375 0.0
C1956 C 0.77639 0.81254 0.46875 0.0
C1957 C 0.77992 0.80421 0.43375 0.0
H1958 H 0.79558 0.79501 0.40026 0.0
H1959 H 0.80608 0.82069 0.50391 0.0
C1960 C 0.84858 0.77446 0.54543 0.0
N1961 N 0.83934 0.78343 0.54059 0.0
C1962 C 0.84932 0.7673 0.58527 0.0
C1963 C 0.83136 0.77909 0.61469 0.0
C1964 C 0.83102 0.78605 0.57455 0.0
C1965 C 0.84046 0.76944 0.62007 0.0
H1966 H 0.85504 0.77254 0.51781 0.0
H1967 H 0.82375 0.79322 0.56958 0.0
C1968 C 0.8183 0.81053 0.36018 0.0
N1969 N 0.79793 0.81921 0.30969 0.0
C1970 C 0.81256 0.80259 0.32817 0.0
C1971 C 0.81374 0.82291 0.36632 0.0
C1972 C 0.80226 0.80715 0.30299 0.0
C1973 C 0.80341 0.82711 0.34055 0.0
C1974 C 0.85882 0.78677 0.41475 0.0
C1975 C 0.867 0.79364 0.38653 0.0
C1976 C 0.85972 0.7735 0.41641 0.0
C1977 C 0.87589 0.7871 0.36012 0.0
C1978 C 0.86871 0.76731 0.38939 0.0
N1979 N 0.87654 0.77418 0.36204 0.0
C1980 C 0.86188 0.826 0.4476 0.0
C1981 C 0.84934 0.83031 0.38257 0.0
C1982 C 0.87026 0.83582 0.4363 0.0
N1983 N 0.85164 0.8235 0.42086 0.0
C1984 C 0.85755 0.8401 0.36972 0.0
C1985 C 0.86815 0.84292 0.39673 0.0
H1986 H 0.86369 0.82018 0.47711 0.0
H1987 H 0.84129 0.82796 0.36141 0.0
C1988 C 0.83065 0.76605 0.35353 0.0
N1989 N 0.83605 0.7778 0.3536 0.0
C1990 C 0.83232 0.75796 0.31648 0.0
C1991 C 0.84496 0.77427 0.28023 0.0
C1992 C 0.84295 0.78208 0.31776 0.0
C1993 C 0.83966 0.762 0.27937 0.0
H1994 H 0.82496 0.76301 0.38201 0.0
H1995 H 0.84694 0.79157 0.31847 0.0
O1996 O 0.83045 0.8096 0.49118 0.0
O1997 O 0.82134 0.78418 0.44904 0.0
O1998 O 0.82827 0.8062 0.38563 0.0
O1999 O 0.8499 0.79298 0.44024 0.0
H2000 H 0.84741 0.80927 0.55752 0.0
H2001 H 0.82507 0.83354 0.471 0.0
H2002 H 0.85667 0.82851 0.59348 0.0
H2003 H 0.83478 0.85237 0.5083 0.0
H2004 H 0.82425 0.74559 0.51791 0.0
H2005 H 0.80182 0.78671 0.50531 0.0
H2006 H 0.83163 0.76143 0.46143 0.0
H2007 H 0.79495 0.77041 0.56085 0.0
H2008 H 0.78352 0.82514 0.52108 0.0
H2009 H 0.77281 0.79901 0.41467 0.0
H2010 H 0.85638 0.75983 0.58807 0.0
H2011 H 0.82441 0.78103 0.6409 0.0
H2012 H 0.81593 0.79297 0.32306 0.0
H2013 H 0.81806 0.82917 0.39106 0.0
H2014 H 0.79768 0.8011 0.27823 0.0
H2015 H 0.79973 0.83664 0.34513 0.0
H2016 H 0.86643 0.8039 0.38468 0.0
H2017 H 0.85338 0.76802 0.43769 0.0
H2018 H 0.88224 0.79229 0.33798 0.0
H2019 H 0.86942 0.75704 0.39002 0.0
H2020 H 0.8785 0.83759 0.45742 0.0
H2021 H 0.85569 0.84535 0.33884 0.0
H2022 H 0.82772 0.74873 0.31656 0.0
H2023 H 0.85063 0.77777 0.25225 0.0
Li2024 Li 0.45684 0.5851 0.73808 0.0
Li2025 Li 0.44424 0.56855 0.70121 0.0
Li2026 Li 0.45831 0.58252 0.65714 0.0
Li2027 Li 0.43862 0.5904 0.69016 0.0
C2028 C 0.47221 0.56543 0.73184 0.0
N2029 N 0.49033 0.55697 0.7927 0.0
C2030 C 0.46957 0.55513 0.76032 0.0
C2031 C 0.48411 0.57136 0.7341 0.0
C2032 C 0.47886 0.551 0.79084 0.0
C2033 C 0.49312 0.56698 0.76521 0.0
C2034 C 0.42899 0.58666 0.76933 0.0
C2035 C 0.40652 0.58996 0.78105 0.0
N2036 N 0.40921 0.59978 0.80952 0.0
C2037 C 0.43154 0.59676 0.79874 0.0
C2038 C 0.41639 0.58319 0.76044 0.0
C2039 C 0.4214 0.60328 0.81874 0.0
C2040 C 0.47485 0.59755 0.79638 0.0
N2041 N 0.46578 0.58837 0.79288 0.0
C2042 C 0.47051 0.58077 0.86721 0.0
C2043 C 0.46328 0.58028 0.82765 0.0
C2044 C 0.48034 0.58974 0.87109 0.0
C2045 C 0.48229 0.59841 0.83551 0.0
H2046 H 0.47653 0.60397 0.76847 0.0
H2047 H 0.45598 0.5731 0.82384 0.0
C2048 C 0.44372 0.54233 0.68235 0.0
N2049 N 0.43855 0.55152 0.70896 0.0
C2050 C 0.44081 0.52956 0.68994 0.0
C2051 C 0.4274 0.53592 0.75256 0.0
C2052 C 0.43046 0.54861 0.7434 0.0
C2053 C 0.43267 0.52624 0.72574 0.0
H2054 H 0.45044 0.5449 0.65617 0.0
H2055 H 0.42674 0.5561 0.76471 0.0
C2056 C 0.46228 0.60702 0.66609 0.0
N2057 N 0.47571 0.62331 0.61022 0.0
C2058 C 0.45581 0.61503 0.63609 0.0
C2059 C 0.47558 0.60732 0.6677 0.0
C2060 C 0.46277 0.62321 0.60818 0.0
C2061 C 0.48219 0.6156 0.63912 0.0
C2062 C 0.43554 0.56766 0.61814 0.0
C2063 C 0.44263 0.562 0.58351 0.0
C2064 C 0.42339 0.56303 0.62823 0.0
C2065 C 0.43745 0.55174 0.55964 0.0
C2066 C 0.41856 0.55274 0.60365 0.0
N2067 N 0.42563 0.54736 0.57015 0.0
C2068 C 0.48083 0.57839 0.60556 0.0
C2069 C 0.46479 0.59053 0.56918 0.0
C2070 C 0.48892 0.57992 0.56845 0.0
N2071 N 0.46909 0.58382 0.60547 0.0
C2072 C 0.4726 0.59238 0.53151 0.0
C2073 C 0.4849 0.58716 0.53107 0.0
H2074 H 0.4839 0.57287 0.63442 0.0
H2075 H 0.45533 0.59458 0.5698 0.0
C2076 C 0.42608 0.61402 0.69859 0.0
N2077 N 0.42508 0.60212 0.68082 0.0
C2078 C 0.41701 0.62327 0.68817 0.0
C2079 C 0.40571 0.60766 0.64333 0.0
C2080 C 0.4151 0.59876 0.6541 0.0
C2081 C 0.4068 0.62014 0.65962 0.0
H2082 H 0.43417 0.61642 0.7196 0.0
H2083 H 0.4146 0.58928 0.6401 0.0
O2084 O 0.4631 0.56987 0.70267 0.0
O2085 O 0.43876 0.5804 0.74844 0.0
O2086 O 0.45565 0.59875 0.69308 0.0
O2087 O 0.4405 0.57761 0.64225 0.0
H2088 H 0.4604 0.55047 0.75936 0.0
H2089 H 0.48629 0.57942 0.71271 0.0
H2090 H 0.47691 0.54309 0.81325 0.0
H2091 H 0.50232 0.57157 0.76765 0.0
H2092 H 0.39671 0.58743 0.77429 0.0
H2093 H 0.44124 0.59963 0.80567 0.0
H2094 H 0.41426 0.57546 0.7374 0.0
H2095 H 0.42323 0.61115 0.84144 0.0
H2096 H 0.46871 0.5739 0.89382 0.0
H2097 H 0.48959 0.60567 0.83769 0.0
H2098 H 0.44532 0.52232 0.66932 0.0
H2099 H 0.4212 0.53368 0.78075 0.0
H2100 H 0.44555 0.61482 0.63378 0.0
H2101 H 0.48076 0.60105 0.69012 0.0
H2102 H 0.45789 0.62943 0.58468 0.0
H2103 H 0.49248 0.61584 0.63976 0.0
H2104 H 0.45207 0.5654 0.57532 0.0
H2105 H 0.41784 0.56717 0.65535 0.0
H2106 H 0.44285 0.54725 0.53285 0.0
H2107 H 0.40921 0.549 0.61135 0.0
H2108 H 0.49818 0.57539 0.56886 0.0
H2109 H 0.46911 0.59797 0.50329 0.0
H2110 H 0.41807 0.63282 0.70152 0.0
H2111 H 0.39797 0.60497 0.62105 0.0
Li2112 Li 0.33787 0.20643 0.49092 0.0
Li2113 Li 0.34245 0.18907 0.44352 0.0
Li2114 Li 0.33599 0.20992 0.40918 0.0
Li2115 Li 0.32093 0.19558 0.45172 0.0
C2116 C 0.36059 0.2135 0.46372 0.0
N2117 N 0.37861 0.22924 0.50282 0.0
C2118 C 0.36734 0.2095 0.50199 0.0
C2119 C 0.36306 0.22551 0.44529 0.0
C2120 C 0.37638 0.21759 0.5213 0.0
C2121 C 0.3722 0.23332 0.46554 0.0
C2122 C 0.33655 0.17737 0.51512 0.0
C2123 C 0.3361 0.15441 0.5153 0.0
N2124 N 0.34643 0.15428 0.54306 0.0
C2125 C 0.34713 0.17701 0.54385 0.0
C2126 C 0.33095 0.16598 0.50089 0.0
C2127 C 0.35199 0.16524 0.55755 0.0
C2128 C 0.33776 0.20965 0.58573 0.0
N2129 N 0.34074 0.21554 0.54612 0.0
C2130 C 0.34378 0.23533 0.58452 0.0
C2131 C 0.34385 0.2281 0.5449 0.0
C2132 C 0.34031 0.2296 0.62562 0.0
C2133 C 0.33758 0.21652 0.62617 0.0
H2134 H 0.33493 0.19977 0.58566 0.0
H2135 H 0.34572 0.23268 0.51285 0.0
C2136 C 0.34943 0.16545 0.40404 0.0
N2137 N 0.35345 0.175 0.43167 0.0
C2138 C 0.35769 0.15556 0.39231 0.0
C2139 C 0.37401 0.16545 0.43803 0.0
C2140 C 0.36545 0.17514 0.44883 0.0
C2141 C 0.37019 0.15556 0.40911 0.0
H2142 H 0.33991 0.16566 0.3903 0.0
H2143 H 0.36846 0.18287 0.47033 0.0
C2144 C 0.31786 0.22258 0.48457 0.0
N2145 N 0.3071 0.23955 0.54491 0.0
C2146 C 0.3109 0.21811 0.52167 0.0
C2147 C 0.31931 0.23567 0.47805 0.0
C2148 C 0.30555 0.22685 0.55183 0.0
C2149 C 0.31379 0.2441 0.50895 0.0
C2150 C 0.32026 0.18829 0.36667 0.0
C2151 C 0.31586 0.19602 0.33146 0.0
C2152 C 0.31442 0.17654 0.37462 0.0
C2153 C 0.30558 0.19194 0.30516 0.0
C2154 C 0.30416 0.1728 0.34763 0.0
N2155 N 0.29998 0.18052 0.31376 0.0
C2156 C 0.34847 0.21999 0.33324 0.0
C2157 C 0.32886 0.23005 0.35076 0.0
C2158 C 0.35018 0.22795 0.29588 0.0
N2159 N 0.33798 0.22123 0.3598 0.0
C2160 C 0.33014 0.23813 0.31351 0.0
C2161 C 0.34094 0.23718 0.28562 0.0
H2162 H 0.3555 0.21281 0.34118 0.0
H2163 H 0.32049 0.2306 0.37194 0.0
C2164 C 0.29917 0.18392 0.49079 0.0
N2165 N 0.30332 0.19165 0.45693 0.0
C2166 C 0.28617 0.18285 0.4999 0.0
C2167 C 0.28197 0.19739 0.43821 0.0
C2168 C 0.29503 0.19824 0.43047 0.0
C2169 C 0.27743 0.18992 0.47422 0.0
H2170 H 0.30598 0.17913 0.51229 0.0
H2171 H 0.29862 0.20457 0.40455 0.0
O2172 O 0.35167 0.20571 0.44429 0.0
O2173 O 0.3319 0.18879 0.5002 0.0
O2174 O 0.32355 0.21417 0.45555 0.0
O2175 O 0.33022 0.19219 0.39317 0.0
H2176 H 0.36547 0.20034 0.51717 0.0
H2177 H 0.35789 0.22886 0.416 0.0
H2178 H 0.3816 0.21464 0.55109 0.0
H2179 H 0.37416 0.24265 0.4517 0.0
H2180 H 0.3319 0.14553 0.50428 0.0
H2181 H 0.35162 0.1857 0.55512 0.0
H2182 H 0.3228 0.16606 0.47856 0.0
H2183 H 0.36021 0.16483 0.57956 0.0
H2184 H 0.3458 0.24543 0.58268 0.0
H2185 H 0.33499 0.21174 0.65734 0.0
H2186 H 0.35446 0.14824 0.3692 0.0
H2187 H 0.38357 0.16577 0.45174 0.0
H2188 H 0.30986 0.20801 0.52765 0.0
H2189 H 0.32481 0.23929 0.44984 0.0
H2190 H 0.30024 0.22352 0.5809 0.0
H2191 H 0.31489 0.25426 0.50448 0.0
H2192 H 0.3203 0.20508 0.32448 0.0
H2193 H 0.31765 0.17044 0.40174 0.0
H2194 H 0.30206 0.19786 0.27793 0.0
H2195 H 0.29949 0.16378 0.35368 0.0
H2196 H 0.35862 0.22689 0.27517 0.0
H2197 H 0.3226 0.24483 0.30598 0.0
H2198 H 0.28303 0.17707 0.52817 0.0
H2199 H 0.2755 0.20283 0.4172 0.0
Li2200 Li 0.55796 0.59058 0.19126 0.0
Li2201 Li 0.5407 0.58596 0.24006 0.0
Li2202 Li 0.55175 0.56882 0.20534 0.0
Li2203 Li 0.538 0.58306 0.15995 0.0
C2204 C 0.57101 0.57796 0.25911 0.0
N2205 N 0.5959 0.57148 0.27873 0.0
C2206 C 0.5755 0.5787 0.30357 0.0
C2207 C 0.57917 0.5739 0.2246 0.0
C2208 C 0.58812 0.5754 0.31281 0.0
C2209 C 0.59172 0.57068 0.23522 0.0
C2210 C 0.54242 0.61107 0.21112 0.0
C2211 C 0.53835 0.63365 0.20938 0.0
N2212 N 0.54523 0.63507 0.24807 0.0
C2213 C 0.54945 0.61274 0.25089 0.0
C2214 C 0.53682 0.6216 0.19017 0.0
C2215 C 0.55076 0.62495 0.26902 0.0
C2216 C 0.57228 0.60538 0.13296 0.0
N2217 N 0.57153 0.60181 0.1771 0.0
C2218 C 0.58934 0.61492 0.19606 0.0
C2219 C 0.57978 0.60638 0.20869 0.0
C2220 C 0.59022 0.61889 0.15077 0.0
C2221 C 0.58161 0.61397 0.11896 0.0
H2222 H 0.56553 0.60163 0.10873 0.0
H2223 H 0.57885 0.60353 0.24371 0.0
C2224 C 0.5356 0.58304 0.33179 0.0
N2225 N 0.53202 0.58985 0.29479 0.0
C2226 C 0.52859 0.58383 0.37179 0.0
C2227 C 0.51446 0.5988 0.33507 0.0
C2228 C 0.52185 0.59784 0.29587 0.0
C2229 C 0.51775 0.59161 0.37341 0.0
H2230 H 0.54361 0.5766 0.32956 0.0
H2231 H 0.51914 0.60301 0.26569 0.0
C2232 C 0.55522 0.56859 0.11036 0.0
N2233 N 0.55436 0.55177 0.03847 0.0
C2234 C 0.54606 0.55892 0.10936 0.0
C2235 C 0.56391 0.56971 0.07477 0.0
C2236 C 0.5458 0.55051 0.07272 0.0
C2237 C 0.56333 0.56111 0.03874 0.0
C2238 C 0.52131 0.57032 0.22777 0.0
C2239 C 0.51883 0.56116 0.26097 0.0
C2240 C 0.5118 0.579 0.21575 0.0
C2241 C 0.5069 0.56091 0.28186 0.0
C2242 C 0.49998 0.5784 0.23732 0.0
N2243 N 0.4978 0.56946 0.26971 0.0
C2244 C 0.55347 0.54731 0.25769 0.0
C2245 C 0.56431 0.54466 0.18793 0.0
C2246 C 0.55617 0.5348 0.27008 0.0
N2247 N 0.55725 0.55187 0.21682 0.0
C2248 C 0.56725 0.53206 0.19899 0.0
C2249 C 0.56304 0.52696 0.24037 0.0
H2250 H 0.5482 0.5534 0.28047 0.0
H2251 H 0.56757 0.54861 0.15621 0.0
C2252 C 0.52947 0.59423 0.07969 0.0
N2253 N 0.52725 0.58441 0.1086 0.0
C2254 C 0.5221 0.59564 0.04066 0.0
C2255 C 0.51023 0.57686 0.06218 0.0
C2256 C 0.51789 0.57575 0.10061 0.0
C2257 C 0.51236 0.58686 0.03156 0.0
H2258 H 0.53702 0.60093 0.08696 0.0
H2259 H 0.51644 0.56796 0.12395 0.0
O2260 O 0.55864 0.58116 0.24993 0.0
O2261 O 0.54103 0.59925 0.19232 0.0
O2262 O 0.5556 0.57708 0.14544 0.0
O2263 O 0.53306 0.57101 0.20788 0.0
H2264 H 0.5693 0.58182 0.33066 0.0
H2265 H 0.57592 0.57325 0.18998 0.0
H2266 H 0.59173 0.57594 0.34708 0.0
H2267 H 0.59814 0.56753 0.20885 0.0
H2268 H 0.53407 0.64189 0.1935 0.0
H2269 H 0.55387 0.60474 0.26764 0.0
H2270 H 0.53136 0.62045 0.15932 0.0
H2271 H 0.55619 0.62639 0.29975 0.0
H2272 H 0.5958 0.61859 0.2215 0.0
H2273 H 0.58209 0.61674 0.08366 0.0
H2274 H 0.53128 0.57798 0.40046 0.0
H2275 H 0.50612 0.60485 0.33517 0.0
H2276 H 0.53928 0.55787 0.1366 0.0
H2277 H 0.57102 0.57718 0.07501 0.0
H2278 H 0.53878 0.54298 0.07153 0.0
H2279 H 0.57001 0.56187 0.01098 0.0
H2280 H 0.52602 0.55434 0.27065 0.0
H2281 H 0.51361 0.5863 0.19074 0.0
H2282 H 0.50488 0.55391 0.30776 0.0
H2283 H 0.49257 0.58512 0.22857 0.0
H2284 H 0.55256 0.53121 0.30197 0.0
H2285 H 0.57266 0.52633 0.17535 0.0
H2286 H 0.52392 0.60355 0.01802 0.0
H2287 H 0.50284 0.56988 0.05604 0.0
Li2288 Li 0.15905 0.81017 0.93718 0.0
Li2289 Li 0.1633 0.79321 0.98891 0.0
Li2290 Li 0.18059 0.80364 0.95065 0.0
Li2291 Li 0.16633 0.79004 0.9089 0.0
C2292 C 0.17227 0.82347 0.00381 0.0
N2293 N 0.17968 0.8482 0.02177 0.0
C2294 C 0.17271 0.8279 0.04842 0.0
C2295 C 0.1756 0.83163 0.96832 0.0
C2296 C 0.17647 0.84043 0.05681 0.0
C2297 C 0.17932 0.8441 0.9781 0.0
C2298 C 0.13834 0.79524 0.95981 0.0
C2299 C 0.1157 0.79146 0.95975 0.0
N2300 N 0.11454 0.79878 0.99752 0.0
C2301 C 0.13692 0.80272 0.99867 0.0
C2302 C 0.12766 0.78956 0.94018 0.0
C2303 C 0.12481 0.8044 0.0172 0.0
C2304 C 0.14382 0.82414 0.87886 0.0
N2305 N 0.14793 0.82378 0.92246 0.0
C2306 C 0.13538 0.842 0.94102 0.0
C2307 C 0.14384 0.83238 0.95363 0.0
C2308 C 0.13098 0.84265 0.89611 0.0
C2309 C 0.13525 0.83349 0.86492 0.0
H2310 H 0.14708 0.81701 0.8551 0.0
H2311 H 0.14705 0.83174 0.98833 0.0
C2312 C 0.16681 0.78882 0.08037 0.0
N2313 N 0.15944 0.78523 0.0448 0.0
C2314 C 0.16596 0.78241 0.12158 0.0
C2315 C 0.14977 0.76883 0.08901 0.0
C2316 C 0.15085 0.77561 0.04847 0.0
C2317 C 0.15752 0.77211 0.12604 0.0
H2318 H 0.17366 0.79641 0.07617 0.0
H2319 H 0.14521 0.77286 0.01942 0.0
C2320 C 0.18118 0.80608 0.85687 0.0
N2321 N 0.19864 0.80378 0.78736 0.0
C2322 C 0.19112 0.79727 0.8601 0.0
C2323 C 0.18012 0.81371 0.8183 0.0
C2324 C 0.19985 0.79626 0.8246 0.0
C2325 C 0.18904 0.81241 0.78351 0.0
C2326 C 0.17783 0.77227 0.96592 0.0
C2327 C 0.18878 0.76607 0.98124 0.0
C2328 C 0.1667 0.76527 0.95844 0.0
C2329 C 0.18841 0.75295 0.98893 0.0
C2330 C 0.16672 0.75217 0.96651 0.0
N2331 N 0.17748 0.74633 0.98147 0.0
C2332 C 0.20371 0.80197 0.99349 0.0
C2333 C 0.20378 0.81789 0.93655 0.0
C2334 C 0.21644 0.80436 0.00343 0.0
N2335 N 0.19773 0.80858 0.96021 0.0
C2336 C 0.21656 0.82067 0.94561 0.0
C2337 C 0.22308 0.81372 0.97907 0.0
H2338 H 0.19858 0.79472 0.01201 0.0
H2339 H 0.19874 0.8231 0.91054 0.0
C2340 C 0.15402 0.77947 0.83371 0.0
N2341 N 0.16473 0.77857 0.85935 0.0
C2342 C 0.15229 0.77144 0.79652 0.0
C2343 C 0.17263 0.76171 0.81292 0.0
C2344 C 0.17401 0.76996 0.84963 0.0
C2345 C 0.16164 0.76237 0.78597 0.0
H2346 H 0.14686 0.78647 0.84215 0.0
H2347 H 0.18251 0.76954 0.87023 0.0
O2348 O 0.16865 0.81119 0.99538 0.0
O2349 O 0.15007 0.79347 0.94068 0.0
O2350 O 0.17245 0.80729 0.89101 0.0
O2351 O 0.17808 0.78513 0.95852 0.0
H2352 H 0.17015 0.8217 0.07627 0.0
H2353 H 0.17529 0.82843 0.93357 0.0
H2354 H 0.17685 0.84398 0.09118 0.0
H2355 H 0.18192 0.85051 0.95097 0.0
H2356 H 0.10735 0.78712 0.94489 0.0
H2357 H 0.14505 0.8072 0.01445 0.0
H2358 H 0.12861 0.78374 0.91009 0.0
H2359 H 0.12357 0.81017 0.04722 0.0
H2360 H 0.13229 0.84885 0.96615 0.0
H2361 H 0.1318 0.83338 0.83037 0.0
H2362 H 0.17206 0.78526 0.14934 0.0
H2363 H 0.14335 0.76078 0.09065 0.0
H2364 H 0.19213 0.79129 0.88964 0.0
H2365 H 0.17247 0.82056 0.8153 0.0
H2366 H 0.20759 0.78949 0.82667 0.0
H2367 H 0.18834 0.81825 0.75346 0.0
H2368 H 0.19748 0.77134 0.98711 0.0
H2369 H 0.15813 0.76987 0.94654 0.0
H2370 H 0.19682 0.74803 0.00081 0.0
H2371 H 0.15817 0.74665 0.96089 0.0
H2372 H 0.22113 0.79873 0.02927 0.0
H2373 H 0.22127 0.82813 0.92667 0.0
H2374 H 0.1437 0.77224 0.77639 0.0
H2375 H 0.18017 0.75501 0.80524 0.0
Li2376 Li 0.93744 0.4088 0.6859 0.0
Li2377 Li 0.95505 0.41348 0.73353 0.0
Li2378 Li 0.94419 0.43046 0.69434 0.0
Li2379 Li 0.95861 0.41528 0.65216 0.0
C2380 C 0.92618 0.41543 0.76089 0.0
N2381 N 0.90343 0.40727 0.79781 0.0
C2382 C 0.92616 0.40654 0.79613 0.0
C2383 C 0.91465 0.42026 0.74475 0.0
C2384 C 0.91455 0.40252 0.81429 0.0
C2385 C 0.90325 0.41599 0.76374 0.0
C2386 C 0.9604 0.38973 0.70608 0.0
C2387 C 0.97824 0.3753 0.70768 0.0
N2388 N 0.97317 0.36945 0.7446 0.0
C2389 C 0.95533 0.38355 0.7439 0.0
C2390 C 0.97193 0.38557 0.68769 0.0
C2391 C 0.96194 0.37333 0.76296 0.0
C2392 C 0.9171 0.39956 0.63345 0.0
N2393 N 0.92334 0.39788 0.67338 0.0
C2394 C 0.91049 0.37975 0.69072 0.0
C2395 C 0.92026 0.38819 0.70188 0.0
C2396 C 0.90401 0.38119 0.6495 0.0
C2397 C 0.90738 0.39125 0.62069 0.0
H2398 H 0.91988 0.40718 0.61096 0.0
H2399 H 0.92553 0.38683 0.73285 0.0
C2400 C 0.95894 0.41618 0.82676 0.0
N2401 N 0.96393 0.41052 0.78932 0.0
C2402 C 0.96577 0.4164 0.86726 0.0
C2403 C 0.98263 0.40465 0.83051 0.0
C2404 C 0.97553 0.40476 0.79054 0.0
C2405 C 0.97786 0.41077 0.86912 0.0
H2406 H 0.94992 0.42108 0.82457 0.0
H2407 H 0.9796 0.40086 0.75999 0.0
C2408 C 0.93652 0.43063 0.60882 0.0
N2409 N 0.92772 0.45015 0.55449 0.0
C2410 C 0.94439 0.43585 0.57548 0.0
C2411 C 0.92413 0.43524 0.61419 0.0
C2412 C 0.93977 0.44574 0.54842 0.0
C2413 C 0.91988 0.44514 0.58651 0.0
C2414 C 0.97208 0.43219 0.72694 0.0
C2415 C 0.96903 0.44071 0.76165 0.0
C2416 C 0.98457 0.4278 0.72246 0.0
C2417 C 0.97854 0.44459 0.79173 0.0
C2418 C 0.99381 0.43193 0.75318 0.0
N2419 N 0.99062 0.44015 0.78693 0.0
C2420 C 0.9323 0.45179 0.73445 0.0
C2421 C 0.94555 0.45646 0.67165 0.0
C2422 C 0.93062 0.46476 0.74321 0.0
N2423 N 0.93976 0.44794 0.69943 0.0
C2424 C 0.94401 0.4695 0.6788 0.0
C2425 C 0.93667 0.4738 0.71553 0.0
H2426 H 0.92817 0.44482 0.75698 0.0
H2427 H 0.9518 0.45314 0.64505 0.0
C2428 C 0.96846 0.403 0.57522 0.0
N2429 N 0.96996 0.4132 0.60302 0.0
C2430 C 0.97653 0.40132 0.5381 0.0
C2431 C 0.98742 0.42075 0.55886 0.0
C2432 C 0.97916 0.42203 0.59561 0.0
C2433 C 0.98619 0.41025 0.52968 0.0
H2434 H 0.96097 0.39618 0.58191 0.0
H2435 H 0.97996 0.43017 0.61788 0.0
O2436 O 0.93744 0.41939 0.74231 0.0
O2437 O 0.95407 0.39974 0.68682 0.0
O2438 O 0.94091 0.42104 0.63599 0.0
O2439 O 0.96281 0.42794 0.69814 0.0
H2440 H 0.93498 0.40267 0.80898 0.0
H2441 H 0.91451 0.42721 0.71774 0.0
H2442 H 0.91439 0.39559 0.84137 0.0
H2443 H 0.89425 0.41959 0.75139 0.0
H2444 H 0.98719 0.37199 0.6939 0.0
H2445 H 0.94651 0.38675 0.75888 0.0
H2446 H 0.97601 0.39026 0.6585 0.0
H2447 H 0.95818 0.36852 0.79244 0.0
H2448 H 0.90831 0.37194 0.71337 0.0
H2449 H 0.9026 0.39259 0.58851 0.0
H2450 H 0.96181 0.42121 0.89649 0.0
H2451 H 0.99202 0.40038 0.83062 0.0
H2452 H 0.95398 0.43238 0.57071 0.0
H2453 H 0.91789 0.43123 0.63955 0.0
H2454 H 0.94578 0.44992 0.52264 0.0
H2455 H 0.91033 0.44884 0.59046 0.0
H2456 H 0.95938 0.44412 0.76576 0.0
H2457 H 0.98705 0.42111 0.69601 0.0
H2458 H 0.9763 0.45108 0.81901 0.0
H2459 H 0.0035 0.42853 0.75036 0.0
H2460 H 0.9252 0.46763 0.77267 0.0
H2461 H 0.94886 0.47614 0.6567 0.0
H2462 H 0.97526 0.39313 0.5163 0.0
H2463 H 0.99453 0.42802 0.55282 0.0
Li2464 Li 0.31898 0.80298 0.05429 0.0
Li2465 Li 0.33301 0.78985 0.09912 0.0
Li2466 Li 0.34072 0.80906 0.06556 0.0
Li2467 Li 0.33575 0.79112 0.01863 0.0
C2468 C 0.31858 0.80729 0.14716 0.0
N2469 N 0.30117 0.80681 0.21732 0.0
C2470 C 0.30814 0.79906 0.14543 0.0
C2471 C 0.32014 0.8153 0.18454 0.0
C2472 C 0.29945 0.79895 0.18123 0.0
C2473 C 0.31125 0.81491 0.21968 0.0
C2474 C 0.32064 0.77134 0.04846 0.0
C2475 C 0.3312 0.75096 0.05085 0.0
N2476 N 0.32004 0.74515 0.03999 0.0
C2477 C 0.30928 0.76517 0.03735 0.0
C2478 C 0.33171 0.76419 0.05528 0.0
C2479 C 0.30917 0.75192 0.03321 0.0
C2480 C 0.29622 0.80101 0.01023 0.0
N2481 N 0.30202 0.80815 0.04254 0.0
C2482 C 0.28331 0.82082 0.05181 0.0
C2483 C 0.29592 0.81797 0.06326 0.0
C2484 C 0.27707 0.81353 0.01857 0.0
C2485 C 0.28369 0.80349 0.99786 0.0
H2486 H 0.30136 0.79329 0.99433 0.0
H2487 H 0.3008 0.82352 0.08876 0.0
C2488 C 0.3459 0.77917 0.17281 0.0
N2489 N 0.33449 0.77928 0.15105 0.0
C2490 C 0.34756 0.7718 0.2117 0.0
C2491 C 0.32569 0.76485 0.20515 0.0
C2492 C 0.32449 0.77224 0.16608 0.0
C2493 C 0.33733 0.76466 0.22848 0.0
H2494 H 0.35366 0.78491 0.16009 0.0
H2495 H 0.31556 0.77238 0.14786 0.0
C2496 C 0.328 0.82132 0.99573 0.0
N2497 N 0.32171 0.84591 0.97113 0.0
C2498 C 0.32784 0.82482 0.95009 0.0
C2499 C 0.32495 0.83032 0.02889 0.0
C2500 C 0.32464 0.8373 0.93832 0.0
C2501 C 0.3218 0.8427 0.01576 0.0
C2502 C 0.36093 0.79317 0.0454 0.0
C2503 C 0.36218 0.79935 0.00369 0.0
C2504 C 0.37169 0.78809 0.06648 0.0
C2505 C 0.37421 0.80037 0.98386 0.0
C2506 C 0.38356 0.7893 0.04555 0.0
N2507 N 0.38456 0.79537 0.00502 0.0
C2508 C 0.35443 0.82533 0.1209 0.0
C2509 C 0.35767 0.82952 0.04282 0.0
C2510 C 0.36284 0.83504 0.1328 0.0
N2511 N 0.35202 0.82278 0.07663 0.0
C2512 C 0.36623 0.83928 0.0532 0.0
C2513 C 0.36888 0.84214 0.09875 0.0
H2514 H 0.34987 0.81973 0.14699 0.0
H2515 H 0.35564 0.82723 0.00785 0.0
C2516 C 0.32917 0.78327 0.93365 0.0
N2517 N 0.33848 0.78163 0.96503 0.0
C2518 C 0.32878 0.77562 0.89517 0.0
C2519 C 0.34787 0.76499 0.92111 0.0
C2520 C 0.34783 0.7728 0.95949 0.0
C2521 C 0.33807 0.7662 0.88904 0.0
H2522 H 0.32179 0.79026 0.93944 0.0
H2523 H 0.35495 0.77151 0.98552 0.0
O2524 O 0.3273 0.80759 0.11271 0.0
O2525 O 0.32089 0.78433 0.05186 0.0
O2526 O 0.3311 0.80911 0.00746 0.0
O2527 O 0.34928 0.79207 0.06585 0.0
H2528 H 0.30671 0.7928 0.11686 0.0
H2529 H 0.32816 0.82176 0.18639 0.0
H2530 H 0.29134 0.79262 0.18033 0.0
H2531 H 0.31235 0.82105 0.24883 0.0
H2532 H 0.33969 0.74532 0.05597 0.0
H2533 H 0.30064 0.77057 0.03189 0.0
H2534 H 0.34061 0.76877 0.06374 0.0
H2535 H 0.30045 0.74702 0.02457 0.0
H2536 H 0.27847 0.82859 0.06869 0.0
H2537 H 0.27913 0.79741 0.97307 0.0
H2538 H 0.35666 0.77186 0.22898 0.0
H2539 H 0.31765 0.75931 0.21692 0.0
H2540 H 0.33018 0.81796 0.92403 0.0
H2541 H 0.32501 0.82783 0.06439 0.0
H2542 H 0.32449 0.84014 0.90311 0.0
H2543 H 0.31942 0.84976 0.04106 0.0
H2544 H 0.35399 0.80331 0.98664 0.0
H2545 H 0.37089 0.78325 0.09873 0.0
H2546 H 0.37531 0.80514 0.95162 0.0
H2547 H 0.39197 0.78541 0.06153 0.0
H2548 H 0.3646 0.83696 0.1683 0.0
H2549 H 0.3709 0.84434 0.02592 0.0
H2550 H 0.32116 0.77688 0.87083 0.0
H2551 H 0.35514 0.75776 0.91739 0.0
Li2552 Li 0.94669 0.56962 0.80254 0.0
Li2553 Li 0.96035 0.58398 0.84794 0.0
Li2554 Li 0.94026 0.59126 0.81727 0.0
Li2555 Li 0.95746 0.58694 0.76765 0.0
C2556 C 0.94353 0.56885 0.89706 0.0
N2557 N 0.94496 0.55136 0.96679 0.0
C2558 C 0.95302 0.55952 0.89696 0.0
C2559 C 0.93477 0.56928 0.93263 0.0
C2560 C 0.95358 0.55077 0.93252 0.0
C2561 C 0.93564 0.56035 0.96756 0.0
C2562 C 0.97704 0.57151 0.77937 0.0
C2563 C 0.99824 0.57985 0.76891 0.0
N2564 N 0.00045 0.57088 0.73665 0.0
C2565 C 0.97957 0.56231 0.74633 0.0
C2566 C 0.98647 0.58034 0.79085 0.0
C2567 C 0.99144 0.56218 0.72501 0.0
C2568 C 0.94553 0.54863 0.74827 0.0
N2569 N 0.94169 0.55257 0.78988 0.0
C2570 C 0.93315 0.53196 0.80607 0.0
C2571 C 0.93526 0.54466 0.81834 0.0
C2572 C 0.93766 0.5275 0.76417 0.0
C2573 C 0.94371 0.53606 0.73478 0.0
H2574 H 0.95024 0.55526 0.72584 0.0
H2575 H 0.93198 0.54808 0.85081 0.0
C2576 C 0.96946 0.59515 0.92784 0.0
N2577 N 0.97141 0.58535 0.89861 0.0
C2578 C 0.97718 0.59654 0.96605 0.0
C2579 C 0.98878 0.57772 0.94325 0.0
C2580 C 0.9808 0.57666 0.90563 0.0
C2581 C 0.98704 0.58779 0.97399 0.0
H2582 H 0.96182 0.60183 0.92157 0.0
H2583 H 0.98207 0.56889 0.88204 0.0
C2584 C 0.92719 0.57871 0.74965 0.0
N2585 N 0.90225 0.57224 0.7307 0.0
C2586 C 0.92248 0.57984 0.70557 0.0
C2587 C 0.91921 0.57427 0.78412 0.0
C2588 C 0.90985 0.57653 0.69667 0.0
C2589 C 0.90664 0.57105 0.77385 0.0
C2590 C 0.95553 0.61205 0.7976 0.0
C2591 C 0.94917 0.6137 0.75642 0.0
C2592 C 0.96026 0.62265 0.82066 0.0
C2593 C 0.94764 0.62597 0.73901 0.0
C2594 C 0.95855 0.63477 0.80213 0.0
N2595 N 0.95232 0.63616 0.76203 0.0
C2596 C 0.92385 0.60452 0.87492 0.0
C2597 C 0.91952 0.60784 0.79699 0.0
C2598 C 0.91408 0.61285 0.88712 0.0
N2599 N 0.92637 0.60222 0.83054 0.0
C2600 C 0.9097 0.61628 0.80766 0.0
C2601 C 0.90687 0.61887 0.85326 0.0
H2602 H 0.92953 0.59996 0.90083 0.0
H2603 H 0.9218 0.60593 0.76194 0.0
C2604 C 0.96212 0.58336 0.67666 0.0
N2605 N 0.96589 0.59061 0.71229 0.0
C2606 C 0.96909 0.5834 0.63655 0.0
C2607 C 0.98342 0.5988 0.66981 0.0
C2608 C 0.97609 0.59854 0.70933 0.0
C2609 C 0.98015 0.59083 0.63339 0.0
H2610 H 0.95401 0.57709 0.68021 0.0
H2611 H 0.97893 0.60411 0.73846 0.0
O2612 O 0.94281 0.57765 0.86299 0.0
O2613 O 0.96531 0.57211 0.79951 0.0
O2614 O 0.93955 0.58198 0.75855 0.0
O2615 O 0.9571 0.60016 0.81568 0.0
H2616 H 0.95984 0.55895 0.86966 0.0
H2617 H 0.92737 0.57645 0.93323 0.0
H2618 H 0.96087 0.54349 0.93283 0.0
H2619 H 0.92892 0.56057 0.9953 0.0
H2620 H 0.00558 0.58669 0.77725 0.0
H2621 H 0.97245 0.55537 0.73704 0.0
H2622 H 0.98462 0.58767 0.8157 0.0
H2623 H 0.99348 0.55517 0.69918 0.0
H2624 H 0.92847 0.5256 0.82964 0.0
H2625 H 0.94716 0.533 0.70196 0.0
H2626 H 0.97531 0.60424 0.98949 0.0
H2627 H 0.99627 0.57078 0.94814 0.0
H2628 H 0.92854 0.58327 0.67853 0.0
H2629 H 0.92262 0.57332 0.81845 0.0
H2630 H 0.90608 0.57737 0.6627 0.0
H2631 H 0.90036 0.56761 0.80019 0.0
H2632 H 0.9454 0.60564 0.73808 0.0
H2633 H 0.9652 0.62152 0.85262 0.0
H2634 H 0.94272 0.62739 0.70722 0.0
H2635 H 0.96216 0.64306 0.81964 0.0
H2636 H 0.91219 0.61458 0.92266 0.0
H2637 H 0.90457 0.62095 0.78052 0.0
H2638 H 0.96608 0.57736 0.60879 0.0
H2639 H 0.9919 0.60466 0.66858 0.0
Li2640 Li 0.16528 0.21003 0.594 0.0
Li2641 Li 0.18053 0.19629 0.54988 0.0
Li2642 Li 0.16331 0.20708 0.51202 0.0
Li2643 Li 0.1592 0.18918 0.55821 0.0
C2644 C 0.18205 0.22416 0.51932 0.0
N2645 N 0.19034 0.24274 0.46004 0.0
C2646 C 0.1904 0.22104 0.48419 0.0
C2647 C 0.17796 0.23673 0.52446 0.0
C2648 C 0.19447 0.23057 0.45454 0.0
C2649 C 0.18225 0.24599 0.49409 0.0
C2650 C 0.18159 0.18841 0.63388 0.0
C2651 C 0.19764 0.17279 0.65184 0.0
N2652 N 0.2023 0.18063 0.68452 0.0
C2653 C 0.1865 0.19629 0.6678 0.0
C2654 C 0.18716 0.17653 0.62597 0.0
C2655 C 0.19699 0.19219 0.69299 0.0
C2656 C 0.15352 0.21856 0.67394 0.0
N2657 N 0.16313 0.22098 0.64432 0.0
C2658 C 0.16965 0.23911 0.68722 0.0
C2659 C 0.17122 0.23093 0.65039 0.0
C2660 C 0.15968 0.23698 0.71802 0.0
C2661 C 0.15162 0.22649 0.71131 0.0
H2662 H 0.14731 0.21051 0.6683 0.0
H2663 H 0.17895 0.23243 0.62683 0.0
C2664 C 0.20215 0.1844 0.51095 0.0
N2665 N 0.19812 0.19246 0.544 0.0
C2666 C 0.21513 0.18318 0.50161 0.0
C2667 C 0.21954 0.19825 0.56148 0.0
C2668 C 0.20649 0.19924 0.56947 0.0
C2669 C 0.22396 0.19043 0.52625 0.0
H2670 H 0.19527 0.17938 0.49042 0.0
H2671 H 0.203 0.20579 0.59484 0.0
C2672 C 0.13998 0.21286 0.54217 0.0
N2673 N 0.12019 0.22744 0.50866 0.0
C2674 C 0.13336 0.20896 0.50349 0.0
C2675 C 0.1365 0.22417 0.56385 0.0
C2676 C 0.1234 0.21647 0.48704 0.0
C2677 C 0.12647 0.2314 0.54639 0.0
C2678 C 0.16489 0.17857 0.48349 0.0
C2679 C 0.15506 0.17889 0.45162 0.0
C2680 C 0.16979 0.16685 0.49763 0.0
C2681 C 0.1502 0.16746 0.43469 0.0
C2682 C 0.16466 0.15563 0.47996 0.0
N2683 N 0.15505 0.15617 0.44914 0.0
C2684 C 0.16511 0.21155 0.4184 0.0
C2685 C 0.15471 0.22814 0.45822 0.0
C2686 C 0.16506 0.21875 0.37866 0.0
N2687 N 0.1601 0.21637 0.45725 0.0
C2688 C 0.15435 0.23561 0.41919 0.0
C2689 C 0.15989 0.23106 0.37906 0.0
H2690 H 0.16973 0.20236 0.41881 0.0
H2691 H 0.15125 0.23203 0.48972 0.0
C2692 C 0.1517 0.16626 0.60149 0.0
N2693 N 0.14841 0.1749 0.56923 0.0
C2694 C 0.14326 0.15655 0.61358 0.0
C2695 C 0.12836 0.16464 0.55824 0.0
C2696 C 0.13707 0.17415 0.54722 0.0
C2697 C 0.13131 0.15588 0.59255 0.0
H2698 H 0.1607 0.16714 0.61887 0.0
H2699 H 0.13466 0.18111 0.52181 0.0
O2700 O 0.17764 0.21488 0.54779 0.0
O2701 O 0.17144 0.19233 0.60839 0.0
O2702 O 0.14971 0.20561 0.55907 0.0
O2703 O 0.16958 0.18964 0.50125 0.0
H2704 H 0.19356 0.21133 0.47941 0.0
H2705 H 0.17134 0.23928 0.55104 0.0
H2706 H 0.20087 0.22828 0.42702 0.0
H2707 H 0.17907 0.25574 0.4974 0.0
H2708 H 0.20209 0.16365 0.64587 0.0
H2709 H 0.18232 0.2055 0.67448 0.0
H2710 H 0.18351 0.17032 0.59981 0.0
H2711 H 0.20091 0.19822 0.71921 0.0
H2712 H 0.17627 0.24689 0.69195 0.0
H2713 H 0.14386 0.22453 0.73445 0.0
H2714 H 0.21818 0.17711 0.47401 0.0
H2715 H 0.22608 0.20383 0.58174 0.0
H2716 H 0.13604 0.20038 0.48573 0.0
H2717 H 0.14152 0.2274 0.59366 0.0
H2718 H 0.11827 0.2136 0.45696 0.0
H2719 H 0.12371 0.24019 0.56278 0.0
H2720 H 0.15113 0.18787 0.44035 0.0
H2721 H 0.17737 0.16642 0.52234 0.0
H2722 H 0.14255 0.16758 0.41019 0.0
H2723 H 0.1683 0.1465 0.49083 0.0
H2724 H 0.16953 0.21495 0.34849 0.0
H2725 H 0.15011 0.24499 0.42075 0.0
H2726 H 0.14584 0.14997 0.64027 0.0
H2727 H 0.1193 0.16427 0.54074 0.0
Li2728 Li 0.55445 0.43039 0.30799 0.0
Li2729 Li 0.53991 0.41593 0.35276 0.0
Li2730 Li 0.55985 0.4085 0.31447 0.0
Li2731 Li 0.54208 0.41427 0.27059 0.0
C2732 C 0.56285 0.43038 0.392 0.0
N2733 N 0.57226 0.44998 0.44481 0.0
C2734 C 0.55583 0.4349 0.42886 0.0
C2735 C 0.57472 0.43575 0.38233 0.0
C2736 C 0.56074 0.44483 0.45508 0.0
C2737 C 0.57929 0.44567 0.4093 0.0
C2738 C 0.5268 0.43473 0.28142 0.0
C2739 C 0.50489 0.43909 0.26268 0.0
N2740 N 0.5088 0.44594 0.22613 0.0
C2741 C 0.53061 0.44186 0.24383 0.0
C2742 C 0.51385 0.43335 0.29109 0.0
C2743 C 0.52135 0.44743 0.21623 0.0
C2744 C 0.56695 0.45102 0.26596 0.0
N2745 N 0.55961 0.44765 0.30196 0.0
C2746 C 0.5569 0.46945 0.32281 0.0
C2747 C 0.55461 0.45654 0.3303 0.0
C2748 C 0.56424 0.47322 0.28539 0.0
C2749 C 0.5694 0.46383 0.25702 0.0
H2750 H 0.57043 0.44381 0.24304 0.0
H2751 H 0.54844 0.45361 0.35771 0.0
C2752 C 0.53025 0.40293 0.42772 0.0
N2753 N 0.52931 0.41399 0.40406 0.0
C2754 C 0.52265 0.40089 0.46576 0.0
C2755 C 0.51356 0.42184 0.45521 0.0
C2756 C 0.52121 0.42341 0.41691 0.0
C2757 C 0.5142 0.41043 0.47982 0.0
H2758 H 0.53688 0.39567 0.41676 0.0
H2759 H 0.5208 0.43216 0.39768 0.0
C2760 C 0.57083 0.41392 0.24117 0.0
N2761 N 0.59293 0.40286 0.20906 0.0
C2762 C 0.57022 0.40348 0.21186 0.0
C2763 C 0.58269 0.41877 0.25389 0.0
C2764 C 0.58149 0.39802 0.19604 0.0
C2765 C 0.59375 0.41304 0.23738 0.0
C2766 C 0.53439 0.39172 0.29749 0.0
C2767 C 0.53777 0.38482 0.25883 0.0
C2768 C 0.52239 0.38987 0.31696 0.0
C2769 C 0.52908 0.37622 0.24019 0.0
C2770 C 0.51398 0.38116 0.29737 0.0
N2771 N 0.51747 0.37458 0.2597 0.0
C2772 C 0.58337 0.40053 0.35075 0.0
C2773 C 0.57286 0.38486 0.3068 0.0
C2774 C 0.59307 0.39199 0.36152 0.0
N2775 N 0.57351 0.39684 0.32401 0.0
C2776 C 0.58236 0.37599 0.31667 0.0
C2777 C 0.59257 0.37951 0.34466 0.0
H2778 H 0.58356 0.41003 0.3646 0.0
H2779 H 0.56487 0.3821 0.28605 0.0
C2780 C 0.53772 0.41451 0.17633 0.0
N2781 N 0.53212 0.41196 0.21684 0.0
C2782 C 0.53054 0.4144 0.13655 0.0
C2783 C 0.51192 0.40917 0.18086 0.0
C2784 C 0.51947 0.40932 0.21975 0.0
C2785 C 0.51746 0.41177 0.13865 0.0
H2786 H 0.54766 0.4171 0.17505 0.0
H2787 H 0.51512 0.40778 0.25243 0.0
O2788 O 0.55813 0.42074 0.36562 0.0
O2789 O 0.5357 0.42889 0.30807 0.0
O2790 O 0.55989 0.41915 0.25816 0.0
O2791 O 0.54277 0.40022 0.31623 0.0
H2792 H 0.5467 0.43082 0.43722 0.0
H2793 H 0.58028 0.43243 0.3539 0.0
H2794 H 0.55538 0.44844 0.4836 0.0
H2795 H 0.58841 0.44998 0.40192 0.0
H2796 H 0.49483 0.43805 0.26957 0.0
H2797 H 0.54059 0.4429 0.23561 0.0
H2798 H 0.51075 0.42776 0.31984 0.0
H2799 H 0.52415 0.4529 0.18682 0.0
H2800 H 0.55248 0.47643 0.34474 0.0
H2801 H 0.57499 0.4664 0.22757 0.0
H2802 H 0.52349 0.39205 0.48441 0.0
H2803 H 0.50717 0.42941 0.46537 0.0
H2804 H 0.56114 0.39956 0.20171 0.0
H2805 H 0.58337 0.42679 0.27668 0.0
H2806 H 0.58115 0.3899 0.17353 0.0
H2807 H 0.60299 0.41665 0.24721 0.0
H2808 H 0.5469 0.38622 0.24287 0.0
H2809 H 0.5195 0.39521 0.34647 0.0
H2810 H 0.53155 0.37088 0.21012 0.0
H2811 H 0.50466 0.37968 0.312 0.0
H2812 H 0.60064 0.39498 0.38401 0.0
H2813 H 0.58165 0.36645 0.30303 0.0
H2814 H 0.53508 0.41678 0.10472 0.0
H2815 H 0.50183 0.40721 0.18379 0.0
C2816 C 0.25835 0.31815 0.03291 0.0
C2817 C 0.263 0.31453 0.99015 0.0
C2818 C 0.24525 0.31819 0.04207 0.0
C2819 C 0.23636 0.31454 0.00886 0.0
H2820 H 0.2649 0.32082 0.05961 0.0
H2821 H 0.24207 0.32096 0.07555 0.0
S2822 S 0.2438 0.30354 0.89234 0.0
N2823 N 0.2578 0.3069 0.91474 0.0
N2824 N 0.23321 0.30679 0.93199 0.0
C2825 C 0.24091 0.31097 0.96587 0.0
C2826 C 0.25423 0.31101 0.95651 0.0
C2827 C 0.93542 0.9909 0.21506 0.0
C2828 C 0.93257 0.98699 0.25959 0.0
C2829 C 0.93596 0.00383 0.20354 0.0
C2830 C 0.93375 0.01329 0.2362 0.0
H2831 H 0.93784 0.98394 0.18938 0.0
H2832 H 0.93875 0.00645 0.16945 0.0
S2833 S 0.92415 0.00817 0.35558 0.0
N2834 N 0.9261 0.99368 0.33505 0.0
N2835 N 0.9274 0.018 0.31347 0.0
C2836 C 0.93025 0.00955 0.28012 0.0
C2837 C 0.9296 0.9964 0.2918 0.0
C2838 C 0.2419 0.67749 0.49886 0.0
C2839 C 0.23665 0.68752 0.47322 0.0
C2840 C 0.25493 0.6772 0.50949 0.0
C2841 C 0.26316 0.68686 0.49449 0.0
H2842 H 0.23589 0.66983 0.51093 0.0
H2843 H 0.25859 0.66938 0.52952 0.0
S2844 S 0.25415 0.71566 0.42941 0.0
N2845 N 0.2407 0.70771 0.43542 0.0
N2846 N 0.26517 0.70696 0.45451 0.0
C2847 C 0.25807 0.69692 0.46892 0.0
C2848 C 0.24483 0.69729 0.45846 0.0
C2849 C 0.55431 0.00374 0.78277 0.0
C2850 C 0.56337 0.01196 0.76326 0.0
C2851 C 0.55417 0.99073 0.77266 0.0
C2852 C 0.56302 0.98542 0.74237 0.0
H2853 H 0.54703 0.00744 0.80517 0.0
H2854 H 0.54687 0.98482 0.78782 0.0
S2855 S 0.58934 0.00247 0.68498 0.0
N2856 N 0.58197 0.01361 0.71446 0.0
N2857 N 0.58148 0.98913 0.69472 0.0
C2858 C 0.57227 0.99342 0.72316 0.0
C2859 C 0.5725 0.00668 0.73378 0.0
C2860 C 0.74644 0.68171 0.05005 0.0
C2861 C 0.73699 0.68412 0.01746 0.0
C2862 C 0.75939 0.68207 0.0386 0.0
C2863 C 0.76337 0.68495 0.9942 0.0
H2864 H 0.7438 0.67968 0.08478 0.0
H2865 H 0.76636 0.68027 0.06489 0.0
S2866 S 0.74231 0.6925 0.89691 0.0
N2867 N 0.73244 0.68965 0.9392 0.0
N2868 N 0.75676 0.6905 0.91776 0.0
C2869 C 0.75398 0.68721 0.96118 0.0
C2870 C 0.7408 0.68677 0.9728 0.0
C2871 C 0.05788 0.98997 0.72222 0.0
C2872 C 0.06459 0.98516 0.75959 0.0
C2873 C 0.05813 0.00297 0.71178 0.0
C2874 C 0.06525 0.01163 0.73802 0.0
H2875 H 0.05203 0.9837 0.70181 0.0
H2876 H 0.05235 0.0063 0.68381 0.0
S2877 S 0.08567 0.00336 0.83643 0.0
N2878 N 0.07915 0.9897 0.82125 0.0
N2879 N 0.08011 0.01412 0.80076 0.0
C2880 C 0.07244 0.00678 0.77445 0.0
C2881 C 0.072 0.99355 0.78544 0.0
C2882 C 0.7454 0.30961 0.45733 0.0
C2883 C 0.73692 0.31613 0.48593 0.0
C2884 C 0.75831 0.30847 0.46831 0.0
C2885 C 0.76326 0.31378 0.5084 0.0
H2886 H 0.74196 0.30483 0.42721 0.0
H2887 H 0.76441 0.30311 0.44573 0.0
S2888 S 0.74528 0.33287 0.59256 0.0
N2889 N 0.73458 0.32897 0.55399 0.0
N2890 N 0.75881 0.32647 0.57545 0.0
C2891 C 0.75502 0.32086 0.53624 0.0
C2892 C 0.74186 0.32208 0.52488 0.0
C2893 C 0.43978 0.99467 0.20822 0.0
C2894 C 0.43509 0.98568 0.23925 0.0
C2895 C 0.43988 0.00768 0.21861 0.0
C2896 C 0.43525 0.01218 0.2604 0.0
H2897 H 0.44388 0.99159 0.17637 0.0
H2898 H 0.44404 0.01421 0.19438 0.0
S2899 S 0.42044 0.99265 0.35081 0.0
N2900 N 0.42467 0.98223 0.31173 0.0
N2901 N 0.42479 0.00673 0.33123 0.0
C2902 C 0.43003 0.00333 0.29092 0.0
C2903 C 0.42995 0.99008 0.28035 0.0
C2904 C 0.74649 0.81028 0.53985 0.0
C2905 C 0.73678 0.81284 0.5084 0.0
C2906 C 0.75933 0.81077 0.52712 0.0
C2907 C 0.76287 0.81364 0.48233 0.0
H2908 H 0.74413 0.80765 0.57433 0.0
H2909 H 0.76651 0.80839 0.55207 0.0
S2910 S 0.74109 0.82155 0.38768 0.0
N2911 N 0.73155 0.81878 0.43104 0.0
N2912 N 0.75572 0.81961 0.40702 0.0
C2913 C 0.75328 0.81654 0.45087 0.0
C2914 C 0.74021 0.81619 0.46396 0.0
C2915 C 0.43379 0.49525 0.79116 0.0
C2916 C 0.43096 0.48614 0.75768 0.0
C2917 C 0.43365 0.5083 0.78116 0.0
C2918 C 0.43072 0.51267 0.73735 0.0
H2919 H 0.4368 0.49226 0.82459 0.0
H2920 H 0.43652 0.51496 0.80725 0.0
S2921 S 0.42061 0.49285 0.63993 0.0
N2922 N 0.4236 0.48249 0.68066 0.0
N2923 N 0.42351 0.50703 0.66181 0.0
C2924 C 0.4271 0.50372 0.70444 0.0
C2925 C 0.42717 0.49046 0.71464 0.0
C2926 C 0.74462 0.18398 0.9605 0.0
C2927 C 0.73525 0.1817 0.99347 0.0
C2928 C 0.75759 0.18344 0.97152 0.0
C2929 C 0.76164 0.18054 0.01584 0.0
H2930 H 0.74191 0.18684 0.92659 0.0
H2931 H 0.76447 0.18592 0.94565 0.0
S2932 S 0.74078 0.17185 0.1124 0.0
N2933 N 0.73082 0.17513 0.07075 0.0
N2934 N 0.75521 0.17391 0.09138 0.0
C2935 C 0.75234 0.17747 0.04832 0.0
C2936 C 0.73915 0.1781 0.03714 0.0
C2937 C 0.06002 0.49649 0.2129 0.0
C2938 C 0.06609 0.48733 0.24024 0.0
C2939 C 0.0601 0.50941 0.22461 0.0
C2940 C 0.06612 0.51362 0.26433 0.0
H2941 H 0.0547 0.49364 0.18314 0.0
H2942 H 0.05497 0.51609 0.20341 0.0
S2943 S 0.08462 0.49392 0.3448 0.0
N2944 N 0.07941 0.48369 0.30653 0.0
N2945 N 0.07906 0.50797 0.32931 0.0
C2946 C 0.0726 0.50472 0.29117 0.0
C2947 C 0.07271 0.49158 0.27893 0.0
C2948 C 0.25707 0.17878 0.4944 0.0
C2949 C 0.26377 0.19019 0.48697 0.0
C2950 C 0.24419 0.1789 0.50706 0.0
C2951 C 0.23762 0.19044 0.51333 0.0
H2952 H 0.26179 0.16969 0.49004 0.0
H2953 H 0.23937 0.16991 0.5124 0.0
S2954 S 0.25088 0.22292 0.49851 0.0
N2955 N 0.26294 0.21332 0.4876 0.0
N2956 N 0.23872 0.21355 0.51036 0.0
C2957 C 0.24422 0.2019 0.50603 0.0
C2958 C 0.25729 0.20178 0.49308 0.0
C2959 C 0.56201 0.49101 0.22985 0.0
C2960 C 0.56542 0.48687 0.27351 0.0
C2961 C 0.56176 0.50398 0.21892 0.0
C2962 C 0.56493 0.51329 0.25123 0.0
H2963 H 0.55901 0.48419 0.20444 0.0
H2964 H 0.55854 0.50674 0.18547 0.0
S2965 S 0.57618 0.5073 0.36845 0.0
N2966 N 0.57315 0.49299 0.34794 0.0
N2967 N 0.57281 0.51741 0.32732 0.0
C2968 C 0.56895 0.50924 0.29436 0.0
C2969 C 0.56915 0.49603 0.30552 0.0
C2970 C 0.25441 0.81634 0.04239 0.0
C2971 C 0.26347 0.8157 0.00743 0.0
C2972 C 0.24135 0.81632 0.03279 0.0
C2973 C 0.23686 0.81569 0.98789 0.0
H2974 H 0.25741 0.81623 0.07749 0.0
H2975 H 0.23469 0.8164 0.06083 0.0
S2976 S 0.25676 0.81521 0.88407 0.0
N2977 N 0.26711 0.81564 0.92611 0.0
N2978 N 0.24256 0.81522 0.90806 0.0
C2979 C 0.24583 0.81574 0.95256 0.0
C2980 C 0.25913 0.81581 0.96234 0.0
C2981 C 0.94785 0.49454 0.72706 0.0
C2982 C 0.93641 0.48756 0.72731 0.0
C2983 C 0.9481 0.50743 0.73898 0.0
C2984 C 0.93694 0.51384 0.75198 0.0
H2985 H 0.95675 0.48997 0.71827 0.0
H2986 H 0.95715 0.51237 0.73862 0.0
S2987 S 0.90443 0.5002 0.75622 0.0
N2988 N 0.91353 0.48821 0.73997 0.0
N2989 N 0.91408 0.51246 0.7632 0.0
C2990 C 0.92543 0.50705 0.75238 0.0
C2991 C 0.92514 0.49391 0.73986 0.0
C2992 C 0.15598 0.24812 0.8397 0.0
C2993 C 0.15623 0.26146 0.83558 0.0
C2994 C 0.15682 0.24026 0.80142 0.0
C2995 C 0.15795 0.24547 0.7577 0.0
H2996 H 0.15558 0.24372 0.87286 0.0
H2997 H 0.15697 0.23004 0.80621 0.0
S2998 S 0.15746 0.27979 0.72833 0.0
N2999 N 0.15659 0.27952 0.78417 0.0
N3000 N 0.15815 0.26475 0.71221 0.0
C3001 C 0.15772 0.25878 0.75302 0.0
C3002 C 0.15686 0.26677 0.79195 0.0
C3003 C 0.00731 0.90727 0.04856 0.0
C3004 C 0.00212 0.9091 0.00514 0.0
C3005 C 0.99949 0.90663 0.08695 0.0
C3006 C 0.98619 0.90776 0.08329 0.0
H3007 H 0.01753 0.90666 0.05304 0.0
H3008 H 0.00393 0.90561 0.11989 0.0
S3009 S 0.9678 0.91122 0.97672 0.0
N3010 N 0.98282 0.91107 0.96027 0.0
N3011 N 0.9681 0.9098 0.03243 0.0
C3012 C 0.98085 0.90918 0.0399 0.0
C3013 C 0.98881 0.90986 0.00084 0.0
C3014 C 0.34951 0.74023 0.31267 0.0
C3015 C 0.34145 0.74207 0.3501 0.0
C3016 C 0.34827 0.74774 0.2736 0.0
C3017 C 0.33875 0.75711 0.27044 0.0
H3018 H 0.35682 0.73296 0.31369 0.0
H3019 H 0.35463 0.74604 0.24536 0.0
S3020 S 0.31522 0.76554 0.35902 0.0
N3021 N 0.32368 0.75392 0.38167 0.0
N3022 N 0.32125 0.76791 0.30805 0.0
C3023 C 0.33065 0.75902 0.30763 0.0
C3024 C 0.33203 0.75153 0.34755 0.0
C3025 C 0.49858 0.09024 0.59136 0.0
C3026 C 0.5119 0.09113 0.58726 0.0
C3027 C 0.49079 0.08918 0.55301 0.0
C3028 C 0.49602 0.08893 0.50917 0.0
H3029 H 0.49417 0.09002 0.62452 0.0
H3030 H 0.48061 0.08824 0.55777 0.0
S3031 S 0.53019 0.09229 0.47987 0.0
N3032 N 0.5299 0.09262 0.53578 0.0
N3033 N 0.51523 0.09057 0.46368 0.0
C3034 C 0.50928 0.09016 0.50453 0.0
C3035 C 0.51722 0.09127 0.54356 0.0
C3036 C 0.1572 0.75909 0.70352 0.0
C3037 C 0.16012 0.7539 0.74619 0.0
C3038 C 0.15635 0.75135 0.66497 0.0
C3039 C 0.15834 0.73812 0.66772 0.0
H3040 H 0.15591 0.76927 0.6997 0.0
H3041 H 0.15448 0.75581 0.63255 0.0
S3042 S 0.16478 0.7197 0.77245 0.0
N3043 N 0.16404 0.73464 0.7896 0.0
N3044 N 0.16234 0.72006 0.71719 0.0
C3045 C 0.16084 0.73277 0.71046 0.0
C3046 C 0.16175 0.74066 0.74967 0.0
C3047 C 0.5075 0.90785 0.99162 0.0
C3048 C 0.49416 0.90748 0.98824 0.0
C3049 C 0.5152 0.90704 0.95296 0.0
C3050 C 0.50983 0.90582 0.90953 0.0
H3051 H 0.51203 0.90884 0.0244 0.0
H3052 H 0.52544 0.90747 0.95705 0.0
S3053 S 0.47537 0.90505 0.8822 0.0
N3054 N 0.47588 0.90615 0.93797 0.0
N3055 N 0.49035 0.90467 0.86526 0.0
C3056 C 0.4965 0.90535 0.9057 0.0
C3057 C 0.48866 0.90617 0.94507 0.0
C3058 C 0.346 0.24688 0.16306 0.0
C3059 C 0.34332 0.26 0.16336 0.0
C3060 C 0.3455 0.23966 0.2029 0.0
C3061 C 0.34226 0.24527 0.24462 0.0
H3062 H 0.34835 0.24211 0.13163 0.0
H3063 H 0.34732 0.22953 0.20074 0.0
S3064 S 0.33496 0.27939 0.26415 0.0
N3065 N 0.33756 0.27837 0.20912 0.0
N3066 N 0.33699 0.26486 0.28426 0.0
C3067 C 0.3399 0.25845 0.24565 0.0
C3068 C 0.34038 0.2658 0.20502 0.0
C3069 C 0.0031 0.07709 0.46262 0.0
C3070 C 0.00599 0.08807 0.48788 0.0
C3071 C 0.99587 0.07781 0.42294 0.0
C3072 C 0.99122 0.08953 0.40687 0.0
H3073 H 0.00668 0.06788 0.47312 0.0
H3074 H 0.99393 0.06909 0.40461 0.0
S3075 S 0.99568 0.12102 0.46136 0.0
N3076 N 0.0032 0.11097 0.49503 0.0
N3077 N 0.98982 0.11235 0.41961 0.0
C3078 C 0.99383 0.10057 0.43212 0.0
C3079 C 0.00121 0.09983 0.4727 0.0
C3080 C 0.84056 0.751 0.15682 0.0
C3081 C 0.84336 0.73796 0.16066 0.0
C3082 C 0.83955 0.75872 0.19534 0.0
C3083 C 0.84136 0.7537 0.23909 0.0
H3084 H 0.83876 0.75517 0.12388 0.0
H3085 H 0.83701 0.76864 0.19085 0.0
S3086 S 0.85022 0.7204 0.26674 0.0
N3087 N 0.84873 0.72051 0.21105 0.0
N3088 N 0.84709 0.73506 0.28357 0.0
C3089 C 0.84458 0.74075 0.2432 0.0
C3090 C 0.84552 0.73288 0.20396 0.0
C3091 C 0.99079 0.08792 0.94032 0.0
C3092 C 0.99552 0.08935 0.98458 0.0
C3093 C 0.99886 0.0889 0.90272 0.0
C3094 C 0.01197 0.09122 0.9081 0.0
H3095 H 0.98077 0.08606 0.93472 0.0
H3096 H 0.99487 0.08754 0.86922 0.0
S3097 S 0.02905 0.09569 0.01683 0.0
N3098 N 0.01411 0.09316 0.03173 0.0
N3099 N 0.02927 0.09512 0.96093 0.0
C3100 C 0.0168 0.09274 0.95214 0.0
C3101 C 0.00858 0.0918 0.99041 0.0
C3102 C 0.66936 0.26414 0.70298 0.0
C3103 C 0.66036 0.26232 0.66819 0.0
C3104 C 0.66977 0.25607 0.74068 0.0
C3105 C 0.6611 0.24598 0.74526 0.0
H3106 H 0.67623 0.27181 0.70088 0.0
H3107 H 0.67694 0.25771 0.76643 0.0
S3108 S 0.63588 0.23686 0.66379 0.0
N3109 N 0.64275 0.24941 0.64057 0.0
N3110 N 0.64334 0.23448 0.7123 0.0
C3111 C 0.65191 0.24416 0.71137 0.0
C3112 C 0.65157 0.25228 0.67265 0.0
C3113 C 0.50018 0.90798 0.40816 0.0
C3114 C 0.48689 0.9069 0.41256 0.0
C3115 C 0.50804 0.90887 0.44637 0.0
C3116 C 0.50291 0.90872 0.49038 0.0
H3117 H 0.50451 0.90848 0.3749 0.0
H3118 H 0.5182 0.90997 0.44138 0.0
S3119 S 0.46884 0.90481 0.52022 0.0
N3120 N 0.46901 0.9049 0.46428 0.0
N3121 N 0.4838 0.90654 0.53619 0.0
C3122 C 0.48967 0.90733 0.49526 0.0
C3123 C 0.48166 0.90642 0.45634 0.0
C3124 C 0.83203 0.25507 0.25601 0.0
C3125 C 0.83866 0.24342 0.25447 0.0
C3126 C 0.83268 0.26299 0.29412 0.0
C3127 C 0.84014 0.25964 0.33174 0.0
H3128 H 0.82619 0.25805 0.22769 0.0
H3129 H 0.8272 0.27173 0.29444 0.0
S3130 S 0.85905 0.23018 0.34588 0.0
N3131 N 0.85266 0.22885 0.29498 0.0
N3132 N 0.85418 0.24403 0.36585 0.0
C3133 C 0.84701 0.24821 0.33053 0.0
C3134 C 0.84622 0.24003 0.29204 0.0
C3135 C 0.48491 0.08997 0.04544 0.0
C3136 C 0.48987 0.08933 0.08966 0.0
C3137 C 0.49289 0.08904 0.00749 0.0
C3138 C 0.50611 0.08746 0.0125 0.0
H3139 H 0.47479 0.09131 0.04015 0.0
H3140 H 0.48873 0.08973 0.97401 0.0
S3141 S 0.52366 0.08393 0.12076 0.0
N3142 N 0.50871 0.08611 0.13613 0.0
N3143 N 0.52371 0.08449 0.06486 0.0
C3144 C 0.51116 0.08658 0.05647 0.0
C3145 C 0.50304 0.08748 0.09503 0.0
C3146 C 0.66087 0.73378 0.80353 0.0
C3147 C 0.66215 0.73896 0.84729 0.0
C3148 C 0.66185 0.74146 0.76488 0.0
C3149 C 0.66404 0.75461 0.76864 0.0
H3150 H 0.65902 0.72371 0.7991 0.0
H3151 H 0.66078 0.73712 0.73181 0.0
S3152 S 0.66906 0.77275 0.87475 0.0
N3153 N 0.66652 0.75799 0.89171 0.0
N3154 N 0.66799 0.77245 0.81895 0.0
C3155 C 0.6654 0.75993 0.81197 0.0
C3156 C 0.66455 0.7521 0.85133 0.0
C3157 C 0.99031 0.91636 0.54973 0.0
C3158 C 0.99425 0.91164 0.50741 0.0
C3159 C 0.998 0.9151 0.58819 0.0
C3160 C 0.00993 0.90908 0.5858 0.0
H3161 H 0.98125 0.9212 0.55306 0.0
H3162 H 0.99466 0.91905 0.61995 0.0
S3163 S 0.02432 0.89434 0.48383 0.0
N3164 N 0.01062 0.90019 0.46582 0.0
N3165 N 0.02515 0.89791 0.53824 0.0
C3166 C 0.01397 0.90423 0.54384 0.0
C3167 C 0.00612 0.90549 0.50462 0.0
C3168 C 0.66623 0.74804 0.34305 0.0
C3169 C 0.65632 0.75695 0.3473 0.0
C3170 C 0.66755 0.74068 0.30377 0.0
C3171 C 0.65889 0.74185 0.26772 0.0
H3172 H 0.67315 0.74691 0.36999 0.0
H3173 H 0.67535 0.73395 0.30169 0.0
S3174 S 0.63124 0.76372 0.26239 0.0
N3175 N 0.63771 0.76655 0.3124 0.0
N3176 N 0.64008 0.75255 0.23865 0.0
C3177 C 0.64887 0.75063 0.27172 0.0
C3178 C 0.64763 0.75826 0.31147 0.0
C3179 C 0.49992 0.41585 0.59599 0.0
C3180 C 0.49132 0.40566 0.60043 0.0
C3181 C 0.50722 0.41736 0.55668 0.0
C3182 C 0.50631 0.40863 0.52079 0.0
H3183 H 0.50082 0.42284 0.62279 0.0
H3184 H 0.51368 0.42538 0.55443 0.0
S3185 S 0.48536 0.38027 0.51598 0.0
N3186 N 0.48233 0.3867 0.56589 0.0
N3187 N 0.49624 0.38943 0.49207 0.0
C3188 C 0.49787 0.39832 0.52499 0.0
C3189 C 0.4903 0.39688 0.56478 0.0
C3190 C 0.84382 0.25474 0.79547 0.0
C3191 C 0.83824 0.25078 0.75451 0.0
C3192 C 0.8443 0.2466 0.83306 0.0
C3193 C 0.83907 0.23429 0.83114 0.0
H3194 H 0.84782 0.2642 0.79846 0.0
H3195 H 0.8485 0.25008 0.8642 0.0
S3196 S 0.82355 0.21933 0.73165 0.0
N3197 N 0.8275 0.23372 0.71407 0.0
N3198 N 0.82843 0.21841 0.78473 0.0
C3199 C 0.83359 0.23017 0.79025 0.0
C3200 C 0.83319 0.23841 0.7519 0.0
C3201 C 0.00558 0.57868 0.07962 0.0
C3202 C 0.01116 0.59024 0.09312 0.0
C3203 C 0.99777 0.57801 0.04123 0.0
C3204 C 0.99528 0.58887 0.01474 0.0
H3205 H 0.00715 0.5701 0.09921 0.0
H3206 H 0.99355 0.56893 0.0325 0.0
S3207 S 0.00828 0.62126 0.03424 0.0
N3208 N 0.01404 0.61269 0.07642 0.0
N3209 N 0.99948 0.61143 0.00378 0.0
C3210 C 0.00089 0.60048 0.02774 0.0
C3211 C 0.0088 0.60117 0.06703 0.0
C3212 C 0.65042 0.25309 0.22439 0.0
C3213 C 0.66177 0.25414 0.24944 0.0
C3214 C 0.64982 0.24559 0.1851 0.0
C3215 C 0.66062 0.23906 0.16933 0.0
H3216 H 0.64196 0.25818 0.2351 0.0
H3217 H 0.64099 0.2452 0.16621 0.0
S3218 S 0.69251 0.23841 0.22317 0.0
N3219 N 0.68396 0.24783 0.25605 0.0
N3220 N 0.68282 0.23369 0.18246 0.0
C3221 C 0.67194 0.23983 0.19455 0.0
C3222 C 0.67252 0.24737 0.23457 0.0
C3223 C 0.98936 0.40652 0.44662 0.0
C3224 C 0.99463 0.40891 0.48964 0.0
C3225 C 0.99705 0.40607 0.40783 0.0
C3226 C 0.01027 0.40801 0.41069 0.0
H3227 H 0.97917 0.40539 0.4427 0.0
H3228 H 0.99256 0.40464 0.37518 0.0
S3229 S 0.02892 0.413 0.51583 0.0
N3230 N 0.01401 0.41207 0.53323 0.0
N3231 N 0.02844 0.41132 0.46024 0.0
C3232 C 0.01571 0.40991 0.45365 0.0
C3233 C 0.0079 0.41034 0.49313 0.0
C3234 C 0.82792 0.74743 0.71156 0.0
C3235 C 0.83868 0.74519 0.7388 0.0
C3236 C 0.82862 0.75528 0.6733 0.0
C3237 C 0.84011 0.76116 0.66069 0.0
H3238 H 0.8189 0.74298 0.7196 0.0
H3239 H 0.82011 0.75665 0.6531 0.0
S3240 S 0.87086 0.75898 0.72176 0.0
N3241 N 0.86108 0.74993 0.75143 0.0
N3242 N 0.86238 0.76457 0.67902 0.0
C3243 C 0.85094 0.75904 0.68754 0.0
C3244 C 0.85023 0.75109 0.7267 0.0
C3245 C 0.49108 0.58808 0.99385 0.0
C3246 C 0.50442 0.58808 0.9903 0.0
C3247 C 0.48336 0.58889 0.95521 0.0
C3248 C 0.48872 0.58968 0.9116 0.0
H3249 H 0.48657 0.58747 0.02678 0.0
H3250 H 0.47312 0.58887 0.95951 0.0
S3251 S 0.52317 0.5892 0.884 0.0
N3252 N 0.52268 0.58852 0.93986 0.0
N3253 N 0.5082 0.58987 0.86711 0.0
C3254 C 0.50206 0.58966 0.90763 0.0
C3255 C 0.50991 0.5889 0.947 0.0
C3256 C 0.34856 0.24595 0.6799 0.0
C3257 C 0.33888 0.23742 0.66707 0.0
C3258 C 0.34716 0.25382 0.7179 0.0
C3259 C 0.33604 0.25344 0.7444 0.0
H3260 H 0.35728 0.24651 0.66043 0.0
H3261 H 0.35486 0.26022 0.72674 0.0
S3262 S 0.30754 0.23349 0.72331 0.0
N3263 N 0.31755 0.22953 0.68256 0.0
N3264 N 0.31499 0.24427 0.75422 0.0
C3265 C 0.32628 0.24501 0.73188 0.0
C3266 C 0.32768 0.23702 0.69315 0.0
C3267 C 0.48858 0.58711 0.44721 0.0
C3268 C 0.49335 0.589 0.49127 0.0
C3269 C 0.49647 0.58832 0.40917 0.0
C3270 C 0.50942 0.59143 0.41383 0.0
H3271 H 0.47875 0.58436 0.44211 0.0
H3272 H 0.4925 0.58646 0.37595 0.0
S3273 S 0.5263 0.59863 0.52105 0.0
N3274 N 0.51163 0.59513 0.53693 0.0
N3275 N 0.5265 0.59718 0.46535 0.0
C3276 C 0.51425 0.59367 0.45746 0.0
C3277 C 0.50621 0.59251 0.49619 0.0
C3278 C 0.16984 0.7526 0.22499 0.0
C3279 C 0.15864 0.74826 0.24592 0.0
C3280 C 0.16935 0.7604 0.18661 0.0
C3281 C 0.15763 0.76425 0.16787 0.0
H3282 H 0.17906 0.74968 0.23774 0.0
H3283 H 0.17823 0.76321 0.1709 0.0
S3284 S 0.12559 0.75639 0.21273 0.0
N3285 N 0.13553 0.74889 0.2469 0.0
N3286 N 0.13457 0.76376 0.17501 0.0
C3287 C 0.14636 0.76022 0.18918 0.0
C3288 C 0.14687 0.75219 0.22815 0.0
C3289 C 0.99104 0.40112 0.93081 0.0
C3290 C 0.98583 0.412 0.91022 0.0
C3291 C 0.99885 0.40216 0.96915 0.0
C3292 C 0.00181 0.41412 0.98801 0.0
H3293 H 0.98899 0.39175 0.91732 0.0
H3294 H 0.00256 0.39353 0.98427 0.0
S3295 S 0.99139 0.44553 0.94394 0.0
N3296 N 0.98461 0.43508 0.90982 0.0
N3297 N 0.99945 0.43709 0.98142 0.0
C3298 C 0.99677 0.42507 0.96725 0.0
C3299 C 0.98875 0.424 0.92845 0.0
C3300 C 0.34736 0.75622 0.81955 0.0
C3301 C 0.33718 0.75739 0.85009 0.0
C3302 C 0.34639 0.74835 0.78133 0.0
C3303 C 0.33524 0.74131 0.77257 0.0
H3304 H 0.35601 0.76165 0.8247 0.0
H3305 H 0.35434 0.74796 0.75801 0.0
S3306 S 0.30649 0.74003 0.84543 0.0
N3307 N 0.31599 0.75026 0.87109 0.0
N3308 N 0.31423 0.73528 0.79977 0.0
C3309 C 0.32515 0.74212 0.80377 0.0
C3310 C 0.32612 0.75019 0.84242 0.0
C3311 C 0.99306 0.60068 0.57103 0.0
C3312 C 0.98857 0.58972 0.59325 0.0
C3313 C 0.00094 0.59972 0.53279 0.0
C3314 C 0.00454 0.58778 0.51545 0.0
H3315 H 0.99034 0.61004 0.58294 0.0
H3316 H 0.00411 0.60838 0.5163 0.0
S3317 S 0.9965 0.55627 0.5641 0.0
N3318 N 0.98915 0.56659 0.59721 0.0
N3319 N 0.00378 0.56484 0.52501 0.0
C3320 C 0.00034 0.57678 0.53786 0.0
C3321 C 0.9924 0.57773 0.57685 0.0
C3322 C 0.15846 0.24223 0.25662 0.0
C3323 C 0.16268 0.2549 0.25958 0.0
C3324 C 0.15753 0.23457 0.29542 0.0
C3325 C 0.16084 0.23932 0.33843 0.0
H3326 H 0.15569 0.23828 0.22418 0.0
H3327 H 0.15406 0.22492 0.2918 0.0
S3328 S 0.1737 0.27149 0.36322 0.0
N3329 N 0.17092 0.27163 0.30817 0.0
N3330 N 0.16942 0.25721 0.38097 0.0
C3331 C 0.16536 0.2519 0.34154 0.0
C3332 C 0.16622 0.25969 0.30214 0.0
C3333 C 0.49848 0.42002 0.09687 0.0
C3334 C 0.50949 0.41239 0.09734 0.0
C3335 C 0.49092 0.42099 0.05792 0.0
C3336 C 0.49403 0.41426 0.01826 0.0
H3337 H 0.49578 0.42539 0.1267 0.0
H3338 H 0.48249 0.42693 0.059 0.0
S3339 S 0.52187 0.39304 0.00203 0.0
N3340 N 0.52312 0.398 0.05493 0.0
N3341 N 0.50894 0.39988 0.98156 0.0
C3342 C 0.50501 0.40661 0.0183 0.0
C3343 C 0.51275 0.40568 0.05785 0.0
C3344 C 0.10719 0.35194 0.09293 0.0
C3345 C 0.11936 0.3522 0.11284 0.0
C3346 C 0.09798 0.36105 0.1041 0.0
C3347 C 0.10057 0.37074 0.13567 0.0
H3348 H 0.1047 0.34452 0.06903 0.0
H3349 H 0.08868 0.3604 0.08835 0.0
S3350 S 0.13123 0.37621 0.19474 0.0
N3351 N 0.13372 0.36335 0.16382 0.0
N3352 N 0.11634 0.38044 0.185 0.0
C3353 C 0.11273 0.37121 0.15543 0.0
C3354 C 0.12213 0.36195 0.14398 0.0
C3355 C 0.88296 0.85204 0.33914 0.0
C3356 C 0.87733 0.85279 0.38227 0.0
C3357 C 0.89202 0.86101 0.32514 0.0
C3358 C 0.89556 0.87114 0.35352 0.0
H3359 H 0.88053 0.84431 0.31641 0.0
H3360 H 0.89628 0.86002 0.29191 0.0
S3361 S 0.8834 0.8775 0.46921 0.0
N3362 N 0.87578 0.86452 0.45297 0.0
N3363 N 0.89275 0.88147 0.42651 0.0
C3364 C 0.88986 0.87211 0.39645 0.0
C3365 C 0.88077 0.86289 0.41091 0.0
C3366 C 0.37586 0.63768 0.63731 0.0
C3367 C 0.37994 0.64868 0.61422 0.0
C3368 C 0.3846 0.62847 0.65205 0.0
C3369 C 0.39771 0.63003 0.64466 0.0
H3370 H 0.36585 0.63624 0.64457 0.0
H3371 H 0.38109 0.62015 0.66977 0.0
S3372 S 0.41325 0.65647 0.58272 0.0
N3373 N 0.39796 0.6601 0.58208 0.0
N3374 N 0.41436 0.64294 0.61091 0.0
C3375 C 0.40192 0.64087 0.62127 0.0
C3376 C 0.39304 0.65016 0.60581 0.0
C3377 C 0.62426 0.13769 0.87052 0.0
C3378 C 0.61971 0.14903 0.89003 0.0
C3379 C 0.61583 0.12837 0.85439 0.0
C3380 C 0.60257 0.13008 0.85723 0.0
H3381 H 0.63441 0.13612 0.86698 0.0
H3382 H 0.61971 0.11984 0.83905 0.0
S3383 S 0.58591 0.15752 0.90976 0.0
N3384 N 0.60117 0.16108 0.91401 0.0
N3385 N 0.58533 0.14356 0.88415 0.0
C3386 C 0.59793 0.14125 0.87768 0.0
C3387 C 0.6065 0.15073 0.89396 0.0
C3388 C 0.1023 0.63346 0.41433 0.0
C3389 C 0.10262 0.62845 0.37014 0.0
C3390 C 0.11118 0.6426 0.42843 0.0
C3391 C 0.1208 0.64686 0.39905 0.0
H3392 H 0.09498 0.63047 0.43788 0.0
H3393 H 0.11052 0.64635 0.46253 0.0
S3394 S 0.1259 0.63654 0.28031 0.0
N3395 N 0.11341 0.62827 0.29736 0.0
N3396 N 0.13016 0.64542 0.32392 0.0
C3397 C 0.12133 0.6418 0.35501 0.0
C3398 C 0.11221 0.63261 0.34051 0.0
C3399 C 0.61973 0.86174 0.591 0.0
C3400 C 0.62051 0.85007 0.61406 0.0
C3401 C 0.61063 0.8709 0.60312 0.0
C3402 C 0.60195 0.86867 0.63858 0.0
H3403 H 0.62627 0.86386 0.56365 0.0
H3404 H 0.61044 0.87982 0.58471 0.0
S3405 S 0.59941 0.83914 0.70693 0.0
N3406 N 0.6115 0.83649 0.67246 0.0
N3407 N 0.59429 0.8536 0.69488 0.0
C3408 C 0.60255 0.85695 0.66152 0.0
C3409 C 0.61185 0.84767 0.64932 0.0
C3410 C 0.39068 0.37062 0.89734 0.0
C3411 C 0.39914 0.36881 0.86104 0.0
C3412 C 0.3818 0.36122 0.9091 0.0
C3413 C 0.38116 0.34962 0.88526 0.0
H3414 H 0.39086 0.37942 0.91647 0.0
H3415 H 0.37529 0.36312 0.93673 0.0
S3416 S 0.40217 0.33987 0.7902 0.0
N3417 N 0.40684 0.35446 0.80279 0.0
N3418 N 0.39043 0.33659 0.82554 0.0
C3419 C 0.3898 0.34763 0.84945 0.0
C3420 C 0.39872 0.35727 0.83719 0.0
C3421 C 0.89095 0.14895 0.11646 0.0
C3422 C 0.87845 0.14473 0.10874 0.0
C3423 C 0.90042 0.14053 0.13111 0.0
C3424 C 0.89777 0.12755 0.13829 0.0
H3425 H 0.89339 0.15888 0.11172 0.0
H3426 H 0.90989 0.14424 0.13717 0.0
S3427 S 0.86665 0.11164 0.11983 0.0
N3428 N 0.86393 0.12675 0.1078 0.0
N3429 N 0.88181 0.11079 0.13443 0.0
C3430 C 0.8853 0.12319 0.13022 0.0
C3431 C 0.87563 0.13181 0.11564 0.0
C3432 C 0.89017 0.64677 0.90951 0.0
C3433 C 0.87807 0.64672 0.88913 0.0
C3434 C 0.89937 0.63769 0.89791 0.0
C3435 C 0.89681 0.62817 0.86561 0.0
H3436 H 0.89263 0.65406 0.93396 0.0
H3437 H 0.90865 0.63827 0.91379 0.0
S3438 S 0.86618 0.6232 0.80555 0.0
N3439 N 0.86374 0.63596 0.83707 0.0
N3440 N 0.881 0.61878 0.81553 0.0
C3441 C 0.88465 0.62785 0.84568 0.0
C3442 C 0.87529 0.63714 0.85738 0.0
C3443 C 0.12477 0.13349 0.61064 0.0
C3444 C 0.12169 0.1465 0.60777 0.0
C3445 C 0.11566 0.1245 0.62423 0.0
C3446 C 0.10319 0.12823 0.63551 0.0
H3447 H 0.13421 0.13023 0.60153 0.0
H3448 H 0.11832 0.11454 0.62504 0.0
S3449 S 0.09084 0.1613 0.63872 0.0
N3450 N 0.10565 0.16276 0.62073 0.0
N3451 N 0.08857 0.1459 0.64647 0.0
C3452 C 0.10013 0.14125 0.6341 0.0
C3453 C 0.10937 0.15037 0.62018 0.0
C3454 C 0.5983 0.35807 0.37503 0.0
C3455 C 0.60223 0.36998 0.35838 0.0
C3456 C 0.60717 0.34898 0.38938 0.0
C3457 C 0.62031 0.35148 0.3877 0.0
H3458 H 0.58826 0.35582 0.37765 0.0
H3459 H 0.60371 0.33998 0.40241 0.0
S3460 S 0.63558 0.38081 0.3437 0.0
N3461 N 0.62016 0.38355 0.33888 0.0
N3462 N 0.63687 0.36644 0.36596 0.0
C3463 C 0.62439 0.36328 0.37063 0.0
C3464 C 0.61535 0.37254 0.35595 0.0
C3465 C 0.38759 0.84964 0.14394 0.0
C3466 C 0.37822 0.85218 0.11105 0.0
C3467 C 0.39656 0.85888 0.15623 0.0
C3468 C 0.39654 0.87098 0.13594 0.0
H3469 H 0.38812 0.84037 0.15988 0.0
H3470 H 0.40371 0.85645 0.18123 0.0
S3471 S 0.37349 0.88278 0.0506 0.0
N3472 N 0.36906 0.86794 0.06028 0.0
N3473 N 0.38607 0.88526 0.08302 0.0
C3474 C 0.38716 0.87371 0.10342 0.0
C3475 C 0.37798 0.86433 0.09104 0.0
C3476 C 0.89542 0.36546 0.59382 0.0
C3477 C 0.89425 0.37181 0.63555 0.0
C3478 C 0.88674 0.35599 0.58104 0.0
C3479 C 0.87654 0.35256 0.60945 0.0
H3480 H 0.90331 0.36759 0.57144 0.0
H3481 H 0.88823 0.35107 0.54922 0.0
S3482 S 0.86849 0.36744 0.71985 0.0
N3483 N 0.88167 0.37472 0.70374 0.0
N3484 N 0.86518 0.35708 0.67947 0.0
C3485 C 0.87503 0.35918 0.65057 0.0
C3486 C 0.88392 0.36876 0.66367 0.0
C3487 C 0.39153 0.14951 0.37872 0.0
C3488 C 0.37948 0.14575 0.3946 0.0
C3489 C 0.40056 0.14052 0.36492 0.0
C3490 C 0.39788 0.12741 0.36642 0.0
H3491 H 0.39397 0.15952 0.37657 0.0
H3492 H 0.40969 0.14387 0.3527 0.0
S3493 S 0.36801 0.11256 0.40749 0.0
N3494 N 0.36548 0.12802 0.41242 0.0
N3495 N 0.3825 0.11107 0.38641 0.0
C3496 C 0.38588 0.1235 0.38225 0.0
C3497 C 0.37667 0.13267 0.39635 0.0
C3498 C 0.62228 0.63478 0.13269 0.0
C3499 C 0.61904 0.64603 0.10947 0.0
C3500 C 0.6129 0.62606 0.14622 0.0
C3501 C 0.59998 0.62827 0.13678 0.0
H3502 H 0.63215 0.63263 0.14011 0.0
H3503 H 0.6158 0.61747 0.16368 0.0
S3504 S 0.58636 0.65673 0.08061 0.0
N3505 N 0.60187 0.65925 0.08038 0.0
N3506 N 0.58431 0.64276 0.10515 0.0
C3507 C 0.59658 0.63953 0.11415 0.0
C3508 C 0.6061 0.64843 0.10064 0.0
C3509 C 0.10175 0.86393 0.89764 0.0
C3510 C 0.10267 0.87057 0.85646 0.0
C3511 C 0.11099 0.85501 0.91031 0.0
C3512 C 0.12157 0.85248 0.88243 0.0
H3513 H 0.09367 0.86546 0.91979 0.0
H3514 H 0.10971 0.84987 0.9418 0.0
S3515 S 0.12894 0.86833 0.77312 0.0
N3516 N 0.11522 0.87459 0.78894 0.0
N3517 N 0.13283 0.85806 0.81314 0.0
C3518 C 0.12275 0.85933 0.84163 0.0
C3519 C 0.11325 0.86831 0.82857 0.0
loop_
_geom_bond_atom_site_label_1
_geom_bond_atom_site_label_2
_geom_bond_distance
_geom_bond_site_symmetry_2
_ccdc_geom_bond_type
Li0 N17 1.990 . S
Li0 O60 1.956 . S
Li0 O61 1.970 . S
Li0 O62 1.961 . S
Li1 N25 1.990 . S
Li1 O60 1.970 . S
Li1 O61 1.956 . S
Li1 O63 1.961 . S
Li2 N47 1.990 . S
Li2 O60 1.961 . S
Li2 O62 1.956 . S
Li2 O63 1.970 . S
Li3 N53 1.990 1_554 S
Li3 O61 1.961 . S
Li3 O62 1.970 . S
Li3 O63 1.956 . S
C4 C6 1.348 . S
C4 C7 1.356 . S
C4 O60 1.325 . S
N5 C8 1.314 . S
N5 C9 1.279 . S
C6 C4 1.348 . S
C6 C8 1.353 . S
C6 H64 0.929 . S
C7 C4 1.356 . S
C7 C9 1.358 . S
C7 H65 0.930 . S
C8 N5 1.314 . S
C8 C6 1.353 . S
C8 H66 0.930 . S
C9 N5 1.279 . S
C9 C7 1.358 . S
C9 H67 0.930 . S
C10 C13 1.348 . S
C10 C14 1.356 . S
C10 O61 1.325 . S
C11 N12 1.279 . S
C11 C14 1.358 . S
C11 H68 0.930 . S
N12 C11 1.279 . S
N12 C15 1.314 . S
C13 C10 1.348 . S
C13 C15 1.353 . S
C13 H69 0.929 . S
C14 C10 1.356 . S
C14 C11 1.358 . S
C14 H70 0.930 . S
C15 N12 1.314 . S
C15 C13 1.353 . S
C15 H71 0.930 . S
C16 N17 1.314 . S
C16 C21 1.353 . S
C16 H22 0.930 . S
N17 Li0 1.990 . S
N17 C16 1.314 . S
N17 C19 1.279 . S
C18 C19 1.358 . S
C18 C20 1.356 . S
C18 H72 0.930 . S
C19 N17 1.279 . S
C19 C18 1.358 . S
C19 H23 0.930 . S
C20 C18 1.356 . S
C20 C21 1.348 . S
C21 C16 1.353 . S
C21 C20 1.348 . S
C21 H73 0.929 . S
H22 C16 0.930 . S
H23 C19 0.930 . S
C24 N25 1.314 . S
C24 C26 1.353 . S
C24 H30 0.930 . S
N25 Li1 1.990 . S
N25 C24 1.314 . S
N25 C28 1.279 . S
C26 C24 1.353 . S
C26 C29 1.348 . S
C26 H74 0.929 . S
C27 C28 1.358 . S
C27 C29 1.356 . S
C27 H75 0.930 . S
C28 N25 1.279 . S
C28 C27 1.358 . S
C28 H31 0.930 . S
C29 C26 1.348 . S
C29 C27 1.356 . S
H30 C24 0.930 . S
H31 C28 0.930 . S
C32 C34 1.348 . S
C32 C35 1.356 . S
C32 O62 1.325 1_556 S
N33 C36 1.314 . S
N33 C37 1.279 . S
C34 C32 1.348 . S
C34 C36 1.353 . S
C34 H76 0.929 . S
C35 C32 1.356 . S
C35 C37 1.358 . S
C35 H77 0.930 1_556 S
C36 N33 1.314 . S
C36 C34 1.353 . S
C36 H78 0.930 . S
C37 N33 1.279 . S
C37 C35 1.358 . S
C37 H79 0.930 . S
C38 C39 1.348 . S
C38 C40 1.356 . S
C38 O63 1.325 . S
C39 C38 1.348 . S
C39 C41 1.353 . S
C39 H80 0.929 . S
C40 C38 1.356 . S
C40 C42 1.358 . S
C40 H81 0.930 . S
C41 C39 1.353 . S
C41 N43 1.314 . S
C41 H82 0.930 . S
C42 C40 1.358 . S
C42 N43 1.279 . S
C42 H83 0.930 . S
N43 C41 1.314 . S
N43 C42 1.279 . S
C44 C46 1.353 . S
C44 N47 1.314 . S
C44 H50 0.930 . S
C45 N47 1.279 . S
C45 C48 1.358 . S
C45 H51 0.930 1_554 S
C46 C44 1.353 . S
C46 C49 1.348 . S
C46 H84 0.929 . S
N47 Li2 1.990 . S
N47 C44 1.314 . S
N47 C45 1.279 . S
C48 C45 1.358 . S
C48 C49 1.356 . S
C48 H85 0.930 1_554 S
C49 C46 1.348 . S
C49 C48 1.356 . S
H50 C44 0.930 . S
H51 C45 0.930 1_556 S
C52 N53 1.314 . S
C52 C54 1.353 . S
C52 H58 0.930 . S
N53 Li3 1.990 1_556 S
N53 C52 1.314 . S
N53 C56 1.279 . S
C54 C52 1.353 . S
C54 C57 1.348 . S
C54 H86 0.929 . S
C55 C56 1.358 . S
C55 C57 1.356 . S
C55 H87 0.930 . S
C56 N53 1.279 . S
C56 C55 1.358 . S
C56 H59 0.930 . S
C57 C54 1.348 . S
C57 C55 1.356 . S
H58 C52 0.930 . S
H59 C56 0.930 . S
O60 Li0 1.956 . S
O60 Li1 1.970 . S
O60 Li2 1.961 . S
O60 C4 1.325 . S
O61 Li0 1.970 . S
O61 Li1 1.956 . S
O61 Li3 1.961 . S
O61 C10 1.325 . S
O62 Li0 1.961 . S
O62 Li2 1.956 . S
O62 Li3 1.970 . S
O62 C32 1.325 1_554 S
O63 Li1 1.961 . S
O63 Li2 1.970 . S
O63 Li3 1.956 . S
O63 C38 1.325 . S
H64 C6 0.929 . S
H65 C7 0.930 . S
H66 C8 0.930 . S
H67 C9 0.930 . S
H68 C11 0.930 . S
H69 C13 0.929 . S
H70 C14 0.930 . S
H71 C15 0.930 . S
H72 C18 0.930 . S
H73 C21 0.929 . S
H74 C26 0.929 . S
H75 C27 0.930 . S
H76 C34 0.929 . S
H77 C35 0.930 1_554 S
H78 C36 0.930 . S
H79 C37 0.930 . S
H80 C39 0.929 . S
H81 C40 0.930 . S
H82 C41 0.930 . S
H83 C42 0.930 . S
H84 C46 0.929 . S
H85 C48 0.930 1_556 S
H86 C54 0.929 . S
H87 C55 0.930 . S
Li88 N105 1.990 . S
Li88 O148 1.956 . S
Li88 O149 1.970 . S
Li88 O150 1.961 . S
Li89 N113 1.990 . S
Li89 O148 1.970 . S
Li89 O149 1.956 . S
Li89 O151 1.961 . S
Li90 N135 1.990 . S
Li90 O148 1.961 . S
Li90 O150 1.956 . S
Li90 O151 1.970 . S
Li91 N141 1.990 . S
Li91 O149 1.961 . S
Li91 O150 1.970 . S
Li91 O151 1.956 . S
C92 C94 1.348 . S
C92 C95 1.356 . S
C92 O148 1.325 . S
N93 C96 1.314 . S
N93 C97 1.279 . S
C94 C92 1.348 . S
C94 C96 1.353 . S
C94 H152 0.929 . S
C95 C92 1.356 . S
C95 C97 1.358 . S
C95 H153 0.930 . S
C96 N93 1.314 . S
C96 C94 1.353 . S
C96 H154 0.930 . S
C97 N93 1.279 . S
C97 C95 1.358 . S
C97 H155 0.930 . S
C98 C101 1.348 . S
C98 C102 1.356 . S
C98 O149 1.325 . S
C99 N100 1.279 . S
C99 C102 1.358 . S
C99 H156 0.930 . S
N100 C99 1.279 . S
N100 C103 1.314 . S
C101 C98 1.348 . S
C101 C103 1.353 . S
C101 H157 0.929 . S
C102 C98 1.356 . S
C102 C99 1.358 . S
C102 H158 0.930 . S
C103 N100 1.314 . S
C103 C101 1.353 . S
C103 H159 0.930 . S
C104 N105 1.314 . S
C104 C109 1.353 . S
C104 H110 0.930 . S
N105 Li88 1.990 . S
N105 C104 1.314 . S
N105 C107 1.279 . S
C106 C107 1.358 . S
C106 C108 1.356 . S
C106 H160 0.930 . S
C107 N105 1.279 . S
C107 C106 1.358 . S
C107 H111 0.930 . S
C108 C106 1.356 . S
C108 C109 1.348 . S
C109 C104 1.353 . S
C109 C108 1.348 . S
C109 H161 0.929 . S
H110 C104 0.930 . S
H111 C107 0.930 . S
C112 N113 1.314 . S
C112 C114 1.353 . S
C112 H118 0.930 . S
N113 Li89 1.990 . S
N113 C112 1.314 . S
N113 C116 1.279 . S
C114 C112 1.353 . S
C114 C117 1.348 . S
C114 H162 0.929 . S
C115 C116 1.358 . S
C115 C117 1.356 . S
C115 H163 0.930 . S
C116 N113 1.279 . S
C116 C115 1.358 . S
C116 H119 0.930 . S
C117 C114 1.348 . S
C117 C115 1.356 . S
H118 C112 0.930 . S
H119 C116 0.930 . S
C120 C122 1.348 . S
C120 C123 1.356 . S
C120 O150 1.325 . S
N121 C124 1.314 . S
N121 C125 1.279 . S
C122 C120 1.348 . S
C122 C124 1.353 . S
C122 H164 0.929 . S
C123 C120 1.356 . S
C123 C125 1.358 . S
C123 H165 0.930 . S
C124 N121 1.314 . S
C124 C122 1.353 . S
C124 H166 0.930 . S
C125 N121 1.279 . S
C125 C123 1.358 . S
C125 H167 0.930 1_655 S
C126 C127 1.348 . S
C126 C128 1.356 . S
C126 O151 1.325 . S
C127 C126 1.348 . S
C127 C129 1.353 . S
C127 H168 0.929 . S
C128 C126 1.356 . S
C128 C130 1.358 . S
C128 H169 0.930 . S
C129 C127 1.353 . S
C129 N131 1.314 . S
C129 H170 0.930 . S
C130 C128 1.358 . S
C130 N131 1.279 . S
C130 H171 0.930 . S
N131 C129 1.314 . S
N131 C130 1.279 . S
C132 C134 1.353 . S
C132 N135 1.314 . S
C132 H138 0.930 . S
C133 N135 1.279 . S
C133 C136 1.358 . S
C133 H139 0.930 . S
C134 C132 1.353 . S
C134 C137 1.348 . S
C134 H172 0.929 . S
N135 Li90 1.990 . S
N135 C132 1.314 . S
N135 C133 1.279 . S
C136 C133 1.358 . S
C136 C137 1.356 . S
C136 H173 0.930 . S
C137 C134 1.348 . S
C137 C136 1.356 . S
H138 C132 0.930 . S
H139 C133 0.930 . S
C140 N141 1.314 . S
C140 C142 1.353 . S
C140 H146 0.930 . S
N141 Li91 1.990 . S
N141 C140 1.314 . S
N141 C144 1.279 . S
C142 C140 1.353 . S
C142 C145 1.348 . S
C142 H174 0.929 . S
C143 C144 1.358 . S
C143 C145 1.356 . S
C143 H175 0.930 . S
C144 N141 1.279 . S
C144 C143 1.358 . S
C144 H147 0.930 . S
C145 C142 1.348 . S
C145 C143 1.356 . S
H146 C140 0.930 . S
H147 C144 0.930 . S
O148 Li88 1.956 . S
O148 Li89 1.970 . S
O148 Li90 1.961 . S
O148 C92 1.325 . S
O149 Li88 1.970 . S
O149 Li89 1.956 . S
O149 Li91 1.961 . S
O149 C98 1.325 . S
O150 Li88 1.961 . S
O150 Li90 1.956 . S
O150 Li91 1.970 . S
O150 C120 1.325 . S
O151 Li89 1.961 . S
O151 Li90 1.970 . S
O151 Li91 1.956 . S
O151 C126 1.325 . S
H152 C94 0.929 . S
H153 C95 0.930 . S
H154 C96 0.930 . S
H155 C97 0.930 . S
H156 C99 0.930 . S
H157 C101 0.929 . S
H158 C102 0.930 . S
H159 C103 0.930 . S
H160 C106 0.930 . S
H161 C109 0.929 . S
H162 C114 0.929 . S
H163 C115 0.930 . S
H164 C122 0.929 . S
H165 C123 0.930 . S
H166 C124 0.930 . S
H167 C125 0.930 1_455 S
H168 C127 0.929 . S
H169 C128 0.930 . S
H170 C129 0.930 . S
H171 C130 0.930 . S
H172 C134 0.929 . S
H173 C136 0.930 . S
H174 C142 0.929 . S
H175 C143 0.930 . S
Li176 N193 1.990 . S
Li176 O236 1.956 . S
Li176 O237 1.970 . S
Li176 O238 1.961 . S
Li177 N201 1.990 . S
Li177 O236 1.970 . S
Li177 O237 1.956 . S
Li177 O239 1.961 . S
Li178 N223 1.990 . S
Li178 O236 1.961 . S
Li178 O238 1.956 . S
Li178 O239 1.970 . S
Li179 N229 1.990 . S
Li179 O237 1.961 . S
Li179 O238 1.970 . S
Li179 O239 1.956 . S
C180 C182 1.348 . S
C180 C183 1.356 . S
C180 O236 1.325 . S
N181 C184 1.314 . S
N181 C185 1.279 . S
C182 C180 1.348 . S
C182 C184 1.353 . S
C182 H240 0.929 . S
C183 C180 1.356 . S
C183 C185 1.358 . S
C183 H241 0.930 . S
C184 N181 1.314 . S
C184 C182 1.353 . S
C184 H242 0.930 . S
C185 N181 1.279 . S
C185 C183 1.358 . S
C185 H243 0.930 . S
C186 C189 1.348 . S
C186 C190 1.356 . S
C186 O237 1.325 . S
C187 N188 1.279 . S
C187 C190 1.358 . S
C187 H244 0.930 . S
N188 C187 1.279 . S
N188 C191 1.314 . S
C189 C186 1.348 . S
C189 C191 1.353 . S
C189 H245 0.929 . S
C190 C186 1.356 . S
C190 C187 1.358 . S
C190 H246 0.930 . S
C191 N188 1.314 . S
C191 C189 1.353 . S
C191 H247 0.930 . S
C192 N193 1.314 . S
C192 C197 1.353 . S
C192 H198 0.930 . S
N193 Li176 1.990 . S
N193 C192 1.314 . S
N193 C195 1.279 . S
C194 C195 1.358 . S
C194 C196 1.356 . S
C194 H248 0.930 . S
C195 N193 1.279 . S
C195 C194 1.358 . S
C195 H199 0.930 . S
C196 C194 1.356 . S
C196 C197 1.348 . S
C197 C192 1.353 . S
C197 C196 1.348 . S
C197 H249 0.929 . S
H198 C192 0.930 . S
H199 C195 0.930 . S
C200 N201 1.314 . S
C200 C202 1.353 . S
C200 H206 0.930 . S
N201 Li177 1.990 . S
N201 C200 1.314 . S
N201 C204 1.279 . S
C202 C200 1.353 . S
C202 C205 1.348 . S
C202 H250 0.929 . S
C203 C204 1.358 . S
C203 C205 1.356 . S
C203 H251 0.930 . S
C204 N201 1.279 . S
C204 C203 1.358 . S
C204 H207 0.930 . S
C205 C202 1.348 . S
C205 C203 1.356 . S
H206 C200 0.930 . S
H207 C204 0.930 . S
C208 C210 1.348 . S
C208 C211 1.356 . S
C208 O238 1.325 . S
N209 C212 1.314 . S
N209 C213 1.279 . S
C210 C208 1.348 . S
C210 C212 1.353 . S
C210 H252 0.929 . S
C211 C208 1.356 . S
C211 C213 1.358 . S
C211 H253 0.930 . S
C212 N209 1.314 . S
C212 C210 1.353 . S
C212 H254 0.930 . S
C213 N209 1.279 . S
C213 C211 1.358 . S
C213 H255 0.930 . S
C214 C215 1.348 . S
C214 C216 1.356 . S
C214 O239 1.325 . S
C215 C214 1.348 . S
C215 C217 1.353 . S
C215 H256 0.929 . S
C216 C214 1.356 . S
C216 C218 1.358 . S
C216 H257 0.930 . S
C217 C215 1.353 . S
C217 N219 1.314 . S
C217 H258 0.930 . S
C218 C216 1.358 . S
C218 N219 1.279 . S
C218 H259 0.930 . S
N219 C217 1.314 . S
N219 C218 1.279 . S
C220 C222 1.353 . S
C220 N223 1.314 . S
C220 H226 0.930 . S
C221 N223 1.279 . S
C221 C224 1.358 . S
C221 H227 0.930 . S
C222 C220 1.353 . S
C222 C225 1.348 . S
C222 H260 0.929 . S
N223 Li178 1.990 . S
N223 C220 1.314 . S
N223 C221 1.279 . S
C224 C221 1.358 . S
C224 C225 1.356 . S
C224 H261 0.930 . S
C225 C222 1.348 . S
C225 C224 1.356 . S
H226 C220 0.930 . S
H227 C221 0.930 . S
C228 N229 1.314 . S
C228 C230 1.353 . S
C228 H234 0.930 . S
N229 Li179 1.990 . S
N229 C228 1.314 . S
N229 C232 1.279 . S
C230 C228 1.353 . S
C230 C233 1.348 . S
C230 H262 0.929 . S
C231 C232 1.358 . S
C231 C233 1.356 . S
C231 H263 0.930 . S
C232 N229 1.279 . S
C232 C231 1.358 . S
C232 H235 0.930 . S
C233 C230 1.348 . S
C233 C231 1.356 . S
H234 C228 0.930 . S
H235 C232 0.930 . S
O236 Li176 1.956 . S
O236 Li177 1.970 . S
O236 Li178 1.961 . S
O236 C180 1.325 . S
O237 Li176 1.970 . S
O237 Li177 1.956 . S
O237 Li179 1.961 . S
O237 C186 1.325 . S
O238 Li176 1.961 . S
O238 Li178 1.956 . S
O238 Li179 1.970 . S
O238 C208 1.325 . S
O239 Li177 1.961 . S
O239 Li178 1.970 . S
O239 Li179 1.956 . S
O239 C214 1.325 . S
H240 C182 0.929 . S
H241 C183 0.930 . S
H242 C184 0.930 . S
H243 C185 0.930 . S
H244 C187 0.930 . S
H245 C189 0.929 . S
H246 C190 0.930 . S
H247 C191 0.930 . S
H248 C194 0.930 . S
H249 C197 0.929 . S
H250 C202 0.929 . S
H251 C203 0.930 . S
H252 C210 0.929 . S
H253 C211 0.930 . S
H254 C212 0.930 . S
H255 C213 0.930 . S
H256 C215 0.929 . S
H257 C216 0.930 . S
H258 C217 0.930 . S
H259 C218 0.930 . S
H260 C222 0.929 . S
H261 C224 0.930 . S
H262 C230 0.929 . S
H263 C231 0.930 . S
Li264 N281 1.990 . S
Li264 O324 1.956 . S
Li264 O325 1.970 . S
Li264 O326 1.961 . S
Li265 N289 1.990 . S
Li265 O324 1.970 . S
Li265 O325 1.956 . S
Li265 O327 1.961 . S
Li266 N311 1.990 . S
Li266 O324 1.961 . S
Li266 O326 1.956 . S
Li266 O327 1.970 . S
Li267 N317 1.990 . S
Li267 O325 1.961 . S
Li267 O326 1.970 . S
Li267 O327 1.956 . S
C268 C270 1.348 . S
C268 C271 1.356 . S
C268 O324 1.325 . S
N269 C272 1.314 . S
N269 C273 1.279 . S
C270 C268 1.348 . S
C270 C272 1.353 . S
C270 H328 0.929 . S
C271 C268 1.356 . S
C271 C273 1.358 . S
C271 H329 0.930 . S
C272 N269 1.314 . S
C272 C270 1.353 . S
C272 H330 0.908 1_556 S
C273 N269 1.279 . S
C273 C271 1.358 . S
C273 H331 0.930 . S
C274 C277 1.348 . S
C274 C278 1.356 . S
C274 O325 1.325 . S
C275 N276 1.279 . S
C275 C278 1.358 . S
C275 H332 0.930 . S
N276 C275 1.279 . S
N276 C279 1.314 . S
C277 C274 1.348 . S
C277 C279 1.353 . S
C277 H333 0.929 . S
C278 C274 1.356 . S
C278 C275 1.358 . S
C278 H334 0.930 . S
C279 N276 1.314 . S
C279 C277 1.353 . S
C279 H335 0.930 . S
C280 N281 1.314 . S
C280 C285 1.353 . S
C280 H286 0.930 . S
N281 Li264 1.990 . S
N281 C280 1.314 . S
N281 C283 1.279 . S
C282 C283 1.358 . S
C282 C284 1.356 . S
C282 H336 0.930 . S
C283 N281 1.279 . S
C283 C282 1.358 . S
C283 H287 0.930 . S
C284 C282 1.356 . S
C284 C285 1.348 . S
C285 C280 1.353 . S
C285 C284 1.348 . S
C285 H337 0.929 . S
H286 C280 0.930 . S
H287 C283 0.930 . S
C288 N289 1.314 . S
C288 C290 1.353 . S
C288 H294 0.930 . S
N289 Li265 1.990 . S
N289 C288 1.314 . S
N289 C292 1.279 . S
C290 C288 1.353 . S
C290 C293 1.348 . S
C290 H338 0.929 . S
C291 C292 1.358 . S
C291 C293 1.356 . S
C291 H339 0.930 . S
C292 N289 1.279 . S
C292 C291 1.358 . S
C292 H295 0.930 . S
C293 C290 1.348 . S
C293 C291 1.356 . S
H294 C288 0.930 . S
H295 C292 0.930 . S
C296 C298 1.348 . S
C296 C299 1.356 . S
C296 O326 1.325 . S
N297 C300 1.314 . S
N297 C301 1.279 . S
C298 C296 1.348 . S
C298 C300 1.353 . S
C298 H340 0.929 . S
C299 C296 1.356 . S
C299 C301 1.358 . S
C299 H341 0.930 . S
C300 N297 1.314 . S
C300 C298 1.353 . S
C300 H342 0.930 . S
C301 N297 1.279 . S
C301 C299 1.358 . S
C301 H343 0.930 . S
C302 C303 1.348 . S
C302 C304 1.356 . S
C302 O327 1.325 . S
C303 C302 1.348 . S
C303 C305 1.353 . S
C303 H344 0.929 . S
C304 C302 1.356 . S
C304 C306 1.358 . S
C304 H345 0.930 . S
C305 C303 1.353 . S
C305 N307 1.314 . S
C305 H346 0.930 . S
C306 C304 1.358 . S
C306 N307 1.279 . S
C306 H347 0.930 . S
N307 C305 1.314 . S
N307 C306 1.279 . S
C308 C310 1.353 . S
C308 N311 1.314 . S
C308 H314 0.930 . S
C309 N311 1.279 . S
C309 C312 1.358 . S
C309 H315 0.930 . S
C310 C308 1.353 . S
C310 C313 1.348 . S
C310 H348 0.929 . S
N311 Li266 1.990 . S
N311 C308 1.314 . S
N311 C309 1.279 . S
C312 C309 1.358 . S
C312 C313 1.356 . S
C312 H349 0.930 . S
C313 C310 1.348 . S
C313 C312 1.356 . S
H314 C308 0.930 . S
H315 C309 0.930 . S
C316 N317 1.314 . S
C316 C318 1.353 . S
C316 H322 0.930 . S
N317 Li267 1.990 . S
N317 C316 1.314 . S
N317 C320 1.279 . S
C318 C316 1.353 . S
C318 C321 1.348 . S
C318 H350 0.929 . S
C319 C320 1.358 . S
C319 C321 1.356 . S
C319 H351 0.930 . S
C320 N317 1.279 . S
C320 C319 1.358 . S
C320 H323 0.930 . S
C321 C318 1.348 . S
C321 C319 1.356 . S
H322 C316 0.930 . S
H323 C320 0.930 . S
O324 Li264 1.956 . S
O324 Li265 1.970 . S
O324 Li266 1.961 . S
O324 C268 1.325 . S
O325 Li264 1.970 . S
O325 Li265 1.956 . S
O325 Li267 1.961 . S
O325 C274 1.325 . S
O326 Li264 1.961 . S
O326 Li266 1.956 . S
O326 Li267 1.970 . S
O326 C296 1.325 . S
O327 Li265 1.961 . S
O327 Li266 1.970 . S
O327 Li267 1.956 . S
O327 C302 1.325 . S
H328 C270 0.929 . S
H329 C271 0.930 . S
H330 C272 0.908 1_554 S
H331 C273 0.930 . S
H332 C275 0.930 . S
H333 C277 0.929 . S
H334 C278 0.930 . S
H335 C279 0.930 . S
H336 C282 0.930 . S
H337 C285 0.929 . S
H338 C290 0.929 . S
H339 C291 0.930 . S
H340 C298 0.929 . S
H341 C299 0.930 . S
H342 C300 0.930 . S
H343 C301 0.930 . S
H344 C303 0.929 . S
H345 C304 0.930 . S
H346 C305 0.930 . S
H347 C306 0.930 . S
H348 C310 0.929 . S
H349 C312 0.930 . S
H350 C318 0.929 . S
H351 C319 0.930 . S
Li352 N369 1.990 . S
Li352 O412 1.956 . S
Li352 O413 1.970 . S
Li352 O414 1.961 . S
Li353 N377 1.990 . S
Li353 O412 1.970 . S
Li353 O413 1.956 . S
Li353 O415 1.961 . S
Li354 N399 1.990 . S
Li354 O412 1.961 . S
Li354 O414 1.956 . S
Li354 O415 1.970 . S
Li355 N405 1.990 . S
Li355 O413 1.961 . S
Li355 O414 1.970 . S
Li355 O415 1.956 . S
C356 C358 1.348 . S
C356 C359 1.356 . S
C356 O412 1.325 . S
N357 C360 1.314 . S
N357 C361 1.279 . S
C358 C356 1.348 . S
C358 C360 1.353 . S
C358 H416 0.929 . S
C359 C356 1.356 . S
C359 C361 1.358 . S
C359 H417 0.930 . S
C360 N357 1.314 . S
C360 C358 1.353 . S
C360 H418 0.930 . S
C361 N357 1.279 . S
C361 C359 1.358 . S
C361 H419 0.930 . S
C362 C365 1.348 . S
C362 C366 1.356 . S
C362 O413 1.325 . S
C363 N364 1.279 . S
C363 C366 1.358 . S
C363 H420 0.930 . S
N364 C363 1.279 . S
N364 C367 1.314 . S
C365 C362 1.348 . S
C365 C367 1.353 . S
C365 H421 0.929 . S
C366 C362 1.356 . S
C366 C363 1.358 . S
C366 H422 0.930 . S
C367 N364 1.314 . S
C367 C365 1.353 . S
C367 H423 0.930 . S
C368 N369 1.314 . S
C368 C373 1.353 . S
C368 H374 0.930 . S
N369 Li352 1.990 . S
N369 C368 1.314 . S
N369 C371 1.279 . S
C370 C371 1.358 . S
C370 C372 1.356 . S
C370 H424 0.930 . S
C371 N369 1.279 . S
C371 C370 1.358 . S
C371 H375 0.930 . S
C372 C370 1.356 . S
C372 C373 1.348 . S
C373 C368 1.353 . S
C373 C372 1.348 . S
C373 H425 0.929 . S
H374 C368 0.930 . S
H375 C371 0.930 . S
C376 N377 1.314 . S
C376 C378 1.353 . S
C376 H382 0.930 . S
N377 Li353 1.990 . S
N377 C376 1.314 . S
N377 C380 1.279 . S
C378 C376 1.353 . S
C378 C381 1.348 . S
C378 H426 0.929 . S
C379 C380 1.358 . S
C379 C381 1.356 . S
C379 H427 0.930 . S
C380 N377 1.279 . S
C380 C379 1.358 . S
C380 H383 0.930 . S
C381 C378 1.348 . S
C381 C379 1.356 . S
H382 C376 0.930 . S
H383 C380 0.930 . S
C384 C386 1.348 . S
C384 C387 1.356 . S
C384 O414 1.325 . S
N385 C388 1.314 . S
N385 C389 1.279 . S
C386 C384 1.348 . S
C386 C388 1.353 . S
C386 H428 0.929 . S
C387 C384 1.356 . S
C387 C389 1.358 . S
C387 H429 0.930 . S
C388 N385 1.314 . S
C388 C386 1.353 . S
C388 H430 0.930 . S
C389 N385 1.279 . S
C389 C387 1.358 . S
C389 H431 0.930 . S
C390 C391 1.348 . S
C390 C392 1.356 . S
C390 O415 1.325 . S
C391 C390 1.348 . S
C391 C393 1.353 . S
C391 H432 0.929 . S
C392 C390 1.356 . S
C392 C394 1.358 . S
C392 H433 0.930 . S
C393 C391 1.353 . S
C393 N395 1.314 . S
C393 H434 0.930 . S
C394 C392 1.358 . S
C394 N395 1.279 . S
C394 H435 0.930 . S
N395 C393 1.314 . S
N395 C394 1.279 . S
C396 C398 1.353 . S
C396 N399 1.314 . S
C396 H402 0.930 . S
C397 N399 1.279 . S
C397 C400 1.358 . S
C397 H403 0.930 . S
C398 C396 1.353 . S
C398 C401 1.348 . S
C398 H436 0.929 . S
N399 Li354 1.990 . S
N399 C396 1.314 . S
N399 C397 1.279 . S
C400 C397 1.358 . S
C400 C401 1.356 . S
C400 H437 0.930 . S
C401 C398 1.348 . S
C401 C400 1.356 . S
H402 C396 0.930 . S
H403 C397 0.930 . S
C404 N405 1.314 . S
C404 C406 1.353 . S
C404 H410 0.930 . S
N405 Li355 1.990 . S
N405 C404 1.314 . S
N405 C408 1.279 . S
C406 C404 1.353 . S
C406 C409 1.348 . S
C406 H438 0.929 . S
C407 C408 1.358 . S
C407 C409 1.356 . S
C407 H439 0.930 . S
C408 N405 1.279 . S
C408 C407 1.358 . S
C408 H411 0.930 . S
C409 C406 1.348 . S
C409 C407 1.356 . S
H410 C404 0.930 . S
H411 C408 0.930 . S
O412 Li352 1.956 . S
O412 Li353 1.970 . S
O412 Li354 1.961 . S
O412 C356 1.325 . S
O413 Li352 1.970 . S
O413 Li353 1.956 . S
O413 Li355 1.961 . S
O413 C362 1.325 . S
O414 Li352 1.961 . S
O414 Li354 1.956 . S
O414 Li355 1.970 . S
O414 C384 1.325 . S
O415 Li353 1.961 . S
O415 Li354 1.970 . S
O415 Li355 1.956 . S
O415 C390 1.325 . S
H416 C358 0.929 . S
H417 C359 0.930 . S
H418 C360 0.930 . S
H419 C361 0.930 . S
H420 C363 0.930 . S
H421 C365 0.929 . S
H422 C366 0.930 . S
H423 C367 0.930 . S
H424 C370 0.930 . S
H425 C373 0.929 . S
H426 C378 0.929 . S
H427 C379 0.930 . S
H428 C386 0.929 . S
H429 C387 0.930 . S
H430 C388 0.930 . S
H431 C389 0.930 . S
H432 C391 0.929 . S
H433 C392 0.930 . S
H434 C393 0.930 . S
H435 C394 0.930 . S
H436 C398 0.929 . S
H437 C400 0.930 . S
H438 C406 0.929 . S
H439 C407 0.930 . S
Li440 N457 1.990 . S
Li440 O500 1.956 . S
Li440 O501 1.970 . S
Li440 O502 1.961 . S
Li441 N465 1.990 . S
Li441 O500 1.970 . S
Li441 O501 1.956 . S
Li441 O503 1.961 . S
Li442 N487 1.990 . S
Li442 O500 1.961 . S
Li442 O502 1.956 . S
Li442 O503 1.970 . S
Li443 N493 1.990 . S
Li443 O501 1.961 . S
Li443 O502 1.970 . S
Li443 O503 1.956 . S
C444 C446 1.348 . S
C444 C447 1.356 . S
C444 O500 1.325 . S
N445 C448 1.314 . S
N445 C449 1.279 . S
C446 C444 1.348 . S
C446 C448 1.353 . S
C446 H504 0.929 . S
C447 C444 1.356 . S
C447 C449 1.358 . S
C447 H505 0.930 . S
C448 N445 1.314 . S
C448 C446 1.353 . S
C448 H506 0.930 . S
C449 N445 1.279 . S
C449 C447 1.358 . S
C449 H507 0.930 . S
C450 C453 1.348 . S
C450 C454 1.356 . S
C450 O501 1.325 . S
C451 N452 1.279 . S
C451 C454 1.358 . S
C451 H508 0.930 . S
N452 C451 1.279 . S
N452 C455 1.314 . S
C453 C450 1.348 . S
C453 C455 1.353 . S
C453 H509 0.929 . S
C454 C450 1.356 . S
C454 C451 1.358 . S
C454 H510 0.930 . S
C455 N452 1.314 . S
C455 C453 1.353 . S
C455 H511 0.930 . S
C456 N457 1.314 . S
C456 C461 1.353 . S
C456 H462 0.930 . S
N457 Li440 1.990 . S
N457 C456 1.314 . S
N457 C459 1.279 . S
C458 C459 1.358 . S
C458 C460 1.356 . S
C458 H512 0.930 . S
C459 N457 1.279 . S
C459 C458 1.358 . S
C459 H463 0.930 . S
C460 C458 1.356 . S
C460 C461 1.348 . S
C461 C456 1.353 . S
C461 C460 1.348 . S
C461 H513 0.929 . S
H462 C456 0.930 . S
H463 C459 0.930 . S
C464 N465 1.314 . S
C464 C466 1.353 . S
C464 H470 0.930 . S
N465 Li441 1.990 . S
N465 C464 1.314 . S
N465 C468 1.279 . S
C466 C464 1.353 . S
C466 C469 1.348 . S
C466 H514 0.929 . S
C467 C468 1.358 . S
C467 C469 1.356 . S
C467 H515 0.930 . S
C468 N465 1.279 . S
C468 C467 1.358 . S
C468 H471 0.930 . S
C469 C466 1.348 . S
C469 C467 1.356 . S
H470 C464 0.930 . S
H471 C468 0.930 . S
C472 C474 1.348 . S
C472 C475 1.356 . S
C472 O502 1.325 . S
N473 C476 1.314 . S
N473 C477 1.279 . S
C474 C472 1.348 . S
C474 C476 1.353 . S
C474 H516 0.929 . S
C475 C472 1.356 . S
C475 C477 1.358 . S
C475 H517 0.930 . S
C476 N473 1.314 . S
C476 C474 1.353 . S
C476 H518 0.930 . S
C477 N473 1.279 . S
C477 C475 1.358 . S
C477 H519 0.930 . S
C478 C479 1.348 . S
C478 C480 1.356 . S
C478 O503 1.325 . S
C479 C478 1.348 . S
C479 C481 1.353 . S
C479 H520 0.929 . S
C480 C478 1.356 . S
C480 C482 1.358 . S
C480 H521 0.930 . S
C481 C479 1.353 . S
C481 N483 1.314 . S
C481 H522 0.930 . S
C482 C480 1.358 . S
C482 N483 1.279 . S
C482 H523 0.930 . S
N483 C481 1.314 . S
N483 C482 1.279 . S
C484 C486 1.353 . S
C484 N487 1.314 . S
C484 H490 0.930 . S
C485 N487 1.279 . S
C485 C488 1.358 . S
C485 H491 0.930 . S
C486 C484 1.353 . S
C486 C489 1.348 . S
C486 H524 0.929 . S
N487 Li442 1.990 . S
N487 C484 1.314 . S
N487 C485 1.279 . S
C488 C485 1.358 . S
C488 C489 1.356 . S
C488 H525 0.930 . S
C489 C486 1.348 . S
C489 C488 1.356 . S
H490 C484 0.930 . S
H491 C485 0.930 . S
C492 N493 1.314 . S
C492 C494 1.353 . S
C492 H498 0.930 . S
N493 Li443 1.990 . S
N493 C492 1.314 . S
N493 C496 1.279 . S
C494 C492 1.353 . S
C494 C497 1.348 . S
C494 H526 0.929 . S
C495 C496 1.358 . S
C495 C497 1.356 . S
C495 H527 0.930 . S
C496 N493 1.279 . S
C496 C495 1.358 . S
C496 H499 0.930 . S
C497 C494 1.348 . S
C497 C495 1.356 . S
H498 C492 0.930 . S
H499 C496 0.930 . S
O500 Li440 1.956 . S
O500 Li441 1.970 . S
O500 Li442 1.961 . S
O500 C444 1.325 . S
O501 Li440 1.970 . S
O501 Li441 1.956 . S
O501 Li443 1.961 . S
O501 C450 1.325 . S
O502 Li440 1.961 . S
O502 Li442 1.956 . S
O502 Li443 1.970 . S
O502 C472 1.325 . S
O503 Li441 1.961 . S
O503 Li442 1.970 . S
O503 Li443 1.956 . S
O503 C478 1.325 . S
H504 C446 0.929 . S
H505 C447 0.930 . S
H506 C448 0.930 . S
H507 C449 0.930 . S
H508 C451 0.930 . S
H509 C453 0.929 . S
H510 C454 0.930 . S
H511 C455 0.930 . S
H512 C458 0.930 . S
H513 C461 0.929 . S
H514 C466 0.929 . S
H515 C467 0.930 . S
H516 C474 0.929 . S
H517 C475 0.930 . S
H518 C476 0.930 . S
H519 C477 0.930 . S
H520 C479 0.929 . S
H521 C480 0.930 . S
H522 C481 0.930 . S
H523 C482 0.930 . S
H524 C486 0.929 . S
H525 C488 0.930 . S
H526 C494 0.929 . S
H527 C495 0.930 . S
Li528 N545 1.990 . S
Li528 O588 1.956 . S
Li528 O589 1.970 . S
Li528 O590 1.961 . S
Li529 N553 1.990 1_556 S
Li529 O588 1.970 . S
Li529 O589 1.956 . S
Li529 O591 1.961 . S
Li530 N575 1.990 . S
Li530 O588 1.961 . S
Li530 O590 1.956 . S
Li530 O591 1.970 . S
Li531 N581 1.990 . S
Li531 O589 1.961 . S
Li531 O590 1.970 . S
Li531 O591 1.956 . S
C532 C534 1.348 . S
C532 C535 1.356 . S
C532 O588 1.325 1_554 S
N533 C536 1.314 . S
N533 C537 1.279 . S
C534 C532 1.348 . S
C534 C536 1.353 . S
C534 H592 0.929 . S
C535 C532 1.356 . S
C535 C537 1.358 . S
C535 H593 0.930 1_554 S
C536 N533 1.314 . S
C536 C534 1.353 . S
C536 H594 0.930 . S
C537 N533 1.279 . S
C537 C535 1.358 . S
C537 H595 0.930 . S
C538 C541 1.348 . S
C538 C542 1.356 . S
C538 O589 1.325 . S
C539 N540 1.279 . S
C539 C542 1.358 . S
C539 H596 0.930 . S
N540 C539 1.279 . S
N540 C543 1.314 . S
C541 C538 1.348 . S
C541 C543 1.353 . S
C541 H597 0.929 . S
C542 C538 1.356 . S
C542 C539 1.358 . S
C542 H598 0.930 . S
C543 N540 1.314 . S
C543 C541 1.353 . S
C543 H599 0.930 . S
C544 N545 1.314 . S
C544 C549 1.353 . S
C544 H550 0.930 . S
N545 Li528 1.990 . S
N545 C544 1.314 . S
N545 C547 1.279 . S
C546 C547 1.358 . S
C546 C548 1.356 . S
C546 H600 0.930 1_556 S
C547 N545 1.279 . S
C547 C546 1.358 . S
C547 H551 0.930 1_556 S
C548 C546 1.356 . S
C548 C549 1.348 . S
C549 C544 1.353 . S
C549 C548 1.348 . S
C549 H601 0.929 . S
H550 C544 0.930 . S
H551 C547 0.930 1_554 S
C552 N553 1.314 . S
C552 C554 1.353 . S
C552 H558 0.930 . S
N553 Li529 1.990 1_554 S
N553 C552 1.314 . S
N553 C556 1.279 . S
C554 C552 1.353 . S
C554 C557 1.348 . S
C554 H602 0.929 . S
C555 C556 1.358 . S
C555 C557 1.356 . S
C555 H603 0.930 . S
C556 N553 1.279 . S
C556 C555 1.358 . S
C556 H559 0.930 . S
C557 C554 1.348 . S
C557 C555 1.356 . S
H558 C552 0.930 . S
H559 C556 0.930 . S
C560 C562 1.348 . S
C560 C563 1.356 . S
C560 O590 1.325 . S
N561 C564 1.314 . S
N561 C565 1.279 . S
C562 C560 1.348 . S
C562 C564 1.353 . S
C562 H604 0.929 . S
C563 C560 1.356 . S
C563 C565 1.358 . S
C563 H605 0.930 . S
C564 N561 1.314 . S
C564 C562 1.353 . S
C564 H606 0.930 . S
C565 N561 1.279 . S
C565 C563 1.358 . S
C565 H607 0.930 . S
C566 C567 1.348 . S
C566 C568 1.356 . S
C566 O591 1.325 . S
C567 C566 1.348 . S
C567 C569 1.353 . S
C567 H608 0.929 . S
C568 C566 1.356 . S
C568 C570 1.358 . S
C568 H609 0.930 . S
C569 C567 1.353 . S
C569 N571 1.314 . S
C569 H610 0.930 . S
C570 C568 1.358 . S
C570 N571 1.279 . S
C570 H611 0.930 . S
N571 C569 1.314 . S
N571 C570 1.279 . S
C572 C574 1.353 . S
C572 N575 1.314 . S
C572 H578 0.930 . S
C573 N575 1.279 . S
C573 C576 1.358 . S
C573 H579 0.930 . S
C574 C572 1.353 . S
C574 C577 1.348 . S
C574 H612 0.929 . S
N575 Li530 1.990 . S
N575 C572 1.314 . S
N575 C573 1.279 . S
C576 C573 1.358 . S
C576 C577 1.356 . S
C576 H613 0.930 . S
C577 C574 1.348 . S
C577 C576 1.356 . S
H578 C572 0.930 . S
H579 C573 0.930 . S
C580 N581 1.314 . S
C580 C582 1.353 . S
C580 H586 0.930 . S
N581 Li531 1.990 . S
N581 C580 1.314 . S
N581 C584 1.279 . S
C582 C580 1.353 . S
C582 C585 1.348 . S
C582 H614 0.929 . S
C583 C584 1.358 . S
C583 C585 1.356 . S
C583 H615 0.930 . S
C584 N581 1.279 . S
C584 C583 1.358 . S
C584 H587 0.930 . S
C585 C582 1.348 . S
C585 C583 1.356 . S
H586 C580 0.930 . S
H587 C584 0.930 . S
O588 Li528 1.956 . S
O588 Li529 1.970 . S
O588 Li530 1.961 . S
O588 C532 1.325 1_556 S
O589 Li528 1.970 . S
O589 Li529 1.956 . S
O589 Li531 1.961 . S
O589 C538 1.325 . S
O590 Li528 1.961 . S
O590 Li530 1.956 . S
O590 Li531 1.970 . S
O590 C560 1.325 . S
O591 Li529 1.961 . S
O591 Li530 1.970 . S
O591 Li531 1.956 . S
O591 C566 1.325 . S
H592 C534 0.929 . S
H593 C535 0.930 1_556 S
H594 C536 0.930 . S
H595 C537 0.930 . S
H596 C539 0.930 . S
H597 C541 0.929 . S
H598 C542 0.930 . S
H599 C543 0.930 . S
H600 C546 0.930 1_554 S
H601 C549 0.929 . S
H602 C554 0.929 . S
H603 C555 0.930 . S
H604 C562 0.929 . S
H605 C563 0.930 . S
H606 C564 0.930 . S
H607 C565 0.930 . S
H608 C567 0.929 . S
H609 C568 0.930 . S
H610 C569 0.930 . S
H611 C570 0.930 . S
H612 C574 0.929 . S
H613 C576 0.930 . S
H614 C582 0.929 . S
H615 C583 0.930 . S
Li616 N633 1.990 . S
Li616 O676 1.956 . S
Li616 O677 1.970 . S
Li616 O678 1.961 . S
Li617 N641 1.990 . S
Li617 O676 1.970 . S
Li617 O677 1.956 . S
Li617 O679 1.961 . S
Li618 N663 1.990 . S
Li618 O676 1.961 . S
Li618 O678 1.956 . S
Li618 O679 1.970 . S
Li619 N669 1.990 . S
Li619 O677 1.961 . S
Li619 O678 1.970 . S
Li619 O679 1.956 . S
C620 C622 1.348 . S
C620 C623 1.356 . S
C620 O676 1.325 . S
N621 C624 1.314 . S
N621 C625 1.279 . S
C622 C620 1.348 . S
C622 C624 1.353 . S
C622 H680 0.929 . S
C623 C620 1.356 . S
C623 C625 1.358 . S
C623 H681 0.930 . S
C624 N621 1.314 . S
C624 C622 1.353 . S
C624 H682 0.930 . S
C625 N621 1.279 . S
C625 C623 1.358 . S
C625 H683 0.930 1_655 S
C626 C629 1.348 . S
C626 C630 1.356 . S
C626 O677 1.325 . S
C627 N628 1.279 . S
C627 C630 1.358 . S
C627 H684 0.930 . S
N628 C627 1.279 . S
N628 C631 1.314 . S
C629 C626 1.348 . S
C629 C631 1.353 . S
C629 H685 0.929 . S
C630 C626 1.356 . S
C630 C627 1.358 . S
C630 H686 0.930 . S
C631 N628 1.314 . S
C631 C629 1.353 . S
C631 H687 0.930 . S
C632 N633 1.314 . S
C632 C637 1.353 . S
C632 H638 0.930 . S
N633 Li616 1.990 . S
N633 C632 1.314 . S
N633 C635 1.279 . S
C634 C635 1.358 . S
C634 C636 1.356 . S
C634 H688 0.930 . S
C635 N633 1.279 . S
C635 C634 1.358 . S
C635 H639 0.930 . S
C636 C634 1.356 . S
C636 C637 1.348 . S
C637 C632 1.353 . S
C637 C636 1.348 . S
C637 H689 0.929 . S
H638 C632 0.930 . S
H639 C635 0.930 . S
C640 N641 1.314 . S
C640 C642 1.353 . S
C640 H646 0.930 . S
N641 Li617 1.990 . S
N641 C640 1.314 . S
N641 C644 1.279 . S
C642 C640 1.353 . S
C642 C645 1.348 . S
C642 H690 0.929 . S
C643 C644 1.358 . S
C643 C645 1.356 . S
C643 H691 0.930 . S
C644 N641 1.279 . S
C644 C643 1.358 . S
C644 H647 0.930 . S
C645 C642 1.348 . S
C645 C643 1.356 . S
H646 C640 0.930 . S
H647 C644 0.930 . S
C648 C650 1.348 . S
C648 C651 1.356 . S
C648 O678 1.325 . S
N649 C652 1.314 . S
N649 C653 1.279 . S
C650 C648 1.348 . S
C650 C652 1.353 . S
C650 H692 0.929 . S
C651 C648 1.356 . S
C651 C653 1.358 . S
C651 H693 0.930 . S
C652 N649 1.314 . S
C652 C650 1.353 . S
C652 H694 0.930 . S
C653 N649 1.279 . S
C653 C651 1.358 . S
C653 H695 0.930 . S
C654 C655 1.348 . S
C654 C656 1.356 . S
C654 O679 1.325 . S
C655 C654 1.348 . S
C655 C657 1.353 . S
C655 H696 0.929 . S
C656 C654 1.356 . S
C656 C658 1.358 . S
C656 H697 0.930 . S
C657 C655 1.353 . S
C657 N659 1.314 . S
C657 H698 0.908 1_554 S
C658 C656 1.358 . S
C658 N659 1.279 . S
C658 H699 0.930 . S
N659 C657 1.314 . S
N659 C658 1.279 . S
C660 C662 1.353 . S
C660 N663 1.314 . S
C660 H666 0.930 . S
C661 N663 1.279 . S
C661 C664 1.358 . S
C661 H667 0.930 . S
C662 C660 1.353 . S
C662 C665 1.348 . S
C662 H700 0.929 . S
N663 Li618 1.990 . S
N663 C660 1.314 . S
N663 C661 1.279 . S
C664 C661 1.358 . S
C664 C665 1.356 . S
C664 H701 0.930 . S
C665 C662 1.348 . S
C665 C664 1.356 . S
H666 C660 0.930 . S
H667 C661 0.930 . S
C668 N669 1.314 . S
C668 C670 1.353 . S
C668 H674 0.930 . S
N669 Li619 1.990 . S
N669 C668 1.314 . S
N669 C672 1.279 . S
C670 C668 1.353 . S
C670 C673 1.348 . S
C670 H702 0.929 . S
C671 C672 1.358 . S
C671 C673 1.356 . S
C671 H703 0.930 . S
C672 N669 1.279 . S
C672 C671 1.358 . S
C672 H675 0.930 . S
C673 C670 1.348 . S
C673 C671 1.356 . S
H674 C668 0.930 . S
H675 C672 0.930 . S
O676 Li616 1.956 . S
O676 Li617 1.970 . S
O676 Li618 1.961 . S
O676 C620 1.325 . S
O677 Li616 1.970 . S
O677 Li617 1.956 . S
O677 Li619 1.961 . S
O677 C626 1.325 . S
O678 Li616 1.961 . S
O678 Li618 1.956 . S
O678 Li619 1.970 . S
O678 C648 1.325 . S
O679 Li617 1.961 . S
O679 Li618 1.970 . S
O679 Li619 1.956 . S
O679 C654 1.325 . S
H680 C622 0.929 . S
H681 C623 0.930 . S
H682 C624 0.930 . S
H683 C625 0.930 1_455 S
H684 C627 0.930 . S
H685 C629 0.929 . S
H686 C630 0.930 . S
H687 C631 0.930 . S
H688 C634 0.930 . S
H689 C637 0.929 . S
H690 C642 0.929 . S
H691 C643 0.930 . S
H692 C650 0.929 . S
H693 C651 0.930 . S
H694 C652 0.930 . S
H695 C653 0.930 . S
H696 C655 0.929 . S
H697 C656 0.930 . S
H698 C657 0.908 1_556 S
H699 C658 0.930 . S
H700 C662 0.929 . S
H701 C664 0.930 . S
H702 C670 0.929 . S
H703 C671 0.930 . S
Li704 N721 1.990 1_556 S
Li704 O764 1.956 . S
Li704 O765 1.970 . S
Li704 O766 1.961 . S
Li705 N729 1.990 . S
Li705 O764 1.970 . S
Li705 O765 1.956 . S
Li705 O767 1.961 . S
Li706 N751 1.990 . S
Li706 O764 1.961 . S
Li706 O766 1.956 . S
Li706 O767 1.970 . S
Li707 N757 1.990 . S
Li707 O765 1.961 . S
Li707 O766 1.970 . S
Li707 O767 1.956 . S
C708 C710 1.348 . S
C708 C711 1.356 . S
C708 O764 1.325 . S
N709 C712 1.314 . S
N709 C713 1.279 . S
C710 C708 1.348 . S
C710 C712 1.353 . S
C710 H768 0.929 . S
C711 C708 1.356 . S
C711 C713 1.358 . S
C711 H769 0.930 . S
C712 N709 1.314 . S
C712 C710 1.353 . S
C712 H770 0.930 . S
C713 N709 1.279 . S
C713 C711 1.358 . S
C713 H771 0.930 . S
C714 C717 1.348 . S
C714 C718 1.356 . S
C714 O765 1.325 1_554 S
C715 N716 1.279 . S
C715 C718 1.358 . S
C715 H772 0.930 . S
N716 C715 1.279 . S
N716 C719 1.314 . S
C717 C714 1.348 . S
C717 C719 1.353 . S
C717 H773 0.929 . S
C718 C714 1.356 . S
C718 C715 1.358 . S
C718 H774 0.930 1_554 S
C719 N716 1.314 . S
C719 C717 1.353 . S
C719 H775 0.930 . S
C720 N721 1.314 . S
C720 C725 1.353 . S
C720 H726 0.930 . S
N721 Li704 1.990 1_554 S
N721 C720 1.314 . S
N721 C723 1.279 . S
C722 C723 1.358 . S
C722 C724 1.356 . S
C722 H776 0.930 . S
C723 N721 1.279 . S
C723 C722 1.358 . S
C723 H727 0.930 . S
C724 C722 1.356 . S
C724 C725 1.348 . S
C725 C720 1.353 . S
C725 C724 1.348 . S
C725 H777 0.929 . S
H726 C720 0.930 . S
H727 C723 0.930 . S
C728 N729 1.314 . S
C728 C730 1.353 . S
C728 H734 0.930 . S
N729 Li705 1.990 . S
N729 C728 1.314 . S
N729 C732 1.279 . S
C730 C728 1.353 . S
C730 C733 1.348 . S
C730 H778 0.929 . S
C731 C732 1.358 . S
C731 C733 1.356 . S
C731 H779 0.930 . S
C732 N729 1.279 . S
C732 C731 1.358 . S
C732 H735 0.930 . S
C733 C730 1.348 . S
C733 C731 1.356 . S
H734 C728 0.930 . S
H735 C732 0.930 . S
C736 C738 1.348 . S
C736 C739 1.356 . S
C736 O766 1.325 . S
N737 C740 1.314 . S
N737 C741 1.279 . S
C738 C736 1.348 . S
C738 C740 1.353 . S
C738 H780 0.929 . S
C739 C736 1.356 . S
C739 C741 1.358 . S
C739 H781 0.930 . S
C740 N737 1.314 . S
C740 C738 1.353 . S
C740 H782 0.930 . S
C741 N737 1.279 . S
C741 C739 1.358 . S
C741 H783 0.930 . S
C742 C743 1.348 . S
C742 C744 1.356 . S
C742 O767 1.325 . S
C743 C742 1.348 . S
C743 C745 1.353 . S
C743 H784 0.929 . S
C744 C742 1.356 . S
C744 C746 1.358 . S
C744 H785 0.930 . S
C745 C743 1.353 . S
C745 N747 1.314 . S
C745 H786 0.930 . S
C746 C744 1.358 . S
C746 N747 1.279 . S
C746 H787 0.930 . S
N747 C745 1.314 . S
N747 C746 1.279 . S
C748 C750 1.353 . S
C748 N751 1.314 . S
C748 H754 0.930 . S
C749 N751 1.279 . S
C749 C752 1.358 . S
C749 H755 0.930 . S
C750 C748 1.353 . S
C750 C753 1.348 . S
C750 H788 0.929 . S
N751 Li706 1.990 . S
N751 C748 1.314 . S
N751 C749 1.279 . S
C752 C749 1.358 . S
C752 C753 1.356 . S
C752 H789 0.930 . S
C753 C750 1.348 . S
C753 C752 1.356 . S
H754 C748 0.930 . S
H755 C749 0.930 . S
C756 N757 1.314 . S
C756 C758 1.353 . S
C756 H762 0.930 1_556 S
N757 Li707 1.990 . S
N757 C756 1.314 . S
N757 C760 1.279 . S
C758 C756 1.353 . S
C758 C761 1.348 . S
C758 H790 0.929 1_556 S
C759 C760 1.358 . S
C759 C761 1.356 . S
C759 H791 0.930 . S
C760 N757 1.279 . S
C760 C759 1.358 . S
C760 H763 0.930 . S
C761 C758 1.348 . S
C761 C759 1.356 . S
H762 C756 0.930 1_554 S
H763 C760 0.930 . S
O764 Li704 1.956 . S
O764 Li705 1.970 . S
O764 Li706 1.961 . S
O764 C708 1.325 . S
O765 Li704 1.970 . S
O765 Li705 1.956 . S
O765 Li707 1.961 . S
O765 C714 1.325 1_556 S
O766 Li704 1.961 . S
O766 Li706 1.956 . S
O766 Li707 1.970 . S
O766 C736 1.325 . S
O767 Li705 1.961 . S
O767 Li706 1.970 . S
O767 Li707 1.956 . S
O767 C742 1.325 . S
H768 C710 0.929 . S
H769 C711 0.930 . S
H770 C712 0.930 . S
H771 C713 0.930 . S
H772 C715 0.930 . S
H773 C717 0.929 . S
H774 C718 0.930 1_556 S
H775 C719 0.930 . S
H776 C722 0.930 . S
H777 C725 0.929 . S
H778 C730 0.929 . S
H779 C731 0.930 . S
H780 C738 0.929 . S
H781 C739 0.930 . S
H782 C740 0.930 . S
H783 C741 0.930 . S
H784 C743 0.929 . S
H785 C744 0.930 . S
H786 C745 0.930 . S
H787 C746 0.930 . S
H788 C750 0.929 . S
H789 C752 0.930 . S
H790 C758 0.929 1_554 S
H791 C759 0.930 . S
Li792 N809 1.990 . S
Li792 O852 1.956 . S
Li792 O853 1.970 . S
Li792 O854 1.961 . S
Li793 N817 1.990 . S
Li793 O852 1.970 . S
Li793 O853 1.956 . S
Li793 O855 1.961 . S
Li794 N839 1.990 . S
Li794 O852 1.961 . S
Li794 O854 1.956 . S
Li794 O855 1.970 . S
Li795 N845 1.990 . S
Li795 O853 1.961 . S
Li795 O854 1.970 . S
Li795 O855 1.956 . S
C796 C798 1.348 . S
C796 C799 1.356 . S
C796 O852 1.325 . S
N797 C800 1.314 . S
N797 C801 1.279 . S
C798 C796 1.348 . S
C798 C800 1.353 . S
C798 H856 0.929 . S
C799 C796 1.356 . S
C799 C801 1.358 . S
C799 H857 0.930 . S
C800 N797 1.314 . S
C800 C798 1.353 . S
C800 H858 0.930 . S
C801 N797 1.279 . S
C801 C799 1.358 . S
C801 H859 0.930 . S
C802 C805 1.348 . S
C802 C806 1.356 . S
C802 O853 1.325 . S
C803 N804 1.279 . S
C803 C806 1.358 . S
C803 H860 0.930 . S
N804 C803 1.279 . S
N804 C807 1.314 . S
C805 C802 1.348 . S
C805 C807 1.353 . S
C805 H861 0.929 . S
C806 C802 1.356 . S
C806 C803 1.358 . S
C806 H862 0.930 . S
C807 N804 1.314 . S
C807 C805 1.353 . S
C807 H863 0.930 . S
C808 N809 1.314 . S
C808 C813 1.353 . S
C808 H814 0.930 . S
N809 Li792 1.990 . S
N809 C808 1.314 . S
N809 C811 1.279 . S
C810 C811 1.358 . S
C810 C812 1.356 . S
C810 H864 0.930 . S
C811 N809 1.279 . S
C811 C810 1.358 . S
C811 H815 0.930 . S
C812 C810 1.356 . S
C812 C813 1.348 . S
C813 C808 1.353 . S
C813 C812 1.348 . S
C813 H865 0.929 . S
H814 C808 0.930 . S
H815 C811 0.930 . S
C816 N817 1.314 . S
C816 C818 1.353 . S
C816 H822 0.930 . S
N817 Li793 1.990 . S
N817 C816 1.314 . S
N817 C820 1.279 . S
C818 C816 1.353 . S
C818 C821 1.348 . S
C818 H866 0.929 . S
C819 C820 1.358 . S
C819 C821 1.356 . S
C819 H867 0.930 . S
C820 N817 1.279 . S
C820 C819 1.358 . S
C820 H823 0.930 . S
C821 C818 1.348 . S
C821 C819 1.356 . S
H822 C816 0.930 . S
H823 C820 0.930 . S
C824 C826 1.348 . S
C824 C827 1.356 . S
C824 O854 1.325 . S
N825 C828 1.314 . S
N825 C829 1.279 . S
C826 C824 1.348 . S
C826 C828 1.353 . S
C826 H868 0.929 . S
C827 C824 1.356 . S
C827 C829 1.358 . S
C827 H869 0.930 . S
C828 N825 1.314 . S
C828 C826 1.353 . S
C828 H870 0.930 . S
C829 N825 1.279 . S
C829 C827 1.358 . S
C829 H871 0.930 1_455 S
C830 C831 1.348 . S
C830 C832 1.356 . S
C830 O855 1.325 . S
C831 C830 1.348 . S
C831 C833 1.353 . S
C831 H872 0.929 . S
C832 C830 1.356 . S
C832 C834 1.358 . S
C832 H873 0.930 . S
C833 C831 1.353 . S
C833 N835 1.314 . S
C833 H874 0.930 . S
C834 C832 1.358 . S
C834 N835 1.279 . S
C834 H875 0.930 . S
N835 C833 1.314 . S
N835 C834 1.279 . S
C836 C838 1.353 . S
C836 N839 1.314 . S
C836 H842 0.930 . S
C837 N839 1.279 . S
C837 C840 1.358 . S
C837 H843 0.930 . S
C838 C836 1.353 . S
C838 C841 1.348 . S
C838 H876 0.929 . S
N839 Li794 1.990 . S
N839 C836 1.314 . S
N839 C837 1.279 . S
C840 C837 1.358 . S
C840 C841 1.356 . S
C840 H877 0.930 . S
C841 C838 1.348 . S
C841 C840 1.356 . S
H842 C836 0.930 . S
H843 C837 0.930 . S
C844 N845 1.314 . S
C844 C846 1.353 . S
C844 H850 0.930 . S
N845 Li795 1.990 . S
N845 C844 1.314 . S
N845 C848 1.279 . S
C846 C844 1.353 . S
C846 C849 1.348 . S
C846 H878 0.929 . S
C847 C848 1.358 . S
C847 C849 1.356 . S
C847 H879 0.930 . S
C848 N845 1.279 . S
C848 C847 1.358 . S
C848 H851 0.930 . S
C849 C846 1.348 . S
C849 C847 1.356 . S
H850 C844 0.930 . S
H851 C848 0.930 . S
O852 Li792 1.956 . S
O852 Li793 1.970 . S
O852 Li794 1.961 . S
O852 C796 1.325 . S
O853 Li792 1.970 . S
O853 Li793 1.956 . S
O853 Li795 1.961 . S
O853 C802 1.325 . S
O854 Li792 1.961 . S
O854 Li794 1.956 . S
O854 Li795 1.970 . S
O854 C824 1.325 . S
O855 Li793 1.961 . S
O855 Li794 1.970 . S
O855 Li795 1.956 . S
O855 C830 1.325 . S
H856 C798 0.929 . S
H857 C799 0.930 . S
H858 C800 0.930 . S
H859 C801 0.930 . S
H860 C803 0.930 . S
H861 C805 0.929 . S
H862 C806 0.930 . S
H863 C807 0.930 . S
H864 C810 0.930 . S
H865 C813 0.929 . S
H866 C818 0.929 . S
H867 C819 0.930 . S
H868 C826 0.929 . S
H869 C827 0.930 . S
H870 C828 0.930 . S
H871 C829 0.930 1_655 S
H872 C831 0.929 . S
H873 C832 0.930 . S
H874 C833 0.930 . S
H875 C834 0.930 . S
H876 C838 0.929 . S
H877 C840 0.930 . S
H878 C846 0.929 . S
H879 C847 0.930 . S
Li880 N897 1.990 . S
Li880 O940 1.956 . S
Li880 O941 1.970 . S
Li880 O942 1.961 . S
Li881 N905 1.990 . S
Li881 O940 1.970 . S
Li881 O941 1.956 . S
Li881 O943 1.961 . S
Li882 N927 1.990 . S
Li882 O940 1.961 . S
Li882 O942 1.956 . S
Li882 O943 1.970 . S
Li883 N933 1.990 . S
Li883 O941 1.961 . S
Li883 O942 1.970 . S
Li883 O943 1.956 . S
C884 C886 1.348 . S
C884 C887 1.356 . S
C884 O940 1.325 . S
N885 C888 1.314 . S
N885 C889 1.279 . S
C886 C884 1.348 . S
C886 C888 1.353 . S
C886 H944 0.929 . S
C887 C884 1.356 . S
C887 C889 1.358 . S
C887 H945 0.930 . S
C888 N885 1.314 . S
C888 C886 1.353 . S
C888 H946 0.930 . S
C889 N885 1.279 . S
C889 C887 1.358 . S
C889 H947 0.930 . S
C890 C893 1.348 . S
C890 C894 1.356 . S
C890 O941 1.325 . S
C891 N892 1.279 . S
C891 C894 1.358 . S
C891 H948 0.930 . S
N892 C891 1.279 . S
N892 C895 1.314 . S
C893 C890 1.348 . S
C893 C895 1.353 . S
C893 H949 0.929 . S
C894 C890 1.356 . S
C894 C891 1.358 . S
C894 H950 0.930 . S
C895 N892 1.314 . S
C895 C893 1.353 . S
C895 H951 0.930 . S
C896 N897 1.314 . S
C896 C901 1.353 . S
C896 H902 0.930 . S
N897 Li880 1.990 . S
N897 C896 1.314 . S
N897 C899 1.279 . S
C898 C899 1.358 . S
C898 C900 1.356 . S
C898 H952 0.930 . S
C899 N897 1.279 . S
C899 C898 1.358 . S
C899 H903 0.930 . S
C900 C898 1.356 . S
C900 C901 1.348 . S
C901 C896 1.353 . S
C901 C900 1.348 . S
C901 H953 0.929 . S
H902 C896 0.930 . S
H903 C899 0.930 . S
C904 N905 1.314 . S
C904 C906 1.353 . S
C904 H910 0.930 . S
N905 Li881 1.990 . S
N905 C904 1.314 . S
N905 C908 1.279 . S
C906 C904 1.353 . S
C906 C909 1.348 . S
C906 H954 0.929 . S
C907 C908 1.358 . S
C907 C909 1.356 . S
C907 H955 0.930 . S
C908 N905 1.279 . S
C908 C907 1.358 . S
C908 H911 0.930 . S
C909 C906 1.348 . S
C909 C907 1.356 . S
H910 C904 0.930 . S
H911 C908 0.930 . S
C912 C914 1.348 . S
C912 C915 1.356 . S
C912 O942 1.325 . S
N913 C916 1.314 . S
N913 C917 1.279 . S
C914 C912 1.348 . S
C914 C916 1.353 . S
C914 H956 0.929 . S
C915 C912 1.356 . S
C915 C917 1.358 . S
C915 H957 0.930 . S
C916 N913 1.314 . S
C916 C914 1.353 . S
C916 H958 0.930 . S
C917 N913 1.279 . S
C917 C915 1.358 . S
C917 H959 0.930 . S
C918 C919 1.348 . S
C918 C920 1.356 . S
C918 O943 1.325 . S
C919 C918 1.348 . S
C919 C921 1.353 . S
C919 H960 0.929 . S
C920 C918 1.356 . S
C920 C922 1.358 . S
C920 H961 0.930 . S
C921 C919 1.353 . S
C921 N923 1.314 . S
C921 H962 0.930 . S
C922 C920 1.358 . S
C922 N923 1.279 . S
C922 H963 0.930 . S
N923 C921 1.314 . S
N923 C922 1.279 . S
C924 C926 1.353 . S
C924 N927 1.314 . S
C924 H930 0.930 . S
C925 N927 1.279 . S
C925 C928 1.358 . S
C925 H931 0.930 . S
C926 C924 1.353 . S
C926 C929 1.348 . S
C926 H964 0.929 . S
N927 Li882 1.990 . S
N927 C924 1.314 . S
N927 C925 1.279 . S
C928 C925 1.358 . S
C928 C929 1.356 . S
C928 H965 0.930 . S
C929 C926 1.348 . S
C929 C928 1.356 . S
H930 C924 0.930 . S
H931 C925 0.930 . S
C932 N933 1.314 . S
C932 C934 1.353 . S
C932 H938 0.930 . S
N933 Li883 1.990 . S
N933 C932 1.314 . S
N933 C936 1.279 . S
C934 C932 1.353 . S
C934 C937 1.348 . S
C934 H966 0.929 . S
C935 C936 1.358 . S
C935 C937 1.356 . S
C935 H967 0.930 . S
C936 N933 1.279 . S
C936 C935 1.358 . S
C936 H939 0.930 . S
C937 C934 1.348 . S
C937 C935 1.356 . S
H938 C932 0.930 . S
H939 C936 0.930 . S
O940 Li880 1.956 . S
O940 Li881 1.970 . S
O940 Li882 1.961 . S
O940 C884 1.325 . S
O941 Li880 1.970 . S
O941 Li881 1.956 . S
O941 Li883 1.961 . S
O941 C890 1.325 . S
O942 Li880 1.961 . S
O942 Li882 1.956 . S
O942 Li883 1.970 . S
O942 C912 1.325 . S
O943 Li881 1.961 . S
O943 Li882 1.970 . S
O943 Li883 1.956 . S
O943 C918 1.325 . S
H944 C886 0.929 . S
H945 C887 0.930 . S
H946 C888 0.930 . S
H947 C889 0.930 . S
H948 C891 0.930 . S
H949 C893 0.929 . S
H950 C894 0.930 . S
H951 C895 0.930 . S
H952 C898 0.930 . S
H953 C901 0.929 . S
H954 C906 0.929 . S
H955 C907 0.930 . S
H956 C914 0.929 . S
H957 C915 0.930 . S
H958 C916 0.930 . S
H959 C917 0.930 . S
H960 C919 0.929 . S
H961 C920 0.930 . S
H962 C921 0.930 . S
H963 C922 0.930 . S
H964 C926 0.929 . S
H965 C928 0.930 . S
H966 C934 0.929 . S
H967 C935 0.930 . S
Li968 N985 1.990 . S
Li968 O1028 1.956 . S
Li968 O1029 1.970 . S
Li968 O1030 1.961 . S
Li969 N993 1.990 . S
Li969 O1028 1.970 . S
Li969 O1029 1.956 . S
Li969 O1031 1.961 . S
Li970 N1015 1.990 . S
Li970 O1028 1.961 . S
Li970 O1030 1.956 . S
Li970 O1031 1.970 . S
Li971 N1021 1.990 . S
Li971 O1029 1.961 . S
Li971 O1030 1.970 . S
Li971 O1031 1.956 . S
C972 C974 1.348 . S
C972 C975 1.356 . S
C972 O1028 1.325 . S
N973 C976 1.314 . S
N973 C977 1.279 . S
C974 C972 1.348 . S
C974 C976 1.353 . S
C974 H1032 0.929 . S
C975 C972 1.356 . S
C975 C977 1.358 . S
C975 H1033 0.930 . S
C976 N973 1.314 . S
C976 C974 1.353 . S
C976 H1034 0.930 . S
C977 N973 1.279 . S
C977 C975 1.358 . S
C977 H1035 0.930 . S
C978 C981 1.348 . S
C978 C982 1.356 . S
C978 O1029 1.325 . S
C979 N980 1.279 . S
C979 C982 1.358 . S
C979 H1036 0.930 . S
N980 C979 1.279 . S
N980 C983 1.314 . S
C981 C978 1.348 . S
C981 C983 1.353 . S
C981 H1037 0.929 . S
C982 C978 1.356 . S
C982 C979 1.358 . S
C982 H1038 0.930 . S
C983 N980 1.314 . S
C983 C981 1.353 . S
C983 H1039 0.930 . S
C984 N985 1.314 . S
C984 C989 1.353 . S
C984 H990 0.930 . S
N985 Li968 1.990 . S
N985 C984 1.314 . S
N985 C987 1.279 . S
C986 C987 1.358 . S
C986 C988 1.356 . S
C986 H1040 0.930 . S
C987 N985 1.279 . S
C987 C986 1.358 . S
C987 H991 0.930 . S
C988 C986 1.356 . S
C988 C989 1.348 . S
C989 C984 1.353 . S
C989 C988 1.348 . S
C989 H1041 0.929 . S
H990 C984 0.930 . S
H991 C987 0.930 . S
C992 N993 1.314 . S
C992 C994 1.353 . S
C992 H998 0.930 . S
N993 Li969 1.990 . S
N993 C992 1.314 . S
N993 C996 1.279 . S
C994 C992 1.353 . S
C994 C997 1.348 . S
C994 H1042 0.929 . S
C995 C996 1.358 . S
C995 C997 1.356 . S
C995 H1043 0.930 . S
C996 N993 1.279 . S
C996 C995 1.358 . S
C996 H999 0.930 . S
C997 C994 1.348 . S
C997 C995 1.356 . S
H998 C992 0.930 . S
H999 C996 0.930 . S
C1000 C1002 1.348 . S
C1000 C1003 1.356 . S
C1000 O1030 1.325 . S
N1001 C1004 1.314 . S
N1001 C1005 1.279 . S
C1002 C1000 1.348 . S
C1002 C1004 1.353 . S
C1002 H1044 0.929 . S
C1003 C1000 1.356 . S
C1003 C1005 1.358 . S
C1003 H1045 0.930 . S
C1004 N1001 1.314 . S
C1004 C1002 1.353 . S
C1004 H1046 0.930 . S
C1005 N1001 1.279 . S
C1005 C1003 1.358 . S
C1005 H1047 0.930 . S
C1006 C1007 1.348 . S
C1006 C1008 1.356 . S
C1006 O1031 1.325 . S
C1007 C1006 1.348 . S
C1007 C1009 1.353 . S
C1007 H1048 0.929 . S
C1008 C1006 1.356 . S
C1008 C1010 1.358 . S
C1008 H1049 0.930 . S
C1009 C1007 1.353 . S
C1009 N1011 1.314 . S
C1009 H1050 0.930 . S
C1010 C1008 1.358 . S
C1010 N1011 1.279 . S
C1010 H1051 0.930 . S
N1011 C1009 1.314 . S
N1011 C1010 1.279 . S
C1012 C1014 1.353 . S
C1012 N1015 1.314 . S
C1012 H1018 0.930 . S
C1013 N1015 1.279 . S
C1013 C1016 1.358 . S
C1013 H1019 0.930 . S
C1014 C1012 1.353 . S
C1014 C1017 1.348 . S
C1014 H1052 0.929 . S
N1015 Li970 1.990 . S
N1015 C1012 1.314 . S
N1015 C1013 1.279 . S
C1016 C1013 1.358 . S
C1016 C1017 1.356 . S
C1016 H1053 0.930 . S
C1017 C1014 1.348 . S
C1017 C1016 1.356 . S
H1018 C1012 0.930 . S
H1019 C1013 0.930 . S
C1020 N1021 1.314 . S
C1020 C1022 1.353 . S
C1020 H1026 0.930 . S
N1021 Li971 1.990 . S
N1021 C1020 1.314 . S
N1021 C1024 1.279 . S
C1022 C1020 1.353 . S
C1022 C1025 1.348 . S
C1022 H1054 0.929 . S
C1023 C1024 1.358 . S
C1023 C1025 1.356 . S
C1023 H1055 0.930 . S
C1024 N1021 1.279 . S
C1024 C1023 1.358 . S
C1024 H1027 0.930 . S
C1025 C1022 1.348 . S
C1025 C1023 1.356 . S
H1026 C1020 0.930 . S
H1027 C1024 0.930 . S
O1028 Li968 1.956 . S
O1028 Li969 1.970 . S
O1028 Li970 1.961 . S
O1028 C972 1.325 . S
O1029 Li968 1.970 . S
O1029 Li969 1.956 . S
O1029 Li971 1.961 . S
O1029 C978 1.325 . S
O1030 Li968 1.961 . S
O1030 Li970 1.956 . S
O1030 Li971 1.970 . S
O1030 C1000 1.325 . S
O1031 Li969 1.961 . S
O1031 Li970 1.970 . S
O1031 Li971 1.956 . S
O1031 C1006 1.325 . S
H1032 C974 0.929 . S
H1033 C975 0.930 . S
H1034 C976 0.930 . S
H1035 C977 0.930 . S
H1036 C979 0.930 . S
H1037 C981 0.929 . S
H1038 C982 0.930 . S
H1039 C983 0.930 . S
H1040 C986 0.930 . S
H1041 C989 0.929 . S
H1042 C994 0.929 . S
H1043 C995 0.930 . S
H1044 C1002 0.929 . S
H1045 C1003 0.930 . S
H1046 C1004 0.930 . S
H1047 C1005 0.930 . S
H1048 C1007 0.929 . S
H1049 C1008 0.930 . S
H1050 C1009 0.930 . S
H1051 C1010 0.930 . S
H1052 C1014 0.929 . S
H1053 C1016 0.930 . S
H1054 C1022 0.929 . S
H1055 C1023 0.930 . S
Li1056 N1073 1.990 . S
Li1056 O1116 1.956 . S
Li1056 O1117 1.970 . S
Li1056 O1118 1.961 . S
Li1057 N1081 1.990 . S
Li1057 O1116 1.970 . S
Li1057 O1117 1.956 . S
Li1057 O1119 1.961 . S
Li1058 N1103 1.990 . S
Li1058 O1116 1.961 . S
Li1058 O1118 1.956 . S
Li1058 O1119 1.970 . S
Li1059 N1109 1.990 . S
Li1059 O1117 1.961 . S
Li1059 O1118 1.970 . S
Li1059 O1119 1.956 . S
C1060 C1062 1.348 . S
C1060 C1063 1.356 . S
C1060 O1116 1.325 . S
N1061 C1064 1.314 . S
N1061 C1065 1.279 . S
C1062 C1060 1.348 . S
C1062 C1064 1.353 . S
C1062 H1120 0.929 . S
C1063 C1060 1.356 . S
C1063 C1065 1.358 . S
C1063 H1121 0.930 . S
C1064 N1061 1.314 . S
C1064 C1062 1.353 . S
C1064 H1122 0.930 . S
C1065 N1061 1.279 . S
C1065 C1063 1.358 . S
C1065 H1123 0.930 . S
C1066 C1069 1.348 . S
C1066 C1070 1.356 . S
C1066 O1117 1.325 . S
C1067 N1068 1.279 . S
C1067 C1070 1.358 . S
C1067 H1124 0.930 . S
N1068 C1067 1.279 . S
N1068 C1071 1.314 . S
C1069 C1066 1.348 . S
C1069 C1071 1.353 . S
C1069 H1125 0.929 . S
C1070 C1066 1.356 . S
C1070 C1067 1.358 . S
C1070 H1126 0.930 . S
C1071 N1068 1.314 . S
C1071 C1069 1.353 . S
C1071 H1127 0.930 . S
C1072 N1073 1.314 . S
C1072 C1077 1.353 . S
C1072 H1078 0.930 . S
N1073 Li1056 1.990 . S
N1073 C1072 1.314 . S
N1073 C1075 1.279 . S
C1074 C1075 1.358 . S
C1074 C1076 1.356 . S
C1074 H1128 0.930 . S
C1075 N1073 1.279 . S
C1075 C1074 1.358 . S
C1075 H1079 0.930 . S
C1076 C1074 1.356 . S
C1076 C1077 1.348 . S
C1077 C1072 1.353 . S
C1077 C1076 1.348 . S
C1077 H1129 0.929 . S
H1078 C1072 0.930 . S
H1079 C1075 0.930 . S
C1080 N1081 1.314 . S
C1080 C1082 1.353 . S
C1080 H1086 0.930 . S
N1081 Li1057 1.990 . S
N1081 C1080 1.314 . S
N1081 C1084 1.279 . S
C1082 C1080 1.353 . S
C1082 C1085 1.348 . S
C1082 H1130 0.929 . S
C1083 C1084 1.358 . S
C1083 C1085 1.356 . S
C1083 H1131 0.930 . S
C1084 N1081 1.279 . S
C1084 C1083 1.358 . S
C1084 H1087 0.930 . S
C1085 C1082 1.348 . S
C1085 C1083 1.356 . S
H1086 C1080 0.930 . S
H1087 C1084 0.930 . S
C1088 C1090 1.348 . S
C1088 C1091 1.356 . S
C1088 O1118 1.325 . S
N1089 C1092 1.314 . S
N1089 C1093 1.279 . S
C1090 C1088 1.348 . S
C1090 C1092 1.353 . S
C1090 H1132 0.929 . S
C1091 C1088 1.356 . S
C1091 C1093 1.358 . S
C1091 H1133 0.930 . S
C1092 N1089 1.314 . S
C1092 C1090 1.353 . S
C1092 H1134 0.930 . S
C1093 N1089 1.279 . S
C1093 C1091 1.358 . S
C1093 H1135 0.930 . S
C1094 C1095 1.348 . S
C1094 C1096 1.356 . S
C1094 O1119 1.325 . S
C1095 C1094 1.348 . S
C1095 C1097 1.353 . S
C1095 H1136 0.929 . S
C1096 C1094 1.356 . S
C1096 C1098 1.358 . S
C1096 H1137 0.930 . S
C1097 C1095 1.353 . S
C1097 N1099 1.314 . S
C1097 H1138 0.930 . S
C1098 C1096 1.358 . S
C1098 N1099 1.279 . S
C1098 H1139 0.930 . S
N1099 C1097 1.314 . S
N1099 C1098 1.279 . S
C1100 C1102 1.353 . S
C1100 N1103 1.314 . S
C1100 H1106 0.930 . S
C1101 N1103 1.279 . S
C1101 C1104 1.358 . S
C1101 H1107 0.930 . S
C1102 C1100 1.353 . S
C1102 C1105 1.348 . S
C1102 H1140 0.929 . S
N1103 Li1058 1.990 . S
N1103 C1100 1.314 . S
N1103 C1101 1.279 . S
C1104 C1101 1.358 . S
C1104 C1105 1.356 . S
C1104 H1141 0.930 . S
C1105 C1102 1.348 . S
C1105 C1104 1.356 . S
H1106 C1100 0.930 . S
H1107 C1101 0.930 . S
C1108 N1109 1.314 . S
C1108 C1110 1.353 . S
C1108 H1114 0.930 . S
N1109 Li1059 1.990 . S
N1109 C1108 1.314 . S
N1109 C1112 1.279 . S
C1110 C1108 1.353 . S
C1110 C1113 1.348 . S
C1110 H1142 0.929 . S
C1111 C1112 1.358 . S
C1111 C1113 1.356 . S
C1111 H1143 0.930 . S
C1112 N1109 1.279 . S
C1112 C1111 1.358 . S
C1112 H1115 0.930 . S
C1113 C1110 1.348 . S
C1113 C1111 1.356 . S
H1114 C1108 0.930 . S
H1115 C1112 0.930 . S
O1116 Li1056 1.956 . S
O1116 Li1057 1.970 . S
O1116 Li1058 1.961 . S
O1116 C1060 1.325 . S
O1117 Li1056 1.970 . S
O1117 Li1057 1.956 . S
O1117 Li1059 1.961 . S
O1117 C1066 1.325 . S
O1118 Li1056 1.961 . S
O1118 Li1058 1.956 . S
O1118 Li1059 1.970 . S
O1118 C1088 1.325 . S
O1119 Li1057 1.961 . S
O1119 Li1058 1.970 . S
O1119 Li1059 1.956 . S
O1119 C1094 1.325 . S
H1120 C1062 0.929 . S
H1121 C1063 0.930 . S
H1122 C1064 0.930 . S
H1123 C1065 0.930 . S
H1124 C1067 0.930 . S
H1125 C1069 0.929 . S
H1126 C1070 0.930 . S
H1127 C1071 0.930 . S
H1128 C1074 0.930 . S
H1129 C1077 0.929 . S
H1130 C1082 0.929 . S
H1131 C1083 0.930 . S
H1132 C1090 0.929 . S
H1133 C1091 0.930 . S
H1134 C1092 0.930 . S
H1135 C1093 0.930 . S
H1136 C1095 0.929 . S
H1137 C1096 0.930 . S
H1138 C1097 0.930 . S
H1139 C1098 0.930 . S
H1140 C1102 0.929 . S
H1141 C1104 0.930 . S
H1142 C1110 0.929 . S
H1143 C1111 0.930 . S
Li1144 N1161 1.990 . S
Li1144 O1204 1.956 . S
Li1144 O1205 1.970 . S
Li1144 O1206 1.961 . S
Li1145 N1169 1.990 . S
Li1145 O1204 1.970 . S
Li1145 O1205 1.956 . S
Li1145 O1207 1.961 . S
Li1146 N1191 1.990 . S
Li1146 O1204 1.961 . S
Li1146 O1206 1.956 . S
Li1146 O1207 1.970 . S
Li1147 N1197 1.990 . S
Li1147 O1205 1.961 . S
Li1147 O1206 1.970 . S
Li1147 O1207 1.956 . S
C1148 C1150 1.348 . S
C1148 C1151 1.356 . S
C1148 O1204 1.325 . S
N1149 C1152 1.314 . S
N1149 C1153 1.279 . S
C1150 C1148 1.348 . S
C1150 C1152 1.353 . S
C1150 H1208 0.929 . S
C1151 C1148 1.356 . S
C1151 C1153 1.358 . S
C1151 H1209 0.930 . S
C1152 N1149 1.314 . S
C1152 C1150 1.353 . S
C1152 H1210 0.930 . S
C1153 N1149 1.279 . S
C1153 C1151 1.358 . S
C1153 H1211 0.930 . S
C1154 C1157 1.348 . S
C1154 C1158 1.356 . S
C1154 O1205 1.325 . S
C1155 N1156 1.279 . S
C1155 C1158 1.358 . S
C1155 H1212 0.930 . S
N1156 C1155 1.279 . S
N1156 C1159 1.314 . S
C1157 C1154 1.348 . S
C1157 C1159 1.353 . S
C1157 H1213 0.929 . S
C1158 C1154 1.356 . S
C1158 C1155 1.358 . S
C1158 H1214 0.930 . S
C1159 N1156 1.314 . S
C1159 C1157 1.353 . S
C1159 H1215 0.930 . S
C1160 N1161 1.314 . S
C1160 C1165 1.353 . S
C1160 H1166 0.930 . S
N1161 Li1144 1.990 . S
N1161 C1160 1.314 . S
N1161 C1163 1.279 . S
C1162 C1163 1.358 . S
C1162 C1164 1.356 . S
C1162 H1216 0.930 . S
C1163 N1161 1.279 . S
C1163 C1162 1.358 . S
C1163 H1167 0.930 . S
C1164 C1162 1.356 . S
C1164 C1165 1.348 . S
C1165 C1160 1.353 . S
C1165 C1164 1.348 . S
C1165 H1217 0.929 . S
H1166 C1160 0.930 . S
H1167 C1163 0.930 . S
C1168 N1169 1.314 . S
C1168 C1170 1.353 . S
C1168 H1174 0.930 . S
N1169 Li1145 1.990 . S
N1169 C1168 1.314 . S
N1169 C1172 1.279 . S
C1170 C1168 1.353 . S
C1170 C1173 1.348 . S
C1170 H1218 0.929 . S
C1171 C1172 1.358 . S
C1171 C1173 1.356 . S
C1171 H1219 0.930 . S
C1172 N1169 1.279 . S
C1172 C1171 1.358 . S
C1172 H1175 0.930 . S
C1173 C1170 1.348 . S
C1173 C1171 1.356 . S
H1174 C1168 0.930 . S
H1175 C1172 0.930 . S
C1176 C1178 1.348 . S
C1176 C1179 1.356 . S
C1176 O1206 1.325 . S
N1177 C1180 1.314 . S
N1177 C1181 1.279 . S
C1178 C1176 1.348 . S
C1178 C1180 1.353 . S
C1178 H1220 0.929 . S
C1179 C1176 1.356 . S
C1179 C1181 1.358 . S
C1179 H1221 0.930 . S
C1180 N1177 1.314 . S
C1180 C1178 1.353 . S
C1180 H1222 0.930 . S
C1181 N1177 1.279 . S
C1181 C1179 1.358 . S
C1181 H1223 0.930 . S
C1182 C1183 1.348 . S
C1182 C1184 1.356 . S
C1182 O1207 1.325 . S
C1183 C1182 1.348 . S
C1183 C1185 1.353 . S
C1183 H1224 0.929 . S
C1184 C1182 1.356 . S
C1184 C1186 1.358 . S
C1184 H1225 0.930 . S
C1185 C1183 1.353 . S
C1185 N1187 1.314 . S
C1185 H1226 0.930 . S
C1186 C1184 1.358 . S
C1186 N1187 1.279 . S
C1186 H1227 0.930 . S
N1187 C1185 1.314 . S
N1187 C1186 1.279 . S
C1188 C1190 1.353 . S
C1188 N1191 1.314 . S
C1188 H1194 0.930 . S
C1189 N1191 1.279 . S
C1189 C1192 1.358 . S
C1189 H1195 0.930 . S
C1190 C1188 1.353 . S
C1190 C1193 1.348 . S
C1190 H1228 0.929 . S
N1191 Li1146 1.990 . S
N1191 C1188 1.314 . S
N1191 C1189 1.279 . S
C1192 C1189 1.358 . S
C1192 C1193 1.356 . S
C1192 H1229 0.930 . S
C1193 C1190 1.348 . S
C1193 C1192 1.356 . S
H1194 C1188 0.930 . S
H1195 C1189 0.930 . S
C1196 N1197 1.314 . S
C1196 C1198 1.353 . S
C1196 H1202 0.930 . S
N1197 Li1147 1.990 . S
N1197 C1196 1.314 . S
N1197 C1200 1.279 . S
C1198 C1196 1.353 . S
C1198 C1201 1.348 . S
C1198 H1230 0.929 . S
C1199 C1200 1.358 . S
C1199 C1201 1.356 . S
C1199 H1231 0.930 . S
C1200 N1197 1.279 . S
C1200 C1199 1.358 . S
C1200 H1203 0.930 . S
C1201 C1198 1.348 . S
C1201 C1199 1.356 . S
H1202 C1196 0.930 . S
H1203 C1200 0.930 . S
O1204 Li1144 1.956 . S
O1204 Li1145 1.970 . S
O1204 Li1146 1.961 . S
O1204 C1148 1.325 . S
O1205 Li1144 1.970 . S
O1205 Li1145 1.956 . S
O1205 Li1147 1.961 . S
O1205 C1154 1.325 . S
O1206 Li1144 1.961 . S
O1206 Li1146 1.956 . S
O1206 Li1147 1.970 . S
O1206 C1176 1.325 . S
O1207 Li1145 1.961 . S
O1207 Li1146 1.970 . S
O1207 Li1147 1.956 . S
O1207 C1182 1.325 . S
H1208 C1150 0.929 . S
H1209 C1151 0.930 . S
H1210 C1152 0.930 . S
H1211 C1153 0.930 . S
H1212 C1155 0.930 . S
H1213 C1157 0.929 . S
H1214 C1158 0.930 . S
H1215 C1159 0.930 . S
H1216 C1162 0.930 . S
H1217 C1165 0.929 . S
H1218 C1170 0.929 . S
H1219 C1171 0.930 . S
H1220 C1178 0.929 . S
H1221 C1179 0.930 . S
H1222 C1180 0.930 . S
H1223 C1181 0.930 . S
H1224 C1183 0.929 . S
H1225 C1184 0.930 . S
H1226 C1185 0.930 . S
H1227 C1186 0.930 . S
H1228 C1190 0.929 . S
H1229 C1192 0.930 . S
H1230 C1198 0.929 . S
H1231 C1199 0.930 . S
Li1232 N1249 1.990 . S
Li1232 O1292 1.956 . S
Li1232 O1293 1.970 . S
Li1232 O1294 1.961 . S
Li1233 N1257 1.990 . S
Li1233 O1292 1.970 . S
Li1233 O1293 1.956 . S
Li1233 O1295 1.961 . S
Li1234 N1279 1.990 . S
Li1234 O1292 1.961 . S
Li1234 O1294 1.956 . S
Li1234 O1295 1.970 . S
Li1235 N1285 1.990 1_554 S
Li1235 O1293 1.961 . S
Li1235 O1294 1.970 . S
Li1235 O1295 1.956 . S
C1236 C1238 1.348 . S
C1236 C1239 1.356 . S
C1236 O1292 1.325 . S
N1237 C1240 1.314 . S
N1237 C1241 1.279 . S
C1238 C1236 1.348 . S
C1238 C1240 1.353 . S
C1238 H1296 0.929 . S
C1239 C1236 1.356 . S
C1239 C1241 1.358 . S
C1239 H1297 0.930 . S
C1240 N1237 1.314 . S
C1240 C1238 1.353 . S
C1240 H1298 0.930 . S
C1241 N1237 1.279 . S
C1241 C1239 1.358 . S
C1241 H1299 0.930 . S
C1242 C1245 1.348 . S
C1242 C1246 1.356 . S
C1242 O1293 1.325 . S
C1243 N1244 1.279 . S
C1243 C1246 1.358 . S
C1243 H1300 0.930 . S
N1244 C1243 1.279 . S
N1244 C1247 1.314 . S
C1245 C1242 1.348 . S
C1245 C1247 1.353 . S
C1245 H1301 0.929 . S
C1246 C1242 1.356 . S
C1246 C1243 1.358 . S
C1246 H1302 0.930 . S
C1247 N1244 1.314 . S
C1247 C1245 1.353 . S
C1247 H1303 0.930 . S
C1248 N1249 1.314 . S
C1248 C1253 1.353 . S
C1248 H1254 0.930 1_554 S
N1249 Li1232 1.990 . S
N1249 C1248 1.314 . S
N1249 C1251 1.279 . S
C1250 C1251 1.358 . S
C1250 C1252 1.356 . S
C1250 H1304 0.930 . S
C1251 N1249 1.279 . S
C1251 C1250 1.358 . S
C1251 H1255 0.930 . S
C1252 C1250 1.356 . S
C1252 C1253 1.348 . S
C1253 C1248 1.353 . S
C1253 C1252 1.348 . S
C1253 H1305 0.929 1_554 S
H1254 C1248 0.930 1_556 S
H1255 C1251 0.930 . S
C1256 N1257 1.314 . S
C1256 C1258 1.353 . S
C1256 H1262 0.930 . S
N1257 Li1233 1.990 . S
N1257 C1256 1.314 . S
N1257 C1260 1.279 . S
C1258 C1256 1.353 . S
C1258 C1261 1.348 . S
C1258 H1306 0.929 . S
C1259 C1260 1.358 . S
C1259 C1261 1.356 . S
C1259 H1307 0.930 . S
C1260 N1257 1.279 . S
C1260 C1259 1.358 . S
C1260 H1263 0.930 . S
C1261 C1258 1.348 . S
C1261 C1259 1.356 . S
H1262 C1256 0.930 . S
H1263 C1260 0.930 . S
C1264 C1266 1.348 . S
C1264 C1267 1.356 . S
C1264 O1294 1.325 1_556 S
N1265 C1268 1.314 . S
N1265 C1269 1.279 . S
C1266 C1264 1.348 . S
C1266 C1268 1.353 . S
C1266 H1308 0.929 . S
C1267 C1264 1.356 . S
C1267 C1269 1.358 . S
C1267 H1309 0.930 1_556 S
C1268 N1265 1.314 . S
C1268 C1266 1.353 . S
C1268 H1310 0.930 . S
C1269 N1265 1.279 . S
C1269 C1267 1.358 . S
C1269 H1311 0.930 . S
C1270 C1271 1.348 . S
C1270 C1272 1.356 . S
C1270 O1295 1.325 . S
C1271 C1270 1.348 . S
C1271 C1273 1.353 . S
C1271 H1312 0.929 . S
C1272 C1270 1.356 . S
C1272 C1274 1.358 . S
C1272 H1313 0.930 . S
C1273 C1271 1.353 . S
C1273 N1275 1.314 . S
C1273 H1314 0.930 . S
C1274 C1272 1.358 . S
C1274 N1275 1.279 . S
C1274 H1315 0.930 . S
N1275 C1273 1.314 . S
N1275 C1274 1.279 . S
C1276 C1278 1.353 . S
C1276 N1279 1.314 . S
C1276 H1282 0.930 . S
C1277 N1279 1.279 . S
C1277 C1280 1.358 . S
C1277 H1283 0.930 . S
C1278 C1276 1.353 . S
C1278 C1281 1.348 . S
C1278 H1316 0.929 . S
N1279 Li1234 1.990 . S
N1279 C1276 1.314 . S
N1279 C1277 1.279 . S
C1280 C1277 1.358 . S
C1280 C1281 1.356 . S
C1280 H1317 0.930 . S
C1281 C1278 1.348 . S
C1281 C1280 1.356 . S
H1282 C1276 0.930 . S
H1283 C1277 0.930 . S
C1284 N1285 1.314 . S
C1284 C1286 1.353 . S
C1284 H1290 0.930 . S
N1285 Li1235 1.990 1_556 S
N1285 C1284 1.314 . S
N1285 C1288 1.279 . S
C1286 C1284 1.353 . S
C1286 C1289 1.348 . S
C1286 H1318 0.929 . S
C1287 C1288 1.358 . S
C1287 C1289 1.356 . S
C1287 H1319 0.930 . S
C1288 N1285 1.279 . S
C1288 C1287 1.358 . S
C1288 H1291 0.930 . S
C1289 C1286 1.348 . S
C1289 C1287 1.356 . S
H1290 C1284 0.930 . S
H1291 C1288 0.930 . S
O1292 Li1232 1.956 . S
O1292 Li1233 1.970 . S
O1292 Li1234 1.961 . S
O1292 C1236 1.325 . S
O1293 Li1232 1.970 . S
O1293 Li1233 1.956 . S
O1293 Li1235 1.961 . S
O1293 C1242 1.325 . S
O1294 Li1232 1.961 . S
O1294 Li1234 1.956 . S
O1294 Li1235 1.970 . S
O1294 C1264 1.325 1_554 S
O1295 Li1233 1.961 . S
O1295 Li1234 1.970 . S
O1295 Li1235 1.956 . S
O1295 C1270 1.325 . S
H1296 C1238 0.929 . S
H1297 C1239 0.930 . S
H1298 C1240 0.930 . S
H1299 C1241 0.930 . S
H1300 C1243 0.930 . S
H1301 C1245 0.929 . S
H1302 C1246 0.930 . S
H1303 C1247 0.930 . S
H1304 C1250 0.930 . S
H1305 C1253 0.929 1_556 S
H1306 C1258 0.929 . S
H1307 C1259 0.930 . S
H1308 C1266 0.929 . S
H1309 C1267 0.930 1_554 S
H1310 C1268 0.930 . S
H1311 C1269 0.930 . S
H1312 C1271 0.929 . S
H1313 C1272 0.930 . S
H1314 C1273 0.930 . S
H1315 C1274 0.930 . S
H1316 C1278 0.929 . S
H1317 C1280 0.930 . S
H1318 C1286 0.929 . S
H1319 C1287 0.930 . S
Li1320 N1337 1.990 . S
Li1320 O1380 1.956 . S
Li1320 O1381 1.970 . S
Li1320 O1382 1.961 . S
Li1321 N1345 1.990 . S
Li1321 O1380 1.970 . S
Li1321 O1381 1.956 . S
Li1321 O1383 1.961 . S
Li1322 N1367 1.990 . S
Li1322 O1380 1.961 . S
Li1322 O1382 1.956 . S
Li1322 O1383 1.970 . S
Li1323 N1373 1.990 . S
Li1323 O1381 1.961 . S
Li1323 O1382 1.970 . S
Li1323 O1383 1.956 . S
C1324 C1326 1.348 . S
C1324 C1327 1.356 . S
C1324 O1380 1.325 . S
N1325 C1328 1.314 . S
N1325 C1329 1.279 . S
C1326 C1324 1.348 . S
C1326 C1328 1.353 . S
C1326 H1384 0.929 . S
C1327 C1324 1.356 . S
C1327 C1329 1.358 . S
C1327 H1385 0.930 . S
C1328 N1325 1.314 . S
C1328 C1326 1.353 . S
C1328 H1386 0.930 . S
C1329 N1325 1.279 . S
C1329 C1327 1.358 . S
C1329 H1387 0.930 . S
C1330 C1333 1.348 . S
C1330 C1334 1.356 . S
C1330 O1381 1.325 . S
C1331 N1332 1.279 . S
C1331 C1334 1.358 . S
C1331 H1388 0.930 1_455 S
N1332 C1331 1.279 . S
N1332 C1335 1.314 . S
C1333 C1330 1.348 . S
C1333 C1335 1.353 . S
C1333 H1389 0.929 . S
C1334 C1330 1.356 . S
C1334 C1331 1.358 . S
C1334 H1390 0.930 . S
C1335 N1332 1.314 . S
C1335 C1333 1.353 . S
C1335 H1391 0.930 . S
C1336 N1337 1.314 . S
C1336 C1341 1.353 . S
C1336 H1342 0.930 . S
N1337 Li1320 1.990 . S
N1337 C1336 1.314 . S
N1337 C1339 1.279 . S
C1338 C1339 1.358 . S
C1338 C1340 1.356 . S
C1338 H1392 0.930 . S
C1339 N1337 1.279 . S
C1339 C1338 1.358 . S
C1339 H1343 0.930 . S
C1340 C1338 1.356 . S
C1340 C1341 1.348 . S
C1341 C1336 1.353 . S
C1341 C1340 1.348 . S
C1341 H1393 0.929 . S
H1342 C1336 0.930 . S
H1343 C1339 0.930 . S
C1344 N1345 1.314 . S
C1344 C1346 1.353 . S
C1344 H1350 0.930 . S
N1345 Li1321 1.990 . S
N1345 C1344 1.314 . S
N1345 C1348 1.279 . S
C1346 C1344 1.353 . S
C1346 C1349 1.348 . S
C1346 H1394 0.929 . S
C1347 C1348 1.358 . S
C1347 C1349 1.356 . S
C1347 H1395 0.930 . S
C1348 N1345 1.279 . S
C1348 C1347 1.358 . S
C1348 H1351 0.930 . S
C1349 C1346 1.348 . S
C1349 C1347 1.356 . S
H1350 C1344 0.930 . S
H1351 C1348 0.930 . S
C1352 C1354 1.348 . S
C1352 C1355 1.356 . S
C1352 O1382 1.325 . S
N1353 C1356 1.314 . S
N1353 C1357 1.279 . S
C1354 C1352 1.348 . S
C1354 C1356 1.353 . S
C1354 H1396 0.929 . S
C1355 C1352 1.356 . S
C1355 C1357 1.358 . S
C1355 H1397 0.930 . S
C1356 N1353 1.314 . S
C1356 C1354 1.353 . S
C1356 H1398 0.930 . S
C1357 N1353 1.279 . S
C1357 C1355 1.358 . S
C1357 H1399 0.930 . S
C1358 C1359 1.348 . S
C1358 C1360 1.356 . S
C1358 O1383 1.325 . S
C1359 C1358 1.348 . S
C1359 C1361 1.353 . S
C1359 H1400 0.929 . S
C1360 C1358 1.356 . S
C1360 C1362 1.358 . S
C1360 H1401 0.930 . S
C1361 C1359 1.353 . S
C1361 N1363 1.314 . S
C1361 H1402 0.930 . S
C1362 C1360 1.358 . S
C1362 N1363 1.279 . S
C1362 H1403 0.930 . S
N1363 C1361 1.314 . S
N1363 C1362 1.279 . S
C1364 C1366 1.353 . S
C1364 N1367 1.314 . S
C1364 H1370 0.930 . S
C1365 N1367 1.279 . S
C1365 C1368 1.358 . S
C1365 H1371 0.930 . S
C1366 C1364 1.353 . S
C1366 C1369 1.348 . S
C1366 H1404 0.929 . S
N1367 Li1322 1.990 . S
N1367 C1364 1.314 . S
N1367 C1365 1.279 . S
C1368 C1365 1.358 . S
C1368 C1369 1.356 . S
C1368 H1405 0.930 . S
C1369 C1366 1.348 . S
C1369 C1368 1.356 . S
H1370 C1364 0.930 . S
H1371 C1365 0.930 . S
C1372 N1373 1.314 . S
C1372 C1374 1.353 . S
C1372 H1378 0.930 . S
N1373 Li1323 1.990 . S
N1373 C1372 1.314 . S
N1373 C1376 1.279 . S
C1374 C1372 1.353 . S
C1374 C1377 1.348 . S
C1374 H1406 0.929 . S
C1375 C1376 1.358 . S
C1375 C1377 1.356 . S
C1375 H1407 0.930 . S
C1376 N1373 1.279 . S
C1376 C1375 1.358 . S
C1376 H1379 0.930 . S
C1377 C1374 1.348 . S
C1377 C1375 1.356 . S
H1378 C1372 0.930 . S
H1379 C1376 0.930 . S
O1380 Li1320 1.956 . S
O1380 Li1321 1.970 . S
O1380 Li1322 1.961 . S
O1380 C1324 1.325 . S
O1381 Li1320 1.970 . S
O1381 Li1321 1.956 . S
O1381 Li1323 1.961 . S
O1381 C1330 1.325 . S
O1382 Li1320 1.961 . S
O1382 Li1322 1.956 . S
O1382 Li1323 1.970 . S
O1382 C1352 1.325 . S
O1383 Li1321 1.961 . S
O1383 Li1322 1.970 . S
O1383 Li1323 1.956 . S
O1383 C1358 1.325 . S
H1384 C1326 0.929 . S
H1385 C1327 0.930 . S
H1386 C1328 0.930 . S
H1387 C1329 0.930 . S
H1388 C1331 0.930 1_655 S
H1389 C1333 0.929 . S
H1390 C1334 0.930 . S
H1391 C1335 0.930 . S
H1392 C1338 0.930 . S
H1393 C1341 0.929 . S
H1394 C1346 0.929 . S
H1395 C1347 0.930 . S
H1396 C1354 0.929 . S
H1397 C1355 0.930 . S
H1398 C1356 0.930 . S
H1399 C1357 0.930 . S
H1400 C1359 0.929 . S
H1401 C1360 0.930 . S
H1402 C1361 0.930 . S
H1403 C1362 0.930 . S
H1404 C1366 0.929 . S
H1405 C1368 0.930 . S
H1406 C1374 0.929 . S
H1407 C1375 0.930 . S
Li1408 N1425 1.990 . S
Li1408 O1468 1.956 . S
Li1408 O1469 1.970 . S
Li1408 O1470 1.961 . S
Li1409 N1433 1.990 . S
Li1409 O1468 1.970 . S
Li1409 O1469 1.956 . S
Li1409 O1471 1.961 . S
Li1410 N1455 1.990 . S
Li1410 O1468 1.961 . S
Li1410 O1470 1.956 . S
Li1410 O1471 1.970 . S
Li1411 N1461 1.990 . S
Li1411 O1469 1.961 . S
Li1411 O1470 1.970 . S
Li1411 O1471 1.956 . S
C1412 C1414 1.348 . S
C1412 C1415 1.356 . S
C1412 O1468 1.325 . S
N1413 C1416 1.314 . S
N1413 C1417 1.279 . S
C1414 C1412 1.348 . S
C1414 C1416 1.353 . S
C1414 H1472 0.929 . S
C1415 C1412 1.356 . S
C1415 C1417 1.358 . S
C1415 H1473 0.930 . S
C1416 N1413 1.314 . S
C1416 C1414 1.353 . S
C1416 H1474 0.930 . S
C1417 N1413 1.279 . S
C1417 C1415 1.358 . S
C1417 H1475 0.930 . S
C1418 C1421 1.348 . S
C1418 C1422 1.356 . S
C1418 O1469 1.325 . S
C1419 N1420 1.279 . S
C1419 C1422 1.358 . S
C1419 H1476 0.930 . S
N1420 C1419 1.279 . S
N1420 C1423 1.314 . S
C1421 C1418 1.348 . S
C1421 C1423 1.353 . S
C1421 H1477 0.929 . S
C1422 C1418 1.356 . S
C1422 C1419 1.358 . S
C1422 H1478 0.930 . S
C1423 N1420 1.314 . S
C1423 C1421 1.353 . S
C1423 H1479 0.930 . S
C1424 N1425 1.314 . S
C1424 C1429 1.353 . S
C1424 H1430 0.930 . S
N1425 Li1408 1.990 . S
N1425 C1424 1.314 . S
N1425 C1427 1.279 . S
C1426 C1427 1.358 . S
C1426 C1428 1.356 . S
C1426 H1480 0.930 . S
C1427 N1425 1.279 . S
C1427 C1426 1.358 . S
C1427 H1431 0.930 . S
C1428 C1426 1.356 . S
C1428 C1429 1.348 . S
C1429 C1424 1.353 . S
C1429 C1428 1.348 . S
C1429 H1481 0.929 . S
H1430 C1424 0.930 . S
H1431 C1427 0.930 . S
C1432 N1433 1.314 . S
C1432 C1434 1.353 . S
C1432 H1438 0.930 . S
N1433 Li1409 1.990 . S
N1433 C1432 1.314 . S
N1433 C1436 1.279 . S
C1434 C1432 1.353 . S
C1434 C1437 1.348 . S
C1434 H1482 0.929 . S
C1435 C1436 1.358 . S
C1435 C1437 1.356 . S
C1435 H1483 0.930 . S
C1436 N1433 1.279 . S
C1436 C1435 1.358 . S
C1436 H1439 0.930 . S
C1437 C1434 1.348 . S
C1437 C1435 1.356 . S
H1438 C1432 0.930 . S
H1439 C1436 0.930 . S
C1440 C1442 1.348 . S
C1440 C1443 1.356 . S
C1440 O1470 1.325 . S
N1441 C1444 1.314 . S
N1441 C1445 1.279 . S
C1442 C1440 1.348 . S
C1442 C1444 1.353 . S
C1442 H1484 0.929 . S
C1443 C1440 1.356 . S
C1443 C1445 1.358 . S
C1443 H1485 0.930 . S
C1444 N1441 1.314 . S
C1444 C1442 1.353 . S
C1444 H1486 0.930 . S
C1445 N1441 1.279 . S
C1445 C1443 1.358 . S
C1445 H1487 0.930 . S
C1446 C1447 1.348 . S
C1446 C1448 1.356 . S
C1446 O1471 1.325 . S
C1447 C1446 1.348 . S
C1447 C1449 1.353 . S
C1447 H1488 0.929 . S
C1448 C1446 1.356 . S
C1448 C1450 1.358 . S
C1448 H1489 0.930 . S
C1449 C1447 1.353 . S
C1449 N1451 1.314 . S
C1449 H1490 0.930 . S
C1450 C1448 1.358 . S
C1450 N1451 1.279 . S
C1450 H1491 0.930 . S
N1451 C1449 1.314 . S
N1451 C1450 1.279 . S
C1452 C1454 1.353 . S
C1452 N1455 1.314 . S
C1452 H1458 0.930 . S
C1453 N1455 1.279 . S
C1453 C1456 1.358 . S
C1453 H1459 0.930 . S
C1454 C1452 1.353 . S
C1454 C1457 1.348 . S
C1454 H1492 0.929 . S
N1455 Li1410 1.990 . S
N1455 C1452 1.314 . S
N1455 C1453 1.279 . S
C1456 C1453 1.358 . S
C1456 C1457 1.356 . S
C1456 H1493 0.930 . S
C1457 C1454 1.348 . S
C1457 C1456 1.356 . S
H1458 C1452 0.930 . S
H1459 C1453 0.930 . S
C1460 N1461 1.314 . S
C1460 C1462 1.353 . S
C1460 H1466 0.930 . S
N1461 Li1411 1.990 . S
N1461 C1460 1.314 . S
N1461 C1464 1.279 . S
C1462 C1460 1.353 . S
C1462 C1465 1.348 . S
C1462 H1494 0.929 . S
C1463 C1464 1.358 . S
C1463 C1465 1.356 . S
C1463 H1495 0.930 . S
C1464 N1461 1.279 . S
C1464 C1463 1.358 . S
C1464 H1467 0.930 . S
C1465 C1462 1.348 . S
C1465 C1463 1.356 . S
H1466 C1460 0.930 . S
H1467 C1464 0.930 . S
O1468 Li1408 1.956 . S
O1468 Li1409 1.970 . S
O1468 Li1410 1.961 . S
O1468 C1412 1.325 . S
O1469 Li1408 1.970 . S
O1469 Li1409 1.956 . S
O1469 Li1411 1.961 . S
O1469 C1418 1.325 . S
O1470 Li1408 1.961 . S
O1470 Li1410 1.956 . S
O1470 Li1411 1.970 . S
O1470 C1440 1.325 . S
O1471 Li1409 1.961 . S
O1471 Li1410 1.970 . S
O1471 Li1411 1.956 . S
O1471 C1446 1.325 . S
H1472 C1414 0.929 . S
H1473 C1415 0.930 . S
H1474 C1416 0.930 . S
H1475 C1417 0.930 . S
H1476 C1419 0.930 . S
H1477 C1421 0.929 . S
H1478 C1422 0.930 . S
H1479 C1423 0.930 . S
H1480 C1426 0.930 . S
H1481 C1429 0.929 . S
H1482 C1434 0.929 . S
H1483 C1435 0.930 . S
H1484 C1442 0.929 . S
H1485 C1443 0.930 . S
H1486 C1444 0.930 . S
H1487 C1445 0.930 . S
H1488 C1447 0.929 . S
H1489 C1448 0.930 . S
H1490 C1449 0.930 . S
H1491 C1450 0.930 . S
H1492 C1454 0.929 . S
H1493 C1456 0.930 . S
H1494 C1462 0.929 . S
H1495 C1463 0.930 . S
Li1496 N1513 1.990 . S
Li1496 O1556 1.956 . S
Li1496 O1557 1.970 . S
Li1496 O1558 1.961 . S
Li1497 N1521 1.990 . S
Li1497 O1556 1.970 . S
Li1497 O1557 1.956 . S
Li1497 O1559 1.961 . S
Li1498 N1543 1.990 . S
Li1498 O1556 1.961 . S
Li1498 O1558 1.956 . S
Li1498 O1559 1.970 . S
Li1499 N1549 1.990 . S
Li1499 O1557 1.961 . S
Li1499 O1558 1.970 . S
Li1499 O1559 1.956 . S
C1500 C1502 1.348 . S
C1500 C1503 1.356 . S
C1500 O1556 1.325 . S
N1501 C1504 1.314 . S
N1501 C1505 1.279 . S
C1502 C1500 1.348 . S
C1502 C1504 1.353 . S
C1502 H1560 0.929 . S
C1503 C1500 1.356 . S
C1503 C1505 1.358 . S
C1503 H1561 0.930 . S
C1504 N1501 1.314 . S
C1504 C1502 1.353 . S
C1504 H1562 0.930 . S
C1505 N1501 1.279 . S
C1505 C1503 1.358 . S
C1505 H1563 0.930 . S
C1506 C1509 1.348 . S
C1506 C1510 1.356 . S
C1506 O1557 1.325 . S
C1507 N1508 1.279 . S
C1507 C1510 1.358 . S
C1507 H1564 0.930 . S
N1508 C1507 1.279 . S
N1508 C1511 1.314 . S
C1509 C1506 1.348 . S
C1509 C1511 1.353 . S
C1509 H1565 0.929 . S
C1510 C1506 1.356 . S
C1510 C1507 1.358 . S
C1510 H1566 0.930 . S
C1511 N1508 1.314 . S
C1511 C1509 1.353 . S
C1511 H1567 0.908 1_556 S
C1512 N1513 1.314 . S
C1512 C1517 1.353 . S
C1512 H1518 0.930 . S
N1513 Li1496 1.990 . S
N1513 C1512 1.314 . S
N1513 C1515 1.279 . S
C1514 C1515 1.358 . S
C1514 C1516 1.356 . S
C1514 H1568 0.930 . S
C1515 N1513 1.279 . S
C1515 C1514 1.358 . S
C1515 H1519 0.930 . S
C1516 C1514 1.356 . S
C1516 C1517 1.348 . S
C1517 C1512 1.353 . S
C1517 C1516 1.348 . S
C1517 H1569 0.929 . S
H1518 C1512 0.930 . S
H1519 C1515 0.930 . S
C1520 N1521 1.314 . S
C1520 C1522 1.353 . S
C1520 H1526 0.930 . S
N1521 Li1497 1.990 . S
N1521 C1520 1.314 . S
N1521 C1524 1.279 . S
C1522 C1520 1.353 . S
C1522 C1525 1.348 . S
C1522 H1570 0.929 . S
C1523 C1524 1.358 . S
C1523 C1525 1.356 . S
C1523 H1571 0.930 . S
C1524 N1521 1.279 . S
C1524 C1523 1.358 . S
C1524 H1527 0.930 . S
C1525 C1522 1.348 . S
C1525 C1523 1.356 . S
H1526 C1520 0.930 . S
H1527 C1524 0.930 . S
C1528 C1530 1.348 . S
C1528 C1531 1.356 . S
C1528 O1558 1.325 . S
N1529 C1532 1.314 . S
N1529 C1533 1.279 . S
C1530 C1528 1.348 . S
C1530 C1532 1.353 . S
C1530 H1572 0.929 . S
C1531 C1528 1.356 . S
C1531 C1533 1.358 . S
C1531 H1573 0.930 . S
C1532 N1529 1.314 . S
C1532 C1530 1.353 . S
C1532 H1574 0.930 . S
C1533 N1529 1.279 . S
C1533 C1531 1.358 . S
C1533 H1575 0.930 . S
C1534 C1535 1.348 . S
C1534 C1536 1.356 . S
C1534 O1559 1.325 . S
C1535 C1534 1.348 . S
C1535 C1537 1.353 . S
C1535 H1576 0.929 . S
C1536 C1534 1.356 . S
C1536 C1538 1.358 . S
C1536 H1577 0.930 . S
C1537 C1535 1.353 . S
C1537 N1539 1.314 . S
C1537 H1578 0.930 . S
C1538 C1536 1.358 . S
C1538 N1539 1.279 . S
C1538 H1579 0.930 . S
N1539 C1537 1.314 . S
N1539 C1538 1.279 . S
C1540 C1542 1.353 . S
C1540 N1543 1.314 . S
C1540 H1546 0.930 . S
C1541 N1543 1.279 . S
C1541 C1544 1.358 . S
C1541 H1547 0.930 . S
C1542 C1540 1.353 . S
C1542 C1545 1.348 . S
C1542 H1580 0.929 . S
N1543 Li1498 1.990 . S
N1543 C1540 1.314 . S
N1543 C1541 1.279 . S
C1544 C1541 1.358 . S
C1544 C1545 1.356 . S
C1544 H1581 0.930 . S
C1545 C1542 1.348 . S
C1545 C1544 1.356 . S
H1546 C1540 0.930 . S
H1547 C1541 0.930 . S
C1548 N1549 1.314 . S
C1548 C1550 1.353 . S
C1548 H1554 0.930 . S
N1549 Li1499 1.990 . S
N1549 C1548 1.314 . S
N1549 C1552 1.279 . S
C1550 C1548 1.353 . S
C1550 C1553 1.348 . S
C1550 H1582 0.929 . S
C1551 C1552 1.358 . S
C1551 C1553 1.356 . S
C1551 H1583 0.930 . S
C1552 N1549 1.279 . S
C1552 C1551 1.358 . S
C1552 H1555 0.930 . S
C1553 C1550 1.348 . S
C1553 C1551 1.356 . S
H1554 C1548 0.930 . S
H1555 C1552 0.930 . S
O1556 Li1496 1.956 . S
O1556 Li1497 1.970 . S
O1556 Li1498 1.961 . S
O1556 C1500 1.325 . S
O1557 Li1496 1.970 . S
O1557 Li1497 1.956 . S
O1557 Li1499 1.961 . S
O1557 C1506 1.325 . S
O1558 Li1496 1.961 . S
O1558 Li1498 1.956 . S
O1558 Li1499 1.970 . S
O1558 C1528 1.325 . S
O1559 Li1497 1.961 . S
O1559 Li1498 1.970 . S
O1559 Li1499 1.956 . S
O1559 C1534 1.325 . S
H1560 C1502 0.929 . S
H1561 C1503 0.930 . S
H1562 C1504 0.930 . S
H1563 C1505 0.930 . S
H1564 C1507 0.930 . S
H1565 C1509 0.929 . S
H1566 C1510 0.930 . S
H1567 C1511 0.908 1_554 S
H1568 C1514 0.930 . S
H1569 C1517 0.929 . S
H1570 C1522 0.929 . S
H1571 C1523 0.930 . S
H1572 C1530 0.929 . S
H1573 C1531 0.930 . S
H1574 C1532 0.930 . S
H1575 C1533 0.930 . S
H1576 C1535 0.929 . S
H1577 C1536 0.930 . S
H1578 C1537 0.930 . S
H1579 C1538 0.930 . S
H1580 C1542 0.929 . S
H1581 C1544 0.930 . S
H1582 C1550 0.929 . S
H1583 C1551 0.930 . S
Li1584 N1601 1.990 . S
Li1584 O1644 1.956 . S
Li1584 O1645 1.970 . S
Li1584 O1646 1.961 . S
Li1585 N1609 1.990 . S
Li1585 O1644 1.970 . S
Li1585 O1645 1.956 . S
Li1585 O1647 1.961 . S
Li1586 N1631 1.990 1_554 S
Li1586 O1644 1.961 . S
Li1586 O1646 1.956 . S
Li1586 O1647 1.970 . S
Li1587 N1637 1.990 . S
Li1587 O1645 1.961 . S
Li1587 O1646 1.970 . S
Li1587 O1647 1.956 . S
C1588 C1590 1.348 . S
C1588 C1591 1.356 . S
C1588 O1644 1.325 . S
N1589 C1592 1.314 . S
N1589 C1593 1.279 . S
C1590 C1588 1.348 . S
C1590 C1592 1.353 . S
C1590 H1648 0.929 . S
C1591 C1588 1.356 . S
C1591 C1593 1.358 . S
C1591 H1649 0.930 . S
C1592 N1589 1.314 . S
C1592 C1590 1.353 . S
C1592 H1650 0.930 . S
C1593 N1589 1.279 . S
C1593 C1591 1.358 . S
C1593 H1651 0.930 . S
C1594 C1597 1.348 . S
C1594 C1598 1.356 . S
C1594 O1645 1.325 . S
C1595 N1596 1.279 . S
C1595 C1598 1.358 . S
C1595 H1652 0.930 . S
N1596 C1595 1.279 . S
N1596 C1599 1.314 . S
C1597 C1594 1.348 . S
C1597 C1599 1.353 . S
C1597 H1653 0.929 . S
C1598 C1594 1.356 . S
C1598 C1595 1.358 . S
C1598 H1654 0.930 . S
C1599 N1596 1.314 . S
C1599 C1597 1.353 . S
C1599 H1655 0.930 . S
C1600 N1601 1.314 . S
C1600 C1605 1.353 . S
C1600 H1606 0.930 . S
N1601 Li1584 1.990 . S
N1601 C1600 1.314 . S
N1601 C1603 1.279 . S
C1602 C1603 1.358 . S
C1602 C1604 1.356 . S
C1602 H1656 0.930 . S
C1603 N1601 1.279 . S
C1603 C1602 1.358 . S
C1603 H1607 0.930 . S
C1604 C1602 1.356 . S
C1604 C1605 1.348 . S
C1605 C1600 1.353 . S
C1605 C1604 1.348 . S
C1605 H1657 0.929 . S
H1606 C1600 0.930 . S
H1607 C1603 0.930 . S
C1608 N1609 1.314 . S
C1608 C1610 1.353 . S
C1608 H1614 0.930 . S
N1609 Li1585 1.990 . S
N1609 C1608 1.314 . S
N1609 C1612 1.279 . S
C1610 C1608 1.353 . S
C1610 C1613 1.348 . S
C1610 H1658 0.929 . S
C1611 C1612 1.358 . S
C1611 C1613 1.356 . S
C1611 H1659 0.930 . S
C1612 N1609 1.279 . S
C1612 C1611 1.358 . S
C1612 H1615 0.930 . S
C1613 C1610 1.348 . S
C1613 C1611 1.356 . S
H1614 C1608 0.930 . S
H1615 C1612 0.930 . S
C1616 C1618 1.348 . S
C1616 C1619 1.356 . S
C1616 O1646 1.325 . S
N1617 C1620 1.314 . S
N1617 C1621 1.279 . S
C1618 C1616 1.348 . S
C1618 C1620 1.353 . S
C1618 H1660 0.929 . S
C1619 C1616 1.356 . S
C1619 C1621 1.358 . S
C1619 H1661 0.930 . S
C1620 N1617 1.314 . S
C1620 C1618 1.353 . S
C1620 H1662 0.930 . S
C1621 N1617 1.279 . S
C1621 C1619 1.358 . S
C1621 H1663 0.930 . S
C1622 C1623 1.348 . S
C1622 C1624 1.356 . S
C1622 O1647 1.325 1_556 S
C1623 C1622 1.348 . S
C1623 C1625 1.353 . S
C1623 H1664 0.929 . S
C1624 C1622 1.356 . S
C1624 C1626 1.358 . S
C1624 H1665 0.930 1_556 S
C1625 C1623 1.353 . S
C1625 N1627 1.314 . S
C1625 H1666 0.930 . S
C1626 C1624 1.358 . S
C1626 N1627 1.279 . S
C1626 H1667 0.930 . S
N1627 C1625 1.314 . S
N1627 C1626 1.279 . S
C1628 C1630 1.353 . S
C1628 N1631 1.314 . S
C1628 H1634 0.930 . S
C1629 N1631 1.279 . S
C1629 C1632 1.358 . S
C1629 H1635 0.930 . S
C1630 C1628 1.353 . S
C1630 C1633 1.348 . S
C1630 H1668 0.929 . S
N1631 Li1586 1.990 1_556 S
N1631 C1628 1.314 . S
N1631 C1629 1.279 . S
C1632 C1629 1.358 . S
C1632 C1633 1.356 . S
C1632 H1669 0.930 . S
C1633 C1630 1.348 . S
C1633 C1632 1.356 . S
H1634 C1628 0.930 . S
H1635 C1629 0.930 . S
C1636 N1637 1.314 . S
C1636 C1638 1.353 . S
C1636 H1642 0.930 . S
N1637 Li1587 1.990 . S
N1637 C1636 1.314 . S
N1637 C1640 1.279 . S
C1638 C1636 1.353 . S
C1638 C1641 1.348 . S
C1638 H1670 0.929 . S
C1639 C1640 1.358 . S
C1639 C1641 1.356 . S
C1639 H1671 0.930 1_554 S
C1640 N1637 1.279 . S
C1640 C1639 1.358 . S
C1640 H1643 0.930 1_554 S
C1641 C1638 1.348 . S
C1641 C1639 1.356 . S
H1642 C1636 0.930 . S
H1643 C1640 0.930 1_556 S
O1644 Li1584 1.956 . S
O1644 Li1585 1.970 . S
O1644 Li1586 1.961 . S
O1644 C1588 1.325 . S
O1645 Li1584 1.970 . S
O1645 Li1585 1.956 . S
O1645 Li1587 1.961 . S
O1645 C1594 1.325 . S
O1646 Li1584 1.961 . S
O1646 Li1586 1.956 . S
O1646 Li1587 1.970 . S
O1646 C1616 1.325 . S
O1647 Li1585 1.961 . S
O1647 Li1586 1.970 . S
O1647 Li1587 1.956 . S
O1647 C1622 1.325 1_554 S
H1648 C1590 0.929 . S
H1649 C1591 0.930 . S
H1650 C1592 0.930 . S
H1651 C1593 0.930 . S
H1652 C1595 0.930 . S
H1653 C1597 0.929 . S
H1654 C1598 0.930 . S
H1655 C1599 0.930 . S
H1656 C1602 0.930 . S
H1657 C1605 0.929 . S
H1658 C1610 0.929 . S
H1659 C1611 0.930 . S
H1660 C1618 0.929 . S
H1661 C1619 0.930 . S
H1662 C1620 0.930 . S
H1663 C1621 0.930 . S
H1664 C1623 0.929 . S
H1665 C1624 0.930 1_554 S
H1666 C1625 0.930 . S
H1667 C1626 0.930 . S
H1668 C1630 0.929 . S
H1669 C1632 0.930 . S
H1670 C1638 0.929 . S
H1671 C1639 0.930 1_556 S
Li1672 N1689 1.990 . S
Li1672 O1732 1.956 . S
Li1672 O1733 1.970 . S
Li1672 O1734 1.961 . S
Li1673 N1697 1.990 . S
Li1673 O1732 1.970 . S
Li1673 O1733 1.956 . S
Li1673 O1735 1.961 . S
Li1674 N1719 1.990 . S
Li1674 O1732 1.961 . S
Li1674 O1734 1.956 . S
Li1674 O1735 1.970 . S
Li1675 N1725 1.990 . S
Li1675 O1733 1.961 . S
Li1675 O1734 1.970 . S
Li1675 O1735 1.956 . S
C1676 C1678 1.348 . S
C1676 C1679 1.356 . S
C1676 O1732 1.325 . S
N1677 C1680 1.314 . S
N1677 C1681 1.279 . S
C1678 C1676 1.348 . S
C1678 C1680 1.353 . S
C1678 H1736 0.929 . S
C1679 C1676 1.356 . S
C1679 C1681 1.358 . S
C1679 H1737 0.930 . S
C1680 N1677 1.314 . S
C1680 C1678 1.353 . S
C1680 H1738 0.930 . S
C1681 N1677 1.279 . S
C1681 C1679 1.358 . S
C1681 H1739 0.930 . S
C1682 C1685 1.348 . S
C1682 C1686 1.356 . S
C1682 O1733 1.325 . S
C1683 N1684 1.279 . S
C1683 C1686 1.358 . S
C1683 H1740 0.930 . S
N1684 C1683 1.279 . S
N1684 C1687 1.314 . S
C1685 C1682 1.348 . S
C1685 C1687 1.353 . S
C1685 H1741 0.929 . S
C1686 C1682 1.356 . S
C1686 C1683 1.358 . S
C1686 H1742 0.930 . S
C1687 N1684 1.314 . S
C1687 C1685 1.353 . S
C1687 H1743 0.930 . S
C1688 N1689 1.314 . S
C1688 C1693 1.353 . S
C1688 H1694 0.930 . S
N1689 Li1672 1.990 . S
N1689 C1688 1.314 . S
N1689 C1691 1.279 . S
C1690 C1691 1.358 . S
C1690 C1692 1.356 . S
C1690 H1744 0.930 . S
C1691 N1689 1.279 . S
C1691 C1690 1.358 . S
C1691 H1695 0.930 . S
C1692 C1690 1.356 . S
C1692 C1693 1.348 . S
C1693 C1688 1.353 . S
C1693 C1692 1.348 . S
C1693 H1745 0.929 . S
H1694 C1688 0.930 . S
H1695 C1691 0.930 . S
C1696 N1697 1.314 . S
C1696 C1698 1.353 . S
C1696 H1702 0.930 . S
N1697 Li1673 1.990 . S
N1697 C1696 1.314 . S
N1697 C1700 1.279 . S
C1698 C1696 1.353 . S
C1698 C1701 1.348 . S
C1698 H1746 0.929 . S
C1699 C1700 1.358 . S
C1699 C1701 1.356 . S
C1699 H1747 0.930 . S
C1700 N1697 1.279 . S
C1700 C1699 1.358 . S
C1700 H1703 0.930 . S
C1701 C1698 1.348 . S
C1701 C1699 1.356 . S
H1702 C1696 0.930 . S
H1703 C1700 0.930 . S
C1704 C1706 1.348 . S
C1704 C1707 1.356 . S
C1704 O1734 1.325 . S
N1705 C1708 1.314 . S
N1705 C1709 1.279 . S
C1706 C1704 1.348 . S
C1706 C1708 1.353 . S
C1706 H1748 0.929 . S
C1707 C1704 1.356 . S
C1707 C1709 1.358 . S
C1707 H1749 0.930 . S
C1708 N1705 1.314 . S
C1708 C1706 1.353 . S
C1708 H1750 0.930 . S
C1709 N1705 1.279 . S
C1709 C1707 1.358 . S
C1709 H1751 0.930 . S
C1710 C1711 1.348 . S
C1710 C1712 1.356 . S
C1710 O1735 1.325 . S
C1711 C1710 1.348 . S
C1711 C1713 1.353 . S
C1711 H1752 0.929 . S
C1712 C1710 1.356 . S
C1712 C1714 1.358 . S
C1712 H1753 0.930 . S
C1713 C1711 1.353 . S
C1713 N1715 1.314 . S
C1713 H1754 0.930 . S
C1714 C1712 1.358 . S
C1714 N1715 1.279 . S
C1714 H1755 0.930 1_455 S
N1715 C1713 1.314 . S
N1715 C1714 1.279 . S
C1716 C1718 1.353 . S
C1716 N1719 1.314 . S
C1716 H1722 0.930 . S
C1717 N1719 1.279 . S
C1717 C1720 1.358 . S
C1717 H1723 0.930 . S
C1718 C1716 1.353 . S
C1718 C1721 1.348 . S
C1718 H1756 0.929 . S
N1719 Li1674 1.990 . S
N1719 C1716 1.314 . S
N1719 C1717 1.279 . S
C1720 C1717 1.358 . S
C1720 C1721 1.356 . S
C1720 H1757 0.930 . S
C1721 C1718 1.348 . S
C1721 C1720 1.356 . S
H1722 C1716 0.930 . S
H1723 C1717 0.930 . S
C1724 N1725 1.314 . S
C1724 C1726 1.353 . S
C1724 H1730 0.930 . S
N1725 Li1675 1.990 . S
N1725 C1724 1.314 . S
N1725 C1728 1.279 . S
C1726 C1724 1.353 . S
C1726 C1729 1.348 . S
C1726 H1758 0.929 . S
C1727 C1728 1.358 . S
C1727 C1729 1.356 . S
C1727 H1759 0.930 . S
C1728 N1725 1.279 . S
C1728 C1727 1.358 . S
C1728 H1731 0.930 . S
C1729 C1726 1.348 . S
C1729 C1727 1.356 . S
H1730 C1724 0.930 . S
H1731 C1728 0.930 . S
O1732 Li1672 1.956 . S
O1732 Li1673 1.970 . S
O1732 Li1674 1.961 . S
O1732 C1676 1.325 . S
O1733 Li1672 1.970 . S
O1733 Li1673 1.956 . S
O1733 Li1675 1.961 . S
O1733 C1682 1.325 . S
O1734 Li1672 1.961 . S
O1734 Li1674 1.956 . S
O1734 Li1675 1.970 . S
O1734 C1704 1.325 . S
O1735 Li1673 1.961 . S
O1735 Li1674 1.970 . S
O1735 Li1675 1.956 . S
O1735 C1710 1.325 . S
H1736 C1678 0.929 . S
H1737 C1679 0.930 . S
H1738 C1680 0.930 . S
H1739 C1681 0.930 . S
H1740 C1683 0.930 . S
H1741 C1685 0.929 . S
H1742 C1686 0.930 . S
H1743 C1687 0.930 . S
H1744 C1690 0.930 . S
H1745 C1693 0.929 . S
H1746 C1698 0.929 . S
H1747 C1699 0.930 . S
H1748 C1706 0.929 . S
H1749 C1707 0.930 . S
H1750 C1708 0.930 . S
H1751 C1709 0.930 . S
H1752 C1711 0.929 . S
H1753 C1712 0.930 . S
H1754 C1713 0.930 . S
H1755 C1714 0.930 1_655 S
H1756 C1718 0.929 . S
H1757 C1720 0.930 . S
H1758 C1726 0.929 . S
H1759 C1727 0.930 . S
Li1760 N1777 1.990 . S
Li1760 O1820 1.956 . S
Li1760 O1821 1.970 . S
Li1760 O1822 1.961 . S
Li1761 N1785 1.990 1_556 S
Li1761 O1820 1.970 . S
Li1761 O1821 1.956 . S
Li1761 O1823 1.961 . S
Li1762 N1807 1.990 . S
Li1762 O1820 1.961 . S
Li1762 O1822 1.956 . S
Li1762 O1823 1.970 . S
Li1763 N1813 1.990 . S
Li1763 O1821 1.961 . S
Li1763 O1822 1.970 . S
Li1763 O1823 1.956 . S
C1764 C1766 1.348 . S
C1764 C1767 1.356 . S
C1764 O1820 1.325 1_554 S
N1765 C1768 1.314 . S
N1765 C1769 1.279 . S
C1766 C1764 1.348 . S
C1766 C1768 1.353 . S
C1766 H1824 0.929 . S
C1767 C1764 1.356 . S
C1767 C1769 1.358 . S
C1767 H1825 0.930 1_554 S
C1768 N1765 1.314 . S
C1768 C1766 1.353 . S
C1768 H1826 0.930 . S
C1769 N1765 1.279 . S
C1769 C1767 1.358 . S
C1769 H1827 0.930 . S
C1770 C1773 1.348 . S
C1770 C1774 1.356 . S
C1770 O1821 1.325 . S
C1771 N1772 1.279 . S
C1771 C1774 1.358 . S
C1771 H1828 0.930 . S
N1772 C1771 1.279 . S
N1772 C1775 1.314 . S
C1773 C1770 1.348 . S
C1773 C1775 1.353 . S
C1773 H1829 0.929 . S
C1774 C1770 1.356 . S
C1774 C1771 1.358 . S
C1774 H1830 0.930 . S
C1775 N1772 1.314 . S
C1775 C1773 1.353 . S
C1775 H1831 0.930 . S
C1776 N1777 1.314 . S
C1776 C1781 1.353 . S
C1776 H1782 0.930 . S
N1777 Li1760 1.990 . S
N1777 C1776 1.314 . S
N1777 C1779 1.279 . S
C1778 C1779 1.358 . S
C1778 C1780 1.356 . S
C1778 H1832 0.930 1_556 S
C1779 N1777 1.279 . S
C1779 C1778 1.358 . S
C1779 H1783 0.930 1_556 S
C1780 C1778 1.356 . S
C1780 C1781 1.348 . S
C1781 C1776 1.353 . S
C1781 C1780 1.348 . S
C1781 H1833 0.929 . S
H1782 C1776 0.930 . S
H1783 C1779 0.930 1_554 S
C1784 N1785 1.314 . S
C1784 C1786 1.353 . S
C1784 H1790 0.930 . S
N1785 Li1761 1.990 1_554 S
N1785 C1784 1.314 . S
N1785 C1788 1.279 . S
C1786 C1784 1.353 . S
C1786 C1789 1.348 . S
C1786 H1834 0.929 . S
C1787 C1788 1.358 . S
C1787 C1789 1.356 . S
C1787 H1835 0.930 . S
C1788 N1785 1.279 . S
C1788 C1787 1.358 . S
C1788 H1791 0.930 . S
C1789 C1786 1.348 . S
C1789 C1787 1.356 . S
H1790 C1784 0.930 . S
H1791 C1788 0.930 . S
C1792 C1794 1.348 . S
C1792 C1795 1.356 . S
C1792 O1822 1.325 . S
N1793 C1796 1.314 . S
N1793 C1797 1.279 . S
C1794 C1792 1.348 . S
C1794 C1796 1.353 . S
C1794 H1836 0.929 . S
C1795 C1792 1.356 . S
C1795 C1797 1.358 . S
C1795 H1837 0.930 . S
C1796 N1793 1.314 . S
C1796 C1794 1.353 . S
C1796 H1838 0.930 . S
C1797 N1793 1.279 . S
C1797 C1795 1.358 . S
C1797 H1839 0.930 . S
C1798 C1799 1.348 . S
C1798 C1800 1.356 . S
C1798 O1823 1.325 . S
C1799 C1798 1.348 . S
C1799 C1801 1.353 . S
C1799 H1840 0.929 . S
C1800 C1798 1.356 . S
C1800 C1802 1.358 . S
C1800 H1841 0.930 . S
C1801 C1799 1.353 . S
C1801 N1803 1.314 . S
C1801 H1842 0.930 . S
C1802 C1800 1.358 . S
C1802 N1803 1.279 . S
C1802 H1843 0.930 . S
N1803 C1801 1.314 . S
N1803 C1802 1.279 . S
C1804 C1806 1.353 . S
C1804 N1807 1.314 . S
C1804 H1810 0.930 . S
C1805 N1807 1.279 . S
C1805 C1808 1.358 . S
C1805 H1811 0.930 . S
C1806 C1804 1.353 . S
C1806 C1809 1.348 . S
C1806 H1844 0.929 . S
N1807 Li1762 1.990 . S
N1807 C1804 1.314 . S
N1807 C1805 1.279 . S
C1808 C1805 1.358 . S
C1808 C1809 1.356 . S
C1808 H1845 0.930 . S
C1809 C1806 1.348 . S
C1809 C1808 1.356 . S
H1810 C1804 0.930 . S
H1811 C1805 0.930 . S
C1812 N1813 1.314 . S
C1812 C1814 1.353 . S
C1812 H1818 0.930 . S
N1813 Li1763 1.990 . S
N1813 C1812 1.314 . S
N1813 C1816 1.279 . S
C1814 C1812 1.353 . S
C1814 C1817 1.348 . S
C1814 H1846 0.929 . S
C1815 C1816 1.358 . S
C1815 C1817 1.356 . S
C1815 H1847 0.930 . S
C1816 N1813 1.279 . S
C1816 C1815 1.358 . S
C1816 H1819 0.930 . S
C1817 C1814 1.348 . S
C1817 C1815 1.356 . S
H1818 C1812 0.930 . S
H1819 C1816 0.930 . S
O1820 Li1760 1.956 . S
O1820 Li1761 1.970 . S
O1820 Li1762 1.961 . S
O1820 C1764 1.325 1_556 S
O1821 Li1760 1.970 . S
O1821 Li1761 1.956 . S
O1821 Li1763 1.961 . S
O1821 C1770 1.325 . S
O1822 Li1760 1.961 . S
O1822 Li1762 1.956 . S
O1822 Li1763 1.970 . S
O1822 C1792 1.325 . S
O1823 Li1761 1.961 . S
O1823 Li1762 1.970 . S
O1823 Li1763 1.956 . S
O1823 C1798 1.325 . S
H1824 C1766 0.929 . S
H1825 C1767 0.930 1_556 S
H1826 C1768 0.930 . S
H1827 C1769 0.930 . S
H1828 C1771 0.930 . S
H1829 C1773 0.929 . S
H1830 C1774 0.930 . S
H1831 C1775 0.930 . S
H1832 C1778 0.930 1_554 S
H1833 C1781 0.929 . S
H1834 C1786 0.929 . S
H1835 C1787 0.930 . S
H1836 C1794 0.929 . S
H1837 C1795 0.930 . S
H1838 C1796 0.930 . S
H1839 C1797 0.930 . S
H1840 C1799 0.929 . S
H1841 C1800 0.930 . S
H1842 C1801 0.930 . S
H1843 C1802 0.930 . S
H1844 C1806 0.929 . S
H1845 C1808 0.930 . S
H1846 C1814 0.929 . S
H1847 C1815 0.930 . S
Li1848 N1865 1.990 . S
Li1848 O1908 1.956 . S
Li1848 O1909 1.970 . S
Li1848 O1910 1.961 . S
Li1849 N1873 1.990 . S
Li1849 O1908 1.970 . S
Li1849 O1909 1.956 . S
Li1849 O1911 1.961 . S
Li1850 N1895 1.990 . S
Li1850 O1908 1.961 . S
Li1850 O1910 1.956 . S
Li1850 O1911 1.970 . S
Li1851 N1901 1.990 . S
Li1851 O1909 1.961 . S
Li1851 O1910 1.970 . S
Li1851 O1911 1.956 . S
C1852 C1854 1.348 . S
C1852 C1855 1.356 . S
C1852 O1908 1.325 . S
N1853 C1856 1.314 . S
N1853 C1857 1.279 . S
C1854 C1852 1.348 . S
C1854 C1856 1.353 . S
C1854 H1912 0.929 . S
C1855 C1852 1.356 . S
C1855 C1857 1.358 . S
C1855 H1913 0.930 . S
C1856 N1853 1.314 . S
C1856 C1854 1.353 . S
C1856 H1914 0.930 . S
C1857 N1853 1.279 . S
C1857 C1855 1.358 . S
C1857 H1915 0.930 . S
C1858 C1861 1.348 . S
C1858 C1862 1.356 . S
C1858 O1909 1.325 . S
C1859 N1860 1.279 . S
C1859 C1862 1.358 . S
C1859 H1916 0.930 1_455 S
N1860 C1859 1.279 . S
N1860 C1863 1.314 . S
C1861 C1858 1.348 . S
C1861 C1863 1.353 . S
C1861 H1917 0.929 . S
C1862 C1858 1.356 . S
C1862 C1859 1.358 . S
C1862 H1918 0.930 . S
C1863 N1860 1.314 . S
C1863 C1861 1.353 . S
C1863 H1919 0.930 . S
C1864 N1865 1.314 . S
C1864 C1869 1.353 . S
C1864 H1870 0.930 . S
N1865 Li1848 1.990 . S
N1865 C1864 1.314 . S
N1865 C1867 1.279 . S
C1866 C1867 1.358 . S
C1866 C1868 1.356 . S
C1866 H1920 0.930 . S
C1867 N1865 1.279 . S
C1867 C1866 1.358 . S
C1867 H1871 0.930 . S
C1868 C1866 1.356 . S
C1868 C1869 1.348 . S
C1869 C1864 1.353 . S
C1869 C1868 1.348 . S
C1869 H1921 0.929 . S
H1870 C1864 0.930 . S
H1871 C1867 0.930 . S
C1872 N1873 1.314 . S
C1872 C1874 1.353 . S
C1872 H1878 0.930 . S
N1873 Li1849 1.990 . S
N1873 C1872 1.314 . S
N1873 C1876 1.279 . S
C1874 C1872 1.353 . S
C1874 C1877 1.348 . S
C1874 H1922 0.929 . S
C1875 C1876 1.358 . S
C1875 C1877 1.356 . S
C1875 H1923 0.930 . S
C1876 N1873 1.279 . S
C1876 C1875 1.358 . S
C1876 H1879 0.930 . S
C1877 C1874 1.348 . S
C1877 C1875 1.356 . S
H1878 C1872 0.930 . S
H1879 C1876 0.930 . S
C1880 C1882 1.348 . S
C1880 C1883 1.356 . S
C1880 O1910 1.325 . S
N1881 C1884 1.314 . S
N1881 C1885 1.279 . S
C1882 C1880 1.348 . S
C1882 C1884 1.353 . S
C1882 H1924 0.929 . S
C1883 C1880 1.356 . S
C1883 C1885 1.358 . S
C1883 H1925 0.930 . S
C1884 N1881 1.314 . S
C1884 C1882 1.353 . S
C1884 H1926 0.908 1_554 S
C1885 N1881 1.279 . S
C1885 C1883 1.358 . S
C1885 H1927 0.930 . S
C1886 C1887 1.348 . S
C1886 C1888 1.356 . S
C1886 O1911 1.325 . S
C1887 C1886 1.348 . S
C1887 C1889 1.353 . S
C1887 H1928 0.929 . S
C1888 C1886 1.356 . S
C1888 C1890 1.358 . S
C1888 H1929 0.930 . S
C1889 C1887 1.353 . S
C1889 N1891 1.314 . S
C1889 H1930 0.930 . S
C1890 C1888 1.358 . S
C1890 N1891 1.279 . S
C1890 H1931 0.930 . S
N1891 C1889 1.314 . S
N1891 C1890 1.279 . S
C1892 C1894 1.353 . S
C1892 N1895 1.314 . S
C1892 H1898 0.930 . S
C1893 N1895 1.279 . S
C1893 C1896 1.358 . S
C1893 H1899 0.930 . S
C1894 C1892 1.353 . S
C1894 C1897 1.348 . S
C1894 H1932 0.929 . S
N1895 Li1850 1.990 . S
N1895 C1892 1.314 . S
N1895 C1893 1.279 . S
C1896 C1893 1.358 . S
C1896 C1897 1.356 . S
C1896 H1933 0.930 . S
C1897 C1894 1.348 . S
C1897 C1896 1.356 . S
H1898 C1892 0.930 . S
H1899 C1893 0.930 . S
C1900 N1901 1.314 . S
C1900 C1902 1.353 . S
C1900 H1906 0.930 . S
N1901 Li1851 1.990 . S
N1901 C1900 1.314 . S
N1901 C1904 1.279 . S
C1902 C1900 1.353 . S
C1902 C1905 1.348 . S
C1902 H1934 0.929 . S
C1903 C1904 1.358 . S
C1903 C1905 1.356 . S
C1903 H1935 0.930 . S
C1904 N1901 1.279 . S
C1904 C1903 1.358 . S
C1904 H1907 0.930 . S
C1905 C1902 1.348 . S
C1905 C1903 1.356 . S
H1906 C1900 0.930 . S
H1907 C1904 0.930 . S
O1908 Li1848 1.956 . S
O1908 Li1849 1.970 . S
O1908 Li1850 1.961 . S
O1908 C1852 1.325 . S
O1909 Li1848 1.970 . S
O1909 Li1849 1.956 . S
O1909 Li1851 1.961 . S
O1909 C1858 1.325 . S
O1910 Li1848 1.961 . S
O1910 Li1850 1.956 . S
O1910 Li1851 1.970 . S
O1910 C1880 1.325 . S
O1911 Li1849 1.961 . S
O1911 Li1850 1.970 . S
O1911 Li1851 1.956 . S
O1911 C1886 1.325 . S
H1912 C1854 0.929 . S
H1913 C1855 0.930 . S
H1914 C1856 0.930 . S
H1915 C1857 0.930 . S
H1916 C1859 0.930 1_655 S
H1917 C1861 0.929 . S
H1918 C1862 0.930 . S
H1919 C1863 0.930 . S
H1920 C1866 0.930 . S
H1921 C1869 0.929 . S
H1922 C1874 0.929 . S
H1923 C1875 0.930 . S
H1924 C1882 0.929 . S
H1925 C1883 0.930 . S
H1926 C1884 0.908 1_556 S
H1927 C1885 0.930 . S
H1928 C1887 0.929 . S
H1929 C1888 0.930 . S
H1930 C1889 0.930 . S
H1931 C1890 0.930 . S
H1932 C1894 0.929 . S
H1933 C1896 0.930 . S
H1934 C1902 0.929 . S
H1935 C1903 0.930 . S
Li1936 N1953 1.990 . S
Li1936 O1996 1.956 . S
Li1936 O1997 1.970 . S
Li1936 O1998 1.961 . S
Li1937 N1961 1.990 . S
Li1937 O1996 1.970 . S
Li1937 O1997 1.956 . S
Li1937 O1999 1.961 . S
Li1938 N1983 1.990 . S
Li1938 O1996 1.961 . S
Li1938 O1998 1.956 . S
Li1938 O1999 1.970 . S
Li1939 N1989 1.990 . S
Li1939 O1997 1.961 . S
Li1939 O1998 1.970 . S
Li1939 O1999 1.956 . S
C1940 C1942 1.348 . S
C1940 C1943 1.356 . S
C1940 O1996 1.325 . S
N1941 C1944 1.314 . S
N1941 C1945 1.279 . S
C1942 C1940 1.348 . S
C1942 C1944 1.353 . S
C1942 H2000 0.929 . S
C1943 C1940 1.356 . S
C1943 C1945 1.358 . S
C1943 H2001 0.930 . S
C1944 N1941 1.314 . S
C1944 C1942 1.353 . S
C1944 H2002 0.930 . S
C1945 N1941 1.279 . S
C1945 C1943 1.358 . S
C1945 H2003 0.930 . S
C1946 C1949 1.348 . S
C1946 C1950 1.356 . S
C1946 O1997 1.325 . S
C1947 N1948 1.279 . S
C1947 C1950 1.358 . S
C1947 H2004 0.930 . S
N1948 C1947 1.279 . S
N1948 C1951 1.314 . S
C1949 C1946 1.348 . S
C1949 C1951 1.353 . S
C1949 H2005 0.929 . S
C1950 C1946 1.356 . S
C1950 C1947 1.358 . S
C1950 H2006 0.930 . S
C1951 N1948 1.314 . S
C1951 C1949 1.353 . S
C1951 H2007 0.930 . S
C1952 N1953 1.314 . S
C1952 C1957 1.353 . S
C1952 H1958 0.930 . S
N1953 Li1936 1.990 . S
N1953 C1952 1.314 . S
N1953 C1955 1.279 . S
C1954 C1955 1.358 . S
C1954 C1956 1.356 . S
C1954 H2008 0.930 . S
C1955 N1953 1.279 . S
C1955 C1954 1.358 . S
C1955 H1959 0.930 . S
C1956 C1954 1.356 . S
C1956 C1957 1.348 . S
C1957 C1952 1.353 . S
C1957 C1956 1.348 . S
C1957 H2009 0.929 . S
H1958 C1952 0.930 . S
H1959 C1955 0.930 . S
C1960 N1961 1.314 . S
C1960 C1962 1.353 . S
C1960 H1966 0.930 . S
N1961 Li1937 1.990 . S
N1961 C1960 1.314 . S
N1961 C1964 1.279 . S
C1962 C1960 1.353 . S
C1962 C1965 1.348 . S
C1962 H2010 0.929 . S
C1963 C1964 1.358 . S
C1963 C1965 1.356 . S
C1963 H2011 0.930 . S
C1964 N1961 1.279 . S
C1964 C1963 1.358 . S
C1964 H1967 0.930 . S
C1965 C1962 1.348 . S
C1965 C1963 1.356 . S
H1966 C1960 0.930 . S
H1967 C1964 0.930 . S
C1968 C1970 1.348 . S
C1968 C1971 1.356 . S
C1968 O1998 1.325 . S
N1969 C1972 1.314 . S
N1969 C1973 1.279 . S
C1970 C1968 1.348 . S
C1970 C1972 1.353 . S
C1970 H2012 0.929 . S
C1971 C1968 1.356 . S
C1971 C1973 1.358 . S
C1971 H2013 0.930 . S
C1972 N1969 1.314 . S
C1972 C1970 1.353 . S
C1972 H2014 0.930 . S
C1973 N1969 1.279 . S
C1973 C1971 1.358 . S
C1973 H2015 0.930 . S
C1974 C1975 1.348 . S
C1974 C1976 1.356 . S
C1974 O1999 1.325 . S
C1975 C1974 1.348 . S
C1975 C1977 1.353 . S
C1975 H2016 0.929 . S
C1976 C1974 1.356 . S
C1976 C1978 1.358 . S
C1976 H2017 0.930 . S
C1977 C1975 1.353 . S
C1977 N1979 1.314 . S
C1977 H2018 0.930 . S
C1978 C1976 1.358 . S
C1978 N1979 1.279 . S
C1978 H2019 0.930 . S
N1979 C1977 1.314 . S
N1979 C1978 1.279 . S
C1980 C1982 1.353 . S
C1980 N1983 1.314 . S
C1980 H1986 0.930 . S
C1981 N1983 1.279 . S
C1981 C1984 1.358 . S
C1981 H1987 0.930 . S
C1982 C1980 1.353 . S
C1982 C1985 1.348 . S
C1982 H2020 0.929 . S
N1983 Li1938 1.990 . S
N1983 C1980 1.314 . S
N1983 C1981 1.279 . S
C1984 C1981 1.358 . S
C1984 C1985 1.356 . S
C1984 H2021 0.930 . S
C1985 C1982 1.348 . S
C1985 C1984 1.356 . S
H1986 C1980 0.930 . S
H1987 C1981 0.930 . S
C1988 N1989 1.314 . S
C1988 C1990 1.353 . S
C1988 H1994 0.930 . S
N1989 Li1939 1.990 . S
N1989 C1988 1.314 . S
N1989 C1992 1.279 . S
C1990 C1988 1.353 . S
C1990 C1993 1.348 . S
C1990 H2022 0.929 . S
C1991 C1992 1.358 . S
C1991 C1993 1.356 . S
C1991 H2023 0.930 . S
C1992 N1989 1.279 . S
C1992 C1991 1.358 . S
C1992 H1995 0.930 . S
C1993 C1990 1.348 . S
C1993 C1991 1.356 . S
H1994 C1988 0.930 . S
H1995 C1992 0.930 . S
O1996 Li1936 1.956 . S
O1996 Li1937 1.970 . S
O1996 Li1938 1.961 . S
O1996 C1940 1.325 . S
O1997 Li1936 1.970 . S
O1997 Li1937 1.956 . S
O1997 Li1939 1.961 . S
O1997 C1946 1.325 . S
O1998 Li1936 1.961 . S
O1998 Li1938 1.956 . S
O1998 Li1939 1.970 . S
O1998 C1968 1.325 . S
O1999 Li1937 1.961 . S
O1999 Li1938 1.970 . S
O1999 Li1939 1.956 . S
O1999 C1974 1.325 . S
H2000 C1942 0.929 . S
H2001 C1943 0.930 . S
H2002 C1944 0.930 . S
H2003 C1945 0.930 . S
H2004 C1947 0.930 . S
H2005 C1949 0.929 . S
H2006 C1950 0.930 . S
H2007 C1951 0.930 . S
H2008 C1954 0.930 . S
H2009 C1957 0.929 . S
H2010 C1962 0.929 . S
H2011 C1963 0.930 . S
H2012 C1970 0.929 . S
H2013 C1971 0.930 . S
H2014 C1972 0.930 . S
H2015 C1973 0.930 . S
H2016 C1975 0.929 . S
H2017 C1976 0.930 . S
H2018 C1977 0.930 . S
H2019 C1978 0.930 . S
H2020 C1982 0.929 . S
H2021 C1984 0.930 . S
H2022 C1990 0.929 . S
H2023 C1991 0.930 . S
Li2024 N2041 1.990 . S
Li2024 O2084 1.956 . S
Li2024 O2085 1.970 . S
Li2024 O2086 1.961 . S
Li2025 N2049 1.990 . S
Li2025 O2084 1.970 . S
Li2025 O2085 1.956 . S
Li2025 O2087 1.961 . S
Li2026 N2071 1.990 . S
Li2026 O2084 1.961 . S
Li2026 O2086 1.956 . S
Li2026 O2087 1.970 . S
Li2027 N2077 1.990 . S
Li2027 O2085 1.961 . S
Li2027 O2086 1.970 . S
Li2027 O2087 1.956 . S
C2028 C2030 1.348 . S
C2028 C2031 1.356 . S
C2028 O2084 1.325 . S
N2029 C2032 1.314 . S
N2029 C2033 1.279 . S
C2030 C2028 1.348 . S
C2030 C2032 1.353 . S
C2030 H2088 0.929 . S
C2031 C2028 1.356 . S
C2031 C2033 1.358 . S
C2031 H2089 0.930 . S
C2032 N2029 1.314 . S
C2032 C2030 1.353 . S
C2032 H2090 0.930 . S
C2033 N2029 1.279 . S
C2033 C2031 1.358 . S
C2033 H2091 0.930 . S
C2034 C2037 1.348 . S
C2034 C2038 1.356 . S
C2034 O2085 1.325 . S
C2035 N2036 1.279 . S
C2035 C2038 1.358 . S
C2035 H2092 0.930 . S
N2036 C2035 1.279 . S
N2036 C2039 1.314 . S
C2037 C2034 1.348 . S
C2037 C2039 1.353 . S
C2037 H2093 0.929 . S
C2038 C2034 1.356 . S
C2038 C2035 1.358 . S
C2038 H2094 0.930 . S
C2039 N2036 1.314 . S
C2039 C2037 1.353 . S
C2039 H2095 0.930 . S
C2040 N2041 1.314 . S
C2040 C2045 1.353 . S
C2040 H2046 0.930 . S
N2041 Li2024 1.990 . S
N2041 C2040 1.314 . S
N2041 C2043 1.279 . S
C2042 C2043 1.358 . S
C2042 C2044 1.356 . S
C2042 H2096 0.930 . S
C2043 N2041 1.279 . S
C2043 C2042 1.358 . S
C2043 H2047 0.930 . S
C2044 C2042 1.356 . S
C2044 C2045 1.348 . S
C2045 C2040 1.353 . S
C2045 C2044 1.348 . S
C2045 H2097 0.929 . S
H2046 C2040 0.930 . S
H2047 C2043 0.930 . S
C2048 N2049 1.314 . S
C2048 C2050 1.353 . S
C2048 H2054 0.930 . S
N2049 Li2025 1.990 . S
N2049 C2048 1.314 . S
N2049 C2052 1.279 . S
C2050 C2048 1.353 . S
C2050 C2053 1.348 . S
C2050 H2098 0.929 . S
C2051 C2052 1.358 . S
C2051 C2053 1.356 . S
C2051 H2099 0.930 . S
C2052 N2049 1.279 . S
C2052 C2051 1.358 . S
C2052 H2055 0.930 . S
C2053 C2050 1.348 . S
C2053 C2051 1.356 . S
H2054 C2048 0.930 . S
H2055 C2052 0.930 . S
C2056 C2058 1.348 . S
C2056 C2059 1.356 . S
C2056 O2086 1.325 . S
N2057 C2060 1.314 . S
N2057 C2061 1.279 . S
C2058 C2056 1.348 . S
C2058 C2060 1.353 . S
C2058 H2100 0.929 . S
C2059 C2056 1.356 . S
C2059 C2061 1.358 . S
C2059 H2101 0.930 . S
C2060 N2057 1.314 . S
C2060 C2058 1.353 . S
C2060 H2102 0.930 . S
C2061 N2057 1.279 . S
C2061 C2059 1.358 . S
C2061 H2103 0.930 . S
C2062 C2063 1.348 . S
C2062 C2064 1.356 . S
C2062 O2087 1.325 . S
C2063 C2062 1.348 . S
C2063 C2065 1.353 . S
C2063 H2104 0.929 . S
C2064 C2062 1.356 . S
C2064 C2066 1.358 . S
C2064 H2105 0.930 . S
C2065 C2063 1.353 . S
C2065 N2067 1.314 . S
C2065 H2106 0.930 . S
C2066 C2064 1.358 . S
C2066 N2067 1.279 . S
C2066 H2107 0.930 . S
N2067 C2065 1.314 . S
N2067 C2066 1.279 . S
C2068 C2070 1.353 . S
C2068 N2071 1.314 . S
C2068 H2074 0.930 . S
C2069 N2071 1.279 . S
C2069 C2072 1.358 . S
C2069 H2075 0.930 . S
C2070 C2068 1.353 . S
C2070 C2073 1.348 . S
C2070 H2108 0.929 . S
N2071 Li2026 1.990 . S
N2071 C2068 1.314 . S
N2071 C2069 1.279 . S
C2072 C2069 1.358 . S
C2072 C2073 1.356 . S
C2072 H2109 0.930 . S
C2073 C2070 1.348 . S
C2073 C2072 1.356 . S
H2074 C2068 0.930 . S
H2075 C2069 0.930 . S
C2076 N2077 1.314 . S
C2076 C2078 1.353 . S
C2076 H2082 0.930 . S
N2077 Li2027 1.990 . S
N2077 C2076 1.314 . S
N2077 C2080 1.279 . S
C2078 C2076 1.353 . S
C2078 C2081 1.348 . S
C2078 H2110 0.929 . S
C2079 C2080 1.358 . S
C2079 C2081 1.356 . S
C2079 H2111 0.930 . S
C2080 N2077 1.279 . S
C2080 C2079 1.358 . S
C2080 H2083 0.930 . S
C2081 C2078 1.348 . S
C2081 C2079 1.356 . S
H2082 C2076 0.930 . S
H2083 C2080 0.930 . S
O2084 Li2024 1.956 . S
O2084 Li2025 1.970 . S
O2084 Li2026 1.961 . S
O2084 C2028 1.325 . S
O2085 Li2024 1.970 . S
O2085 Li2025 1.956 . S
O2085 Li2027 1.961 . S
O2085 C2034 1.325 . S
O2086 Li2024 1.961 . S
O2086 Li2026 1.956 . S
O2086 Li2027 1.970 . S
O2086 C2056 1.325 . S
O2087 Li2025 1.961 . S
O2087 Li2026 1.970 . S
O2087 Li2027 1.956 . S
O2087 C2062 1.325 . S
H2088 C2030 0.929 . S
H2089 C2031 0.930 . S
H2090 C2032 0.930 . S
H2091 C2033 0.930 . S
H2092 C2035 0.930 . S
H2093 C2037 0.929 . S
H2094 C2038 0.930 . S
H2095 C2039 0.930 . S
H2096 C2042 0.930 . S
H2097 C2045 0.929 . S
H2098 C2050 0.929 . S
H2099 C2051 0.930 . S
H2100 C2058 0.929 . S
H2101 C2059 0.930 . S
H2102 C2060 0.930 . S
H2103 C2061 0.930 . S
H2104 C2063 0.929 . S
H2105 C2064 0.930 . S
H2106 C2065 0.930 . S
H2107 C2066 0.930 . S
H2108 C2070 0.929 . S
H2109 C2072 0.930 . S
H2110 C2078 0.929 . S
H2111 C2079 0.930 . S
Li2112 N2129 1.990 . S
Li2112 O2172 1.956 . S
Li2112 O2173 1.970 . S
Li2112 O2174 1.961 . S
Li2113 N2137 1.990 . S
Li2113 O2172 1.970 . S
Li2113 O2173 1.956 . S
Li2113 O2175 1.961 . S
Li2114 N2159 1.990 . S
Li2114 O2172 1.961 . S
Li2114 O2174 1.956 . S
Li2114 O2175 1.970 . S
Li2115 N2165 1.990 . S
Li2115 O2173 1.961 . S
Li2115 O2174 1.970 . S
Li2115 O2175 1.956 . S
C2116 C2118 1.348 . S
C2116 C2119 1.356 . S
C2116 O2172 1.325 . S
N2117 C2120 1.314 . S
N2117 C2121 1.279 . S
C2118 C2116 1.348 . S
C2118 C2120 1.353 . S
C2118 H2176 0.929 . S
C2119 C2116 1.356 . S
C2119 C2121 1.358 . S
C2119 H2177 0.930 . S
C2120 N2117 1.314 . S
C2120 C2118 1.353 . S
C2120 H2178 0.930 . S
C2121 N2117 1.279 . S
C2121 C2119 1.358 . S
C2121 H2179 0.930 . S
C2122 C2125 1.348 . S
C2122 C2126 1.356 . S
C2122 O2173 1.325 . S
C2123 N2124 1.279 . S
C2123 C2126 1.358 . S
C2123 H2180 0.930 . S
N2124 C2123 1.279 . S
N2124 C2127 1.314 . S
C2125 C2122 1.348 . S
C2125 C2127 1.353 . S
C2125 H2181 0.929 . S
C2126 C2122 1.356 . S
C2126 C2123 1.358 . S
C2126 H2182 0.930 . S
C2127 N2124 1.314 . S
C2127 C2125 1.353 . S
C2127 H2183 0.930 . S
C2128 N2129 1.314 . S
C2128 C2133 1.353 . S
C2128 H2134 0.930 . S
N2129 Li2112 1.990 . S
N2129 C2128 1.314 . S
N2129 C2131 1.279 . S
C2130 C2131 1.358 . S
C2130 C2132 1.356 . S
C2130 H2184 0.930 . S
C2131 N2129 1.279 . S
C2131 C2130 1.358 . S
C2131 H2135 0.930 . S
C2132 C2130 1.356 . S
C2132 C2133 1.348 . S
C2133 C2128 1.353 . S
C2133 C2132 1.348 . S
C2133 H2185 0.929 . S
H2134 C2128 0.930 . S
H2135 C2131 0.930 . S
C2136 N2137 1.314 . S
C2136 C2138 1.353 . S
C2136 H2142 0.930 . S
N2137 Li2113 1.990 . S
N2137 C2136 1.314 . S
N2137 C2140 1.279 . S
C2138 C2136 1.353 . S
C2138 C2141 1.348 . S
C2138 H2186 0.929 . S
C2139 C2140 1.358 . S
C2139 C2141 1.356 . S
C2139 H2187 0.930 . S
C2140 N2137 1.279 . S
C2140 C2139 1.358 . S
C2140 H2143 0.930 . S
C2141 C2138 1.348 . S
C2141 C2139 1.356 . S
H2142 C2136 0.930 . S
H2143 C2140 0.930 . S
C2144 C2146 1.348 . S
C2144 C2147 1.356 . S
C2144 O2174 1.325 . S
N2145 C2148 1.314 . S
N2145 C2149 1.279 . S
C2146 C2144 1.348 . S
C2146 C2148 1.353 . S
C2146 H2188 0.929 . S
C2147 C2144 1.356 . S
C2147 C2149 1.358 . S
C2147 H2189 0.930 . S
C2148 N2145 1.314 . S
C2148 C2146 1.353 . S
C2148 H2190 0.930 . S
C2149 N2145 1.279 . S
C2149 C2147 1.358 . S
C2149 H2191 0.930 . S
C2150 C2151 1.348 . S
C2150 C2152 1.356 . S
C2150 O2175 1.325 . S
C2151 C2150 1.348 . S
C2151 C2153 1.353 . S
C2151 H2192 0.929 . S
C2152 C2150 1.356 . S
C2152 C2154 1.358 . S
C2152 H2193 0.930 . S
C2153 C2151 1.353 . S
C2153 N2155 1.314 . S
C2153 H2194 0.930 . S
C2154 C2152 1.358 . S
C2154 N2155 1.279 . S
C2154 H2195 0.930 . S
N2155 C2153 1.314 . S
N2155 C2154 1.279 . S
C2156 C2158 1.353 . S
C2156 N2159 1.314 . S
C2156 H2162 0.930 . S
C2157 N2159 1.279 . S
C2157 C2160 1.358 . S
C2157 H2163 0.930 . S
C2158 C2156 1.353 . S
C2158 C2161 1.348 . S
C2158 H2196 0.929 . S
N2159 Li2114 1.990 . S
N2159 C2156 1.314 . S
N2159 C2157 1.279 . S
C2160 C2157 1.358 . S
C2160 C2161 1.356 . S
C2160 H2197 0.930 . S
C2161 C2158 1.348 . S
C2161 C2160 1.356 . S
H2162 C2156 0.930 . S
H2163 C2157 0.930 . S
C2164 N2165 1.314 . S
C2164 C2166 1.353 . S
C2164 H2170 0.930 . S
N2165 Li2115 1.990 . S
N2165 C2164 1.314 . S
N2165 C2168 1.279 . S
C2166 C2164 1.353 . S
C2166 C2169 1.348 . S
C2166 H2198 0.929 . S
C2167 C2168 1.358 . S
C2167 C2169 1.356 . S
C2167 H2199 0.930 . S
C2168 N2165 1.279 . S
C2168 C2167 1.358 . S
C2168 H2171 0.930 . S
C2169 C2166 1.348 . S
C2169 C2167 1.356 . S
H2170 C2164 0.930 . S
H2171 C2168 0.930 . S
O2172 Li2112 1.956 . S
O2172 Li2113 1.970 . S
O2172 Li2114 1.961 . S
O2172 C2116 1.325 . S
O2173 Li2112 1.970 . S
O2173 Li2113 1.956 . S
O2173 Li2115 1.961 . S
O2173 C2122 1.325 . S
O2174 Li2112 1.961 . S
O2174 Li2114 1.956 . S
O2174 Li2115 1.970 . S
O2174 C2144 1.325 . S
O2175 Li2113 1.961 . S
O2175 Li2114 1.970 . S
O2175 Li2115 1.956 . S
O2175 C2150 1.325 . S
H2176 C2118 0.929 . S
H2177 C2119 0.930 . S
H2178 C2120 0.930 . S
H2179 C2121 0.930 . S
H2180 C2123 0.930 . S
H2181 C2125 0.929 . S
H2182 C2126 0.930 . S
H2183 C2127 0.930 . S
H2184 C2130 0.930 . S
H2185 C2133 0.929 . S
H2186 C2138 0.929 . S
H2187 C2139 0.930 . S
H2188 C2146 0.929 . S
H2189 C2147 0.930 . S
H2190 C2148 0.930 . S
H2191 C2149 0.930 . S
H2192 C2151 0.929 . S
H2193 C2152 0.930 . S
H2194 C2153 0.930 . S
H2195 C2154 0.930 . S
H2196 C2158 0.929 . S
H2197 C2160 0.930 . S
H2198 C2166 0.929 . S
H2199 C2167 0.930 . S
Li2200 N2217 1.990 . S
Li2200 O2260 1.956 . S
Li2200 O2261 1.970 . S
Li2200 O2262 1.961 . S
Li2201 N2225 1.990 . S
Li2201 O2260 1.970 . S
Li2201 O2261 1.956 . S
Li2201 O2263 1.961 . S
Li2202 N2247 1.990 . S
Li2202 O2260 1.961 . S
Li2202 O2262 1.956 . S
Li2202 O2263 1.970 . S
Li2203 N2253 1.990 . S
Li2203 O2261 1.961 . S
Li2203 O2262 1.970 . S
Li2203 O2263 1.956 . S
C2204 C2206 1.348 . S
C2204 C2207 1.356 . S
C2204 O2260 1.325 . S
N2205 C2208 1.314 . S
N2205 C2209 1.279 . S
C2206 C2204 1.348 . S
C2206 C2208 1.353 . S
C2206 H2264 0.929 . S
C2207 C2204 1.356 . S
C2207 C2209 1.358 . S
C2207 H2265 0.930 . S
C2208 N2205 1.314 . S
C2208 C2206 1.353 . S
C2208 H2266 0.930 . S
C2209 N2205 1.279 . S
C2209 C2207 1.358 . S
C2209 H2267 0.930 . S
C2210 C2213 1.348 . S
C2210 C2214 1.356 . S
C2210 O2261 1.325 . S
C2211 N2212 1.279 . S
C2211 C2214 1.358 . S
C2211 H2268 0.930 . S
N2212 C2211 1.279 . S
N2212 C2215 1.314 . S
C2213 C2210 1.348 . S
C2213 C2215 1.353 . S
C2213 H2269 0.929 . S
C2214 C2210 1.356 . S
C2214 C2211 1.358 . S
C2214 H2270 0.930 . S
C2215 N2212 1.314 . S
C2215 C2213 1.353 . S
C2215 H2271 0.930 . S
C2216 N2217 1.314 . S
C2216 C2221 1.353 . S
C2216 H2222 0.930 . S
N2217 Li2200 1.990 . S
N2217 C2216 1.314 . S
N2217 C2219 1.279 . S
C2218 C2219 1.358 . S
C2218 C2220 1.356 . S
C2218 H2272 0.930 . S
C2219 N2217 1.279 . S
C2219 C2218 1.358 . S
C2219 H2223 0.930 . S
C2220 C2218 1.356 . S
C2220 C2221 1.348 . S
C2221 C2216 1.353 . S
C2221 C2220 1.348 . S
C2221 H2273 0.929 . S
H2222 C2216 0.930 . S
H2223 C2219 0.930 . S
C2224 N2225 1.314 . S
C2224 C2226 1.353 . S
C2224 H2230 0.930 . S
N2225 Li2201 1.990 . S
N2225 C2224 1.314 . S
N2225 C2228 1.279 . S
C2226 C2224 1.353 . S
C2226 C2229 1.348 . S
C2226 H2274 0.929 . S
C2227 C2228 1.358 . S
C2227 C2229 1.356 . S
C2227 H2275 0.930 . S
C2228 N2225 1.279 . S
C2228 C2227 1.358 . S
C2228 H2231 0.930 . S
C2229 C2226 1.348 . S
C2229 C2227 1.356 . S
H2230 C2224 0.930 . S
H2231 C2228 0.930 . S
C2232 C2234 1.348 . S
C2232 C2235 1.356 . S
C2232 O2262 1.325 . S
N2233 C2236 1.314 . S
N2233 C2237 1.279 . S
C2234 C2232 1.348 . S
C2234 C2236 1.353 . S
C2234 H2276 0.929 . S
C2235 C2232 1.356 . S
C2235 C2237 1.358 . S
C2235 H2277 0.930 . S
C2236 N2233 1.314 . S
C2236 C2234 1.353 . S
C2236 H2278 0.930 . S
C2237 N2233 1.279 . S
C2237 C2235 1.358 . S
C2237 H2279 0.930 . S
C2238 C2239 1.348 . S
C2238 C2240 1.356 . S
C2238 O2263 1.325 . S
C2239 C2238 1.348 . S
C2239 C2241 1.353 . S
C2239 H2280 0.929 . S
C2240 C2238 1.356 . S
C2240 C2242 1.358 . S
C2240 H2281 0.930 . S
C2241 C2239 1.353 . S
C2241 N2243 1.314 . S
C2241 H2282 0.930 . S
C2242 C2240 1.358 . S
C2242 N2243 1.279 . S
C2242 H2283 0.930 . S
N2243 C2241 1.314 . S
N2243 C2242 1.279 . S
C2244 C2246 1.353 . S
C2244 N2247 1.314 . S
C2244 H2250 0.930 . S
C2245 N2247 1.279 . S
C2245 C2248 1.358 . S
C2245 H2251 0.930 . S
C2246 C2244 1.353 . S
C2246 C2249 1.348 . S
C2246 H2284 0.929 . S
N2247 Li2202 1.990 . S
N2247 C2244 1.314 . S
N2247 C2245 1.279 . S
C2248 C2245 1.358 . S
C2248 C2249 1.356 . S
C2248 H2285 0.930 . S
C2249 C2246 1.348 . S
C2249 C2248 1.356 . S
H2250 C2244 0.930 . S
H2251 C2245 0.930 . S
C2252 N2253 1.314 . S
C2252 C2254 1.353 . S
C2252 H2258 0.930 . S
N2253 Li2203 1.990 . S
N2253 C2252 1.314 . S
N2253 C2256 1.279 . S
C2254 C2252 1.353 . S
C2254 C2257 1.348 . S
C2254 H2286 0.929 . S
C2255 C2256 1.358 . S
C2255 C2257 1.356 . S
C2255 H2287 0.930 . S
C2256 N2253 1.279 . S
C2256 C2255 1.358 . S
C2256 H2259 0.930 . S
C2257 C2254 1.348 . S
C2257 C2255 1.356 . S
H2258 C2252 0.930 . S
H2259 C2256 0.930 . S
O2260 Li2200 1.956 . S
O2260 Li2201 1.970 . S
O2260 Li2202 1.961 . S
O2260 C2204 1.325 . S
O2261 Li2200 1.970 . S
O2261 Li2201 1.956 . S
O2261 Li2203 1.961 . S
O2261 C2210 1.325 . S
O2262 Li2200 1.961 . S
O2262 Li2202 1.956 . S
O2262 Li2203 1.970 . S
O2262 C2232 1.325 . S
O2263 Li2201 1.961 . S
O2263 Li2202 1.970 . S
O2263 Li2203 1.956 . S
O2263 C2238 1.325 . S
H2264 C2206 0.929 . S
H2265 C2207 0.930 . S
H2266 C2208 0.930 . S
H2267 C2209 0.930 . S
H2268 C2211 0.930 . S
H2269 C2213 0.929 . S
H2270 C2214 0.930 . S
H2271 C2215 0.930 . S
H2272 C2218 0.930 . S
H2273 C2221 0.929 . S
H2274 C2226 0.929 . S
H2275 C2227 0.930 . S
H2276 C2234 0.929 . S
H2277 C2235 0.930 . S
H2278 C2236 0.930 . S
H2279 C2237 0.930 . S
H2280 C2239 0.929 . S
H2281 C2240 0.930 . S
H2282 C2241 0.930 . S
H2283 C2242 0.930 . S
H2284 C2246 0.929 . S
H2285 C2248 0.930 . S
H2286 C2254 0.929 . S
H2287 C2255 0.930 . S
Li2288 N2305 1.990 . S
Li2288 O2348 1.956 . S
Li2288 O2349 1.970 . S
Li2288 O2350 1.961 . S
Li2289 N2313 1.990 1_556 S
Li2289 O2348 1.970 . S
Li2289 O2349 1.956 . S
Li2289 O2351 1.961 . S
Li2290 N2335 1.990 . S
Li2290 O2348 1.961 . S
Li2290 O2350 1.956 . S
Li2290 O2351 1.970 . S
Li2291 N2341 1.990 . S
Li2291 O2349 1.961 . S
Li2291 O2350 1.970 . S
Li2291 O2351 1.956 . S
C2292 C2294 1.348 . S
C2292 C2295 1.356 . S
C2292 O2348 1.325 1_554 S
N2293 C2296 1.314 . S
N2293 C2297 1.279 . S
C2294 C2292 1.348 . S
C2294 C2296 1.353 . S
C2294 H2352 0.929 . S
C2295 C2292 1.356 . S
C2295 C2297 1.358 . S
C2295 H2353 0.930 1_554 S
C2296 N2293 1.314 . S
C2296 C2294 1.353 . S
C2296 H2354 0.930 . S
C2297 N2293 1.279 . S
C2297 C2295 1.358 . S
C2297 H2355 0.930 . S
C2298 C2301 1.348 . S
C2298 C2302 1.356 . S
C2298 O2349 1.325 . S
C2299 N2300 1.279 . S
C2299 C2302 1.358 . S
C2299 H2356 0.930 . S
N2300 C2299 1.279 . S
N2300 C2303 1.314 . S
C2301 C2298 1.348 . S
C2301 C2303 1.353 . S
C2301 H2357 0.929 . S
C2302 C2298 1.356 . S
C2302 C2299 1.358 . S
C2302 H2358 0.930 . S
C2303 N2300 1.314 . S
C2303 C2301 1.353 . S
C2303 H2359 0.930 . S
C2304 N2305 1.314 . S
C2304 C2309 1.353 . S
C2304 H2310 0.930 . S
N2305 Li2288 1.990 . S
N2305 C2304 1.314 . S
N2305 C2307 1.279 . S
C2306 C2307 1.358 . S
C2306 C2308 1.356 . S
C2306 H2360 0.930 . S
C2307 N2305 1.279 . S
C2307 C2306 1.358 . S
C2307 H2311 0.930 . S
C2308 C2306 1.356 . S
C2308 C2309 1.348 . S
C2309 C2304 1.353 . S
C2309 C2308 1.348 . S
C2309 H2361 0.929 . S
H2310 C2304 0.930 . S
H2311 C2307 0.930 . S
C2312 N2313 1.314 . S
C2312 C2314 1.353 . S
C2312 H2318 0.930 . S
N2313 Li2289 1.990 1_554 S
N2313 C2312 1.314 . S
N2313 C2316 1.279 . S
C2314 C2312 1.353 . S
C2314 C2317 1.348 . S
C2314 H2362 0.929 . S
C2315 C2316 1.358 . S
C2315 C2317 1.356 . S
C2315 H2363 0.930 . S
C2316 N2313 1.279 . S
C2316 C2315 1.358 . S
C2316 H2319 0.930 . S
C2317 C2314 1.348 . S
C2317 C2315 1.356 . S
H2318 C2312 0.930 . S
H2319 C2316 0.930 . S
C2320 C2322 1.348 . S
C2320 C2323 1.356 . S
C2320 O2350 1.325 . S
N2321 C2324 1.314 . S
N2321 C2325 1.279 . S
C2322 C2320 1.348 . S
C2322 C2324 1.353 . S
C2322 H2364 0.929 . S
C2323 C2320 1.356 . S
C2323 C2325 1.358 . S
C2323 H2365 0.930 . S
C2324 N2321 1.314 . S
C2324 C2322 1.353 . S
C2324 H2366 0.930 . S
C2325 N2321 1.279 . S
C2325 C2323 1.358 . S
C2325 H2367 0.930 . S
C2326 C2327 1.348 . S
C2326 C2328 1.356 . S
C2326 O2351 1.325 . S
C2327 C2326 1.348 . S
C2327 C2329 1.353 . S
C2327 H2368 0.929 . S
C2328 C2326 1.356 . S
C2328 C2330 1.358 . S
C2328 H2369 0.930 . S
C2329 C2327 1.353 . S
C2329 N2331 1.314 . S
C2329 H2370 0.930 . S
C2330 C2328 1.358 . S
C2330 N2331 1.279 . S
C2330 H2371 0.930 . S
N2331 C2329 1.314 . S
N2331 C2330 1.279 . S
C2332 C2334 1.353 . S
C2332 N2335 1.314 . S
C2332 H2338 0.930 1_556 S
C2333 N2335 1.279 . S
C2333 C2336 1.358 . S
C2333 H2339 0.930 . S
C2334 C2332 1.353 . S
C2334 C2337 1.348 . S
C2334 H2372 0.929 1_556 S
N2335 Li2290 1.990 . S
N2335 C2332 1.314 . S
N2335 C2333 1.279 . S
C2336 C2333 1.358 . S
C2336 C2337 1.356 . S
C2336 H2373 0.930 . S
C2337 C2334 1.348 . S
C2337 C2336 1.356 . S
H2338 C2332 0.930 1_554 S
H2339 C2333 0.930 . S
C2340 N2341 1.314 . S
C2340 C2342 1.353 . S
C2340 H2346 0.930 . S
N2341 Li2291 1.990 . S
N2341 C2340 1.314 . S
N2341 C2344 1.279 . S
C2342 C2340 1.353 . S
C2342 C2345 1.348 . S
C2342 H2374 0.929 . S
C2343 C2344 1.358 . S
C2343 C2345 1.356 . S
C2343 H2375 0.930 . S
C2344 N2341 1.279 . S
C2344 C2343 1.358 . S
C2344 H2347 0.930 . S
C2345 C2342 1.348 . S
C2345 C2343 1.356 . S
H2346 C2340 0.930 . S
H2347 C2344 0.930 . S
O2348 Li2288 1.956 . S
O2348 Li2289 1.970 . S
O2348 Li2290 1.961 . S
O2348 C2292 1.325 1_556 S
O2349 Li2288 1.970 . S
O2349 Li2289 1.956 . S
O2349 Li2291 1.961 . S
O2349 C2298 1.325 . S
O2350 Li2288 1.961 . S
O2350 Li2290 1.956 . S
O2350 Li2291 1.970 . S
O2350 C2320 1.325 . S
O2351 Li2289 1.961 . S
O2351 Li2290 1.970 . S
O2351 Li2291 1.956 . S
O2351 C2326 1.325 . S
H2352 C2294 0.929 . S
H2353 C2295 0.930 1_556 S
H2354 C2296 0.930 . S
H2355 C2297 0.930 . S
H2356 C2299 0.930 . S
H2357 C2301 0.929 . S
H2358 C2302 0.930 . S
H2359 C2303 0.930 . S
H2360 C2306 0.930 . S
H2361 C2309 0.929 . S
H2362 C2314 0.929 . S
H2363 C2315 0.930 . S
H2364 C2322 0.929 . S
H2365 C2323 0.930 . S
H2366 C2324 0.930 . S
H2367 C2325 0.930 . S
H2368 C2327 0.929 . S
H2369 C2328 0.930 . S
H2370 C2329 0.930 . S
H2371 C2330 0.930 . S
H2372 C2334 0.929 1_554 S
H2373 C2336 0.930 . S
H2374 C2342 0.929 . S
H2375 C2343 0.930 . S
Li2376 N2393 1.990 . S
Li2376 O2436 1.956 . S
Li2376 O2437 1.970 . S
Li2376 O2438 1.961 . S
Li2377 N2401 1.990 . S
Li2377 O2436 1.970 . S
Li2377 O2437 1.956 . S
Li2377 O2439 1.961 . S
Li2378 N2423 1.990 . S
Li2378 O2436 1.961 . S
Li2378 O2438 1.956 . S
Li2378 O2439 1.970 . S
Li2379 N2429 1.990 . S
Li2379 O2437 1.961 . S
Li2379 O2438 1.970 . S
Li2379 O2439 1.956 . S
C2380 C2382 1.348 . S
C2380 C2383 1.356 . S
C2380 O2436 1.325 . S
N2381 C2384 1.314 . S
N2381 C2385 1.279 . S
C2382 C2380 1.348 . S
C2382 C2384 1.353 . S
C2382 H2440 0.929 . S
C2383 C2380 1.356 . S
C2383 C2385 1.358 . S
C2383 H2441 0.930 . S
C2384 N2381 1.314 . S
C2384 C2382 1.353 . S
C2384 H2442 0.930 . S
C2385 N2381 1.279 . S
C2385 C2383 1.358 . S
C2385 H2443 0.930 . S
C2386 C2389 1.348 . S
C2386 C2390 1.356 . S
C2386 O2437 1.325 . S
C2387 N2388 1.279 . S
C2387 C2390 1.358 . S
C2387 H2444 0.930 . S
N2388 C2387 1.279 . S
N2388 C2391 1.314 . S
C2389 C2386 1.348 . S
C2389 C2391 1.353 . S
C2389 H2445 0.929 . S
C2390 C2386 1.356 . S
C2390 C2387 1.358 . S
C2390 H2446 0.930 . S
C2391 N2388 1.314 . S
C2391 C2389 1.353 . S
C2391 H2447 0.930 . S
C2392 N2393 1.314 . S
C2392 C2397 1.353 . S
C2392 H2398 0.930 . S
N2393 Li2376 1.990 . S
N2393 C2392 1.314 . S
N2393 C2395 1.279 . S
C2394 C2395 1.358 . S
C2394 C2396 1.356 . S
C2394 H2448 0.930 . S
C2395 N2393 1.279 . S
C2395 C2394 1.358 . S
C2395 H2399 0.930 . S
C2396 C2394 1.356 . S
C2396 C2397 1.348 . S
C2397 C2392 1.353 . S
C2397 C2396 1.348 . S
C2397 H2449 0.929 . S
H2398 C2392 0.930 . S
H2399 C2395 0.930 . S
C2400 N2401 1.314 . S
C2400 C2402 1.353 . S
C2400 H2406 0.930 . S
N2401 Li2377 1.990 . S
N2401 C2400 1.314 . S
N2401 C2404 1.279 . S
C2402 C2400 1.353 . S
C2402 C2405 1.348 . S
C2402 H2450 0.929 . S
C2403 C2404 1.358 . S
C2403 C2405 1.356 . S
C2403 H2451 0.930 . S
C2404 N2401 1.279 . S
C2404 C2403 1.358 . S
C2404 H2407 0.930 . S
C2405 C2402 1.348 . S
C2405 C2403 1.356 . S
H2406 C2400 0.930 . S
H2407 C2404 0.930 . S
C2408 C2410 1.348 . S
C2408 C2411 1.356 . S
C2408 O2438 1.325 . S
N2409 C2412 1.314 . S
N2409 C2413 1.279 . S
C2410 C2408 1.348 . S
C2410 C2412 1.353 . S
C2410 H2452 0.929 . S
C2411 C2408 1.356 . S
C2411 C2413 1.358 . S
C2411 H2453 0.930 . S
C2412 N2409 1.314 . S
C2412 C2410 1.353 . S
C2412 H2454 0.930 . S
C2413 N2409 1.279 . S
C2413 C2411 1.358 . S
C2413 H2455 0.930 . S
C2414 C2415 1.348 . S
C2414 C2416 1.356 . S
C2414 O2439 1.325 . S
C2415 C2414 1.348 . S
C2415 C2417 1.353 . S
C2415 H2456 0.929 . S
C2416 C2414 1.356 . S
C2416 C2418 1.358 . S
C2416 H2457 0.930 . S
C2417 C2415 1.353 . S
C2417 N2419 1.314 . S
C2417 H2458 0.930 . S
C2418 C2416 1.358 . S
C2418 N2419 1.279 . S
C2418 H2459 0.930 1_655 S
N2419 C2417 1.314 . S
N2419 C2418 1.279 . S
C2420 C2422 1.353 . S
C2420 N2423 1.314 . S
C2420 H2426 0.930 . S
C2421 N2423 1.279 . S
C2421 C2424 1.358 . S
C2421 H2427 0.930 . S
C2422 C2420 1.353 . S
C2422 C2425 1.348 . S
C2422 H2460 0.929 . S
N2423 Li2378 1.990 . S
N2423 C2420 1.314 . S
N2423 C2421 1.279 . S
C2424 C2421 1.358 . S
C2424 C2425 1.356 . S
C2424 H2461 0.930 . S
C2425 C2422 1.348 . S
C2425 C2424 1.356 . S
H2426 C2420 0.930 . S
H2427 C2421 0.930 . S
C2428 N2429 1.314 . S
C2428 C2430 1.353 . S
C2428 H2434 0.930 . S
N2429 Li2379 1.990 . S
N2429 C2428 1.314 . S
N2429 C2432 1.279 . S
C2430 C2428 1.353 . S
C2430 C2433 1.348 . S
C2430 H2462 0.929 . S
C2431 C2432 1.358 . S
C2431 C2433 1.356 . S
C2431 H2463 0.930 . S
C2432 N2429 1.279 . S
C2432 C2431 1.358 . S
C2432 H2435 0.930 . S
C2433 C2430 1.348 . S
C2433 C2431 1.356 . S
H2434 C2428 0.930 . S
H2435 C2432 0.930 . S
O2436 Li2376 1.956 . S
O2436 Li2377 1.970 . S
O2436 Li2378 1.961 . S
O2436 C2380 1.325 . S
O2437 Li2376 1.970 . S
O2437 Li2377 1.956 . S
O2437 Li2379 1.961 . S
O2437 C2386 1.325 . S
O2438 Li2376 1.961 . S
O2438 Li2378 1.956 . S
O2438 Li2379 1.970 . S
O2438 C2408 1.325 . S
O2439 Li2377 1.961 . S
O2439 Li2378 1.970 . S
O2439 Li2379 1.956 . S
O2439 C2414 1.325 . S
H2440 C2382 0.929 . S
H2441 C2383 0.930 . S
H2442 C2384 0.930 . S
H2443 C2385 0.930 . S
H2444 C2387 0.930 . S
H2445 C2389 0.929 . S
H2446 C2390 0.930 . S
H2447 C2391 0.930 . S
H2448 C2394 0.930 . S
H2449 C2397 0.929 . S
H2450 C2402 0.929 . S
H2451 C2403 0.930 . S
H2452 C2410 0.929 . S
H2453 C2411 0.930 . S
H2454 C2412 0.930 . S
H2455 C2413 0.930 . S
H2456 C2415 0.929 . S
H2457 C2416 0.930 . S
H2458 C2417 0.930 . S
H2459 C2418 0.930 1_455 S
H2460 C2422 0.929 . S
H2461 C2424 0.930 . S
H2462 C2430 0.929 . S
H2463 C2431 0.930 . S
Li2464 N2481 1.990 . S
Li2464 O2524 1.956 . S
Li2464 O2525 1.970 . S
Li2464 O2526 1.961 . S
Li2465 N2489 1.990 . S
Li2465 O2524 1.970 . S
Li2465 O2525 1.956 . S
Li2465 O2527 1.961 . S
Li2466 N2511 1.990 . S
Li2466 O2524 1.961 . S
Li2466 O2526 1.956 . S
Li2466 O2527 1.970 . S
Li2467 N2517 1.990 1_554 S
Li2467 O2525 1.961 . S
Li2467 O2526 1.970 . S
Li2467 O2527 1.956 . S
C2468 C2470 1.348 . S
C2468 C2471 1.356 . S
C2468 O2524 1.325 . S
N2469 C2472 1.314 . S
N2469 C2473 1.279 . S
C2470 C2468 1.348 . S
C2470 C2472 1.353 . S
C2470 H2528 0.929 . S
C2471 C2468 1.356 . S
C2471 C2473 1.358 . S
C2471 H2529 0.930 . S
C2472 N2469 1.314 . S
C2472 C2470 1.353 . S
C2472 H2530 0.930 . S
C2473 N2469 1.279 . S
C2473 C2471 1.358 . S
C2473 H2531 0.930 . S
C2474 C2477 1.348 . S
C2474 C2478 1.356 . S
C2474 O2525 1.325 . S
C2475 N2476 1.279 . S
C2475 C2478 1.358 . S
C2475 H2532 0.930 . S
N2476 C2475 1.279 . S
N2476 C2479 1.314 . S
C2477 C2474 1.348 . S
C2477 C2479 1.353 . S
C2477 H2533 0.929 . S
C2478 C2474 1.356 . S
C2478 C2475 1.358 . S
C2478 H2534 0.930 . S
C2479 N2476 1.314 . S
C2479 C2477 1.353 . S
C2479 H2535 0.930 . S
C2480 N2481 1.314 . S
C2480 C2485 1.353 . S
C2480 H2486 0.930 1_554 S
N2481 Li2464 1.990 . S
N2481 C2480 1.314 . S
N2481 C2483 1.279 . S
C2482 C2483 1.358 . S
C2482 C2484 1.356 . S
C2482 H2536 0.930 . S
C2483 N2481 1.279 . S
C2483 C2482 1.358 . S
C2483 H2487 0.930 . S
C2484 C2482 1.356 . S
C2484 C2485 1.348 . S
C2485 C2480 1.353 . S
C2485 C2484 1.348 . S
C2485 H2537 0.929 1_554 S
H2486 C2480 0.930 1_556 S
H2487 C2483 0.930 . S
C2488 N2489 1.314 . S
C2488 C2490 1.353 . S
C2488 H2494 0.930 . S
N2489 Li2465 1.990 . S
N2489 C2488 1.314 . S
N2489 C2492 1.279 . S
C2490 C2488 1.353 . S
C2490 C2493 1.348 . S
C2490 H2538 0.929 . S
C2491 C2492 1.358 . S
C2491 C2493 1.356 . S
C2491 H2539 0.930 . S
C2492 N2489 1.279 . S
C2492 C2491 1.358 . S
C2492 H2495 0.930 . S
C2493 C2490 1.348 . S
C2493 C2491 1.356 . S
H2494 C2488 0.930 . S
H2495 C2492 0.930 . S
C2496 C2498 1.348 . S
C2496 C2499 1.356 . S
C2496 O2526 1.325 1_556 S
N2497 C2500 1.314 . S
N2497 C2501 1.279 . S
C2498 C2496 1.348 . S
C2498 C2500 1.353 . S
C2498 H2540 0.929 . S
C2499 C2496 1.356 . S
C2499 C2501 1.358 . S
C2499 H2541 0.930 1_556 S
C2500 N2497 1.314 . S
C2500 C2498 1.353 . S
C2500 H2542 0.930 . S
C2501 N2497 1.279 . S
C2501 C2499 1.358 . S
C2501 H2543 0.930 . S
C2502 C2503 1.348 . S
C2502 C2504 1.356 . S
C2502 O2527 1.325 . S
C2503 C2502 1.348 . S
C2503 C2505 1.353 . S
C2503 H2544 0.929 . S
C2504 C2502 1.356 . S
C2504 C2506 1.358 . S
C2504 H2545 0.930 . S
C2505 C2503 1.353 . S
C2505 N2507 1.314 . S
C2505 H2546 0.930 . S
C2506 C2504 1.358 . S
C2506 N2507 1.279 . S
C2506 H2547 0.930 . S
N2507 C2505 1.314 . S
N2507 C2506 1.279 . S
C2508 C2510 1.353 . S
C2508 N2511 1.314 . S
C2508 H2514 0.930 . S
C2509 N2511 1.279 . S
C2509 C2512 1.358 . S
C2509 H2515 0.930 . S
C2510 C2508 1.353 . S
C2510 C2513 1.348 . S
C2510 H2548 0.929 . S
N2511 Li2466 1.990 . S
N2511 C2508 1.314 . S
N2511 C2509 1.279 . S
C2512 C2509 1.358 . S
C2512 C2513 1.356 . S
C2512 H2549 0.930 . S
C2513 C2510 1.348 . S
C2513 C2512 1.356 . S
H2514 C2508 0.930 . S
H2515 C2509 0.930 . S
C2516 N2517 1.314 . S
C2516 C2518 1.353 . S
C2516 H2522 0.930 . S
N2517 Li2467 1.990 1_556 S
N2517 C2516 1.314 . S
N2517 C2520 1.279 . S
C2518 C2516 1.353 . S
C2518 C2521 1.348 . S
C2518 H2550 0.929 . S
C2519 C2520 1.358 . S
C2519 C2521 1.356 . S
C2519 H2551 0.930 . S
C2520 N2517 1.279 . S
C2520 C2519 1.358 . S
C2520 H2523 0.930 . S
C2521 C2518 1.348 . S
C2521 C2519 1.356 . S
H2522 C2516 0.930 . S
H2523 C2520 0.930 . S
O2524 Li2464 1.956 . S
O2524 Li2465 1.970 . S
O2524 Li2466 1.961 . S
O2524 C2468 1.325 . S
O2525 Li2464 1.970 . S
O2525 Li2465 1.956 . S
O2525 Li2467 1.961 . S
O2525 C2474 1.325 . S
O2526 Li2464 1.961 . S
O2526 Li2466 1.956 . S
O2526 Li2467 1.970 . S
O2526 C2496 1.325 1_554 S
O2527 Li2465 1.961 . S
O2527 Li2466 1.970 . S
O2527 Li2467 1.956 . S
O2527 C2502 1.325 . S
H2528 C2470 0.929 . S
H2529 C2471 0.930 . S
H2530 C2472 0.930 . S
H2531 C2473 0.930 . S
H2532 C2475 0.930 . S
H2533 C2477 0.929 . S
H2534 C2478 0.930 . S
H2535 C2479 0.930 . S
H2536 C2482 0.930 . S
H2537 C2485 0.929 1_556 S
H2538 C2490 0.929 . S
H2539 C2491 0.930 . S
H2540 C2498 0.929 . S
H2541 C2499 0.930 1_554 S
H2542 C2500 0.930 . S
H2543 C2501 0.930 . S
H2544 C2503 0.929 . S
H2545 C2504 0.930 . S
H2546 C2505 0.930 . S
H2547 C2506 0.930 . S
H2548 C2510 0.929 . S
H2549 C2512 0.930 . S
H2550 C2518 0.929 . S
H2551 C2519 0.930 . S
Li2552 N2569 1.990 . S
Li2552 O2612 1.956 . S
Li2552 O2613 1.970 . S
Li2552 O2614 1.961 . S
Li2553 N2577 1.990 . S
Li2553 O2612 1.970 . S
Li2553 O2613 1.956 . S
Li2553 O2615 1.961 . S
Li2554 N2599 1.990 . S
Li2554 O2612 1.961 . S
Li2554 O2614 1.956 . S
Li2554 O2615 1.970 . S
Li2555 N2605 1.990 . S
Li2555 O2613 1.961 . S
Li2555 O2614 1.970 . S
Li2555 O2615 1.956 . S
C2556 C2558 1.348 . S
C2556 C2559 1.356 . S
C2556 O2612 1.325 . S
N2557 C2560 1.314 . S
N2557 C2561 1.279 . S
C2558 C2556 1.348 . S
C2558 C2560 1.353 . S
C2558 H2616 0.929 . S
C2559 C2556 1.356 . S
C2559 C2561 1.358 . S
C2559 H2617 0.930 . S
C2560 N2557 1.314 . S
C2560 C2558 1.353 . S
C2560 H2618 0.930 . S
C2561 N2557 1.279 . S
C2561 C2559 1.358 . S
C2561 H2619 0.930 . S
C2562 C2565 1.348 . S
C2562 C2566 1.356 . S
C2562 O2613 1.325 . S
C2563 N2564 1.279 . S
C2563 C2566 1.358 . S
C2563 H2620 0.930 1_655 S
N2564 C2563 1.279 . S
N2564 C2567 1.314 . S
C2565 C2562 1.348 . S
C2565 C2567 1.353 . S
C2565 H2621 0.929 . S
C2566 C2562 1.356 . S
C2566 C2563 1.358 . S
C2566 H2622 0.930 . S
C2567 N2564 1.314 . S
C2567 C2565 1.353 . S
C2567 H2623 0.930 . S
C2568 N2569 1.314 . S
C2568 C2573 1.353 . S
C2568 H2574 0.930 . S
N2569 Li2552 1.990 . S
N2569 C2568 1.314 . S
N2569 C2571 1.279 . S
C2570 C2571 1.358 . S
C2570 C2572 1.356 . S
C2570 H2624 0.930 . S
C2571 N2569 1.279 . S
C2571 C2570 1.358 . S
C2571 H2575 0.930 . S
C2572 C2570 1.356 . S
C2572 C2573 1.348 . S
C2573 C2568 1.353 . S
C2573 C2572 1.348 . S
C2573 H2625 0.929 . S
H2574 C2568 0.930 . S
H2575 C2571 0.930 . S
C2576 N2577 1.314 . S
C2576 C2578 1.353 . S
C2576 H2582 0.930 . S
N2577 Li2553 1.990 . S
N2577 C2576 1.314 . S
N2577 C2580 1.279 . S
C2578 C2576 1.353 . S
C2578 C2581 1.348 . S
C2578 H2626 0.929 . S
C2579 C2580 1.358 . S
C2579 C2581 1.356 . S
C2579 H2627 0.930 . S
C2580 N2577 1.279 . S
C2580 C2579 1.358 . S
C2580 H2583 0.930 . S
C2581 C2578 1.348 . S
C2581 C2579 1.356 . S
H2582 C2576 0.930 . S
H2583 C2580 0.930 . S
C2584 C2586 1.348 . S
C2584 C2587 1.356 . S
C2584 O2614 1.325 . S
N2585 C2588 1.314 . S
N2585 C2589 1.279 . S
C2586 C2584 1.348 . S
C2586 C2588 1.353 . S
C2586 H2628 0.929 . S
C2587 C2584 1.356 . S
C2587 C2589 1.358 . S
C2587 H2629 0.930 . S
C2588 N2585 1.314 . S
C2588 C2586 1.353 . S
C2588 H2630 0.930 . S
C2589 N2585 1.279 . S
C2589 C2587 1.358 . S
C2589 H2631 0.930 . S
C2590 C2591 1.348 . S
C2590 C2592 1.356 . S
C2590 O2615 1.325 . S
C2591 C2590 1.348 . S
C2591 C2593 1.353 . S
C2591 H2632 0.929 . S
C2592 C2590 1.356 . S
C2592 C2594 1.358 . S
C2592 H2633 0.930 . S
C2593 C2591 1.353 . S
C2593 N2595 1.314 . S
C2593 H2634 0.930 . S
C2594 C2592 1.358 . S
C2594 N2595 1.279 . S
C2594 H2635 0.930 . S
N2595 C2593 1.314 . S
N2595 C2594 1.279 . S
C2596 C2598 1.353 . S
C2596 N2599 1.314 . S
C2596 H2602 0.930 . S
C2597 N2599 1.279 . S
C2597 C2600 1.358 . S
C2597 H2603 0.930 . S
C2598 C2596 1.353 . S
C2598 C2601 1.348 . S
C2598 H2636 0.929 . S
N2599 Li2554 1.990 . S
N2599 C2596 1.314 . S
N2599 C2597 1.279 . S
C2600 C2597 1.358 . S
C2600 C2601 1.356 . S
C2600 H2637 0.930 . S
C2601 C2598 1.348 . S
C2601 C2600 1.356 . S
H2602 C2596 0.930 . S
H2603 C2597 0.930 . S
C2604 N2605 1.314 . S
C2604 C2606 1.353 . S
C2604 H2610 0.930 . S
N2605 Li2555 1.990 . S
N2605 C2604 1.314 . S
N2605 C2608 1.279 . S
C2606 C2604 1.353 . S
C2606 C2609 1.348 . S
C2606 H2638 0.929 . S
C2607 C2608 1.358 . S
C2607 C2609 1.356 . S
C2607 H2639 0.930 . S
C2608 N2605 1.279 . S
C2608 C2607 1.358 . S
C2608 H2611 0.930 . S
C2609 C2606 1.348 . S
C2609 C2607 1.356 . S
H2610 C2604 0.930 . S
H2611 C2608 0.930 . S
O2612 Li2552 1.956 . S
O2612 Li2553 1.970 . S
O2612 Li2554 1.961 . S
O2612 C2556 1.325 . S
O2613 Li2552 1.970 . S
O2613 Li2553 1.956 . S
O2613 Li2555 1.961 . S
O2613 C2562 1.325 . S
O2614 Li2552 1.961 . S
O2614 Li2554 1.956 . S
O2614 Li2555 1.970 . S
O2614 C2584 1.325 . S
O2615 Li2553 1.961 . S
O2615 Li2554 1.970 . S
O2615 Li2555 1.956 . S
O2615 C2590 1.325 . S
H2616 C2558 0.929 . S
H2617 C2559 0.930 . S
H2618 C2560 0.930 . S
H2619 C2561 0.930 . S
H2620 C2563 0.930 1_455 S
H2621 C2565 0.929 . S
H2622 C2566 0.930 . S
H2623 C2567 0.930 . S
H2624 C2570 0.930 . S
H2625 C2573 0.929 . S
H2626 C2578 0.929 . S
H2627 C2579 0.930 . S
H2628 C2586 0.929 . S
H2629 C2587 0.930 . S
H2630 C2588 0.930 . S
H2631 C2589 0.930 . S
H2632 C2591 0.929 . S
H2633 C2592 0.930 . S
H2634 C2593 0.930 . S
H2635 C2594 0.930 . S
H2636 C2598 0.929 . S
H2637 C2600 0.930 . S
H2638 C2606 0.929 . S
H2639 C2607 0.930 . S
Li2640 N2657 1.990 . S
Li2640 O2700 1.956 . S
Li2640 O2701 1.970 . S
Li2640 O2702 1.961 . S
Li2641 N2665 1.990 . S
Li2641 O2700 1.970 . S
Li2641 O2701 1.956 . S
Li2641 O2703 1.961 . S
Li2642 N2687 1.990 . S
Li2642 O2700 1.961 . S
Li2642 O2702 1.956 . S
Li2642 O2703 1.970 . S
Li2643 N2693 1.990 . S
Li2643 O2701 1.961 . S
Li2643 O2702 1.970 . S
Li2643 O2703 1.956 . S
C2644 C2646 1.348 . S
C2644 C2647 1.356 . S
C2644 O2700 1.325 . S
N2645 C2648 1.314 . S
N2645 C2649 1.279 . S
C2646 C2644 1.348 . S
C2646 C2648 1.353 . S
C2646 H2704 0.929 . S
C2647 C2644 1.356 . S
C2647 C2649 1.358 . S
C2647 H2705 0.930 . S
C2648 N2645 1.314 . S
C2648 C2646 1.353 . S
C2648 H2706 0.930 . S
C2649 N2645 1.279 . S
C2649 C2647 1.358 . S
C2649 H2707 0.930 . S
C2650 C2653 1.348 . S
C2650 C2654 1.356 . S
C2650 O2701 1.325 . S
C2651 N2652 1.279 . S
C2651 C2654 1.358 . S
C2651 H2708 0.930 . S
N2652 C2651 1.279 . S
N2652 C2655 1.314 . S
C2653 C2650 1.348 . S
C2653 C2655 1.353 . S
C2653 H2709 0.929 . S
C2654 C2650 1.356 . S
C2654 C2651 1.358 . S
C2654 H2710 0.930 . S
C2655 N2652 1.314 . S
C2655 C2653 1.353 . S
C2655 H2711 0.930 . S
C2656 N2657 1.314 . S
C2656 C2661 1.353 . S
C2656 H2662 0.930 . S
N2657 Li2640 1.990 . S
N2657 C2656 1.314 . S
N2657 C2659 1.279 . S
C2658 C2659 1.358 . S
C2658 C2660 1.356 . S
C2658 H2712 0.930 . S
C2659 N2657 1.279 . S
C2659 C2658 1.358 . S
C2659 H2663 0.930 . S
C2660 C2658 1.356 . S
C2660 C2661 1.348 . S
C2661 C2656 1.353 . S
C2661 C2660 1.348 . S
C2661 H2713 0.929 . S
H2662 C2656 0.930 . S
H2663 C2659 0.930 . S
C2664 N2665 1.314 . S
C2664 C2666 1.353 . S
C2664 H2670 0.930 . S
N2665 Li2641 1.990 . S
N2665 C2664 1.314 . S
N2665 C2668 1.279 . S
C2666 C2664 1.353 . S
C2666 C2669 1.348 . S
C2666 H2714 0.929 . S
C2667 C2668 1.358 . S
C2667 C2669 1.356 . S
C2667 H2715 0.930 . S
C2668 N2665 1.279 . S
C2668 C2667 1.358 . S
C2668 H2671 0.930 . S
C2669 C2666 1.348 . S
C2669 C2667 1.356 . S
H2670 C2664 0.930 . S
H2671 C2668 0.930 . S
C2672 C2674 1.348 . S
C2672 C2675 1.356 . S
C2672 O2702 1.325 . S
N2673 C2676 1.314 . S
N2673 C2677 1.279 . S
C2674 C2672 1.348 . S
C2674 C2676 1.353 . S
C2674 H2716 0.929 . S
C2675 C2672 1.356 . S
C2675 C2677 1.358 . S
C2675 H2717 0.930 . S
C2676 N2673 1.314 . S
C2676 C2674 1.353 . S
C2676 H2718 0.930 . S
C2677 N2673 1.279 . S
C2677 C2675 1.358 . S
C2677 H2719 0.930 . S
C2678 C2679 1.348 . S
C2678 C2680 1.356 . S
C2678 O2703 1.325 . S
C2679 C2678 1.348 . S
C2679 C2681 1.353 . S
C2679 H2720 0.929 . S
C2680 C2678 1.356 . S
C2680 C2682 1.358 . S
C2680 H2721 0.930 . S
C2681 C2679 1.353 . S
C2681 N2683 1.314 . S
C2681 H2722 0.930 . S
C2682 C2680 1.358 . S
C2682 N2683 1.279 . S
C2682 H2723 0.930 . S
N2683 C2681 1.314 . S
N2683 C2682 1.279 . S
C2684 C2686 1.353 . S
C2684 N2687 1.314 . S
C2684 H2690 0.930 . S
C2685 N2687 1.279 . S
C2685 C2688 1.358 . S
C2685 H2691 0.930 . S
C2686 C2684 1.353 . S
C2686 C2689 1.348 . S
C2686 H2724 0.929 . S
N2687 Li2642 1.990 . S
N2687 C2684 1.314 . S
N2687 C2685 1.279 . S
C2688 C2685 1.358 . S
C2688 C2689 1.356 . S
C2688 H2725 0.930 . S
C2689 C2686 1.348 . S
C2689 C2688 1.356 . S
H2690 C2684 0.930 . S
H2691 C2685 0.930 . S
C2692 N2693 1.314 . S
C2692 C2694 1.353 . S
C2692 H2698 0.930 . S
N2693 Li2643 1.990 . S
N2693 C2692 1.314 . S
N2693 C2696 1.279 . S
C2694 C2692 1.353 . S
C2694 C2697 1.348 . S
C2694 H2726 0.929 . S
C2695 C2696 1.358 . S
C2695 C2697 1.356 . S
C2695 H2727 0.930 . S
C2696 N2693 1.279 . S
C2696 C2695 1.358 . S
C2696 H2699 0.930 . S
C2697 C2694 1.348 . S
C2697 C2695 1.356 . S
H2698 C2692 0.930 . S
H2699 C2696 0.930 . S
O2700 Li2640 1.956 . S
O2700 Li2641 1.970 . S
O2700 Li2642 1.961 . S
O2700 C2644 1.325 . S
O2701 Li2640 1.970 . S
O2701 Li2641 1.956 . S
O2701 Li2643 1.961 . S
O2701 C2650 1.325 . S
O2702 Li2640 1.961 . S
O2702 Li2642 1.956 . S
O2702 Li2643 1.970 . S
O2702 C2672 1.325 . S
O2703 Li2641 1.961 . S
O2703 Li2642 1.970 . S
O2703 Li2643 1.956 . S
O2703 C2678 1.325 . S
H2704 C2646 0.929 . S
H2705 C2647 0.930 . S
H2706 C2648 0.930 . S
H2707 C2649 0.930 . S
H2708 C2651 0.930 . S
H2709 C2653 0.929 . S
H2710 C2654 0.930 . S
H2711 C2655 0.930 . S
H2712 C2658 0.930 . S
H2713 C2661 0.929 . S
H2714 C2666 0.929 . S
H2715 C2667 0.930 . S
H2716 C2674 0.929 . S
H2717 C2675 0.930 . S
H2718 C2676 0.930 . S
H2719 C2677 0.930 . S
H2720 C2679 0.929 . S
H2721 C2680 0.930 . S
H2722 C2681 0.930 . S
H2723 C2682 0.930 . S
H2724 C2686 0.929 . S
H2725 C2688 0.930 . S
H2726 C2694 0.929 . S
H2727 C2695 0.930 . S
Li2728 N2745 1.990 . S
Li2728 O2788 1.956 . S
Li2728 O2789 1.970 . S
Li2728 O2790 1.961 . S
Li2729 N2753 1.990 . S
Li2729 O2788 1.970 . S
Li2729 O2789 1.956 . S
Li2729 O2791 1.961 . S
Li2730 N2775 1.990 . S
Li2730 O2788 1.961 . S
Li2730 O2790 1.956 . S
Li2730 O2791 1.970 . S
Li2731 N2781 1.990 . S
Li2731 O2789 1.961 . S
Li2731 O2790 1.970 . S
Li2731 O2791 1.956 . S
C2732 C2734 1.348 . S
C2732 C2735 1.356 . S
C2732 O2788 1.325 . S
N2733 C2736 1.314 . S
N2733 C2737 1.279 . S
C2734 C2732 1.348 . S
C2734 C2736 1.353 . S
C2734 H2792 0.929 . S
C2735 C2732 1.356 . S
C2735 C2737 1.358 . S
C2735 H2793 0.930 . S
C2736 N2733 1.314 . S
C2736 C2734 1.353 . S
C2736 H2794 0.930 . S
C2737 N2733 1.279 . S
C2737 C2735 1.358 . S
C2737 H2795 0.930 . S
C2738 C2741 1.348 . S
C2738 C2742 1.356 . S
C2738 O2789 1.325 . S
C2739 N2740 1.279 . S
C2739 C2742 1.358 . S
C2739 H2796 0.930 . S
N2740 C2739 1.279 . S
N2740 C2743 1.314 . S
C2741 C2738 1.348 . S
C2741 C2743 1.353 . S
C2741 H2797 0.929 . S
C2742 C2738 1.356 . S
C2742 C2739 1.358 . S
C2742 H2798 0.930 . S
C2743 N2740 1.314 . S
C2743 C2741 1.353 . S
C2743 H2799 0.930 . S
C2744 N2745 1.314 . S
C2744 C2749 1.353 . S
C2744 H2750 0.930 . S
N2745 Li2728 1.990 . S
N2745 C2744 1.314 . S
N2745 C2747 1.279 . S
C2746 C2747 1.358 . S
C2746 C2748 1.356 . S
C2746 H2800 0.930 . S
C2747 N2745 1.279 . S
C2747 C2746 1.358 . S
C2747 H2751 0.930 . S
C2748 C2746 1.356 . S
C2748 C2749 1.348 . S
C2749 C2744 1.353 . S
C2749 C2748 1.348 . S
C2749 H2801 0.929 . S
H2750 C2744 0.930 . S
H2751 C2747 0.930 . S
C2752 N2753 1.314 . S
C2752 C2754 1.353 . S
C2752 H2758 0.930 . S
N2753 Li2729 1.990 . S
N2753 C2752 1.314 . S
N2753 C2756 1.279 . S
C2754 C2752 1.353 . S
C2754 C2757 1.348 . S
C2754 H2802 0.929 . S
C2755 C2756 1.358 . S
C2755 C2757 1.356 . S
C2755 H2803 0.930 . S
C2756 N2753 1.279 . S
C2756 C2755 1.358 . S
C2756 H2759 0.930 . S
C2757 C2754 1.348 . S
C2757 C2755 1.356 . S
H2758 C2752 0.930 . S
H2759 C2756 0.930 . S
C2760 C2762 1.348 . S
C2760 C2763 1.356 . S
C2760 O2790 1.325 . S
N2761 C2764 1.314 . S
N2761 C2765 1.279 . S
C2762 C2760 1.348 . S
C2762 C2764 1.353 . S
C2762 H2804 0.929 . S
C2763 C2760 1.356 . S
C2763 C2765 1.358 . S
C2763 H2805 0.930 . S
C2764 N2761 1.314 . S
C2764 C2762 1.353 . S
C2764 H2806 0.930 . S
C2765 N2761 1.279 . S
C2765 C2763 1.358 . S
C2765 H2807 0.930 . S
C2766 C2767 1.348 . S
C2766 C2768 1.356 . S
C2766 O2791 1.325 . S
C2767 C2766 1.348 . S
C2767 C2769 1.353 . S
C2767 H2808 0.929 . S
C2768 C2766 1.356 . S
C2768 C2770 1.358 . S
C2768 H2809 0.930 . S
C2769 C2767 1.353 . S
C2769 N2771 1.314 . S
C2769 H2810 0.930 . S
C2770 C2768 1.358 . S
C2770 N2771 1.279 . S
C2770 H2811 0.930 . S
N2771 C2769 1.314 . S
N2771 C2770 1.279 . S
C2772 C2774 1.353 . S
C2772 N2775 1.314 . S
C2772 H2778 0.930 . S
C2773 N2775 1.279 . S
C2773 C2776 1.358 . S
C2773 H2779 0.930 . S
C2774 C2772 1.353 . S
C2774 C2777 1.348 . S
C2774 H2812 0.929 . S
N2775 Li2730 1.990 . S
N2775 C2772 1.314 . S
N2775 C2773 1.279 . S
C2776 C2773 1.358 . S
C2776 C2777 1.356 . S
C2776 H2813 0.930 . S
C2777 C2774 1.348 . S
C2777 C2776 1.356 . S
H2778 C2772 0.930 . S
H2779 C2773 0.930 . S
C2780 N2781 1.314 . S
C2780 C2782 1.353 . S
C2780 H2786 0.930 . S
N2781 Li2731 1.990 . S
N2781 C2780 1.314 . S
N2781 C2784 1.279 . S
C2782 C2780 1.353 . S
C2782 C2785 1.348 . S
C2782 H2814 0.929 . S
C2783 C2784 1.358 . S
C2783 C2785 1.356 . S
C2783 H2815 0.930 . S
C2784 N2781 1.279 . S
C2784 C2783 1.358 . S
C2784 H2787 0.930 . S
C2785 C2782 1.348 . S
C2785 C2783 1.356 . S
H2786 C2780 0.930 . S
H2787 C2784 0.930 . S
O2788 Li2728 1.956 . S
O2788 Li2729 1.970 . S
O2788 Li2730 1.961 . S
O2788 C2732 1.325 . S
O2789 Li2728 1.970 . S
O2789 Li2729 1.956 . S
O2789 Li2731 1.961 . S
O2789 C2738 1.325 . S
O2790 Li2728 1.961 . S
O2790 Li2730 1.956 . S
O2790 Li2731 1.970 . S
O2790 C2760 1.325 . S
O2791 Li2729 1.961 . S
O2791 Li2730 1.970 . S
O2791 Li2731 1.956 . S
O2791 C2766 1.325 . S
H2792 C2734 0.929 . S
H2793 C2735 0.930 . S
H2794 C2736 0.930 . S
H2795 C2737 0.930 . S
H2796 C2739 0.930 . S
H2797 C2741 0.929 . S
H2798 C2742 0.930 . S
H2799 C2743 0.930 . S
H2800 C2746 0.930 . S
H2801 C2749 0.929 . S
H2802 C2754 0.929 . S
H2803 C2755 0.930 . S
H2804 C2762 0.929 . S
H2805 C2763 0.930 . S
H2806 C2764 0.930 . S
H2807 C2765 0.930 . S
H2808 C2767 0.929 . S
H2809 C2768 0.930 . S
H2810 C2769 0.930 . S
H2811 C2770 0.930 . S
H2812 C2774 0.929 . S
H2813 C2776 0.930 . S
H2814 C2782 0.929 . S
H2815 C2783 0.930 . S
C2816 C2817 1.371 1_554 S
C2816 C2818 1.417 . S
C2816 H2820 0.930 . S
C2817 C2816 1.371 1_556 S
C2817 C2826 1.429 . S
C2818 C2816 1.417 . S
C2818 C2819 1.363 . S
C2818 H2821 0.929 . S
C2819 C2818 1.363 . S
C2819 C2825 1.428 1_554 S
H2820 C2816 0.930 . S
H2821 C2818 0.929 . S
S2822 N2823 1.613 . S
S2822 N2824 1.610 . S
N2823 S2822 1.613 . S
N2823 C2826 1.350 . S
N2824 S2822 1.610 . S
N2824 C2825 1.351 . S
C2825 C2819 1.428 1_556 S
C2825 N2824 1.351 . S
C2825 C2826 1.434 . S
C2826 C2817 1.429 . S
C2826 N2823 1.350 . S
C2826 C2825 1.434 . S
C2827 C2828 1.369 . S
C2827 C2829 1.419 1_565 S
C2827 H2831 0.930 . S
C2828 C2827 1.369 . S
C2828 C2837 1.429 . S
C2829 C2827 1.419 1_545 S
C2829 C2830 1.363 . S
C2829 H2832 0.929 . S
C2830 C2829 1.363 . S
C2830 C2836 1.428 . S
H2831 C2827 0.930 . S
H2832 C2829 0.929 . S
S2833 N2834 1.613 1_545 S
S2833 N2835 1.610 . S
N2834 S2833 1.613 1_565 S
N2834 C2837 1.350 . S
N2835 S2833 1.610 . S
N2835 C2836 1.351 . S
C2836 C2830 1.428 . S
C2836 N2835 1.351 . S
C2836 C2837 1.434 1_545 S
C2837 C2828 1.429 . S
C2837 N2834 1.350 . S
C2837 C2836 1.434 1_565 S
C2838 C2839 1.369 . S
C2838 C2840 1.419 . S
C2838 H2842 0.930 . S
C2839 C2838 1.369 . S
C2839 C2848 1.429 . S
C2840 C2838 1.419 . S
C2840 C2841 1.363 . S
C2840 H2843 0.929 . S
C2841 C2840 1.363 . S
C2841 C2847 1.428 . S
H2842 C2838 0.930 . S
H2843 C2840 0.929 . S
S2844 N2845 1.613 . S
S2844 N2846 1.610 . S
N2845 S2844 1.613 . S
N2845 C2848 1.350 . S
N2846 S2844 1.610 . S
N2846 C2847 1.351 . S
C2847 C2841 1.428 . S
C2847 N2846 1.351 . S
C2847 C2848 1.434 . S
C2848 C2839 1.429 . S
C2848 N2845 1.350 . S
C2848 C2847 1.434 . S
C2849 C2850 1.369 . S
C2849 C2851 1.419 1_545 S
C2849 H2853 0.930 . S
C2850 C2849 1.369 . S
C2850 C2859 1.429 . S
C2851 C2849 1.419 1_565 S
C2851 C2852 1.363 . S
C2851 H2854 0.929 . S
C2852 C2851 1.363 . S
C2852 C2858 1.428 . S
H2853 C2849 0.930 . S
H2854 C2851 0.929 . S
S2855 N2856 1.613 . S
S2855 N2857 1.610 1_545 S
N2856 S2855 1.613 . S
N2856 C2859 1.350 . S
N2857 S2855 1.610 1_565 S
N2857 C2858 1.351 . S
C2858 C2852 1.428 . S
C2858 N2857 1.351 . S
C2858 C2859 1.434 1_565 S
C2859 C2850 1.429 . S
C2859 N2856 1.350 . S
C2859 C2858 1.434 1_545 S
C2860 C2861 1.369 . S
C2860 C2862 1.419 . S
C2860 H2864 0.930 . S
C2861 C2860 1.369 . S
C2861 C2870 1.429 1_554 S
C2862 C2860 1.419 . S
C2862 C2863 1.363 1_554 S
C2862 H2865 0.929 . S
C2863 C2862 1.363 1_556 S
C2863 C2869 1.428 . S
H2864 C2860 0.930 . S
H2865 C2862 0.929 . S
S2866 N2867 1.613 . S
S2866 N2868 1.610 . S
N2867 S2866 1.613 . S
N2867 C2870 1.350 . S
N2868 S2866 1.610 . S
N2868 C2869 1.351 . S
C2869 C2863 1.428 . S
C2869 N2868 1.351 . S
C2869 C2870 1.434 . S
C2870 C2861 1.429 1_556 S
C2870 N2867 1.350 . S
C2870 C2869 1.434 . S
C2871 C2872 1.369 . S
C2871 C2873 1.419 1_565 S
C2871 H2875 0.930 . S
C2872 C2871 1.369 . S
C2872 C2881 1.468 . S
C2873 C2871 1.419 1_545 S
C2873 C2874 1.363 . S
C2873 H2876 0.929 . S
C2874 C2873 1.363 . S
C2874 C2880 1.428 . S
H2875 C2871 0.930 . S
H2876 C2873 0.929 . S
S2877 N2878 1.658 . S
S2877 N2879 1.610 . S
N2878 S2877 1.658 . S
N2878 C2881 1.345 1_545 S
N2879 S2877 1.610 . S
N2879 C2880 1.351 . S
C2880 C2874 1.428 . S
C2880 N2879 1.351 . S
C2880 C2881 1.394 1_545 S
C2881 C2872 1.468 . S
C2881 N2878 1.345 1_565 S
C2881 C2880 1.394 1_565 S
C2882 C2883 1.369 . S
C2882 C2884 1.419 . S
C2882 H2886 0.930 . S
C2883 C2882 1.369 . S
C2883 C2892 1.429 . S
C2884 C2882 1.419 . S
C2884 C2885 1.363 . S
C2884 H2887 0.929 . S
C2885 C2884 1.363 . S
C2885 C2891 1.428 . S
H2886 C2882 0.930 . S
H2887 C2884 0.929 . S
S2888 N2889 1.613 . S
S2888 N2890 1.610 . S
N2889 S2888 1.613 . S
N2889 C2892 1.350 . S
N2890 S2888 1.610 . S
N2890 C2891 1.351 . S
C2891 C2885 1.428 . S
C2891 N2890 1.351 . S
C2891 C2892 1.434 . S
C2892 C2883 1.429 . S
C2892 N2889 1.350 . S
C2892 C2891 1.434 . S
C2893 C2894 1.369 . S
C2893 C2895 1.419 1_565 S
C2893 H2897 0.930 . S
C2894 C2893 1.369 . S
C2894 C2903 1.429 . S
C2895 C2893 1.419 1_545 S
C2895 C2896 1.363 . S
C2895 H2898 0.929 . S
C2896 C2895 1.363 . S
C2896 C2902 1.428 . S
H2897 C2893 0.930 . S
H2898 C2895 0.929 . S
S2899 N2900 1.641 . S
S2899 N2901 1.583 1_565 S
N2900 S2899 1.641 . S
N2900 C2903 1.350 . S
N2901 S2899 1.583 1_545 S
N2901 C2902 1.351 . S
C2902 C2896 1.428 . S
C2902 N2901 1.351 . S
C2902 C2903 1.434 1_545 S
C2903 C2894 1.429 . S
C2903 N2900 1.350 . S
C2903 C2902 1.434 1_565 S
C2904 C2905 1.369 . S
C2904 C2906 1.419 . S
C2904 H2908 0.930 . S
C2905 C2904 1.369 . S
C2905 C2914 1.429 . S
C2906 C2904 1.419 . S
C2906 C2907 1.363 . S
C2906 H2909 0.929 . S
C2907 C2906 1.363 . S
C2907 C2913 1.428 . S
H2908 C2904 0.930 . S
H2909 C2906 0.929 . S
S2910 N2911 1.613 . S
S2910 N2912 1.610 . S
N2911 S2910 1.613 . S
N2911 C2914 1.350 . S
N2912 S2910 1.610 . S
N2912 C2913 1.351 . S
C2913 C2907 1.428 . S
C2913 N2912 1.351 . S
C2913 C2914 1.434 . S
C2914 C2905 1.429 . S
C2914 N2911 1.350 . S
C2914 C2913 1.434 . S
C2915 C2916 1.369 . S
C2915 C2917 1.419 . S
C2915 H2919 0.930 . S
C2916 C2915 1.369 . S
C2916 C2925 1.429 . S
C2917 C2915 1.419 . S
C2917 C2918 1.363 . S
C2917 H2920 0.929 . S
C2918 C2917 1.363 . S
C2918 C2924 1.428 . S
H2919 C2915 0.930 . S
H2920 C2917 0.929 . S
S2921 N2922 1.613 . S
S2921 N2923 1.610 . S
N2922 S2921 1.613 . S
N2922 C2925 1.350 . S
N2923 S2921 1.610 . S
N2923 C2924 1.351 . S
C2924 C2918 1.428 . S
C2924 N2923 1.351 . S
C2924 C2925 1.434 . S
C2925 C2916 1.429 . S
C2925 N2922 1.350 . S
C2925 C2924 1.434 . S
C2926 C2927 1.369 . S
C2926 C2928 1.419 . S
C2926 H2930 0.930 . S
C2927 C2926 1.369 . S
C2927 C2936 1.429 1_556 S
C2928 C2926 1.419 . S
C2928 C2929 1.363 1_556 S
C2928 H2931 0.929 . S
C2929 C2928 1.363 1_554 S
C2929 C2935 1.428 . S
H2930 C2926 0.930 . S
H2931 C2928 0.929 . S
S2932 N2933 1.613 . S
S2932 N2934 1.610 . S
N2933 S2932 1.613 . S
N2933 C2936 1.350 . S
N2934 S2932 1.610 . S
N2934 C2935 1.351 . S
C2935 C2929 1.428 . S
C2935 N2934 1.351 . S
C2935 C2936 1.434 . S
C2936 C2927 1.429 1_554 S
C2936 N2933 1.350 . S
C2936 C2935 1.434 . S
C2937 C2938 1.369 . S
C2937 C2939 1.419 . S
C2937 H2941 0.930 . S
C2938 C2937 1.369 . S
C2938 C2947 1.429 . S
C2939 C2937 1.419 . S
C2939 C2940 1.363 . S
C2939 H2942 0.929 . S
C2940 C2939 1.363 . S
C2940 C2946 1.428 . S
H2941 C2937 0.930 . S
H2942 C2939 0.929 . S
S2943 N2944 1.613 . S
S2943 N2945 1.610 . S
N2944 S2943 1.613 . S
N2944 C2947 1.350 . S
N2945 S2943 1.610 . S
N2945 C2946 1.351 . S
C2946 C2940 1.428 . S
C2946 N2945 1.351 . S
C2946 C2947 1.434 . S
C2947 C2938 1.429 . S
C2947 N2944 1.350 . S
C2947 C2946 1.434 . S
C2948 C2949 1.369 . S
C2948 C2950 1.419 . S
C2948 H2952 0.930 . S
C2949 C2948 1.369 . S
C2949 C2958 1.429 . S
C2950 C2948 1.419 . S
C2950 C2951 1.363 . S
C2950 H2953 0.929 . S
C2951 C2950 1.363 . S
C2951 C2957 1.428 . S
H2952 C2948 0.930 . S
H2953 C2950 0.929 . S
S2954 N2955 1.613 . S
S2954 N2956 1.610 . S
N2955 S2954 1.613 . S
N2955 C2958 1.350 . S
N2956 S2954 1.610 . S
N2956 C2957 1.351 . S
C2957 C2951 1.428 . S
C2957 N2956 1.351 . S
C2957 C2958 1.434 . S
C2958 C2949 1.429 . S
C2958 N2955 1.350 . S
C2958 C2957 1.434 . S
C2959 C2960 1.369 . S
C2959 C2961 1.419 . S
C2959 H2963 0.930 . S
C2960 C2959 1.369 . S
C2960 C2969 1.429 . S
C2961 C2959 1.419 . S
C2961 C2962 1.363 . S
C2961 H2964 0.929 . S
C2962 C2961 1.363 . S
C2962 C2968 1.428 . S
H2963 C2959 0.930 . S
H2964 C2961 0.929 . S
S2965 N2966 1.613 . S
S2965 N2967 1.610 . S
N2966 S2965 1.613 . S
N2966 C2969 1.350 . S
N2967 S2965 1.610 . S
N2967 C2968 1.351 . S
C2968 C2962 1.428 . S
C2968 N2967 1.351 . S
C2968 C2969 1.434 . S
C2969 C2960 1.429 . S
C2969 N2966 1.350 . S
C2969 C2968 1.434 . S
C2970 C2971 1.369 . S
C2970 C2972 1.419 . S
C2970 H2974 0.930 . S
C2971 C2970 1.369 . S
C2971 C2980 1.429 1_554 S
C2972 C2970 1.419 . S
C2972 C2973 1.363 1_554 S
C2972 H2975 0.929 . S
C2973 C2972 1.363 1_556 S
C2973 C2979 1.428 . S
H2974 C2970 0.930 . S
H2975 C2972 0.929 . S
S2976 N2977 1.613 . S
S2976 N2978 1.610 . S
N2977 S2976 1.613 . S
N2977 C2980 1.350 . S
N2978 S2976 1.610 . S
N2978 C2979 1.351 . S
C2979 C2973 1.428 . S
C2979 N2978 1.351 . S
C2979 C2980 1.434 . S
C2980 C2971 1.429 1_556 S
C2980 N2977 1.350 . S
C2980 C2979 1.434 . S
C2981 C2982 1.369 . S
C2981 C2983 1.419 . S
C2981 H2985 0.930 . S
C2982 C2981 1.369 . S
C2982 C2991 1.429 . S
C2983 C2981 1.419 . S
C2983 C2984 1.363 . S
C2983 H2986 0.929 . S
C2984 C2983 1.363 . S
C2984 C2990 1.428 . S
H2985 C2981 0.930 . S
H2986 C2983 0.929 . S
S2987 N2988 1.613 . S
S2987 N2989 1.610 . S
N2988 S2987 1.613 . S
N2988 C2991 1.350 . S
N2989 S2987 1.610 . S
N2989 C2990 1.351 . S
C2990 C2984 1.428 . S
C2990 N2989 1.351 . S
C2990 C2991 1.434 . S
C2991 C2982 1.429 . S
C2991 N2988 1.350 . S
C2991 C2990 1.434 . S
C2992 C2993 1.369 . S
C2992 C2994 1.419 . S
C2992 H2996 0.930 . S
C2993 C2992 1.369 . S
C2993 C3002 1.429 . S
C2994 C2992 1.419 . S
C2994 C2995 1.363 . S
C2994 H2997 0.929 . S
C2995 C2994 1.363 . S
C2995 C3001 1.428 . S
H2996 C2992 0.930 . S
H2997 C2994 0.929 . S
S2998 N2999 1.613 . S
S2998 N3000 1.610 . S
N2999 S2998 1.613 . S
N2999 C3002 1.350 . S
N3000 S2998 1.610 . S
N3000 C3001 1.351 . S
C3001 C2995 1.428 . S
C3001 N3000 1.351 . S
C3001 C3002 1.434 . S
C3002 C2993 1.429 . S
C3002 N2999 1.350 . S
C3002 C3001 1.434 . S
C3003 C3004 1.369 . S
C3003 C3005 1.415 . S
C3003 H3007 0.930 . S
C3004 C3003 1.369 . S
C3004 C3013 1.429 1_455 S
C3005 C3003 1.415 . S
C3005 C3006 1.367 1_455 S
C3005 H3008 0.928 . S
C3006 C3005 1.367 1_655 S
C3006 C3012 1.428 . S
H3007 C3003 0.930 . S
H3008 C3005 0.928 . S
S3009 N3010 1.613 . S
S3009 N3011 1.610 1_556 S
N3010 S3009 1.613 . S
N3010 C3013 1.350 1_556 S
N3011 S3009 1.610 1_554 S
N3011 C3012 1.351 . S
C3012 C3006 1.428 . S
C3012 N3011 1.351 . S
C3012 C3013 1.434 . S
C3013 C3004 1.429 1_655 S
C3013 N3010 1.350 1_554 S
C3013 C3012 1.434 . S
C3014 C3015 1.369 . S
C3014 C3016 1.419 . S
C3014 H3018 0.930 . S
C3015 C3014 1.369 . S
C3015 C3024 1.429 . S
C3016 C3014 1.419 . S
C3016 C3017 1.363 . S
C3016 H3019 0.929 . S
C3017 C3016 1.363 . S
C3017 C3023 1.428 . S
H3018 C3014 0.930 . S
H3019 C3016 0.929 . S
S3020 N3021 1.613 . S
S3020 N3022 1.610 . S
N3021 S3020 1.613 . S
N3021 C3024 1.350 . S
N3022 S3020 1.610 . S
N3022 C3023 1.351 . S
C3023 C3017 1.428 . S
C3023 N3022 1.351 . S
C3023 C3024 1.434 . S
C3024 C3015 1.429 . S
C3024 N3021 1.350 . S
C3024 C3023 1.434 . S
C3025 C3026 1.369 . S
C3025 C3027 1.419 . S
C3025 H3029 0.930 . S
C3026 C3025 1.369 . S
C3026 C3035 1.429 . S
C3027 C3025 1.419 . S
C3027 C3028 1.363 . S
C3027 H3030 0.929 . S
C3028 C3027 1.363 . S
C3028 C3034 1.428 . S
H3029 C3025 0.930 . S
H3030 C3027 0.929 . S
S3031 N3032 1.613 . S
S3031 N3033 1.610 . S
N3032 S3031 1.613 . S
N3032 C3035 1.350 . S
N3033 S3031 1.610 . S
N3033 C3034 1.351 . S
C3034 C3028 1.428 . S
C3034 N3033 1.351 . S
C3034 C3035 1.434 . S
C3035 C3026 1.429 . S
C3035 N3032 1.350 . S
C3035 C3034 1.434 . S
C3036 C3037 1.369 . S
C3036 C3038 1.419 . S
C3036 H3040 0.930 . S
C3037 C3036 1.369 . S
C3037 C3046 1.429 . S
C3038 C3036 1.419 . S
C3038 C3039 1.363 . S
C3038 H3041 0.929 . S
C3039 C3038 1.363 . S
C3039 C3045 1.428 . S
H3040 C3036 0.930 . S
H3041 C3038 0.929 . S
S3042 N3043 1.613 . S
S3042 N3044 1.610 . S
N3043 S3042 1.613 . S
N3043 C3046 1.350 . S
N3044 S3042 1.610 . S
N3044 C3045 1.351 . S
C3045 C3039 1.428 . S
C3045 N3044 1.351 . S
C3045 C3046 1.434 . S
C3046 C3037 1.429 . S
C3046 N3043 1.350 . S
C3046 C3045 1.434 . S
C3047 C3048 1.369 . S
C3047 C3049 1.419 . S
C3047 H3051 0.930 1_556 S
C3048 C3047 1.369 . S
C3048 C3057 1.429 . S
C3049 C3047 1.419 . S
C3049 C3050 1.363 . S
C3049 H3052 0.929 . S
C3050 C3049 1.363 . S
C3050 C3056 1.428 . S
H3051 C3047 0.930 1_554 S
H3052 C3049 0.929 . S
S3053 N3054 1.613 . S
S3053 N3055 1.610 . S
N3054 S3053 1.613 . S
N3054 C3057 1.350 . S
N3055 S3053 1.610 . S
N3055 C3056 1.351 . S
C3056 C3050 1.428 . S
C3056 N3055 1.351 . S
C3056 C3057 1.434 . S
C3057 C3048 1.429 . S
C3057 N3054 1.350 . S
C3057 C3056 1.434 . S
C3058 C3059 1.369 . S
C3058 C3060 1.419 . S
C3058 H3062 0.930 . S
C3059 C3058 1.369 . S
C3059 C3068 1.429 . S
C3060 C3058 1.419 . S
C3060 C3061 1.363 . S
C3060 H3063 0.929 . S
C3061 C3060 1.363 . S
C3061 C3067 1.428 . S
H3062 C3058 0.930 . S
H3063 C3060 0.929 . S
S3064 N3065 1.613 . S
S3064 N3066 1.610 . S
N3065 S3064 1.613 . S
N3065 C3068 1.350 . S
N3066 S3064 1.610 . S
N3066 C3067 1.351 . S
C3067 C3061 1.428 . S
C3067 N3066 1.351 . S
C3067 C3068 1.434 . S
C3068 C3059 1.429 . S
C3068 N3065 1.350 . S
C3068 C3067 1.434 . S
C3069 C3070 1.384 . S
C3069 C3071 1.402 1_455 S
C3069 H3073 0.933 . S
C3070 C3069 1.384 . S
C3070 C3079 1.429 . S
C3071 C3069 1.402 1_655 S
C3071 C3072 1.363 . S
C3071 H3074 0.929 . S
C3072 C3071 1.363 . S
C3072 C3078 1.428 . S
H3073 C3069 0.933 . S
H3074 C3071 0.929 . S
S3075 N3076 1.613 . S
S3075 N3077 1.610 1_455 S
N3076 S3075 1.613 . S
N3076 C3079 1.350 . S
N3077 S3075 1.610 1_655 S
N3077 C3078 1.351 . S
C3078 C3072 1.428 . S
C3078 N3077 1.351 . S
C3078 C3079 1.434 1_655 S
C3079 C3070 1.429 . S
C3079 N3076 1.350 . S
C3079 C3078 1.434 1_455 S
C3080 C3081 1.369 . S
C3080 C3082 1.419 . S
C3080 H3084 0.930 . S
C3081 C3080 1.369 . S
C3081 C3090 1.429 . S
C3082 C3080 1.419 . S
C3082 C3083 1.363 . S
C3082 H3085 0.929 . S
C3083 C3082 1.363 . S
C3083 C3089 1.428 . S
H3084 C3080 0.930 . S
H3085 C3082 0.929 . S
S3086 N3087 1.613 . S
S3086 N3088 1.610 . S
N3087 S3086 1.613 . S
N3087 C3090 1.350 . S
N3088 S3086 1.610 . S
N3088 C3089 1.351 . S
C3089 C3083 1.428 . S
C3089 N3088 1.351 . S
C3089 C3090 1.434 . S
C3090 C3081 1.429 . S
C3090 N3087 1.350 . S
C3090 C3089 1.434 . S
C3091 C3092 1.369 . S
C3091 C3093 1.412 1_655 S
C3091 H3095 0.930 . S
C3092 C3091 1.369 . S
C3092 C3101 1.429 1_655 S
C3093 C3091 1.412 1_455 S
C3093 C3094 1.372 . S
C3093 H3096 0.928 1_455 S
C3094 C3093 1.372 . S
C3094 C3100 1.428 . S
H3095 C3091 0.930 . S
H3096 C3093 0.928 1_655 S
S3097 N3098 1.613 . S
S3097 N3099 1.610 . S
N3098 S3097 1.613 . S
N3098 C3101 1.350 . S
N3099 S3097 1.610 . S
N3099 C3100 1.351 . S
C3100 C3094 1.428 . S
C3100 N3099 1.351 . S
C3100 C3101 1.434 . S
C3101 C3092 1.429 1_455 S
C3101 N3098 1.350 . S
C3101 C3100 1.434 . S
C3102 C3103 1.369 . S
C3102 C3104 1.419 . S
C3102 H3106 0.930 . S
C3103 C3102 1.369 . S
C3103 C3112 1.429 . S
C3104 C3102 1.419 . S
C3104 C3105 1.363 . S
C3104 H3107 0.929 . S
C3105 C3104 1.363 . S
C3105 C3111 1.428 . S
H3106 C3102 0.930 . S
H3107 C3104 0.929 . S
S3108 N3109 1.613 . S
S3108 N3110 1.610 . S
N3109 S3108 1.613 . S
N3109 C3112 1.350 . S
N3110 S3108 1.610 . S
N3110 C3111 1.351 . S
C3111 C3105 1.428 . S
C3111 N3110 1.351 . S
C3111 C3112 1.434 . S
C3112 C3103 1.429 . S
C3112 N3109 1.350 . S
C3112 C3111 1.434 . S
C3113 C3114 1.369 . S
C3113 C3115 1.419 . S
C3113 H3117 0.930 . S
C3114 C3113 1.369 . S
C3114 C3123 1.429 . S
C3115 C3113 1.419 . S
C3115 C3116 1.363 . S
C3115 H3118 0.929 . S
C3116 C3115 1.363 . S
C3116 C3122 1.428 . S
H3117 C3113 0.930 . S
H3118 C3115 0.929 . S
S3119 N3120 1.613 . S
S3119 N3121 1.610 . S
N3120 S3119 1.613 . S
N3120 C3123 1.350 . S
N3121 S3119 1.610 . S
N3121 C3122 1.351 . S
C3122 C3116 1.428 . S
C3122 N3121 1.351 . S
C3122 C3123 1.434 . S
C3123 C3114 1.429 . S
C3123 N3120 1.350 . S
C3123 C3122 1.434 . S
C3124 C3125 1.369 . S
C3124 C3126 1.419 . S
C3124 H3128 0.930 . S
C3125 C3124 1.369 . S
C3125 C3134 1.429 . S
C3126 C3124 1.419 . S
C3126 C3127 1.363 . S
C3126 H3129 0.929 . S
C3127 C3126 1.363 . S
C3127 C3133 1.428 . S
H3128 C3124 0.930 . S
H3129 C3126 0.929 . S
S3130 N3131 1.613 . S
S3130 N3132 1.610 . S
N3131 S3130 1.613 . S
N3131 C3134 1.350 . S
N3132 S3130 1.610 . S
N3132 C3133 1.351 . S
C3133 C3127 1.428 . S
C3133 N3132 1.351 . S
C3133 C3134 1.434 . S
C3134 C3125 1.429 . S
C3134 N3131 1.350 . S
C3134 C3133 1.434 . S
C3135 C3136 1.369 . S
C3135 C3137 1.419 . S
C3135 H3139 0.930 . S
C3136 C3135 1.369 . S
C3136 C3145 1.429 . S
C3137 C3135 1.419 . S
C3137 C3138 1.363 . S
C3137 H3140 0.929 . S
C3138 C3137 1.363 . S
C3138 C3144 1.428 . S
H3139 C3135 0.930 . S
H3140 C3137 0.929 . S
S3141 N3142 1.613 . S
S3141 N3143 1.610 . S
N3142 S3141 1.613 . S
N3142 C3145 1.350 . S
N3143 S3141 1.610 . S
N3143 C3144 1.351 . S
C3144 C3138 1.428 . S
C3144 N3143 1.351 . S
C3144 C3145 1.434 . S
C3145 C3136 1.429 . S
C3145 N3142 1.350 . S
C3145 C3144 1.434 . S
C3146 C3147 1.369 . S
C3146 C3148 1.419 . S
C3146 H3150 0.930 . S
C3147 C3146 1.369 . S
C3147 C3156 1.429 . S
C3148 C3146 1.419 . S
C3148 C3149 1.363 . S
C3148 H3151 0.929 . S
C3149 C3148 1.363 . S
C3149 C3155 1.428 . S
H3150 C3146 0.930 . S
H3151 C3148 0.929 . S
S3152 N3153 1.613 . S
S3152 N3154 1.610 . S
N3153 S3152 1.613 . S
N3153 C3156 1.350 . S
N3154 S3152 1.610 . S
N3154 C3155 1.351 . S
C3155 C3149 1.428 . S
C3155 N3154 1.351 . S
C3155 C3156 1.434 . S
C3156 C3147 1.429 . S
C3156 N3153 1.350 . S
C3156 C3155 1.434 . S
C3157 C3158 1.369 . S
C3157 C3159 1.419 . S
C3157 H3161 0.930 . S
C3158 C3157 1.369 . S
C3158 C3167 1.429 1_655 S
C3159 C3157 1.419 . S
C3159 C3160 1.363 1_655 S
C3159 H3162 0.929 . S
C3160 C3159 1.363 1_455 S
C3160 C3166 1.428 . S
H3161 C3157 0.930 . S
H3162 C3159 0.929 . S
S3163 N3164 1.613 . S
S3163 N3165 1.610 . S
N3164 S3163 1.613 . S
N3164 C3167 1.350 . S
N3165 S3163 1.610 . S
N3165 C3166 1.351 . S
C3166 C3160 1.428 . S
C3166 N3165 1.351 . S
C3166 C3167 1.434 . S
C3167 C3158 1.429 1_455 S
C3167 N3164 1.350 . S
C3167 C3166 1.434 . S
C3168 C3169 1.369 . S
C3168 C3170 1.419 . S
C3168 H3172 0.930 . S
C3169 C3168 1.369 . S
C3169 C3178 1.429 . S
C3170 C3168 1.419 . S
C3170 C3171 1.363 . S
C3170 H3173 0.929 . S
C3171 C3170 1.363 . S
C3171 C3177 1.428 . S
H3172 C3168 0.930 . S
H3173 C3170 0.929 . S
S3174 N3175 1.613 . S
S3174 N3176 1.610 . S
N3175 S3174 1.613 . S
N3175 C3178 1.350 . S
N3176 S3174 1.610 . S
N3176 C3177 1.351 . S
C3177 C3171 1.428 . S
C3177 N3176 1.351 . S
C3177 C3178 1.434 . S
C3178 C3169 1.429 . S
C3178 N3175 1.350 . S
C3178 C3177 1.434 . S
C3179 C3180 1.369 . S
C3179 C3181 1.419 . S
C3179 H3183 0.930 . S
C3180 C3179 1.369 . S
C3180 C3189 1.429 . S
C3181 C3179 1.419 . S
C3181 C3182 1.363 . S
C3181 H3184 0.929 . S
C3182 C3181 1.363 . S
C3182 C3188 1.428 . S
H3183 C3179 0.930 . S
H3184 C3181 0.929 . S
S3185 N3186 1.613 . S
S3185 N3187 1.610 . S
N3186 S3185 1.613 . S
N3186 C3189 1.350 . S
N3187 S3185 1.610 . S
N3187 C3188 1.351 . S
C3188 C3182 1.428 . S
C3188 N3187 1.351 . S
C3188 C3189 1.434 . S
C3189 C3180 1.429 . S
C3189 N3186 1.350 . S
C3189 C3188 1.434 . S
C3190 C3191 1.369 . S
C3190 C3192 1.419 . S
C3190 H3194 0.930 . S
C3191 C3190 1.369 . S
C3191 C3200 1.429 . S
C3192 C3190 1.419 . S
C3192 C3193 1.363 . S
C3192 H3195 0.929 . S
C3193 C3192 1.363 . S
C3193 C3199 1.428 . S
H3194 C3190 0.930 . S
H3195 C3192 0.929 . S
S3196 N3197 1.613 . S
S3196 N3198 1.610 . S
N3197 S3196 1.613 . S
N3197 C3200 1.350 . S
N3198 S3196 1.610 . S
N3198 C3199 1.351 . S
C3199 C3193 1.428 . S
C3199 N3198 1.351 . S
C3199 C3200 1.434 . S
C3200 C3191 1.429 . S
C3200 N3197 1.350 . S
C3200 C3199 1.434 . S
C3201 C3202 1.369 . S
C3201 C3203 1.419 1_455 S
C3201 H3205 0.930 . S
C3202 C3201 1.369 . S
C3202 C3211 1.429 . S
C3203 C3201 1.419 1_655 S
C3203 C3204 1.363 . S
C3203 H3206 0.929 . S
C3204 C3203 1.363 . S
C3204 C3210 1.428 . S
H3205 C3201 0.930 . S
H3206 C3203 0.929 . S
S3207 N3208 1.613 . S
S3207 N3209 1.610 1_454 S
N3208 S3207 1.613 . S
N3208 C3211 1.350 . S
N3209 S3207 1.610 1_656 S
N3209 C3210 1.351 1_556 S
C3210 C3204 1.428 . S
C3210 N3209 1.351 1_554 S
C3210 C3211 1.434 1_655 S
C3211 C3202 1.429 . S
C3211 N3208 1.350 . S
C3211 C3210 1.434 1_455 S
C3212 C3213 1.369 . S
C3212 C3214 1.419 . S
C3212 H3216 0.930 . S
C3213 C3212 1.369 . S
C3213 C3222 1.429 . S
C3214 C3212 1.419 . S
C3214 C3215 1.363 . S
C3214 H3217 0.929 . S
C3215 C3214 1.363 . S
C3215 C3221 1.428 . S
H3216 C3212 0.930 . S
H3217 C3214 0.929 . S
S3218 N3219 1.613 . S
S3218 N3220 1.610 . S
N3219 S3218 1.613 . S
N3219 C3222 1.350 . S
N3220 S3218 1.610 . S
N3220 C3221 1.351 . S
C3221 C3215 1.428 . S
C3221 N3220 1.351 . S
C3221 C3222 1.434 . S
C3222 C3213 1.429 . S
C3222 N3219 1.350 . S
C3222 C3221 1.434 . S
C3223 C3224 1.369 . S
C3223 C3225 1.419 . S
C3223 H3227 0.930 . S
C3224 C3223 1.369 . S
C3224 C3233 1.429 1_655 S
C3225 C3223 1.419 . S
C3225 C3226 1.363 1_655 S
C3225 H3228 0.929 . S
C3226 C3225 1.363 1_455 S
C3226 C3232 1.428 . S
H3227 C3223 0.930 . S
H3228 C3225 0.929 . S
S3229 N3230 1.613 . S
S3229 N3231 1.610 . S
N3230 S3229 1.613 . S
N3230 C3233 1.350 . S
N3231 S3229 1.610 . S
N3231 C3232 1.351 . S
C3232 C3226 1.428 . S
C3232 N3231 1.351 . S
C3232 C3233 1.434 . S
C3233 C3224 1.429 1_455 S
C3233 N3230 1.350 . S
C3233 C3232 1.434 . S
C3234 C3235 1.369 . S
C3234 C3236 1.419 . S
C3234 H3238 0.930 . S
C3235 C3234 1.369 . S
C3235 C3244 1.429 . S
C3236 C3234 1.419 . S
C3236 C3237 1.363 . S
C3236 H3239 0.929 . S
C3237 C3236 1.363 . S
C3237 C3243 1.428 . S
H3238 C3234 0.930 . S
H3239 C3236 0.929 . S
S3240 N3241 1.613 . S
S3240 N3242 1.610 . S
N3241 S3240 1.613 . S
N3241 C3244 1.350 . S
N3242 S3240 1.610 . S
N3242 C3243 1.351 . S
C3243 C3237 1.428 . S
C3243 N3242 1.351 . S
C3243 C3244 1.434 . S
C3244 C3235 1.429 . S
C3244 N3241 1.350 . S
C3244 C3243 1.434 . S
C3245 C3246 1.369 . S
C3245 C3247 1.419 . S
C3245 H3249 0.930 . S
C3246 C3245 1.369 . S
C3246 C3255 1.429 . S
C3247 C3245 1.419 . S
C3247 C3248 1.363 . S
C3247 H3250 0.929 . S
C3248 C3247 1.363 . S
C3248 C3254 1.428 . S
H3249 C3245 0.930 . S
H3250 C3247 0.929 . S
S3251 N3252 1.613 . S
S3251 N3253 1.610 . S
N3252 S3251 1.613 . S
N3252 C3255 1.350 . S
N3253 S3251 1.610 . S
N3253 C3254 1.351 . S
C3254 C3248 1.428 . S
C3254 N3253 1.351 . S
C3254 C3255 1.434 . S
C3255 C3246 1.429 . S
C3255 N3252 1.350 . S
C3255 C3254 1.434 . S
C3256 C3257 1.369 . S
C3256 C3258 1.419 . S
C3256 H3260 0.930 . S
C3257 C3256 1.369 . S
C3257 C3266 1.429 . S
C3258 C3256 1.419 . S
C3258 C3259 1.363 . S
C3258 H3261 0.929 . S
C3259 C3258 1.363 . S
C3259 C3265 1.428 . S
H3260 C3256 0.930 . S
H3261 C3258 0.929 . S
S3262 N3263 1.613 . S
S3262 N3264 1.610 . S
N3263 S3262 1.613 . S
N3263 C3266 1.350 . S
N3264 S3262 1.610 . S
N3264 C3265 1.351 . S
C3265 C3259 1.428 . S
C3265 N3264 1.351 . S
C3265 C3266 1.434 . S
C3266 C3257 1.429 . S
C3266 N3263 1.350 . S
C3266 C3265 1.434 . S
C3267 C3268 1.369 . S
C3267 C3269 1.419 . S
C3267 H3271 0.930 . S
C3268 C3267 1.369 . S
C3268 C3277 1.429 . S
C3269 C3267 1.419 . S
C3269 C3270 1.363 . S
C3269 H3272 0.929 . S
C3270 C3269 1.363 . S
C3270 C3276 1.428 . S
H3271 C3267 0.930 . S
H3272 C3269 0.929 . S
S3273 N3274 1.613 . S
S3273 N3275 1.610 . S
N3274 S3273 1.613 . S
N3274 C3277 1.350 . S
N3275 S3273 1.610 . S
N3275 C3276 1.351 . S
C3276 C3270 1.428 . S
C3276 N3275 1.351 . S
C3276 C3277 1.434 . S
C3277 C3268 1.429 . S
C3277 N3274 1.350 . S
C3277 C3276 1.434 . S
C3278 C3279 1.369 . S
C3278 C3280 1.419 . S
C3278 H3282 0.930 . S
C3279 C3278 1.369 . S
C3279 C3288 1.429 . S
C3280 C3278 1.419 . S
C3280 C3281 1.363 . S
C3280 H3283 0.929 . S
C3281 C3280 1.363 . S
C3281 C3287 1.428 . S
H3282 C3278 0.930 . S
H3283 C3280 0.929 . S
S3284 N3285 1.613 . S
S3284 N3286 1.610 . S
N3285 S3284 1.613 . S
N3285 C3288 1.350 . S
N3286 S3284 1.610 . S
N3286 C3287 1.351 . S
C3287 C3281 1.428 . S
C3287 N3286 1.351 . S
C3287 C3288 1.434 . S
C3288 C3279 1.429 . S
C3288 N3285 1.350 . S
C3288 C3287 1.434 . S
C3289 C3290 1.369 . S
C3289 C3291 1.468 . S
C3289 H3293 0.930 . S
C3290 C3289 1.369 . S
C3290 C3299 1.429 . S
C3291 C3289 1.468 . S
C3291 C3292 1.316 1_655 S
C3291 H3294 0.929 1_556 S
C3292 C3291 1.316 1_455 S
C3292 C3298 1.428 . S
H3293 C3289 0.930 . S
H3294 C3291 0.929 1_554 S
S3295 N3296 1.617 1_455 S
S3295 N3297 1.610 . S
N3296 S3295 1.617 1_655 S
N3296 C3299 1.349 . S
N3297 S3295 1.610 . S
N3297 C3298 1.351 . S
C3298 C3292 1.428 . S
C3298 N3297 1.351 . S
C3298 C3299 1.434 1_455 S
C3299 C3290 1.429 . S
C3299 N3296 1.349 . S
C3299 C3298 1.434 1_655 S
C3300 C3301 1.369 . S
C3300 C3302 1.419 . S
C3300 H3304 0.930 . S
C3301 C3300 1.369 . S
C3301 C3310 1.429 . S
C3302 C3300 1.419 . S
C3302 C3303 1.363 . S
C3302 H3305 0.929 . S
C3303 C3302 1.363 . S
C3303 C3309 1.428 . S
H3304 C3300 0.930 . S
H3305 C3302 0.929 . S
S3306 N3307 1.613 . S
S3306 N3308 1.610 . S
N3307 S3306 1.613 . S
N3307 C3310 1.350 . S
N3308 S3306 1.610 . S
N3308 C3309 1.351 . S
C3309 C3303 1.428 . S
C3309 N3308 1.351 . S
C3309 C3310 1.434 . S
C3310 C3301 1.429 . S
C3310 N3307 1.350 . S
C3310 C3309 1.434 . S
C3311 C3312 1.369 . S
C3311 C3313 1.419 1_655 S
C3311 H3315 0.930 . S
C3312 C3311 1.369 . S
C3312 C3321 1.429 . S
C3313 C3311 1.419 1_455 S
C3313 C3314 1.363 . S
C3313 H3316 0.929 . S
C3314 C3313 1.363 . S
C3314 C3320 1.428 . S
H3315 C3311 0.930 . S
H3316 C3313 0.929 . S
S3317 N3318 1.651 . S
S3317 N3319 1.578 1_655 S
N3318 S3317 1.651 . S
N3318 C3321 1.350 . S
N3319 S3317 1.578 1_455 S
N3319 C3320 1.351 . S
C3320 C3314 1.428 . S
C3320 N3319 1.351 . S
C3320 C3321 1.434 1_455 S
C3321 C3312 1.429 . S
C3321 N3318 1.350 . S
C3321 C3320 1.434 1_655 S
C3322 C3323 1.369 . S
C3322 C3324 1.419 . S
C3322 H3326 0.930 . S
C3323 C3322 1.369 . S
C3323 C3332 1.429 . S
C3324 C3322 1.419 . S
C3324 C3325 1.363 . S
C3324 H3327 0.929 . S
C3325 C3324 1.363 . S
C3325 C3331 1.428 . S
H3326 C3322 0.930 . S
H3327 C3324 0.929 . S
S3328 N3329 1.613 . S
S3328 N3330 1.610 . S
N3329 S3328 1.613 . S
N3329 C3332 1.350 . S
N3330 S3328 1.610 . S
N3330 C3331 1.351 . S
C3331 C3325 1.428 . S
C3331 N3330 1.351 . S
C3331 C3332 1.434 . S
C3332 C3323 1.429 . S
C3332 N3329 1.350 . S
C3332 C3331 1.434 . S
C3333 C3334 1.369 . S
C3333 C3335 1.419 . S
C3333 H3337 0.930 . S
C3334 C3333 1.369 . S
C3334 C3343 1.429 . S
C3335 C3333 1.419 . S
C3335 C3336 1.363 . S
C3335 H3338 0.929 . S
C3336 C3335 1.363 . S
C3336 C3342 1.428 . S
H3337 C3333 0.930 . S
H3338 C3335 0.929 . S
S3339 N3340 1.613 1_556 S
S3339 N3341 1.610 . S
N3340 S3339 1.613 1_554 S
N3340 C3343 1.350 . S
N3341 S3339 1.610 . S
N3341 C3342 1.351 1_556 S
C3342 C3336 1.428 . S
C3342 N3341 1.351 1_554 S
C3342 C3343 1.434 . S
C3343 C3334 1.429 . S
C3343 N3340 1.350 . S
C3343 C3342 1.434 . S
C3344 C3345 1.369 . S
C3344 C3346 1.419 . S
C3344 H3348 0.930 . S
C3345 C3344 1.369 . S
C3345 C3354 1.429 . S
C3346 C3344 1.419 . S
C3346 C3347 1.363 . S
C3346 H3349 0.929 . S
C3347 C3346 1.363 . S
C3347 C3353 1.428 . S
H3348 C3344 0.930 . S
H3349 C3346 0.929 . S
S3350 N3351 1.613 . S
S3350 N3352 1.610 . S
N3351 S3350 1.613 . S
N3351 C3354 1.350 . S
N3352 S3350 1.610 . S
N3352 C3353 1.351 . S
C3353 C3347 1.428 . S
C3353 N3352 1.351 . S
C3353 C3354 1.434 . S
C3354 C3345 1.429 . S
C3354 N3351 1.350 . S
C3354 C3353 1.434 . S
C3355 C3356 1.369 . S
C3355 C3357 1.419 . S
C3355 H3359 0.930 . S
C3356 C3355 1.369 . S
C3356 C3365 1.429 . S
C3357 C3355 1.419 . S
C3357 C3358 1.363 . S
C3357 H3360 0.929 . S
C3358 C3357 1.363 . S
C3358 C3364 1.428 . S
H3359 C3355 0.930 . S
H3360 C3357 0.929 . S
S3361 N3362 1.613 . S
S3361 N3363 1.610 . S
N3362 S3361 1.613 . S
N3362 C3365 1.350 . S
N3363 S3361 1.610 . S
N3363 C3364 1.351 . S
C3364 C3358 1.428 . S
C3364 N3363 1.351 . S
C3364 C3365 1.434 . S
C3365 C3356 1.429 . S
C3365 N3362 1.350 . S
C3365 C3364 1.434 . S
C3366 C3367 1.369 . S
C3366 C3368 1.419 . S
C3366 H3370 0.930 . S
C3367 C3366 1.369 . S
C3367 C3376 1.429 . S
C3368 C3366 1.419 . S
C3368 C3369 1.363 . S
C3368 H3371 0.929 . S
C3369 C3368 1.363 . S
C3369 C3375 1.428 . S
H3370 C3366 0.930 . S
H3371 C3368 0.929 . S
S3372 N3373 1.613 . S
S3372 N3374 1.610 . S
N3373 S3372 1.613 . S
N3373 C3376 1.350 . S
N3374 S3372 1.610 . S
N3374 C3375 1.351 . S
C3375 C3369 1.428 . S
C3375 N3374 1.351 . S
C3375 C3376 1.434 . S
C3376 C3367 1.429 . S
C3376 N3373 1.350 . S
C3376 C3375 1.434 . S
C3377 C3378 1.369 . S
C3377 C3379 1.419 . S
C3377 H3381 0.930 . S
C3378 C3377 1.369 . S
C3378 C3387 1.429 . S
C3379 C3377 1.419 . S
C3379 C3380 1.363 . S
C3379 H3382 0.929 . S
C3380 C3379 1.363 . S
C3380 C3386 1.428 . S
H3381 C3377 0.930 . S
H3382 C3379 0.929 . S
S3383 N3384 1.613 . S
S3383 N3385 1.610 . S
N3384 S3383 1.613 . S
N3384 C3387 1.350 . S
N3385 S3383 1.610 . S
N3385 C3386 1.351 . S
C3386 C3380 1.428 . S
C3386 N3385 1.351 . S
C3386 C3387 1.434 . S
C3387 C3378 1.429 . S
C3387 N3384 1.350 . S
C3387 C3386 1.434 . S
C3388 C3389 1.369 . S
C3388 C3390 1.419 . S
C3388 H3392 0.930 . S
C3389 C3388 1.369 . S
C3389 C3398 1.429 . S
C3390 C3388 1.419 . S
C3390 C3391 1.363 . S
C3390 H3393 0.929 . S
C3391 C3390 1.363 . S
C3391 C3397 1.428 . S
H3392 C3388 0.930 . S
H3393 C3390 0.929 . S
S3394 N3395 1.613 . S
S3394 N3396 1.610 . S
N3395 S3394 1.613 . S
N3395 C3398 1.350 . S
N3396 S3394 1.610 . S
N3396 C3397 1.351 . S
C3397 C3391 1.428 . S
C3397 N3396 1.351 . S
C3397 C3398 1.434 . S
C3398 C3389 1.429 . S
C3398 N3395 1.350 . S
C3398 C3397 1.434 . S
C3399 C3400 1.369 . S
C3399 C3401 1.419 . S
C3399 H3403 0.930 . S
C3400 C3399 1.369 . S
C3400 C3409 1.429 . S
C3401 C3399 1.419 . S
C3401 C3402 1.363 . S
C3401 H3404 0.929 . S
C3402 C3401 1.363 . S
C3402 C3408 1.428 . S
H3403 C3399 0.930 . S
H3404 C3401 0.929 . S
S3405 N3406 1.613 . S
S3405 N3407 1.610 . S
N3406 S3405 1.613 . S
N3406 C3409 1.350 . S
N3407 S3405 1.610 . S
N3407 C3408 1.351 . S
C3408 C3402 1.428 . S
C3408 N3407 1.351 . S
C3408 C3409 1.434 . S
C3409 C3400 1.429 . S
C3409 N3406 1.350 . S
C3409 C3408 1.434 . S
C3410 C3411 1.369 . S
C3410 C3412 1.419 . S
C3410 H3414 0.930 . S
C3411 C3410 1.369 . S
C3411 C3420 1.429 . S
C3412 C3410 1.419 . S
C3412 C3413 1.363 . S
C3412 H3415 0.929 . S
C3413 C3412 1.363 . S
C3413 C3419 1.428 . S
H3414 C3410 0.930 . S
H3415 C3412 0.929 . S
S3416 N3417 1.613 . S
S3416 N3418 1.610 . S
N3417 S3416 1.613 . S
N3417 C3420 1.350 . S
N3418 S3416 1.610 . S
N3418 C3419 1.351 . S
C3419 C3413 1.428 . S
C3419 N3418 1.351 . S
C3419 C3420 1.434 . S
C3420 C3411 1.429 . S
C3420 N3417 1.350 . S
C3420 C3419 1.434 . S
C3421 C3422 1.369 . S
C3421 C3423 1.419 . S
C3421 H3425 0.930 . S
C3422 C3421 1.369 . S
C3422 C3431 1.429 . S
C3423 C3421 1.419 . S
C3423 C3424 1.363 . S
C3423 H3426 0.929 . S
C3424 C3423 1.363 . S
C3424 C3430 1.428 . S
H3425 C3421 0.930 . S
H3426 C3423 0.929 . S
S3427 N3428 1.613 . S
S3427 N3429 1.610 . S
N3428 S3427 1.613 . S
N3428 C3431 1.350 . S
N3429 S3427 1.610 . S
N3429 C3430 1.351 . S
C3430 C3424 1.428 . S
C3430 N3429 1.351 . S
C3430 C3431 1.434 . S
C3431 C3422 1.429 . S
C3431 N3428 1.350 . S
C3431 C3430 1.434 . S
C3432 C3433 1.369 . S
C3432 C3434 1.419 . S
C3432 H3436 0.930 . S
C3433 C3432 1.369 . S
C3433 C3442 1.429 . S
C3434 C3432 1.419 . S
C3434 C3435 1.363 . S
C3434 H3437 0.929 . S
C3435 C3434 1.363 . S
C3435 C3441 1.428 . S
H3436 C3432 0.930 . S
H3437 C3434 0.929 . S
S3438 N3439 1.613 . S
S3438 N3440 1.610 . S
N3439 S3438 1.613 . S
N3439 C3442 1.350 . S
N3440 S3438 1.610 . S
N3440 C3441 1.351 . S
C3441 C3435 1.428 . S
C3441 N3440 1.351 . S
C3441 C3442 1.434 . S
C3442 C3433 1.429 . S
C3442 N3439 1.350 . S
C3442 C3441 1.434 . S
C3443 C3444 1.369 . S
C3443 C3445 1.419 . S
C3443 H3447 0.930 . S
C3444 C3443 1.369 . S
C3444 C3453 1.429 . S
C3445 C3443 1.419 . S
C3445 C3446 1.363 . S
C3445 H3448 0.929 . S
C3446 C3445 1.363 . S
C3446 C3452 1.428 . S
H3447 C3443 0.930 . S
H3448 C3445 0.929 . S
S3449 N3450 1.613 . S
S3449 N3451 1.610 . S
N3450 S3449 1.613 . S
N3450 C3453 1.350 . S
N3451 S3449 1.610 . S
N3451 C3452 1.351 . S
C3452 C3446 1.428 . S
C3452 N3451 1.351 . S
C3452 C3453 1.434 . S
C3453 C3444 1.429 . S
C3453 N3450 1.350 . S
C3453 C3452 1.434 . S
C3454 C3455 1.369 . S
C3454 C3456 1.419 . S
C3454 H3458 0.930 . S
C3455 C3454 1.369 . S
C3455 C3464 1.429 . S
C3456 C3454 1.419 . S
C3456 C3457 1.363 . S
C3456 H3459 0.929 . S
C3457 C3456 1.363 . S
C3457 C3463 1.428 . S
H3458 C3454 0.930 . S
H3459 C3456 0.929 . S
S3460 N3461 1.613 . S
S3460 N3462 1.610 . S
N3461 S3460 1.613 . S
N3461 C3464 1.350 . S
N3462 S3460 1.610 . S
N3462 C3463 1.351 . S
C3463 C3457 1.428 . S
C3463 N3462 1.351 . S
C3463 C3464 1.434 . S
C3464 C3455 1.429 . S
C3464 N3461 1.350 . S
C3464 C3463 1.434 . S
C3465 C3466 1.369 . S
C3465 C3467 1.419 . S
C3465 H3469 0.930 . S
C3466 C3465 1.369 . S
C3466 C3475 1.429 . S
C3467 C3465 1.419 . S
C3467 C3468 1.363 . S
C3467 H3470 0.929 . S
C3468 C3467 1.363 . S
C3468 C3474 1.428 . S
H3469 C3465 0.930 . S
H3470 C3467 0.929 . S
S3471 N3472 1.613 . S
S3471 N3473 1.610 . S
N3472 S3471 1.613 . S
N3472 C3475 1.350 . S
N3473 S3471 1.610 . S
N3473 C3474 1.351 . S
C3474 C3468 1.428 . S
C3474 N3473 1.351 . S
C3474 C3475 1.434 . S
C3475 C3466 1.429 . S
C3475 N3472 1.350 . S
C3475 C3474 1.434 . S
C3476 C3477 1.369 . S
C3476 C3478 1.419 . S
C3476 H3480 0.930 . S
C3477 C3476 1.369 . S
C3477 C3486 1.429 . S
C3478 C3476 1.419 . S
C3478 C3479 1.363 . S
C3478 H3481 0.929 . S
C3479 C3478 1.363 . S
C3479 C3485 1.428 . S
H3480 C3476 0.930 . S
H3481 C3478 0.929 . S
S3482 N3483 1.613 . S
S3482 N3484 1.610 . S
N3483 S3482 1.613 . S
N3483 C3486 1.350 . S
N3484 S3482 1.610 . S
N3484 C3485 1.351 . S
C3485 C3479 1.428 . S
C3485 N3484 1.351 . S
C3485 C3486 1.434 . S
C3486 C3477 1.429 . S
C3486 N3483 1.350 . S
C3486 C3485 1.434 . S
C3487 C3488 1.369 . S
C3487 C3489 1.419 . S
C3487 H3491 0.930 . S
C3488 C3487 1.369 . S
C3488 C3497 1.429 . S
C3489 C3487 1.419 . S
C3489 C3490 1.363 . S
C3489 H3492 0.929 . S
C3490 C3489 1.363 . S
C3490 C3496 1.428 . S
H3491 C3487 0.930 . S
H3492 C3489 0.929 . S
S3493 N3494 1.613 . S
S3493 N3495 1.610 . S
N3494 S3493 1.613 . S
N3494 C3497 1.350 . S
N3495 S3493 1.610 . S
N3495 C3496 1.351 . S
C3496 C3490 1.428 . S
C3496 N3495 1.351 . S
C3496 C3497 1.434 . S
C3497 C3488 1.429 . S
C3497 N3494 1.350 . S
C3497 C3496 1.434 . S
C3498 C3499 1.369 . S
C3498 C3500 1.419 . S
C3498 H3502 0.930 . S
C3499 C3498 1.369 . S
C3499 C3508 1.429 . S
C3500 C3498 1.419 . S
C3500 C3501 1.363 . S
C3500 H3503 0.929 . S
C3501 C3500 1.363 . S
C3501 C3507 1.428 . S
H3502 C3498 0.930 . S
H3503 C3500 0.929 . S
S3504 N3505 1.613 . S
S3504 N3506 1.610 . S
N3505 S3504 1.613 . S
N3505 C3508 1.350 . S
N3506 S3504 1.610 . S
N3506 C3507 1.351 . S
C3507 C3501 1.428 . S
C3507 N3506 1.351 . S
C3507 C3508 1.434 . S
C3508 C3499 1.429 . S
C3508 N3505 1.350 . S
C3508 C3507 1.434 . S
C3509 C3510 1.369 . S
C3509 C3511 1.419 . S
C3509 H3513 0.930 . S
C3510 C3509 1.369 . S
C3510 C3519 1.429 . S
C3511 C3509 1.419 . S
C3511 C3512 1.363 . S
C3511 H3514 0.929 . S
C3512 C3511 1.363 . S
C3512 C3518 1.428 . S
H3513 C3509 0.930 . S
H3514 C3511 0.929 . S
S3515 N3516 1.613 . S
S3515 N3517 1.610 . S
N3516 S3515 1.613 . S
N3516 C3519 1.350 . S
N3517 S3515 1.610 . S
N3517 C3518 1.351 . S
C3518 C3512 1.428 . S
C3518 N3517 1.351 . S
C3518 C3519 1.434 . S
C3519 C3510 1.429 . S
C3519 N3516 1.350 . S
C3519 C3518 1.434 . S
C2817 C548 1.450 . S
C2819 C49 1.446 . S
C2828 C145 1.452 . S
C2830 C645 1.450 . S
C2839 C381 1.452 . S
C2841 C233 1.446 . S
C2850 C313 1.448 . S
C2852 C469 1.452 . S
C2861 C1252 1.445 . S
C2863 C761 1.450 . S
C2872 C1340 1.452 . S
C2874 C849 1.446 . S
C2883 C929 1.447 . S
C2885 C1076 1.452 . S
C2894 C1025 1.452 . S
C2896 C1173 1.450 . S
C2905 C1465 1.445 . S
C2907 C1956 1.451 . S
C2916 C1553 1.446 . S
C2918 C2053 1.452 . S
C2927 C1780 1.446 . S
C2929 C1641 1.452 . S
C2938 C1868 1.449 . S
C2940 C1721 1.452 . S
C2949 C2169 1.445 . S
C2951 C2669 1.450 . S
C2960 C2748 1.452 . S
C2962 C2249 1.446 . S
C2971 C2484 1.447 . S
C2973 C2337 1.452 . S
C2982 C2425 1.452 . S
C2984 C2572 1.450 . S
C2993 C57 1.447 . S
C2995 C2660 1.499 . S
C3004 C1349 1.499 1_554 S
C3006 C137 1.447 . S
C3015 C225 1.442 . S
C3017 C2493 1.501 . S
C3026 C321 1.447 . S
C3028 C1164 1.499 . S
C3037 C2345 1.501 . S
C3039 C372 1.443 . S
C3048 C1017 1.501 1_556 S
C3050 C460 1.446 . S
C3059 C557 1.450 . S
C3061 C2161 1.499 . S
C3070 C841 1.498 . S
C3072 C636 1.449 . S
C3081 C724 1.449 . S
C3083 C1993 1.495 . S
C3092 C665 1.496 1_556 S
C3094 C812 1.448 . S
C3103 C909 1.452 . S
C3105 C1817 1.495 . S
C3114 C988 1.449 . S
C3116 C489 1.495 . S
C3125 C1604 1.497 . S
C3127 C1113 1.448 . S
C3136 C1193 1.452 . S
C3138 C293 1.495 1_554 S
C3147 C1289 1.450 . S
C3149 C1428 1.496 . S
C3158 C108 1.494 . S
C3160 C1377 1.451 . S
C3169 C1457 1.450 . S
C3171 C1261 1.499 . S
C3180 C1545 1.450 . S
C3182 C2757 1.499 . S
C3191 C1085 1.502 . S
C3193 C1633 1.442 . S
C3202 C1729 1.450 . S
C3204 C2581 1.499 1_554 S
C3213 C937 1.503 . S
C3215 C1789 1.442 . S
C3224 C2433 1.501 . S
C3226 C1877 1.444 . S
C3235 C753 1.498 . S
C3237 C1965 1.448 . S
C3246 C2257 1.499 1_556 S
C3248 C2044 1.448 . S
C3257 C2132 1.446 . S
C3259 C585 1.497 . S
C3268 C2073 1.496 . S
C3270 C2229 1.447 . S
C3279 C401 1.494 . S
C3281 C2317 1.452 . S
C3290 C2405 1.445 . S
C3292 C1905 1.498 1_556 S
C3301 C2521 1.447 . S
C3303 C196 1.497 . S
C3312 C2609 1.444 . S
C3314 C1701 1.498 . S
C3323 C29 1.495 . S
C3325 C2689 1.451 . S
C3334 C2785 1.449 . S
C3336 C1516 1.495 1_554 S
C3345 C20 1.172 . S
C3347 C1897 1.180 . S
C3356 C1985 1.182 . S
C3358 C117 1.172 . S
C3367 C205 1.177 . S
C3369 C2081 1.175 . S
C3378 C1809 1.177 . S
C3380 C284 1.175 . S
C3389 C1692 1.182 . S
C3391 C409 1.172 . S
C3400 C1437 1.175 . S
C3402 C497 1.176 . S
C3411 C1525 1.181 . S
C3413 C577 1.172 . S
C3422 C1613 1.173 . S
C3424 C673 1.180 . S
C3433 C733 1.177 . S
C3435 C2601 1.175 . S
C3444 C2697 1.173 . S
C3446 C821 1.174 . S
C3455 C2777 1.173 . S
C3457 C900 1.178 . S
C3466 C2513 1.181 . S
C3468 C997 1.170 . S
C3477 C2396 1.180 . S
C3479 C1105 1.171 . S
C3488 C2141 1.175 . S
C3490 C1201 1.176 . S
C3499 C1281 1.179 . S
C3501 C2220 1.170 . S
C3510 C1369 1.181 . S
C3512 C2308 1.170 . S
