# Generated by pormake.
# Topology wfa, (4)-cn, num edge types: 1
# Building blocks:
#     Node 0, Type 0, BuildingBlock: MUDLON_clean_sbu_0, # of connection points: 4
#     Node 1, Type 0, BuildingBlock: MUDLON_clean_sbu_0, # of connection points: 4
#     Node 2, Type 0, BuildingBlock: MUDLON_clean_sbu_0, # of connection points: 4
#     Node 3, Type 0, BuildingBlock: MUDLON_clean_sbu_0, # of connection points: 4
#     Node 4, Type 0, BuildingBlock: MUDLON_clean_sbu_0, # of connection points: 4
#     Node 5, Type 0, BuildingBlock: MUDLON_clean_sbu_0, # of connection points: 4
#     Node 6, Type 0, BuildingBlock: MUDLON_clean_sbu_0, # of connection points: 4
#     Node 7, Type 0, BuildingBlock: MUDLON_clean_sbu_0, # of connection points: 4
#     Node 8, Type 0, BuildingBlock: MUDLON_clean_sbu_0, # of connection points: 4
#     Node 9, Type 0, BuildingBlock: MUDLON_clean_sbu_0, # of connection points: 4
#     Node 10, Type 0, BuildingBlock: MUDLON_clean_sbu_0, # of connection points: 4
#     Node 11, Type 0, BuildingBlock: MUDLON_clean_sbu_0, # of connection points: 4
#     Node 12, Type 0, BuildingBlock: MUDLON_clean_sbu_0, # of connection points: 4
#     Node 13, Type 0, BuildingBlock: MUDLON_clean_sbu_0, # of connection points: 4
#     Node 14, Type 0, BuildingBlock: MUDLON_clean_sbu_0, # of connection points: 4
#     Node 15, Type 0, BuildingBlock: MUDLON_clean_sbu_0, # of connection points: 4
#     Edge 16, Type (0, 0), BuildingBlock: XUDNAN_clean_linker_2, # of connection points: 2
#     Edge 17, Type (0, 0), BuildingBlock: XUDNAN_clean_linker_2, # of connection points: 2
#     Edge 18, Type (0, 0), BuildingBlock: XUDNAN_clean_linker_2, # of connection points: 2
#     Edge 19, Type (0, 0), BuildingBlock: XUDNAN_clean_linker_2, # of connection points: 2
#     Edge 20, Type (0, 0), BuildingBlock: XUDNAN_clean_linker_2, # of connection points: 2
#     Edge 21, Type (0, 0), BuildingBlock: XUDNAN_clean_linker_2, # of connection points: 2
#     Edge 22, Type (0, 0), BuildingBlock: XUDNAN_clean_linker_2, # of connection points: 2
#     Edge 23, Type (0, 0), BuildingBlock: XUDNAN_clean_linker_2, # of connection points: 2
#     Edge 24, Type (0, 0), BuildingBlock: XUDNAN_clean_linker_2, # of connection points: 2
#     Edge 25, Type (0, 0), BuildingBlock: XUDNAN_clean_linker_2, # of connection points: 2
#     Edge 26, Type (0, 0), BuildingBlock: XUDNAN_clean_linker_2, # of connection points: 2
#     Edge 27, Type (0, 0), BuildingBlock: XUDNAN_clean_linker_2, # of connection points: 2
#     Edge 28, Type (0, 0), BuildingBlock: XUDNAN_clean_linker_2, # of connection points: 2
#     Edge 29, Type (0, 0), BuildingBlock: XUDNAN_clean_linker_2, # of connection points: 2
#     Edge 30, Type (0, 0), BuildingBlock: XUDNAN_clean_linker_2, # of connection points: 2
#     Edge 31, Type (0, 0), BuildingBlock: XUDNAN_clean_linker_2, # of connection points: 2
#     Edge 32, Type (0, 0), BuildingBlock: XUDNAN_clean_linker_2, # of connection points: 2
#     Edge 33, Type (0, 0), BuildingBlock: XUDNAN_clean_linker_2, # of connection points: 2
#     Edge 34, Type (0, 0), BuildingBlock: XUDNAN_clean_linker_2, # of connection points: 2
#     Edge 35, Type (0, 0), BuildingBlock: XUDNAN_clean_linker_2, # of connection points: 2
#     Edge 36, Type (0, 0), BuildingBlock: XUDNAN_clean_linker_2, # of connection points: 2
#     Edge 37, Type (0, 0), BuildingBlock: XUDNAN_clean_linker_2, # of connection points: 2
#     Edge 38, Type (0, 0), BuildingBlock: XUDNAN_clean_linker_2, # of connection points: 2
#     Edge 39, Type (0, 0), BuildingBlock: XUDNAN_clean_linker_2, # of connection points: 2
#     Edge 40, Type (0, 0), BuildingBlock: XUDNAN_clean_linker_2, # of connection points: 2
#     Edge 41, Type (0, 0), BuildingBlock: XUDNAN_clean_linker_2, # of connection points: 2
#     Edge 42, Type (0, 0), BuildingBlock: XUDNAN_clean_linker_2, # of connection points: 2
#     Edge 43, Type (0, 0), BuildingBlock: XUDNAN_clean_linker_2, # of connection points: 2
#     Edge 44, Type (0, 0), BuildingBlock: XUDNAN_clean_linker_2, # of connection points: 2
#     Edge 45, Type (0, 0), BuildingBlock: XUDNAN_clean_linker_2, # of connection points: 2
#     Edge 46, Type (0, 0), BuildingBlock: XUDNAN_clean_linker_2, # of connection points: 2
#     Edge 47, Type (0, 0), BuildingBlock: XUDNAN_clean_linker_2, # of connection points: 2
# Relax obj value: 0.200
# Max RMSD: 0.234
# Mean RMSD: 0.228
data_MOF--net-wfa--node1-MUDLON_clean_sbu_0--edge1-XUDNAN_clean_linker_2
_symmetry_space_group_name_H-M    P1
_symmetry_Int_Tables_number       1
_symmetry_cell_setting            triclinic
loop_
_symmetry_equiv_pos_as_xyz
'x, y, z'
_cell_length_a     48.854754
_cell_length_b     48.808796
_cell_length_c     24.871443
_cell_angle_alpha  89.612643
_cell_angle_beta   89.455151
_cell_angle_gamma 89.87324
loop_
_atom_site_label
_atom_site_type_symbol
_atom_site_fract_x
_atom_site_fract_y
_atom_site_fract_z
_atom_type_partial_charge
Mg0 Mg 0.64027 0.02882 0.0607 0.0
C1 C 0.6713 0.9946 0.14898 0.0
O2 O 0.64955 0.97884 0.15137 0.0
C3 C 0.58036 0.01933 0.03903 0.0
O4 O 0.58406 0.04385 0.01812 0.0
C5 C 0.6798 0.02459 0.96614 0.0
O6 O 0.69399 1.01122 1.00247 0.0
O7 O 0.65665 0.03469 0.97939 0.0
O8 O 0.67267 0.01347 0.11356 0.0
O9 O 0.63214 0.06647 0.10393 0.0
C10 C 0.62602 0.05962 0.15198 0.0
O11 O 0.6224 0.03351 0.16302 0.0
O12 O 0.60086 1.00697 0.05959 0.0
Mg13 Mg 0.45316 0.64338 0.11802 0.0
C14 C 0.41735 0.62357 0.20321 0.0
O15 O 0.44151 0.62635 0.22525 0.0
C16 C 0.45935 0.68697 0.02847 0.0
O17 O 0.46991 0.70161 0.06722 0.0
C18 C 0.45385 0.58892 0.07642 0.0
O19 O 0.43224 0.60171 0.05754 0.0
O20 O 0.47045 0.60254 0.10499 0.0
O21 O 0.41437 0.6312 0.15458 0.0
O22 O 0.47203 0.67035 0.17702 0.0
C23 C 0.45586 0.68875 0.19494 0.0
O24 O 0.43118 0.69047 0.17459 0.0
O25 O 0.45005 0.66318 0.03919 0.0
Mg26 Mg 0.84452 0.54351 0.14106 0.0
C27 C 0.79931 0.54946 0.2232 0.0
O28 O 0.78514 0.54416 0.17988 0.0
C29 C 0.90432 0.55696 0.14698 0.0
O30 O 0.90245 0.53616 0.18063 0.0
C31 C 0.8193 0.54832 0.02819 0.0
O32 O 0.84405 0.54145 1.01207 0.0
O33 O 0.81435 0.55049 0.07826 0.0
O34 O 0.82522 0.55172 0.21901 0.0
O35 O 0.85861 0.50135 0.14352 0.0
C36 C 0.85251 0.48522 0.18214 0.0
O37 O 0.83377 0.49272 0.21732 0.0
O38 O 0.8825 0.56619 0.12566 0.0
Mg39 Mg 0.10768 0.85085 0.96499 0.0
C40 C 0.09865 0.86538 0.07265 0.0
O41 O 0.12307 0.87361 0.05698 0.0
C42 C 0.10746 0.82669 0.85627 0.0
O43 O 0.1305 0.84048 0.85814 0.0
C44 C 0.09773 0.90737 0.9233 0.0
O45 O 0.07346 0.89583 0.92272 0.0
O46 O 0.11804 0.89294 0.93876 0.0
O47 O 0.08268 0.85557 0.03743 0.0
O48 O 0.13896 0.82578 1.00473 0.0
C49 C 0.12967 0.80237 0.01876 0.0
O50 O 0.10614 0.79456 0.99884 0.0
O51 O 0.09162 0.82728 0.89725 0.0
Mg52 Mg 0.13738 0.95689 0.48881 0.0
C53 C 0.1683 0.98995 0.39984 0.0
O54 O 0.14884 1.00825 0.40666 0.0
C55 C 0.08184 0.98036 0.52029 0.0
O56 O 0.08759 0.96731 0.56517 0.0
C57 C 0.17915 0.96125 0.58009 0.0
O58 O 0.19656 0.96089 0.53952 0.0
O59 O 0.15366 0.95879 0.57074 0.0
O60 O 0.16863 0.96869 0.42964 0.0
O61 O 0.1264 0.91675 0.45748 0.0
C62 C 0.1016 0.91029 0.44863 0.0
O63 O 0.08199 0.92453 0.47173 0.0
O64 O 0.09978 0.98106 0.48275 0.0
Mg65 Mg 0.50744 0.1481 0.51101 0.0
C66 C 0.56617 0.13503 0.48087 0.0
O67 O 0.56063 0.11215 0.5068 0.0
C68 C 0.50795 0.19776 0.58315 0.0
O69 O 0.52531 0.20604 0.54582 0.0
C70 C 0.51114 0.0943 0.57276 0.0
O71 O 0.52351 0.11073 0.60636 0.0
O72 O 0.50146 0.1044 0.52955 0.0
O73 O 0.54921 0.15469 0.4839 0.0
O74 O 0.48775 0.16022 0.43583 0.0
C75 C 0.48503 0.18542 0.42326 0.0
O76 O 0.48841 0.20398 0.46053 0.0
O77 O 0.49723 0.17414 0.57942 0.0
Mg78 Mg 0.33268 0.54304 0.53156 0.0
C79 C 0.28472 0.55654 0.4662 0.0
O80 O 0.27777 0.5344 0.49336 0.0
C81 C 0.39304 0.536 0.55058 0.0
O82 O 0.38398 0.5107 0.55374 0.0
C83 C 0.29142 0.55292 0.62593 0.0
O84 O 0.27774 0.56741 0.59049 0.0
O85 O 0.31393 0.54166 0.61201 0.0
O86 O 0.30806 0.56713 0.47489 0.0
O87 O 0.33022 0.50146 0.49955 0.0
C88 C 0.3299 0.4951 0.44988 0.0
O89 O 0.3253 0.46953 0.43666 0.0
O90 O 0.37589 0.55514 0.54129 0.0
Mg91 Mg 0.0669 0.3638 0.32 0.0
C92 C 0.01628 0.38199 0.26819 0.0
O93 O 0.0357 0.38986 0.23462 0.0
C94 C 0.06983 0.33803 0.43469 0.0
O95 O 0.0579 0.36088 0.44989 0.0
C96 C 0.06556 0.42089 0.3609 0.0
O97 O 0.04288 0.40959 0.37906 0.0
O98 O 0.08218 0.40593 0.3341 0.0
O99 O 0.02302 0.36909 0.31065 0.0
O100 O 0.07913 0.34363 0.24472 0.0
C101 C 0.06435 0.32297 0.23335 0.0
O102 O 0.04463 0.31604 0.26705 0.0
O103 O 0.07578 0.33472 0.3852 0.0
Mg104 Mg 0.32657 0.97439 0.9841 0.0
C105 C 0.27759 0.99061 0.91929 0.0
O106 O 0.26706 0.98825 0.96789 0.0
C107 C 0.38375 0.97158 0.02108 0.0
O108 O 0.37113 0.95093 0.04463 0.0
C109 C 0.29408 0.96688 0.09132 0.0
O110 O 0.29944 0.94073 0.08464 0.0
O111 O 0.30319 0.98418 0.0571 0.0
O112 O 0.30346 0.98837 0.9135 0.0
O113 O 0.3307 0.93107 0.96732 0.0
C114 C 0.31307 0.9179 0.94053 0.0
O115 O 0.28866 0.9286 0.9337 0.0
O116 O 0.36965 0.98758 0.99138 0.0
Mg117 Mg 0.50502 0.33361 1.01029 0.0
C118 C 0.48411 0.29026 0.92793 0.0
O119 O 0.48732 0.27202 0.96638 0.0
C120 C 0.49843 0.39233 0.04661 0.0
O121 O 0.52405 0.38813 0.06007 0.0
C122 C 0.51511 0.28291 0.08141 0.0
O123 O 0.53049 0.27559 0.04031 0.0
O124 O 0.50319 0.30611 0.08029 0.0
O125 O 0.48771 0.31552 0.93799 0.0
O126 O 0.54546 0.34563 0.98124 0.0
C127 C 0.5428 0.35911 0.93756 0.0
O128 O 0.51798 0.36333 0.91934 0.0
O129 O 0.48481 0.37261 0.02693 0.0
Mg130 Mg 0.15728 0.60362 0.02887 0.0
C131 C 0.19938 0.56712 0.97636 0.0
O132 O 0.21316 0.57454 0.01893 0.0
C133 C 0.10021 0.5874 0.06986 0.0
O134 O 0.11486 0.5736 0.10487 0.0
C135 C 0.19557 0.6089 0.12897 0.0
O136 O 0.21175 0.62347 0.09752 0.0
O137 O 0.17344 0.59926 0.11028 0.0
O138 O 0.17423 0.57364 0.97316 0.0
O139 O 0.16998 0.63988 0.98398 0.0
C140 C 0.15202 0.65113 0.95445 0.0
O141 O 0.12613 0.64577 0.96454 0.0
O142 O 0.11248 0.60124 0.03335 0.0
Mg143 Mg 0.06448 0.16458 0.81891 0.0
C144 C 0.07816 0.21131 0.74386 0.0
O145 O 0.06946 0.22447 0.78667 0.0
C146 C 0.06855 0.10262 0.83439 0.0
O147 O 0.04225 0.10553 0.82548 0.0
C148 C 0.05533 0.19667 0.92572 0.0
O149 O 0.03233 0.1828 0.92861 0.0
O150 O 0.0716 0.19259 0.88627 0.0
O151 O 0.0799 0.18526 0.74605 0.0
O152 O 0.02113 0.15746 0.80228 0.0
C153 C 1.00721 0.17327 0.77206 0.0
O154 O 0.01813 0.19636 0.75517 0.0
O155 O 0.08362 0.12396 0.83367 0.0
Mg156 Mg 0.83061 0.02682 0.55467 0.0
C157 C 0.78138 0.02874 0.62196 0.0
O158 O 0.77553 0.04311 0.57868 0.0
C159 C 0.88312 0.01422 0.50561 0.0
O160 O 0.87058 0.03087 0.47212 0.0
C161 C 0.79823 0.03353 0.44466 0.0
O162 O 0.80574 0.05935 0.44335 0.0
O163 O 0.80598 0.01819 0.48327 0.0
O164 O 0.80472 0.01717 0.62441 0.0
O165 O 0.84588 0.06771 0.572 0.0
C166 C 0.85948 0.06565 0.61537 0.0
O167 O 0.85952 0.0419 0.6406 0.0
O168 O 0.86996 1.00576 0.54693 0.0
Mg169 Mg 0.47413 0.83553 0.62007 0.0
C170 C 0.47964 0.78321 0.68082 0.0
O171 O 0.47138 0.77491 0.63353 0.0
C172 C 0.48493 0.89402 0.58928 0.0
O173 O 0.46476 0.88771 0.55707 0.0
C174 C 0.46095 0.80858 0.51121 0.0
O175 O 0.43611 0.8177 0.52119 0.0
O176 O 0.47993 0.81369 0.54431 0.0
O177 O 0.48512 0.80848 0.68681 0.0
O178 O 0.43247 0.84557 0.64242 0.0
C179 C 0.41371 0.8284 0.65368 0.0
O180 O 0.41696 0.80251 0.64119 0.0
O181 O 0.49463 0.87539 0.61988 0.0
Mg182 Mg 0.64999 0.52965 0.65091 0.0
C183 C 0.69506 0.55013 0.72058 0.0
O184 O 0.70884 0.54025 0.67944 0.0
C185 C 0.59172 0.52835 0.61452 0.0
O186 O 0.599 0.50245 0.61225 0.0
C187 C 0.67454 0.53494 0.53536 0.0
O188 O 0.6491 0.53894 0.52054 0.0
O189 O 0.67965 0.53013 0.58458 0.0
O190 O 0.669 0.55039 0.71868 0.0
O191 O 0.64266 0.48853 0.68227 0.0
C192 C 0.65851 0.47685 0.71571 0.0
O193 O 0.68188 0.48851 0.72743 0.0
O194 O 0.60953 0.5459 0.62862 0.0
Mg195 Mg 0.13052 0.67181 0.46129 0.0
C196 C 0.11637 0.72036 0.52316 0.0
O197 O 0.14152 0.72426 0.50554 0.0
C198 C 0.1246 0.61207 0.42203 0.0
O199 O 0.15103 0.61458 0.41313 0.0
C200 C 0.13708 0.69009 0.34446 0.0
O201 O 0.11841 0.671 0.33897 0.0
O202 O 0.1469 0.69422 0.391 0.0
O203 O 0.10329 0.69981 0.50534 0.0
O204 O 0.15855 0.66531 0.52817 0.0
C205 C 0.14419 0.65885 0.56934 0.0
O206 O 0.11831 0.65263 0.56229 0.0
O207 O 0.11124 0.6325 0.44062 0.0
H208 H 0.60115 0.09372 0.45414 0.0
H209 H 0.57422 0.17437 0.4027 0.0
H210 H 0.59545 0.16687 0.31378 0.0
H211 H 0.66628 0.09008 0.36473 0.0
H212 H 0.65989 0.05418 0.35396 0.0
H213 H 0.65073 0.06961 0.41729 0.0
H214 H 0.60121 0.05157 0.40554 0.0
H215 H 0.6101 0.03714 0.34165 0.0
H216 H 0.5823 0.06138 0.34649 0.0
H217 H 0.60918 0.14633 0.22484 0.0
H218 H 0.61617 0.11534 0.1471 0.0
H219 H 0.63306 0.04831 0.25719 0.0
C220 C 0.60088 0.11035 0.42511 0.0
C221 C 0.58597 0.13454 0.43542 0.0
C222 C 0.58567 0.15566 0.39596 0.0
C223 C 0.59769 0.15159 0.34516 0.0
C224 C 0.61038 0.12653 0.33481 0.0
C225 C 0.61261 0.10649 0.37425 0.0
C226 C 0.62317 0.07986 0.35123 0.0
C227 C 0.65173 0.07305 0.3731 0.0
C228 C 0.60298 0.05613 0.36184 0.0
C229 C 0.6246 0.08741 0.29229 0.0
C230 C 0.61791 0.11458 0.28344 0.0
C231 C 0.61515 0.12522 0.23141 0.0
C232 C 0.61901 0.10752 0.18752 0.0
C233 C 0.62492 0.07949 0.19633 0.0
C234 C 0.62844 0.06967 0.24928 0.0
H235 H 0.36544 0.53757 0.45255 0.0
H236 H 0.30771 0.49751 0.34906 0.0
H237 H 0.32002 0.52978 0.27524 0.0
H238 H 0.35324 0.60842 0.4006 0.0
H239 H 0.38875 0.61741 0.40835 0.0
H240 H 0.37303 0.59299 0.45362 0.0
H241 H 0.41064 0.55747 0.43007 0.0
H242 H 0.42648 0.58155 0.38463 0.0
H243 H 0.41641 0.5483 0.36076 0.0
H244 H 0.34257 0.56406 0.21056 0.0
H245 H 0.37303 0.59645 0.16171 0.0
H246 H 0.41437 0.61447 0.31088 0.0
C247 C 0.3545 0.53643 0.41541 0.0
C248 C 0.33512 0.5157 0.40718 0.0
C249 C 0.32246 0.51356 0.35639 0.0
C250 C 0.32922 0.53186 0.3144 0.0
C251 C 0.34858 0.55218 0.3241 0.0
C252 C 0.36081 0.55465 0.3737 0.0
C253 C 0.38224 0.57691 0.37344 0.0
C254 C 0.3738 0.60032 0.41124 0.0
C255 C 0.4106 0.56535 0.38805 0.0
C256 C 0.38108 0.58589 0.31524 0.0
C257 C 0.36135 0.57171 0.28739 0.0
C258 C 0.35777 0.57557 0.23221 0.0
C259 C 0.37505 0.5941 0.20482 0.0
C260 C 0.39593 0.60806 0.23259 0.0
C261 C 0.39845 0.60425 0.28863 0.0
H262 H 0.90091 0.47212 0.13249 0.0
H263 H 0.84588 0.44606 0.26085 0.0
H264 H 0.88037 0.4124 0.29129 0.0
H265 H 0.93379 0.40411 0.10725 0.0
H266 H 0.96672 0.4198 0.09579 0.0
H267 H 0.93589 0.43809 0.07864 0.0
H268 H 0.95112 0.4786 0.13819 0.0
H269 H 0.98174 0.46035 0.15598 0.0
H270 H 0.95882 0.47237 0.20795 0.0
H271 H 0.92339 0.38645 0.31538 0.0
H272 H 0.97062 0.36957 0.32916 0.0
H273 H 0.99709 0.41327 0.18532 0.0
C274 C 0.89566 0.45871 0.16587 0.0
C275 C 0.87058 0.4616 0.19405 0.0
C276 C 0.86487 0.44409 0.23839 0.0
C277 C 0.88434 0.4249 0.25598 0.0
C278 C 0.90934 0.42339 0.22861 0.0
C279 C 0.91489 0.43966 0.18411 0.0
C280 C 0.94416 0.43617 0.16495 0.0
C281 C 0.94519 0.42379 0.1083 0.0
C282 C 0.95986 0.46348 0.16693 0.0
C283 C 0.95451 0.41605 0.20662 0.0
C284 C 0.93409 0.40864 0.24267 0.0
C285 C 0.9394 0.39173 0.28682 0.0
C286 C 0.9663 0.38231 0.29442 0.0
C287 C 0.98753 0.38998 0.2582 0.0
C288 C 0.9813 0.40676 0.21344 0.0
H289 H 0.13508 0.86585 0.15368 0.0
H290 H 0.04786 0.86438 0.12317 0.0
H291 H 0.03878 0.86789 0.22143 0.0
H292 H 0.13294 0.82731 0.28293 0.0
H293 H 0.15992 0.84791 0.31051 0.0
H294 H 0.15908 0.84138 0.23929 0.0
H295 H 0.16011 0.89352 0.21998 0.0
H296 H 0.16071 0.90045 0.29077 0.0
H297 H 0.13429 0.91527 0.24969 0.0
H298 H 0.03998 0.87829 0.32176 0.0
H299 H 0.05086 0.89559 0.41212 0.0
H300 H 0.13755 0.88858 0.37526 0.0
C301 C 0.114 0.86589 0.16753 0.0
C302 C 0.09212 0.8651 0.13086 0.0
C303 C 0.06489 0.86496 0.15069 0.0
C304 C 0.05961 0.86684 0.20637 0.0
C305 C 0.08181 0.86821 0.2414 0.0
C306 C 0.10847 0.86745 0.2225 0.0
C307 C 0.12885 0.87143 0.26715 0.0
C308 C 0.14621 0.84546 0.27547 0.0
C309 C 0.14703 0.89666 0.25621 0.0
C310 C 0.10955 0.87603 0.3141 0.0
C311 C 0.08249 0.87361 0.29884 0.0
C312 C 0.06108 0.87969 0.33429 0.0
C313 C 0.06749 0.88949 0.38567 0.0
C314 C 0.09509 0.89338 0.40102 0.0
C315 C 0.11626 0.88543 0.36531 0.0
H316 H 0.36587 0.90385 0.9178 0.0
H317 H 0.28201 0.88349 0.87875 0.0
H318 H 0.29877 0.85406 0.80466 0.0
H319 H 0.38673 0.91404 0.78897 0.0
H320 H 0.42089 0.90068 0.79679 0.0
H321 H 0.40304 0.91485 0.85367 0.0
H322 H 0.4095 0.86954 0.90714 0.0
H323 H 0.42796 0.85533 0.85075 0.0
H324 H 0.39861 0.83765 0.87821 0.0
H325 H 0.32528 0.83029 0.72845 0.0
H326 H 0.35863 0.8163 0.65736 0.0
H327 H 0.42341 0.85694 0.74364 0.0
C328 C 0.35097 0.89242 0.89513 0.0
C329 C 0.32262 0.89571 0.90457 0.0
C330 C 0.30386 0.881 0.87267 0.0
C331 C 0.31319 0.86427 0.83045 0.0
C332 C 0.34131 0.86258 0.82062 0.0
C333 C 0.35988 0.87622 0.8524 0.0
C334 C 0.38866 0.87412 0.83001 0.0
C335 C 0.40049 0.90261 0.81656 0.0
C336 C 0.40727 0.85821 0.86883 0.0
C337 C 0.38335 0.85791 0.77974 0.0
C338 C 0.35611 0.85075 0.7754 0.0
C339 C 0.34665 0.83578 0.73161 0.0
C340 C 0.36559 0.82804 0.69139 0.0
C341 C 0.39329 0.8361 0.69476 0.0
C342 C 0.40216 0.85102 0.73963 0.0
H343 H 0.60896 0.45123 0.70848 0.0
H344 H 0.68496 0.44975 0.79737 0.0
H345 H 0.66526 0.41536 0.85992 0.0
H346 H 0.56597 0.44993 0.81817 0.0
H347 H 0.54021 0.42851 0.78869 0.0
H348 H 0.56166 0.44949 0.74625 0.0
H349 H 0.57698 0.40668 0.69261 0.0
H350 H 0.55532 0.38551 0.73462 0.0
H351 H 0.59125 0.37766 0.72781 0.0
H352 H 0.63486 0.38521 0.91945 0.0
H353 H 0.59698 0.36174 0.96831 0.0
H354 H 0.54169 0.38381 0.83946 0.0
C355 C 0.62178 0.44316 0.74017 0.0
C356 C 0.64855 0.45315 0.74784 0.0
C357 C 0.66444 0.44231 0.79043 0.0
C358 C 0.65342 0.42275 0.82622 0.0
C359 C 0.62658 0.41406 0.81859 0.0
C360 C 0.61111 0.42375 0.77617 0.0
C361 C 0.58214 0.41302 0.77901 0.0
C362 C 0.56129 0.43664 0.78331 0.0
C363 C 0.57607 0.39462 0.73064 0.0
C364 C 0.58341 0.39653 0.83059 0.0
C365 C 0.60923 0.397 0.85269 0.0
C366 C 0.61466 0.38437 0.90205 0.0
C367 C 0.59306 0.37113 0.92957 0.0
C368 C 0.5664 0.37092 0.90776 0.0
C369 C 0.56182 0.38349 0.85729 0.0
H370 H 0.11341 0.67472 0.65416 0.0
H371 H 0.19656 0.65287 0.60965 0.0
H372 H 0.21022 0.65682 0.70543 0.0
H373 H 0.13117 0.72329 0.76279 0.0
H374 H 0.10247 0.71272 0.80399 0.0
H375 H 0.10005 0.71186 0.73186 0.0
H376 H 0.08709 0.66073 0.73417 0.0
H377 H 0.0885 0.66111 0.80623 0.0
H378 H 0.10884 0.63672 0.76906 0.0
H379 H 0.21249 0.65685 0.8084 0.0
H380 H 0.20293 0.65054 0.90543 0.0
H381 H 0.11837 0.67408 0.87997 0.0
C382 C 0.13462 0.67108 0.66435 0.0
C383 C 0.15392 0.66319 0.62477 0.0
C384 C 0.1815 0.65895 0.63952 0.0
C385 C 0.1894 0.66126 0.69372 0.0
C386 C 0.16956 0.66849 0.73208 0.0
C387 C 0.14279 0.67364 0.71764 0.0
C388 C 0.12467 0.67879 0.76616 0.0
C389 C 0.114 0.70844 0.76622 0.0
C390 C 0.10091 0.6581 0.76907 0.0
C391 C 0.14497 0.67413 0.81074 0.0
C392 C 0.17093 0.66883 0.79057 0.0
C393 C 0.19234 0.6614 0.82447 0.0
C394 C 0.18673 0.658 0.87972 0.0
C395 C 0.15986 0.66188 0.90048 0.0
C396 C 0.13917 0.67124 0.86561 0.0
H397 H 0.98157 0.12392 0.78887 0.0
H398 H 0.97371 0.20101 0.70233 0.0
H399 H 0.93303 0.18321 0.65592 0.0
H400 H 0.96524 0.08151 0.68112 0.0
H401 H 0.9466 0.05676 0.72104 0.0
H402 H 0.97339 0.07653 0.75107 0.0
H403 H 0.93945 0.09372 0.8243 0.0
H404 H 0.91255 0.07383 0.79465 0.0
H405 H 0.90799 0.11012 0.80443 0.0
H406 H 0.89543 0.15489 0.61228 0.0
H407 H 0.8635 0.11933 0.5794 0.0
H408 H 0.89623 0.06191 0.6964 0.0
C409 C 0.971 0.13731 0.76102 0.0
C410 C 0.98084 0.16392 0.74947 0.0
C411 C 0.96654 0.18059 0.71211 0.0
C412 C 0.9434 0.17064 0.68544 0.0
C413 C 0.93466 0.14404 0.69676 0.0
C414 C 0.94792 0.12773 0.7341 0.0
C415 C 0.93538 0.09947 0.73732 0.0
C416 C 0.9564 0.07728 0.72169 0.0
C417 C 0.92311 0.09398 0.79351 0.0
C418 C 0.91325 0.10228 0.69548 0.0
C419 C 0.91303 0.12807 0.67239 0.0
C420 C 0.89518 0.13473 0.63066 0.0
C421 C 0.87715 0.11444 0.61216 0.0
C422 C 0.87714 0.08792 0.63555 0.0
C423 C 0.89536 0.08206 0.67799 0.0
H424 H 0.73005 1.00836 0.92667 0.0
H425 H 0.65352 0.04637 0.87876 0.0
H426 H 0.67076 0.04975 0.78534 0.0
H427 H 0.77373 0.04949 0.84187 0.0
H428 H 0.797 0.02186 0.82648 0.0
H429 H 0.77846 0.02187 0.88941 0.0
H430 H 0.75905 0.97383 0.86818 0.0
H431 H 0.77743 0.97373 0.80504 0.0
H432 H 0.7409 0.96863 0.80631 0.0
H433 H 0.69618 0.04938 0.69766 0.0
H434 H 0.72868 0.04701 0.62164 0.0
H435 H 0.78921 1.0094 0.72567 0.0
C436 C 0.71686 0.01736 0.89656 0.0
C437 C 0.69035 0.02707 0.91015 0.0
C438 C 0.67387 0.03882 0.86947 0.0
C439 C 0.68346 0.04076 0.81622 0.0
C440 C 0.7096 0.03091 0.80422 0.0
C441 C 0.72615 0.01955 0.8432 0.0
C442 C 0.75367 1.01107 0.81972 0.0
C443 C 0.77709 0.02703 0.84593 0.0
C444 C 0.75801 0.97996 0.82514 0.0
C445 C 0.75003 0.01951 0.76142 0.0
C446 C 0.7244 0.03081 0.75346 0.0
C447 C 0.71629 0.04056 0.70339 0.0
C448 C 0.73496 0.0391 0.66041 0.0
C449 C 0.76154 0.02799 0.66754 0.0
C450 C 0.769 0.01781 0.71876 0.0
H451 H 0.4859 0.79482 0.78875 0.0
H452 H 0.46984 0.72827 0.67846 0.0
H453 H 0.46264 0.69689 0.75516 0.0
H454 H 0.52214 0.75351 0.88887 0.0
H455 H 0.50769 0.77193 0.94497 0.0
H456 H 0.51268 0.78904 0.88123 0.0
H457 H 0.46136 0.80254 0.88053 0.0
H458 H 0.45613 0.78522 0.94396 0.0
H459 H 0.43572 0.77619 0.88678 0.0
H460 H 0.4545 0.67319 0.84309 0.0
H461 H 0.44974 0.65766 0.93725 0.0
H462 H 0.472 0.73892 0.9917 0.0
C463 C 0.48131 0.77355 0.78073 0.0
C464 C 0.4785 0.76405 0.72741 0.0
C465 C 0.47215 0.7361 0.71879 0.0
C466 C 0.46794 0.71808 0.76215 0.0
C467 C 0.47024 0.7282 0.81409 0.0
C468 C 0.47707 0.75518 0.82369 0.0
C469 C 0.47793 0.76077 0.88362 0.0
C470 C 0.50683 0.76931 0.90067 0.0
C471 C 0.45651 0.78246 0.89965 0.0
C472 C 0.47045 0.73272 0.90604 0.0
C473 C 0.46592 0.71433 0.86512 0.0
C474 C 0.45819 0.68734 0.87553 0.0
C475 C 0.45541 0.67874 0.92921 0.0
C476 C 0.46056 0.697 0.972 0.0
C477 C 0.46803 0.72441 0.95999 0.0
H478 H 0.82202 0.54278 0.91833 0.0
H479 H 0.76629 0.56413 0.04852 0.0
H480 H 0.72905 0.5705 0.98313 0.0
H481 H 0.79438 0.59038 0.81853 0.0
H482 H 0.79898 0.56665 0.76395 0.0
H483 H 0.82165 0.56546 0.82065 0.0
H484 H 0.80999 0.51418 0.83585 0.0
H485 H 0.78741 0.51521 0.77915 0.0
H486 H 0.77472 0.50406 0.84395 0.0
H487 H 0.69708 0.57204 0.90356 0.0
H488 H 0.67308 0.56744 0.81694 0.0
H489 H 0.74997 0.54553 0.73939 0.0
C490 C 0.80208 0.54907 0.93313 0.0
C491 C 0.79716 0.55301 0.98864 0.0
C492 C 0.77063 0.56101 1.00621 0.0
C493 C 0.74933 0.56477 0.96934 0.0
C494 C 0.75485 0.56055 0.91494 0.0
C495 C 0.78059 0.55289 0.89691 0.0
C496 C 0.7809 0.54846 0.8367 0.0
C497 C 0.80011 0.56897 0.80829 0.0
C498 C 0.78871 0.51871 0.82314 0.0
C499 C 0.75122 0.55437 0.82379 0.0
C500 C 0.73653 0.56151 0.86932 0.0
C501 C 0.70845 0.56672 0.86755 0.0
C502 C 0.69499 0.5641 0.81814 0.0
C503 C 0.7096 0.55627 0.77121 0.0
C504 C 0.73818 0.55183 0.77427 0.0
H505 H 0.13762 0.8235 0.76371 0.0
H506 H 0.06358 0.79202 0.8391 0.0
H507 H 0.05526 0.76342 0.75872 0.0
H508 H 0.11285 0.82631 0.62708 0.0
H509 H 0.14528 0.81576 0.59886 0.0
H510 H 0.14421 0.83452 0.66097 0.0
H511 H 0.17165 0.79577 0.70817 0.0
H512 H 0.17298 0.77708 0.64612 0.0
H513 H 0.1591 0.76108 0.70591 0.0
H514 H 0.0569 0.73628 0.66942 0.0
H515 H 0.06924 0.71279 0.58433 0.0
H516 H 0.14171 0.7636 0.56994 0.0
C517 C 0.11944 0.81085 0.76339 0.0
C518 C 0.10118 0.81018 0.80779 0.0
C519 C 0.0778 0.79306 0.8055 0.0
C520 C 0.07291 0.77676 0.75993 0.0
C521 C 0.09148 0.77793 0.71688 0.0
C522 C 0.11429 0.7946 0.71854 0.0
C523 C 0.13194 0.79151 0.66868 0.0
C524 C 0.13366 0.81864 0.63704 0.0
C525 C 0.1606 0.78071 0.68311 0.0
C526 C 0.11572 0.77032 0.63855 0.0
C527 C 0.09235 0.76272 0.66652 0.0
C528 C 0.075 0.7424 0.64702 0.0
C529 C 0.08211 0.72921 0.59853 0.0
C530 C 0.10633 0.73646 0.57 0.0
C531 C 0.12291 0.75766 0.5902 0.0
H532 H 0.2324 0.96216 0.61566 0.0
H533 H 0.14831 0.97249 0.67009 0.0
H534 H 0.1647 0.98356 0.76102 0.0
H535 H 0.25672 0.92995 0.7375 0.0
H536 H 0.28974 0.9463 0.73424 0.0
H537 H 0.27137 0.93958 0.67332 0.0
H538 H 0.27458 0.99098 0.64728 0.0
H539 H 0.29272 0.9979 0.70843 0.0
H540 H 0.26176 0.01646 0.6933 0.0
H541 H 0.19013 0.994 0.84567 0.0
H542 H 0.22241 0.9993 0.92037 0.0
H543 H 0.2903 0.98155 0.81207 0.0
C544 C 0.2174 0.96672 0.64668 0.0
C545 C 0.189 0.96652 0.63551 0.0
C546 C 0.17012 0.97245 0.67749 0.0
C547 C 0.17925 0.9789 0.72927 0.0
C548 C 0.20735 0.97922 0.73867 0.0
C549 C 0.22615 0.97301 0.69875 0.0
C550 C 0.25519 0.97404 0.71998 0.0
C551 C 0.26907 0.94579 0.71603 0.0
C552 C 0.27205 0.99617 0.69048 0.0
C553 C 0.24978 0.98185 0.77809 0.0
C554 C 0.22204 0.98489 0.78782 0.0
C555 C 0.21188 0.99162 0.83853 0.0
C556 C 0.23046 0.99468 0.88072 0.0
C557 C 0.25898 0.99096 0.87226 0.0
C558 C 0.26871 0.98487 0.81986 0.0
H559 H 0.49363 0.18345 0.68671 0.0
H560 H 0.50686 0.25344 0.58136 0.0
H561 H 0.49667 0.28465 0.65673 0.0
H562 H 0.43917 0.2135 0.77177 0.0
H563 H 0.45227 0.19828 0.83257 0.0
H564 H 0.45726 0.18129 0.76909 0.0
H565 H 0.50963 0.18029 0.78449 0.0
H566 H 0.50479 0.19713 0.84801 0.0
H567 H 0.52734 0.21185 0.79789 0.0
H568 H 0.48736 0.30823 0.74361 0.0
H569 H 0.48419 0.32284 0.83798 0.0
H570 H 0.47938 0.23769 0.88914 0.0
C571 C 0.49385 0.20535 0.67943 0.0
C572 C 0.50072 0.2161 0.62816 0.0
C573 C 0.50157 0.24484 0.62034 0.0
C574 C 0.49564 0.2627 0.66279 0.0
C575 C 0.48917 0.25151 0.713 0.0
C576 C 0.48851 0.22352 0.72174 0.0
C577 C 0.48364 0.21693 0.78076 0.0
C578 C 0.45646 0.20159 0.78901 0.0
C579 C 0.50779 0.20059 0.80415 0.0
C580 C 0.48214 0.24558 0.80389 0.0
C581 C 0.48485 0.26519 0.76387 0.0
C582 C 0.48506 0.29308 0.77529 0.0
C583 C 0.48318 0.30117 0.82916 0.0
C584 C 0.4815 0.28145 0.8712 0.0
C585 C 0.48041 0.2533 0.85804 0.0
H586 H 0.24119 0.5688 0.66626 0.0
H587 H 0.31752 0.52978 0.71214 0.0
H588 H 0.30038 0.52534 0.80545 0.0
H589 H 0.23153 0.60788 0.784 0.0
H590 H 0.1949 0.60344 0.78649 0.0
H591 H 0.21278 0.60213 0.72303 0.0
H592 H 0.19193 0.55427 0.70577 0.0
H593 H 0.17434 0.55544 0.76974 0.0
H594 H 0.19682 0.52717 0.75438 0.0
H595 H 0.27656 0.52846 0.89512 0.0
H596 H 0.24767 0.53894 0.97452 0.0
H597 H 0.18603 0.57414 0.8702 0.0
C598 C 0.25426 0.55915 0.69582 0.0
C599 C 0.28076 0.54968 0.68175 0.0
C600 C 0.29715 0.53717 0.72177 0.0
C601 C 0.28756 0.53449 0.77493 0.0
C602 C 0.26141 0.54412 0.78745 0.0
C603 C 0.24491 0.55608 0.74901 0.0
C604 C 0.21792 0.56547 0.7734 0.0
C605 C 0.21408 0.59658 0.76633 0.0
C606 C 0.19383 0.54963 0.74939 0.0
C607 C 0.22218 0.55769 0.83188 0.0
C608 C 0.24733 0.54521 0.83903 0.0
C609 C 0.25665 0.53781 0.88992 0.0
C610 C 0.2401 0.5438 0.93478 0.0
C611 C 0.21443 0.5569 0.92852 0.0
C612 C 0.2052 0.56341 0.87619 0.0
H613 H 0.06096 0.33874 0.54413 0.0
H614 H 0.09106 0.28684 0.41532 0.0
H615 H 0.09866 0.24935 0.48075 0.0
H616 H 0.10817 0.31442 0.64646 0.0
H617 H 0.08292 0.31623 0.69965 0.0
H618 H 0.08089 0.33928 0.64293 0.0
H619 H 0.03138 0.32299 0.62489 0.0
H620 H 0.03326 0.29994 0.68154 0.0
H621 H 0.02483 0.28696 0.61609 0.0
H622 H 0.10078 0.21648 0.56034 0.0
H623 H 0.09755 0.19154 0.6472 0.0
H624 H 0.06701 0.2654 0.72351 0.0
C625 C 0.06934 0.31958 0.52962 0.0
C626 C 0.07542 0.31582 0.47443 0.0
C627 C 0.08628 0.29032 0.45734 0.0
C628 C 0.09069 0.26886 0.49424 0.0
C629 C 0.08431 0.2732 0.54827 0.0
C630 C 0.07397 0.29798 0.56592 0.0
C631 C 0.0682 0.29722 0.62588 0.0
C632 C 0.08612 0.31802 0.65546 0.0
C633 C 0.0376 0.30206 0.63777 0.0
C634 C 0.07657 0.26805 0.63913 0.0
C635 C 0.08586 0.25449 0.59392 0.0
C636 C 0.09376 0.227 0.59608 0.0
C637 C 0.09187 0.21299 0.64561 0.0
C638 C 0.08222 0.22649 0.69237 0.0
C639 C 0.07478 0.25448 0.6888 0.0
H640 H 0.20101 0.94983 0.35612 0.0
H641 H 0.18015 0.03598 0.34033 0.0
H642 H 0.21147 0.03986 0.26197 0.0
H643 H 0.2729 0.9556 0.31654 0.0
H644 H 0.27279 0.92381 0.28007 0.0
H645 H 0.25014 0.92834 0.33693 0.0
H646 H 0.20904 0.91622 0.27745 0.0
H647 H 0.2311 0.91221 0.21971 0.0
H648 H 0.20267 0.93578 0.21706 0.0
H649 H 0.24423 0.03401 0.18375 0.0
H650 H 0.27479 0.01875 0.11024 0.0
H651 H 0.27328 0.936 0.17543 0.0
C652 C 0.20332 0.96964 0.33673 0.0
C653 C 0.18827 0.9927 0.35474 0.0
C654 C 0.19151 0.01807 0.32745 0.0
C655 C 0.20929 0.02047 0.28293 0.0
C656 C 0.22359 0.99728 0.26592 0.0
C657 C 0.22076 0.97233 0.29192 0.0
C658 C 0.23749 0.95026 0.26411 0.0
C659 C 0.25965 0.93884 0.30166 0.0
C660 C 0.21896 0.92728 0.24332 0.0
C661 C 0.25004 0.96665 0.21815 0.0
C662 C 0.24194 0.99377 0.22019 0.0
C663 C 0.25074 1.01283 0.18185 0.0
C664 C 0.26814 1.00394 0.14021 0.0
C665 C 0.27651 0.97615 0.13688 0.0
C666 C 0.26732 0.95737 0.1767 0.0
H667 H 0.47712 0.23721 0.38232 0.0
H668 H 0.49379 0.15341 0.33442 0.0
H669 H 0.50167 0.16912 0.24103 0.0
H670 H 0.44244 0.25829 0.25642 0.0
H671 H 0.45695 0.29219 0.25817 0.0
H672 H 0.45009 0.27391 0.32001 0.0
H673 H 0.50065 0.28025 0.34769 0.0
H674 H 0.50779 0.29817 0.28568 0.0
H675 H 0.52759 0.26833 0.30362 0.0
H676 H 0.51325 0.19464 0.15543 0.0
H677 H 0.52252 0.22741 0.08142 0.0
H678 H 0.49654 0.29448 0.1837 0.0
C679 C 0.48176 0.22204 0.35198 0.0
C680 C 0.48472 0.19402 0.36584 0.0
C681 C 0.49111 0.17492 0.32488 0.0
C682 C 0.49579 0.18368 0.27168 0.0
C683 C 0.49362 0.21156 0.25982 0.0
C684 C 0.48623 0.2304 0.29857 0.0
C685 C 0.48614 0.25929 0.27566 0.0
C686 C 0.45718 0.27165 0.27768 0.0
C687 C 0.50677 0.27758 0.30491 0.0
C688 C 0.49525 0.25384 0.21828 0.0
C689 C 0.49955 0.22618 0.21004 0.0
C690 C 0.50952 0.21629 0.16118 0.0
C691 C 0.51491 0.2351 0.11948 0.0
C692 C 0.51012 0.2635 0.12661 0.0
C693 C 0.50011 0.27288 0.17678 0.0
H694 H 0.29713 0.58904 0.37759 0.0
H695 H 0.23023 0.54689 0.45879 0.0
H696 H 0.19943 0.55915 0.38469 0.0
H697 H 0.25425 0.64504 0.31746 0.0
H698 H 0.27399 0.6454 0.25585 0.0
H699 H 0.29012 0.63631 0.31839 0.0
H700 H 0.30624 0.59089 0.27722 0.0
H701 H 0.29017 0.59927 0.21449 0.0
H702 H 0.28178 0.56764 0.24873 0.0
H703 H 0.17688 0.57192 0.29903 0.0
H704 H 0.16384 0.58461 0.20677 0.0
H705 H 0.2448 0.61884 0.17907 0.0
C706 C 0.27581 0.5831 0.38037 0.0
C707 C 0.26604 0.56718 0.42425 0.0
C708 C 0.23819 0.55914 0.42572 0.0
C709 C 0.22045 0.56609 0.38387 0.0
C710 C 0.23077 0.58123 0.34066 0.0
C711 C 0.25771 0.58986 0.33863 0.0
C712 C 0.26386 0.60432 0.28561 0.0
C713 C 0.27097 0.63457 0.2949 0.0
C714 C 0.28685 0.58961 0.25459 0.0
C715 C 0.23654 0.6015 0.25758 0.0
C716 C 0.21767 0.58845 0.2905 0.0
C717 C 0.19138 0.58239 0.27304 0.0
C718 C 0.18421 0.58962 0.22039 0.0
C719 C 0.20324 0.60277 0.18548 0.0
C720 C 0.22968 0.60902 0.20479 0.0
H721 H 0.02701 0.20793 0.01922 0.0
H722 H 0.09861 0.23257 0.92642 0.0
H723 H 0.10907 0.26761 0.9945 0.0
H724 H 1.00719 0.27507 0.06241 0.0
H725 H 0.99634 0.26384 0.12841 0.0
H726 H 0.9947 0.24067 0.0725 0.0
H727 H 0.02443 0.2055 0.12443 0.0
H728 H 0.02611 0.22855 0.18052 0.0
H729 H 0.0572 0.21588 0.14994 0.0
H730 H 0.11116 0.30096 0.07329 0.0
H731 H 0.10509 0.32838 0.15616 0.0
H732 H 0.0326 0.28106 0.19683 0.0
C733 C 0.04492 0.22064 1.01313 0.0
C734 C 0.06196 0.21742 0.96727 0.0
C735 C 0.08523 0.23453 0.96116 0.0
C736 C 0.09134 0.25456 0.99963 0.0
C737 C 0.07407 0.25723 0.04426 0.0
C738 C 0.05139 0.24063 0.05121 0.0
C739 C 0.03612 0.24749 0.10271 0.0
C740 C 1.00686 0.25736 0.09077 0.0
C741 C 0.03597 0.22289 0.1417 0.0
C742 C 0.05365 0.2706 0.12359 0.0
C743 C 0.07544 0.27603 0.0894 0.0
C744 C 0.0942 0.29678 0.10039 0.0
C745 C 0.09059 0.31229 0.14754 0.0
C746 C 0.06845 0.3069 0.18324 0.0
C747 C 0.04985 0.28573 0.17069 0.0
H748 H 0.70596 0.0357 0.17966 0.0
H749 H 0.68183 0.95243 0.21933 0.0
H750 H 0.71299 0.95282 0.29721 0.0
H751 H 0.77747 0.0304 0.21907 0.0
H752 H 0.77817 0.0644 0.24685 0.0
H753 H 0.75553 0.05679 0.19219 0.0
H754 H 0.71408 0.07384 0.2489 0.0
H755 H 0.73669 0.08156 0.3035 0.0
H756 H 0.70792 0.05913 0.31455 0.0
H757 H 0.7457 0.96289 0.37243 0.0
H758 H 0.77665 0.98186 0.44035 0.0
H759 H 0.77839 0.05936 0.35355 0.0
C760 C 0.70762 0.01732 0.20405 0.0
C761 C 0.69172 0.99383 0.19287 0.0
C762 C 0.69396 0.97053 0.22679 0.0
C763 C 0.7116 0.97059 0.27113 0.0
C764 C 0.72669 0.9942 0.28137 0.0
C765 C 0.72483 0.01717 0.24886 0.0
C766 C 0.74211 0.04041 0.27029 0.0
C767 C 0.76466 0.04847 0.22968 0.0
C768 C 0.72413 0.0652 0.28518 0.0
C769 C 0.75407 0.02694 0.31997 0.0
C770 C 0.745 1.00025 0.32543 0.0
C771 C 0.75298 0.98374 0.36843 0.0
C772 C 0.77061 0.99476 0.40688 0.0
C773 C 0.78009 0.02216 0.4025 0.0
C774 C 0.77164 0.03836 0.35819 0.0
H775 H 0.42518 0.79402 0.43178 0.0
H776 H 0.50931 0.78352 0.48275 0.0
H777 H 0.51799 0.75296 0.40561 0.0
H778 H 0.41462 0.72546 0.39027 0.0
H779 H 0.39383 0.73467 0.33343 0.0
H780 H 0.39469 0.7566 0.39129 0.0
H781 H 0.40936 0.79749 0.33059 0.0
H782 H 0.40852 0.77567 0.2725 0.0
H783 H 0.43925 0.79427 0.28799 0.0
H784 H 0.51674 0.7215 0.32435 0.0
H785 H 0.50566 0.69282 0.24566 0.0
H786 H 0.42272 0.72488 0.24818 0.0
C787 C 0.44551 0.7855 0.42659 0.0
C788 C 0.46656 0.79125 0.46342 0.0
C789 C 0.49284 0.77952 0.45507 0.0
C790 C 0.49798 0.76211 0.41133 0.0
C791 C 0.4767 0.75669 0.37605 0.0
C792 C 0.45102 0.76816 0.38312 0.0
C793 C 0.43148 0.75868 0.34023 0.0
C794 C 0.40723 0.74292 0.36532 0.0
C795 C 0.42158 0.78298 0.30579 0.0
C796 C 0.45005 0.73988 0.30822 0.0
C797 C 0.47608 0.73895 0.32935 0.0
C798 C 0.49646 0.72225 0.30725 0.0
C799 C 0.49 0.70601 0.26258 0.0
C800 C 0.46339 0.70666 0.24047 0.0
C801 C 0.44334 0.72402 0.26366 0.0
H802 H 0.67141 0.53965 0.42514 0.0
H803 H 0.72951 0.53586 0.55603 0.0
H804 H 0.76762 0.54111 0.49099 0.0
H805 H 0.71189 0.50082 0.33136 0.0
H806 H 0.70164 0.52085 0.27378 0.0
H807 H 0.67893 0.51752 0.33088 0.0
H808 H 0.67633 0.5704 0.33834 0.0
H809 H 0.69918 0.57388 0.28144 0.0
H810 H 0.70749 0.58983 0.34435 0.0
H811 H 0.79962 0.54699 0.41141 0.0
H812 H 0.82298 0.55014 0.32296 0.0
H813 H 0.74409 0.54915 0.24409 0.0
C814 C 0.69213 0.53996 0.44018 0.0
C815 C 0.6974 0.53739 0.49581 0.0
C816 C 0.72489 0.53774 0.51366 0.0
C817 C 0.74671 0.54082 0.47703 0.0
C818 C 0.7408 0.54342 0.42254 0.0
C819 C 0.7142 0.54283 0.40412 0.0
C820 C 0.71346 0.54528 0.34337 0.0
C821 C 0.70073 0.51958 0.31839 0.0
C822 C 0.69821 0.5714 0.32586 0.0
C823 C 0.74379 0.54723 0.33053 0.0
C824 C 0.75922 0.54635 0.37675 0.0
C825 C 0.78773 0.5477 0.37493 0.0
C826 C 0.80083 0.54958 0.3245 0.0
C827 C 0.78542 0.5499 0.27652 0.0
C828 C 0.75651 0.54896 0.27994 0.0
H829 H 0.11774 0.74991 0.0491 0.0
H830 H 0.16545 0.82052 0.09584 0.0
H831 H 0.17655 0.79742 0.18191 0.0
H832 H 0.08723 0.73841 0.17218 0.0
H833 H 0.08752 0.70153 0.16865 0.0
H834 H 0.08702 0.72162 0.10783 0.0
H835 H 0.13093 0.69711 0.07381 0.0
H836 H 0.13142 0.67668 0.13442 0.0
H837 H 0.16098 0.69663 0.11529 0.0
H838 H 0.17764 0.76842 0.26785 0.0
H839 H 0.16945 0.7363 0.34373 0.0
H840 H 0.12054 0.68521 0.2399 0.0
C841 C 0.13122 0.76023 0.07668 0.0
C842 C 0.141 0.78693 0.0653 0.0
C843 C 0.15815 0.79988 0.10306 0.0
C844 C 0.16443 0.78694 0.15225 0.0
C845 C 0.15368 0.76093 0.16286 0.0
C846 C 0.13769 0.74761 0.1257 0.0
C847 C 0.1268 0.72075 0.14805 0.0
C848 C 0.09528 0.72059 0.14925 0.0
C849 C 0.13822 0.69636 0.11599 0.0
C850 C 0.1384 0.72135 0.20429 0.0
C851 C 0.15412 0.74449 0.21201 0.0
C852 C 0.16571 0.75006 0.26186 0.0
C853 C 0.16092 0.73168 0.30481 0.0
C854 C 0.14443 0.70811 0.29793 0.0
C855 C 0.13341 0.70287 0.24661 0.0
H856 H 0.4184 0.01306 0.98352 0.0
H857 H 0.41765 0.93704 0.07536 0.0
H858 H 0.46729 0.94055 0.08815 0.0
H859 H 0.48371 1.00169 0.91669 0.0
H860 H 0.49429 0.03698 0.92036 0.0
H861 H 0.45843 0.02864 0.91749 0.0
H862 H 0.44964 0.05561 1.00533 0.0
H863 H 0.48545 0.06408 1.00836 0.0
H864 H 0.46898 0.04716 0.06457 0.0
H865 H 0.51729 0.95176 0.09144 0.0
H866 H 0.56399 0.97106 0.08681 0.0
H867 H 0.53318 0.04009 0.99426 0.0
C868 C 0.42869 0.99717 1.00629 0.0
C869 C 0.41388 0.97476 0.02836 0.0
C870 C 0.42828 0.95447 0.058 0.0
C871 C 0.45662 0.95621 0.0655 0.0
C872 C 0.47059 0.97842 0.04331 0.0
C873 C 0.45718 0.99863 1.01446 0.0
C874 C 0.47725 0.02052 0.99562 0.0
C875 C 0.47849 0.02203 0.93387 0.0
C876 C 0.46989 0.0485 0.01993 0.0
C877 C 0.50386 1.00941 0.01851 0.0
C878 C 0.49954 0.98504 0.04566 0.0
C879 C 0.52094 0.97086 0.07027 0.0
C880 C 0.54744 0.98197 0.06737 0.0
C881 C 0.55242 1.0071 0.04023 0.0
C882 C 0.53019 0.02084 0.01536 0.0
H883 H 0.52176 0.4388 0.08858 0.0
H884 H 0.44824 0.40927 1.01124 0.0
H885 H 0.42949 0.45621 1.01095 0.0
H886 H 0.48765 0.48908 0.17403 0.0
H887 H 0.51487 0.51379 0.16762 0.0
H888 H 0.52238 0.47772 0.16307 0.0
H889 H 0.54549 0.48577 0.07017 0.0
H890 H 0.53789 0.52183 0.07423 0.0
H891 H 0.52646 0.50237 0.01737 0.0
H892 H 0.41948 0.50601 0.01503 0.0
H893 H 0.41714 0.55574 0.02797 0.0
H894 H 0.49662 0.55406 0.1049 0.0
C895 C 0.50161 0.44215 0.07197 0.0
C896 C 0.48647 0.42026 0.0499 0.0
C897 C 0.46021 0.42559 0.0285 0.0
C898 C 0.44941 0.45223 0.02802 0.0
C899 C 0.465 0.47333 0.04939 0.0
C900 C 0.49042 0.46865 0.07142 0.0
C901 C 0.50289 0.49513 0.09158 0.0
C902 C 0.50719 0.49385 0.15271 0.0
C903 C 0.52977 0.50165 0.06153 0.0
C904 C 0.48055 0.51546 0.07701 0.0
C905 C 0.45899 0.50232 0.05254 0.0
C906 C 0.43615 0.51652 0.03443 0.0
C907 C 0.4351 0.54488 0.04189 0.0
C908 C 0.45669 0.55896 0.06755 0.0
C909 C 0.47978 0.54395 0.08525 0.0
H910 H 0.95426 0.54057 0.18519 0.0
H911 H 0.91669 0.59632 0.07076 0.0
H912 H 0.96268 0.61073 0.03919 0.0
H913 H 1.01191 0.58437 0.21878 0.0
H914 H 0.03533 0.55594 0.22446 0.0
H915 H 0.9995 0.5511 0.23924 0.0
H916 H 0.998 0.51199 0.17008 0.0
H917 H 0.03363 0.51685 0.15383 0.0
H918 H 1.00841 0.51844 0.10142 0.0
H919 H 0.01318 0.61744 0.01738 0.0
H920 H 0.06368 0.61725 1.00968 0.0
H921 H 0.06782 0.55732 0.13916 0.0
C922 C 0.95561 0.55606 0.1539 0.0
C923 C 0.93176 0.56738 0.13059 0.0
C924 C 0.93459 0.58744 0.08946 0.0
C925 C 0.96065 0.59571 0.07118 0.0
C926 C 0.98371 0.58383 0.09457 0.0
C927 C 0.9814 0.56459 0.13536 0.0
C928 C 1.00929 0.55462 0.15331 0.0
C929 C 0.0143 0.56196 0.21245 0.0
C930 C 0.01252 0.52364 0.14405 0.0
C931 C 0.02771 0.57101 0.11583 0.0
C932 C 0.0126 0.58777 0.08227 0.0
C933 C 0.02518 0.6045 0.04369 0.0
C934 C 0.05391 0.60419 0.03952 0.0
C935 C 0.06982 0.58731 0.07381 0.0
C936 C 0.05636 0.57054 0.11239 0.0
H937 H 0.04045 0.05421 0.8379 0.0
H938 H 0.12187 0.08767 0.85818 0.0
H939 H 0.13923 0.04112 0.88017 0.0
H940 H 0.04275 1.00664 0.94602 0.0
H941 H 0.0236 0.98073 0.91148 0.0
H942 H 0.01834 0.01634 0.89539 0.0
H943 H 0.02932 1.00661 0.79515 0.0
H944 H 0.03463 0.97094 0.81092 0.0
H945 H 0.06121 0.99023 0.77724 0.0
H946 H 0.14692 0.98981 0.90343 0.0
H947 H 0.14402 0.94013 0.92473 0.0
H948 H 0.05734 0.94184 0.88847 0.0
C949 C 0.06201 0.05189 0.84666 0.0
C950 C 0.07977 0.07476 0.84623 0.0
C951 C 0.10781 0.07055 0.85814 0.0
C952 C 0.11785 0.04414 0.87068 0.0
C953 C 0.09963 0.02209 0.87106 0.0
C954 C 0.07229 0.02583 0.85917 0.0
C955 C 0.05659 0.99917 0.86321 0.0
C956 C 0.034 1.00083 0.90661 0.0
C957 C 0.04475 0.99128 0.80837 0.0
C958 C 0.07923 0.97973 0.8798 0.0
C959 C 0.10399 0.99315 0.88399 0.0
C960 C 0.12762 0.97917 0.89985 0.0
C961 C 0.12579 0.95092 0.91193 0.0
C962 C 0.10048 0.93692 0.90831 0.0
C963 C 0.07707 0.95173 0.89163 0.0
H964 H 0.03743 0.97859 0.58946 0.0
H965 H 0.06149 1.00226 0.42714 0.0
H966 H 0.01331 1.01255 0.40622 0.0
H967 H 0.97566 0.94545 0.5559 0.0
H968 H 0.95649 0.95734 0.61349 0.0
H969 H 0.99306 0.95326 0.61752 0.0
H970 H 0.99804 1.00388 0.64654 0.0
H971 H 0.96143 1.00802 0.64337 0.0
H972 H 0.98351 0.03065 0.6054 0.0
H973 H 0.96265 0.01812 0.4011 0.0
H974 H 0.91277 0.02206 0.41384 0.0
H975 H 0.92073 0.99485 0.57955 0.0
C976 C 0.03265 0.98631 0.54972 0.0
C977 C 0.05336 0.98962 0.50993 0.0
C978 C 0.04611 0.99963 0.45838 0.0
C979 C 0.01875 1.00545 0.44602 0.0
C980 C 0.99881 1.00131 0.48569 0.0
C981 C 1.00539 0.99232 0.53672 0.0
C982 C 0.97987 0.98938 0.57172 0.0
C983 C 0.97606 0.95958 0.59076 0.0
C984 C 0.98077 1.00916 0.61958 0.0
C985 C 0.9579 0.99771 0.53204 0.0
C986 C 0.96938 1.00453 0.48273 0.0
C987 C 0.95343 1.01294 0.43958 0.0
C988 C 0.92507 0.01502 0.44722 0.0
C989 C 0.91275 1.00866 0.49761 0.0
C990 C 0.92945 0.99955 0.54039 0.0
H991 H 0.47026 0.93746 0.52485 0.0
H992 H 0.52011 0.91629 0.66265 0.0
H993 H 0.53244 0.96508 0.6728 0.0
H994 H 0.51536 0.99066 0.47105 0.0
H995 H 0.48738 1.01204 0.44937 0.0
H996 H 0.48335 0.97538 0.45196 0.0
H997 H 0.44076 0.98108 0.51377 0.0
H998 H 0.44478 0.01774 0.51171 0.0
H999 H 0.44373 0.99998 0.57547 0.0
H1000 H 0.53733 0.01658 0.67077 0.0
H1001 H 0.53676 0.06641 0.65374 0.0
H1002 H 0.48442 0.05406 0.51592 0.0
C1003 C 0.48398 0.94299 0.55691 0.0
C1004 C 0.49421 0.92295 0.593 0.0
C1005 C 0.51209 0.93118 0.63438 0.0
C1006 C 0.51914 0.95888 0.64055 0.0
C1007 C 0.50834 0.97812 0.6048 0.0
C1008 C 0.49136 0.9705 0.56344 0.0
C1009 C 0.48233 0.99523 0.53071 0.0
C1010 C 0.49273 0.9932 0.47231 0.0
C1011 C 0.45104 0.9987 0.53308 0.0
C1012 C 0.49663 0.01803 0.56047 0.0
C1013 C 0.51147 1.00771 0.60314 0.0
C1014 C 0.52592 0.02484 0.63725 0.0
C1015 C 0.52538 0.05318 0.6273 0.0
C1016 C 0.51058 0.06427 0.58342 0.0
C1017 C 0.49601 0.04631 0.54969 0.0
H1018 H 0.54861 0.49399 0.59814 0.0
H1019 H 0.56933 0.58027 0.60528 0.0
H1020 H 0.52086 0.59225 0.58727 0.0
H1021 H 0.49916 0.49893 0.49201 0.0
H1022 H 0.47708 0.47328 0.52153 0.0
H1023 H 0.51339 0.47198 0.53312 0.0
H1024 H 0.50453 0.47212 0.63606 0.0
H1025 H 0.46821 0.47342 0.62479 0.0
H1026 H 0.48425 0.4992 0.6653 0.0
H1027 H 0.46895 0.59423 0.56843 0.0
H1028 H 0.41944 0.58598 0.55426 0.0
H1029 H 0.43407 0.49835 0.56223 0.0
C1030 C 0.54313 0.51547 0.59561 0.0
C1031 C 0.5629 0.5362 0.60288 0.0
C1032 C 0.5546 0.56401 0.59975 0.0
C1033 C 0.5271 0.57099 0.58946 0.0
C1034 C 0.50813 0.54994 0.58263 0.0
C1035 C 0.5159 0.52273 0.58579 0.0
C1036 C 0.49174 0.50381 0.57857 0.0
C1037 C 0.49558 0.48595 0.52832 0.0
C1038 C 0.4869 0.4861 0.62919 0.0
C1039 C 0.469 0.52452 0.571 0.0
C1040 C 0.47873 0.55106 0.57306 0.0
C1041 C 0.4612 0.5735 0.56689 0.0
C1042 C 0.43309 0.56863 0.55885 0.0
C1043 C 0.42275 0.54153 0.55743 0.0
C1044 C 0.44116 0.51934 0.56333 0.0
H1045 H 0.14695 0.56417 0.38173 0.0
H1046 H 0.07086 0.59921 0.44154 0.0
H1047 H 0.04806 0.55468 0.42981 0.0
H1048 H 0.11574 0.52019 0.28072 0.0
H1049 H 0.13949 0.49238 0.29105 0.0
H1050 H 0.15011 0.52716 0.30243 0.0
H1051 H 0.16435 0.51447 0.39922 0.0
H1052 H 0.15393 0.47957 0.38844 0.0
H1053 H 0.13978 0.49859 0.44406 0.0
H1054 H 0.03381 0.50647 0.41579 0.0
H1055 H 0.02815 0.45746 0.3981 0.0
H1056 H 0.11299 0.45218 0.34509 0.0
C1057 C 0.12544 0.56255 0.39195 0.0
C1058 C 0.11073 0.58536 0.4126 0.0
C1059 C 0.08262 0.58221 0.42564 0.0
C1060 C 0.06946 0.55694 0.4191 0.0
C1061 C 0.08456 0.5349 0.39915 0.0
C1062 C 0.11188 0.5374 0.3854 0.0
C1063 C 0.12332 0.51022 0.3654 0.0
C1064 C 0.13272 0.51264 0.30639 0.0
C1065 C 0.14673 0.50012 0.40144 0.0
C1066 C 0.09824 0.49194 0.37098 0.0
C1067 C 0.07618 0.5068 0.39043 0.0
C1068 C 0.05089 0.49467 0.4003 0.0
C1069 C 0.04795 0.46666 0.3902 0.0
C1070 C 0.0701 0.45072 0.37016 0.0
C1071 C 0.09561 0.46371 0.36014 0.0
loop_
_geom_bond_atom_site_label_1
_geom_bond_atom_site_label_2
_geom_bond_distance
_geom_bond_site_symmetry_2
_ccdc_geom_bond_type
Mg0 O7 2.141 . S
Mg0 O8 2.048 . S
Mg0 O9 2.048 . S
Mg0 O12 2.141 . S
C1 O2 1.329 . S
C1 O8 1.184 1_565 S
O2 C1 1.329 . S
C3 O4 1.245 . S
C3 O12 1.289 1_565 S
O4 C3 1.245 . S
C5 O6 1.245 . S
C5 O7 1.289 1_565 S
O6 C5 1.245 . S
O7 Mg0 2.141 . S
O7 C5 1.289 1_545 S
O8 Mg0 2.048 . S
O8 C1 1.184 1_545 S
O9 Mg0 2.048 . S
O9 C10 1.195 . S
C10 O9 1.195 . S
C10 O11 1.313 1_545 S
O11 C10 1.313 1_565 S
O12 Mg0 2.141 . S
O12 C3 1.289 1_545 S
Mg13 O20 2.141 . S
Mg13 O21 2.048 . S
Mg13 O22 2.048 . S
Mg13 O25 2.141 . S
C14 O15 1.313 . S
C14 O21 1.195 . S
O15 C14 1.313 . S
C16 O17 1.245 . S
C16 O25 1.289 . S
O17 C16 1.245 . S
C18 O19 1.245 . S
C18 O20 1.289 . S
O19 C18 1.245 . S
O20 Mg13 2.141 . S
O20 C18 1.289 . S
O21 Mg13 2.048 . S
O21 C14 1.195 . S
O22 Mg13 2.048 . S
O22 C23 1.195 . S
C23 O22 1.195 . S
C23 O24 1.313 . S
O24 C23 1.313 . S
O25 Mg13 2.141 . S
O25 C16 1.289 . S
Mg26 O33 2.141 . S
Mg26 O34 2.048 . S
Mg26 O35 2.048 . S
Mg26 O38 2.141 . S
C27 O28 1.313 . S
C27 O34 1.195 . S
O28 C27 1.313 . S
C29 O30 1.245 . S
C29 O38 1.289 . S
O30 C29 1.245 . S
C31 O32 1.245 . S
C31 O33 1.289 . S
O32 C31 1.245 . S
O33 Mg26 2.141 . S
O33 C31 1.289 . S
O34 Mg26 2.048 . S
O34 C27 1.195 . S
O35 Mg26 2.048 . S
O35 C36 1.195 . S
C36 O35 1.195 . S
C36 O37 1.313 . S
O37 C36 1.313 . S
O38 Mg26 2.141 . S
O38 C29 1.289 . S
Mg39 O46 2.141 . S
Mg39 O47 2.048 . S
Mg39 O48 2.048 . S
Mg39 O51 2.141 . S
C40 O41 1.313 . S
C40 O47 1.195 1_455 S
O41 C40 1.313 . S
C42 O43 1.245 1_655 S
C42 O51 1.289 . S
O43 C42 1.245 1_455 S
C44 O45 1.245 . S
C44 O46 1.289 1_455 S
O45 C44 1.245 . S
O46 Mg39 2.141 . S
O46 C44 1.289 1_655 S
O47 Mg39 2.048 . S
O47 C40 1.195 1_655 S
O48 Mg39 2.048 . S
O48 C49 1.195 1_655 S
C49 O48 1.195 1_455 S
C49 O50 1.313 . S
O50 C49 1.313 . S
O51 Mg39 2.141 . S
O51 C42 1.289 . S
Mg52 O59 2.141 . S
Mg52 O60 2.048 . S
Mg52 O61 2.048 . S
Mg52 O64 2.141 . S
C53 O54 1.338 . S
C53 O60 1.177 1_545 S
O54 C53 1.338 . S
C55 O56 1.245 . S
C55 O64 1.289 1_545 S
O56 C55 1.245 . S
C57 O58 1.245 . S
C57 O59 1.289 1_545 S
O58 C57 1.245 . S
O59 Mg52 2.141 . S
O59 C57 1.289 1_565 S
O60 Mg52 2.048 . S
O60 C53 1.177 1_565 S
O61 Mg52 2.048 . S
O61 C62 1.195 . S
C62 O61 1.195 . S
C62 O63 1.313 1_565 S
O63 C62 1.313 1_545 S
O64 Mg52 2.141 . S
O64 C55 1.289 1_565 S
Mg65 O72 2.141 . S
Mg65 O73 2.048 . S
Mg65 O74 2.048 . S
Mg65 O77 2.141 . S
C66 O67 1.313 . S
C66 O73 1.195 . S
O67 C66 1.313 . S
C68 O69 1.245 . S
C68 O77 1.289 . S
O69 C68 1.245 . S
C70 O71 1.245 . S
C70 O72 1.289 . S
O71 C70 1.245 . S
O72 Mg65 2.141 . S
O72 C70 1.289 . S
O73 Mg65 2.048 . S
O73 C66 1.195 . S
O74 Mg65 2.048 . S
O74 C75 1.195 . S
C75 O74 1.195 . S
C75 O76 1.313 . S
O76 C75 1.313 . S
O77 Mg65 2.141 . S
O77 C68 1.289 . S
Mg78 O85 2.141 . S
Mg78 O86 2.048 . S
Mg78 O87 2.048 . S
Mg78 O90 2.141 . S
C79 O80 1.313 . S
C79 O86 1.195 . S
O80 C79 1.313 . S
C81 O82 1.245 . S
C81 O90 1.289 . S
O82 C81 1.245 . S
C83 O84 1.245 . S
C83 O85 1.289 . S
O84 C83 1.245 . S
O85 Mg78 2.141 . S
O85 C83 1.289 . S
O86 Mg78 2.048 . S
O86 C79 1.195 . S
O87 Mg78 2.048 . S
O87 C88 1.195 . S
C88 O87 1.195 . S
C88 O89 1.313 . S
O89 C88 1.313 . S
O90 Mg78 2.141 . S
O90 C81 1.289 . S
Mg91 O98 2.141 . S
Mg91 O99 2.048 . S
Mg91 O100 2.048 . S
Mg91 O103 2.141 . S
C92 O93 1.313 . S
C92 O99 1.195 1_655 S
O93 C92 1.313 . S
C94 O95 1.245 1_455 S
C94 O103 1.289 . S
O95 C94 1.245 1_655 S
C96 O97 1.245 . S
C96 O98 1.289 1_655 S
O97 C96 1.245 . S
O98 Mg91 2.141 . S
O98 C96 1.289 1_455 S
O99 Mg91 2.048 . S
O99 C92 1.195 1_455 S
O100 Mg91 2.048 . S
O100 C101 1.195 1_455 S
C101 O100 1.195 1_655 S
C101 O102 1.313 . S
O102 C101 1.313 . S
O103 Mg91 2.141 . S
O103 C94 1.289 . S
Mg104 O111 2.141 . S
Mg104 O112 2.048 . S
Mg104 O113 2.048 . S
Mg104 O116 2.141 . S
C105 O106 1.313 . S
C105 O112 1.195 1_565 S
O106 C105 1.313 . S
C107 O108 1.245 . S
C107 O116 1.289 1_565 S
O108 C107 1.245 . S
C109 O110 1.245 1_545 S
C109 O111 1.289 . S
O110 C109 1.245 1_565 S
O111 Mg104 2.141 . S
O111 C109 1.289 . S
O112 Mg104 2.048 . S
O112 C105 1.195 1_545 S
O113 Mg104 2.048 . S
O113 C114 1.195 1_545 S
C114 O113 1.195 1_565 S
C114 O115 1.313 . S
O115 C114 1.313 . S
O116 Mg104 2.141 . S
O116 C107 1.289 1_545 S
Mg117 O124 2.141 . S
Mg117 O125 2.048 . S
Mg117 O126 2.048 . S
Mg117 O129 2.141 . S
C118 O119 1.313 . S
C118 O125 1.195 . S
O119 C118 1.313 . S
C120 O121 1.245 . S
C120 O129 1.289 . S
O121 C120 1.245 . S
C122 O123 1.245 . S
C122 O124 1.289 . S
O123 C122 1.245 . S
O124 Mg117 2.141 . S
O124 C122 1.289 . S
O125 Mg117 2.048 . S
O125 C118 1.195 . S
O126 Mg117 2.048 . S
O126 C127 1.195 . S
C127 O126 1.195 . S
C127 O128 1.313 . S
O128 C127 1.313 . S
O129 Mg117 2.141 . S
O129 C120 1.289 . S
Mg130 O137 2.141 . S
Mg130 O138 2.048 . S
Mg130 O139 2.048 . S
Mg130 O142 2.141 . S
C131 O132 1.313 . S
C131 O138 1.195 . S
O132 C131 1.313 . S
C133 O134 1.245 . S
C133 O142 1.289 . S
O134 C133 1.245 . S
C135 O136 1.245 . S
C135 O137 1.289 . S
O136 C135 1.245 . S
O137 Mg130 2.141 . S
O137 C135 1.289 . S
O138 Mg130 2.048 . S
O138 C131 1.195 . S
O139 Mg130 2.048 . S
O139 C140 1.195 . S
C140 O139 1.195 . S
C140 O141 1.313 . S
O141 C140 1.313 . S
O142 Mg130 2.141 . S
O142 C133 1.289 . S
Mg143 O150 2.141 . S
Mg143 O151 2.048 . S
Mg143 O152 2.048 . S
Mg143 O155 2.141 . S
C144 O145 1.313 . S
C144 O151 1.195 1_655 S
O145 C144 1.313 . S
C146 O147 1.245 . S
C146 O155 1.289 1_655 S
O147 C146 1.245 . S
C148 O149 1.245 1_455 S
C148 O150 1.289 . S
O149 C148 1.245 1_655 S
O150 Mg143 2.141 . S
O150 C148 1.289 . S
O151 Mg143 2.048 . S
O151 C144 1.195 1_455 S
O152 Mg143 2.048 . S
O152 C153 1.195 1_455 S
C153 O152 1.195 1_655 S
C153 O154 1.313 . S
O154 C153 1.313 . S
O155 Mg143 2.141 . S
O155 C146 1.289 1_455 S
Mg156 O163 2.141 . S
Mg156 O164 2.048 . S
Mg156 O165 2.048 . S
Mg156 O168 2.141 . S
C157 O158 1.313 . S
C157 O164 1.195 1_545 S
O158 C157 1.313 . S
C159 O160 1.245 . S
C159 O168 1.289 1_545 S
O160 C159 1.245 . S
C161 O162 1.245 1_565 S
C161 O163 1.289 . S
O162 C161 1.245 1_545 S
O163 Mg156 2.141 . S
O163 C161 1.289 . S
O164 Mg156 2.048 . S
O164 C157 1.195 1_565 S
O165 Mg156 2.048 . S
O165 C166 1.195 1_565 S
C166 O165 1.195 1_545 S
C166 O167 1.313 . S
O167 C166 1.313 . S
O168 Mg156 2.141 . S
O168 C159 1.289 1_565 S
Mg169 O176 2.141 . S
Mg169 O177 2.048 . S
Mg169 O178 2.048 . S
Mg169 O181 2.141 . S
C170 O171 1.313 . S
C170 O177 1.195 . S
O171 C170 1.313 . S
C172 O173 1.245 . S
C172 O181 1.289 . S
O173 C172 1.245 . S
C174 O175 1.245 . S
C174 O176 1.289 . S
O175 C174 1.245 . S
O176 Mg169 2.141 . S
O176 C174 1.289 . S
O177 Mg169 2.048 . S
O177 C170 1.195 . S
O178 Mg169 2.048 . S
O178 C179 1.195 . S
C179 O178 1.195 . S
C179 O180 1.313 . S
O180 C179 1.313 . S
O181 Mg169 2.141 . S
O181 C172 1.289 . S
Mg182 O189 2.141 . S
Mg182 O190 2.048 . S
Mg182 O191 2.048 . S
Mg182 O194 2.141 . S
C183 O184 1.313 . S
C183 O190 1.195 . S
O184 C183 1.313 . S
C185 O186 1.245 . S
C185 O194 1.289 . S
O186 C185 1.245 . S
C187 O188 1.245 . S
C187 O189 1.289 . S
O188 C187 1.245 . S
O189 Mg182 2.141 . S
O189 C187 1.289 . S
O190 Mg182 2.048 . S
O190 C183 1.195 . S
O191 Mg182 2.048 . S
O191 C192 1.195 . S
C192 O191 1.195 . S
C192 O193 1.313 . S
O193 C192 1.313 . S
O194 Mg182 2.141 . S
O194 C185 1.289 . S
Mg195 O202 2.141 . S
Mg195 O203 2.048 . S
Mg195 O204 2.048 . S
Mg195 O207 2.141 . S
C196 O197 1.313 . S
C196 O203 1.195 1_455 S
O197 C196 1.313 . S
C198 O199 1.245 . S
C198 O207 1.289 1_455 S
O199 C198 1.245 . S
C200 O201 1.245 1_655 S
C200 O202 1.289 . S
O201 C200 1.245 1_455 S
O202 Mg195 2.141 . S
O202 C200 1.289 . S
O203 Mg195 2.048 . S
O203 C196 1.195 1_655 S
O204 Mg195 2.048 . S
O204 C205 1.195 1_655 S
C205 O204 1.195 1_455 S
C205 O206 1.313 . S
O206 C205 1.313 . S
O207 Mg195 2.141 . S
O207 C198 1.289 1_655 S
H208 C220 0.930 . S
H209 C222 0.930 . S
H210 C223 0.930 . S
H211 C227 0.959 . S
H212 C227 0.959 . S
H213 C227 0.961 . S
H214 C228 0.960 . S
H215 C228 0.961 . S
H216 C228 0.959 . S
H217 C231 0.929 . S
H218 C232 0.931 . S
H219 C234 0.930 . S
C220 H208 0.930 . S
C220 C221 1.399 . S
C220 C225 1.399 . S
C221 C220 1.399 . S
C221 C222 1.376 . S
C222 H209 0.930 . S
C222 C221 1.376 . S
C222 C223 1.388 . S
C223 H210 0.930 . S
C223 C222 1.388 . S
C223 C224 1.390 . S
C224 C223 1.390 . S
C224 C225 1.394 . S
C224 C230 1.465 . S
C225 C220 1.399 . S
C225 C224 1.394 . S
C225 C226 1.516 . S
C226 C225 1.516 . S
C226 C227 1.502 . S
C226 C228 1.561 . S
C226 C229 1.526 . S
C227 H211 0.959 . S
C227 H212 0.959 . S
C227 H213 0.961 . S
C227 C226 1.502 . S
C228 H214 0.960 . S
C228 H215 0.961 . S
C228 H216 0.959 . S
C228 C226 1.561 . S
C229 C226 1.526 . S
C229 C230 1.396 . S
C229 C234 1.390 . S
C230 C224 1.465 . S
C230 C229 1.396 . S
C230 C231 1.399 . S
C231 H217 0.929 . S
C231 C230 1.399 . S
C231 C232 1.385 . S
C232 H218 0.931 . S
C232 C231 1.385 . S
C232 C233 1.389 . S
C233 C232 1.389 . S
C233 C234 1.387 . S
C234 H219 0.930 . S
C234 C229 1.390 . S
C234 C233 1.387 . S
H235 C247 0.930 . S
H236 C249 0.930 . S
H237 C250 0.930 . S
H238 C254 0.959 . S
H239 C254 0.959 . S
H240 C254 0.961 . S
H241 C255 0.960 . S
H242 C255 0.961 . S
H243 C255 0.959 . S
H244 C258 0.929 . S
H245 C259 0.931 . S
H246 C261 0.930 . S
C247 H235 0.930 . S
C247 C248 1.399 . S
C247 C252 1.399 . S
C248 C247 1.399 . S
C248 C249 1.376 . S
C249 H236 0.930 . S
C249 C248 1.376 . S
C249 C250 1.388 . S
C250 H237 0.930 . S
C250 C249 1.388 . S
C250 C251 1.390 . S
C251 C250 1.390 . S
C251 C252 1.394 . S
C251 C257 1.465 . S
C252 C247 1.399 . S
C252 C251 1.394 . S
C252 C253 1.516 . S
C253 C252 1.516 . S
C253 C254 1.502 . S
C253 C255 1.561 . S
C253 C256 1.526 . S
C254 H238 0.959 . S
C254 H239 0.959 . S
C254 H240 0.961 . S
C254 C253 1.502 . S
C255 H241 0.960 . S
C255 H242 0.961 . S
C255 H243 0.959 . S
C255 C253 1.561 . S
C256 C253 1.526 . S
C256 C257 1.396 . S
C256 C261 1.390 . S
C257 C251 1.465 . S
C257 C256 1.396 . S
C257 C258 1.399 . S
C258 H244 0.929 . S
C258 C257 1.399 . S
C258 C259 1.385 . S
C259 H245 0.931 . S
C259 C258 1.385 . S
C259 C260 1.389 . S
C260 C259 1.389 . S
C260 C261 1.387 . S
C261 H246 0.930 . S
C261 C256 1.390 . S
C261 C260 1.387 . S
H262 C274 0.930 . S
H263 C276 0.930 . S
H264 C277 0.930 . S
H265 C281 0.959 . S
H266 C281 0.959 . S
H267 C281 0.961 . S
H268 C282 0.960 . S
H269 C282 0.961 . S
H270 C282 0.959 . S
H271 C285 0.929 . S
H272 C286 0.930 1_455 S
H273 C288 0.930 . S
C274 H262 0.930 . S
C274 C275 1.399 . S
C274 C279 1.399 . S
C275 C274 1.399 . S
C275 C276 1.376 . S
C276 H263 0.930 . S
C276 C275 1.376 . S
C276 C277 1.388 . S
C277 H264 0.930 . S
C277 C276 1.388 . S
C277 C278 1.390 . S
C278 C277 1.390 . S
C278 C279 1.394 . S
C278 C284 1.465 . S
C279 C274 1.399 . S
C279 C278 1.394 . S
C279 C280 1.516 . S
C280 C279 1.516 . S
C280 C281 1.502 . S
C280 C282 1.561 . S
C280 C283 1.526 . S
C281 H265 0.959 . S
C281 H266 0.959 . S
C281 H267 0.961 . S
C281 C280 1.502 . S
C282 H268 0.960 . S
C282 H269 0.961 . S
C282 H270 0.959 . S
C282 C280 1.561 . S
C283 C280 1.526 . S
C283 C284 1.396 . S
C283 C288 1.390 . S
C284 C278 1.465 . S
C284 C283 1.396 . S
C284 C285 1.399 . S
C285 H271 0.929 . S
C285 C284 1.399 . S
C285 C286 1.385 . S
C286 H272 0.930 1_655 S
C286 C285 1.385 . S
C286 C287 1.389 . S
C287 C286 1.389 . S
C287 C288 1.387 . S
C288 H273 0.930 . S
C288 C283 1.390 . S
C288 C287 1.387 . S
H289 C301 0.930 . S
H290 C303 0.930 . S
H291 C304 0.930 . S
H292 C308 0.959 . S
H293 C308 0.959 . S
H294 C308 0.961 . S
H295 C309 0.960 . S
H296 C309 0.961 . S
H297 C309 0.959 . S
H298 C312 0.929 . S
H299 C313 0.931 1_545 S
H300 C315 0.930 . S
C301 H289 0.930 . S
C301 C302 1.399 . S
C301 C306 1.399 . S
C302 C301 1.399 . S
C302 C303 1.376 . S
C303 H290 0.930 . S
C303 C302 1.376 . S
C303 C304 1.388 . S
C304 H291 0.930 . S
C304 C303 1.388 . S
C304 C305 1.390 . S
C305 C304 1.390 . S
C305 C306 1.394 . S
C305 C311 1.465 . S
C306 C301 1.399 . S
C306 C305 1.394 . S
C306 C307 1.516 . S
C307 C306 1.516 . S
C307 C308 1.502 . S
C307 C309 1.561 . S
C307 C310 1.526 . S
C308 H292 0.959 . S
C308 H293 0.959 . S
C308 H294 0.961 . S
C308 C307 1.502 . S
C309 H295 0.960 . S
C309 H296 0.961 . S
C309 H297 0.959 . S
C309 C307 1.561 . S
C310 C307 1.526 . S
C310 C311 1.396 . S
C310 C315 1.390 . S
C311 C305 1.465 . S
C311 C310 1.396 . S
C311 C312 1.399 . S
C312 H298 0.929 . S
C312 C311 1.399 . S
C312 C313 1.385 . S
C313 H299 0.931 1_565 S
C313 C312 1.385 . S
C313 C314 1.389 . S
C314 C313 1.389 . S
C314 C315 1.387 . S
C315 H300 0.930 . S
C315 C310 1.390 . S
C315 C314 1.387 . S
H316 C328 0.936 . S
H317 C330 0.930 . S
H318 C331 0.930 . S
H319 C335 0.959 . S
H320 C335 0.959 . S
H321 C335 0.961 . S
H322 C336 0.960 . S
H323 C336 0.961 . S
H324 C336 0.959 . S
H325 C339 0.929 . S
H326 C340 0.931 . S
H327 C342 0.930 . S
C328 H316 0.936 . S
C328 C329 1.399 . S
C328 C333 1.399 . S
C329 C328 1.399 . S
C329 C330 1.376 . S
C330 H317 0.930 . S
C330 C329 1.376 . S
C330 C331 1.388 . S
C331 H318 0.930 . S
C331 C330 1.388 . S
C331 C332 1.390 . S
C332 C331 1.390 . S
C332 C333 1.394 . S
C332 C338 1.465 . S
C333 C328 1.399 . S
C333 C332 1.394 . S
C333 C334 1.516 . S
C334 C333 1.516 . S
C334 C335 1.502 . S
C334 C336 1.561 . S
C334 C337 1.526 . S
C335 H319 0.959 . S
C335 H320 0.959 . S
C335 H321 0.961 . S
C335 C334 1.502 . S
C336 H322 0.960 . S
C336 H323 0.961 . S
C336 H324 0.959 . S
C336 C334 1.561 . S
C337 C334 1.526 . S
C337 C338 1.396 . S
C337 C342 1.390 . S
C338 C332 1.465 . S
C338 C337 1.396 . S
C338 C339 1.399 . S
C339 H325 0.929 . S
C339 C338 1.399 . S
C339 C340 1.385 . S
C340 H326 0.931 . S
C340 C339 1.385 . S
C340 C341 1.389 . S
C341 C340 1.389 . S
C341 C342 1.387 . S
C342 H327 0.930 . S
C342 C337 1.390 . S
C342 C341 1.387 . S
H343 C355 0.930 . S
H344 C357 0.930 . S
H345 C358 0.930 . S
H346 C362 0.959 . S
H347 C362 0.959 . S
H348 C362 0.961 . S
H349 C363 0.960 . S
H350 C363 0.961 . S
H351 C363 0.959 . S
H352 C366 0.929 . S
H353 C367 0.931 . S
H354 C369 0.930 . S
C355 H343 0.930 . S
C355 C356 1.399 . S
C355 C360 1.399 . S
C356 C355 1.399 . S
C356 C357 1.376 . S
C357 H344 0.930 . S
C357 C356 1.376 . S
C357 C358 1.388 . S
C358 H345 0.930 . S
C358 C357 1.388 . S
C358 C359 1.390 . S
C359 C358 1.390 . S
C359 C360 1.394 . S
C359 C365 1.465 . S
C360 C355 1.399 . S
C360 C359 1.394 . S
C360 C361 1.516 . S
C361 C360 1.516 . S
C361 C362 1.502 . S
C361 C363 1.561 . S
C361 C364 1.526 . S
C362 H346 0.959 . S
C362 H347 0.959 . S
C362 H348 0.961 . S
C362 C361 1.502 . S
C363 H349 0.960 . S
C363 H350 0.961 . S
C363 H351 0.959 . S
C363 C361 1.561 . S
C364 C361 1.526 . S
C364 C365 1.396 . S
C364 C369 1.390 . S
C365 C359 1.465 . S
C365 C364 1.396 . S
C365 C366 1.399 . S
C366 H352 0.929 . S
C366 C365 1.399 . S
C366 C367 1.385 . S
C367 H353 0.931 . S
C367 C366 1.385 . S
C367 C368 1.389 . S
C368 C367 1.389 . S
C368 C369 1.387 . S
C369 H354 0.930 . S
C369 C364 1.390 . S
C369 C368 1.387 . S
H370 C382 0.930 . S
H371 C384 0.930 . S
H372 C385 0.930 . S
H373 C389 0.959 . S
H374 C389 0.959 . S
H375 C389 0.961 . S
H376 C390 0.960 . S
H377 C390 0.961 . S
H378 C390 0.959 . S
H379 C393 0.929 . S
H380 C394 0.931 . S
H381 C396 0.930 . S
C382 H370 0.930 . S
C382 C383 1.399 . S
C382 C387 1.399 . S
C383 C382 1.399 . S
C383 C384 1.376 . S
C384 H371 0.930 . S
C384 C383 1.376 . S
C384 C385 1.388 . S
C385 H372 0.930 . S
C385 C384 1.388 . S
C385 C386 1.390 . S
C386 C385 1.390 . S
C386 C387 1.394 . S
C386 C392 1.465 . S
C387 C382 1.399 . S
C387 C386 1.394 . S
C387 C388 1.516 . S
C388 C387 1.516 . S
C388 C389 1.502 . S
C388 C390 1.561 . S
C388 C391 1.526 . S
C389 H373 0.959 . S
C389 H374 0.959 . S
C389 H375 0.961 . S
C389 C388 1.502 . S
C390 H376 0.960 . S
C390 H377 0.961 . S
C390 H378 0.959 . S
C390 C388 1.561 . S
C391 C388 1.526 . S
C391 C392 1.396 . S
C391 C396 1.390 . S
C392 C386 1.465 . S
C392 C391 1.396 . S
C392 C393 1.399 . S
C393 H379 0.929 . S
C393 C392 1.399 . S
C393 C394 1.385 . S
C394 H380 0.931 . S
C394 C393 1.385 . S
C394 C395 1.389 . S
C395 C394 1.389 . S
C395 C396 1.387 . S
C396 H381 0.930 . S
C396 C391 1.390 . S
C396 C395 1.387 . S
H397 C409 0.930 . S
H398 C411 0.930 . S
H399 C412 0.930 . S
H400 C416 0.959 . S
H401 C416 0.959 . S
H402 C416 0.961 . S
H403 C417 0.960 . S
H404 C417 0.961 . S
H405 C417 0.959 . S
H406 C420 0.929 . S
H407 C421 0.931 . S
H408 C423 0.930 . S
C409 H397 0.930 . S
C409 C410 1.399 . S
C409 C414 1.399 . S
C410 C409 1.399 . S
C410 C411 1.376 . S
C411 H398 0.930 . S
C411 C410 1.376 . S
C411 C412 1.388 . S
C412 H399 0.930 . S
C412 C411 1.388 . S
C412 C413 1.390 . S
C413 C412 1.390 . S
C413 C414 1.394 . S
C413 C419 1.465 . S
C414 C409 1.399 . S
C414 C413 1.394 . S
C414 C415 1.516 . S
C415 C414 1.516 . S
C415 C416 1.502 . S
C415 C417 1.561 . S
C415 C418 1.526 . S
C416 H400 0.959 . S
C416 H401 0.959 . S
C416 H402 0.961 . S
C416 C415 1.502 . S
C417 H403 0.960 . S
C417 H404 0.961 . S
C417 H405 0.959 . S
C417 C415 1.561 . S
C418 C415 1.526 . S
C418 C419 1.396 . S
C418 C423 1.390 . S
C419 C413 1.465 . S
C419 C418 1.396 . S
C419 C420 1.399 . S
C420 H406 0.929 . S
C420 C419 1.399 . S
C420 C421 1.385 . S
C421 H407 0.931 . S
C421 C420 1.385 . S
C421 C422 1.389 . S
C422 C421 1.389 . S
C422 C423 1.387 . S
C423 H408 0.930 . S
C423 C418 1.390 . S
C423 C422 1.387 . S
H424 C436 0.930 . S
H425 C438 0.930 . S
H426 C439 0.930 . S
H427 C443 0.959 . S
H428 C443 0.959 . S
H429 C443 0.961 . S
H430 C444 0.960 . S
H431 C444 0.961 . S
H432 C444 0.959 . S
H433 C447 0.929 . S
H434 C448 0.931 . S
H435 C450 0.930 . S
C436 H424 0.930 . S
C436 C437 1.399 . S
C436 C441 1.399 . S
C437 C436 1.399 . S
C437 C438 1.376 1_565 S
C438 H425 0.930 . S
C438 C437 1.376 1_545 S
C438 C439 1.388 . S
C439 H426 0.930 . S
C439 C438 1.388 . S
C439 C440 1.390 . S
C440 C439 1.390 . S
C440 C441 1.394 1_545 S
C440 C446 1.465 . S
C441 C436 1.399 . S
C441 C440 1.394 1_565 S
C441 C442 1.516 . S
C442 C441 1.516 . S
C442 C443 1.502 . S
C442 C444 1.561 . S
C442 C445 1.526 . S
C443 H427 0.959 . S
C443 H428 0.959 . S
C443 H429 0.961 . S
C443 C442 1.502 . S
C444 H430 0.960 . S
C444 H431 0.961 . S
C444 H432 0.959 . S
C444 C442 1.561 . S
C445 C442 1.526 . S
C445 C446 1.396 1_565 S
C445 C450 1.390 . S
C446 C440 1.465 . S
C446 C445 1.396 1_545 S
C446 C447 1.399 . S
C447 H433 0.929 . S
C447 C446 1.399 . S
C447 C448 1.385 . S
C448 H434 0.931 . S
C448 C447 1.385 . S
C448 C449 1.389 . S
C449 C448 1.389 . S
C449 C450 1.387 1_545 S
C450 H435 0.930 . S
C450 C445 1.390 . S
C450 C449 1.387 1_565 S
H451 C463 0.930 . S
H452 C465 0.930 . S
H453 C466 0.930 . S
H454 C470 0.959 . S
H455 C470 0.959 . S
H456 C470 0.961 . S
H457 C471 0.960 . S
H458 C471 0.961 . S
H459 C471 0.959 . S
H460 C474 0.929 . S
H461 C475 0.931 . S
H462 C477 0.930 . S
C463 H451 0.930 . S
C463 C464 1.399 . S
C463 C468 1.399 . S
C464 C463 1.399 . S
C464 C465 1.376 . S
C465 H452 0.930 . S
C465 C464 1.376 . S
C465 C466 1.388 . S
C466 H453 0.930 . S
C466 C465 1.388 . S
C466 C467 1.390 . S
C467 C466 1.390 . S
C467 C468 1.394 . S
C467 C473 1.465 . S
C468 C463 1.399 . S
C468 C467 1.394 . S
C468 C469 1.516 . S
C469 C468 1.516 . S
C469 C470 1.502 . S
C469 C471 1.561 . S
C469 C472 1.526 . S
C470 H454 0.959 . S
C470 H455 0.959 . S
C470 H456 0.961 . S
C470 C469 1.502 . S
C471 H457 0.960 . S
C471 H458 0.961 . S
C471 H459 0.959 . S
C471 C469 1.561 . S
C472 C469 1.526 . S
C472 C473 1.396 . S
C472 C477 1.390 . S
C473 C467 1.465 . S
C473 C472 1.396 . S
C473 C474 1.399 . S
C474 H460 0.929 . S
C474 C473 1.399 . S
C474 C475 1.385 . S
C475 H461 0.931 . S
C475 C474 1.385 . S
C475 C476 1.389 . S
C476 C475 1.389 . S
C476 C477 1.387 . S
C477 H462 0.930 . S
C477 C472 1.390 . S
C477 C476 1.387 . S
H478 C490 0.930 . S
H479 C492 0.930 . S
H480 C493 0.930 . S
H481 C497 0.959 . S
H482 C497 0.959 . S
H483 C497 0.961 . S
H484 C498 0.960 . S
H485 C498 0.961 . S
H486 C498 0.959 . S
H487 C501 0.929 . S
H488 C502 0.931 . S
H489 C504 0.930 . S
C490 H478 0.930 . S
C490 C491 1.399 . S
C490 C495 1.399 . S
C491 C490 1.399 . S
C491 C492 1.376 . S
C492 H479 0.930 . S
C492 C491 1.376 . S
C492 C493 1.388 . S
C493 H480 0.930 . S
C493 C492 1.388 . S
C493 C494 1.390 . S
C494 C493 1.390 . S
C494 C495 1.394 . S
C494 C500 1.465 . S
C495 C490 1.399 . S
C495 C494 1.394 . S
C495 C496 1.516 . S
C496 C495 1.516 . S
C496 C497 1.502 . S
C496 C498 1.561 . S
C496 C499 1.526 . S
C497 H481 0.959 . S
C497 H482 0.959 . S
C497 H483 0.961 . S
C497 C496 1.502 . S
C498 H484 0.960 . S
C498 H485 0.961 . S
C498 H486 0.959 . S
C498 C496 1.561 . S
C499 C496 1.526 . S
C499 C500 1.396 . S
C499 C504 1.390 . S
C500 C494 1.465 . S
C500 C499 1.396 . S
C500 C501 1.399 . S
C501 H487 0.929 . S
C501 C500 1.399 . S
C501 C502 1.385 . S
C502 H488 0.931 . S
C502 C501 1.385 . S
C502 C503 1.389 . S
C503 C502 1.389 . S
C503 C504 1.387 . S
C504 H489 0.930 . S
C504 C499 1.390 . S
C504 C503 1.387 . S
H505 C517 0.930 . S
H506 C519 0.930 . S
H507 C520 0.930 . S
H508 C524 0.959 . S
H509 C524 0.959 . S
H510 C524 0.961 . S
H511 C525 0.960 . S
H512 C525 0.961 . S
H513 C525 0.959 . S
H514 C528 0.929 . S
H515 C529 0.931 . S
H516 C531 0.930 . S
C517 H505 0.930 . S
C517 C518 1.399 1_455 S
C517 C522 1.397 1_455 S
C518 C517 1.399 1_655 S
C518 C519 1.376 . S
C519 H506 0.930 . S
C519 C518 1.376 . S
C519 C520 1.388 . S
C520 H507 0.930 . S
C520 C519 1.388 . S
C520 C521 1.390 . S
C521 C520 1.390 . S
C521 C522 1.420 . S
C521 C527 1.465 . S
C522 C517 1.397 1_655 S
C522 C521 1.420 . S
C522 C523 1.496 1_655 S
C523 C522 1.496 1_455 S
C523 C524 1.502 . S
C523 C525 1.561 . S
C523 C526 1.526 . S
C524 H508 0.959 . S
C524 H509 0.959 . S
C524 H510 0.961 . S
C524 C523 1.502 . S
C525 H511 0.960 . S
C525 H512 0.961 . S
C525 H513 0.959 . S
C525 C523 1.561 . S
C526 C523 1.526 . S
C526 C527 1.396 1_455 S
C526 C531 1.390 . S
C527 C521 1.465 . S
C527 C526 1.396 1_655 S
C527 C528 1.399 . S
C528 H514 0.929 . S
C528 C527 1.399 . S
C528 C529 1.385 . S
C529 H515 0.931 . S
C529 C528 1.385 . S
C529 C530 1.389 . S
C530 C529 1.389 . S
C530 C531 1.387 1_655 S
C531 H516 0.930 . S
C531 C526 1.390 . S
C531 C530 1.387 1_455 S
H532 C544 0.930 . S
H533 C546 0.930 . S
H534 C547 0.930 . S
H535 C551 0.959 . S
H536 C551 0.959 . S
H537 C551 0.961 . S
H538 C552 0.960 . S
H539 C552 0.961 . S
H540 C552 0.959 . S
H541 C555 0.929 . S
H542 C556 0.931 . S
H543 C558 0.930 . S
C544 H532 0.930 . S
C544 C545 1.399 . S
C544 C549 1.399 . S
C545 C544 1.399 . S
C545 C546 1.376 1_545 S
C546 H533 0.930 . S
C546 C545 1.376 1_565 S
C546 C547 1.388 . S
C547 H534 0.930 . S
C547 C546 1.388 . S
C547 C548 1.390 1_565 S
C548 C547 1.390 1_545 S
C548 C549 1.394 . S
C548 C554 1.465 1_545 S
C549 C544 1.399 . S
C549 C548 1.394 . S
C549 C550 1.516 . S
C550 C549 1.516 . S
C550 C551 1.502 . S
C550 C552 1.561 . S
C550 C553 1.526 . S
C551 H535 0.959 . S
C551 H536 0.959 . S
C551 H537 0.961 . S
C551 C550 1.502 . S
C552 H538 0.960 . S
C552 H539 0.961 . S
C552 H540 0.959 . S
C552 C550 1.561 . S
C553 C550 1.526 . S
C553 C554 1.396 1_545 S
C553 C558 1.390 . S
C554 C548 1.465 1_565 S
C554 C553 1.396 1_565 S
C554 C555 1.399 . S
C555 H541 0.929 . S
C555 C554 1.399 . S
C555 C556 1.385 . S
C556 H542 0.931 . S
C556 C555 1.385 . S
C556 C557 1.389 . S
C557 C556 1.389 . S
C557 C558 1.387 1_565 S
C558 H543 0.930 . S
C558 C553 1.390 . S
C558 C557 1.387 1_545 S
H559 C571 0.930 . S
H560 C573 0.930 . S
H561 C574 0.930 . S
H562 C578 0.959 . S
H563 C578 0.959 . S
H564 C578 0.961 . S
H565 C579 0.960 . S
H566 C579 0.961 . S
H567 C579 0.959 . S
H568 C582 0.929 . S
H569 C583 0.931 . S
H570 C585 0.930 . S
C571 H559 0.930 . S
C571 C572 1.399 . S
C571 C576 1.399 . S
C572 C571 1.399 . S
C572 C573 1.376 . S
C573 H560 0.930 . S
C573 C572 1.376 . S
C573 C574 1.388 . S
C574 H561 0.930 . S
C574 C573 1.388 . S
C574 C575 1.390 . S
C575 C574 1.390 . S
C575 C576 1.394 . S
C575 C581 1.465 . S
C576 C571 1.399 . S
C576 C575 1.394 . S
C576 C577 1.516 . S
C577 C576 1.516 . S
C577 C578 1.502 . S
C577 C579 1.561 . S
C577 C580 1.526 . S
C578 H562 0.959 . S
C578 H563 0.959 . S
C578 H564 0.961 . S
C578 C577 1.502 . S
C579 H565 0.960 . S
C579 H566 0.961 . S
C579 H567 0.959 . S
C579 C577 1.561 . S
C580 C577 1.526 . S
C580 C581 1.396 . S
C580 C585 1.390 . S
C581 C575 1.465 . S
C581 C580 1.396 . S
C581 C582 1.399 . S
C582 H568 0.929 . S
C582 C581 1.399 . S
C582 C583 1.385 . S
C583 H569 0.931 . S
C583 C582 1.385 . S
C583 C584 1.389 . S
C584 C583 1.389 . S
C584 C585 1.387 . S
C585 H570 0.930 . S
C585 C580 1.390 . S
C585 C584 1.387 . S
H586 C598 0.930 . S
H587 C600 0.930 . S
H588 C601 0.930 . S
H589 C605 0.959 . S
H590 C605 0.959 . S
H591 C605 0.961 . S
H592 C606 0.960 . S
H593 C606 0.961 . S
H594 C606 0.959 . S
H595 C609 0.929 . S
H596 C610 0.931 . S
H597 C612 0.930 . S
C598 H586 0.930 . S
C598 C599 1.399 . S
C598 C603 1.399 . S
C599 C598 1.399 . S
C599 C600 1.376 . S
C600 H587 0.930 . S
C600 C599 1.376 . S
C600 C601 1.388 . S
C601 H588 0.930 . S
C601 C600 1.388 . S
C601 C602 1.390 . S
C602 C601 1.390 . S
C602 C603 1.394 . S
C602 C608 1.465 . S
C603 C598 1.399 . S
C603 C602 1.394 . S
C603 C604 1.516 . S
C604 C603 1.516 . S
C604 C605 1.502 . S
C604 C606 1.561 . S
C604 C607 1.526 . S
C605 H589 0.959 . S
C605 H590 0.959 . S
C605 H591 0.961 . S
C605 C604 1.502 . S
C606 H592 0.960 . S
C606 H593 0.961 . S
C606 H594 0.959 . S
C606 C604 1.561 . S
C607 C604 1.526 . S
C607 C608 1.396 . S
C607 C612 1.390 . S
C608 C602 1.465 . S
C608 C607 1.396 . S
C608 C609 1.399 . S
C609 H595 0.929 . S
C609 C608 1.399 . S
C609 C610 1.385 . S
C610 H596 0.931 . S
C610 C609 1.385 . S
C610 C611 1.389 . S
C611 C610 1.389 . S
C611 C612 1.387 . S
C612 H597 0.930 . S
C612 C607 1.390 . S
C612 C611 1.387 . S
H613 C625 0.930 . S
H614 C627 0.930 . S
H615 C628 0.930 . S
H616 C632 0.959 . S
H617 C632 0.959 . S
H618 C632 0.961 . S
H619 C633 0.960 . S
H620 C633 0.961 . S
H621 C633 0.959 . S
H622 C636 0.929 . S
H623 C637 0.931 . S
H624 C639 0.930 . S
C625 H613 0.930 . S
C625 C626 1.399 1_655 S
C625 C630 1.399 . S
C626 C625 1.399 1_455 S
C626 C627 1.376 . S
C627 H614 0.930 . S
C627 C626 1.376 . S
C627 C628 1.388 . S
C628 H615 0.930 . S
C628 C627 1.388 . S
C628 C629 1.390 . S
C629 C628 1.390 . S
C629 C630 1.398 1_455 S
C629 C635 1.465 . S
C630 C625 1.399 . S
C630 C629 1.398 1_655 S
C630 C631 1.513 . S
C631 C630 1.513 . S
C631 C632 1.502 . S
C631 C633 1.561 . S
C631 C634 1.526 . S
C632 H616 0.959 . S
C632 H617 0.959 . S
C632 H618 0.961 . S
C632 C631 1.502 . S
C633 H619 0.960 . S
C633 H620 0.961 . S
C633 H621 0.959 . S
C633 C631 1.561 . S
C634 C631 1.526 . S
C634 C635 1.396 1_655 S
C634 C639 1.390 . S
C635 C629 1.465 . S
C635 C634 1.396 1_455 S
C635 C636 1.399 . S
C636 H622 0.929 . S
C636 C635 1.399 . S
C636 C637 1.385 . S
C637 H623 0.931 . S
C637 C636 1.385 . S
C637 C638 1.389 . S
C638 C637 1.389 . S
C638 C639 1.387 1_455 S
C639 H624 0.930 . S
C639 C634 1.390 . S
C639 C638 1.387 1_655 S
H640 C652 0.930 . S
H641 C654 0.930 . S
H642 C655 0.930 . S
H643 C659 0.959 . S
H644 C659 0.959 . S
H645 C659 0.961 . S
H646 C660 0.960 . S
H647 C660 0.961 . S
H648 C660 0.959 . S
H649 C663 0.929 . S
H650 C664 0.931 . S
H651 C666 0.930 1_565 S
C652 H640 0.930 . S
C652 C653 1.399 1_565 S
C652 C657 1.399 . S
C653 C652 1.399 1_545 S
C653 C654 1.376 . S
C654 H641 0.930 . S
C654 C653 1.376 . S
C654 C655 1.388 . S
C655 H642 0.930 . S
C655 C654 1.388 . S
C655 C656 1.390 . S
C656 C655 1.390 . S
C656 C657 1.394 1_545 S
C656 C662 1.465 . S
C657 C652 1.399 . S
C657 C656 1.394 1_565 S
C657 C658 1.516 . S
C658 C657 1.516 . S
C658 C659 1.502 . S
C658 C660 1.561 . S
C658 C661 1.526 1_565 S
C659 H643 0.959 . S
C659 H644 0.959 . S
C659 H645 0.961 . S
C659 C658 1.502 . S
C660 H646 0.960 . S
C660 H647 0.961 . S
C660 H648 0.959 . S
C660 C658 1.561 . S
C661 C658 1.526 1_545 S
C661 C662 1.396 . S
C661 C666 1.390 . S
C662 C656 1.465 . S
C662 C661 1.396 . S
C662 C663 1.399 . S
C663 H649 0.929 . S
C663 C662 1.399 . S
C663 C664 1.385 . S
C664 H650 0.931 . S
C664 C663 1.385 . S
C664 C665 1.389 . S
C665 C664 1.389 . S
C665 C666 1.387 . S
C666 H651 0.930 1_545 S
C666 C661 1.390 . S
C666 C665 1.387 . S
H667 C679 0.930 . S
H668 C681 0.930 . S
H669 C682 0.930 . S
H670 C686 0.959 . S
H671 C686 0.959 . S
H672 C686 0.961 . S
H673 C687 0.960 . S
H674 C687 0.961 . S
H675 C687 0.959 . S
H676 C690 0.929 . S
H677 C691 0.931 . S
H678 C693 0.930 . S
C679 H667 0.930 . S
C679 C680 1.399 . S
C679 C684 1.399 . S
C680 C679 1.399 . S
C680 C681 1.376 . S
C681 H668 0.930 . S
C681 C680 1.376 . S
C681 C682 1.388 . S
C682 H669 0.930 . S
C682 C681 1.388 . S
C682 C683 1.390 . S
C683 C682 1.390 . S
C683 C684 1.394 . S
C683 C689 1.465 . S
C684 C679 1.399 . S
C684 C683 1.394 . S
C684 C685 1.516 . S
C685 C684 1.516 . S
C685 C686 1.502 . S
C685 C687 1.561 . S
C685 C688 1.526 . S
C686 H670 0.959 . S
C686 H671 0.959 . S
C686 H672 0.961 . S
C686 C685 1.502 . S
C687 H673 0.960 . S
C687 H674 0.961 . S
C687 H675 0.959 . S
C687 C685 1.561 . S
C688 C685 1.526 . S
C688 C689 1.396 . S
C688 C693 1.390 . S
C689 C683 1.465 . S
C689 C688 1.396 . S
C689 C690 1.399 . S
C690 H676 0.929 . S
C690 C689 1.399 . S
C690 C691 1.385 . S
C691 H677 0.931 . S
C691 C690 1.385 . S
C691 C692 1.389 . S
C692 C691 1.389 . S
C692 C693 1.387 . S
C693 H678 0.930 . S
C693 C688 1.390 . S
C693 C692 1.387 . S
H694 C706 0.930 . S
H695 C708 0.930 . S
H696 C709 0.930 . S
H697 C713 0.959 . S
H698 C713 0.959 . S
H699 C713 0.961 . S
H700 C714 0.960 . S
H701 C714 0.961 . S
H702 C714 0.959 . S
H703 C717 0.929 . S
H704 C718 0.931 . S
H705 C720 0.930 . S
C706 H694 0.930 . S
C706 C707 1.399 . S
C706 C711 1.399 . S
C707 C706 1.399 . S
C707 C708 1.376 . S
C708 H695 0.930 . S
C708 C707 1.376 . S
C708 C709 1.388 . S
C709 H696 0.930 . S
C709 C708 1.388 . S
C709 C710 1.390 . S
C710 C709 1.390 . S
C710 C711 1.394 . S
C710 C716 1.465 . S
C711 C706 1.399 . S
C711 C710 1.394 . S
C711 C712 1.516 . S
C712 C711 1.516 . S
C712 C713 1.502 . S
C712 C714 1.561 . S
C712 C715 1.526 . S
C713 H697 0.959 . S
C713 H698 0.959 . S
C713 H699 0.961 . S
C713 C712 1.502 . S
C714 H700 0.960 . S
C714 H701 0.961 . S
C714 H702 0.959 . S
C714 C712 1.561 . S
C715 C712 1.526 . S
C715 C716 1.396 . S
C715 C720 1.390 . S
C716 C710 1.465 . S
C716 C715 1.396 . S
C716 C717 1.399 . S
C717 H703 0.929 . S
C717 C716 1.399 . S
C717 C718 1.385 . S
C718 H704 0.931 . S
C718 C717 1.385 . S
C718 C719 1.389 . S
C719 C718 1.389 . S
C719 C720 1.387 . S
C720 H705 0.930 . S
C720 C715 1.390 . S
C720 C719 1.387 . S
H721 C733 0.930 . S
H722 C735 0.930 . S
H723 C736 0.930 . S
H724 C740 0.959 . S
H725 C740 0.959 . S
H726 C740 0.961 . S
H727 C741 0.960 . S
H728 C741 0.961 . S
H729 C741 0.959 . S
H730 C744 0.929 . S
H731 C745 0.931 . S
H732 C747 0.930 . S
C733 H721 0.930 . S
C733 C734 1.399 . S
C733 C738 1.399 . S
C734 C733 1.399 . S
C734 C735 1.376 . S
C735 H722 0.930 . S
C735 C734 1.376 . S
C735 C736 1.388 . S
C736 H723 0.930 . S
C736 C735 1.388 . S
C736 C737 1.390 . S
C737 C736 1.390 . S
C737 C738 1.394 . S
C737 C743 1.465 . S
C738 C733 1.399 . S
C738 C737 1.394 . S
C738 C739 1.528 . S
C739 C738 1.528 . S
C739 C740 1.465 1_455 S
C739 C741 1.587 . S
C739 C742 1.531 . S
C740 H724 0.959 . S
C740 H725 0.959 . S
C740 H726 0.961 . S
C740 C739 1.465 1_655 S
C741 H727 0.960 . S
C741 H728 0.961 . S
C741 H729 0.959 . S
C741 C739 1.587 . S
C742 C739 1.531 . S
C742 C743 1.396 . S
C742 C747 1.390 1_455 S
C743 C737 1.465 . S
C743 C742 1.396 . S
C743 C744 1.399 . S
C744 H730 0.929 . S
C744 C743 1.399 . S
C744 C745 1.385 . S
C745 H731 0.931 . S
C745 C744 1.385 . S
C745 C746 1.389 . S
C746 C745 1.389 . S
C746 C747 1.387 1_455 S
C747 H732 0.930 . S
C747 C742 1.390 1_655 S
C747 C746 1.387 1_655 S
H748 C760 0.930 . S
H749 C762 0.930 . S
H750 C763 0.930 . S
H751 C767 0.959 . S
H752 C767 0.959 . S
H753 C767 0.961 . S
H754 C768 0.960 . S
H755 C768 0.961 . S
H756 C768 0.959 . S
H757 C771 0.929 . S
H758 C772 0.931 . S
H759 C774 0.930 . S
C760 H748 0.930 . S
C760 C761 1.399 1_545 S
C760 C765 1.399 . S
C761 C760 1.399 1_565 S
C761 C762 1.376 . S
C762 H749 0.930 . S
C762 C761 1.376 . S
C762 C763 1.388 . S
C763 H750 0.930 . S
C763 C762 1.388 . S
C763 C764 1.390 . S
C764 C763 1.390 . S
C764 C765 1.394 1_565 S
C764 C770 1.465 . S
C765 C760 1.399 . S
C765 C764 1.394 1_545 S
C765 C766 1.516 . S
C766 C765 1.516 . S
C766 C767 1.502 . S
C766 C768 1.561 . S
C766 C769 1.518 1_545 S
C767 H751 0.959 . S
C767 H752 0.959 . S
C767 H753 0.961 . S
C767 C766 1.502 . S
C768 H754 0.960 . S
C768 H755 0.961 . S
C768 H756 0.959 . S
C768 C766 1.561 . S
C769 C766 1.518 1_565 S
C769 C770 1.405 . S
C769 C774 1.389 1_565 S
C770 C764 1.465 . S
C770 C769 1.405 . S
C770 C771 1.399 . S
C771 H757 0.929 . S
C771 C770 1.399 . S
C771 C772 1.385 . S
C772 H758 0.931 . S
C772 C771 1.385 . S
C772 C773 1.389 . S
C773 C772 1.389 . S
C773 C774 1.387 1_565 S
C774 H759 0.930 . S
C774 C769 1.389 1_545 S
C774 C773 1.387 1_545 S
H775 C787 0.930 . S
H776 C789 0.930 . S
H777 C790 0.930 . S
H778 C794 0.959 . S
H779 C794 0.959 . S
H780 C794 0.961 . S
H781 C795 0.960 . S
H782 C795 0.961 . S
H783 C795 0.959 . S
H784 C798 0.929 . S
H785 C799 0.931 . S
H786 C801 0.930 . S
C787 H775 0.930 . S
C787 C788 1.399 . S
C787 C792 1.399 . S
C788 C787 1.399 . S
C788 C789 1.376 . S
C789 H776 0.930 . S
C789 C788 1.376 . S
C789 C790 1.388 . S
C790 H777 0.930 . S
C790 C789 1.388 . S
C790 C791 1.390 . S
C791 C790 1.390 . S
C791 C792 1.394 . S
C791 C797 1.465 . S
C792 C787 1.399 . S
C792 C791 1.394 . S
C792 C793 1.516 . S
C793 C792 1.516 . S
C793 C794 1.502 . S
C793 C795 1.561 . S
C793 C796 1.526 . S
C794 H778 0.959 . S
C794 H779 0.959 . S
C794 H780 0.961 . S
C794 C793 1.502 . S
C795 H781 0.960 . S
C795 H782 0.961 . S
C795 H783 0.959 . S
C795 C793 1.561 . S
C796 C793 1.526 . S
C796 C797 1.396 . S
C796 C801 1.390 . S
C797 C791 1.465 . S
C797 C796 1.396 . S
C797 C798 1.399 . S
C798 H784 0.929 . S
C798 C797 1.399 . S
C798 C799 1.385 . S
C799 H785 0.931 . S
C799 C798 1.385 . S
C799 C800 1.389 . S
C800 C799 1.389 . S
C800 C801 1.387 . S
C801 H786 0.930 . S
C801 C796 1.390 . S
C801 C800 1.387 . S
H802 C814 0.930 . S
H803 C816 0.930 . S
H804 C817 0.930 . S
H805 C821 0.959 . S
H806 C821 0.959 . S
H807 C821 0.961 . S
H808 C822 0.960 . S
H809 C822 0.961 . S
H810 C822 0.959 . S
H811 C825 0.929 . S
H812 C826 0.931 . S
H813 C828 0.930 . S
C814 H802 0.930 . S
C814 C815 1.399 . S
C814 C819 1.399 . S
C815 C814 1.399 . S
C815 C816 1.376 . S
C816 H803 0.930 . S
C816 C815 1.376 . S
C816 C817 1.388 . S
C817 H804 0.930 . S
C817 C816 1.388 . S
C817 C818 1.390 . S
C818 C817 1.390 . S
C818 C819 1.394 . S
C818 C824 1.465 . S
C819 C814 1.399 . S
C819 C818 1.394 . S
C819 C820 1.516 . S
C820 C819 1.516 . S
C820 C821 1.502 . S
C820 C822 1.561 . S
C820 C823 1.526 . S
C821 H805 0.959 . S
C821 H806 0.959 . S
C821 H807 0.961 . S
C821 C820 1.502 . S
C822 H808 0.960 . S
C822 H809 0.961 . S
C822 H810 0.959 . S
C822 C820 1.561 . S
C823 C820 1.526 . S
C823 C824 1.396 . S
C823 C828 1.390 . S
C824 C818 1.465 . S
C824 C823 1.396 . S
C824 C825 1.399 . S
C825 H811 0.929 . S
C825 C824 1.399 . S
C825 C826 1.385 . S
C826 H812 0.931 . S
C826 C825 1.385 . S
C826 C827 1.389 . S
C827 C826 1.389 . S
C827 C828 1.387 . S
C828 H813 0.930 . S
C828 C823 1.390 . S
C828 C827 1.387 . S
H829 C841 0.930 . S
H830 C843 0.929 1_455 S
H831 C844 0.930 . S
H832 C848 0.959 . S
H833 C848 0.959 . S
H834 C848 0.961 . S
H835 C849 0.960 . S
H836 C849 0.961 . S
H837 C849 0.959 . S
H838 C852 0.929 . S
H839 C853 0.931 . S
H840 C855 0.930 . S
C841 H829 0.930 . S
C841 C842 1.399 . S
C841 C846 1.399 . S
C842 C841 1.399 . S
C842 C843 1.377 . S
C843 H830 0.929 1_655 S
C843 C842 1.377 . S
C843 C844 1.390 . S
C844 H831 0.930 . S
C844 C843 1.390 . S
C844 C845 1.390 . S
C845 C844 1.390 . S
C845 C846 1.394 . S
C845 C851 1.465 . S
C846 C841 1.399 . S
C846 C845 1.394 . S
C846 C847 1.516 . S
C847 C846 1.516 . S
C847 C848 1.502 . S
C847 C849 1.561 1_655 S
C847 C850 1.526 . S
C848 H832 0.959 . S
C848 H833 0.959 . S
C848 H834 0.961 . S
C848 C847 1.502 . S
C849 H835 0.960 . S
C849 H836 0.961 . S
C849 H837 0.959 . S
C849 C847 1.561 1_455 S
C850 C847 1.526 . S
C850 C851 1.396 . S
C850 C855 1.390 . S
C851 C845 1.465 . S
C851 C850 1.396 . S
C851 C852 1.399 . S
C852 H838 0.929 . S
C852 C851 1.399 . S
C852 C853 1.385 . S
C853 H839 0.931 . S
C853 C852 1.385 . S
C853 C854 1.389 . S
C854 C853 1.389 . S
C854 C855 1.387 . S
C855 H840 0.930 . S
C855 C850 1.390 . S
C855 C854 1.387 . S
H856 C868 0.930 . S
H857 C870 0.930 . S
H858 C871 0.930 . S
H859 C875 0.959 . S
H860 C875 0.959 . S
H861 C875 0.961 . S
H862 C876 0.960 . S
H863 C876 0.961 . S
H864 C876 0.959 . S
H865 C879 0.929 . S
H866 C880 0.932 . S
H867 C882 0.930 . S
C868 H856 0.930 . S
C868 C869 1.399 . S
C868 C873 1.399 . S
C869 C868 1.399 . S
C869 C870 1.376 1_556 S
C870 H857 0.930 . S
C870 C869 1.376 1_554 S
C870 C871 1.388 . S
C871 H858 0.930 . S
C871 C870 1.388 . S
C871 C872 1.390 . S
C872 C871 1.390 . S
C872 C873 1.394 1_554 S
C872 C878 1.465 . S
C873 C868 1.399 . S
C873 C872 1.394 1_556 S
C873 C874 1.516 . S
C874 C873 1.516 . S
C874 C875 1.502 1_545 S
C874 C876 1.561 . S
C874 C877 1.526 . S
C875 H859 0.959 . S
C875 H860 0.959 . S
C875 H861 0.961 . S
C875 C874 1.502 1_565 S
C876 H862 0.960 . S
C876 H863 0.961 . S
C876 H864 0.959 . S
C876 C874 1.561 . S
C877 C874 1.526 . S
C877 C878 1.396 1_556 S
C877 C882 1.391 . S
C878 C872 1.465 . S
C878 C877 1.396 1_554 S
C878 C879 1.399 . S
C879 H865 0.929 . S
C879 C878 1.399 . S
C879 C880 1.384 1_545 S
C880 H866 0.932 . S
C880 C879 1.384 1_565 S
C880 C881 1.389 . S
C881 C880 1.389 . S
C881 C882 1.386 1_564 S
C882 H867 0.930 . S
C882 C877 1.391 . S
C882 C881 1.386 1_546 S
H883 C895 0.930 . S
H884 C897 0.930 . S
H885 C898 0.930 . S
H886 C902 0.959 . S
H887 C902 0.959 . S
H888 C902 0.961 . S
H889 C903 0.960 . S
H890 C903 0.961 . S
H891 C903 0.959 . S
H892 C906 0.929 . S
H893 C907 0.931 . S
H894 C909 0.930 . S
C895 H883 0.930 . S
C895 C896 1.399 1_554 S
C895 C900 1.399 . S
C896 C895 1.399 1_556 S
C896 C897 1.376 . S
C897 H884 0.930 . S
C897 C896 1.376 . S
C897 C898 1.388 . S
C898 H885 0.930 . S
C898 C897 1.388 . S
C898 C899 1.390 . S
C899 C898 1.390 . S
C899 C900 1.394 1_556 S
C899 C905 1.465 . S
C900 C895 1.399 . S
C900 C899 1.394 1_554 S
C900 C901 1.516 . S
C901 C900 1.516 . S
C901 C902 1.502 . S
C901 C903 1.561 . S
C901 C904 1.526 . S
C902 H886 0.959 . S
C902 H887 0.959 . S
C902 H888 0.961 . S
C902 C901 1.502 . S
C903 H889 0.960 . S
C903 H890 0.961 . S
C903 H891 0.959 . S
C903 C901 1.561 . S
C904 C901 1.526 . S
C904 C905 1.396 1_554 S
C904 C909 1.390 . S
C905 C899 1.465 . S
C905 C904 1.396 1_556 S
C905 C906 1.399 . S
C906 H892 0.929 . S
C906 C905 1.399 . S
C906 C907 1.385 . S
C907 H893 0.931 . S
C907 C906 1.385 . S
C907 C908 1.389 1_556 S
C908 C907 1.389 1_554 S
C908 C909 1.387 . S
C909 H894 0.930 . S
C909 C904 1.390 . S
C909 C908 1.387 . S
H910 C922 0.930 . S
H911 C924 0.930 . S
H912 C925 0.930 . S
H913 C929 0.959 . S
H914 C929 0.959 . S
H915 C929 0.961 1_655 S
H916 C930 0.941 1_655 S
H917 C930 0.981 . S
H918 C930 0.955 1_655 S
H919 C933 0.929 . S
H920 C934 0.931 . S
H921 C936 0.930 . S
C922 H910 0.930 . S
C922 C923 1.399 . S
C922 C927 1.399 . S
C923 C922 1.399 . S
C923 C924 1.376 1_554 S
C924 H911 0.930 . S
C924 C923 1.376 1_556 S
C924 C925 1.388 . S
C925 H912 0.930 . S
C925 C924 1.388 . S
C925 C926 1.390 . S
C926 C925 1.390 . S
C926 C927 1.394 1_556 S
C926 C932 1.465 1_655 S
C927 C922 1.399 . S
C927 C926 1.394 1_554 S
C927 C928 1.516 1_655 S
C928 C927 1.516 1_455 S
C928 C929 1.502 . S
C928 C930 1.564 . S
C928 C931 1.526 . S
C929 H913 0.959 . S
C929 H914 0.959 . S
C929 H915 0.961 1_455 S
C929 C928 1.502 . S
C930 H916 0.941 1_455 S
C930 H917 0.981 . S
C930 H918 0.955 1_455 S
C930 C928 1.564 . S
C931 C928 1.526 . S
C931 C932 1.396 1_554 S
C931 C936 1.390 . S
C932 C926 1.465 1_455 S
C932 C931 1.396 1_556 S
C932 C933 1.399 . S
C933 H919 0.929 . S
C933 C932 1.399 . S
C933 C934 1.385 . S
C934 H920 0.931 . S
C934 C933 1.385 . S
C934 C935 1.389 . S
C935 C934 1.389 . S
C935 C936 1.387 1_556 S
C936 H921 0.930 . S
C936 C931 1.390 . S
C936 C935 1.387 1_554 S
H937 C949 0.930 . S
H938 C951 0.930 . S
H939 C952 0.930 . S
H940 C956 0.959 . S
H941 C956 0.959 . S
H942 C956 0.961 1_545 S
H943 C957 0.960 1_545 S
H944 C957 0.961 . S
H945 C957 0.959 . S
H946 C960 0.929 . S
H947 C961 0.931 . S
H948 C963 0.930 . S
C949 H937 0.930 . S
C949 C950 1.399 1_655 S
C949 C954 1.399 . S
C950 C949 1.399 1_455 S
C950 C951 1.376 1_556 S
C951 H938 0.930 . S
C951 C950 1.376 1_554 S
C951 C952 1.388 . S
C952 H939 0.930 . S
C952 C951 1.388 . S
C952 C953 1.390 . S
C953 C952 1.390 . S
C953 C954 1.394 1_454 S
C953 C959 1.465 1_545 S
C954 C949 1.399 . S
C954 C953 1.394 1_656 S
C954 C955 1.516 1_545 S
C955 C954 1.516 1_565 S
C955 C956 1.502 . S
C955 C957 1.561 1_655 S
C955 C958 1.526 . S
C956 H940 0.959 . S
C956 H941 0.959 . S
C956 H942 0.961 1_565 S
C956 C955 1.502 . S
C957 H943 0.960 1_565 S
C957 H944 0.961 . S
C957 H945 0.959 . S
C957 C955 1.561 1_455 S
C958 C955 1.526 . S
C958 C959 1.396 1_656 S
C958 C963 1.390 . S
C959 C953 1.465 1_565 S
C959 C958 1.396 1_454 S
C959 C960 1.399 . S
C960 H946 0.929 . S
C960 C959 1.399 . S
C960 C961 1.385 . S
C961 H947 0.931 . S
C961 C960 1.385 . S
C961 C962 1.398 . S
C962 C961 1.398 . S
C962 C963 1.382 1_454 S
C963 H948 0.930 . S
C963 C958 1.390 . S
C963 C962 1.382 1_656 S
H964 C976 0.930 . S
H965 C978 0.930 . S
H966 C979 0.930 . S
H967 C983 0.959 1_655 S
H968 C983 0.959 1_655 S
H969 C983 0.961 . S
H970 C984 0.960 . S
H971 C984 0.961 1_655 S
H972 C984 0.959 . S
H973 C987 0.929 . S
H974 C988 0.931 . S
H975 C990 0.930 . S
C976 H964 0.930 . S
C976 C977 1.399 1_565 S
C976 C981 1.399 . S
C977 C976 1.399 1_545 S
C977 C978 1.376 . S
C978 H965 0.930 . S
C978 C977 1.376 . S
C978 C979 1.388 . S
C979 H966 0.930 . S
C979 C978 1.388 . S
C979 C980 1.390 . S
C980 C979 1.390 . S
C980 C981 1.394 1_545 S
C980 C986 1.465 1_455 S
C981 C976 1.399 . S
C981 C980 1.394 1_565 S
C981 C982 1.516 . S
C982 C981 1.516 . S
C982 C983 1.502 . S
C982 C984 1.561 . S
C982 C985 1.526 1_455 S
C983 H967 0.959 1_455 S
C983 H968 0.959 1_455 S
C983 H969 0.961 . S
C983 C982 1.502 . S
C984 H970 0.960 . S
C984 H971 0.961 1_455 S
C984 H972 0.959 . S
C984 C982 1.561 . S
C985 C982 1.526 1_655 S
C985 C986 1.396 1_565 S
C985 C990 1.390 . S
C986 C980 1.465 1_655 S
C986 C985 1.396 1_545 S
C986 C987 1.399 . S
C987 H973 0.929 . S
C987 C986 1.399 . S
C987 C988 1.385 . S
C988 H974 0.931 . S
C988 C987 1.385 . S
C988 C989 1.389 . S
C989 C988 1.389 . S
C989 C990 1.387 1_545 S
C990 H975 0.930 . S
C990 C985 1.390 . S
C990 C989 1.387 1_565 S
H991 C1003 0.930 . S
H992 C1005 0.930 . S
H993 C1006 0.930 . S
H994 C1010 0.959 . S
H995 C1010 0.953 1_545 S
H996 C1010 0.961 . S
H997 C1011 0.960 . S
H998 C1011 0.961 1_545 S
H999 C1011 0.959 . S
H1000 C1014 0.929 . S
H1001 C1015 0.931 . S
H1002 C1017 0.930 . S
C1003 H991 0.930 . S
C1003 C1004 1.399 . S
C1003 C1008 1.399 . S
C1004 C1003 1.399 . S
C1004 C1005 1.376 . S
C1005 H992 0.930 . S
C1005 C1004 1.376 . S
C1005 C1006 1.388 . S
C1006 H993 0.930 . S
C1006 C1005 1.388 . S
C1006 C1007 1.390 . S
C1007 C1006 1.390 . S
C1007 C1008 1.394 . S
C1007 C1013 1.465 1_565 S
C1008 C1003 1.399 . S
C1008 C1007 1.394 . S
C1008 C1009 1.516 . S
C1009 C1008 1.516 . S
C1009 C1010 1.502 . S
C1009 C1011 1.561 . S
C1009 C1012 1.526 1_565 S
C1010 H994 0.959 . S
C1010 H995 0.953 1_565 S
C1010 H996 0.961 . S
C1010 C1009 1.502 . S
C1011 H997 0.960 . S
C1011 H998 0.961 1_565 S
C1011 H999 0.959 . S
C1011 C1009 1.561 . S
C1012 C1009 1.526 1_545 S
C1012 C1013 1.396 . S
C1012 C1017 1.390 . S
C1013 C1007 1.465 1_545 S
C1013 C1012 1.396 . S
C1013 C1014 1.399 . S
C1014 H1000 0.929 . S
C1014 C1013 1.399 . S
C1014 C1015 1.385 . S
C1015 H1001 0.931 . S
C1015 C1014 1.385 . S
C1015 C1016 1.389 . S
C1016 C1015 1.389 . S
C1016 C1017 1.387 . S
C1017 H1002 0.930 . S
C1017 C1012 1.390 . S
C1017 C1016 1.387 . S
H1018 C1030 0.930 . S
H1019 C1032 0.930 . S
H1020 C1033 0.930 . S
H1021 C1037 0.959 . S
H1022 C1037 0.959 . S
H1023 C1037 0.961 . S
H1024 C1038 0.960 . S
H1025 C1038 0.961 . S
H1026 C1038 0.959 . S
H1027 C1041 0.929 . S
H1028 C1042 0.931 . S
H1029 C1044 0.930 . S
C1030 H1018 0.930 . S
C1030 C1031 1.399 . S
C1030 C1035 1.399 . S
C1031 C1030 1.399 . S
C1031 C1032 1.376 . S
C1032 H1019 0.930 . S
C1032 C1031 1.376 . S
C1032 C1033 1.388 . S
C1033 H1020 0.930 . S
C1033 C1032 1.388 . S
C1033 C1034 1.390 . S
C1034 C1033 1.390 . S
C1034 C1035 1.394 . S
C1034 C1040 1.465 . S
C1035 C1030 1.399 . S
C1035 C1034 1.394 . S
C1035 C1036 1.516 . S
C1036 C1035 1.516 . S
C1036 C1037 1.502 . S
C1036 C1038 1.561 . S
C1036 C1039 1.526 . S
C1037 H1021 0.959 . S
C1037 H1022 0.959 . S
C1037 H1023 0.961 . S
C1037 C1036 1.502 . S
C1038 H1024 0.960 . S
C1038 H1025 0.961 . S
C1038 H1026 0.959 . S
C1038 C1036 1.561 . S
C1039 C1036 1.526 . S
C1039 C1040 1.396 . S
C1039 C1044 1.390 . S
C1040 C1034 1.465 . S
C1040 C1039 1.396 . S
C1040 C1041 1.399 . S
C1041 H1027 0.929 . S
C1041 C1040 1.399 . S
C1041 C1042 1.385 . S
C1042 H1028 0.931 . S
C1042 C1041 1.385 . S
C1042 C1043 1.389 . S
C1043 C1042 1.389 . S
C1043 C1044 1.387 . S
C1044 H1029 0.930 . S
C1044 C1039 1.390 . S
C1044 C1043 1.387 . S
H1045 C1057 0.930 . S
H1046 C1059 0.930 . S
H1047 C1060 0.930 . S
H1048 C1064 0.959 . S
H1049 C1064 0.959 . S
H1050 C1064 0.961 . S
H1051 C1065 0.960 . S
H1052 C1065 0.961 . S
H1053 C1065 0.959 1_655 S
H1054 C1068 0.929 . S
H1055 C1069 0.931 . S
H1056 C1071 0.930 . S
C1057 H1045 0.930 . S
C1057 C1058 1.399 1_455 S
C1057 C1062 1.399 . S
C1058 C1057 1.399 1_655 S
C1058 C1059 1.376 . S
C1059 H1046 0.930 . S
C1059 C1058 1.376 . S
C1059 C1060 1.388 . S
C1060 H1047 0.930 . S
C1060 C1059 1.388 . S
C1060 C1061 1.390 . S
C1061 C1060 1.390 . S
C1061 C1062 1.394 1_655 S
C1061 C1067 1.465 . S
C1062 C1057 1.399 . S
C1062 C1061 1.394 1_455 S
C1062 C1063 1.516 . S
C1063 C1062 1.516 . S
C1063 C1064 1.502 . S
C1063 C1065 1.561 . S
C1063 C1066 1.526 . S
C1064 H1048 0.959 . S
C1064 H1049 0.959 . S
C1064 H1050 0.961 . S
C1064 C1063 1.502 . S
C1065 H1051 0.960 . S
C1065 H1052 0.961 . S
C1065 H1053 0.959 1_455 S
C1065 C1063 1.561 . S
C1066 C1063 1.526 . S
C1066 C1067 1.396 1_455 S
C1066 C1071 1.390 . S
C1067 C1061 1.465 . S
C1067 C1066 1.396 1_655 S
C1067 C1068 1.399 . S
C1068 H1054 0.929 . S
C1068 C1067 1.399 . S
C1068 C1069 1.385 . S
C1069 H1055 0.931 . S
C1069 C1068 1.385 . S
C1069 C1070 1.411 . S
C1070 C1069 1.411 . S
C1070 C1071 1.372 1_655 S
C1071 H1056 0.930 . S
C1071 C1066 1.390 . S
C1071 C1070 1.372 1_455 S
C221 C66 0.857 . S
C233 C10 0.718 . S
C248 C88 0.846 . S
C260 C14 0.886 . S
C275 C36 0.804 . S
C287 C92 0.771 . S
C302 C40 0.540 . S
C314 C62 0.652 . S
C329 C114 0.687 . S
C341 C179 0.725 . S
C356 C192 0.793 . S
C368 C127 0.822 . S
C383 C205 0.733 . S
C395 C140 0.846 . S
C410 C153 0.628 . S
C422 C166 0.514 . S
C437 C5 2.027 1_556 S
C449 C157 2.027 . S
C464 C170 2.066 . S
C476 C16 1.962 1_556 S
C491 C31 2.145 1_556 S
C503 C183 2.150 . S
C518 C42 2.018 1_556 S
C530 C196 2.075 1_655 S
C545 C57 2.071 . S
C557 C105 2.079 . S
C572 C68 2.019 . S
C584 C118 2.147 . S
C599 C83 2.074 . S
C611 C131 2.072 . S
C626 C94 1.975 . S
C638 C144 2.019 1_455 S
C653 C53 1.959 . S
C665 C109 1.975 1_554 S
C680 C75 2.061 . S
C692 C122 1.968 1_554 S
C707 C79 2.103 . S
C719 C135 2.085 1_554 S
C734 C148 2.014 1_554 S
C746 C101 2.060 1_455 S
C761 C1 2.008 . S
C773 C161 2.017 . S
C788 C174 2.078 . S
C800 C23 2.162 . S
C815 C187 2.014 . S
C827 C27 2.049 . S
C842 C49 2.008 1_655 S
C854 C200 1.951 . S
C869 C107 1.553 1_545 S
C881 C3 1.457 . S
C896 C120 1.484 . S
C908 C18 1.558 . S
C923 C29 1.711 . S
C935 C133 1.663 . S
C950 C146 1.699 1_455 S
C962 C44 1.637 . S
C977 C55 1.618 . S
C989 C159 1.667 . S
C1004 C172 1.681 . S
C1016 C70 1.668 . S
C1031 C185 1.529 . S
C1043 C81 1.536 . S
C1058 C198 1.547 1_655 S
C1070 C96 1.485 . S
