# Generated by pormake.
# Topology eta, (3)-cn, num edge types: 1
# Building blocks:
#     Node 0, Type 0, BuildingBlock: WUSLED_clean_sbu_0, # of connection points: 3
#     Node 1, Type 0, BuildingBlock: WUSLED_clean_sbu_0, # of connection points: 3
#     Node 2, Type 0, BuildingBlock: WUSLED_clean_sbu_0, # of connection points: 3
#     Node 3, Type 0, BuildingBlock: WUSLED_clean_sbu_0, # of connection points: 3
#     Node 4, Type 0, BuildingBlock: WUSLED_clean_sbu_0, # of connection points: 3
#     Node 5, Type 0, BuildingBlock: WUSLED_clean_sbu_0, # of connection points: 3
#     Edge 6, Type (0, 0), BuildingBlock: XUDNAN_clean_linker_2, # of connection points: 2
#     Edge 7, Type (0, 0), BuildingBlock: XUDNAN_clean_linker_2, # of connection points: 2
#     Edge 8, Type (0, 0), BuildingBlock: XUDNAN_clean_linker_2, # of connection points: 2
#     Edge 9, Type (0, 0), BuildingBlock: XUDNAN_clean_linker_2, # of connection points: 2
#     Edge 10, Type (0, 0), BuildingBlock: XUDNAN_clean_linker_2, # of connection points: 2
#     Edge 11, Type (0, 0), BuildingBlock: XUDNAN_clean_linker_2, # of connection points: 2
#     Edge 12, Type (0, 0), BuildingBlock: XUDNAN_clean_linker_2, # of connection points: 2
#     Edge 13, Type (0, 0), BuildingBlock: XUDNAN_clean_linker_2, # of connection points: 2
#     Edge 14, Type (0, 0), BuildingBlock: XUDNAN_clean_linker_2, # of connection points: 2
# Relax obj value: 0.000
# Max RMSD: 0.005
# Mean RMSD: 0.004
data_MOF--net-eta--node1-WUSLED_clean_sbu_0--edge1-XUDNAN_clean_linker_2
_symmetry_space_group_name_H-M    P1
_symmetry_Int_Tables_number       1
_symmetry_cell_setting            triclinic
loop_
_symmetry_equiv_pos_as_xyz
'x, y, z'
_cell_length_a     66.294477
_cell_length_b     66.979771
_cell_length_c     54.325331
_cell_angle_alpha  89.807876
_cell_angle_beta   89.859187
_cell_angle_gamma 120.99608
loop_
_atom_site_label
_atom_site_type_symbol
_atom_site_fract_x
_atom_site_fract_y
_atom_site_fract_z
_atom_type_partial_charge
C0 C 0.25529 0.60883 0.13007 0.0
C1 C 0.27759 0.62871 0.12611 0.0
C2 C 0.28574 0.60864 0.09375 0.0
C3 C 0.29264 0.62866 0.10799 0.0
C4 C 0.26337 0.58883 0.09783 0.0
C5 C 0.2483 0.58896 0.11577 0.0
U6 U 0.24322 0.62744 0.19236 0.0
O7 O 0.21502 0.63374 0.20351 0.0
O8 O 0.21815 0.60605 0.22149 0.0
C9 C 0.20563 0.61603 0.21898 0.0
C10 C 0.2392 0.60813 0.14927 0.0
C11 C 0.17998 0.59994 0.21756 0.0
C12 C 0.14344 0.57843 0.19459 0.0
C13 C 0.16776 0.59445 0.19514 0.0
C14 C 0.14345 0.57333 0.23875 0.0
C15 C 0.13112 0.56748 0.21638 0.0
C16 C 0.16759 0.58941 0.23932 0.0
C17 C 0.29365 0.66954 0.23348 0.0
C18 C 0.2862 0.67941 0.27414 0.0
C19 C 0.32618 0.69281 0.2611 0.0
C20 C 0.31783 0.68188 0.23838 0.0
C21 C 0.31045 0.69154 0.27937 0.0
C22 C 0.27788 0.66848 0.25142 0.0
C23 C 0.28501 0.65691 0.21014 0.0
O24 O 0.23954 0.59834 0.17014 0.0
O25 O 0.2385 0.62725 0.15227 0.0
O26 O 0.27321 0.66332 0.19605 0.0
O27 O 0.27507 0.6342 0.212 0.0
H28 H 0.28341 0.64419 0.13711 0.0
H29 H 0.30984 0.64411 0.10543 0.0
H30 H 0.2574 0.57326 0.08697 0.0
H31 H 0.23118 0.57346 0.11857 0.0
H32 H 0.1344 0.57414 0.17708 0.0
H33 H 0.17701 0.6023 0.17808 0.0
H34 H 0.1344 0.56543 0.25589 0.0
H35 H 0.17668 0.59347 0.2568 0.0
H36 H 0.27362 0.67835 0.28763 0.0
H37 H 0.34492 0.70172 0.26458 0.0
H38 H 0.33023 0.68273 0.22477 0.0
H39 H 0.25911 0.65896 0.24795 0.0
C40 C 0.63174 0.24444 0.59219 0.0
C41 C 0.65128 0.26703 0.58952 0.0
C42 C 0.63808 0.28021 0.62447 0.0
C43 C 0.65448 0.28471 0.60556 0.0
C44 C 0.61867 0.25742 0.62724 0.0
C45 C 0.61555 0.23971 0.61123 0.0
U46 U 0.64338 0.22661 0.53007 0.0
O47 O 0.64838 0.1978 0.51931 0.0
O48 O 0.61926 0.20033 0.50362 0.0
C49 C 0.62938 0.18792 0.50557 0.0
C50 C 0.62765 0.22606 0.57461 0.0
C51 C 0.61332 0.16263 0.50878 0.0
C52 C 0.59479 0.12733 0.53382 0.0
C53 C 0.60998 0.1515 0.53168 0.0
C54 C 0.586 0.12529 0.49032 0.0
C55 C 0.58256 0.11398 0.51315 0.0
C56 C 0.60124 0.14933 0.48818 0.0
C57 C 0.68508 0.27456 0.48539 0.0
C58 C 0.69632 0.26625 0.44585 0.0
C59 C 0.70841 0.30598 0.45649 0.0
C60 C 0.69692 0.29827 0.47921 0.0
C61 C 0.70828 0.29007 0.43954 0.0
C62 C 0.68476 0.25856 0.46857 0.0
C63 C 0.67296 0.26682 0.50929 0.0
O64 O 0.61631 0.22549 0.55457 0.0
O65 O 0.64583 0.22372 0.57016 0.0
O66 O 0.67965 0.25537 0.52351 0.0
O67 O 0.65001 0.25733 0.50858 0.0
H68 H 0.66396 0.27106 0.57486 0.0
H69 H 0.66982 0.30193 0.60308 0.0
H70 H 0.60553 0.25337 0.64136 0.0
H71 H 0.60027 0.2224 0.61346 0.0
H72 H 0.59235 0.11915 0.55168 0.0
H73 H 0.61906 0.16145 0.54787 0.0
H74 H 0.57713 0.1155 0.47398 0.0
H75 H 0.60365 0.15757 0.47034 0.0
H76 H 0.69564 0.25352 0.43311 0.0
H77 H 0.71768 0.32445 0.45235 0.0
H78 H 0.69733 0.31085 0.49199 0.0
H79 H 0.67554 0.24014 0.473 0.0
C80 C 0.45998 0.65857 0.79649 0.0
C81 C 0.44757 0.66947 0.80332 0.0
C82 C 0.45008 0.68341 0.76124 0.0
C83 C 0.4427 0.68181 0.78588 0.0
C84 C 0.46286 0.67273 0.75463 0.0
C85 C 0.46774 0.66041 0.77212 0.0
U86 U 0.45012 0.6307 0.85982 0.0
O87 O 0.4426 0.59591 0.87079 0.0
O88 O 0.47436 0.62696 0.88443 0.0
C89 C 0.46236 0.60411 0.88305 0.0
C90 C 0.46416 0.6446 0.81442 0.0
C91 C 0.47614 0.59307 0.8776 0.0
C92 C 0.49543 0.58063 0.84859 0.0
C93 C 0.48331 0.59222 0.8535 0.0
C94 C 0.49371 0.57105 0.89189 0.0
C95 C 0.50063 0.56976 0.86773 0.0
C96 C 0.48156 0.58258 0.89675 0.0
C97 C 0.4109 0.63836 0.90586 0.0
C98 C 0.40397 0.62269 0.94747 0.0
C99 C 0.38152 0.63927 0.93184 0.0
C100 C 0.39367 0.64424 0.90944 0.0
C101 C 0.38641 0.6283 0.9511 0.0
C102 C 0.41607 0.62763 0.92502 0.0
C103 C 0.42276 0.64288 0.88182 0.0
O104 O 0.47657 0.65592 0.83382 0.0
O105 O 0.44557 0.62432 0.81997 0.0
O106 O 0.41479 0.62469 0.86736 0.0
O107 O 0.44586 0.65565 0.88216 0.0
H108 H 0.44144 0.66821 0.8221 0.0
H109 H 0.43311 0.69008 0.7917 0.0
H110 H 0.46854 0.67334 0.7358 0.0
H111 H 0.47725 0.652 0.76652 0.0
H112 H 0.50075 0.5802 0.82983 0.0
H113 H 0.47932 0.60031 0.83848 0.0
H114 H 0.49713 0.56264 0.907 0.0
H115 H 0.47609 0.58301 0.91545 0.0
H116 H 0.4084 0.61451 0.96198 0.0
H117 H 0.36789 0.6435 0.93381 0.0
H118 H 0.38936 0.6524 0.89477 0.0
H119 H 0.42934 0.62294 0.92253 0.0
C120 C 0.83075 0.44571 0.13021 0.0
C121 C 0.80663 0.43107 0.135 0.0
C122 C 0.79721 0.44094 0.0951 0.0
C123 C 0.79001 0.4287 0.11761 0.0
C124 C 0.82146 0.45556 0.09042 0.0
C125 C 0.83807 0.45792 0.10784 0.0
U126 U 0.84546 0.43138 0.19283 0.0
O127 O 0.872 0.42283 0.20394 0.0
O128 O 0.87277 0.4534 0.21967 0.0
C129 C 0.883 0.44105 0.21837 0.0
C130 C 0.84831 0.44827 0.14842 0.0
C131 C 0.90885 0.4541 0.21703 0.0
C132 C 0.94582 0.47313 0.19417 0.0
C133 C 0.92119 0.46243 0.19468 0.0
C134 C 0.94578 0.46769 0.2383 0.0
C135 C 0.95828 0.47539 0.21596 0.0
C136 C 0.92135 0.45718 0.2388 0.0
C137 C 0.79605 0.39098 0.23643 0.0
C138 C 0.80371 0.3755 0.27343 0.0
C139 C 0.76476 0.36911 0.26621 0.0
C140 C 0.77265 0.38156 0.24405 0.0
C141 C 0.78016 0.36579 0.28107 0.0
C142 C 0.8116 0.38805 0.25134 0.0
C143 C 0.80403 0.40363 0.21286 0.0
O144 O 0.84913 0.45947 0.16858 0.0
O145 O 0.84899 0.42931 0.15279 0.0
O146 O 0.81445 0.39635 0.19784 0.0
O147 O 0.81499 0.42644 0.21437 0.0
H148 H 0.80068 0.42144 0.15218 0.0
H149 H 0.77152 0.41705 0.1217 0.0
H150 H 0.82762 0.46547 0.07344 0.0
H151 H 0.85663 0.46933 0.10388 0.0
H152 H 0.955 0.47888 0.1767 0.0
H153 H 0.91178 0.4602 0.17767 0.0
H154 H 0.9549 0.46955 0.25543 0.0
H155 H 0.91213 0.45096 0.25622 0.0
H156 H 0.81609 0.37355 0.28461 0.0
H157 H 0.74649 0.36168 0.27145 0.0
H158 H 0.76042 0.38368 0.23276 0.0
H159 H 0.8298 0.39537 0.24583 0.0
C160 C 0.42236 0.81753 0.46112 0.0
C161 C 0.41274 0.79364 0.46545 0.0
C162 C 0.39392 0.78472 0.42519 0.0
C163 C 0.39867 0.77738 0.44763 0.0
C164 C 0.40384 0.80875 0.42092 0.0
C165 C 0.41792 0.82498 0.43875 0.0
U166 U 0.44736 0.83256 0.52603 0.0
O167 O 0.48184 0.86059 0.53909 0.0
O168 O 0.44955 0.85898 0.5516 0.0
C169 C 0.47267 0.87116 0.55094 0.0
C170 C 0.43642 0.83474 0.48006 0.0
C171 C 0.48297 0.89601 0.54512 0.0
C172 C 0.48948 0.92665 0.51637 0.0
C173 C 0.48068 0.90309 0.52149 0.0
C174 C 0.5033 0.93638 0.55835 0.0
C175 C 0.50069 0.94358 0.5348 0.0
C176 C 0.49446 0.91278 0.56345 0.0
C177 C 0.43206 0.78173 0.57082 0.0
C178 C 0.45104 0.78297 0.60956 0.0
C179 C 0.41221 0.75026 0.60057 0.0
C180 C 0.41258 0.76028 0.57787 0.0
C181 C 0.4314 0.76148 0.61672 0.0
C182 C 0.45132 0.7931 0.58682 0.0
C183 C 0.43165 0.7916 0.54668 0.0
O184 O 0.42435 0.83539 0.49893 0.0
O185 O 0.45592 0.83553 0.48651 0.0
O186 O 0.4517 0.80285 0.53453 0.0
O187 O 0.41937 0.80194 0.54569 0.0
H188 H 0.41599 0.78759 0.48267 0.0
H189 H 0.39159 0.75906 0.4514 0.0
H190 H 0.40031 0.81501 0.40403 0.0
H191 H 0.42512 0.84336 0.43518 0.0
H192 H 0.48749 0.93161 0.49794 0.0
H193 H 0.47186 0.89036 0.50709 0.0
H194 H 0.51161 0.9489 0.57302 0.0
H195 H 0.49629 0.90758 0.58183 0.0
H196 H 0.466 0.79211 0.62169 0.0
H197 H 0.39698 0.73354 0.60535 0.0
H198 H 0.39759 0.75121 0.56574 0.0
H199 H 0.46652 0.80975 0.58177 0.0
C200 C 0.63112 0.40706 0.79238 0.0
C201 C 0.64085 0.39295 0.79584 0.0
C202 C 0.6369 0.38404 0.75197 0.0
C203 C 0.64364 0.38144 0.77578 0.0
C204 C 0.62699 0.39807 0.74879 0.0
C205 C 0.62415 0.40945 0.76879 0.0
U206 U 0.64179 0.43022 0.85881 0.0
O207 O 0.64889 0.4642 0.87208 0.0
O208 O 0.61696 0.43226 0.88423 0.0
C209 C 0.62865 0.45515 0.88379 0.0
C210 C 0.62818 0.41962 0.81289 0.0
C211 C 0.61455 0.46588 0.87837 0.0
C212 C 0.59795 0.48112 0.84923 0.0
C213 C 0.61126 0.47076 0.85406 0.0
C214 C 0.59078 0.48153 0.89291 0.0
C215 C 0.58752 0.48664 0.86859 0.0
C216 C 0.60419 0.47129 0.89772 0.0
C217 C 0.67916 0.41921 0.90384 0.0
C218 C 0.6881 0.43595 0.94483 0.0
C219 C 0.70167 0.41016 0.93219 0.0
C220 C 0.69121 0.40762 0.90917 0.0
C221 C 0.70027 0.42437 0.95033 0.0
C222 C 0.67763 0.43338 0.9218 0.0
C223 C 0.66836 0.41643 0.87951 0.0
O224 O 0.61571 0.40685 0.83176 0.0
O225 O 0.64719 0.43911 0.81937 0.0
O226 O 0.67683 0.43559 0.86629 0.0
O227 O 0.64527 0.40364 0.87907 0.0
H228 H 0.64638 0.39096 0.81397 0.0
H229 H 0.65147 0.3709 0.7788 0.0
H230 H 0.62125 0.40014 0.73081 0.0
H231 H 0.61652 0.4202 0.76581 0.0
H232 H 0.59609 0.48505 0.83031 0.0
H233 H 0.61907 0.46665 0.83884 0.0
H234 H 0.58271 0.48514 0.90826 0.0
H235 H 0.60642 0.46751 0.91659 0.0
H236 H 0.68692 0.44725 0.95822 0.0
H237 H 0.71059 0.40073 0.93587 0.0
H238 H 0.69249 0.39656 0.89553 0.0
H239 H 0.66841 0.4425 0.91796 0.0
H240 H 0.37151 0.65397 0.97661 0.0
H241 H 0.36977 0.58827 0.97843 0.0
H242 H 0.34564 0.5771 1.01626 0.0
H243 H 0.37386 0.66282 0.04283 0.0
H244 H 0.35496 0.67479 0.04198 0.0
H245 H 0.37333 0.6783 1.01585 0.0
H246 H 0.33665 0.65938 0.98769 0.0
H247 H 0.31819 0.65584 1.0137 0.0
H248 H 0.31211 0.63095 0.99542 0.0
H249 H 0.31994 0.57208 0.05258 0.0
H250 H 0.29485 0.5738 0.08516 0.0
H251 H 0.31261 0.6424 0.05939 0.0
C252 C 0.36608 0.63723 0.98494 0.0
C253 C 0.37268 0.62206 0.97453 0.0
C254 C 0.36533 0.6004 0.98623 0.0
C255 C 0.35149 0.59382 1.00767 0.0
C256 C 0.34515 0.60909 1.01728 0.0
C257 C 0.35225 0.63037 1.00635 0.0
C258 C 0.34242 0.64326 1.01999 0.0
C259 C 0.36233 0.66615 0.03081 0.0
C260 C 0.32639 0.6476 1.0032 0.0
C261 C 0.32842 0.62574 0.0401 0.0
C262 C 0.3303 0.60619 0.03824 0.0
C263 C 0.31841 0.58734 0.05428 0.0
C264 C 0.30409 0.58842 0.07263 0.0
C265 C 0.30174 0.60821 0.07481 0.0
C266 C 0.31429 0.62717 0.0584 0.0
H267 H 0.70913 0.32293 0.40834 0.0
H268 H 0.73569 0.27605 0.41636 0.0
H269 H 0.75676 0.29011 0.37667 0.0
H270 H 0.7003 0.31684 0.34288 0.0
H271 H 0.70949 0.34698 0.33791 0.0
H272 H 0.69638 0.33311 0.36686 0.0
H273 H 0.73286 0.36513 0.38999 0.0
H274 H 0.74607 0.37911 0.36111 0.0
H275 H 0.76171 0.37077 0.38179 0.0
H276 H 0.77555 0.30985 0.33643 0.0
H277 H 0.78976 0.333 0.29805 0.0
H278 H 0.75121 0.36724 0.3165 0.0
C279 C 0.71949 0.31571 0.40183 0.0
C280 C 0.72074 0.29836 0.41549 0.0
C281 C 0.73423 0.28914 0.40611 0.0
C282 C 0.74637 0.29712 0.38365 0.0
C283 C 0.74481 0.31428 0.37073 0.0
C284 C 0.73166 0.32342 0.37943 0.0
C285 C 0.73281 0.34165 0.36194 0.0
C286 C 0.70828 0.33419 0.3518 0.0
C287 C 0.74403 0.36558 0.37446 0.0
C288 C 0.74871 0.34138 0.34205 0.0
C289 C 0.7555 0.32552 0.3475 0.0
C290 C 0.77035 0.32232 0.33198 0.0
C291 C 0.77845 0.33565 0.31029 0.0
C292 C 0.77163 0.35195 0.30426 0.0
C293 C 0.75654 0.35476 0.32044 0.0
H294 H 0.47732 0.71173 0.7229 0.0
H295 H 0.40811 0.68175 0.75647 0.0
H296 H 0.39678 0.70037 0.72459 0.0
H297 H 0.48313 0.76673 0.70399 0.0
H298 H 0.49762 0.76809 0.67538 0.0
H299 H 0.50089 0.75356 0.70169 0.0
H300 H 0.48588 0.71599 0.67605 0.0
H301 H 0.48262 0.73041 0.64967 0.0
H302 H 0.45786 0.70349 0.66078 0.0
H303 H 0.39215 0.7205 0.68807 0.0
H304 H 0.39456 0.74083 0.64922 0.0
H305 H 0.46647 0.75728 0.63869 0.0
C306 C 0.45978 0.70909 0.72358 0.0
C307 C 0.44367 0.69536 0.74236 0.0
C308 C 0.42094 0.69251 0.74261 0.0
C309 C 0.41428 0.70293 0.72448 0.0
C310 C 0.43054 0.71621 0.70621 0.0
C311 C 0.45283 0.71938 0.70562 0.0
C312 C 0.46667 0.73392 0.6835 0.0
C313 C 0.48836 0.75694 0.69163 0.0
C314 C 0.47366 0.72012 0.6665 0.0
C315 C 0.44852 0.7381 0.67154 0.0
C316 C 0.42785 0.72782 0.68504 0.0
C317 C 0.40827 0.72869 0.67739 0.0
C318 C 0.40977 0.74017 0.65523 0.0
C319 C 0.43068 0.75061 0.64088 0.0
C320 C 0.45036 0.74974 0.64939 0.0
H321 H 0.799 0.43777 0.04467 0.0
H322 H 0.75529 0.43877 0.10372 0.0
H323 H 0.72574 0.43448 0.07328 0.0
H324 H 0.78706 0.47117 1.0011 0.0
H325 H 0.78693 0.45466 0.9749 0.0
H326 H 0.80453 0.4576 1.0014 0.0
H327 H 0.78378 0.41267 1.0049 0.0
H328 H 0.76607 0.40958 0.97846 0.0
H329 H 0.75213 0.39553 1.00711 0.0
H330 H 0.7009 0.43013 0.03631 0.0
H331 H 0.68258 0.42579 0.99564 0.0
H332 H 0.74306 0.4288 0.96066 0.0
C333 C 0.78332 0.4373 0.05122 0.0
C334 C 0.77949 0.43855 0.07666 0.0
C335 C 0.75852 0.43751 0.08441 0.0
C336 C 0.74168 0.43522 0.06723 0.0
C337 C 0.74603 0.43401 0.04234 0.0
C338 C 0.76634 0.43503 0.03434 0.0
C339 C 0.76672 0.43329 1.00655 0.0
C340 C 0.78754 0.4555 0.99533 0.0
C341 C 0.7672 0.41147 0.99881 0.0
C342 C 0.74345 0.43113 1.00017 0.0
C343 C 0.73178 0.4316 1.02107 0.0
C344 C 0.70993 0.42984 1.01981 0.0
C345 C 0.69972 0.42752 0.99659 0.0
C346 C 0.71135 0.427 0.97487 0.0
C347 C 0.73354 0.42886 0.97686 0.0
H348 H 0.39919 0.78729 0.37472 0.0
H349 H 0.35308 0.74301 0.4334 0.0
H350 H 0.32689 0.71442 0.40261 0.0
H351 H 0.35323 0.77668 0.33203 0.0
H352 H 0.36958 0.77694 0.30535 0.0
H353 H 0.38494 0.79374 0.33205 0.0
H354 H 0.40866 0.77283 0.33411 0.0
H355 H 0.39336 0.75594 0.30744 0.0
H356 H 0.39316 0.74146 0.33554 0.0
H357 H 0.30551 0.69075 0.36541 0.0
H358 H 0.2908 0.67344 0.32454 0.0
H359 H 0.35018 0.7337 0.29001 0.0
C360 C 0.38351 0.77167 0.38113 0.0
C361 C 0.37828 0.7674 0.40655 0.0
C362 C 0.3577 0.74654 0.41409 0.0
C363 C 0.34262 0.73025 0.39672 0.0
C364 C 0.34829 0.73505 0.37185 0.0
C365 C 0.36824 0.75523 0.36404 0.0
C366 C 0.37029 0.75618 0.33621 0.0
C367 C 0.36945 0.77713 0.3258 0.0
C368 C 0.3927 0.75662 0.32784 0.0
C369 C 0.34836 0.73338 0.32959 0.0
C370 C 0.3359 0.72147 0.35041 0.0
C371 C 0.31507 0.69997 0.34897 0.0
C372 C 0.30676 0.69035 0.32564 0.0
C373 C 0.31924 0.70221 0.30398 0.0
C374 C 0.34032 0.72406 0.30615 0.0
H375 H 0.62816 0.33915 0.74864 0.0
H376 H 0.65336 0.40284 0.70632 0.0
H377 H 0.65722 0.38346 0.66963 0.0
H378 H 0.66646 0.32158 0.71961 0.0
H379 H 0.64427 0.29104 0.72017 0.0
H380 H 0.64428 0.31015 0.74345 0.0
H381 H 0.60124 0.2972 0.73246 0.0
H382 H 0.60114 0.27816 0.70908 0.0
H383 H 0.59404 0.29997 0.70114 0.0
H384 H 0.6569 0.357 0.63716 0.0
H385 H 0.65286 0.32519 0.611 0.0
H386 H 0.62896 0.27871 0.67436 0.0
C387 C 0.63481 0.34911 0.73174 0.0
C388 C 0.64035 0.37251 0.73035 0.0
C389 C 0.64868 0.38482 0.70777 0.0
C390 C 0.65107 0.37401 0.68685 0.0
C391 C 0.64515 0.35088 0.68876 0.0
C392 C 0.63729 0.33856 0.71062 0.0
C393 C 0.6316 0.31369 0.70744 0.0
C394 C 0.64761 0.30884 0.72363 0.0
C395 C 0.60545 0.29623 0.71285 0.0
C396 C 0.63727 0.31393 0.68034 0.0
C397 C 0.64514 0.33559 0.66998 0.0
C398 C 0.651 0.34001 0.64512 0.0
C399 C 0.64878 0.32183 0.63042 0.0
C400 C 0.64078 0.29942 0.64057 0.0
C401 C 0.635 0.29555 0.66594 0.0
H402 H 0.09496 0.56908 0.19315 0.0
H403 H 0.10985 0.52516 0.23917 0.0
H404 H 0.06748 0.49588 0.24146 0.0
H405 H 0.04366 0.55814 0.22469 0.0
H406 H 1.02774 0.55776 0.19767 0.0
H407 H 0.05941 0.57453 0.19767 0.0
H408 H 0.06037 0.55259 0.15893 0.0
H409 H 1.02866 0.53577 0.15878 0.0
H410 H 0.04517 0.52122 0.15938 0.0
H411 H 1.02396 0.47264 0.24119 0.0
H412 H 0.98122 0.45656 0.23861 0.0
H413 H 0.99347 0.51507 0.19288 0.0
C414 C 0.08928 0.55309 0.20331 0.0
C415 C 0.10569 0.54939 0.21604 0.0
C416 C 0.09757 0.52844 0.22949 0.0
C417 C 0.07356 0.51164 0.23076 0.0
C418 C 0.05781 0.51597 0.21842 0.0
C419 C 0.06524 0.5361 0.20488 0.0
C420 C 0.04437 0.53684 0.1945 0.0
C421 C 0.04377 0.55808 0.20422 0.0
C422 C 0.04466 0.53659 0.16622 0.0
C423 C 1.02411 0.51424 0.20481 0.0
C424 C 1.03237 0.50244 0.21835 0.0
C425 C 1.01725 0.48163 0.23052 0.0
C426 C 0.99301 0.47271 0.22907 0.0
C427 C 0.98402 0.4846 0.21565 0.0
C428 C 0.99983 0.50548 0.20305 0.0
H429 H 0.58925 0.08187 0.53791 0.0
H430 H 0.53888 0.08816 0.49272 0.0
H431 H 0.51236 0.04549 0.49396 0.0
H432 H 0.58103 0.03003 0.51043 0.0
H433 H 0.5838 1.01757 0.53876 0.0
H434 H 0.59852 0.04872 0.53523 0.0
H435 H 0.57777 0.05128 0.57455 0.0
H436 H 0.56304 1.02012 0.57825 0.0
H437 H 0.54612 0.03423 0.57671 0.0
H438 H 0.49177 1.00222 0.49908 0.0
H439 H 0.47817 0.96108 0.50817 0.0
H440 H 0.54191 0.98253 0.54981 0.0
C441 C 0.57249 0.07428 0.52858 0.0
C442 C 0.56617 0.08837 0.51516 0.0
C443 C 0.54423 0.07772 0.50287 0.0
C444 C 0.52899 0.0535 0.50357 0.0
C445 C 0.53588 0.04011 0.51667 0.0
C446 C 0.55706 0.05008 0.52903 0.0
C447 C 0.56044 0.03161 0.54123 0.0
C448 C 0.58224 0.03201 0.53078 0.0
C449 C 0.56193 0.03449 0.56935 0.0
C450 C 0.53792 1.00973 0.53367 0.0
C451 C 0.524 1.01506 0.51956 0.0
C452 C 0.50251 0.99781 0.51012 0.0
C453 C 0.49502 0.97447 0.51523 0.0
C454 C 0.50898 0.9685 0.52961 0.0
C455 C 0.5307 0.98648 0.53898 0.0
H456 H 0.5353 0.56892 0.89469 0.0
H457 H 0.49268 0.54026 0.82918 0.0
H458 H 0.5111 0.51684 0.8215 0.0
H459 H 0.58798 0.57199 0.87057 0.0
H460 H 0.59511 0.56387 0.89948 0.0
H461 H 0.57932 0.57914 0.89913 0.0
H462 H 0.54604 0.54621 0.92539 0.0
H463 H 0.56168 0.53081 0.92574 0.0
H464 H 0.53185 0.51658 0.91468 0.0
H465 H 0.53278 0.49503 0.82214 0.0
H466 H 0.5567 0.47723 0.83047 0.0
H467 H 0.5856 0.52061 0.89525 0.0
C468 C 0.52982 0.55772 0.87872 0.0
C469 C 0.51255 0.55649 0.8625 0.0
C470 C 0.5061 0.54178 0.84167 0.0
C471 C 0.51636 0.52829 0.83724 0.0
C472 C 0.53314 0.52976 0.85373 0.0
C473 C 0.53992 0.54419 0.87398 0.0
C474 C 0.55807 0.54231 0.88908 0.0
C475 C 0.58151 0.56572 0.88958 0.0
C476 C 0.54885 0.53345 0.91527 0.0
C477 C 0.56021 0.52433 0.87434 0.0
C478 C 0.54574 0.51735 0.85399 0.0
C479 C 0.54435 0.50054 0.8379 0.0
C480 C 0.55814 0.49061 0.84272 0.0
C481 C 0.57318 0.49752 0.86347 0.0
C482 C 0.57416 0.5147 0.87937 0.0
loop_
_geom_bond_atom_site_label_1
_geom_bond_atom_site_label_2
_geom_bond_distance
_geom_bond_site_symmetry_2
_ccdc_geom_bond_type
C0 C1 1.264 . S
C0 C5 1.479 . S
C0 C10 1.465 . S
C1 C0 1.264 . S
C1 C3 1.339 . S
C1 H28 0.931 . S
C2 C3 1.395 . S
C2 C4 1.320 . S
C3 C1 1.339 . S
C3 C2 1.395 . S
C3 H29 0.929 . S
C4 C2 1.320 . S
C4 C5 1.405 . S
C4 H30 0.930 . S
C5 C0 1.479 . S
C5 C4 1.405 . S
C5 H31 0.931 . S
U6 O7 2.454 . S
U6 O8 2.458 . S
U6 C9 2.984 . S
U6 C10 2.847 . S
U6 C23 2.882 . S
U6 O24 2.441 . S
U6 O25 2.420 . S
U6 O26 2.455 . S
U6 O27 2.449 . S
O7 U6 2.454 . S
O7 C9 1.353 . S
O8 U6 2.458 . S
O8 C9 1.286 . S
C9 U6 2.984 . S
C9 O7 1.353 . S
C9 O8 1.286 . S
C9 C11 1.363 . S
C10 C0 1.465 . S
C10 U6 2.847 . S
C10 O24 1.249 . S
C10 O25 1.202 . S
C11 C9 1.363 . S
C11 C13 1.408 . S
C11 C16 1.342 . S
C12 C13 1.310 . S
C12 C15 1.461 . S
C12 H32 0.932 . S
C13 C11 1.408 . S
C13 C12 1.310 . S
C13 H33 0.930 . S
C14 C15 1.474 . S
C14 C16 1.285 . S
C14 H34 0.929 . S
C15 C12 1.461 . S
C15 C14 1.474 . S
C16 C11 1.342 . S
C16 C14 1.285 . S
C16 H35 0.930 . S
C17 C20 1.424 . S
C17 C22 1.245 . S
C17 C23 1.428 . S
C18 C21 1.260 . S
C18 C22 1.477 . S
C18 H36 0.932 . S
C19 C20 1.384 . S
C19 C21 1.479 . S
C19 H37 0.929 . S
C20 C17 1.424 . S
C20 C19 1.384 . S
C20 H38 0.928 . S
C21 C18 1.260 . S
C21 C19 1.479 . S
C22 C17 1.245 . S
C22 C18 1.477 . S
C22 H39 0.932 . S
C23 U6 2.882 . S
C23 C17 1.428 . S
C23 O26 1.301 . S
C23 O27 1.282 . S
O24 U6 2.441 . S
O24 C10 1.249 . S
O25 U6 2.420 . S
O25 C10 1.202 . S
O26 U6 2.455 . S
O26 C23 1.301 . S
O27 U6 2.449 . S
O27 C23 1.282 . S
H28 C1 0.931 . S
H29 C3 0.929 . S
H30 C4 0.930 . S
H31 C5 0.931 . S
H32 C12 0.932 . S
H33 C13 0.930 . S
H34 C14 0.929 . S
H35 C16 0.930 . S
H36 C18 0.932 . S
H37 C19 0.929 . S
H38 C20 0.928 . S
H39 C22 0.932 . S
C40 C41 1.264 . S
C40 C45 1.479 . S
C40 C50 1.465 . S
C41 C40 1.264 . S
C41 C43 1.339 . S
C41 H68 0.931 . S
C42 C43 1.395 . S
C42 C44 1.320 . S
C43 C41 1.339 . S
C43 C42 1.395 . S
C43 H69 0.929 . S
C44 C42 1.320 . S
C44 C45 1.405 . S
C44 H70 0.930 . S
C45 C40 1.479 . S
C45 C44 1.405 . S
C45 H71 0.931 . S
U46 O47 2.454 . S
U46 O48 2.458 . S
U46 C49 2.984 . S
U46 C50 2.847 . S
U46 C63 2.882 . S
U46 O64 2.441 . S
U46 O65 2.420 . S
U46 O66 2.455 . S
U46 O67 2.449 . S
O47 U46 2.454 . S
O47 C49 1.353 . S
O48 U46 2.458 . S
O48 C49 1.286 . S
C49 U46 2.984 . S
C49 O47 1.353 . S
C49 O48 1.286 . S
C49 C51 1.363 . S
C50 C40 1.465 . S
C50 U46 2.847 . S
C50 O64 1.249 . S
C50 O65 1.202 . S
C51 C49 1.363 . S
C51 C53 1.408 . S
C51 C56 1.342 . S
C52 C53 1.310 . S
C52 C55 1.461 . S
C52 H72 0.932 . S
C53 C51 1.408 . S
C53 C52 1.310 . S
C53 H73 0.930 . S
C54 C55 1.474 . S
C54 C56 1.285 . S
C54 H74 0.929 . S
C55 C52 1.461 . S
C55 C54 1.474 . S
C56 C51 1.342 . S
C56 C54 1.285 . S
C56 H75 0.930 . S
C57 C60 1.424 . S
C57 C62 1.245 . S
C57 C63 1.428 . S
C58 C61 1.260 . S
C58 C62 1.477 . S
C58 H76 0.932 . S
C59 C60 1.384 . S
C59 C61 1.479 . S
C59 H77 0.929 . S
C60 C57 1.424 . S
C60 C59 1.384 . S
C60 H78 0.928 . S
C61 C58 1.260 . S
C61 C59 1.479 . S
C62 C57 1.245 . S
C62 C58 1.477 . S
C62 H79 0.932 . S
C63 U46 2.882 . S
C63 C57 1.428 . S
C63 O66 1.301 . S
C63 O67 1.282 . S
O64 U46 2.441 . S
O64 C50 1.249 . S
O65 U46 2.420 . S
O65 C50 1.202 . S
O66 U46 2.455 . S
O66 C63 1.301 . S
O67 U46 2.449 . S
O67 C63 1.282 . S
H68 C41 0.931 . S
H69 C43 0.929 . S
H70 C44 0.930 . S
H71 C45 0.931 . S
H72 C52 0.932 . S
H73 C53 0.930 . S
H74 C54 0.929 . S
H75 C56 0.930 . S
H76 C58 0.932 . S
H77 C59 0.929 . S
H78 C60 0.928 . S
H79 C62 0.932 . S
C80 C81 1.264 . S
C80 C85 1.479 . S
C80 C90 1.465 . S
C81 C80 1.264 . S
C81 C83 1.339 . S
C81 H108 0.931 . S
C82 C83 1.395 . S
C82 C84 1.320 . S
C83 C81 1.339 . S
C83 C82 1.395 . S
C83 H109 0.929 . S
C84 C82 1.320 . S
C84 C85 1.405 . S
C84 H110 0.930 . S
C85 C80 1.479 . S
C85 C84 1.405 . S
C85 H111 0.931 . S
U86 O87 2.454 . S
U86 O88 2.458 . S
U86 C89 2.984 . S
U86 C90 2.847 . S
U86 C103 2.882 . S
U86 O104 2.441 . S
U86 O105 2.420 . S
U86 O106 2.455 . S
U86 O107 2.449 . S
O87 U86 2.454 . S
O87 C89 1.353 . S
O88 U86 2.458 . S
O88 C89 1.286 . S
C89 U86 2.984 . S
C89 O87 1.353 . S
C89 O88 1.286 . S
C89 C91 1.363 . S
C90 C80 1.465 . S
C90 U86 2.847 . S
C90 O104 1.249 . S
C90 O105 1.202 . S
C91 C89 1.363 . S
C91 C93 1.408 . S
C91 C96 1.342 . S
C92 C93 1.310 . S
C92 C95 1.461 . S
C92 H112 0.932 . S
C93 C91 1.408 . S
C93 C92 1.310 . S
C93 H113 0.930 . S
C94 C95 1.474 . S
C94 C96 1.285 . S
C94 H114 0.929 . S
C95 C92 1.461 . S
C95 C94 1.474 . S
C96 C91 1.342 . S
C96 C94 1.285 . S
C96 H115 0.930 . S
C97 C100 1.424 . S
C97 C102 1.245 . S
C97 C103 1.428 . S
C98 C101 1.260 . S
C98 C102 1.477 . S
C98 H116 0.932 . S
C99 C100 1.384 . S
C99 C101 1.479 . S
C99 H117 0.929 . S
C100 C97 1.424 . S
C100 C99 1.384 . S
C100 H118 0.928 . S
C101 C98 1.260 . S
C101 C99 1.479 . S
C102 C97 1.245 . S
C102 C98 1.477 . S
C102 H119 0.932 . S
C103 U86 2.882 . S
C103 C97 1.428 . S
C103 O106 1.301 . S
C103 O107 1.282 . S
O104 U86 2.441 . S
O104 C90 1.249 . S
O105 U86 2.420 . S
O105 C90 1.202 . S
O106 U86 2.455 . S
O106 C103 1.301 . S
O107 U86 2.449 . S
O107 C103 1.282 . S
H108 C81 0.931 . S
H109 C83 0.929 . S
H110 C84 0.930 . S
H111 C85 0.931 . S
H112 C92 0.932 . S
H113 C93 0.930 . S
H114 C94 0.929 . S
H115 C96 0.930 . S
H116 C98 0.932 . S
H117 C99 0.929 . S
H118 C100 0.928 . S
H119 C102 0.932 . S
C120 C121 1.264 . S
C120 C125 1.479 . S
C120 C130 1.465 . S
C121 C120 1.264 . S
C121 C123 1.339 . S
C121 H148 0.931 . S
C122 C123 1.395 . S
C122 C124 1.320 . S
C123 C121 1.339 . S
C123 C122 1.395 . S
C123 H149 0.929 . S
C124 C122 1.320 . S
C124 C125 1.405 . S
C124 H150 0.930 . S
C125 C120 1.479 . S
C125 C124 1.405 . S
C125 H151 0.931 . S
U126 O127 2.454 . S
U126 O128 2.458 . S
U126 C129 2.984 . S
U126 C130 2.847 . S
U126 C143 2.882 . S
U126 O144 2.441 . S
U126 O145 2.420 . S
U126 O146 2.455 . S
U126 O147 2.449 . S
O127 U126 2.454 . S
O127 C129 1.353 . S
O128 U126 2.458 . S
O128 C129 1.286 . S
C129 U126 2.984 . S
C129 O127 1.353 . S
C129 O128 1.286 . S
C129 C131 1.363 . S
C130 C120 1.465 . S
C130 U126 2.847 . S
C130 O144 1.249 . S
C130 O145 1.202 . S
C131 C129 1.363 . S
C131 C133 1.408 . S
C131 C136 1.342 . S
C132 C133 1.310 . S
C132 C135 1.461 . S
C132 H152 0.932 . S
C133 C131 1.408 . S
C133 C132 1.310 . S
C133 H153 0.930 . S
C134 C135 1.474 . S
C134 C136 1.285 . S
C134 H154 0.929 . S
C135 C132 1.461 . S
C135 C134 1.474 . S
C136 C131 1.342 . S
C136 C134 1.285 . S
C136 H155 0.930 . S
C137 C140 1.424 . S
C137 C142 1.245 . S
C137 C143 1.428 . S
C138 C141 1.260 . S
C138 C142 1.477 . S
C138 H156 0.932 . S
C139 C140 1.384 . S
C139 C141 1.479 . S
C139 H157 0.929 . S
C140 C137 1.424 . S
C140 C139 1.384 . S
C140 H158 0.928 . S
C141 C138 1.260 . S
C141 C139 1.479 . S
C142 C137 1.245 . S
C142 C138 1.477 . S
C142 H159 0.932 . S
C143 U126 2.882 . S
C143 C137 1.428 . S
C143 O146 1.301 . S
C143 O147 1.282 . S
O144 U126 2.441 . S
O144 C130 1.249 . S
O145 U126 2.420 . S
O145 C130 1.202 . S
O146 U126 2.455 . S
O146 C143 1.301 . S
O147 U126 2.449 . S
O147 C143 1.282 . S
H148 C121 0.931 . S
H149 C123 0.929 . S
H150 C124 0.930 . S
H151 C125 0.931 . S
H152 C132 0.932 . S
H153 C133 0.930 . S
H154 C134 0.929 . S
H155 C136 0.930 . S
H156 C138 0.932 . S
H157 C139 0.929 . S
H158 C140 0.928 . S
H159 C142 0.932 . S
C160 C161 1.264 . S
C160 C165 1.479 . S
C160 C170 1.465 . S
C161 C160 1.264 . S
C161 C163 1.339 . S
C161 H188 0.931 . S
C162 C163 1.395 . S
C162 C164 1.320 . S
C163 C161 1.339 . S
C163 C162 1.395 . S
C163 H189 0.929 . S
C164 C162 1.320 . S
C164 C165 1.405 . S
C164 H190 0.930 . S
C165 C160 1.479 . S
C165 C164 1.405 . S
C165 H191 0.931 . S
U166 O167 2.454 . S
U166 O168 2.458 . S
U166 C169 2.984 . S
U166 C170 2.847 . S
U166 C183 2.882 . S
U166 O184 2.441 . S
U166 O185 2.420 . S
U166 O186 2.455 . S
U166 O187 2.449 . S
O167 U166 2.454 . S
O167 C169 1.353 . S
O168 U166 2.458 . S
O168 C169 1.286 . S
C169 U166 2.984 . S
C169 O167 1.353 . S
C169 O168 1.286 . S
C169 C171 1.363 . S
C170 C160 1.465 . S
C170 U166 2.847 . S
C170 O184 1.249 . S
C170 O185 1.202 . S
C171 C169 1.363 . S
C171 C173 1.408 . S
C171 C176 1.342 . S
C172 C173 1.310 . S
C172 C175 1.461 . S
C172 H192 0.932 . S
C173 C171 1.408 . S
C173 C172 1.310 . S
C173 H193 0.930 . S
C174 C175 1.474 . S
C174 C176 1.285 . S
C174 H194 0.929 . S
C175 C172 1.461 . S
C175 C174 1.474 . S
C176 C171 1.342 . S
C176 C174 1.285 . S
C176 H195 0.930 . S
C177 C180 1.424 . S
C177 C182 1.245 . S
C177 C183 1.428 . S
C178 C181 1.260 . S
C178 C182 1.477 . S
C178 H196 0.932 . S
C179 C180 1.384 . S
C179 C181 1.479 . S
C179 H197 0.929 . S
C180 C177 1.424 . S
C180 C179 1.384 . S
C180 H198 0.928 . S
C181 C178 1.260 . S
C181 C179 1.479 . S
C182 C177 1.245 . S
C182 C178 1.477 . S
C182 H199 0.932 . S
C183 U166 2.882 . S
C183 C177 1.428 . S
C183 O186 1.301 . S
C183 O187 1.282 . S
O184 U166 2.441 . S
O184 C170 1.249 . S
O185 U166 2.420 . S
O185 C170 1.202 . S
O186 U166 2.455 . S
O186 C183 1.301 . S
O187 U166 2.449 . S
O187 C183 1.282 . S
H188 C161 0.931 . S
H189 C163 0.929 . S
H190 C164 0.930 . S
H191 C165 0.931 . S
H192 C172 0.932 . S
H193 C173 0.930 . S
H194 C174 0.929 . S
H195 C176 0.930 . S
H196 C178 0.932 . S
H197 C179 0.929 . S
H198 C180 0.928 . S
H199 C182 0.932 . S
C200 C201 1.264 . S
C200 C205 1.479 . S
C200 C210 1.465 . S
C201 C200 1.264 . S
C201 C203 1.339 . S
C201 H228 0.931 . S
C202 C203 1.395 . S
C202 C204 1.320 . S
C203 C201 1.339 . S
C203 C202 1.395 . S
C203 H229 0.929 . S
C204 C202 1.320 . S
C204 C205 1.405 . S
C204 H230 0.930 . S
C205 C200 1.479 . S
C205 C204 1.405 . S
C205 H231 0.931 . S
U206 O207 2.454 . S
U206 O208 2.458 . S
U206 C209 2.984 . S
U206 C210 2.847 . S
U206 C223 2.882 . S
U206 O224 2.441 . S
U206 O225 2.420 . S
U206 O226 2.455 . S
U206 O227 2.449 . S
O207 U206 2.454 . S
O207 C209 1.353 . S
O208 U206 2.458 . S
O208 C209 1.286 . S
C209 U206 2.984 . S
C209 O207 1.353 . S
C209 O208 1.286 . S
C209 C211 1.363 . S
C210 C200 1.465 . S
C210 U206 2.847 . S
C210 O224 1.249 . S
C210 O225 1.202 . S
C211 C209 1.363 . S
C211 C213 1.408 . S
C211 C216 1.342 . S
C212 C213 1.310 . S
C212 C215 1.461 . S
C212 H232 0.932 . S
C213 C211 1.408 . S
C213 C212 1.310 . S
C213 H233 0.930 . S
C214 C215 1.474 . S
C214 C216 1.285 . S
C214 H234 0.929 . S
C215 C212 1.461 . S
C215 C214 1.474 . S
C216 C211 1.342 . S
C216 C214 1.285 . S
C216 H235 0.930 . S
C217 C220 1.424 . S
C217 C222 1.245 . S
C217 C223 1.428 . S
C218 C221 1.260 . S
C218 C222 1.477 . S
C218 H236 0.932 . S
C219 C220 1.384 . S
C219 C221 1.479 . S
C219 H237 0.929 . S
C220 C217 1.424 . S
C220 C219 1.384 . S
C220 H238 0.928 . S
C221 C218 1.260 . S
C221 C219 1.479 . S
C222 C217 1.245 . S
C222 C218 1.477 . S
C222 H239 0.932 . S
C223 U206 2.882 . S
C223 C217 1.428 . S
C223 O226 1.301 . S
C223 O227 1.282 . S
O224 U206 2.441 . S
O224 C210 1.249 . S
O225 U206 2.420 . S
O225 C210 1.202 . S
O226 U206 2.455 . S
O226 C223 1.301 . S
O227 U206 2.449 . S
O227 C223 1.282 . S
H228 C201 0.931 . S
H229 C203 0.929 . S
H230 C204 0.930 . S
H231 C205 0.931 . S
H232 C212 0.932 . S
H233 C213 0.930 . S
H234 C214 0.929 . S
H235 C216 0.930 . S
H236 C218 0.932 . S
H237 C219 0.929 . S
H238 C220 0.928 . S
H239 C222 0.932 . S
H240 C252 0.930 . S
H241 C254 0.930 . S
H242 C255 0.930 . S
H243 C259 0.959 . S
H244 C259 0.959 . S
H245 C259 0.961 1_556 S
H246 C260 0.960 . S
H247 C260 0.961 . S
H248 C260 0.959 . S
H249 C263 0.929 . S
H250 C264 0.931 . S
H251 C266 0.930 . S
C252 H240 0.930 . S
C252 C253 1.399 . S
C252 C257 1.399 . S
C253 C252 1.399 . S
C253 C254 1.376 . S
C254 H241 0.930 . S
C254 C253 1.376 . S
C254 C255 1.388 . S
C255 H242 0.930 . S
C255 C254 1.388 . S
C255 C256 1.390 . S
C256 C255 1.390 . S
C256 C257 1.394 . S
C256 C262 1.465 1_556 S
C257 C252 1.399 . S
C257 C256 1.394 . S
C257 C258 1.516 . S
C258 C257 1.516 . S
C258 C259 1.502 1_556 S
C258 C260 1.561 . S
C258 C261 1.526 1_556 S
C259 H243 0.959 . S
C259 H244 0.959 . S
C259 H245 0.961 1_554 S
C259 C258 1.502 1_554 S
C260 H246 0.960 . S
C260 H247 0.961 . S
C260 H248 0.959 . S
C260 C258 1.561 . S
C261 C258 1.526 1_554 S
C261 C262 1.396 . S
C261 C266 1.390 . S
C262 C256 1.465 1_554 S
C262 C261 1.396 . S
C262 C263 1.399 . S
C263 H249 0.929 . S
C263 C262 1.399 . S
C263 C264 1.385 . S
C264 H250 0.931 . S
C264 C263 1.385 . S
C264 C265 1.389 . S
C265 C264 1.389 . S
C265 C266 1.387 . S
C266 H251 0.930 . S
C266 C261 1.390 . S
C266 C265 1.387 . S
H267 C279 0.930 . S
H268 C281 0.930 . S
H269 C282 0.930 . S
H270 C286 0.959 . S
H271 C286 0.959 . S
H272 C286 0.961 . S
H273 C287 0.960 . S
H274 C287 0.961 . S
H275 C287 0.959 . S
H276 C290 0.929 . S
H277 C291 0.931 . S
H278 C293 0.930 . S
C279 H267 0.930 . S
C279 C280 1.399 . S
C279 C284 1.399 . S
C280 C279 1.399 . S
C280 C281 1.376 . S
C281 H268 0.930 . S
C281 C280 1.376 . S
C281 C282 1.388 . S
C282 H269 0.930 . S
C282 C281 1.388 . S
C282 C283 1.390 . S
C283 C282 1.390 . S
C283 C284 1.394 . S
C283 C289 1.465 . S
C284 C279 1.399 . S
C284 C283 1.394 . S
C284 C285 1.516 . S
C285 C284 1.516 . S
C285 C286 1.502 . S
C285 C287 1.561 . S
C285 C288 1.526 . S
C286 H270 0.959 . S
C286 H271 0.959 . S
C286 H272 0.961 . S
C286 C285 1.502 . S
C287 H273 0.960 . S
C287 H274 0.961 . S
C287 H275 0.959 . S
C287 C285 1.561 . S
C288 C285 1.526 . S
C288 C289 1.396 . S
C288 C293 1.390 . S
C289 C283 1.465 . S
C289 C288 1.396 . S
C289 C290 1.399 . S
C290 H276 0.929 . S
C290 C289 1.399 . S
C290 C291 1.385 . S
C291 H277 0.931 . S
C291 C290 1.385 . S
C291 C292 1.389 . S
C292 C291 1.389 . S
C292 C293 1.387 . S
C293 H278 0.930 . S
C293 C288 1.390 . S
C293 C292 1.387 . S
H294 C306 0.930 . S
H295 C308 0.930 . S
H296 C309 0.930 . S
H297 C313 0.959 . S
H298 C313 0.959 . S
H299 C313 0.961 . S
H300 C314 0.960 . S
H301 C314 0.961 . S
H302 C314 0.959 . S
H303 C317 0.929 . S
H304 C318 0.931 . S
H305 C320 0.930 . S
C306 H294 0.930 . S
C306 C307 1.399 . S
C306 C311 1.399 . S
C307 C306 1.399 . S
C307 C308 1.376 . S
C308 H295 0.930 . S
C308 C307 1.376 . S
C308 C309 1.388 . S
C309 H296 0.930 . S
C309 C308 1.388 . S
C309 C310 1.390 . S
C310 C309 1.390 . S
C310 C311 1.394 . S
C310 C316 1.465 . S
C311 C306 1.399 . S
C311 C310 1.394 . S
C311 C312 1.516 . S
C312 C311 1.516 . S
C312 C313 1.502 . S
C312 C314 1.561 . S
C312 C315 1.526 . S
C313 H297 0.959 . S
C313 H298 0.959 . S
C313 H299 0.961 . S
C313 C312 1.502 . S
C314 H300 0.960 . S
C314 H301 0.961 . S
C314 H302 0.959 . S
C314 C312 1.561 . S
C315 C312 1.526 . S
C315 C316 1.396 . S
C315 C320 1.390 . S
C316 C310 1.465 . S
C316 C315 1.396 . S
C316 C317 1.399 . S
C317 H303 0.929 . S
C317 C316 1.399 . S
C317 C318 1.385 . S
C318 H304 0.931 . S
C318 C317 1.385 . S
C318 C319 1.389 . S
C319 C318 1.389 . S
C319 C320 1.387 . S
C320 H305 0.930 . S
C320 C315 1.390 . S
C320 C319 1.387 . S
H321 C333 0.930 . S
H322 C335 0.930 . S
H323 C336 0.930 . S
H324 C340 0.959 . S
H325 C340 0.959 . S
H326 C340 0.961 . S
H327 C341 0.960 . S
H328 C341 0.961 . S
H329 C341 0.959 . S
H330 C344 0.929 1_554 S
H331 C345 0.931 . S
H332 C347 0.930 . S
C333 H321 0.930 . S
C333 C334 1.399 . S
C333 C338 1.399 . S
C334 C333 1.399 . S
C334 C335 1.376 . S
C335 H322 0.930 . S
C335 C334 1.376 . S
C335 C336 1.388 . S
C336 H323 0.930 . S
C336 C335 1.388 . S
C336 C337 1.390 . S
C337 C336 1.390 . S
C337 C338 1.394 . S
C337 C343 1.465 1_554 S
C338 C333 1.399 . S
C338 C337 1.394 . S
C338 C339 1.516 1_554 S
C339 C338 1.516 1_556 S
C339 C340 1.502 . S
C339 C341 1.561 . S
C339 C342 1.526 . S
C340 H324 0.959 . S
C340 H325 0.959 . S
C340 H326 0.961 . S
C340 C339 1.502 . S
C341 H327 0.960 . S
C341 H328 0.961 . S
C341 H329 0.959 . S
C341 C339 1.561 . S
C342 C339 1.526 . S
C342 C343 1.396 . S
C342 C347 1.390 . S
C343 C337 1.465 1_556 S
C343 C342 1.396 . S
C343 C344 1.399 . S
C344 H330 0.929 1_556 S
C344 C343 1.399 . S
C344 C345 1.385 . S
C345 H331 0.931 . S
C345 C344 1.385 . S
C345 C346 1.389 . S
C346 C345 1.389 . S
C346 C347 1.387 . S
C347 H332 0.930 . S
C347 C342 1.390 . S
C347 C346 1.387 . S
H348 C360 0.930 . S
H349 C362 0.930 . S
H350 C363 0.930 . S
H351 C367 0.959 . S
H352 C367 0.959 . S
H353 C367 0.961 . S
H354 C368 0.960 . S
H355 C368 0.961 . S
H356 C368 0.959 . S
H357 C371 0.929 . S
H358 C372 0.931 . S
H359 C374 0.930 . S
C360 H348 0.930 . S
C360 C361 1.399 . S
C360 C365 1.399 . S
C361 C360 1.399 . S
C361 C362 1.376 . S
C362 H349 0.930 . S
C362 C361 1.376 . S
C362 C363 1.388 . S
C363 H350 0.930 . S
C363 C362 1.388 . S
C363 C364 1.390 . S
C364 C363 1.390 . S
C364 C365 1.394 . S
C364 C370 1.465 . S
C365 C360 1.399 . S
C365 C364 1.394 . S
C365 C366 1.516 . S
C366 C365 1.516 . S
C366 C367 1.502 . S
C366 C368 1.561 . S
C366 C369 1.526 . S
C367 H351 0.959 . S
C367 H352 0.959 . S
C367 H353 0.961 . S
C367 C366 1.502 . S
C368 H354 0.960 . S
C368 H355 0.961 . S
C368 H356 0.959 . S
C368 C366 1.561 . S
C369 C366 1.526 . S
C369 C370 1.396 . S
C369 C374 1.390 . S
C370 C364 1.465 . S
C370 C369 1.396 . S
C370 C371 1.399 . S
C371 H357 0.929 . S
C371 C370 1.399 . S
C371 C372 1.385 . S
C372 H358 0.931 . S
C372 C371 1.385 . S
C372 C373 1.389 . S
C373 C372 1.389 . S
C373 C374 1.387 . S
C374 H359 0.930 . S
C374 C369 1.390 . S
C374 C373 1.387 . S
H375 C387 0.930 . S
H376 C389 0.930 . S
H377 C390 0.930 . S
H378 C394 0.959 . S
H379 C394 0.959 . S
H380 C394 0.961 . S
H381 C395 0.960 . S
H382 C395 0.961 . S
H383 C395 0.959 . S
H384 C398 0.929 . S
H385 C399 0.931 . S
H386 C401 0.930 . S
C387 H375 0.930 . S
C387 C388 1.399 . S
C387 C392 1.399 . S
C388 C387 1.399 . S
C388 C389 1.376 . S
C389 H376 0.930 . S
C389 C388 1.376 . S
C389 C390 1.388 . S
C390 H377 0.930 . S
C390 C389 1.388 . S
C390 C391 1.390 . S
C391 C390 1.390 . S
C391 C392 1.394 . S
C391 C397 1.465 . S
C392 C387 1.399 . S
C392 C391 1.394 . S
C392 C393 1.516 . S
C393 C392 1.516 . S
C393 C394 1.502 . S
C393 C395 1.561 . S
C393 C396 1.526 . S
C394 H378 0.959 . S
C394 H379 0.959 . S
C394 H380 0.961 . S
C394 C393 1.502 . S
C395 H381 0.960 . S
C395 H382 0.961 . S
C395 H383 0.959 . S
C395 C393 1.561 . S
C396 C393 1.526 . S
C396 C397 1.396 . S
C396 C401 1.390 . S
C397 C391 1.465 . S
C397 C396 1.396 . S
C397 C398 1.399 . S
C398 H384 0.929 . S
C398 C397 1.399 . S
C398 C399 1.385 . S
C399 H385 0.931 . S
C399 C398 1.385 . S
C399 C400 1.389 . S
C400 C399 1.389 . S
C400 C401 1.387 . S
C401 H386 0.930 . S
C401 C396 1.390 . S
C401 C400 1.387 . S
H402 C414 0.930 . S
H403 C416 0.930 . S
H404 C417 0.930 . S
H405 C421 0.976 . S
H406 C421 0.959 1_655 S
H407 C421 0.961 . S
H408 C422 0.924 1_455 S
H409 C422 1.003 . S
H410 C422 0.941 . S
H411 C425 0.929 . S
H412 C426 0.931 . S
H413 C428 0.930 . S
C414 H402 0.930 . S
C414 C415 1.399 . S
C414 C419 1.399 . S
C415 C414 1.399 . S
C415 C416 1.376 . S
C416 H403 0.930 . S
C416 C415 1.376 . S
C416 C417 1.388 . S
C417 H404 0.930 . S
C417 C416 1.388 . S
C417 C418 1.390 . S
C418 C417 1.390 . S
C418 C419 1.394 . S
C418 C424 1.465 1_455 S
C419 C414 1.399 . S
C419 C418 1.394 . S
C419 C420 1.526 . S
C420 C419 1.526 . S
C420 C421 1.496 . S
C420 C422 1.580 1_455 S
C420 C423 1.519 1_455 S
C421 H405 0.976 . S
C421 H406 0.959 1_455 S
C421 H407 0.961 . S
C421 C420 1.496 . S
C422 H408 0.924 1_655 S
C422 H409 1.003 . S
C422 H410 0.941 . S
C422 C420 1.580 1_655 S
C423 C420 1.519 1_655 S
C423 C424 1.396 . S
C423 C428 1.390 . S
C424 C418 1.465 1_655 S
C424 C423 1.396 . S
C424 C425 1.399 . S
C425 H411 0.929 . S
C425 C424 1.399 . S
C425 C426 1.385 . S
C426 H412 0.931 . S
C426 C425 1.385 . S
C426 C427 1.389 . S
C427 C426 1.389 . S
C427 C428 1.387 . S
C428 H413 0.930 . S
C428 C423 1.390 . S
C428 C427 1.387 . S
H429 C441 0.930 . S
H430 C443 0.930 . S
H431 C444 0.930 . S
H432 C448 0.945 . S
H433 C448 0.958 . S
H434 C448 0.962 1_545 S
H435 C449 0.960 1_545 S
H436 C449 0.961 . S
H437 C449 0.959 . S
H438 C452 0.929 . S
H439 C453 0.931 . S
H440 C455 0.930 . S
C441 H429 0.930 . S
C441 C442 1.399 . S
C441 C446 1.399 . S
C442 C441 1.399 . S
C442 C443 1.376 . S
C443 H430 0.930 . S
C443 C442 1.376 . S
C443 C444 1.388 . S
C444 H431 0.930 . S
C444 C443 1.388 . S
C444 C445 1.390 . S
C445 C444 1.390 . S
C445 C446 1.394 . S
C445 C451 1.465 1_545 S
C446 C441 1.399 . S
C446 C445 1.394 . S
C446 C447 1.502 1_545 S
C447 C446 1.502 1_565 S
C447 C448 1.511 . S
C447 C449 1.556 . S
C447 C450 1.536 . S
C448 H432 0.945 . S
C448 H433 0.958 . S
C448 H434 0.962 1_565 S
C448 C447 1.511 . S
C449 H435 0.960 1_565 S
C449 H436 0.961 . S
C449 H437 0.959 . S
C449 C447 1.556 . S
C450 C447 1.536 . S
C450 C451 1.396 . S
C450 C455 1.390 . S
C451 C445 1.465 1_565 S
C451 C450 1.396 . S
C451 C452 1.399 . S
C452 H438 0.929 . S
C452 C451 1.399 . S
C452 C453 1.385 . S
C453 H439 0.931 . S
C453 C452 1.385 . S
C453 C454 1.389 . S
C454 C453 1.389 . S
C454 C455 1.387 . S
C455 H440 0.930 . S
C455 C450 1.390 . S
C455 C454 1.387 . S
H456 C468 0.930 . S
H457 C470 0.930 . S
H458 C471 0.930 . S
H459 C475 0.959 . S
H460 C475 0.959 . S
H461 C475 0.961 . S
H462 C476 0.960 . S
H463 C476 0.961 . S
H464 C476 0.959 . S
H465 C479 0.929 . S
H466 C480 0.931 . S
H467 C482 0.930 . S
C468 H456 0.930 . S
C468 C469 1.399 . S
C468 C473 1.399 . S
C469 C468 1.399 . S
C469 C470 1.376 . S
C470 H457 0.930 . S
C470 C469 1.376 . S
C470 C471 1.388 . S
C471 H458 0.930 . S
C471 C470 1.388 . S
C471 C472 1.390 . S
C472 C471 1.390 . S
C472 C473 1.394 . S
C472 C478 1.465 . S
C473 C468 1.399 . S
C473 C472 1.394 . S
C473 C474 1.516 . S
C474 C473 1.516 . S
C474 C475 1.502 . S
C474 C476 1.561 . S
C474 C477 1.526 . S
C475 H459 0.959 . S
C475 H460 0.959 . S
C475 H461 0.961 . S
C475 C474 1.502 . S
C476 H462 0.960 . S
C476 H463 0.961 . S
C476 H464 0.959 . S
C476 C474 1.561 . S
C477 C474 1.526 . S
C477 C478 1.396 . S
C477 C482 1.390 . S
C478 C472 1.465 . S
C478 C477 1.396 . S
C478 C479 1.399 . S
C479 H465 0.929 . S
C479 C478 1.399 . S
C479 C480 1.385 . S
C480 H466 0.931 . S
C480 C479 1.385 . S
C480 C481 1.389 . S
C481 C480 1.389 . S
C481 C482 1.387 . S
C482 H467 0.930 . S
C482 C477 1.390 . S
C482 C481 1.387 . S
C253 C101 1.462 . S
C265 C2 1.492 . S
C280 C61 1.471 . S
C292 C141 1.462 . S
C307 C82 1.457 . S
C319 C181 1.484 . S
C334 C122 1.492 . S
C346 C221 1.498 . S
C361 C162 1.492 . S
C373 C21 1.497 . S
C388 C202 1.467 . S
C400 C42 1.501 . S
C415 C15 1.500 . S
C427 C135 1.494 . S
C442 C55 1.495 . S
C454 C175 1.493 . S
C469 C95 1.491 . S
C481 C215 1.499 . S
