# Generated by pormake.
# Topology can, (4)-cn, num edge types: 1
# Building blocks:
#     Node 0, Type 0, BuildingBlock: QUQFOY_clean_sbu_3, # of connection points: 4
#     Node 1, Type 0, BuildingBlock: QUQFOY_clean_sbu_3, # of connection points: 4
#     Node 2, Type 0, BuildingBlock: QUQFOY_clean_sbu_3, # of connection points: 4
#     Node 3, Type 0, BuildingBlock: QUQFOY_clean_sbu_3, # of connection points: 4
#     Node 4, Type 0, BuildingBlock: QUQFOY_clean_sbu_3, # of connection points: 4
#     Node 5, Type 0, BuildingBlock: QUQFOY_clean_sbu_3, # of connection points: 4
#     Node 6, Type 0, BuildingBlock: QUQFOY_clean_sbu_3, # of connection points: 4
#     Node 7, Type 0, BuildingBlock: QUQFOY_clean_sbu_3, # of connection points: 4
#     Node 8, Type 0, BuildingBlock: QUQFOY_clean_sbu_3, # of connection points: 4
#     Node 9, Type 0, BuildingBlock: QUQFOY_clean_sbu_3, # of connection points: 4
#     Node 10, Type 0, BuildingBlock: QUQFOY_clean_sbu_3, # of connection points: 4
#     Node 11, Type 0, BuildingBlock: QUQFOY_clean_sbu_3, # of connection points: 4
#     Edge 12, Type (0, 0), BuildingBlock: EYOCIG_clean_linker_4, # of connection points: 2
#     Edge 13, Type (0, 0), BuildingBlock: EYOCIG_clean_linker_4, # of connection points: 2
#     Edge 14, Type (0, 0), BuildingBlock: EYOCIG_clean_linker_4, # of connection points: 2
#     Edge 15, Type (0, 0), BuildingBlock: EYOCIG_clean_linker_4, # of connection points: 2
#     Edge 16, Type (0, 0), BuildingBlock: EYOCIG_clean_linker_4, # of connection points: 2
#     Edge 17, Type (0, 0), BuildingBlock: EYOCIG_clean_linker_4, # of connection points: 2
#     Edge 18, Type (0, 0), BuildingBlock: EYOCIG_clean_linker_4, # of connection points: 2
#     Edge 19, Type (0, 0), BuildingBlock: EYOCIG_clean_linker_4, # of connection points: 2
#     Edge 20, Type (0, 0), BuildingBlock: EYOCIG_clean_linker_4, # of connection points: 2
#     Edge 21, Type (0, 0), BuildingBlock: EYOCIG_clean_linker_4, # of connection points: 2
#     Edge 22, Type (0, 0), BuildingBlock: EYOCIG_clean_linker_4, # of connection points: 2
#     Edge 23, Type (0, 0), BuildingBlock: EYOCIG_clean_linker_4, # of connection points: 2
#     Edge 24, Type (0, 0), BuildingBlock: EYOCIG_clean_linker_4, # of connection points: 2
#     Edge 25, Type (0, 0), BuildingBlock: EYOCIG_clean_linker_4, # of connection points: 2
#     Edge 26, Type (0, 0), BuildingBlock: EYOCIG_clean_linker_4, # of connection points: 2
#     Edge 27, Type (0, 0), BuildingBlock: EYOCIG_clean_linker_4, # of connection points: 2
#     Edge 28, Type (0, 0), BuildingBlock: EYOCIG_clean_linker_4, # of connection points: 2
#     Edge 29, Type (0, 0), BuildingBlock: EYOCIG_clean_linker_4, # of connection points: 2
#     Edge 30, Type (0, 0), BuildingBlock: EYOCIG_clean_linker_4, # of connection points: 2
#     Edge 31, Type (0, 0), BuildingBlock: EYOCIG_clean_linker_4, # of connection points: 2
#     Edge 32, Type (0, 0), BuildingBlock: EYOCIG_clean_linker_4, # of connection points: 2
#     Edge 33, Type (0, 0), BuildingBlock: EYOCIG_clean_linker_4, # of connection points: 2
#     Edge 34, Type (0, 0), BuildingBlock: EYOCIG_clean_linker_4, # of connection points: 2
#     Edge 35, Type (0, 0), BuildingBlock: EYOCIG_clean_linker_4, # of connection points: 2
# Relax obj value: 0.050
# Max RMSD: 0.037
# Mean RMSD: 0.037
data_MOF--net-can--node1-QUQFOY_clean_sbu_3--edge1-EYOCIG_clean_linker_4
_symmetry_space_group_name_H-M    P1
_symmetry_Int_Tables_number       1
_symmetry_cell_setting            triclinic
loop_
_symmetry_equiv_pos_as_xyz
'x, y, z'
_cell_length_a     46.268403
_cell_length_b     46.270082
_cell_length_c     23.328205
_cell_angle_alpha  90.048032
_cell_angle_beta   89.99133
_cell_angle_gamma 119.99547
loop_
_atom_site_label
_atom_site_type_symbol
_atom_site_fract_x
_atom_site_fract_y
_atom_site_fract_z
_atom_type_partial_charge
C0 C -0.01657 0.33796 0.32846 0.0
O1 O 0.95764 0.33111 0.29933 0.0
Cd2 Cd 0.95998 0.34869 0.20133 0.0
O3 O 0.0123 0.35269 0.30595 0.0
Cd4 Cd 0.03708 0.37158 0.20982 0.0
C5 C 0.01732 0.43268 0.21466 0.0
O6 O -0.00729 0.33145 0.14712 0.0
O7 O 0.03291 0.3756 0.10701 0.0
O8 O 0.06368 0.33841 0.22567 0.0
C9 C 0.00665 0.3475 0.10173 0.0
O10 O -0.01248 0.40964 0.20486 0.0
C11 C 0.09302 0.36209 0.21631 0.0
O12 O 0.04091 0.42634 0.22173 0.0
O13 O 0.09684 0.39067 0.20512 0.0
C14 C 0.62914 -0.00819 0.82896 0.0
O15 O 0.60997 0.96587 0.8003 0.0
Cd16 Cd 0.59422 0.96746 0.70231 0.0
O17 O 0.64331 0.02055 0.80599 0.0
Cd18 Cd 0.64925 0.0454 0.71002 0.0
C19 C 0.5682 0.02543 0.71537 0.0
O20 O 0.64409 0.00033 0.64832 0.0
O21 O 0.64153 0.04099 0.60699 0.0
O22 O 0.70895 0.07193 0.72705 0.0
C23 C 0.64206 0.01399 0.60252 0.0
O24 O 0.56133 -0.00446 0.70606 0.0
C25 C 0.71468 0.10131 0.71803 0.0
O26 O 0.59819 0.04905 0.72183 0.0
O27 O 0.69002 0.10517 0.70601 0.0
C28 C 0.61947 0.63578 0.32863 0.0
O29 O 0.62655 0.61684 0.29992 0.0
Cd30 Cd 0.60972 0.60189 0.20153 0.0
O31 O 0.60528 0.65028 0.30539 0.0
Cd32 Cd 0.58732 0.6573 0.20927 0.0
C33 C 0.52591 0.57656 0.21564 0.0
O34 O 0.6273 0.65209 0.14817 0.0
O35 O 0.58406 0.64927 0.10636 0.0
O36 O 0.62076 0.71701 0.22613 0.0
C37 C 0.61176 0.65013 0.10221 0.0
O38 O 0.54874 0.56946 0.20608 0.0
C39 C 0.59731 0.72293 0.21613 0.0
O40 O 0.53247 0.60664 0.22165 0.0
O41 O 0.56875 0.69835 0.20407 0.0
C42 C 0.96717 0.62812 0.8287 0.0
O43 O -0.00685 0.63553 0.7997 0.0
Cd44 Cd -0.00911 0.61818 0.70138 0.0
O45 O 0.93842 0.61342 0.80578 0.0
Cd46 Cd 0.91348 0.59519 0.70984 0.0
C47 C 0.93337 0.53427 0.71597 0.0
O48 O 0.95782 0.63484 0.64671 0.0
O49 O 0.91714 0.5908 0.60701 0.0
O50 O 0.88731 0.62862 0.7274 0.0
C51 C 0.94373 0.6186 0.60147 0.0
O52 O 0.96317 0.55726 0.70604 0.0
C53 C 0.85785 0.605 0.71859 0.0
O54 O 0.90974 0.5406 0.72244 0.0
O55 O 0.85384 0.57643 0.70651 0.0
C56 C 0.32405 0.97691 0.32765 0.0
O57 O 0.34305 0.00239 0.29792 0.0
Cd58 Cd 0.35716 -0.00092 0.19947 0.0
O59 O 0.30922 0.9479 0.30563 0.0
Cd60 Cd 0.30214 0.92199 0.21022 0.0
C61 C 0.38267 0.94088 0.21365 0.0
O62 O 0.30673 0.9661 0.14657 0.0
O63 O 0.31005 0.92528 0.10746 0.0
O64 O 0.24224 0.89474 0.22615 0.0
C65 C 0.30866 0.95174 0.10154 0.0
O66 O 0.3898 0.9707 0.20296 0.0
C67 C 0.23711 0.86552 0.21745 0.0
O68 O 0.35268 0.91769 0.22177 0.0
O69 O 0.26217 0.86214 0.20668 0.0
C70 C 0.33151 0.33194 0.82808 0.0
O71 O 0.32412 0.35037 0.7986 0.0
Cd72 Cd 0.34088 0.36479 0.6999 0.0
O73 O 0.34598 0.31753 0.80557 0.0
Cd74 Cd 0.36388 0.30994 0.70979 0.0
C75 C 0.42488 0.39089 0.71319 0.0
O76 O 0.32446 0.31477 0.64663 0.0
O77 O 0.36839 0.3178 0.60709 0.0
O78 O 0.33016 0.25027 0.72653 0.0
C79 C 0.34076 0.31695 0.60148 0.0
O80 O 0.40186 0.39766 0.70321 0.0
C81 C 0.3537 0.24432 0.71778 0.0
O82 O 0.41854 0.36099 0.72078 0.0
O83 O 0.38242 0.26886 0.70654 0.0
C84 C 0.6212 0.97603 0.11145 0.0
O85 O 0.62748 0.00165 0.14066 0.0
Cd86 Cd 0.60911 -0.00136 0.2384 0.0
O87 O 0.60676 0.94712 0.13378 0.0
Cd88 Cd 0.58753 0.92181 0.2294 0.0
C89 C 0.52555 0.94021 0.22316 0.0
O90 O 0.62661 0.96631 0.29318 0.0
O91 O 0.58269 0.92524 0.33221 0.0
O92 O 0.62128 0.89581 0.21332 0.0
C93 C 0.61032 0.95196 0.33818 0.0
O94 O 0.54816 0.97012 0.23346 0.0
C95 C 0.59768 0.86633 0.22186 0.0
O96 O 0.53245 0.91699 0.21631 0.0
O97 O 0.56898 0.86222 0.23299 0.0
C98 C 0.62736 0.62846 0.61221 0.0
O99 O 0.60877 0.63552 0.64197 0.0
Cd100 Cd 0.59444 0.61798 0.74022 0.0
O101 O 0.64186 0.61396 0.6343 0.0
Cd102 Cd 0.6491 0.59538 0.72983 0.0
C103 C 0.56839 0.53419 0.72412 0.0
O104 O 0.64464 0.63492 0.7935 0.0
O105 O 0.64073 0.59053 0.83252 0.0
O106 O 0.70892 0.62863 0.71403 0.0
C107 C 0.64249 0.61856 0.8385 0.0
O108 O 0.56152 0.55705 0.73497 0.0
C109 C 0.71454 0.60491 0.72335 0.0
O110 O 0.59837 0.54068 0.71692 0.0
O111 O 0.68973 0.5763 0.73414 0.0
C112 C -0.01776 0.63565 0.11196 0.0
O113 O 0.95656 0.61665 0.14128 0.0
Cd114 Cd 0.95908 0.60189 0.23946 0.0
O115 O 0.01118 0.65018 0.13432 0.0
Cd116 Cd 0.03701 0.65696 0.22977 0.0
C117 C 0.01713 0.57603 0.22482 0.0
O118 O -0.00765 0.65234 0.29185 0.0
O119 O 0.03292 0.64952 0.33291 0.0
O120 O 0.0645 0.71672 0.21258 0.0
C121 C 0.00613 0.65044 0.33758 0.0
O122 O -0.01267 0.56913 0.23506 0.0
C123 C 0.09368 0.72189 0.2219 0.0
O124 O 0.04063 0.60599 0.21774 0.0
O125 O 0.09696 0.69689 0.23381 0.0
C126 C 0.33163 -0.0075 0.61097 0.0
O127 O 0.32417 0.96637 0.63951 0.0
Cd128 Cd 0.34067 0.96751 0.73789 0.0
O129 O 0.34611 0.02115 0.63437 0.0
Cd130 Cd 0.36386 0.04562 0.7308 0.0
C131 C 0.42473 0.02544 0.72547 0.0
O132 O 0.32377 0.00049 0.79182 0.0
O133 O 0.36708 0.04089 0.83363 0.0
O134 O 0.33039 0.07179 0.71381 0.0
C135 C 0.33944 0.01398 0.83776 0.0
O136 O 0.40164 -0.00444 0.73448 0.0
C137 C 0.35386 0.1012 0.72346 0.0
O138 O 0.41848 0.04916 0.7193 0.0
O139 O 0.38244 0.10525 0.73559 0.0
C140 C 0.32413 0.33968 0.11187 0.0
O141 O 0.34286 0.33257 0.1411 0.0
Cd142 Cd 0.35715 0.34915 0.23999 0.0
O143 O 0.30951 0.35388 0.13461 0.0
Cd144 Cd 0.30178 0.37185 0.23016 0.0
C145 C 0.38272 0.43308 0.22722 0.0
O146 O 0.30685 0.33231 0.29251 0.0
O147 O 0.30924 0.37571 0.33303 0.0
O148 O 0.2421 0.33829 0.21268 0.0
C149 C 0.3088 0.34825 0.33801 0.0
O150 O 0.38966 0.41016 0.23704 0.0
C151 C 0.2362 0.36187 0.22147 0.0
O152 O 0.35277 0.4266 0.2196 0.0
O153 O 0.26076 0.3905 0.23319 0.0
C154 C 0.9672 0.33003 0.61094 0.0
O155 O -0.00689 0.34926 0.63957 0.0
Cd156 Cd -0.00849 0.36474 0.73769 0.0
O157 O 0.93845 0.31576 0.63397 0.0
Cd158 Cd 0.91409 0.3101 0.73049 0.0
C159 C 0.93377 0.39102 0.72614 0.0
O160 O 0.95915 0.31467 0.79162 0.0
O161 O 0.91908 0.31814 0.83338 0.0
O162 O 0.88717 0.25028 0.71472 0.0
C163 C 0.9456 0.31669 0.83758 0.0
O164 O 0.96367 0.39789 0.7352 0.0
C165 C 0.85792 0.24474 0.72458 0.0
O166 O 0.91019 0.36105 0.71938 0.0
O167 O 0.85428 0.26959 0.73609 0.0
C168 C -0.01772 0.32805 -0.00211 0.0
C169 C -0.00776 0.33564 0.04631 0.0
C170 C 0.97111 0.32238 0.94061 0.0
C171 C 0.96073 0.31965 0.89243 0.0
C172 C 0.62861 0.97635 0.44239 0.0
C173 C 0.62142 0.96629 0.39392 0.0
C174 C 0.6345 -0.01225 0.49958 0.0
C175 C 0.63804 -0.0015 0.54766 0.0
C176 C 0.63105 0.64304 -0.00042 0.0
C177 C 0.62354 0.64637 0.04753 0.0
C178 C 0.63672 0.63717 0.94253 0.0
C179 C 0.63946 0.62983 0.89414 0.0
C180 C -0.01998 0.64309 0.44054 0.0
C181 C -0.00923 0.64654 0.39249 0.0
C182 C 0.96849 0.63717 0.49762 0.0
C183 C 0.95828 0.62988 0.54597 0.0
C184 C 0.3205 -0.01245 0.94036 0.0
C185 C 0.32782 -0.00162 0.89241 0.0
C186 C 0.31486 0.97612 -0.00254 0.0
C187 C 0.31193 0.96609 0.0459 0.0
C188 C 0.31703 0.33034 0.44103 0.0
C189 C 0.3132 0.33732 0.39302 0.0
C190 C 0.32296 0.32455 0.49795 0.0
C191 C 0.32993 0.321 0.54614 0.0
C192 C 0.97263 0.63929 0.94029 0.0
C193 C 0.96995 0.63411 0.88937 0.0
C194 C -0.02407 0.64097 0.00055 0.0
C195 C -0.02106 0.63862 0.0514 0.0
C196 C 0.31937 -0.016 0.43902 0.0
C197 C 0.32138 0.98056 0.38821 0.0
C198 C 0.32108 -0.01251 0.49925 0.0
C199 C 0.32599 -0.00998 0.55023 0.0
C200 C 0.32102 0.32723 0.93987 0.0
C201 C 0.32583 0.32936 0.88884 0.0
C202 C 0.3194 0.32886 0.00016 0.0
C203 C 0.32138 0.33391 0.05112 0.0
C204 C 0.97317 0.32359 0.49975 0.0
C205 C 0.97008 0.3263 0.55047 0.0
C206 C -0.023 0.32546 0.43959 0.0
C207 C -0.01976 0.33128 0.3889 0.0
C208 C 0.63569 -0.0139 0.94017 0.0
C209 C 0.63287 -0.01101 0.88943 0.0
C210 C 0.6339 0.98253 0.00037 0.0
C211 C 0.62803 0.97937 0.05105 0.0
C212 C 0.63019 0.64111 0.44034 0.0
C213 C 0.62518 0.63885 0.38937 0.0
C214 C 0.63192 0.6395 0.50061 0.0
C215 C 0.6299 0.63442 0.55154 0.0
C216 C 0.02653 0.52431 0.21983 0.0
C217 C 0.02392 0.54897 0.22155 0.0
C218 C 0.02655 0.49377 0.2186 0.0
C219 C 0.02401 0.46651 0.21733 0.0
C220 C 0.48577 0.03459 0.72099 0.0
C221 C 0.45853 0.03207 0.72256 0.0
C222 C 0.51635 0.03464 0.7197 0.0
C223 C 0.54108 0.03215 0.71823 0.0
C224 C 0.46484 0.52489 0.22186 0.0
C225 C 0.49206 0.54959 0.21955 0.0
C226 C 0.43436 0.49428 0.22349 0.0
C227 C 0.40975 0.46696 0.22466 0.0
C228 C 0.92425 0.47327 0.72149 0.0
C229 C 0.92673 0.50048 0.7195 0.0
C230 C 0.92434 0.44276 0.72277 0.0
C231 C 0.92697 0.4181 0.72381 0.0
C232 C 0.43388 0.93064 0.21719 0.0
C233 C 0.40945 0.93366 0.21616 0.0
C234 C 0.46428 0.93034 0.21818 0.0
C235 C 0.49156 0.93298 0.21984 0.0
C236 C 0.51659 0.47317 0.71822 0.0
C237 C 0.54132 0.50038 0.72032 0.0
C238 C 0.48599 0.44268 0.71683 0.0
C239 C 0.45871 0.41802 0.7157 0.0
C240 C 0.14515 0.35348 0.21785 0.0
C241 C 0.12083 0.35657 0.21748 0.0
C242 C 0.17551 0.35333 0.21821 0.0
C243 C 0.20284 0.35623 0.2193 0.0
C244 C 0.80562 0.1841 0.72287 0.0
C245 C 0.83 0.21148 0.72332 0.0
C246 C 0.77526 0.15362 0.7221 0.0
C247 C 0.74795 0.12917 0.72061 0.0
C248 C 0.60614 0.78374 0.21822 0.0
C249 C 0.60301 0.75631 0.21765 0.0
C250 C 0.60629 0.81423 0.21875 0.0
C251 C 0.60335 0.83864 0.2198 0.0
C252 C 0.80568 0.61346 0.72257 0.0
C253 C 0.8301 0.61056 0.72114 0.0
C254 C 0.77522 0.61339 0.72282 0.0
C255 C 0.74786 0.6104 0.72272 0.0
C256 C 0.17686 0.81266 0.21906 0.0
C257 C 0.20403 0.83731 0.21865 0.0
C258 C 0.14649 0.78218 0.21928 0.0
C259 C 0.12191 0.75496 0.22015 0.0
C260 C 0.34489 0.18352 0.72026 0.0
C261 C 0.34792 0.2109 0.71951 0.0
C262 C 0.34498 0.15315 0.72072 0.0
C263 C 0.34812 0.12886 0.72159 0.0
loop_
_geom_bond_atom_site_label_1
_geom_bond_atom_site_label_2
_geom_bond_distance
_geom_bond_site_symmetry_2
_ccdc_geom_bond_type
C0 O1 1.306 1_455 S
C0 O3 1.160 . S
O1 C0 1.306 1_655 S
O1 Cd2 2.228 . S
Cd2 O1 2.228 . S
Cd2 O6 2.273 1_655 S
Cd2 O10 2.277 1_655 S
O3 C0 1.160 . S
O3 Cd4 2.203 . S
Cd4 O3 2.203 . S
Cd4 O6 2.411 . S
Cd4 O7 2.333 . S
Cd4 O8 2.352 . S
Cd4 O12 2.277 . S
Cd4 O13 2.356 . S
C5 O10 1.209 . S
C5 O12 1.226 . S
O6 Cd2 2.273 1_455 S
O6 Cd4 2.411 . S
O6 C9 1.320 . S
O7 Cd4 2.333 . S
O7 C9 1.214 . S
O8 Cd4 2.352 . S
O8 C11 1.258 . S
C9 O6 1.320 . S
C9 O7 1.214 . S
O10 Cd2 2.277 1_455 S
O10 C5 1.209 . S
C11 O8 1.258 . S
C11 O13 1.282 . S
O12 Cd4 2.277 . S
O12 C5 1.226 . S
O13 Cd4 2.356 . S
O13 C11 1.282 . S
C14 O15 1.306 1_545 S
C14 O17 1.160 . S
O15 C14 1.306 1_565 S
O15 Cd16 2.228 . S
Cd16 O15 2.228 . S
Cd16 O20 2.273 1_565 S
Cd16 O24 2.277 1_565 S
O17 C14 1.160 . S
O17 Cd18 2.203 . S
Cd18 O17 2.203 . S
Cd18 O20 2.411 . S
Cd18 O21 2.333 . S
Cd18 O22 2.352 . S
Cd18 O26 2.277 . S
Cd18 O27 2.356 . S
C19 O24 1.209 . S
C19 O26 1.226 . S
O20 Cd16 2.273 1_545 S
O20 Cd18 2.411 . S
O20 C23 1.320 . S
O21 Cd18 2.333 . S
O21 C23 1.214 . S
O22 Cd18 2.352 . S
O22 C25 1.258 . S
C23 O20 1.320 . S
C23 O21 1.214 . S
O24 Cd16 2.277 1_545 S
O24 C19 1.209 . S
C25 O22 1.258 . S
C25 O27 1.282 . S
O26 Cd18 2.277 . S
O26 C19 1.226 . S
O27 Cd18 2.356 . S
O27 C25 1.282 . S
C28 O29 1.306 . S
C28 O31 1.160 . S
O29 C28 1.306 . S
O29 Cd30 2.228 . S
Cd30 O29 2.228 . S
Cd30 O34 2.273 . S
Cd30 O38 2.277 . S
O31 C28 1.160 . S
O31 Cd32 2.203 . S
Cd32 O31 2.203 . S
Cd32 O34 2.411 . S
Cd32 O35 2.333 . S
Cd32 O36 2.352 . S
Cd32 O40 2.277 . S
Cd32 O41 2.356 . S
C33 O38 1.209 . S
C33 O40 1.226 . S
O34 Cd30 2.273 . S
O34 Cd32 2.411 . S
O34 C37 1.320 . S
O35 Cd32 2.333 . S
O35 C37 1.214 . S
O36 Cd32 2.352 . S
O36 C39 1.258 . S
C37 O34 1.320 . S
C37 O35 1.214 . S
O38 Cd30 2.277 . S
O38 C33 1.209 . S
C39 O36 1.258 . S
C39 O41 1.282 . S
O40 Cd32 2.277 . S
O40 C33 1.226 . S
O41 Cd32 2.356 . S
O41 C39 1.282 . S
C42 O43 1.306 1_655 S
C42 O45 1.160 . S
O43 C42 1.306 1_455 S
O43 Cd44 2.228 . S
Cd44 O43 2.228 . S
Cd44 O48 2.273 1_455 S
Cd44 O52 2.277 1_455 S
O45 C42 1.160 . S
O45 Cd46 2.203 . S
Cd46 O45 2.203 . S
Cd46 O48 2.411 . S
Cd46 O49 2.333 . S
Cd46 O50 2.352 . S
Cd46 O54 2.277 . S
Cd46 O55 2.356 . S
C47 O52 1.209 . S
C47 O54 1.226 . S
O48 Cd44 2.273 1_655 S
O48 Cd46 2.411 . S
O48 C51 1.320 . S
O49 Cd46 2.333 . S
O49 C51 1.214 . S
O50 Cd46 2.352 . S
O50 C53 1.258 . S
C51 O48 1.320 . S
C51 O49 1.214 . S
O52 Cd44 2.277 1_655 S
O52 C47 1.209 . S
C53 O50 1.258 . S
C53 O55 1.282 . S
O54 Cd46 2.277 . S
O54 C47 1.226 . S
O55 Cd46 2.356 . S
O55 C53 1.282 . S
C56 O57 1.306 1_565 S
C56 O59 1.160 . S
O57 C56 1.306 1_545 S
O57 Cd58 2.228 . S
Cd58 O57 2.228 . S
Cd58 O62 2.273 1_545 S
Cd58 O66 2.277 1_545 S
O59 C56 1.160 . S
O59 Cd60 2.203 . S
Cd60 O59 2.203 . S
Cd60 O62 2.411 . S
Cd60 O63 2.333 . S
Cd60 O64 2.352 . S
Cd60 O68 2.277 . S
Cd60 O69 2.356 . S
C61 O66 1.209 . S
C61 O68 1.226 . S
O62 Cd58 2.273 1_565 S
O62 Cd60 2.411 . S
O62 C65 1.320 . S
O63 Cd60 2.333 . S
O63 C65 1.214 . S
O64 Cd60 2.352 . S
O64 C67 1.258 . S
C65 O62 1.320 . S
C65 O63 1.214 . S
O66 Cd58 2.277 1_565 S
O66 C61 1.209 . S
C67 O64 1.258 . S
C67 O69 1.282 . S
O68 Cd60 2.277 . S
O68 C61 1.226 . S
O69 Cd60 2.356 . S
O69 C67 1.282 . S
C70 O71 1.306 . S
C70 O73 1.160 . S
O71 C70 1.306 . S
O71 Cd72 2.228 . S
Cd72 O71 2.228 . S
Cd72 O76 2.273 . S
Cd72 O80 2.277 . S
O73 C70 1.160 . S
O73 Cd74 2.203 . S
Cd74 O73 2.203 . S
Cd74 O76 2.411 . S
Cd74 O77 2.333 . S
Cd74 O78 2.352 . S
Cd74 O82 2.277 . S
Cd74 O83 2.356 . S
C75 O80 1.209 . S
C75 O82 1.226 . S
O76 Cd72 2.273 . S
O76 Cd74 2.411 . S
O76 C79 1.320 . S
O77 Cd74 2.333 . S
O77 C79 1.214 . S
O78 Cd74 2.352 . S
O78 C81 1.258 . S
C79 O76 1.320 . S
C79 O77 1.214 . S
O80 Cd72 2.277 . S
O80 C75 1.209 . S
C81 O78 1.258 . S
C81 O83 1.282 . S
O82 Cd74 2.277 . S
O82 C75 1.226 . S
O83 Cd74 2.356 . S
O83 C81 1.282 . S
C84 O85 1.306 1_565 S
C84 O87 1.160 . S
O85 C84 1.306 1_545 S
O85 Cd86 2.228 . S
Cd86 O85 2.228 . S
Cd86 O90 2.273 1_545 S
Cd86 O94 2.277 1_545 S
O87 C84 1.160 . S
O87 Cd88 2.203 . S
Cd88 O87 2.203 . S
Cd88 O90 2.411 . S
Cd88 O91 2.333 . S
Cd88 O92 2.352 . S
Cd88 O96 2.277 . S
Cd88 O97 2.356 . S
C89 O94 1.209 . S
C89 O96 1.226 . S
O90 Cd86 2.273 1_565 S
O90 Cd88 2.411 . S
O90 C93 1.320 . S
O91 Cd88 2.333 . S
O91 C93 1.214 . S
O92 Cd88 2.352 . S
O92 C95 1.258 . S
C93 O90 1.320 . S
C93 O91 1.214 . S
O94 Cd86 2.277 1_565 S
O94 C89 1.209 . S
C95 O92 1.258 . S
C95 O97 1.282 . S
O96 Cd88 2.277 . S
O96 C89 1.226 . S
O97 Cd88 2.356 . S
O97 C95 1.282 . S
C98 O99 1.306 . S
C98 O101 1.160 . S
O99 C98 1.306 . S
O99 Cd100 2.228 . S
Cd100 O99 2.228 . S
Cd100 O104 2.273 . S
Cd100 O108 2.277 . S
O101 C98 1.160 . S
O101 Cd102 2.203 . S
Cd102 O101 2.203 . S
Cd102 O104 2.411 . S
Cd102 O105 2.333 . S
Cd102 O106 2.352 . S
Cd102 O110 2.277 . S
Cd102 O111 2.356 . S
C103 O108 1.209 . S
C103 O110 1.226 . S
O104 Cd100 2.273 . S
O104 Cd102 2.411 . S
O104 C107 1.320 . S
O105 Cd102 2.333 . S
O105 C107 1.214 . S
O106 Cd102 2.352 . S
O106 C109 1.258 . S
C107 O104 1.320 . S
C107 O105 1.214 . S
O108 Cd100 2.277 . S
O108 C103 1.209 . S
C109 O106 1.258 . S
C109 O111 1.282 . S
O110 Cd102 2.277 . S
O110 C103 1.226 . S
O111 Cd102 2.356 . S
O111 C109 1.282 . S
C112 O113 1.306 1_455 S
C112 O115 1.160 . S
O113 C112 1.306 1_655 S
O113 Cd114 2.228 . S
Cd114 O113 2.228 . S
Cd114 O118 2.273 1_655 S
Cd114 O122 2.277 1_655 S
O115 C112 1.160 . S
O115 Cd116 2.203 . S
Cd116 O115 2.203 . S
Cd116 O118 2.411 . S
Cd116 O119 2.333 . S
Cd116 O120 2.352 . S
Cd116 O124 2.277 . S
Cd116 O125 2.356 . S
C117 O122 1.209 . S
C117 O124 1.226 . S
O118 Cd114 2.273 1_455 S
O118 Cd116 2.411 . S
O118 C121 1.320 . S
O119 Cd116 2.333 . S
O119 C121 1.214 . S
O120 Cd116 2.352 . S
O120 C123 1.258 . S
C121 O118 1.320 . S
C121 O119 1.214 . S
O122 Cd114 2.277 1_455 S
O122 C117 1.209 . S
C123 O120 1.258 . S
C123 O125 1.282 . S
O124 Cd116 2.277 . S
O124 C117 1.226 . S
O125 Cd116 2.356 . S
O125 C123 1.282 . S
C126 O127 1.306 1_545 S
C126 O129 1.160 . S
O127 C126 1.306 1_565 S
O127 Cd128 2.228 . S
Cd128 O127 2.228 . S
Cd128 O132 2.273 1_565 S
Cd128 O136 2.277 1_565 S
O129 C126 1.160 . S
O129 Cd130 2.203 . S
Cd130 O129 2.203 . S
Cd130 O132 2.411 . S
Cd130 O133 2.333 . S
Cd130 O134 2.352 . S
Cd130 O138 2.277 . S
Cd130 O139 2.356 . S
C131 O136 1.209 . S
C131 O138 1.226 . S
O132 Cd128 2.273 1_545 S
O132 Cd130 2.411 . S
O132 C135 1.320 . S
O133 Cd130 2.333 . S
O133 C135 1.214 . S
O134 Cd130 2.352 . S
O134 C137 1.258 . S
C135 O132 1.320 . S
C135 O133 1.214 . S
O136 Cd128 2.277 1_545 S
O136 C131 1.209 . S
C137 O134 1.258 . S
C137 O139 1.282 . S
O138 Cd130 2.277 . S
O138 C131 1.226 . S
O139 Cd130 2.356 . S
O139 C137 1.282 . S
C140 O141 1.306 . S
C140 O143 1.160 . S
O141 C140 1.306 . S
O141 Cd142 2.228 . S
Cd142 O141 2.228 . S
Cd142 O146 2.273 . S
Cd142 O150 2.277 . S
O143 C140 1.160 . S
O143 Cd144 2.203 . S
Cd144 O143 2.203 . S
Cd144 O146 2.411 . S
Cd144 O147 2.333 . S
Cd144 O148 2.352 . S
Cd144 O152 2.277 . S
Cd144 O153 2.356 . S
C145 O150 1.209 . S
C145 O152 1.226 . S
O146 Cd142 2.273 . S
O146 Cd144 2.411 . S
O146 C149 1.320 . S
O147 Cd144 2.333 . S
O147 C149 1.214 . S
O148 Cd144 2.352 . S
O148 C151 1.258 . S
C149 O146 1.320 . S
C149 O147 1.214 . S
O150 Cd142 2.277 . S
O150 C145 1.209 . S
C151 O148 1.258 . S
C151 O153 1.282 . S
O152 Cd144 2.277 . S
O152 C145 1.226 . S
O153 Cd144 2.356 . S
O153 C151 1.282 . S
C154 O155 1.306 1_655 S
C154 O157 1.160 . S
O155 C154 1.306 1_455 S
O155 Cd156 2.228 . S
Cd156 O155 2.228 . S
Cd156 O160 2.273 1_455 S
Cd156 O164 2.277 1_455 S
O157 C154 1.160 . S
O157 Cd158 2.203 . S
Cd158 O157 2.203 . S
Cd158 O160 2.411 . S
Cd158 O161 2.333 . S
Cd158 O162 2.352 . S
Cd158 O166 2.277 . S
Cd158 O167 2.356 . S
C159 O164 1.209 . S
C159 O166 1.226 . S
O160 Cd156 2.273 1_655 S
O160 Cd158 2.411 . S
O160 C163 1.320 . S
O161 Cd158 2.333 . S
O161 C163 1.214 . S
O162 Cd158 2.352 . S
O162 C165 1.258 . S
C163 O160 1.320 . S
C163 O161 1.214 . S
O164 Cd156 2.277 1_655 S
O164 C159 1.209 . S
C165 O162 1.258 . S
C165 O167 1.282 . S
O166 Cd158 2.277 . S
O166 C159 1.226 . S
O167 Cd158 2.356 . S
O167 C165 1.282 . S
C168 C169 1.170 . S
C168 C170 1.380 1_454 S
C169 C168 1.170 . S
C170 C168 1.380 1_656 S
C170 C171 1.170 . S
C171 C170 1.170 . S
C172 C173 1.170 . S
C172 C174 1.380 1_565 S
C173 C172 1.170 . S
C174 C172 1.380 1_545 S
C174 C175 1.170 . S
C175 C174 1.170 . S
C176 C177 1.170 . S
C176 C178 1.380 1_554 S
C177 C176 1.170 . S
C178 C176 1.380 1_556 S
C178 C179 1.170 . S
C179 C178 1.170 . S
C180 C181 1.170 . S
C180 C182 1.380 1_455 S
C181 C180 1.170 . S
C182 C180 1.380 1_655 S
C182 C183 1.170 . S
C183 C182 1.170 . S
C184 C185 1.170 . S
C184 C186 1.380 1_546 S
C185 C184 1.170 . S
C186 C184 1.380 1_564 S
C186 C187 1.170 . S
C187 C186 1.170 . S
C188 C189 1.170 . S
C188 C190 1.380 . S
C189 C188 1.170 . S
C190 C188 1.380 . S
C190 C191 1.170 . S
C191 C190 1.170 . S
C192 C193 1.170 . S
C192 C194 1.374 1_656 S
C193 C192 1.170 . S
C194 C192 1.374 1_454 S
C194 C195 1.178 . S
C195 C194 1.178 . S
C196 C197 1.178 . S
C196 C198 1.374 1_565 S
C197 C196 1.178 . S
C198 C196 1.374 1_545 S
C198 C199 1.170 . S
C199 C198 1.170 . S
C200 C201 1.170 . S
C200 C202 1.380 1_556 S
C201 C200 1.170 . S
C202 C200 1.380 1_554 S
C202 C203 1.170 . S
C203 C202 1.170 . S
C204 C205 1.170 . S
C204 C206 1.380 1_655 S
C205 C204 1.170 . S
C206 C204 1.380 1_455 S
C206 C207 1.170 . S
C207 C206 1.170 . S
C208 C209 1.170 . S
C208 C210 1.380 1_546 S
C209 C208 1.170 . S
C210 C208 1.380 1_564 S
C210 C211 1.170 . S
C211 C210 1.170 . S
C212 C213 1.170 . S
C212 C214 1.380 . S
C213 C212 1.170 . S
C214 C212 1.380 . S
C214 C215 1.170 . S
C215 C214 1.170 . S
C216 C217 1.170 . S
C216 C218 1.380 . S
C217 C216 1.170 . S
C218 C216 1.380 . S
C218 C219 1.170 . S
C219 C218 1.170 . S
C220 C221 1.170 . S
C220 C222 1.380 . S
C221 C220 1.170 . S
C222 C220 1.380 . S
C222 C223 1.170 . S
C223 C222 1.170 . S
C224 C225 1.170 . S
C224 C226 1.380 . S
C225 C224 1.170 . S
C226 C224 1.380 . S
C226 C227 1.170 . S
C227 C226 1.170 . S
C228 C229 1.170 . S
C228 C230 1.380 . S
C229 C228 1.170 . S
C230 C228 1.380 . S
C230 C231 1.170 . S
C231 C230 1.170 . S
C232 C233 1.170 . S
C232 C234 1.380 . S
C233 C232 1.170 . S
C234 C232 1.380 . S
C234 C235 1.170 . S
C235 C234 1.170 . S
C236 C237 1.170 . S
C236 C238 1.380 . S
C237 C236 1.170 . S
C238 C236 1.380 . S
C238 C239 1.170 . S
C239 C238 1.170 . S
C240 C241 1.170 . S
C240 C242 1.380 . S
C241 C240 1.170 . S
C242 C240 1.380 . S
C242 C243 1.170 . S
C243 C242 1.170 . S
C244 C245 1.170 . S
C244 C246 1.380 . S
C245 C244 1.170 . S
C246 C244 1.380 . S
C246 C247 1.170 . S
C247 C246 1.170 . S
C248 C249 1.170 . S
C248 C250 1.380 . S
C249 C248 1.170 . S
C250 C248 1.380 . S
C250 C251 1.170 . S
C251 C250 1.170 . S
C252 C253 1.170 . S
C252 C254 1.380 . S
C253 C252 1.170 . S
C254 C252 1.380 . S
C254 C255 1.170 . S
C255 C254 1.170 . S
C256 C257 1.170 . S
C256 C258 1.380 . S
C257 C256 1.170 . S
C258 C256 1.380 . S
C258 C259 1.170 . S
C259 C258 1.170 . S
C260 C261 1.170 . S
C260 C262 1.380 . S
C261 C260 1.170 . S
C262 C260 1.380 . S
C262 C263 1.170 . S
C263 C262 1.170 . S
C169 C9 1.411 . S
C171 C163 1.423 . S
C173 C93 1.397 . S
C175 C23 1.416 . S
C177 C37 1.419 . S
C179 C107 1.399 . S
C181 C121 1.417 . S
C183 C51 1.397 . S
C185 C135 1.416 . S
C187 C65 1.397 . S
C189 C149 1.405 . S
C191 C79 1.397 . S
C193 C42 1.349 . S
C195 C112 1.359 . S
C197 C56 1.358 . S
C199 C126 1.348 . S
C201 C70 1.345 . S
C203 C140 1.347 . S
C205 C154 1.364 . S
C207 C0 1.366 . S
C209 C14 1.364 . S
C211 C84 1.366 . S
C213 C28 1.345 . S
C215 C98 1.351 . S
C217 C117 1.630 . S
C219 C5 1.630 . S
C221 C131 1.630 . S
C223 C19 1.630 . S
C225 C33 1.630 . S
C227 C145 1.630 . S
C229 C47 1.630 . S
C231 C159 1.630 . S
C233 C61 1.629 . S
C235 C89 1.629 . S
C237 C103 1.630 . S
C239 C75 1.630 . S
C241 C11 1.591 . S
C243 C151 1.594 . S
C245 C165 1.588 . S
C247 C25 1.593 . S
C249 C39 1.591 . S
C251 C95 1.594 . S
C253 C53 1.592 . S
C255 C109 1.586 . S
C257 C67 1.577 . S
C259 C123 1.579 . S
C261 C81 1.594 . S
C263 C137 1.593 . S
