# Generated by pormake.
# Topology fee, (5)-cn, num edge types: 1
# Building blocks:
#     Node 0, Type 0, BuildingBlock: XOMCOT_clean_sbu_0, # of connection points: 5
#     Node 1, Type 0, BuildingBlock: XOMCOT_clean_sbu_0, # of connection points: 5
#     Node 2, Type 0, BuildingBlock: XOMCOT_clean_sbu_0, # of connection points: 5
#     Node 3, Type 0, BuildingBlock: XOMCOT_clean_sbu_0, # of connection points: 5
#     Edge 4, Type (0, 0), BuildingBlock: CIFDUS_clean_linker_0, # of connection points: 2
#     Edge 5, Type (0, 0), BuildingBlock: CIFDUS_clean_linker_0, # of connection points: 2
#     Edge 6, Type (0, 0), BuildingBlock: CIFDUS_clean_linker_0, # of connection points: 2
#     Edge 7, Type (0, 0), BuildingBlock: CIFDUS_clean_linker_0, # of connection points: 2
#     Edge 8, Type (0, 0), BuildingBlock: CIFDUS_clean_linker_0, # of connection points: 2
#     Edge 9, Type (0, 0), BuildingBlock: CIFDUS_clean_linker_0, # of connection points: 2
#     Edge 10, Type (0, 0), BuildingBlock: CIFDUS_clean_linker_0, # of connection points: 2
#     Edge 11, Type (0, 0), BuildingBlock: CIFDUS_clean_linker_0, # of connection points: 2
#     Edge 12, Type (0, 0), BuildingBlock: CIFDUS_clean_linker_0, # of connection points: 2
#     Edge 13, Type (0, 0), BuildingBlock: CIFDUS_clean_linker_0, # of connection points: 2
# Relax obj value: 0.155
# Max RMSD: 0.169
# Mean RMSD: 0.150
data_MOF--net-fee--node1-XOMCOT_clean_sbu_0--edge1-CIFDUS_clean_linker_0
_symmetry_space_group_name_H-M    P1
_symmetry_Int_Tables_number       1
_symmetry_cell_setting            triclinic
loop_
_symmetry_equiv_pos_as_xyz
'x, y, z'
_cell_length_a     34.056794
_cell_length_b     34.065524
_cell_length_c     15.899315
_cell_angle_alpha  96.066561
_cell_angle_beta   95.84426
_cell_angle_gamma 89.969789
loop_
_atom_site_label
_atom_site_type_symbol
_atom_site_fract_x
_atom_site_fract_y
_atom_site_fract_z
_atom_type_partial_charge
Co0 Co 0.18123 0.54154 0.1108 0.0
C1 C 0.17378 0.53726 0.29498 0.0
C2 C 0.17394 0.59644 0.26052 0.0
C3 C 0.16889 0.598 0.3453 0.0
N4 N 0.17726 0.55844 0.22912 0.0
N5 N 0.16887 0.56077 0.36709 0.0
H6 H 0.17469 0.50551 0.29063 0.0
H7 H 0.1743 0.62133 0.22362 0.0
C8 C 0.2431 0.59957 0.06416 0.0
O9 O 0.24338 0.58296 0.98598 0.0
N10 N 0.18408 0.52524 0.99136 0.0
C11 C 0.19327 0.48916 0.95544 0.0
C12 C 0.18894 0.48912 0.86864 0.0
C13 C 0.17278 0.54609 0.9257 0.0
N14 N 0.17632 0.525 0.85017 0.0
C15 C 0.20906 0.46724 0.16062 0.0
C16 C 0.28605 0.47543 0.12471 0.0
C17 C 0.27275 0.4382 0.14031 0.0
C18 C 0.23411 0.43481 0.16177 0.0
C19 C 0.26012 0.50727 0.12491 0.0
N20 N 0.22158 0.50274 0.13961 0.0
H21 H 0.17872 0.46274 0.17137 0.0
H22 H 0.27104 0.53449 0.10783 0.0
H23 H 0.20228 0.46425 0.98911 0.0
H24 H 0.16282 0.57632 0.93322 0.0
O25 O 0.13502 0.50841 0.10545 0.0
O26 O 0.13381 0.5715 0.08335 0.0
O27 O 0.22182 0.58542 0.11573 0.0
C28 C 0.11431 0.53908 0.08828 0.0
H29 H 0.16467 0.62456 0.38693 0.0
H30 H 0.19557 0.46486 0.82276 0.0
H31 H 0.31562 0.47958 0.10754 0.0
H32 H 0.2227 0.4069 0.17626 0.0
Co33 Co 0.45307 0.1918 0.10372 0.0
C34 C 0.444 0.19474 0.29416 0.0
C35 C 0.44924 0.25146 0.24926 0.0
C36 C 0.44562 0.25686 0.33491 0.0
N37 N 0.44829 0.2126 0.22262 0.0
N38 N 0.44209 0.22134 0.36416 0.0
H39 H 0.44212 0.16313 0.2952 0.0
H40 H 0.45293 0.27461 0.20908 0.0
C41 C 0.37736 0.2296 0.055 0.0
O42 O 0.36053 0.19468 0.05034 0.0
N43 N 0.45885 0.1718 0.9844 0.0
C44 C 0.48695 0.14595 0.96199 0.0
C45 C 0.48614 0.14056 0.87524 0.0
C46 C 0.44169 0.18245 0.90874 0.0
N47 N 0.45779 0.16332 0.84071 0.0
C48 C 0.53073 0.22463 0.15142 0.0
C49 C 0.52558 0.27985 0.03495 0.0
C50 C 0.56087 0.27699 0.08724 0.0
C51 C 0.56339 0.24887 0.14598 0.0
C52 C 0.49399 0.25482 0.04156 0.0
N53 N 0.49667 0.22787 0.09962 0.0
H54 H 0.53274 0.20307 0.19687 0.0
H55 H 0.46764 0.25676 0.99846 0.0
H56 H 0.50813 0.13275 1.00558 0.0
H57 H 0.41864 0.20416 0.90343 0.0
O58 O 0.48187 0.14681 0.14141 0.0
O59 O 0.41703 0.14874 0.11233 0.0
O60 O 0.41474 0.23307 0.06864 0.0
C61 C 0.44804 0.12846 0.13443 0.0
H62 H 0.44652 0.28519 0.37283 0.0
H63 H 0.50637 0.12237 0.8403 0.0
H64 H 0.52271 0.30068 0.98775 0.0
H65 H 0.59019 0.24587 0.18762 0.0
Co66 Co 0.81488 0.54674 0.09211 0.0
C67 C 0.81629 0.54471 0.90715 0.0
C68 C 0.79427 0.59983 0.96124 0.0
C69 C 0.79555 0.60156 0.87553 0.0
N70 N 0.807 0.5641 0.98051 0.0
N71 N 0.80959 0.56699 0.842 0.0
H72 H 0.82808 0.51514 0.90185 0.0
H73 H 0.7857 0.62339 1.00656 0.0
C74 C 0.73891 0.57284 0.15833 0.0
O75 O 0.73557 0.53787 0.18499 0.0
N76 N 0.82437 0.53077 0.20649 0.0
C77 C 0.84834 0.50181 0.23236 0.0
C78 C 0.84963 0.50233 0.31898 0.0
C79 C 0.81379 0.55013 0.27912 0.0
N80 N 0.8277 0.5327 0.34845 0.0
C81 C 0.78585 0.46594 0.07697 0.0
C82 C 0.7121 0.48138 0.99947 0.0
C83 C 0.71797 0.44534 0.03433 0.0
C84 C 0.75621 0.43711 0.06956 0.0
C85 C 0.74237 0.50966 1.01017 0.0
N86 N 0.77769 0.50297 0.05525 0.0
H87 H 0.81489 0.4586 0.10284 0.0
H88 H 0.73623 0.53812 0.98781 0.0
H89 H 0.86506 0.4822 0.19193 0.0
H90 H 0.79773 0.57748 0.28186 0.0
O91 O 0.86304 0.52149 0.06322 0.0
O92 O 0.8587 0.58361 0.11944 0.0
O93 O 0.77008 0.58215 0.126 0.0
C94 C 0.88072 0.55495 0.09064 0.0
H95 H 0.7882 0.6268 0.84117 0.0
H96 H 0.86572 0.48188 0.35688 0.0
H97 H 0.68386 0.48854 0.96729 0.0
H98 H 0.76306 0.40948 0.09531 0.0
Co99 Co 0.46893 0.82895 0.1235 0.0
C100 C 0.47284 0.83742 0.93922 0.0
C101 C 0.4139 0.83097 0.9721 0.0
C102 C 0.41198 0.83664 0.88767 0.0
N103 N 0.45203 0.83102 1.00434 0.0
N104 N 0.44909 0.8406 0.86673 0.0
H105 H 0.50445 0.84033 0.94454 0.0
H106 H 0.389 0.82824 1.00829 0.0
C107 C 0.40831 0.7697 0.17272 0.0
O108 O 0.41929 0.77518 0.25451 0.0
N109 N 0.48524 0.82821 0.24352 0.0
C110 C 0.52154 0.8202 0.27971 0.0
C111 C 0.52164 0.82582 0.36656 0.0
C112 C 0.46448 0.84062 0.30893 0.0
N113 N 0.48562 0.83832 0.38471 0.0
C114 C 0.54189 0.79865 0.06817 0.0
C115 C 0.53598 0.72537 0.12538 0.0
C116 C 0.5718 0.73607 0.09692 0.0
C117 C 0.57375 0.77286 0.06498 0.0
C118 C 0.50434 0.75147 0.12462 0.0
N119 N 0.50763 0.78808 0.09799 0.0
H120 H 0.54606 0.82817 0.05197 0.0
H121 H 0.47869 0.74303 0.15271 0.0
H122 H 0.54652 0.81109 0.24596 0.0
H123 H 0.43422 0.85047 0.30116 0.0
O124 O 0.50188 0.87508 0.1257 0.0
O125 O 0.43872 0.87643 0.14798 0.0
O126 O 0.42574 0.78769 0.12025 0.0
C127 C 0.47106 0.89591 0.14196 0.0
H128 H 0.38511 0.83874 0.84592 0.0
H129 H 0.54598 0.82 0.41272 0.0
H130 H 0.53275 0.69805 0.15315 0.0
H131 H 0.6002 0.78264 0.04069 0.0
H132 H 0.1534 0.48217 0.70171 0.0
H133 H 0.19025 0.59895 0.81298 0.0
H134 H 0.18963 0.62093 0.67164 0.0
H135 H 0.18343 0.60555 0.51745 0.0
H136 H 0.14563 0.48894 0.40526 0.0
H137 H 0.14289 0.46799 0.54634 0.0
C138 C 0.1612 0.51243 0.69483 0.0
C139 C 0.17205 0.53883 0.76749 0.0
C140 C 0.1612 0.5247 0.61345 0.0
C141 C 0.18142 0.57817 0.758 0.0
C142 C 0.18141 0.59065 0.67723 0.0
C143 C 0.17392 0.57574 0.52333 0.0
C144 C 0.16513 0.54887 0.4503 0.0
C145 C 0.17195 0.56398 0.60458 0.0
C146 C 0.15341 0.51014 0.46 0.0
C147 C 0.15152 0.49815 0.54078 0.0
H148 H 0.43203 0.2276 0.76169 0.0
H149 H 0.46625 0.10616 0.71239 0.0
H150 H 0.46367 0.1126 0.56096 0.0
H151 H 0.45612 0.1538 0.44149 0.0
H152 H 0.41824 0.27432 0.4894 0.0
H153 H 0.41785 0.26695 0.63938 0.0
C154 C 0.43824 0.20238 0.71774 0.0
C155 C 0.45004 0.16664 0.74978 0.0
C156 C 0.4366 0.20616 0.62925 0.0
C157 C 0.45799 0.13437 0.69077 0.0
C158 C 0.45641 0.13794 0.60351 0.0
C159 C 0.44732 0.17838 0.48418 0.0
C160 C 0.43825 0.2149 0.45253 0.0
C161 C 0.44655 0.17392 0.57182 0.0
C162 C 0.42672 0.24611 0.51052 0.0
C163 C 0.42612 0.2419 0.59719 0.0
H164 H 0.76926 0.59003 0.70232 0.0
H165 H 0.86926 0.52187 0.78847 0.0
H166 H 0.88456 0.50601 0.64197 0.0
H167 H 0.86981 0.5122 0.49047 0.0
H168 H 0.76772 0.57789 0.40351 0.0
H169 H 0.75373 0.59512 0.54971 0.0
C170 C 0.7945 0.5719 0.68882 0.0
C171 C 0.81807 0.5571 0.75575 0.0
C172 C 0.80298 0.56283 0.60461 0.0
C173 C 0.8504 0.53316 0.73771 0.0
C174 C 0.8593 0.52433 0.65413 0.0
C175 C 0.84428 0.52997 0.50293 0.0
C176 C 0.82005 0.54373 0.43534 0.0
C177 C 0.83575 0.53899 0.58711 0.0
C178 C 0.78743 0.56735 0.45377 0.0
C179 C 0.77912 0.57698 0.53754 0.0
H180 H 0.40474 0.82668 0.71554 0.0
H181 H 0.52 0.86775 0.82978 0.0
H182 H 0.54088 0.87268 0.68946 0.0
H183 H 0.52741 0.86241 0.53377 0.0
H184 H 0.41182 0.82275 0.42096 0.0
H185 H 0.38962 0.82178 0.56177 0.0
C186 C 0.43422 0.83741 0.71053 0.0
C187 C 0.46075 0.84629 0.784 0.0
C188 C 0.44596 0.84071 0.62965 0.0
C189 C 0.49903 0.85974 0.77493 0.0
C190 C 0.511 0.86289 0.69448 0.0
C191 C 0.49733 0.85376 0.54024 0.0
C192 C 0.4714 0.84243 0.4672 0.0
C193 C 0.48489 0.85288 0.62141 0.0
C194 C 0.43227 0.83193 0.47617 0.0
C195 C 0.41966 0.83102 0.55668 0.0
H196 H 0.93308 0.49745 0.05509 0.0
H197 H 0.92521 0.62286 0.12456 0.0
H198 H 0.99681 0.62971 0.12458 0.0
H199 H 0.06215 0.59935 0.10907 0.0
H200 H 0.069 0.47335 0.04623 0.0
H201 H 0.99735 0.4675 0.03863 0.0
C202 C 0.94695 0.52635 0.0699 0.0
C203 C 0.92387 0.55959 0.08979 0.0
C204 C 0.98802 0.52994 0.07081 0.0
C205 C 0.94236 0.59677 0.10927 0.0
C206 C 0.98329 0.60071 0.10915 0.0
C207 C 0.04781 0.57075 0.09283 0.0
C208 C 0.07077 0.53685 0.07802 0.0
C209 C 0.00649 0.56744 0.09046 0.0
C210 C 0.05195 0.49986 0.0581 0.0
C211 C 0.01099 0.49646 0.05381 0.0
H212 H 0.40976 0.9476 0.14463 0.0
H213 H 0.53682 0.94216 0.15749 0.0
H214 H 0.54091 0.0138 0.16238 0.0
H215 H 0.50856 0.07765 0.15524 0.0
H216 H 0.3815 0.08377 0.13657 0.0
H217 H 0.37726 0.01241 0.14238 0.0
C218 C 0.43831 0.96218 0.14929 0.0
C219 C 0.47291 0.93955 0.15043 0.0
C220 C 0.44047 0.00352 0.1508 0.0
C221 C 0.50971 0.95883 0.15607 0.0
C222 C 0.51211 0.99984 0.15891 0.0
C223 C 0.47993 0.06347 0.15338 0.0
C224 C 0.44541 0.08598 0.14545 0.0
C225 C 0.4777 0.02243 0.15519 0.0
C226 C 0.40854 0.06709 0.14259 0.0
C227 C 0.40609 0.02627 0.14574 0.0
H228 H 0.40122 0.30471 0.11129 0.0
H229 H 0.29848 0.23537 1.00511 0.0
H230 H 0.25726 0.29395 0.02129 0.0
H231 H 0.25021 0.36427 0.06921 0.0
H232 H 0.35244 0.43238 0.18381 0.0
H233 H 0.3941 0.37473 0.16026 0.0
C234 C 0.36986 0.30238 0.09096 0.0
C235 C 0.35298 0.26564 0.05691 0.0
C236 C 0.34621 0.3359 0.10254 0.0
C237 C 0.31224 0.26325 0.03147 0.0
C238 C 0.28863 0.29671 0.041 0.0
C239 C 0.2815 0.36646 0.09025 0.0
C240 C 0.29803 0.40272 0.12875 0.0
C241 C 0.30523 0.33305 0.07755 0.0
C242 C 0.33888 0.40506 0.15345 0.0
C243 C 0.36274 0.37204 0.14024 0.0
H244 H 0.718 0.36424 0.03051 0.0
H245 H 0.6411 0.46508 0.0536 0.0
H246 H 0.58629 0.42204 0.06996 0.0
H247 H 0.56012 0.35618 0.08284 0.0
H248 H 0.63746 0.25598 0.072 0.0
H249 H 0.6925 0.29868 0.04962 0.0
C250 C 0.68947 0.37707 0.04001 0.0
C251 C 0.68408 0.41814 0.03975 0.0
C252 C 0.65813 0.35229 0.05304 0.0
C253 C 0.64634 0.43365 0.05078 0.0
C254 C 0.61488 0.40907 0.06148 0.0
C255 C 0.58906 0.34374 0.07547 0.0
C256 C 0.59478 0.30306 0.07881 0.0
C257 C 0.62048 0.36844 0.06325 0.0
C258 C 0.63247 0.28731 0.07032 0.0
C259 C 0.66383 0.31165 0.05694 0.0
H260 H 0.57481 0.65525 0.09563 0.0
H261 H 0.65029 0.7589 0.12294 0.0
H262 H 0.70804 0.71785 0.14209 0.0
H263 H 0.73774 0.65249 0.15449 0.0
H264 H 0.66181 0.55042 0.14444 0.0
H265 H 0.60377 0.59126 0.1193 0.0
C266 C 0.60366 0.66929 0.10724 0.0
C267 C 0.6075 0.7105 0.10671 0.0
C268 C 0.63696 0.64575 0.12282 0.0
C269 C 0.64577 0.72735 0.12005 0.0
C270 C 0.6791 0.70389 0.13244 0.0
C271 C 0.70844 0.63933 0.14752 0.0
C272 C 0.70407 0.59858 0.15165 0.0
C273 C 0.67506 0.66309 0.13433 0.0
C274 C 0.66596 0.58184 0.14264 0.0
C275 C 0.63275 0.60511 0.12752 0.0
H276 H 0.35969 0.73027 0.26206 0.0
H277 H 0.38799 0.74107 1.00681 0.0
H278 H 0.33928 0.69006 0.95075 0.0
H279 H 0.28942 0.64124 0.97395 0.0
H280 H 0.26032 0.63131 0.229 0.0
H281 H 0.30832 0.68301 0.28476 0.0
C282 C 0.35521 0.72151 0.19416 0.0
C283 C 0.37771 0.73945 0.13902 0.0
C284 C 0.32693 0.69219 0.16202 0.0
C285 C 0.37119 0.72786 0.05102 0.0
C286 C 0.34332 0.69858 0.01873 0.0
C287 C 0.29351 0.6504 0.04172 0.0
C288 C 0.27133 0.63215 0.09699 0.0
C289 C 0.32115 0.68037 0.07363 0.0
C290 C 0.2769 0.64472 0.18468 0.0
C291 C 0.30446 0.6743 0.21684 0.0
loop_
_geom_bond_atom_site_label_1
_geom_bond_atom_site_label_2
_geom_bond_distance
_geom_bond_site_symmetry_2
_ccdc_geom_bond_type
Co0 N4 2.148 . S
Co0 N10 2.128 1_554 S
Co0 N20 2.194 . S
Co0 O25 2.351 . S
Co0 O26 2.155 . S
Co0 O27 2.096 . S
C1 N4 1.301 . S
C1 N5 1.328 . S
C1 H6 0.930 . S
C2 C3 1.333 . S
C2 N4 1.317 . S
C2 H7 0.930 . S
C3 C2 1.333 . S
C3 N5 1.350 . S
C3 H29 0.931 . S
N4 Co0 2.148 . S
N4 C1 1.301 . S
N4 C2 1.317 . S
N5 C1 1.328 . S
N5 C3 1.350 . S
H6 C1 0.930 . S
H7 C2 0.930 . S
C8 O9 1.224 . S
C8 O27 1.247 . S
O9 C8 1.224 . S
N10 Co0 2.128 1_556 S
N10 C11 1.355 . S
N10 C13 1.311 . S
C11 N10 1.355 . S
C11 C12 1.363 . S
C11 H23 0.929 . S
C12 C11 1.363 . S
C12 N14 1.375 . S
C12 H30 0.931 . S
C13 N10 1.311 . S
C13 N14 1.347 . S
C13 H24 0.929 . S
N14 C12 1.375 . S
N14 C13 1.347 . S
C15 C18 1.365 . S
C15 N20 1.328 . S
C15 H21 0.929 . S
C16 C17 1.362 . S
C16 C19 1.378 . S
C16 H31 0.929 . S
C17 C16 1.362 . S
C17 C18 1.366 . S
C18 C15 1.365 . S
C18 C17 1.366 . S
C18 H32 0.930 . S
C19 C16 1.378 . S
C19 N20 1.315 . S
C19 H22 0.930 . S
N20 Co0 2.194 . S
N20 C15 1.328 . S
N20 C19 1.315 . S
H21 C15 0.929 . S
H22 C19 0.930 . S
H23 C11 0.929 . S
H24 C13 0.929 . S
O25 Co0 2.351 . S
O25 C28 1.244 . S
O26 Co0 2.155 . S
O26 C28 1.240 . S
O27 Co0 2.096 . S
O27 C8 1.247 . S
C28 O25 1.244 . S
C28 O26 1.240 . S
H29 C3 0.931 . S
H30 C12 0.931 . S
H31 C16 0.929 . S
H32 C18 0.930 . S
Co33 N37 2.148 . S
Co33 N43 2.128 1_554 S
Co33 N53 2.194 . S
Co33 O58 2.351 . S
Co33 O59 2.155 . S
Co33 O60 2.096 . S
C34 N37 1.301 . S
C34 N38 1.328 . S
C34 H39 0.930 . S
C35 C36 1.333 . S
C35 N37 1.317 . S
C35 H40 0.930 . S
C36 C35 1.333 . S
C36 N38 1.350 . S
C36 H62 0.931 . S
N37 Co33 2.148 . S
N37 C34 1.301 . S
N37 C35 1.317 . S
N38 C34 1.328 . S
N38 C36 1.350 . S
H39 C34 0.930 . S
H40 C35 0.930 . S
C41 O42 1.224 . S
C41 O60 1.247 . S
O42 C41 1.224 . S
N43 Co33 2.128 1_556 S
N43 C44 1.355 . S
N43 C46 1.311 . S
C44 N43 1.355 . S
C44 C45 1.363 . S
C44 H56 0.929 . S
C45 C44 1.363 . S
C45 N47 1.375 . S
C45 H63 0.931 . S
C46 N43 1.311 . S
C46 N47 1.347 . S
C46 H57 0.929 . S
N47 C45 1.375 . S
N47 C46 1.347 . S
C48 C51 1.365 . S
C48 N53 1.328 . S
C48 H54 0.929 . S
C49 C50 1.362 . S
C49 C52 1.378 . S
C49 H64 0.929 . S
C50 C49 1.362 . S
C50 C51 1.366 . S
C51 C48 1.365 . S
C51 C50 1.366 . S
C51 H65 0.930 . S
C52 C49 1.378 . S
C52 N53 1.315 . S
C52 H55 0.930 . S
N53 Co33 2.194 . S
N53 C48 1.328 . S
N53 C52 1.315 . S
H54 C48 0.929 . S
H55 C52 0.930 . S
H56 C44 0.929 . S
H57 C46 0.929 . S
O58 Co33 2.351 . S
O58 C61 1.244 . S
O59 Co33 2.155 . S
O59 C61 1.240 . S
O60 Co33 2.096 . S
O60 C41 1.247 . S
C61 O58 1.244 . S
C61 O59 1.240 . S
H62 C36 0.931 . S
H63 C45 0.931 . S
H64 C49 0.929 . S
H65 C51 0.930 . S
Co66 N70 2.148 . S
Co66 N76 2.128 . S
Co66 N86 2.194 . S
Co66 O91 2.351 . S
Co66 O92 2.155 . S
Co66 O93 2.096 . S
C67 N70 1.301 1_556 S
C67 N71 1.328 . S
C67 H72 0.930 . S
C68 C69 1.333 . S
C68 N70 1.317 1_556 S
C68 H73 0.930 . S
C69 C68 1.333 . S
C69 N71 1.350 . S
C69 H95 0.931 . S
N70 Co66 2.148 . S
N70 C67 1.301 1_554 S
N70 C68 1.317 1_554 S
N71 C67 1.328 . S
N71 C69 1.350 . S
H72 C67 0.930 . S
H73 C68 0.930 . S
C74 O75 1.224 . S
C74 O93 1.247 . S
O75 C74 1.224 . S
N76 Co66 2.128 . S
N76 C77 1.355 . S
N76 C79 1.311 . S
C77 N76 1.355 . S
C77 C78 1.363 . S
C77 H89 0.929 . S
C78 C77 1.363 . S
C78 N80 1.375 . S
C78 H96 0.931 . S
C79 N76 1.311 . S
C79 N80 1.347 . S
C79 H90 0.929 . S
N80 C78 1.375 . S
N80 C79 1.347 . S
C81 C84 1.365 . S
C81 N86 1.328 . S
C81 H87 0.929 . S
C82 C83 1.362 . S
C82 C85 1.378 . S
C82 H97 0.929 . S
C83 C82 1.362 . S
C83 C84 1.366 . S
C84 C81 1.365 . S
C84 C83 1.366 . S
C84 H98 0.930 . S
C85 C82 1.378 . S
C85 N86 1.315 . S
C85 H88 0.930 . S
N86 Co66 2.194 . S
N86 C81 1.328 . S
N86 C85 1.315 . S
H87 C81 0.929 . S
H88 C85 0.930 . S
H89 C77 0.929 . S
H90 C79 0.929 . S
O91 Co66 2.351 . S
O91 C94 1.244 . S
O92 Co66 2.155 . S
O92 C94 1.240 . S
O93 Co66 2.096 . S
O93 C74 1.247 . S
C94 O91 1.244 . S
C94 O92 1.240 . S
H95 C69 0.931 . S
H96 C78 0.931 . S
H97 C82 0.929 . S
H98 C84 0.930 . S
Co99 N103 2.148 1_554 S
Co99 N109 2.128 . S
Co99 N119 2.194 . S
Co99 O124 2.351 . S
Co99 O125 2.155 . S
Co99 O126 2.096 . S
C100 N103 1.301 . S
C100 N104 1.328 . S
C100 H105 0.930 . S
C101 C102 1.333 . S
C101 N103 1.317 . S
C101 H106 0.930 . S
C102 C101 1.333 . S
C102 N104 1.350 . S
C102 H128 0.931 . S
N103 Co99 2.148 1_556 S
N103 C100 1.301 . S
N103 C101 1.317 . S
N104 C100 1.328 . S
N104 C102 1.350 . S
H105 C100 0.930 . S
H106 C101 0.930 . S
C107 O108 1.224 . S
C107 O126 1.247 . S
O108 C107 1.224 . S
N109 Co99 2.128 . S
N109 C110 1.355 . S
N109 C112 1.311 . S
C110 N109 1.355 . S
C110 C111 1.363 . S
C110 H122 0.929 . S
C111 C110 1.363 . S
C111 N113 1.375 . S
C111 H129 0.931 . S
C112 N109 1.311 . S
C112 N113 1.347 . S
C112 H123 0.929 . S
N113 C111 1.375 . S
N113 C112 1.347 . S
C114 C117 1.365 . S
C114 N119 1.328 . S
C114 H120 0.929 . S
C115 C116 1.362 . S
C115 C118 1.378 . S
C115 H130 0.929 . S
C116 C115 1.362 . S
C116 C117 1.366 . S
C117 C114 1.365 . S
C117 C116 1.366 . S
C117 H131 0.930 . S
C118 C115 1.378 . S
C118 N119 1.315 . S
C118 H121 0.930 . S
N119 Co99 2.194 . S
N119 C114 1.328 . S
N119 C118 1.315 . S
H120 C114 0.929 . S
H121 C118 0.930 . S
H122 C110 0.929 . S
H123 C112 0.929 . S
O124 Co99 2.351 . S
O124 C127 1.244 . S
O125 Co99 2.155 . S
O125 C127 1.240 . S
O126 Co99 2.096 . S
O126 C107 1.247 . S
C127 O124 1.244 . S
C127 O125 1.240 . S
H128 C102 0.931 . S
H129 C111 0.931 . S
H130 C115 0.929 . S
H131 C117 0.930 . S
H132 C138 0.930 . S
H133 C141 0.930 . S
H134 C142 0.930 . S
H135 C143 0.930 . S
H136 C146 0.930 . S
H137 C147 0.930 . S
C138 H132 0.930 . S
C138 C139 1.355 . S
C138 C140 1.415 . S
C139 C138 1.355 . S
C139 C141 1.419 . S
C140 C138 1.415 . S
C140 C145 1.425 . S
C140 C147 1.409 . S
C141 H133 0.930 . S
C141 C139 1.419 . S
C141 C142 1.362 . S
C142 H134 0.930 . S
C142 C141 1.362 . S
C142 C145 1.409 . S
C143 H135 0.930 . S
C143 C144 1.355 . S
C143 C145 1.415 . S
C144 C143 1.355 . S
C144 C146 1.419 . S
C145 C140 1.425 . S
C145 C142 1.409 . S
C145 C143 1.415 . S
C146 H136 0.930 . S
C146 C144 1.419 . S
C146 C147 1.362 . S
C147 H137 0.930 . S
C147 C140 1.409 . S
C147 C146 1.362 . S
H148 C154 0.930 . S
H149 C157 0.930 . S
H150 C158 0.930 . S
H151 C159 0.930 . S
H152 C162 0.930 . S
H153 C163 0.930 . S
C154 H148 0.930 . S
C154 C155 1.355 . S
C154 C156 1.415 . S
C155 C154 1.355 . S
C155 C157 1.419 . S
C156 C154 1.415 . S
C156 C161 1.425 . S
C156 C163 1.409 . S
C157 H149 0.930 . S
C157 C155 1.419 . S
C157 C158 1.362 . S
C158 H150 0.930 . S
C158 C157 1.362 . S
C158 C161 1.409 . S
C159 H151 0.930 . S
C159 C160 1.355 . S
C159 C161 1.415 . S
C160 C159 1.355 . S
C160 C162 1.419 . S
C161 C156 1.425 . S
C161 C158 1.409 . S
C161 C159 1.415 . S
C162 H152 0.930 . S
C162 C160 1.419 . S
C162 C163 1.362 . S
C163 H153 0.930 . S
C163 C156 1.409 . S
C163 C162 1.362 . S
H164 C170 0.930 . S
H165 C173 0.930 . S
H166 C174 0.930 . S
H167 C175 0.930 . S
H168 C178 0.930 . S
H169 C179 0.930 . S
C170 H164 0.930 . S
C170 C171 1.355 . S
C170 C172 1.415 . S
C171 C170 1.355 . S
C171 C173 1.419 . S
C172 C170 1.415 . S
C172 C177 1.425 . S
C172 C179 1.409 . S
C173 H165 0.930 . S
C173 C171 1.419 . S
C173 C174 1.362 . S
C174 H166 0.930 . S
C174 C173 1.362 . S
C174 C177 1.409 . S
C175 H167 0.930 . S
C175 C176 1.355 . S
C175 C177 1.415 . S
C176 C175 1.355 . S
C176 C178 1.419 . S
C177 C172 1.425 . S
C177 C174 1.409 . S
C177 C175 1.415 . S
C178 H168 0.930 . S
C178 C176 1.419 . S
C178 C179 1.362 . S
C179 H169 0.930 . S
C179 C172 1.409 . S
C179 C178 1.362 . S
H180 C186 0.930 . S
H181 C189 0.930 . S
H182 C190 0.930 . S
H183 C191 0.930 . S
H184 C194 0.930 . S
H185 C195 0.930 . S
C186 H180 0.930 . S
C186 C187 1.355 . S
C186 C188 1.415 . S
C187 C186 1.355 . S
C187 C189 1.419 . S
C188 C186 1.415 . S
C188 C193 1.425 . S
C188 C195 1.409 . S
C189 H181 0.930 . S
C189 C187 1.419 . S
C189 C190 1.362 . S
C190 H182 0.930 . S
C190 C189 1.362 . S
C190 C193 1.409 . S
C191 H183 0.930 . S
C191 C192 1.355 . S
C191 C193 1.415 . S
C192 C191 1.355 . S
C192 C194 1.419 . S
C193 C188 1.425 . S
C193 C190 1.409 . S
C193 C191 1.415 . S
C194 H184 0.930 . S
C194 C192 1.419 . S
C194 C195 1.362 . S
C195 H185 0.930 . S
C195 C188 1.409 . S
C195 C194 1.362 . S
H196 C202 0.930 . S
H197 C205 0.930 . S
H198 C206 0.930 . S
H199 C207 0.930 . S
H200 C210 0.930 . S
H201 C211 0.930 . S
C202 H196 0.930 . S
C202 C203 1.355 . S
C202 C204 1.415 . S
C203 C202 1.355 . S
C203 C205 1.419 . S
C204 C202 1.415 . S
C204 C209 1.437 . S
C204 C211 1.409 1_554 S
C205 H197 0.930 . S
C205 C203 1.419 . S
C205 C206 1.362 . S
C206 H198 0.930 . S
C206 C205 1.362 . S
C206 C209 1.423 . S
C207 H199 0.930 . S
C207 C208 1.355 . S
C207 C209 1.390 1_455 S
C208 C207 1.355 . S
C208 C210 1.419 1_554 S
C209 C204 1.437 . S
C209 C206 1.423 . S
C209 C207 1.390 1_655 S
C210 H200 0.930 . S
C210 C208 1.419 1_556 S
C210 C211 1.362 1_455 S
C211 H201 0.930 . S
C211 C204 1.409 1_556 S
C211 C210 1.362 1_655 S
H212 C218 0.930 . S
H213 C221 0.930 . S
H214 C222 0.930 . S
H215 C223 0.930 . S
H216 C226 0.930 1_556 S
H217 C227 0.930 1_556 S
C218 H212 0.930 . S
C218 C219 1.355 . S
C218 C220 1.415 1_565 S
C219 C218 1.355 . S
C219 C221 1.419 . S
C220 C218 1.415 1_545 S
C220 C225 1.425 . S
C220 C227 1.409 . S
C221 H213 0.930 . S
C221 C219 1.419 . S
C221 C222 1.362 1_565 S
C222 H214 0.930 . S
C222 C221 1.362 1_545 S
C222 C225 1.409 . S
C223 H215 0.930 . S
C223 C224 1.355 . S
C223 C225 1.415 . S
C224 C223 1.355 . S
C224 C226 1.419 . S
C225 C220 1.425 . S
C225 C222 1.409 . S
C225 C223 1.415 . S
C226 H216 0.930 1_554 S
C226 C224 1.419 . S
C226 C227 1.362 . S
C227 H217 0.930 1_554 S
C227 C220 1.409 . S
C227 C226 1.362 . S
H228 C234 0.930 . S
H229 C237 0.930 . S
H230 C238 0.930 . S
H231 C239 0.930 . S
H232 C242 0.930 . S
H233 C243 0.930 . S
C234 H228 0.930 . S
C234 C235 1.355 . S
C234 C236 1.415 . S
C235 C234 1.355 . S
C235 C237 1.419 . S
C236 C234 1.415 . S
C236 C241 1.425 . S
C236 C243 1.409 . S
C237 H229 0.930 . S
C237 C235 1.419 . S
C237 C238 1.362 . S
C238 H230 0.930 . S
C238 C237 1.362 . S
C238 C241 1.409 . S
C239 H231 0.930 . S
C239 C240 1.355 . S
C239 C241 1.415 . S
C240 C239 1.355 . S
C240 C242 1.419 . S
C241 C236 1.425 . S
C241 C238 1.409 . S
C241 C239 1.415 . S
C242 H232 0.930 . S
C242 C240 1.419 . S
C242 C243 1.362 . S
C243 H233 0.930 . S
C243 C236 1.409 . S
C243 C242 1.362 . S
H244 C250 0.930 . S
H245 C253 0.930 . S
H246 C254 0.930 . S
H247 C255 0.930 . S
H248 C258 0.930 . S
H249 C259 0.930 1_556 S
C250 H244 0.930 . S
C250 C251 1.355 . S
C250 C252 1.415 . S
C251 C250 1.355 . S
C251 C253 1.419 . S
C252 C250 1.415 . S
C252 C257 1.425 . S
C252 C259 1.409 . S
C253 H245 0.930 . S
C253 C251 1.419 . S
C253 C254 1.362 . S
C254 H246 0.930 . S
C254 C253 1.362 . S
C254 C257 1.409 . S
C255 H247 0.930 . S
C255 C256 1.355 . S
C255 C257 1.415 . S
C256 C255 1.355 . S
C256 C258 1.419 . S
C257 C252 1.425 . S
C257 C254 1.409 . S
C257 C255 1.415 . S
C258 H248 0.930 . S
C258 C256 1.419 . S
C258 C259 1.362 . S
C259 H249 0.930 1_554 S
C259 C252 1.409 . S
C259 C258 1.362 . S
H260 C266 0.930 . S
H261 C269 0.930 . S
H262 C270 0.930 . S
H263 C271 0.930 . S
H264 C274 0.930 . S
H265 C275 0.930 . S
C266 H260 0.930 . S
C266 C267 1.355 . S
C266 C268 1.415 . S
C267 C266 1.355 . S
C267 C269 1.419 . S
C268 C266 1.415 . S
C268 C273 1.425 . S
C268 C275 1.409 . S
C269 H261 0.930 . S
C269 C267 1.419 . S
C269 C270 1.362 . S
C270 H262 0.930 . S
C270 C269 1.362 . S
C270 C273 1.409 . S
C271 H263 0.930 . S
C271 C272 1.355 . S
C271 C273 1.415 . S
C272 C271 1.355 . S
C272 C274 1.419 . S
C273 C268 1.425 . S
C273 C270 1.409 . S
C273 C271 1.415 . S
C274 H264 0.930 . S
C274 C272 1.419 . S
C274 C275 1.362 . S
C275 H265 0.930 . S
C275 C268 1.409 . S
C275 C274 1.362 . S
H276 C282 0.930 . S
H277 C285 0.930 . S
H278 C286 0.930 1_556 S
H279 C287 0.930 1_556 S
H280 C290 0.930 . S
H281 C291 0.930 . S
C282 H276 0.930 . S
C282 C283 1.355 . S
C282 C284 1.415 . S
C283 C282 1.355 . S
C283 C285 1.419 . S
C284 C282 1.415 . S
C284 C289 1.425 . S
C284 C291 1.409 . S
C285 H277 0.930 . S
C285 C283 1.419 . S
C285 C286 1.362 . S
C286 H278 0.930 1_554 S
C286 C285 1.362 . S
C286 C289 1.409 . S
C287 H279 0.930 1_554 S
C287 C288 1.355 . S
C287 C289 1.415 . S
C288 C287 1.355 . S
C288 C290 1.419 . S
C289 C284 1.425 . S
C289 C286 1.409 . S
C289 C287 1.415 . S
C290 H280 0.930 . S
C290 C288 1.419 . S
C290 C291 1.362 . S
C291 H281 0.930 . S
C291 C284 1.409 . S
C291 C290 1.362 . S
C139 N14 1.480 . S
C144 N5 1.486 . S
C155 N47 1.418 . S
C160 N38 1.429 . S
C171 N71 1.476 . S
C176 N80 1.465 . S
C187 N104 1.464 . S
C192 N113 1.455 . S
C203 C94 1.040 . S
C208 C28 1.038 . S
C219 C127 1.042 . S
C224 C61 1.034 . S
C235 C41 1.507 . S
C240 C17 1.508 . S
C251 C83 1.238 . S
C256 C50 1.274 . S
C267 C116 1.529 . S
C272 C74 1.463 . S
C283 C107 1.791 . S
C288 C8 1.818 . S
