# Generated by pormake.
# Topology unv, (4)-cn, num edge types: 1
# Building blocks:
#     Node 0, Type 0, BuildingBlock: NAHDIM_clean_sbu_0, # of connection points: 4
#     Node 1, Type 0, BuildingBlock: NAHDIM_clean_sbu_0, # of connection points: 4
#     Node 2, Type 0, BuildingBlock: NAHDIM_clean_sbu_0, # of connection points: 4
#     Node 3, Type 0, BuildingBlock: NAHDIM_clean_sbu_0, # of connection points: 4
#     Node 4, Type 0, BuildingBlock: NAHDIM_clean_sbu_0, # of connection points: 4
#     Node 5, Type 0, BuildingBlock: NAHDIM_clean_sbu_0, # of connection points: 4
#     Node 6, Type 0, BuildingBlock: NAHDIM_clean_sbu_0, # of connection points: 4
#     Node 7, Type 0, BuildingBlock: NAHDIM_clean_sbu_0, # of connection points: 4
#     Node 8, Type 0, BuildingBlock: NAHDIM_clean_sbu_0, # of connection points: 4
#     Node 9, Type 0, BuildingBlock: NAHDIM_clean_sbu_0, # of connection points: 4
#     Node 10, Type 0, BuildingBlock: NAHDIM_clean_sbu_0, # of connection points: 4
#     Node 11, Type 0, BuildingBlock: NAHDIM_clean_sbu_0, # of connection points: 4
#     Node 12, Type 0, BuildingBlock: NAHDIM_clean_sbu_0, # of connection points: 4
#     Node 13, Type 0, BuildingBlock: NAHDIM_clean_sbu_0, # of connection points: 4
#     Node 14, Type 0, BuildingBlock: NAHDIM_clean_sbu_0, # of connection points: 4
#     Node 15, Type 0, BuildingBlock: NAHDIM_clean_sbu_0, # of connection points: 4
#     Node 16, Type 0, BuildingBlock: NAHDIM_clean_sbu_0, # of connection points: 4
#     Node 17, Type 0, BuildingBlock: NAHDIM_clean_sbu_0, # of connection points: 4
#     Node 18, Type 0, BuildingBlock: NAHDIM_clean_sbu_0, # of connection points: 4
#     Node 19, Type 0, BuildingBlock: NAHDIM_clean_sbu_0, # of connection points: 4
#     Node 20, Type 0, BuildingBlock: NAHDIM_clean_sbu_0, # of connection points: 4
#     Node 21, Type 0, BuildingBlock: NAHDIM_clean_sbu_0, # of connection points: 4
#     Node 22, Type 0, BuildingBlock: NAHDIM_clean_sbu_0, # of connection points: 4
#     Node 23, Type 0, BuildingBlock: NAHDIM_clean_sbu_0, # of connection points: 4
#     Edge 24, Type (0, 0), BuildingBlock: EZIPEK_clean_linker_0, # of connection points: 2
#     Edge 25, Type (0, 0), BuildingBlock: EZIPEK_clean_linker_0, # of connection points: 2
#     Edge 26, Type (0, 0), BuildingBlock: EZIPEK_clean_linker_0, # of connection points: 2
#     Edge 27, Type (0, 0), BuildingBlock: EZIPEK_clean_linker_0, # of connection points: 2
#     Edge 28, Type (0, 0), BuildingBlock: EZIPEK_clean_linker_0, # of connection points: 2
#     Edge 29, Type (0, 0), BuildingBlock: EZIPEK_clean_linker_0, # of connection points: 2
#     Edge 30, Type (0, 0), BuildingBlock: EZIPEK_clean_linker_0, # of connection points: 2
#     Edge 31, Type (0, 0), BuildingBlock: EZIPEK_clean_linker_0, # of connection points: 2
#     Edge 32, Type (0, 0), BuildingBlock: EZIPEK_clean_linker_0, # of connection points: 2
#     Edge 33, Type (0, 0), BuildingBlock: EZIPEK_clean_linker_0, # of connection points: 2
#     Edge 34, Type (0, 0), BuildingBlock: EZIPEK_clean_linker_0, # of connection points: 2
#     Edge 35, Type (0, 0), BuildingBlock: EZIPEK_clean_linker_0, # of connection points: 2
#     Edge 36, Type (0, 0), BuildingBlock: EZIPEK_clean_linker_0, # of connection points: 2
#     Edge 37, Type (0, 0), BuildingBlock: EZIPEK_clean_linker_0, # of connection points: 2
#     Edge 38, Type (0, 0), BuildingBlock: EZIPEK_clean_linker_0, # of connection points: 2
#     Edge 39, Type (0, 0), BuildingBlock: EZIPEK_clean_linker_0, # of connection points: 2
#     Edge 40, Type (0, 0), BuildingBlock: EZIPEK_clean_linker_0, # of connection points: 2
#     Edge 41, Type (0, 0), BuildingBlock: EZIPEK_clean_linker_0, # of connection points: 2
#     Edge 42, Type (0, 0), BuildingBlock: EZIPEK_clean_linker_0, # of connection points: 2
#     Edge 43, Type (0, 0), BuildingBlock: EZIPEK_clean_linker_0, # of connection points: 2
#     Edge 44, Type (0, 0), BuildingBlock: EZIPEK_clean_linker_0, # of connection points: 2
#     Edge 45, Type (0, 0), BuildingBlock: EZIPEK_clean_linker_0, # of connection points: 2
#     Edge 46, Type (0, 0), BuildingBlock: EZIPEK_clean_linker_0, # of connection points: 2
#     Edge 47, Type (0, 0), BuildingBlock: EZIPEK_clean_linker_0, # of connection points: 2
#     Edge 48, Type (0, 0), BuildingBlock: EZIPEK_clean_linker_0, # of connection points: 2
#     Edge 49, Type (0, 0), BuildingBlock: EZIPEK_clean_linker_0, # of connection points: 2
#     Edge 50, Type (0, 0), BuildingBlock: EZIPEK_clean_linker_0, # of connection points: 2
#     Edge 51, Type (0, 0), BuildingBlock: EZIPEK_clean_linker_0, # of connection points: 2
#     Edge 52, Type (0, 0), BuildingBlock: EZIPEK_clean_linker_0, # of connection points: 2
#     Edge 53, Type (0, 0), BuildingBlock: EZIPEK_clean_linker_0, # of connection points: 2
#     Edge 54, Type (0, 0), BuildingBlock: EZIPEK_clean_linker_0, # of connection points: 2
#     Edge 55, Type (0, 0), BuildingBlock: EZIPEK_clean_linker_0, # of connection points: 2
#     Edge 56, Type (0, 0), BuildingBlock: EZIPEK_clean_linker_0, # of connection points: 2
#     Edge 57, Type (0, 0), BuildingBlock: EZIPEK_clean_linker_0, # of connection points: 2
#     Edge 58, Type (0, 0), BuildingBlock: EZIPEK_clean_linker_0, # of connection points: 2
#     Edge 59, Type (0, 0), BuildingBlock: EZIPEK_clean_linker_0, # of connection points: 2
#     Edge 60, Type (0, 0), BuildingBlock: EZIPEK_clean_linker_0, # of connection points: 2
#     Edge 61, Type (0, 0), BuildingBlock: EZIPEK_clean_linker_0, # of connection points: 2
#     Edge 62, Type (0, 0), BuildingBlock: EZIPEK_clean_linker_0, # of connection points: 2
#     Edge 63, Type (0, 0), BuildingBlock: EZIPEK_clean_linker_0, # of connection points: 2
#     Edge 64, Type (0, 0), BuildingBlock: EZIPEK_clean_linker_0, # of connection points: 2
#     Edge 65, Type (0, 0), BuildingBlock: EZIPEK_clean_linker_0, # of connection points: 2
#     Edge 66, Type (0, 0), BuildingBlock: EZIPEK_clean_linker_0, # of connection points: 2
#     Edge 67, Type (0, 0), BuildingBlock: EZIPEK_clean_linker_0, # of connection points: 2
#     Edge 68, Type (0, 0), BuildingBlock: EZIPEK_clean_linker_0, # of connection points: 2
#     Edge 69, Type (0, 0), BuildingBlock: EZIPEK_clean_linker_0, # of connection points: 2
#     Edge 70, Type (0, 0), BuildingBlock: EZIPEK_clean_linker_0, # of connection points: 2
#     Edge 71, Type (0, 0), BuildingBlock: EZIPEK_clean_linker_0, # of connection points: 2
# Relax obj value: 0.364
# Max RMSD: 0.322
# Mean RMSD: 0.307
data_MOF--net-unv--node1-NAHDIM_clean_sbu_0--edge1-EZIPEK_clean_linker_0
_symmetry_space_group_name_H-M    P1
_symmetry_Int_Tables_number       1
_symmetry_cell_setting            triclinic
loop_
_symmetry_equiv_pos_as_xyz
'x, y, z'
_cell_length_a     35.417278
_cell_length_b     35.344072
_cell_length_c     35.330248
_cell_angle_alpha  90.006756
_cell_angle_beta   90.019452
_cell_angle_gamma 90.034389
loop_
_atom_site_label
_atom_site_type_symbol
_atom_site_fract_x
_atom_site_fract_y
_atom_site_fract_z
_atom_type_partial_charge
C0 C 0.0245 0.17946 0.34142 0.0
O1 O 0.06002 0.17427 0.35073 0.0
O2 O 0.0503 0.07431 0.3024 0.0
Zn3 Zn 0.02277 0.09864 0.34618 0.0
O4 O 0.05674 0.09766 0.39147 0.0
C5 C 0.95914 0.04643 0.3364 0.0
O6 O 0.96172 0.05393 0.3001 0.0
O7 O 0.00317 0.15103 0.33626 0.0
C8 C 0.04286 0.0965 0.42456 0.0
O9 O 0.00653 0.10213 0.42932 0.0
C10 C 0.08407 0.06252 0.30592 0.0
O11 O 0.10344 0.07059 0.33656 0.0
O12 O 0.98065 0.06318 0.35976 0.0
C13 C 0.96783 0.33268 0.34702 0.0
O14 O 0.95727 0.35229 0.31728 0.0
O15 O 0.9367 0.42892 0.34244 0.0
Zn16 Zn 0.95018 0.40109 0.38997 0.0
O17 O 0.90712 0.40178 0.42787 0.0
C18 C 0.02381 0.43363 0.3884 0.0
O19 O 0.02656 0.41302 0.35757 0.0
O20 O 0.96659 0.34757 0.37974 0.0
C21 C 0.91074 0.42115 0.45796 0.0
O22 O 0.94234 0.43951 0.46422 0.0
C23 C 0.92175 0.46147 0.34532 0.0
O24 O 0.90918 0.47295 0.37835 0.0
O25 O 0.99452 0.43102 0.40896 0.0
C26 C 0.05006 0.81997 0.1998 0.0
O27 O 0.06212 0.83654 0.23082 0.0
O28 O 0.08799 0.91978 0.20102 0.0
Zn29 Zn 0.05758 0.89395 0.16053 0.0
O30 O 0.08382 0.90029 0.11054 0.0
C31 C 0.98399 0.91331 0.13261 0.0
O32 O 0.98954 0.88215 0.11322 0.0
O33 O 0.04676 0.83881 0.16939 0.0
C34 C 0.08292 0.87628 0.08382 0.0
O35 O 0.0663 0.84343 0.08874 0.0
C36 C 0.09893 0.95301 0.19247 0.0
O37 O 0.08982 0.9659 0.1588 0.0
O38 O 0.00934 0.92318 0.15603 0.0
C39 C 0.00659 0.66335 0.1821 0.0
O40 O 0.97013 0.65653 0.18104 0.0
O41 O 0.98758 0.56085 0.21222 0.0
Zn42 Zn 0.011 0.58363 0.16583 0.0
O43 O 0.97362 0.58176 0.12288 0.0
C44 C 0.04458 0.51781 0.13724 0.0
O45 O 0.00867 0.50857 0.13587 0.0
O46 O 0.02967 0.6364 0.17664 0.0
C47 C 0.9766 0.60007 0.09211 0.0
O48 O 0.0035 0.62531 0.08811 0.0
C49 C 0.95246 0.55425 0.21535 0.0
O50 O 0.92911 0.56461 0.18839 0.0
O51 O 0.05406 0.54987 0.15052 0.0
C52 C 0.29855 0.05398 0.15839 0.0
O53 O 0.29829 0.09005 0.14943 0.0
O54 O 0.28131 0.07014 0.05001 0.0
Zn55 Zn 0.3225 0.0469 0.08123 0.0
O56 O 0.36727 0.08148 0.08522 0.0
C57 C 0.31646 0.97726 0.0389 0.0
O58 O 0.28251 0.97581 0.05379 0.0
O59 O 0.30644 0.02959 0.13321 0.0
C60 C 0.39579 0.07027 0.10386 0.0
O61 O 0.39411 0.03806 0.12234 0.0
C62 C 0.29099 0.09096 0.02231 0.0
O63 O 0.32591 0.10328 0.01999 0.0
O64 O 0.3392 0.00315 0.04906 0.0
C65 C 0.69258 0.49101 0.17727 0.0
O66 O 0.71016 0.46152 0.16314 0.0
O67 O 0.69101 0.45294 0.08503 0.0
Zn68 Zn 0.65262 0.48831 0.10671 0.0
O69 O 0.60389 0.46001 0.11185 0.0
C70 C 0.66958 0.54009 0.04512 0.0
O71 O 0.7046 0.52893 0.05007 0.0
O72 O 0.66815 0.50838 0.1575 0.0
C73 C 0.58394 0.45509 0.14132 0.0
O74 O 0.59504 0.46835 0.17421 0.0
C75 C 0.68157 0.4337 0.05614 0.0
O76 O 0.64724 0.43829 0.04285 0.0
O77 O 0.6439 0.5289 0.06764 0.0
C78 C 0.30035 0.00114 0.31309 0.0
O79 O 0.27363 0.00673 0.33824 0.0
O80 O 0.30385 0.94418 0.40453 0.0
Zn81 Zn 0.34461 0.97255 0.37676 0.0
O82 O 0.39335 0.94361 0.37906 0.0
C83 C 0.33274 0.03313 0.43167 0.0
O84 O 0.29927 0.01757 0.43522 0.0
O85 O 0.33155 0.98651 0.32317 0.0
C86 C 0.42369 0.96221 0.37435 0.0
O87 O 0.42195 0.99766 0.3633 0.0
C88 C 0.31345 0.92592 0.43404 0.0
O89 O 0.34942 0.92187 0.44214 0.0
O90 O 0.35516 0.01944 0.40716 0.0
C91 C 0.68909 0.5354 0.33351 0.0
O92 O 0.71541 0.55167 0.35405 0.0
O93 O 0.68164 0.56286 0.43311 0.0
Zn94 Zn 0.64028 0.54328 0.39974 0.0
O95 O 0.59797 0.58048 0.39811 0.0
C96 C 0.64066 0.47054 0.43824 0.0
O97 O 0.67572 0.46779 0.42648 0.0
O98 O 0.65669 0.52907 0.34752 0.0
C99 C 0.56504 0.56878 0.39012 0.0
O100 O 0.56037 0.53399 0.37795 0.0
C101 C 0.6741 0.58702 0.45866 0.0
O102 O 0.64077 0.60321 0.45962 0.0
O103 O 0.62043 0.49833 0.42791 0.0
C104 C 0.18636 0.31914 0.02036 0.0
O105 O 0.17849 0.3139 0.05631 0.0
O106 O 0.08253 0.28497 0.03355 0.0
Zn107 Zn 0.10772 0.33377 0.01858 0.0
O108 O 0.11101 0.36925 0.06311 0.0
C109 C 0.04507 0.3451 0.96637 0.0
O110 O 0.03829 0.30895 0.97152 0.0
O111 O 0.15978 0.32623 0.99728 0.0
C112 C 0.11906 0.40357 0.05609 0.0
O113 O 0.12406 0.41304 0.02048 0.0
C114 C 0.05982 0.28423 0.06139 0.0
O115 O 0.05592 0.3144 0.08275 0.0
O116 O 0.07402 0.36025 0.98129 0.0
C117 C 0.161 0.67283 0.44719 0.0
O118 O 0.15328 0.68018 0.41158 0.0
O119 O 0.05663 0.68188 0.42163 0.0
Zn120 Zn 0.08445 0.64264 0.45202 0.0
O121 O 0.08805 0.59361 0.42335 0.0
C122 C 0.02261 0.61657 0.49361 0.0
O123 O 0.01273 0.60627 0.4593 0.0
O124 O 0.13594 0.65851 0.46845 0.0
C125 C 0.0994 0.56382 0.43997 0.0
O126 O 0.10771 0.56637 0.47609 0.0
C127 C 0.03769 0.67328 0.39227 0.0
O128 O 0.03951 0.63887 0.37837 0.0
O129 O 0.05368 0.63367 0.49861 0.0
C130 C 0.80968 0.83005 0.42771 0.0
O131 O 0.81234 0.83142 0.39066 0.0
O132 O 0.9077 0.79127 0.39451 0.0
Zn133 Zn 0.89073 0.83695 0.42374 0.0
O134 O 0.89337 0.88247 0.38967 0.0
C135 C 0.94995 0.8202 0.47871 0.0
O136 O 0.94149 0.78451 0.47272 0.0
O137 O 0.83941 0.83137 0.44776 0.0
C138 C 0.88963 0.91535 0.4037 0.0
O139 O 0.87956 0.919 0.43928 0.0
C140 C 0.93908 0.7954 0.37747 0.0
O141 O 0.95581 0.82845 0.38034 0.0
O142 O 0.9305 0.84615 0.46325 0.0
C143 C 0.31182 0.67708 0.50897 0.0
O144 O 0.32188 0.70049 0.53603 0.0
O145 O 0.41136 0.6921 0.53554 0.0
Zn146 Zn 0.38612 0.64388 0.51927 0.0
O147 O 0.38601 0.60461 0.56059 0.0
C148 C 0.43542 0.64295 0.45383 0.0
O149 O 0.42679 0.67892 0.45052 0.0
O150 O 0.33459 0.65172 0.49777 0.0
C151 C 0.38514 0.57036 0.54955 0.0
O152 O 0.37908 0.56302 0.51361 0.0
C153 C 0.42976 0.69585 0.5662 0.0
O154 O 0.42834 0.66919 0.59205 0.0
O155 O 0.42003 0.62307 0.47944 0.0
C156 C 0.53515 0.68519 0.86631 0.0
O157 O 0.56206 0.67981 0.89128 0.0
O158 O 0.55549 0.57849 0.80366 0.0
Zn159 Zn 0.54545 0.60512 0.85301 0.0
O160 O 0.59246 0.60419 0.88609 0.0
C161 C 0.47071 0.5744 0.87754 0.0
O162 O 0.45402 0.60249 0.85988 0.0
O163 O 0.52407 0.65775 0.84588 0.0
C164 C 0.58748 0.59863 0.92129 0.0
O165 O 0.55294 0.59821 0.93466 0.0
C166 C 0.56481 0.54385 0.80661 0.0
O167 O 0.56956 0.52909 0.84038 0.0
O168 O 0.50653 0.57232 0.87836 0.0
C169 C 0.46035 0.83064 0.86638 0.0
O170 O 0.42477 0.83361 0.87642 0.0
O171 O 0.43815 0.93698 0.82352 0.0
Zn172 Zn 0.45759 0.91194 0.8709 0.0
O173 O 0.41916 0.90911 0.9131 0.0
C174 C 0.48697 0.98003 0.89611 0.0
O175 O 0.45102 0.98814 0.89184 0.0
O176 O 0.47988 0.86035 0.86114 0.0
C177 C 0.38355 0.91187 0.90978 0.0
O178 O 0.36977 0.91922 0.87609 0.0
C179 C 0.42185 0.92208 0.79523 0.0
O180 O 0.41354 0.88585 0.79544 0.0
O181 O 0.49843 0.94678 0.88887 0.0
C182 C 0.50466 0.31785 0.65472 0.0
O183 O 0.52983 0.32807 0.68003 0.0
O184 O 0.53602 0.41313 0.67607 0.0
Zn185 Zn 0.51554 0.39421 0.62634 0.0
O186 O 0.55722 0.39517 0.58708 0.0
C187 C 0.44423 0.43997 0.6255 0.0
O188 O 0.43166 0.41964 0.65394 0.0
O189 O 0.49374 0.34146 0.62986 0.0
C190 C 0.54997 0.40899 0.55465 0.0
O191 O 0.51519 0.41897 0.54659 0.0
C192 C 0.5459 0.44774 0.67581 0.0
O193 O 0.54612 0.46627 0.6436 0.0
O194 O 0.47626 0.43287 0.61095 0.0
C195 C 0.45357 0.16224 0.64781 0.0
O196 O 0.41737 0.15441 0.6497 0.0
O197 O 0.44211 0.05329 0.67265 0.0
Zn198 Zn 0.45991 0.08318 0.62726 0.0
O199 O 0.41995 0.08657 0.58638 0.0
C200 C 0.53195 0.04558 0.62867 0.0
O201 O 0.53317 0.05878 0.6634 0.0
O202 O 0.477 0.13609 0.64022 0.0
C203 C 0.42043 0.06338 0.55889 0.0
O204 O 0.44638 0.03689 0.55767 0.0
C205 C 0.42115 0.02439 0.66812 0.0
O206 O 0.40722 0.01686 0.63452 0.0
O207 O 0.50433 0.05395 0.60731 0.0
C208 C 0.81099 0.51063 0.69192 0.0
O209 O 0.78123 0.50186 0.67155 0.0
O210 O 0.79037 0.56776 0.6044 0.0
Zn211 Zn 0.83841 0.54353 0.62238 0.0
O212 O 0.88147 0.57902 0.61041 0.0
C213 C 0.82306 0.47283 0.57833 0.0
O214 O 0.78808 0.47289 0.59059 0.0
O215 O 0.83809 0.5289 0.67709 0.0
C216 C 0.91122 0.56431 0.59675 0.0
O217 O 0.91509 0.52737 0.5974 0.0
C218 C 0.78905 0.56977 0.5685 0.0
O219 O 0.81849 0.55897 0.54869 0.0
O220 O 0.84647 0.49742 0.58995 0.0
C221 C 0.16344 0.9446 0.65197 0.0
O222 O 0.18907 0.9216 0.63819 0.0
O223 O 0.17833 0.93214 0.55004 0.0
Zn224 Zn 0.12924 0.94073 0.57708 0.0
O225 O 0.0934 0.89679 0.57156 0.0
C226 C 0.12093 0.01434 0.54137 0.0
O227 O 0.15534 0.02089 0.5536 0.0
O228 O 0.13619 0.95549 0.63133 0.0
C229 C 0.08233 0.89066 0.53789 0.0
O230 O 0.09792 0.90946 0.50991 0.0
C231 C 0.19129 0.90076 0.53836 0.0
O232 O 0.17388 0.86904 0.54675 0.0
O233 O 0.1046 0.9834 0.54948 0.0
C234 C 0.83697 0.46597 0.84655 0.0
O235 O 0.83877 0.4308 0.85837 0.0
O236 O 0.81022 0.46541 0.95229 0.0
Zn237 Zn 0.85595 0.4829 0.92386 0.0
O238 O 0.89633 0.4433 0.92955 0.0
C239 C 0.88426 0.52544 0.98376 0.0
O240 O 0.87621 0.49312 0.00023 0.0
O241 O 0.84332 0.49292 0.86945 0.0
C242 C 0.9266 0.44236 0.91031 0.0
O243 O 0.93212 0.46714 0.88319 0.0
C244 C 0.80182 0.43059 0.95507 0.0
O245 O 0.82271 0.4049 0.93831 0.0
O246 O 0.8761 0.52988 0.94904 0.0
C247 C 0.16039 -0.00048 0.80578 0.0
O248 O 0.16308 0.03605 0.81198 0.0
O249 O 0.17912 0.02809 0.9074 0.0
Zn250 Zn 0.13784 0.99669 0.88408 0.0
O251 O 0.08867 0.02546 0.88035 0.0
C252 C 0.13053 0.95736 0.95384 0.0
O253 O 0.1402 0.99078 0.96683 0.0
O254 O 0.1515 0.97744 0.83266 0.0
C255 C 0.07733 0.04621 0.90739 0.0
O256 O 0.09853 0.05069 0.93749 0.0
C257 C 0.18353 0.06374 0.9063 0.0
O258 O 0.16143 0.08479 0.88519 0.0
O259 O 0.12916 0.95195 0.91833 0.0
C260 C 0.66631 0.84637 0.50432 0.0
O261 O 0.66673 0.85019 0.54129 0.0
O262 O 0.55885 0.81707 0.53184 0.0
Zn263 Zn 0.58681 0.86296 0.51328 0.0
O264 O 0.59582 0.89922 0.5562 0.0
C265 C 0.5554 0.8953 0.44277 0.0
O266 O 0.587 0.88546 0.42601 0.0
O267 O 0.63538 0.84972 0.48639 0.0
C268 C 0.60804 0.9322 0.54877 0.0
O269 O 0.61553 0.94008 0.51325 0.0
C270 C 0.53242 0.82182 0.55574 0.0
O271 O 0.52693 0.85547 0.57054 0.0
O272 O 0.55079 0.88893 0.47784 0.0
C273 C 0.67491 0.1719 0.00504 0.0
O274 O 0.66478 0.1838 0.97132 0.0
O275 O 0.57626 0.20788 0.99404 0.0
Zn276 Zn 0.59591 0.15768 0.01201 0.0
O277 O 0.59134 0.11717 0.97177 0.0
C278 C 0.52857 0.14862 0.05577 0.0
O279 O 0.51654 0.17534 0.03295 0.0
O280 O 0.64995 0.16061 0.02823 0.0
C281 C 0.55835 0.1081 0.96095 0.0
O282 O 0.52942 0.12835 0.97206 0.0
C283 C 0.56961 0.21679 0.95987 0.0
O284 O 0.57894 0.1937 0.9323 0.0
O285 O 0.56326 0.13947 0.05525 0.0
C286 C 0.34545 0.33489 0.99188 0.0
O287 O 0.36787 0.31306 0.9719 0.0
O288 O 0.44739 0.34207 0.98383 0.0
Zn289 Zn 0.41249 0.38122 0.00751 0.0
O290 O 0.41583 0.4322 0.98181 0.0
C291 C 0.46526 0.3988 0.06168 0.0
O292 O 0.48316 0.40302 0.02957 0.0
O293 O 0.3585 0.36408 0.0083 0.0
C294 C 0.41696 0.43752 0.94626 0.0
O295 O 0.41335 0.40842 0.92339 0.0
C296 C 0.47614 0.34847 0.96311 0.0
O297 O 0.48357 0.38297 0.95154 0.0
O298 O 0.43098 0.38837 0.06121 0.0
C299 C 0.83336 0.14966 0.03652 0.0
O300 O 0.85154 0.16728 0.06371 0.0
O301 O 0.93564 0.15468 0.04148 0.0
Zn302 Zn 0.90402 0.1099 0.02577 0.0
O303 O 0.90604 0.06699 0.06342 0.0
C304 C 0.94285 0.1125 0.95405 0.0
O305 O 0.9433 0.14883 0.96185 0.0
O306 O 0.85014 0.12471 0.01689 0.0
C307 C 0.9342 0.04479 0.06169 0.0
O308 O 0.96119 0.05145 0.03711 0.0
C309 C 0.96073 0.15462 0.06719 0.0
O310 O 0.96519 0.1247 0.08872 0.0
O311 O 0.92636 0.09056 0.97726 0.0
C312 C 0.09211 0.07523 0.51808 0.0
C313 C 0.10465 0.03779 0.51092 0.0
C314 C 0.07471 0.03858 0.44875 0.0
C315 C 0.06443 0.07696 0.45446 0.0
N316 N 0.0674 0.13383 0.4919 0.0
N317 N 0.11733 0.98813 0.46578 0.0
C318 C 0.07435 0.09597 0.4884 0.0
C319 C 0.09886 0.02081 0.47509 0.0
N320 N 0.09594 0.09032 0.55348 0.0
N321 N 0.05977 0.01834 0.41933 0.0
H322 H 0.13644 0.97488 0.48393 0.0
H323 H 0.11686 0.97656 0.43865 0.0
H324 H 0.04078 0.02968 0.39986 0.0
H325 H 0.06316 0.98918 0.41653 0.0
H326 H 0.08378 0.11585 0.56168 0.0
H327 H 0.10941 0.07606 0.57552 0.0
H328 H 0.07724 0.15019 0.51434 0.0
H329 H 0.05401 0.14954 0.47079 0.0
C330 C 0.84672 0.44259 0.47925 0.0
C331 C 0.88056 0.42265 0.48692 0.0
C332 C 0.86548 0.42223 0.55473 0.0
C333 C 0.83543 0.4476 0.54742 0.0
N334 N 0.79341 0.47702 0.50164 0.0
N335 N 0.91961 0.38755 0.53012 0.0
C336 C 0.82428 0.45549 0.50966 0.0
C337 C 0.88881 0.41011 0.5242 0.0
N338 N 0.83673 0.4513 0.44294 0.0
N339 N 0.87156 0.41037 0.59107 0.0
H340 H 0.9356 0.37662 0.50783 0.0
H341 H 0.92951 0.37941 0.55658 0.0
H342 H 0.85394 0.41845 0.61334 0.0
H343 H 0.89222 0.39113 0.59913 0.0
H344 H 0.81245 0.46674 0.43645 0.0
H345 H 0.85201 0.44229 0.41944 0.0
H346 H 0.77508 0.48794 0.52197 0.0
H347 H 0.77508 0.48794 0.52197 0.0
C348 C 0.13567 0.89565 0.04129 0.0
C349 C 0.09673 0.88784 0.0461 0.0
C350 C 0.08342 0.91294 0.98283 0.0
C351 C 0.12093 0.92704 0.98114 0.0
N352 N 0.18412 0.92945 0.00627 0.0
N353 N 0.03274 0.88997 0.02259 0.0
C354 C 0.1476 0.91728 0.00952 0.0
C355 C 0.07047 0.89595 0.01686 0.0
N356 N 0.16105 0.88195 0.06704 0.0
N357 N 0.05999 0.9161 0.95225 0.0
H358 H 0.02198 0.87659 0.04651 0.0
H359 H 0.01173 0.90045 0.00483 0.0
H360 H 0.06796 0.92871 0.92691 0.0
H361 H 0.03374 0.90293 0.95056 0.0
H362 H 0.19019 0.88391 0.06397 0.0
H363 H 0.15286 0.8657 0.09031 0.0
H364 H 0.20405 0.92757 0.02783 0.0
H365 H 0.19437 0.94252 0.98185 0.0
C366 C 0.91231 0.58983 0.06475 0.0
C367 C 0.95205 0.58942 0.05985 0.0
C368 C 0.94396 0.56092 0.99709 0.0
C369 C 0.90535 0.55442 0.00546 0.0
N370 N 0.85168 0.56367 0.04621 0.0
N371 N 0.0064 0.57065 0.02281 0.0
C372 C 0.88912 0.56955 0.03888 0.0
C373 C 0.96813 0.57466 0.02608 0.0
N374 N 0.89689 0.61002 0.0939 0.0
N375 N 0.95784 0.5533 0.96183 0.0
H376 H 0.02546 0.57936 0.04348 0.0
H377 H 0.01921 0.55553 0.00101 0.0
H378 H 0.94135 0.54254 0.93993 0.0
H379 H 0.98488 0.56108 0.95322 0.0
H380 H 0.868 0.6142 0.09727 0.0
H381 H 0.91328 0.62562 0.11287 0.0
H382 H 0.83903 0.56968 0.07212 0.0
H383 H 0.83344 0.55129 0.02656 0.0
C384 C 0.44007 0.12516 0.11146 0.0
C385 C 0.4327 0.08847 0.09705 0.0
C386 C 0.49513 0.08693 0.06732 0.0
C387 C 0.50017 0.12578 0.07664 0.0
N388 N 0.4789 0.18181 0.10899 0.0
N389 N 0.45051 0.0362 0.0568 0.0
C390 C 0.47313 0.14476 0.09947 0.0
C391 C 0.45969 0.06958 0.07423 0.0
N392 N 0.41558 0.141 0.13682 0.0
N393 N 0.5238 0.06637 0.05162 0.0
H394 H 0.42475 0.02243 0.06054 0.0
H395 H 0.46699 0.02381 0.03576 0.0
H396 H 0.55029 0.07727 0.04545 0.0
H397 H 0.52272 0.0371 0.04833 0.0
H398 H 0.42086 0.16605 0.15136 0.0
H399 H 0.39072 0.12768 0.1453 0.0
H400 H 0.45848 0.19899 0.12135 0.0
H401 H 0.50423 0.19586 0.10344 0.0
C402 C 0.54874 0.3967 0.1257 0.0
C403 C 0.54766 0.43503 0.13706 0.0
C404 C 0.48192 0.43979 0.11629 0.0
C405 C 0.48654 0.40506 0.09698 0.0
N406 N 0.52071 0.34724 0.08701 0.0
N407 N 0.51275 0.4924 0.14807 0.0
C408 C 0.51855 0.38205 0.10372 0.0
C409 C 0.51364 0.45606 0.13492 0.0
N410 N 0.57919 0.375 0.13531 0.0
N411 N 0.44772 0.45758 0.11539 0.0
H412 H 0.53524 0.50448 0.16282 0.0
H413 H 0.49042 0.51097 0.14359 0.0
H414 H 0.42442 0.44594 0.10159 0.0
H415 H 0.44146 0.48189 0.13077 0.0
H416 H 0.58119 0.34614 0.12992 0.0
H417 H 0.60134 0.38567 0.15167 0.0
H418 H 0.54486 0.33049 0.08686 0.0
H419 H 0.49796 0.33548 0.0723 0.0
C420 C 0.51165 0.94997 0.43459 0.0
C421 C 0.52484 0.91444 0.42152 0.0
C422 C 0.47557 0.91396 0.37269 0.0
C423 C 0.45953 0.94677 0.3892 0.0
N424 N 0.45842 0.99227 0.44037 0.0
N425 N 0.51682 0.85993 0.38105 0.0
C426 C 0.47661 0.96398 0.42125 0.0
C427 C 0.50638 0.89578 0.39107 0.0
N428 N 0.53306 0.97076 0.45918 0.0
N429 N 0.46174 0.90056 0.33914 0.0
H430 H 0.539 0.84545 0.39392 0.0
H431 H 0.50161 0.84332 0.36204 0.0
H432 H 0.43909 0.91317 0.32509 0.0
H433 H 0.4747 0.87911 0.32367 0.0
H434 H 0.52659 0.99848 0.46685 0.0
H435 H 0.55942 0.9618 0.46876 0.0
H436 H 0.46767 0.00279 0.46632 0.0
H437 H 0.43212 0.00281 0.43242 0.0
C438 C 0.47102 0.62059 0.39641 0.0
C439 C 0.46985 0.62802 0.43583 0.0
C440 C 0.52958 0.59495 0.44497 0.0
C441 C 0.53235 0.58967 0.40525 0.0
N442 N 0.50899 0.60164 0.34234 0.0
N443 N 0.50241 0.63162 0.49575 0.0
C444 C 0.504 0.60375 0.38063 0.0
C445 C 0.50056 0.61813 0.45951 0.0
N446 N 0.44022 0.62836 0.37446 0.0
N447 N 0.55328 0.57611 0.46907 0.0
H448 H 0.48202 0.64959 0.50717 0.0
H449 H 0.52605 0.62832 0.51299 0.0
H450 H 0.57402 0.55732 0.45989 0.0
H451 H 0.54977 0.57598 0.49835 0.0
H452 H 0.43765 0.61988 0.34637 0.0
H453 H 0.41604 0.64141 0.38514 0.0
H454 H 0.49118 0.61466 0.32285 0.0
H455 H 0.53268 0.58911 0.33006 0.0
C456 C 0.11939 0.47212 0.07511 0.0
C457 C 0.11381 0.43383 0.08536 0.0
C458 C 0.07499 0.45384 0.13906 0.0
C459 C 0.07322 0.49075 0.12312 0.0
N460 N 0.09428 0.53565 0.07587 0.0
N461 N 0.10497 0.39197 0.13826 0.0
C462 C 0.09634 0.50043 0.09172 0.0
C463 C 0.09718 0.42558 0.12088 0.0
N464 N 0.14798 0.48141 0.05092 0.0
N465 N 0.05475 0.44572 0.17099 0.0
H466 H 0.12528 0.37336 0.12776 0.0
H467 H 0.09553 0.38471 0.16517 0.0
H468 H 0.04078 0.46645 0.18666 0.0
H469 H 0.05077 0.41845 0.18136 0.0
H470 H 0.15548 0.50919 0.04458 0.0
H471 H 0.16736 0.46129 0.04141 0.0
H472 H 0.10687 0.54247 0.05012 0.0
H473 H 0.07783 0.55743 0.08688 0.0
C474 C 0.07238 0.4612 0.43204 0.0
C475 C 0.05247 0.46283 0.39718 0.0
C476 C 0.08157 0.52421 0.38339 0.0
C477 C 0.09418 0.52605 0.42135 0.0
N478 N 0.12096 0.48903 0.47176 0.0
N479 N 0.03835 0.49575 0.33871 0.0
C480 C 0.09551 0.49228 0.44291 0.0
C481 C 0.05788 0.49383 0.37206 0.0
N482 N 0.06837 0.43042 0.4551 0.0
N483 N 0.09391 0.55051 0.35792 0.0
H484 H 0.02008 0.47464 0.32933 0.0
H485 H 0.03785 0.51974 0.32161 0.0
H486 H 0.1142 0.57073 0.36507 0.0
H487 H 0.0882 0.54921 0.32903 0.0
H488 H 0.0781 0.42954 0.4829 0.0
H489 H 0.05378 0.40611 0.44687 0.0
H490 H 0.12515 0.46432 0.48721 0.0
H491 H 0.14171 0.50944 0.47656 0.0
C492 C 0.94613 0.9494 0.37863 0.0
C493 C 0.90639 0.94808 0.38375 0.0
C494 C 0.90042 0.01152 0.35607 0.0
C495 C 0.93985 0.01167 0.3492 0.0
N496 N -0.00119 0.97777 0.34553 0.0
N497 N 0.8448 0.97483 0.37289 0.0
C498 C 0.96223 0.97959 0.35781 0.0
C499 C 0.88319 0.97829 0.37112 0.0
N500 N 0.96882 0.92301 0.39555 0.0
N501 N 0.8798 0.04348 0.34931 0.0
H502 H 0.83151 0.95097 0.38405 0.0
H503 H 0.82615 0.99415 0.36088 0.0
H504 H 0.8915 0.06774 0.33723 0.0
H505 H 0.85178 0.04679 0.35754 0.0
H506 H -0.00186 0.92512 0.39635 0.0
H507 H 0.95845 0.90089 0.41205 0.0
H508 H 0.01528 0.95344 0.3475 0.0
H509 H 0.01162 -0.00061 0.33004 0.0
C510 C 0.37403 0.50588 0.57711 0.0
C511 C 0.39658 0.5391 0.57508 0.0
C512 C 0.44267 0.50983 0.61745 0.0
C513 C 0.42413 0.47461 0.61323 0.0
N514 N 0.37245 0.43809 0.58807 0.0
N515 N 0.45629 0.57003 0.58856 0.0
C516 C 0.38954 0.47236 0.5932 0.0
C517 C 0.43177 0.54068 0.59437 0.0
N518 N 0.33767 0.50662 0.56419 0.0
N519 N 0.47049 0.51384 0.64389 0.0
H520 H 0.45102 0.59234 0.57007 0.0
H521 H 0.48379 0.57014 0.59906 0.0
H522 H 0.47775 0.492 0.66232 0.0
H523 H 0.48287 0.53979 0.65046 0.0
H524 H 0.31875 0.48436 0.56792 0.0
H525 H 0.32532 0.53097 0.553 0.0
H526 H 0.34956 0.43399 0.57001 0.0
H527 H 0.38267 0.41318 0.60012 0.0
C528 C 0.65901 0.54104 0.97483 0.0
C529 C 0.65834 0.56028 0.01016 0.0
C530 C 0.62093 0.61145 0.98227 0.0
C531 C 0.61919 0.59086 0.94777 0.0
N532 N 0.64662 0.5429 0.90743 0.0
N533 N 0.64795 0.61749 0.04533 0.0
C534 C 0.64184 0.5581 0.94268 0.0
C535 C 0.64233 0.59685 0.01308 0.0
N536 N 0.67357 0.50527 0.97255 0.0
N537 N 0.60117 0.64449 0.98565 0.0
H538 H 0.66387 0.60734 0.06803 0.0
H539 H 0.63966 0.64553 0.0486 0.0
H540 H 0.58795 0.65737 0.96261 0.0
H541 H 0.59709 0.65874 0.01109 0.0
H542 H 0.67005 0.48763 0.94921 0.0
H543 H 0.68728 0.49195 0.99494 0.0
H544 H 0.66586 0.52143 0.90154 0.0
H545 H 0.6345 0.55411 0.88311 0.0
C546 C 0.30743 0.95003 0.97353 0.0
C547 C 0.32777 0.95083 0.00831 0.0
C548 C 0.37582 0.90903 0.98089 0.0
C549 C 0.35952 0.9149 0.94471 0.0
N550 N 0.29988 0.91977 0.91242 0.0
N551 N 0.37914 0.92793 0.04684 0.0
C552 C 0.32211 0.92886 0.94265 0.0
C553 C 0.3611 0.92889 0.01264 0.0
N554 N 0.27563 0.97147 0.96889 0.0
N555 N 0.40343 0.88239 0.98508 0.0
H556 H 0.36757 0.93958 0.07137 0.0
H557 H 0.40608 0.91681 0.05071 0.0
H558 H 0.4112 0.86444 0.96296 0.0
H559 H 0.41502 0.87464 0.01101 0.0
H560 H 0.26259 0.97549 0.94277 0.0
H561 H 0.26384 0.98794 0.99025 0.0
H562 H 0.27137 0.92675 0.91062 0.0
H563 H 0.30841 0.90025 0.89201 0.0
C564 C 0.61269 0.43726 0.53493 0.0
C565 C 0.58002 0.41553 0.52605 0.0
C566 C 0.59364 0.4218 0.45832 0.0
C567 C 0.6253 0.44458 0.46722 0.0
N568 N 0.67211 0.46333 0.51318 0.0
N569 N 0.54701 0.37677 0.48073 0.0
C570 C 0.63743 0.44835 0.50526 0.0
C571 C 0.57302 0.40439 0.48809 0.0
N572 N 0.61859 0.45027 0.5709 0.0
N573 N 0.58271 0.41773 0.42145 0.0
H574 H 0.53245 0.36271 0.50222 0.0
H575 H 0.54274 0.36517 0.45398 0.0
H576 H 0.59865 0.42821 0.39891 0.0
H577 H 0.55722 0.40546 0.41334 0.0
H578 H 0.63932 0.47003 0.57772 0.0
H579 H 0.60121 0.44387 0.59372 0.0
H580 H 0.6842 0.46224 0.54003 0.0
H581 H 0.69046 0.47333 0.49244 0.0
C582 C 0.40929 0.07614 0.4902 0.0
C583 C 0.39426 0.06783 0.52654 0.0
C584 C 0.33168 0.05872 0.49848 0.0
C585 C 0.34882 0.05759 0.46231 0.0
N586 N 0.39702 0.08436 0.4229 0.0
N587 N 0.3406 0.05344 0.56623 0.0
C588 C 0.38564 0.07251 0.45788 0.0
C589 C 0.35506 0.06069 0.53112 0.0
N590 N 0.44642 0.08614 0.48666 0.0
N591 N 0.29328 0.05989 0.50141 0.0
H592 H 0.35655 0.05553 0.59093 0.0
H593 H 0.31337 0.04324 0.57066 0.0
H594 H 0.27602 0.06316 0.47771 0.0
H595 H 0.27903 0.06313 0.52697 0.0
H596 H 0.46049 0.08804 0.46088 0.0
H597 H 0.4637 0.0916 0.50997 0.0
H598 H 0.42272 0.09754 0.41747 0.0
H599 H 0.37859 0.08443 0.39981 0.0
C600 C 0.00632 0.58762 0.55656 0.0
C601 C 0.99616 0.61065 0.52533 0.0
C602 C 0.93029 0.61111 0.54594 0.0
C603 C 0.9402 0.58722 0.57687 0.0
N604 N 0.98867 0.56371 0.6184 0.0
N605 N 0.95216 0.65445 0.49748 0.0
C606 C 0.97869 0.57923 0.58442 0.0
C607 C 0.95929 0.62575 0.52245 0.0
N608 N 0.04149 0.57186 0.55852 0.0
N609 N 0.89336 0.6179 0.53714 0.0
H610 H 0.97306 0.66618 0.48027 0.0
H611 H 0.92672 0.66921 0.49668 0.0
H612 H 0.87084 0.60933 0.5538 0.0
H613 H 0.88483 0.63039 0.51183 0.0
H614 H 0.04887 0.55125 0.57825 0.0
H615 H 0.06262 0.57727 0.53875 0.0
H616 H 0.01659 0.56019 0.62699 0.0
H617 H 0.96892 0.55814 0.63962 0.0
C618 C 0.02066 0.82084 0.48611 0.0
C619 C 0.98435 0.83099 0.49994 0.0
C620 C 0.0129 0.87673 0.54345 0.0
C621 C 0.04922 0.86635 0.5299 0.0
N622 N 0.08836 0.82187 0.49652 0.0
N623 N 0.94662 0.86018 0.54845 0.0
C624 C 0.05326 0.83609 0.50394 0.0
C625 C 0.98079 0.85613 0.53094 0.0
N626 N 0.02412 0.79881 0.45448 0.0
N627 N 0.00859 0.90783 0.56607 0.0
H628 H 0.92268 0.84515 0.54 0.0
H629 H 0.94296 0.87532 0.57348 0.0
H630 H 0.0311 0.92415 0.57577 0.0
H631 H 0.98237 0.91929 0.57288 0.0
H632 H 0.04966 0.79444 0.44053 0.0
H633 H 0.0012 0.78703 0.44028 0.0
H634 H 0.09295 0.79755 0.48052 0.0
H635 H 0.11264 0.83225 0.50966 0.0
C636 C 0.0026 0.36593 0.91321 0.0
C637 C 0.01501 0.3698 0.95121 0.0
C638 C 0.97328 0.42416 0.95996 0.0
C639 C 0.958 0.41805 0.92335 0.0
N640 N 0.9544 0.38051 0.86653 0.0
N641 N 0.00606 0.39706 0.01337 0.0
C642 C 0.97171 0.38826 0.90022 0.0
C643 C -0.0013 0.3974 0.97534 0.0
N644 N 0.021 0.34174 0.88933 0.0
N645 N 0.96457 0.4563 0.9796 0.0
H646 H 0.02362 0.37724 0.02632 0.0
H647 H 0.99171 0.41401 0.03273 0.0
H648 H 0.94662 0.47701 0.96893 0.0
H649 H 0.9781 0.46427 0.00455 0.0
H650 H 0.01591 0.34049 0.86034 0.0
H651 H 0.04355 0.32488 0.89805 0.0
H652 H 0.96038 0.35671 0.85023 0.0
H653 H 0.93187 0.39643 0.85617 0.0
C654 C 0.03461 0.1024 0.90306 0.0
C655 C 0.03903 0.0627 0.90688 0.0
C656 C 0.97176 0.05634 0.9214 0.0
C657 C 0.96982 0.09608 0.92589 0.0
N658 N 0.9909 0.15518 0.89968 0.0
N659 N 0.01168 0.0009 0.91691 0.0
C660 C -0.00133 0.11882 0.91004 0.0
C661 C 0.0073 0.03922 0.91422 0.0
N662 N 0.06505 0.12443 0.89418 0.0
N663 N 0.93931 0.0355 0.92261 0.0
H664 H 0.03704 0.98729 0.91081 0.0
H665 H 0.99082 0.98276 0.92701 0.0
H666 H 0.91284 0.04832 0.92473 0.0
H667 H 0.93813 0.00661 0.91701 0.0
H668 H 0.06485 0.15385 0.89565 0.0
H669 H 0.09119 0.11301 0.88684 0.0
H670 H 0.01004 0.17269 0.88577 0.0
H671 H 0.96348 0.16595 0.90038 0.0
C672 C 0.58374 0.02945 0.5832 0.0
C673 C 0.56121 0.01913 0.61481 0.0
C674 C 0.5882 0.95533 0.61331 0.0
C675 C 0.60335 0.96337 0.57715 0.0
N676 N 0.63418 0.0114 0.54026 0.0
N677 N 0.54284 0.97254 0.66151 0.0
C678 C 0.60693 0.00162 0.56578 0.0
C679 C 0.56443 0.98243 0.63101 0.0
N680 N 0.58202 0.06547 0.56924 0.0
N681 N 0.5981 0.9226 0.63127 0.0
H682 H 0.52507 0.99139 0.67551 0.0
H683 H 0.54056 0.9449 0.67146 0.0
H684 H 0.61835 0.90431 0.62006 0.0
H685 H 0.59034 0.91617 0.65895 0.0
H686 H 0.59391 0.07355 0.54354 0.0
H687 H 0.56726 0.08711 0.58281 0.0
H688 H 0.64008 0.03915 0.53238 0.0
H689 H 0.65428 0.99197 0.53089 0.0
C690 C 0.53251 0.07642 0.90361 0.0
C691 C 0.55107 0.07332 0.93889 0.0
C692 C 0.53371 0.0063 0.94286 0.0
C693 C 0.51345 0.00999 0.90835 0.0
N694 N 0.50011 0.04739 0.85214 0.0
N695 N 0.58004 0.03299 0.98575 0.0
C696 C 0.51518 0.0443 0.88751 0.0
C697 C 0.55543 0.03741 0.95632 0.0
N698 N 0.53148 0.11028 0.88502 0.0
N699 N 0.52983 0.97438 0.9644 0.0
H700 H 0.59634 0.05503 0.99651 0.0
H701 H 0.58711 0.00674 0.99711 0.0
H702 H 0.51392 0.95102 0.95601 0.0
H703 H 0.53985 0.97214 0.99201 0.0
H704 H 0.5174 0.11385 0.8593 0.0
H705 H 0.54536 0.13431 0.89506 0.0
H706 H 0.48789 0.02498 0.83735 0.0
H707 H 0.48789 0.02498 0.83735 0.0
C708 C 0.4227 0.5212 0.87843 0.0
C709 C 0.44888 0.54482 0.89764 0.0
C710 C 0.45388 0.49878 0.94858 0.0
C711 C 0.42608 0.47569 0.93082 0.0
N712 N 0.37573 0.47176 0.88474 0.0
N713 N 0.47685 0.56255 0.95706 0.0
C714 C 0.4078 0.48902 0.89754 0.0
C715 C 0.46002 0.53579 0.93489 0.0
N716 N 0.41339 0.52812 0.84157 0.0
N717 N 0.47693 0.48473 0.97617 0.0
H718 H 0.4801 0.59049 0.94802 0.0
H719 H 0.48316 0.55804 0.98554 0.0
H720 H 0.47719 0.45642 0.98393 0.0
H721 H 0.49944 0.50006 0.98747 0.0
H722 H 0.39791 0.50914 0.82517 0.0
H723 H 0.42342 0.55137 0.82651 0.0
H724 H 0.35967 0.4824 0.86244 0.0
H725 H 0.36285 0.44943 0.89909 0.0
C726 C 0.94177 0.00986 0.12318 0.0
C727 C 0.9348 0.00917 0.08361 0.0
C728 C 0.9393 0.94003 0.08375 0.0
C729 C 0.95537 0.94196 0.12037 0.0
N730 N 0.95312 0.97339 0.18052 0.0
N731 N 0.92295 0.9738 0.02637 0.0
C732 C 0.95056 0.97537 0.142 0.0
C733 C 0.93181 0.9742 0.06403 0.0
N734 N 0.9423 0.04358 0.14209 0.0
N735 N 0.92911 0.90582 0.06901 0.0
H736 H 0.91479 0.99804 0.01162 0.0
H737 H 0.92528 0.94981 0.00942 0.0
H738 H 0.92967 0.88113 0.08516 0.0
H739 H 0.91514 0.90263 0.04327 0.0
H740 H 0.95165 0.04669 0.16984 0.0
H741 H 0.93453 0.06903 0.12943 0.0
H742 H 0.94765 0.99594 0.19862 0.0
H743 H 0.95677 0.94759 0.19447 0.0
C744 C 0.02376 0.24581 0.31611 0.0
C745 C 0.00854 0.21817 0.34091 0.0
C746 C 0.96227 0.2642 0.36397 0.0
C747 C 0.98064 0.293 0.34294 0.0
N748 N 0.03258 0.31251 0.30314 0.0
N749 N 0.96786 0.20287 0.39369 0.0
C750 C 0.01229 0.28418 0.31989 0.0
C751 C 0.97889 0.22776 0.36619 0.0
N752 N 0.04842 0.23524 0.28831 0.0
N753 N 0.92832 0.27131 0.38095 0.0
H754 H 0.97997 0.17623 0.39722 0.0
H755 H 0.9493 0.21007 0.41539 0.0
H756 H 0.91473 0.29744 0.3792 0.0
H757 H 0.91184 0.25029 0.39337 0.0
H758 H 0.05738 0.25341 0.26691 0.0
H759 H 0.0572 0.20732 0.2845 0.0
H760 H 0.05826 0.30803 0.28951 0.0
H761 H 0.02562 0.34105 0.30569 0.0
C762 C 0.0465 0.71941 0.16344 0.0
C763 C 0.02056 0.70238 0.18898 0.0
C764 C 0.01449 0.76261 0.22297 0.0
C765 C 0.04222 0.77878 0.19891 0.0
N766 N 0.09194 0.76951 0.15319 0.0
N767 N 0.98804 0.70505 0.24902 0.0
C768 C 0.06054 0.75617 0.17132 0.0
C769 C 0.00701 0.72316 0.22061 0.0
N770 N 0.05622 0.70159 0.13052 0.0
N771 N 0.99379 0.78506 0.2466 0.0
H772 H 0.98303 0.67597 0.24888 0.0
H773 H 0.98089 0.71815 0.27446 0.0
H774 H -0.0021 0.81418 0.24885 0.0
H775 H 0.97039 0.77527 0.26156 0.0
H776 H 0.07159 0.71471 0.10908 0.0
H777 H 0.04598 0.67509 0.12281 0.0
H778 H 0.10858 0.75282 0.13552 0.0
H779 H 0.10372 0.79596 0.15898 0.0
C780 C 0.32577 0.05432 0.22379 0.0
C781 C 0.29686 0.04236 0.19865 0.0
C782 C 0.26898 0.00342 0.24899 0.0
C783 C 0.29687 0.01706 0.27447 0.0
N784 N 0.34518 0.06306 0.28884 0.0
N785 N 0.23714 0.01124 0.18855 0.0
C786 C 0.32326 0.04483 0.26267 0.0
C787 C 0.26725 0.01858 0.21163 0.0
N788 N 0.35673 0.07309 0.2103 0.0
N789 N 0.24523 0.97497 0.25995 0.0
H790 H 0.23515 0.02184 0.16105 0.0
H791 H 0.21281 0.99738 0.19757 0.0
H792 H 0.24557 0.96338 0.28709 0.0
H793 H 0.22699 0.96101 0.24152 0.0
H794 H 0.3806 0.07861 0.22663 0.0
H795 H 0.36024 0.07998 0.18188 0.0
H796 H 0.36208 0.08629 0.28231 0.0
H797 H 0.3435 0.05764 0.31782 0.0
C798 C 0.68697 0.47452 0.24602 0.0
C799 C 0.69715 0.50104 0.21761 0.0
C800 C 0.70545 0.55021 0.2658 0.0
C801 C 0.69673 0.52321 0.29423 0.0
N802 N 0.68945 0.45791 0.31245 0.0
N803 N 0.72433 0.56122 0.20072 0.0
C804 C 0.69084 0.48475 0.28462 0.0
C805 C 0.70906 0.53802 0.22762 0.0
N806 N 0.6713 0.44048 0.23633 0.0
N807 N 0.70812 0.58774 0.27479 0.0
H808 H 0.72753 0.55299 0.17253 0.0
H809 H 0.73699 0.58708 0.20697 0.0
H810 H 0.70555 0.59794 0.30235 0.0
H811 H 0.71001 0.60911 0.25459 0.0
H812 H 0.65943 0.42205 0.25602 0.0
H813 H 0.66685 0.432 0.20844 0.0
H814 H 0.68889 0.42896 0.30692 0.0
H815 H 0.69286 0.46442 0.34106 0.0
C816 C 0.27934 0.35621 0.98102 0.0
C817 C 0.30435 0.32755 0.99351 0.0
C818 C 0.25041 0.28955 0.01467 0.0
C819 C 0.22628 0.32089 0.00799 0.0
N820 N 0.21892 0.38648 0.98971 0.0
N821 N 0.31448 0.26783 0.02508 0.0
C822 C 0.2409 0.35478 0.99207 0.0
C823 C 0.29013 0.29417 0.01072 0.0
N824 N 0.29228 0.38455 0.95808 0.0
N825 N 0.23528 0.25522 0.02407 0.0
H826 H 0.34374 0.27013 0.02275 0.0
H827 H 0.30583 0.24513 0.04175 0.0
H828 H 0.20626 0.25084 0.02674 0.0
H829 H 0.25106 0.23041 0.02564 0.0
H830 H 0.27455 0.40412 0.94504 0.0
H831 H 0.32023 0.38607 0.94885 0.0
H832 H 0.22953 0.41299 0.98242 0.0
H833 H 0.19088 0.38734 0.99845 0.0
C834 C 0.21967 0.70968 0.46346 0.0
C835 C 0.20025 0.67463 0.46123 0.0
C836 C 0.25154 0.64328 0.49521 0.0
C837 C 0.27283 0.67725 0.49397 0.0
N838 N 0.27984 0.74145 0.47157 0.0
N839 N 0.20169 0.6065 0.46657 0.0
C840 C 0.25764 0.71022 0.4767 0.0
C841 C 0.21735 0.64095 0.47467 0.0
N842 N 0.20151 0.74249 0.45412 0.0
N843 N 0.26312 0.6137 0.51731 0.0
H844 H 0.1774 0.60339 0.45016 0.0
H845 H 0.21505 0.58092 0.47254 0.0
H846 H 0.28724 0.61473 0.53422 0.0
H847 H 0.24662 0.58976 0.52209 0.0
H848 H 0.21281 0.76925 0.45911 0.0
H849 H 0.17381 0.74309 0.4441 0.0
H850 H 0.2715 0.76481 0.45567 0.0
H851 H 0.30787 0.74279 0.48048 0.0
C852 C 0.71692 0.87199 0.46188 0.0
C853 C 0.70224 0.8414 0.48342 0.0
C854 C 0.75642 0.80195 0.46524 0.0
C855 C 0.77233 0.83346 0.44615 0.0
N856 N 0.77112 0.89984 0.4305 0.0
N857 N 0.7085 0.77822 0.50838 0.0
C858 C 0.75338 0.8688 0.44538 0.0
C859 C 0.7222 0.80663 0.48596 0.0
N860 N 0.69602 0.90419 0.45718 0.0
N861 N 0.77349 0.76735 0.46251 0.0
H862 H 0.68254 0.77984 0.52222 0.0
H863 H 0.72355 0.75382 0.51497 0.0
H864 H 0.79871 0.76316 0.44785 0.0
H865 H 0.76157 0.74229 0.47233 0.0
H866 H 0.70289 0.92546 0.43801 0.0
H867 H 0.67029 0.90881 0.47066 0.0
H868 H 0.76096 0.92734 0.43308 0.0
H869 H 0.79775 0.89869 0.418 0.0
C870 C 0.49442 0.7789 0.83154 0.0
C871 C 0.4788 0.79306 0.86571 0.0
C872 C 0.4957 0.73429 0.89833 0.0
C873 C 0.51484 0.72179 0.86536 0.0
N874 N 0.53675 0.7338 0.80187 0.0
N875 N 0.47074 0.78749 0.93336 0.0
C876 C 0.51528 0.74446 0.83219 0.0
C877 C 0.48103 0.77162 0.89959 0.0
N878 N 0.48834 0.79778 0.79831 0.0
N879 N 0.49026 0.71 0.92798 0.0
H880 H 0.46051 0.81505 0.93576 0.0
H881 H 0.47572 0.77468 0.95943 0.0
H882 H 0.49985 0.6821 0.92791 0.0
H883 H 0.47302 0.71626 0.95102 0.0
H884 H 0.49549 0.7869 0.77189 0.0
H885 H 0.47325 0.82307 0.79682 0.0
H886 H 0.54157 0.75108 0.7785 0.0
H887 H 0.5523 0.70875 0.8013 0.0
C888 C 0.49911 0.25587 0.62058 0.0
C889 C 0.49144 0.27805 0.65318 0.0
C890 C 0.46194 0.22309 0.68378 0.0
C891 C 0.46654 0.20208 0.64986 0.0
N892 N 0.4826 0.20073 0.58345 0.0
N893 N 0.46055 0.28491 0.71361 0.0
C894 C 0.48324 0.21908 0.61754 0.0
C895 C 0.47152 0.26223 0.68427 0.0
N896 N 0.52286 0.26929 0.59317 0.0
N897 N 0.44961 0.20533 0.71586 0.0
H898 H 0.46683 0.31372 0.71484 0.0
H899 H 0.44251 0.27601 0.73511 0.0
H900 H 0.44232 0.17674 0.71653 0.0
H901 H 0.44958 0.21804 0.74245 0.0
H902 H 0.53276 0.25273 0.57089 0.0
H903 H 0.53568 0.29582 0.59452 0.0
H904 H 0.49057 0.21349 0.5581 0.0
H905 H 0.47071 0.17399 0.57973 0.0
C906 C 0.79523 0.49513 0.79739 0.0
C907 C 0.82833 0.47443 0.80652 0.0
C908 C 0.84503 0.47104 0.73939 0.0
C909 C 0.81499 0.49619 0.73096 0.0
N910 N 0.76309 0.5351 0.75187 0.0
N911 N 0.88736 0.44635 0.78713 0.0
C912 C 0.79025 0.50882 0.75988 0.0
C913 C 0.85384 0.46309 0.77775 0.0
N914 N 0.76812 0.50078 0.82436 0.0
N915 N 0.86443 0.45388 0.71065 0.0
H916 H 0.89507 0.44022 0.81493 0.0
H917 H 0.90893 0.44145 0.76771 0.0
H918 H 0.8583 0.45849 0.68213 0.0
H919 H 0.884 0.43233 0.71501 0.0
H920 H 0.74166 0.51223 0.81852 0.0
H921 H 0.77072 0.49083 0.85204 0.0
H922 H 0.74701 0.54858 0.77253 0.0
H923 H 0.75844 0.54565 0.7247 0.0
C924 C 0.13294 0.9485 0.71544 0.0
C925 C 0.16456 0.95631 0.69213 0.0
C926 C 0.19573 0.9885 0.74514 0.0
C927 C 0.16218 0.98464 0.76673 0.0
N928 N 0.09609 0.96771 0.76963 0.0
N929 N 0.22417 0.98816 0.68274 0.0
C930 C 0.13002 0.96639 0.75119 0.0
C931 C 0.19563 0.97734 0.70644 0.0
N932 N 0.10621 0.92303 0.70392 0.0
N933 N 0.22792 0.0018 0.76188 0.0
H934 H 0.22504 0.98081 0.65417 0.0
H935 H 0.2454 0.00699 0.6906 0.0
H936 H 0.22899 0.01019 0.79017 0.0
H937 H 0.25423 0.00146 0.74873 0.0
H938 H 0.08461 0.91339 0.72146 0.0
H939 H 0.10786 0.90849 0.67828 0.0
H940 H 0.07091 0.95836 0.75756 0.0
H941 H 0.09219 0.98165 0.79534 0.0
C942 C 0.77937 0.1927 0.01969 0.0
C943 C 0.79258 0.15637 0.03054 0.0
C944 C 0.72927 0.13002 0.02187 0.0
C945 C 0.71534 0.16686 0.01414 0.0
N946 N 0.72546 0.2343 0.0118 0.0
N947 N 0.77871 0.09254 0.0505 0.0
C948 C 0.73992 0.19857 0.01478 0.0
C949 C 0.76711 0.12562 0.03414 0.0
N950 N 0.80455 0.22114 0.01252 0.0
N951 N 0.70699 0.09899 0.01573 0.0
H952 H 0.80603 0.08844 0.06076 0.0
H953 H 0.76028 0.07062 0.05743 0.0
H954 H 0.67937 0.10071 0.00566 0.0
H955 H 0.71711 0.07135 0.01698 0.0
H956 H 0.79692 0.24694 0.00053 0.0
H957 H 0.83365 0.21792 0.01565 0.0
H958 H 0.74141 0.25868 0.01608 0.0
H959 H 0.6967 0.23963 0.00824 0.0
C960 C 0.11696 0.01875 0.21347 0.0
C961 C 0.11192 0.98002 0.22245 0.0
C962 C 0.10245 0.9961 0.28895 0.0
C963 C 0.09909 0.03483 0.27841 0.0
N964 N 0.10648 0.08408 0.23181 0.0
N965 N 0.12292 0.93322 0.27044 0.0
C966 C 0.10796 0.04658 0.24108 0.0
C967 C 0.11193 0.96897 0.26088 0.0
N968 N 0.13251 0.02847 0.17949 0.0
N969 N 0.09412 0.98485 0.325 0.0
H970 H 0.13367 0.91442 0.25037 0.0
H971 H 0.12631 0.92409 0.29826 0.0
H972 H 0.08718 0.00368 0.34656 0.0
H973 H 0.09154 0.9566 0.33297 0.0
H974 H 0.13949 0.05608 0.17197 0.0
H975 H 0.14294 0.00809 0.16084 0.0
H976 H 0.10821 0.09408 0.20415 0.0
H977 H 0.10182 0.10526 0.25187 0.0
C978 C 0.91106 0.47618 0.27688 0.0
C979 C 0.9241 0.48802 0.31294 0.0
C980 C 0.94578 0.54783 0.28529 0.0
C981 C 0.93866 0.53314 0.2487 0.0
N982 N 0.91853 0.48118 0.20902 0.0
N983 N 0.95945 0.53327 0.35059 0.0
C984 C 0.92196 0.49689 0.24422 0.0
C985 C 0.94253 0.5236 0.31714 0.0
N986 N 0.88774 0.44549 0.27394 0.0
N987 N 0.95544 0.58504 0.2896 0.0
H988 H 0.96019 0.5157 0.37422 0.0
H989 H 0.97652 0.55709 0.35371 0.0
H990 H 0.95777 0.60363 0.26676 0.0
H991 H 0.9573 0.59831 0.31588 0.0
H992 H 0.87443 0.43771 0.24882 0.0
H993 H 0.87864 0.43012 0.29745 0.0
H994 H 0.91064 0.45313 0.2046 0.0
H995 H 0.92662 0.49501 0.18426 0.0
C996 C 0.25075 0.06877 0.92511 0.0
C997 C 0.21305 0.0807 0.93055 0.0
C998 C 0.23083 0.11027 0.99078 0.0
C999 C 0.26633 0.092 0.98857 0.0
N1000 N 0.30998 0.05172 0.95445 0.0
N1001 N 0.16631 0.11331 0.96811 0.0
C1002 C 0.27667 0.07128 0.95563 0.0
C1003 C 0.20293 0.10231 0.9629 0.0
N1004 N 0.26151 0.05483 0.89067 0.0
N1005 N 0.22405 0.13538 0.0194 0.0
H1006 H 0.1454 0.10946 0.94774 0.0
H1007 H 0.15618 0.12469 0.99331 0.0
H1008 H 0.24415 0.14166 0.04009 0.0
H1009 H 0.20013 0.15244 0.02073 0.0
H1010 H 0.2894 0.04881 0.88357 0.0
H1011 H 0.24287 0.05294 0.86783 0.0
H1012 H 0.31705 0.03296 0.93287 0.0
H1013 H 0.3295 0.05143 0.97649 0.0
C1014 C 0.74898 0.41388 0.04652 0.0
C1015 C 0.71157 0.41555 0.03256 0.0
C1016 C 0.73472 0.41239 0.96755 0.0
C1017 C 0.77169 0.41907 0.98136 0.0
N1018 N 0.81578 0.42172 0.03333 0.0
N1019 N 0.67071 0.39331 0.98286 0.0
C1020 C 0.7795 0.41767 0.02074 0.0
C1021 C 0.70483 0.40751 0.99387 0.0
N1022 N 0.75488 0.40699 0.08409 0.0
N1023 N 0.72793 0.41266 0.92948 0.0
H1024 H 0.65025 0.38521 0.0025 0.0
H1025 H 0.66477 0.38464 0.95533 0.0
H1026 H 0.74947 0.41499 0.90946 0.0
H1027 H 0.70089 0.41264 0.91788 0.0
H1028 H 0.7814 0.40303 0.09613 0.0
H1029 H 0.73256 0.4009 0.10241 0.0
H1030 H 0.82295 0.42557 0.06164 0.0
H1031 H 0.8389 0.4226 0.01505 0.0
C1032 C 0.28566 0.93076 0.49922 0.0
C1033 C 0.2844 0.91516 0.46215 0.0
C1034 C 0.22246 0.88735 0.47563 0.0
C1035 C 0.22485 0.9011 0.51337 0.0
N1036 N 0.26288 0.927 0.56367 0.0
N1037 N 0.25615 0.87147 0.41806 0.0
C1038 C 0.25786 0.91992 0.52597 0.0
C1039 C 0.25421 0.89113 0.45132 0.0
N1040 N 0.31182 0.95775 0.50837 0.0
N1041 N 0.18927 0.87292 0.46214 0.0
H1042 H 0.27914 0.87347 0.3997 0.0
H1043 H 0.23681 0.85056 0.41053 0.0
H1044 H 0.16499 0.87031 0.47854 0.0
H1045 H 0.18481 0.86652 0.4337 0.0
H1046 H 0.31103 0.97307 0.53355 0.0
H1047 H 0.33218 0.96769 0.48957 0.0
H1048 H 0.28801 0.93741 0.57493 0.0
H1049 H 0.24336 0.91864 0.58413 0.0
C1050 C 0.72044 0.56189 0.5515 0.0
C1051 C 0.75485 0.58226 0.54797 0.0
C1052 C 0.73278 0.61166 0.48924 0.0
C1053 C 0.69938 0.58986 0.49165 0.0
N1054 N 0.6565 0.55195 0.52886 0.0
N1055 N 0.78859 0.63505 0.52153 0.0
C1056 C 0.69145 0.56781 0.5243 0.0
C1057 C 0.75927 0.61 0.51934 0.0
N1058 N 0.71638 0.53504 0.57908 0.0
N1059 N 0.7396 0.63304 0.45773 0.0
H1060 H 0.80739 0.63514 0.54428 0.0
H1061 H 0.792 0.65792 0.50328 0.0
H1062 H 0.71987 0.63617 0.43601 0.0
H1063 H 0.76534 0.64617 0.45223 0.0
H1064 H 0.69379 0.51631 0.58055 0.0
H1065 H 0.73632 0.53005 0.60008 0.0
H1066 H 0.64745 0.53937 0.5539 0.0
H1067 H 0.63519 0.55375 0.50859 0.0
C1068 C 0.99487 0.25604 0.06659 0.0
C1069 C 0.03469 0.25115 0.06669 0.0
C1070 C 0.02631 0.18236 0.06694 0.0
C1071 C 0.98663 0.18741 0.07037 0.0
N1072 N 0.93422 0.2291 0.08292 0.0
N1073 N 0.08829 0.21003 0.07564 0.0
C1074 C 0.97126 0.22431 0.07321 0.0
C1075 C 0.05042 0.21439 0.06962 0.0
N1076 N 0.97935 0.29035 0.05778 0.0
N1077 N 0.04098 0.14754 0.05873 0.0
H1078 H 0.10675 0.23289 0.07834 0.0
H1079 H 0.10067 0.18399 0.08172 0.0
H1080 H 0.02448 0.12343 0.05496 0.0
H1081 H 0.06929 0.1433 0.05192 0.0
H1082 H 0.95051 0.29421 0.05344 0.0
H1083 H 0.99534 0.31409 0.0508 0.0
H1084 H 0.92249 0.25548 0.08885 0.0
H1085 H 0.91632 0.20646 0.08902 0.0
C1086 C 0.97144 0.69496 0.37898 0.0
C1087 C 0.01105 0.70125 0.37629 0.0
C1088 C -0.00057 0.76575 0.35376 0.0
C1089 C 0.96108 0.76166 0.36439 0.0
N1090 N 0.90875 0.71845 0.36432 0.0
N1091 N 0.06316 0.74073 0.35713 0.0
C1092 C 0.94636 0.72488 0.36977 0.0
C1093 C 0.02515 0.73595 0.36182 0.0
N1094 N 0.95776 0.66164 0.39305 0.0
N1095 N 0.01051 0.79715 0.33418 0.0
H1096 H 0.08243 0.71865 0.36047 0.0
H1097 H 0.07576 0.7667 0.35132 0.0
H1098 H 0.99105 0.81706 0.32446 0.0
H1099 H 0.03753 0.80106 0.32331 0.0
H1100 H 0.92953 0.65759 0.40026 0.0
H1101 H 0.97483 0.63872 0.4 0.0
H1102 H 0.89659 0.69162 0.36494 0.0
H1103 H 0.89078 0.73949 0.35405 0.0
C1104 C 0.4664 0.79557 0.55596 0.0
C1105 C 0.50552 0.79063 0.56346 0.0
C1106 C 0.49494 0.72323 0.5757 0.0
C1107 C 0.45549 0.7287 0.57032 0.0
N1108 N 0.40299 0.77176 0.56552 0.0
N1109 N 0.55537 0.75229 0.5896 0.0
C1110 C 0.44103 0.76549 0.5638 0.0
C1111 C 0.51926 0.75523 0.57627 0.0
N1112 N 0.45363 0.8279 0.539 0.0
N1113 N 0.50971 0.68756 0.57783 0.0
H1114 H 0.57381 0.77529 0.59085 0.0
H1115 H 0.5657 0.7281 0.60288 0.0
H1116 H 0.49344 0.66305 0.57695 0.0
H1117 H 0.5386 0.68212 0.5771 0.0
H1118 H 0.42604 0.83108 0.52927 0.0
H1119 H 0.47123 0.85016 0.53109 0.0
H1120 H 0.39109 0.79869 0.56458 0.0
H1121 H 0.38367 0.7504 0.57195 0.0
C1122 C 0.52525 0.50123 0.76671 0.0
C1123 C 0.56082 0.5183 0.77374 0.0
C1124 C 0.58752 0.487 0.71789 0.0
C1125 C 0.55221 0.46889 0.71151 0.0
N1126 N 0.48889 0.45422 0.73275 0.0
N1127 N 0.62719 0.52383 0.76039 0.0
C1128 C 0.5216 0.47443 0.73696 0.0
C1129 C 0.59242 0.51012 0.75057 0.0
N1130 N 0.4945 0.51182 0.78765 0.0
N1131 N 0.61623 0.4823 0.69242 0.0
H1132 H 0.63142 0.54154 0.78364 0.0
H1133 H 0.65222 0.51586 0.74719 0.0
H1134 H 0.61468 0.46342 0.66978 0.0
H1135 H 0.641 0.49814 0.69266 0.0
H1136 H 0.46687 0.50436 0.78097 0.0
H1137 H 0.4961 0.53056 0.81037 0.0
H1138 H 0.46771 0.45318 0.75313 0.0
H1139 H 0.48349 0.43636 0.70999 0.0
C1140 C 0.43938 0.937 0.72805 0.0
C1141 C 0.41721 0.94515 0.76051 0.0
C1142 C 0.39656 0.00502 0.73192 0.0
C1143 C 0.41772 0.99624 0.69899 0.0
N1144 N 0.45414 0.95118 0.66267 0.0
N1145 N 0.36922 0.98262 0.79085 0.0
C1146 C 0.43718 0.9612 0.69598 0.0
C1147 C 0.39415 0.97796 0.76168 0.0
N1148 N 0.46467 0.90774 0.72879 0.0
N1149 N 0.3792 0.03944 0.73491 0.0
H1150 H 0.36648 0.963 0.81273 0.0
H1151 H 0.34897 0.00393 0.79178 0.0
H1152 H 0.37864 0.05908 0.71287 0.0
H1153 H 0.36713 0.04949 0.75981 0.0
H1154 H 0.48505 0.90337 0.70802 0.0
H1155 H 0.46758 0.88936 0.75166 0.0
H1156 H 0.46424 0.92406 0.65721 0.0
H1157 H 0.45633 0.96918 0.63943 0.0
C1158 C 0.54067 0.31883 0.96825 0.0
C1159 C 0.50274 0.31717 0.95502 0.0
C1160 C 0.51058 0.25019 0.93905 0.0
C1161 C 0.54842 0.25195 0.95223 0.0
N1162 N 0.60251 0.28937 0.9694 0.0
N1163 N 0.45515 0.28487 0.91856 0.0
C1164 C 0.56444 0.28686 0.9635 0.0
C1165 C 0.48887 0.28394 0.93737 0.0
N1166 N 0.55343 0.34984 0.98755 0.0
N1167 N 0.4946 0.21608 0.93028 0.0
H1168 H 0.43886 0.30938 0.91642 0.0
H1169 H 0.44517 0.26262 0.90201 0.0
H1170 H 0.50952 0.1907 0.93055 0.0
H1171 H 0.46585 0.21252 0.92519 0.0
H1172 H 0.57899 0.35043 0.00212 0.0
H1173 H 0.53753 0.37423 0.9915 0.0
H1174 H 0.61656 0.31487 0.97399 0.0
H1175 H 0.62061 0.26632 0.96593 0.0
loop_
_geom_bond_atom_site_label_1
_geom_bond_atom_site_label_2
_geom_bond_distance
_geom_bond_site_symmetry_2
_ccdc_geom_bond_type
C0 O1 1.160 1_655 S
C0 O7 1.185 . S
O1 C0 1.160 1_455 S
O2 Zn3 1.899 . S
O2 C10 1.284 1_655 S
Zn3 O2 1.899 . S
Zn3 O4 2.032 1_655 S
Zn3 O7 2.086 . S
Zn3 O12 1.977 . S
O4 Zn3 2.032 1_455 S
O4 C8 1.278 . S
C5 O6 1.203 . S
C5 O12 1.267 . S
O6 C5 1.203 . S
O7 C0 1.185 . S
O7 Zn3 2.086 . S
C8 O4 1.278 . S
C8 O9 1.211 . S
O9 C8 1.211 . S
C10 O2 1.284 1_455 S
C10 O11 1.273 . S
O11 C10 1.273 . S
O12 Zn3 1.977 . S
O12 C5 1.267 . S
C13 O14 1.160 1_455 S
C13 O20 1.185 . S
O14 C13 1.160 1_655 S
O15 Zn16 1.899 . S
O15 C23 1.284 1_455 S
Zn16 O15 1.899 . S
Zn16 O17 2.032 1_455 S
Zn16 O20 2.086 . S
Zn16 O25 1.977 . S
O17 Zn16 2.032 1_655 S
O17 C21 1.278 . S
C18 O19 1.203 . S
C18 O25 1.267 . S
O19 C18 1.203 . S
O20 C13 1.185 . S
O20 Zn16 2.086 . S
C21 O17 1.278 . S
C21 O22 1.211 . S
O22 C21 1.211 . S
C23 O15 1.284 1_655 S
C23 O24 1.273 . S
O24 C23 1.273 . S
O25 Zn16 1.977 . S
O25 C18 1.267 . S
C26 O27 1.160 1_655 S
C26 O33 1.185 . S
O27 C26 1.160 1_455 S
O28 Zn29 1.899 . S
O28 C36 1.284 1_655 S
Zn29 O28 1.899 . S
Zn29 O30 2.032 1_655 S
Zn29 O33 2.086 . S
Zn29 O38 1.977 . S
O30 Zn29 2.032 1_455 S
O30 C34 1.278 . S
C31 O32 1.203 . S
C31 O38 1.267 . S
O32 C31 1.203 . S
O33 C26 1.185 . S
O33 Zn29 2.086 . S
C34 O30 1.278 . S
C34 O35 1.211 . S
O35 C34 1.211 . S
C36 O28 1.284 1_455 S
C36 O37 1.273 . S
O37 C36 1.273 . S
O38 Zn29 1.977 . S
O38 C31 1.267 . S
C39 O40 1.160 1_455 S
C39 O46 1.185 . S
O40 C39 1.160 1_655 S
O41 Zn42 1.899 . S
O41 C49 1.284 1_455 S
Zn42 O41 1.899 . S
Zn42 O43 2.032 1_455 S
Zn42 O46 2.086 . S
Zn42 O51 1.977 . S
O43 Zn42 2.032 1_655 S
O43 C47 1.278 . S
C44 O45 1.203 . S
C44 O51 1.267 . S
O45 C44 1.203 . S
O46 C39 1.185 . S
O46 Zn42 2.086 . S
C47 O43 1.278 . S
C47 O48 1.211 . S
O48 C47 1.211 . S
C49 O41 1.284 1_655 S
C49 O50 1.273 . S
O50 C49 1.273 . S
O51 Zn42 1.977 . S
O51 C44 1.267 . S
C52 O53 1.160 1_565 S
C52 O59 1.185 . S
O53 C52 1.160 1_545 S
O54 Zn55 1.899 . S
O54 C62 1.284 1_565 S
Zn55 O54 1.899 . S
Zn55 O56 2.032 1_565 S
Zn55 O59 2.086 . S
Zn55 O64 1.977 . S
O56 Zn55 2.032 1_545 S
O56 C60 1.278 . S
C57 O58 1.203 . S
C57 O64 1.267 . S
O58 C57 1.203 . S
O59 C52 1.185 . S
O59 Zn55 2.086 . S
C60 O56 1.278 . S
C60 O61 1.211 . S
O61 C60 1.211 . S
C62 O54 1.284 1_545 S
C62 O63 1.273 . S
O63 C62 1.273 . S
O64 Zn55 1.977 . S
O64 C57 1.267 . S
C65 O66 1.160 . S
C65 O72 1.185 . S
O66 C65 1.160 . S
O67 Zn68 1.899 . S
O67 C75 1.284 . S
Zn68 O67 1.899 . S
Zn68 O69 2.032 . S
Zn68 O72 2.086 . S
Zn68 O77 1.977 . S
O69 Zn68 2.032 . S
O69 C73 1.278 . S
C70 O71 1.203 . S
C70 O77 1.267 . S
O71 C70 1.203 . S
O72 C65 1.185 . S
O72 Zn68 2.086 . S
C73 O69 1.278 . S
C73 O74 1.211 . S
O74 C73 1.211 . S
C75 O67 1.284 . S
C75 O76 1.273 . S
O76 C75 1.273 . S
O77 Zn68 1.977 . S
O77 C70 1.267 . S
C78 O79 1.160 1_545 S
C78 O85 1.185 . S
O79 C78 1.160 1_565 S
O80 Zn81 1.899 . S
O80 C88 1.284 1_545 S
Zn81 O80 1.899 . S
Zn81 O82 2.032 1_545 S
Zn81 O85 2.086 . S
Zn81 O90 1.977 . S
O82 Zn81 2.032 1_565 S
O82 C86 1.278 . S
C83 O84 1.203 . S
C83 O90 1.267 . S
O84 C83 1.203 . S
O85 C78 1.185 . S
O85 Zn81 2.086 . S
C86 O82 1.278 . S
C86 O87 1.211 . S
O87 C86 1.211 . S
C88 O80 1.284 1_565 S
C88 O89 1.273 . S
O89 C88 1.273 . S
O90 Zn81 1.977 . S
O90 C83 1.267 . S
C91 O92 1.160 . S
C91 O98 1.185 . S
O92 C91 1.160 . S
O93 Zn94 1.899 . S
O93 C101 1.284 . S
Zn94 O93 1.899 . S
Zn94 O95 2.032 . S
Zn94 O98 2.086 . S
Zn94 O103 1.977 . S
O95 Zn94 2.032 . S
O95 C99 1.278 . S
C96 O97 1.203 . S
C96 O103 1.267 . S
O97 C96 1.203 . S
O98 C91 1.185 . S
O98 Zn94 2.086 . S
C99 O95 1.278 . S
C99 O100 1.211 . S
O100 C99 1.211 . S
C101 O93 1.284 . S
C101 O102 1.273 . S
O102 C101 1.273 . S
O103 Zn94 1.977 . S
O103 C96 1.267 . S
C104 O105 1.160 1_556 S
C104 O111 1.185 . S
O105 C104 1.160 1_554 S
O106 Zn107 1.899 . S
O106 C114 1.284 1_556 S
Zn107 O106 1.899 . S
Zn107 O108 2.032 1_556 S
Zn107 O111 2.086 . S
Zn107 O116 1.977 . S
O108 Zn107 2.032 1_554 S
O108 C112 1.278 . S
C109 O110 1.203 . S
C109 O116 1.267 . S
O110 C109 1.203 . S
O111 C104 1.185 . S
O111 Zn107 2.086 . S
C112 O108 1.278 . S
C112 O113 1.211 . S
O113 C112 1.211 . S
C114 O106 1.284 1_554 S
C114 O115 1.273 . S
O115 C114 1.273 . S
O116 Zn107 1.977 . S
O116 C109 1.267 . S
C117 O118 1.160 . S
C117 O124 1.185 . S
O118 C117 1.160 . S
O119 Zn120 1.899 . S
O119 C127 1.284 . S
Zn120 O119 1.899 . S
Zn120 O121 2.032 . S
Zn120 O124 2.086 . S
Zn120 O129 1.977 . S
O121 Zn120 2.032 . S
O121 C125 1.278 . S
C122 O123 1.203 . S
C122 O129 1.267 . S
O123 C122 1.203 . S
O124 C117 1.185 . S
O124 Zn120 2.086 . S
C125 O121 1.278 . S
C125 O126 1.211 . S
O126 C125 1.211 . S
C127 O119 1.284 . S
C127 O128 1.273 . S
O128 C127 1.273 . S
O129 Zn120 1.977 . S
O129 C122 1.267 . S
C130 O131 1.160 . S
C130 O137 1.185 . S
O131 C130 1.160 . S
O132 Zn133 1.899 . S
O132 C140 1.284 . S
Zn133 O132 1.899 . S
Zn133 O134 2.032 . S
Zn133 O137 2.086 . S
Zn133 O142 1.977 . S
O134 Zn133 2.032 . S
O134 C138 1.278 . S
C135 O136 1.203 . S
C135 O142 1.267 . S
O136 C135 1.203 . S
O137 C130 1.185 . S
O137 Zn133 2.086 . S
C138 O134 1.278 . S
C138 O139 1.211 . S
O139 C138 1.211 . S
C140 O132 1.284 . S
C140 O141 1.273 . S
O141 C140 1.273 . S
O142 Zn133 1.977 . S
O142 C135 1.267 . S
C143 O144 1.160 . S
C143 O150 1.185 . S
O144 C143 1.160 . S
O145 Zn146 1.899 . S
O145 C153 1.284 . S
Zn146 O145 1.899 . S
Zn146 O147 2.032 . S
Zn146 O150 2.086 . S
Zn146 O155 1.977 . S
O147 Zn146 2.032 . S
O147 C151 1.278 . S
C148 O149 1.203 . S
C148 O155 1.267 . S
O149 C148 1.203 . S
O150 C143 1.185 . S
O150 Zn146 2.086 . S
C151 O147 1.278 . S
C151 O152 1.211 . S
O152 C151 1.211 . S
C153 O145 1.284 . S
C153 O154 1.273 . S
O154 C153 1.273 . S
O155 Zn146 1.977 . S
O155 C148 1.267 . S
C156 O157 1.160 . S
C156 O163 1.185 . S
O157 C156 1.160 . S
O158 Zn159 1.899 . S
O158 C166 1.284 . S
Zn159 O158 1.899 . S
Zn159 O160 2.032 . S
Zn159 O163 2.086 . S
Zn159 O168 1.977 . S
O160 Zn159 2.032 . S
O160 C164 1.278 . S
C161 O162 1.203 . S
C161 O168 1.267 . S
O162 C161 1.203 . S
O163 C156 1.185 . S
O163 Zn159 2.086 . S
C164 O160 1.278 . S
C164 O165 1.211 . S
O165 C164 1.211 . S
C166 O158 1.284 . S
C166 O167 1.273 . S
O167 C166 1.273 . S
O168 Zn159 1.977 . S
O168 C161 1.267 . S
C169 O170 1.160 . S
C169 O176 1.185 . S
O170 C169 1.160 . S
O171 Zn172 1.899 . S
O171 C179 1.284 . S
Zn172 O171 1.899 . S
Zn172 O173 2.032 . S
Zn172 O176 2.086 . S
Zn172 O181 1.977 . S
O173 Zn172 2.032 . S
O173 C177 1.278 . S
C174 O175 1.203 . S
C174 O181 1.267 . S
O175 C174 1.203 . S
O176 C169 1.185 . S
O176 Zn172 2.086 . S
C177 O173 1.278 . S
C177 O178 1.211 . S
O178 C177 1.211 . S
C179 O171 1.284 . S
C179 O180 1.273 . S
O180 C179 1.273 . S
O181 Zn172 1.977 . S
O181 C174 1.267 . S
C182 O183 1.160 . S
C182 O189 1.185 . S
O183 C182 1.160 . S
O184 Zn185 1.899 . S
O184 C192 1.284 . S
Zn185 O184 1.899 . S
Zn185 O186 2.032 . S
Zn185 O189 2.086 . S
Zn185 O194 1.977 . S
O186 Zn185 2.032 . S
O186 C190 1.278 . S
C187 O188 1.203 . S
C187 O194 1.267 . S
O188 C187 1.203 . S
O189 C182 1.185 . S
O189 Zn185 2.086 . S
C190 O186 1.278 . S
C190 O191 1.211 . S
O191 C190 1.211 . S
C192 O184 1.284 . S
C192 O193 1.273 . S
O193 C192 1.273 . S
O194 Zn185 1.977 . S
O194 C187 1.267 . S
C195 O196 1.160 . S
C195 O202 1.185 . S
O196 C195 1.160 . S
O197 Zn198 1.899 . S
O197 C205 1.284 . S
Zn198 O197 1.899 . S
Zn198 O199 2.032 . S
Zn198 O202 2.086 . S
Zn198 O207 1.977 . S
O199 Zn198 2.032 . S
O199 C203 1.278 . S
C200 O201 1.203 . S
C200 O207 1.267 . S
O201 C200 1.203 . S
O202 C195 1.185 . S
O202 Zn198 2.086 . S
C203 O199 1.278 . S
C203 O204 1.211 . S
O204 C203 1.211 . S
C205 O197 1.284 . S
C205 O206 1.273 . S
O206 C205 1.273 . S
O207 Zn198 1.977 . S
O207 C200 1.267 . S
C208 O209 1.160 . S
C208 O215 1.185 . S
O209 C208 1.160 . S
O210 Zn211 1.899 . S
O210 C218 1.284 . S
Zn211 O210 1.899 . S
Zn211 O212 2.032 . S
Zn211 O215 2.086 . S
Zn211 O220 1.977 . S
O212 Zn211 2.032 . S
O212 C216 1.278 . S
C213 O214 1.203 . S
C213 O220 1.267 . S
O214 C213 1.203 . S
O215 C208 1.185 . S
O215 Zn211 2.086 . S
C216 O212 1.278 . S
C216 O217 1.211 . S
O217 C216 1.211 . S
C218 O210 1.284 . S
C218 O219 1.273 . S
O219 C218 1.273 . S
O220 Zn211 1.977 . S
O220 C213 1.267 . S
C221 O222 1.160 1_545 S
C221 O228 1.185 . S
O222 C221 1.160 1_565 S
O223 Zn224 1.899 . S
O223 C231 1.284 1_545 S
Zn224 O223 1.899 . S
Zn224 O225 2.032 1_545 S
Zn224 O228 2.086 . S
Zn224 O233 1.977 . S
O225 Zn224 2.032 1_565 S
O225 C229 1.278 . S
C226 O227 1.203 . S
C226 O233 1.267 . S
O227 C226 1.203 . S
O228 C221 1.185 . S
O228 Zn224 2.086 . S
C229 O225 1.278 . S
C229 O230 1.211 . S
O230 C229 1.211 . S
C231 O223 1.284 1_565 S
C231 O232 1.273 . S
O232 C231 1.273 . S
O233 Zn224 1.977 . S
O233 C226 1.267 . S
C234 O235 1.160 . S
C234 O241 1.185 . S
O235 C234 1.160 . S
O236 Zn237 1.899 . S
O236 C244 1.284 . S
Zn237 O236 1.899 . S
Zn237 O238 2.032 . S
Zn237 O241 2.086 . S
Zn237 O246 1.977 . S
O238 Zn237 2.032 . S
O238 C242 1.278 . S
C239 O240 1.203 . S
C239 O246 1.267 . S
O240 C239 1.203 . S
O241 C234 1.185 . S
O241 Zn237 2.086 . S
C242 O238 1.278 . S
C242 O243 1.211 . S
O243 C242 1.211 . S
C244 O236 1.284 . S
C244 O245 1.273 . S
O245 C244 1.273 . S
O246 Zn237 1.977 . S
O246 C239 1.267 . S
C247 O248 1.160 1_565 S
C247 O254 1.185 . S
O248 C247 1.160 1_545 S
O249 Zn250 1.899 . S
O249 C257 1.284 1_565 S
Zn250 O249 1.899 . S
Zn250 O251 2.032 1_565 S
Zn250 O254 2.086 . S
Zn250 O259 1.977 . S
O251 Zn250 2.032 1_545 S
O251 C255 1.278 . S
C252 O253 1.203 . S
C252 O259 1.267 . S
O253 C252 1.203 . S
O254 C247 1.185 . S
O254 Zn250 2.086 . S
C255 O251 1.278 . S
C255 O256 1.211 . S
O256 C255 1.211 . S
C257 O249 1.284 1_545 S
C257 O258 1.273 . S
O258 C257 1.273 . S
O259 Zn250 1.977 . S
O259 C252 1.267 . S
C260 O261 1.160 . S
C260 O267 1.185 . S
O261 C260 1.160 . S
O262 Zn263 1.899 . S
O262 C270 1.284 . S
Zn263 O262 1.899 . S
Zn263 O264 2.032 . S
Zn263 O267 2.086 . S
Zn263 O272 1.977 . S
O264 Zn263 2.032 . S
O264 C268 1.278 . S
C265 O266 1.203 . S
C265 O272 1.267 . S
O266 C265 1.203 . S
O267 C260 1.185 . S
O267 Zn263 2.086 . S
C268 O264 1.278 . S
C268 O269 1.211 . S
O269 C268 1.211 . S
C270 O262 1.284 . S
C270 O271 1.273 . S
O271 C270 1.273 . S
O272 Zn263 1.977 . S
O272 C265 1.267 . S
C273 O274 1.160 1_554 S
C273 O280 1.185 . S
O274 C273 1.160 1_556 S
O275 Zn276 1.899 . S
O275 C283 1.284 1_554 S
Zn276 O275 1.899 . S
Zn276 O277 2.032 1_554 S
Zn276 O280 2.086 . S
Zn276 O285 1.977 . S
O277 Zn276 2.032 1_556 S
O277 C281 1.278 . S
C278 O279 1.203 . S
C278 O285 1.267 . S
O279 C278 1.203 . S
O280 C273 1.185 . S
O280 Zn276 2.086 . S
C281 O277 1.278 . S
C281 O282 1.211 . S
O282 C281 1.211 . S
C283 O275 1.284 1_556 S
C283 O284 1.273 . S
O284 C283 1.273 . S
O285 Zn276 1.977 . S
O285 C278 1.267 . S
C286 O287 1.160 1_554 S
C286 O293 1.185 . S
O287 C286 1.160 1_556 S
O288 Zn289 1.899 . S
O288 C296 1.284 1_554 S
Zn289 O288 1.899 . S
Zn289 O290 2.032 1_554 S
Zn289 O293 2.086 . S
Zn289 O298 1.977 . S
O290 Zn289 2.032 1_556 S
O290 C294 1.278 . S
C291 O292 1.203 . S
C291 O298 1.267 . S
O292 C291 1.203 . S
O293 C286 1.185 . S
O293 Zn289 2.086 . S
C294 O290 1.278 . S
C294 O295 1.211 . S
O295 C294 1.211 . S
C296 O288 1.284 1_556 S
C296 O297 1.273 . S
O297 C296 1.273 . S
O298 Zn289 1.977 . S
O298 C291 1.267 . S
C299 O300 1.160 1_556 S
C299 O306 1.185 . S
O300 C299 1.160 1_554 S
O301 Zn302 1.899 . S
O301 C309 1.284 1_556 S
Zn302 O301 1.899 . S
Zn302 O303 2.032 1_556 S
Zn302 O306 2.086 . S
Zn302 O311 1.977 . S
O303 Zn302 2.032 1_554 S
O303 C307 1.278 . S
C304 O305 1.203 . S
C304 O311 1.267 . S
O305 C304 1.203 . S
O306 C299 1.185 . S
O306 Zn302 2.086 . S
C307 O303 1.278 . S
C307 O308 1.211 . S
O308 C307 1.211 . S
C309 O301 1.284 1_554 S
C309 O310 1.273 . S
O310 C309 1.273 . S
O311 Zn302 1.977 . S
O311 C304 1.267 . S
C312 C313 1.363 . S
C312 C318 1.379 . S
C312 N320 1.356 . S
C313 C312 1.363 . S
C313 C319 1.363 . S
C314 C315 1.363 . S
C314 C319 1.379 . S
C314 N321 1.356 . S
C315 C314 1.363 . S
C315 C318 1.363 . S
N316 C318 1.356 . S
N316 H328 0.984 . S
N316 H329 0.985 . S
N317 C319 1.356 . S
N317 H322 0.984 . S
N317 H323 0.985 . S
C318 C312 1.379 . S
C318 C315 1.363 . S
C318 N316 1.356 . S
C319 C313 1.363 . S
C319 C314 1.379 . S
C319 N317 1.356 . S
N320 C312 1.356 . S
N320 H326 0.984 . S
N320 H327 0.984 . S
N321 C314 1.356 . S
N321 H324 0.984 . S
N321 H325 1.003 . S
H322 N317 0.984 . S
H323 N317 0.985 . S
H324 N321 0.984 . S
H325 N321 1.003 . S
H326 N320 0.984 . S
H327 N320 0.984 . S
H328 N316 0.984 . S
H329 N316 0.985 . S
C330 C331 1.363 . S
C330 C336 1.379 . S
C330 N338 1.356 . S
C331 C330 1.363 . S
C331 C337 1.363 . S
C332 C333 1.363 . S
C332 C337 1.379 . S
C332 N339 1.356 . S
C333 C332 1.363 . S
C333 C336 1.363 . S
N334 C336 1.356 . S
N334 H346 0.984 . S
N334 H347 0.985 . S
N335 C337 1.356 . S
N335 H340 0.984 . S
N335 H341 0.985 . S
C336 C330 1.379 . S
C336 C333 1.363 . S
C336 N334 1.356 . S
C337 C331 1.363 . S
C337 C332 1.379 . S
C337 N335 1.356 . S
N338 C330 1.356 . S
N338 H344 0.984 . S
N338 H345 0.984 . S
N339 C332 1.356 . S
N339 H342 0.984 . S
N339 H343 0.985 . S
H340 N335 0.984 . S
H341 N335 0.985 . S
H342 N339 0.984 . S
H343 N339 0.985 . S
H344 N338 0.984 . S
H345 N338 0.984 . S
H346 N334 0.984 . S
H347 N334 0.985 . S
C348 C349 1.363 . S
C348 C354 1.379 . S
C348 N356 1.356 . S
C349 C348 1.363 . S
C349 C355 1.363 . S
C350 C351 1.363 1_554 S
C350 C355 1.379 . S
C350 N357 1.356 1_554 S
C351 C350 1.363 1_556 S
C351 C354 1.363 1_556 S
N352 C354 1.356 1_556 S
N352 H364 0.984 . S
N352 H365 0.985 . S
N353 C355 1.356 . S
N353 H358 0.984 . S
N353 H359 0.987 . S
C354 C348 1.379 . S
C354 C351 1.363 1_554 S
C354 N352 1.356 1_554 S
C355 C349 1.363 . S
C355 C350 1.379 . S
C355 N353 1.356 . S
N356 C348 1.356 . S
N356 H362 0.984 . S
N356 H363 0.984 . S
N357 C350 1.356 1_556 S
N357 H360 0.984 . S
N357 H361 0.973 1_565 S
H358 N353 0.984 . S
H359 N353 0.987 . S
H360 N357 0.984 . S
H361 N357 0.973 1_545 S
H362 N356 0.984 . S
H363 N356 0.984 . S
H364 N352 0.984 . S
H365 N352 0.985 . S
C366 C367 1.363 . S
C366 C372 1.379 . S
C366 N374 1.356 . S
C367 C366 1.363 . S
C367 C373 1.363 . S
C368 C369 1.363 . S
C368 C373 1.379 1_556 S
C368 N375 1.356 . S
C369 C368 1.363 . S
C369 C372 1.363 1_556 S
N370 C372 1.356 1_556 S
N370 H382 0.984 1_556 S
N370 H383 0.985 . S
N371 C373 1.356 . S
N371 H376 0.984 . S
N371 H377 0.985 . S
C372 C366 1.379 . S
C372 C369 1.363 1_554 S
C372 N370 1.356 1_554 S
C373 C367 1.363 . S
C373 C368 1.379 1_554 S
C373 N371 1.356 . S
N374 C366 1.356 . S
N374 H380 0.984 . S
N374 H381 0.984 . S
N375 C368 1.356 . S
N375 H378 0.984 . S
N375 H379 0.985 . S
H376 N371 0.984 . S
H377 N371 0.985 . S
H378 N375 0.984 . S
H379 N375 0.985 . S
H380 N374 0.984 . S
H381 N374 0.984 . S
H382 N370 0.984 1_554 S
H383 N370 0.985 . S
C384 C385 1.363 . S
C384 C390 1.379 . S
C384 N392 1.356 . S
C385 C384 1.363 . S
C385 C391 1.363 . S
C386 C387 1.363 . S
C386 C391 1.379 . S
C386 N393 1.356 . S
C387 C386 1.363 . S
C387 C390 1.363 . S
N388 C390 1.356 . S
N388 H400 0.984 . S
N388 H401 0.985 . S
N389 C391 1.356 . S
N389 H394 0.984 . S
N389 H395 0.985 1_554 S
C390 C384 1.379 . S
C390 C387 1.363 . S
C390 N388 1.356 . S
C391 C385 1.363 . S
C391 C386 1.379 . S
C391 N389 1.356 . S
N392 C384 1.356 . S
N392 H398 0.984 . S
N392 H399 0.984 . S
N393 C386 1.356 . S
N393 H396 0.984 . S
N393 H397 0.972 1_554 S
H394 N389 0.984 . S
H395 N389 0.985 1_556 S
H396 N393 0.984 . S
H397 N393 0.972 1_556 S
H398 N392 0.984 . S
H399 N392 0.984 . S
H400 N388 0.984 . S
H401 N388 0.985 . S
C402 C403 1.363 . S
C402 C408 1.379 . S
C402 N410 1.356 . S
C403 C402 1.363 . S
C403 C409 1.363 . S
C404 C405 1.363 . S
C404 C409 1.379 . S
C404 N411 1.356 . S
C405 C404 1.363 . S
C405 C408 1.363 . S
N406 C408 1.356 . S
N406 H418 0.984 . S
N406 H419 0.985 . S
N407 C409 1.356 . S
N407 H412 0.984 . S
N407 H413 0.985 1_554 S
C408 C402 1.379 . S
C408 C405 1.363 . S
C408 N406 1.356 . S
C409 C403 1.363 . S
C409 C404 1.379 . S
C409 N407 1.356 . S
N410 C402 1.356 . S
N410 H416 0.984 . S
N410 H417 0.984 . S
N411 C404 1.356 . S
N411 H414 0.984 . S
N411 H415 0.999 . S
H412 N407 0.984 . S
H413 N407 0.985 1_556 S
H414 N411 0.984 . S
H415 N411 0.999 . S
H416 N410 0.984 . S
H417 N410 0.984 . S
H418 N406 0.984 . S
H419 N406 0.985 . S
C420 C421 1.363 . S
C420 C426 1.379 . S
C420 N428 1.356 . S
C421 C420 1.363 . S
C421 C427 1.363 . S
C422 C423 1.363 . S
C422 C427 1.379 . S
C422 N429 1.356 . S
C423 C422 1.363 . S
C423 C426 1.363 . S
N424 C426 1.356 . S
N424 H436 0.984 . S
N424 H437 0.985 . S
N425 C427 1.356 . S
N425 H430 0.984 . S
N425 H431 0.985 . S
C426 C420 1.379 . S
C426 C423 1.363 . S
C426 N424 1.356 . S
C427 C421 1.363 . S
C427 C422 1.379 . S
C427 N425 1.356 . S
N428 C420 1.356 . S
N428 H434 0.984 . S
N428 H435 0.984 . S
N429 C422 1.356 . S
N429 H432 0.984 . S
N429 H433 0.985 . S
H430 N425 0.984 . S
H431 N425 0.985 . S
H432 N429 0.984 . S
H433 N429 0.985 . S
H434 N428 0.984 . S
H435 N428 0.984 . S
H436 N424 0.984 . S
H437 N424 0.985 . S
C438 C439 1.363 . S
C438 C444 1.379 . S
C438 N446 1.356 . S
C439 C438 1.363 . S
C439 C445 1.363 . S
C440 C441 1.363 . S
C440 C445 1.379 . S
C440 N447 1.356 . S
C441 C440 1.363 . S
C441 C444 1.363 . S
N442 C444 1.356 . S
N442 H454 0.984 . S
N442 H455 0.985 . S
N443 C445 1.356 . S
N443 H448 0.984 . S
N443 H449 0.985 . S
C444 C438 1.379 . S
C444 C441 1.363 . S
C444 N442 1.356 . S
C445 C439 1.363 . S
C445 C440 1.379 . S
C445 N443 1.356 . S
N446 C438 1.356 . S
N446 H452 0.984 . S
N446 H453 0.984 . S
N447 C440 1.356 . S
N447 H450 0.984 . S
N447 H451 0.985 . S
H448 N443 0.984 . S
H449 N443 0.985 . S
H450 N447 0.984 . S
H451 N447 0.985 . S
H452 N446 0.984 . S
H453 N446 0.984 . S
H454 N442 0.984 . S
H455 N442 0.985 . S
C456 C457 1.363 . S
C456 C462 1.379 . S
C456 N464 1.356 . S
C457 C456 1.363 . S
C457 C463 1.363 . S
C458 C459 1.363 . S
C458 C463 1.379 . S
C458 N465 1.356 . S
C459 C458 1.363 . S
C459 C462 1.363 . S
N460 C462 1.356 . S
N460 H472 0.984 . S
N460 H473 0.985 . S
N461 C463 1.356 . S
N461 H466 0.984 . S
N461 H467 0.985 . S
C462 C456 1.379 . S
C462 C459 1.363 . S
C462 N460 1.356 . S
C463 C457 1.363 . S
C463 C458 1.379 . S
C463 N461 1.356 . S
N464 C456 1.356 . S
N464 H470 0.960 1_554 S
N464 H471 0.984 . S
N465 C458 1.356 . S
N465 H468 0.984 . S
N465 H469 0.985 . S
H466 N461 0.984 . S
H467 N461 0.985 . S
H468 N465 0.984 . S
H469 N465 0.985 . S
H470 N464 0.960 1_556 S
H471 N464 0.984 . S
H472 N460 0.984 . S
H473 N460 0.985 . S
C474 C475 1.363 . S
C474 C480 1.379 . S
C474 N482 1.356 . S
C475 C474 1.363 . S
C475 C481 1.363 . S
C476 C477 1.363 . S
C476 C481 1.379 . S
C476 N483 1.356 . S
C477 C476 1.363 . S
C477 C480 1.363 . S
N478 C480 1.356 . S
N478 H490 0.984 . S
N478 H491 0.985 . S
N479 C481 1.356 . S
N479 H484 0.984 . S
N479 H485 0.985 . S
C480 C474 1.379 . S
C480 C477 1.363 . S
C480 N478 1.356 . S
C481 C475 1.363 . S
C481 C476 1.379 . S
C481 N479 1.356 . S
N482 C474 1.356 . S
N482 H488 0.984 . S
N482 H489 0.984 . S
N483 C476 1.356 . S
N483 H486 0.984 . S
N483 H487 0.985 . S
H484 N479 0.984 . S
H485 N479 0.985 . S
H486 N483 0.984 . S
H487 N483 0.985 . S
H488 N482 0.984 . S
H489 N482 0.984 . S
H490 N478 0.984 . S
H491 N478 0.985 . S
C492 C493 1.363 . S
C492 C498 1.379 . S
C492 N500 1.356 . S
C493 C492 1.363 . S
C493 C499 1.363 . S
C494 C495 1.363 1_565 S
C494 C499 1.379 . S
C494 N501 1.356 1_565 S
C495 C494 1.363 1_545 S
C495 C498 1.363 1_545 S
N496 C498 1.356 1_545 S
N496 H508 0.984 1_655 S
N496 H509 0.985 . S
N497 C499 1.356 . S
N497 H502 0.984 . S
N497 H503 0.985 . S
C498 C492 1.379 . S
C498 C495 1.363 1_565 S
C498 N496 1.356 1_565 S
C499 C493 1.363 . S
C499 C494 1.379 . S
C499 N497 1.356 . S
N500 C492 1.356 . S
N500 H506 0.984 1_655 S
N500 H507 0.984 . S
N501 C494 1.356 1_545 S
N501 H504 0.984 . S
N501 H505 0.985 . S
H502 N497 0.984 . S
H503 N497 0.985 . S
H504 N501 0.984 . S
H505 N501 0.985 . S
H506 N500 0.984 1_455 S
H507 N500 0.984 . S
H508 N496 0.984 1_455 S
H509 N496 0.985 . S
C510 C511 1.363 . S
C510 C516 1.379 . S
C510 N518 1.356 . S
C511 C510 1.363 . S
C511 C517 1.363 . S
C512 C513 1.363 . S
C512 C517 1.379 . S
C512 N519 1.356 . S
C513 C512 1.363 . S
C513 C516 1.363 . S
N514 C516 1.356 . S
N514 H526 0.984 . S
N514 H527 0.985 . S
N515 C517 1.356 . S
N515 H520 0.984 . S
N515 H521 0.985 . S
C516 C510 1.379 . S
C516 C513 1.363 . S
C516 N514 1.356 . S
C517 C511 1.363 . S
C517 C512 1.379 . S
C517 N515 1.356 . S
N518 C510 1.356 . S
N518 H524 0.984 . S
N518 H525 0.984 . S
N519 C512 1.356 . S
N519 H522 0.984 . S
N519 H523 0.985 . S
H520 N515 0.984 . S
H521 N515 0.985 . S
H522 N519 0.984 . S
H523 N519 0.985 . S
H524 N518 0.984 . S
H525 N518 0.984 . S
H526 N514 0.984 . S
H527 N514 0.985 . S
C528 C529 1.363 1_556 S
C528 C534 1.379 . S
C528 N536 1.356 1_556 S
C529 C528 1.363 1_554 S
C529 C535 1.363 1_554 S
C530 C531 1.363 . S
C530 C535 1.379 . S
C530 N537 1.356 . S
C531 C530 1.363 . S
C531 C534 1.363 . S
N532 C534 1.356 . S
N532 H544 0.984 . S
N532 H545 0.985 . S
N533 C535 1.356 1_554 S
N533 H538 0.984 . S
N533 H539 0.985 . S
C534 C528 1.379 . S
C534 C531 1.363 . S
C534 N532 1.356 . S
C535 C529 1.363 1_556 S
C535 C530 1.379 . S
C535 N533 1.356 1_556 S
N536 C528 1.356 1_554 S
N536 H542 0.984 . S
N536 H543 0.984 . S
N537 C530 1.356 . S
N537 H540 0.984 . S
N537 H541 0.985 . S
H538 N533 0.984 . S
H539 N533 0.985 . S
H540 N537 0.984 . S
H541 N537 0.985 . S
H542 N536 0.984 . S
H543 N536 0.984 . S
H544 N532 0.984 . S
H545 N532 0.985 . S
C546 C547 1.363 1_556 S
C546 C552 1.379 . S
C546 N554 1.356 1_556 S
C547 C546 1.363 1_554 S
C547 C553 1.363 1_554 S
C548 C549 1.363 . S
C548 C553 1.379 . S
C548 N555 1.356 . S
C549 C548 1.363 . S
C549 C552 1.363 . S
N550 C552 1.356 . S
N550 H562 0.984 . S
N550 H563 0.985 . S
N551 C553 1.356 1_554 S
N551 H556 0.984 . S
N551 H557 0.985 . S
C552 C546 1.379 . S
C552 C549 1.363 . S
C552 N550 1.356 . S
C553 C547 1.363 1_556 S
C553 C548 1.379 . S
C553 N551 1.356 1_556 S
N554 C546 1.356 1_554 S
N554 H560 0.984 1_554 S
N554 H561 0.984 . S
N555 C548 1.356 . S
N555 H558 0.984 . S
N555 H559 0.985 . S
H556 N551 0.984 . S
H557 N551 0.985 . S
H558 N555 0.984 . S
H559 N555 0.985 . S
H560 N554 0.984 1_556 S
H561 N554 0.984 . S
H562 N550 0.984 . S
H563 N550 0.985 . S
C564 C565 1.363 . S
C564 C570 1.379 . S
C564 N572 1.356 . S
C565 C564 1.363 . S
C565 C571 1.363 . S
C566 C567 1.363 . S
C566 C571 1.379 . S
C566 N573 1.356 . S
C567 C566 1.363 . S
C567 C570 1.363 . S
N568 C570 1.356 . S
N568 H580 0.984 . S
N568 H581 0.985 . S
N569 C571 1.356 . S
N569 H574 0.984 . S
N569 H575 0.985 . S
C570 C564 1.379 . S
C570 C567 1.363 . S
C570 N568 1.356 . S
C571 C565 1.363 . S
C571 C566 1.379 . S
C571 N569 1.356 . S
N572 C564 1.356 . S
N572 H578 0.984 . S
N572 H579 0.984 . S
N573 C566 1.356 . S
N573 H576 0.984 . S
N573 H577 0.985 . S
H574 N569 0.984 . S
H575 N569 0.985 . S
H576 N573 0.984 . S
H577 N573 0.985 . S
H578 N572 0.984 . S
H579 N572 0.984 . S
H580 N568 0.984 . S
H581 N568 0.985 . S
C582 C583 1.363 . S
C582 C588 1.379 . S
C582 N590 1.356 . S
C583 C582 1.363 . S
C583 C589 1.363 . S
C584 C585 1.363 . S
C584 C589 1.379 . S
C584 N591 1.356 . S
C585 C584 1.363 . S
C585 C588 1.363 . S
N586 C588 1.356 . S
N586 H598 0.984 . S
N586 H599 0.985 . S
N587 C589 1.356 . S
N587 H592 0.984 . S
N587 H593 0.985 . S
C588 C582 1.379 . S
C588 C585 1.363 . S
C588 N586 1.356 . S
C589 C583 1.363 . S
C589 C584 1.379 . S
C589 N587 1.356 . S
N590 C582 1.356 . S
N590 H596 0.965 1_545 S
N590 H597 0.984 . S
N591 C584 1.356 . S
N591 H594 0.984 . S
N591 H595 0.985 . S
H592 N587 0.984 . S
H593 N587 0.985 . S
H594 N591 0.984 . S
H595 N591 0.985 . S
H596 N590 0.965 1_565 S
H597 N590 0.984 . S
H598 N586 0.984 . S
H599 N586 0.985 . S
C600 C601 1.355 1_655 S
C600 C606 1.403 . S
C600 N608 1.335 1_655 S
C601 C600 1.355 1_455 S
C601 C607 1.363 1_455 S
C602 C603 1.363 . S
C602 C607 1.379 . S
C602 N609 1.356 . S
C603 C602 1.363 . S
C603 C606 1.363 . S
N604 C606 1.356 . S
N604 H616 0.984 . S
N604 H617 0.985 . S
N605 C607 1.356 1_455 S
N605 H610 0.984 . S
N605 H611 0.985 1_455 S
C606 C600 1.403 . S
C606 C603 1.363 . S
C606 N604 1.356 . S
C607 C601 1.363 1_655 S
C607 C602 1.379 . S
C607 N605 1.356 1_655 S
N608 C600 1.335 1_455 S
N608 H614 0.984 . S
N608 H615 0.984 . S
N609 C602 1.356 . S
N609 H612 0.984 . S
N609 H613 0.985 . S
H610 N605 0.984 . S
H611 N605 0.985 1_655 S
H612 N609 0.984 . S
H613 N609 0.985 . S
H614 N608 0.984 . S
H615 N608 0.984 . S
H616 N604 0.984 . S
H617 N604 0.985 . S
C618 C619 1.363 1_455 S
C618 C624 1.379 . S
C618 N626 1.356 1_455 S
C619 C618 1.363 1_655 S
C619 C625 1.363 1_655 S
C620 C621 1.363 . S
C620 C625 1.379 . S
C620 N627 1.356 . S
C621 C620 1.363 . S
C621 C624 1.363 . S
N622 C624 1.356 . S
N622 H634 0.984 . S
N622 H635 0.985 . S
N623 C625 1.356 1_655 S
N623 H628 0.984 . S
N623 H629 0.985 . S
C624 C618 1.379 . S
C624 C621 1.363 . S
C624 N622 1.356 . S
C625 C619 1.363 1_455 S
C625 C620 1.379 . S
C625 N623 1.356 1_455 S
N626 C618 1.356 1_655 S
N626 H632 0.984 . S
N626 H633 0.984 . S
N627 C620 1.356 . S
N627 H630 0.984 . S
N627 H631 0.985 . S
H628 N623 0.984 . S
H629 N623 0.985 . S
H630 N627 0.984 . S
H631 N627 0.985 . S
H632 N626 0.984 . S
H633 N626 0.984 . S
H634 N622 0.984 . S
H635 N622 0.985 . S
C636 C637 1.363 1_655 S
C636 C642 1.379 . S
C636 N644 1.356 1_655 S
C637 C636 1.363 1_455 S
C637 C643 1.363 1_455 S
C638 C639 1.363 . S
C638 C643 1.379 . S
C638 N645 1.356 . S
C639 C638 1.363 . S
C639 C642 1.363 . S
N640 C642 1.356 . S
N640 H652 0.984 . S
N640 H653 0.985 . S
N641 C643 1.356 1_455 S
N641 H646 0.984 . S
N641 H647 0.979 1_455 S
C642 C636 1.379 . S
C642 C639 1.363 . S
C642 N640 1.356 . S
C643 C637 1.363 1_655 S
C643 C638 1.379 . S
C643 N641 1.356 1_655 S
N644 C636 1.356 1_455 S
N644 H650 0.984 . S
N644 H651 0.984 . S
N645 C638 1.356 . S
N645 H648 0.984 . S
N645 H649 0.977 1_556 S
H646 N641 0.984 . S
H647 N641 0.979 1_655 S
H648 N645 0.984 . S
H649 N645 0.977 1_554 S
H650 N644 0.984 . S
H651 N644 0.984 . S
H652 N640 0.984 . S
H653 N640 0.985 . S
C654 C655 1.363 . S
C654 C660 1.379 . S
C654 N662 1.356 . S
C655 C654 1.363 . S
C655 C661 1.363 . S
C656 C657 1.363 1_455 S
C656 C661 1.379 . S
C656 N663 1.356 1_455 S
C657 C656 1.363 1_655 S
C657 C660 1.363 1_655 S
N658 C660 1.356 1_655 S
N658 H670 0.984 . S
N658 H671 0.985 . S
N659 C661 1.356 . S
N659 H664 0.984 . S
N659 H665 0.985 . S
C660 C654 1.379 . S
C660 C657 1.363 1_455 S
C660 N658 1.356 1_455 S
C661 C655 1.363 . S
C661 C656 1.379 . S
C661 N659 1.356 . S
N662 C654 1.356 . S
N662 H668 0.984 . S
N662 H669 0.984 . S
N663 C656 1.356 1_655 S
N663 H666 0.984 . S
N663 H667 0.985 . S
H664 N659 0.984 . S
H665 N659 0.985 . S
H666 N663 0.984 . S
H667 N663 0.985 . S
H668 N662 0.984 . S
H669 N662 0.984 . S
H670 N658 0.984 . S
H671 N658 0.985 . S
C672 C673 1.363 . S
C672 C678 1.379 1_545 S
C672 N680 1.356 . S
C673 C672 1.363 . S
C673 C679 1.363 1_545 S
C674 C675 1.363 . S
C674 C679 1.379 . S
C674 N681 1.356 . S
C675 C674 1.363 . S
C675 C678 1.363 . S
N676 C678 1.356 . S
N676 H688 0.984 . S
N676 H689 0.985 . S
N677 C679 1.356 1_545 S
N677 H682 0.984 . S
N677 H683 0.985 1_545 S
C678 C672 1.379 1_565 S
C678 C675 1.363 . S
C678 N676 1.356 . S
C679 C673 1.363 1_565 S
C679 C674 1.379 . S
C679 N677 1.356 1_565 S
N680 C672 1.356 . S
N680 H686 0.984 . S
N680 H687 0.984 . S
N681 C674 1.356 . S
N681 H684 0.984 . S
N681 H685 0.985 . S
H682 N677 0.984 . S
H683 N677 0.985 1_565 S
H684 N681 0.984 . S
H685 N681 0.985 . S
H686 N680 0.984 . S
H687 N680 0.984 . S
H688 N676 0.984 . S
H689 N676 0.985 . S
C690 C691 1.363 . S
C690 C696 1.379 . S
C690 N698 1.356 . S
C691 C690 1.363 . S
C691 C697 1.363 . S
C692 C693 1.363 1_545 S
C692 C697 1.379 . S
C692 N699 1.356 1_545 S
C693 C692 1.363 1_565 S
C693 C696 1.363 1_565 S
N694 C696 1.356 1_565 S
N694 H706 0.984 . S
N694 H707 0.985 . S
N695 C697 1.356 . S
N695 H700 0.984 . S
N695 H701 0.985 . S
C696 C690 1.379 . S
C696 C693 1.363 1_545 S
C696 N694 1.356 1_545 S
C697 C691 1.363 . S
C697 C692 1.379 . S
C697 N695 1.356 . S
N698 C690 1.356 . S
N698 H704 0.984 . S
N698 H705 0.984 . S
N699 C692 1.356 1_565 S
N699 H702 0.984 . S
N699 H703 0.985 . S
H700 N695 0.984 . S
H701 N695 0.985 . S
H702 N699 0.984 . S
H703 N699 0.985 . S
H704 N698 0.984 . S
H705 N698 0.984 . S
H706 N694 0.984 . S
H707 N694 0.985 . S
C708 C709 1.363 . S
C708 C714 1.379 . S
C708 N716 1.356 . S
C709 C708 1.363 . S
C709 C715 1.363 . S
C710 C711 1.363 . S
C710 C715 1.379 . S
C710 N717 1.356 . S
C711 C710 1.363 . S
C711 C714 1.363 . S
N712 C714 1.356 . S
N712 H724 0.984 . S
N712 H725 0.985 . S
N713 C715 1.356 . S
N713 H718 0.984 . S
N713 H719 0.985 . S
C714 C708 1.379 . S
C714 C711 1.363 . S
C714 N712 1.356 . S
C715 C709 1.363 . S
C715 C710 1.379 . S
C715 N713 1.356 . S
N716 C708 1.356 . S
N716 H722 0.984 . S
N716 H723 0.984 . S
N717 C710 1.356 . S
N717 H720 0.984 . S
N717 H721 0.985 . S
H718 N713 0.984 . S
H719 N713 0.985 . S
H720 N717 0.984 . S
H721 N717 0.985 . S
H722 N716 0.984 . S
H723 N716 0.984 . S
H724 N712 0.984 . S
H725 N712 0.985 . S
C726 C727 1.363 . S
C726 C732 1.379 . S
C726 N734 1.356 . S
C727 C726 1.363 . S
C727 C733 1.363 . S
C728 C729 1.363 1_545 S
C728 C733 1.379 . S
C728 N735 1.356 1_545 S
C729 C728 1.363 1_565 S
C729 C732 1.363 1_565 S
N730 C732 1.356 1_565 S
N730 H742 0.984 . S
N730 H743 0.985 . S
N731 C733 1.356 . S
N731 H736 0.984 . S
N731 H737 0.985 . S
C732 C726 1.379 . S
C732 C729 1.363 1_545 S
C732 N730 1.356 1_545 S
C733 C727 1.363 . S
C733 C728 1.379 . S
C733 N731 1.356 . S
N734 C726 1.356 . S
N734 H740 0.984 . S
N734 H741 0.984 . S
N735 C728 1.356 1_565 S
N735 H738 0.984 . S
N735 H739 0.985 . S
H736 N731 0.984 . S
H737 N731 0.985 . S
H738 N735 0.984 . S
H739 N735 0.985 . S
H740 N734 0.984 . S
H741 N734 0.984 . S
H742 N730 0.984 . S
H743 N730 0.985 . S
C744 C745 1.363 1_455 S
C744 C750 1.379 . S
C744 N752 1.356 . S
C745 C744 1.363 1_655 S
C745 C751 1.363 . S
C746 C747 1.363 1_655 S
C746 C751 1.379 . S
C746 N753 1.356 . S
C747 C746 1.363 1_455 S
C747 C750 1.363 . S
N748 C750 1.356 . S
N748 H760 0.984 . S
N748 H761 0.985 . S
N749 C751 1.356 . S
N749 H754 0.984 . S
N749 H755 0.985 . S
C750 C744 1.379 . S
C750 C747 1.363 . S
C750 N748 1.356 . S
C751 C745 1.363 . S
C751 C746 1.379 . S
C751 N749 1.356 . S
N752 C744 1.356 . S
N752 H758 0.984 . S
N752 H759 0.984 . S
N753 C746 1.356 . S
N753 H756 0.984 . S
N753 H757 0.985 . S
H754 N749 0.984 . S
H755 N749 0.985 . S
H756 N753 0.984 . S
H757 N753 0.985 . S
H758 N752 0.984 . S
H759 N752 0.984 . S
H760 N748 0.984 . S
H761 N748 0.985 . S
C762 C763 1.363 . S
C762 C768 1.379 . S
C762 N770 1.356 . S
C763 C762 1.363 . S
C763 C769 1.363 1_455 S
C764 C765 1.363 . S
C764 C769 1.379 . S
C764 N771 1.356 . S
C765 C764 1.363 . S
C765 C768 1.363 1_655 S
N766 C768 1.356 . S
N766 H778 0.984 . S
N766 H779 0.985 . S
N767 C769 1.356 . S
N767 H772 0.984 . S
N767 H773 0.985 . S
C768 C762 1.379 . S
C768 C765 1.363 1_455 S
C768 N766 1.356 . S
C769 C763 1.363 1_655 S
C769 C764 1.379 . S
C769 N767 1.356 . S
N770 C762 1.356 . S
N770 H776 0.984 . S
N770 H777 0.984 . S
N771 C764 1.356 . S
N771 H774 0.984 . S
N771 H775 0.985 . S
H772 N767 0.984 . S
H773 N767 0.985 . S
H774 N771 0.984 . S
H775 N771 0.985 . S
H776 N770 0.984 . S
H777 N770 0.984 . S
H778 N766 0.984 . S
H779 N766 0.985 . S
C780 C781 1.363 1_545 S
C780 C786 1.379 . S
C780 N788 1.356 . S
C781 C780 1.363 1_565 S
C781 C787 1.363 . S
C782 C783 1.363 1_565 S
C782 C787 1.379 . S
C782 N789 1.356 . S
C783 C782 1.363 1_545 S
C783 C786 1.363 . S
N784 C786 1.356 . S
N784 H796 0.984 . S
N784 H797 0.985 . S
N785 C787 1.356 . S
N785 H790 0.984 . S
N785 H791 0.985 . S
C786 C780 1.379 . S
C786 C783 1.363 . S
C786 N784 1.356 . S
C787 C781 1.363 . S
C787 C782 1.379 . S
C787 N785 1.356 . S
N788 C780 1.356 . S
N788 H794 0.984 . S
N788 H795 0.984 . S
N789 C782 1.356 . S
N789 H792 0.984 . S
N789 H793 0.985 . S
H790 N785 0.984 . S
H791 N785 0.985 . S
H792 N789 0.984 . S
H793 N789 0.985 . S
H794 N788 0.984 . S
H795 N788 0.984 . S
H796 N784 0.984 . S
H797 N784 0.985 . S
C798 C799 1.363 . S
C798 C804 1.379 . S
C798 N806 1.356 . S
C799 C798 1.363 . S
C799 C805 1.363 . S
C800 C801 1.363 . S
C800 C805 1.379 . S
C800 N807 1.356 . S
C801 C800 1.363 . S
C801 C804 1.363 . S
N802 C804 1.356 . S
N802 H814 0.984 . S
N802 H815 0.985 . S
N803 C805 1.356 . S
N803 H808 0.984 . S
N803 H809 0.985 . S
C804 C798 1.379 . S
C804 C801 1.363 . S
C804 N802 1.356 . S
C805 C799 1.363 . S
C805 C800 1.379 . S
C805 N803 1.356 . S
N806 C798 1.356 . S
N806 H812 0.984 . S
N806 H813 0.984 . S
N807 C800 1.356 . S
N807 H810 0.984 . S
N807 H811 0.985 . S
H808 N803 0.984 . S
H809 N803 0.985 . S
H810 N807 0.984 . S
H811 N807 0.985 . S
H812 N806 0.984 . S
H813 N806 0.984 . S
H814 N802 0.984 . S
H815 N802 0.985 . S
C816 C817 1.363 . S
C816 C822 1.379 . S
C816 N824 1.356 . S
C817 C816 1.363 . S
C817 C823 1.363 1_554 S
C818 C819 1.363 . S
C818 C823 1.379 . S
C818 N825 1.356 . S
C819 C818 1.363 . S
C819 C822 1.363 1_556 S
N820 C822 1.356 . S
N820 H832 0.984 . S
N820 H833 0.985 . S
N821 C823 1.356 . S
N821 H826 0.984 . S
N821 H827 0.985 . S
C822 C816 1.379 . S
C822 C819 1.363 1_554 S
C822 N820 1.356 . S
C823 C817 1.363 1_556 S
C823 C818 1.379 . S
C823 N821 1.356 . S
N824 C816 1.356 . S
N824 H830 0.984 . S
N824 H831 0.984 . S
N825 C818 1.356 . S
N825 H828 0.984 . S
N825 H829 0.985 . S
H826 N821 0.984 . S
H827 N821 0.985 . S
H828 N825 0.984 . S
H829 N825 0.985 . S
H830 N824 0.984 . S
H831 N824 0.984 . S
H832 N820 0.984 . S
H833 N820 0.985 . S
C834 C835 1.363 . S
C834 C840 1.379 . S
C834 N842 1.356 . S
C835 C834 1.363 . S
C835 C841 1.363 . S
C836 C837 1.363 . S
C836 C841 1.379 . S
C836 N843 1.356 . S
C837 C836 1.363 . S
C837 C840 1.363 . S
N838 C840 1.356 . S
N838 H850 0.984 . S
N838 H851 0.985 . S
N839 C841 1.356 . S
N839 H844 0.984 . S
N839 H845 0.985 . S
C840 C834 1.379 . S
C840 C837 1.363 . S
C840 N838 1.356 . S
C841 C835 1.363 . S
C841 C836 1.379 . S
C841 N839 1.356 . S
N842 C834 1.356 . S
N842 H848 0.984 . S
N842 H849 0.984 . S
N843 C836 1.356 . S
N843 H846 0.984 . S
N843 H847 0.985 . S
H844 N839 0.984 . S
H845 N839 0.985 . S
H846 N843 0.984 . S
H847 N843 0.985 . S
H848 N842 0.984 . S
H849 N842 0.984 . S
H850 N838 0.984 . S
H851 N838 0.985 . S
C852 C853 1.363 . S
C852 C858 1.379 . S
C852 N860 1.356 . S
C853 C852 1.363 . S
C853 C859 1.363 . S
C854 C855 1.363 . S
C854 C859 1.379 . S
C854 N861 1.356 . S
C855 C854 1.363 . S
C855 C858 1.363 . S
N856 C858 1.356 . S
N856 H868 0.984 . S
N856 H869 0.985 . S
N857 C859 1.356 . S
N857 H862 0.984 . S
N857 H863 0.985 . S
C858 C852 1.379 . S
C858 C855 1.363 . S
C858 N856 1.356 . S
C859 C853 1.363 . S
C859 C854 1.379 . S
C859 N857 1.356 . S
N860 C852 1.356 . S
N860 H866 0.984 . S
N860 H867 0.984 . S
N861 C854 1.356 . S
N861 H864 0.984 . S
N861 H865 0.985 . S
H862 N857 0.984 . S
H863 N857 0.985 . S
H864 N861 0.984 . S
H865 N861 0.985 . S
H866 N860 0.984 . S
H867 N860 0.984 . S
H868 N856 0.984 . S
H869 N856 0.985 . S
C870 C871 1.363 . S
C870 C876 1.379 . S
C870 N878 1.356 . S
C871 C870 1.363 . S
C871 C877 1.363 . S
C872 C873 1.363 . S
C872 C877 1.379 . S
C872 N879 1.356 . S
C873 C872 1.363 . S
C873 C876 1.363 . S
N874 C876 1.356 . S
N874 H886 0.984 . S
N874 H887 0.985 . S
N875 C877 1.356 . S
N875 H880 0.984 . S
N875 H881 0.985 . S
C876 C870 1.379 . S
C876 C873 1.363 . S
C876 N874 1.356 . S
C877 C871 1.363 . S
C877 C872 1.379 . S
C877 N875 1.356 . S
N878 C870 1.356 . S
N878 H884 0.984 . S
N878 H885 0.984 . S
N879 C872 1.356 . S
N879 H882 0.984 . S
N879 H883 0.985 . S
H880 N875 0.984 . S
H881 N875 0.985 . S
H882 N879 0.984 . S
H883 N879 0.985 . S
H884 N878 0.984 . S
H885 N878 0.984 . S
H886 N874 0.984 . S
H887 N874 0.985 . S
C888 C889 1.363 . S
C888 C894 1.379 . S
C888 N896 1.356 . S
C889 C888 1.363 . S
C889 C895 1.363 . S
C890 C891 1.363 . S
C890 C895 1.379 . S
C890 N897 1.356 . S
C891 C890 1.363 . S
C891 C894 1.363 . S
N892 C894 1.356 . S
N892 H904 0.984 . S
N892 H905 0.985 . S
N893 C895 1.356 . S
N893 H898 0.984 . S
N893 H899 0.985 . S
C894 C888 1.379 . S
C894 C891 1.363 . S
C894 N892 1.356 . S
C895 C889 1.363 . S
C895 C890 1.379 . S
C895 N893 1.356 . S
N896 C888 1.356 . S
N896 H902 0.984 . S
N896 H903 0.984 . S
N897 C890 1.356 . S
N897 H900 0.984 . S
N897 H901 0.985 . S
H898 N893 0.984 . S
H899 N893 0.985 . S
H900 N897 0.984 . S
H901 N897 0.985 . S
H902 N896 0.984 . S
H903 N896 0.984 . S
H904 N892 0.984 . S
H905 N892 0.985 . S
C906 C907 1.363 . S
C906 C912 1.379 . S
C906 N914 1.356 . S
C907 C906 1.363 . S
C907 C913 1.363 . S
C908 C909 1.363 . S
C908 C913 1.379 . S
C908 N915 1.356 . S
C909 C908 1.363 . S
C909 C912 1.363 . S
N910 C912 1.356 . S
N910 H922 0.984 . S
N910 H923 0.985 . S
N911 C913 1.356 . S
N911 H916 0.984 . S
N911 H917 0.985 . S
C912 C906 1.379 . S
C912 C909 1.363 . S
C912 N910 1.356 . S
C913 C907 1.363 . S
C913 C908 1.379 . S
C913 N911 1.356 . S
N914 C906 1.356 . S
N914 H920 0.984 . S
N914 H921 0.984 . S
N915 C908 1.356 . S
N915 H918 0.984 . S
N915 H919 0.985 . S
H916 N911 0.984 . S
H917 N911 0.985 . S
H918 N915 0.984 . S
H919 N915 0.985 . S
H920 N914 0.984 . S
H921 N914 0.984 . S
H922 N910 0.984 . S
H923 N910 0.985 . S
C924 C925 1.363 1_565 S
C924 C930 1.379 . S
C924 N932 1.356 . S
C925 C924 1.363 1_545 S
C925 C931 1.363 . S
C926 C927 1.363 1_545 S
C926 C931 1.379 . S
C926 N933 1.356 . S
C927 C926 1.363 1_565 S
C927 C930 1.363 . S
N928 C930 1.356 . S
N928 H940 0.984 . S
N928 H941 0.985 . S
N929 C931 1.356 . S
N929 H934 0.984 . S
N929 H935 0.985 . S
C930 C924 1.379 . S
C930 C927 1.363 . S
C930 N928 1.356 . S
C931 C925 1.363 . S
C931 C926 1.379 . S
C931 N929 1.356 . S
N932 C924 1.356 . S
N932 H938 0.984 . S
N932 H939 0.984 1_565 S
N933 C926 1.356 . S
N933 H936 0.982 1_545 S
N933 H937 0.985 . S
H934 N929 0.984 . S
H935 N929 0.985 . S
H936 N933 0.982 1_565 S
H937 N933 0.985 . S
H938 N932 0.984 . S
H939 N932 0.984 1_545 S
H940 N928 0.984 . S
H941 N928 0.985 . S
C942 C943 1.363 1_554 S
C942 C948 1.379 . S
C942 N950 1.356 . S
C943 C942 1.363 1_556 S
C943 C949 1.363 . S
C944 C945 1.363 1_556 S
C944 C949 1.379 . S
C944 N951 1.356 . S
C945 C944 1.363 1_554 S
C945 C948 1.363 . S
N946 C948 1.356 . S
N946 H958 0.984 . S
N946 H959 0.985 . S
N947 C949 1.356 . S
N947 H952 0.984 . S
N947 H953 0.985 . S
C948 C942 1.379 . S
C948 C945 1.363 . S
C948 N946 1.356 . S
C949 C943 1.363 . S
C949 C944 1.379 . S
C949 N947 1.356 . S
N950 C942 1.356 . S
N950 H956 0.984 . S
N950 H957 0.984 . S
N951 C944 1.356 . S
N951 H954 0.984 . S
N951 H955 0.985 . S
H952 N947 0.984 . S
H953 N947 0.985 . S
H954 N951 0.984 . S
H955 N951 0.985 . S
H956 N950 0.984 . S
H957 N950 0.984 . S
H958 N946 0.984 . S
H959 N946 0.985 . S
C960 C961 1.363 . S
C960 C966 1.379 1_565 S
C960 N968 1.356 . S
C961 C960 1.363 . S
C961 C967 1.363 1_455 S
C962 C963 1.363 1_665 S
C962 C967 1.379 . S
C962 N969 1.356 1_565 S
C963 C962 1.363 1_445 S
C963 C966 1.363 . S
N964 C966 1.356 . S
N964 H976 0.984 . S
N964 H977 0.985 . S
N965 C967 1.356 . S
N965 H970 0.984 . S
N965 H971 0.985 . S
C966 C960 1.379 1_545 S
C966 C963 1.363 . S
C966 N964 1.356 . S
C967 C961 1.363 1_655 S
C967 C962 1.379 . S
C967 N965 1.356 . S
N968 C960 1.356 . S
N968 H974 0.984 1_565 S
N968 H975 0.984 . S
N969 C962 1.356 1_545 S
N969 H972 0.984 . S
N969 H973 0.985 1_545 S
H970 N965 0.984 . S
H971 N965 0.985 . S
H972 N969 0.984 . S
H973 N969 0.985 1_565 S
H974 N968 0.984 1_545 S
H975 N968 0.984 . S
H976 N964 0.984 . S
H977 N964 0.985 . S
C978 C979 1.363 1_455 S
C978 C984 1.379 . S
C978 N986 1.356 . S
C979 C978 1.363 1_655 S
C979 C985 1.363 . S
C980 C981 1.363 . S
C980 C985 1.379 . S
C980 N987 1.356 . S
C981 C980 1.363 . S
C981 C984 1.363 1_655 S
N982 C984 1.356 . S
N982 H994 0.984 . S
N982 H995 0.985 . S
N983 C985 1.356 . S
N983 H988 0.984 . S
N983 H989 0.985 . S
C984 C978 1.379 . S
C984 C981 1.363 1_455 S
C984 N982 1.356 . S
C985 C979 1.363 . S
C985 C980 1.379 . S
C985 N983 1.356 . S
N986 C978 1.356 . S
N986 H992 0.984 . S
N986 H993 0.984 . S
N987 C980 1.356 . S
N987 H990 0.984 . S
N987 H991 0.985 . S
H988 N983 0.984 . S
H989 N983 0.985 . S
H990 N987 0.984 . S
H991 N987 0.985 . S
H992 N986 0.984 . S
H993 N986 0.984 . S
H994 N982 0.984 . S
H995 N982 0.985 . S
C996 C997 1.363 . S
C996 C1002 1.379 . S
C996 N1004 1.356 . S
C997 C996 1.363 . S
C997 C1003 1.363 1_556 S
C998 C999 1.363 . S
C998 C1003 1.379 . S
C998 N1005 1.356 . S
C999 C998 1.363 . S
C999 C1002 1.363 1_554 S
N1000 C1002 1.356 . S
N1000 H1012 0.984 . S
N1000 H1013 0.985 1_556 S
N1001 C1003 1.356 1_556 S
N1001 H1006 0.984 . S
N1001 H1007 0.985 1_556 S
C1002 C996 1.379 . S
C1002 C999 1.363 1_556 S
C1002 N1000 1.356 . S
C1003 C997 1.363 1_554 S
C1003 C998 1.379 . S
C1003 N1001 1.356 1_554 S
N1004 C996 1.356 . S
N1004 H1010 0.984 . S
N1004 H1011 0.984 . S
N1005 C998 1.356 . S
N1005 H1008 0.984 . S
N1005 H1009 0.985 . S
H1006 N1001 0.984 . S
H1007 N1001 0.985 1_554 S
H1008 N1005 0.984 . S
H1009 N1005 0.985 . S
H1010 N1004 0.984 . S
H1011 N1004 0.984 . S
H1012 N1000 0.984 . S
H1013 N1000 0.985 1_554 S
C1014 C1015 1.363 . S
C1014 C1020 1.379 1_554 S
C1014 N1022 1.356 . S
C1015 C1014 1.363 . S
C1015 C1021 1.363 . S
C1016 C1017 1.363 . S
C1016 C1021 1.379 1_556 S
C1016 N1023 1.356 . S
C1017 C1016 1.363 . S
C1017 C1020 1.363 . S
N1018 C1020 1.356 . S
N1018 H1030 0.984 . S
N1018 H1031 0.985 . S
N1019 C1021 1.356 . S
N1019 H1024 0.984 . S
N1019 H1025 0.985 . S
C1020 C1014 1.379 1_556 S
C1020 C1017 1.363 . S
C1020 N1018 1.356 . S
C1021 C1015 1.363 . S
C1021 C1016 1.379 1_554 S
C1021 N1019 1.356 . S
N1022 C1014 1.356 . S
N1022 H1028 0.984 1_554 S
N1022 H1029 0.984 . S
N1023 C1016 1.356 . S
N1023 H1026 0.984 . S
N1023 H1027 0.988 . S
H1024 N1019 0.984 . S
H1025 N1019 0.985 . S
H1026 N1023 0.984 . S
H1027 N1023 0.988 . S
H1028 N1022 0.984 1_556 S
H1029 N1022 0.984 . S
H1030 N1018 0.984 . S
H1031 N1018 0.985 . S
C1032 C1033 1.363 1_545 S
C1032 C1038 1.379 . S
C1032 N1040 1.356 . S
C1033 C1032 1.363 1_565 S
C1033 C1039 1.363 . S
C1034 C1035 1.363 . S
C1034 C1039 1.379 . S
C1034 N1041 1.356 . S
C1035 C1034 1.363 . S
C1035 C1038 1.363 1_565 S
N1036 C1038 1.356 . S
N1036 H1048 0.984 . S
N1036 H1049 0.985 . S
N1037 C1039 1.356 . S
N1037 H1042 0.984 . S
N1037 H1043 0.985 . S
C1038 C1032 1.379 . S
C1038 C1035 1.363 1_545 S
C1038 N1036 1.356 . S
C1039 C1033 1.363 . S
C1039 C1034 1.379 . S
C1039 N1037 1.356 . S
N1040 C1032 1.356 . S
N1040 H1046 0.984 . S
N1040 H1047 0.984 . S
N1041 C1034 1.356 . S
N1041 H1044 0.984 . S
N1041 H1045 0.985 . S
H1042 N1037 0.984 . S
H1043 N1037 0.985 . S
H1044 N1041 0.984 . S
H1045 N1041 0.985 . S
H1046 N1040 0.984 . S
H1047 N1040 0.984 . S
H1048 N1036 0.984 . S
H1049 N1036 0.985 . S
C1050 C1051 1.363 . S
C1050 C1056 1.379 . S
C1050 N1058 1.356 . S
C1051 C1050 1.363 . S
C1051 C1057 1.363 . S
C1052 C1053 1.363 . S
C1052 C1057 1.379 . S
C1052 N1059 1.356 . S
C1053 C1052 1.363 . S
C1053 C1056 1.363 . S
N1054 C1056 1.356 . S
N1054 H1066 0.984 . S
N1054 H1067 0.985 . S
N1055 C1057 1.356 . S
N1055 H1060 0.984 . S
N1055 H1061 0.985 . S
C1056 C1050 1.379 . S
C1056 C1053 1.363 . S
C1056 N1054 1.356 . S
C1057 C1051 1.363 . S
C1057 C1052 1.379 . S
C1057 N1055 1.356 . S
N1058 C1050 1.356 . S
N1058 H1064 0.984 . S
N1058 H1065 0.984 . S
N1059 C1052 1.356 . S
N1059 H1062 0.984 . S
N1059 H1063 0.985 . S
H1060 N1055 0.984 . S
H1061 N1055 0.985 . S
H1062 N1059 0.984 . S
H1063 N1059 0.985 . S
H1064 N1058 0.984 . S
H1065 N1058 0.984 . S
H1066 N1054 0.984 . S
H1067 N1054 0.985 . S
C1068 C1069 1.363 1_556 S
C1068 C1074 1.379 1_455 S
C1068 N1076 1.356 . S
C1069 C1068 1.363 1_554 S
C1069 C1075 1.363 . S
C1070 C1071 1.363 . S
C1070 C1075 1.379 1_655 S
C1070 N1077 1.356 . S
C1071 C1070 1.363 . S
C1071 C1074 1.363 1_554 S
N1072 C1074 1.356 . S
N1072 H1084 0.984 . S
N1072 H1085 0.985 . S
N1073 C1075 1.356 . S
N1073 H1078 0.984 . S
N1073 H1079 0.985 . S
C1074 C1068 1.379 1_655 S
C1074 C1071 1.363 1_556 S
C1074 N1072 1.356 . S
C1075 C1069 1.363 . S
C1075 C1070 1.379 1_455 S
C1075 N1073 1.356 . S
N1076 C1068 1.356 . S
N1076 H1082 0.984 . S
N1076 H1083 0.984 . S
N1077 C1070 1.356 . S
N1077 H1080 0.984 . S
N1077 H1081 0.985 . S
H1078 N1073 0.984 . S
H1079 N1073 0.985 . S
H1080 N1077 0.984 . S
H1081 N1077 0.985 . S
H1082 N1076 0.984 . S
H1083 N1076 0.984 . S
H1084 N1072 0.984 . S
H1085 N1072 0.985 . S
C1086 C1087 1.377 . S
C1086 C1092 1.364 1_455 S
C1086 N1094 1.363 . S
C1087 C1086 1.377 . S
C1087 C1093 1.363 . S
C1088 C1089 1.363 . S
C1088 C1093 1.379 1_655 S
C1088 N1095 1.356 . S
C1089 C1088 1.363 . S
C1089 C1092 1.363 . S
N1090 C1092 1.356 . S
N1090 H1102 0.984 . S
N1090 H1103 0.985 . S
N1091 C1093 1.356 . S
N1091 H1096 0.984 . S
N1091 H1097 0.985 . S
C1092 C1086 1.364 1_655 S
C1092 C1089 1.363 . S
C1092 N1090 1.356 . S
C1093 C1087 1.363 . S
C1093 C1088 1.379 1_455 S
C1093 N1091 1.356 . S
N1094 C1086 1.363 . S
N1094 H1100 0.984 1_455 S
N1094 H1101 0.984 . S
N1095 C1088 1.356 . S
N1095 H1098 0.984 . S
N1095 H1099 0.985 . S
H1096 N1091 0.984 . S
H1097 N1091 0.985 . S
H1098 N1095 0.984 . S
H1099 N1095 0.985 . S
H1100 N1094 0.984 1_655 S
H1101 N1094 0.984 . S
H1102 N1090 0.984 . S
H1103 N1090 0.985 . S
C1104 C1105 1.363 . S
C1104 C1110 1.379 . S
C1104 N1112 1.356 . S
C1105 C1104 1.363 . S
C1105 C1111 1.363 . S
C1106 C1107 1.363 . S
C1106 C1111 1.379 . S
C1106 N1113 1.356 . S
C1107 C1106 1.363 . S
C1107 C1110 1.363 . S
N1108 C1110 1.356 . S
N1108 H1120 0.984 . S
N1108 H1121 0.985 . S
N1109 C1111 1.356 . S
N1109 H1114 0.984 . S
N1109 H1115 0.985 . S
C1110 C1104 1.379 . S
C1110 C1107 1.363 . S
C1110 N1108 1.356 . S
C1111 C1105 1.363 . S
C1111 C1106 1.379 . S
C1111 N1109 1.356 . S
N1112 C1104 1.356 . S
N1112 H1118 0.984 . S
N1112 H1119 0.984 . S
N1113 C1106 1.356 . S
N1113 H1116 0.984 . S
N1113 H1117 0.985 . S
H1114 N1109 0.984 . S
H1115 N1109 0.985 . S
H1116 N1113 0.984 . S
H1117 N1113 0.985 . S
H1118 N1112 0.984 . S
H1119 N1112 0.984 . S
H1120 N1108 0.984 . S
H1121 N1108 0.985 . S
C1122 C1123 1.363 . S
C1122 C1128 1.379 . S
C1122 N1130 1.356 . S
C1123 C1122 1.363 . S
C1123 C1129 1.363 . S
C1124 C1125 1.363 . S
C1124 C1129 1.379 . S
C1124 N1131 1.356 . S
C1125 C1124 1.363 . S
C1125 C1128 1.363 . S
N1126 C1128 1.356 . S
N1126 H1138 0.984 . S
N1126 H1139 0.985 . S
N1127 C1129 1.356 . S
N1127 H1132 0.984 . S
N1127 H1133 0.985 . S
C1128 C1122 1.379 . S
C1128 C1125 1.363 . S
C1128 N1126 1.356 . S
C1129 C1123 1.363 . S
C1129 C1124 1.379 . S
C1129 N1127 1.356 . S
N1130 C1122 1.356 . S
N1130 H1136 0.984 . S
N1130 H1137 0.984 . S
N1131 C1124 1.356 . S
N1131 H1134 0.984 . S
N1131 H1135 0.985 . S
H1132 N1127 0.984 . S
H1133 N1127 0.985 . S
H1134 N1131 0.984 . S
H1135 N1131 0.985 . S
H1136 N1130 0.984 . S
H1137 N1130 0.984 . S
H1138 N1126 0.984 . S
H1139 N1126 0.985 . S
C1140 C1141 1.363 . S
C1140 C1146 1.379 . S
C1140 N1148 1.356 . S
C1141 C1140 1.363 . S
C1141 C1147 1.363 1_565 S
C1142 C1143 1.363 . S
C1142 C1147 1.379 . S
C1142 N1149 1.356 . S
C1143 C1142 1.363 . S
C1143 C1146 1.363 1_545 S
N1144 C1146 1.356 1_545 S
N1144 H1156 0.982 1_545 S
N1144 H1157 0.987 . S
N1145 C1147 1.356 1_565 S
N1145 H1150 0.984 . S
N1145 H1151 0.985 1_565 S
C1146 C1140 1.379 . S
C1146 C1143 1.363 1_565 S
C1146 N1144 1.356 1_565 S
C1147 C1141 1.363 1_545 S
C1147 C1142 1.379 . S
C1147 N1145 1.356 1_545 S
N1148 C1140 1.356 . S
N1148 H1154 0.984 . S
N1148 H1155 0.984 . S
N1149 C1142 1.356 . S
N1149 H1152 0.984 . S
N1149 H1153 0.985 . S
H1150 N1145 0.984 . S
H1151 N1145 0.985 1_545 S
H1152 N1149 0.984 . S
H1153 N1149 0.985 . S
H1154 N1148 0.984 . S
H1155 N1148 0.984 . S
H1156 N1144 0.982 1_565 S
H1157 N1144 0.987 . S
C1158 C1159 1.363 1_554 S
C1158 C1164 1.379 . S
C1158 N1166 1.356 . S
C1159 C1158 1.363 1_556 S
C1159 C1165 1.363 . S
C1160 C1161 1.363 . S
C1160 C1165 1.379 . S
C1160 N1167 1.356 . S
C1161 C1160 1.363 . S
C1161 C1164 1.363 1_556 S
N1162 C1164 1.356 . S
N1162 H1174 0.984 . S
N1162 H1175 0.985 . S
N1163 C1165 1.356 . S
N1163 H1168 0.984 . S
N1163 H1169 0.985 . S
C1164 C1158 1.379 . S
C1164 C1161 1.363 1_554 S
C1164 N1162 1.356 . S
C1165 C1159 1.363 . S
C1165 C1160 1.379 . S
C1165 N1163 1.356 . S
N1166 C1158 1.356 . S
N1166 H1172 0.984 . S
N1166 H1173 0.984 . S
N1167 C1160 1.356 . S
N1167 H1170 0.984 . S
N1167 H1171 0.985 . S
H1168 N1163 0.984 . S
H1169 N1163 0.985 . S
H1170 N1167 0.984 . S
H1171 N1167 0.985 . S
H1172 N1166 0.984 . S
H1173 N1166 0.984 . S
H1174 N1162 0.984 . S
H1175 N1162 0.985 . S
C313 C226 0.942 . S
C315 C8 0.986 . S
C331 C21 1.075 . S
C333 C213 0.959 . S
C349 C34 1.043 . S
C351 C252 0.990 . S
C367 C47 1.127 . S
C369 C239 1.004 . S
C385 C60 0.989 . S
C387 C278 0.943 . S
C403 C73 1.032 . S
C405 C291 0.974 . S
C421 C265 0.961 . S
C423 C86 1.072 . S
C439 C148 0.992 . S
C441 C99 1.119 . S
C457 C112 0.989 . S
C459 C44 0.943 . S
C475 C18 0.972 . S
C477 C125 1.032 . S
C493 C138 1.090 . S
C495 C5 1.026 . S
C511 C151 1.119 . S
C513 C187 0.992 . S
C529 C70 1.041 . S
C531 C164 1.175 . S
C547 C57 1.024 . S
C549 C177 1.089 . S
C565 C190 1.119 . S
C567 C96 0.992 . S
C583 C203 1.032 . S
C585 C83 0.974 . S
C601 C122 1.041 . S
C603 C216 1.175 . S
C619 C135 1.006 . S
C621 C229 1.124 . S
C637 C109 1.024 . S
C639 C242 1.089 . S
C655 C255 1.043 . S
C657 C304 0.990 . S
C673 C200 1.041 . S
C675 C268 1.175 . S
C691 C281 1.127 . S
C693 C174 1.004 . S
C709 C161 0.961 . S
C711 C294 1.072 . S
C727 C307 1.043 . S
C729 C31 0.990 . S
C745 C0 1.544 . S
C747 C13 1.549 . S
C763 C39 1.514 . S
C765 C26 1.508 . S
C781 C52 1.544 . S
C783 C78 1.549 . S
C799 C65 1.659 . S
C801 C91 1.663 . S
C817 C286 1.549 . S
C819 C104 1.543 . S
C835 C117 1.659 . S
C837 C143 1.663 . S
C853 C260 1.630 . S
C855 C130 1.625 . S
C871 C169 1.626 . S
C873 C156 1.630 . S
C889 C182 1.663 . S
C891 C195 1.659 . S
C907 C234 1.625 . S
C909 C208 1.630 . S
C925 C221 1.514 . S
C927 C247 1.508 . S
C943 C299 1.508 . S
C945 C273 1.514 . S
C961 C36 1.347 . S
C963 C10 1.348 . S
C979 C23 1.420 . S
C981 C49 1.419 . S
C997 C257 1.347 . S
C999 C62 1.348 . S
C1015 C75 1.382 . S
C1017 C244 1.382 . S
C1033 C88 1.420 . S
C1035 C231 1.419 . S
C1051 C218 1.455 . S
C1053 C101 1.455 . S
C1069 C114 1.348 . S
C1071 C309 1.347 . S
C1087 C127 1.382 . S
C1089 C140 1.382 . S
C1105 C270 1.455 . S
C1107 C153 1.455 . S
C1123 C166 1.455 . S
C1125 C192 1.455 . S
C1141 C179 1.382 . S
C1143 C205 1.382 . S
C1159 C296 1.420 . S
C1161 C283 1.419 . S
