# Generated by pormake.
# Topology soi, (5)-cn, num edge types: 1
# Building blocks:
#     Node 0, Type 0, BuildingBlock: BEQFEK_clean_sbu_0, # of connection points: 5
#     Node 1, Type 0, BuildingBlock: BEQFEK_clean_sbu_0, # of connection points: 5
#     Node 2, Type 0, BuildingBlock: BEQFEK_clean_sbu_0, # of connection points: 5
#     Node 3, Type 0, BuildingBlock: BEQFEK_clean_sbu_0, # of connection points: 5
#     Node 4, Type 0, BuildingBlock: BEQFEK_clean_sbu_0, # of connection points: 5
#     Node 5, Type 0, BuildingBlock: BEQFEK_clean_sbu_0, # of connection points: 5
#     Node 6, Type 0, BuildingBlock: BEQFEK_clean_sbu_0, # of connection points: 5
#     Node 7, Type 0, BuildingBlock: BEQFEK_clean_sbu_0, # of connection points: 5
#     Node 8, Type 0, BuildingBlock: BEQFEK_clean_sbu_0, # of connection points: 5
#     Node 9, Type 0, BuildingBlock: BEQFEK_clean_sbu_0, # of connection points: 5
#     Node 10, Type 0, BuildingBlock: BEQFEK_clean_sbu_0, # of connection points: 5
#     Node 11, Type 0, BuildingBlock: BEQFEK_clean_sbu_0, # of connection points: 5
#     Node 12, Type 0, BuildingBlock: BEQFEK_clean_sbu_0, # of connection points: 5
#     Node 13, Type 0, BuildingBlock: BEQFEK_clean_sbu_0, # of connection points: 5
#     Node 14, Type 0, BuildingBlock: BEQFEK_clean_sbu_0, # of connection points: 5
#     Node 15, Type 0, BuildingBlock: BEQFEK_clean_sbu_0, # of connection points: 5
#     Edge 16, Type (0, 0), BuildingBlock: EZIPEK_clean_linker_0, # of connection points: 2
#     Edge 17, Type (0, 0), BuildingBlock: EZIPEK_clean_linker_0, # of connection points: 2
#     Edge 18, Type (0, 0), BuildingBlock: EZIPEK_clean_linker_0, # of connection points: 2
#     Edge 19, Type (0, 0), BuildingBlock: EZIPEK_clean_linker_0, # of connection points: 2
#     Edge 20, Type (0, 0), BuildingBlock: EZIPEK_clean_linker_0, # of connection points: 2
#     Edge 21, Type (0, 0), BuildingBlock: EZIPEK_clean_linker_0, # of connection points: 2
#     Edge 22, Type (0, 0), BuildingBlock: EZIPEK_clean_linker_0, # of connection points: 2
#     Edge 23, Type (0, 0), BuildingBlock: EZIPEK_clean_linker_0, # of connection points: 2
#     Edge 24, Type (0, 0), BuildingBlock: EZIPEK_clean_linker_0, # of connection points: 2
#     Edge 25, Type (0, 0), BuildingBlock: EZIPEK_clean_linker_0, # of connection points: 2
#     Edge 26, Type (0, 0), BuildingBlock: EZIPEK_clean_linker_0, # of connection points: 2
#     Edge 27, Type (0, 0), BuildingBlock: EZIPEK_clean_linker_0, # of connection points: 2
#     Edge 28, Type (0, 0), BuildingBlock: EZIPEK_clean_linker_0, # of connection points: 2
#     Edge 29, Type (0, 0), BuildingBlock: EZIPEK_clean_linker_0, # of connection points: 2
#     Edge 30, Type (0, 0), BuildingBlock: EZIPEK_clean_linker_0, # of connection points: 2
#     Edge 31, Type (0, 0), BuildingBlock: EZIPEK_clean_linker_0, # of connection points: 2
#     Edge 32, Type (0, 0), BuildingBlock: EZIPEK_clean_linker_0, # of connection points: 2
#     Edge 33, Type (0, 0), BuildingBlock: EZIPEK_clean_linker_0, # of connection points: 2
#     Edge 34, Type (0, 0), BuildingBlock: EZIPEK_clean_linker_0, # of connection points: 2
#     Edge 35, Type (0, 0), BuildingBlock: EZIPEK_clean_linker_0, # of connection points: 2
#     Edge 36, Type (0, 0), BuildingBlock: EZIPEK_clean_linker_0, # of connection points: 2
#     Edge 37, Type (0, 0), BuildingBlock: EZIPEK_clean_linker_0, # of connection points: 2
#     Edge 38, Type (0, 0), BuildingBlock: EZIPEK_clean_linker_0, # of connection points: 2
#     Edge 39, Type (0, 0), BuildingBlock: EZIPEK_clean_linker_0, # of connection points: 2
#     Edge 40, Type (0, 0), BuildingBlock: EZIPEK_clean_linker_0, # of connection points: 2
#     Edge 41, Type (0, 0), BuildingBlock: EZIPEK_clean_linker_0, # of connection points: 2
#     Edge 42, Type (0, 0), BuildingBlock: EZIPEK_clean_linker_0, # of connection points: 2
#     Edge 43, Type (0, 0), BuildingBlock: EZIPEK_clean_linker_0, # of connection points: 2
#     Edge 44, Type (0, 0), BuildingBlock: EZIPEK_clean_linker_0, # of connection points: 2
#     Edge 45, Type (0, 0), BuildingBlock: EZIPEK_clean_linker_0, # of connection points: 2
#     Edge 46, Type (0, 0), BuildingBlock: EZIPEK_clean_linker_0, # of connection points: 2
#     Edge 47, Type (0, 0), BuildingBlock: EZIPEK_clean_linker_0, # of connection points: 2
#     Edge 48, Type (0, 0), BuildingBlock: EZIPEK_clean_linker_0, # of connection points: 2
#     Edge 49, Type (0, 0), BuildingBlock: EZIPEK_clean_linker_0, # of connection points: 2
#     Edge 50, Type (0, 0), BuildingBlock: EZIPEK_clean_linker_0, # of connection points: 2
#     Edge 51, Type (0, 0), BuildingBlock: EZIPEK_clean_linker_0, # of connection points: 2
#     Edge 52, Type (0, 0), BuildingBlock: EZIPEK_clean_linker_0, # of connection points: 2
#     Edge 53, Type (0, 0), BuildingBlock: EZIPEK_clean_linker_0, # of connection points: 2
#     Edge 54, Type (0, 0), BuildingBlock: EZIPEK_clean_linker_0, # of connection points: 2
#     Edge 55, Type (0, 0), BuildingBlock: EZIPEK_clean_linker_0, # of connection points: 2
# Relax obj value: 0.110
# Max RMSD: 0.193
# Mean RMSD: 0.176
data_MOF--net-soi--node1-BEQFEK_clean_sbu_0--edge1-EZIPEK_clean_linker_0
_symmetry_space_group_name_H-M    P1
_symmetry_Int_Tables_number       1
_symmetry_cell_setting            triclinic
loop_
_symmetry_equiv_pos_as_xyz
'x, y, z'
_cell_length_a     26.590891
_cell_length_b     20.614702
_cell_length_c     59.297302
_cell_angle_alpha  89.991663
_cell_angle_beta   89.866212
_cell_angle_gamma 90.724651
loop_
_atom_site_label
_atom_site_type_symbol
_atom_site_fract_x
_atom_site_fract_y
_atom_site_fract_z
_atom_type_partial_charge
Co0 Co 0.35505 0.08088 0.15712 0.0
Co1 Co 0.33562 0.08095 0.10402 0.0
C2 C 0.27384 0.15811 0.13741 0.0
O3 O 0.29506 0.13632 0.15508 0.0
O4 O 0.28642 0.14017 0.11768 0.0
C5 C 0.34313 0.06034 0.20516 0.0
O6 O 0.29522 0.06622 0.20025 0.0
C7 C 0.27706 0.08374 0.06162 0.0
C8 C 0.3342 0.05481 0.0366 0.0
C9 C 0.28482 0.07452 0.03871 0.0
N10 N 0.3199 0.06986 0.07261 0.0
N11 N 0.35376 0.05229 0.05751 0.0
C12 C 0.23083 0.10934 0.07273 0.0
H13 H 0.22275 0.08134 0.08834 0.0
H14 H 0.19794 0.10674 0.06127 0.0
H15 H 0.23756 0.16073 0.07755 0.0
C16 C 0.33688 0.94055 0.14967 0.0
N17 N 0.34478 0.00107 0.14172 0.0
N18 N 0.33792 0.00095 0.11972 0.0
C19 C 0.32612 0.94026 0.11303 0.0
C20 C 0.32468 0.90018 0.13184 0.0
C21 C 0.33283 0.92363 0.17411 0.0
H22 H 0.30081 0.94984 0.18166 0.0
H23 H 0.32693 0.8708 0.17674 0.0
H24 H 0.36776 0.93887 0.1827 0.0
O25 O 0.4092 0.1334 0.14316 0.0
O26 O 0.39999 0.12832 0.10586 0.0
H27 H 0.30069 0.87021 0.08816 0.0
H28 H 0.27574 0.95111 0.08524 0.0
C29 C 0.30952 0.92279 0.08968 0.0
H30 H 0.33985 0.93554 0.07757 0.0
H31 H 0.39072 0.04022 0.06144 0.0
O32 O 0.37516 0.06641 0.18936 0.0
C33 C 0.42276 0.14924 0.12329 0.0
Co34 Co 0.63815 0.42797 0.15524 0.0
Co35 Co 0.66147 0.41795 0.10315 0.0
C36 C 0.72147 0.34518 0.13578 0.0
O37 O 0.69459 0.36437 0.15228 0.0
O38 O 0.71499 0.36611 0.1159 0.0
C39 C 0.638 0.41728 0.20429 0.0
O40 O 0.64826 0.35569 0.20135 0.0
C41 C 0.71403 0.40961 0.05965 0.0
C42 C 0.65603 0.44165 0.03563 0.0
C43 C 0.70503 0.41996 0.03698 0.0
N44 N 0.67232 0.42468 0.07132 0.0
N45 N 0.63781 0.44391 0.05685 0.0
C46 C 0.76102 0.38374 0.06995 0.0
H47 H 0.77294 0.41548 0.08413 0.0
H48 H 0.79199 0.38061 0.05745 0.0
H49 H 0.75322 0.33449 0.07676 0.0
C50 C 0.65081 0.56675 0.14463 0.0
N51 N 0.64733 0.5044 0.13804 0.0
N52 N 0.65989 0.50042 0.11664 0.0
C53 C 0.67423 0.55962 0.10926 0.0
C54 C 0.66913 0.60347 0.12684 0.0
C55 C 0.64367 0.58986 0.1683 0.0
H56 H 0.67643 0.57529 0.17851 0.0
H57 H 0.64073 0.64351 0.16893 0.0
H58 H 0.60911 0.56768 0.17562 0.0
O59 O 0.57833 0.38058 0.14514 0.0
O60 O 0.59873 0.36639 0.10893 0.0
H61 H 0.71406 0.62248 0.08579 0.0
H62 H 0.73011 0.53729 0.08451 0.0
C63 C 0.69909 0.57208 0.08699 0.0
H64 H 0.67131 0.56408 0.07333 0.0
H65 H 0.60167 0.45807 0.06145 0.0
O66 O 0.63128 0.45362 0.18731 0.0
C67 C 0.57027 0.35524 0.12589 0.0
Co68 Co 0.35498 0.91179 0.41441 0.0
Co69 Co 0.34714 0.90852 0.36107 0.0
C70 C 0.43564 0.85247 0.38712 0.0
O71 O 0.41886 0.87029 0.40632 0.0
O72 O 0.41112 0.8647 0.36914 0.0
C73 C 0.33761 0.87905 0.46041 0.0
O74 O 0.34736 0.82019 0.45325 0.0
C75 C 0.36819 0.95508 0.31425 0.0
C76 C 0.30373 0.91104 0.29615 0.0
C77 C 0.34508 0.95155 0.29328 0.0
N78 N 0.3413 0.91864 0.32893 0.0
N79 N 0.30328 0.89182 0.31784 0.0
C80 C 0.41404 0.9939 0.32033 0.0
H81 H 0.41682 -0.00025 0.3389 0.0
H82 H 0.41336 0.04199 0.31191 0.0
H83 H 0.44785 0.96814 0.31425 0.0
C84 C 0.3344 0.049 0.40627 0.0
N85 N 0.34534 0.98962 0.39843 0.0
N86 N 0.34008 0.9888 0.37636 0.0
C87 C 0.32449 0.04763 0.36956 0.0
C88 C 0.32069 0.08753 0.38829 0.0
C89 C 0.33036 0.06584 0.43074 0.0
H90 H 0.36455 0.04965 0.43971 0.0
H91 H 0.3258 0.11882 0.43321 0.0
H92 H 0.29735 0.04002 0.43813 0.0
O93 O 0.30306 0.84679 0.40727 0.0
O94 O 0.29319 0.84725 0.37011 0.0
H95 H 0.27953 0.10438 0.34658 0.0
H96 H 0.33722 0.07469 0.33529 0.0
C97 C 0.30513 0.06232 0.34648 0.0
H98 H 0.28486 0.01941 0.33962 0.0
H99 H 0.27592 0.86197 0.32525 0.0
O100 O 0.34454 0.92686 0.44719 0.0
C101 C 0.28185 0.82566 0.38957 0.0
Co102 Co 0.64831 0.5688 0.41452 0.0
Co103 Co 0.64478 0.56927 0.36138 0.0
C104 C 0.56287 0.62948 0.38753 0.0
O105 O 0.58541 0.6146 0.40582 0.0
O106 O 0.58116 0.61321 0.36841 0.0
C107 C 0.65181 0.60106 0.46101 0.0
O108 O 0.63214 0.65588 0.45426 0.0
C109 C 0.62751 0.54259 0.31208 0.0
C110 C 0.70591 0.52073 0.30243 0.0
C111 C 0.65728 0.52133 0.29423 0.0
N112 N 0.6574 0.55217 0.33014 0.0
N113 N 0.70418 0.53997 0.32405 0.0
C114 C 0.57198 0.55293 0.31217 0.0
H115 H 0.56457 0.60463 0.31598 0.0
H116 H 0.55437 0.52356 0.32582 0.0
H117 H 0.55488 0.54002 0.29569 0.0
C118 C 0.66595 0.42993 0.4063 0.0
N119 N 0.65541 0.49028 0.39918 0.0
N120 N 0.64889 0.4897 0.37724 0.0
C121 C 0.65212 0.42816 0.36989 0.0
C122 C 0.6645 0.38866 0.38785 0.0
C123 C 0.68023 0.41343 0.42998 0.0
H124 H 0.70978 0.44782 0.43592 0.0
H125 H 0.64692 0.41908 0.44109 0.0
H126 H 0.69404 0.36301 0.43134 0.0
O127 O 0.70273 0.62887 0.40744 0.0
O128 O 0.69811 0.63319 0.37012 0.0
H129 H 0.67661 0.41777 0.33574 0.0
H130 H 0.63515 0.35382 0.34534 0.0
C131 C 0.643 0.40678 0.34619 0.0
H132 H 0.61038 0.43322 0.33945 0.0
H133 H 0.73485 0.5425 0.33498 0.0
O134 O 0.65599 0.55452 0.44717 0.0
C135 C 0.71709 0.65211 0.38871 0.0
Co136 Co 0.66812 0.92465 0.93215 0.0
Co137 Co 0.63907 0.91996 0.87982 0.0
C138 C 0.57377 0.85776 0.91521 0.0
O139 O 0.60157 0.8777 0.93147 0.0
O140 O 0.58285 0.8726 0.89463 0.0
C141 C 0.67607 0.91968 0.98175 0.0
O142 O 0.62968 0.89699 0.98187 0.0
C143 C 0.59518 0.94631 0.8335 0.0
C144 C 0.66568 0.94084 0.81378 0.0
C145 C 0.61508 0.95384 0.81188 0.0
N146 N 0.63299 0.93069 0.8476 0.0
N147 N 0.67469 0.92689 0.8355 0.0
C148 C 0.54172 0.95479 0.84059 0.0
H149 H 0.53887 0.95833 0.85923 0.0
H150 H 0.52589 -0.00138 0.83255 0.0
H151 H 0.51925 0.91228 0.83477 0.0
C152 C 0.6804 0.0642 0.92038 0.0
N153 N 0.66635 0.00288 0.91527 0.0
N154 N 0.65188 0.00089 0.89404 0.0
C155 C 0.65496 0.06112 0.88534 0.0
C156 C 0.67365 0.10294 0.90156 0.0
C157 C 0.70399 0.0842 0.94217 0.0
H158 H 0.73228 0.04805 0.94732 0.0
H159 H 0.67418 0.08576 0.95524 0.0
H160 H 0.72201 0.13294 0.94093 0.0
O161 O 0.71595 0.8634 0.91915 0.0
O162 O 0.69644 0.8611 0.88283 0.0
H163 H 0.67132 0.05407 0.85014 0.0
H164 H 0.64611 0.1313 0.85855 0.0
C165 C 0.64398 0.07812 0.86142 0.0
H166 H 0.60556 0.06071 0.85734 0.0
H167 H 0.70991 0.91651 0.84222 0.0
O168 O 0.69595 0.9378 0.96323 0.0
C169 C 0.72271 0.8421 0.89934 0.0
Co170 Co 0.32789 0.58563 0.93105 0.0
Co171 Co 0.3611 0.58861 0.87938 0.0
C172 C 0.42201 0.65738 0.91321 0.0
O173 O 0.39094 0.64167 0.92894 0.0
O174 O 0.41775 0.63617 0.89303 0.0
C175 C 0.30566 0.61088 0.97817 0.0
O176 O 0.33703 0.66022 0.97587 0.0
C177 C 0.40334 0.56162 0.83276 0.0
C178 C 0.33177 0.56029 0.81387 0.0
C179 C 0.38281 0.5508 0.81147 0.0
N180 N 0.36557 0.57572 0.84717 0.0
N181 N 0.32317 0.57545 0.83556 0.0
C182 C 0.45745 0.55762 0.83925 0.0
H183 H 0.46133 0.55482 0.85786 0.0
H184 H 0.47503 0.51497 0.83115 0.0
H185 H 0.47754 0.60168 0.83307 0.0
C186 C 0.32128 0.44565 0.92091 0.0
N187 N 0.33437 0.50692 0.9153 0.0
N188 N 0.3504 0.508 0.89429 0.0
C189 C 0.34999 0.44697 0.88627 0.0
C190 C 0.33052 0.4057 0.90259 0.0
C191 C 0.29474 0.42743 0.94229 0.0
H192 H 0.26075 0.45761 0.94429 0.0
H193 H 0.31995 0.43781 0.95675 0.0
H194 H 0.28378 0.3753 0.94251 0.0
O195 O 0.27486 0.63737 0.91795 0.0
O196 O 0.30422 0.64961 0.88318 0.0
H197 H 0.33555 0.44819 0.85085 0.0
H198 H 0.36515 0.37513 0.86065 0.0
C199 C 0.36368 0.42859 0.86273 0.0
H200 H 0.40111 0.44965 0.85872 0.0
H201 H 0.28789 0.58395 0.84264 0.0
O202 O 0.30091 0.57053 0.96209 0.0
C203 C 0.27312 0.66366 0.89869 0.0
Co204 Co 0.65191 0.06859 0.60178 0.0
Co205 Co 0.63416 0.07106 0.65495 0.0
C206 C 0.56425 0.13802 0.62433 0.0
O207 O 0.59029 0.12296 0.60693 0.0
O208 O 0.57401 0.11605 0.64395 0.0
C209 C 0.65327 0.08573 0.55249 0.0
O210 O 0.61098 0.11736 0.5548 0.0
C211 C 0.59644 0.0409 0.70173 0.0
C212 C 0.66746 0.05197 0.72069 0.0
C213 C 0.61727 0.03511 0.72314 0.0
N214 N 0.63316 0.05929 0.68723 0.0
N215 N 0.67528 0.06631 0.69883 0.0
C216 C 0.54292 0.02885 0.69519 0.0
H217 H 0.54022 0.01798 0.6769 0.0
H218 H 0.52639 0.98846 0.70526 0.0
H219 H 0.52101 0.07315 0.69878 0.0
C220 C 0.66311 0.92885 0.61167 0.0
N221 N 0.65066 0.9894 0.61795 0.0
N222 N 0.64313 0.99037 0.63991 0.0
C223 C 0.64971 0.93011 0.64809 0.0
C224 C 0.663 0.88933 0.6306 0.0
C225 C 0.68077 0.91127 0.58855 0.0
H226 H 0.71268 0.94351 0.58363 0.0
H227 H 0.64968 0.91923 0.57649 0.0
H228 H 0.69255 0.85987 0.58763 0.0
O229 O 0.70723 0.12301 0.61229 0.0
O230 O 0.69026 0.134 0.64872 0.0
H231 H 0.67662 0.94115 0.68182 0.0
H232 H 0.65442 0.86013 0.67521 0.0
C233 C 0.64788 0.91261 0.67248 0.0
H234 H 0.61016 0.92466 0.679 0.0
H235 H 0.70979 0.0797 0.6917 0.0
O236 O 0.67202 0.05734 0.56949 0.0
C237 C 0.71597 0.14874 0.63128 0.0
Co238 Co 0.33125 0.41293 0.60393 0.0
Co239 Co 0.35536 0.41671 0.65688 0.0
C240 C 0.42092 0.34672 0.62332 0.0
O241 O 0.39619 0.36574 0.60608 0.0
O242 O 0.41008 0.36448 0.64341 0.0
C243 C 0.31762 0.39017 0.55538 0.0
O244 O 0.35799 0.35426 0.55662 0.0
C245 C 0.40029 0.45215 0.70232 0.0
C246 C 0.33106 0.44453 0.72291 0.0
C247 C 0.38146 0.46105 0.72404 0.0
N248 N 0.3621 0.43223 0.6889 0.0
N249 N 0.32115 0.42728 0.70152 0.0
C250 C 0.45312 0.46328 0.69449 0.0
H251 H 0.47709 0.42408 0.70119 0.0
H252 H 0.4551 0.46305 0.67578 0.0
H253 H 0.46791 0.50999 0.70121 0.0
C254 C 0.31822 0.55278 0.61304 0.0
N255 N 0.33288 0.49331 0.6195 0.0
N256 N 0.34562 0.49533 0.64095 0.0
C257 C 0.34092 0.55662 0.64847 0.0
C258 C 0.32265 0.59467 0.63121 0.0
C259 C 0.29544 0.56751 0.59064 0.0
H260 H 0.32447 0.561 0.57743 0.0
H261 H 0.28141 0.61794 0.58985 0.0
H262 H 0.26409 0.53289 0.58723 0.0
O263 O 0.28338 0.35252 0.61763 0.0
O264 O 0.29541 0.35939 0.65459 0.0
H265 H 0.32083 0.55141 0.68335 0.0
H266 H 0.34327 0.63041 0.67441 0.0
C267 C 0.34819 0.57735 0.67235 0.0
H268 H 0.38679 0.56469 0.67749 0.0
H269 H 0.28583 0.41366 0.69538 0.0
O270 O 0.30368 0.42203 0.57262 0.0
C271 C 0.27289 0.33527 0.63762 0.0
Co272 Co 0.85193 0.57048 0.65541 0.0
Co273 Co 0.83286 0.57571 0.60292 0.0
C274 C 0.77071 0.64997 0.63664 0.0
O275 O 0.7907 0.62419 0.6539 0.0
O276 O 0.78376 0.63474 0.61671 0.0
C277 C 0.85939 0.58639 0.70427 0.0
O278 O 0.84831 0.64753 0.70092 0.0
C279 C 0.77241 0.57366 0.56172 0.0
C280 C 0.83005 0.55979 0.53533 0.0
C281 C 0.77908 0.56907 0.53865 0.0
N282 N 0.8174 0.56714 0.57171 0.0
N283 N 0.85167 0.55843 0.55585 0.0
C284 C 0.72462 0.5875 0.57403 0.0
H285 H 0.7231 0.55905 0.58991 0.0
H286 H 0.69126 0.57588 0.5635 0.0
H287 H 0.72389 0.6398 0.57844 0.0
C288 C 0.83872 0.43035 0.6463 0.0
N289 N 0.84391 0.49209 0.63911 0.0
N290 N 0.83534 0.49416 0.61729 0.0
C291 C 0.82443 0.43385 0.60993 0.0
C292 C 0.82538 0.39161 0.62817 0.0
C293 C 0.83856 0.4102 0.67051 0.0
H294 H 0.8043 0.42915 0.67867 0.0
H295 H 0.8384 0.35664 0.67231 0.0
H296 H 0.87213 0.43046 0.67916 0.0
O297 O 0.90737 0.62562 0.64295 0.0
O298 O 0.897 0.62226 0.60559 0.0
H299 H 0.8007 0.36533 0.58428 0.0
H300 H 0.7706 0.44353 0.58346 0.0
C301 C 0.80651 0.41832 0.58662 0.0
H302 H 0.83459 0.43607 0.57415 0.0
H303 H 0.88998 0.55308 0.55901 0.0
O304 O 0.86428 0.54853 0.68753 0.0
C305 C 0.92067 0.64155 0.62299 0.0
Co306 Co 0.13271 0.91195 0.65587 0.0
Co307 Co 0.15801 0.91429 0.60337 0.0
C308 C 0.21583 0.83482 0.63669 0.0
O309 O 0.19299 0.85664 0.65396 0.0
O310 O 0.20579 0.85376 0.61683 0.0
C311 C 0.14868 0.93394 0.70274 0.0
O312 O 0.19563 0.93629 0.69578 0.0
C313 C 0.2186 0.91303 0.56154 0.0
C314 C 0.1646 0.94994 0.53653 0.0
C315 C 0.21293 0.92659 0.5388 0.0
N316 N 0.17561 0.92793 0.5723 0.0
N317 N 0.14361 0.95026 0.55723 0.0
C318 C 0.26312 0.88313 0.57264 0.0
H319 H 0.25368 0.83224 0.57726 0.0
H320 H 0.2722 0.90995 0.58837 0.0
H321 H 0.29639 0.88332 0.56131 0.0
C322 C 0.14731 0.05346 0.6493 0.0
N323 N 0.14302 0.99272 0.64109 0.0
N324 N 0.15534 0.99337 0.61955 0.0
C325 C 0.16893 0.05419 0.61362 0.0
C326 C 0.16445 0.09401 0.63233 0.0
C327 C 0.14104 0.07179 0.67349 0.0
H328 H 0.1747 0.05689 0.68308 0.0
H329 H 0.13681 0.12503 0.67538 0.0
H330 H 0.10736 0.04703 0.68048 0.0
O331 O 0.07899 0.86064 0.6414 0.0
O332 O 0.09314 0.86698 0.60435 0.0
H333 H 0.16468 0.06572 0.5779 0.0
H334 H 0.20661 0.12294 0.59145 0.0
C335 C 0.19277 0.07192 0.59154 0.0
H336 H 0.22454 0.03899 0.58806 0.0
H337 H 0.10701 0.96443 0.56101 0.0
O338 O 0.11432 0.92333 0.68833 0.0
C339 C 0.06784 0.8461 0.62116 0.0
Co340 Co 0.85094 0.41804 0.91418 0.0
Co341 Co 0.84712 0.43006 0.86109 0.0
C342 C 0.92849 0.357 0.88513 0.0
O343 O 0.91221 0.37222 0.9047 0.0
O344 O 0.90779 0.37645 0.86691 0.0
C345 C 0.83149 0.37612 0.95896 0.0
O346 O 0.84007 0.31828 0.95059 0.0
C347 C 0.86745 0.46407 0.81259 0.0
C348 C 0.78939 0.48489 0.80228 0.0
C349 C 0.83854 0.48585 0.79461 0.0
N350 N 0.83649 0.45249 0.83021 0.0
N351 N 0.78997 0.46423 0.82373 0.0
C352 C 0.92311 0.45514 0.81327 0.0
H353 H 0.93146 0.40595 0.81976 0.0
H354 H 0.93988 0.49068 0.82522 0.0
H355 H 0.94025 0.46184 0.79632 0.0
C356 C 0.83735 0.55878 0.91024 0.0
N357 N 0.84646 0.50058 0.90091 0.0
N358 N 0.84754 0.50655 0.87884 0.0
C359 C 0.8406 0.5694 0.87352 0.0
C360 C 0.83284 0.60411 0.89317 0.0
C361 C 0.82631 0.56899 0.93473 0.0
H362 H 0.85845 0.55183 0.94492 0.0
H363 H 0.81965 0.62091 0.93854 0.0
H364 H 0.79256 0.53991 0.93955 0.0
O365 O 0.79641 0.35979 0.90519 0.0
O366 O 0.78878 0.37284 0.86832 0.0
H367 H 0.83719 0.64887 0.84991 0.0
H368 H 0.86426 0.57523 0.83915 0.0
C369 C 0.83455 0.59508 0.85014 0.0
H370 H 0.79718 0.58026 0.84355 0.0
H371 H 0.75857 0.45979 0.83423 0.0
O372 O 0.84071 0.42601 0.94703 0.0
C373 C 0.77556 0.3456 0.88663 0.0
Co374 Co 0.1521 0.08968 0.91195 0.0
Co375 Co 0.16005 0.08455 0.85861 0.0
C376 C 0.07754 0.15611 0.88423 0.0
O377 O 0.09169 0.13807 0.90378 0.0
O378 O 0.09977 0.1382 0.86614 0.0
C379 C 0.16777 0.12448 0.95836 0.0
O380 O 0.15648 0.18303 0.95141 0.0
C381 C 0.13586 0.03657 0.8123 0.0
C382 C 0.20433 0.06885 0.79406 0.0
C383 C 0.15964 0.03482 0.79144 0.0
N384 N 0.16549 0.06999 0.82671 0.0
N385 N 0.206 0.08972 0.81553 0.0
C386 C 0.08704 0.0047 0.81859 0.0
H387 H 0.08201 0.00428 0.83718 0.0
H388 H 0.08551 0.95448 0.81184 0.0
H389 H 0.0558 0.03191 0.81081 0.0
C390 C 0.15902 0.94875 0.90565 0.0
N391 N 0.15416 0.00862 0.89699 0.0
N392 N 0.16048 0.00606 0.87499 0.0
C393 C 0.17182 0.94479 0.86913 0.0
C394 C 0.17104 0.9065 0.88832 0.0
C395 C 0.15939 0.93399 0.93035 0.0
H396 H 0.12743 0.9584 0.93873 0.0
H397 H 0.15679 0.88092 0.93343 0.0
H398 H 0.19484 0.953 0.93784 0.0
O399 O 0.20776 0.14856 0.90325 0.0
O400 O 0.21932 0.13739 0.86651 0.0
H401 H 0.21522 0.88148 0.84765 0.0
H402 H 0.15946 0.914 0.83533 0.0
C403 C 0.19164 0.92539 0.84654 0.0
H404 H 0.21425 0.96552 0.83909 0.0
H405 H 0.2357 0.11586 0.82275 0.0
O406 O 0.16314 0.07693 0.94486 0.0
C407 C 0.23095 0.16335 0.88519 0.0
Co408 Co 0.15858 0.40591 0.43111 0.0
Co409 Co 0.12891 0.40842 0.37882 0.0
C410 C 0.06165 0.34717 0.41409 0.0
O411 O 0.09035 0.36386 0.43047 0.0
O412 O 0.07115 0.3631 0.39363 0.0
C413 C 0.18272 0.37769 0.47802 0.0
O414 O 0.15039 0.32936 0.47588 0.0
C415 C 0.0852 0.44425 0.33321 0.0
C416 C 0.15373 0.43069 0.31265 0.0
C417 C 0.10446 0.45059 0.31142 0.0
N418 N 0.12218 0.42252 0.34675 0.0
N419 N 0.16267 0.41405 0.33414 0.0
C420 C 0.03312 0.45897 0.341 0.0
H421 H 0.0323 0.46569 0.35958 0.0
H422 H 0.01885 0.50277 0.33236 0.0
H423 H 0.00793 0.41762 0.33655 0.0
C424 C 0.17574 0.54475 0.42147 0.0
N425 N 0.15913 0.4854 0.41527 0.0
N426 N 0.14608 0.48685 0.39386 0.0
C427 C 0.1537 0.5474 0.38593 0.0
C428 C 0.17296 0.58578 0.40304 0.0
C429 C 0.19926 0.55981 0.44376 0.0
H430 H 0.2328 0.52907 0.44612 0.0
H431 H 0.17203 0.54792 0.45737 0.0
H432 H 0.21053 0.61172 0.44503 0.0
O433 O 0.20396 0.34328 0.41705 0.0
O434 O 0.18403 0.34597 0.38075 0.0
H435 H 0.172 0.53889 0.35096 0.0
H436 H 0.15483 0.61981 0.35948 0.0
C437 C 0.14678 0.56733 0.36197 0.0
H438 H 0.10729 0.55708 0.35721 0.0
H439 H 0.19715 0.39848 0.34035 0.0
O440 O 0.18827 0.41777 0.46187 0.0
C441 C 0.20993 0.32403 0.39692 0.0
Co442 Co 0.81118 0.08015 0.42697 0.0
Co443 Co 0.85209 0.07557 0.37648 0.0
C444 C 0.9049 0.15381 0.41145 0.0
O445 O 0.87301 0.13746 0.42671 0.0
O446 O 0.90266 0.13197 0.3913 0.0
C447 C 0.78225 0.10915 0.4732 0.0
O448 O 0.81027 0.16156 0.47054 0.0
C449 C 0.90461 0.04781 0.33214 0.0
C450 C 0.83702 0.03989 0.31061 0.0
C451 C 0.88871 0.03491 0.31023 0.0
N452 N 0.86362 0.05936 0.34494 0.0
N453 N 0.82363 0.05493 0.33178 0.0
C454 C 0.95732 0.04752 0.34076 0.0
H455 H 0.95765 0.0474 0.35948 0.0
H456 H 0.97744 0.00465 0.33415 0.0
H457 H 0.97741 0.09155 0.33455 0.0
C458 C 0.80843 0.93868 0.41894 0.0
N459 N 0.82286 -0.00096 0.41287 0.0
N460 N 0.8423 0.99704 0.39244 0.0
C461 C 0.84216 0.9351 0.38523 0.0
C462 C 0.81983 0.89633 0.40154 0.0
C463 C 0.7776 0.92354 0.43944 0.0
H464 H 0.79945 0.93697 0.45467 0.0
H465 H 0.76722 0.87127 0.44033 0.0
H466 H 0.743 0.95309 0.43928 0.0
O467 O 0.75941 0.12814 0.41081 0.0
O468 O 0.7898 0.12621 0.37629 0.0
H469 H 0.82785 0.93211 0.34981 0.0
H470 H 0.85781 0.8606 0.36064 0.0
C471 C 0.85613 0.91425 0.36195 0.0
H472 H 0.89341 0.93524 0.35759 0.0
H473 H 0.78674 0.06042 0.33742 0.0
O474 O 0.78067 0.06706 0.45755 0.0
C475 C 0.75618 0.14353 0.39015 0.0
Co476 Co 0.15705 0.57665 0.10339 0.0
Co477 Co 0.1324 0.57744 0.15597 0.0
C478 C 0.06667 0.64553 0.12413 0.0
O479 O 0.09507 0.63117 0.10741 0.0
O480 O 0.07338 0.62224 0.14385 0.0
C481 C 0.16772 0.59865 0.05473 0.0
O482 O 0.12897 0.63723 0.05655 0.0
C483 C 0.09085 0.54747 0.20216 0.0
C484 C 0.16109 0.5542 0.22191 0.0
C485 C 0.11035 0.53969 0.22376 0.0
N486 N 0.12885 0.56463 0.18815 0.0
N487 N 0.17048 0.56909 0.20022 0.0
C488 C 0.03739 0.53875 0.19496 0.0
H489 H 0.01855 0.58642 0.19575 0.0
H490 H 0.03577 0.52132 0.17726 0.0
H491 H 0.017 0.50459 0.20632 0.0
C492 C 0.16826 0.43748 0.1131 0.0
N493 N 0.15406 0.49738 0.11926 0.0
N494 N 0.14297 0.49723 0.14091 0.0
C495 C 0.14836 0.43656 0.14894 0.0
C496 C 0.16531 0.39706 0.13173 0.0
C497 C 0.19011 0.42141 0.09057 0.0
H498 H 0.16139 0.43023 0.07744 0.0
H499 H 0.20203 0.37006 0.08967 0.0
H500 H 0.22282 0.45387 0.0871 0.0
O501 O 0.21113 0.63052 0.11516 0.0
O502 O 0.18871 0.64129 0.151 0.0
H503 H 0.14765 0.36487 0.17559 0.0
H504 H 0.10504 0.43159 0.1789 0.0
C505 C 0.14299 0.41784 0.17313 0.0
H506 H 0.17149 0.44425 0.18333 0.0
H507 H 0.20572 0.58102 0.19352 0.0
O508 O 0.1808 0.56497 0.07164 0.0
C509 C 0.2168 0.65641 0.13435 0.0
Co510 Co 0.8408 0.92938 0.10409 0.0
Co511 Co 0.85856 0.92034 0.15701 0.0
C512 C 0.92701 0.85763 0.12208 0.0
O513 O 0.90483 0.8811 0.10486 0.0
O514 O 0.91364 0.87103 0.14226 0.0
C515 C 0.80981 0.90143 0.05905 0.0
O516 O 0.83167 0.84587 0.06319 0.0
C517 C 0.90767 0.94857 0.20155 0.0
C518 C 0.8424 0.93233 0.22408 0.0
C519 C 0.89226 0.95219 0.22398 0.0
N520 N 0.86804 0.92882 0.18901 0.0
N521 N 0.8295 0.91854 0.20272 0.0
C522 C 0.95851 0.96417 0.19206 0.0
H523 H 0.95535 0.00456 0.17979 0.0
H524 H 0.9855 0.97775 0.20557 0.0
H525 H 0.97258 0.92146 0.18268 0.0
C526 C 0.83221 0.06747 0.11588 0.0
N527 N 0.84354 0.00619 0.12154 0.0
N528 N 0.84882 0.00258 0.14356 0.0
C529 C 0.83973 0.0613 0.15261 0.0
C530 C 0.82906 0.1044 0.13539 0.0
C531 C 0.81743 0.08797 0.09264 0.0
H532 H 0.84465 0.06875 0.08019 0.0
H533 H 0.81606 0.14163 0.09125 0.0
H534 H 0.77974 0.0673 0.08867 0.0
O535 O 0.79127 0.86681 0.1159 0.0
O536 O 0.7988 0.86413 0.15315 0.0
H537 H 0.8199 0.12331 0.18072 0.0
H538 H 0.86932 0.06636 0.18578 0.0
C539 C 0.83293 0.07336 0.17726 0.0
H540 H 0.80537 0.03789 0.18427 0.0
H541 H 0.79381 0.90364 0.19739 0.0
O542 O 0.81365 0.94694 0.07343 0.0
C543 C 0.77801 0.84499 0.13502 0.0
C544 C 0.24519 0.83554 0.12982 0.0
C545 C 0.2976 0.83732 0.13377 0.0
C546 C 0.29599 0.72063 0.14196 0.0
C547 C 0.24513 0.71815 0.13497 0.0
N548 N 0.17508 0.77124 0.11692 0.0
N549 N 0.37471 0.78188 0.14199 0.0
C550 C 0.22079 0.77498 0.12736 0.0
C551 C 0.32365 0.7799 0.13949 0.0
N552 N 0.2182 0.89156 0.12913 0.0
N553 N 0.31752 0.66666 0.15093 0.0
H554 H 0.39576 0.82475 0.14057 0.0
H555 H 0.39653 0.74071 0.14398 0.0
H556 H 0.29818 0.62248 0.15242 0.0
H557 H 0.35304 0.66677 0.15828 0.0
H558 H 0.17902 0.89194 0.12857 0.0
H559 H 0.23423 0.9374 0.13164 0.0
H560 H 0.15874 0.81063 0.10885 0.0
H561 H 0.15544 0.72789 0.1145 0.0
C562 C 0.74627 0.66592 0.13766 0.0
C563 C 0.69635 0.66598 0.12927 0.0
C564 C 0.69709 0.78483 0.12847 0.0
C565 C 0.74815 0.78443 0.13523 0.0
N566 N 0.82442 0.72499 0.14247 0.0
N567 N 0.62511 0.72302 0.11458 0.0
C568 C 0.7735 0.72515 0.13901 0.0
C569 C 0.6719 0.72482 0.12409 0.0
N570 N 0.76772 0.60925 0.14454 0.0
N571 N 0.67273 0.8426 0.1267 0.0
H572 H 0.60545 0.67976 0.11158 0.0
H573 H 0.60702 0.76365 0.1083 0.0
H574 H 0.6905 0.8871 0.12987 0.0
H575 H 0.63432 0.84655 0.12378 0.0
H576 H 0.80086 0.60755 0.15383 0.0
H577 H 0.75107 0.56368 0.14234 0.0
H578 H 0.84592 0.68314 0.14214 0.0
H579 H 0.84645 0.76691 0.14381 0.0
C580 C 0.31922 0.20868 0.39119 0.0
C581 C 0.29258 0.14874 0.38983 0.0
C582 C 0.21209 0.20443 0.39259 0.0
C583 C 0.23869 0.26458 0.3932 0.0
N584 N 0.31568 0.32656 0.39054 0.0
N585 N 0.21451 0.08783 0.38774 0.0
C586 C 0.29182 0.26749 0.39181 0.0
C587 C 0.23921 0.14614 0.39009 0.0
N588 N 0.37059 0.20895 0.39238 0.0
N589 N 0.16091 0.2031 0.39529 0.0
H590 H 0.23259 0.04329 0.38772 0.0
H591 H 0.17615 0.08308 0.38466 0.0
H592 H 0.13916 0.24475 0.39603 0.0
H593 H 0.13971 0.16107 0.398 0.0
H594 H 0.39237 0.25011 0.39567 0.0
H595 H 0.39175 0.16678 0.39131 0.0
H596 H 0.35395 0.33272 0.38744 0.0
H597 H 0.29636 0.37029 0.39114 0.0
C598 C 0.73552 0.24201 0.36787 0.0
C599 C 0.71958 0.19433 0.38354 0.0
C600 C 0.6561 0.26992 0.39757 0.0
C601 C 0.68229 0.32104 0.38636 0.0
N602 N 0.75366 0.35573 0.36365 0.0
N603 N 0.65701 0.1576 0.41015 0.0
C604 C 0.72377 0.30718 0.37217 0.0
C605 C 0.67702 0.20658 0.39735 0.0
N606 N 0.76056 0.22536 0.34866 0.0
N607 N 0.61123 0.28176 0.40797 0.0
H608 H 0.66802 0.10951 0.4081 0.0
H609 H 0.63024 0.16452 0.42273 0.0
H610 H 0.59509 0.32761 0.40825 0.0
H611 H 0.58827 0.24564 0.41489 0.0
H612 H 0.77052 0.25922 0.33631 0.0
H613 H 0.76382 0.17728 0.3435 0.0
H614 H 0.7867 0.34652 0.35476 0.0
H615 H 0.74876 0.40454 0.36758 0.0
C616 C 0.67425 0.22468 0.90417 0.0
C617 C 0.69755 0.16679 0.89698 0.0
C618 C 0.76188 0.22947 0.87674 0.0
C619 C 0.74272 0.2873 0.88635 0.0
N620 N 0.68193 0.34113 0.90972 0.0
N621 N 0.76871 0.11322 0.88022 0.0
C622 C 0.69901 0.28524 0.90015 0.0
C623 C 0.74262 0.16891 0.88421 0.0
N624 N 0.6283 0.22164 0.91451 0.0
N625 N 0.79886 0.23177 0.86067 0.0
H626 H 0.75674 0.0676 0.8858 0.0
H627 H 0.80485 0.11286 0.87342 0.0
H628 H 0.81611 0.27429 0.85503 0.0
H629 H 0.80959 0.19137 0.85136 0.0
H630 H 0.60691 0.26225 0.91819 0.0
H631 H 0.60995 0.17783 0.91816 0.0
H632 H 0.6542 0.34226 0.92213 0.0
H633 H 0.69722 0.38666 0.90582 0.0
C634 C 0.26664 0.33813 0.88263 0.0
C635 C 0.3072 0.34152 0.89801 0.0
C636 C 0.30382 0.22345 0.90243 0.0
C637 C 0.26541 0.22028 0.88582 0.0
N638 N 0.2237 0.27414 0.85467 0.0
N639 N 0.36981 0.28787 0.92028 0.0
C640 C 0.25134 0.27724 0.87405 0.0
C641 C 0.32759 0.2842 0.90724 0.0
N642 N 0.241 0.39285 0.87693 0.0
N643 N 0.31706 0.16842 0.91369 0.0
H644 H 0.38716 0.33191 0.92449 0.0
H645 H 0.38942 0.24743 0.92575 0.0
H646 H 0.30319 0.1226 0.90923 0.0
H647 H 0.3402 0.1684 0.92782 0.0
H648 H 0.20775 0.39165 0.86765 0.0
H649 H 0.24944 0.43853 0.88357 0.0
H650 H 0.21698 0.31473 0.84468 0.0
H651 H 0.21238 0.23125 0.84692 0.0
C652 C 0.73921 0.82674 0.64111 0.0
C653 C 0.68896 0.82655 0.63319 0.0
C654 C 0.68948 0.70786 0.63046 0.0
C655 C 0.73912 0.70808 0.63922 0.0
N656 N 0.80712 0.76671 0.65764 0.0
N657 N 0.61311 0.76824 0.62343 0.0
C658 C 0.76247 0.76711 0.64623 0.0
C659 C 0.66305 0.76738 0.62881 0.0
N660 N 0.7658 0.88388 0.64263 0.0
N661 N 0.66806 0.65072 0.62347 0.0
H662 H 0.59318 0.81119 0.62157 0.0
H663 H 0.5906 0.72674 0.62218 0.0
H664 H 0.68502 0.60597 0.6261 0.0
H665 H 0.63468 0.64768 0.61438 0.0
H666 H 0.80442 0.88632 0.64546 0.0
H667 H 0.75057 0.929 0.63896 0.0
H668 H 0.82223 0.80753 0.66561 0.0
H669 H 0.82767 0.72513 0.6608 0.0
C670 C 0.29661 0.77595 0.63152 0.0
C671 C 0.24579 0.77541 0.63878 0.0
C672 C 0.24748 0.65731 0.64335 0.0
C673 C 0.2967 0.65725 0.63404 0.0
N674 N 0.36762 0.71411 0.61777 0.0
N675 N 0.17005 0.71522 0.6487 0.0
C676 C 0.32127 0.716 0.62777 0.0
C677 C 0.22063 0.71615 0.64425 0.0
N678 N 0.32125 0.83398 0.62864 0.0
N679 N 0.2261 0.60095 0.65125 0.0
H680 H 0.14814 0.7566 0.64967 0.0
H681 H 0.14841 0.67287 0.64964 0.0
H682 H 0.24195 0.55542 0.64908 0.0
H683 H 0.19386 0.59955 0.66124 0.0
H684 H 0.35952 0.83841 0.6252 0.0
H685 H 0.30397 0.87842 0.6315 0.0
H686 H 0.38555 0.75431 0.61063 0.0
H687 H 0.38714 0.67106 0.61536 0.0
C688 C 0.74544 0.32752 0.62693 0.0
C689 C 0.79825 0.32867 0.62984 0.0
C690 C 0.7968 0.2114 0.63699 0.0
C691 C 0.74517 0.20987 0.63119 0.0
N692 N 0.67371 0.2646 0.61497 0.0
N693 N 0.87583 0.27188 0.63564 0.0
C694 C 0.72047 0.26732 0.62447 0.0
C695 C 0.82454 0.27057 0.63437 0.0
N696 N 0.71862 0.38371 0.62738 0.0
N697 N 0.81898 0.15666 0.645 0.0
H698 H 0.89697 0.31465 0.63408 0.0
H699 H 0.89757 0.23035 0.63674 0.0
H700 H 0.79959 0.11252 0.64653 0.0
H701 H 0.85528 0.15599 0.65153 0.0
H702 H 0.67943 0.38431 0.62761 0.0
H703 H 0.735 0.42925 0.63007 0.0
H704 H 0.65682 0.30464 0.60755 0.0
H705 H 0.65355 0.22156 0.61262 0.0
C706 C 0.19079 0.27544 0.63479 0.0
C707 C 0.24262 0.27554 0.64033 0.0
C708 C 0.24262 0.15679 0.64134 0.0
C709 C 0.19068 0.15673 0.63593 0.0
N710 N 0.11284 0.21346 0.63123 0.0
N711 N 0.31692 0.21797 0.65213 0.0
C712 C 0.16392 0.21541 0.63385 0.0
C713 C 0.2681 0.21671 0.64481 0.0
N714 N 0.16783 0.3327 0.62988 0.0
N715 N 0.26812 0.09951 0.64221 0.0
H716 H 0.33886 0.25998 0.65329 0.0
H717 H 0.3353 0.17767 0.65851 0.0
H718 H 0.25073 0.05407 0.64103 0.0
H719 H 0.30713 0.09646 0.64273 0.0
H720 H 0.13183 0.33586 0.62317 0.0
H721 H 0.18588 0.37765 0.6317 0.0
H722 H 0.09023 0.25426 0.63175 0.0
H723 H 0.09236 0.1701 0.63002 0.0
C724 C 0.75213 0.66437 0.89219 0.0
C725 C 0.8052 0.6657 0.89473 0.0
C726 C 0.80502 0.78426 0.89786 0.0
C727 C 0.75182 0.78236 0.89669 0.0
N728 N 0.67368 0.72104 0.89631 0.0
N729 N 0.8824 0.72395 0.90222 0.0
C730 C 0.72508 0.72258 0.89469 0.0
C731 C 0.8318 0.7249 0.8982 0.0
N732 N 0.72751 0.60751 0.8871 0.0
N733 N 0.82969 0.84286 0.89806 0.0
H734 H 0.90309 0.68128 0.90209 0.0
H735 H 0.90344 0.76445 0.90707 0.0
H736 H 0.8108 0.88693 0.89795 0.0
H737 H 0.86854 0.84822 0.89678 0.0
H738 H 0.69025 0.60517 0.88179 0.0
H739 H 0.74483 0.56247 0.88677 0.0
H740 H 0.65252 0.67851 0.8981 0.0
H741 H 0.65182 0.76244 0.89764 0.0
C742 C 0.24402 0.8417 0.90116 0.0
C743 C 0.19612 0.84331 0.89084 0.0
C744 C 0.19959 0.72617 0.88391 0.0
C745 C 0.24464 0.72409 0.89658 0.0
N746 N 0.30426 0.77815 0.92138 0.0
N747 N 0.12532 0.78753 0.87409 0.0
C748 C 0.26501 0.78123 0.90656 0.0
C749 C 0.17296 0.78559 0.88263 0.0
N750 N 0.27095 0.89779 0.90469 0.0
N751 N 0.18269 0.67172 0.87303 0.0
H752 H 0.10525 0.83051 0.87268 0.0
H753 H 0.10441 0.74631 0.86985 0.0
H754 H 0.20061 0.62713 0.87437 0.0
H755 H 0.15292 0.67155 0.86166 0.0
H756 H 0.30839 0.89838 0.90985 0.0
H757 H 0.25812 0.94349 0.90011 0.0
H758 H 0.31612 0.81762 0.93108 0.0
H759 H 0.32265 0.73546 0.92544 0.0
C760 C 0.17623 0.70729 0.40451 0.0
C761 C 0.20042 0.64788 0.39987 0.0
C762 C 0.27478 0.70596 0.38566 0.0
C763 C 0.25182 0.76549 0.39156 0.0
N764 N 0.18415 0.82413 0.4089 0.0
N765 N 0.27469 0.58894 0.38926 0.0
C766 C 0.20347 0.76657 0.40168 0.0
C767 C 0.2502 0.64671 0.39126 0.0
N768 N 0.12693 0.70687 0.41112 0.0
N769 N 0.32027 0.70601 0.37477 0.0
H770 H 0.25793 0.5441 0.39279 0.0
H771 H 0.31292 0.58521 0.38578 0.0
H772 H 0.34178 0.74774 0.37179 0.0
H773 H 0.33569 0.66501 0.36737 0.0
H774 H 0.10535 0.74846 0.41248 0.0
H775 H 0.10643 0.66414 0.41395 0.0
H776 H 0.15187 0.82764 0.41876 0.0
H777 H 0.20212 0.86869 0.40607 0.0
C778 C 0.74558 0.83218 0.38807 0.0
C779 C 0.79488 0.83307 0.39716 0.0
C780 C 0.7967 0.71425 0.39633 0.0
C781 C 0.74576 0.71359 0.38939 0.0
N782 N 0.66852 0.77122 0.38251 0.0
N783 N 0.86685 0.77691 0.41157 0.0
C784 C 0.71939 0.77232 0.38611 0.0
C785 C 0.82046 0.77457 0.40169 0.0
N786 N 0.72383 0.88847 0.38102 0.0
N787 N 0.82229 0.65725 0.39742 0.0
H788 H 0.88556 0.82044 0.41522 0.0
H789 H 0.88553 0.73623 0.41744 0.0
H790 H 0.80553 0.61256 0.39357 0.0
H791 H 0.86074 0.65442 0.40042 0.0
H792 H 0.69082 0.88951 0.37161 0.0
H793 H 0.74046 0.93416 0.38294 0.0
H794 H 0.64637 0.81251 0.38307 0.0
H795 H 0.64725 0.72871 0.38085 0.0
C796 C 0.26928 0.27728 0.14322 0.0
C797 C 0.24378 0.21748 0.13907 0.0
C798 C 0.16675 0.27542 0.12953 0.0
C799 C 0.19172 0.33483 0.13464 0.0
N800 N 0.26413 0.39292 0.14931 0.0
N801 N 0.16788 0.15742 0.131 0.0
C802 C 0.24209 0.33585 0.14251 0.0
C803 C 0.19226 0.21592 0.13304 0.0
N804 N 0.32032 0.27867 0.1463 0.0
N805 N 0.11916 0.27626 0.12086 0.0
H806 H 0.18595 0.11334 0.1335 0.0
H807 H 0.12934 0.15224 0.12849 0.0
H808 H 0.0991 0.31899 0.11868 0.0
H809 H 0.10046 0.23548 0.11461 0.0
H810 H 0.34198 0.32109 0.14614 0.0
H811 H 0.34223 0.23725 0.14729 0.0
H812 H 0.29778 0.39531 0.15823 0.0
H813 H 0.24757 0.4381 0.14738 0.0
C814 C 0.72442 0.22546 0.13124 0.0
C815 C 0.74912 0.28388 0.13792 0.0
C816 C 0.8275 0.22464 0.14333 0.0
C817 C 0.80159 0.16611 0.13783 0.0
N818 N 0.72259 0.1086 0.13331 0.0
N819 N 0.82157 0.33895 0.15326 0.0
C820 C 0.74917 0.16584 0.1339 0.0
C821 C 0.79994 0.28342 0.14501 0.0
N822 N 0.67798 0.22682 0.12141 0.0
N823 N 0.87844 0.22415 0.14627 0.0
H824 H 0.80229 0.38268 0.15418 0.0
H825 H 0.85709 0.34081 0.1606 0.0
H826 H 0.89929 0.18164 0.14562 0.0
H827 H 0.90044 0.26594 0.14807 0.0
H828 H 0.66122 0.18648 0.1138 0.0
H829 H 0.65777 0.26917 0.11912 0.0
H830 H 0.68343 0.10629 0.13293 0.0
H831 H 0.73909 0.06347 0.13562 0.0
C832 C 0.20874 0.05127 0.01446 0.0
C833 C 0.25106 0.09113 0.01964 0.0
C834 C 0.23952 0.15157 0.98451 0.0
C835 C 0.19482 0.11518 0.98006 0.0
N836 N 0.1318 0.0384 0.99286 0.0
N837 N 0.29887 0.18924 0.01263 0.0
C838 C 0.1779 0.06731 0.99567 0.0
C839 C 0.26388 0.14451 1.00562 0.0
N840 N 0.19904 0.99684 0.02698 0.0
N841 N 0.26093 0.18956 0.96809 0.0
H842 H 0.31703 0.18625 0.02816 0.0
H843 H 0.30592 0.23264 1.00411 0.0
H844 H 0.2464 0.1937 0.95186 0.0
H845 H 0.29627 0.21145 0.96975 0.0
H846 H 0.17228 0.96186 0.02251 0.0
H847 H 0.22032 0.98415 0.04103 0.0
H848 H 0.11522 0.00786 1.00481 0.0
H849 H 0.10802 0.0496 0.97949 0.0
C850 C 0.81705 0.42813 0.99672 0.0
C851 C 0.80119 0.38356 0.97985 0.0
C852 C 0.72644 0.35624 1.00237 0.0
C853 C 0.73903 0.40653 0.0177 0.0
N854 N 0.79235 0.49758 0.02771 0.0
N855 N 0.73388 0.31716 0.96419 0.0
C856 C 0.78333 0.44452 0.01443 0.0
C857 C 0.75411 0.35049 0.98201 0.0
N858 N 0.86477 0.45351 0.99615 0.0
N859 N 0.68868 0.31298 1.00741 0.0
H860 H 0.75084 0.31466 0.94838 0.0
H861 H 0.69741 0.29805 0.96432 0.0
H862 H 0.66787 0.31493 0.02232 0.0
H863 H 0.68154 0.27143 0.99786 0.0
H864 H 0.88007 0.48127 1.00918 0.0
H865 H 0.89078 0.44162 0.98367 0.0
H866 H 0.82119 0.53105 0.02456 0.0
H867 H 0.76843 0.51132 0.04078 0.0
C868 C 0.3247 0.93292 0.49812 0.0
C869 C 0.30788 0.88844 0.48138 0.0
C870 C 0.2342 0.86118 0.50463 0.0
C871 C 0.24765 0.9112 0.51993 0.0
N872 N 0.30256 0.00038 0.53012 0.0
N873 N 0.24018 0.82161 0.46643 0.0
C874 C 0.2922 0.94858 0.51643 0.0
C875 C 0.261 0.8553 0.48404 0.0
N876 N 0.37216 0.95889 0.4968 0.0
N877 N 0.19637 0.81829 0.50994 0.0
H878 H 0.25676 0.81867 0.45053 0.0
H879 H 0.20372 0.80251 0.46681 0.0
H880 H 0.17629 0.82031 0.52505 0.0
H881 H 0.1885 0.77688 0.50043 0.0
H882 H 0.38847 0.98648 0.50961 0.0
H883 H 0.39697 0.9481 0.48371 0.0
H884 H 0.33138 0.03382 0.52693 0.0
H885 H 0.27996 0.01278 0.54382 0.0
C886 C 0.74575 0.63839 0.50775 0.0
C887 C 0.7417 0.58083 0.52067 0.0
C888 C 0.67039 0.54478 0.49752 0.0
C889 C 0.67959 0.59755 0.48262 0.0
N890 N 0.73381 0.68732 0.47126 0.0
N891 N 0.70336 0.47577 0.52702 0.0
C892 C 0.71901 0.64294 0.48718 0.0
C893 C 0.70462 0.53314 0.51545 0.0
N894 N 0.77483 0.68911 0.51523 0.0
N895 N 0.62849 0.50657 0.49474 0.0
H896 H 0.72738 0.46596 0.54044 0.0
H897 H 0.68101 0.43621 0.52232 0.0
H898 H 0.60241 0.51438 0.48193 0.0
H899 H 0.61716 0.47114 0.50626 0.0
H900 H 0.77503 0.73465 0.50759 0.0
H901 H 0.79464 0.68777 0.53038 0.0
H902 H 0.76584 0.71654 0.47297 0.0
H903 H 0.71779 0.69051 0.4553 0.0
C904 C 0.71109 0.85785 0.01489 0.0
C905 C 0.70784 0.91655 1.00244 0.0
C906 C 0.77535 0.96359 0.02576 0.0
C907 C 0.77453 0.90746 0.03966 0.0
N908 N 0.72896 0.81043 0.05115 0.0
N909 N 0.7281 0.03068 1.00011 0.0
C910 C 0.73871 0.85722 0.03534 0.0
C911 C 0.73748 0.97108 1.00906 0.0
N912 N 0.69016 0.80164 1.0068 0.0
N913 N 0.81315 0.00867 0.02784 0.0
H914 H 0.69844 0.0384 0.98903 0.0
H915 H 0.74563 0.07318 1.00571 0.0
H916 H 0.84262 0.00396 0.03927 0.0
H917 H 0.81799 0.04725 0.01666 0.0
H918 H 0.69594 0.7567 0.01437 0.0
H919 H 0.67202 0.79837 0.99128 0.0
H920 H 0.69992 0.77634 0.04945 0.0
H921 H 0.74536 0.81047 0.06711 0.0
C922 C 0.22039 0.54357 0.02494 0.0
C923 C 0.20121 0.6015 0.03446 0.0
C924 C 0.24478 0.66402 1.00498 0.0
C925 C 0.2703 0.60746 0.99777 0.0
N926 N 0.28903 0.49469 1.00443 0.0
N927 N 0.20801 0.71874 0.03679 0.0
C928 C 0.25997 0.54744 1.00874 0.0
C929 C 0.21695 0.66237 0.02543 0.0
N930 N 0.19966 0.48492 0.03067 0.0
N931 N 0.24472 0.71863 0.99191 0.0
H932 H 0.1913 0.72024 0.05269 0.0
H933 H 0.22291 0.76337 0.03163 0.0
H934 H 0.26107 0.72095 0.97594 0.0
H935 H 0.22287 0.75883 0.99575 0.0
H936 H 0.2094 0.44167 0.02278 0.0
H937 H 0.16865 0.48061 0.04138 0.0
H938 H 0.28578 0.45149 0.01348 0.0
H939 H 0.31999 0.49645 0.99362 0.0
C940 C 0.69235 0.15241 0.52098 0.0
C941 C 0.68352 0.09096 0.53127 0.0
C942 C 0.74449 0.0429 0.50515 0.0
C943 C 0.74825 0.10247 0.49317 0.0
N944 N 0.71267 0.20815 0.48628 0.0
N945 N 0.69249 0.97478 0.52919 0.0
C946 C 0.71831 0.15558 0.50005 0.0
C947 C 0.70703 0.03523 0.52217 0.0
N948 N 0.67885 0.20838 0.53161 0.0
N949 N 0.77799 0.99459 0.50107 0.0
H950 H 0.66313 0.96732 0.54061 0.0
H951 H 0.70542 0.93233 0.52174 0.0
H952 H 0.80775 -0.00033 0.48971 0.0
H953 H 0.77957 0.95251 0.51078 0.0
H954 H 0.68893 0.25421 0.52553 0.0
H955 H 0.66316 0.20951 0.54772 0.0
H956 H 0.68755 0.24523 0.48984 0.0
H957 H 0.72817 0.21104 0.47014 0.0
C958 C 0.26499 0.44505 0.52563 0.0
C959 C 0.28449 0.38725 0.53506 0.0
C960 C 0.24272 0.32464 0.50515 0.0
C961 C 0.21717 0.38105 0.49787 0.0
N962 N 0.19683 0.49319 0.50474 0.0
N963 N 0.27999 0.26989 0.53682 0.0
C964 C 0.22629 0.4409 0.50911 0.0
C965 C 0.27006 0.32634 0.52569 0.0
N966 N 0.28476 0.5039 0.53171 0.0
N967 N 0.2432 0.27014 0.49203 0.0
H968 H 0.29695 0.26841 0.55263 0.0
H969 H 0.26594 0.22498 0.53153 0.0
H970 H 0.2267 0.26768 0.47613 0.0
H971 H 0.26526 0.23011 0.49579 0.0
H972 H 0.27485 0.54721 0.52392 0.0
H973 H 0.31529 0.50841 0.5426 0.0
H974 H 0.19911 0.53619 0.51394 0.0
H975 H 0.16641 0.4911 0.49369 0.0
C976 C 0.33013 0.07576 0.24642 0.0
C977 C 0.35789 0.04562 0.229 0.0
C978 C 0.39186 0.96898 0.25686 0.0
C979 C 0.35548 0.99029 0.27261 0.0
N980 N 0.29066 0.06544 0.28307 0.0
N981 N 0.42324 0.97038 0.21845 0.0
C982 C 0.32534 0.04477 0.26771 0.0
C983 C 0.39203 0.99512 0.23453 0.0
N984 N 0.30948 0.13515 0.24265 0.0
N985 N 0.42607 0.92365 0.26332 0.0
H986 H 0.4307 0.99321 0.20318 0.0
H987 H 0.44226 0.92688 0.22018 0.0
H988 H 0.42571 0.90234 0.27927 0.0
H989 H 0.45694 0.91028 0.25365 0.0
H990 H 0.29245 0.16268 0.25518 0.0
H991 H 0.31458 0.1601 0.22747 0.0
H992 H 0.26325 0.09948 0.27941 0.0
H993 H 0.28739 0.04577 0.29918 0.0
C994 C 0.67184 0.49955 0.23167 0.0
C995 C 0.6391 0.44626 0.22718 0.0
C996 C 0.61409 0.44385 0.26699 0.0
C997 C 0.64364 0.50072 0.27096 0.0
N998 N 0.68923 0.59227 0.2555 0.0
N999 N 0.57061 0.37691 0.23945 0.0
C1000 C 0.66863 0.53176 0.25272 0.0
C1001 C 0.60751 0.42125 0.2445 0.0
N1002 N 0.70852 0.51671 0.21655 0.0
N1003 N 0.5947 0.40907 0.28463 0.0
H1004 H 0.56442 0.35967 0.22313 0.0
H1005 H 0.54325 0.36202 0.25101 0.0
H1006 H 0.59876 0.42339 0.30131 0.0
H1007 H 0.57806 0.36335 0.28278 0.0
H1008 H 0.73633 0.55132 0.22003 0.0
H1009 H 0.7146 0.49154 0.20155 0.0
H1010 H 0.70408 0.61943 0.24218 0.0
H1011 H 0.6864 0.61792 0.27062 0.0
C1012 C 0.59 0.04178 0.78499 0.0
C1013 C 0.59162 0.97478 0.79039 0.0
C1014 C 0.5907 0.94692 0.75026 0.0
C1015 C 0.59427 0.01395 0.74488 0.0
N1016 N 0.58067 0.12425 0.75597 0.0
N1017 N 0.57645 0.86469 0.77913 0.0
C1018 C 0.58783 0.06106 0.76196 0.0
C1019 C 0.58563 0.92777 0.77323 0.0
N1020 N 0.59401 0.08675 0.80178 0.0
N1021 N 0.5957 0.90173 0.73363 0.0
H1022 H 0.57271 0.8505 0.79597 0.0
H1023 H 0.56797 0.82816 0.76758 0.0
H1024 H 0.59772 0.91438 0.71669 0.0
H1025 H 0.59975 0.85232 0.73662 0.0
H1026 H 0.59955 0.13617 0.79898 0.0
H1027 H 0.59333 0.07382 0.81873 0.0
H1028 H 0.572 0.16075 0.76741 0.0
H1029 H 0.57888 0.13874 0.73912 0.0
C1030 C 0.41457 0.44115 0.76255 0.0
C1031 C 0.40585 0.48587 0.74495 0.0
C1032 C 0.41011 0.57529 0.77222 0.0
C1033 C 0.40641 0.52961 0.78996 0.0
N1034 N 0.40973 0.41891 0.80268 0.0
N1035 N 0.39981 0.59633 0.73226 0.0
C1036 C 0.41145 0.46243 0.78535 0.0
C1037 C 0.40638 0.55347 0.7495 0.0
N1038 N 0.42452 0.37813 0.75725 0.0
N1039 N 0.41593 0.63953 0.77734 0.0
H1040 H 0.39912 0.58164 0.71549 0.0
H1041 H 0.39351 0.64562 0.73454 0.0
H1042 H 0.41876 0.65572 0.79399 0.0
H1043 H 0.4225 0.67555 0.76535 0.0
H1044 H 0.43481 0.34339 0.76905 0.0
H1045 H 0.42689 0.36236 0.74055 0.0
H1046 H 0.40685 0.36891 0.80048 0.0
H1047 H 0.40962 0.43347 0.81947 0.0
C1048 C 0.82846 0.47409 0.75321 0.0
C1049 C 0.85308 0.50565 0.77136 0.0
C1050 C 0.88944 0.58448 0.74465 0.0
C1051 C 0.8581 0.5588 0.7274 0.0
N1052 N 0.78738 0.48983 0.71752 0.0
N1053 N 0.90164 0.59766 0.78484 0.0
C1054 C 0.82497 0.50614 0.73221 0.0
C1055 C 0.88261 0.56247 0.76725 0.0
N1056 N 0.8082 0.41341 0.75606 0.0
N1057 N 0.92611 0.62903 0.73945 0.0
H1058 H 0.89701 0.58391 0.80161 0.0
H1059 H 0.91853 0.64319 0.78286 0.0
H1060 H 0.93222 0.64595 0.72307 0.0
H1061 H 0.9532 0.6446 0.75097 0.0
H1062 H 0.79342 0.38624 0.74275 0.0
H1063 H 0.81136 0.38774 0.77116 0.0
H1064 H 0.75953 0.45545 0.72129 0.0
H1065 H 0.7805 0.51585 0.70279 0.0
C1066 C 0.17107 0.93995 0.76569 0.0
C1067 C 0.14542 -0.00198 0.77087 0.0
C1068 C 0.10359 0.99387 0.73409 0.0
C1069 C 0.13761 0.945 0.72715 0.0
N1070 N 0.19622 0.86195 0.73719 0.0
N1071 N 0.08692 0.08099 0.76047 0.0
C1072 C 0.16864 0.91462 0.74338 0.0
C1073 C 0.11086 0.02455 0.75536 0.0
N1074 N 0.19765 0.90936 0.78219 0.0
N1075 N 0.06387 0.01016 0.72078 0.0
H1076 H 0.09011 0.10367 0.77614 0.0
H1077 H 0.06652 0.10752 0.74877 0.0
H1078 H 0.05501 0.98617 0.70587 0.0
H1079 H 0.03581 0.04178 0.72587 0.0
H1080 H 0.21417 0.86423 0.78034 0.0
H1081 H 0.20044 0.92747 0.79854 0.0
H1082 H 0.22438 0.84174 0.74698 0.0
H1083 H 0.19091 0.83835 0.72178 0.0
C1084 C 0.07279 0.431 0.27266 0.0
C1085 C 0.08177 0.47578 0.2903 0.0
C1086 C 0.08221 0.56473 0.2628 0.0
C1087 C 0.08583 0.51871 0.2452 0.0
N1088 N 0.08075 0.40761 0.23276 0.0
N1089 N 0.09102 0.5863 0.3028 0.0
C1090 C 0.07855 0.45169 0.24988 0.0
C1091 C 0.08386 0.54326 0.28561 0.0
N1092 N 0.0601 0.36842 0.27792 0.0
N1093 N 0.07828 0.62895 0.25752 0.0
H1094 H 0.09024 0.57203 0.31962 0.0
H1095 H 0.09935 0.63531 0.30044 0.0
H1096 H 0.07687 0.64501 0.24083 0.0
H1097 H 0.07174 0.66509 0.26939 0.0
H1098 H 0.04936 0.33383 0.26602 0.0
H1099 H 0.05582 0.3531 0.29462 0.0
H1100 H 0.08213 0.35767 0.23522 0.0
H1101 H 0.08304 0.4215 0.21593 0.0
C1102 C 0.92402 0.06182 0.2726 0.0
C1103 C 0.91704 0.01516 0.28982 0.0
C1104 C 0.92553 0.92814 0.26203 0.0
C1105 C 0.91901 0.9743 0.24467 0.0
N1106 N 0.92073 0.08562 0.23253 0.0
N1107 N 0.91842 0.90409 0.30203 0.0
C1108 C 0.92246 0.04154 0.24965 0.0
C1109 C 0.9216 0.94822 0.28491 0.0
N1110 N 0.93043 0.12544 0.27844 0.0
N1111 N 0.9338 0.86499 0.25633 0.0
H1112 H 0.91753 0.91821 0.3189 0.0
H1113 H 0.91554 0.85419 0.29962 0.0
H1114 H 0.93678 0.85046 0.23951 0.0
H1115 H 0.94191 0.82877 0.26794 0.0
H1116 H 0.93874 0.16233 0.267 0.0
H1117 H 0.93152 0.14013 0.2953 0.0
H1118 H 0.91678 0.13531 0.23488 0.0
H1119 H 0.92288 0.07178 0.2157 0.0
C1120 C 0.48919 0.30988 0.11082 0.0
C1121 C 0.53269 0.3023 0.12424 0.0
C1122 C 0.50912 0.18909 0.13172 0.0
C1123 C 0.46254 0.19926 0.12095 0.0
N1124 N 0.4042 0.27301 0.10335 0.0
N1125 N 0.5811 0.23713 0.15024 0.0
C1126 C 0.45153 0.2604 0.11107 0.0
C1127 C 0.54182 0.24266 0.13553 0.0
N1128 N 0.48346 0.36464 0.09813 0.0
N1129 N 0.52268 0.1277 0.13773 0.0
H1130 H 0.6076 0.27376 0.15313 0.0
H1131 H 0.58554 0.19737 0.16086 0.0
H1132 H 0.49982 0.08711 0.13471 0.0
H1133 H 0.55846 0.11616 0.14348 0.0
H1134 H 0.45539 0.36945 0.08604 0.0
H1135 H 0.50884 0.40362 0.09855 0.0
H1136 H 0.39265 0.31906 0.09854 0.0
H1137 H 0.37479 0.23917 0.10358 0.0
C1138 C 0.48559 0.76784 0.36621 0.0
C1139 C 0.47708 0.8035 0.38632 0.0
C1140 C 0.51351 0.71512 0.40828 0.0
C1141 C 0.52204 0.67933 0.38819 0.0
N1142 N 0.49475 0.66124 0.34996 0.0
N1143 N 0.50524 0.82193 0.42441 0.0
C1144 C 0.50189 0.7027 0.36764 0.0
C1145 C 0.49764 0.78037 0.4068 0.0
N1146 N 0.48213 0.7976 0.34572 0.0
N1147 N 0.51625 0.68545 0.42881 0.0
H1148 H 0.49979 0.87178 0.42286 0.0
H1149 H 0.52378 0.80855 0.43914 0.0
H1150 H 0.51972 0.63534 0.43044 0.0
H1151 H 0.50692 0.70862 0.44385 0.0
H1152 H 0.49157 0.77482 0.33063 0.0
H1153 H 0.47758 0.8476 0.34418 0.0
H1154 H 0.47652 0.67457 0.33516 0.0
H1155 H 0.50035 0.61142 0.3515 0.0
C1156 C 0.54126 0.74943 0.92961 0.0
C1157 C 0.53187 0.81112 0.91966 0.0
C1158 C 0.44909 0.77281 0.90711 0.0
C1159 C 0.45822 0.71138 0.91715 0.0
N1160 N 0.50703 0.6458 0.94231 0.0
N1161 N 0.47224 0.88682 0.90493 0.0
C1162 C 0.50221 0.70145 0.93001 0.0
C1163 C 0.48418 0.82439 0.91033 0.0
N1164 N 0.58826 0.73467 0.93721 0.0
N1165 N 0.40755 0.78153 0.89393 0.0
H1166 H 0.497 0.92576 0.90758 0.0
H1167 H 0.43637 0.90094 0.9001 0.0
H1168 H 0.37969 0.74616 0.89171 0.0
H1169 H 0.40214 0.8225 0.88399 0.0
H1170 H 0.59879 0.68804 0.94182 0.0
H1171 H 0.61829 0.76749 0.93743 0.0
H1172 H 0.53564 0.63874 0.95399 0.0
H1173 H 0.48006 0.60861 0.94219 0.0
C1174 C 0.44577 0.2338 0.61168 0.0
C1175 C 0.4594 0.29578 0.6206 0.0
C1176 C 0.5401 0.25279 0.633 0.0
C1177 C 0.52813 0.19215 0.62262 0.0
N1178 N 0.4735 0.12846 0.5987 0.0
N1179 N 0.52339 0.36798 0.63501 0.0
C1180 C 0.4824 0.18404 0.61068 0.0
C1181 C 0.50778 0.30631 0.62983 0.0
N1182 N 0.39703 0.22064 0.60571 0.0
N1183 N 0.58181 0.25936 0.6463 0.0
H1184 H 0.50081 0.40841 0.63253 0.0
H1185 H 0.5602 0.37986 0.63953 0.0
H1186 H 0.60824 0.2231 0.64849 0.0
H1187 H 0.58866 0.29972 0.65646 0.0
H1188 H 0.38387 0.17428 0.6017 0.0
H1189 H 0.36833 0.25444 0.60673 0.0
H1190 H 0.44343 0.12293 0.5876 0.0
H1191 H 0.49818 0.08955 0.59859 0.0
C1192 C 0.0095 0.67894 0.61719 0.0
C1193 C 0.95818 0.69384 0.6201 0.0
C1194 C 0.97797 0.81013 0.62096 0.0
C1195 C 0.02927 0.7954 0.61767 0.0
N1196 N 0.09339 0.718 0.608 0.0
N1197 N 0.89147 0.77228 0.61946 0.0
C1198 C 0.04486 0.73042 0.61418 0.0
C1199 C 0.94173 0.75914 0.62033 0.0
N1200 N 0.02452 0.61578 0.61805 0.0
N1201 N 0.96416 0.87264 0.62519 0.0
H1202 H 0.86371 0.73613 0.61897 0.0
H1203 H 0.87725 0.8187 0.61735 0.0
H1204 H 0.98952 0.91165 0.62451 0.0
H1205 H 0.92831 0.88547 0.63054 0.0
H1206 H 0.062 0.60195 0.61872 0.0
H1207 H -0.0008 0.57693 0.6196 0.0
H1208 H 0.10575 0.67247 0.60303 0.0
H1209 H 0.12089 0.7541 0.6062 0.0
C1210 C 0.05293 0.27105 0.87672 0.0
C1211 C 0.03856 0.20652 0.88281 0.0
C1212 C 0.95154 0.24053 0.88848 0.0
C1213 C 0.9665 0.30558 0.88368 0.0
N1214 N 0.0303 0.38499 0.87456 0.0
N1215 N 0.97624 0.12961 0.89601 0.0
C1216 C 0.01683 0.3214 0.87791 0.0
C1217 C 0.98837 0.1912 0.8891 0.0
N1218 N 0.10136 0.28419 0.87015 0.0
N1219 N 0.90172 0.22578 0.8918 0.0
H1220 H 0.00145 0.09129 0.89528 0.0
H1221 H 0.94215 0.11671 0.90351 0.0
H1222 H 0.87371 0.26068 0.89207 0.0
H1223 H 0.88725 0.17875 0.89281 0.0
H1224 H 0.11336 0.32787 0.86307 0.0
H1225 H 0.12996 0.25026 0.871 0.0
H1226 H 0.06711 0.40156 0.87251 0.0
H1227 H 0.00444 0.42263 0.87498 0.0
C1228 C 0.02659 0.23934 0.4276 0.0
C1229 C 0.01848 0.30216 0.41826 0.0
C1230 C 0.93305 0.26941 0.40719 0.0
C1231 C 0.94159 0.20662 0.41617 0.0
N1232 N 0.99022 0.13638 0.43976 0.0
N1233 N 0.96068 0.38196 0.40466 0.0
C1234 C 0.98623 0.19332 0.42812 0.0
C1235 C 0.97052 0.31869 0.40977 0.0
N1236 N 0.07354 0.22165 0.43447 0.0
N1237 N 0.88947 0.28145 0.39579 0.0
H1238 H 0.98717 0.41918 0.40691 0.0
H1239 H 0.92525 0.39865 0.40028 0.0
H1240 H 0.85976 0.24801 0.3948 0.0
H1241 H 0.88349 0.32331 0.3864 0.0
H1242 H 0.08296 0.1742 0.43852 0.0
H1243 H 0.10459 0.25282 0.43461 0.0
H1244 H 0.01944 0.12671 0.45088 0.0
H1245 H 0.96194 0.10083 0.43983 0.0
C1246 C 0.95278 0.74677 0.10851 0.0
C1247 C 0.96551 0.80689 0.11907 0.0
C1248 C 0.04326 0.76016 0.1334 0.0
C1249 C 0.03199 0.70104 0.12186 0.0
N1250 N 0.98101 0.64211 0.09506 0.0
N1251 N 0.02782 0.87545 0.13664 0.0
C1252 C 0.98857 0.69593 0.10814 0.0
C1253 C 0.01233 0.81488 0.13001 0.0
N1254 N 0.90537 0.73627 0.10027 0.0
N1255 N 0.08297 0.76414 0.14798 0.0
H1256 H 0.00624 0.91672 0.13403 0.0
H1257 H 0.0639 0.88585 0.14253 0.0
H1258 H 0.10887 0.72731 0.15026 0.0
H1259 H 0.08869 0.80296 0.15896 0.0
H1260 H 0.8922 0.69101 0.09497 0.0
H1261 H 0.87734 0.77108 0.10048 0.0
H1262 H 0.95318 0.63889 0.08277 0.0
H1263 H 0.00484 0.60232 0.09535 0.0
loop_
_geom_bond_atom_site_label_1
_geom_bond_atom_site_label_2
_geom_bond_distance
_geom_bond_site_symmetry_2
_ccdc_geom_bond_type
Co0 O3 1.970 . S
Co0 N17 1.989 . S
Co0 O25 1.967 . S
Co0 O32 1.920 . S
Co1 O4 1.966 . S
Co1 N10 2.022 . S
Co1 N18 1.993 . S
Co1 O26 1.941 . S
C2 O3 1.258 . S
C2 O4 1.263 . S
O3 Co0 1.970 . S
O3 C2 1.258 . S
O4 Co1 1.966 . S
O4 C2 1.263 . S
C5 O6 1.235 . S
C5 O32 1.289 . S
O6 C5 1.235 . S
C7 C9 1.400 . S
C7 N10 1.351 . S
C7 C12 1.501 . S
C8 C9 1.387 . S
C8 N11 1.341 . S
C9 C7 1.400 . S
C9 C8 1.387 . S
N10 Co1 2.022 . S
N10 C7 1.351 . S
N10 N11 1.365 . S
N11 C8 1.341 . S
N11 N10 1.365 . S
N11 H31 0.862 . S
C12 C7 1.501 . S
C12 H13 0.961 . S
C12 H14 0.961 . S
C12 H15 0.960 . S
H13 C12 0.961 . S
H14 C12 0.961 . S
H15 C12 0.960 . S
C16 N17 1.342 1_565 S
C16 C20 1.401 . S
C16 C21 1.499 . S
N17 Co0 1.989 . S
N17 C16 1.342 1_545 S
N17 N18 1.388 . S
N18 Co1 1.993 . S
N18 N17 1.388 . S
N18 C19 1.346 1_545 S
C19 N18 1.346 1_565 S
C19 C20 1.396 . S
C19 C29 1.510 . S
C20 C16 1.401 . S
C20 C19 1.396 . S
C21 C16 1.499 . S
C21 H22 0.959 . S
C21 H23 0.960 . S
C21 H24 0.961 . S
H22 C21 0.959 . S
H23 C21 0.960 . S
H24 C21 0.961 . S
O25 Co0 1.967 . S
O25 C33 1.258 . S
O26 Co1 1.941 . S
O26 C33 1.266 . S
H27 C29 0.959 . S
H28 C29 0.961 . S
C29 C19 1.510 . S
C29 H27 0.959 . S
C29 H28 0.961 . S
C29 H30 0.960 1_565 S
H30 C29 0.960 1_545 S
H31 N11 0.862 . S
O32 Co0 1.920 . S
O32 C5 1.289 . S
C33 O25 1.258 . S
C33 O26 1.266 . S
Co34 O37 1.970 . S
Co34 N51 1.989 . S
Co34 O59 1.967 . S
Co34 O66 1.920 . S
Co35 O38 1.966 . S
Co35 N44 2.022 . S
Co35 N52 1.993 . S
Co35 O60 1.941 . S
C36 O37 1.258 . S
C36 O38 1.263 . S
O37 Co34 1.970 . S
O37 C36 1.258 . S
O38 Co35 1.966 . S
O38 C36 1.263 . S
C39 O40 1.235 . S
C39 O66 1.289 . S
O40 C39 1.235 . S
C41 C43 1.400 . S
C41 N44 1.351 . S
C41 C46 1.501 . S
C42 C43 1.387 . S
C42 N45 1.341 . S
C43 C41 1.400 . S
C43 C42 1.387 . S
N44 Co35 2.022 . S
N44 C41 1.351 . S
N44 N45 1.365 . S
N45 C42 1.341 . S
N45 N44 1.365 . S
N45 H65 0.862 . S
C46 C41 1.501 . S
C46 H47 0.961 . S
C46 H48 0.961 . S
C46 H49 0.960 . S
H47 C46 0.961 . S
H48 C46 0.961 . S
H49 C46 0.960 . S
C50 N51 1.342 . S
C50 C54 1.401 . S
C50 C55 1.499 . S
N51 Co34 1.989 . S
N51 C50 1.342 . S
N51 N52 1.388 . S
N52 Co35 1.993 . S
N52 N51 1.388 . S
N52 C53 1.346 . S
C53 N52 1.346 . S
C53 C54 1.396 . S
C53 C63 1.510 . S
C54 C50 1.401 . S
C54 C53 1.396 . S
C55 C50 1.499 . S
C55 H56 0.959 . S
C55 H57 0.960 . S
C55 H58 0.961 . S
H56 C55 0.959 . S
H57 C55 0.960 . S
H58 C55 0.961 . S
O59 Co34 1.967 . S
O59 C67 1.258 . S
O60 Co35 1.941 . S
O60 C67 1.266 . S
H61 C63 0.959 . S
H62 C63 0.961 . S
C63 C53 1.510 . S
C63 H61 0.959 . S
C63 H62 0.961 . S
C63 H64 0.960 . S
H64 C63 0.960 . S
H65 N45 0.862 . S
O66 Co34 1.920 . S
O66 C39 1.289 . S
C67 O59 1.258 . S
C67 O60 1.266 . S
Co68 O71 1.970 . S
Co68 N85 1.989 . S
Co68 O93 1.967 . S
Co68 O100 1.920 . S
Co69 O72 1.966 . S
Co69 N78 2.022 . S
Co69 N86 1.993 . S
Co69 O94 1.941 . S
C70 O71 1.258 . S
C70 O72 1.263 . S
O71 Co68 1.970 . S
O71 C70 1.258 . S
O72 Co69 1.966 . S
O72 C70 1.263 . S
C73 O74 1.235 . S
C73 O100 1.289 . S
O74 C73 1.235 . S
C75 C77 1.400 . S
C75 N78 1.351 . S
C75 C80 1.501 . S
C76 C77 1.387 . S
C76 N79 1.341 . S
C77 C75 1.400 . S
C77 C76 1.387 . S
N78 Co69 2.022 . S
N78 C75 1.351 . S
N78 N79 1.365 . S
N79 C76 1.341 . S
N79 N78 1.365 . S
N79 H99 0.862 . S
C80 C75 1.501 . S
C80 H81 0.961 . S
C80 H82 0.961 . S
C80 H83 0.960 . S
H81 C80 0.961 . S
H82 C80 0.961 . S
H83 C80 0.960 . S
C84 N85 1.342 1_545 S
C84 C88 1.401 . S
C84 C89 1.499 . S
N85 Co68 1.989 . S
N85 C84 1.342 1_565 S
N85 N86 1.388 . S
N86 Co69 1.993 . S
N86 N85 1.388 . S
N86 C87 1.346 1_565 S
C87 N86 1.346 1_545 S
C87 C88 1.396 . S
C87 C97 1.510 . S
C88 C84 1.401 . S
C88 C87 1.396 . S
C89 C84 1.499 . S
C89 H90 0.959 . S
C89 H91 0.960 . S
C89 H92 0.961 . S
H90 C89 0.959 . S
H91 C89 0.960 . S
H92 C89 0.961 . S
O93 Co68 1.967 . S
O93 C101 1.258 . S
O94 Co69 1.941 . S
O94 C101 1.266 . S
H95 C97 0.959 . S
H96 C97 0.961 . S
C97 C87 1.510 . S
C97 H95 0.959 . S
C97 H96 0.961 . S
C97 H98 0.960 . S
H98 C97 0.960 . S
H99 N79 0.862 . S
O100 Co68 1.920 . S
O100 C73 1.289 . S
C101 O93 1.258 . S
C101 O94 1.266 . S
Co102 O105 1.970 . S
Co102 N119 1.989 . S
Co102 O127 1.967 . S
Co102 O134 1.920 . S
Co103 O106 1.966 . S
Co103 N112 2.022 . S
Co103 N120 1.993 . S
Co103 O128 1.941 . S
C104 O105 1.258 . S
C104 O106 1.263 . S
O105 Co102 1.970 . S
O105 C104 1.258 . S
O106 Co103 1.966 . S
O106 C104 1.263 . S
C107 O108 1.235 . S
C107 O134 1.289 . S
O108 C107 1.235 . S
C109 C111 1.400 . S
C109 N112 1.351 . S
C109 C114 1.501 . S
C110 C111 1.387 . S
C110 N113 1.341 . S
C111 C109 1.400 . S
C111 C110 1.387 . S
N112 Co103 2.022 . S
N112 C109 1.351 . S
N112 N113 1.365 . S
N113 C110 1.341 . S
N113 N112 1.365 . S
N113 H133 0.862 . S
C114 C109 1.501 . S
C114 H115 0.961 . S
C114 H116 0.961 . S
C114 H117 0.960 . S
H115 C114 0.961 . S
H116 C114 0.961 . S
H117 C114 0.960 . S
C118 N119 1.342 . S
C118 C122 1.401 . S
C118 C123 1.499 . S
N119 Co102 1.989 . S
N119 C118 1.342 . S
N119 N120 1.388 . S
N120 Co103 1.993 . S
N120 N119 1.388 . S
N120 C121 1.346 . S
C121 N120 1.346 . S
C121 C122 1.396 . S
C121 C131 1.510 . S
C122 C118 1.401 . S
C122 C121 1.396 . S
C123 C118 1.499 . S
C123 H124 0.959 . S
C123 H125 0.960 . S
C123 H126 0.961 . S
H124 C123 0.959 . S
H125 C123 0.960 . S
H126 C123 0.961 . S
O127 Co102 1.967 . S
O127 C135 1.258 . S
O128 Co103 1.941 . S
O128 C135 1.266 . S
H129 C131 0.959 . S
H130 C131 0.961 . S
C131 C121 1.510 . S
C131 H129 0.959 . S
C131 H130 0.961 . S
C131 H132 0.960 . S
H132 C131 0.960 . S
H133 N113 0.862 . S
O134 Co102 1.920 . S
O134 C107 1.289 . S
C135 O127 1.258 . S
C135 O128 1.266 . S
Co136 O139 1.970 . S
Co136 N153 1.989 . S
Co136 O161 1.967 . S
Co136 O168 1.920 . S
Co137 O140 1.966 . S
Co137 N146 2.022 . S
Co137 N154 1.993 . S
Co137 O162 1.941 . S
C138 O139 1.258 . S
C138 O140 1.263 . S
O139 Co136 1.970 . S
O139 C138 1.258 . S
O140 Co137 1.966 . S
O140 C138 1.263 . S
C141 O142 1.235 . S
C141 O168 1.289 . S
O142 C141 1.235 . S
C143 C145 1.400 . S
C143 N146 1.351 . S
C143 C148 1.501 . S
C144 C145 1.387 . S
C144 N147 1.341 . S
C145 C143 1.400 . S
C145 C144 1.387 . S
N146 Co137 2.022 . S
N146 C143 1.351 . S
N146 N147 1.365 . S
N147 C144 1.341 . S
N147 N146 1.365 . S
N147 H167 0.862 . S
C148 C143 1.501 . S
C148 H149 0.961 . S
C148 H150 0.961 . S
C148 H151 0.960 . S
H149 C148 0.961 . S
H150 C148 0.961 . S
H151 C148 0.960 . S
C152 N153 1.342 1_545 S
C152 C156 1.401 . S
C152 C157 1.499 . S
N153 Co136 1.989 . S
N153 C152 1.342 1_565 S
N153 N154 1.388 . S
N154 Co137 1.993 . S
N154 N153 1.388 . S
N154 C155 1.346 1_565 S
C155 N154 1.346 1_545 S
C155 C156 1.396 . S
C155 C165 1.510 . S
C156 C152 1.401 . S
C156 C155 1.396 . S
C157 C152 1.499 . S
C157 H158 0.971 . S
C157 H159 0.960 . S
C157 H160 0.961 . S
H158 C157 0.971 . S
H159 C157 0.960 . S
H160 C157 0.961 . S
O161 Co136 1.967 . S
O161 C169 1.258 . S
O162 Co137 1.941 . S
O162 C169 1.266 . S
H163 C165 0.959 . S
H164 C165 0.961 . S
C165 C155 1.510 . S
C165 H163 0.959 . S
C165 H164 0.961 . S
C165 H166 0.960 . S
H166 C165 0.960 . S
H167 N147 0.862 . S
O168 Co136 1.920 . S
O168 C141 1.289 . S
C169 O161 1.258 . S
C169 O162 1.266 . S
Co170 O173 1.970 . S
Co170 N187 1.989 . S
Co170 O195 1.967 . S
Co170 O202 1.920 . S
Co171 O174 1.966 . S
Co171 N180 2.022 . S
Co171 N188 1.993 . S
Co171 O196 1.941 . S
C172 O173 1.258 . S
C172 O174 1.263 . S
O173 Co170 1.970 . S
O173 C172 1.258 . S
O174 Co171 1.966 . S
O174 C172 1.263 . S
C175 O176 1.235 . S
C175 O202 1.289 . S
O176 C175 1.235 . S
C177 C179 1.400 . S
C177 N180 1.351 . S
C177 C182 1.501 . S
C178 C179 1.387 . S
C178 N181 1.341 . S
C179 C177 1.400 . S
C179 C178 1.387 . S
N180 Co171 2.022 . S
N180 C177 1.351 . S
N180 N181 1.365 . S
N181 C178 1.341 . S
N181 N180 1.365 . S
N181 H201 0.862 . S
C182 C177 1.501 . S
C182 H183 0.961 . S
C182 H184 0.961 . S
C182 H185 0.960 . S
H183 C182 0.961 . S
H184 C182 0.961 . S
H185 C182 0.960 . S
C186 N187 1.342 . S
C186 C190 1.401 . S
C186 C191 1.499 . S
N187 Co170 1.989 . S
N187 C186 1.342 . S
N187 N188 1.388 . S
N188 Co171 1.993 . S
N188 N187 1.388 . S
N188 C189 1.346 . S
C189 N188 1.346 . S
C189 C190 1.396 . S
C189 C199 1.510 . S
C190 C186 1.401 . S
C190 C189 1.396 . S
C191 C186 1.499 . S
C191 H192 0.959 . S
C191 H193 0.960 . S
C191 H194 0.961 . S
H192 C191 0.959 . S
H193 C191 0.960 . S
H194 C191 0.961 . S
O195 Co170 1.967 . S
O195 C203 1.258 . S
O196 Co171 1.941 . S
O196 C203 1.266 . S
H197 C199 0.959 . S
H198 C199 0.961 . S
C199 C189 1.510 . S
C199 H197 0.959 . S
C199 H198 0.961 . S
C199 H200 0.960 . S
H200 C199 0.960 . S
H201 N181 0.862 . S
O202 Co170 1.920 . S
O202 C175 1.289 . S
C203 O195 1.258 . S
C203 O196 1.266 . S
Co204 O207 1.970 . S
Co204 N221 1.989 . S
Co204 O229 1.967 . S
Co204 O236 1.920 . S
Co205 O208 1.966 . S
Co205 N214 2.022 . S
Co205 N222 1.993 . S
Co205 O230 1.941 . S
C206 O207 1.258 . S
C206 O208 1.263 . S
O207 Co204 1.970 . S
O207 C206 1.258 . S
O208 Co205 1.966 . S
O208 C206 1.263 . S
C209 O210 1.235 . S
C209 O236 1.289 . S
O210 C209 1.235 . S
C211 C213 1.400 . S
C211 N214 1.351 . S
C211 C216 1.501 . S
C212 C213 1.387 . S
C212 N215 1.341 . S
C213 C211 1.400 . S
C213 C212 1.387 . S
N214 Co205 2.022 . S
N214 C211 1.351 . S
N214 N215 1.365 . S
N215 C212 1.341 . S
N215 N214 1.365 . S
N215 H235 0.862 . S
C216 C211 1.501 . S
C216 H217 0.961 . S
C216 H218 0.961 . S
C216 H219 0.960 . S
H217 C216 0.961 . S
H218 C216 0.961 . S
H219 C216 0.960 . S
C220 N221 1.342 1_565 S
C220 C224 1.401 . S
C220 C225 1.499 . S
N221 Co204 1.989 . S
N221 C220 1.342 1_545 S
N221 N222 1.388 . S
N222 Co205 1.993 . S
N222 N221 1.388 . S
N222 C223 1.346 1_545 S
C223 N222 1.346 1_565 S
C223 C224 1.396 . S
C223 C233 1.510 . S
C224 C220 1.401 . S
C224 C223 1.396 . S
C225 C220 1.499 . S
C225 H226 0.959 1_565 S
C225 H227 0.960 . S
C225 H228 0.961 . S
H226 C225 0.959 1_545 S
H227 C225 0.960 . S
H228 C225 0.961 . S
O229 Co204 1.967 . S
O229 C237 1.258 . S
O230 Co205 1.941 . S
O230 C237 1.266 . S
H231 C233 0.959 . S
H232 C233 0.961 . S
C233 C223 1.510 . S
C233 H231 0.959 . S
C233 H232 0.961 . S
C233 H234 0.960 . S
H234 C233 0.960 . S
H235 N215 0.862 . S
O236 Co204 1.920 . S
O236 C209 1.289 . S
C237 O229 1.258 . S
C237 O230 1.266 . S
Co238 O241 1.970 . S
Co238 N255 1.989 . S
Co238 O263 1.967 . S
Co238 O270 1.920 . S
Co239 O242 1.966 . S
Co239 N248 2.022 . S
Co239 N256 1.993 . S
Co239 O264 1.941 . S
C240 O241 1.258 . S
C240 O242 1.263 . S
O241 Co238 1.970 . S
O241 C240 1.258 . S
O242 Co239 1.966 . S
O242 C240 1.263 . S
C243 O244 1.235 . S
C243 O270 1.289 . S
O244 C243 1.235 . S
C245 C247 1.400 . S
C245 N248 1.351 . S
C245 C250 1.501 . S
C246 C247 1.387 . S
C246 N249 1.341 . S
C247 C245 1.400 . S
C247 C246 1.387 . S
N248 Co239 2.022 . S
N248 C245 1.351 . S
N248 N249 1.365 . S
N249 C246 1.341 . S
N249 N248 1.365 . S
N249 H269 0.862 . S
C250 C245 1.501 . S
C250 H251 0.961 . S
C250 H252 0.961 . S
C250 H253 0.960 . S
H251 C250 0.961 . S
H252 C250 0.961 . S
H253 C250 0.960 . S
C254 N255 1.342 . S
C254 C258 1.401 . S
C254 C259 1.499 . S
N255 Co238 1.989 . S
N255 C254 1.342 . S
N255 N256 1.388 . S
N256 Co239 1.993 . S
N256 N255 1.388 . S
N256 C257 1.346 . S
C257 N256 1.346 . S
C257 C258 1.396 . S
C257 C267 1.510 . S
C258 C254 1.401 . S
C258 C257 1.396 . S
C259 C254 1.499 . S
C259 H260 0.959 . S
C259 H261 0.960 . S
C259 H262 0.961 . S
H260 C259 0.959 . S
H261 C259 0.960 . S
H262 C259 0.961 . S
O263 Co238 1.967 . S
O263 C271 1.258 . S
O264 Co239 1.941 . S
O264 C271 1.266 . S
H265 C267 0.959 . S
H266 C267 0.961 . S
C267 C257 1.510 . S
C267 H265 0.959 . S
C267 H266 0.961 . S
C267 H268 0.960 . S
H268 C267 0.960 . S
H269 N249 0.862 . S
O270 Co238 1.920 . S
O270 C243 1.289 . S
C271 O263 1.258 . S
C271 O264 1.266 . S
Co272 O275 1.970 . S
Co272 N289 1.989 . S
Co272 O297 1.967 . S
Co272 O304 1.920 . S
Co273 O276 1.966 . S
Co273 N282 2.022 . S
Co273 N290 1.993 . S
Co273 O298 1.941 . S
C274 O275 1.258 . S
C274 O276 1.263 . S
O275 Co272 1.970 . S
O275 C274 1.258 . S
O276 Co273 1.966 . S
O276 C274 1.263 . S
C277 O278 1.235 . S
C277 O304 1.289 . S
O278 C277 1.235 . S
C279 C281 1.400 . S
C279 N282 1.351 . S
C279 C284 1.501 . S
C280 C281 1.387 . S
C280 N283 1.341 . S
C281 C279 1.400 . S
C281 C280 1.387 . S
N282 Co273 2.022 . S
N282 C279 1.351 . S
N282 N283 1.365 . S
N283 C280 1.341 . S
N283 N282 1.365 . S
N283 H303 0.862 . S
C284 C279 1.501 . S
C284 H285 0.961 . S
C284 H286 0.961 . S
C284 H287 0.960 . S
H285 C284 0.961 . S
H286 C284 0.961 . S
H287 C284 0.960 . S
C288 N289 1.342 . S
C288 C292 1.401 . S
C288 C293 1.499 . S
N289 Co272 1.989 . S
N289 C288 1.342 . S
N289 N290 1.388 . S
N290 Co273 1.993 . S
N290 N289 1.388 . S
N290 C291 1.346 . S
C291 N290 1.346 . S
C291 C292 1.396 . S
C291 C301 1.510 . S
C292 C288 1.401 . S
C292 C291 1.396 . S
C293 C288 1.499 . S
C293 H294 0.959 . S
C293 H295 0.960 . S
C293 H296 0.961 . S
H294 C293 0.959 . S
H295 C293 0.960 . S
H296 C293 0.961 . S
O297 Co272 1.967 . S
O297 C305 1.258 . S
O298 Co273 1.941 . S
O298 C305 1.266 . S
H299 C301 0.959 . S
H300 C301 0.961 . S
C301 C291 1.510 . S
C301 H299 0.959 . S
C301 H300 0.961 . S
C301 H302 0.960 . S
H302 C301 0.960 . S
H303 N283 0.862 . S
O304 Co272 1.920 . S
O304 C277 1.289 . S
C305 O297 1.258 . S
C305 O298 1.266 . S
Co306 O309 1.970 . S
Co306 N323 1.989 . S
Co306 O331 1.967 . S
Co306 O338 1.920 . S
Co307 O310 1.966 . S
Co307 N316 2.022 . S
Co307 N324 1.993 . S
Co307 O332 1.941 . S
C308 O309 1.258 . S
C308 O310 1.263 . S
O309 Co306 1.970 . S
O309 C308 1.258 . S
O310 Co307 1.966 . S
O310 C308 1.263 . S
C311 O312 1.235 . S
C311 O338 1.289 . S
O312 C311 1.235 . S
C313 C315 1.400 . S
C313 N316 1.351 . S
C313 C318 1.501 . S
C314 C315 1.387 . S
C314 N317 1.341 . S
C315 C313 1.400 . S
C315 C314 1.387 . S
N316 Co307 2.022 . S
N316 C313 1.351 . S
N316 N317 1.365 . S
N317 C314 1.341 . S
N317 N316 1.365 . S
N317 H337 0.862 . S
C318 C313 1.501 . S
C318 H319 0.961 . S
C318 H320 0.961 . S
C318 H321 0.960 . S
H319 C318 0.961 . S
H320 C318 0.961 . S
H321 C318 0.960 . S
C322 N323 1.342 1_545 S
C322 C326 1.401 . S
C322 C327 1.499 . S
N323 Co306 1.989 . S
N323 C322 1.342 1_565 S
N323 N324 1.388 . S
N324 Co307 1.993 . S
N324 N323 1.388 . S
N324 C325 1.346 1_565 S
C325 N324 1.346 1_545 S
C325 C326 1.396 . S
C325 C335 1.510 . S
C326 C322 1.401 . S
C326 C325 1.396 . S
C327 C322 1.499 . S
C327 H328 0.959 . S
C327 H329 0.960 . S
C327 H330 0.961 . S
H328 C327 0.959 . S
H329 C327 0.960 . S
H330 C327 0.961 . S
O331 Co306 1.967 . S
O331 C339 1.258 . S
O332 Co307 1.941 . S
O332 C339 1.266 . S
H333 C335 0.959 . S
H334 C335 0.961 . S
C335 C325 1.510 . S
C335 H333 0.959 . S
C335 H334 0.961 . S
C335 H336 0.960 1_545 S
H336 C335 0.960 1_565 S
H337 N317 0.862 . S
O338 Co306 1.920 . S
O338 C311 1.289 . S
C339 O331 1.258 . S
C339 O332 1.266 . S
Co340 O343 1.970 . S
Co340 N357 1.989 . S
Co340 O365 1.967 . S
Co340 O372 1.920 . S
Co341 O344 1.966 . S
Co341 N350 2.022 . S
Co341 N358 1.993 . S
Co341 O366 1.941 . S
C342 O343 1.258 . S
C342 O344 1.263 . S
O343 Co340 1.970 . S
O343 C342 1.258 . S
O344 Co341 1.966 . S
O344 C342 1.263 . S
C345 O346 1.235 . S
C345 O372 1.289 . S
O346 C345 1.235 . S
C347 C349 1.400 . S
C347 N350 1.351 . S
C347 C352 1.501 . S
C348 C349 1.387 . S
C348 N351 1.341 . S
C349 C347 1.400 . S
C349 C348 1.387 . S
N350 Co341 2.022 . S
N350 C347 1.351 . S
N350 N351 1.365 . S
N351 C348 1.341 . S
N351 N350 1.365 . S
N351 H371 0.862 . S
C352 C347 1.501 . S
C352 H353 0.961 . S
C352 H354 0.961 . S
C352 H355 0.960 . S
H353 C352 0.961 . S
H354 C352 0.961 . S
H355 C352 0.960 . S
C356 N357 1.342 . S
C356 C360 1.401 . S
C356 C361 1.499 . S
N357 Co340 1.989 . S
N357 C356 1.342 . S
N357 N358 1.388 . S
N358 Co341 1.993 . S
N358 N357 1.388 . S
N358 C359 1.346 . S
C359 N358 1.346 . S
C359 C360 1.396 . S
C359 C369 1.510 . S
C360 C356 1.401 . S
C360 C359 1.396 . S
C361 C356 1.499 . S
C361 H362 0.959 . S
C361 H363 0.960 . S
C361 H364 0.961 . S
H362 C361 0.959 . S
H363 C361 0.960 . S
H364 C361 0.961 . S
O365 Co340 1.967 . S
O365 C373 1.258 . S
O366 Co341 1.941 . S
O366 C373 1.266 . S
H367 C369 0.959 . S
H368 C369 0.961 . S
C369 C359 1.510 . S
C369 H367 0.959 . S
C369 H368 0.961 . S
C369 H370 0.960 . S
H370 C369 0.960 . S
H371 N351 0.862 . S
O372 Co340 1.920 . S
O372 C345 1.289 . S
C373 O365 1.258 . S
C373 O366 1.266 . S
Co374 O377 1.970 . S
Co374 N391 1.989 . S
Co374 O399 1.967 . S
Co374 O406 1.920 . S
Co375 O378 1.966 . S
Co375 N384 2.022 . S
Co375 N392 1.993 . S
Co375 O400 1.941 . S
C376 O377 1.258 . S
C376 O378 1.263 . S
O377 Co374 1.970 . S
O377 C376 1.258 . S
O378 Co375 1.966 . S
O378 C376 1.263 . S
C379 O380 1.235 . S
C379 O406 1.289 . S
O380 C379 1.235 . S
C381 C383 1.400 . S
C381 N384 1.351 . S
C381 C386 1.501 . S
C382 C383 1.387 . S
C382 N385 1.341 . S
C383 C381 1.400 . S
C383 C382 1.387 . S
N384 Co375 2.022 . S
N384 C381 1.351 . S
N384 N385 1.365 . S
N385 C382 1.341 . S
N385 N384 1.365 . S
N385 H405 0.862 . S
C386 C381 1.501 . S
C386 H387 0.961 . S
C386 H388 0.961 . S
C386 H389 0.960 . S
H387 C386 0.961 . S
H388 C386 0.961 . S
H389 C386 0.960 . S
C390 N391 1.342 1_565 S
C390 C394 1.401 . S
C390 C395 1.499 . S
N391 Co374 1.989 . S
N391 C390 1.342 1_545 S
N391 N392 1.388 . S
N392 Co375 1.993 . S
N392 N391 1.388 . S
N392 C393 1.346 1_545 S
C393 N392 1.346 1_565 S
C393 C394 1.396 . S
C393 C403 1.510 . S
C394 C390 1.401 . S
C394 C393 1.396 . S
C395 C390 1.499 . S
C395 H396 0.959 . S
C395 H397 0.960 . S
C395 H398 0.961 . S
H396 C395 0.959 . S
H397 C395 0.960 . S
H398 C395 0.961 . S
O399 Co374 1.967 . S
O399 C407 1.258 . S
O400 Co375 1.941 . S
O400 C407 1.266 . S
H401 C403 0.959 . S
H402 C403 0.961 . S
C403 C393 1.510 . S
C403 H401 0.959 . S
C403 H402 0.961 . S
C403 H404 0.960 . S
H404 C403 0.960 . S
H405 N385 0.862 . S
O406 Co374 1.920 . S
O406 C379 1.289 . S
C407 O399 1.258 . S
C407 O400 1.266 . S
Co408 O411 1.970 . S
Co408 N425 1.989 . S
Co408 O433 1.967 . S
Co408 O440 1.920 . S
Co409 O412 1.966 . S
Co409 N418 2.022 . S
Co409 N426 1.993 . S
Co409 O434 1.941 . S
C410 O411 1.258 . S
C410 O412 1.263 . S
O411 Co408 1.970 . S
O411 C410 1.258 . S
O412 Co409 1.966 . S
O412 C410 1.263 . S
C413 O414 1.235 . S
C413 O440 1.289 . S
O414 C413 1.235 . S
C415 C417 1.400 . S
C415 N418 1.351 . S
C415 C420 1.501 . S
C416 C417 1.387 . S
C416 N419 1.341 . S
C417 C415 1.400 . S
C417 C416 1.387 . S
N418 Co409 2.022 . S
N418 C415 1.351 . S
N418 N419 1.365 . S
N419 C416 1.341 . S
N419 N418 1.365 . S
N419 H439 0.862 . S
C420 C415 1.501 . S
C420 H421 0.961 . S
C420 H422 0.961 . S
C420 H423 0.960 . S
H421 C420 0.961 . S
H422 C420 0.961 . S
H423 C420 0.960 . S
C424 N425 1.342 . S
C424 C428 1.401 . S
C424 C429 1.499 . S
N425 Co408 1.989 . S
N425 C424 1.342 . S
N425 N426 1.388 . S
N426 Co409 1.993 . S
N426 N425 1.388 . S
N426 C427 1.346 . S
C427 N426 1.346 . S
C427 C428 1.396 . S
C427 C437 1.510 . S
C428 C424 1.401 . S
C428 C427 1.396 . S
C429 C424 1.499 . S
C429 H430 0.959 . S
C429 H431 0.960 . S
C429 H432 0.961 . S
H430 C429 0.959 . S
H431 C429 0.960 . S
H432 C429 0.961 . S
O433 Co408 1.967 . S
O433 C441 1.258 . S
O434 Co409 1.941 . S
O434 C441 1.266 . S
H435 C437 0.959 . S
H436 C437 0.961 . S
C437 C427 1.510 . S
C437 H435 0.959 . S
C437 H436 0.961 . S
C437 H438 0.960 . S
H438 C437 0.960 . S
H439 N419 0.862 . S
O440 Co408 1.920 . S
O440 C413 1.289 . S
C441 O433 1.258 . S
C441 O434 1.266 . S
Co442 O445 1.970 . S
Co442 N459 1.989 . S
Co442 O467 1.967 . S
Co442 O474 1.920 . S
Co443 O446 1.966 . S
Co443 N452 2.022 . S
Co443 N460 1.993 . S
Co443 O468 1.941 . S
C444 O445 1.258 . S
C444 O446 1.263 . S
O445 Co442 1.970 . S
O445 C444 1.258 . S
O446 Co443 1.966 . S
O446 C444 1.263 . S
C447 O448 1.235 . S
C447 O474 1.289 . S
O448 C447 1.235 . S
C449 C451 1.400 . S
C449 N452 1.351 . S
C449 C454 1.501 . S
C450 C451 1.387 . S
C450 N453 1.341 . S
C451 C449 1.400 . S
C451 C450 1.387 . S
N452 Co443 2.022 . S
N452 C449 1.351 . S
N452 N453 1.365 . S
N453 C450 1.341 . S
N453 N452 1.365 . S
N453 H473 0.862 . S
C454 C449 1.501 . S
C454 H455 0.961 . S
C454 H456 0.961 . S
C454 H457 0.960 . S
H455 C454 0.961 . S
H456 C454 0.961 . S
H457 C454 0.960 . S
C458 N459 1.342 1_565 S
C458 C462 1.401 . S
C458 C463 1.499 . S
N459 Co442 1.989 . S
N459 C458 1.342 1_545 S
N459 N460 1.388 . S
N460 Co443 1.993 . S
N460 N459 1.388 . S
N460 C461 1.346 1_545 S
C461 N460 1.346 1_565 S
C461 C462 1.396 . S
C461 C471 1.510 . S
C462 C458 1.401 . S
C462 C461 1.396 . S
C463 C458 1.499 . S
C463 H464 0.971 . S
C463 H465 0.960 . S
C463 H466 0.961 . S
H464 C463 0.971 . S
H465 C463 0.960 . S
H466 C463 0.961 . S
O467 Co442 1.967 . S
O467 C475 1.258 . S
O468 Co443 1.941 . S
O468 C475 1.266 . S
H469 C471 0.959 . S
H470 C471 0.961 . S
C471 C461 1.510 . S
C471 H469 0.959 . S
C471 H470 0.961 . S
C471 H472 0.960 . S
H472 C471 0.960 . S
H473 N453 0.862 . S
O474 Co442 1.920 . S
O474 C447 1.289 . S
C475 O467 1.258 . S
C475 O468 1.266 . S
Co476 O479 1.970 . S
Co476 N493 1.989 . S
Co476 O501 1.967 . S
Co476 O508 1.920 . S
Co477 O480 1.966 . S
Co477 N486 2.022 . S
Co477 N494 1.993 . S
Co477 O502 1.941 . S
C478 O479 1.258 . S
C478 O480 1.263 . S
O479 Co476 1.970 . S
O479 C478 1.258 . S
O480 Co477 1.966 . S
O480 C478 1.263 . S
C481 O482 1.235 . S
C481 O508 1.289 . S
O482 C481 1.235 . S
C483 C485 1.400 . S
C483 N486 1.351 . S
C483 C488 1.501 . S
C484 C485 1.387 . S
C484 N487 1.341 . S
C485 C483 1.400 . S
C485 C484 1.387 . S
N486 Co477 2.022 . S
N486 C483 1.351 . S
N486 N487 1.365 . S
N487 C484 1.341 . S
N487 N486 1.365 . S
N487 H507 0.862 . S
C488 C483 1.501 . S
C488 H489 0.961 . S
C488 H490 0.961 . S
C488 H491 0.960 . S
H489 C488 0.961 . S
H490 C488 0.961 . S
H491 C488 0.960 . S
C492 N493 1.342 . S
C492 C496 1.401 . S
C492 C497 1.499 . S
N493 Co476 1.989 . S
N493 C492 1.342 . S
N493 N494 1.388 . S
N494 Co477 1.993 . S
N494 N493 1.388 . S
N494 C495 1.346 . S
C495 N494 1.346 . S
C495 C496 1.396 . S
C495 C505 1.510 . S
C496 C492 1.401 . S
C496 C495 1.396 . S
C497 C492 1.499 . S
C497 H498 0.959 . S
C497 H499 0.960 . S
C497 H500 0.961 . S
H498 C497 0.959 . S
H499 C497 0.960 . S
H500 C497 0.961 . S
O501 Co476 1.967 . S
O501 C509 1.258 . S
O502 Co477 1.941 . S
O502 C509 1.266 . S
H503 C505 0.959 . S
H504 C505 0.961 . S
C505 C495 1.510 . S
C505 H503 0.959 . S
C505 H504 0.961 . S
C505 H506 0.960 . S
H506 C505 0.960 . S
H507 N487 0.862 . S
O508 Co476 1.920 . S
O508 C481 1.289 . S
C509 O501 1.258 . S
C509 O502 1.266 . S
Co510 O513 1.970 . S
Co510 N527 1.989 . S
Co510 O535 1.967 . S
Co510 O542 1.920 . S
Co511 O514 1.966 . S
Co511 N520 2.022 . S
Co511 N528 1.993 . S
Co511 O536 1.941 . S
C512 O513 1.258 . S
C512 O514 1.263 . S
O513 Co510 1.970 . S
O513 C512 1.258 . S
O514 Co511 1.966 . S
O514 C512 1.263 . S
C515 O516 1.235 . S
C515 O542 1.289 . S
O516 C515 1.235 . S
C517 C519 1.400 . S
C517 N520 1.351 . S
C517 C522 1.501 . S
C518 C519 1.387 . S
C518 N521 1.341 . S
C519 C517 1.400 . S
C519 C518 1.387 . S
N520 Co511 2.022 . S
N520 C517 1.351 . S
N520 N521 1.365 . S
N521 C518 1.341 . S
N521 N520 1.365 . S
N521 H541 0.862 . S
C522 C517 1.501 . S
C522 H523 0.961 . S
C522 H524 0.961 . S
C522 H525 0.960 . S
H523 C522 0.961 . S
H524 C522 0.961 . S
H525 C522 0.960 . S
C526 N527 1.342 1_545 S
C526 C530 1.401 . S
C526 C531 1.499 . S
N527 Co510 1.989 . S
N527 C526 1.342 1_565 S
N527 N528 1.388 . S
N528 Co511 1.993 . S
N528 N527 1.388 . S
N528 C529 1.346 1_565 S
C529 N528 1.346 1_545 S
C529 C530 1.396 . S
C529 C539 1.510 . S
C530 C526 1.401 . S
C530 C529 1.396 . S
C531 C526 1.499 . S
C531 H532 0.959 1_545 S
C531 H533 0.960 . S
C531 H534 0.961 . S
H532 C531 0.959 1_565 S
H533 C531 0.960 . S
H534 C531 0.961 . S
O535 Co510 1.967 . S
O535 C543 1.258 . S
O536 Co511 1.941 . S
O536 C543 1.266 . S
H537 C539 0.959 . S
H538 C539 0.961 . S
C539 C529 1.510 . S
C539 H537 0.959 . S
C539 H538 0.961 . S
C539 H540 0.960 . S
H540 C539 0.960 . S
H541 N521 0.862 . S
O542 Co510 1.920 . S
O542 C515 1.289 . S
C543 O535 1.258 . S
C543 O536 1.266 . S
C544 C545 1.363 . S
C544 C550 1.379 . S
C544 N552 1.356 . S
C545 C544 1.363 . S
C545 C551 1.363 . S
C546 C547 1.363 . S
C546 C551 1.379 . S
C546 N553 1.356 . S
C547 C546 1.363 . S
C547 C550 1.363 . S
N548 C550 1.356 . S
N548 H560 0.984 . S
N548 H561 0.985 . S
N549 C551 1.356 . S
N549 H554 0.984 . S
N549 H555 0.985 . S
C550 C544 1.379 . S
C550 C547 1.363 . S
C550 N548 1.356 . S
C551 C545 1.363 . S
C551 C546 1.379 . S
C551 N549 1.356 . S
N552 C544 1.356 . S
N552 H558 0.984 . S
N552 H559 0.984 . S
N553 C546 1.356 . S
N553 H556 0.984 . S
N553 H557 0.985 . S
H554 N549 0.984 . S
H555 N549 0.985 . S
H556 N553 0.984 . S
H557 N553 0.985 . S
H558 N552 0.984 . S
H559 N552 0.984 . S
H560 N548 0.984 . S
H561 N548 0.985 . S
C562 C563 1.363 . S
C562 C568 1.379 . S
C562 N570 1.356 . S
C563 C562 1.363 . S
C563 C569 1.363 . S
C564 C565 1.363 . S
C564 C569 1.379 . S
C564 N571 1.356 . S
C565 C564 1.363 . S
C565 C568 1.363 . S
N566 C568 1.356 . S
N566 H578 0.984 . S
N566 H579 0.985 . S
N567 C569 1.356 . S
N567 H572 0.984 . S
N567 H573 0.985 . S
C568 C562 1.379 . S
C568 C565 1.363 . S
C568 N566 1.356 . S
C569 C563 1.363 . S
C569 C564 1.379 . S
C569 N567 1.356 . S
N570 C562 1.356 . S
N570 H576 0.984 . S
N570 H577 0.984 . S
N571 C564 1.356 . S
N571 H574 0.984 . S
N571 H575 0.985 . S
H572 N567 0.984 . S
H573 N567 0.985 . S
H574 N571 0.984 . S
H575 N571 0.985 . S
H576 N570 0.984 . S
H577 N570 0.984 . S
H578 N566 0.984 . S
H579 N566 0.985 . S
C580 C581 1.363 . S
C580 C586 1.379 . S
C580 N588 1.356 . S
C581 C580 1.363 . S
C581 C587 1.363 . S
C582 C583 1.363 . S
C582 C587 1.379 . S
C582 N589 1.356 . S
C583 C582 1.363 . S
C583 C586 1.363 . S
N584 C586 1.356 . S
N584 H596 0.984 . S
N584 H597 0.985 . S
N585 C587 1.356 . S
N585 H590 0.984 . S
N585 H591 0.985 . S
C586 C580 1.379 . S
C586 C583 1.363 . S
C586 N584 1.356 . S
C587 C581 1.363 . S
C587 C582 1.379 . S
C587 N585 1.356 . S
N588 C580 1.356 . S
N588 H594 0.984 . S
N588 H595 0.984 . S
N589 C582 1.356 . S
N589 H592 0.984 . S
N589 H593 0.985 . S
H590 N585 0.984 . S
H591 N585 0.985 . S
H592 N589 0.984 . S
H593 N589 0.985 . S
H594 N588 0.984 . S
H595 N588 0.984 . S
H596 N584 0.984 . S
H597 N584 0.985 . S
C598 C599 1.363 . S
C598 C604 1.379 . S
C598 N606 1.356 . S
C599 C598 1.363 . S
C599 C605 1.363 . S
C600 C601 1.363 . S
C600 C605 1.379 . S
C600 N607 1.356 . S
C601 C600 1.363 . S
C601 C604 1.363 . S
N602 C604 1.356 . S
N602 H614 0.984 . S
N602 H615 0.985 . S
N603 C605 1.356 . S
N603 H608 0.984 . S
N603 H609 0.985 . S
C604 C598 1.379 . S
C604 C601 1.363 . S
C604 N602 1.356 . S
C605 C599 1.363 . S
C605 C600 1.379 . S
C605 N603 1.356 . S
N606 C598 1.356 . S
N606 H612 0.984 . S
N606 H613 0.984 . S
N607 C600 1.356 . S
N607 H610 0.984 . S
N607 H611 0.985 . S
H608 N603 0.984 . S
H609 N603 0.985 . S
H610 N607 0.984 . S
H611 N607 0.985 . S
H612 N606 0.984 . S
H613 N606 0.984 . S
H614 N602 0.984 . S
H615 N602 0.985 . S
C616 C617 1.363 . S
C616 C622 1.379 . S
C616 N624 1.356 . S
C617 C616 1.363 . S
C617 C623 1.363 . S
C618 C619 1.363 . S
C618 C623 1.379 . S
C618 N625 1.356 . S
C619 C618 1.363 . S
C619 C622 1.363 . S
N620 C622 1.356 . S
N620 H632 0.984 . S
N620 H633 0.985 . S
N621 C623 1.356 . S
N621 H626 0.984 . S
N621 H627 0.985 . S
C622 C616 1.379 . S
C622 C619 1.363 . S
C622 N620 1.356 . S
C623 C617 1.363 . S
C623 C618 1.379 . S
C623 N621 1.356 . S
N624 C616 1.356 . S
N624 H630 0.984 . S
N624 H631 0.984 . S
N625 C618 1.356 . S
N625 H628 0.984 . S
N625 H629 0.985 . S
H626 N621 0.984 . S
H627 N621 0.985 . S
H628 N625 0.984 . S
H629 N625 0.985 . S
H630 N624 0.984 . S
H631 N624 0.984 . S
H632 N620 0.984 . S
H633 N620 0.985 . S
C634 C635 1.363 . S
C634 C640 1.379 . S
C634 N642 1.356 . S
C635 C634 1.363 . S
C635 C641 1.363 . S
C636 C637 1.363 . S
C636 C641 1.379 . S
C636 N643 1.356 . S
C637 C636 1.363 . S
C637 C640 1.363 . S
N638 C640 1.356 . S
N638 H650 0.984 . S
N638 H651 0.985 . S
N639 C641 1.356 . S
N639 H644 0.984 . S
N639 H645 0.985 . S
C640 C634 1.379 . S
C640 C637 1.363 . S
C640 N638 1.356 . S
C641 C635 1.363 . S
C641 C636 1.379 . S
C641 N639 1.356 . S
N642 C634 1.356 . S
N642 H648 0.984 . S
N642 H649 0.984 . S
N643 C636 1.356 . S
N643 H646 0.984 . S
N643 H647 0.985 . S
H644 N639 0.984 . S
H645 N639 0.985 . S
H646 N643 0.984 . S
H647 N643 0.985 . S
H648 N642 0.984 . S
H649 N642 0.984 . S
H650 N638 0.984 . S
H651 N638 0.985 . S
C652 C653 1.363 . S
C652 C658 1.379 . S
C652 N660 1.356 . S
C653 C652 1.363 . S
C653 C659 1.363 . S
C654 C655 1.363 . S
C654 C659 1.379 . S
C654 N661 1.356 . S
C655 C654 1.363 . S
C655 C658 1.363 . S
N656 C658 1.356 . S
N656 H668 0.984 . S
N656 H669 0.985 . S
N657 C659 1.356 . S
N657 H662 0.984 . S
N657 H663 0.985 . S
C658 C652 1.379 . S
C658 C655 1.363 . S
C658 N656 1.356 . S
C659 C653 1.363 . S
C659 C654 1.379 . S
C659 N657 1.356 . S
N660 C652 1.356 . S
N660 H666 0.984 . S
N660 H667 0.984 . S
N661 C654 1.356 . S
N661 H664 0.984 . S
N661 H665 0.985 . S
H662 N657 0.984 . S
H663 N657 0.985 . S
H664 N661 0.984 . S
H665 N661 0.985 . S
H666 N660 0.984 . S
H667 N660 0.984 . S
H668 N656 0.984 . S
H669 N656 0.985 . S
C670 C671 1.363 . S
C670 C676 1.379 . S
C670 N678 1.356 . S
C671 C670 1.363 . S
C671 C677 1.363 . S
C672 C673 1.363 . S
C672 C677 1.379 . S
C672 N679 1.356 . S
C673 C672 1.363 . S
C673 C676 1.363 . S
N674 C676 1.356 . S
N674 H686 0.984 . S
N674 H687 0.985 . S
N675 C677 1.356 . S
N675 H680 0.984 . S
N675 H681 0.985 . S
C676 C670 1.379 . S
C676 C673 1.363 . S
C676 N674 1.356 . S
C677 C671 1.363 . S
C677 C672 1.379 . S
C677 N675 1.356 . S
N678 C670 1.356 . S
N678 H684 0.984 . S
N678 H685 0.984 . S
N679 C672 1.356 . S
N679 H682 0.984 . S
N679 H683 0.985 . S
H680 N675 0.984 . S
H681 N675 0.985 . S
H682 N679 0.984 . S
H683 N679 0.985 . S
H684 N678 0.984 . S
H685 N678 0.984 . S
H686 N674 0.984 . S
H687 N674 0.985 . S
C688 C689 1.363 . S
C688 C694 1.379 . S
C688 N696 1.356 . S
C689 C688 1.363 . S
C689 C695 1.363 . S
C690 C691 1.363 . S
C690 C695 1.379 . S
C690 N697 1.356 . S
C691 C690 1.363 . S
C691 C694 1.363 . S
N692 C694 1.356 . S
N692 H704 0.984 . S
N692 H705 0.985 . S
N693 C695 1.356 . S
N693 H698 0.984 . S
N693 H699 0.985 . S
C694 C688 1.379 . S
C694 C691 1.363 . S
C694 N692 1.356 . S
C695 C689 1.363 . S
C695 C690 1.379 . S
C695 N693 1.356 . S
N696 C688 1.356 . S
N696 H702 0.984 . S
N696 H703 0.984 . S
N697 C690 1.356 . S
N697 H700 0.984 . S
N697 H701 0.985 . S
H698 N693 0.984 . S
H699 N693 0.985 . S
H700 N697 0.984 . S
H701 N697 0.985 . S
H702 N696 0.984 . S
H703 N696 0.984 . S
H704 N692 0.984 . S
H705 N692 0.985 . S
C706 C707 1.363 . S
C706 C712 1.379 . S
C706 N714 1.356 . S
C707 C706 1.363 . S
C707 C713 1.363 . S
C708 C709 1.363 . S
C708 C713 1.379 . S
C708 N715 1.356 . S
C709 C708 1.363 . S
C709 C712 1.363 . S
N710 C712 1.356 . S
N710 H722 0.984 . S
N710 H723 0.985 . S
N711 C713 1.356 . S
N711 H716 0.984 . S
N711 H717 0.985 . S
C712 C706 1.379 . S
C712 C709 1.363 . S
C712 N710 1.356 . S
C713 C707 1.363 . S
C713 C708 1.379 . S
C713 N711 1.356 . S
N714 C706 1.356 . S
N714 H720 0.984 . S
N714 H721 0.984 . S
N715 C708 1.356 . S
N715 H718 0.984 . S
N715 H719 0.985 . S
H716 N711 0.984 . S
H717 N711 0.985 . S
H718 N715 0.984 . S
H719 N715 0.985 . S
H720 N714 0.984 . S
H721 N714 0.984 . S
H722 N710 0.984 . S
H723 N710 0.985 . S
C724 C725 1.363 . S
C724 C730 1.379 . S
C724 N732 1.356 . S
C725 C724 1.363 . S
C725 C731 1.363 . S
C726 C727 1.363 . S
C726 C731 1.379 . S
C726 N733 1.356 . S
C727 C726 1.363 . S
C727 C730 1.363 . S
N728 C730 1.356 . S
N728 H740 0.984 . S
N728 H741 0.985 . S
N729 C731 1.356 . S
N729 H734 0.984 . S
N729 H735 0.985 . S
C730 C724 1.379 . S
C730 C727 1.363 . S
C730 N728 1.356 . S
C731 C725 1.363 . S
C731 C726 1.379 . S
C731 N729 1.356 . S
N732 C724 1.356 . S
N732 H738 0.984 . S
N732 H739 0.984 . S
N733 C726 1.356 . S
N733 H736 0.984 . S
N733 H737 0.985 . S
H734 N729 0.984 . S
H735 N729 0.985 . S
H736 N733 0.984 . S
H737 N733 0.985 . S
H738 N732 0.984 . S
H739 N732 0.984 . S
H740 N728 0.984 . S
H741 N728 0.985 . S
C742 C743 1.363 . S
C742 C748 1.379 . S
C742 N750 1.356 . S
C743 C742 1.363 . S
C743 C749 1.363 . S
C744 C745 1.363 . S
C744 C749 1.379 . S
C744 N751 1.356 . S
C745 C744 1.363 . S
C745 C748 1.363 . S
N746 C748 1.356 . S
N746 H758 0.984 . S
N746 H759 0.985 . S
N747 C749 1.356 . S
N747 H752 0.984 . S
N747 H753 0.985 . S
C748 C742 1.379 . S
C748 C745 1.363 . S
C748 N746 1.356 . S
C749 C743 1.363 . S
C749 C744 1.379 . S
C749 N747 1.356 . S
N750 C742 1.356 . S
N750 H756 0.984 . S
N750 H757 0.984 . S
N751 C744 1.356 . S
N751 H754 0.984 . S
N751 H755 0.985 . S
H752 N747 0.984 . S
H753 N747 0.985 . S
H754 N751 0.984 . S
H755 N751 0.985 . S
H756 N750 0.984 . S
H757 N750 0.984 . S
H758 N746 0.984 . S
H759 N746 0.985 . S
C760 C761 1.363 . S
C760 C766 1.379 . S
C760 N768 1.356 . S
C761 C760 1.363 . S
C761 C767 1.363 . S
C762 C763 1.363 . S
C762 C767 1.379 . S
C762 N769 1.356 . S
C763 C762 1.363 . S
C763 C766 1.363 . S
N764 C766 1.356 . S
N764 H776 0.984 . S
N764 H777 0.985 . S
N765 C767 1.356 . S
N765 H770 0.984 . S
N765 H771 0.985 . S
C766 C760 1.379 . S
C766 C763 1.363 . S
C766 N764 1.356 . S
C767 C761 1.363 . S
C767 C762 1.379 . S
C767 N765 1.356 . S
N768 C760 1.356 . S
N768 H774 0.984 . S
N768 H775 0.984 . S
N769 C762 1.356 . S
N769 H772 0.984 . S
N769 H773 0.985 . S
H770 N765 0.984 . S
H771 N765 0.985 . S
H772 N769 0.984 . S
H773 N769 0.985 . S
H774 N768 0.984 . S
H775 N768 0.984 . S
H776 N764 0.984 . S
H777 N764 0.985 . S
C778 C779 1.363 . S
C778 C784 1.379 . S
C778 N786 1.356 . S
C779 C778 1.363 . S
C779 C785 1.363 . S
C780 C781 1.363 . S
C780 C785 1.379 . S
C780 N787 1.356 . S
C781 C780 1.363 . S
C781 C784 1.363 . S
N782 C784 1.356 . S
N782 H794 0.984 . S
N782 H795 0.985 . S
N783 C785 1.356 . S
N783 H788 0.984 . S
N783 H789 0.985 . S
C784 C778 1.379 . S
C784 C781 1.363 . S
C784 N782 1.356 . S
C785 C779 1.363 . S
C785 C780 1.379 . S
C785 N783 1.356 . S
N786 C778 1.356 . S
N786 H792 0.984 . S
N786 H793 0.984 . S
N787 C780 1.356 . S
N787 H790 0.984 . S
N787 H791 0.985 . S
H788 N783 0.984 . S
H789 N783 0.985 . S
H790 N787 0.984 . S
H791 N787 0.985 . S
H792 N786 0.984 . S
H793 N786 0.984 . S
H794 N782 0.984 . S
H795 N782 0.985 . S
C796 C797 1.363 . S
C796 C802 1.379 . S
C796 N804 1.356 . S
C797 C796 1.363 . S
C797 C803 1.363 . S
C798 C799 1.363 . S
C798 C803 1.379 . S
C798 N805 1.356 . S
C799 C798 1.363 . S
C799 C802 1.363 . S
N800 C802 1.356 . S
N800 H812 0.984 . S
N800 H813 0.985 . S
N801 C803 1.356 . S
N801 H806 0.984 . S
N801 H807 0.985 . S
C802 C796 1.379 . S
C802 C799 1.363 . S
C802 N800 1.356 . S
C803 C797 1.363 . S
C803 C798 1.379 . S
C803 N801 1.356 . S
N804 C796 1.356 . S
N804 H810 0.984 . S
N804 H811 0.984 . S
N805 C798 1.356 . S
N805 H808 0.984 . S
N805 H809 0.985 . S
H806 N801 0.984 . S
H807 N801 0.985 . S
H808 N805 0.984 . S
H809 N805 0.985 . S
H810 N804 0.984 . S
H811 N804 0.984 . S
H812 N800 0.984 . S
H813 N800 0.985 . S
C814 C815 1.363 . S
C814 C820 1.379 . S
C814 N822 1.356 . S
C815 C814 1.363 . S
C815 C821 1.363 . S
C816 C817 1.363 . S
C816 C821 1.379 . S
C816 N823 1.356 . S
C817 C816 1.363 . S
C817 C820 1.363 . S
N818 C820 1.356 . S
N818 H830 0.984 . S
N818 H831 0.985 . S
N819 C821 1.356 . S
N819 H824 0.984 . S
N819 H825 0.985 . S
C820 C814 1.379 . S
C820 C817 1.363 . S
C820 N818 1.356 . S
C821 C815 1.363 . S
C821 C816 1.379 . S
C821 N819 1.356 . S
N822 C814 1.356 . S
N822 H828 0.984 . S
N822 H829 0.984 . S
N823 C816 1.356 . S
N823 H826 0.984 . S
N823 H827 0.985 . S
H824 N819 0.984 . S
H825 N819 0.985 . S
H826 N823 0.984 . S
H827 N823 0.985 . S
H828 N822 0.984 . S
H829 N822 0.984 . S
H830 N818 0.984 . S
H831 N818 0.985 . S
C832 C833 1.363 1_556 S
C832 C838 1.379 . S
C832 N840 1.356 1_556 S
C833 C832 1.363 1_554 S
C833 C839 1.363 . S
C834 C835 1.363 . S
C834 C839 1.379 1_556 S
C834 N841 1.356 . S
C835 C834 1.363 . S
C835 C838 1.363 . S
N836 C838 1.356 1_565 S
N836 H848 0.984 . S
N836 H849 0.985 . S
N837 C839 1.356 . S
N837 H842 0.984 . S
N837 H843 0.985 . S
C838 C832 1.379 . S
C838 C835 1.363 . S
C838 N836 1.356 1_545 S
C839 C833 1.363 . S
C839 C834 1.379 1_554 S
C839 N837 1.356 . S
N840 C832 1.356 1_554 S
N840 H846 0.968 1_544 S
N840 H847 0.984 . S
N841 C834 1.356 . S
N841 H844 0.984 . S
N841 H845 0.985 . S
H842 N837 0.984 . S
H843 N837 0.985 . S
H844 N841 0.984 . S
H845 N841 0.985 . S
H846 N840 0.968 1_566 S
H847 N840 0.984 . S
H848 N836 0.984 . S
H849 N836 0.985 . S
C850 C851 1.363 . S
C850 C856 1.379 . S
C850 N858 1.356 . S
C851 C850 1.363 . S
C851 C857 1.363 . S
C852 C853 1.363 . S
C852 C857 1.379 1_554 S
C852 N859 1.356 . S
C853 C852 1.363 . S
C853 C856 1.363 1_554 S
N854 C856 1.356 . S
N854 H866 0.984 . S
N854 H867 0.985 1_556 S
N855 C857 1.356 . S
N855 H860 0.984 . S
N855 H861 0.985 . S
C856 C850 1.379 . S
C856 C853 1.363 1_556 S
C856 N854 1.356 . S
C857 C851 1.363 . S
C857 C852 1.379 1_556 S
C857 N855 1.356 . S
N858 C850 1.356 . S
N858 H864 0.984 . S
N858 H865 0.984 . S
N859 C852 1.356 . S
N859 H862 0.984 . S
N859 H863 0.985 . S
H860 N855 0.984 . S
H861 N855 0.985 . S
H862 N859 0.984 . S
H863 N859 0.985 . S
H864 N858 0.984 . S
H865 N858 0.984 . S
H866 N854 0.984 . S
H867 N854 0.985 1_554 S
C868 C869 1.363 . S
C868 C874 1.379 . S
C868 N876 1.356 1_565 S
C869 C868 1.363 . S
C869 C875 1.363 . S
C870 C871 1.363 . S
C870 C875 1.379 . S
C870 N877 1.356 . S
C871 C870 1.363 . S
C871 C874 1.363 . S
N872 C874 1.356 . S
N872 H884 0.984 1_565 S
N872 H885 0.985 . S
N873 C875 1.356 . S
N873 H878 0.984 . S
N873 H879 0.985 . S
C874 C868 1.379 . S
C874 C871 1.363 . S
C874 N872 1.356 . S
C875 C869 1.363 . S
C875 C870 1.379 . S
C875 N873 1.356 . S
N876 C868 1.356 1_545 S
N876 H882 0.984 . S
N876 H883 0.984 . S
N877 C870 1.356 . S
N877 H880 0.984 . S
N877 H881 0.985 . S
H878 N873 0.984 . S
H879 N873 0.985 . S
H880 N877 0.984 . S
H881 N877 0.985 . S
H882 N876 0.984 . S
H883 N876 0.984 . S
H884 N872 0.984 1_545 S
H885 N872 0.985 . S
C886 C887 1.363 . S
C886 C892 1.379 . S
C886 N894 1.356 . S
C887 C886 1.363 . S
C887 C893 1.363 . S
C888 C889 1.363 . S
C888 C893 1.379 . S
C888 N895 1.356 . S
C889 C888 1.363 . S
C889 C892 1.363 . S
N890 C892 1.356 . S
N890 H902 0.984 . S
N890 H903 0.985 . S
N891 C893 1.356 . S
N891 H896 0.984 . S
N891 H897 0.985 . S
C892 C886 1.379 . S
C892 C889 1.363 . S
C892 N890 1.356 . S
C893 C887 1.363 . S
C893 C888 1.379 . S
C893 N891 1.356 . S
N894 C886 1.356 . S
N894 H900 0.984 . S
N894 H901 0.984 . S
N895 C888 1.356 . S
N895 H898 0.984 . S
N895 H899 0.985 . S
H896 N891 0.984 . S
H897 N891 0.985 . S
H898 N895 0.984 . S
H899 N895 0.985 . S
H900 N894 0.984 . S
H901 N894 0.984 . S
H902 N890 0.984 . S
H903 N890 0.985 . S
C904 C905 1.363 1_554 S
C904 C910 1.379 . S
C904 N912 1.356 1_554 S
C905 C904 1.363 1_556 S
C905 C911 1.363 . S
C906 C907 1.363 . S
C906 C911 1.379 1_554 S
C906 N913 1.356 . S
C907 C906 1.363 . S
C907 C910 1.363 . S
N908 C910 1.356 . S
N908 H920 0.984 . S
N908 H921 0.985 . S
N909 C911 1.356 . S
N909 H914 0.984 . S
N909 H915 0.985 1_565 S
C910 C904 1.379 . S
C910 C907 1.363 . S
C910 N908 1.356 . S
C911 C905 1.363 . S
C911 C906 1.379 1_556 S
C911 N909 1.356 . S
N912 C904 1.356 1_556 S
N912 H918 0.984 1_556 S
N912 H919 0.984 . S
N913 C906 1.356 . S
N913 H916 0.984 . S
N913 H917 0.985 1_565 S
H914 N909 0.984 . S
H915 N909 0.985 1_545 S
H916 N913 0.984 . S
H917 N913 0.985 1_545 S
H918 N912 0.984 1_554 S
H919 N912 0.984 . S
H920 N908 0.984 . S
H921 N908 0.985 . S
C922 C923 1.363 . S
C922 C928 1.379 . S
C922 N930 1.356 . S
C923 C922 1.363 . S
C923 C929 1.363 . S
C924 C925 1.363 . S
C924 C929 1.379 1_556 S
C924 N931 1.356 . S
C925 C924 1.363 . S
C925 C928 1.363 1_556 S
N926 C928 1.356 . S
N926 H938 0.984 . S
N926 H939 0.985 1_554 S
N927 C929 1.356 . S
N927 H932 0.984 . S
N927 H933 0.985 1_554 S
C928 C922 1.379 . S
C928 C925 1.363 1_554 S
C928 N926 1.356 . S
C929 C923 1.363 . S
C929 C924 1.379 1_554 S
C929 N927 1.356 . S
N930 C922 1.356 . S
N930 H936 0.984 . S
N930 H937 0.984 . S
N931 C924 1.356 . S
N931 H934 0.984 . S
N931 H935 0.985 . S
H932 N927 0.984 . S
H933 N927 0.985 1_556 S
H934 N931 0.984 . S
H935 N931 0.985 . S
H936 N930 0.984 . S
H937 N930 0.984 . S
H938 N926 0.984 . S
H939 N926 0.985 1_556 S
C940 C941 1.363 . S
C940 C946 1.379 . S
C940 N948 1.356 . S
C941 C940 1.363 . S
C941 C947 1.363 . S
C942 C943 1.363 . S
C942 C947 1.379 . S
C942 N949 1.356 . S
C943 C942 1.363 . S
C943 C946 1.363 . S
N944 C946 1.356 . S
N944 H956 0.984 . S
N944 H957 0.985 . S
N945 C947 1.356 . S
N945 H950 0.984 . S
N945 H951 0.985 1_545 S
C946 C940 1.379 . S
C946 C943 1.363 . S
C946 N944 1.356 . S
C947 C941 1.363 . S
C947 C942 1.379 . S
C947 N945 1.356 . S
N948 C940 1.356 . S
N948 H954 0.984 . S
N948 H955 0.984 . S
N949 C942 1.356 . S
N949 H952 0.984 . S
N949 H953 0.985 1_545 S
H950 N945 0.984 . S
H951 N945 0.985 1_565 S
H952 N949 0.984 . S
H953 N949 0.985 1_565 S
H954 N948 0.984 . S
H955 N948 0.984 . S
H956 N944 0.984 . S
H957 N944 0.985 . S
C958 C959 1.363 . S
C958 C964 1.379 . S
C958 N966 1.356 . S
C959 C958 1.363 . S
C959 C965 1.363 . S
C960 C961 1.363 . S
C960 C965 1.379 . S
C960 N967 1.356 . S
C961 C960 1.363 . S
C961 C964 1.363 . S
N962 C964 1.356 . S
N962 H974 0.984 . S
N962 H975 0.985 . S
N963 C965 1.356 . S
N963 H968 0.984 . S
N963 H969 0.985 . S
C964 C958 1.379 . S
C964 C961 1.363 . S
C964 N962 1.356 . S
C965 C959 1.363 . S
C965 C960 1.379 . S
C965 N963 1.356 . S
N966 C958 1.356 . S
N966 H972 0.984 . S
N966 H973 0.984 . S
N967 C960 1.356 . S
N967 H970 0.984 . S
N967 H971 0.985 . S
H968 N963 0.984 . S
H969 N963 0.985 . S
H970 N967 0.984 . S
H971 N967 0.985 . S
H972 N966 0.984 . S
H973 N966 0.984 . S
H974 N962 0.984 . S
H975 N962 0.985 . S
C976 C977 1.363 . S
C976 C982 1.379 . S
C976 N984 1.356 . S
C977 C976 1.363 . S
C977 C983 1.363 . S
C978 C979 1.363 1_565 S
C978 C983 1.379 1_565 S
C978 N985 1.356 . S
C979 C978 1.363 1_545 S
C979 C982 1.363 . S
N980 C982 1.356 . S
N980 H992 0.984 . S
N980 H993 0.985 . S
N981 C983 1.356 1_565 S
N981 H986 0.984 1_565 S
N981 H987 0.985 . S
C982 C976 1.379 . S
C982 C979 1.363 . S
C982 N980 1.356 . S
C983 C977 1.363 . S
C983 C978 1.379 1_545 S
C983 N981 1.356 1_545 S
N984 C976 1.356 . S
N984 H990 0.984 . S
N984 H991 0.984 . S
N985 C978 1.356 . S
N985 H988 0.984 . S
N985 H989 0.985 . S
H986 N981 0.984 1_545 S
H987 N981 0.985 . S
H988 N985 0.984 . S
H989 N985 0.985 . S
H990 N984 0.984 . S
H991 N984 0.984 . S
H992 N980 0.984 . S
H993 N980 0.985 . S
C994 C995 1.363 . S
C994 C1000 1.379 . S
C994 N1002 1.356 . S
C995 C994 1.363 . S
C995 C1001 1.363 . S
C996 C997 1.363 . S
C996 C1001 1.379 . S
C996 N1003 1.356 . S
C997 C996 1.363 . S
C997 C1000 1.363 . S
N998 C1000 1.356 . S
N998 H1010 0.984 . S
N998 H1011 0.985 . S
N999 C1001 1.356 . S
N999 H1004 0.984 . S
N999 H1005 0.985 . S
C1000 C994 1.379 . S
C1000 C997 1.363 . S
C1000 N998 1.356 . S
C1001 C995 1.363 . S
C1001 C996 1.379 . S
C1001 N999 1.356 . S
N1002 C994 1.356 . S
N1002 H1008 0.984 . S
N1002 H1009 0.984 . S
N1003 C996 1.356 . S
N1003 H1006 0.984 . S
N1003 H1007 0.985 . S
H1004 N999 0.984 . S
H1005 N999 0.985 . S
H1006 N1003 0.984 . S
H1007 N1003 0.985 . S
H1008 N1002 0.984 . S
H1009 N1002 0.984 . S
H1010 N998 0.984 . S
H1011 N998 0.985 . S
C1012 C1013 1.363 1_545 S
C1012 C1018 1.379 . S
C1012 N1020 1.356 . S
C1013 C1012 1.363 1_565 S
C1013 C1019 1.363 . S
C1014 C1015 1.363 1_565 S
C1014 C1019 1.379 . S
C1014 N1021 1.356 . S
C1015 C1014 1.363 1_545 S
C1015 C1018 1.363 . S
N1016 C1018 1.356 . S
N1016 H1028 0.984 . S
N1016 H1029 0.985 . S
N1017 C1019 1.356 . S
N1017 H1022 0.984 . S
N1017 H1023 0.985 . S
C1018 C1012 1.379 . S
C1018 C1015 1.363 . S
C1018 N1016 1.356 . S
C1019 C1013 1.363 . S
C1019 C1014 1.379 . S
C1019 N1017 1.356 . S
N1020 C1012 1.356 . S
N1020 H1026 0.984 . S
N1020 H1027 0.984 . S
N1021 C1014 1.356 . S
N1021 H1024 0.984 . S
N1021 H1025 0.985 . S
H1022 N1017 0.984 . S
H1023 N1017 0.985 . S
H1024 N1021 0.984 . S
H1025 N1021 0.985 . S
H1026 N1020 0.984 . S
H1027 N1020 0.984 . S
H1028 N1016 0.984 . S
H1029 N1016 0.985 . S
C1030 C1031 1.363 . S
C1030 C1036 1.379 . S
C1030 N1038 1.356 . S
C1031 C1030 1.363 . S
C1031 C1037 1.363 . S
C1032 C1033 1.363 . S
C1032 C1037 1.379 . S
C1032 N1039 1.356 . S
C1033 C1032 1.363 . S
C1033 C1036 1.363 . S
N1034 C1036 1.356 . S
N1034 H1046 0.984 . S
N1034 H1047 0.985 . S
N1035 C1037 1.356 . S
N1035 H1040 0.984 . S
N1035 H1041 0.985 . S
C1036 C1030 1.379 . S
C1036 C1033 1.363 . S
C1036 N1034 1.356 . S
C1037 C1031 1.363 . S
C1037 C1032 1.379 . S
C1037 N1035 1.356 . S
N1038 C1030 1.356 . S
N1038 H1044 0.984 . S
N1038 H1045 0.984 . S
N1039 C1032 1.356 . S
N1039 H1042 0.984 . S
N1039 H1043 0.985 . S
H1040 N1035 0.984 . S
H1041 N1035 0.985 . S
H1042 N1039 0.984 . S
H1043 N1039 0.985 . S
H1044 N1038 0.984 . S
H1045 N1038 0.984 . S
H1046 N1034 0.984 . S
H1047 N1034 0.985 . S
C1048 C1049 1.363 . S
C1048 C1054 1.379 . S
C1048 N1056 1.356 . S
C1049 C1048 1.363 . S
C1049 C1055 1.363 . S
C1050 C1051 1.363 . S
C1050 C1055 1.379 . S
C1050 N1057 1.356 . S
C1051 C1050 1.363 . S
C1051 C1054 1.363 . S
N1052 C1054 1.356 . S
N1052 H1064 0.984 . S
N1052 H1065 0.985 . S
N1053 C1055 1.356 . S
N1053 H1058 0.984 . S
N1053 H1059 0.985 . S
C1054 C1048 1.379 . S
C1054 C1051 1.363 . S
C1054 N1052 1.356 . S
C1055 C1049 1.363 . S
C1055 C1050 1.379 . S
C1055 N1053 1.356 . S
N1056 C1048 1.356 . S
N1056 H1062 0.984 . S
N1056 H1063 0.984 . S
N1057 C1050 1.356 . S
N1057 H1060 0.984 . S
N1057 H1061 0.985 . S
H1058 N1053 0.984 . S
H1059 N1053 0.985 . S
H1060 N1057 0.984 . S
H1061 N1057 0.985 . S
H1062 N1056 0.984 . S
H1063 N1056 0.984 . S
H1064 N1052 0.984 . S
H1065 N1052 0.985 . S
C1066 C1067 1.363 . S
C1066 C1072 1.379 . S
C1066 N1074 1.356 . S
C1067 C1066 1.363 . S
C1067 C1073 1.363 1_565 S
C1068 C1069 1.363 . S
C1068 C1073 1.379 1_565 S
C1068 N1075 1.356 1_565 S
C1069 C1068 1.363 . S
C1069 C1072 1.363 . S
N1070 C1072 1.356 . S
N1070 H1082 0.984 . S
N1070 H1083 0.985 . S
N1071 C1073 1.356 . S
N1071 H1076 0.984 . S
N1071 H1077 0.985 . S
C1072 C1066 1.379 . S
C1072 C1069 1.363 . S
C1072 N1070 1.356 . S
C1073 C1067 1.363 1_545 S
C1073 C1068 1.379 1_545 S
C1073 N1071 1.356 . S
N1074 C1066 1.356 . S
N1074 H1080 0.984 . S
N1074 H1081 0.984 . S
N1075 C1068 1.356 1_545 S
N1075 H1078 0.984 1_545 S
N1075 H1079 0.985 . S
H1076 N1071 0.984 . S
H1077 N1071 0.985 . S
H1078 N1075 0.984 1_565 S
H1079 N1075 0.985 . S
H1080 N1074 0.984 . S
H1081 N1074 0.984 . S
H1082 N1070 0.984 . S
H1083 N1070 0.985 . S
C1084 C1085 1.363 . S
C1084 C1090 1.379 . S
C1084 N1092 1.356 . S
C1085 C1084 1.363 . S
C1085 C1091 1.363 . S
C1086 C1087 1.363 . S
C1086 C1091 1.379 . S
C1086 N1093 1.356 . S
C1087 C1086 1.363 . S
C1087 C1090 1.363 . S
N1088 C1090 1.356 . S
N1088 H1100 0.984 . S
N1088 H1101 0.985 . S
N1089 C1091 1.356 . S
N1089 H1094 0.984 . S
N1089 H1095 0.985 . S
C1090 C1084 1.379 . S
C1090 C1087 1.363 . S
C1090 N1088 1.356 . S
C1091 C1085 1.363 . S
C1091 C1086 1.379 . S
C1091 N1089 1.356 . S
N1092 C1084 1.356 . S
N1092 H1098 0.984 . S
N1092 H1099 0.984 . S
N1093 C1086 1.356 . S
N1093 H1096 0.984 . S
N1093 H1097 0.985 . S
H1094 N1089 0.984 . S
H1095 N1089 0.985 . S
H1096 N1093 0.984 . S
H1097 N1093 0.985 . S
H1098 N1092 0.984 . S
H1099 N1092 0.984 . S
H1100 N1088 0.984 . S
H1101 N1088 0.985 . S
C1102 C1103 1.363 . S
C1102 C1108 1.379 . S
C1102 N1110 1.356 . S
C1103 C1102 1.363 . S
C1103 C1109 1.363 1_545 S
C1104 C1105 1.363 . S
C1104 C1109 1.379 . S
C1104 N1111 1.356 . S
C1105 C1104 1.363 . S
C1105 C1108 1.363 1_565 S
N1106 C1108 1.356 . S
N1106 H1118 0.984 . S
N1106 H1119 0.985 . S
N1107 C1109 1.356 . S
N1107 H1112 0.984 . S
N1107 H1113 0.985 . S
C1108 C1102 1.379 . S
C1108 C1105 1.363 1_545 S
C1108 N1106 1.356 . S
C1109 C1103 1.363 1_565 S
C1109 C1104 1.379 . S
C1109 N1107 1.356 . S
N1110 C1102 1.356 . S
N1110 H1116 0.984 . S
N1110 H1117 0.984 . S
N1111 C1104 1.356 . S
N1111 H1114 0.984 . S
N1111 H1115 0.985 . S
H1112 N1107 0.984 . S
H1113 N1107 0.985 . S
H1114 N1111 0.984 . S
H1115 N1111 0.985 . S
H1116 N1110 0.984 . S
H1117 N1110 0.984 . S
H1118 N1106 0.984 . S
H1119 N1106 0.985 . S
C1120 C1121 1.363 . S
C1120 C1126 1.379 . S
C1120 N1128 1.356 . S
C1121 C1120 1.363 . S
C1121 C1127 1.363 . S
C1122 C1123 1.363 . S
C1122 C1127 1.379 . S
C1122 N1129 1.356 . S
C1123 C1122 1.363 . S
C1123 C1126 1.363 . S
N1124 C1126 1.356 . S
N1124 H1136 0.984 . S
N1124 H1137 0.985 . S
N1125 C1127 1.356 . S
N1125 H1130 0.984 . S
N1125 H1131 0.985 . S
C1126 C1120 1.379 . S
C1126 C1123 1.363 . S
C1126 N1124 1.356 . S
C1127 C1121 1.363 . S
C1127 C1122 1.379 . S
C1127 N1125 1.356 . S
N1128 C1120 1.356 . S
N1128 H1134 0.984 . S
N1128 H1135 0.984 . S
N1129 C1122 1.356 . S
N1129 H1132 0.984 . S
N1129 H1133 0.985 . S
H1130 N1125 0.984 . S
H1131 N1125 0.985 . S
H1132 N1129 0.984 . S
H1133 N1129 0.985 . S
H1134 N1128 0.984 . S
H1135 N1128 0.984 . S
H1136 N1124 0.984 . S
H1137 N1124 0.985 . S
C1138 C1139 1.363 . S
C1138 C1144 1.379 . S
C1138 N1146 1.356 . S
C1139 C1138 1.363 . S
C1139 C1145 1.363 . S
C1140 C1141 1.363 . S
C1140 C1145 1.379 . S
C1140 N1147 1.356 . S
C1141 C1140 1.363 . S
C1141 C1144 1.363 . S
N1142 C1144 1.356 . S
N1142 H1154 0.984 . S
N1142 H1155 0.985 . S
N1143 C1145 1.356 . S
N1143 H1148 0.984 . S
N1143 H1149 0.985 . S
C1144 C1138 1.379 . S
C1144 C1141 1.363 . S
C1144 N1142 1.356 . S
C1145 C1139 1.363 . S
C1145 C1140 1.379 . S
C1145 N1143 1.356 . S
N1146 C1138 1.356 . S
N1146 H1152 0.984 . S
N1146 H1153 0.984 . S
N1147 C1140 1.356 . S
N1147 H1150 0.984 . S
N1147 H1151 0.985 . S
H1148 N1143 0.984 . S
H1149 N1143 0.985 . S
H1150 N1147 0.984 . S
H1151 N1147 0.985 . S
H1152 N1146 0.984 . S
H1153 N1146 0.984 . S
H1154 N1142 0.984 . S
H1155 N1142 0.985 . S
C1156 C1157 1.363 . S
C1156 C1162 1.379 . S
C1156 N1164 1.356 . S
C1157 C1156 1.363 . S
C1157 C1163 1.363 . S
C1158 C1159 1.363 . S
C1158 C1163 1.379 . S
C1158 N1165 1.356 . S
C1159 C1158 1.363 . S
C1159 C1162 1.363 . S
N1160 C1162 1.356 . S
N1160 H1172 0.984 . S
N1160 H1173 0.985 . S
N1161 C1163 1.356 . S
N1161 H1166 0.984 . S
N1161 H1167 0.985 . S
C1162 C1156 1.379 . S
C1162 C1159 1.363 . S
C1162 N1160 1.356 . S
C1163 C1157 1.363 . S
C1163 C1158 1.379 . S
C1163 N1161 1.356 . S
N1164 C1156 1.356 . S
N1164 H1170 0.984 . S
N1164 H1171 0.984 . S
N1165 C1158 1.356 . S
N1165 H1168 0.984 . S
N1165 H1169 0.985 . S
H1166 N1161 0.984 . S
H1167 N1161 0.985 . S
H1168 N1165 0.984 . S
H1169 N1165 0.985 . S
H1170 N1164 0.984 . S
H1171 N1164 0.984 . S
H1172 N1160 0.984 . S
H1173 N1160 0.985 . S
C1174 C1175 1.363 . S
C1174 C1180 1.379 . S
C1174 N1182 1.356 . S
C1175 C1174 1.363 . S
C1175 C1181 1.363 . S
C1176 C1177 1.363 . S
C1176 C1181 1.379 . S
C1176 N1183 1.356 . S
C1177 C1176 1.363 . S
C1177 C1180 1.363 . S
N1178 C1180 1.356 . S
N1178 H1190 0.984 . S
N1178 H1191 0.985 . S
N1179 C1181 1.356 . S
N1179 H1184 0.984 . S
N1179 H1185 0.985 . S
C1180 C1174 1.379 . S
C1180 C1177 1.363 . S
C1180 N1178 1.356 . S
C1181 C1175 1.363 . S
C1181 C1176 1.379 . S
C1181 N1179 1.356 . S
N1182 C1174 1.356 . S
N1182 H1188 0.984 . S
N1182 H1189 0.984 . S
N1183 C1176 1.356 . S
N1183 H1186 0.984 . S
N1183 H1187 0.985 . S
H1184 N1179 0.984 . S
H1185 N1179 0.985 . S
H1186 N1183 0.984 . S
H1187 N1183 0.985 . S
H1188 N1182 0.984 . S
H1189 N1182 0.984 . S
H1190 N1178 0.984 . S
H1191 N1178 0.985 . S
C1192 C1193 1.363 1_455 S
C1192 C1198 1.379 . S
C1192 N1200 1.356 . S
C1193 C1192 1.363 1_655 S
C1193 C1199 1.363 . S
C1194 C1195 1.363 1_655 S
C1194 C1199 1.379 . S
C1194 N1201 1.356 . S
C1195 C1194 1.363 1_455 S
C1195 C1198 1.363 . S
N1196 C1198 1.356 . S
N1196 H1208 0.984 . S
N1196 H1209 0.985 . S
N1197 C1199 1.356 . S
N1197 H1202 0.984 . S
N1197 H1203 0.985 . S
C1198 C1192 1.379 . S
C1198 C1195 1.363 . S
C1198 N1196 1.356 . S
C1199 C1193 1.363 . S
C1199 C1194 1.379 . S
C1199 N1197 1.356 . S
N1200 C1192 1.356 . S
N1200 H1206 0.984 . S
N1200 H1207 0.984 1_455 S
N1201 C1194 1.356 . S
N1201 H1204 0.984 1_655 S
N1201 H1205 0.985 . S
H1202 N1197 0.984 . S
H1203 N1197 0.985 . S
H1204 N1201 0.984 1_455 S
H1205 N1201 0.985 . S
H1206 N1200 0.984 . S
H1207 N1200 0.984 1_655 S
H1208 N1196 0.984 . S
H1209 N1196 0.985 . S
C1210 C1211 1.363 . S
C1210 C1216 1.379 . S
C1210 N1218 1.356 . S
C1211 C1210 1.363 . S
C1211 C1217 1.363 1_455 S
C1212 C1213 1.363 . S
C1212 C1217 1.379 . S
C1212 N1219 1.356 . S
C1213 C1212 1.363 . S
C1213 C1216 1.363 1_655 S
N1214 C1216 1.356 . S
N1214 H1226 0.984 . S
N1214 H1227 0.985 1_455 S
N1215 C1217 1.356 . S
N1215 H1220 0.984 1_655 S
N1215 H1221 0.985 . S
C1216 C1210 1.379 . S
C1216 C1213 1.363 1_455 S
C1216 N1214 1.356 . S
C1217 C1211 1.363 1_655 S
C1217 C1212 1.379 . S
C1217 N1215 1.356 . S
N1218 C1210 1.356 . S
N1218 H1224 0.984 . S
N1218 H1225 0.984 . S
N1219 C1212 1.356 . S
N1219 H1222 0.984 . S
N1219 H1223 0.985 . S
H1220 N1215 0.984 1_455 S
H1221 N1215 0.985 . S
H1222 N1219 0.984 . S
H1223 N1219 0.985 . S
H1224 N1218 0.984 . S
H1225 N1218 0.984 . S
H1226 N1214 0.984 . S
H1227 N1214 0.985 1_655 S
C1228 C1229 1.363 . S
C1228 C1234 1.379 . S
C1228 N1236 1.356 . S
C1229 C1228 1.363 . S
C1229 C1235 1.363 1_455 S
C1230 C1231 1.363 . S
C1230 C1235 1.379 . S
C1230 N1237 1.356 . S
C1231 C1230 1.363 . S
C1231 C1234 1.363 1_655 S
N1232 C1234 1.356 1_655 S
N1232 H1244 0.984 1_655 S
N1232 H1245 0.985 . S
N1233 C1235 1.356 1_455 S
N1233 H1238 0.984 . S
N1233 H1239 0.985 1_455 S
C1234 C1228 1.379 . S
C1234 C1231 1.363 1_455 S
C1234 N1232 1.356 1_455 S
C1235 C1229 1.363 1_655 S
C1235 C1230 1.379 . S
C1235 N1233 1.356 1_655 S
N1236 C1228 1.356 . S
N1236 H1242 0.984 . S
N1236 H1243 0.984 . S
N1237 C1230 1.356 . S
N1237 H1240 0.984 . S
N1237 H1241 0.985 . S
H1238 N1233 0.984 . S
H1239 N1233 0.985 1_655 S
H1240 N1237 0.984 . S
H1241 N1237 0.985 . S
H1242 N1236 0.984 . S
H1243 N1236 0.984 . S
H1244 N1232 0.984 1_455 S
H1245 N1232 0.985 . S
C1246 C1247 1.363 . S
C1246 C1252 1.368 1_655 S
C1246 N1254 1.356 . S
C1247 C1246 1.363 . S
C1247 C1253 1.374 . S
C1248 C1249 1.363 . S
C1248 C1253 1.368 1_455 S
C1248 N1255 1.356 . S
C1249 C1248 1.363 . S
C1249 C1252 1.374 . S
N1250 C1252 1.360 . S
N1250 H1262 0.984 1_455 S
N1250 H1263 0.985 . S
N1251 C1253 1.360 . S
N1251 H1256 0.984 . S
N1251 H1257 0.985 1_655 S
C1252 C1246 1.368 1_455 S
C1252 C1249 1.374 . S
C1252 N1250 1.360 . S
C1253 C1247 1.374 . S
C1253 C1248 1.368 1_655 S
C1253 N1251 1.360 . S
N1254 C1246 1.356 . S
N1254 H1260 0.984 . S
N1254 H1261 0.984 . S
N1255 C1248 1.356 . S
N1255 H1258 0.984 . S
N1255 H1259 0.985 . S
H1256 N1251 0.984 . S
H1257 N1251 0.985 1_455 S
H1258 N1255 0.984 . S
H1259 N1255 0.985 . S
H1260 N1254 0.984 . S
H1261 N1254 0.984 . S
H1262 N1250 0.984 1_655 S
H1263 N1250 0.985 . S
C545 C20 0.967 . S
C547 C509 0.974 . S
C563 C54 0.967 . S
C565 C543 0.974 . S
C581 C88 1.022 . S
C583 C441 1.017 . S
C599 C475 1.017 . S
C601 C122 1.022 . S
C617 C156 1.251 . S
C619 C373 1.240 . S
C635 C190 1.251 . S
C637 C407 1.240 . S
C653 C224 1.110 . S
C655 C274 1.116 . S
C671 C308 1.116 . S
C673 C258 1.110 . S
C689 C292 0.967 . S
C691 C237 0.974 . S
C707 C271 0.974 . S
C709 C326 0.967 . S
C725 C360 1.022 . S
C727 C169 1.017 . S
C743 C394 1.022 . S
C745 C203 1.017 . S
C761 C428 1.251 . S
C763 C101 1.240 . S
C779 C462 1.251 . S
C781 C135 1.240 . S
C797 C2 1.116 . S
C799 C496 1.110 . S
C815 C36 1.116 . S
C817 C530 1.110 . S
C833 C9 1.745 . S
C835 C379 1.713 . S
C851 C345 1.713 . S
C853 C43 1.745 . S
C869 C73 1.713 . S
C871 C315 1.745 . S
C887 C281 1.745 . S
C889 C107 1.713 . S
C905 C141 2.127 . S
C907 C515 2.113 . S
C923 C481 2.113 . S
C925 C175 2.127 . S
C941 C209 2.113 . S
C943 C447 2.127 . S
C959 C243 2.113 . S
C961 C413 2.127 . S
C977 C5 1.948 . S
C979 C77 1.749 1_545 S
C995 C39 1.948 . S
C997 C111 1.749 . S
C1013 C145 1.417 . S
C1015 C213 1.451 . S
C1031 C247 1.452 . S
C1033 C179 1.417 . S
C1049 C349 1.749 . S
C1051 C277 1.948 . S
C1067 C383 1.749 1_565 S
C1069 C311 1.948 . S
C1085 C417 1.417 . S
C1087 C485 1.452 . S
C1103 C451 1.417 . S
C1105 C519 1.452 . S
C1121 C67 1.390 . S
C1123 C33 1.390 . S
C1139 C70 1.555 . S
C1141 C104 1.555 . S
C1157 C138 1.678 . S
C1159 C172 1.678 . S
C1175 C240 1.669 . S
C1177 C206 1.669 . S
C1193 C305 1.390 . S
C1195 C339 1.390 . S
C1211 C376 1.555 . S
C1213 C342 1.555 . S
C1229 C410 1.678 . S
C1231 C444 1.678 . S
C1247 C512 1.669 . S
C1249 C478 1.669 . S
