# Generated by pormake.
# Topology wiu, (6)-cn, num edge types: 1
# Building blocks:
#     Node 0, Type 0, BuildingBlock: MIDCAF_clean_sbu_0, # of connection points: 6
#     Node 1, Type 0, BuildingBlock: MIDCAF_clean_sbu_0, # of connection points: 6
#     Node 2, Type 0, BuildingBlock: MIDCAF_clean_sbu_0, # of connection points: 6
#     Node 3, Type 0, BuildingBlock: MIDCAF_clean_sbu_0, # of connection points: 6
#     Node 4, Type 0, BuildingBlock: MIDCAF_clean_sbu_0, # of connection points: 6
#     Node 5, Type 0, BuildingBlock: MIDCAF_clean_sbu_0, # of connection points: 6
#     Node 6, Type 0, BuildingBlock: MIDCAF_clean_sbu_0, # of connection points: 6
#     Node 7, Type 0, BuildingBlock: MIDCAF_clean_sbu_0, # of connection points: 6
#     Node 8, Type 0, BuildingBlock: MIDCAF_clean_sbu_0, # of connection points: 6
#     Node 9, Type 0, BuildingBlock: MIDCAF_clean_sbu_0, # of connection points: 6
#     Node 10, Type 0, BuildingBlock: MIDCAF_clean_sbu_0, # of connection points: 6
#     Node 11, Type 0, BuildingBlock: MIDCAF_clean_sbu_0, # of connection points: 6
#     Node 12, Type 0, BuildingBlock: MIDCAF_clean_sbu_0, # of connection points: 6
#     Node 13, Type 0, BuildingBlock: MIDCAF_clean_sbu_0, # of connection points: 6
#     Node 14, Type 0, BuildingBlock: MIDCAF_clean_sbu_0, # of connection points: 6
#     Node 15, Type 0, BuildingBlock: MIDCAF_clean_sbu_0, # of connection points: 6
#     Edge 16, Type (0, 0), BuildingBlock: AJUNOK_clean_linker_0, # of connection points: 2
#     Edge 17, Type (0, 0), BuildingBlock: AJUNOK_clean_linker_0, # of connection points: 2
#     Edge 18, Type (0, 0), BuildingBlock: AJUNOK_clean_linker_0, # of connection points: 2
#     Edge 19, Type (0, 0), BuildingBlock: AJUNOK_clean_linker_0, # of connection points: 2
#     Edge 20, Type (0, 0), BuildingBlock: AJUNOK_clean_linker_0, # of connection points: 2
#     Edge 21, Type (0, 0), BuildingBlock: AJUNOK_clean_linker_0, # of connection points: 2
#     Edge 22, Type (0, 0), BuildingBlock: AJUNOK_clean_linker_0, # of connection points: 2
#     Edge 23, Type (0, 0), BuildingBlock: AJUNOK_clean_linker_0, # of connection points: 2
#     Edge 24, Type (0, 0), BuildingBlock: AJUNOK_clean_linker_0, # of connection points: 2
#     Edge 25, Type (0, 0), BuildingBlock: AJUNOK_clean_linker_0, # of connection points: 2
#     Edge 26, Type (0, 0), BuildingBlock: AJUNOK_clean_linker_0, # of connection points: 2
#     Edge 27, Type (0, 0), BuildingBlock: AJUNOK_clean_linker_0, # of connection points: 2
#     Edge 28, Type (0, 0), BuildingBlock: AJUNOK_clean_linker_0, # of connection points: 2
#     Edge 29, Type (0, 0), BuildingBlock: AJUNOK_clean_linker_0, # of connection points: 2
#     Edge 30, Type (0, 0), BuildingBlock: AJUNOK_clean_linker_0, # of connection points: 2
#     Edge 31, Type (0, 0), BuildingBlock: AJUNOK_clean_linker_0, # of connection points: 2
#     Edge 32, Type (0, 0), BuildingBlock: AJUNOK_clean_linker_0, # of connection points: 2
#     Edge 33, Type (0, 0), BuildingBlock: AJUNOK_clean_linker_0, # of connection points: 2
#     Edge 34, Type (0, 0), BuildingBlock: AJUNOK_clean_linker_0, # of connection points: 2
#     Edge 35, Type (0, 0), BuildingBlock: AJUNOK_clean_linker_0, # of connection points: 2
#     Edge 36, Type (0, 0), BuildingBlock: AJUNOK_clean_linker_0, # of connection points: 2
#     Edge 37, Type (0, 0), BuildingBlock: AJUNOK_clean_linker_0, # of connection points: 2
#     Edge 38, Type (0, 0), BuildingBlock: AJUNOK_clean_linker_0, # of connection points: 2
#     Edge 39, Type (0, 0), BuildingBlock: AJUNOK_clean_linker_0, # of connection points: 2
#     Edge 40, Type (0, 0), BuildingBlock: AJUNOK_clean_linker_0, # of connection points: 2
#     Edge 41, Type (0, 0), BuildingBlock: AJUNOK_clean_linker_0, # of connection points: 2
#     Edge 42, Type (0, 0), BuildingBlock: AJUNOK_clean_linker_0, # of connection points: 2
#     Edge 43, Type (0, 0), BuildingBlock: AJUNOK_clean_linker_0, # of connection points: 2
#     Edge 44, Type (0, 0), BuildingBlock: AJUNOK_clean_linker_0, # of connection points: 2
#     Edge 45, Type (0, 0), BuildingBlock: AJUNOK_clean_linker_0, # of connection points: 2
#     Edge 46, Type (0, 0), BuildingBlock: AJUNOK_clean_linker_0, # of connection points: 2
#     Edge 47, Type (0, 0), BuildingBlock: AJUNOK_clean_linker_0, # of connection points: 2
#     Edge 48, Type (0, 0), BuildingBlock: AJUNOK_clean_linker_0, # of connection points: 2
#     Edge 49, Type (0, 0), BuildingBlock: AJUNOK_clean_linker_0, # of connection points: 2
#     Edge 50, Type (0, 0), BuildingBlock: AJUNOK_clean_linker_0, # of connection points: 2
#     Edge 51, Type (0, 0), BuildingBlock: AJUNOK_clean_linker_0, # of connection points: 2
#     Edge 52, Type (0, 0), BuildingBlock: AJUNOK_clean_linker_0, # of connection points: 2
#     Edge 53, Type (0, 0), BuildingBlock: AJUNOK_clean_linker_0, # of connection points: 2
#     Edge 54, Type (0, 0), BuildingBlock: AJUNOK_clean_linker_0, # of connection points: 2
#     Edge 55, Type (0, 0), BuildingBlock: AJUNOK_clean_linker_0, # of connection points: 2
#     Edge 56, Type (0, 0), BuildingBlock: AJUNOK_clean_linker_0, # of connection points: 2
#     Edge 57, Type (0, 0), BuildingBlock: AJUNOK_clean_linker_0, # of connection points: 2
#     Edge 58, Type (0, 0), BuildingBlock: AJUNOK_clean_linker_0, # of connection points: 2
#     Edge 59, Type (0, 0), BuildingBlock: AJUNOK_clean_linker_0, # of connection points: 2
#     Edge 60, Type (0, 0), BuildingBlock: AJUNOK_clean_linker_0, # of connection points: 2
#     Edge 61, Type (0, 0), BuildingBlock: AJUNOK_clean_linker_0, # of connection points: 2
#     Edge 62, Type (0, 0), BuildingBlock: AJUNOK_clean_linker_0, # of connection points: 2
#     Edge 63, Type (0, 0), BuildingBlock: AJUNOK_clean_linker_0, # of connection points: 2
# Relax obj value: 0.129
# Max RMSD: 0.135
# Mean RMSD: 0.135
data_MOF--net-wiu--node1-MIDCAF_clean_sbu_0--edge1-AJUNOK_clean_linker_0
_symmetry_space_group_name_H-M    P1
_symmetry_Int_Tables_number       1
_symmetry_cell_setting            triclinic
loop_
_symmetry_equiv_pos_as_xyz
'x, y, z'
_cell_length_a     22.957809
_cell_length_b     22.909207
_cell_length_c     42.323114
_cell_angle_alpha  89.762706
_cell_angle_beta   89.868918
_cell_angle_gamma 89.796339
loop_
_atom_site_label
_atom_site_type_symbol
_atom_site_fract_x
_atom_site_fract_y
_atom_site_fract_z
_atom_type_partial_charge
Zn0 Zn 0.40907 0.08645 0.08807 0.0
Zn1 Zn 0.22967 0.15319 0.04126 0.0
Zn2 Zn 0.31538 0.11431 0.06577 0.0
C3 C 0.29452 0.11185 -0.00769 0.0
C4 C 0.28106 0.24591 0.07265 0.0
O5 O 0.30376 0.04711 0.10266 0.0
O6 O 0.38321 0.06434 0.13036 0.0
C7 C 0.41879 0.03434 0.03068 0.0
O8 O 0.3304 0.10258 0.01509 0.0
O9 O 0.24467 0.13282 -0.00249 0.0
O10 O 0.24282 0.23592 0.05204 0.0
O11 O 0.31115 0.20359 0.08392 0.0
O12 O 0.43955 0.02275 0.05766 0.0
O13 O 0.37745 0.07307 0.02876 0.0
O14 O 0.38265 0.13917 0.03315 0.0
O15 O 0.4243 0.16993 0.07651 0.0
C16 C 0.41806 0.17395 0.04688 0.0
O17 O 0.24897 0.05415 0.08345 0.0
O18 O 0.17333 0.10288 0.06463 0.0
C19 C 0.33439 0.03993 0.12774 0.0
C20 C 0.19364 0.06038 0.08027 0.0
Zn21 Zn 0.62174 0.4947 0.29214 0.0
Zn22 Zn 0.75629 0.71662 0.33096 0.0
Zn23 Zn 0.64535 0.58306 0.31534 0.0
C24 C 0.6391 0.72496 0.32993 0.0
C25 C 0.73365 0.66719 0.27612 0.0
O26 O 0.69531 0.51191 0.34043 0.0
O27 O 0.69258 0.44762 0.30212 0.0
C28 C 0.523 0.5224 0.32375 0.0
O29 O 0.65375 0.67252 0.32407 0.0
O30 O 0.67912 0.7626 0.33235 0.0
O31 O 0.77088 0.65721 0.29718 0.0
O32 O 0.68316 0.64291 0.27863 0.0
O33 O 0.5509 0.47719 0.31595 0.0
O34 O 0.54935 0.57175 0.3232 0.0
O35 O 0.66817 0.57921 0.26475 0.0
O36 O 0.60738 0.51326 0.24739 0.0
C37 C 0.64407 0.55258 0.24176 0.0
O38 O 0.70029 0.56863 0.35799 0.0
O39 O 0.74996 0.65253 0.36262 0.0
C40 C 0.71168 0.46238 0.32881 0.0
C41 C 0.73419 0.60343 0.37347 0.0
Zn42 Zn 0.28632 0.87882 0.55496 0.0
Zn43 Zn 0.0957 0.93071 0.59137 0.0
Zn44 Zn 0.18815 0.90482 0.56669 0.0
C45 C 0.08792 0.81548 0.58436 0.0
C46 C 0.07898 0.96411 0.53004 0.0
O47 O 0.25726 0.95934 0.5945 0.0
O48 O 0.34137 0.91873 0.58165 0.0
C49 C 0.24401 0.77216 0.56972 0.0
O50 O 0.14023 0.82345 0.57436 0.0
O51 O 0.06382 0.85396 0.60117 0.0
O52 O 0.05467 0.96784 0.55659 0.0
O53 O 0.13039 0.94109 0.52769 0.0
O54 O 0.28916 0.79333 0.5573 0.0
O55 O 0.20081 0.80669 0.57602 0.0
O56 O 0.18917 0.92669 0.51655 0.0
O57 O 0.28382 0.91277 0.51293 0.0
C58 C 0.23602 0.92537 0.50003 0.0
O59 O 0.19981 0.96711 0.60658 0.0
O60 O 0.11074 0.98387 0.62462 0.0
C61 C 0.31378 0.9574 0.59646 0.0
C62 C 0.16449 0.99363 0.62553 0.0
Zn63 Zn 0.84344 0.29339 0.8641 0.0
Zn64 Zn 0.88839 0.53148 0.80158 0.0
Zn65 Zn 0.86226 0.44223 0.82009 0.0
C66 C 0.85038 0.47168 0.74945 0.0
C67 C 0.99001 0.48637 0.82577 0.0
O68 O 0.7926 0.46157 0.85297 0.0
O69 O 0.81212 0.37082 0.8541 0.0
C70 C 0.8057 0.32639 0.79196 0.0
O71 O 0.8526 0.42901 0.76911 0.0
O72 O 0.85663 0.52311 0.7592 0.0
O73 O 0.97315 0.52476 0.80638 0.0
O74 O 0.95299 0.44934 0.83642 0.0
O75 O 0.80752 0.2976 0.818 0.0
O76 O 0.82852 0.37735 0.78824 0.0
O77 O 0.9241 0.38682 0.84577 0.0
O78 O 0.93308 0.29769 0.86404 0.0
C79 C 0.94543 0.33486 0.84266 0.0
O80 O 0.8033 0.51424 0.84014 0.0
O81 O 0.85042 0.59339 0.82514 0.0
C82 C 0.78763 0.41312 0.86734 0.0
C83 C 0.80784 0.57045 0.83917 0.0
Zn84 Zn 0.75436 0.85845 0.91037 0.0
Zn85 Zn 0.53614 0.95309 0.84527 0.0
Zn86 Zn 0.67424 0.9038 0.8942 0.0
C87 C 0.55755 0.84264 0.86286 0.0
C88 C 0.55763 0.96199 0.92242 0.0
O89 O 0.75278 0.95027 0.87494 0.0
O90 O 0.81685 0.87891 0.88029 0.0
C91 C 0.69986 0.76696 0.89287 0.0
O92 O 0.60352 0.87185 0.86799 0.0
O93 O 0.52328 0.8631 0.84202 0.0
O94 O 0.53525 0.96949 0.89491 0.0
O95 O 0.60783 0.93733 0.92679 0.0
O96 O 0.73217 0.7761 0.91634 0.0
O97 O 0.67578 0.81089 0.87905 0.0
O98 O 0.66545 0.92769 0.94336 0.0
O99 O 0.75887 0.90906 0.94695 0.0
C100 C 0.71373 0.93249 0.95821 0.0
O101 O 0.70237 0.97389 0.86421 0.0
O102 O 0.60972 0.9829 0.86572 0.0
C103 C 0.80496 0.93022 0.87136 0.0
C104 C 0.65687 0.99748 0.85274 0.0
Zn105 Zn 0.3987 0.51744 0.66691 0.0
Zn106 Zn 0.26335 0.29492 0.62222 0.0
Zn107 Zn 0.35781 0.42544 0.64419 0.0
C108 C 0.37488 0.29488 0.61409 0.0
C109 C 0.28704 0.32644 0.69008 0.0
O110 O 0.312 0.50248 0.62144 0.0
O111 O 0.34134 0.57568 0.65125 0.0
C112 C 0.49106 0.46783 0.63627 0.0
O113 O 0.35696 0.343 0.62531 0.0
O114 O 0.33744 0.25652 0.60746 0.0
O115 O 0.2591 0.30047 0.66858 0.0
O116 O 0.32248 0.36925 0.68428 0.0
O117 O 0.47619 0.51607 0.64805 0.0
O118 O 0.45322 0.42707 0.63324 0.0
O119 O 0.34165 0.42657 0.69527 0.0
O120 O 0.39849 0.49757 0.71185 0.0
C121 C 0.36507 0.45552 0.71782 0.0
O122 O 0.29359 0.44966 0.60659 0.0
O123 O 0.2465 0.36621 0.59853 0.0
C124 C 0.31005 0.55712 0.62903 0.0
C125 C 0.25441 0.41929 0.59206 0.0
Zn126 Zn 0.95707 0.01971 0.39163 0.0
Zn127 Zn 0.7198 0.13582 0.41696 0.0
Zn128 Zn 0.81809 0.11088 0.39841 0.0
C129 C 0.77276 0.09898 0.46944 0.0
C130 C 0.76175 0.23969 0.38994 0.0
O131 O 0.82242 0.05461 0.35717 0.0
O132 O 0.91732 0.02887 0.34988 0.0
C133 C 0.89461 0.01786 0.44092 0.0
O134 O 0.81192 0.09308 0.44827 0.0
O135 O 0.72372 0.12005 0.46248 0.0
O136 O 0.71752 0.21832 0.4034 0.0
O137 O 0.8066 0.20665 0.38587 0.0
O138 O 0.8905 0.986 0.41699 0.0
O139 O 0.87289 0.07028 0.43876 0.0
O140 O 0.90576 0.10999 0.40312 0.0
O141 O 0.99843 0.09576 0.405 0.0
C142 C 0.95638 0.13143 0.40356 0.0
O143 O 0.76129 0.05051 0.3696 0.0
O144 O 0.67822 0.07747 0.39173 0.0
C145 C 0.86512 0.03475 0.34026 0.0
C146 C 0.70548 0.04513 0.37268 0.0
Zn147 Zn 0.1135 0.48427 0.16785 0.0
Zn148 Zn 0.17945 0.70821 0.10601 0.0
Zn149 Zn 0.1435 0.57367 0.14278 0.0
C150 C 0.06982 0.65244 0.11914 0.0
C151 C 0.20116 0.69497 0.17489 0.0
O152 O 0.197 0.50835 0.11828 0.0
O153 O 0.15274 0.43161 0.13868 0.0
C154 C 0.00852 0.51427 0.15405 0.0
O155 O 0.06053 0.60301 0.13139 0.0
O156 O 0.11372 0.6552 0.10153 0.0
O157 O 0.20245 0.72673 0.1503 0.0
O158 O 0.18188 0.6418 0.17479 0.0
O159 O 0.02872 0.4759 0.17239 0.0
O160 O 0.04426 0.55109 0.14105 0.0
O161 O 0.17901 0.58534 0.18974 0.0
O162 O 0.15889 0.49615 0.20599 0.0
C163 C 0.18318 0.54465 0.21046 0.0
O164 O 0.19972 0.56619 0.10055 0.0
O165 O 0.23386 0.65337 0.08379 0.0
C166 C 0.19222 0.45281 0.1214 0.0
C167 C 0.23207 0.59786 0.08227 0.0
Zn168 Zn 0.94362 0.59659 0.59859 0.0
Zn169 Zn 0.72572 0.6348 0.5565 0.0
Zn170 Zn 0.816 0.61101 0.57177 0.0
C171 C 0.77837 0.58267 0.50557 0.0
C172 C 0.7685 0.74005 0.57187 0.0
O173 O 0.82008 0.54968 0.61023 0.0
O174 O 0.90781 0.51544 0.60208 0.0
C175 C 0.92807 0.54025 0.53706 0.0
O176 O 0.82351 0.59513 0.52206 0.0
O177 O 0.72825 0.58856 0.51731 0.0
O178 O 0.73181 0.72103 0.55235 0.0
O179 O 0.80114 0.70314 0.58621 0.0
O180 O 0.95456 0.53523 0.56334 0.0
O181 O 0.88176 0.57327 0.53512 0.0
O182 O 0.88031 0.63987 0.53872 0.0
O183 O 0.91021 0.67486 0.58376 0.0
C184 C 0.90997 0.67785 0.55386 0.0
O185 O 0.75691 0.54357 0.59132 0.0
O186 O 0.67879 0.5994 0.59061 0.0
C187 C 0.86051 0.51356 0.61726 0.0
C188 C 0.70303 0.55187 0.5982 0.0
Zn189 Zn 0.10406 0.99745 0.79246 0.0
Zn190 Zn 0.14328 0.16673 0.84718 0.0
Zn191 Zn 0.13891 0.08101 0.81756 0.0
C192 C 0.068 0.18103 0.79875 0.0
C193 C 0.21325 0.19139 0.79604 0.0
O194 O 0.20228 0.01514 0.8328 0.0
O195 O 0.16704 0.94143 0.80589 0.0
C196 C 0.01454 0.03105 0.83094 0.0
O197 O 0.11014 0.15219 0.78615 0.0
O198 O 0.06407 0.1824 0.82866 0.0
O199 O 0.21075 0.20751 0.82455 0.0
O200 O 0.17974 0.14935 0.78684 0.0
O201 O 0.02697 0.99131 0.81157 0.0
O202 O 0.05188 0.07024 0.83762 0.0
O203 O 0.15563 0.10001 0.76774 0.0
O204 O 0.10515 0.02613 0.74913 0.0
C205 C 0.13786 0.06937 0.74435 0.0
O206 O 0.20746 0.07139 0.85166 0.0
O207 O 0.1631 0.12592 0.88713 0.0
C208 C 0.20475 0.96135 0.82463 0.0
C209 C 0.20415 0.09158 0.87972 0.0
Zn210 Zn 0.82378 0.35322 0.03868 0.0
Zn211 Zn 0.58413 0.42582 0.08342 0.0
Zn212 Zn 0.68173 0.40267 0.0602 0.0
C213 C 0.58878 0.30887 0.07816 0.0
C214 C 0.57152 0.45963 0.02275 0.0
O215 O 0.75399 0.44433 0.08751 0.0
O216 O 0.84208 0.40874 0.07316 0.0
C217 C 0.74168 0.26729 0.06398 0.0
O218 O 0.63935 0.32022 0.06692 0.0
O219 O 0.56356 0.34564 0.09567 0.0
O220 O 0.54062 0.45745 0.04733 0.0
O221 O 0.62517 0.44296 0.02329 0.0
O222 O 0.79268 0.27804 0.05392 0.0
O223 O 0.70146 0.30692 0.06626 0.0
O224 O 0.67819 0.43194 0.01092 0.0
O225 O 0.75859 0.39059 0.02006 0.0
C226 C 0.72548 0.41207 -9e-05 0.0
O227 O 0.69667 0.46155 0.10067 0.0
O228 O 0.60625 0.48263 0.1146 0.0
C229 C 0.81031 0.44226 0.0898 0.0
C230 C 0.66018 0.49018 0.11785 0.0
Zn231 Zn 0.40253 0.01246 0.29013 0.0
Zn232 Zn 0.28255 0.79222 0.35724 0.0
Zn233 Zn 0.36083 0.9295 0.31688 0.0
C234 C 0.40361 0.80057 0.35014 0.0
C235 C 0.2836 0.81561 0.28552 0.0
O236 O 0.31855 0.01178 0.3373 0.0
O237 O 0.35084 0.07865 0.30414 0.0
C238 C 0.49882 0.96682 0.31776 0.0
O239 O 0.38679 0.84865 0.33785 0.0
O240 O 0.36713 0.76609 0.36299 0.0
O241 O 0.26851 0.78747 0.31028 0.0
O242 O 0.31428 0.86333 0.28597 0.0
O243 O 0.48347 0.01295 0.30373 0.0
O244 O 0.45972 0.92835 0.32475 0.0
O245 O 0.33008 0.92101 0.26847 0.0
O246 O 0.39345 0.98149 0.24733 0.0
C247 C 0.35341 0.9446 0.24405 0.0
O248 O 0.30555 0.96536 0.35461 0.0
O249 O 0.28044 0.87679 0.35017 0.0
C250 C 0.31848 0.06511 0.32719 0.0
C251 C 0.27766 0.92244 0.36623 0.0
Zn252 Zn 0.26222 0.36812 0.41538 0.0
Zn253 Zn 0.08732 0.44566 0.36413 0.0
Zn254 Zn 0.17564 0.40464 0.39189 0.0
C255 C 0.07854 0.32741 0.36094 0.0
C256 C 0.06484 0.46664 0.42714 0.0
O257 O 0.25074 0.45174 0.36966 0.0
O258 O 0.32337 0.39662 0.3865 0.0
C259 C 0.22247 0.26822 0.39322 0.0
O260 O 0.12704 0.33112 0.37586 0.0
O261 O 0.05552 0.37182 0.34845 0.0
O262 O 0.04345 0.47517 0.40015 0.0
O263 O 0.11513 0.44117 0.42966 0.0
O264 O 0.25099 0.28294 0.41727 0.0
O265 O 0.18961 0.30707 0.37977 0.0
O266 O 0.17147 0.42713 0.44276 0.0
O267 O 0.26302 0.40912 0.45535 0.0
C268 C 0.21366 0.42863 0.46277 0.0
O269 O 0.19926 0.46768 0.35353 0.0
O270 O 0.11687 0.50306 0.3344 0.0
C271 C 0.30561 0.4395 0.37045 0.0
C272 C 0.17168 0.50145 0.33414 0.0
Zn273 Zn 0.88705 0.02835 0.15641 0.0
Zn274 Zn 0.81439 0.84343 0.11703 0.0
Zn275 Zn 0.85815 0.94097 0.14319 0.0
C276 C 0.92192 0.83472 0.14164 0.0
C277 C 0.78812 0.83953 0.18135 0.0
O278 O 0.79528 0.0054 0.1233 0.0
O279 O 0.85602 0.08 0.12395 0.0
C280 C 0.98718 0.98026 0.13883 0.0
O281 O 0.89494 0.86417 0.16235 0.0
O282 O 0.90055 0.82988 0.11435 0.0
O283 O 0.76884 0.82137 0.15529 0.0
O284 O 0.82881 0.8786 0.18174 0.0
O285 O 0.97241 0.01626 0.15986 0.0
O286 O 0.94747 0.95024 0.12558 0.0
O287 O 0.8469 0.93896 0.19395 0.0
O288 O 0.84088 0.03419 0.19494 0.0
C289 C 0.83833 0.98612 0.20929 0.0
O290 O 0.79669 0.95052 0.10375 0.0
O291 O 0.77153 0.86809 0.08058 0.0
C292 C 0.80682 0.05935 0.11712 0.0
C293 C 0.76925 0.92286 0.08214 0.0
Zn294 Zn 0.19919 0.66364 0.92561 0.0
Zn295 Zn 0.43394 0.6146 0.85981 0.0
Zn296 Zn 0.32419 0.61931 0.89358 0.0
C297 C 0.41669 0.69005 0.90843 0.0
C298 C 0.4504 0.55238 0.91524 0.0
O299 O 0.25305 0.56071 0.87969 0.0
O300 O 0.17021 0.60085 0.89823 0.0
C301 C 0.26363 0.75063 0.88796 0.0
O302 O 0.39418 0.6465 0.92305 0.0
O303 O 0.4121 0.69275 0.87857 0.0
O304 O 0.47488 0.55852 0.88867 0.0
O305 O 0.40094 0.57829 0.92123 0.0
O306 O 0.22063 0.73887 0.9057 0.0
O307 O 0.30172 0.71141 0.88091 0.0
O308 O 0.35212 0.59622 0.94178 0.0
O309 O 0.26341 0.62561 0.94514 0.0
C310 C 0.30543 0.60067 0.95799 0.0
O311 O 0.31274 0.55165 0.85868 0.0
O312 O 0.39028 0.56967 0.82876 0.0
C313 C 0.19709 0.56137 0.88303 0.0
C314 C 0.34492 0.54051 0.83466 0.0
Zn315 Zn 0.61107 0.96728 0.66553 0.0
Zn316 Zn 0.69737 0.16751 0.63072 0.0
Zn317 Zn 0.6576 0.08134 0.6515 0.0
C318 C 0.58837 0.17292 0.6123 0.0
C319 C 0.70826 0.1949 0.68927 0.0
O320 O 0.70333 0.00795 0.62547 0.0
O321 O 0.66376 0.92348 0.64018 0.0
C322 C 0.51941 0.03789 0.64534 0.0
O323 O 0.58759 0.13264 0.6335 0.0
O324 O 0.63574 0.18836 0.59967 0.0
O325 O 0.70306 0.22374 0.66413 0.0
O326 O 0.69757 0.13928 0.68966 0.0
O327 O 0.53355 0.98612 0.65212 0.0
O328 O 0.55835 0.07869 0.64408 0.0
O329 O 0.67895 0.08281 0.70193 0.0
O330 O 0.63685 0.99709 0.70489 0.0
C331 C 0.66146 0.039 0.71832 0.0
O332 O 0.71872 0.0648 0.61136 0.0
O333 O 0.7752 0.14031 0.61773 0.0
C334 C 0.70114 0.95154 0.62461 0.0
C335 C 0.76316 0.09508 0.60252 0.0
C336 C 0.45641 0.26611 0.03185 0.0
C337 C 0.46326 0.20558 0.03015 0.0
C338 C 0.4989 0.29954 0.04669 0.0
C339 C 0.55028 0.27343 0.05844 0.0
H340 H 0.41418 0.28582 0.02743 0.0
H341 H 0.48964 0.34528 0.05085 0.0
S342 S 0.59809 0.12126 0.04488 0.0
N343 N 0.53179 0.1248 0.02998 0.0
N344 N 0.61231 0.18749 0.05803 0.0
C345 C 0.56258 0.21578 0.04997 0.0
C346 C 0.51929 0.18217 0.03452 0.0
C347 C 0.53926 0.7455 0.31016 0.0
C348 C 0.57852 0.74175 0.33544 0.0
C349 C 0.48232 0.76565 0.31512 0.0
C350 C 0.46334 0.78122 0.34552 0.0
H351 H 0.55294 0.7339 0.28649 0.0
H352 H 0.45283 0.76863 0.2952 0.0
S353 S 0.54926 0.77831 0.41917 0.0
N354 N 0.59503 0.7556 0.39159 0.0
N355 N 0.48685 0.79112 0.40101 0.0
C356 C 0.50176 0.77682 0.37093 0.0
C357 C 0.55992 0.75768 0.36582 0.0
C358 C 0.99551 0.80477 0.55508 0.0
C359 C 0.04814 0.77919 0.56553 0.0
C360 C 0.95148 0.771 0.54184 0.0
C361 C 0.95803 0.71043 0.53973 0.0
H362 H 0.98662 0.85066 0.55904 0.0
H363 H 0.90906 0.79094 0.5383 0.0
S364 S 0.09541 0.62731 0.55048 0.0
N365 N 0.11076 0.6937 0.56307 0.0
N366 N 0.02713 0.62996 0.53828 0.0
C367 C 0.01431 0.68692 0.54361 0.0
C368 C 0.05951 0.72125 0.55716 0.0
C369 C 0.97202 0.21496 0.786 0.0
C370 C 0.03194 0.2235 0.78158 0.0
C371 C 0.93906 0.25668 0.80234 0.0
C372 C 0.9638 0.31015 0.81182 0.0
H373 H 0.95422 0.17139 0.78394 0.0
H374 H 0.89771 0.24267 0.8118 0.0
S375 S 0.11018 0.36312 0.78889 0.0
N376 N 0.10773 0.29563 0.77541 0.0
N377 N 0.04592 0.37538 0.80514 0.0
C378 C 0.01865 0.32427 0.79929 0.0
C379 C 0.05221 0.28102 0.78312 0.0
C380 C 0.55169 0.74886 0.89301 0.0
C381 C 0.53197 0.80613 0.88797 0.0
C382 C 0.51873 0.70964 0.91117 0.0
C383 C 0.46274 0.72561 0.92178 0.0
H384 H 0.58861 0.73227 0.88003 0.0
H385 H 0.53117 0.66396 0.91073 0.0
S386 S 0.39845 0.87298 0.92209 0.0
N387 N 0.45861 0.87925 0.90094 0.0
N388 N 0.39759 0.80478 0.93478 0.0
C389 C 0.44864 0.78481 0.9225 0.0
C390 C 0.48164 0.8249 0.90412 0.0
C391 C 0.50752 0.22082 0.58318 0.0
C392 C 0.53926 0.21294 0.61101 0.0
C393 C 0.45601 0.25348 0.58361 0.0
C394 C 0.43628 0.27986 0.61161 0.0
H395 H 0.52052 0.19883 0.56167 0.0
H396 H 0.42952 0.25509 0.56246 0.0
S397 S 0.51066 0.27973 0.68917 0.0
N398 N 0.55264 0.23947 0.66611 0.0
N399 N 0.45578 0.30163 0.66679 0.0
C400 C 0.47083 0.27681 0.63879 0.0
C401 C 0.52257 0.24285 0.63849 0.0
C402 C 0.0156 0.24214 0.34936 0.0
C403 C 0.03853 0.28194 0.37089 0.0
C404 C 0.98047 0.19655 0.36016 0.0
C405 C 0.96783 0.19025 0.3925 0.0
H406 H 0.02737 0.24438 0.32459 0.0
H407 H 0.96755 0.16305 0.34359 0.0
S408 S 1.00137 0.29562 0.45588 0.0
N409 N 0.03439 0.32171 0.42413 0.0
N410 N 0.96918 0.23469 0.44457 0.0
C411 C 0.98406 0.23423 0.41346 0.0
C412 C 0.01951 0.28066 0.4025 0.0
C413 C 0.05645 0.7598 0.12137 0.0
C414 C 0.04407 0.70441 0.13392 0.0
C415 C 0.02143 0.80752 0.12895 0.0
C416 C 0.97323 0.80063 0.14899 0.0
H417 H 0.08948 0.76539 0.10332 0.0
H418 H 0.02749 0.84789 0.11594 0.0
S419 S 0.93174 0.66958 0.19462 0.0
N420 N 0.98803 0.64895 0.17302 0.0
N421 N 0.9217 0.73928 0.18626 0.0
C422 C 0.96597 0.74841 0.16547 0.0
C423 C 1.00143 0.69965 0.15792 0.0
C424 C 0.47221 0.95772 -0.00048 0.0
C425 C 0.44991 0.01484 0.00167 0.0
C426 C 0.50711 0.94054 0.97375 0.0
C427 C 0.52197 0.98038 0.94971 0.0
H428 H 0.46316 0.92629 0.01806 0.0
H429 H 0.52316 0.89604 0.97281 0.0
S430 S 0.4714 0.13332 0.94245 0.0
N431 N 0.44233 0.10984 0.97585 0.0
N432 N 0.50833 0.07747 0.92813 0.0
C433 C 0.49785 0.03652 0.95076 0.0
C434 C 0.46183 0.05385 0.97661 0.0
C435 C 0.80066 0.74082 0.2521 0.0
C436 C 0.74416 0.7168 0.25425 0.0
C437 C 0.81366 0.7854 0.23049 0.0
C438 C 0.77095 0.80667 0.20983 0.0
H439 H 0.83583 0.7239 0.26654 0.0
H440 H 0.85812 0.80071 0.22868 0.0
S441 S 0.61396 0.7697 0.21091 0.0
N442 N 0.6431 0.72611 0.23779 0.0
N443 N 0.66838 0.80805 0.19611 0.0
C444 C 0.71352 0.7866 0.21337 0.0
C445 C 0.69993 0.74198 0.23577 0.0
C446 C 0.01503 0.03541 0.50232 0.0
C447 C 0.04227 0.98013 0.5027 0.0
C448 C 0.96701 0.04744 0.48271 0.0
C449 C 0.94345 1.0042 0.4631 0.0
H450 H 0.02973 0.06911 0.51829 0.0
H451 H 0.94795 0.09075 0.48322 0.0
S452 S 0.99522 0.85004 0.458 0.0
N453 N 0.0402 0.88086 0.48328 0.0
N454 N 0.9498 0.90215 0.44677 0.0
C455 C 0.97008 0.94823 0.46361 0.0
C456 C 0.01949 0.93655 0.48324 0.0
C457 C 0.81345 0.28063 0.73908 0.0
C458 C 0.77889 0.29741 0.76488 0.0
C459 C 0.79034 0.24566 0.7151 0.0
C460 C 0.73224 0.22627 0.7164 0.0
H461 H 0.85887 0.29325 0.7379 0.0
H462 H 0.81807 0.23356 0.69542 0.0
S463 S 0.62223 0.26586 0.77663 0.0
N464 N 0.68293 0.29673 0.78909 0.0
N465 N 0.63901 0.23269 0.7432 0.0
C466 C 0.6965 0.2459 0.74101 0.0
C467 C 0.72012 0.28084 0.76562 0.0
C468 C 0.26434 0.32222 0.74842 0.0
C469 C 0.28557 0.29576 0.72083 0.0
C470 C 0.24644 0.28796 0.77438 0.0
C471 C 0.24566 0.22648 0.77252 0.0
H472 H 0.25683 0.36871 0.74904 0.0
H473 H 0.22846 0.30966 0.79489 0.0
S474 S 0.30611 0.13693 0.70748 0.0
N475 N 0.31408 0.205 0.69541 0.0
N476 N 0.27555 0.14112 0.74276 0.0
C477 C 0.27086 0.19994 0.74606 0.0
C478 C 0.29182 0.23455 0.72055 0.0
C479 C 0.20434 0.77791 0.25167 0.0
C480 C 0.26404 0.78983 0.25556 0.0
C481 C 0.18427 0.7448 0.22614 0.0
C482 C 0.2234 0.72151 0.20402 0.0
H483 H 0.17295 0.79393 0.26875 0.0
H484 H 0.13786 0.73796 0.22345 0.0
S485 S 0.38428 0.73313 0.20574 0.0
N486 N 0.36233 0.77105 0.23677 0.0
N487 N 0.32448 0.70967 0.18829 0.0
C488 C 0.28321 0.73206 0.20789 0.0
C489 C 0.30366 0.76589 0.23386 0.0
C490 C 0.03729 0.46037 0.48475 0.0
C491 C 0.02966 0.48589 0.45495 0.0
C492 C 1.00309 0.4767 0.51084 0.0
C493 C 0.9589 0.51932 0.50813 0.0
H494 H 0.06897 0.42663 0.48766 0.0
H495 H 0.01166 0.45584 0.53338 0.0
S496 S 0.92112 0.60086 0.43485 0.0
N497 N 0.97368 0.55602 0.424 0.0
N498 N 0.91091 0.58823 0.47285 0.0
C499 C 0.95038 0.54515 0.47825 0.0
C500 C 0.98514 0.52809 0.45173 0.0
C501 C 0.52202 0.53949 -0.00546 0.0
C502 C 0.54589 0.48319 -0.00609 0.0
C503 C 0.49246 0.56188 0.96841 0.0
C504 C 0.48439 0.52798 0.94132 0.0
H505 H 0.52633 0.56633 0.01542 0.0
H506 H 0.47597 0.60617 0.96928 0.0
S507 S 0.54131 0.37879 0.92741 0.0
N508 N 0.56236 0.39461 0.96371 0.0
N509 N 0.50556 0.43682 0.91435 0.0
C510 C 0.50989 0.4723 0.93986 0.0
C511 C 0.54072 0.44964 0.96642 0.0
C512 C 0.27005 0.35303 0.06541 0.0
C513 C 0.28265 0.30547 0.08571 0.0
C514 C 0.24688 0.40547 0.07719 0.0
C515 C 0.23607 0.41138 0.10958 0.0
H516 H 0.27255 0.34753 0.04003 0.0
H517 H 0.23184 0.43852 0.06073 0.0
S518 S 0.27295 0.30538 0.17299 0.0
N519 N 0.29133 0.27182 0.13995 0.0
N520 N 0.24916 0.37052 0.1622 0.0
C521 C 0.25602 0.36741 0.13031 0.0
C522 C 0.27923 0.31422 0.11835 0.0
C523 C 0.43237 0.46562 0.31707 0.0
C524 C 0.45986 0.51434 0.33082 0.0
C525 C 0.3792 0.44466 0.32828 0.0
C526 C 0.34935 0.47311 0.35261 0.0
H527 H 0.45424 0.44042 0.29893 0.0
H528 H 0.36343 0.4034 0.31933 0.0
S529 S 0.3965 0.60723 0.39377 0.0
N530 N 0.44973 0.59392 0.36835 0.0
N531 N 0.34742 0.55558 0.38839 0.0
C532 C 0.37293 0.52507 0.36462 0.0
C533 C 0.42852 0.54583 0.35377 0.0
C534 C 0.22041 0.69105 0.60827 0.0
C535 C 0.24638 0.70956 0.57976 0.0
C536 C 0.23703 0.63797 0.62281 0.0
C537 C 0.28001 0.60158 0.60936 0.0
H538 H 0.19055 0.71971 0.62065 0.0
H539 H 0.21914 0.62734 0.64582 0.0
S540 S 0.35901 0.62863 0.53429 0.0
N541 N 0.31283 0.68374 0.53711 0.0
N542 N 0.34836 0.58848 0.56623 0.0
C543 C 0.30413 0.61834 0.58026 0.0
C544 C 0.28594 0.671 0.56495 0.0
C545 C 0.08854 0.52955 0.82163 0.0
C546 C 0.05105 0.49014 0.83715 0.0
C547 C 0.14028 0.54765 0.83548 0.0
C548 C 0.15937 0.52405 0.86416 0.0
H549 H 0.07545 0.55114 0.79994 0.0
H550 H 0.162 0.58525 0.82538 0.0
S551 S 0.08202 0.41435 0.91293 0.0
N552 N 0.03902 0.42461 0.88212 0.0
N553 N 0.1392 0.45671 0.90711 0.0
C554 C 0.12534 0.48076 0.87871 0.0
C555 C 0.07089 0.46364 0.86523 0.0
C556 C 0.7483 0.61094 0.88364 0.0
C557 C 0.76233 0.60974 0.8514 0.0
C558 C 0.72015 0.65994 0.89664 0.0
C559 C 0.70521 0.70883 0.87776 0.0
H560 H 0.76388 0.57673 0.89927 0.0
H561 H 0.71494 0.66187 0.92207 0.0
S562 S 0.7233 0.72032 0.7909 0.0
N563 N 0.75187 0.65632 0.80017 0.0
N564 N 0.69891 0.74801 0.8244 0.0
C565 C 0.71282 0.7044 0.84493 0.0
C566 C 0.74176 0.65495 0.83184 0.0
C567 C 0.59443 0.48083 0.6504 0.0
C568 C 0.55343 0.46161 0.62792 0.0
C569 C 0.64897 0.50261 0.64118 0.0
C570 C 0.66465 0.50477 0.60921 0.0
H571 H 0.58159 0.48552 0.67493 0.0
H572 H 0.67597 0.52372 0.65869 0.0
S573 S 0.57835 0.45041 0.54174 0.0
N574 N 0.53598 0.43909 0.57279 0.0
N575 N 0.63933 0.47843 0.55557 0.0
C576 C 0.62749 0.47866 0.58705 0.0
C577 C 0.57154 0.45726 0.59636 0.0
C578 C 0.6999 0.32744 0.3787 0.0
C579 C 0.75576 0.30113 0.37732 0.0
C580 C 0.68813 0.38185 0.36502 0.0
C581 C 0.73143 0.41357 0.34929 0.0
H582 H 0.66349 0.30496 0.3895 0.0
H583 H 0.64366 0.39798 0.36543 0.0
S584 S 0.88676 0.37084 0.34208 0.0
N585 N 0.85676 0.31552 0.36133 0.0
N586 N 0.8337 0.41809 0.33494 0.0
C587 C 0.78818 0.39006 0.34868 0.0
C588 C 0.80061 0.33403 0.36294 0.0
C589 C 0.87591 0.5241 0.10151 0.0
C590 C 0.8421 0.47746 0.11289 0.0
C591 C 0.92722 0.54087 0.11699 0.0
C592 C 0.94623 0.51139 0.14439 0.0
H593 H 0.86624 0.54331 0.07866 0.0
H594 H 0.95467 0.57314 0.10567 0.0
S595 S 0.86617 0.39441 0.18697 0.0
N596 N 0.8276 0.4065 0.15474 0.0
N597 N 0.92024 0.44166 0.18567 0.0
C598 C 0.90823 0.4703 0.15823 0.0
C599 C 0.85715 0.45215 0.14194 0.0
C600 C 0.72502 0.83923 0.56473 0.0
C601 C 0.76668 0.80334 0.57989 0.0
C602 C 0.71045 0.89425 0.57658 0.0
C603 C 0.73747 0.91597 0.60373 0.0
H604 H 0.69966 0.82297 0.54512 0.0
H605 H 0.67334 0.91703 0.56652 0.0
S606 S 0.85975 0.84757 0.64715 0.0
N607 N 0.84306 0.79938 0.61967 0.0
N608 N 0.81471 0.90321 0.64204 0.0
C609 C 0.78432 0.88445 0.61655 0.0
C610 C 0.79925 0.82798 0.60459 0.0
C611 C 0.90174 0.97037 0.88359 0.0
C612 C 0.85338 0.9692 0.86324 0.0
C613 C 0.95289 0.99945 0.87505 0.0
C614 C 0.95717 0.02789 0.84579 0.0
H615 H 0.90111 0.94591 0.90557 0.0
H616 H 0.99096 0.99461 0.88994 0.0
S617 S 0.84205 0.04132 0.78515 0.0
N618 N 0.81147 1.00259 0.81373 0.0
N619 N 0.90823 0.05718 0.79754 0.0
C620 C 0.90764 0.03111 0.82643 0.0
C621 C 0.85539 1.00162 0.83515 0.0
C622 C 0.76375 0.10702 0.07061 0.0
C623 C 0.76421 0.09941 0.10345 0.0
C624 C 0.74813 0.16074 0.05728 0.0
C625 C 0.73272 0.20828 0.07649 0.0
H626 H 0.78275 0.0744 0.05541 0.0
H627 H 0.75395 0.16693 0.03207 0.0
S628 S 0.72257 0.20832 0.16376 0.0
N629 N 0.74321 0.14128 0.15474 0.0
N630 N 0.714 0.24283 0.12972 0.0
C631 C 0.72716 0.19932 0.10915 0.0
C632 C 0.74294 0.14449 0.12266 0.0
C633 C 0.62911 0.96871 0.37204 0.0
C634 C 0.6689 1.0034 0.35471 0.0
C635 C 0.57637 0.94913 0.35878 0.0
C636 C 0.56141 0.96365 0.32757 0.0
H637 H 0.63589 0.96197 0.39713 0.0
H638 H 0.54469 0.92826 0.37405 0.0
S639 S 0.65605 0.04195 0.26996 0.0
N640 N 0.69312 0.04387 0.30335 0.0
N641 N 0.59609 1.00488 0.27784 0.0
C642 C 0.60444 0.99154 0.30883 0.0
C643 C 0.65758 0.01218 0.32252 0.0
C644 C 0.20714 0.17286 0.36243 0.0
C645 C 0.24389 0.2146 0.3765 0.0
C646 C 0.23066 0.12245 0.34752 0.0
C647 C 0.29147 0.11306 0.3458 0.0
H648 H 0.16035 0.17895 0.36311 0.0
H649 H 0.20135 0.09157 0.33662 0.0
S650 S 0.40609 0.2088 0.37815 0.0
N651 N 0.34446 0.24208 0.38713 0.0
N652 N 0.38707 0.14894 0.35936 0.0
C653 C 0.32801 0.15416 0.35979 0.0
C654 C 0.30466 0.20447 0.375 0.0
C655 C 0.05875 0.97168 0.09433 0.0
C656 C 0.04754 0.98269 0.12646 0.0
C657 C 0.11004 0.99197 0.07988 0.0
C658 C 0.15183 0.02309 0.09718 0.0
H659 H 0.02562 0.9521 0.07963 0.0
H660 H 0.11496 0.98723 0.05455 0.0
S661 S 0.14528 0.05837 0.18238 0.0
N662 N 0.08563 0.02051 0.17583 0.0
N663 N 0.17948 0.06186 0.14805 0.0
C664 C 0.14311 0.03028 0.12967 0.0
C665 C 0.09163 0.00893 0.1445 0.0
C666 C 0.21672 0.90644 0.87398 0.0
C667 C 0.23767 0.91851 0.84357 0.0
C668 C 0.23075 0.85423 0.88938 0.0
C669 C 0.26513 0.81092 0.87463 0.0
H670 H 0.18441 0.93479 0.88466 0.0
H671 H 0.21048 0.84599 0.9121 0.0
S672 S 0.33911 0.82649 0.79714 0.0
N673 N 0.30073 0.8873 0.80077 0.0
N674 N 0.32725 0.78817 0.8297 0.0
C675 C 0.29108 0.82497 0.84545 0.0
C676 C 0.27677 0.87874 0.82976 0.0
C677 C 0.43882 0.06007 0.60755 0.0
C678 C 0.45658 0.04646 0.63845 0.0
C679 C 0.38609 0.03793 0.5954 0.0
C680 C 0.34984 1.00084 0.61353 0.0
H681 H 0.46884 0.08149 0.59151 0.0
H682 H 0.37716 0.04417 0.57048 0.0
S683 S 0.37593 0.95684 0.69667 0.0
N684 N 0.43009 1.00134 0.68829 0.0
N685 N 0.33609 0.95395 0.6643 0.0
C686 C 0.36512 0.99151 0.6452 0.0
C687 C 0.41691 0.01642 0.658 0.0
C688 C 0.2859 0.04184 0.95022 0.0
C689 C 0.30801 0.09576 0.96008 0.0
C690 C 0.25731 0.03749 0.92122 0.0
C691 C 0.25304 0.08623 0.90131 0.0
H692 H 0.28147 0.00626 0.96701 0.0
H693 H 0.23237 0.9987 0.91651 0.0
S694 S 0.32057 0.23093 0.91272 0.0
N695 N 0.33558 0.19425 0.94541 0.0
N696 N 0.2847 0.18516 0.88989 0.0
C697 C 0.28475 0.13661 0.90848 0.0
C698 C 0.31253 0.14138 0.93819 0.0
C699 C 0.71098 0.496 0.16871 0.0
C700 C 0.67799 0.52421 0.14541 0.0
C701 C 0.70638 0.51235 0.2004 0.0
C702 C 0.66721 0.55626 0.20968 0.0
H703 H 0.73324 0.45586 0.16325 0.0
H704 H 0.72768 0.4854 0.21808 0.0
S705 S 0.57629 0.64803 0.15706 0.0
N706 N 0.61169 0.6038 0.13295 0.0
N707 N 0.59877 0.6311 0.19303 0.0
C708 C 0.63806 0.58845 0.18637 0.0
C709 C 0.6447 0.57331 0.15398 0.0
C710 C 0.21359 0.96561 0.44583 0.0
C711 C 0.23567 0.92125 0.46547 0.0
C712 C 0.22643 0.96563 0.41322 0.0
C713 C 0.26122 0.92126 0.39982 0.0
H714 H 0.18904 1.00152 0.45586 0.0
H715 H 0.21016 1.00094 0.39856 0.0
S716 S 0.32877 0.79592 0.44185 0.0
N717 N 0.29083 0.83052 0.46907 0.0
N718 N 0.31845 0.83377 0.40916 0.0
C719 C 0.28205 0.87649 0.41937 0.0
C720 C 0.26805 0.87554 0.45188 0.0
C721 C 0.81435 0.4604 0.66298 0.0
C722 C 0.8623 0.48987 0.64964 0.0
C723 C 0.81253 0.44747 0.69557 0.0
C724 C 0.85852 0.4642 0.71536 0.0
H725 H 0.77709 0.44985 0.64845 0.0
H726 H 0.77345 0.42851 0.7056 0.0
S727 S 0.99248 0.54393 0.69233 0.0
N728 N 0.95608 0.53588 0.65909 0.0
N729 N 0.95317 0.51055 0.71954 0.0
C730 C 0.90772 0.49095 0.70191 0.0
C731 C 0.90942 0.50434 0.66922 0.0
C732 C 0.79189 0.96711 0.0316 0.0
C733 C 0.74955 0.95377 0.05426 0.0
C734 C 0.77696 0.97069 -0.00015 0.0
C735 C 0.71983 0.95788 -0.01012 0.0
H736 H 0.83758 0.96858 0.03801 0.0
H737 H 0.81199 0.97579 -0.01716 0.0
S738 S 0.59156 0.94034 0.04197 0.0
N739 N 0.64727 0.94349 0.06641 0.0
N740 N 0.61889 0.94737 0.00597 0.0
C741 C 0.67596 0.95405 0.01283 0.0
C742 C 0.69117 0.95188 0.04538 0.0
C743 C 0.37681 0.45486 0.80473 0.0
C744 C 0.33158 0.49442 0.81204 0.0
C745 C 0.38369 0.43373 0.77394 0.0
C746 C 0.3443 0.45018 0.75022 0.0
H747 H 0.41157 0.44709 0.82156 0.0
H748 H 0.42328 0.41033 0.76791 0.0
S749 S 0.21393 0.54339 0.75888 0.0
N750 N 0.24423 0.54284 0.79418 0.0
N751 N 0.25446 0.4999 0.7369 0.0
C752 C 0.29454 0.48205 0.7585 0.0
C753 C 0.28855 0.50476 0.7895 0.0
C754 C 0.77769 0.04011 0.55203 0.0
C755 C 0.78406 0.09177 0.5695 0.0
C756 C 0.77957 0.04091 0.51891 0.0
C757 C 0.78787 0.09358 0.50263 0.0
H758 H 0.76737 0.99978 0.56381 0.0
H759 H 0.7703 1.00122 0.50605 0.0
S760 S 0.81225 0.23994 0.53629 0.0
N761 N 0.80437 0.19653 0.56718 0.0
N762 N 0.80721 0.19713 0.50521 0.0
C763 C 0.79916 0.14443 0.51949 0.0
C764 C 0.79766 0.1438 0.55298 0.0
C765 C 0.17897 0.58051 0.29438 0.0
C766 C 0.201 0.52766 0.30669 0.0
C767 C 0.1832 0.59321 0.26203 0.0
C768 C 0.20961 0.55321 0.24148 0.0
H769 H 0.15182 0.60832 0.30897 0.0
H770 H 0.15807 0.62941 0.25267 0.0
S771 S 0.28314 0.41478 0.26247 0.0
N772 N 0.25648 0.43931 0.29618 0.0
N773 N 0.26782 0.46546 0.23595 0.0
C774 C 0.24038 0.50574 0.25432 0.0
C775 C 0.23485 0.49196 0.28695 0.0
C776 C 0.75938 0.64302 0.42557 0.0
C777 C 0.75096 0.59314 0.40666 0.0
C778 C 0.7742 0.6383 0.45718 0.0
C779 C 0.78068 0.58362 0.47138 0.0
H780 H 0.75259 0.68667 0.41627 0.0
H781 H 0.77726 0.67784 0.47109 0.0
S782 S 0.76941 0.43974 0.43289 0.0
N783 N 0.75514 0.48727 0.40441 0.0
N784 N 0.78129 0.47858 0.46503 0.0
C785 C 0.77439 0.53327 0.45314 0.0
C786 C 0.75977 0.538 0.42045 0.0
C787 C 0.16273 0.08168 0.65842 0.0
C788 C 0.18503 0.0252 0.65299 0.0
C789 C 0.15463 0.10213 0.68931 0.0
C790 C 0.17081 0.0671 0.71501 0.0
H791 H 0.14435 0.10666 0.63904 0.0
H792 H 0.12982 0.14183 0.69306 0.0
S793 S 0.23063 0.91744 0.7135 0.0
N794 N 0.2202 0.93479 0.67604 0.0
N795 N 0.21523 0.97714 0.73349 0.0
C796 C 0.20068 0.01443 0.7096 0.0
C797 C 0.20493 0.99203 0.67858 0.0
C798 C 0.72146 0.44197 0.91159 0.0
C799 C 0.77032 0.41073 0.90077 0.0
C800 C 0.70635 0.44183 0.94376 0.0
C801 C 0.74021 0.41105 0.96599 0.0
H802 H 0.69493 0.46668 0.89512 0.0
H803 H 0.66859 0.46664 0.95129 0.0
S804 S 0.87394 0.32432 0.94945 0.0
N805 N 0.8538 0.35059 0.91484 0.0
N806 N 0.8246 0.34817 0.97467 0.0
C807 C 0.789 0.37943 0.95524 0.0
C808 C 0.80433 0.37985 0.92274 0.0
C809 C 0.29061 0.99882 0.20928 0.0
C810 C 0.32341 0.94758 0.21376 0.0
C811 C 0.29008 0.02707 0.18002 0.0
C812 C 0.3162 1.00164 0.15352 0.0
H813 H 0.27408 0.02254 0.22957 0.0
H814 H 0.27477 0.07179 0.17902 0.0
S815 S 0.40109 0.86442 0.15171 0.0
N816 N 0.38129 0.8716 0.18907 0.0
N817 N 0.37146 0.92013 0.13268 0.0
C818 C 0.34276 0.9468 0.15678 0.0
C819 C 0.34762 0.92026 0.18719 0.0
C820 C 0.25329 0.48028 0.54305 0.0
C821 C 0.22564 0.43914 0.56247 0.0
C822 C 0.24244 0.48261 0.51049 0.0
C823 C 0.20496 0.44225 0.49615 0.0
H824 H 0.28851 0.50557 0.55223 0.0
H825 H 0.26857 0.51159 0.49599 0.0
S826 S 0.12089 0.32591 0.53633 0.0
N827 N 0.15229 0.36222 0.56519 0.0
N828 N 0.14236 0.35834 0.50349 0.0
C829 C 0.17499 0.40258 0.51533 0.0
C830 C 0.18232 0.40349 0.54868 0.0
C831 C 0.89305 0.04477 0.28504 0.0
C832 C 0.85596 0.01952 0.30745 0.0
C833 C 0.88892 0.02959 0.25353 0.0
C834 C 0.847 0.98933 0.24328 0.0
H835 H 0.92516 0.07693 0.29187 0.0
H836 H 0.91768 0.05113 0.23681 0.0
S837 S 0.75018 0.90073 0.29417 0.0
N838 N 0.78439 0.94451 0.31889 0.0
N839 N 0.77422 0.91761 0.25841 0.0
C840 C 0.81269 0.96028 0.26569 0.0
C841 C 0.81753 0.97539 0.2982 0.0
C842 C 0.22027 0.55766 0.02934 0.0
C843 C 0.25813 0.57264 0.05389 0.0
C844 C 0.23896 0.56032 -0.00203 0.0
C845 C 0.29599 0.57827 -0.00985 0.0
H846 H 0.1744 0.5505 0.03407 0.0
H847 H 0.20684 0.55362 -0.02042 0.0
S848 S 0.41343 0.61225 0.0466 0.0
N849 N 0.35649 0.59747 0.06911 0.0
N850 N 0.39142 0.604 0.00976 0.0
C851 C 0.33567 0.58707 0.01463 0.0
C852 C 0.31664 0.58392 0.04669 0.0
C853 C 0.63271 0.97378 0.79835 0.0
C854 C 0.65757 0.01285 0.81934 0.0
C855 C 0.63529 0.98387 0.76623 0.0
C856 C 0.66313 0.03366 0.75321 0.0
H857 H 0.61214 0.9341 0.80671 0.0
H858 H 0.6148 0.95105 0.75169 0.0
S859 S 0.73585 0.14898 0.7998 0.0
N860 N 0.71086 0.10283 0.82661 0.0
N861 N 0.71692 0.12233 0.76501 0.0
C862 C 0.68839 0.07349 0.77425 0.0
C863 C 0.6854 0.06285 0.80759 0.0
loop_
_geom_bond_atom_site_label_1
_geom_bond_atom_site_label_2
_geom_bond_distance
_geom_bond_site_symmetry_2
_ccdc_geom_bond_type
Zn0 O6 1.920 . S
Zn0 O12 1.898 . S
Zn0 O15 1.905 . S
Zn1 O9 1.905 . S
Zn1 O10 1.898 . S
Zn1 O18 1.920 . S
Zn2 O5 2.080 . S
Zn2 O8 2.114 . S
Zn2 O11 2.120 . S
Zn2 O13 2.120 . S
Zn2 O14 2.114 . S
Zn2 O17 2.080 . S
C3 O8 1.166 . S
C3 O9 1.182 . S
C4 O10 1.167 . S
C4 O11 1.299 . S
O5 Zn2 2.080 . S
O5 C19 1.305 . S
O6 Zn0 1.920 . S
O6 C19 1.234 . S
C7 O12 1.167 . S
C7 O13 1.299 . S
O8 Zn2 2.114 . S
O8 C3 1.166 . S
O9 Zn1 1.905 . S
O9 C3 1.182 . S
O10 Zn1 1.898 . S
O10 C4 1.167 . S
O11 Zn2 2.120 . S
O11 C4 1.299 . S
O12 Zn0 1.898 . S
O12 C7 1.167 . S
O13 Zn2 2.120 . S
O13 C7 1.299 . S
O14 Zn2 2.114 . S
O14 C16 1.166 . S
O15 Zn0 1.905 . S
O15 C16 1.182 . S
C16 O14 1.166 . S
C16 O15 1.182 . S
O17 Zn2 2.080 . S
O17 C20 1.305 . S
O18 Zn1 1.920 . S
O18 C20 1.234 . S
C19 O5 1.305 . S
C19 O6 1.234 . S
C20 O17 1.305 . S
C20 O18 1.234 . S
Zn21 O27 1.920 . S
Zn21 O33 1.898 . S
Zn21 O36 1.905 . S
Zn22 O30 1.905 . S
Zn22 O31 1.898 . S
Zn22 O39 1.920 . S
Zn23 O26 2.080 . S
Zn23 O29 2.114 . S
Zn23 O32 2.120 . S
Zn23 O34 2.120 . S
Zn23 O35 2.114 . S
Zn23 O38 2.080 . S
C24 O29 1.166 . S
C24 O30 1.182 . S
C25 O31 1.167 . S
C25 O32 1.299 . S
O26 Zn23 2.080 . S
O26 C40 1.305 . S
O27 Zn21 1.920 . S
O27 C40 1.234 . S
C28 O33 1.167 . S
C28 O34 1.299 . S
O29 Zn23 2.114 . S
O29 C24 1.166 . S
O30 Zn22 1.905 . S
O30 C24 1.182 . S
O31 Zn22 1.898 . S
O31 C25 1.167 . S
O32 Zn23 2.120 . S
O32 C25 1.299 . S
O33 Zn21 1.898 . S
O33 C28 1.167 . S
O34 Zn23 2.120 . S
O34 C28 1.299 . S
O35 Zn23 2.114 . S
O35 C37 1.166 . S
O36 Zn21 1.905 . S
O36 C37 1.182 . S
C37 O35 1.166 . S
C37 O36 1.182 . S
O38 Zn23 2.080 . S
O38 C41 1.305 . S
O39 Zn22 1.920 . S
O39 C41 1.234 . S
C40 O26 1.305 . S
C40 O27 1.234 . S
C41 O38 1.305 . S
C41 O39 1.234 . S
Zn42 O48 1.920 . S
Zn42 O54 1.898 . S
Zn42 O57 1.905 . S
Zn43 O51 1.905 . S
Zn43 O52 1.898 . S
Zn43 O60 1.920 . S
Zn44 O47 2.080 . S
Zn44 O50 2.114 . S
Zn44 O53 2.120 . S
Zn44 O55 2.120 . S
Zn44 O56 2.114 . S
Zn44 O59 2.080 . S
C45 O50 1.166 . S
C45 O51 1.182 . S
C46 O52 1.167 . S
C46 O53 1.299 . S
O47 Zn44 2.080 . S
O47 C61 1.305 . S
O48 Zn42 1.920 . S
O48 C61 1.234 . S
C49 O54 1.167 . S
C49 O55 1.299 . S
O50 Zn44 2.114 . S
O50 C45 1.166 . S
O51 Zn43 1.905 . S
O51 C45 1.182 . S
O52 Zn43 1.898 . S
O52 C46 1.167 . S
O53 Zn44 2.120 . S
O53 C46 1.299 . S
O54 Zn42 1.898 . S
O54 C49 1.167 . S
O55 Zn44 2.120 . S
O55 C49 1.299 . S
O56 Zn44 2.114 . S
O56 C58 1.166 . S
O57 Zn42 1.905 . S
O57 C58 1.182 . S
C58 O56 1.166 . S
C58 O57 1.182 . S
O59 Zn44 2.080 . S
O59 C62 1.305 . S
O60 Zn43 1.920 . S
O60 C62 1.234 . S
C61 O47 1.305 . S
C61 O48 1.234 . S
C62 O59 1.305 . S
C62 O60 1.234 . S
Zn63 O69 1.920 . S
Zn63 O75 1.898 . S
Zn63 O78 1.905 . S
Zn64 O72 1.905 . S
Zn64 O73 1.898 . S
Zn64 O81 1.920 . S
Zn65 O68 2.080 . S
Zn65 O71 2.114 . S
Zn65 O74 2.120 . S
Zn65 O76 2.120 . S
Zn65 O77 2.114 . S
Zn65 O80 2.080 . S
C66 O71 1.166 . S
C66 O72 1.182 . S
C67 O73 1.167 . S
C67 O74 1.299 . S
O68 Zn65 2.080 . S
O68 C82 1.305 . S
O69 Zn63 1.920 . S
O69 C82 1.234 . S
C70 O75 1.167 . S
C70 O76 1.299 . S
O71 Zn65 2.114 . S
O71 C66 1.166 . S
O72 Zn64 1.905 . S
O72 C66 1.182 . S
O73 Zn64 1.898 . S
O73 C67 1.167 . S
O74 Zn65 2.120 . S
O74 C67 1.299 . S
O75 Zn63 1.898 . S
O75 C70 1.167 . S
O76 Zn65 2.120 . S
O76 C70 1.299 . S
O77 Zn65 2.114 . S
O77 C79 1.166 . S
O78 Zn63 1.905 . S
O78 C79 1.182 . S
C79 O77 1.166 . S
C79 O78 1.182 . S
O80 Zn65 2.080 . S
O80 C83 1.305 . S
O81 Zn64 1.920 . S
O81 C83 1.234 . S
C82 O68 1.305 . S
C82 O69 1.234 . S
C83 O80 1.305 . S
C83 O81 1.234 . S
Zn84 O90 1.920 . S
Zn84 O96 1.898 . S
Zn84 O99 1.905 . S
Zn85 O93 1.905 . S
Zn85 O94 1.898 . S
Zn85 O102 1.920 . S
Zn86 O89 2.080 . S
Zn86 O92 2.114 . S
Zn86 O95 2.120 . S
Zn86 O97 2.120 . S
Zn86 O98 2.114 . S
Zn86 O101 2.080 . S
C87 O92 1.166 . S
C87 O93 1.182 . S
C88 O94 1.167 . S
C88 O95 1.299 . S
O89 Zn86 2.080 . S
O89 C103 1.305 . S
O90 Zn84 1.920 . S
O90 C103 1.234 . S
C91 O96 1.167 . S
C91 O97 1.299 . S
O92 Zn86 2.114 . S
O92 C87 1.166 . S
O93 Zn85 1.905 . S
O93 C87 1.182 . S
O94 Zn85 1.898 . S
O94 C88 1.167 . S
O95 Zn86 2.120 . S
O95 C88 1.299 . S
O96 Zn84 1.898 . S
O96 C91 1.167 . S
O97 Zn86 2.120 . S
O97 C91 1.299 . S
O98 Zn86 2.114 . S
O98 C100 1.166 . S
O99 Zn84 1.905 . S
O99 C100 1.182 . S
C100 O98 1.166 . S
C100 O99 1.182 . S
O101 Zn86 2.080 . S
O101 C104 1.305 . S
O102 Zn85 1.920 . S
O102 C104 1.234 . S
C103 O89 1.305 . S
C103 O90 1.234 . S
C104 O101 1.305 . S
C104 O102 1.234 . S
Zn105 O111 1.920 . S
Zn105 O117 1.898 . S
Zn105 O120 1.905 . S
Zn106 O114 1.905 . S
Zn106 O115 1.898 . S
Zn106 O123 1.920 . S
Zn107 O110 2.080 . S
Zn107 O113 2.114 . S
Zn107 O116 2.120 . S
Zn107 O118 2.120 . S
Zn107 O119 2.114 . S
Zn107 O122 2.080 . S
C108 O113 1.166 . S
C108 O114 1.182 . S
C109 O115 1.167 . S
C109 O116 1.299 . S
O110 Zn107 2.080 . S
O110 C124 1.305 . S
O111 Zn105 1.920 . S
O111 C124 1.234 . S
C112 O117 1.167 . S
C112 O118 1.299 . S
O113 Zn107 2.114 . S
O113 C108 1.166 . S
O114 Zn106 1.905 . S
O114 C108 1.182 . S
O115 Zn106 1.898 . S
O115 C109 1.167 . S
O116 Zn107 2.120 . S
O116 C109 1.299 . S
O117 Zn105 1.898 . S
O117 C112 1.167 . S
O118 Zn107 2.120 . S
O118 C112 1.299 . S
O119 Zn107 2.114 . S
O119 C121 1.166 . S
O120 Zn105 1.905 . S
O120 C121 1.182 . S
C121 O119 1.166 . S
C121 O120 1.182 . S
O122 Zn107 2.080 . S
O122 C125 1.305 . S
O123 Zn106 1.920 . S
O123 C125 1.234 . S
C124 O110 1.305 . S
C124 O111 1.234 . S
C125 O122 1.305 . S
C125 O123 1.234 . S
Zn126 O132 1.920 . S
Zn126 O138 1.898 . S
Zn126 O141 1.905 . S
Zn127 O135 1.905 . S
Zn127 O136 1.898 . S
Zn127 O144 1.920 . S
Zn128 O131 2.080 . S
Zn128 O134 2.114 . S
Zn128 O137 2.120 . S
Zn128 O139 2.120 . S
Zn128 O140 2.114 . S
Zn128 O143 2.080 . S
C129 O134 1.166 . S
C129 O135 1.182 . S
C130 O136 1.167 . S
C130 O137 1.299 . S
O131 Zn128 2.080 . S
O131 C145 1.305 . S
O132 Zn126 1.920 . S
O132 C145 1.234 . S
C133 O138 1.167 . S
C133 O139 1.299 . S
O134 Zn128 2.114 . S
O134 C129 1.166 . S
O135 Zn127 1.905 . S
O135 C129 1.182 . S
O136 Zn127 1.898 . S
O136 C130 1.167 . S
O137 Zn128 2.120 . S
O137 C130 1.299 . S
O138 Zn126 1.898 . S
O138 C133 1.167 . S
O139 Zn128 2.120 . S
O139 C133 1.299 . S
O140 Zn128 2.114 . S
O140 C142 1.166 . S
O141 Zn126 1.905 . S
O141 C142 1.182 . S
C142 O140 1.166 . S
C142 O141 1.182 . S
O143 Zn128 2.080 . S
O143 C146 1.305 . S
O144 Zn127 1.920 . S
O144 C146 1.234 . S
C145 O131 1.305 . S
C145 O132 1.234 . S
C146 O143 1.305 . S
C146 O144 1.234 . S
Zn147 O153 1.920 . S
Zn147 O159 1.898 . S
Zn147 O162 1.905 . S
Zn148 O156 1.905 . S
Zn148 O157 1.898 . S
Zn148 O165 1.920 . S
Zn149 O152 2.080 . S
Zn149 O155 2.114 . S
Zn149 O158 2.120 . S
Zn149 O160 2.120 . S
Zn149 O161 2.114 . S
Zn149 O164 2.080 . S
C150 O155 1.166 . S
C150 O156 1.182 . S
C151 O157 1.167 . S
C151 O158 1.299 . S
O152 Zn149 2.080 . S
O152 C166 1.305 . S
O153 Zn147 1.920 . S
O153 C166 1.234 . S
C154 O159 1.167 . S
C154 O160 1.299 . S
O155 Zn149 2.114 . S
O155 C150 1.166 . S
O156 Zn148 1.905 . S
O156 C150 1.182 . S
O157 Zn148 1.898 . S
O157 C151 1.167 . S
O158 Zn149 2.120 . S
O158 C151 1.299 . S
O159 Zn147 1.898 . S
O159 C154 1.167 . S
O160 Zn149 2.120 . S
O160 C154 1.299 . S
O161 Zn149 2.114 . S
O161 C163 1.166 . S
O162 Zn147 1.905 . S
O162 C163 1.182 . S
C163 O161 1.166 . S
C163 O162 1.182 . S
O164 Zn149 2.080 . S
O164 C167 1.305 . S
O165 Zn148 1.920 . S
O165 C167 1.234 . S
C166 O152 1.305 . S
C166 O153 1.234 . S
C167 O164 1.305 . S
C167 O165 1.234 . S
Zn168 O174 1.920 . S
Zn168 O180 1.898 . S
Zn168 O183 1.905 . S
Zn169 O177 1.905 . S
Zn169 O178 1.898 . S
Zn169 O186 1.920 . S
Zn170 O173 2.080 . S
Zn170 O176 2.114 . S
Zn170 O179 2.120 . S
Zn170 O181 2.120 . S
Zn170 O182 2.114 . S
Zn170 O185 2.080 . S
C171 O176 1.166 . S
C171 O177 1.182 . S
C172 O178 1.167 . S
C172 O179 1.299 . S
O173 Zn170 2.080 . S
O173 C187 1.305 . S
O174 Zn168 1.920 . S
O174 C187 1.234 . S
C175 O180 1.167 . S
C175 O181 1.299 . S
O176 Zn170 2.114 . S
O176 C171 1.166 . S
O177 Zn169 1.905 . S
O177 C171 1.182 . S
O178 Zn169 1.898 . S
O178 C172 1.167 . S
O179 Zn170 2.120 . S
O179 C172 1.299 . S
O180 Zn168 1.898 . S
O180 C175 1.167 . S
O181 Zn170 2.120 . S
O181 C175 1.299 . S
O182 Zn170 2.114 . S
O182 C184 1.166 . S
O183 Zn168 1.905 . S
O183 C184 1.182 . S
C184 O182 1.166 . S
C184 O183 1.182 . S
O185 Zn170 2.080 . S
O185 C188 1.305 . S
O186 Zn169 1.920 . S
O186 C188 1.234 . S
C187 O173 1.305 . S
C187 O174 1.234 . S
C188 O185 1.305 . S
C188 O186 1.234 . S
Zn189 O195 1.920 . S
Zn189 O201 1.898 . S
Zn189 O204 1.905 . S
Zn190 O198 1.905 . S
Zn190 O199 1.898 . S
Zn190 O207 1.920 . S
Zn191 O194 2.080 . S
Zn191 O197 2.114 . S
Zn191 O200 2.120 . S
Zn191 O202 2.120 . S
Zn191 O203 2.114 . S
Zn191 O206 2.080 . S
C192 O197 1.166 . S
C192 O198 1.182 . S
C193 O199 1.167 . S
C193 O200 1.299 . S
O194 Zn191 2.080 . S
O194 C208 1.305 1_545 S
O195 Zn189 1.920 . S
O195 C208 1.234 . S
C196 O201 1.167 1_545 S
C196 O202 1.299 . S
O197 Zn191 2.114 . S
O197 C192 1.166 . S
O198 Zn190 1.905 . S
O198 C192 1.182 . S
O199 Zn190 1.898 . S
O199 C193 1.167 . S
O200 Zn191 2.120 . S
O200 C193 1.299 . S
O201 Zn189 1.898 . S
O201 C196 1.167 1_565 S
O202 Zn191 2.120 . S
O202 C196 1.299 . S
O203 Zn191 2.114 . S
O203 C205 1.166 . S
O204 Zn189 1.905 . S
O204 C205 1.182 1_565 S
C205 O203 1.166 . S
C205 O204 1.182 1_545 S
O206 Zn191 2.080 . S
O206 C209 1.305 . S
O207 Zn190 1.920 . S
O207 C209 1.234 . S
C208 O194 1.305 1_565 S
C208 O195 1.234 . S
C209 O206 1.305 . S
C209 O207 1.234 . S
Zn210 O216 1.920 . S
Zn210 O222 1.898 . S
Zn210 O225 1.905 . S
Zn211 O219 1.905 . S
Zn211 O220 1.898 . S
Zn211 O228 1.920 . S
Zn212 O215 2.080 . S
Zn212 O218 2.114 . S
Zn212 O221 2.120 . S
Zn212 O223 2.120 . S
Zn212 O224 2.114 . S
Zn212 O227 2.080 . S
C213 O218 1.166 . S
C213 O219 1.182 . S
C214 O220 1.167 . S
C214 O221 1.299 . S
O215 Zn212 2.080 . S
O215 C229 1.305 . S
O216 Zn210 1.920 . S
O216 C229 1.234 . S
C217 O222 1.167 . S
C217 O223 1.299 . S
O218 Zn212 2.114 . S
O218 C213 1.166 . S
O219 Zn211 1.905 . S
O219 C213 1.182 . S
O220 Zn211 1.898 . S
O220 C214 1.167 . S
O221 Zn212 2.120 . S
O221 C214 1.299 . S
O222 Zn210 1.898 . S
O222 C217 1.167 . S
O223 Zn212 2.120 . S
O223 C217 1.299 . S
O224 Zn212 2.114 . S
O224 C226 1.166 . S
O225 Zn210 1.905 . S
O225 C226 1.182 . S
C226 O224 1.166 . S
C226 O225 1.182 . S
O227 Zn212 2.080 . S
O227 C230 1.305 . S
O228 Zn211 1.920 . S
O228 C230 1.234 . S
C229 O215 1.305 . S
C229 O216 1.234 . S
C230 O227 1.305 . S
C230 O228 1.234 . S
Zn231 O237 1.920 . S
Zn231 O243 1.898 . S
Zn231 O246 1.905 . S
Zn232 O240 1.905 . S
Zn232 O241 1.898 . S
Zn232 O249 1.920 . S
Zn233 O236 2.080 . S
Zn233 O239 2.114 . S
Zn233 O242 2.120 . S
Zn233 O244 2.120 . S
Zn233 O245 2.114 . S
Zn233 O248 2.080 . S
C234 O239 1.166 . S
C234 O240 1.182 . S
C235 O241 1.167 . S
C235 O242 1.299 . S
O236 Zn233 2.080 . S
O236 C250 1.305 1_565 S
O237 Zn231 1.920 . S
O237 C250 1.234 . S
C238 O243 1.167 1_565 S
C238 O244 1.299 . S
O239 Zn233 2.114 . S
O239 C234 1.166 . S
O240 Zn232 1.905 . S
O240 C234 1.182 . S
O241 Zn232 1.898 . S
O241 C235 1.167 . S
O242 Zn233 2.120 . S
O242 C235 1.299 . S
O243 Zn231 1.898 . S
O243 C238 1.167 1_545 S
O244 Zn233 2.120 . S
O244 C238 1.299 . S
O245 Zn233 2.114 . S
O245 C247 1.166 . S
O246 Zn231 1.905 . S
O246 C247 1.182 1_545 S
C247 O245 1.166 . S
C247 O246 1.182 1_565 S
O248 Zn233 2.080 . S
O248 C251 1.305 . S
O249 Zn232 1.920 . S
O249 C251 1.234 . S
C250 O236 1.305 1_545 S
C250 O237 1.234 . S
C251 O248 1.305 . S
C251 O249 1.234 . S
Zn252 O258 1.920 . S
Zn252 O264 1.898 . S
Zn252 O267 1.905 . S
Zn253 O261 1.905 . S
Zn253 O262 1.898 . S
Zn253 O270 1.920 . S
Zn254 O257 2.080 . S
Zn254 O260 2.114 . S
Zn254 O263 2.120 . S
Zn254 O265 2.120 . S
Zn254 O266 2.114 . S
Zn254 O269 2.080 . S
C255 O260 1.166 . S
C255 O261 1.182 . S
C256 O262 1.167 . S
C256 O263 1.299 . S
O257 Zn254 2.080 . S
O257 C271 1.305 . S
O258 Zn252 1.920 . S
O258 C271 1.234 . S
C259 O264 1.167 . S
C259 O265 1.299 . S
O260 Zn254 2.114 . S
O260 C255 1.166 . S
O261 Zn253 1.905 . S
O261 C255 1.182 . S
O262 Zn253 1.898 . S
O262 C256 1.167 . S
O263 Zn254 2.120 . S
O263 C256 1.299 . S
O264 Zn252 1.898 . S
O264 C259 1.167 . S
O265 Zn254 2.120 . S
O265 C259 1.299 . S
O266 Zn254 2.114 . S
O266 C268 1.166 . S
O267 Zn252 1.905 . S
O267 C268 1.182 . S
C268 O266 1.166 . S
C268 O267 1.182 . S
O269 Zn254 2.080 . S
O269 C272 1.305 . S
O270 Zn253 1.920 . S
O270 C272 1.234 . S
C271 O257 1.305 . S
C271 O258 1.234 . S
C272 O269 1.305 . S
C272 O270 1.234 . S
Zn273 O279 1.920 . S
Zn273 O285 1.898 . S
Zn273 O288 1.905 . S
Zn274 O282 1.905 . S
Zn274 O283 1.898 . S
Zn274 O291 1.920 . S
Zn275 O278 2.080 . S
Zn275 O281 2.114 . S
Zn275 O284 2.120 . S
Zn275 O286 2.120 . S
Zn275 O287 2.114 . S
Zn275 O290 2.080 . S
C276 O281 1.166 . S
C276 O282 1.182 . S
C277 O283 1.167 . S
C277 O284 1.299 . S
O278 Zn275 2.080 . S
O278 C292 1.305 1_565 S
O279 Zn273 1.920 . S
O279 C292 1.234 . S
C280 O285 1.167 1_565 S
C280 O286 1.299 . S
O281 Zn275 2.114 . S
O281 C276 1.166 . S
O282 Zn274 1.905 . S
O282 C276 1.182 . S
O283 Zn274 1.898 . S
O283 C277 1.167 . S
O284 Zn275 2.120 . S
O284 C277 1.299 . S
O285 Zn273 1.898 . S
O285 C280 1.167 1_545 S
O286 Zn275 2.120 . S
O286 C280 1.299 . S
O287 Zn275 2.114 . S
O287 C289 1.166 . S
O288 Zn273 1.905 . S
O288 C289 1.182 1_545 S
C289 O287 1.166 . S
C289 O288 1.182 1_565 S
O290 Zn275 2.080 . S
O290 C293 1.305 . S
O291 Zn274 1.920 . S
O291 C293 1.234 . S
C292 O278 1.305 1_545 S
C292 O279 1.234 . S
C293 O290 1.305 . S
C293 O291 1.234 . S
Zn294 O300 1.920 . S
Zn294 O306 1.898 . S
Zn294 O309 1.905 . S
Zn295 O303 1.905 . S
Zn295 O304 1.898 . S
Zn295 O312 1.920 . S
Zn296 O299 2.080 . S
Zn296 O302 2.114 . S
Zn296 O305 2.120 . S
Zn296 O307 2.120 . S
Zn296 O308 2.114 . S
Zn296 O311 2.080 . S
C297 O302 1.166 . S
C297 O303 1.182 . S
C298 O304 1.167 . S
C298 O305 1.299 . S
O299 Zn296 2.080 . S
O299 C313 1.305 . S
O300 Zn294 1.920 . S
O300 C313 1.234 . S
C301 O306 1.167 . S
C301 O307 1.299 . S
O302 Zn296 2.114 . S
O302 C297 1.166 . S
O303 Zn295 1.905 . S
O303 C297 1.182 . S
O304 Zn295 1.898 . S
O304 C298 1.167 . S
O305 Zn296 2.120 . S
O305 C298 1.299 . S
O306 Zn294 1.898 . S
O306 C301 1.167 . S
O307 Zn296 2.120 . S
O307 C301 1.299 . S
O308 Zn296 2.114 . S
O308 C310 1.166 . S
O309 Zn294 1.905 . S
O309 C310 1.182 . S
C310 O308 1.166 . S
C310 O309 1.182 . S
O311 Zn296 2.080 . S
O311 C314 1.305 . S
O312 Zn295 1.920 . S
O312 C314 1.234 . S
C313 O299 1.305 . S
C313 O300 1.234 . S
C314 O311 1.305 . S
C314 O312 1.234 . S
Zn315 O321 1.920 . S
Zn315 O327 1.898 . S
Zn315 O330 1.905 . S
Zn316 O324 1.905 . S
Zn316 O325 1.898 . S
Zn316 O333 1.920 . S
Zn317 O320 2.080 . S
Zn317 O323 2.114 . S
Zn317 O326 2.120 . S
Zn317 O328 2.120 . S
Zn317 O329 2.114 . S
Zn317 O332 2.080 . S
C318 O323 1.166 . S
C318 O324 1.182 . S
C319 O325 1.167 . S
C319 O326 1.299 . S
O320 Zn317 2.080 . S
O320 C334 1.305 1_545 S
O321 Zn315 1.920 . S
O321 C334 1.234 . S
C322 O327 1.167 1_545 S
C322 O328 1.299 . S
O323 Zn317 2.114 . S
O323 C318 1.166 . S
O324 Zn316 1.905 . S
O324 C318 1.182 . S
O325 Zn316 1.898 . S
O325 C319 1.167 . S
O326 Zn317 2.120 . S
O326 C319 1.299 . S
O327 Zn315 1.898 . S
O327 C322 1.167 1_565 S
O328 Zn317 2.120 . S
O328 C322 1.299 . S
O329 Zn317 2.114 . S
O329 C331 1.166 . S
O330 Zn315 1.905 . S
O330 C331 1.182 1_565 S
C331 O329 1.166 . S
C331 O330 1.182 1_545 S
O332 Zn317 2.080 . S
O332 C335 1.305 . S
O333 Zn316 1.920 . S
O333 C335 1.234 . S
C334 O320 1.305 1_565 S
C334 O321 1.234 . S
C335 O332 1.305 . S
C335 O333 1.234 . S
C336 C337 1.369 . S
C336 C338 1.419 . S
C336 H340 0.930 . S
C337 C336 1.369 . S
C337 C346 1.429 . S
C338 C336 1.419 . S
C338 C339 1.363 . S
C338 H341 0.929 . S
C339 C338 1.363 . S
C339 C345 1.428 . S
H340 C336 0.930 . S
H341 C338 0.929 . S
S342 N343 1.613 . S
S342 N344 1.610 . S
N343 S342 1.613 . S
N343 C346 1.350 . S
N344 S342 1.610 . S
N344 C345 1.351 . S
C345 C339 1.428 . S
C345 N344 1.351 . S
C345 C346 1.434 . S
C346 C337 1.429 . S
C346 N343 1.350 . S
C346 C345 1.434 . S
C347 C348 1.369 . S
C347 C349 1.419 . S
C347 H351 0.930 . S
C348 C347 1.369 . S
C348 C357 1.429 . S
C349 C347 1.419 . S
C349 C350 1.363 . S
C349 H352 0.929 . S
C350 C349 1.363 . S
C350 C356 1.428 . S
H351 C347 0.930 . S
H352 C349 0.929 . S
S353 N354 1.613 . S
S353 N355 1.610 . S
N354 S353 1.613 . S
N354 C357 1.350 . S
N355 S353 1.610 . S
N355 C356 1.351 . S
C356 C350 1.428 . S
C356 N355 1.351 . S
C356 C357 1.434 . S
C357 C348 1.429 . S
C357 N354 1.350 . S
C357 C356 1.434 . S
C358 C359 1.369 . S
C358 C360 1.419 1_455 S
C358 H362 0.930 . S
C359 C358 1.369 . S
C359 C368 1.429 . S
C360 C358 1.419 1_655 S
C360 C361 1.363 . S
C360 H363 0.929 . S
C361 C360 1.363 . S
C361 C367 1.428 . S
H362 C358 0.930 . S
H363 C360 0.929 . S
S364 N365 1.613 . S
S364 N366 1.610 . S
N365 S364 1.613 . S
N365 C368 1.350 . S
N366 S364 1.610 . S
N366 C367 1.351 1_455 S
C367 C361 1.428 . S
C367 N366 1.351 1_655 S
C367 C368 1.434 1_655 S
C368 C359 1.429 . S
C368 N365 1.350 . S
C368 C367 1.434 1_455 S
C369 C370 1.369 1_655 S
C369 C371 1.419 . S
C369 H373 0.930 . S
C370 C369 1.369 1_455 S
C370 C379 1.429 . S
C371 C369 1.419 . S
C371 C372 1.363 . S
C371 H374 0.929 . S
C372 C371 1.363 . S
C372 C378 1.428 1_655 S
H373 C369 0.930 . S
H374 C371 0.929 . S
S375 N376 1.613 . S
S375 N377 1.610 . S
N376 S375 1.613 . S
N376 C379 1.350 . S
N377 S375 1.610 . S
N377 C378 1.351 . S
C378 C372 1.428 1_455 S
C378 N377 1.351 . S
C378 C379 1.434 . S
C379 C370 1.429 . S
C379 N376 1.350 . S
C379 C378 1.434 . S
C380 C381 1.369 . S
C380 C382 1.419 . S
C380 H384 0.930 . S
C381 C380 1.369 . S
C381 C390 1.429 . S
C382 C380 1.419 . S
C382 C383 1.363 . S
C382 H385 0.929 . S
C383 C382 1.363 . S
C383 C389 1.428 . S
H384 C380 0.930 . S
H385 C382 0.929 . S
S386 N387 1.613 . S
S386 N388 1.610 . S
N387 S386 1.613 . S
N387 C390 1.350 . S
N388 S386 1.610 . S
N388 C389 1.351 . S
C389 C383 1.428 . S
C389 N388 1.351 . S
C389 C390 1.434 . S
C390 C381 1.429 . S
C390 N387 1.350 . S
C390 C389 1.434 . S
C391 C392 1.369 . S
C391 C393 1.419 . S
C391 H395 0.930 . S
C392 C391 1.369 . S
C392 C401 1.429 . S
C393 C391 1.419 . S
C393 C394 1.363 . S
C393 H396 0.929 . S
C394 C393 1.363 . S
C394 C400 1.428 . S
H395 C391 0.930 . S
H396 C393 0.929 . S
S397 N398 1.613 . S
S397 N399 1.610 . S
N398 S397 1.613 . S
N398 C401 1.350 . S
N399 S397 1.610 . S
N399 C400 1.351 . S
C400 C394 1.428 . S
C400 N399 1.351 . S
C400 C401 1.434 . S
C401 C392 1.429 . S
C401 N398 1.350 . S
C401 C400 1.434 . S
C402 C403 1.369 . S
C402 C404 1.419 1_455 S
C402 H406 0.930 . S
C403 C402 1.369 . S
C403 C412 1.429 . S
C404 C402 1.419 1_655 S
C404 C405 1.363 . S
C404 H407 0.929 . S
C405 C404 1.363 . S
C405 C411 1.428 . S
H406 C402 0.930 . S
H407 C404 0.929 . S
S408 N409 1.613 1_655 S
S408 N410 1.610 . S
N409 S408 1.613 1_455 S
N409 C412 1.350 . S
N410 S408 1.610 . S
N410 C411 1.351 . S
C411 C405 1.428 . S
C411 N410 1.351 . S
C411 C412 1.434 1_655 S
C412 C403 1.429 . S
C412 N409 1.350 . S
C412 C411 1.434 1_455 S
C413 C414 1.369 . S
C413 C415 1.419 . S
C413 H417 0.930 . S
C414 C413 1.369 . S
C414 C423 1.429 1_455 S
C415 C413 1.419 . S
C415 C416 1.363 1_455 S
C415 H418 0.929 . S
C416 C415 1.363 1_655 S
C416 C422 1.428 . S
H417 C413 0.930 . S
H418 C415 0.929 . S
S419 N420 1.613 . S
S419 N421 1.610 . S
N420 S419 1.613 . S
N420 C423 1.350 . S
N421 S419 1.610 . S
N421 C422 1.351 . S
C422 C416 1.428 . S
C422 N421 1.351 . S
C422 C423 1.434 . S
C423 C414 1.429 1_655 S
C423 N420 1.350 . S
C423 C422 1.434 . S
C424 C425 1.369 1_565 S
C424 C426 1.419 . S
C424 H428 0.930 . S
C425 C424 1.369 1_545 S
C425 C434 1.429 1_554 S
C426 C424 1.419 . S
C426 C427 1.363 1_554 S
C426 H429 0.929 . S
C427 C426 1.363 1_556 S
C427 C433 1.428 1_565 S
H428 C424 0.930 . S
H429 C426 0.929 . S
S430 N431 1.613 . S
S430 N432 1.610 . S
N431 S430 1.613 . S
N431 C434 1.350 . S
N432 S430 1.610 . S
N432 C433 1.351 . S
C433 C427 1.428 1_545 S
C433 N432 1.351 . S
C433 C434 1.434 . S
C434 C425 1.429 1_556 S
C434 N431 1.350 . S
C434 C433 1.434 . S
C435 C436 1.369 . S
C435 C437 1.419 . S
C435 H439 0.930 . S
C436 C435 1.369 . S
C436 C445 1.429 . S
C437 C435 1.419 . S
C437 C438 1.363 . S
C437 H440 0.929 . S
C438 C437 1.363 . S
C438 C444 1.428 . S
H439 C435 0.930 . S
H440 C437 0.929 . S
S441 N442 1.613 . S
S441 N443 1.610 . S
N442 S441 1.613 . S
N442 C445 1.350 . S
N443 S441 1.610 . S
N443 C444 1.351 . S
C444 C438 1.428 . S
C444 N443 1.351 . S
C444 C445 1.434 . S
C445 C436 1.429 . S
C445 N442 1.350 . S
C445 C444 1.434 . S
C446 C447 1.369 1_545 S
C446 C448 1.419 1_455 S
C446 H450 0.930 . S
C447 C446 1.369 1_565 S
C447 C456 1.429 . S
C448 C446 1.419 1_655 S
C448 C449 1.363 . S
C448 H451 0.929 . S
C449 C448 1.363 . S
C449 C455 1.428 1_545 S
H450 C446 0.930 . S
H451 C448 0.929 . S
S452 N453 1.613 1_655 S
S452 N454 1.610 . S
N453 S452 1.613 1_455 S
N453 C456 1.350 . S
N454 S452 1.610 . S
N454 C455 1.351 . S
C455 C449 1.428 1_565 S
C455 N454 1.351 . S
C455 C456 1.434 1_655 S
C456 C447 1.429 . S
C456 N453 1.350 . S
C456 C455 1.434 1_455 S
C457 C458 1.369 . S
C457 C459 1.419 . S
C457 H461 0.930 . S
C458 C457 1.369 . S
C458 C467 1.429 . S
C459 C457 1.419 . S
C459 C460 1.363 . S
C459 H462 0.929 . S
C460 C459 1.363 . S
C460 C466 1.428 . S
H461 C457 0.930 . S
H462 C459 0.929 . S
S463 N464 1.613 . S
S463 N465 1.610 . S
N464 S463 1.613 . S
N464 C467 1.350 . S
N465 S463 1.610 . S
N465 C466 1.351 . S
C466 C460 1.428 . S
C466 N465 1.351 . S
C466 C467 1.434 . S
C467 C458 1.429 . S
C467 N464 1.350 . S
C467 C466 1.434 . S
C468 C469 1.369 . S
C468 C470 1.419 . S
C468 H472 0.930 . S
C469 C468 1.369 . S
C469 C478 1.429 . S
C470 C468 1.419 . S
C470 C471 1.363 . S
C470 H473 0.929 . S
C471 C470 1.363 . S
C471 C477 1.428 . S
H472 C468 0.930 . S
H473 C470 0.929 . S
S474 N475 1.613 . S
S474 N476 1.610 . S
N475 S474 1.613 . S
N475 C478 1.350 . S
N476 S474 1.610 . S
N476 C477 1.351 . S
C477 C471 1.428 . S
C477 N476 1.351 . S
C477 C478 1.434 . S
C478 C469 1.429 . S
C478 N475 1.350 . S
C478 C477 1.434 . S
C479 C480 1.369 . S
C479 C481 1.419 . S
C479 H483 0.930 . S
C480 C479 1.369 . S
C480 C489 1.429 . S
C481 C479 1.419 . S
C481 C482 1.363 . S
C481 H484 0.929 . S
C482 C481 1.363 . S
C482 C488 1.428 . S
H483 C479 0.930 . S
H484 C481 0.929 . S
S485 N486 1.613 . S
S485 N487 1.610 . S
N486 S485 1.613 . S
N486 C489 1.350 . S
N487 S485 1.610 . S
N487 C488 1.351 . S
C488 C482 1.428 . S
C488 N487 1.351 . S
C488 C489 1.434 . S
C489 C480 1.429 . S
C489 N486 1.350 . S
C489 C488 1.434 . S
C490 C491 1.369 . S
C490 C492 1.419 . S
C490 H494 0.930 . S
C491 C490 1.369 . S
C491 C500 1.429 1_455 S
C492 C490 1.419 . S
C492 C493 1.363 1_455 S
C492 H495 0.929 . S
C493 C492 1.363 1_655 S
C493 C499 1.428 . S
H494 C490 0.930 . S
H495 C492 0.929 . S
S496 N497 1.613 . S
S496 N498 1.610 . S
N497 S496 1.613 . S
N497 C500 1.350 . S
N498 S496 1.610 . S
N498 C499 1.351 . S
C499 C493 1.428 . S
C499 N498 1.351 . S
C499 C500 1.434 . S
C500 C491 1.429 1_655 S
C500 N497 1.350 . S
C500 C499 1.434 . S
C501 C502 1.369 . S
C501 C503 1.419 . S
C501 H505 0.930 . S
C502 C501 1.369 . S
C502 C511 1.429 1_554 S
C503 C501 1.419 . S
C503 C504 1.363 1_554 S
C503 H506 0.929 . S
C504 C503 1.363 1_556 S
C504 C510 1.428 . S
H505 C501 0.930 . S
H506 C503 0.929 . S
S507 N508 1.613 . S
S507 N509 1.610 . S
N508 S507 1.613 . S
N508 C511 1.350 . S
N509 S507 1.610 . S
N509 C510 1.351 . S
C510 C504 1.428 . S
C510 N509 1.351 . S
C510 C511 1.434 . S
C511 C502 1.429 1_556 S
C511 N508 1.350 . S
C511 C510 1.434 . S
C512 C513 1.369 . S
C512 C514 1.419 . S
C512 H516 0.930 . S
C513 C512 1.369 . S
C513 C522 1.429 . S
C514 C512 1.419 . S
C514 C515 1.363 . S
C514 H517 0.929 . S
C515 C514 1.363 . S
C515 C521 1.428 . S
H516 C512 0.930 . S
H517 C514 0.929 . S
S518 N519 1.613 . S
S518 N520 1.610 . S
N519 S518 1.613 . S
N519 C522 1.350 . S
N520 S518 1.610 . S
N520 C521 1.351 . S
C521 C515 1.428 . S
C521 N520 1.351 . S
C521 C522 1.434 . S
C522 C513 1.429 . S
C522 N519 1.350 . S
C522 C521 1.434 . S
C523 C524 1.369 . S
C523 C525 1.419 . S
C523 H527 0.930 . S
C524 C523 1.369 . S
C524 C533 1.429 . S
C525 C523 1.419 . S
C525 C526 1.363 . S
C525 H528 0.929 . S
C526 C525 1.363 . S
C526 C532 1.428 . S
H527 C523 0.930 . S
H528 C525 0.929 . S
S529 N530 1.613 . S
S529 N531 1.610 . S
N530 S529 1.613 . S
N530 C533 1.350 . S
N531 S529 1.610 . S
N531 C532 1.351 . S
C532 C526 1.428 . S
C532 N531 1.351 . S
C532 C533 1.434 . S
C533 C524 1.429 . S
C533 N530 1.350 . S
C533 C532 1.434 . S
C534 C535 1.369 . S
C534 C536 1.419 . S
C534 H538 0.930 . S
C535 C534 1.369 . S
C535 C544 1.429 . S
C536 C534 1.419 . S
C536 C537 1.363 . S
C536 H539 0.929 . S
C537 C536 1.363 . S
C537 C543 1.428 . S
H538 C534 0.930 . S
H539 C536 0.929 . S
S540 N541 1.613 . S
S540 N542 1.610 . S
N541 S540 1.613 . S
N541 C544 1.350 . S
N542 S540 1.610 . S
N542 C543 1.351 . S
C543 C537 1.428 . S
C543 N542 1.351 . S
C543 C544 1.434 . S
C544 C535 1.429 . S
C544 N541 1.350 . S
C544 C543 1.434 . S
C545 C546 1.369 . S
C545 C547 1.419 . S
C545 H549 0.930 . S
C546 C545 1.369 . S
C546 C555 1.429 . S
C547 C545 1.419 . S
C547 C548 1.363 . S
C547 H550 0.929 . S
C548 C547 1.363 . S
C548 C554 1.428 . S
H549 C545 0.930 . S
H550 C547 0.929 . S
S551 N552 1.613 . S
S551 N553 1.610 . S
N552 S551 1.613 . S
N552 C555 1.350 . S
N553 S551 1.610 . S
N553 C554 1.351 . S
C554 C548 1.428 . S
C554 N553 1.351 . S
C554 C555 1.434 . S
C555 C546 1.429 . S
C555 N552 1.350 . S
C555 C554 1.434 . S
C556 C557 1.369 . S
C556 C558 1.419 . S
C556 H560 0.930 . S
C557 C556 1.369 . S
C557 C566 1.429 . S
C558 C556 1.419 . S
C558 C559 1.363 . S
C558 H561 0.929 . S
C559 C558 1.363 . S
C559 C565 1.428 . S
H560 C556 0.930 . S
H561 C558 0.929 . S
S562 N563 1.613 . S
S562 N564 1.610 . S
N563 S562 1.613 . S
N563 C566 1.350 . S
N564 S562 1.610 . S
N564 C565 1.351 . S
C565 C559 1.428 . S
C565 N564 1.351 . S
C565 C566 1.434 . S
C566 C557 1.429 . S
C566 N563 1.350 . S
C566 C565 1.434 . S
C567 C568 1.369 . S
C567 C569 1.419 . S
C567 H571 0.930 . S
C568 C567 1.369 . S
C568 C577 1.429 . S
C569 C567 1.419 . S
C569 C570 1.363 . S
C569 H572 0.929 . S
C570 C569 1.363 . S
C570 C576 1.428 . S
H571 C567 0.930 . S
H572 C569 0.929 . S
S573 N574 1.613 . S
S573 N575 1.610 . S
N574 S573 1.613 . S
N574 C577 1.350 . S
N575 S573 1.610 . S
N575 C576 1.351 . S
C576 C570 1.428 . S
C576 N575 1.351 . S
C576 C577 1.434 . S
C577 C568 1.429 . S
C577 N574 1.350 . S
C577 C576 1.434 . S
C578 C579 1.369 . S
C578 C580 1.419 . S
C578 H582 0.930 . S
C579 C578 1.369 . S
C579 C588 1.429 . S
C580 C578 1.419 . S
C580 C581 1.363 . S
C580 H583 0.929 . S
C581 C580 1.363 . S
C581 C587 1.428 . S
H582 C578 0.930 . S
H583 C580 0.929 . S
S584 N585 1.613 . S
S584 N586 1.610 . S
N585 S584 1.613 . S
N585 C588 1.350 . S
N586 S584 1.610 . S
N586 C587 1.351 . S
C587 C581 1.428 . S
C587 N586 1.351 . S
C587 C588 1.434 . S
C588 C579 1.429 . S
C588 N585 1.350 . S
C588 C587 1.434 . S
C589 C590 1.369 . S
C589 C591 1.419 . S
C589 H593 0.930 . S
C590 C589 1.369 . S
C590 C599 1.429 . S
C591 C589 1.419 . S
C591 C592 1.363 . S
C591 H594 0.929 . S
C592 C591 1.363 . S
C592 C598 1.428 . S
H593 C589 0.930 . S
H594 C591 0.929 . S
S595 N596 1.613 . S
S595 N597 1.610 . S
N596 S595 1.613 . S
N596 C599 1.350 . S
N597 S595 1.610 . S
N597 C598 1.351 . S
C598 C592 1.428 . S
C598 N597 1.351 . S
C598 C599 1.434 . S
C599 C590 1.429 . S
C599 N596 1.350 . S
C599 C598 1.434 . S
C600 C601 1.369 . S
C600 C602 1.419 . S
C600 H604 0.930 . S
C601 C600 1.369 . S
C601 C610 1.429 . S
C602 C600 1.419 . S
C602 C603 1.363 . S
C602 H605 0.929 . S
C603 C602 1.363 . S
C603 C609 1.428 . S
H604 C600 0.930 . S
H605 C602 0.929 . S
S606 N607 1.613 . S
S606 N608 1.610 . S
N607 S606 1.613 . S
N607 C610 1.350 . S
N608 S606 1.610 . S
N608 C609 1.351 . S
C609 C603 1.428 . S
C609 N608 1.351 . S
C609 C610 1.434 . S
C610 C601 1.429 . S
C610 N607 1.350 . S
C610 C609 1.434 . S
C611 C612 1.369 . S
C611 C613 1.419 . S
C611 H615 0.930 . S
C612 C611 1.369 . S
C612 C621 1.429 1_565 S
C613 C611 1.419 . S
C613 C614 1.363 1_565 S
C613 H616 0.929 . S
C614 C613 1.363 1_545 S
C614 C620 1.428 . S
H615 C611 0.930 . S
H616 C613 0.929 . S
S617 N618 1.613 . S
S617 N619 1.610 . S
N618 S617 1.613 . S
N618 C621 1.350 . S
N619 S617 1.610 . S
N619 C620 1.351 . S
C620 C614 1.428 . S
C620 N619 1.351 . S
C620 C621 1.434 . S
C621 C612 1.429 1_545 S
C621 N618 1.350 . S
C621 C620 1.434 . S
C622 C623 1.369 . S
C622 C624 1.419 . S
C622 H626 0.930 . S
C623 C622 1.369 . S
C623 C632 1.429 . S
C624 C622 1.419 . S
C624 C625 1.363 . S
C624 H627 0.929 . S
C625 C624 1.363 . S
C625 C631 1.428 . S
H626 C622 0.930 . S
H627 C624 0.929 . S
S628 N629 1.613 . S
S628 N630 1.610 . S
N629 S628 1.613 . S
N629 C632 1.350 . S
N630 S628 1.610 . S
N630 C631 1.351 . S
C631 C625 1.428 . S
C631 N630 1.351 . S
C631 C632 1.434 . S
C632 C623 1.429 . S
C632 N629 1.350 . S
C632 C631 1.434 . S
C633 C634 1.369 . S
C633 C635 1.419 1_545 S
C633 H637 0.930 . S
C634 C633 1.369 . S
C634 C643 1.429 . S
C635 C633 1.419 1_565 S
C635 C636 1.363 . S
C635 H638 0.929 . S
C636 C635 1.363 . S
C636 C642 1.428 1_565 S
H637 C633 0.930 . S
H638 C635 0.929 . S
S639 N640 1.613 . S
S639 N641 1.610 . S
N640 S639 1.613 . S
N640 C643 1.350 . S
N641 S639 1.610 . S
N641 C642 1.351 . S
C642 C636 1.428 1_545 S
C642 N641 1.351 . S
C642 C643 1.434 . S
C643 C634 1.429 . S
C643 N640 1.350 . S
C643 C642 1.434 . S
C644 C645 1.369 . S
C644 C646 1.419 . S
C644 H648 0.930 . S
C645 C644 1.369 . S
C645 C654 1.429 . S
C646 C644 1.419 . S
C646 C647 1.363 . S
C646 H649 0.929 . S
C647 C646 1.363 . S
C647 C653 1.428 . S
H648 C644 0.930 . S
H649 C646 0.929 . S
S650 N651 1.613 . S
S650 N652 1.610 . S
N651 S650 1.613 . S
N651 C654 1.350 . S
N652 S650 1.610 . S
N652 C653 1.351 . S
C653 C647 1.428 . S
C653 N652 1.351 . S
C653 C654 1.434 . S
C654 C645 1.429 . S
C654 N651 1.350 . S
C654 C653 1.434 . S
C655 C656 1.369 . S
C655 C657 1.419 1_565 S
C655 H659 0.930 . S
C656 C655 1.369 . S
C656 C665 1.429 1_565 S
C657 C655 1.419 1_545 S
C657 C658 1.363 . S
C657 H660 0.929 . S
C658 C657 1.363 . S
C658 C664 1.428 . S
H659 C655 0.930 . S
H660 C657 0.929 . S
S661 N662 1.613 . S
S661 N663 1.610 . S
N662 S661 1.613 . S
N662 C665 1.350 . S
N663 S661 1.610 . S
N663 C664 1.351 . S
C664 C658 1.428 . S
C664 N663 1.351 . S
C664 C665 1.434 . S
C665 C656 1.429 1_545 S
C665 N662 1.350 . S
C665 C664 1.434 . S
C666 C667 1.369 . S
C666 C668 1.419 . S
C666 H670 0.930 . S
C667 C666 1.369 . S
C667 C676 1.429 . S
C668 C666 1.419 . S
C668 C669 1.363 . S
C668 H671 0.929 . S
C669 C668 1.363 . S
C669 C675 1.428 . S
H670 C666 0.930 . S
H671 C668 0.929 . S
S672 N673 1.613 . S
S672 N674 1.610 . S
N673 S672 1.613 . S
N673 C676 1.350 . S
N674 S672 1.610 . S
N674 C675 1.351 . S
C675 C669 1.428 . S
C675 N674 1.351 . S
C675 C676 1.434 . S
C676 C667 1.429 . S
C676 N673 1.350 . S
C676 C675 1.434 . S
C677 C678 1.369 . S
C677 C679 1.419 1_545 S
C677 H681 0.930 . S
C678 C677 1.369 . S
C678 C687 1.429 1_545 S
C679 C677 1.419 1_565 S
C679 C680 1.363 . S
C679 H682 0.929 1_565 S
C680 C679 1.363 . S
C680 C686 1.428 . S
H681 C677 0.930 . S
H682 C679 0.929 1_545 S
S683 N684 1.613 . S
S683 N685 1.610 . S
N684 S683 1.613 . S
N684 C687 1.350 . S
N685 S683 1.610 . S
N685 C686 1.351 . S
C686 C680 1.428 . S
C686 N685 1.351 . S
C686 C687 1.434 . S
C687 C678 1.429 1_565 S
C687 N684 1.350 . S
C687 C686 1.434 . S
C688 C689 1.369 . S
C688 C690 1.419 . S
C688 H692 0.930 . S
C689 C688 1.369 . S
C689 C698 1.429 . S
C690 C688 1.419 . S
C690 C691 1.363 . S
C690 H693 0.929 . S
C691 C690 1.363 . S
C691 C697 1.428 . S
H692 C688 0.930 . S
H693 C690 0.929 . S
S694 N695 1.613 . S
S694 N696 1.610 . S
N695 S694 1.613 . S
N695 C698 1.350 . S
N696 S694 1.610 . S
N696 C697 1.351 . S
C697 C691 1.428 . S
C697 N696 1.351 . S
C697 C698 1.434 . S
C698 C689 1.429 . S
C698 N695 1.350 . S
C698 C697 1.434 . S
C699 C700 1.369 . S
C699 C701 1.419 . S
C699 H703 0.930 . S
C700 C699 1.369 . S
C700 C709 1.429 . S
C701 C699 1.419 . S
C701 C702 1.363 . S
C701 H704 0.929 . S
C702 C701 1.363 . S
C702 C708 1.428 . S
H703 C699 0.930 . S
H704 C701 0.929 . S
S705 N706 1.613 . S
S705 N707 1.610 . S
N706 S705 1.613 . S
N706 C709 1.350 . S
N707 S705 1.610 . S
N707 C708 1.351 . S
C708 C702 1.428 . S
C708 N707 1.351 . S
C708 C709 1.434 . S
C709 C700 1.429 . S
C709 N706 1.350 . S
C709 C708 1.434 . S
C710 C711 1.369 . S
C710 C712 1.419 . S
C710 H714 0.930 . S
C711 C710 1.369 . S
C711 C720 1.429 . S
C712 C710 1.419 . S
C712 C713 1.363 . S
C712 H715 0.929 . S
C713 C712 1.363 . S
C713 C719 1.428 . S
H714 C710 0.930 . S
H715 C712 0.929 . S
S716 N717 1.613 . S
S716 N718 1.610 . S
N717 S716 1.613 . S
N717 C720 1.350 . S
N718 S716 1.610 . S
N718 C719 1.351 . S
C719 C713 1.428 . S
C719 N718 1.351 . S
C719 C720 1.434 . S
C720 C711 1.429 . S
C720 N717 1.350 . S
C720 C719 1.434 . S
C721 C722 1.369 . S
C721 C723 1.419 . S
C721 H725 0.930 . S
C722 C721 1.369 . S
C722 C731 1.429 . S
C723 C721 1.419 . S
C723 C724 1.363 . S
C723 H726 0.929 . S
C724 C723 1.363 . S
C724 C730 1.428 . S
H725 C721 0.930 . S
H726 C723 0.929 . S
S727 N728 1.613 . S
S727 N729 1.610 . S
N728 S727 1.613 . S
N728 C731 1.350 . S
N729 S727 1.610 . S
N729 C730 1.351 . S
C730 C724 1.428 . S
C730 N729 1.351 . S
C730 C731 1.434 . S
C731 C722 1.429 . S
C731 N728 1.350 . S
C731 C730 1.434 . S
C732 C733 1.369 . S
C732 C734 1.419 . S
C732 H736 0.930 . S
C733 C732 1.369 . S
C733 C742 1.429 . S
C734 C732 1.419 . S
C734 C735 1.363 . S
C734 H737 0.929 1_554 S
C735 C734 1.363 . S
C735 C741 1.428 . S
H736 C732 0.930 . S
H737 C734 0.929 1_556 S
S738 N739 1.613 . S
S738 N740 1.610 . S
N739 S738 1.613 . S
N739 C742 1.350 . S
N740 S738 1.610 . S
N740 C741 1.351 . S
C741 C735 1.428 . S
C741 N740 1.351 . S
C741 C742 1.434 . S
C742 C733 1.429 . S
C742 N739 1.350 . S
C742 C741 1.434 . S
C743 C744 1.369 . S
C743 C745 1.419 . S
C743 H747 0.930 . S
C744 C743 1.369 . S
C744 C753 1.429 . S
C745 C743 1.419 . S
C745 C746 1.363 . S
C745 H748 0.929 . S
C746 C745 1.363 . S
C746 C752 1.428 . S
H747 C743 0.930 . S
H748 C745 0.929 . S
S749 N750 1.613 . S
S749 N751 1.610 . S
N750 S749 1.613 . S
N750 C753 1.350 . S
N751 S749 1.610 . S
N751 C752 1.351 . S
C752 C746 1.428 . S
C752 N751 1.351 . S
C752 C753 1.434 . S
C753 C744 1.429 . S
C753 N750 1.350 . S
C753 C752 1.434 . S
C754 C755 1.369 . S
C754 C756 1.419 . S
C754 H758 0.930 . S
C755 C754 1.369 . S
C755 C764 1.429 . S
C756 C754 1.419 . S
C756 C757 1.363 . S
C756 H759 0.929 . S
C757 C756 1.363 . S
C757 C763 1.428 . S
H758 C754 0.930 . S
H759 C756 0.929 . S
S760 N761 1.613 . S
S760 N762 1.610 . S
N761 S760 1.613 . S
N761 C764 1.350 . S
N762 S760 1.610 . S
N762 C763 1.351 . S
C763 C757 1.428 . S
C763 N762 1.351 . S
C763 C764 1.434 . S
C764 C755 1.429 . S
C764 N761 1.350 . S
C764 C763 1.434 . S
C765 C766 1.369 . S
C765 C767 1.419 . S
C765 H769 0.930 . S
C766 C765 1.369 . S
C766 C775 1.429 . S
C767 C765 1.419 . S
C767 C768 1.363 . S
C767 H770 0.929 . S
C768 C767 1.363 . S
C768 C774 1.428 . S
H769 C765 0.930 . S
H770 C767 0.929 . S
S771 N772 1.613 . S
S771 N773 1.610 . S
N772 S771 1.613 . S
N772 C775 1.350 . S
N773 S771 1.610 . S
N773 C774 1.351 . S
C774 C768 1.428 . S
C774 N773 1.351 . S
C774 C775 1.434 . S
C775 C766 1.429 . S
C775 N772 1.350 . S
C775 C774 1.434 . S
C776 C777 1.369 . S
C776 C778 1.419 . S
C776 H780 0.930 . S
C777 C776 1.369 . S
C777 C786 1.429 . S
C778 C776 1.419 . S
C778 C779 1.363 . S
C778 H781 0.929 . S
C779 C778 1.363 . S
C779 C785 1.428 . S
H780 C776 0.930 . S
H781 C778 0.929 . S
S782 N783 1.613 . S
S782 N784 1.610 . S
N783 S782 1.613 . S
N783 C786 1.350 . S
N784 S782 1.610 . S
N784 C785 1.351 . S
C785 C779 1.428 . S
C785 N784 1.351 . S
C785 C786 1.434 . S
C786 C777 1.429 . S
C786 N783 1.350 . S
C786 C785 1.434 . S
C787 C788 1.369 . S
C787 C789 1.419 1_565 S
C787 H791 0.930 . S
C788 C787 1.369 . S
C788 C797 1.429 . S
C789 C787 1.419 1_545 S
C789 C790 1.363 . S
C789 H792 0.929 . S
C790 C789 1.363 . S
C790 C796 1.428 1_545 S
H791 C787 0.930 . S
H792 C789 0.929 . S
S793 N794 1.613 . S
S793 N795 1.610 . S
N794 S793 1.613 . S
N794 C797 1.350 . S
N795 S793 1.610 . S
N795 C796 1.351 . S
C796 C790 1.428 1_565 S
C796 N795 1.351 . S
C796 C797 1.434 . S
C797 C788 1.429 . S
C797 N794 1.350 . S
C797 C796 1.434 . S
C798 C799 1.369 . S
C798 C800 1.419 . S
C798 H802 0.930 . S
C799 C798 1.369 . S
C799 C808 1.429 . S
C800 C798 1.419 . S
C800 C801 1.363 . S
C800 H803 0.929 . S
C801 C800 1.363 . S
C801 C807 1.428 . S
H802 C798 0.930 . S
H803 C800 0.929 . S
S804 N805 1.613 . S
S804 N806 1.610 1_556 S
N805 S804 1.613 . S
N805 C808 1.350 . S
N806 S804 1.610 1_554 S
N806 C807 1.351 1_554 S
C807 C801 1.428 . S
C807 N806 1.351 1_556 S
C807 C808 1.434 . S
C808 C799 1.429 . S
C808 N805 1.350 . S
C808 C807 1.434 . S
C809 C810 1.369 1_545 S
C809 C811 1.419 . S
C809 H813 0.930 . S
C810 C809 1.369 1_565 S
C810 C819 1.429 . S
C811 C809 1.419 . S
C811 C812 1.363 . S
C811 H814 0.929 . S
C812 C811 1.363 . S
C812 C818 1.428 1_545 S
H813 C809 0.930 . S
H814 C811 0.929 . S
S815 N816 1.613 . S
S815 N817 1.610 . S
N816 S815 1.613 . S
N816 C819 1.350 . S
N817 S815 1.610 . S
N817 C818 1.351 . S
C818 C812 1.428 1_565 S
C818 N817 1.351 . S
C818 C819 1.434 . S
C819 C810 1.429 . S
C819 N816 1.350 . S
C819 C818 1.434 . S
C820 C821 1.369 . S
C820 C822 1.419 . S
C820 H824 0.930 . S
C821 C820 1.369 . S
C821 C830 1.429 . S
C822 C820 1.419 . S
C822 C823 1.363 . S
C822 H825 0.929 . S
C823 C822 1.363 . S
C823 C829 1.428 . S
H824 C820 0.930 . S
H825 C822 0.929 . S
S826 N827 1.613 . S
S826 N828 1.610 . S
N827 S826 1.613 . S
N827 C830 1.350 . S
N828 S826 1.610 . S
N828 C829 1.351 . S
C829 C823 1.428 . S
C829 N828 1.351 . S
C829 C830 1.434 . S
C830 C821 1.429 . S
C830 N827 1.350 . S
C830 C829 1.434 . S
C831 C832 1.369 . S
C831 C833 1.419 . S
C831 H835 0.930 . S
C832 C831 1.369 . S
C832 C841 1.429 1_545 S
C833 C831 1.419 . S
C833 C834 1.363 1_545 S
C833 H836 0.929 . S
C834 C833 1.363 1_565 S
C834 C840 1.428 . S
H835 C831 0.930 . S
H836 C833 0.929 . S
S837 N838 1.613 . S
S837 N839 1.610 . S
N838 S837 1.613 . S
N838 C841 1.350 . S
N839 S837 1.610 . S
N839 C840 1.351 . S
C840 C834 1.428 . S
C840 N839 1.351 . S
C840 C841 1.434 . S
C841 C832 1.429 1_565 S
C841 N838 1.350 . S
C841 C840 1.434 . S
C842 C843 1.369 . S
C842 C844 1.419 . S
C842 H846 0.930 . S
C843 C842 1.369 . S
C843 C852 1.429 . S
C844 C842 1.419 . S
C844 C845 1.363 . S
C844 H847 0.929 1_554 S
C845 C844 1.363 . S
C845 C851 1.428 . S
H846 C842 0.930 . S
H847 C844 0.929 1_556 S
S848 N849 1.613 . S
S848 N850 1.610 . S
N849 S848 1.613 . S
N849 C852 1.350 . S
N850 S848 1.610 . S
N850 C851 1.351 . S
C851 C845 1.428 . S
C851 N850 1.351 . S
C851 C852 1.434 . S
C852 C843 1.429 . S
C852 N849 1.350 . S
C852 C851 1.434 . S
C853 C854 1.369 . S
C853 C855 1.419 . S
C853 H857 0.930 . S
C854 C853 1.369 . S
C854 C863 1.429 1_565 S
C855 C853 1.419 . S
C855 C856 1.363 1_565 S
C855 H858 0.929 . S
C856 C855 1.363 1_545 S
C856 C862 1.428 . S
H857 C853 0.930 . S
H858 C855 0.929 . S
S859 N860 1.613 . S
S859 N861 1.610 . S
N860 S859 1.613 . S
N860 C863 1.350 . S
N861 S859 1.610 . S
N861 C862 1.351 . S
C862 C856 1.428 . S
C862 N861 1.351 . S
C862 C863 1.434 . S
C863 C854 1.429 1_545 S
C863 N860 1.350 . S
C863 C862 1.434 . S
C337 C16 0.665 . S
C339 C213 0.692 . S
C348 C24 0.678 . S
C350 C234 0.682 . S
C359 C45 0.697 . S
C361 C184 0.669 . S
C370 C192 0.666 . S
C372 C79 0.692 . S
C381 C87 0.669 . S
C383 C297 0.692 . S
C392 C318 0.683 . S
C394 C108 0.684 . S
C403 C255 0.676 . S
C405 C142 0.688 . S
C414 C150 0.697 . S
C416 C276 0.669 . S
C425 C7 1.617 . S
C427 C88 1.611 . S
C436 C25 1.614 . S
C438 C277 1.613 . S
C447 C46 1.612 . S
C449 C133 1.614 . S
C458 C70 1.612 . S
C460 C319 1.613 . S
C469 C109 1.607 . S
C471 C193 1.618 . S
C480 C235 1.616 . S
C482 C151 1.612 . S
C491 C256 1.609 . S
C493 C175 1.617 . S
C502 C214 1.617 . S
C504 C298 1.610 . S
C513 C4 1.572 . S
C515 C166 1.494 . S
C524 C28 1.579 . S
C526 C271 1.499 . S
C535 C49 1.570 . S
C537 C124 1.500 . S
C546 C67 1.578 1_455 S
C548 C313 1.498 . S
C557 C83 1.492 . S
C559 C91 1.573 . S
C568 C112 1.579 . S
C570 C188 1.499 . S
C579 C130 1.578 . S
C581 C40 1.504 . S
C590 C229 1.501 . S
C592 C154 1.571 1_655 S
C601 C172 1.579 . S
C603 C334 1.500 . S
C612 C103 1.505 . S
C614 C196 1.575 1_655 S
C623 C292 1.496 . S
C625 C217 1.576 . S
C634 C146 1.498 . S
C636 C238 1.570 . S
C645 C259 1.569 . S
C647 C250 1.494 . S
C656 C280 1.569 1_455 S
C658 C20 1.499 . S
C667 C208 1.498 . S
C669 C301 1.577 . S
C678 C322 1.568 . S
C680 C61 1.499 . S
C689 C3 1.236 1_556 S
C691 C209 1.313 . S
C700 C230 1.315 . S
C702 C37 1.244 . S
C711 C58 1.229 . S
C713 C251 1.315 . S
C722 C187 1.313 . S
C724 C66 1.233 . S
C733 C293 1.315 . S
C735 C100 1.244 1_554 S
C744 C314 1.324 . S
C746 C121 1.239 . S
C755 C335 1.312 . S
C757 C129 1.235 . S
C766 C272 1.324 . S
C768 C163 1.235 . S
C777 C41 1.324 . S
C779 C171 1.241 . S
C788 C62 1.323 . S
C790 C205 1.234 . S
C799 C82 1.313 . S
C801 C226 1.232 1_556 S
C810 C247 1.245 . S
C812 C19 1.315 . S
C821 C125 1.311 . S
C823 C268 1.239 . S
C832 C145 1.318 . S
C834 C289 1.244 . S
C843 C167 1.315 . S
C845 C310 1.244 1_554 S
C854 C104 1.316 . S
C856 C331 1.244 . S
