# Generated by pormake.
# Topology lcy, (6)-cn, num edge types: 1
# Building blocks:
#     Node 0, Type 0, BuildingBlock: UKALOJ_clean_sbu_0, # of connection points: 6
#     Node 1, Type 0, BuildingBlock: UKALOJ_clean_sbu_0, # of connection points: 6
#     Node 2, Type 0, BuildingBlock: UKALOJ_clean_sbu_0, # of connection points: 6
#     Node 3, Type 0, BuildingBlock: UKALOJ_clean_sbu_0, # of connection points: 6
#     Edge 4, Type (0, 0), BuildingBlock: FUNLAD_clean_linker_1, # of connection points: 2
#     Edge 5, Type (0, 0), BuildingBlock: FUNLAD_clean_linker_1, # of connection points: 2
#     Edge 6, Type (0, 0), BuildingBlock: FUNLAD_clean_linker_1, # of connection points: 2
#     Edge 7, Type (0, 0), BuildingBlock: FUNLAD_clean_linker_1, # of connection points: 2
#     Edge 8, Type (0, 0), BuildingBlock: FUNLAD_clean_linker_1, # of connection points: 2
#     Edge 9, Type (0, 0), BuildingBlock: FUNLAD_clean_linker_1, # of connection points: 2
#     Edge 10, Type (0, 0), BuildingBlock: FUNLAD_clean_linker_1, # of connection points: 2
#     Edge 11, Type (0, 0), BuildingBlock: FUNLAD_clean_linker_1, # of connection points: 2
#     Edge 12, Type (0, 0), BuildingBlock: FUNLAD_clean_linker_1, # of connection points: 2
#     Edge 13, Type (0, 0), BuildingBlock: FUNLAD_clean_linker_1, # of connection points: 2
#     Edge 14, Type (0, 0), BuildingBlock: FUNLAD_clean_linker_1, # of connection points: 2
#     Edge 15, Type (0, 0), BuildingBlock: FUNLAD_clean_linker_1, # of connection points: 2
# Relax obj value: 0.339
# Max RMSD: 0.293
# Mean RMSD: 0.263
data_MOF--net-lcy--node1-UKALOJ_clean_sbu_0--edge1-FUNLAD_clean_linker_1
_symmetry_space_group_name_H-M    P1
_symmetry_Int_Tables_number       1
_symmetry_cell_setting            triclinic
loop_
_symmetry_equiv_pos_as_xyz
'x, y, z'
_cell_length_a     27.295491
_cell_length_b     28.302633
_cell_length_c     27.617588
_cell_angle_alpha  89.481836
_cell_angle_beta   99.68378
_cell_angle_gamma 99.106932
loop_
_atom_site_label
_atom_site_type_symbol
_atom_site_fract_x
_atom_site_fract_y
_atom_site_fract_z
_atom_type_partial_charge
Zn0 Zn 0.37362 0.42645 0.34137 0.0
O1 O 0.33646 0.4667 0.3836 0.0
C2 C 0.45822 0.50581 0.34505 0.0
Zn3 Zn 0.43388 0.42143 0.40604 0.0
C4 C 0.35738 0.47847 0.42754 0.0
O5 O 0.39894 0.46525 0.44553 0.0
C6 C 0.44956 0.36925 0.31974 0.0
O7 O 0.38834 0.3605 0.43065 0.0
O8 O 0.33281 0.36328 0.3635 0.0
N9 N 0.49044 0.41896 0.46509 0.0
C10 C 0.51849 0.38447 0.47914 0.0
C11 C 0.54992 0.44566 0.52494 0.0
N12 N 0.50992 0.4569 0.49378 0.0
N13 N 0.55648 0.40066 0.51593 0.0
C14 C 0.30506 0.45993 0.24883 0.0
C15 C 0.27387 0.3924 0.21413 0.0
N16 N 0.31984 0.42587 0.27987 0.0
N17 N 0.29986 0.38399 0.25837 0.0
N18 N 0.27698 0.43984 0.20694 0.0
H19 H 0.33172 0.52058 0.29816 0.0
H20 H 0.28932 0.53206 0.24328 0.0
H21 H 0.35284 0.52544 0.23922 0.0
C22 C 0.32063 0.5126 0.25823 0.0
C23 C 0.50676 0.33404 0.4595 0.0
H24 H 0.46763 0.32548 0.43978 0.0
H25 H 0.51234 0.30871 0.49002 0.0
H26 H 0.53289 0.32893 0.43414 0.0
O27 O 0.4676 0.37792 0.36473 0.0
O28 O 0.41089 0.38629 0.30031 0.0
C29 C 0.34672 0.34362 0.40381 0.0
O30 O 0.41508 0.48961 0.32092 0.0
O31 O 0.47698 0.48309 0.38156 0.0
Zn32 Zn 0.92893 0.14382 0.63344 0.0
O33 O 0.89177 0.19851 0.59466 0.0
C34 C 0.95281 0.21215 0.71941 0.0
Zn35 Zn 0.87002 0.13215 0.68098 0.0
C36 C 0.85109 0.20685 0.60723 0.0
O37 O 0.83368 0.18305 0.64143 0.0
C38 C 0.94512 0.06585 0.70698 0.0
O39 O 0.82726 0.07756 0.6291 0.0
O40 O 0.88536 0.09325 0.58244 0.0
N41 N 0.81599 0.12363 0.72511 0.0
C42 C 0.79765 0.0862 0.7509 0.0
C43 C 0.7684 0.14684 0.7721 0.0
N44 N 0.79733 0.16116 0.73804 0.0
N45 N 0.76821 0.09992 0.78112 0.0
C46 C 0.01914 0.19043 0.58423 0.0
C47 C 0.03588 0.13039 0.54782 0.0
N48 N 0.98439 0.15259 0.59112 0.0
N49 N 0.99474 0.11539 0.56821 0.0
N50 N 0.05211 0.17736 0.55763 0.0
H51 H 0.98292 0.24622 0.60864 0.0
H52 H 0.035 0.26702 0.57732 0.0
H53 H 0.04682 0.2455 0.63892 0.0
C54 C 0.02077 0.24018 0.60326 0.0
C55 C 0.80948 0.03655 0.74739 0.0
H56 H 0.82045 0.03022 0.71145 0.0
H57 H 0.77636 0.00966 0.75197 0.0
H58 H 0.84093 0.03174 0.77723 0.0
O59 O 0.90798 0.08014 0.72117 0.0
O60 O 0.96322 0.08678 0.67138 0.0
C61 C 0.84318 0.07054 0.58929 0.0
O62 O 0.97162 0.19696 0.68466 0.0
O63 O 0.91132 0.18976 0.72878 0.0
Zn64 Zn 0.08159 0.66169 0.8589 0.0
O65 O 0.14424 0.71472 0.88981 0.0
C66 C 0.0524 0.72718 0.77881 0.0
Zn67 Zn 0.1182 0.64881 0.79529 0.0
C68 C 0.18121 0.72262 0.86655 0.0
O69 O 0.17833 0.70165 0.82556 0.0
C70 C 0.02393 0.58004 0.79176 0.0
O71 O 0.15754 0.59592 0.83338 0.0
O72 O 0.1198 0.60974 0.8947 0.0
N73 N 0.15239 0.64472 0.73579 0.0
C74 C 0.15392 0.60869 0.70485 0.0
C75 C 0.19425 0.67199 0.67908 0.0
N76 N 0.17754 0.684 0.71972 0.0
N77 N 0.17966 0.62492 0.66893 0.0
C78 C 0.02344 0.69819 0.93616 0.0
C79 C 0.01568 0.63728 0.98191 0.0
N80 N 0.04739 0.6654 0.91899 0.0
N81 N 0.04272 0.62776 0.94772 0.0
N82 N 0.00268 0.68101 0.97514 0.0
H83 H 0.01879 0.7728 0.94604 0.0
H84 H 0.99167 0.74746 0.88611 0.0
H85 H 0.05923 0.76085 0.9036 0.0
C86 C 0.02347 0.74785 0.91701 0.0
C87 C 0.13179 0.55749 0.71059 0.0
H88 H 0.15431 0.5331 0.69628 0.0
H89 H 0.0931 0.5507 0.68912 0.0
H90 H 0.13022 0.54955 0.74969 0.0
O91 O 0.05895 0.59308 0.76712 0.0
O92 O 0.02146 0.60495 0.82919 0.0
C93 C 0.1497 0.58744 0.87695 0.0
O94 O 0.04419 0.71585 0.8217 0.0
O95 O 0.07963 0.70363 0.75835 0.0
Zn96 Zn 0.61316 0.8818 0.14876 0.0
O97 O 0.55055 0.8514 0.09209 0.0
C98 C 0.63171 0.97027 0.09354 0.0
Zn99 Zn 0.56858 0.93471 0.16977 0.0
C100 C 0.51189 0.87227 0.08601 0.0
O101 O 0.51153 0.90828 0.1126 0.0
C102 C 0.6667 0.94348 0.2363 0.0
O103 O 0.53443 0.88576 0.21794 0.0
O104 O 0.58348 0.83645 0.19955 0.0
N105 N 0.52638 0.98426 0.18233 0.0
C106 C 0.52355 0.00964 0.22241 0.0
C107 C 0.47948 0.03789 0.16122 0.0
N108 N 0.4984 1.00142 0.14446 0.0
N109 N 0.49497 0.04394 0.21005 0.0
C110 C 0.67244 0.82056 0.0938 0.0
C111 C 0.70893 0.78333 0.15309 0.0
N112 N 0.65566 0.83204 0.13467 0.0
N113 N 0.67798 0.80842 0.17135 0.0
N114 N 0.70642 0.79062 0.10448 0.0
H115 H 0.62258 0.85613 0.0416 0.0
H116 H 0.65076 0.81086 0.01573 0.0
H117 H 0.68838 0.86726 0.03535 0.0
C118 C 0.65725 0.83997 0.04383 0.0
C119 C 0.55002 1.00205 0.27323 0.0
H120 H 0.55687 0.96457 0.27766 0.0
H121 H 0.52726 0.01026 0.30087 0.0
H122 H 0.58644 0.02671 0.28007 0.0
O123 O 0.62601 0.9608 0.22847 0.0
O124 O 0.67338 0.91165 0.20687 0.0
C125 C 0.5507 0.84611 0.22386 0.0
O126 O 0.6433 0.92859 0.09802 0.0
O127 O 0.60237 0.98318 0.12023 0.0
H128 H 0.19983 0.53235 0.89259 0.0
C129 C 0.17559 0.55302 0.90792 0.0
H130 H 0.14477 0.56819 0.97025 0.0
H131 H 0.15999 0.38837 0.09374 0.0
H132 H 0.07511 0.3655 0.04913 0.0
H133 H 0.04359 0.41009 0.97632 0.0
H134 H 0.09683 0.47808 0.94794 0.0
C135 C 0.16979 0.54816 0.95524 0.0
C136 C 0.19343 0.51422 0.98919 0.0
C137 C 0.16232 0.47417 0.00487 0.0
C138 C 0.18075 0.44817 0.04639 0.0
C139 C 0.14822 0.40912 0.06206 0.0
C140 C 0.09933 0.39564 0.03683 0.0
C141 C 0.08154 0.42079 0.99591 0.0
C142 C 0.11239 0.4598 0.98011 0.0
H143 H 0.2591 0.5012 0.16247 0.0
C144 C 0.25989 0.46295 0.16196 0.0
H145 H 0.24804 0.40042 0.11752 0.0
H146 H 0.26465 0.58591 0.96493 0.0
H147 H 0.3521 0.60381 0.00409 0.0
H148 H 0.38522 0.55671 0.07416 0.0
H149 H 0.33109 0.49121 0.10532 0.0
C150 C 0.24745 0.43866 0.11879 0.0
C151 C 0.23039 0.46241 0.07207 0.0
C152 C 0.2631 0.49953 0.05335 0.0
C153 C 0.24437 0.52592 0.01216 0.0
C154 C 0.27713 0.56412 0.99548 0.0
C155 C 0.32743 0.57479 0.01766 0.0
C156 C 0.34606 0.54834 0.05718 0.0
C157 C 0.31447 0.51109 0.07495 0.0
H158 H 0.74225 0.95023 0.28314 0.0
C159 C 0.70414 0.95767 0.28125 0.0
H160 H 0.6523 0.98337 0.31889 0.0
H161 H 0.82254 0.94815 0.51076 0.0
H162 H 0.80297 0.86387 0.4873 0.0
H163 H 0.74691 0.83713 0.4095 0.0
H164 H 0.71066 0.89433 0.35432 0.0
C165 C 0.69059 0.97661 0.3207 0.0
C166 C 0.72624 0.99187 0.3671 0.0
C167 C 0.74643 0.9577 0.39936 0.0
C168 C 0.77781 0.97296 0.44497 0.0
C169 C 0.7982 0.93834 0.47602 0.0
C170 C 0.7872 0.88991 0.46302 0.0
C171 C 0.75569 0.87486 0.41917 0.0
C172 C 0.73532 0.90815 0.38766 0.0
H173 H 0.77267 0.02519 0.55329 0.0
C174 C 0.81044 0.04112 0.54853 0.0
H175 H 0.86141 0.05676 0.49863 0.0
H176 H 0.69296 0.0667 0.31484 0.0
H177 H 0.71003 0.15029 0.34011 0.0
H178 H 0.76293 0.17628 0.41973 0.0
H179 H 0.79905 0.11879 0.4746 0.0
C180 C 0.82438 0.03924 0.50404 0.0
C181 C 0.78811 0.02209 0.45873 0.0
C182 C 0.7671 0.05606 0.42701 0.0
C183 C 0.7362 0.04099 0.38127 0.0
C184 C 0.71614 0.07595 0.35028 0.0
C185 C 0.72579 0.12414 0.36424 0.0
C186 C 0.75562 0.13878 0.40902 0.0
C187 C 0.77621 0.10537 0.44013 0.0
H188 H 0.16267 0.56598 0.61533 0.0
C189 C 0.18821 0.59869 0.62776 0.0
H190 H 0.25377 0.64545 0.61815 0.0
H191 H 0.26444 0.44192 0.5012 0.0
H192 H 0.25741 0.4013 0.57811 0.0
H193 H 0.2461 0.4457 0.65092 0.0
H194 H 0.23992 0.52994 0.64665 0.0
C195 C 0.22835 0.61262 0.60599 0.0
C196 C 0.2384 0.5856 0.56377 0.0
C197 C 0.24523 0.53689 0.56841 0.0
C198 C 0.25546 0.51211 0.52773 0.0
C199 C 0.25876 0.46275 0.53182 0.0
C200 C 0.25465 0.43902 0.57565 0.0
C201 C 0.248 0.46395 0.6165 0.0
C202 C 0.24376 0.51235 0.61328 0.0
H203 H 0.35421 0.51541 0.49592 0.0
C204 C 0.33335 0.50531 0.45939 0.0
H205 H 0.26439 0.50538 0.4108 0.0
H206 H 0.22369 0.67751 0.54104 0.0
H207 H 0.23393 0.7178 0.46467 0.0
H208 H 0.25804 0.67593 0.39648 0.0
H209 H 0.27133 0.59313 0.40409 0.0
C210 C 0.28619 0.51449 0.4471 0.0
C211 C 0.26332 0.53699 0.48424 0.0
C212 C 0.25551 0.58509 0.47911 0.0
C213 C 0.2426 0.60939 0.5188 0.0
C214 C 0.23452 0.65747 0.5125 0.0
C215 C 0.2401 0.68101 0.46875 0.0
C216 C 0.25363 0.65743 0.43034 0.0
C217 C 0.26126 0.60999 0.43522 0.0
H218 H 0.63664 0.03695 0.05097 0.0
C219 C 0.64891 1.0022 0.05512 0.0
H220 H 0.68661 0.95244 0.02587 0.0
H221 H 0.65206 0.02517 0.80925 0.0
H222 H 0.5925 0.95129 0.80208 0.0
H223 H 0.57506 0.90616 0.87576 0.0
H224 H 0.6168 0.9348 0.95705 0.0
C225 C 0.67594 0.98784 0.02318 0.0
C226 C 0.68605 0.01616 0.9793 0.0
C227 C 0.66199 0.99845 0.93193 0.0
C228 C 0.67266 0.02403 0.88937 0.0
C229 C 0.64659 0.00644 0.8427 0.0
C230 C 0.61197 0.96424 0.83807 0.0
C231 C 0.60211 0.93886 0.87955 0.0
C232 C 0.62652 0.95566 0.92601 0.0
H233 H 0.75532 0.03662 0.82614 0.0
C234 C 0.7477 0.07289 0.81961 0.0
H235 H 0.71581 0.12913 0.84523 0.0
H236 H 0.74001 0.05917 0.06451 0.0
H237 H 0.79903 0.13336 0.07177 0.0
H238 H 0.81727 0.17801 0.99807 0.0
H239 H 0.77676 0.14867 0.9167 0.0
C240 C 0.72228 0.09236 0.84993 0.0
C241 C 0.70824 0.06678 0.89422 0.0
C242 C 0.73152 0.08501 0.94167 0.0
C243 C 0.72066 0.05952 0.98425 0.0
C244 C 0.74594 0.07758 0.03101 0.0
C245 C 0.78018 0.12002 0.03571 0.0
C246 C 0.79047 0.14514 0.99422 0.0
C247 C 0.76677 0.12792 0.94768 0.0
H248 H 0.11109 0.24006 0.56504 0.0
C249 C 0.09731 0.20569 0.54639 0.0
H250 H 0.1103 0.15603 0.49542 0.0
H251 H 0.25378 0.36409 0.45672 0.0
H252 H 0.17669 0.3981 0.44059 0.0
H253 H 0.09532 0.34957 0.44935 0.0
H254 H 0.0909 0.26747 0.47567 0.0
C255 C 0.123 0.19076 0.51355 0.0
C256 C 0.17095 0.21917 0.50343 0.0
C257 C 0.17211 0.26632 0.48501 0.0
C258 C 0.21844 0.29331 0.4769 0.0
C259 C 0.21927 0.34133 0.4616 0.0
C260 C 0.17531 0.36139 0.45237 0.0
C261 C 0.12958 0.33416 0.45755 0.0
C262 C 0.1277 0.28712 0.47333 0.0
H263 H 0.27945 0.28869 0.39368 0.0
C264 C 0.31087 0.30546 0.42082 0.0
H265 H 0.33905 0.31592 0.49683 0.0
H266 H 0.18275 0.13058 0.54037 0.0
H267 H 0.25974 0.0962 0.55335 0.0
H268 H 0.33883 0.14167 0.53421 0.0
H269 H 0.34147 0.22221 0.50243 0.0
C270 C 0.30933 0.29825 0.46864 0.0
C271 C 0.26276 0.27202 0.48363 0.0
C272 C 0.26172 0.2251 0.50183 0.0
C273 C 0.21585 0.19869 0.51207 0.0
C274 C 0.21622 0.15207 0.5311 0.0
C275 C 0.26023 0.13192 0.53888 0.0
C276 C 0.30478 0.15753 0.52815 0.0
C277 C 0.30576 0.20363 0.50987 0.0
H278 H 0.0443 0.77872 0.71819 0.0
C279 C 0.0357 0.77057 0.75466 0.0
H280 H 0.00961 0.79576 0.81559 0.0
H281 H 0.05664 0.01605 0.78123 0.0
H282 H 0.11663 0.00615 0.85449 0.0
H283 H 0.12849 0.9257 0.88436 0.0
H284 H 0.08064 0.85463 0.84121 0.0
C285 C 0.01582 0.80262 0.77821 0.0
C286 C 0.00921 0.85128 0.75825 0.0
C287 C 0.03717 0.89284 0.78412 0.0
C288 C 0.03016 0.93949 0.76702 0.0
C289 C 0.05965 0.97994 0.79306 0.0
C290 C 0.09447 0.97478 0.83504 0.0
C291 C 0.10116 0.92947 0.85186 0.0
C292 C 0.07318 0.88892 0.82678 0.0
H293 H 0.95115 0.01038 0.76361 0.0
C294 C 0.963 0.0223 0.72926 0.0
H295 H 0.99562 1.00357 0.66962 0.0
H296 H 0.94621 0.78032 0.70163 0.0
H297 H 0.88693 0.79042 0.62797 0.0
H298 H 0.87649 0.87092 0.59726 0.0
H299 H 0.92497 0.9419 0.64028 0.0
C300 C 0.98695 0.99378 0.70573 0.0
C301 C 0.99492 0.94493 0.7241 0.0
C302 C 0.96731 0.90345 0.69794 0.0
C303 C 0.97399 0.85675 0.71523 0.0
C304 C 0.94394 0.81642 0.68946 0.0
C305 C 0.90943 0.82172 0.64726 0.0
C306 C 0.9035 0.86705 0.62999 0.0
C307 C 0.93176 0.90752 0.65499 0.0
H308 H 0.26004 0.75327 0.86618 0.0
C309 C 0.23057 0.74969 0.88864 0.0
H310 H 0.21442 0.75688 0.95979 0.0
H311 H 0.42832 0.73759 0.07625 0.0
H312 H 0.37397 0.67198 0.1065 0.0
H313 H 0.28444 0.65214 0.06923 0.0
H314 H 0.2487 0.69755 1.00151 0.0
C315 C 0.24299 0.76262 0.93637 0.0
C316 C 0.29714 0.77601 0.95966 0.0
C317 C 0.31807 0.74775 0.99818 0.0
C318 C 0.3701 0.75859 0.01912 0.0
C319 C 0.38935 0.73075 0.05859 0.0
C320 C 0.35854 0.69293 0.07641 0.0
C321 C 0.30813 0.68178 0.05544 0.0
C322 C 0.28804 0.7084 0.01658 0.0
H323 H 0.43689 0.87874 0.04695 0.0
C324 C 0.46551 0.85557 0.05085 0.0
H325 H 0.48065 0.78757 0.03324 0.0
H326 H 0.26876 0.84248 0.89216 0.0
H327 H 0.32409 0.90538 0.85895 0.0
H328 H 0.41583 0.91741 0.88797 0.0
H329 H 0.45248 0.86751 0.95157 0.0
C330 C 0.45409 0.81273 0.02781 0.0
C331 C 0.40156 0.7971 1.00101 0.0
C332 C 0.38105 0.82412 0.96124 0.0
C333 C 0.32859 0.81494 0.94202 0.0
C334 C 0.30867 0.84581 0.90589 0.0
C335 C 0.33997 0.88242 0.88686 0.0
C336 C 0.39157 0.88936 0.90338 0.0
C337 C 0.41206 0.86071 0.94015 0.0
H338 H 0.44676 0.32384 0.25531 0.0
C339 C 0.46741 0.33355 0.29202 0.0
H340 H 0.51944 0.31398 0.35124 0.0
H341 H 0.41927 0.10008 0.29063 0.0
H342 H 0.388 0.111 0.36625 0.0
H343 H 0.40715 0.18921 0.40982 0.0
H344 H 0.45748 0.25679 0.37787 0.0
C345 C 0.50004 0.30615 0.31396 0.0
C346 C 0.49808 0.25789 0.29331 0.0
C347 C 0.47022 0.21835 0.3137 0.0
C348 C 0.45991 0.17321 0.28914 0.0
C349 C 0.42955 0.13487 0.30862 0.0
C350 C 0.41102 0.14073 0.35183 0.0
C351 C 0.42173 0.18475 0.37631 0.0
C352 C 0.45074 0.22328 0.35754 0.0
H353 H 0.51299 0.08879 0.27646 0.0
C354 C 0.492 0.08471 0.23923 0.0
H355 H 0.45004 0.11843 0.18167 0.0
H356 H 0.55638 0.3259 0.24802 0.0
H357 H 0.58963 0.31492 0.17328 0.0
H358 H 0.57309 0.23615 0.13096 0.0
H359 H 0.52317 0.16813 0.1628 0.0
C360 C 0.46935 0.12074 0.21952 0.0
C361 C 0.4788 0.16769 0.24514 0.0
C362 C 0.50824 0.20688 0.22579 0.0
C363 C 0.5179 0.25214 0.25005 0.0
C364 C 0.54751 0.29086 0.23043 0.0
C365 C 0.567 0.28497 0.18779 0.0
C366 C 0.5577 0.24063 0.16398 0.0
C367 C 0.52882 0.20188 0.18262 0.0
H368 H 0.82271 0.2479 0.54253 0.0
C369 C 0.82193 0.24192 0.58132 0.0
H370 H 0.79115 0.25596 0.64357 0.0
H371 H 0.69683 0.41385 0.48951 0.0
H372 H 0.78282 0.44926 0.4846 0.0
H373 H 0.85423 0.41083 0.52361 0.0
H374 H 0.84015 0.33658 0.56724 0.0
C375 C 0.79089 0.26238 0.60463 0.0
C376 C 0.74881 0.28547 0.57855 0.0
C377 C 0.75788 0.329 0.5533 0.0
C378 C 0.71668 0.35164 0.53156 0.0
C379 C 0.72669 0.39514 0.50665 0.0
C380 C 0.77587 0.41592 0.50367 0.0
C381 C 0.81607 0.39425 0.52557 0.0
C382 C 0.80743 0.35138 0.55023 0.0
H383 H 0.60887 0.38116 0.57888 0.0
C384 C 0.59739 0.3776 0.53928 0.0
H385 H 0.61568 0.35531 0.47285 0.0
H386 H 0.71772 0.2006 0.62168 0.0
H387 H 0.63202 0.16602 0.62724 0.0
H388 H 0.56098 0.20613 0.59079 0.0
H389 H 0.57544 0.28107 0.54869 0.0
C390 C 0.62376 0.35481 0.51266 0.0
C391 C 0.6667 0.33129 0.53598 0.0
C392 C 0.65764 0.28758 0.56086 0.0
C393 C 0.69866 0.2646 0.58201 0.0
C394 C 0.68828 0.22033 0.60573 0.0
C395 C 0.63913 0.19979 0.60895 0.0
C396 C 0.59916 0.22234 0.58842 0.0
C397 C 0.60805 0.26555 0.56445 0.0
H398 H 0.96094 0.52283 0.80239 0.0
C399 C 0.99304 0.53155 0.78358 0.0
H400 H 0.04406 0.50406 0.74642 0.0
H401 H 0.02434 0.29765 0.8294 0.0
H402 H 0.10089 0.3354 0.88151 0.0
H403 H 0.12758 0.4228 0.88101 0.0
H404 H 0.07739 0.47321 0.82928 0.0
C405 C 0.00966 0.49604 0.7617 0.0
C406 C 0.98962 0.44391 0.76593 0.0
C407 C 0.01958 0.41454 0.79591 0.0
C408 C 0.00473 0.36381 0.79542 0.0
C409 C 0.03465 0.33601 0.82713 0.0
C410 C 0.07849 0.35727 0.85752 0.0
C411 C 0.09347 0.4065 0.85733 0.0
C412 C 0.06443 0.43499 0.82718 0.0
H413 H 0.01039 0.277 0.73223 0.0
C414 C 0.97408 0.26064 0.74068 0.0
H415 H 0.90837 0.27292 0.76564 0.0
H416 H 0.92235 0.48924 0.70596 0.0
H417 H 0.84413 0.45204 0.65606 0.0
H418 H 0.81798 0.3646 0.65545 0.0
H419 H 0.87041 0.31351 0.70278 0.0
C420 C 0.94598 0.28841 0.76 0.0
C421 C 0.96029 0.34204 0.76418 0.0
C422 C 0.92905 0.3717 0.73597 0.0
C423 C 0.9438 0.4225 0.73679 0.0
C424 C 0.91264 0.45074 0.70713 0.0
C425 C 0.86771 0.42985 0.67824 0.0
C426 C 0.85307 0.38057 0.6777 0.0
C427 C 0.88345 0.35164 0.70558 0.0
H428 H 0.97076 0.69161 0.04049 0.0
C429 C 0.96932 0.70021 1.00187 0.0
H430 H 0.92637 0.72578 0.93935 0.0
H431 H 0.72739 0.68648 0.03259 0.0
H432 H 0.70911 0.62727 0.96645 0.0
H433 H 0.77385 0.6154 0.91727 0.0
H434 H 0.85729 0.66255 0.93403 0.0
C435 C 0.93152 0.72155 0.97888 0.0
C436 C 0.89139 0.73225 0.00543 0.0
C437 C 0.84244 0.70507 0.99434 0.0
C438 C 0.80493 0.71222 0.02235 0.0
C439 C 0.75696 0.6833 0.01179 0.0
C440 C 0.74603 0.64896 0.97408 0.0
C441 C 0.7825 0.64225 0.94643 0.0
C442 C 0.83025 0.66968 0.9564 0.0
H443 H 0.73332 0.78578 0.03469 0.0
C444 C 0.7387 0.77604 0.07316 0.0
H445 H 0.78565 0.74633 0.13005 0.0
H446 H 0.97948 0.79436 0.03193 0.0
H447 H 0.99746 0.85446 0.09727 0.0
H448 H 0.93286 0.86614 0.14673 0.0
H449 H 0.84987 0.81798 0.13099 0.0
C450 C 0.77802 0.75425 0.09122 0.0
C451 C 0.81636 0.74702 0.06087 0.0
C452 C 0.86493 0.77504 0.0711 0.0
C453 C 0.90238 0.76793 0.04306 0.0
C454 C 0.95007 0.79741 0.05299 0.0
C455 C 0.96078 0.83229 0.09016 0.0
C456 C 0.9244 0.83889 0.11797 0.0
C457 C 0.87693 0.81086 0.10863 0.0
H458 H 0.48903 0.8048 0.25621 0.0
C459 C 0.52904 0.80893 0.25487 0.0
H460 H 0.59661 0.78082 0.27217 0.0
H461 H 0.43161 0.62972 0.37658 0.0
H462 H 0.42526 0.69637 0.42871 0.0
H463 H 0.46928 0.77757 0.41634 0.0
H464 H 0.51942 0.79269 0.35142 0.0
C465 C 0.55658 0.77578 0.27385 0.0
C466 C 0.53242 0.72704 0.28426 0.0
C467 C 0.50425 0.71893 0.323 0.0
C468 C 0.47981 0.67203 0.33076 0.0
C469 C 0.45117 0.6647 0.36923 0.0
C470 C 0.44729 0.7026 0.39946 0.0
C471 C 0.472 0.74833 0.39245 0.0
C472 C 0.50039 0.75659 0.35485 0.0
H473 H 0.52469 0.56202 0.3474 0.0
C474 C 0.48471 0.55254 0.3332 0.0
H475 H 0.41884 0.57699 0.29736 0.0
H476 H 0.58271 0.73052 0.20534 0.0
H477 H 0.58944 0.66373 0.15429 0.0
H478 H 0.54826 0.5821 0.16917 0.0
H479 H 0.49998 0.56705 0.23536 0.0
C480 C 0.45936 0.58478 0.30881 0.0
C481 C 0.48485 0.63347 0.30059 0.0
C482 C 0.51334 0.64142 0.26216 0.0
C483 C 0.53716 0.68835 0.25386 0.0
C484 C 0.56441 0.69556 0.21421 0.0
C485 C 0.56842 0.65749 0.1843 0.0
C486 C 0.54524 0.61156 0.19266 0.0
C487 C 0.5178 0.60342 0.23094 0.0
loop_
_geom_bond_atom_site_label_1
_geom_bond_atom_site_label_2
_geom_bond_distance
_geom_bond_site_symmetry_2
_ccdc_geom_bond_type
Zn0 O1 2.055 . S
Zn0 O8 2.046 . S
Zn0 N16 2.036 . S
Zn0 O28 2.053 . S
Zn0 O30 2.066 . S
O1 Zn0 2.055 . S
O1 C4 1.259 . S
C2 O30 1.256 . S
C2 O31 1.244 . S
Zn3 O5 2.046 . S
Zn3 O7 2.055 . S
Zn3 N9 2.036 . S
Zn3 O27 2.066 . S
Zn3 O31 2.053 . S
C4 O1 1.259 . S
C4 O5 1.254 . S
O5 Zn3 2.046 . S
O5 C4 1.254 . S
C6 O27 1.256 . S
C6 O28 1.244 . S
O7 Zn3 2.055 . S
O7 C29 1.259 . S
O8 Zn0 2.046 . S
O8 C29 1.254 . S
N9 Zn3 2.036 . S
N9 C10 1.298 . S
N9 N12 1.398 . S
C10 N9 1.298 . S
C10 N13 1.367 . S
C10 C23 1.481 . S
C11 N12 1.299 . S
C11 N13 1.379 . S
N12 N9 1.398 . S
N12 C11 1.299 . S
N13 C10 1.367 . S
N13 C11 1.379 . S
C14 N16 1.298 . S
C14 N18 1.367 . S
C14 C22 1.481 . S
C15 N17 1.299 . S
C15 N18 1.379 . S
N16 Zn0 2.036 . S
N16 C14 1.298 . S
N16 N17 1.398 . S
N17 C15 1.299 . S
N17 N16 1.398 . S
N18 C14 1.367 . S
N18 C15 1.379 . S
H19 C22 0.980 . S
H20 C22 0.981 . S
H21 C22 0.981 . S
C22 C14 1.481 . S
C22 H19 0.980 . S
C22 H20 0.981 . S
C22 H21 0.981 . S
C23 C10 1.481 . S
C23 H24 0.980 . S
C23 H25 0.981 . S
C23 H26 0.981 . S
H24 C23 0.980 . S
H25 C23 0.981 . S
H26 C23 0.981 . S
O27 Zn3 2.066 . S
O27 C6 1.256 . S
O28 Zn0 2.053 . S
O28 C6 1.244 . S
C29 O7 1.259 . S
C29 O8 1.254 . S
O30 Zn0 2.066 . S
O30 C2 1.256 . S
O31 C2 1.244 . S
O31 Zn3 2.053 . S
Zn32 O33 2.055 . S
Zn32 O40 2.046 . S
Zn32 N48 2.036 . S
Zn32 O60 2.053 . S
Zn32 O62 2.066 . S
O33 Zn32 2.055 . S
O33 C36 1.259 . S
C34 O62 1.256 . S
C34 O63 1.244 . S
Zn35 O37 2.046 . S
Zn35 O39 2.055 . S
Zn35 N41 2.036 . S
Zn35 O59 2.066 . S
Zn35 O63 2.053 . S
C36 O33 1.259 . S
C36 O37 1.254 . S
O37 Zn35 2.046 . S
O37 C36 1.254 . S
C38 O59 1.256 . S
C38 O60 1.244 . S
O39 Zn35 2.055 . S
O39 C61 1.259 . S
O40 Zn32 2.046 . S
O40 C61 1.254 . S
N41 Zn35 2.036 . S
N41 C42 1.298 . S
N41 N44 1.398 . S
C42 N41 1.298 . S
C42 N45 1.367 . S
C42 C55 1.500 . S
C43 N44 1.299 . S
C43 N45 1.379 . S
N44 N41 1.398 . S
N44 C43 1.299 . S
N45 C42 1.367 . S
N45 C43 1.379 . S
C46 N48 1.298 . S
C46 N50 1.367 1_655 S
C46 C54 1.481 . S
C47 N49 1.299 . S
C47 N50 1.379 . S
N48 Zn32 2.036 . S
N48 C46 1.298 . S
N48 N49 1.398 1_655 S
N49 C47 1.299 . S
N49 N48 1.398 1_455 S
N50 C46 1.367 1_455 S
N50 C47 1.379 . S
H51 C54 0.980 . S
H52 C54 0.981 . S
H53 C54 0.981 . S
C54 C46 1.481 . S
C54 H51 0.980 . S
C54 H52 0.981 . S
C54 H53 0.981 . S
C55 C42 1.500 . S
C55 H56 0.986 . S
C55 H57 0.972 1_545 S
C55 H58 0.966 1_545 S
H56 C55 0.986 . S
H57 C55 0.972 1_565 S
H58 C55 0.966 1_565 S
O59 Zn35 2.066 . S
O59 C38 1.256 . S
O60 Zn32 2.053 . S
O60 C38 1.244 . S
C61 O39 1.259 . S
C61 O40 1.254 . S
O62 Zn32 2.066 . S
O62 C34 1.256 . S
O63 C34 1.244 . S
O63 Zn35 2.053 . S
Zn64 O65 2.055 . S
Zn64 O72 2.046 . S
Zn64 N80 2.036 . S
Zn64 O92 2.053 . S
Zn64 O94 2.066 . S
O65 Zn64 2.055 . S
O65 C68 1.259 . S
C66 O94 1.256 . S
C66 O95 1.244 . S
Zn67 O69 2.046 . S
Zn67 O71 2.055 . S
Zn67 N73 2.036 . S
Zn67 O91 2.066 . S
Zn67 O95 2.053 . S
C68 O65 1.259 . S
C68 O69 1.254 . S
O69 Zn67 2.046 . S
O69 C68 1.254 . S
C70 O91 1.256 . S
C70 O92 1.244 . S
O71 Zn67 2.055 . S
O71 C93 1.259 . S
O72 Zn64 2.046 . S
O72 C93 1.254 . S
N73 Zn67 2.036 . S
N73 C74 1.298 . S
N73 N76 1.398 . S
C74 N73 1.298 . S
C74 N77 1.367 . S
C74 C87 1.481 . S
C75 N76 1.299 . S
C75 N77 1.379 . S
N76 N73 1.398 . S
N76 C75 1.299 . S
N77 C74 1.367 . S
N77 C75 1.379 . S
C78 N80 1.298 . S
C78 N82 1.367 1_455 S
C78 C86 1.481 . S
C79 N81 1.299 1_655 S
C79 N82 1.379 . S
N80 Zn64 2.036 . S
N80 C78 1.298 . S
N80 N81 1.398 . S
N81 C79 1.299 1_455 S
N81 N80 1.398 . S
N82 C78 1.367 1_655 S
N82 C79 1.379 . S
H83 C86 0.980 . S
H84 C86 0.981 . S
H85 C86 0.981 . S
C86 C78 1.481 . S
C86 H83 0.980 . S
C86 H84 0.981 . S
C86 H85 0.981 . S
C87 C74 1.481 . S
C87 H88 0.980 . S
C87 H89 0.981 . S
C87 H90 0.981 . S
H88 C87 0.980 . S
H89 C87 0.981 . S
H90 C87 0.981 . S
O91 Zn67 2.066 . S
O91 C70 1.256 . S
O92 Zn64 2.053 . S
O92 C70 1.244 . S
C93 O71 1.259 . S
C93 O72 1.254 . S
O94 Zn64 2.066 . S
O94 C66 1.256 . S
O95 C66 1.244 . S
O95 Zn67 2.053 . S
Zn96 O97 2.055 . S
Zn96 O104 2.046 . S
Zn96 N112 2.036 . S
Zn96 O124 2.053 . S
Zn96 O126 2.066 . S
O97 Zn96 2.055 . S
O97 C100 1.259 . S
C98 O126 1.256 . S
C98 O127 1.244 . S
Zn99 O101 2.046 . S
Zn99 O103 2.055 . S
Zn99 N105 2.036 . S
Zn99 O123 2.066 . S
Zn99 O127 2.053 . S
C100 O97 1.259 . S
C100 O101 1.254 . S
O101 Zn99 2.046 . S
O101 C100 1.254 . S
C102 O123 1.256 . S
C102 O124 1.244 . S
O103 Zn99 2.055 . S
O103 C125 1.259 . S
O104 Zn96 2.046 . S
O104 C125 1.254 . S
N105 Zn99 2.036 . S
N105 C106 1.298 . S
N105 N108 1.398 1_565 S
C106 N105 1.298 . S
C106 N109 1.367 1_565 S
C106 C119 1.481 . S
C107 N108 1.299 . S
C107 N109 1.379 . S
N108 N105 1.398 1_545 S
N108 C107 1.299 . S
N109 C106 1.367 1_545 S
N109 C107 1.379 . S
C110 N112 1.298 . S
C110 N114 1.367 . S
C110 C118 1.481 . S
C111 N113 1.299 . S
C111 N114 1.379 . S
N112 Zn96 2.036 . S
N112 C110 1.298 . S
N112 N113 1.398 . S
N113 C111 1.299 . S
N113 N112 1.398 . S
N114 C110 1.367 . S
N114 C111 1.379 . S
H115 C118 0.980 . S
H116 C118 0.981 . S
H117 C118 0.981 . S
C118 C110 1.481 . S
C118 H115 0.980 . S
C118 H116 0.981 . S
C118 H117 0.981 . S
C119 C106 1.481 . S
C119 H120 0.980 . S
C119 H121 0.981 . S
C119 H122 0.981 . S
H120 C119 0.980 . S
H121 C119 0.981 . S
H122 C119 0.981 . S
O123 Zn99 2.066 . S
O123 C102 1.256 . S
O124 Zn96 2.053 . S
O124 C102 1.244 . S
C125 O103 1.259 . S
C125 O104 1.254 . S
O126 Zn96 2.066 . S
O126 C98 1.256 . S
O127 C98 1.244 . S
O127 Zn99 2.053 . S
H128 C129 0.951 . S
C129 H128 0.951 . S
C129 C135 1.265 . S
H130 C135 0.950 . S
H131 C139 0.949 . S
H132 C140 0.950 . S
H133 C141 0.951 . S
H134 C142 0.951 1_556 S
C135 C129 1.265 . S
C135 H130 0.950 . S
C135 C136 1.478 1_556 S
C136 C135 1.478 1_554 S
C136 C137 1.397 . S
C136 C153 1.394 . S
C137 C136 1.397 . S
C137 C138 1.438 . S
C137 C142 1.429 . S
C138 C137 1.438 . S
C138 C139 1.428 . S
C138 C151 1.394 . S
C139 H131 0.949 . S
C139 C138 1.428 . S
C139 C140 1.345 . S
C140 H132 0.950 . S
C140 C139 1.345 . S
C140 C141 1.424 . S
C141 H133 0.951 . S
C141 C140 1.424 . S
C141 C142 1.347 . S
C142 H134 0.951 1_554 S
C142 C137 1.429 . S
C142 C141 1.347 . S
H143 C144 0.951 . S
C144 H143 0.951 . S
C144 C150 1.265 . S
H145 C150 0.950 . S
H146 C154 0.949 1_556 S
H147 C155 0.950 . S
H148 C156 0.951 . S
H149 C157 0.951 . S
C150 C144 1.265 . S
C150 H145 0.950 . S
C150 C151 1.478 . S
C151 C138 1.394 . S
C151 C150 1.478 . S
C151 C152 1.397 . S
C152 C151 1.397 . S
C152 C153 1.438 . S
C152 C157 1.429 . S
C153 C136 1.394 . S
C153 C152 1.438 . S
C153 C154 1.428 . S
C154 H146 0.949 1_554 S
C154 C153 1.428 . S
C154 C155 1.345 . S
C155 H147 0.950 . S
C155 C154 1.345 . S
C155 C156 1.424 . S
C156 H148 0.951 . S
C156 C155 1.424 . S
C156 C157 1.347 . S
C157 H149 0.951 . S
C157 C152 1.429 . S
C157 C156 1.347 . S
H158 C159 0.951 . S
C159 H158 0.951 . S
C159 C165 1.265 . S
H160 C165 0.950 . S
H161 C169 0.949 . S
H162 C170 0.950 . S
H163 C171 0.951 . S
H164 C172 0.951 . S
C165 C159 1.265 . S
C165 H160 0.950 . S
C165 C166 1.478 . S
C166 C165 1.478 . S
C166 C167 1.397 . S
C166 C183 1.394 1_565 S
C167 C166 1.397 . S
C167 C168 1.438 . S
C167 C172 1.429 . S
C168 C167 1.438 . S
C168 C169 1.428 . S
C168 C181 1.394 1_565 S
C169 H161 0.949 . S
C169 C168 1.428 . S
C169 C170 1.345 . S
C170 H162 0.950 . S
C170 C169 1.345 . S
C170 C171 1.424 . S
C171 H163 0.951 . S
C171 C170 1.424 . S
C171 C172 1.347 . S
C172 H164 0.951 . S
C172 C167 1.429 . S
C172 C171 1.347 . S
H173 C174 0.951 1_565 S
C174 H173 0.951 1_545 S
C174 C180 1.265 . S
H175 C180 0.950 . S
H176 C184 0.949 . S
H177 C185 0.950 . S
H178 C186 0.951 . S
H179 C187 0.951 . S
C180 C174 1.265 . S
C180 H175 0.950 . S
C180 C181 1.478 . S
C181 C168 1.394 1_545 S
C181 C180 1.478 . S
C181 C182 1.397 . S
C182 C181 1.397 . S
C182 C183 1.438 . S
C182 C187 1.429 . S
C183 C166 1.394 1_545 S
C183 C182 1.438 . S
C183 C184 1.428 . S
C184 H176 0.949 . S
C184 C183 1.428 . S
C184 C185 1.345 . S
C185 H177 0.950 . S
C185 C184 1.345 . S
C185 C186 1.424 . S
C186 H178 0.951 . S
C186 C185 1.424 . S
C186 C187 1.347 . S
C187 H179 0.951 . S
C187 C182 1.429 . S
C187 C186 1.347 . S
H188 C189 0.951 . S
C189 H188 0.951 . S
C189 C195 1.265 . S
H190 C195 0.950 . S
H191 C199 0.949 . S
H192 C200 0.950 . S
H193 C201 0.951 . S
H194 C202 0.951 . S
C195 C189 1.265 . S
C195 H190 0.950 . S
C195 C196 1.478 . S
C196 C195 1.478 . S
C196 C197 1.397 . S
C196 C213 1.394 . S
C197 C196 1.397 . S
C197 C198 1.438 . S
C197 C202 1.429 . S
C198 C197 1.438 . S
C198 C199 1.428 . S
C198 C211 1.394 . S
C199 H191 0.949 . S
C199 C198 1.428 . S
C199 C200 1.345 . S
C200 H192 0.950 . S
C200 C199 1.345 . S
C200 C201 1.424 . S
C201 H193 0.951 . S
C201 C200 1.424 . S
C201 C202 1.347 . S
C202 H194 0.951 . S
C202 C197 1.429 . S
C202 C201 1.347 . S
H203 C204 0.951 . S
C204 H203 0.951 . S
C204 C210 1.265 . S
H205 C210 0.950 . S
H206 C214 0.949 . S
H207 C215 0.950 . S
H208 C216 0.951 . S
H209 C217 0.951 . S
C210 C204 1.265 . S
C210 H205 0.950 . S
C210 C211 1.478 . S
C211 C198 1.394 . S
C211 C210 1.478 . S
C211 C212 1.397 . S
C212 C211 1.397 . S
C212 C213 1.438 . S
C212 C217 1.429 . S
C213 C196 1.394 . S
C213 C212 1.438 . S
C213 C214 1.428 . S
C214 H206 0.949 . S
C214 C213 1.428 . S
C214 C215 1.345 . S
C215 H207 0.950 . S
C215 C214 1.345 . S
C215 C216 1.424 . S
C216 H208 0.951 . S
C216 C215 1.424 . S
C216 C217 1.347 . S
C217 H209 0.951 . S
C217 C212 1.429 . S
C217 C216 1.347 . S
H218 C219 0.951 . S
C219 H218 0.951 . S
C219 C225 1.265 . S
H220 C225 0.950 . S
H221 C229 0.949 . S
H222 C230 0.950 . S
H223 C231 0.951 . S
H224 C232 0.951 1_554 S
C225 C219 1.265 . S
C225 H220 0.950 . S
C225 C226 1.478 1_554 S
C226 C225 1.478 1_556 S
C226 C227 1.397 . S
C226 C243 1.394 1_565 S
C227 C226 1.397 . S
C227 C228 1.438 . S
C227 C232 1.429 . S
C228 C227 1.438 . S
C228 C229 1.428 . S
C228 C241 1.394 1_565 S
C229 H221 0.949 . S
C229 C228 1.428 . S
C229 C230 1.345 . S
C230 H222 0.950 . S
C230 C229 1.345 . S
C230 C231 1.424 . S
C231 H223 0.951 . S
C231 C230 1.424 . S
C231 C232 1.347 . S
C232 H224 0.951 1_556 S
C232 C227 1.429 . S
C232 C231 1.347 . S
H233 C234 0.951 . S
C234 H233 0.951 . S
C234 C240 1.265 . S
H235 C240 0.950 . S
H236 C244 0.949 1_554 S
H237 C245 0.950 . S
H238 C246 0.951 . S
H239 C247 0.951 . S
C240 C234 1.265 . S
C240 H235 0.950 . S
C240 C241 1.478 . S
C241 C228 1.394 1_545 S
C241 C240 1.478 . S
C241 C242 1.397 . S
C242 C241 1.397 . S
C242 C243 1.438 . S
C242 C247 1.429 . S
C243 C226 1.394 1_545 S
C243 C242 1.438 . S
C243 C244 1.428 . S
C244 H236 0.949 1_556 S
C244 C243 1.428 . S
C244 C245 1.345 . S
C245 H237 0.950 . S
C245 C244 1.345 . S
C245 C246 1.424 . S
C246 H238 0.951 . S
C246 C245 1.424 . S
C246 C247 1.347 . S
C247 H239 0.951 . S
C247 C242 1.429 . S
C247 C246 1.347 . S
H248 C249 0.951 . S
C249 H248 0.951 . S
C249 C255 1.265 . S
H250 C255 0.950 . S
H251 C259 0.949 . S
H252 C260 0.950 . S
H253 C261 0.951 . S
H254 C262 0.951 . S
C255 C249 1.265 . S
C255 H250 0.950 . S
C255 C256 1.478 . S
C256 C255 1.478 . S
C256 C257 1.397 . S
C256 C273 1.394 . S
C257 C256 1.397 . S
C257 C258 1.438 . S
C257 C262 1.429 . S
C258 C257 1.438 . S
C258 C259 1.428 . S
C258 C271 1.394 . S
C259 H251 0.949 . S
C259 C258 1.428 . S
C259 C260 1.345 . S
C260 H252 0.950 . S
C260 C259 1.345 . S
C260 C261 1.424 . S
C261 H253 0.951 . S
C261 C260 1.424 . S
C261 C262 1.347 . S
C262 H254 0.951 . S
C262 C257 1.429 . S
C262 C261 1.347 . S
H263 C264 0.951 . S
C264 H263 0.951 . S
C264 C270 1.265 . S
H265 C270 0.950 . S
H266 C274 0.949 . S
H267 C275 0.950 . S
H268 C276 0.951 . S
H269 C277 0.951 . S
C270 C264 1.265 . S
C270 H265 0.950 . S
C270 C271 1.478 . S
C271 C258 1.394 . S
C271 C270 1.478 . S
C271 C272 1.397 . S
C272 C271 1.397 . S
C272 C273 1.438 . S
C272 C277 1.429 . S
C273 C256 1.394 . S
C273 C272 1.438 . S
C273 C274 1.428 . S
C274 H266 0.949 . S
C274 C273 1.428 . S
C274 C275 1.345 . S
C275 H267 0.950 . S
C275 C274 1.345 . S
C275 C276 1.424 . S
C276 H268 0.951 . S
C276 C275 1.424 . S
C276 C277 1.347 . S
C277 H269 0.951 . S
C277 C272 1.429 . S
C277 C276 1.347 . S
H278 C279 0.951 . S
C279 H278 0.951 . S
C279 C285 1.265 . S
H280 C285 0.950 . S
H281 C289 0.949 . S
H282 C290 0.950 . S
H283 C291 0.951 . S
H284 C292 0.951 . S
C285 C279 1.265 . S
C285 H280 0.950 . S
C285 C286 1.478 . S
C286 C285 1.478 . S
C286 C287 1.397 . S
C286 C303 1.394 . S
C287 C286 1.397 . S
C287 C288 1.438 1_455 S
C287 C292 1.429 1_455 S
C288 C287 1.438 1_655 S
C288 C289 1.428 . S
C288 C301 1.394 1_655 S
C289 H281 0.949 . S
C289 C288 1.428 . S
C289 C290 1.345 . S
C290 H282 0.950 . S
C290 C289 1.345 . S
C290 C291 1.424 . S
C291 H283 0.951 . S
C291 C290 1.424 . S
C291 C292 1.347 . S
C292 H284 0.951 . S
C292 C287 1.429 1_655 S
C292 C291 1.347 . S
H293 C294 0.951 1_565 S
C294 H293 0.951 1_545 S
C294 C300 1.265 1_645 S
H295 C300 0.950 1_545 S
H296 C304 0.949 . S
H297 C305 0.950 . S
H298 C306 0.951 . S
H299 C307 0.951 . S
C300 C294 1.265 1_465 S
C300 H295 0.950 1_565 S
C300 C301 1.478 . S
C301 C288 1.394 1_455 S
C301 C300 1.478 . S
C301 C302 1.397 . S
C302 C301 1.397 . S
C302 C303 1.438 . S
C302 C307 1.429 . S
C303 C286 1.394 . S
C303 C302 1.438 . S
C303 C304 1.428 . S
C304 H296 0.949 . S
C304 C303 1.428 . S
C304 C305 1.345 . S
C305 H297 0.950 . S
C305 C304 1.345 . S
C305 C306 1.424 . S
C306 H298 0.951 . S
C306 C305 1.424 . S
C306 C307 1.347 . S
C307 H299 0.951 . S
C307 C302 1.429 . S
C307 C306 1.347 . S
H308 C309 0.951 . S
C309 H308 0.951 . S
C309 C315 1.265 . S
H310 C315 0.950 . S
H311 C319 0.949 . S
H312 C320 0.950 . S
H313 C321 0.951 . S
H314 C322 0.951 . S
C315 C309 1.265 . S
C315 H310 0.950 . S
C315 C316 1.478 . S
C316 C315 1.478 . S
C316 C317 1.397 . S
C316 C333 1.394 . S
C317 C316 1.397 . S
C317 C318 1.438 1_556 S
C317 C322 1.429 . S
C318 C317 1.438 1_554 S
C318 C319 1.428 . S
C318 C331 1.394 1_554 S
C319 H311 0.949 . S
C319 C318 1.428 . S
C319 C320 1.345 . S
C320 H312 0.950 . S
C320 C319 1.345 . S
C320 C321 1.424 . S
C321 H313 0.951 . S
C321 C320 1.424 . S
C321 C322 1.347 1_554 S
C322 H314 0.951 . S
C322 C317 1.429 . S
C322 C321 1.347 1_556 S
H323 C324 0.951 . S
C324 H323 0.951 . S
C324 C330 1.265 . S
H325 C330 0.950 1_556 S
H326 C334 0.949 . S
H327 C335 0.950 . S
H328 C336 0.951 . S
H329 C337 0.951 . S
C330 C324 1.265 . S
C330 H325 0.950 1_554 S
C330 C331 1.478 1_554 S
C331 C318 1.394 1_556 S
C331 C330 1.478 1_556 S
C331 C332 1.397 . S
C332 C331 1.397 . S
C332 C333 1.438 . S
C332 C337 1.429 . S
C333 C316 1.394 . S
C333 C332 1.438 . S
C333 C334 1.428 . S
C334 H326 0.949 . S
C334 C333 1.428 . S
C334 C335 1.345 . S
C335 H327 0.950 . S
C335 C334 1.345 . S
C335 C336 1.424 . S
C336 H328 0.951 . S
C336 C335 1.424 . S
C336 C337 1.347 . S
C337 H329 0.951 . S
C337 C332 1.429 . S
C337 C336 1.347 . S
H338 C339 0.951 . S
C339 H338 0.951 . S
C339 C345 1.265 . S
H340 C345 0.950 . S
H341 C349 0.949 . S
H342 C350 0.950 . S
H343 C351 0.951 . S
H344 C352 0.951 . S
C345 C339 1.265 . S
C345 H340 0.950 . S
C345 C346 1.478 . S
C346 C345 1.478 . S
C346 C347 1.397 . S
C346 C363 1.394 . S
C347 C346 1.397 . S
C347 C348 1.438 . S
C347 C352 1.429 . S
C348 C347 1.438 . S
C348 C349 1.428 . S
C348 C361 1.394 . S
C349 H341 0.949 . S
C349 C348 1.428 . S
C349 C350 1.345 . S
C350 H342 0.950 . S
C350 C349 1.345 . S
C350 C351 1.424 . S
C351 H343 0.951 . S
C351 C350 1.424 . S
C351 C352 1.347 . S
C352 H344 0.951 . S
C352 C347 1.429 . S
C352 C351 1.347 . S
H353 C354 0.951 . S
C354 H353 0.951 . S
C354 C360 1.265 . S
H355 C360 0.950 . S
H356 C364 0.949 . S
H357 C365 0.950 . S
H358 C366 0.951 . S
H359 C367 0.951 . S
C360 C354 1.265 . S
C360 H355 0.950 . S
C360 C361 1.478 . S
C361 C348 1.394 . S
C361 C360 1.478 . S
C361 C362 1.397 . S
C362 C361 1.397 . S
C362 C363 1.438 . S
C362 C367 1.429 . S
C363 C346 1.394 . S
C363 C362 1.438 . S
C363 C364 1.428 . S
C364 H356 0.949 . S
C364 C363 1.428 . S
C364 C365 1.345 . S
C365 H357 0.950 . S
C365 C364 1.345 . S
C365 C366 1.424 . S
C366 H358 0.951 . S
C366 C365 1.424 . S
C366 C367 1.347 . S
C367 H359 0.951 . S
C367 C362 1.429 . S
C367 C366 1.347 . S
H368 C369 0.951 . S
C369 H368 0.951 . S
C369 C375 1.265 . S
H370 C375 0.950 . S
H371 C379 0.949 . S
H372 C380 0.950 . S
H373 C381 0.951 . S
H374 C382 0.951 . S
C375 C369 1.265 . S
C375 H370 0.950 . S
C375 C376 1.478 . S
C376 C375 1.478 . S
C376 C377 1.397 . S
C376 C393 1.394 . S
C377 C376 1.397 . S
C377 C378 1.438 . S
C377 C382 1.429 . S
C378 C377 1.438 . S
C378 C379 1.428 . S
C378 C391 1.394 . S
C379 H371 0.949 . S
C379 C378 1.428 . S
C379 C380 1.345 . S
C380 H372 0.950 . S
C380 C379 1.345 . S
C380 C381 1.424 . S
C381 H373 0.951 . S
C381 C380 1.424 . S
C381 C382 1.347 . S
C382 H374 0.951 . S
C382 C377 1.429 . S
C382 C381 1.347 . S
H383 C384 0.951 . S
C384 H383 0.951 . S
C384 C390 1.265 . S
H385 C390 0.950 . S
H386 C394 0.949 . S
H387 C395 0.950 . S
H388 C396 0.951 . S
H389 C397 0.951 . S
C390 C384 1.265 . S
C390 H385 0.950 . S
C390 C391 1.478 . S
C391 C378 1.394 . S
C391 C390 1.478 . S
C391 C392 1.397 . S
C392 C391 1.397 . S
C392 C393 1.438 . S
C392 C397 1.429 . S
C393 C376 1.394 . S
C393 C392 1.438 . S
C393 C394 1.428 . S
C394 H386 0.949 . S
C394 C393 1.428 . S
C394 C395 1.345 . S
C395 H387 0.950 . S
C395 C394 1.345 . S
C395 C396 1.424 . S
C396 H388 0.951 . S
C396 C395 1.424 . S
C396 C397 1.347 . S
C397 H389 0.951 . S
C397 C392 1.429 . S
C397 C396 1.347 . S
H398 C399 0.940 1_655 S
C399 H398 0.940 1_455 S
C399 C405 1.265 . S
H400 C405 0.950 . S
H401 C409 0.949 . S
H402 C410 0.950 . S
H403 C411 0.951 . S
H404 C412 0.951 . S
C405 C399 1.265 . S
C405 H400 0.950 . S
C405 C406 1.478 . S
C406 C405 1.478 . S
C406 C407 1.397 . S
C406 C423 1.394 . S
C407 C406 1.397 . S
C407 C408 1.438 1_455 S
C407 C412 1.429 . S
C408 C407 1.438 1_655 S
C408 C409 1.428 . S
C408 C421 1.394 . S
C409 H401 0.949 . S
C409 C408 1.428 . S
C409 C410 1.345 1_655 S
C410 H402 0.950 . S
C410 C409 1.345 1_455 S
C410 C411 1.424 . S
C411 H403 0.951 . S
C411 C410 1.424 . S
C411 C412 1.347 . S
C412 H404 0.951 . S
C412 C407 1.429 . S
C412 C411 1.347 . S
H413 C414 0.951 . S
C414 H413 0.951 . S
C414 C420 1.265 . S
H415 C420 0.950 . S
H416 C424 0.949 . S
H417 C425 0.950 . S
H418 C426 0.951 . S
H419 C427 0.951 . S
C420 C414 1.265 . S
C420 H415 0.950 . S
C420 C421 1.478 . S
C421 C408 1.394 . S
C421 C420 1.478 . S
C421 C422 1.397 . S
C422 C421 1.397 . S
C422 C423 1.438 1_655 S
C422 C427 1.429 . S
C423 C406 1.394 . S
C423 C422 1.438 1_455 S
C423 C424 1.428 . S
C424 H416 0.949 . S
C424 C423 1.428 . S
C424 C425 1.345 1_455 S
C425 H417 0.950 . S
C425 C424 1.345 1_655 S
C425 C426 1.424 . S
C426 H418 0.951 . S
C426 C425 1.424 . S
C426 C427 1.347 . S
C427 H419 0.951 . S
C427 C422 1.429 . S
C427 C426 1.347 . S
H428 C429 0.951 . S
C429 H428 0.951 . S
C429 C435 1.265 . S
H430 C435 0.950 . S
H431 C439 0.949 . S
H432 C440 0.950 . S
H433 C441 0.951 . S
H434 C442 0.951 . S
C435 C429 1.265 . S
C435 H430 0.950 . S
C435 C436 1.478 . S
C436 C435 1.478 . S
C436 C437 1.397 . S
C436 C453 1.394 1_556 S
C437 C436 1.397 . S
C437 C438 1.438 1_556 S
C437 C442 1.429 . S
C438 C437 1.438 1_554 S
C438 C439 1.428 . S
C438 C451 1.394 . S
C439 H431 0.949 . S
C439 C438 1.428 . S
C439 C440 1.345 1_554 S
C440 H432 0.950 . S
C440 C439 1.345 1_556 S
C440 C441 1.424 . S
C441 H433 0.951 . S
C441 C440 1.424 . S
C441 C442 1.347 . S
C442 H434 0.951 . S
C442 C437 1.429 . S
C442 C441 1.347 . S
H443 C444 0.951 . S
C444 H443 0.951 . S
C444 C450 1.265 . S
H445 C450 0.950 . S
H446 C454 0.949 . S
H447 C455 0.950 . S
H448 C456 0.951 . S
H449 C457 0.951 . S
C450 C444 1.265 . S
C450 H445 0.950 . S
C450 C451 1.478 . S
C451 C438 1.394 . S
C451 C450 1.478 . S
C451 C452 1.397 . S
C452 C451 1.397 . S
C452 C453 1.438 . S
C452 C457 1.429 . S
C453 C436 1.394 1_554 S
C453 C452 1.438 . S
C453 C454 1.428 . S
C454 H446 0.949 . S
C454 C453 1.428 . S
C454 C455 1.345 . S
C455 H447 0.950 . S
C455 C454 1.345 . S
C455 C456 1.424 . S
C456 H448 0.951 . S
C456 C455 1.424 . S
C456 C457 1.347 . S
C457 H449 0.951 . S
C457 C452 1.429 . S
C457 C456 1.347 . S
H458 C459 0.951 . S
C459 H458 0.951 . S
C459 C465 1.265 . S
H460 C465 0.950 . S
H461 C469 0.949 . S
H462 C470 0.950 . S
H463 C471 0.951 . S
H464 C472 0.951 . S
C465 C459 1.265 . S
C465 H460 0.950 . S
C465 C466 1.478 . S
C466 C465 1.478 . S
C466 C467 1.397 . S
C466 C483 1.394 . S
C467 C466 1.397 . S
C467 C468 1.438 . S
C467 C472 1.429 . S
C468 C467 1.438 . S
C468 C469 1.428 . S
C468 C481 1.394 . S
C469 H461 0.949 . S
C469 C468 1.428 . S
C469 C470 1.345 . S
C470 H462 0.950 . S
C470 C469 1.345 . S
C470 C471 1.424 . S
C471 H463 0.951 . S
C471 C470 1.424 . S
C471 C472 1.347 . S
C472 H464 0.951 . S
C472 C467 1.429 . S
C472 C471 1.347 . S
H473 C474 0.951 . S
C474 H473 0.951 . S
C474 C480 1.265 . S
H475 C480 0.950 . S
H476 C484 0.949 . S
H477 C485 0.950 . S
H478 C486 0.951 . S
H479 C487 0.951 . S
C480 C474 1.265 . S
C480 H475 0.950 . S
C480 C481 1.478 . S
C481 C468 1.394 . S
C481 C480 1.478 . S
C481 C482 1.397 . S
C482 C481 1.397 . S
C482 C483 1.438 . S
C482 C487 1.429 . S
C483 C466 1.394 . S
C483 C482 1.438 . S
C483 C484 1.428 . S
C484 H476 0.949 . S
C484 C483 1.428 . S
C484 C485 1.345 . S
C485 H477 0.950 . S
C485 C484 1.345 . S
C485 C486 1.424 . S
C486 H478 0.951 . S
C486 C485 1.424 . S
C486 C487 1.347 . S
C487 H479 0.951 . S
C487 C482 1.429 . S
C487 C486 1.347 . S
C129 C93 1.256 . S
C144 N18 1.273 . S
C159 C102 1.648 . S
C174 C61 1.579 . S
C189 N77 0.928 . S
C204 C4 0.930 . S
C219 C98 1.487 . S
C234 N45 1.424 . S
C249 N50 1.109 . S
C264 C29 1.118 . S
C279 C66 1.887 . S
C294 C38 1.901 . S
C309 C68 1.196 . S
C324 C100 1.204 . S
C339 C6 1.479 . S
C354 N109 1.392 . S
C369 C36 1.121 . S
C384 N13 1.118 . S
C399 C70 2.212 . S
C414 C34 2.191 . S
C429 N82 0.983 . S
C444 N114 1.052 . S
C459 C125 1.433 . S
C474 C2 1.517 . S
