# Generated by pormake.
# Topology wjh, (4)-cn, num edge types: 1
# Building blocks:
#     Node 0, Type 0, BuildingBlock: UXUYUI_clean_sbu_0, # of connection points: 4
#     Node 1, Type 0, BuildingBlock: UXUYUI_clean_sbu_0, # of connection points: 4
#     Node 2, Type 0, BuildingBlock: UXUYUI_clean_sbu_0, # of connection points: 4
#     Node 3, Type 0, BuildingBlock: UXUYUI_clean_sbu_0, # of connection points: 4
#     Node 4, Type 0, BuildingBlock: UXUYUI_clean_sbu_0, # of connection points: 4
#     Node 5, Type 0, BuildingBlock: UXUYUI_clean_sbu_0, # of connection points: 4
#     Node 6, Type 0, BuildingBlock: UXUYUI_clean_sbu_0, # of connection points: 4
#     Node 7, Type 0, BuildingBlock: UXUYUI_clean_sbu_0, # of connection points: 4
#     Node 8, Type 0, BuildingBlock: UXUYUI_clean_sbu_0, # of connection points: 4
#     Node 9, Type 0, BuildingBlock: UXUYUI_clean_sbu_0, # of connection points: 4
#     Node 10, Type 0, BuildingBlock: UXUYUI_clean_sbu_0, # of connection points: 4
#     Node 11, Type 0, BuildingBlock: UXUYUI_clean_sbu_0, # of connection points: 4
#     Edge 12, Type (0, 0), None
#     Edge 13, Type (0, 0), None
#     Edge 14, Type (0, 0), None
#     Edge 15, Type (0, 0), None
#     Edge 16, Type (0, 0), None
#     Edge 17, Type (0, 0), None
#     Edge 18, Type (0, 0), None
#     Edge 19, Type (0, 0), None
#     Edge 20, Type (0, 0), None
#     Edge 21, Type (0, 0), None
#     Edge 22, Type (0, 0), None
#     Edge 23, Type (0, 0), None
#     Edge 24, Type (0, 0), None
#     Edge 25, Type (0, 0), None
#     Edge 26, Type (0, 0), None
#     Edge 27, Type (0, 0), None
#     Edge 28, Type (0, 0), None
#     Edge 29, Type (0, 0), None
#     Edge 30, Type (0, 0), None
#     Edge 31, Type (0, 0), None
#     Edge 32, Type (0, 0), None
#     Edge 33, Type (0, 0), None
#     Edge 34, Type (0, 0), None
#     Edge 35, Type (0, 0), None
# Relax obj value: 0.245
# Max RMSD: 0.173
# Mean RMSD: 0.173
data_MOF--net-wjh--node1-UXUYUI_clean_sbu_0--edge1-none
_symmetry_space_group_name_H-M    P1
_symmetry_Int_Tables_number       1
_symmetry_cell_setting            triclinic
loop_
_symmetry_equiv_pos_as_xyz
'x, y, z'
_cell_length_a     56.989199
_cell_length_b     57.00078
_cell_length_c     22.68771
_cell_angle_alpha  90.000848
_cell_angle_beta   89.999298
_cell_angle_gamma 119.99337
loop_
_atom_site_label
_atom_site_type_symbol
_atom_site_fract_x
_atom_site_fract_y
_atom_site_fract_z
_atom_type_partial_charge
Li0 Li 0.47273 0.10764 0.06508 0.0
Li1 Li 0.51685 0.13754 0.12282 0.0
Li2 Li 0.49183 0.15601 0.07862 0.0
Li3 Li 0.51526 0.14213 0.01242 0.0
C4 C 0.46351 0.13098 0.18071 0.0
N5 N 0.43233 0.13908 0.26256 0.0
C6 C 0.47197 0.1367 0.2394 0.0
C7 C 0.439 0.129 0.1639 0.0
C8 C 0.45597 0.14082 0.28006 0.0
C9 C 0.42358 0.13327 0.20583 0.0
C10 C 0.52691 0.10245 0.0409 0.0
C11 C 0.57298 0.11267 0.02628 0.0
N12 N 0.56372 0.08885 0.99689 0.0
C13 C 0.51783 0.07805 0.01069 0.0
C14 C 0.55468 0.1199 0.04893 0.0
C15 C 0.53678 0.07154 0.98874 0.0
C16 C 0.44021 0.05637 0.01399 0.0
N17 N 0.44339 0.07149 0.06275 0.0
C18 C 0.4111 0.03227 0.11572 0.0
C19 C 0.42888 0.06019 0.11265 0.0
C20 C 0.4085 0.01578 0.06719 0.0
C21 C 0.42278 0.02834 0.0152 0.0
H22 H 0.45241 0.06587 0.97531 0.0
H23 H 0.43211 0.07264 0.15111 0.0
C24 C 0.54641 0.15915 0.22582 0.0
N25 N 0.53645 0.13738 0.18934 0.0
C26 C 0.55973 0.15952 0.27758 0.0
C27 C 0.55156 0.11464 0.2541 0.0
C28 C 0.53862 0.11526 0.20237 0.0
C29 C 0.56233 0.13702 0.29227 0.0
H30 H 0.54324 0.17584 0.21558 0.0
H31 H 0.52996 0.098 0.17303 0.0
C32 C 0.45995 0.13954 0.97304 0.0
N33 N 0.42435 0.1496 0.91028 0.0
C34 C 0.4692 0.15748 0.92535 0.0
C35 C 0.43244 0.12605 0.98754 0.0
C36 C 0.45093 0.16247 0.89451 0.0
C37 C 0.4148 0.1316 0.95565 0.0
C38 C 0.54167 0.19772 0.06548 0.0
C39 C 0.53544 0.20676 0.01379 0.0
C40 C 0.55722 0.21646 0.109 0.0
C41 C 0.54423 0.23429 0.00705 0.0
C42 C 0.56565 0.24384 0.10067 0.0
N43 N 0.55898 0.25211 0.05034 0.0
C44 C 0.49369 0.1946 0.15494 0.0
C45 C 0.47196 0.19475 0.06606 0.0
C46 C 0.49108 0.21594 0.17733 0.0
N47 N 0.48407 0.18427 0.10043 0.0
C48 C 0.46948 0.21664 0.0863 0.0
C49 C 0.47913 0.22743 0.14265 0.0
H50 H 0.50412 0.18665 0.1806 0.0
H51 H 0.46487 0.18673 0.02254 0.0
C52 C 0.52515 0.12483 0.90382 0.0
N53 N 0.53548 0.14613 0.94182 0.0
C54 C 0.54025 0.12493 0.85518 0.0
C55 C 0.57588 0.16947 0.88387 0.0
C56 C 0.5603 0.16828 0.93271 0.0
C57 C 0.56606 0.14738 0.84494 0.0
H58 H 0.50546 0.10738 0.91238 0.0
H59 H 0.56831 0.18474 0.96413 0.0
O60 O 0.47916 0.12727 0.14015 0.0
O61 O 0.50877 0.10965 0.06096 0.0
O62 O 0.47749 0.13422 0.00343 0.0
O63 O 0.53227 0.17062 0.07348 0.0
H64 H 0.49073 0.13802 0.25341 0.0
H65 H 0.43211 0.12453 0.11887 0.0
H66 H 0.46236 0.14541 0.32554 0.0
H67 H 0.40467 0.13202 0.19325 0.0
H68 H 0.59453 0.12603 0.0319 0.0
H69 H 0.49641 0.06439 0.00391 0.0
H70 H 0.56201 0.13898 0.0718 0.0
H71 H 0.53007 0.05277 0.96508 0.0
H72 H 0.4003 0.02358 0.15642 0.0
H73 H 0.42184 0.01654 0.97697 0.0
H74 H 0.56733 0.17693 0.30653 0.0
H75 H 0.55327 0.09696 0.26402 0.0
H76 H 0.49021 0.16729 0.91194 0.0
H77 H 0.42471 0.11117 0.02248 0.0
H78 H 0.45786 0.17648 0.85784 0.0
H79 H 0.39349 0.12145 0.9667 0.0
H80 H 0.52371 0.19259 0.97953 0.0
H81 H 0.56274 0.21003 0.14883 0.0
H82 H 0.53928 0.24148 0.96745 0.0
H83 H 0.57749 0.25852 0.13422 0.0
H84 H 0.49939 0.22413 0.22034 0.0
H85 H 0.46039 0.22525 0.05806 0.0
H86 H 0.53187 0.10759 0.82592 0.0
H87 H 0.59577 0.18705 0.87769 0.0
Li88 Li 0.38007 0.51652 0.28935 0.0
Li89 Li 0.36584 0.47242 0.23159 0.0
Li90 Li 0.3739 0.51497 0.17894 0.0
Li91 Li 0.3366 0.49155 0.24517 0.0
C92 C 0.42526 0.52663 0.20772 0.0
N93 N 0.47579 0.56354 0.16441 0.0
C94 C 0.44073 0.51762 0.17787 0.0
C95 C 0.43549 0.55438 0.21574 0.0
C96 C 0.46624 0.53661 0.15627 0.0
C97 C 0.46108 0.57273 0.19345 0.0
C98 C 0.33329 0.46324 0.34726 0.0
C99 C 0.29103 0.42337 0.37243 0.0
N100 N 0.294 0.43214 0.42915 0.0
C101 C 0.33606 0.47172 0.40594 0.0
C102 C 0.31074 0.43875 0.33048 0.0
C103 C 0.31593 0.45576 0.44662 0.0
C104 C 0.38805 0.54612 0.39229 0.0
N105 N 0.39985 0.53611 0.35588 0.0
C106 C 0.43766 0.55117 0.42072 0.0
C107 C 0.4241 0.53823 0.36898 0.0
C108 C 0.42606 0.56198 0.45881 0.0
C109 C 0.40099 0.55943 0.44405 0.0
H110 H 0.3682 0.54298 0.38199 0.0
H111 H 0.43269 0.52953 0.33971 0.0
C112 C 0.38472 0.44001 0.18052 0.0
N113 N 0.37265 0.44308 0.2292 0.0
C114 C 0.39531 0.42257 0.1817 0.0
C115 C 0.37947 0.41068 0.28202 0.0
C116 C 0.36932 0.42847 0.27898 0.0
C117 C 0.39347 0.40818 0.23358 0.0
H118 H 0.3875 0.45229 0.14193 0.0
H119 H 0.36002 0.43162 0.31739 0.0
C120 C 0.34475 0.5414 0.23206 0.0
N121 N 0.30769 0.55876 0.21699 0.0
C122 C 0.32938 0.53509 0.18049 0.0
C123 C 0.34165 0.55704 0.27551 0.0
C124 C 0.31066 0.54391 0.17378 0.0
C125 C 0.32271 0.5655 0.26721 0.0
C126 C 0.32116 0.45964 0.13964 0.0
C127 C 0.31242 0.46885 0.09197 0.0
C128 C 0.30718 0.43215 0.15421 0.0
C129 C 0.28913 0.45055 0.06122 0.0
C130 C 0.28398 0.41448 0.12241 0.0
N131 N 0.27547 0.42398 0.07706 0.0
C132 C 0.40128 0.52494 0.07057 0.0
C133 C 0.39265 0.55993 0.09904 0.0
C134 C 0.41628 0.54005 0.02194 0.0
N135 N 0.39015 0.53519 0.10836 0.0
C136 C 0.40705 0.57551 0.0502 0.0
C137 C 0.41947 0.56577 0.01149 0.0
H138 H 0.39916 0.50531 0.07929 0.0
H139 H 0.38407 0.56788 0.13028 0.0
C140 C 0.2999 0.49347 0.3215 0.0
N141 N 0.30058 0.48381 0.26702 0.0
C142 C 0.27596 0.49087 0.34395 0.0
C143 C 0.2536 0.46921 0.253 0.0
C144 C 0.27797 0.47168 0.23272 0.0
C145 C 0.2525 0.47889 0.30934 0.0
H146 H 0.3183 0.50392 0.34712 0.0
H147 H 0.27888 0.46456 0.18922 0.0
O148 O 0.39988 0.50844 0.22744 0.0
O149 O 0.35266 0.47885 0.30668 0.0
O150 O 0.36243 0.53197 0.24004 0.0
O151 O 0.34403 0.47721 0.16995 0.0
H152 H 0.43304 0.4962 0.1711 0.0
H153 H 0.42363 0.56166 0.23834 0.0
H154 H 0.47841 0.52995 0.13289 0.0
H155 H 0.4692 0.59427 0.19907 0.0
H156 H 0.27336 0.40449 0.35987 0.0
H157 H 0.35351 0.49045 0.41992 0.0
H158 H 0.30829 0.43185 0.28546 0.0
H159 H 0.31774 0.46217 0.49209 0.0
H160 H 0.45703 0.55283 0.4307 0.0
H161 H 0.39119 0.56707 0.47294 0.0
H162 H 0.40626 0.42171 0.14355 0.0
H163 H 0.37727 0.39979 0.32264 0.0
H164 H 0.33175 0.52329 0.14629 0.0
H165 H 0.35366 0.56262 0.31524 0.0
H166 H 0.29846 0.53891 0.13427 0.0
H167 H 0.31995 0.57741 0.3007 0.0
H168 H 0.32357 0.48985 0.07851 0.0
H169 H 0.31437 0.42445 0.18914 0.0
H170 H 0.28201 0.45744 0.02457 0.0
H171 H 0.27285 0.39318 0.13351 0.0
H172 H 0.42537 0.53173 0.99286 0.0
H173 H 0.40922 0.59534 0.04385 0.0
H174 H 0.27609 0.49919 0.38695 0.0
H175 H 0.23589 0.4601 0.22483 0.0
Li176 Li 0.89421 0.36546 0.39854 0.0
Li177 Li 0.86428 0.37966 0.45627 0.0
Li178 Li 0.84582 0.33617 0.41208 0.0
Li179 Li 0.8597 0.37347 0.34589 0.0
C180 C 0.87092 0.33294 0.51419 0.0
N181 N 0.86296 0.29373 0.59609 0.0
C182 C 0.86526 0.33571 0.57291 0.0
C183 C 0.87292 0.31042 0.49737 0.0
C184 C 0.8612 0.31562 0.6136 0.0
C185 C 0.86871 0.29076 0.53934 0.0
C186 C 0.89938 0.42478 0.37412 0.0
C187 C 0.88921 0.46063 0.35925 0.0
N188 N 0.91297 0.47509 0.32957 0.0
C189 C 0.92373 0.43999 0.34363 0.0
C190 C 0.88198 0.43515 0.38217 0.0
C191 C 0.93023 0.46539 0.32141 0.0
C192 C 0.94549 0.38414 0.34744 0.0
N193 N 0.93037 0.37228 0.39626 0.0
C194 C 0.96961 0.37932 0.44934 0.0
C195 C 0.94168 0.36915 0.44625 0.0
C196 C 0.98609 0.39311 0.40075 0.0
C197 C 0.97352 0.39473 0.34868 0.0
H198 H 0.93598 0.38676 0.30868 0.0
H199 H 0.92923 0.36001 0.48475 0.0
C200 C 0.84268 0.3876 0.55932 0.0
N201 N 0.86444 0.39943 0.52279 0.0
C202 C 0.84232 0.40055 0.61108 0.0
C203 C 0.88718 0.43729 0.5875 0.0
C204 C 0.88654 0.42372 0.53576 0.0
C205 C 0.86481 0.42565 0.62572 0.0
H206 H 0.826 0.36773 0.54912 0.0
H207 H 0.9038 0.43234 0.50638 0.0
C208 C 0.86231 0.32078 0.30649 0.0
N209 N 0.85223 0.27513 0.2437 0.0
C210 C 0.84437 0.31211 0.2588 0.0
C211 C 0.87579 0.30676 0.32098 0.0
C212 C 0.83936 0.28885 0.22794 0.0
C213 C 0.87023 0.28357 0.28907 0.0
C214 C 0.8041 0.34427 0.39888 0.0
C215 C 0.79507 0.32908 0.34708 0.0
C216 C 0.78535 0.34095 0.4425 0.0
C217 C 0.76755 0.31032 0.34028 0.0
C218 C 0.75797 0.32198 0.43411 0.0
N219 N 0.74972 0.30714 0.38365 0.0
C220 C 0.80729 0.29942 0.48846 0.0
C221 C 0.80705 0.27759 0.39945 0.0
C222 C 0.78595 0.27548 0.51084 0.0
N223 N 0.81757 0.30015 0.43389 0.0
C224 C 0.78516 0.25322 0.41968 0.0
C225 C 0.77441 0.25206 0.47609 0.0
H226 H 0.81527 0.31779 0.51418 0.0
H227 H 0.81504 0.27854 0.35588 0.0
C228 C 0.87692 0.40051 0.2371 0.0
N229 N 0.85569 0.38968 0.27528 0.0
C230 C 0.87682 0.4155 0.18844 0.0
C231 C 0.8324 0.40686 0.2175 0.0
C232 C 0.83359 0.39246 0.26635 0.0
C233 C 0.85443 0.41898 0.17838 0.0
H234 H 0.89433 0.39817 0.24553 0.0
H235 H 0.81718 0.38412 0.2979 0.0
O236 O 0.87457 0.35226 0.47361 0.0
O237 O 0.89219 0.39948 0.39444 0.0
O238 O 0.86763 0.34363 0.3369 0.0
O239 O 0.83119 0.36198 0.40693 0.0
H240 H 0.86393 0.35313 0.58691 0.0
H241 H 0.87734 0.30798 0.45233 0.0
H242 H 0.85665 0.31744 0.65909 0.0
H243 H 0.86998 0.27312 0.52676 0.0
H244 H 0.87588 0.46887 0.36487 0.0
H245 H 0.93735 0.43217 0.33683 0.0
H246 H 0.86295 0.42349 0.40526 0.0
H247 H 0.94895 0.47736 0.29753 0.0
H248 H 0.97831 0.37728 0.49012 0.0
H249 H 0.98533 0.40553 0.31039 0.0
H250 H 0.82492 0.39073 0.64007 0.0
H251 H 0.90485 0.45668 0.59737 0.0
H252 H 0.83456 0.3233 0.24539 0.0
H253 H 0.89067 0.31389 0.35593 0.0
H254 H 0.82536 0.28178 0.19127 0.0
H255 H 0.88037 0.2724 0.30011 0.0
H256 H 0.80926 0.33162 0.31275 0.0
H257 H 0.79176 0.35281 0.48244 0.0
H258 H 0.76037 0.29826 0.30059 0.0
H259 H 0.74328 0.31905 0.46773 0.0
H260 H 0.77778 0.27557 0.55391 0.0
H261 H 0.77651 0.23554 0.39139 0.0
H262 H 0.89412 0.42436 0.15905 0.0
H263 H 0.81487 0.40926 0.21146 0.0
Li264 Li 0.52948 0.89384 0.56508 0.0
Li265 Li 0.48536 0.86394 0.62283 0.0
Li266 Li 0.51037 0.84547 0.57862 0.0
Li267 Li 0.48695 0.85935 0.51243 0.0
C268 C 0.53869 0.8705 0.68071 0.0
N269 N 0.56988 0.8624 0.76256 0.0
C270 C 0.53023 0.86478 0.7394 0.0
C271 C 0.56321 0.87248 0.6639 0.0
C272 C 0.54623 0.86065 0.78006 0.0
C273 C 0.57863 0.8682 0.70583 0.0
C274 C 0.4753 0.89903 0.54088 0.0
C275 C 0.42923 0.88881 0.52625 0.0
N276 N 0.43848 0.91262 0.49682 0.0
C277 C 0.48438 0.92342 0.51064 0.0
C278 C 0.44753 0.88158 0.54892 0.0
C279 C 0.46543 0.92992 0.48866 0.0
C280 C 0.562 0.94511 0.51398 0.0
N281 N 0.55882 0.92999 0.56275 0.0
C282 C 0.59111 0.96922 0.61571 0.0
C283 C 0.57333 0.94129 0.61265 0.0
C284 C 0.59371 0.9857 0.56718 0.0
C285 C 0.57943 0.97314 0.51519 0.0
H286 H 0.54979 0.93561 0.4753 0.0
H287 H 0.5701 0.92884 0.65111 0.0
C288 C 0.45579 0.84233 0.72582 0.0
N289 N 0.46575 0.8641 0.68935 0.0
C290 C 0.44247 0.84196 0.77758 0.0
C291 C 0.45065 0.88685 0.75411 0.0
C292 C 0.46359 0.88622 0.70237 0.0
C293 C 0.43988 0.86446 0.79228 0.0
H294 H 0.45896 0.82564 0.71558 0.0
H295 H 0.47225 0.90348 0.67304 0.0
C296 C 0.54227 0.86195 0.47305 0.0
N297 N 0.57788 0.85191 0.41031 0.0
C298 C 0.53302 0.84401 0.42536 0.0
C299 C 0.56977 0.87545 0.48756 0.0
C300 C 0.5513 0.83902 0.39453 0.0
C301 C 0.58742 0.86991 0.45568 0.0
C302 C 0.46054 0.80377 0.56546 0.0
C303 C 0.46677 0.79473 0.51376 0.0
C304 C 0.445 0.78502 0.60899 0.0
C305 C 0.45798 0.7672 0.50699 0.0
C306 C 0.43657 0.75764 0.60063 0.0
N307 N 0.44323 0.74937 0.55028 0.0
C308 C 0.50852 0.80689 0.65493 0.0
C309 C 0.53025 0.80673 0.56606 0.0
C310 C 0.51113 0.78554 0.67732 0.0
N311 N 0.51814 0.81721 0.60043 0.0
C312 C 0.53274 0.78484 0.5863 0.0
C313 C 0.52308 0.77405 0.64265 0.0
H314 H 0.49808 0.81483 0.6806 0.0
H315 H 0.53735 0.81476 0.52255 0.0
C316 C 0.47707 0.87664 0.40381 0.0
N317 N 0.46672 0.85535 0.44183 0.0
C318 C 0.46197 0.87654 0.35516 0.0
C319 C 0.42631 0.83202 0.3839 0.0
C320 C 0.4419 0.83321 0.43275 0.0
C321 C 0.43615 0.8541 0.34495 0.0
H322 H 0.49677 0.89409 0.41235 0.0
H323 H 0.43388 0.81675 0.46418 0.0
O324 O 0.52305 0.87421 0.64015 0.0
O325 O 0.49344 0.89183 0.56097 0.0
O326 O 0.52472 0.86726 0.50343 0.0
O327 O 0.46994 0.83086 0.57349 0.0
H328 H 0.51148 0.86346 0.7534 0.0
H329 H 0.5701 0.87695 0.61888 0.0
H330 H 0.53984 0.85606 0.82554 0.0
H331 H 0.59753 0.86946 0.69326 0.0
H332 H 0.40767 0.87545 0.53187 0.0
H333 H 0.5058 0.93708 0.50385 0.0
H334 H 0.4402 0.86251 0.57182 0.0
H335 H 0.47214 0.94869 0.46497 0.0
H336 H 0.60191 0.97791 0.65642 0.0
H337 H 0.58037 0.98494 0.47696 0.0
H338 H 0.43487 0.82455 0.80653 0.0
H339 H 0.44894 0.90452 0.76403 0.0
H340 H 0.51202 0.83419 0.41194 0.0
H341 H 0.57749 0.89033 0.5225 0.0
H342 H 0.54438 0.82502 0.35787 0.0
H343 H 0.60873 0.88006 0.46673 0.0
H344 H 0.47849 0.8089 0.4795 0.0
H345 H 0.43949 0.79144 0.64883 0.0
H346 H 0.46292 0.76001 0.46738 0.0
H347 H 0.42474 0.74296 0.63419 0.0
H348 H 0.50282 0.77735 0.72034 0.0
H349 H 0.54183 0.77624 0.55807 0.0
H350 H 0.47035 0.89388 0.32589 0.0
H351 H 0.40642 0.81445 0.37774 0.0
Li352 Li 0.63637 0.52906 0.73161 0.0
Li353 Li 0.62214 0.48496 0.78938 0.0
Li354 Li 0.66562 0.50993 0.74519 0.0
Li355 Li 0.62831 0.48651 0.67896 0.0
C356 C 0.66891 0.53826 0.84726 0.0
N357 N 0.7082 0.5694 0.92913 0.0
C358 C 0.66615 0.5298 0.90596 0.0
C359 C 0.69147 0.56275 0.83046 0.0
C360 C 0.68628 0.54578 0.94663 0.0
C361 C 0.71117 0.57814 0.8724 0.0
C362 C 0.57695 0.47486 0.70769 0.0
C363 C 0.54114 0.42877 0.69336 0.0
N364 N 0.52645 0.43796 0.66425 0.0
C365 C 0.56151 0.48388 0.67778 0.0
C366 C 0.56672 0.4471 0.71571 0.0
C367 C 0.53601 0.46489 0.65611 0.0
C368 C 0.6175 0.56148 0.68053 0.0
N369 N 0.62956 0.5584 0.72922 0.0
C370 C 0.62273 0.5908 0.78204 0.0
C371 C 0.63288 0.57301 0.77901 0.0
C372 C 0.60875 0.5933 0.73359 0.0
C373 C 0.60692 0.57892 0.6817 0.0
H374 H 0.61472 0.5492 0.64194 0.0
H375 H 0.64218 0.56986 0.81742 0.0
C376 C 0.61418 0.4554 0.89236 0.0
N377 N 0.60237 0.46537 0.85591 0.0
C378 C 0.60125 0.44208 0.94412 0.0
C379 C 0.56454 0.45029 0.92072 0.0
C380 C 0.57809 0.46323 0.86898 0.0
C381 C 0.57616 0.43951 0.95885 0.0
H382 H 0.63404 0.45855 0.88209 0.0
H383 H 0.56949 0.4719 0.83967 0.0
C384 C 0.68105 0.54181 0.63963 0.0
N385 N 0.72673 0.57742 0.57695 0.0
C386 C 0.68976 0.53257 0.59195 0.0
C387 C 0.69505 0.56931 0.65415 0.0
C388 C 0.71304 0.55084 0.56115 0.0
C389 C 0.71826 0.58695 0.6223 0.0
C390 C 0.65746 0.46008 0.73211 0.0
C391 C 0.67282 0.46637 0.68052 0.0
C392 C 0.66058 0.44447 0.7756 0.0
C393 C 0.69155 0.45755 0.67384 0.0
C394 C 0.67952 0.43602 0.76733 0.0
N395 N 0.69453 0.44273 0.71709 0.0
C396 C 0.70232 0.50804 0.82154 0.0
C397 C 0.72423 0.52978 0.73271 0.0
C398 C 0.72626 0.51064 0.84398 0.0
N399 N 0.70164 0.51767 0.76704 0.0
C400 C 0.7486 0.53225 0.75299 0.0
C401 C 0.74972 0.52259 0.80935 0.0
H402 H 0.68392 0.49761 0.84717 0.0
H403 H 0.72332 0.53688 0.68919 0.0
C404 C 0.60097 0.47656 0.57056 0.0
N405 N 0.61207 0.46629 0.60838 0.0
C406 C 0.58596 0.46146 0.52193 0.0
C407 C 0.59514 0.42596 0.55025 0.0
C408 C 0.60954 0.44154 0.5991 0.0
C409 C 0.58274 0.43572 0.51151 0.0
H410 H 0.60311 0.4962 0.57925 0.0
H411 H 0.61809 0.43358 0.63037 0.0
O412 O 0.64955 0.52263 0.8067 0.0
O413 O 0.60233 0.49304 0.72747 0.0
O414 O 0.65818 0.52427 0.66997 0.0
O415 O 0.63978 0.46951 0.74006 0.0
H416 H 0.6487 0.51107 0.91996 0.0
H417 H 0.69391 0.56964 0.78543 0.0
H418 H 0.68447 0.53939 0.99211 0.0
H419 H 0.72883 0.59703 0.85982 0.0
H420 H 0.53301 0.40722 0.69897 0.0
H421 H 0.56921 0.50529 0.671 0.0
H422 H 0.57856 0.43982 0.73835 0.0
H423 H 0.52385 0.47156 0.63269 0.0
H424 H 0.62493 0.60168 0.82266 0.0
H425 H 0.59596 0.57978 0.64355 0.0
H426 H 0.61105 0.43447 0.97304 0.0
H427 H 0.54516 0.4486 0.93068 0.0
H428 H 0.67858 0.51157 0.57852 0.0
H429 H 0.68789 0.57703 0.68908 0.0
H430 H 0.72014 0.54392 0.5245 0.0
H431 H 0.72941 0.60826 0.63337 0.0
H432 H 0.67044 0.47815 0.6463 0.0
H433 H 0.64858 0.43891 0.81535 0.0
H434 H 0.70374 0.46253 0.63432 0.0
H435 H 0.68229 0.42412 0.80085 0.0
H436 H 0.72614 0.50233 0.887 0.0
H437 H 0.76631 0.54134 0.72479 0.0
H438 H 0.57689 0.46978 0.49282 0.0
H439 H 0.59294 0.40612 0.54393 0.0
Li440 Li 0.14251 0.62801 0.8459 0.0
Li441 Li 0.15639 0.6653 0.91209 0.0
Li442 Li 0.13793 0.62182 0.95628 0.0
Li443 Li 0.108 0.63602 0.89855 0.0
C444 C 0.19811 0.65721 0.8989 0.0
N445 N 0.25249 0.69435 0.88367 0.0
C446 C 0.20714 0.6724 0.84708 0.0
C447 C 0.21686 0.66053 0.94252 0.0
C448 C 0.23466 0.69116 0.84029 0.0
C449 C 0.24424 0.67951 0.93413 0.0
C450 C 0.13991 0.6807 0.80649 0.0
C451 C 0.132 0.71791 0.78906 0.0
N452 N 0.15 0.72634 0.74368 0.0
C453 C 0.15785 0.68936 0.7588 0.0
C454 C 0.12643 0.69473 0.82097 0.0
C455 C 0.16286 0.71262 0.72793 0.0
C456 C 0.12529 0.60098 0.7371 0.0
N457 N 0.14652 0.6118 0.77529 0.0
C458 C 0.1698 0.59462 0.71751 0.0
C459 C 0.16862 0.60901 0.76636 0.0
C460 C 0.14778 0.5825 0.67839 0.0
C461 C 0.12539 0.58599 0.68844 0.0
H462 H 0.10789 0.60332 0.74552 0.0
H463 H 0.18502 0.61735 0.79792 0.0
C464 C 0.19491 0.70206 0.98847 0.0
N465 N 0.18464 0.70133 0.9339 0.0
C466 C 0.21626 0.72601 0.01085 0.0
C467 C 0.21706 0.74826 0.91968 0.0
C468 C 0.19517 0.72388 0.89945 0.0
C469 C 0.2278 0.74942 0.9761 0.0
H470 H 0.18694 0.68369 0.0142 0.0
H471 H 0.18718 0.72293 0.85588 0.0
C472 C 0.10283 0.5767 0.87412 0.0
N473 N 0.08924 0.52639 0.82955 0.0
C474 C 0.07849 0.5615 0.84362 0.0
C475 C 0.12023 0.56632 0.88216 0.0
C476 C 0.07199 0.53609 0.82138 0.0
C477 C 0.113 0.54085 0.85923 0.0
C478 C 0.13128 0.66854 0.0142 0.0
C479 C 0.13694 0.66577 0.07292 0.0
C480 C 0.12929 0.69105 0.99738 0.0
C481 C 0.14099 0.68585 0.11361 0.0
C482 C 0.13349 0.71071 0.03935 0.0
N483 N 0.13923 0.70774 0.09611 0.0
C484 C 0.15952 0.61387 0.05933 0.0
C485 C 0.11567 0.57775 0.03576 0.0
C486 C 0.15989 0.60093 0.11109 0.0
N487 N 0.13777 0.60205 0.0228 0.0
C488 C 0.11503 0.56418 0.0875 0.0
C489 C 0.1374 0.57582 0.12572 0.0
H490 H 0.17621 0.63375 0.04914 0.0
H491 H 0.09841 0.56914 0.00638 0.0
C492 C 0.05672 0.61735 0.84745 0.0
N493 N 0.07184 0.6292 0.89627 0.0
C494 C 0.02869 0.60675 0.84869 0.0
C495 C 0.0326 0.62216 0.94936 0.0
C496 C 0.06053 0.63232 0.94626 0.0
C497 C 0.01612 0.60836 0.90076 0.0
H498 H 0.06623 0.61473 0.80869 0.0
H499 H 0.07298 0.64147 0.98476 0.0
O500 O 0.17102 0.6395 0.90694 0.0
O501 O 0.13458 0.65784 0.83691 0.0
O502 O 0.11002 0.602 0.89445 0.0
O503 O 0.12764 0.64922 0.97361 0.0
H504 H 0.19296 0.66985 0.81275 0.0
H505 H 0.21045 0.64868 0.98246 0.0
H506 H 0.24184 0.70322 0.80059 0.0
H507 H 0.25892 0.68244 0.96776 0.0
H508 H 0.12187 0.72909 0.80009 0.0
H509 H 0.16765 0.67815 0.7454 0.0
H510 H 0.11156 0.68761 0.85592 0.0
H511 H 0.17687 0.71968 0.69125 0.0
H512 H 0.18733 0.5922 0.71148 0.0
H513 H 0.1081 0.57713 0.65904 0.0
H514 H 0.22442 0.72591 0.05393 0.0
H515 H 0.22571 0.76593 0.89138 0.0
H516 H 0.06486 0.56931 0.83682 0.0
H517 H 0.13926 0.57798 0.90526 0.0
H518 H 0.05326 0.52412 0.79749 0.0
H519 H 0.12632 0.53261 0.86486 0.0
H520 H 0.13827 0.64834 0.08692 0.0
H521 H 0.12487 0.6935 0.95233 0.0
H522 H 0.14553 0.68403 0.15911 0.0
H523 H 0.13222 0.72835 0.02677 0.0
H524 H 0.17728 0.61074 0.14008 0.0
H525 H 0.09736 0.54479 0.09737 0.0
H526 H 0.01688 0.59595 0.8104 0.0
H527 H 0.0239 0.6242 0.99013 0.0
Li528 Li 0.84577 0.50991 0.89441 0.0
Li529 Li 0.85965 0.48649 0.96063 0.0
Li530 Li 0.89414 0.52904 0.90801 0.0
Li531 Li 0.86428 0.48494 0.85022 0.0
C532 C 0.86228 0.54186 0.99987 0.0
N533 N 0.85236 0.57763 0.06231 0.0
C534 C 0.84433 0.53271 0.04754 0.0
C535 C 0.87586 0.56935 0.98523 0.0
C536 C 0.8394 0.55107 0.07822 0.0
C537 C 0.87037 0.58707 0.01695 0.0
C538 C 0.80408 0.46008 0.90761 0.0
C539 C 0.75792 0.43603 0.8726 0.0
N540 N 0.74968 0.44276 0.92289 0.0
C541 C 0.79506 0.46638 0.95926 0.0
C542 C 0.7853 0.44447 0.86419 0.0
C543 C 0.76753 0.45758 0.96608 0.0
C544 C 0.80716 0.50799 0.81808 0.0
N545 N 0.81749 0.51765 0.87256 0.0
C546 C 0.78513 0.53227 0.88657 0.0
C547 C 0.80703 0.52979 0.90685 0.0
C548 C 0.77434 0.52258 0.83024 0.0
C549 C 0.78582 0.5106 0.79564 0.0
H550 H 0.8151 0.49754 0.79247 0.0
H551 H 0.81506 0.53693 0.95034 0.0
C552 C 0.87704 0.47653 0.06903 0.0
N553 N 0.85568 0.46626 0.0312 0.0
C554 C 0.87695 0.46143 0.11766 0.0
C555 C 0.83229 0.42591 0.08929 0.0
C556 C 0.83347 0.4415 0.04045 0.0
C557 C 0.85444 0.43568 0.12805 0.0
H558 H 0.89453 0.49618 0.06037 0.0
H559 H 0.81696 0.43352 0.00916 0.0
C560 C 0.87077 0.53821 0.7923 0.0
N561 N 0.86255 0.56927 0.71035 0.0
C562 C 0.86506 0.52971 0.73363 0.0
C563 C 0.87269 0.5627 0.80904 0.0
C564 C 0.86087 0.54565 0.69292 0.0
C565 C 0.86835 0.57805 0.76706 0.0
C566 C 0.89935 0.47483 0.93188 0.0
C567 C 0.92381 0.48384 0.96182 0.0
C568 C 0.88184 0.44708 0.92381 0.0
C569 C 0.93032 0.46484 0.98345 0.0
C570 C 0.88907 0.42873 0.94613 0.0
N571 N 0.91295 0.43792 0.97526 0.0
C572 C 0.94543 0.56145 0.9591 0.0
C573 C 0.94158 0.573 0.86064 0.0
C574 C 0.97346 0.57889 0.95792 0.0
N575 N 0.93029 0.55838 0.91041 0.0
C576 C 0.96951 0.59079 0.85761 0.0
C577 C 0.98601 0.59329 0.90605 0.0
H578 H 0.93593 0.54916 0.99768 0.0
H579 H 0.92912 0.56985 0.82224 0.0
C580 C 0.84264 0.45531 0.74733 0.0
N581 N 0.86446 0.46536 0.78369 0.0
C582 C 0.84227 0.44199 0.69558 0.0
C583 C 0.88725 0.45035 0.7188 0.0
C584 C 0.88662 0.46328 0.77055 0.0
C585 C 0.86481 0.43949 0.68076 0.0
H586 H 0.82591 0.4584 0.75767 0.0
H587 H 0.90393 0.47202 0.79979 0.0
O588 O 0.86753 0.52424 0.96964 0.0
O589 O 0.83118 0.46949 0.89953 0.0
O590 O 0.87454 0.52262 0.83291 0.0
O591 O 0.89216 0.49302 0.91213 0.0
H592 H 0.83444 0.51173 0.06106 0.0
H593 H 0.89074 0.577 0.9503 0.0
H594 H 0.82538 0.54423 0.11487 0.0
H595 H 0.88059 0.60837 0.00579 0.0
H596 H 0.74322 0.42414 0.83913 0.0
H597 H 0.80926 0.47816 0.99344 0.0
H598 H 0.7917 0.4389 0.82439 0.0
H599 H 0.76036 0.46257 0.00565 0.0
H600 H 0.77654 0.54139 0.91474 0.0
H601 H 0.77762 0.50227 0.75264 0.0
H602 H 0.89433 0.46976 0.14679 0.0
H603 H 0.81466 0.40607 0.09559 0.0
H604 H 0.86379 0.51098 0.71968 0.0
H605 H 0.87714 0.56961 0.85405 0.0
H606 H 0.85629 0.53923 0.64746 0.0
H607 H 0.86955 0.59693 0.77958 0.0
H608 H 0.93752 0.50525 0.96863 0.0
H609 H 0.86271 0.4398 0.90115 0.0
H610 H 0.94914 0.4715 0.00689 0.0
H611 H 0.87567 0.40719 0.94048 0.0
H612 H 0.98527 0.57974 0.99607 0.0
H613 H 0.9782 0.60168 0.81699 0.0
H614 H 0.82482 0.43431 0.66672 0.0
H615 H 0.90497 0.44872 0.70879 0.0
Li616 Li 0.33656 0.84546 0.06098 0.0
Li617 Li 0.37387 0.85933 0.12717 0.0
Li618 Li 0.36582 0.89382 0.07454 0.0
Li619 Li 0.38004 0.86393 0.01677 0.0
C620 C 0.32115 0.86198 0.16648 0.0
N621 N 0.27548 0.85204 0.22905 0.0
C622 C 0.31239 0.84404 0.21417 0.0
C623 C 0.30721 0.87554 0.15189 0.0
C624 C 0.28911 0.8391 0.24491 0.0
C625 C 0.28401 0.87004 0.18368 0.0
C626 C 0.3447 0.80376 0.0742 0.0
C627 C 0.32252 0.75761 0.03917 0.0
N628 N 0.30761 0.74938 0.08954 0.0
C629 C 0.32943 0.79475 0.12592 0.0
C630 C 0.34148 0.78498 0.03074 0.0
C631 C 0.3107 0.76723 0.13277 0.0
C632 C 0.29984 0.80685 0.98469 0.0
N633 N 0.30054 0.81719 0.03917 0.0
C634 C 0.25356 0.78485 0.05326 0.0
C635 C 0.27794 0.80674 0.0735 0.0
C636 C 0.25244 0.77404 0.99694 0.0
C637 C 0.27589 0.78551 0.96229 0.0
H638 H 0.31823 0.81478 0.95905 0.0
H639 H 0.27886 0.81478 0.11699 0.0
C640 C 0.40109 0.87665 0.23573 0.0
N641 N 0.39012 0.85534 0.19775 0.0
C642 C 0.41609 0.87655 0.28438 0.0
C643 C 0.40719 0.83201 0.2557 0.0
C644 C 0.39278 0.83319 0.20686 0.0
C645 C 0.41945 0.8541 0.29462 0.0
H646 H 0.39884 0.8941 0.22717 0.0
H647 H 0.38433 0.81673 0.17545 0.0
C648 C 0.33327 0.87046 0.95887 0.0
N649 N 0.29398 0.86229 0.87697 0.0
C650 C 0.33602 0.86472 0.9002 0.0
C651 C 0.31072 0.87243 0.97563 0.0
C652 C 0.3159 0.86056 0.85951 0.0
C653 C 0.29102 0.86811 0.93367 0.0
C654 C 0.42521 0.89901 0.09863 0.0
C655 C 0.44055 0.92341 0.12881 0.0
C656 C 0.43551 0.88155 0.09056 0.0
C657 C 0.46602 0.92992 0.15069 0.0
C658 C 0.46105 0.88878 0.11313 0.0
N659 N 0.47564 0.9126 0.1425 0.0
C660 C 0.38461 0.9451 0.12563 0.0
C661 C 0.36939 0.94126 0.02702 0.0
C662 C 0.3952 0.97312 0.12443 0.0
N663 N 0.37264 0.92997 0.07689 0.0
C664 C 0.37954 0.96919 0.02396 0.0
C665 C 0.39345 0.98568 0.07247 0.0
H666 H 0.38733 0.93559 0.16429 0.0
H667 H 0.36015 0.92881 0.98858 0.0
C668 C 0.38804 0.8423 0.91384 0.0
N669 N 0.39982 0.8641 0.95025 0.0
C670 C 0.40098 0.84193 0.86209 0.0
C671 C 0.43763 0.88687 0.88541 0.0
C672 C 0.42406 0.88624 0.93715 0.0
C673 C 0.42604 0.86446 0.84732 0.0
H674 H 0.3682 0.82558 0.92414 0.0
H675 H 0.43264 0.90353 0.96643 0.0
O676 O 0.34401 0.86724 0.13618 0.0
O677 O 0.36238 0.83084 0.0661 0.0
O678 O 0.35263 0.8742 0.99945 0.0
O679 O 0.39986 0.89182 0.07863 0.0
H680 H 0.32351 0.83417 0.22765 0.0
H681 H 0.31441 0.89041 0.11694 0.0
H682 H 0.28197 0.82509 0.28157 0.0
H683 H 0.2729 0.88024 0.17256 0.0
H684 H 0.31967 0.7429 0.00567 0.0
H685 H 0.3319 0.80895 0.16014 0.0
H686 H 0.3534 0.79137 0.99087 0.0
H687 H 0.29858 0.76007 0.1724 0.0
H688 H 0.23586 0.77627 0.08147 0.0
H689 H 0.27601 0.7773 0.9193 0.0
H690 H 0.42506 0.89389 0.31362 0.0
H691 H 0.40949 0.81443 0.26188 0.0
H692 H 0.35347 0.86341 0.88623 0.0
H693 H 0.30829 0.8769 0.02064 0.0
H694 H 0.31771 0.85596 0.81405 0.0
H695 H 0.27336 0.86935 0.94621 0.0
H696 H 0.4328 0.93708 0.13562 0.0
H697 H 0.42375 0.86247 0.0677 0.0
H698 H 0.47809 0.94869 0.17433 0.0
H699 H 0.46924 0.87541 0.10748 0.0
H700 H 0.40609 0.98493 0.16264 0.0
H701 H 0.3774 0.97788 0.98328 0.0
H702 H 0.39121 0.8245 0.8332 0.0
H703 H 0.45699 0.90457 0.87544 0.0
Li704 Li 0.49184 0.33618 0.22751 0.0
Li705 Li 0.51527 0.37348 0.29369 0.0
Li706 Li 0.47274 0.36546 0.24107 0.0
Li707 Li 0.51687 0.37966 0.18332 0.0
C708 C 0.45991 0.32078 0.33301 0.0
N709 N 0.4242 0.27512 0.39561 0.0
C710 C 0.4691 0.31203 0.38071 0.0
C711 C 0.43241 0.30683 0.31843 0.0
C712 C 0.45077 0.28876 0.41147 0.0
C713 C 0.41472 0.28364 0.35023 0.0
C714 C 0.54165 0.34427 0.24081 0.0
C715 C 0.56547 0.32193 0.20577 0.0
N716 N 0.55887 0.30713 0.25628 0.0
C717 C 0.53547 0.32912 0.29268 0.0
C718 C 0.55708 0.34091 0.19726 0.0
C719 C 0.54422 0.31035 0.29959 0.0
C720 C 0.49365 0.29944 0.15115 0.0
N721 N 0.48407 0.30016 0.2057 0.0
C722 C 0.46952 0.25321 0.21988 0.0
C723 C 0.472 0.27759 0.24011 0.0
C724 C 0.47913 0.25206 0.16349 0.0
C725 C 0.49104 0.27549 0.12877 0.0
H726 H 0.50406 0.31781 0.12545 0.0
H727 H 0.46494 0.27853 0.28366 0.0
C728 C 0.52508 0.40051 0.40249 0.0
N729 N 0.53549 0.3897 0.36429 0.0
C730 C 0.54017 0.41551 0.45114 0.0
C731 C 0.57597 0.40691 0.42205 0.0
C732 C 0.56038 0.3925 0.3732 0.0
C733 C 0.56605 0.41901 0.46118 0.0
H734 H 0.50533 0.39816 0.39408 0.0
H735 H 0.56846 0.38418 0.34163 0.0
C736 C 0.46353 0.33295 0.12538 0.0
N737 N 0.43236 0.29375 0.04339 0.0
C738 C 0.472 0.33573 0.06668 0.0
C739 C 0.43902 0.31041 0.14213 0.0
C740 C 0.45601 0.31565 0.02595 0.0
C741 C 0.4236 0.29076 0.10013 0.0
C742 C 0.52688 0.42478 0.26545 0.0
C743 C 0.51776 0.43999 0.29596 0.0
C744 C 0.55466 0.43516 0.25736 0.0
C745 C 0.53667 0.4654 0.31816 0.0
C746 C 0.57292 0.46065 0.28025 0.0
N747 N 0.56362 0.4751 0.30995 0.0
C748 C 0.44014 0.38414 0.29217 0.0
C749 C 0.42896 0.36914 0.19338 0.0
C750 C 0.4227 0.39474 0.29094 0.0
N751 N 0.4434 0.37228 0.24336 0.0
C752 C 0.41118 0.3793 0.19028 0.0
C753 C 0.40851 0.39311 0.23887 0.0
H754 H 0.45228 0.38677 0.33093 0.0
H755 H 0.43225 0.35999 0.15489 0.0
C756 C 0.54648 0.38765 0.08036 0.0
N757 N 0.53647 0.39943 0.11681 0.0
C758 C 0.55979 0.4006 0.02861 0.0
C759 C 0.55153 0.43726 0.05203 0.0
C760 C 0.53859 0.42369 0.10377 0.0
C761 C 0.56233 0.42567 0.01389 0.0
H762 H 0.54335 0.36781 0.09062 0.0
H763 H 0.5299 0.43227 0.13309 0.0
O764 O 0.4775 0.34364 0.30271 0.0
O765 O 0.53227 0.36198 0.23265 0.0
O766 O 0.47918 0.35227 0.166 0.0
O767 O 0.50878 0.39948 0.24515 0.0
H768 H 0.49009 0.32316 0.39419 0.0
H769 H 0.42473 0.31402 0.28348 0.0
H770 H 0.45765 0.28163 0.44814 0.0
H771 H 0.39341 0.27252 0.33912 0.0
H772 H 0.57722 0.31897 0.1722 0.0
H773 H 0.52383 0.33169 0.32696 0.0
H774 H 0.56253 0.35273 0.15727 0.0
H775 H 0.53932 0.29832 0.33933 0.0
H776 H 0.46046 0.23553 0.24815 0.0
H777 H 0.49931 0.27558 0.08572 0.0
H778 H 0.53173 0.42435 0.48056 0.0
H779 H 0.59592 0.40933 0.42806 0.0
H780 H 0.49076 0.35317 0.05273 0.0
H781 H 0.43213 0.30795 0.18715 0.0
H782 H 0.4624 0.31749 0.98047 0.0
H783 H 0.4047 0.2731 0.11266 0.0
H784 H 0.49632 0.43218 0.3028 0.0
H785 H 0.56203 0.4235 0.23425 0.0
H786 H 0.52992 0.47738 0.34206 0.0
H787 H 0.59448 0.46889 0.27459 0.0
H788 H 0.4217 0.40555 0.32922 0.0
H789 H 0.40044 0.37725 0.14952 0.0
H790 H 0.56742 0.39082 0.99968 0.0
H791 H 0.55319 0.45663 0.0421 0.0
Li792 Li 0.14256 0.51499 0.46063 0.0
Li793 Li 0.15644 0.49157 0.39441 0.0
Li794 Li 0.13793 0.51653 0.35022 0.0
Li795 Li 0.10807 0.47244 0.408 0.0
C796 C 0.19813 0.5414 0.40759 0.0
N797 N 0.25253 0.55872 0.42285 0.0
C798 C 0.20715 0.5351 0.45924 0.0
C799 C 0.2169 0.55701 0.36417 0.0
C800 C 0.23469 0.54391 0.46604 0.0
C801 C 0.24429 0.56544 0.37256 0.0
C802 C 0.13994 0.45962 0.49988 0.0
C803 C 0.13187 0.41442 0.51699 0.0
N804 N 0.14989 0.42388 0.56235 0.0
C805 C 0.15789 0.46879 0.54756 0.0
C806 C 0.12638 0.43213 0.48525 0.0
C807 C 0.16283 0.45044 0.57825 0.0
C808 C 0.12517 0.52495 0.56903 0.0
N809 N 0.14653 0.53522 0.5312 0.0
C810 C 0.16992 0.57556 0.5893 0.0
C811 C 0.16874 0.55998 0.54046 0.0
C812 C 0.14777 0.5658 0.62806 0.0
C813 C 0.12526 0.54005 0.61766 0.0
H814 H 0.10767 0.5053 0.56035 0.0
H815 H 0.18526 0.56795 0.50918 0.0
C816 C 0.19505 0.49348 0.31807 0.0
N817 N 0.18472 0.48383 0.37256 0.0
C818 C 0.21639 0.49087 0.29563 0.0
C819 C 0.21709 0.46922 0.38657 0.0
C820 C 0.19519 0.47169 0.40686 0.0
C821 C 0.22787 0.4789 0.33023 0.0
H822 H 0.1871 0.50393 0.29246 0.0
H823 H 0.18716 0.46457 0.45036 0.0
C824 C 0.10286 0.52665 0.43188 0.0
N825 N 0.08925 0.56356 0.47524 0.0
C826 C 0.0784 0.51764 0.4618 0.0
C827 C 0.12037 0.5544 0.42381 0.0
C828 C 0.07189 0.53663 0.48342 0.0
C829 C 0.11313 0.57274 0.44613 0.0
C830 C 0.13143 0.46327 0.2923 0.0
C831 C 0.13714 0.47176 0.23363 0.0
C832 C 0.12952 0.43878 0.30904 0.0
C833 C 0.14132 0.45582 0.19291 0.0
C834 C 0.13385 0.42342 0.26706 0.0
N835 N 0.13964 0.4322 0.21035 0.0
C836 C 0.15956 0.54617 0.24733 0.0
C837 C 0.11559 0.5382 0.27056 0.0
C838 C 0.15994 0.55948 0.19557 0.0
N839 N 0.13774 0.53612 0.28369 0.0
C840 C 0.11496 0.55113 0.21881 0.0
C841 C 0.13739 0.56198 0.18076 0.0
H842 H 0.1763 0.54307 0.25765 0.0
H843 H 0.09828 0.52947 0.2998 0.0
C844 C 0.05678 0.44003 0.45909 0.0
N845 N 0.07192 0.4431 0.41041 0.0
C846 C 0.02875 0.42259 0.45791 0.0
C847 C 0.0327 0.41069 0.3576 0.0
C848 C 0.06063 0.42848 0.36063 0.0
C849 C 0.0162 0.40819 0.40603 0.0
H850 H 0.06628 0.45232 0.49767 0.0
H851 H 0.07309 0.43163 0.32223 0.0
O852 O 0.17103 0.53199 0.39953 0.0
O853 O 0.13467 0.47723 0.46964 0.0
O854 O 0.11005 0.50846 0.41213 0.0
O855 O 0.12767 0.47886 0.33291 0.0
H856 H 0.19296 0.52332 0.49342 0.0
H857 H 0.2105 0.56257 0.32437 0.0
H858 H 0.24186 0.53891 0.50561 0.0
H859 H 0.25899 0.57734 0.33908 0.0
H860 H 0.12167 0.39313 0.50584 0.0
H861 H 0.16777 0.48978 0.56107 0.0
H862 H 0.11149 0.42448 0.45032 0.0
H863 H 0.17685 0.45729 0.6149 0.0
H864 H 0.18755 0.5954 0.59561 0.0
H865 H 0.10787 0.53172 0.64678 0.0
H866 H 0.22458 0.49919 0.25262 0.0
H867 H 0.22569 0.46011 0.41475 0.0
H868 H 0.06468 0.49622 0.4686 0.0
H869 H 0.1395 0.56168 0.40116 0.0
H870 H 0.05306 0.52997 0.50686 0.0
H871 H 0.12654 0.59429 0.44048 0.0
H872 H 0.13841 0.49049 0.21968 0.0
H873 H 0.12506 0.43186 0.35405 0.0
H874 H 0.1459 0.46223 0.14745 0.0
H875 H 0.13265 0.40453 0.27958 0.0
H876 H 0.17738 0.56715 0.16671 0.0
H877 H 0.09724 0.55276 0.2088 0.0
H878 H 0.01694 0.42173 0.49606 0.0
H879 H 0.02401 0.39979 0.31698 0.0
Li880 Li 0.62834 0.14215 0.62715 0.0
Li881 Li 0.66565 0.15603 0.56097 0.0
Li882 Li 0.62217 0.13756 0.51676 0.0
Li883 Li 0.63638 0.10766 0.57453 0.0
C884 C 0.65752 0.19772 0.5742 0.0
N885 N 0.69462 0.2521 0.58956 0.0
C886 C 0.67276 0.20672 0.62595 0.0
C887 C 0.66076 0.2165 0.53073 0.0
C888 C 0.69151 0.23425 0.6328 0.0
C889 C 0.67972 0.24388 0.53918 0.0
C890 C 0.68106 0.1395 0.66647 0.0
C891 C 0.7182 0.13144 0.68367 0.0
N892 N 0.72673 0.14944 0.72904 0.0
C893 C 0.68982 0.15744 0.71416 0.0
C894 C 0.695 0.12595 0.65187 0.0
C895 C 0.71309 0.16238 0.7449 0.0
C896 C 0.60114 0.12485 0.73575 0.0
N897 N 0.61209 0.14614 0.69773 0.0
C898 C 0.595 0.16946 0.75566 0.0
C899 C 0.60941 0.16829 0.70682 0.0
C900 C 0.58276 0.14738 0.79461 0.0
C901 C 0.58614 0.12494 0.78439 0.0
H902 H 0.6034 0.10741 0.7272 0.0
H903 H 0.61784 0.18474 0.6754 0.0
C904 C 0.70237 0.19462 0.48467 0.0
N905 N 0.70167 0.18428 0.53915 0.0
C906 C 0.72632 0.21596 0.46228 0.0
C907 C 0.74864 0.21663 0.55326 0.0
C908 C 0.72426 0.19474 0.5735 0.0
C909 C 0.74977 0.22744 0.49693 0.0
H910 H 0.68398 0.18668 0.45902 0.0
H911 H 0.72334 0.18671 0.617 0.0
C912 C 0.577 0.10247 0.59864 0.0
N913 N 0.52658 0.08889 0.64258 0.0
C914 C 0.56167 0.07808 0.62886 0.0
C915 C 0.56669 0.11993 0.59056 0.0
C916 C 0.53621 0.07158 0.65078 0.0
C917 C 0.54116 0.1127 0.61317 0.0
C918 C 0.66893 0.13101 0.45885 0.0
C919 C 0.66617 0.13674 0.40018 0.0
C920 C 0.69148 0.12905 0.47562 0.0
C921 C 0.68629 0.14089 0.35949 0.0
C922 C 0.71118 0.13335 0.43365 0.0
N923 N 0.70821 0.13916 0.37694 0.0
C924 C 0.61417 0.15918 0.41383 0.0
C925 C 0.57814 0.11524 0.43715 0.0
C926 C 0.60122 0.15955 0.36208 0.0
N927 N 0.60239 0.13738 0.45024 0.0
C928 C 0.56458 0.11461 0.38541 0.0
C929 C 0.57616 0.13702 0.34731 0.0
H930 H 0.63401 0.1759 0.42413 0.0
H931 H 0.56957 0.09796 0.46643 0.0
C932 C 0.6176 0.05638 0.62563 0.0
N933 N 0.62957 0.07151 0.57688 0.0
C934 C 0.60701 0.02836 0.62442 0.0
C935 C 0.62266 0.03229 0.52395 0.0
C936 C 0.63281 0.06022 0.52701 0.0
C937 C 0.60876 0.0158 0.57246 0.0
H938 H 0.61488 0.06589 0.66429 0.0
H939 H 0.64205 0.07267 0.48857 0.0
O940 O 0.63983 0.17064 0.56609 0.0
O941 O 0.65819 0.13424 0.63617 0.0
O942 O 0.60235 0.10966 0.57862 0.0
O943 O 0.64958 0.12728 0.49944 0.0
H944 H 0.67028 0.19252 0.66017 0.0
H945 H 0.64886 0.21012 0.49084 0.0
H946 H 0.70361 0.2414 0.67245 0.0
H947 H 0.68259 0.25858 0.50566 0.0
H948 H 0.7293 0.12124 0.67255 0.0
H949 H 0.67869 0.16731 0.72764 0.0
H950 H 0.68779 0.11107 0.61693 0.0
H951 H 0.72023 0.17638 0.78157 0.0
H952 H 0.59268 0.18704 0.76183 0.0
H953 H 0.57718 0.10761 0.81365 0.0
H954 H 0.72621 0.22417 0.41927 0.0
H955 H 0.76634 0.22522 0.58148 0.0
H956 H 0.56943 0.06441 0.63569 0.0
H957 H 0.57845 0.139 0.56768 0.0
H958 H 0.52414 0.05282 0.67445 0.0
H959 H 0.53297 0.12607 0.60751 0.0
H960 H 0.64873 0.13805 0.38622 0.0
H961 H 0.69392 0.12458 0.52062 0.0
H962 H 0.68448 0.14549 0.31403 0.0
H963 H 0.72884 0.13211 0.44619 0.0
H964 H 0.611 0.17698 0.33318 0.0
H965 H 0.54522 0.09691 0.37543 0.0
H966 H 0.59612 0.01655 0.66264 0.0
H967 H 0.6248 0.0236 0.48327 0.0
Li968 Li 0.51037 0.6653 0.72749 0.0
Li969 Li 0.48695 0.62801 0.79367 0.0
Li970 Li 0.52947 0.63602 0.74105 0.0
Li971 Li 0.48534 0.62182 0.6833 0.0
C972 C 0.54229 0.6807 0.83303 0.0
N973 N 0.57795 0.72635 0.89569 0.0
C974 C 0.53307 0.68942 0.88072 0.0
C975 C 0.56979 0.69467 0.81847 0.0
C976 C 0.55138 0.71269 0.91152 0.0
C977 C 0.58746 0.71786 0.85031 0.0
C978 C 0.46057 0.65722 0.74077 0.0
C979 C 0.43677 0.67957 0.70567 0.0
N980 N 0.44335 0.69437 0.7562 0.0
C981 C 0.46672 0.67236 0.79265 0.0
C982 C 0.44515 0.66059 0.69718 0.0
C983 C 0.45797 0.69113 0.79954 0.0
C984 C 0.50859 0.70206 0.65112 0.0
N985 N 0.51815 0.70133 0.70568 0.0
C986 C 0.53268 0.74827 0.71989 0.0
C987 C 0.53019 0.72389 0.74012 0.0
C988 C 0.52308 0.74942 0.66348 0.0
C989 C 0.5112 0.72601 0.62874 0.0
H990 H 0.49819 0.68369 0.6254 0.0
H991 H 0.53724 0.72294 0.78368 0.0
C992 C 0.47715 0.601 0.9025 0.0
N993 N 0.46672 0.61179 0.86427 0.0
C994 C 0.46206 0.58601 0.95116 0.0
C995 C 0.42623 0.59456 0.92199 0.0
C996 C 0.44182 0.60896 0.87315 0.0
C997 C 0.43616 0.58247 0.96116 0.0
H998 H 0.49691 0.60338 0.89412 0.0
H999 H 0.43373 0.61726 0.84155 0.0
C1000 C 0.53869 0.66853 0.62537 0.0
N1001 N 0.5699 0.70773 0.5434 0.0
C1002 C 0.53024 0.66575 0.56666 0.0
C1003 C 0.5632 0.69106 0.64214 0.0
C1004 C 0.54626 0.68582 0.52594 0.0
C1005 C 0.57864 0.71072 0.60015 0.0
C1006 C 0.47533 0.57671 0.76548 0.0
C1007 C 0.48446 0.56151 0.79604 0.0
C1008 C 0.44755 0.56632 0.75738 0.0
C1009 C 0.46555 0.53611 0.81829 0.0
C1010 C 0.4293 0.54085 0.78033 0.0
N1011 N 0.4386 0.5264 0.81008 0.0
C1012 C 0.56207 0.61734 0.79216 0.0
C1013 C 0.57325 0.63234 0.69337 0.0
C1014 C 0.57951 0.60675 0.79093 0.0
N1015 N 0.55881 0.6292 0.74335 0.0
C1016 C 0.59103 0.62218 0.69028 0.0
C1017 C 0.5937 0.60838 0.73887 0.0
H1018 H 0.54993 0.61472 0.83092 0.0
H1019 H 0.56996 0.64149 0.65487 0.0
C1020 C 0.45576 0.61385 0.5803 0.0
N1021 N 0.46574 0.60205 0.61678 0.0
C1022 C 0.44245 0.6009 0.52854 0.0
C1023 C 0.45066 0.56421 0.55203 0.0
C1024 C 0.46359 0.57778 0.60377 0.0
C1025 C 0.43988 0.57582 0.51386 0.0
H1026 H 0.45891 0.6337 0.59053 0.0
H1027 H 0.47226 0.56918 0.63312 0.0
O1028 O 0.52471 0.65784 0.80268 0.0
O1029 O 0.46994 0.63951 0.73263 0.0
O1030 O 0.52303 0.64922 0.66598 0.0
O1031 O 0.49343 0.602 0.74513 0.0
H1032 H 0.51207 0.67827 0.89417 0.0
H1033 H 0.57749 0.68749 0.78353 0.0
H1034 H 0.54448 0.7198 0.94819 0.0
H1035 H 0.60877 0.72899 0.83923 0.0
H1036 H 0.42504 0.68255 0.67207 0.0
H1037 H 0.47834 0.66977 0.82696 0.0
H1038 H 0.43972 0.64878 0.65718 0.0
H1039 H 0.46285 0.70315 0.8393 0.0
H1040 H 0.54172 0.76594 0.74817 0.0
H1041 H 0.50294 0.72591 0.58568 0.0
H1042 H 0.47051 0.57718 0.9806 0.0
H1043 H 0.40627 0.59211 0.92798 0.0
H1044 H 0.51149 0.64831 0.55269 0.0
H1045 H 0.57008 0.69352 0.68718 0.0
H1046 H 0.53988 0.68399 0.48045 0.0
H1047 H 0.59754 0.72837 0.6127 0.0
H1048 H 0.50589 0.56933 0.80288 0.0
H1049 H 0.44018 0.57797 0.73423 0.0
H1050 H 0.47231 0.52416 0.84224 0.0
H1051 H 0.40773 0.5326 0.77467 0.0
H1052 H 0.58051 0.59595 0.82922 0.0
H1053 H 0.60177 0.62422 0.64951 0.0
H1054 H 0.43484 0.61069 0.49959 0.0
H1055 H 0.44897 0.54483 0.54212 0.0
loop_
_geom_bond_atom_site_label_1
_geom_bond_atom_site_label_2
_geom_bond_distance
_geom_bond_site_symmetry_2
_ccdc_geom_bond_type
Li0 N17 1.990 . S
Li0 O60 1.956 . S
Li0 O61 1.970 . S
Li0 O62 1.961 . S
Li1 N25 1.990 . S
Li1 O60 1.970 . S
Li1 O61 1.956 . S
Li1 O63 1.961 . S
Li2 N47 1.990 . S
Li2 O60 1.961 . S
Li2 O62 1.956 . S
Li2 O63 1.970 . S
Li3 N53 1.990 1_554 S
Li3 O61 1.961 . S
Li3 O62 1.970 . S
Li3 O63 1.956 . S
C4 C6 1.348 . S
C4 C7 1.356 . S
C4 O60 1.325 . S
N5 C8 1.314 . S
N5 C9 1.279 . S
C6 C4 1.348 . S
C6 C8 1.353 . S
C6 H64 0.929 . S
C7 C4 1.356 . S
C7 C9 1.358 . S
C7 H65 0.930 . S
C8 N5 1.314 . S
C8 C6 1.353 . S
C8 H66 0.930 . S
C9 N5 1.279 . S
C9 C7 1.358 . S
C9 H67 0.930 . S
C10 C13 1.348 . S
C10 C14 1.356 . S
C10 O61 1.325 . S
C11 N12 1.279 . S
C11 C14 1.358 . S
C11 H68 0.930 . S
N12 C11 1.279 . S
N12 C15 1.314 . S
C13 C10 1.348 . S
C13 C15 1.353 . S
C13 H69 0.929 . S
C14 C10 1.356 . S
C14 C11 1.358 . S
C14 H70 0.930 . S
C15 N12 1.314 . S
C15 C13 1.353 . S
C15 H71 0.930 . S
C16 N17 1.314 . S
C16 C21 1.353 . S
C16 H22 0.930 1_554 S
N17 Li0 1.990 . S
N17 C16 1.314 . S
N17 C19 1.279 . S
C18 C19 1.358 . S
C18 C20 1.356 . S
C18 H72 0.930 . S
C19 N17 1.279 . S
C19 C18 1.358 . S
C19 H23 0.930 . S
C20 C18 1.356 . S
C20 C21 1.348 . S
C21 C16 1.353 . S
C21 C20 1.348 . S
C21 H73 0.929 1_554 S
H22 C16 0.930 1_556 S
H23 C19 0.930 . S
C24 N25 1.314 . S
C24 C26 1.353 . S
C24 H30 0.930 . S
N25 Li1 1.990 . S
N25 C24 1.314 . S
N25 C28 1.279 . S
C26 C24 1.353 . S
C26 C29 1.348 . S
C26 H74 0.929 . S
C27 C28 1.358 . S
C27 C29 1.356 . S
C27 H75 0.930 . S
C28 N25 1.279 . S
C28 C27 1.358 . S
C28 H31 0.930 . S
C29 C26 1.348 . S
C29 C27 1.356 . S
H30 C24 0.930 . S
H31 C28 0.930 . S
C32 C34 1.348 . S
C32 C35 1.356 . S
C32 O62 1.325 1_556 S
N33 C36 1.314 . S
N33 C37 1.279 . S
C34 C32 1.348 . S
C34 C36 1.353 . S
C34 H76 0.929 . S
C35 C32 1.356 . S
C35 C37 1.358 . S
C35 H77 0.930 1_556 S
C36 N33 1.314 . S
C36 C34 1.353 . S
C36 H78 0.930 . S
C37 N33 1.279 . S
C37 C35 1.358 . S
C37 H79 0.930 . S
C38 C39 1.348 . S
C38 C40 1.356 . S
C38 O63 1.325 . S
C39 C38 1.348 . S
C39 C41 1.353 . S
C39 H80 0.929 . S
C40 C38 1.356 . S
C40 C42 1.358 . S
C40 H81 0.930 . S
C41 C39 1.353 . S
C41 N43 1.314 . S
C41 H82 0.930 . S
C42 C40 1.358 . S
C42 N43 1.279 . S
C42 H83 0.930 . S
N43 C41 1.314 . S
N43 C42 1.279 . S
C44 C46 1.353 . S
C44 N47 1.314 . S
C44 H50 0.930 . S
C45 N47 1.279 . S
C45 C48 1.358 . S
C45 H51 0.930 . S
C46 C44 1.353 . S
C46 C49 1.348 . S
C46 H84 0.929 . S
N47 Li2 1.990 . S
N47 C44 1.314 . S
N47 C45 1.279 . S
C48 C45 1.358 . S
C48 C49 1.356 . S
C48 H85 0.930 . S
C49 C46 1.348 . S
C49 C48 1.356 . S
H50 C44 0.930 . S
H51 C45 0.930 . S
C52 N53 1.314 . S
C52 C54 1.353 . S
C52 H58 0.930 . S
N53 Li3 1.990 1_556 S
N53 C52 1.314 . S
N53 C56 1.279 . S
C54 C52 1.353 . S
C54 C57 1.348 . S
C54 H86 0.929 . S
C55 C56 1.358 . S
C55 C57 1.356 . S
C55 H87 0.930 . S
C56 N53 1.279 . S
C56 C55 1.358 . S
C56 H59 0.930 . S
C57 C54 1.348 . S
C57 C55 1.356 . S
H58 C52 0.930 . S
H59 C56 0.930 . S
O60 Li0 1.956 . S
O60 Li1 1.970 . S
O60 Li2 1.961 . S
O60 C4 1.325 . S
O61 Li0 1.970 . S
O61 Li1 1.956 . S
O61 Li3 1.961 . S
O61 C10 1.325 . S
O62 Li0 1.961 . S
O62 Li2 1.956 . S
O62 Li3 1.970 . S
O62 C32 1.325 1_554 S
O63 Li1 1.961 . S
O63 Li2 1.970 . S
O63 Li3 1.956 . S
O63 C38 1.325 . S
H64 C6 0.929 . S
H65 C7 0.930 . S
H66 C8 0.930 . S
H67 C9 0.930 . S
H68 C11 0.930 . S
H69 C13 0.929 . S
H70 C14 0.930 . S
H71 C15 0.930 . S
H72 C18 0.930 . S
H73 C21 0.929 1_556 S
H74 C26 0.929 . S
H75 C27 0.930 . S
H76 C34 0.929 . S
H77 C35 0.930 1_554 S
H78 C36 0.930 . S
H79 C37 0.930 . S
H80 C39 0.929 . S
H81 C40 0.930 . S
H82 C41 0.930 . S
H83 C42 0.930 . S
H84 C46 0.929 . S
H85 C48 0.930 . S
H86 C54 0.929 . S
H87 C55 0.930 . S
Li88 N105 1.990 . S
Li88 O148 1.956 . S
Li88 O149 1.970 . S
Li88 O150 1.961 . S
Li89 N113 1.990 . S
Li89 O148 1.970 . S
Li89 O149 1.956 . S
Li89 O151 1.961 . S
Li90 N135 1.990 . S
Li90 O148 1.961 . S
Li90 O150 1.956 . S
Li90 O151 1.970 . S
Li91 N141 1.990 . S
Li91 O149 1.961 . S
Li91 O150 1.970 . S
Li91 O151 1.956 . S
C92 C94 1.348 . S
C92 C95 1.356 . S
C92 O148 1.325 . S
N93 C96 1.314 . S
N93 C97 1.279 . S
C94 C92 1.348 . S
C94 C96 1.353 . S
C94 H152 0.929 . S
C95 C92 1.356 . S
C95 C97 1.358 . S
C95 H153 0.930 . S
C96 N93 1.314 . S
C96 C94 1.353 . S
C96 H154 0.930 . S
C97 N93 1.279 . S
C97 C95 1.358 . S
C97 H155 0.930 . S
C98 C101 1.348 . S
C98 C102 1.356 . S
C98 O149 1.325 . S
C99 N100 1.279 . S
C99 C102 1.358 . S
C99 H156 0.930 . S
N100 C99 1.279 . S
N100 C103 1.314 . S
C101 C98 1.348 . S
C101 C103 1.353 . S
C101 H157 0.929 . S
C102 C98 1.356 . S
C102 C99 1.358 . S
C102 H158 0.930 . S
C103 N100 1.314 . S
C103 C101 1.353 . S
C103 H159 0.930 . S
C104 N105 1.314 . S
C104 C109 1.353 . S
C104 H110 0.930 . S
N105 Li88 1.990 . S
N105 C104 1.314 . S
N105 C107 1.279 . S
C106 C107 1.358 . S
C106 C108 1.356 . S
C106 H160 0.930 . S
C107 N105 1.279 . S
C107 C106 1.358 . S
C107 H111 0.930 . S
C108 C106 1.356 . S
C108 C109 1.348 . S
C109 C104 1.353 . S
C109 C108 1.348 . S
C109 H161 0.929 . S
H110 C104 0.930 . S
H111 C107 0.930 . S
C112 N113 1.314 . S
C112 C114 1.353 . S
C112 H118 0.930 . S
N113 Li89 1.990 . S
N113 C112 1.314 . S
N113 C116 1.279 . S
C114 C112 1.353 . S
C114 C117 1.348 . S
C114 H162 0.929 . S
C115 C116 1.358 . S
C115 C117 1.356 . S
C115 H163 0.930 . S
C116 N113 1.279 . S
C116 C115 1.358 . S
C116 H119 0.930 . S
C117 C114 1.348 . S
C117 C115 1.356 . S
H118 C112 0.930 . S
H119 C116 0.930 . S
C120 C122 1.348 . S
C120 C123 1.356 . S
C120 O150 1.325 . S
N121 C124 1.314 . S
N121 C125 1.279 . S
C122 C120 1.348 . S
C122 C124 1.353 . S
C122 H164 0.929 . S
C123 C120 1.356 . S
C123 C125 1.358 . S
C123 H165 0.930 . S
C124 N121 1.314 . S
C124 C122 1.353 . S
C124 H166 0.930 . S
C125 N121 1.279 . S
C125 C123 1.358 . S
C125 H167 0.930 . S
C126 C127 1.348 . S
C126 C128 1.356 . S
C126 O151 1.325 . S
C127 C126 1.348 . S
C127 C129 1.353 . S
C127 H168 0.929 . S
C128 C126 1.356 . S
C128 C130 1.358 . S
C128 H169 0.930 . S
C129 C127 1.353 . S
C129 N131 1.314 . S
C129 H170 0.930 . S
C130 C128 1.358 . S
C130 N131 1.279 . S
C130 H171 0.930 . S
N131 C129 1.314 . S
N131 C130 1.279 . S
C132 C134 1.353 . S
C132 N135 1.314 . S
C132 H138 0.930 . S
C133 N135 1.279 . S
C133 C136 1.358 . S
C133 H139 0.930 . S
C134 C132 1.353 . S
C134 C137 1.348 . S
C134 H172 0.929 . S
N135 Li90 1.990 . S
N135 C132 1.314 . S
N135 C133 1.279 . S
C136 C133 1.358 . S
C136 C137 1.356 . S
C136 H173 0.930 . S
C137 C134 1.348 . S
C137 C136 1.356 . S
H138 C132 0.930 . S
H139 C133 0.930 . S
C140 N141 1.314 . S
C140 C142 1.353 . S
C140 H146 0.930 . S
N141 Li91 1.990 . S
N141 C140 1.314 . S
N141 C144 1.279 . S
C142 C140 1.353 . S
C142 C145 1.348 . S
C142 H174 0.929 . S
C143 C144 1.358 . S
C143 C145 1.356 . S
C143 H175 0.930 . S
C144 N141 1.279 . S
C144 C143 1.358 . S
C144 H147 0.930 . S
C145 C142 1.348 . S
C145 C143 1.356 . S
H146 C140 0.930 . S
H147 C144 0.930 . S
O148 Li88 1.956 . S
O148 Li89 1.970 . S
O148 Li90 1.961 . S
O148 C92 1.325 . S
O149 Li88 1.970 . S
O149 Li89 1.956 . S
O149 Li91 1.961 . S
O149 C98 1.325 . S
O150 Li88 1.961 . S
O150 Li90 1.956 . S
O150 Li91 1.970 . S
O150 C120 1.325 . S
O151 Li89 1.961 . S
O151 Li90 1.970 . S
O151 Li91 1.956 . S
O151 C126 1.325 . S
H152 C94 0.929 . S
H153 C95 0.930 . S
H154 C96 0.930 . S
H155 C97 0.930 . S
H156 C99 0.930 . S
H157 C101 0.929 . S
H158 C102 0.930 . S
H159 C103 0.930 . S
H160 C106 0.930 . S
H161 C109 0.929 . S
H162 C114 0.929 . S
H163 C115 0.930 . S
H164 C122 0.929 . S
H165 C123 0.930 . S
H166 C124 0.930 . S
H167 C125 0.930 . S
H168 C127 0.929 . S
H169 C128 0.930 . S
H170 C129 0.930 . S
H171 C130 0.930 . S
H172 C134 0.929 . S
H173 C136 0.930 . S
H174 C142 0.929 . S
H175 C143 0.930 . S
Li176 N193 1.990 . S
Li176 O236 1.956 . S
Li176 O237 1.970 . S
Li176 O238 1.961 . S
Li177 N201 1.990 . S
Li177 O236 1.970 . S
Li177 O237 1.956 . S
Li177 O239 1.961 . S
Li178 N223 1.990 . S
Li178 O236 1.961 . S
Li178 O238 1.956 . S
Li178 O239 1.970 . S
Li179 N229 1.990 . S
Li179 O237 1.961 . S
Li179 O238 1.970 . S
Li179 O239 1.956 . S
C180 C182 1.348 . S
C180 C183 1.356 . S
C180 O236 1.325 . S
N181 C184 1.314 . S
N181 C185 1.279 . S
C182 C180 1.348 . S
C182 C184 1.353 . S
C182 H240 0.929 . S
C183 C180 1.356 . S
C183 C185 1.358 . S
C183 H241 0.930 . S
C184 N181 1.314 . S
C184 C182 1.353 . S
C184 H242 0.930 . S
C185 N181 1.279 . S
C185 C183 1.358 . S
C185 H243 0.930 . S
C186 C189 1.348 . S
C186 C190 1.356 . S
C186 O237 1.325 . S
C187 N188 1.279 . S
C187 C190 1.358 . S
C187 H244 0.930 . S
N188 C187 1.279 . S
N188 C191 1.314 . S
C189 C186 1.348 . S
C189 C191 1.353 . S
C189 H245 0.929 . S
C190 C186 1.356 . S
C190 C187 1.358 . S
C190 H246 0.930 . S
C191 N188 1.314 . S
C191 C189 1.353 . S
C191 H247 0.930 . S
C192 N193 1.314 . S
C192 C197 1.353 . S
C192 H198 0.930 . S
N193 Li176 1.990 . S
N193 C192 1.314 . S
N193 C195 1.279 . S
C194 C195 1.358 . S
C194 C196 1.356 . S
C194 H248 0.930 . S
C195 N193 1.279 . S
C195 C194 1.358 . S
C195 H199 0.930 . S
C196 C194 1.356 . S
C196 C197 1.348 . S
C197 C192 1.353 . S
C197 C196 1.348 . S
C197 H249 0.929 . S
H198 C192 0.930 . S
H199 C195 0.930 . S
C200 N201 1.314 . S
C200 C202 1.353 . S
C200 H206 0.930 . S
N201 Li177 1.990 . S
N201 C200 1.314 . S
N201 C204 1.279 . S
C202 C200 1.353 . S
C202 C205 1.348 . S
C202 H250 0.929 . S
C203 C204 1.358 . S
C203 C205 1.356 . S
C203 H251 0.930 . S
C204 N201 1.279 . S
C204 C203 1.358 . S
C204 H207 0.930 . S
C205 C202 1.348 . S
C205 C203 1.356 . S
H206 C200 0.930 . S
H207 C204 0.930 . S
C208 C210 1.348 . S
C208 C211 1.356 . S
C208 O238 1.325 . S
N209 C212 1.314 . S
N209 C213 1.279 . S
C210 C208 1.348 . S
C210 C212 1.353 . S
C210 H252 0.929 . S
C211 C208 1.356 . S
C211 C213 1.358 . S
C211 H253 0.930 . S
C212 N209 1.314 . S
C212 C210 1.353 . S
C212 H254 0.930 . S
C213 N209 1.279 . S
C213 C211 1.358 . S
C213 H255 0.930 . S
C214 C215 1.348 . S
C214 C216 1.356 . S
C214 O239 1.325 . S
C215 C214 1.348 . S
C215 C217 1.353 . S
C215 H256 0.929 . S
C216 C214 1.356 . S
C216 C218 1.358 . S
C216 H257 0.930 . S
C217 C215 1.353 . S
C217 N219 1.314 . S
C217 H258 0.930 . S
C218 C216 1.358 . S
C218 N219 1.279 . S
C218 H259 0.930 . S
N219 C217 1.314 . S
N219 C218 1.279 . S
C220 C222 1.353 . S
C220 N223 1.314 . S
C220 H226 0.930 . S
C221 N223 1.279 . S
C221 C224 1.358 . S
C221 H227 0.930 . S
C222 C220 1.353 . S
C222 C225 1.348 . S
C222 H260 0.929 . S
N223 Li178 1.990 . S
N223 C220 1.314 . S
N223 C221 1.279 . S
C224 C221 1.358 . S
C224 C225 1.356 . S
C224 H261 0.930 . S
C225 C222 1.348 . S
C225 C224 1.356 . S
H226 C220 0.930 . S
H227 C221 0.930 . S
C228 N229 1.314 . S
C228 C230 1.353 . S
C228 H234 0.930 . S
N229 Li179 1.990 . S
N229 C228 1.314 . S
N229 C232 1.279 . S
C230 C228 1.353 . S
C230 C233 1.348 . S
C230 H262 0.929 . S
C231 C232 1.358 . S
C231 C233 1.356 . S
C231 H263 0.930 . S
C232 N229 1.279 . S
C232 C231 1.358 . S
C232 H235 0.930 . S
C233 C230 1.348 . S
C233 C231 1.356 . S
H234 C228 0.930 . S
H235 C232 0.930 . S
O236 Li176 1.956 . S
O236 Li177 1.970 . S
O236 Li178 1.961 . S
O236 C180 1.325 . S
O237 Li176 1.970 . S
O237 Li177 1.956 . S
O237 Li179 1.961 . S
O237 C186 1.325 . S
O238 Li176 1.961 . S
O238 Li178 1.956 . S
O238 Li179 1.970 . S
O238 C208 1.325 . S
O239 Li177 1.961 . S
O239 Li178 1.970 . S
O239 Li179 1.956 . S
O239 C214 1.325 . S
H240 C182 0.929 . S
H241 C183 0.930 . S
H242 C184 0.930 . S
H243 C185 0.930 . S
H244 C187 0.930 . S
H245 C189 0.929 . S
H246 C190 0.930 . S
H247 C191 0.930 . S
H248 C194 0.930 . S
H249 C197 0.929 . S
H250 C202 0.929 . S
H251 C203 0.930 . S
H252 C210 0.929 . S
H253 C211 0.930 . S
H254 C212 0.930 . S
H255 C213 0.930 . S
H256 C215 0.929 . S
H257 C216 0.930 . S
H258 C217 0.930 . S
H259 C218 0.930 . S
H260 C222 0.929 . S
H261 C224 0.930 . S
H262 C230 0.929 . S
H263 C231 0.930 . S
Li264 N281 1.990 . S
Li264 O324 1.956 . S
Li264 O325 1.970 . S
Li264 O326 1.961 . S
Li265 N289 1.990 . S
Li265 O324 1.970 . S
Li265 O325 1.956 . S
Li265 O327 1.961 . S
Li266 N311 1.990 . S
Li266 O324 1.961 . S
Li266 O326 1.956 . S
Li266 O327 1.970 . S
Li267 N317 1.990 . S
Li267 O325 1.961 . S
Li267 O326 1.970 . S
Li267 O327 1.956 . S
C268 C270 1.348 . S
C268 C271 1.356 . S
C268 O324 1.325 . S
N269 C272 1.314 . S
N269 C273 1.279 . S
C270 C268 1.348 . S
C270 C272 1.353 . S
C270 H328 0.929 . S
C271 C268 1.356 . S
C271 C273 1.358 . S
C271 H329 0.930 . S
C272 N269 1.314 . S
C272 C270 1.353 . S
C272 H330 0.930 . S
C273 N269 1.279 . S
C273 C271 1.358 . S
C273 H331 0.930 . S
C274 C277 1.348 . S
C274 C278 1.356 . S
C274 O325 1.325 . S
C275 N276 1.279 . S
C275 C278 1.358 . S
C275 H332 0.930 . S
N276 C275 1.279 . S
N276 C279 1.314 . S
C277 C274 1.348 . S
C277 C279 1.353 . S
C277 H333 0.929 . S
C278 C274 1.356 . S
C278 C275 1.358 . S
C278 H334 0.930 . S
C279 N276 1.314 . S
C279 C277 1.353 . S
C279 H335 0.930 . S
C280 N281 1.314 . S
C280 C285 1.353 . S
C280 H286 0.930 . S
N281 Li264 1.990 . S
N281 C280 1.314 . S
N281 C283 1.279 . S
C282 C283 1.358 . S
C282 C284 1.356 . S
C282 H336 0.930 . S
C283 N281 1.279 . S
C283 C282 1.358 . S
C283 H287 0.930 . S
C284 C282 1.356 . S
C284 C285 1.348 . S
C285 C280 1.353 . S
C285 C284 1.348 . S
C285 H337 0.929 . S
H286 C280 0.930 . S
H287 C283 0.930 . S
C288 N289 1.314 . S
C288 C290 1.353 . S
C288 H294 0.930 . S
N289 Li265 1.990 . S
N289 C288 1.314 . S
N289 C292 1.279 . S
C290 C288 1.353 . S
C290 C293 1.348 . S
C290 H338 0.929 . S
C291 C292 1.358 . S
C291 C293 1.356 . S
C291 H339 0.930 . S
C292 N289 1.279 . S
C292 C291 1.358 . S
C292 H295 0.930 . S
C293 C290 1.348 . S
C293 C291 1.356 . S
H294 C288 0.930 . S
H295 C292 0.930 . S
C296 C298 1.348 . S
C296 C299 1.356 . S
C296 O326 1.325 . S
N297 C300 1.314 . S
N297 C301 1.279 . S
C298 C296 1.348 . S
C298 C300 1.353 . S
C298 H340 0.929 . S
C299 C296 1.356 . S
C299 C301 1.358 . S
C299 H341 0.930 . S
C300 N297 1.314 . S
C300 C298 1.353 . S
C300 H342 0.930 . S
C301 N297 1.279 . S
C301 C299 1.358 . S
C301 H343 0.930 . S
C302 C303 1.348 . S
C302 C304 1.356 . S
C302 O327 1.325 . S
C303 C302 1.348 . S
C303 C305 1.353 . S
C303 H344 0.929 . S
C304 C302 1.356 . S
C304 C306 1.358 . S
C304 H345 0.930 . S
C305 C303 1.353 . S
C305 N307 1.314 . S
C305 H346 0.930 . S
C306 C304 1.358 . S
C306 N307 1.279 . S
C306 H347 0.930 . S
N307 C305 1.314 . S
N307 C306 1.279 . S
C308 C310 1.353 . S
C308 N311 1.314 . S
C308 H314 0.930 . S
C309 N311 1.279 . S
C309 C312 1.358 . S
C309 H315 0.930 . S
C310 C308 1.353 . S
C310 C313 1.348 . S
C310 H348 0.929 . S
N311 Li266 1.990 . S
N311 C308 1.314 . S
N311 C309 1.279 . S
C312 C309 1.358 . S
C312 C313 1.356 . S
C312 H349 0.930 . S
C313 C310 1.348 . S
C313 C312 1.356 . S
H314 C308 0.930 . S
H315 C309 0.930 . S
C316 N317 1.314 . S
C316 C318 1.353 . S
C316 H322 0.930 . S
N317 Li267 1.990 . S
N317 C316 1.314 . S
N317 C320 1.279 . S
C318 C316 1.353 . S
C318 C321 1.348 . S
C318 H350 0.929 . S
C319 C320 1.358 . S
C319 C321 1.356 . S
C319 H351 0.930 . S
C320 N317 1.279 . S
C320 C319 1.358 . S
C320 H323 0.930 . S
C321 C318 1.348 . S
C321 C319 1.356 . S
H322 C316 0.930 . S
H323 C320 0.930 . S
O324 Li264 1.956 . S
O324 Li265 1.970 . S
O324 Li266 1.961 . S
O324 C268 1.325 . S
O325 Li264 1.970 . S
O325 Li265 1.956 . S
O325 Li267 1.961 . S
O325 C274 1.325 . S
O326 Li264 1.961 . S
O326 Li266 1.956 . S
O326 Li267 1.970 . S
O326 C296 1.325 . S
O327 Li265 1.961 . S
O327 Li266 1.970 . S
O327 Li267 1.956 . S
O327 C302 1.325 . S
H328 C270 0.929 . S
H329 C271 0.930 . S
H330 C272 0.930 . S
H331 C273 0.930 . S
H332 C275 0.930 . S
H333 C277 0.929 . S
H334 C278 0.930 . S
H335 C279 0.930 . S
H336 C282 0.930 . S
H337 C285 0.929 . S
H338 C290 0.929 . S
H339 C291 0.930 . S
H340 C298 0.929 . S
H341 C299 0.930 . S
H342 C300 0.930 . S
H343 C301 0.930 . S
H344 C303 0.929 . S
H345 C304 0.930 . S
H346 C305 0.930 . S
H347 C306 0.930 . S
H348 C310 0.929 . S
H349 C312 0.930 . S
H350 C318 0.929 . S
H351 C319 0.930 . S
Li352 N369 1.990 . S
Li352 O412 1.956 . S
Li352 O413 1.970 . S
Li352 O414 1.961 . S
Li353 N377 1.990 . S
Li353 O412 1.970 . S
Li353 O413 1.956 . S
Li353 O415 1.961 . S
Li354 N399 1.990 . S
Li354 O412 1.961 . S
Li354 O414 1.956 . S
Li354 O415 1.970 . S
Li355 N405 1.990 . S
Li355 O413 1.961 . S
Li355 O414 1.970 . S
Li355 O415 1.956 . S
C356 C358 1.348 . S
C356 C359 1.356 . S
C356 O412 1.325 . S
N357 C360 1.314 . S
N357 C361 1.279 . S
C358 C356 1.348 . S
C358 C360 1.353 . S
C358 H416 0.929 . S
C359 C356 1.356 . S
C359 C361 1.358 . S
C359 H417 0.930 . S
C360 N357 1.314 . S
C360 C358 1.353 . S
C360 H418 0.930 . S
C361 N357 1.279 . S
C361 C359 1.358 . S
C361 H419 0.930 . S
C362 C365 1.348 . S
C362 C366 1.356 . S
C362 O413 1.325 . S
C363 N364 1.279 . S
C363 C366 1.358 . S
C363 H420 0.930 . S
N364 C363 1.279 . S
N364 C367 1.314 . S
C365 C362 1.348 . S
C365 C367 1.353 . S
C365 H421 0.929 . S
C366 C362 1.356 . S
C366 C363 1.358 . S
C366 H422 0.930 . S
C367 N364 1.314 . S
C367 C365 1.353 . S
C367 H423 0.930 . S
C368 N369 1.314 . S
C368 C373 1.353 . S
C368 H374 0.930 . S
N369 Li352 1.990 . S
N369 C368 1.314 . S
N369 C371 1.279 . S
C370 C371 1.358 . S
C370 C372 1.356 . S
C370 H424 0.930 . S
C371 N369 1.279 . S
C371 C370 1.358 . S
C371 H375 0.930 . S
C372 C370 1.356 . S
C372 C373 1.348 . S
C373 C368 1.353 . S
C373 C372 1.348 . S
C373 H425 0.929 . S
H374 C368 0.930 . S
H375 C371 0.930 . S
C376 N377 1.314 . S
C376 C378 1.353 . S
C376 H382 0.930 . S
N377 Li353 1.990 . S
N377 C376 1.314 . S
N377 C380 1.279 . S
C378 C376 1.353 . S
C378 C381 1.348 . S
C378 H426 0.929 . S
C379 C380 1.358 . S
C379 C381 1.356 . S
C379 H427 0.930 . S
C380 N377 1.279 . S
C380 C379 1.358 . S
C380 H383 0.930 . S
C381 C378 1.348 . S
C381 C379 1.356 . S
H382 C376 0.930 . S
H383 C380 0.930 . S
C384 C386 1.348 . S
C384 C387 1.356 . S
C384 O414 1.325 . S
N385 C388 1.314 . S
N385 C389 1.279 . S
C386 C384 1.348 . S
C386 C388 1.353 . S
C386 H428 0.929 . S
C387 C384 1.356 . S
C387 C389 1.358 . S
C387 H429 0.930 . S
C388 N385 1.314 . S
C388 C386 1.353 . S
C388 H430 0.930 . S
C389 N385 1.279 . S
C389 C387 1.358 . S
C389 H431 0.930 . S
C390 C391 1.348 . S
C390 C392 1.356 . S
C390 O415 1.325 . S
C391 C390 1.348 . S
C391 C393 1.353 . S
C391 H432 0.929 . S
C392 C390 1.356 . S
C392 C394 1.358 . S
C392 H433 0.930 . S
C393 C391 1.353 . S
C393 N395 1.314 . S
C393 H434 0.930 . S
C394 C392 1.358 . S
C394 N395 1.279 . S
C394 H435 0.930 . S
N395 C393 1.314 . S
N395 C394 1.279 . S
C396 C398 1.353 . S
C396 N399 1.314 . S
C396 H402 0.930 . S
C397 N399 1.279 . S
C397 C400 1.358 . S
C397 H403 0.930 . S
C398 C396 1.353 . S
C398 C401 1.348 . S
C398 H436 0.929 . S
N399 Li354 1.990 . S
N399 C396 1.314 . S
N399 C397 1.279 . S
C400 C397 1.358 . S
C400 C401 1.356 . S
C400 H437 0.930 . S
C401 C398 1.348 . S
C401 C400 1.356 . S
H402 C396 0.930 . S
H403 C397 0.930 . S
C404 N405 1.314 . S
C404 C406 1.353 . S
C404 H410 0.930 . S
N405 Li355 1.990 . S
N405 C404 1.314 . S
N405 C408 1.279 . S
C406 C404 1.353 . S
C406 C409 1.348 . S
C406 H438 0.929 . S
C407 C408 1.358 . S
C407 C409 1.356 . S
C407 H439 0.930 . S
C408 N405 1.279 . S
C408 C407 1.358 . S
C408 H411 0.930 . S
C409 C406 1.348 . S
C409 C407 1.356 . S
H410 C404 0.930 . S
H411 C408 0.930 . S
O412 Li352 1.956 . S
O412 Li353 1.970 . S
O412 Li354 1.961 . S
O412 C356 1.325 . S
O413 Li352 1.970 . S
O413 Li353 1.956 . S
O413 Li355 1.961 . S
O413 C362 1.325 . S
O414 Li352 1.961 . S
O414 Li354 1.956 . S
O414 Li355 1.970 . S
O414 C384 1.325 . S
O415 Li353 1.961 . S
O415 Li354 1.970 . S
O415 Li355 1.956 . S
O415 C390 1.325 . S
H416 C358 0.929 . S
H417 C359 0.930 . S
H418 C360 0.930 . S
H419 C361 0.930 . S
H420 C363 0.930 . S
H421 C365 0.929 . S
H422 C366 0.930 . S
H423 C367 0.930 . S
H424 C370 0.930 . S
H425 C373 0.929 . S
H426 C378 0.929 . S
H427 C379 0.930 . S
H428 C386 0.929 . S
H429 C387 0.930 . S
H430 C388 0.930 . S
H431 C389 0.930 . S
H432 C391 0.929 . S
H433 C392 0.930 . S
H434 C393 0.930 . S
H435 C394 0.930 . S
H436 C398 0.929 . S
H437 C400 0.930 . S
H438 C406 0.929 . S
H439 C407 0.930 . S
Li440 N457 1.990 . S
Li440 O500 1.956 . S
Li440 O501 1.970 . S
Li440 O502 1.961 . S
Li441 N465 1.990 . S
Li441 O500 1.970 . S
Li441 O501 1.956 . S
Li441 O503 1.961 . S
Li442 N487 1.990 1_556 S
Li442 O500 1.961 . S
Li442 O502 1.956 . S
Li442 O503 1.970 . S
Li443 N493 1.990 . S
Li443 O501 1.961 . S
Li443 O502 1.970 . S
Li443 O503 1.956 . S
C444 C446 1.348 . S
C444 C447 1.356 . S
C444 O500 1.325 . S
N445 C448 1.314 . S
N445 C449 1.279 . S
C446 C444 1.348 . S
C446 C448 1.353 . S
C446 H504 0.929 . S
C447 C444 1.356 . S
C447 C449 1.358 . S
C447 H505 0.930 . S
C448 N445 1.314 . S
C448 C446 1.353 . S
C448 H506 0.930 . S
C449 N445 1.279 . S
C449 C447 1.358 . S
C449 H507 0.930 . S
C450 C453 1.348 . S
C450 C454 1.356 . S
C450 O501 1.325 . S
C451 N452 1.279 . S
C451 C454 1.358 . S
C451 H508 0.930 . S
N452 C451 1.279 . S
N452 C455 1.314 . S
C453 C450 1.348 . S
C453 C455 1.353 . S
C453 H509 0.929 . S
C454 C450 1.356 . S
C454 C451 1.358 . S
C454 H510 0.930 . S
C455 N452 1.314 . S
C455 C453 1.353 . S
C455 H511 0.930 . S
C456 N457 1.314 . S
C456 C461 1.353 . S
C456 H462 0.930 . S
N457 Li440 1.990 . S
N457 C456 1.314 . S
N457 C459 1.279 . S
C458 C459 1.358 . S
C458 C460 1.356 . S
C458 H512 0.930 . S
C459 N457 1.279 . S
C459 C458 1.358 . S
C459 H463 0.930 . S
C460 C458 1.356 . S
C460 C461 1.348 . S
C461 C456 1.353 . S
C461 C460 1.348 . S
C461 H513 0.929 . S
H462 C456 0.930 . S
H463 C459 0.930 . S
C464 N465 1.314 . S
C464 C466 1.353 . S
C464 H470 0.930 1_556 S
N465 Li441 1.990 . S
N465 C464 1.314 . S
N465 C468 1.279 . S
C466 C464 1.353 . S
C466 C469 1.348 . S
C466 H514 0.929 1_556 S
C467 C468 1.358 . S
C467 C469 1.356 . S
C467 H515 0.930 . S
C468 N465 1.279 . S
C468 C467 1.358 . S
C468 H471 0.930 . S
C469 C466 1.348 . S
C469 C467 1.356 . S
H470 C464 0.930 1_554 S
H471 C468 0.930 . S
C472 C474 1.348 . S
C472 C475 1.356 . S
C472 O502 1.325 . S
N473 C476 1.314 . S
N473 C477 1.279 . S
C474 C472 1.348 . S
C474 C476 1.353 . S
C474 H516 0.929 . S
C475 C472 1.356 . S
C475 C477 1.358 . S
C475 H517 0.930 . S
C476 N473 1.314 . S
C476 C474 1.353 . S
C476 H518 0.930 . S
C477 N473 1.279 . S
C477 C475 1.358 . S
C477 H519 0.930 . S
C478 C479 1.348 . S
C478 C480 1.356 . S
C478 O503 1.325 1_554 S
C479 C478 1.348 . S
C479 C481 1.353 . S
C479 H520 0.929 . S
C480 C478 1.356 . S
C480 C482 1.358 . S
C480 H521 0.930 1_554 S
C481 C479 1.353 . S
C481 N483 1.314 . S
C481 H522 0.930 . S
C482 C480 1.358 . S
C482 N483 1.279 . S
C482 H523 0.930 . S
N483 C481 1.314 . S
N483 C482 1.279 . S
C484 C486 1.353 . S
C484 N487 1.314 . S
C484 H490 0.930 . S
C485 N487 1.279 . S
C485 C488 1.358 . S
C485 H491 0.930 . S
C486 C484 1.353 . S
C486 C489 1.348 . S
C486 H524 0.929 . S
N487 Li442 1.990 1_554 S
N487 C484 1.314 . S
N487 C485 1.279 . S
C488 C485 1.358 . S
C488 C489 1.356 . S
C488 H525 0.930 . S
C489 C486 1.348 . S
C489 C488 1.356 . S
H490 C484 0.930 . S
H491 C485 0.930 . S
C492 N493 1.314 . S
C492 C494 1.353 . S
C492 H498 0.930 . S
N493 Li443 1.990 . S
N493 C492 1.314 . S
N493 C496 1.279 . S
C494 C492 1.353 . S
C494 C497 1.348 . S
C494 H526 0.929 . S
C495 C496 1.358 . S
C495 C497 1.356 . S
C495 H527 0.930 . S
C496 N493 1.279 . S
C496 C495 1.358 . S
C496 H499 0.930 . S
C497 C494 1.348 . S
C497 C495 1.356 . S
H498 C492 0.930 . S
H499 C496 0.930 . S
O500 Li440 1.956 . S
O500 Li441 1.970 . S
O500 Li442 1.961 . S
O500 C444 1.325 . S
O501 Li440 1.970 . S
O501 Li441 1.956 . S
O501 Li443 1.961 . S
O501 C450 1.325 . S
O502 Li440 1.961 . S
O502 Li442 1.956 . S
O502 Li443 1.970 . S
O502 C472 1.325 . S
O503 Li441 1.961 . S
O503 Li442 1.970 . S
O503 Li443 1.956 . S
O503 C478 1.325 1_556 S
H504 C446 0.929 . S
H505 C447 0.930 . S
H506 C448 0.930 . S
H507 C449 0.930 . S
H508 C451 0.930 . S
H509 C453 0.929 . S
H510 C454 0.930 . S
H511 C455 0.930 . S
H512 C458 0.930 . S
H513 C461 0.929 . S
H514 C466 0.929 1_554 S
H515 C467 0.930 . S
H516 C474 0.929 . S
H517 C475 0.930 . S
H518 C476 0.930 . S
H519 C477 0.930 . S
H520 C479 0.929 . S
H521 C480 0.930 1_556 S
H522 C481 0.930 . S
H523 C482 0.930 . S
H524 C486 0.929 . S
H525 C488 0.930 . S
H526 C494 0.929 . S
H527 C495 0.930 . S
Li528 N545 1.990 . S
Li528 O588 1.956 . S
Li528 O589 1.970 . S
Li528 O590 1.961 . S
Li529 N553 1.990 1_556 S
Li529 O588 1.970 . S
Li529 O589 1.956 . S
Li529 O591 1.961 . S
Li530 N575 1.990 . S
Li530 O588 1.961 . S
Li530 O590 1.956 . S
Li530 O591 1.970 . S
Li531 N581 1.990 . S
Li531 O589 1.961 . S
Li531 O590 1.970 . S
Li531 O591 1.956 . S
C532 C534 1.348 . S
C532 C535 1.356 1_554 S
C532 O588 1.325 1_554 S
N533 C536 1.314 . S
N533 C537 1.279 . S
C534 C532 1.348 . S
C534 C536 1.353 . S
C534 H592 0.929 . S
C535 C532 1.356 1_556 S
C535 C537 1.358 1_556 S
C535 H593 0.930 . S
C536 N533 1.314 . S
C536 C534 1.353 . S
C536 H594 0.930 . S
C537 N533 1.279 . S
C537 C535 1.358 1_554 S
C537 H595 0.930 . S
C538 C541 1.348 . S
C538 C542 1.356 . S
C538 O589 1.325 . S
C539 N540 1.279 . S
C539 C542 1.358 . S
C539 H596 0.930 . S
N540 C539 1.279 . S
N540 C543 1.314 . S
C541 C538 1.348 . S
C541 C543 1.353 . S
C541 H597 0.929 . S
C542 C538 1.356 . S
C542 C539 1.358 . S
C542 H598 0.930 . S
C543 N540 1.314 . S
C543 C541 1.353 . S
C543 H599 0.930 . S
C544 N545 1.314 . S
C544 C549 1.353 . S
C544 H550 0.930 . S
N545 Li528 1.990 . S
N545 C544 1.314 . S
N545 C547 1.279 . S
C546 C547 1.358 . S
C546 C548 1.356 . S
C546 H600 0.930 . S
C547 N545 1.279 . S
C547 C546 1.358 . S
C547 H551 0.930 . S
C548 C546 1.356 . S
C548 C549 1.348 . S
C549 C544 1.353 . S
C549 C548 1.348 . S
C549 H601 0.929 . S
H550 C544 0.930 . S
H551 C547 0.930 . S
C552 N553 1.314 . S
C552 C554 1.353 . S
C552 H558 0.930 . S
N553 Li529 1.990 1_554 S
N553 C552 1.314 . S
N553 C556 1.279 . S
C554 C552 1.353 . S
C554 C557 1.348 . S
C554 H602 0.929 . S
C555 C556 1.358 . S
C555 C557 1.356 . S
C555 H603 0.930 . S
C556 N553 1.279 . S
C556 C555 1.358 . S
C556 H559 0.930 . S
C557 C554 1.348 . S
C557 C555 1.356 . S
H558 C552 0.930 . S
H559 C556 0.930 . S
C560 C562 1.348 . S
C560 C563 1.356 . S
C560 O590 1.325 . S
N561 C564 1.314 . S
N561 C565 1.279 . S
C562 C560 1.348 . S
C562 C564 1.353 . S
C562 H604 0.929 . S
C563 C560 1.356 . S
C563 C565 1.358 . S
C563 H605 0.930 . S
C564 N561 1.314 . S
C564 C562 1.353 . S
C564 H606 0.930 . S
C565 N561 1.279 . S
C565 C563 1.358 . S
C565 H607 0.930 . S
C566 C567 1.348 . S
C566 C568 1.356 . S
C566 O591 1.325 . S
C567 C566 1.348 . S
C567 C569 1.353 . S
C567 H608 0.929 . S
C568 C566 1.356 . S
C568 C570 1.358 . S
C568 H609 0.930 . S
C569 C567 1.353 . S
C569 N571 1.314 . S
C569 H610 0.930 . S
C570 C568 1.358 . S
C570 N571 1.279 . S
C570 H611 0.930 . S
N571 C569 1.314 . S
N571 C570 1.279 . S
C572 C574 1.353 . S
C572 N575 1.314 . S
C572 H578 0.930 . S
C573 N575 1.279 . S
C573 C576 1.358 . S
C573 H579 0.930 . S
C574 C572 1.353 . S
C574 C577 1.348 . S
C574 H612 0.929 . S
N575 Li530 1.990 . S
N575 C572 1.314 . S
N575 C573 1.279 . S
C576 C573 1.358 . S
C576 C577 1.356 . S
C576 H613 0.930 . S
C577 C574 1.348 . S
C577 C576 1.356 . S
H578 C572 0.930 . S
H579 C573 0.930 . S
C580 N581 1.314 . S
C580 C582 1.353 . S
C580 H586 0.930 . S
N581 Li531 1.990 . S
N581 C580 1.314 . S
N581 C584 1.279 . S
C582 C580 1.353 . S
C582 C585 1.348 . S
C582 H614 0.929 . S
C583 C584 1.358 . S
C583 C585 1.356 . S
C583 H615 0.930 . S
C584 N581 1.279 . S
C584 C583 1.358 . S
C584 H587 0.930 . S
C585 C582 1.348 . S
C585 C583 1.356 . S
H586 C580 0.930 . S
H587 C584 0.930 . S
O588 Li528 1.956 . S
O588 Li529 1.970 . S
O588 Li530 1.961 . S
O588 C532 1.325 1_556 S
O589 Li528 1.970 . S
O589 Li529 1.956 . S
O589 Li531 1.961 . S
O589 C538 1.325 . S
O590 Li528 1.961 . S
O590 Li530 1.956 . S
O590 Li531 1.970 . S
O590 C560 1.325 . S
O591 Li529 1.961 . S
O591 Li530 1.970 . S
O591 Li531 1.956 . S
O591 C566 1.325 . S
H592 C534 0.929 . S
H593 C535 0.930 . S
H594 C536 0.930 . S
H595 C537 0.930 . S
H596 C539 0.930 . S
H597 C541 0.929 . S
H598 C542 0.930 . S
H599 C543 0.930 . S
H600 C546 0.930 . S
H601 C549 0.929 . S
H602 C554 0.929 . S
H603 C555 0.930 . S
H604 C562 0.929 . S
H605 C563 0.930 . S
H606 C564 0.930 . S
H607 C565 0.930 . S
H608 C567 0.929 . S
H609 C568 0.930 . S
H610 C569 0.930 . S
H611 C570 0.930 . S
H612 C574 0.929 . S
H613 C576 0.930 . S
H614 C582 0.929 . S
H615 C583 0.930 . S
Li616 N633 1.990 . S
Li616 O676 1.956 . S
Li616 O677 1.970 . S
Li616 O678 1.961 1_554 S
Li617 N641 1.990 . S
Li617 O676 1.970 . S
Li617 O677 1.956 . S
Li617 O679 1.961 . S
Li618 N663 1.990 . S
Li618 O676 1.961 . S
Li618 O678 1.956 1_554 S
Li618 O679 1.970 . S
Li619 N669 1.990 1_554 S
Li619 O677 1.961 . S
Li619 O678 1.970 1_554 S
Li619 O679 1.956 . S
C620 C622 1.348 . S
C620 C623 1.356 . S
C620 O676 1.325 . S
N621 C624 1.314 . S
N621 C625 1.279 . S
C622 C620 1.348 . S
C622 C624 1.353 . S
C622 H680 0.929 . S
C623 C620 1.356 . S
C623 C625 1.358 . S
C623 H681 0.930 . S
C624 N621 1.314 . S
C624 C622 1.353 . S
C624 H682 0.930 . S
C625 N621 1.279 . S
C625 C623 1.358 . S
C625 H683 0.930 . S
C626 C629 1.348 . S
C626 C630 1.356 . S
C626 O677 1.325 . S
C627 N628 1.279 . S
C627 C630 1.358 . S
C627 H684 0.930 . S
N628 C627 1.279 . S
N628 C631 1.314 . S
C629 C626 1.348 . S
C629 C631 1.353 . S
C629 H685 0.929 . S
C630 C626 1.356 . S
C630 C627 1.358 . S
C630 H686 0.930 . S
C631 N628 1.314 . S
C631 C629 1.353 . S
C631 H687 0.930 . S
C632 N633 1.316 . S
C632 C637 1.353 1_554 S
C632 H638 0.928 1_554 S
N633 Li616 1.990 . S
N633 C632 1.316 . S
N633 C635 1.279 . S
C634 C635 1.358 . S
C634 C636 1.356 . S
C634 H688 0.930 . S
C635 N633 1.279 . S
C635 C634 1.358 . S
C635 H639 0.930 . S
C636 C634 1.356 . S
C636 C637 1.348 1_554 S
C637 C632 1.353 1_556 S
C637 C636 1.348 1_556 S
C637 H689 0.929 . S
H638 C632 0.928 1_556 S
H639 C635 0.930 . S
C640 N641 1.314 . S
C640 C642 1.353 . S
C640 H646 0.930 . S
N641 Li617 1.990 . S
N641 C640 1.314 . S
N641 C644 1.279 . S
C642 C640 1.353 . S
C642 C645 1.348 . S
C642 H690 0.929 . S
C643 C644 1.358 . S
C643 C645 1.356 . S
C643 H691 0.930 . S
C644 N641 1.279 . S
C644 C643 1.358 . S
C644 H647 0.930 . S
C645 C642 1.348 . S
C645 C643 1.356 . S
H646 C640 0.930 . S
H647 C644 0.930 . S
C648 C650 1.348 . S
C648 C651 1.356 . S
C648 O678 1.325 . S
N649 C652 1.314 . S
N649 C653 1.279 . S
C650 C648 1.348 . S
C650 C652 1.353 . S
C650 H692 0.929 . S
C651 C648 1.356 . S
C651 C653 1.358 . S
C651 H693 0.930 . S
C652 N649 1.314 . S
C652 C650 1.353 . S
C652 H694 0.930 . S
C653 N649 1.279 . S
C653 C651 1.358 . S
C653 H695 0.930 . S
C654 C655 1.348 . S
C654 C656 1.356 . S
C654 O679 1.325 . S
C655 C654 1.348 . S
C655 C657 1.353 . S
C655 H696 0.929 . S
C656 C654 1.356 . S
C656 C658 1.358 . S
C656 H697 0.930 . S
C657 C655 1.353 . S
C657 N659 1.314 . S
C657 H698 0.930 . S
C658 C656 1.358 . S
C658 N659 1.279 . S
C658 H699 0.930 . S
N659 C657 1.314 . S
N659 C658 1.279 . S
C660 C662 1.353 . S
C660 N663 1.314 . S
C660 H666 0.930 . S
C661 N663 1.279 . S
C661 C664 1.358 . S
C661 H667 0.930 1_554 S
C662 C660 1.353 . S
C662 C665 1.348 . S
C662 H700 0.929 . S
N663 Li618 1.990 . S
N663 C660 1.314 . S
N663 C661 1.279 . S
C664 C661 1.358 . S
C664 C665 1.356 . S
C664 H701 0.930 1_554 S
C665 C662 1.348 . S
C665 C664 1.356 . S
H666 C660 0.930 . S
H667 C661 0.930 1_556 S
C668 N669 1.314 . S
C668 C670 1.353 . S
C668 H674 0.930 . S
N669 Li619 1.990 1_556 S
N669 C668 1.314 . S
N669 C672 1.279 . S
C670 C668 1.353 . S
C670 C673 1.348 . S
C670 H702 0.929 . S
C671 C672 1.358 . S
C671 C673 1.356 . S
C671 H703 0.930 . S
C672 N669 1.279 . S
C672 C671 1.358 . S
C672 H675 0.930 . S
C673 C670 1.348 . S
C673 C671 1.356 . S
H674 C668 0.930 . S
H675 C672 0.930 . S
O676 Li616 1.956 . S
O676 Li617 1.970 . S
O676 Li618 1.961 . S
O676 C620 1.325 . S
O677 Li616 1.970 . S
O677 Li617 1.956 . S
O677 Li619 1.961 . S
O677 C626 1.325 . S
O678 Li616 1.961 1_556 S
O678 Li618 1.956 1_556 S
O678 Li619 1.970 1_556 S
O678 C648 1.325 . S
O679 Li617 1.961 . S
O679 Li618 1.970 . S
O679 Li619 1.956 . S
O679 C654 1.325 . S
H680 C622 0.929 . S
H681 C623 0.930 . S
H682 C624 0.930 . S
H683 C625 0.930 . S
H684 C627 0.930 . S
H685 C629 0.929 . S
H686 C630 0.930 . S
H687 C631 0.930 . S
H688 C634 0.930 . S
H689 C637 0.929 . S
H690 C642 0.929 . S
H691 C643 0.930 . S
H692 C650 0.929 . S
H693 C651 0.930 . S
H694 C652 0.930 . S
H695 C653 0.930 . S
H696 C655 0.929 . S
H697 C656 0.930 . S
H698 C657 0.930 . S
H699 C658 0.930 . S
H700 C662 0.929 . S
H701 C664 0.930 1_556 S
H702 C670 0.929 . S
H703 C671 0.930 . S
Li704 N721 1.990 . S
Li704 O764 1.956 . S
Li704 O765 1.970 . S
Li704 O766 1.961 . S
Li705 N729 1.990 . S
Li705 O764 1.970 . S
Li705 O765 1.956 . S
Li705 O767 1.961 . S
Li706 N751 1.990 . S
Li706 O764 1.961 . S
Li706 O766 1.956 . S
Li706 O767 1.970 . S
Li707 N757 1.990 . S
Li707 O765 1.961 . S
Li707 O766 1.970 . S
Li707 O767 1.956 . S
C708 C710 1.348 . S
C708 C711 1.356 . S
C708 O764 1.325 . S
N709 C712 1.314 . S
N709 C713 1.279 . S
C710 C708 1.348 . S
C710 C712 1.353 . S
C710 H768 0.929 . S
C711 C708 1.356 . S
C711 C713 1.358 . S
C711 H769 0.930 . S
C712 N709 1.314 . S
C712 C710 1.353 . S
C712 H770 0.930 . S
C713 N709 1.279 . S
C713 C711 1.358 . S
C713 H771 0.930 . S
C714 C717 1.348 . S
C714 C718 1.356 . S
C714 O765 1.325 . S
C715 N716 1.279 . S
C715 C718 1.358 . S
C715 H772 0.930 . S
N716 C715 1.279 . S
N716 C719 1.314 . S
C717 C714 1.348 . S
C717 C719 1.353 . S
C717 H773 0.929 . S
C718 C714 1.356 . S
C718 C715 1.358 . S
C718 H774 0.930 . S
C719 N716 1.314 . S
C719 C717 1.353 . S
C719 H775 0.930 . S
C720 N721 1.314 . S
C720 C725 1.353 . S
C720 H726 0.930 . S
N721 Li704 1.990 . S
N721 C720 1.314 . S
N721 C723 1.279 . S
C722 C723 1.358 . S
C722 C724 1.356 . S
C722 H776 0.930 . S
C723 N721 1.279 . S
C723 C722 1.358 . S
C723 H727 0.930 . S
C724 C722 1.356 . S
C724 C725 1.348 . S
C725 C720 1.353 . S
C725 C724 1.348 . S
C725 H777 0.929 . S
H726 C720 0.930 . S
H727 C723 0.930 . S
C728 N729 1.314 . S
C728 C730 1.353 . S
C728 H734 0.930 . S
N729 Li705 1.990 . S
N729 C728 1.314 . S
N729 C732 1.279 . S
C730 C728 1.353 . S
C730 C733 1.348 . S
C730 H778 0.929 . S
C731 C732 1.358 . S
C731 C733 1.356 . S
C731 H779 0.930 . S
C732 N729 1.279 . S
C732 C731 1.358 . S
C732 H735 0.930 . S
C733 C730 1.348 . S
C733 C731 1.356 . S
H734 C728 0.930 . S
H735 C732 0.930 . S
C736 C738 1.348 . S
C736 C739 1.356 . S
C736 O766 1.325 . S
N737 C740 1.314 . S
N737 C741 1.279 . S
C738 C736 1.348 . S
C738 C740 1.353 . S
C738 H780 0.929 . S
C739 C736 1.356 . S
C739 C741 1.358 . S
C739 H781 0.930 . S
C740 N737 1.314 . S
C740 C738 1.353 . S
C740 H782 0.930 1_554 S
C741 N737 1.279 . S
C741 C739 1.358 . S
C741 H783 0.930 . S
C742 C743 1.348 . S
C742 C744 1.356 . S
C742 O767 1.325 . S
C743 C742 1.348 . S
C743 C745 1.353 . S
C743 H784 0.929 . S
C744 C742 1.356 . S
C744 C746 1.358 . S
C744 H785 0.930 . S
C745 C743 1.353 . S
C745 N747 1.314 . S
C745 H786 0.930 . S
C746 C744 1.358 . S
C746 N747 1.279 . S
C746 H787 0.930 . S
N747 C745 1.314 . S
N747 C746 1.279 . S
C748 C750 1.353 . S
C748 N751 1.314 . S
C748 H754 0.930 . S
C749 N751 1.279 . S
C749 C752 1.358 . S
C749 H755 0.930 . S
C750 C748 1.353 . S
C750 C753 1.348 . S
C750 H788 0.929 . S
N751 Li706 1.990 . S
N751 C748 1.314 . S
N751 C749 1.279 . S
C752 C749 1.358 . S
C752 C753 1.356 . S
C752 H789 0.930 . S
C753 C750 1.348 . S
C753 C752 1.356 . S
H754 C748 0.930 . S
H755 C749 0.930 . S
C756 N757 1.314 . S
C756 C758 1.353 . S
C756 H762 0.930 . S
N757 Li707 1.990 . S
N757 C756 1.314 . S
N757 C760 1.279 . S
C758 C756 1.353 . S
C758 C761 1.348 . S
C758 H790 0.929 . S
C759 C760 1.358 . S
C759 C761 1.356 . S
C759 H791 0.930 . S
C760 N757 1.279 . S
C760 C759 1.358 . S
C760 H763 0.930 . S
C761 C758 1.348 . S
C761 C759 1.356 . S
H762 C756 0.930 . S
H763 C760 0.930 . S
O764 Li704 1.956 . S
O764 Li705 1.970 . S
O764 Li706 1.961 . S
O764 C708 1.325 . S
O765 Li704 1.970 . S
O765 Li705 1.956 . S
O765 Li707 1.961 . S
O765 C714 1.325 . S
O766 Li704 1.961 . S
O766 Li706 1.956 . S
O766 Li707 1.970 . S
O766 C736 1.325 . S
O767 Li705 1.961 . S
O767 Li706 1.970 . S
O767 Li707 1.956 . S
O767 C742 1.325 . S
H768 C710 0.929 . S
H769 C711 0.930 . S
H770 C712 0.930 . S
H771 C713 0.930 . S
H772 C715 0.930 . S
H773 C717 0.929 . S
H774 C718 0.930 . S
H775 C719 0.930 . S
H776 C722 0.930 . S
H777 C725 0.929 . S
H778 C730 0.929 . S
H779 C731 0.930 . S
H780 C738 0.929 . S
H781 C739 0.930 . S
H782 C740 0.930 1_556 S
H783 C741 0.930 . S
H784 C743 0.929 . S
H785 C744 0.930 . S
H786 C745 0.930 . S
H787 C746 0.930 . S
H788 C750 0.929 . S
H789 C752 0.930 . S
H790 C758 0.929 . S
H791 C759 0.930 . S
Li792 N809 1.990 . S
Li792 O852 1.956 . S
Li792 O853 1.970 . S
Li792 O854 1.961 . S
Li793 N817 1.990 . S
Li793 O852 1.970 . S
Li793 O853 1.956 . S
Li793 O855 1.961 . S
Li794 N839 1.990 . S
Li794 O852 1.961 . S
Li794 O854 1.956 . S
Li794 O855 1.970 . S
Li795 N845 1.990 . S
Li795 O853 1.961 . S
Li795 O854 1.970 . S
Li795 O855 1.956 . S
C796 C798 1.348 . S
C796 C799 1.356 . S
C796 O852 1.325 . S
N797 C800 1.314 . S
N797 C801 1.279 . S
C798 C796 1.348 . S
C798 C800 1.353 . S
C798 H856 0.929 . S
C799 C796 1.356 . S
C799 C801 1.358 . S
C799 H857 0.930 . S
C800 N797 1.314 . S
C800 C798 1.353 . S
C800 H858 0.930 . S
C801 N797 1.279 . S
C801 C799 1.358 . S
C801 H859 0.930 . S
C802 C805 1.348 . S
C802 C806 1.356 . S
C802 O853 1.325 . S
C803 N804 1.279 . S
C803 C806 1.358 . S
C803 H860 0.930 . S
N804 C803 1.279 . S
N804 C807 1.314 . S
C805 C802 1.348 . S
C805 C807 1.353 . S
C805 H861 0.929 . S
C806 C802 1.356 . S
C806 C803 1.358 . S
C806 H862 0.930 . S
C807 N804 1.314 . S
C807 C805 1.353 . S
C807 H863 0.930 . S
C808 N809 1.314 . S
C808 C813 1.353 . S
C808 H814 0.930 . S
N809 Li792 1.990 . S
N809 C808 1.314 . S
N809 C811 1.279 . S
C810 C811 1.358 . S
C810 C812 1.356 . S
C810 H864 0.930 . S
C811 N809 1.279 . S
C811 C810 1.358 . S
C811 H815 0.930 . S
C812 C810 1.356 . S
C812 C813 1.348 . S
C813 C808 1.353 . S
C813 C812 1.348 . S
C813 H865 0.929 . S
H814 C808 0.930 . S
H815 C811 0.930 . S
C816 N817 1.314 . S
C816 C818 1.353 . S
C816 H822 0.930 . S
N817 Li793 1.990 . S
N817 C816 1.314 . S
N817 C820 1.279 . S
C818 C816 1.353 . S
C818 C821 1.348 . S
C818 H866 0.929 . S
C819 C820 1.358 . S
C819 C821 1.356 . S
C819 H867 0.930 . S
C820 N817 1.279 . S
C820 C819 1.358 . S
C820 H823 0.930 . S
C821 C818 1.348 . S
C821 C819 1.356 . S
H822 C816 0.930 . S
H823 C820 0.930 . S
C824 C826 1.348 . S
C824 C827 1.356 . S
C824 O854 1.325 . S
N825 C828 1.314 . S
N825 C829 1.279 . S
C826 C824 1.348 . S
C826 C828 1.353 . S
C826 H868 0.929 . S
C827 C824 1.356 . S
C827 C829 1.358 . S
C827 H869 0.930 . S
C828 N825 1.314 . S
C828 C826 1.353 . S
C828 H870 0.930 . S
C829 N825 1.279 . S
C829 C827 1.358 . S
C829 H871 0.930 . S
C830 C831 1.348 . S
C830 C832 1.356 . S
C830 O855 1.325 . S
C831 C830 1.348 . S
C831 C833 1.353 . S
C831 H872 0.929 . S
C832 C830 1.356 . S
C832 C834 1.358 . S
C832 H873 0.930 . S
C833 C831 1.353 . S
C833 N835 1.314 . S
C833 H874 0.930 . S
C834 C832 1.358 . S
C834 N835 1.279 . S
C834 H875 0.930 . S
N835 C833 1.314 . S
N835 C834 1.279 . S
C836 C838 1.353 . S
C836 N839 1.314 . S
C836 H842 0.930 . S
C837 N839 1.279 . S
C837 C840 1.358 . S
C837 H843 0.930 . S
C838 C836 1.353 . S
C838 C841 1.348 . S
C838 H876 0.929 . S
N839 Li794 1.990 . S
N839 C836 1.314 . S
N839 C837 1.279 . S
C840 C837 1.358 . S
C840 C841 1.356 . S
C840 H877 0.930 . S
C841 C838 1.348 . S
C841 C840 1.356 . S
H842 C836 0.930 . S
H843 C837 0.930 . S
C844 N845 1.314 . S
C844 C846 1.353 . S
C844 H850 0.930 . S
N845 Li795 1.990 . S
N845 C844 1.314 . S
N845 C848 1.279 . S
C846 C844 1.353 . S
C846 C849 1.348 . S
C846 H878 0.929 . S
C847 C848 1.358 . S
C847 C849 1.356 . S
C847 H879 0.930 . S
C848 N845 1.279 . S
C848 C847 1.358 . S
C848 H851 0.930 . S
C849 C846 1.348 . S
C849 C847 1.356 . S
H850 C844 0.930 . S
H851 C848 0.930 . S
O852 Li792 1.956 . S
O852 Li793 1.970 . S
O852 Li794 1.961 . S
O852 C796 1.325 . S
O853 Li792 1.970 . S
O853 Li793 1.956 . S
O853 Li795 1.961 . S
O853 C802 1.325 . S
O854 Li792 1.961 . S
O854 Li794 1.956 . S
O854 Li795 1.970 . S
O854 C824 1.325 . S
O855 Li793 1.961 . S
O855 Li794 1.970 . S
O855 Li795 1.956 . S
O855 C830 1.325 . S
H856 C798 0.929 . S
H857 C799 0.930 . S
H858 C800 0.930 . S
H859 C801 0.930 . S
H860 C803 0.930 . S
H861 C805 0.929 . S
H862 C806 0.930 . S
H863 C807 0.930 . S
H864 C810 0.930 . S
H865 C813 0.929 . S
H866 C818 0.929 . S
H867 C819 0.930 . S
H868 C826 0.929 . S
H869 C827 0.930 . S
H870 C828 0.930 . S
H871 C829 0.930 . S
H872 C831 0.929 . S
H873 C832 0.930 . S
H874 C833 0.930 . S
H875 C834 0.930 . S
H876 C838 0.929 . S
H877 C840 0.930 . S
H878 C846 0.929 . S
H879 C847 0.930 . S
Li880 N897 1.990 . S
Li880 O940 1.956 . S
Li880 O941 1.970 . S
Li880 O942 1.961 . S
Li881 N905 1.990 . S
Li881 O940 1.970 . S
Li881 O941 1.956 . S
Li881 O943 1.961 . S
Li882 N927 1.990 . S
Li882 O940 1.961 . S
Li882 O942 1.956 . S
Li882 O943 1.970 . S
Li883 N933 1.990 . S
Li883 O941 1.961 . S
Li883 O942 1.970 . S
Li883 O943 1.956 . S
C884 C886 1.348 . S
C884 C887 1.356 . S
C884 O940 1.325 . S
N885 C888 1.314 . S
N885 C889 1.279 . S
C886 C884 1.348 . S
C886 C888 1.353 . S
C886 H944 0.929 . S
C887 C884 1.356 . S
C887 C889 1.358 . S
C887 H945 0.930 . S
C888 N885 1.314 . S
C888 C886 1.353 . S
C888 H946 0.930 . S
C889 N885 1.279 . S
C889 C887 1.358 . S
C889 H947 0.930 . S
C890 C893 1.348 . S
C890 C894 1.356 . S
C890 O941 1.325 . S
C891 N892 1.279 . S
C891 C894 1.358 . S
C891 H948 0.930 . S
N892 C891 1.279 . S
N892 C895 1.314 . S
C893 C890 1.348 . S
C893 C895 1.353 . S
C893 H949 0.929 . S
C894 C890 1.356 . S
C894 C891 1.358 . S
C894 H950 0.930 . S
C895 N892 1.314 . S
C895 C893 1.353 . S
C895 H951 0.930 . S
C896 N897 1.314 . S
C896 C901 1.353 . S
C896 H902 0.930 . S
N897 Li880 1.990 . S
N897 C896 1.314 . S
N897 C899 1.279 . S
C898 C899 1.358 . S
C898 C900 1.356 . S
C898 H952 0.930 . S
C899 N897 1.279 . S
C899 C898 1.358 . S
C899 H903 0.930 . S
C900 C898 1.356 . S
C900 C901 1.348 . S
C901 C896 1.353 . S
C901 C900 1.348 . S
C901 H953 0.929 . S
H902 C896 0.930 . S
H903 C899 0.930 . S
C904 N905 1.314 . S
C904 C906 1.353 . S
C904 H910 0.930 . S
N905 Li881 1.990 . S
N905 C904 1.314 . S
N905 C908 1.279 . S
C906 C904 1.353 . S
C906 C909 1.348 . S
C906 H954 0.929 . S
C907 C908 1.358 . S
C907 C909 1.356 . S
C907 H955 0.930 . S
C908 N905 1.279 . S
C908 C907 1.358 . S
C908 H911 0.930 . S
C909 C906 1.348 . S
C909 C907 1.356 . S
H910 C904 0.930 . S
H911 C908 0.930 . S
C912 C914 1.348 . S
C912 C915 1.356 . S
C912 O942 1.325 . S
N913 C916 1.314 . S
N913 C917 1.279 . S
C914 C912 1.348 . S
C914 C916 1.353 . S
C914 H956 0.929 . S
C915 C912 1.356 . S
C915 C917 1.358 . S
C915 H957 0.930 . S
C916 N913 1.314 . S
C916 C914 1.353 . S
C916 H958 0.930 . S
C917 N913 1.279 . S
C917 C915 1.358 . S
C917 H959 0.930 . S
C918 C919 1.348 . S
C918 C920 1.356 . S
C918 O943 1.325 . S
C919 C918 1.348 . S
C919 C921 1.353 . S
C919 H960 0.929 . S
C920 C918 1.356 . S
C920 C922 1.358 . S
C920 H961 0.930 . S
C921 C919 1.353 . S
C921 N923 1.314 . S
C921 H962 0.930 . S
C922 C920 1.358 . S
C922 N923 1.279 . S
C922 H963 0.930 . S
N923 C921 1.314 . S
N923 C922 1.279 . S
C924 C926 1.353 . S
C924 N927 1.314 . S
C924 H930 0.930 . S
C925 N927 1.279 . S
C925 C928 1.358 . S
C925 H931 0.930 . S
C926 C924 1.353 . S
C926 C929 1.348 . S
C926 H964 0.929 . S
N927 Li882 1.990 . S
N927 C924 1.314 . S
N927 C925 1.279 . S
C928 C925 1.358 . S
C928 C929 1.356 . S
C928 H965 0.930 . S
C929 C926 1.348 . S
C929 C928 1.356 . S
H930 C924 0.930 . S
H931 C925 0.930 . S
C932 N933 1.314 . S
C932 C934 1.353 . S
C932 H938 0.930 . S
N933 Li883 1.990 . S
N933 C932 1.314 . S
N933 C936 1.279 . S
C934 C932 1.353 . S
C934 C937 1.348 . S
C934 H966 0.929 . S
C935 C936 1.358 . S
C935 C937 1.356 . S
C935 H967 0.930 . S
C936 N933 1.279 . S
C936 C935 1.358 . S
C936 H939 0.930 . S
C937 C934 1.348 . S
C937 C935 1.356 . S
H938 C932 0.930 . S
H939 C936 0.930 . S
O940 Li880 1.956 . S
O940 Li881 1.970 . S
O940 Li882 1.961 . S
O940 C884 1.325 . S
O941 Li880 1.970 . S
O941 Li881 1.956 . S
O941 Li883 1.961 . S
O941 C890 1.325 . S
O942 Li880 1.961 . S
O942 Li882 1.956 . S
O942 Li883 1.970 . S
O942 C912 1.325 . S
O943 Li881 1.961 . S
O943 Li882 1.970 . S
O943 Li883 1.956 . S
O943 C918 1.325 . S
H944 C886 0.929 . S
H945 C887 0.930 . S
H946 C888 0.930 . S
H947 C889 0.930 . S
H948 C891 0.930 . S
H949 C893 0.929 . S
H950 C894 0.930 . S
H951 C895 0.930 . S
H952 C898 0.930 . S
H953 C901 0.929 . S
H954 C906 0.929 . S
H955 C907 0.930 . S
H956 C914 0.929 . S
H957 C915 0.930 . S
H958 C916 0.930 . S
H959 C917 0.930 . S
H960 C919 0.929 . S
H961 C920 0.930 . S
H962 C921 0.930 . S
H963 C922 0.930 . S
H964 C926 0.929 . S
H965 C928 0.930 . S
H966 C934 0.929 . S
H967 C935 0.930 . S
Li968 N985 1.990 . S
Li968 O1028 1.956 . S
Li968 O1029 1.970 . S
Li968 O1030 1.961 . S
Li969 N993 1.990 . S
Li969 O1028 1.970 . S
Li969 O1029 1.956 . S
Li969 O1031 1.961 . S
Li970 N1015 1.990 . S
Li970 O1028 1.961 . S
Li970 O1030 1.956 . S
Li970 O1031 1.970 . S
Li971 N1021 1.990 . S
Li971 O1029 1.961 . S
Li971 O1030 1.970 . S
Li971 O1031 1.956 . S
C972 C974 1.348 . S
C972 C975 1.356 . S
C972 O1028 1.325 . S
N973 C976 1.314 . S
N973 C977 1.279 . S
C974 C972 1.348 . S
C974 C976 1.353 . S
C974 H1032 0.929 . S
C975 C972 1.356 . S
C975 C977 1.358 . S
C975 H1033 0.930 . S
C976 N973 1.314 . S
C976 C974 1.353 . S
C976 H1034 0.930 . S
C977 N973 1.279 . S
C977 C975 1.358 . S
C977 H1035 0.930 . S
C978 C981 1.348 . S
C978 C982 1.356 . S
C978 O1029 1.325 . S
C979 N980 1.279 . S
C979 C982 1.358 . S
C979 H1036 0.930 . S
N980 C979 1.279 . S
N980 C983 1.314 . S
C981 C978 1.348 . S
C981 C983 1.353 . S
C981 H1037 0.929 . S
C982 C978 1.356 . S
C982 C979 1.358 . S
C982 H1038 0.930 . S
C983 N980 1.314 . S
C983 C981 1.353 . S
C983 H1039 0.930 . S
C984 N985 1.314 . S
C984 C989 1.353 . S
C984 H990 0.930 . S
N985 Li968 1.990 . S
N985 C984 1.314 . S
N985 C987 1.279 . S
C986 C987 1.358 . S
C986 C988 1.356 . S
C986 H1040 0.930 . S
C987 N985 1.279 . S
C987 C986 1.358 . S
C987 H991 0.930 . S
C988 C986 1.356 . S
C988 C989 1.348 . S
C989 C984 1.353 . S
C989 C988 1.348 . S
C989 H1041 0.929 . S
H990 C984 0.930 . S
H991 C987 0.930 . S
C992 N993 1.314 . S
C992 C994 1.353 . S
C992 H998 0.930 . S
N993 Li969 1.990 . S
N993 C992 1.314 . S
N993 C996 1.279 . S
C994 C992 1.353 . S
C994 C997 1.348 . S
C994 H1042 0.929 . S
C995 C996 1.358 . S
C995 C997 1.356 . S
C995 H1043 0.930 . S
C996 N993 1.279 . S
C996 C995 1.358 . S
C996 H999 0.930 . S
C997 C994 1.348 . S
C997 C995 1.356 . S
H998 C992 0.930 . S
H999 C996 0.930 . S
C1000 C1002 1.348 . S
C1000 C1003 1.356 . S
C1000 O1030 1.325 . S
N1001 C1004 1.314 . S
N1001 C1005 1.279 . S
C1002 C1000 1.348 . S
C1002 C1004 1.353 . S
C1002 H1044 0.929 . S
C1003 C1000 1.356 . S
C1003 C1005 1.358 . S
C1003 H1045 0.930 . S
C1004 N1001 1.314 . S
C1004 C1002 1.353 . S
C1004 H1046 0.930 . S
C1005 N1001 1.279 . S
C1005 C1003 1.358 . S
C1005 H1047 0.930 . S
C1006 C1007 1.348 . S
C1006 C1008 1.356 . S
C1006 O1031 1.325 . S
C1007 C1006 1.348 . S
C1007 C1009 1.353 . S
C1007 H1048 0.929 . S
C1008 C1006 1.356 . S
C1008 C1010 1.358 . S
C1008 H1049 0.930 . S
C1009 C1007 1.353 . S
C1009 N1011 1.314 . S
C1009 H1050 0.930 . S
C1010 C1008 1.358 . S
C1010 N1011 1.279 . S
C1010 H1051 0.930 . S
N1011 C1009 1.314 . S
N1011 C1010 1.279 . S
C1012 C1014 1.353 . S
C1012 N1015 1.314 . S
C1012 H1018 0.930 . S
C1013 N1015 1.279 . S
C1013 C1016 1.358 . S
C1013 H1019 0.930 . S
C1014 C1012 1.353 . S
C1014 C1017 1.348 . S
C1014 H1052 0.929 . S
N1015 Li970 1.990 . S
N1015 C1012 1.314 . S
N1015 C1013 1.279 . S
C1016 C1013 1.358 . S
C1016 C1017 1.356 . S
C1016 H1053 0.930 . S
C1017 C1014 1.348 . S
C1017 C1016 1.356 . S
H1018 C1012 0.930 . S
H1019 C1013 0.930 . S
C1020 N1021 1.314 . S
C1020 C1022 1.353 . S
C1020 H1026 0.930 . S
N1021 Li971 1.990 . S
N1021 C1020 1.314 . S
N1021 C1024 1.279 . S
C1022 C1020 1.353 . S
C1022 C1025 1.348 . S
C1022 H1054 0.929 . S
C1023 C1024 1.358 . S
C1023 C1025 1.356 . S
C1023 H1055 0.930 . S
C1024 N1021 1.279 . S
C1024 C1023 1.358 . S
C1024 H1027 0.930 . S
C1025 C1022 1.348 . S
C1025 C1023 1.356 . S
H1026 C1020 0.930 . S
H1027 C1024 0.930 . S
O1028 Li968 1.956 . S
O1028 Li969 1.970 . S
O1028 Li970 1.961 . S
O1028 C972 1.325 . S
O1029 Li968 1.970 . S
O1029 Li969 1.956 . S
O1029 Li971 1.961 . S
O1029 C978 1.325 . S
O1030 Li968 1.961 . S
O1030 Li970 1.956 . S
O1030 Li971 1.970 . S
O1030 C1000 1.325 . S
O1031 Li969 1.961 . S
O1031 Li970 1.970 . S
O1031 Li971 1.956 . S
O1031 C1006 1.325 . S
H1032 C974 0.929 . S
H1033 C975 0.930 . S
H1034 C976 0.930 . S
H1035 C977 0.930 . S
H1036 C979 0.930 . S
H1037 C981 0.929 . S
H1038 C982 0.930 . S
H1039 C983 0.930 . S
H1040 C986 0.930 . S
H1041 C989 0.929 . S
H1042 C994 0.929 . S
H1043 C995 0.930 . S
H1044 C1002 0.929 . S
H1045 C1003 0.930 . S
H1046 C1004 0.930 . S
H1047 C1005 0.930 . S
H1048 C1007 0.929 . S
H1049 C1008 0.930 . S
H1050 C1009 0.930 . S
H1051 C1010 0.930 . S
H1052 C1014 0.929 . S
H1053 C1016 0.930 . S
H1054 C1022 0.929 . S
H1055 C1023 0.930 . S
C29 C929 1.137 . S
C108 C1025 1.136 . S
C585 C205 1.137 . S
C293 C673 1.137 . S
C761 C381 1.137 1_554 S
C841 C489 1.137 . S
C724 C49 2.340 . S
C145 C821 2.339 . S
C909 C225 2.340 . S
C313 C988 2.340 . S
C401 C548 2.338 . S
C469 C636 2.339 1_556 S
C900 C57 2.204 . S
C997 C137 2.204 1_556 S
C557 C233 2.204 . S
C321 C645 2.204 . S
C409 C733 2.204 . S
C812 C460 2.203 . S
C20 C665 1.423 1_545 S
C753 C117 1.421 . S
C849 C196 1.421 1_455 S
C284 C937 1.423 1_565 S
C372 C1017 1.422 . S
C497 C577 1.422 1_455 S
