# Generated by pormake.
# Topology uop, (4)-cn, num edge types: 1
# Building blocks:
#     Node 0, Type 0, BuildingBlock: QUQFOY_clean_sbu_1, # of connection points: 4
#     Node 1, Type 0, BuildingBlock: QUQFOY_clean_sbu_1, # of connection points: 4
#     Node 2, Type 0, BuildingBlock: QUQFOY_clean_sbu_1, # of connection points: 4
#     Node 3, Type 0, BuildingBlock: QUQFOY_clean_sbu_1, # of connection points: 4
#     Node 4, Type 0, BuildingBlock: QUQFOY_clean_sbu_1, # of connection points: 4
#     Node 5, Type 0, BuildingBlock: QUQFOY_clean_sbu_1, # of connection points: 4
#     Node 6, Type 0, BuildingBlock: QUQFOY_clean_sbu_1, # of connection points: 4
#     Node 7, Type 0, BuildingBlock: QUQFOY_clean_sbu_1, # of connection points: 4
#     Node 8, Type 0, BuildingBlock: QUQFOY_clean_sbu_1, # of connection points: 4
#     Node 9, Type 0, BuildingBlock: QUQFOY_clean_sbu_1, # of connection points: 4
#     Node 10, Type 0, BuildingBlock: QUQFOY_clean_sbu_1, # of connection points: 4
#     Node 11, Type 0, BuildingBlock: QUQFOY_clean_sbu_1, # of connection points: 4
#     Edge 12, Type (0, 0), BuildingBlock: AJUNOK_clean_linker_0, # of connection points: 2
#     Edge 13, Type (0, 0), BuildingBlock: AJUNOK_clean_linker_0, # of connection points: 2
#     Edge 14, Type (0, 0), BuildingBlock: AJUNOK_clean_linker_0, # of connection points: 2
#     Edge 15, Type (0, 0), BuildingBlock: AJUNOK_clean_linker_0, # of connection points: 2
#     Edge 16, Type (0, 0), BuildingBlock: AJUNOK_clean_linker_0, # of connection points: 2
#     Edge 17, Type (0, 0), BuildingBlock: AJUNOK_clean_linker_0, # of connection points: 2
#     Edge 18, Type (0, 0), BuildingBlock: AJUNOK_clean_linker_0, # of connection points: 2
#     Edge 19, Type (0, 0), BuildingBlock: AJUNOK_clean_linker_0, # of connection points: 2
#     Edge 20, Type (0, 0), BuildingBlock: AJUNOK_clean_linker_0, # of connection points: 2
#     Edge 21, Type (0, 0), BuildingBlock: AJUNOK_clean_linker_0, # of connection points: 2
#     Edge 22, Type (0, 0), BuildingBlock: AJUNOK_clean_linker_0, # of connection points: 2
#     Edge 23, Type (0, 0), BuildingBlock: AJUNOK_clean_linker_0, # of connection points: 2
#     Edge 24, Type (0, 0), BuildingBlock: AJUNOK_clean_linker_0, # of connection points: 2
#     Edge 25, Type (0, 0), BuildingBlock: AJUNOK_clean_linker_0, # of connection points: 2
#     Edge 26, Type (0, 0), BuildingBlock: AJUNOK_clean_linker_0, # of connection points: 2
#     Edge 27, Type (0, 0), BuildingBlock: AJUNOK_clean_linker_0, # of connection points: 2
#     Edge 28, Type (0, 0), BuildingBlock: AJUNOK_clean_linker_0, # of connection points: 2
#     Edge 29, Type (0, 0), BuildingBlock: AJUNOK_clean_linker_0, # of connection points: 2
#     Edge 30, Type (0, 0), BuildingBlock: AJUNOK_clean_linker_0, # of connection points: 2
#     Edge 31, Type (0, 0), BuildingBlock: AJUNOK_clean_linker_0, # of connection points: 2
#     Edge 32, Type (0, 0), BuildingBlock: AJUNOK_clean_linker_0, # of connection points: 2
#     Edge 33, Type (0, 0), BuildingBlock: AJUNOK_clean_linker_0, # of connection points: 2
#     Edge 34, Type (0, 0), BuildingBlock: AJUNOK_clean_linker_0, # of connection points: 2
#     Edge 35, Type (0, 0), BuildingBlock: AJUNOK_clean_linker_0, # of connection points: 2
# Relax obj value: 0.099
# Max RMSD: 0.119
# Mean RMSD: 0.119
data_MOF--net-uop--node1-QUQFOY_clean_sbu_1--edge1-AJUNOK_clean_linker_0
_symmetry_space_group_name_H-M    P1
_symmetry_Int_Tables_number       1
_symmetry_cell_setting            triclinic
loop_
_symmetry_equiv_pos_as_xyz
'x, y, z'
_cell_length_a     24.343648
_cell_length_b     24.380109
_cell_length_c     36.932348
_cell_angle_alpha  89.950284
_cell_angle_beta   90.033897
_cell_angle_gamma 119.95301
loop_
_atom_site_label
_atom_site_type_symbol
_atom_site_fract_x
_atom_site_fract_y
_atom_site_fract_z
_atom_type_partial_charge
O0 O 0.22732 0.461 0.25208 0.0
Cd1 Cd 0.23838 0.38272 0.25668 0.0
Cd2 Cd 0.28555 0.43795 0.3172 0.0
O3 O 0.23248 0.48249 0.31025 0.0
O4 O 0.16961 0.31423 0.22721 0.0
O5 O 0.1732 0.31256 0.28708 0.0
C6 C 0.14251 0.28774 0.25742 0.0
C7 C 0.30057 0.38992 0.36853 0.0
C8 C 0.22124 0.49218 0.27781 0.0
C9 C 0.37394 0.44977 0.2581 0.0
O10 O 0.36393 0.47667 0.28456 0.0
O11 O 0.32877 0.39882 0.24512 0.0
O12 O 0.32445 0.45048 0.36658 0.0
O13 O 0.26301 0.35569 0.3429 0.0
O14 O 0.76691 0.22549 0.58861 0.0
Cd15 Cd 0.8561 0.23557 0.59277 0.0
Cd16 Cd 0.84977 0.28334 0.65353 0.0
O17 O 0.75206 0.23138 0.64694 0.0
O18 O 0.85511 0.16684 0.56296 0.0
O19 O 0.86098 0.16989 0.62279 0.0
C20 C 0.85481 0.13947 0.59302 0.0
C21 C 0.91234 0.29687 0.70485 0.0
C22 C 0.73037 0.22007 0.61468 0.0
C23 C 0.92736 0.37128 0.59464 0.0
O24 O 0.89058 0.36203 0.62109 0.0
O25 O 0.93126 0.32528 0.58126 0.0
O26 O 0.87633 0.32162 0.70296 0.0
O27 O 0.9086 0.25932 0.67913 0.0
O28 O 0.5451 0.76023 0.92248 0.0
Cd29 Cd 0.62261 0.84993 0.9273 0.0
Cd30 Cd 0.56589 0.84169 0.98764 0.0
O31 O 0.52197 0.74434 0.9805 0.0
O32 O 0.69107 0.85067 0.89734 0.0
O33 O 0.69394 0.85599 0.95721 0.0
C34 C 0.71847 0.85056 0.9273 0.0
C35 C 0.6117 0.90246 1.04011 0.0
C36 C 0.51352 0.7231 0.94819 0.0
C37 C 0.55564 0.91905 0.92834 0.0
O38 O 0.52821 0.88235 0.95485 0.0
O39 O 0.6061 0.92361 0.91528 0.0
O40 O 0.55121 0.86564 1.03716 0.0
O41 O 0.64702 0.90052 1.01461 0.0
O42 O 0.78612 0.54377 0.25299 0.0
Cd43 Cd 0.77556 0.6222 0.25829 0.0
Cd44 Cd 0.72792 0.56626 0.31868 0.0
O45 O 0.78002 0.52083 0.31101 0.0
O46 O 0.84503 0.69149 0.22958 0.0
O47 O 0.84032 0.69118 0.28944 0.0
C48 C 0.87161 0.71693 0.26009 0.0
C49 C 0.71429 0.61319 0.37108 0.0
C50 C 0.79152 0.51175 0.27851 0.0
C51 C 0.63972 0.55673 0.25985 0.0
O52 O 0.64915 0.52927 0.2863 0.0
O53 O 0.68556 0.60696 0.24662 0.0
O54 O 0.69008 0.55265 0.3684 0.0
O55 O 0.75142 0.64786 0.3454 0.0
O56 O 0.24513 0.78438 0.58562 0.0
Cd57 Cd 0.15556 0.77254 0.59123 0.0
Cd58 Cd 0.16621 0.72737 0.65198 0.0
O59 O 0.26349 0.78075 0.64366 0.0
O60 O 0.15402 0.83975 0.56112 0.0
O61 O 0.15093 0.83858 0.62103 0.0
C62 C 0.15555 0.868 0.59102 0.0
C63 C 0.10631 0.71368 0.70473 0.0
C64 C 0.2834 0.79149 0.61102 0.0
C65 C 0.0878 0.63697 0.59407 0.0
O66 O 0.12535 0.64779 0.62036 0.0
O67 O 0.08162 0.68169 0.58067 0.0
O68 O 0.14389 0.69081 0.70203 0.0
O69 O 0.10714 0.74967 0.67879 0.0
O70 O 0.46546 0.2398 0.92045 0.0
Cd71 Cd 0.38705 0.15103 0.92698 0.0
Cd72 Cd 0.44636 0.16088 0.98643 0.0
O73 O 0.49129 0.25805 0.97805 0.0
O74 O 0.31724 0.15045 0.89834 0.0
O75 O 0.31821 0.14731 0.95823 0.0
C76 C 0.29199 0.15204 0.92883 0.0
C77 C 0.40171 0.10157 1.03955 0.0
C78 C 0.49883 0.27778 0.9454 0.0
C79 C 0.4528 0.08111 0.92737 0.0
O80 O 0.48169 0.11854 0.95332 0.0
O81 O 0.4015 0.07594 0.91525 0.0
O82 O 0.46222 0.13756 1.03593 0.0
O83 O 0.36591 0.10363 1.01438 0.0
O84 O 0.54557 0.78359 0.59995 0.0
Cd85 Cd 0.62388 0.77249 0.59482 0.0
Cd86 Cd 0.56924 0.72716 0.53406 0.0
O87 O 0.52539 0.78069 0.54166 0.0
O88 O 0.69261 0.84013 0.62467 0.0
O89 O 0.69423 0.83834 0.56475 0.0
C90 C 0.7192 0.86803 0.59465 0.0
C91 C 0.6163 0.7131 0.48186 0.0
C92 C 0.51505 0.7908 0.57418 0.0
C93 C 0.55691 0.63713 0.59217 0.0
O94 O 0.53001 0.64778 0.56591 0.0
O95 O 0.60778 0.68198 0.60547 0.0
O96 O 0.5558 0.69014 0.48419 0.0
O97 O 0.65105 0.74938 0.5078 0.0
O98 O 0.76691 0.54151 0.93436 0.0
Cd99 Cd 0.85595 0.62047 0.9301 0.0
Cd100 Cd 0.84962 0.56666 0.86911 0.0
O101 O 0.75197 0.52047 0.87606 0.0
O102 O 0.85488 0.68841 0.95959 0.0
O103 O 0.86109 0.69079 0.89975 0.0
C104 C 0.85479 0.71528 0.92941 0.0
C105 C 0.91034 0.6137 0.81673 0.0
C106 C 0.73044 0.51013 0.90834 0.0
C107 C 0.92677 0.55581 0.92856 0.0
O108 O 0.89108 0.52937 0.90156 0.0
O109 O 0.93074 0.60557 0.94215 0.0
O110 O 0.87447 0.55314 0.81957 0.0
O111 O 0.90745 0.64835 0.84227 0.0
O112 O 0.22822 0.76201 0.26965 0.0
Cd113 Cd 0.23906 0.85133 0.26563 0.0
Cd114 Cd 0.28855 0.84575 0.20499 0.0
O115 O 0.23574 0.74814 0.21135 0.0
O116 O 0.16986 0.85036 0.295 0.0
O117 O 0.17438 0.85756 0.23519 0.0
C118 C 0.14332 0.85103 0.26482 0.0
C119 C 0.3045 0.90738 0.15264 0.0
C120 C 0.22339 0.72596 0.24349 0.0
C121 C 0.3747 0.92086 0.26551 0.0
O122 O 0.36613 0.88571 0.23836 0.0
O123 O 0.32865 0.92513 0.27858 0.0
O124 O 0.32853 0.8709 0.15578 0.0
O125 O 0.26651 0.90476 0.17787 0.0
O126 O 0.46508 0.22509 0.60229 0.0
Cd127 Cd 0.38681 0.23544 0.59477 0.0
Cd128 Cd 0.44444 0.28103 0.5346 0.0
O129 O 0.48847 0.22813 0.54456 0.0
O130 O 0.3162 0.1672 0.62342 0.0
O131 O 0.31884 0.16966 0.5635 0.0
C132 C 0.29184 0.13956 0.59296 0.0
C133 C 0.39991 0.29329 0.48047 0.0
C134 C 0.49724 0.21822 0.57744 0.0
C135 C 0.45252 0.37129 0.59124 0.0
O136 O 0.48123 0.36111 0.56578 0.0
O137 O 0.40177 0.32581 0.6043 0.0
O138 O 0.46007 0.31502 0.48384 0.0
O139 O 0.36408 0.25922 0.50677 0.0
O140 O 0.24423 0.46049 0.93818 0.0
Cd141 Cd 0.15512 0.38248 0.93245 0.0
Cd142 Cd 0.16497 0.43676 0.87115 0.0
O143 O 0.26213 0.4799 0.87989 0.0
O144 O 0.15364 0.31336 0.9621 0.0
O145 O 0.15106 0.31268 0.90215 0.0
C146 C 0.15544 0.28728 0.932 0.0
C147 C 0.10759 0.39295 0.81711 0.0
C148 C 0.28223 0.49055 0.91247 0.0
C149 C 0.08576 0.44884 0.92859 0.0
O150 O 0.12332 0.47552 0.90229 0.0
O151 O 0.08068 0.39875 0.94251 0.0
O152 O 0.14653 0.45284 0.82051 0.0
O153 O 0.10542 0.35684 0.84336 0.0
O154 O 0.78512 0.24217 0.26958 0.0
Cd155 Cd 0.77491 0.15313 0.26509 0.0
Cd156 Cd 0.72446 0.15858 0.20487 0.0
O157 O 0.77665 0.25613 0.21138 0.0
O158 O 0.84522 0.1542 0.29341 0.0
O159 O 0.83879 0.14765 0.23363 0.0
C160 C 0.87084 0.15398 0.26279 0.0
C161 C 0.70893 0.09764 0.15239 0.0
C162 C 0.78935 0.27822 0.24351 0.0
C163 C 0.63912 0.08168 0.26513 0.0
O164 O 0.64706 0.1174 0.23832 0.0
O165 O 0.68585 0.07842 0.27806 0.0
O166 O 0.68431 0.13356 0.15571 0.0
O167 O 0.74727 0.10051 0.17749 0.0
C168 C 0.21588 0.64455 0.28781 0.0
C169 C 0.21163 0.66111 0.2517 0.0
C170 C 0.2152 0.58812 0.29629 0.0
C171 C 0.20987 0.54545 0.26906 0.0
H172 H 0.22286 0.6768 0.30978 0.0
H173 H 0.22181 0.57945 0.32428 0.0
S174 S 0.18653 0.56117 0.17079 0.0
N175 N 0.1944 0.62653 0.18897 0.0
N176 N 0.19219 0.52015 0.20471 0.0
C177 C 0.20075 0.55913 0.23308 0.0
C178 C 0.20191 0.61695 0.22446 0.0
C179 C 0.64795 0.20866 0.56981 0.0
C180 C 0.66552 0.20852 0.60623 0.0
C181 C 0.59178 0.20818 0.56066 0.0
C182 C 0.55033 0.20717 0.58749 0.0
H183 H 0.67917 0.21206 0.54797 0.0
H184 H 0.5823 0.21135 0.53231 0.0
S185 S 0.56907 0.19633 0.68684 0.0
N186 N 0.63317 0.20019 0.66918 0.0
N187 N 0.52735 0.19851 0.65219 0.0
C188 C 0.56497 0.20233 0.62399 0.0
C189 C 0.62252 0.20321 0.63329 0.0
C190 C 0.41689 0.62147 0.96629 0.0
C191 C 0.46115 0.65809 0.93949 0.0
C192 C 0.36104 0.56541 0.95748 0.0
C193 C 0.34673 0.54358 0.92144 0.0
H194 H 0.42377 0.63762 0.99411 0.0
H195 H 0.32741 0.54079 0.97903 0.0
S196 S 0.4519 0.61591 0.84199 0.0
N197 N 0.49069 0.66373 0.87594 0.0
N198 N 0.38538 0.55893 0.85951 0.0
C199 C 0.39265 0.57717 0.89478 0.0
C200 C 0.44986 0.63416 0.90376 0.0
C201 C 0.79817 0.41593 0.29663 0.0
C202 C 0.80263 0.45843 0.26948 0.0
C203 C 0.79756 0.35959 0.28801 0.0
C204 C 0.80096 0.34296 0.25182 0.0
H205 H 0.79231 0.4247 0.32472 0.0
H206 H 0.79133 0.32749 0.30995 0.0
S207 S 0.82331 0.44236 0.17093 0.0
N208 N 0.81838 0.48342 0.20502 0.0
N209 N 0.81631 0.37724 0.18901 0.0
C210 C 0.80973 0.38694 0.2246 0.0
C211 C 0.81084 0.44466 0.23337 0.0
C212 C 0.4418 0.79737 0.61939 0.0
C213 C 0.46208 0.80252 0.58312 0.0
C214 C 0.38602 0.79769 0.62848 0.0
C215 C 0.34811 0.80348 0.60173 0.0
H216 H 0.46748 0.78993 0.641 0.0
H217 H 0.37113 0.79032 0.65655 0.0
S218 S 0.38575 0.82952 0.5034 0.0
N219 N 0.44371 0.82136 0.52083 0.0
N220 N 0.33944 0.82282 0.53775 0.0
C221 C 0.37041 0.81362 0.56565 0.0
C222 C 0.42713 0.81289 0.55639 0.0
C223 C 0.59334 0.38202 0.96237 0.0
C224 C 0.55166 0.342 0.93552 0.0
C225 C 0.64907 0.43803 0.95327 0.0
C226 C 0.66597 0.45645 0.91687 0.0
H227 H 0.58433 0.36888 0.99068 0.0
H228 H 0.6805 0.46555 0.9751 0.0
S229 S 0.56888 0.37321 0.83631 0.0
N230 N 0.52787 0.32865 0.87089 0.0
N231 N 0.63288 0.43334 0.854 0.0
C232 C 0.6228 0.41906 0.88983 0.0
C233 C 0.56569 0.36211 0.89909 0.0
C234 C 0.53358 0.46465 0.24689 0.0
C235 C 0.57388 0.53087 0.24742 0.0
C236 C 0.46752 0.43762 0.24585 0.0
C237 C 0.43995 0.47618 0.24604 0.0
H238 H 0.55317 0.43356 0.24987 0.0
H239 H 0.43813 0.38673 0.24847 0.0
S240 S 0.5244 0.65158 0.24193 0.0
N241 N 0.5816 0.63386 0.24335 0.0
N242 N 0.45724 0.58322 0.24228 0.0
C243 C 0.4797 0.54218 0.24322 0.0
C244 C 0.54691 0.5696 0.24364 0.0
C245 C 0.98233 0.54374 0.58059 0.0
C246 C 0.04837 0.57076 0.58239 0.0
C247 C 0.94287 0.4778 0.58114 0.0
C248 C 0.96834 0.43709 0.58267 0.0
H249 H 0.96095 0.57343 0.58219 0.0
H250 H 0.89207 0.45858 0.58288 0.0
S251 S 0.13849 0.48502 0.58174 0.0
N252 N 0.13781 0.55244 0.5814 0.0
N253 N 0.06336 0.4284 0.58153 0.0
C254 C 0.03421 0.46355 0.58063 0.0
C255 C 0.07438 0.5306 0.58076 0.0
C256 C 0.43781 0.97431 0.9157 0.0
C257 C 0.47736 0.0402 0.91492 0.0
C258 C 0.46386 0.93444 0.91655 0.0
C259 C 0.53003 0.95927 0.91595 0.0
H260 H 0.38711 0.95378 0.91927 0.0
H261 H 0.4322 0.88411 0.92033 0.0
S262 S 0.65264 0.12818 0.90714 0.0
N263 N 0.5849 0.12835 0.90868 0.0
N264 N 0.63371 0.05307 0.90941 0.0
C265 C 0.56948 0.02456 0.91101 0.0
C266 C 0.54307 0.0652 0.91078 0.0
C267 C 0.56993 0.54415 0.60463 0.0
C268 C 0.53067 0.57094 0.60373 0.0
C269 C 0.54366 0.47827 0.60376 0.0
C270 C 0.47747 0.43737 0.60275 0.0
H271 H 0.62092 0.57402 0.60259 0.0
H272 H 0.57538 0.45929 0.60149 0.0
S273 S 0.35487 0.48471 0.60627 0.0
N274 N 0.42286 0.55226 0.60621 0.0
N275 N 0.37361 0.42826 0.60553 0.0
C276 C 0.43792 0.46358 0.60571 0.0
C277 C 0.4646 0.5306 0.60591 0.0
C278 C 0.03278 0.56857 0.94047 0.0
C279 C 0.96666 0.52999 0.94094 0.0
C280 C 0.07181 0.54153 0.93974 0.0
C281 C 0.04588 0.47531 0.94017 0.0
H282 H 0.05416 0.61933 0.93716 0.0
H283 H 0.12241 0.57251 0.93634 0.0
S284 S 0.87583 0.35487 0.94758 0.0
N285 N 0.87701 0.4232 0.94623 0.0
N286 N 0.95072 0.37252 0.94584 0.0
C287 C 0.98027 0.43674 0.94457 0.0
C288 C 0.94049 0.46416 0.94464 0.0
C289 C 0.46672 0.0263 0.27976 0.0
C290 C 0.44015 0.96041 0.27842 0.0
C291 C 0.53268 0.06604 0.27919 0.0
C292 C 0.57378 0.04097 0.27802 0.0
H293 H 0.43672 0.04727 0.27755 0.0
H294 H 0.55157 0.11665 0.27687 0.0
S295 S 0.52695 0.87144 0.28098 0.0
N296 N 0.45916 0.8716 0.2808 0.0
N297 N 0.58331 0.9466 0.28062 0.0
C298 C 0.54775 0.97534 0.28091 0.0
C299 C 0.48067 0.93488 0.28084 0.0
C300 C 0.28408 0.31606 0.42067 0.0
C301 C 0.32456 0.36233 0.39582 0.0
C302 C 0.30838 0.29224 0.44727 0.0
C303 C 0.37385 0.31281 0.44943 0.0
H304 H 0.2337 0.29953 0.4202 0.0
H305 H 0.27572 0.2584 0.46671 0.0
S306 S 0.49768 0.42703 0.38667 0.0
N307 N 0.43173 0.42392 0.37281 0.0
N308 N 0.47734 0.37845 0.4216 0.0
C309 C 0.41399 0.3568 0.42328 0.0
C310 C 0.38937 0.38172 0.39683 0.0
C311 C 0.96889 0.27893 0.75695 0.0
C312 C 0.96377 0.31995 0.73218 0.0
C313 C 0.01679 0.30245 0.78366 0.0
C314 C 0.06211 0.36763 0.78601 0.0
H315 H 0.93467 0.22875 0.75633 0.0
H316 H 0.01746 0.26942 0.80303 0.0
S317 S 0.07338 0.49262 0.72357 0.0
N318 N 0.01035 0.42728 0.70948 0.0
N319 N 0.10101 0.47144 0.75847 0.0
C320 C 0.05891 0.40829 0.75995 0.0
C321 C 0.00961 0.38447 0.73338 0.0
C322 C 0.60104 0.97485 1.08374 0.0
C323 C 0.63832 0.95068 1.06951 0.0
C324 C 0.62525 0.02356 0.10956 0.0
C325 C 0.68741 0.04938 0.12303 0.0
H326 H 0.55289 0.95692 1.07432 0.0
H327 H 0.59433 0.04021 0.11958 0.0
S328 S 0.80458 1.00243 0.09521 0.0
N329 N 0.7411 0.95685 1.07063 0.0
N330 N 0.78575 0.04661 0.12041 0.0
C331 C 0.72513 0.02522 0.10945 0.0
C332 C 0.70089 0.9765 1.08236 0.0
C333 C 0.60649 0.62929 0.43927 0.0
C334 C 0.6433 0.69114 0.45286 0.0
C335 C 0.63102 0.60438 0.41391 0.0
C336 C 0.69294 0.64057 0.4002 0.0
H337 H 0.55849 0.5991 0.44887 0.0
H338 H 0.60051 0.5566 0.40438 0.0
S339 S 0.80897 0.80565 0.42642 0.0
N340 N 0.74552 0.78805 0.451 0.0
N341 N 0.79064 0.74207 0.40191 0.0
C342 C 0.73024 0.70286 0.41315 0.0
C343 C 0.70574 0.72782 0.43985 0.0
C344 C 0.03539 0.63121 0.74901 0.0
C345 C 0.05814 0.69199 0.73422 0.0
C346 C 0.98644 0.60607 0.77469 0.0
C347 C 0.95895 0.6412 0.78757 0.0
H348 H 0.05464 0.60199 0.74008 0.0
H349 H 0.97089 0.55898 0.78508 0.0
S350 S 1.00192 0.80344 0.75839 0.0
N351 N 0.04893 0.78679 0.73428 0.0
N352 N 0.95879 0.74064 0.78397 0.0
C353 C 0.98179 0.70255 0.77356 0.0
C354 C 0.03073 0.72759 0.74652 0.0
C355 C 0.38782 0.98037 0.1092 0.0
C356 C 0.32615 0.95572 0.12324 0.0
C357 C 0.41211 0.02885 1.08319 0.0
C358 C 0.37537 0.05394 1.06931 0.0
H359 H 0.4183 0.96292 0.11888 0.0
H360 H 0.45982 0.0458 1.0733 0.0
S361 S 0.21067 0.00571 0.09662 0.0
N362 N 0.22898 0.96081 0.12158 0.0
N363 N 0.27373 0.05011 1.07147 0.0
C364 C 0.31335 0.02941 1.08278 0.0
C365 C 0.28906 0.98093 0.11006 0.0
C366 C 0.97534 0.18986 0.29303 0.0
C367 C 0.93872 0.17127 0.26113 0.0
C368 C 0.04178 0.22246 0.29172 0.0
C369 C 0.07439 0.23791 0.25846 0.0
H370 H 0.95284 0.18329 0.31921 0.0
H371 H 0.0675 0.23963 0.31695 0.0
S372 S 1.00078 0.18657 0.16761 0.0
N373 N 0.94006 0.16067 0.19566 0.0
N374 N 0.06484 0.22199 0.1932 0.0
C375 C 0.03839 0.21336 0.22662 0.0
C376 C 0.97059 0.18002 0.22796 0.0
C377 C 0.81748 0.03635 0.56105 0.0
C378 C 0.837 0.0715 0.59342 0.0
C379 C 0.78441 0.96995 0.56143 0.0
C380 C 0.76941 0.93595 0.59421 0.0
H381 H 0.82369 0.06 0.53528 0.0
H382 H 0.76652 0.9454 0.53595 0.0
S383 S 0.82304 0.0053 0.68575 0.0
N384 N 0.84883 0.06717 0.65863 0.0
N385 N 0.78667 0.94251 0.65935 0.0
C386 C 0.79483 0.97043 0.6264 0.0
C387 C 0.82862 0.03816 0.62601 0.0
C388 C 0.81803 0.78187 0.96108 0.0
C389 C 0.83702 0.7655 0.92875 0.0
C390 C 0.78478 0.81511 0.96059 0.0
C391 C 0.76907 0.83326 0.92773 0.0
H392 H 0.82475 0.76504 0.98694 0.0
H393 H 0.76726 0.8223 0.98607 0.0
S394 S 0.82132 0.81561 0.83616 0.0
N395 N 0.84776 0.78022 0.86343 0.0
N396 N 0.78523 0.84253 0.86249 0.0
C397 C 0.79405 0.82356 0.89553 0.0
C398 C 0.82804 0.78973 0.89604 0.0
C399 C 0.97608 0.78345 0.22941 0.0
C400 C 0.93972 0.76677 0.26138 0.0
C401 C 0.04255 0.81629 0.23056 0.0
C402 C 0.07542 0.83372 0.26373 0.0
H403 H 0.95329 0.76716 0.20333 0.0
H404 H 0.06802 0.82378 0.20532 0.0
S405 S 1.00279 0.81493 0.35461 0.0
N406 N 0.94179 0.78037 0.32674 0.0
N407 N 0.06658 0.8419 0.32891 0.0
C408 C 0.03979 0.82363 0.29559 0.0
C409 C 0.97199 0.79022 0.29442 0.0
C410 C 0.19082 0.96984 0.62402 0.0
C411 C 0.17344 0.936 0.59119 0.0
C412 C 0.22422 0.03625 0.62448 0.0
C413 C 0.24165 0.0716 0.59212 0.0
H414 H 0.18273 0.94513 0.64958 0.0
H415 H 0.24034 0.05974 0.65039 0.0
S416 S 0.19431 0.00599 0.49935 0.0
N417 N 0.1663 0.94303 0.52577 0.0
N418 N 0.22905 0.06769 0.52665 0.0
C419 C 0.21841 0.03845 0.55934 0.0
C420 C 0.18431 0.97072 0.55887 0.0
C421 C 0.1909 0.2213 0.89847 0.0
C422 C 0.17332 0.23713 0.93146 0.0
C423 C 0.22437 0.18829 0.89772 0.0
C424 C 0.24166 0.16972 0.92991 0.0
H425 H 0.18294 0.23843 0.87305 0.0
H426 H 0.24064 0.18142 0.87173 0.0
S427 S 0.1936 0.18604 1.02288 0.0
N428 N 0.16573 0.22159 0.99678 0.0
N429 N 0.2286 0.15964 0.99533 0.0
C430 C 0.21814 0.17892 0.9628 0.0
C431 C 0.184 0.2126 0.96358 0.0
loop_
_geom_bond_atom_site_label_1
_geom_bond_atom_site_label_2
_geom_bond_distance
_geom_bond_site_symmetry_2
_ccdc_geom_bond_type
O0 Cd1 2.223 . S
O0 C8 1.315 . S
Cd1 O0 2.223 . S
Cd1 O4 2.297 . S
Cd1 O5 2.439 . S
Cd1 O11 2.240 . S
Cd2 O3 2.240 . S
Cd2 O10 2.223 . S
Cd2 O12 2.297 . S
Cd2 O13 2.439 . S
O3 Cd2 2.240 . S
O3 C8 1.279 . S
O4 Cd1 2.297 . S
O4 C6 1.247 . S
O5 Cd1 2.439 . S
O5 C6 1.208 . S
C6 O4 1.247 . S
C6 O5 1.208 . S
C7 O12 1.247 . S
C7 O13 1.208 . S
C8 O0 1.315 . S
C8 O3 1.279 . S
C9 O10 1.315 . S
C9 O11 1.279 . S
O10 Cd2 2.223 . S
O10 C9 1.315 . S
O11 Cd1 2.240 . S
O11 C9 1.279 . S
O12 Cd2 2.297 . S
O12 C7 1.247 . S
O13 Cd2 2.439 . S
O13 C7 1.208 . S
O14 Cd15 2.223 . S
O14 C22 1.315 . S
Cd15 O14 2.223 . S
Cd15 O18 2.297 . S
Cd15 O19 2.439 . S
Cd15 O25 2.240 . S
Cd16 O17 2.240 . S
Cd16 O24 2.223 . S
Cd16 O26 2.297 . S
Cd16 O27 2.439 . S
O17 Cd16 2.240 . S
O17 C22 1.279 . S
O18 Cd15 2.297 . S
O18 C20 1.247 . S
O19 Cd15 2.439 . S
O19 C20 1.208 . S
C20 O18 1.247 . S
C20 O19 1.208 . S
C21 O26 1.247 . S
C21 O27 1.208 . S
C22 O14 1.315 . S
C22 O17 1.279 . S
C23 O24 1.315 . S
C23 O25 1.279 . S
O24 Cd16 2.223 . S
O24 C23 1.315 . S
O25 Cd15 2.240 . S
O25 C23 1.279 . S
O26 Cd16 2.297 . S
O26 C21 1.247 . S
O27 Cd16 2.439 . S
O27 C21 1.208 . S
O28 Cd29 2.223 . S
O28 C36 1.315 . S
Cd29 O28 2.223 . S
Cd29 O32 2.297 . S
Cd29 O33 2.439 . S
Cd29 O39 2.240 . S
Cd30 O31 2.240 . S
Cd30 O38 2.223 . S
Cd30 O40 2.297 . S
Cd30 O41 2.439 . S
O31 Cd30 2.240 . S
O31 C36 1.279 . S
O32 Cd29 2.297 . S
O32 C34 1.247 . S
O33 Cd29 2.439 . S
O33 C34 1.208 . S
C34 O32 1.247 . S
C34 O33 1.208 . S
C35 O40 1.247 . S
C35 O41 1.208 . S
C36 O28 1.315 . S
C36 O31 1.279 . S
C37 O38 1.315 . S
C37 O39 1.279 . S
O38 Cd30 2.223 . S
O38 C37 1.315 . S
O39 Cd29 2.240 . S
O39 C37 1.279 . S
O40 Cd30 2.297 . S
O40 C35 1.247 . S
O41 Cd30 2.439 . S
O41 C35 1.208 . S
O42 Cd43 2.223 . S
O42 C50 1.315 . S
Cd43 O42 2.223 . S
Cd43 O46 2.297 . S
Cd43 O47 2.439 . S
Cd43 O53 2.240 . S
Cd44 O45 2.240 . S
Cd44 O52 2.223 . S
Cd44 O54 2.297 . S
Cd44 O55 2.439 . S
O45 Cd44 2.240 . S
O45 C50 1.279 . S
O46 Cd43 2.297 . S
O46 C48 1.247 . S
O47 Cd43 2.439 . S
O47 C48 1.208 . S
C48 O46 1.247 . S
C48 O47 1.208 . S
C49 O54 1.247 . S
C49 O55 1.208 . S
C50 O42 1.315 . S
C50 O45 1.279 . S
C51 O52 1.315 . S
C51 O53 1.279 . S
O52 Cd44 2.223 . S
O52 C51 1.315 . S
O53 Cd43 2.240 . S
O53 C51 1.279 . S
O54 Cd44 2.297 . S
O54 C49 1.247 . S
O55 Cd44 2.439 . S
O55 C49 1.208 . S
O56 Cd57 2.223 . S
O56 C64 1.315 . S
Cd57 O56 2.223 . S
Cd57 O60 2.297 . S
Cd57 O61 2.439 . S
Cd57 O67 2.240 . S
Cd58 O59 2.240 . S
Cd58 O66 2.223 . S
Cd58 O68 2.297 . S
Cd58 O69 2.439 . S
O59 Cd58 2.240 . S
O59 C64 1.279 . S
O60 Cd57 2.297 . S
O60 C62 1.247 . S
O61 Cd57 2.439 . S
O61 C62 1.208 . S
C62 O60 1.247 . S
C62 O61 1.208 . S
C63 O68 1.247 . S
C63 O69 1.208 . S
C64 O56 1.315 . S
C64 O59 1.279 . S
C65 O66 1.315 . S
C65 O67 1.279 . S
O66 Cd58 2.223 . S
O66 C65 1.315 . S
O67 Cd57 2.240 . S
O67 C65 1.279 . S
O68 Cd58 2.297 . S
O68 C63 1.247 . S
O69 Cd58 2.439 . S
O69 C63 1.208 . S
O70 Cd71 2.223 . S
O70 C78 1.315 . S
Cd71 O70 2.223 . S
Cd71 O74 2.297 . S
Cd71 O75 2.439 . S
Cd71 O81 2.240 . S
Cd72 O73 2.240 . S
Cd72 O80 2.223 . S
Cd72 O82 2.297 . S
Cd72 O83 2.439 . S
O73 Cd72 2.240 . S
O73 C78 1.279 . S
O74 Cd71 2.297 . S
O74 C76 1.247 . S
O75 Cd71 2.439 . S
O75 C76 1.208 . S
C76 O74 1.247 . S
C76 O75 1.208 . S
C77 O82 1.247 . S
C77 O83 1.208 . S
C78 O70 1.315 . S
C78 O73 1.279 . S
C79 O80 1.315 . S
C79 O81 1.279 . S
O80 Cd72 2.223 . S
O80 C79 1.315 . S
O81 Cd71 2.240 . S
O81 C79 1.279 . S
O82 Cd72 2.297 . S
O82 C77 1.247 . S
O83 Cd72 2.439 . S
O83 C77 1.208 . S
O84 Cd85 2.223 . S
O84 C92 1.315 . S
Cd85 O84 2.223 . S
Cd85 O88 2.297 . S
Cd85 O89 2.439 . S
Cd85 O95 2.240 . S
Cd86 O87 2.240 . S
Cd86 O94 2.223 . S
Cd86 O96 2.297 . S
Cd86 O97 2.439 . S
O87 Cd86 2.240 . S
O87 C92 1.279 . S
O88 Cd85 2.297 . S
O88 C90 1.247 . S
O89 Cd85 2.439 . S
O89 C90 1.208 . S
C90 O88 1.247 . S
C90 O89 1.208 . S
C91 O96 1.247 . S
C91 O97 1.208 . S
C92 O84 1.315 . S
C92 O87 1.279 . S
C93 O94 1.315 . S
C93 O95 1.279 . S
O94 Cd86 2.223 . S
O94 C93 1.315 . S
O95 Cd85 2.240 . S
O95 C93 1.279 . S
O96 Cd86 2.297 . S
O96 C91 1.247 . S
O97 Cd86 2.439 . S
O97 C91 1.208 . S
O98 Cd99 2.223 . S
O98 C106 1.315 . S
Cd99 O98 2.223 . S
Cd99 O102 2.297 . S
Cd99 O103 2.439 . S
Cd99 O109 2.240 . S
Cd100 O101 2.240 . S
Cd100 O108 2.223 . S
Cd100 O110 2.297 . S
Cd100 O111 2.439 . S
O101 Cd100 2.240 . S
O101 C106 1.279 . S
O102 Cd99 2.297 . S
O102 C104 1.247 . S
O103 Cd99 2.439 . S
O103 C104 1.208 . S
C104 O102 1.247 . S
C104 O103 1.208 . S
C105 O110 1.247 . S
C105 O111 1.208 . S
C106 O98 1.315 . S
C106 O101 1.279 . S
C107 O108 1.315 . S
C107 O109 1.279 . S
O108 Cd100 2.223 . S
O108 C107 1.315 . S
O109 Cd99 2.240 . S
O109 C107 1.279 . S
O110 Cd100 2.297 . S
O110 C105 1.247 . S
O111 Cd100 2.439 . S
O111 C105 1.208 . S
O112 Cd113 2.223 . S
O112 C120 1.315 . S
Cd113 O112 2.223 . S
Cd113 O116 2.297 . S
Cd113 O117 2.439 . S
Cd113 O123 2.240 . S
Cd114 O115 2.240 . S
Cd114 O122 2.223 . S
Cd114 O124 2.297 . S
Cd114 O125 2.439 . S
O115 Cd114 2.240 . S
O115 C120 1.279 . S
O116 Cd113 2.297 . S
O116 C118 1.247 . S
O117 Cd113 2.439 . S
O117 C118 1.208 . S
C118 O116 1.247 . S
C118 O117 1.208 . S
C119 O124 1.247 . S
C119 O125 1.208 . S
C120 O112 1.315 . S
C120 O115 1.279 . S
C121 O122 1.315 . S
C121 O123 1.279 . S
O122 Cd114 2.223 . S
O122 C121 1.315 . S
O123 Cd113 2.240 . S
O123 C121 1.279 . S
O124 Cd114 2.297 . S
O124 C119 1.247 . S
O125 Cd114 2.439 . S
O125 C119 1.208 . S
O126 Cd127 2.223 . S
O126 C134 1.315 . S
Cd127 O126 2.223 . S
Cd127 O130 2.297 . S
Cd127 O131 2.439 . S
Cd127 O137 2.240 . S
Cd128 O129 2.240 . S
Cd128 O136 2.223 . S
Cd128 O138 2.297 . S
Cd128 O139 2.439 . S
O129 Cd128 2.240 . S
O129 C134 1.279 . S
O130 Cd127 2.297 . S
O130 C132 1.247 . S
O131 Cd127 2.439 . S
O131 C132 1.208 . S
C132 O130 1.247 . S
C132 O131 1.208 . S
C133 O138 1.247 . S
C133 O139 1.208 . S
C134 O126 1.315 . S
C134 O129 1.279 . S
C135 O136 1.315 . S
C135 O137 1.279 . S
O136 Cd128 2.223 . S
O136 C135 1.315 . S
O137 Cd127 2.240 . S
O137 C135 1.279 . S
O138 Cd128 2.297 . S
O138 C133 1.247 . S
O139 Cd128 2.439 . S
O139 C133 1.208 . S
O140 Cd141 2.223 . S
O140 C148 1.315 . S
Cd141 O140 2.223 . S
Cd141 O144 2.297 . S
Cd141 O145 2.439 . S
Cd141 O151 2.240 . S
Cd142 O143 2.240 . S
Cd142 O150 2.223 . S
Cd142 O152 2.297 . S
Cd142 O153 2.439 . S
O143 Cd142 2.240 . S
O143 C148 1.279 . S
O144 Cd141 2.297 . S
O144 C146 1.247 . S
O145 Cd141 2.439 . S
O145 C146 1.208 . S
C146 O144 1.247 . S
C146 O145 1.208 . S
C147 O152 1.247 . S
C147 O153 1.208 . S
C148 O140 1.315 . S
C148 O143 1.279 . S
C149 O150 1.315 . S
C149 O151 1.279 . S
O150 Cd142 2.223 . S
O150 C149 1.315 . S
O151 Cd141 2.240 . S
O151 C149 1.279 . S
O152 Cd142 2.297 . S
O152 C147 1.247 . S
O153 Cd142 2.439 . S
O153 C147 1.208 . S
O154 Cd155 2.223 . S
O154 C162 1.315 . S
Cd155 O154 2.223 . S
Cd155 O158 2.297 . S
Cd155 O159 2.439 . S
Cd155 O165 2.240 . S
Cd156 O157 2.240 . S
Cd156 O164 2.223 . S
Cd156 O166 2.297 . S
Cd156 O167 2.439 . S
O157 Cd156 2.240 . S
O157 C162 1.279 . S
O158 Cd155 2.297 . S
O158 C160 1.247 . S
O159 Cd155 2.439 . S
O159 C160 1.208 . S
C160 O158 1.247 . S
C160 O159 1.208 . S
C161 O166 1.247 . S
C161 O167 1.208 . S
C162 O154 1.315 . S
C162 O157 1.279 . S
C163 O164 1.315 . S
C163 O165 1.279 . S
O164 Cd156 2.223 . S
O164 C163 1.315 . S
O165 Cd155 2.240 . S
O165 C163 1.279 . S
O166 Cd156 2.297 . S
O166 C161 1.247 . S
O167 Cd156 2.439 . S
O167 C161 1.208 . S
C168 C169 1.369 . S
C168 C170 1.419 . S
C168 H172 0.930 . S
C169 C168 1.369 . S
C169 C178 1.429 . S
C170 C168 1.419 . S
C170 C171 1.363 . S
C170 H173 0.929 . S
C171 C170 1.363 . S
C171 C177 1.428 . S
H172 C168 0.930 . S
H173 C170 0.929 . S
S174 N175 1.613 . S
S174 N176 1.610 . S
N175 S174 1.613 . S
N175 C178 1.350 . S
N176 S174 1.610 . S
N176 C177 1.351 . S
C177 C171 1.428 . S
C177 N176 1.351 . S
C177 C178 1.434 . S
C178 C169 1.429 . S
C178 N175 1.350 . S
C178 C177 1.434 . S
C179 C180 1.369 . S
C179 C181 1.419 . S
C179 H183 0.930 . S
C180 C179 1.369 . S
C180 C189 1.429 . S
C181 C179 1.419 . S
C181 C182 1.363 . S
C181 H184 0.929 . S
C182 C181 1.363 . S
C182 C188 1.428 . S
H183 C179 0.930 . S
H184 C181 0.929 . S
S185 N186 1.613 . S
S185 N187 1.610 . S
N186 S185 1.613 . S
N186 C189 1.350 . S
N187 S185 1.610 . S
N187 C188 1.351 . S
C188 C182 1.428 . S
C188 N187 1.351 . S
C188 C189 1.434 . S
C189 C180 1.429 . S
C189 N186 1.350 . S
C189 C188 1.434 . S
C190 C191 1.369 . S
C190 C192 1.419 . S
C190 H194 0.930 . S
C191 C190 1.369 . S
C191 C200 1.429 . S
C192 C190 1.419 . S
C192 C193 1.363 . S
C192 H195 0.929 . S
C193 C192 1.363 . S
C193 C199 1.428 . S
H194 C190 0.930 . S
H195 C192 0.929 . S
S196 N197 1.613 . S
S196 N198 1.610 . S
N197 S196 1.613 . S
N197 C200 1.350 . S
N198 S196 1.610 . S
N198 C199 1.351 . S
C199 C193 1.428 . S
C199 N198 1.351 . S
C199 C200 1.434 . S
C200 C191 1.429 . S
C200 N197 1.350 . S
C200 C199 1.434 . S
C201 C202 1.369 . S
C201 C203 1.419 . S
C201 H205 0.930 . S
C202 C201 1.369 . S
C202 C211 1.429 . S
C203 C201 1.419 . S
C203 C204 1.363 . S
C203 H206 0.929 . S
C204 C203 1.363 . S
C204 C210 1.428 . S
H205 C201 0.930 . S
H206 C203 0.929 . S
S207 N208 1.613 . S
S207 N209 1.610 . S
N208 S207 1.613 . S
N208 C211 1.350 . S
N209 S207 1.610 . S
N209 C210 1.351 . S
C210 C204 1.428 . S
C210 N209 1.351 . S
C210 C211 1.434 . S
C211 C202 1.429 . S
C211 N208 1.350 . S
C211 C210 1.434 . S
C212 C213 1.369 . S
C212 C214 1.419 . S
C212 H216 0.930 . S
C213 C212 1.369 . S
C213 C222 1.429 . S
C214 C212 1.419 . S
C214 C215 1.363 . S
C214 H217 0.929 . S
C215 C214 1.363 . S
C215 C221 1.428 . S
H216 C212 0.930 . S
H217 C214 0.929 . S
S218 N219 1.613 . S
S218 N220 1.610 . S
N219 S218 1.613 . S
N219 C222 1.350 . S
N220 S218 1.610 . S
N220 C221 1.351 . S
C221 C215 1.428 . S
C221 N220 1.351 . S
C221 C222 1.434 . S
C222 C213 1.429 . S
C222 N219 1.350 . S
C222 C221 1.434 . S
C223 C224 1.369 . S
C223 C225 1.419 . S
C223 H227 0.930 . S
C224 C223 1.369 . S
C224 C233 1.429 . S
C225 C223 1.419 . S
C225 C226 1.363 . S
C225 H228 0.929 . S
C226 C225 1.363 . S
C226 C232 1.428 . S
H227 C223 0.930 . S
H228 C225 0.929 . S
S229 N230 1.613 . S
S229 N231 1.610 . S
N230 S229 1.613 . S
N230 C233 1.350 . S
N231 S229 1.610 . S
N231 C232 1.351 . S
C232 C226 1.428 . S
C232 N231 1.351 . S
C232 C233 1.434 . S
C233 C224 1.429 . S
C233 N230 1.350 . S
C233 C232 1.434 . S
C234 C235 1.369 . S
C234 C236 1.419 . S
C234 H238 0.930 . S
C235 C234 1.369 . S
C235 C244 1.429 . S
C236 C234 1.419 . S
C236 C237 1.363 . S
C236 H239 0.929 . S
C237 C236 1.363 . S
C237 C243 1.428 . S
H238 C234 0.930 . S
H239 C236 0.929 . S
S240 N241 1.613 . S
S240 N242 1.610 . S
N241 S240 1.613 . S
N241 C244 1.350 . S
N242 S240 1.610 . S
N242 C243 1.351 . S
C243 C237 1.428 . S
C243 N242 1.351 . S
C243 C244 1.434 . S
C244 C235 1.429 . S
C244 N241 1.350 . S
C244 C243 1.434 . S
C245 C246 1.369 1_655 S
C245 C247 1.419 . S
C245 H249 0.930 . S
C246 C245 1.369 1_455 S
C246 C255 1.429 . S
C247 C245 1.419 . S
C247 C248 1.363 . S
C247 H250 0.929 . S
C248 C247 1.363 . S
C248 C254 1.428 1_655 S
H249 C245 0.930 . S
H250 C247 0.929 . S
S251 N252 1.613 . S
S251 N253 1.610 . S
N252 S251 1.613 . S
N252 C255 1.350 . S
N253 S251 1.610 . S
N253 C254 1.351 . S
C254 C248 1.428 1_455 S
C254 N253 1.351 . S
C254 C255 1.434 . S
C255 C246 1.429 . S
C255 N252 1.350 . S
C255 C254 1.434 . S
C256 C257 1.369 1_565 S
C256 C258 1.419 . S
C256 H260 0.930 . S
C257 C256 1.369 1_545 S
C257 C266 1.429 . S
C258 C256 1.419 . S
C258 C259 1.363 . S
C258 H261 0.929 . S
C259 C258 1.363 . S
C259 C265 1.428 1_565 S
H260 C256 0.930 . S
H261 C258 0.929 . S
S262 N263 1.613 . S
S262 N264 1.610 . S
N263 S262 1.613 . S
N263 C266 1.350 . S
N264 S262 1.610 . S
N264 C265 1.351 . S
C265 C259 1.428 1_545 S
C265 N264 1.351 . S
C265 C266 1.434 . S
C266 C257 1.429 . S
C266 N263 1.350 . S
C266 C265 1.434 . S
C267 C268 1.369 . S
C267 C269 1.419 . S
C267 H271 0.930 . S
C268 C267 1.369 . S
C268 C277 1.429 . S
C269 C267 1.419 . S
C269 C270 1.363 . S
C269 H272 0.929 . S
C270 C269 1.363 . S
C270 C276 1.428 . S
H271 C267 0.930 . S
H272 C269 0.929 . S
S273 N274 1.613 . S
S273 N275 1.610 . S
N274 S273 1.613 . S
N274 C277 1.350 . S
N275 S273 1.610 . S
N275 C276 1.351 . S
C276 C270 1.428 . S
C276 N275 1.351 . S
C276 C277 1.434 . S
C277 C268 1.429 . S
C277 N274 1.350 . S
C277 C276 1.434 . S
C278 C279 1.369 1_455 S
C278 C280 1.419 . S
C278 H282 0.930 . S
C279 C278 1.369 1_655 S
C279 C288 1.429 . S
C280 C278 1.419 . S
C280 C281 1.363 . S
C280 H283 0.929 . S
C281 C280 1.363 . S
C281 C287 1.428 1_455 S
H282 C278 0.930 . S
H283 C280 0.929 . S
S284 N285 1.613 . S
S284 N286 1.610 . S
N285 S284 1.613 . S
N285 C288 1.350 . S
N286 S284 1.610 . S
N286 C287 1.351 . S
C287 C281 1.428 1_655 S
C287 N286 1.351 . S
C287 C288 1.434 . S
C288 C279 1.429 . S
C288 N285 1.350 . S
C288 C287 1.434 . S
C289 C290 1.369 1_545 S
C289 C291 1.419 . S
C289 H293 0.930 . S
C290 C289 1.369 1_565 S
C290 C299 1.429 . S
C291 C289 1.419 . S
C291 C292 1.363 . S
C291 H294 0.929 . S
C292 C291 1.363 . S
C292 C298 1.428 1_545 S
H293 C289 0.930 . S
H294 C291 0.929 . S
S295 N296 1.613 . S
S295 N297 1.610 . S
N296 S295 1.613 . S
N296 C299 1.350 . S
N297 S295 1.610 . S
N297 C298 1.351 . S
C298 C292 1.428 1_565 S
C298 N297 1.351 . S
C298 C299 1.434 . S
C299 C290 1.429 . S
C299 N296 1.350 . S
C299 C298 1.434 . S
C300 C301 1.369 . S
C300 C302 1.419 . S
C300 H304 0.930 . S
C301 C300 1.369 . S
C301 C310 1.429 . S
C302 C300 1.419 . S
C302 C303 1.363 . S
C302 H305 0.929 . S
C303 C302 1.363 . S
C303 C309 1.428 . S
H304 C300 0.930 . S
H305 C302 0.929 . S
S306 N307 1.613 . S
S306 N308 1.610 . S
N307 S306 1.613 . S
N307 C310 1.350 . S
N308 S306 1.610 . S
N308 C309 1.351 . S
C309 C303 1.428 . S
C309 N308 1.351 . S
C309 C310 1.434 . S
C310 C301 1.429 . S
C310 N307 1.350 . S
C310 C309 1.434 . S
C311 C312 1.369 . S
C311 C313 1.419 . S
C311 H315 0.930 . S
C312 C311 1.369 . S
C312 C321 1.429 1_655 S
C313 C311 1.419 . S
C313 C314 1.363 1_655 S
C313 H316 0.929 . S
C314 C313 1.363 1_455 S
C314 C320 1.428 . S
H315 C311 0.930 . S
H316 C313 0.929 . S
S317 N318 1.613 . S
S317 N319 1.610 . S
N318 S317 1.613 . S
N318 C321 1.350 . S
N319 S317 1.610 . S
N319 C320 1.351 . S
C320 C314 1.428 . S
C320 N319 1.351 . S
C320 C321 1.434 . S
C321 C312 1.429 1_455 S
C321 N318 1.350 . S
C321 C320 1.434 . S
C322 C323 1.369 . S
C322 C324 1.419 1_566 S
C322 H326 0.930 . S
C323 C322 1.369 . S
C323 C332 1.429 . S
C324 C322 1.419 1_544 S
C324 C325 1.363 . S
C324 H327 0.929 . S
C325 C324 1.363 . S
C325 C331 1.428 . S
H326 C322 0.930 . S
H327 C324 0.929 . S
S328 N329 1.612 1_554 S
S328 N330 1.603 1_565 S
N329 S328 1.612 1_556 S
N329 C332 1.350 . S
N330 S328 1.603 1_545 S
N330 C331 1.351 . S
C331 C325 1.428 . S
C331 N330 1.351 . S
C331 C332 1.434 1_544 S
C332 C323 1.429 . S
C332 N329 1.350 . S
C332 C331 1.434 1_566 S
C333 C334 1.369 . S
C333 C335 1.419 . S
C333 H337 0.930 . S
C334 C333 1.369 . S
C334 C343 1.429 . S
C335 C333 1.419 . S
C335 C336 1.363 . S
C335 H338 0.929 . S
C336 C335 1.363 . S
C336 C342 1.428 . S
H337 C333 0.930 . S
H338 C335 0.929 . S
S339 N340 1.613 . S
S339 N341 1.610 . S
N340 S339 1.613 . S
N340 C343 1.350 . S
N341 S339 1.610 . S
N341 C342 1.351 . S
C342 C336 1.428 . S
C342 N341 1.351 . S
C342 C343 1.434 . S
C343 C334 1.429 . S
C343 N340 1.350 . S
C343 C342 1.434 . S
C344 C345 1.369 . S
C344 C346 1.419 . S
C344 H348 0.930 . S
C345 C344 1.369 . S
C345 C354 1.429 1_455 S
C346 C344 1.419 . S
C346 C347 1.363 1_455 S
C346 H349 0.929 . S
C347 C346 1.363 1_655 S
C347 C353 1.428 . S
H348 C344 0.930 . S
H349 C346 0.929 . S
S350 N351 1.613 . S
S350 N352 1.610 . S
N351 S350 1.613 . S
N351 C354 1.350 . S
N352 S350 1.610 . S
N352 C353 1.351 . S
C353 C347 1.428 . S
C353 N352 1.351 . S
C353 C354 1.434 . S
C354 C345 1.429 1_655 S
C354 N351 1.350 . S
C354 C353 1.434 . S
C355 C356 1.369 . S
C355 C357 1.419 1_554 S
C355 H359 0.930 . S
C356 C355 1.369 . S
C356 C365 1.429 1_565 S
C357 C355 1.419 1_556 S
C357 C358 1.363 1_565 S
C357 H360 0.929 . S
C358 C357 1.363 1_545 S
C358 C364 1.434 . S
H359 C355 0.930 . S
H360 C357 0.929 . S
S361 N362 1.613 . S
S361 N363 1.610 1_554 S
N362 S361 1.613 . S
N362 C365 1.350 . S
N363 S361 1.610 1_556 S
N363 C364 1.352 . S
C364 C358 1.434 . S
C364 N363 1.352 . S
C364 C365 1.426 1_556 S
C365 C356 1.429 1_545 S
C365 N362 1.350 . S
C365 C364 1.426 1_554 S
C366 C367 1.369 . S
C366 C368 1.419 1_655 S
C366 H370 0.930 . S
C367 C366 1.369 . S
C367 C376 1.429 . S
C368 C366 1.419 1_455 S
C368 C369 1.363 . S
C368 H371 0.929 . S
C369 C368 1.363 . S
C369 C375 1.428 . S
H370 C366 0.930 . S
H371 C368 0.929 . S
S372 N373 1.613 . S
S372 N374 1.610 1_655 S
N373 S372 1.613 . S
N373 C376 1.350 . S
N374 S372 1.610 1_455 S
N374 C375 1.351 . S
C375 C369 1.428 . S
C375 N374 1.351 . S
C375 C376 1.434 1_455 S
C376 C367 1.429 . S
C376 N373 1.350 . S
C376 C375 1.434 1_655 S
C377 C378 1.369 . S
C377 C379 1.419 1_545 S
C377 H381 0.930 . S
C378 C377 1.369 . S
C378 C387 1.429 . S
C379 C377 1.419 1_565 S
C379 C380 1.363 . S
C379 H382 0.929 . S
C380 C379 1.363 . S
C380 C386 1.428 . S
H381 C377 0.930 . S
H382 C379 0.929 . S
S383 N384 1.630 . S
S383 N385 1.604 1_545 S
N384 S383 1.630 . S
N384 C387 1.350 . S
N385 S383 1.604 1_565 S
N385 C386 1.351 . S
C386 C380 1.428 . S
C386 N385 1.351 . S
C386 C387 1.434 1_565 S
C387 C378 1.429 . S
C387 N384 1.350 . S
C387 C386 1.434 1_545 S
C388 C389 1.369 . S
C388 C390 1.419 . S
C388 H392 0.930 . S
C389 C388 1.369 . S
C389 C398 1.429 . S
C390 C388 1.419 . S
C390 C391 1.363 . S
C390 H393 0.929 . S
C391 C390 1.363 . S
C391 C397 1.428 . S
H392 C388 0.930 . S
H393 C390 0.929 . S
S394 N395 1.613 . S
S394 N396 1.610 . S
N395 S394 1.613 . S
N395 C398 1.350 . S
N396 S394 1.610 . S
N396 C397 1.351 . S
C397 C391 1.428 . S
C397 N396 1.351 . S
C397 C398 1.434 . S
C398 C389 1.429 . S
C398 N395 1.350 . S
C398 C397 1.434 . S
C399 C400 1.369 . S
C399 C401 1.419 1_655 S
C399 H403 0.930 . S
C400 C399 1.369 . S
C400 C409 1.429 . S
C401 C399 1.419 1_455 S
C401 C402 1.363 . S
C401 H404 0.929 . S
C402 C401 1.363 . S
C402 C408 1.428 . S
H403 C399 0.930 . S
H404 C401 0.929 . S
S405 N406 1.613 . S
S405 N407 1.610 1_655 S
N406 S405 1.613 . S
N406 C409 1.350 . S
N407 S405 1.610 1_455 S
N407 C408 1.351 . S
C408 C402 1.428 . S
C408 N407 1.351 . S
C408 C409 1.434 1_455 S
C409 C400 1.429 . S
C409 N406 1.350 . S
C409 C408 1.434 1_655 S
C410 C411 1.369 . S
C410 C412 1.419 1_565 S
C410 H414 0.930 . S
C411 C410 1.369 . S
C411 C420 1.429 . S
C412 C410 1.419 1_545 S
C412 C413 1.363 . S
C412 H415 0.929 . S
C413 C412 1.363 . S
C413 C419 1.428 . S
H414 C410 0.930 . S
H415 C412 0.929 . S
S416 N417 1.613 1_545 S
S416 N418 1.610 . S
N417 S416 1.613 1_565 S
N417 C420 1.350 . S
N418 S416 1.610 . S
N418 C419 1.351 . S
C419 C413 1.428 . S
C419 N418 1.351 . S
C419 C420 1.434 1_545 S
C420 C411 1.429 . S
C420 N417 1.350 . S
C420 C419 1.434 1_565 S
C421 C422 1.369 . S
C421 C423 1.419 . S
C421 H425 0.930 . S
C422 C421 1.369 . S
C422 C431 1.429 . S
C423 C421 1.419 . S
C423 C424 1.363 . S
C423 H426 0.929 . S
C424 C423 1.363 . S
C424 C430 1.428 . S
H425 C421 0.930 . S
H426 C423 0.929 . S
S427 N428 1.613 . S
S427 N429 1.610 . S
N428 S427 1.613 . S
N428 C431 1.350 . S
N429 S427 1.610 . S
N429 C430 1.351 . S
C430 C424 1.428 . S
C430 N429 1.351 . S
C430 C431 1.434 . S
C431 C422 1.429 . S
C431 N428 1.350 . S
C431 C430 1.434 . S
C169 C120 2.033 . S
C171 C8 2.033 . S
C180 C22 2.035 . S
C182 C134 2.035 . S
C191 C36 2.033 . S
C193 C148 2.034 . S
C202 C50 2.035 . S
C204 C162 2.035 . S
C213 C92 2.033 . S
C215 C64 2.033 . S
C224 C78 2.035 . S
C226 C106 2.035 . S
C235 C51 0.935 . S
C237 C9 0.929 . S
C246 C65 0.936 . S
C248 C23 0.936 . S
C257 C79 0.932 . S
C259 C37 0.935 . S
C268 C93 0.923 . S
C270 C135 0.929 . S
C279 C107 0.935 . S
C281 C149 0.936 . S
C290 C121 0.927 . S
C292 C163 0.932 . S
C301 C7 1.508 . S
C303 C133 1.504 . S
C312 C21 1.511 . S
C314 C147 1.506 . S
C323 C35 1.510 . S
C325 C161 1.511 . S
C334 C91 1.509 . S
C336 C49 1.511 . S
C345 C63 1.512 . S
C347 C105 1.508 . S
C356 C119 1.512 . S
C358 C77 1.509 . S
C367 C160 1.383 . S
C369 C6 1.383 . S
C378 C20 1.383 . S
C380 C90 1.382 . S
C389 C104 1.383 . S
C391 C34 1.383 . S
C400 C48 1.380 . S
C402 C118 1.381 . S
C411 C62 1.382 . S
C413 C132 1.381 . S
C422 C146 1.381 . S
C424 C76 1.381 . S
