# Generated by pormake.
# Topology ukb, (4)-cn, num edge types: 1
# Building blocks:
#     Node 0, Type 0, BuildingBlock: QUQFOY_clean_sbu_3, # of connection points: 4
#     Node 1, Type 0, BuildingBlock: QUQFOY_clean_sbu_3, # of connection points: 4
#     Node 2, Type 0, BuildingBlock: QUQFOY_clean_sbu_3, # of connection points: 4
#     Node 3, Type 0, BuildingBlock: QUQFOY_clean_sbu_3, # of connection points: 4
#     Node 4, Type 0, BuildingBlock: QUQFOY_clean_sbu_3, # of connection points: 4
#     Node 5, Type 0, BuildingBlock: QUQFOY_clean_sbu_3, # of connection points: 4
#     Node 6, Type 0, BuildingBlock: QUQFOY_clean_sbu_3, # of connection points: 4
#     Node 7, Type 0, BuildingBlock: QUQFOY_clean_sbu_3, # of connection points: 4
#     Node 8, Type 0, BuildingBlock: QUQFOY_clean_sbu_3, # of connection points: 4
#     Node 9, Type 0, BuildingBlock: QUQFOY_clean_sbu_3, # of connection points: 4
#     Node 10, Type 0, BuildingBlock: QUQFOY_clean_sbu_3, # of connection points: 4
#     Node 11, Type 0, BuildingBlock: QUQFOY_clean_sbu_3, # of connection points: 4
#     Node 12, Type 0, BuildingBlock: QUQFOY_clean_sbu_3, # of connection points: 4
#     Node 13, Type 0, BuildingBlock: QUQFOY_clean_sbu_3, # of connection points: 4
#     Node 14, Type 0, BuildingBlock: QUQFOY_clean_sbu_3, # of connection points: 4
#     Node 15, Type 0, BuildingBlock: QUQFOY_clean_sbu_3, # of connection points: 4
#     Edge 16, Type (0, 0), BuildingBlock: KIFKEQ_clean_linker_1, # of connection points: 2
#     Edge 17, Type (0, 0), BuildingBlock: KIFKEQ_clean_linker_1, # of connection points: 2
#     Edge 18, Type (0, 0), BuildingBlock: KIFKEQ_clean_linker_1, # of connection points: 2
#     Edge 19, Type (0, 0), BuildingBlock: KIFKEQ_clean_linker_1, # of connection points: 2
#     Edge 20, Type (0, 0), BuildingBlock: KIFKEQ_clean_linker_1, # of connection points: 2
#     Edge 21, Type (0, 0), BuildingBlock: KIFKEQ_clean_linker_1, # of connection points: 2
#     Edge 22, Type (0, 0), BuildingBlock: KIFKEQ_clean_linker_1, # of connection points: 2
#     Edge 23, Type (0, 0), BuildingBlock: KIFKEQ_clean_linker_1, # of connection points: 2
#     Edge 24, Type (0, 0), BuildingBlock: KIFKEQ_clean_linker_1, # of connection points: 2
#     Edge 25, Type (0, 0), BuildingBlock: KIFKEQ_clean_linker_1, # of connection points: 2
#     Edge 26, Type (0, 0), BuildingBlock: KIFKEQ_clean_linker_1, # of connection points: 2
#     Edge 27, Type (0, 0), BuildingBlock: KIFKEQ_clean_linker_1, # of connection points: 2
#     Edge 28, Type (0, 0), BuildingBlock: KIFKEQ_clean_linker_1, # of connection points: 2
#     Edge 29, Type (0, 0), BuildingBlock: KIFKEQ_clean_linker_1, # of connection points: 2
#     Edge 30, Type (0, 0), BuildingBlock: KIFKEQ_clean_linker_1, # of connection points: 2
#     Edge 31, Type (0, 0), BuildingBlock: KIFKEQ_clean_linker_1, # of connection points: 2
#     Edge 32, Type (0, 0), BuildingBlock: KIFKEQ_clean_linker_1, # of connection points: 2
#     Edge 33, Type (0, 0), BuildingBlock: KIFKEQ_clean_linker_1, # of connection points: 2
#     Edge 34, Type (0, 0), BuildingBlock: KIFKEQ_clean_linker_1, # of connection points: 2
#     Edge 35, Type (0, 0), BuildingBlock: KIFKEQ_clean_linker_1, # of connection points: 2
#     Edge 36, Type (0, 0), BuildingBlock: KIFKEQ_clean_linker_1, # of connection points: 2
#     Edge 37, Type (0, 0), BuildingBlock: KIFKEQ_clean_linker_1, # of connection points: 2
#     Edge 38, Type (0, 0), BuildingBlock: KIFKEQ_clean_linker_1, # of connection points: 2
#     Edge 39, Type (0, 0), BuildingBlock: KIFKEQ_clean_linker_1, # of connection points: 2
#     Edge 40, Type (0, 0), BuildingBlock: KIFKEQ_clean_linker_1, # of connection points: 2
#     Edge 41, Type (0, 0), BuildingBlock: KIFKEQ_clean_linker_1, # of connection points: 2
#     Edge 42, Type (0, 0), BuildingBlock: KIFKEQ_clean_linker_1, # of connection points: 2
#     Edge 43, Type (0, 0), BuildingBlock: KIFKEQ_clean_linker_1, # of connection points: 2
#     Edge 44, Type (0, 0), BuildingBlock: KIFKEQ_clean_linker_1, # of connection points: 2
#     Edge 45, Type (0, 0), BuildingBlock: KIFKEQ_clean_linker_1, # of connection points: 2
#     Edge 46, Type (0, 0), BuildingBlock: KIFKEQ_clean_linker_1, # of connection points: 2
#     Edge 47, Type (0, 0), BuildingBlock: KIFKEQ_clean_linker_1, # of connection points: 2
# Relax obj value: 0.084
# Max RMSD: 0.047
# Mean RMSD: 0.047
data_MOF--net-ukb--node1-QUQFOY_clean_sbu_3--edge1-KIFKEQ_clean_linker_1
_symmetry_space_group_name_H-M    P1
_symmetry_Int_Tables_number       1
_symmetry_cell_setting            triclinic
loop_
_symmetry_equiv_pos_as_xyz
'x, y, z'
_cell_length_a     46.95975
_cell_length_b     47.121812
_cell_length_c     40.750113
_cell_angle_alpha  89.944529
_cell_angle_beta   90.391303
_cell_angle_gamma 89.95871
loop_
_atom_site_label
_atom_site_type_symbol
_atom_site_fract_x
_atom_site_fract_y
_atom_site_fract_z
_atom_type_partial_charge
C0 C 0.54051 0.19174 0.09295 0.0
O1 O 0.5656 0.18816 0.10401 0.0
Cd2 Cd 0.58024 0.16964 0.15575 0.0
O3 O 0.51895 0.18506 0.1102 0.0
Cd4 Cd 0.51437 0.16691 0.16791 0.0
C5 C 0.54982 0.2229 0.19975 0.0
O6 O 0.55111 0.13002 0.16806 0.0
O7 O 0.53846 0.14497 0.21552 0.0
O8 O 0.47326 0.13719 0.15428 0.0
C9 C 0.55254 0.12716 0.1989 0.0
O10 O 0.5723 0.20886 0.19342 0.0
C11 C 0.4578 0.14609 0.17756 0.0
O12 O 0.52544 0.21423 0.19015 0.0
O13 O 0.46808 0.16583 0.19522 0.0
C14 C 0.2842 0.5181 0.59083 0.0
O15 O 0.29148 0.54402 0.59226 0.0
Cd16 Cd 0.30264 0.5693 0.64158 0.0
O17 O 0.28499 0.5024 0.61634 0.0
Cd18 Cd 0.30143 0.507 0.67463 0.0
C19 C 0.24454 0.54874 0.68815 0.0
O20 O 0.33885 0.54306 0.66839 0.0
O21 O 0.32381 0.53584 0.71738 0.0
O22 O 0.32641 0.46185 0.66774 0.0
C23 C 0.34086 0.54883 0.69869 0.0
O24 O 0.25901 0.56821 0.67431 0.0
C25 C 0.31985 0.45212 0.69576 0.0
O26 O 0.25373 0.52331 0.68972 0.0
O27 O 0.3037 0.46732 0.7134 0.0
C28 C 0.93761 0.28431 0.08078 0.0
O29 O 0.91207 0.2931 0.0798 0.0
Cd30 Cd 0.88444 0.29785 0.12837 0.0
O31 O 0.95112 0.28271 0.10798 0.0
Cd32 Cd 0.94427 0.29787 0.16636 0.0
C33 C 0.9066 0.23756 0.17127 0.0
O34 O 0.90601 0.33322 0.16166 0.0
O35 O 0.91324 0.31517 0.20964 0.0
O36 O -0.01488 0.32923 0.16178 0.0
C37 C 0.89956 0.33264 0.19186 0.0
O38 O 0.88821 0.25083 0.15395 0.0
C39 C -0.00178 0.31995 0.18696 0.0
O40 O 0.92993 0.24929 0.17991 0.0
O41 O -0.01338 0.29952 0.20229 0.0
C42 C 0.17721 0.94233 0.57108 0.0
O43 O 0.16978 0.91646 0.5695 0.0
Cd44 Cd 0.15884 0.88746 0.61575 0.0
O45 O 0.17614 0.95597 0.59809 0.0
Cd46 Cd 0.15824 0.94782 0.6551 0.0
C47 C 0.21612 0.90584 0.66616 0.0
O48 O 0.12226 0.91208 0.64319 0.0
O49 O 0.13274 0.91713 0.69426 0.0
O50 O 0.13009 -0.00905 0.65012 0.0
C51 C 0.11785 0.90469 0.67258 0.0
O52 O 0.20289 0.88795 0.64824 0.0
C53 C 0.1384 0.00188 0.677 0.0
O54 O 0.20534 0.93014 0.67217 0.0
O55 O 0.15701 -0.01188 0.69333 0.0
C56 C 0.54454 0.26915 0.86295 0.0
O57 O 0.56989 0.2727 0.8531 0.0
Cd58 Cd 0.58646 0.2903 0.80202 0.0
O59 O 0.52338 0.27532 0.84441 0.0
Cd60 Cd 0.51973 0.29271 0.7862 0.0
C61 C 0.55708 0.23656 0.75721 0.0
O62 O 0.55662 0.32932 0.78912 0.0
O63 O 0.54277 0.31837 0.7406 0.0
O64 O 0.47535 0.318 0.79928 0.0
C65 C 0.55796 0.33422 0.75865 0.0
O66 O 0.57937 0.25052 0.76486 0.0
C67 C 0.46283 0.31124 0.77268 0.0
O68 O 0.5324 0.24553 0.76491 0.0
O69 O 0.47609 0.29468 0.75357 0.0
C70 C 0.18176 0.51713 0.38262 0.0
O71 O 0.17411 0.54296 0.38306 0.0
Cd72 Cd 0.16556 0.57004 0.33481 0.0
O73 O 0.18113 0.50277 0.35606 0.0
Cd74 Cd 0.16259 0.50914 0.2983 0.0
C75 C 0.22228 0.54741 0.28666 0.0
O76 O 0.12764 0.5464 0.30782 0.0
O77 O 0.1383 0.53937 0.25725 0.0
O78 O 0.13275 0.46733 0.30538 0.0
C79 C 0.12353 0.55283 0.27799 0.0
O80 O 0.21051 0.56584 0.30498 0.0
C81 C 0.14029 0.45512 0.27907 0.0
O82 O 0.20981 0.52419 0.27952 0.0
O83 O 0.15929 0.46749 0.26219 0.0
C84 C 0.93868 0.17797 0.87752 0.0
O85 O 0.91278 0.17026 0.878 0.0
Cd86 Cd 0.88505 0.15818 0.83082 0.0
O87 O 0.95323 0.17661 0.85123 0.0
Cd88 Cd 0.94686 0.15751 0.79416 0.0
C89 C 0.90443 0.21437 0.77993 0.0
O90 O 0.91095 0.12164 0.80514 0.0
O91 O 0.9172 0.13118 0.75414 0.0
O92 O -0.0098 0.12964 0.80073 0.0
C93 C 0.90423 0.11669 0.77557 0.0
O94 O 0.88617 0.20135 0.79739 0.0
C95 C 0.00171 0.13791 0.77428 0.0
O96 O 0.9291 0.20384 0.77521 0.0
O97 O -0.01181 0.15639 0.75758 0.0
C98 C 0.28523 0.94652 0.37121 0.0
O99 O 0.29379 0.921 0.37314 0.0
Cd100 Cd 0.30044 0.89185 0.32624 0.0
O101 O 0.28433 0.95946 0.34368 0.0
Cd102 Cd 0.30058 0.95143 0.28576 0.0
C103 C 0.24076 0.91229 0.2805 0.0
O104 O 0.3362 0.91483 0.29546 0.0
O105 O 0.32332 0.92024 0.24508 0.0
O106 O 0.32914 -0.00575 0.29045 0.0
C107 C 0.33889 0.90735 0.2658 0.0
O108 O 0.25376 0.89473 0.2991 0.0
C109 C 0.32072 0.00532 0.26366 0.0
O110 O 0.25261 0.9352 0.27107 0.0
O111 O 0.30196 -0.00826 0.24742 0.0
C112 C 0.42716 0.78631 0.87031 0.0
O113 O 0.40157 0.79384 0.86501 0.0
Cd114 Cd 0.3802 0.80186 0.81298 0.0
O115 O 0.44513 0.7856 0.84692 0.0
Cd116 Cd 0.44479 0.79958 0.78695 0.0
C117 C 0.40492 0.74113 0.77394 0.0
O118 O 0.40829 0.8366 0.78701 0.0
O119 O 0.41768 0.81887 0.73985 0.0
O120 O 0.48736 0.82877 0.79412 0.0
C121 C 0.40385 0.83695 0.75636 0.0
O122 O 0.38476 0.75573 0.78618 0.0
C123 C 0.50073 0.81852 0.76986 0.0
O124 O 0.43002 0.75127 0.77193 0.0
O125 O 0.4887 0.79832 0.75447 0.0
C126 C 0.68007 0.4442 0.37611 0.0
O127 O 0.67105 0.41882 0.37707 0.0
Cd128 Cd 0.65714 0.39142 0.33056 0.0
O129 O 0.67919 0.45859 0.34955 0.0
Cd130 Cd 0.65898 0.45253 0.29263 0.0
C131 C 0.71386 0.40762 0.27901 0.0
O132 O 0.62141 0.41859 0.30452 0.0
O133 O 0.6314 0.42329 0.25347 0.0
O134 O 0.633 0.497 0.29818 0.0
C135 C 0.61616 0.41155 0.27514 0.0
O136 O 0.70006 0.3902 0.29683 0.0
C137 C 0.6407 0.50734 0.27085 0.0
O138 O 0.7045 0.43268 0.27393 0.0
O139 O 0.65824 0.49277 0.25422 0.0
C140 C 0.03687 0.69643 0.86296 0.0
O141 O 0.0627 0.69472 0.85412 0.0
Cd142 Cd 0.08328 0.67169 0.80793 0.0
O143 O 0.01687 0.68579 0.84552 0.0
Cd144 Cd 0.0165 0.66322 0.78965 0.0
C145 C 0.05332 0.71766 0.75381 0.0
O146 O 0.05553 0.63056 0.79985 0.0
O147 O 0.04172 0.63231 0.74971 0.0
O148 O 0.97423 0.63472 0.80219 0.0
C149 C 0.0581 0.62122 0.77098 0.0
O150 O 0.07606 0.70589 0.76419 0.0
C151 C 0.96061 0.64177 0.77638 0.0
O152 O 0.02888 0.70832 0.76201 0.0
O153 O 0.97241 0.65989 0.75781 0.0
C154 C 0.78935 0.01921 0.37025 0.0
O155 O 0.79762 0.0447 0.3674 0.0
Cd156 Cd 0.79884 0.06883 0.31649 0.0
O157 O 0.78576 0.00364 0.34493 0.0
Cd158 Cd 0.7971 0.00801 0.28458 0.0
C159 C 0.73616 0.04438 0.28 0.0
O160 O 0.83337 0.04546 0.28399 0.0
O161 O 0.81035 0.03901 0.23877 0.0
O162 O 0.82877 0.96734 0.28944 0.0
C163 C 0.83033 0.0516 0.25389 0.0
O164 O 0.75026 0.06383 0.29451 0.0
C165 C 0.81897 0.95396 0.26482 0.0
O166 O 0.74756 0.02063 0.27299 0.0
O167 O 0.79804 0.96523 0.24973 0.0
C168 C 0.42262 0.68212 0.08274 0.0
O169 O 0.39696 0.67636 0.0898 0.0
Cd170 Cd 0.37858 0.66229 0.1418 0.0
O171 O 0.44233 0.67904 0.10417 0.0
Cd172 Cd 0.4439 0.66216 0.16257 0.0
C173 C 0.40513 0.71873 0.1859 0.0
O174 O 0.4071 0.62505 0.16295 0.0
O175 O 0.41817 0.64308 0.20976 0.0
O176 O 0.4855 0.63211 0.15339 0.0
C177 C 0.40419 0.6246 0.19384 0.0
O178 O 0.38365 0.70433 0.17641 0.0
C179 C 0.50022 0.64218 0.17691 0.0
O180 O 0.43044 0.70989 0.18118 0.0
O181 O 0.48928 0.66259 0.19283 0.0
C182 C 0.78819 0.43945 0.58014 0.0
O183 O 0.79627 0.41374 0.58005 0.0
Cd184 Cd 0.80275 0.3865 0.62906 0.0
O185 O 0.78731 0.45354 0.60684 0.0
Cd186 Cd 0.80221 0.44705 0.66553 0.0
C187 C 0.74245 0.40819 0.67185 0.0
O188 O 0.83797 0.40913 0.66161 0.0
O189 O 0.81993 0.41644 0.70934 0.0
O190 O 0.83289 0.4884 0.66136 0.0
C191 C 0.83748 0.4028 0.69188 0.0
O192 O 0.7564 0.38943 0.65613 0.0
C193 C 0.8236 0.50082 0.68679 0.0
O194 O 0.75344 0.43234 0.67821 0.0
O195 O 0.80336 0.4887 0.70192 0.0
C196 C 0.04063 0.7765 0.09018 0.0
O197 O 0.06595 0.78114 0.0999 0.0
Cd198 Cd 0.08203 0.79585 0.1526 0.0
O199 O 0.01969 0.78019 0.10953 0.0
Cd200 Cd 0.01578 0.79563 0.16837 0.0
C201 C 0.05415 0.73964 0.19534 0.0
O202 O 0.05174 0.83316 0.16914 0.0
O203 O 0.04037 0.81641 0.21625 0.0
O204 O 0.97387 0.82476 0.15633 0.0
C205 C 0.05411 0.83476 0.20002 0.0
O206 O 0.07583 0.75439 0.18765 0.0
C207 C 0.95897 0.81529 0.1798 0.0
O208 O 0.02901 0.74797 0.18818 0.0
O209 O 0.96991 0.7955 0.19693 0.0
C210 C 0.69323 0.02561 0.58472 0.0
O211 O 0.68871 0.05154 0.59146 0.0
Cd212 Cd 0.6676 0.07266 0.63829 0.0
O213 O 0.6859 0.00602 0.60467 0.0
Cd214 Cd 0.66354 0.0066 0.66079 0.0
C215 C 0.71755 0.047 0.69207 0.0
O216 O 0.62843 0.04321 0.64973 0.0
O217 O 0.63346 0.03299 0.70059 0.0
O218 O 0.63621 0.96313 0.65054 0.0
C219 C 0.62037 0.04724 0.67885 0.0
O220 O 0.70464 0.06847 0.68012 0.0
C221 C 0.64347 0.95104 0.67721 0.0
O222 O 0.70877 0.02184 0.68648 0.0
O223 O 0.66142 0.96406 0.69514 0.0
H224 H 0.43166 0.10241 0.14523 0.0
H225 H 0.42328 0.15685 0.22988 0.0
H226 H 0.39288 0.07292 0.1652 0.0
H227 H 0.38416 0.12751 0.24963 0.0
H228 H 0.35733 0.04067 0.29576 0.0
H229 H 0.38482 0.07948 0.27271 0.0
H230 H 0.34217 0.06813 0.17938 0.0
H231 H 0.31472 0.02888 0.20249 0.0
C232 C 0.42108 0.1085 0.16769 0.0
C233 C 0.43081 0.13175 0.18619 0.0
C234 C 0.39872 0.09165 0.17907 0.0
C235 C 0.38565 0.09767 0.20922 0.0
C236 C 0.3941 0.12207 0.22657 0.0
C237 C 0.41642 0.13896 0.21514 0.0
C238 C 0.35344 0.04673 0.27048 0.0
C239 C 0.33404 0.03152 0.25087 0.0
C240 C 0.36907 0.06915 0.2573 0.0
C241 C 0.36578 0.07684 0.22414 0.0
C242 C 0.34538 0.06251 0.20492 0.0
C243 C 0.32957 0.04015 0.2182 0.0
H244 H 0.33727 0.44216 0.75821 0.0
H245 H 0.33333 0.40395 0.66223 0.0
H246 H 0.36748 0.40389 0.77758 0.0
H247 H 0.36128 0.36386 0.6821 0.0
H248 H 0.44555 0.32244 0.71053 0.0
H249 H 0.40658 0.35242 0.69305 0.0
H250 H 0.37904 0.35981 0.79396 0.0
H251 H 0.42006 0.33174 0.81142 0.0
C252 C 0.34211 0.42491 0.74158 0.0
C253 C 0.33328 0.42608 0.70868 0.0
C254 C 0.35937 0.40268 0.75272 0.0
C255 C 0.36752 0.38057 0.73144 0.0
C256 C 0.35658 0.38082 0.69908 0.0
C257 C 0.34018 0.40362 0.68766 0.0
C258 C 0.4309 0.33017 0.72891 0.0
C259 C 0.43596 0.32499 0.76234 0.0
C260 C 0.40821 0.34733 0.71887 0.0
C261 C 0.38937 0.35912 0.74196 0.0
C262 C 0.39341 0.35209 0.77536 0.0
C263 C 0.41675 0.33566 0.78547 0.0
H264 H 0.02681 0.31044 0.24481 0.0
H265 H 0.02877 0.36145 0.15671 0.0
H266 H 0.06631 0.33808 0.26757 0.0
H267 H 0.06779 0.38918 0.17953 0.0
H268 H 0.14706 0.42788 0.2203 0.0
H269 H 0.11744 0.38996 0.19765 0.0
H270 H 0.06994 0.38678 0.28799 0.0
H271 H 0.09973 0.42424 0.31074 0.0
C272 C 0.03593 0.32725 0.23011 0.0
C273 C 0.02449 0.33392 0.19908 0.0
C274 C 0.05846 0.34317 0.24322 0.0
C275 C 0.0701 0.36596 0.22547 0.0
C276 C 0.05958 0.3716 0.19374 0.0
C277 C 0.03703 0.35581 0.18074 0.0
C278 C 0.13066 0.41868 0.23554 0.0
C279 C 0.12555 0.42927 0.26719 0.0
C280 C 0.11359 0.39707 0.2225 0.0
C281 C 0.09113 0.38553 0.24087 0.0
C282 C 0.08718 0.39499 0.27324 0.0
C283 C 0.10417 0.41662 0.28623 0.0
H284 H 0.14776 0.0276 0.73639 0.0
H285 H 0.09809 0.0348 0.64714 0.0
H286 H 0.12019 0.06614 0.76065 0.0
H287 H 0.07025 0.0727 0.6715 0.0
H288 H 0.02913 0.14805 0.71633 0.0
H289 H 0.06796 0.12049 0.69268 0.0
H290 H 0.07185 0.06905 0.78044 0.0
H291 H 0.03364 0.09691 0.80427 0.0
C292 C 0.13127 0.03769 0.72177 0.0
C293 C 0.12492 0.02794 0.68997 0.0
C294 C 0.11537 0.05966 0.73574 0.0
C295 C 0.09281 0.07236 0.71817 0.0
C296 C 0.08762 0.06366 0.68567 0.0
C297 C 0.10349 0.04174 0.67174 0.0
C298 C 0.0387 0.13123 0.73082 0.0
C299 C 0.02809 0.12446 0.76202 0.0
C300 C 0.06084 0.11533 0.71719 0.0
C301 C 0.07283 0.09233 0.73448 0.0
C302 C 0.06334 0.08675 0.7665 0.0
C303 C 0.04125 0.10263 0.78011 0.0
H304 H 0.53229 0.85975 0.79982 0.0
H305 H 0.52937 0.80728 0.71299 0.0
H306 H 0.57164 0.88657 0.77673 0.0
H307 H 0.56909 0.83404 0.68995 0.0
H308 H 0.60281 0.91983 0.64526 0.0
H309 H 0.57295 0.88267 0.6684 0.0
H310 H 0.62134 0.88619 0.75883 0.0
H311 H 0.65101 0.92365 0.73582 0.0
C312 C 0.54044 0.85356 0.77608 0.0
C313 C 0.52753 0.83154 0.75814 0.0
C314 C 0.56314 0.86885 0.76289 0.0
C315 C 0.57342 0.86257 0.73137 0.0
C316 C 0.56145 0.83961 0.71412 0.0
C317 C 0.53881 0.82418 0.72742 0.0
C318 C 0.60748 0.91227 0.66983 0.0
C319 C 0.62909 0.92494 0.68881 0.0
C320 C 0.59043 0.89085 0.68307 0.0
C321 C 0.59456 0.88167 0.71562 0.0
C322 C 0.61733 0.8931 0.73386 0.0
C323 C 0.63444 0.91446 0.72059 0.0
H324 H 0.53318 0.65506 0.23052 0.0
H325 H 0.52818 0.59834 0.14746 0.0
H326 H 0.57313 0.62769 0.25258 0.0
H327 H 0.56771 0.57081 0.1697 0.0
H328 H 0.60397 0.54306 0.30192 0.0
H329 H 0.57534 0.58062 0.27739 0.0
H330 H 0.61806 0.56827 0.18493 0.0
H331 H 0.64653 0.53024 0.20945 0.0
C332 C 0.54092 0.63707 0.21667 0.0
C333 C 0.52731 0.6287 0.18741 0.0
C334 C 0.56371 0.62129 0.22941 0.0
C335 C 0.57344 0.59688 0.2131 0.0
C336 C 0.56096 0.58961 0.18278 0.0
C337 C 0.53814 0.60532 0.1701 0.0
C338 C 0.60769 0.54871 0.27653 0.0
C339 C 0.62731 0.53344 0.25754 0.0
C340 C 0.59136 0.5704 0.26249 0.0
C341 C 0.59422 0.57731 0.22909 0.0
C342 C 0.61507 0.56319 0.2106 0.0
C343 C 0.6315 0.54152 0.22471 0.0
H344 H 0.93247 0.59954 0.80891 0.0
H345 H 0.92891 0.65057 0.72082 0.0
H346 H 0.89414 0.5698 0.78757 0.0
H347 H 0.89031 0.62104 0.69971 0.0
H348 H 0.81602 0.52649 0.74644 0.0
H349 H 0.84391 0.5655 0.76979 0.0
H350 H 0.8909 0.57219 0.67934 0.0
H351 H 0.86302 0.53361 0.65605 0.0
C352 C 0.92305 0.60483 0.78534 0.0
C353 C 0.934 0.6272 0.76638 0.0
C354 C 0.90097 0.58785 0.77316 0.0
C355 C 0.8894 0.59284 0.74175 0.0
C356 C 0.8991 0.61636 0.72376 0.0
C357 C 0.92113 0.63337 0.73595 0.0
C358 C 0.83195 0.53668 0.73137 0.0
C359 C 0.83745 0.52684 0.69947 0.0
C360 C 0.84802 0.5589 0.74481 0.0
C361 C 0.8697 0.57188 0.72649 0.0
C362 C 0.87415 0.56292 0.69403 0.0
C363 C 0.85828 0.54064 0.68072 0.0
H364 H 0.85865 0.92193 0.29687 0.0
H365 H 0.81153 0.92724 0.20566 0.0
H366 H 0.88703 0.88333 0.27471 0.0
H367 H 0.84001 0.88831 0.18342 0.0
H368 H 0.93012 0.85692 0.14673 0.0
H369 H 0.89082 0.88562 0.167 0.0
H370 H 0.88724 0.83393 0.25444 0.0
H371 H 0.92678 0.80529 0.23429 0.0
C372 C 0.85399 0.91449 0.27227 0.0
C373 C 0.833 0.9278 0.25293 0.0
C374 C 0.87015 0.8922 0.25962 0.0
C375 C 0.86586 0.88281 0.22723 0.0
C376 C 0.84396 0.89524 0.20836 0.0
C377 C 0.82757 0.91743 0.22116 0.0
C378 C 0.92056 0.85127 0.16996 0.0
C379 C 0.93181 0.82903 0.18908 0.0
C380 C 0.89791 0.86765 0.18151 0.0
C381 C 0.8861 0.86224 0.2125 0.0
C382 C 0.89615 0.83886 0.23067 0.0
C383 C 0.91871 0.82236 0.21903 0.0
H384 H 0.51728 0.27055 0.19128 0.0
H385 H 0.58973 0.23771 0.24501 0.0
H386 H 0.52742 0.31824 0.2126 0.0
H387 H 0.59938 0.285 0.26676 0.0
H388 H 0.59817 0.37026 0.31718 0.0
H389 H 0.57611 0.32494 0.30275 0.0
H390 H 0.57288 0.35037 0.20103 0.0
H391 H 0.59541 0.39556 0.21527 0.0
C392 C 0.53488 0.27341 0.20826 0.0
C393 C 0.55282 0.25054 0.21641 0.0
C394 C 0.54073 0.30064 0.22029 0.0
C395 C 0.56415 0.30519 0.24128 0.0
C396 C 0.58105 0.282 0.25085 0.0
C397 C 0.57561 0.255 0.23828 0.0
C398 C 0.59225 0.36643 0.29183 0.0
C399 C 0.59876 0.38631 0.26727 0.0
C400 C 0.57969 0.34049 0.28362 0.0
C401 C 0.5729 0.33422 0.25081 0.0
C402 C 0.57772 0.35481 0.22655 0.0
C403 C 0.59074 0.38056 0.23467 0.0
H404 H 0.22876 0.59951 0.7136 0.0
H405 H 0.19752 0.51483 0.69471 0.0
H406 H 0.18246 0.61278 0.73585 0.0
H407 H 0.15068 0.52859 0.71623 0.0
H408 H 0.06772 0.59379 0.71288 0.0
H409 H 0.11256 0.57231 0.69468 0.0
H410 H 0.15112 0.59172 0.78835 0.0
H411 H 0.1064 0.61247 0.80695 0.0
C412 C 0.21197 0.58375 0.71419 0.0
C413 C 0.2167 0.55614 0.70245 0.0
C414 C 0.18558 0.59133 0.72703 0.0
C415 C 0.1632 0.57165 0.72771 0.0
C416 C 0.16773 0.54405 0.7159 0.0
C417 C 0.19445 0.53621 0.70377 0.0
C418 C 0.08561 0.59294 0.72977 0.0
C419 C 0.08361 0.60495 0.76124 0.0
C420 C 0.11114 0.58059 0.71941 0.0
C421 C 0.13513 0.58055 0.74016 0.0
C422 C 0.13284 0.59159 0.77197 0.0
C423 C 0.10723 0.60339 0.78256 0.0
H424 H 0.8118 0.08441 0.20319 0.0
H425 H 0.88119 0.07502 0.2723 0.0
H426 H 0.83271 0.12783 0.18268 0.0
H427 H 0.90358 0.11761 0.2502 0.0
H428 H 0.91738 0.21274 0.23063 0.0
H429 H 0.90114 0.16635 0.24938 0.0
H430 H 0.8669 0.14941 0.15244 0.0
H431 H 0.88118 0.19659 0.13495 0.0
C432 C 0.83196 0.09134 0.21346 0.0
C433 C 0.84484 0.07638 0.23938 0.0
C434 C 0.84419 0.11624 0.20151 0.0
C435 C 0.87007 0.12652 0.21457 0.0
C436 C 0.8834 0.11087 0.23987 0.0
C437 C 0.87074 0.08628 0.25239 0.0
C438 C 0.90654 0.19888 0.21342 0.0
C439 C 0.9002 0.20825 0.18153 0.0
C440 C 0.89733 0.17216 0.22403 0.0
C441 C 0.88223 0.15396 0.20265 0.0
C442 C 0.87751 0.16298 0.17009 0.0
C443 C 0.88595 0.18995 0.15986 0.0
H444 H 0.24597 0.85718 0.65505 0.0
H445 H 0.25106 0.93703 0.70693 0.0
H446 H 0.29267 0.84412 0.67589 0.0
H447 H 0.29836 0.92392 0.72756 0.0
H448 H 0.36475 0.86995 0.78805 0.0
H449 H 0.32039 0.88916 0.76564 0.0
H450 H 0.34258 0.85731 0.66978 0.0
H451 H 0.38664 0.83773 0.69225 0.0
C452 C 0.25707 0.87205 0.67082 0.0
C453 C 0.24467 0.89819 0.6793 0.0
C454 C 0.28403 0.86463 0.68256 0.0
C455 C 0.29937 0.88308 0.70314 0.0
C456 C 0.28701 0.90919 0.71184 0.0
C457 C 0.25996 0.91672 0.69995 0.0
C458 C 0.36034 0.8674 0.7621 0.0
C459 C 0.37905 0.85202 0.742 0.0
C460 C 0.33496 0.87851 0.74924 0.0
C461 C 0.32778 0.87443 0.71603 0.0
C462 C 0.34723 0.86032 0.69562 0.0
C463 C 0.37256 0.84924 0.70845 0.0
H464 H 0.52346 0.18945 0.76321 0.0
H465 H 0.59898 0.2209 0.71546 0.0
H466 H 0.53331 0.14173 0.74185 0.0
H467 H 0.60834 0.17363 0.69365 0.0
H468 H 0.60465 0.09079 0.63854 0.0
H469 H 0.58406 0.13625 0.65442 0.0
H470 H 0.57757 0.10706 0.75447 0.0
H471 H 0.59866 0.06152 0.7388 0.0
C472 C 0.54176 0.18628 0.7476 0.0
C473 C 0.56052 0.20879 0.74102 0.0
C474 C 0.54744 0.15903 0.73557 0.0
C475 C 0.57153 0.15412 0.71612 0.0
C476 C 0.58949 0.17693 0.70836 0.0
C477 C 0.5842 0.20391 0.72095 0.0
C478 C 0.59837 0.0938 0.66382 0.0
C479 C 0.60358 0.07269 0.68753 0.0
C480 C 0.58663 0.11985 0.67286 0.0
C481 C 0.5794 0.12512 0.70564 0.0
C482 C 0.58283 0.1034 0.72898 0.0
C483 C 0.595 0.07744 0.72005 0.0
H484 H 0.37669 0.63849 0.24999 0.0
H485 H 0.37728 0.57663 0.17199 0.0
H486 H 0.3343 0.61708 0.27239 0.0
H487 H 0.33571 0.5535 0.19577 0.0
H488 H 0.24164 0.54108 0.22406 0.0
H489 H 0.28724 0.5571 0.20238 0.0
H490 H 0.31373 0.58119 0.30047 0.0
H491 H 0.26731 0.56742 0.32109 0.0
C492 C 0.36812 0.61977 0.2381 0.0
C493 C 0.3803 0.60924 0.20923 0.0
C494 C 0.34377 0.60723 0.25112 0.0
C495 C 0.33129 0.58328 0.23615 0.0
C496 C 0.34419 0.57218 0.20776 0.0
C497 C 0.36822 0.58524 0.19425 0.0
C498 C 0.25743 0.54967 0.24082 0.0
C499 C 0.25099 0.55339 0.27408 0.0
C500 C 0.2837 0.55872 0.22851 0.0
C501 C 0.30435 0.57098 0.24947 0.0
C502 C 0.29823 0.57291 0.2832 0.0
C503 C 0.27171 0.56473 0.2952 0.0
H504 H 0.83895 0.38454 0.75524 0.0
H505 H 0.86878 0.36328 0.65824 0.0
H506 H 0.85781 0.33991 0.77621 0.0
H507 H 0.88745 0.31824 0.67932 0.0
H508 H 0.85538 0.24407 0.78942 0.0
H509 H 0.84259 0.29046 0.76816 0.0
H510 H 0.92304 0.2955 0.7178 0.0
H511 H 0.93598 0.2485 0.739 0.0
C512 C 0.84976 0.37044 0.73842 0.0
C513 C 0.85208 0.37731 0.70499 0.0
C514 C 0.86045 0.3448 0.75042 0.0
C515 C 0.87373 0.32537 0.72931 0.0
C516 C 0.87738 0.33282 0.69619 0.0
C517 C 0.86662 0.35856 0.68412 0.0
C518 C 0.87045 0.25492 0.77381 0.0
C519 C 0.89678 0.2425 0.76602 0.0
C520 C 0.86316 0.28168 0.76181 0.0
C521 C 0.88194 0.2968 0.7416 0.0
C522 C 0.90812 0.28432 0.73329 0.0
C523 C 0.91554 0.25746 0.74551 0.0
H524 H 0.08408 0.82077 0.255 0.0
H525 H 0.07851 0.8837 0.17828 0.0
H526 H 0.12762 0.84223 0.27511 0.0
H527 H 0.12113 0.9069 0.19983 0.0
H528 H 0.21667 0.91875 0.21983 0.0
H529 H 0.16965 0.90283 0.20204 0.0
H530 H 0.15093 0.87743 0.30177 0.0
H531 H 0.19876 0.89115 0.31843 0.0
C532 C 0.09178 0.83979 0.24304 0.0
C533 C 0.07798 0.85055 0.21505 0.0
C534 C 0.11679 0.85233 0.25469 0.0
C535 C 0.12829 0.87646 0.23919 0.0
C536 C 0.11352 0.88799 0.21204 0.0
C537 C 0.08887 0.87493 0.19986 0.0
C538 C 0.2023 0.90986 0.23781 0.0
C539 C 0.21132 0.90579 0.27033 0.0
C540 C 0.17519 0.90089 0.22776 0.0
C541 C 0.15624 0.88841 0.2503 0.0
C542 C 0.16501 0.88596 0.28332 0.0
C543 C 0.19237 0.89407 0.29305 0.0
H544 H 0.34531 0.5678 0.76162 0.0
H545 H 0.37156 0.58722 0.66267 0.0
H546 H 0.36455 0.61298 0.78035 0.0
H547 H 0.39075 0.63269 0.68159 0.0
H548 H 0.43844 0.70562 0.73687 0.0
H549 H 0.42735 0.65703 0.71931 0.0
H550 H 0.3466 0.66202 0.76902 0.0
H551 H 0.35745 0.71004 0.78643 0.0
C552 C 0.35554 0.58153 0.74392 0.0
C553 C 0.35654 0.5741 0.71057 0.0
C554 C 0.36647 0.60745 0.75466 0.0
C555 C 0.37876 0.62652 0.73234 0.0
C556 C 0.38144 0.61837 0.69934 0.0
C557 C 0.37037 0.59239 0.68852 0.0
C558 C 0.41838 0.69626 0.74408 0.0
C559 C 0.39883 0.71174 0.76303 0.0
C560 C 0.41202 0.66852 0.73395 0.0
C561 C 0.38623 0.65568 0.74306 0.0
C562 C 0.36685 0.67116 0.76207 0.0
C563 C 0.37301 0.69883 0.77182 0.0
H564 H 0.88087 0.3337 0.25492 0.0
H565 H 0.86107 0.36548 0.15792 0.0
H566 H 0.83689 0.35413 0.27552 0.0
H567 H 0.81666 0.38574 0.17861 0.0
H568 H 0.74956 0.43732 0.23804 0.0
H569 H 0.79581 0.42195 0.21692 0.0
H570 H 0.78653 0.34186 0.26729 0.0
H571 H 0.74088 0.35705 0.28849 0.0
C572 C 0.86722 0.34523 0.23802 0.0
C573 C 0.87432 0.34772 0.20471 0.0
C574 C 0.84193 0.35682 0.2498 0.0
C575 C 0.82311 0.37121 0.22859 0.0
C576 C 0.83078 0.37485 0.19556 0.0
C577 C 0.85615 0.36317 0.18371 0.0
C578 C 0.75742 0.41643 0.24455 0.0
C579 C 0.74151 0.39849 0.26509 0.0
C580 C 0.78384 0.40762 0.23237 0.0
C581 C 0.79494 0.38082 0.24073 0.0
C582 C 0.77885 0.36285 0.26091 0.0
C583 C 0.75252 0.37153 0.27289 0.0
H584 H 0.09432 0.73102 0.70983 0.0
H585 H 0.01894 0.76438 0.75608 0.0
H586 H 0.10387 0.77755 0.68585 0.0
H587 H 0.029 0.81133 0.73268 0.0
H588 H 0.09642 0.88936 0.73202 0.0
H589 H 0.07438 0.84408 0.74665 0.0
H590 H 0.08083 0.81631 0.64611 0.0
H591 H 0.10231 0.86181 0.63121 0.0
C592 C 0.0795 0.7482 0.71429 0.0
C593 C 0.05592 0.74417 0.73479 0.0
C594 C 0.08491 0.77476 0.70051 0.0
C595 C 0.0672 0.79795 0.70755 0.0
C596 C 0.04294 0.79371 0.72695 0.0
C597 C 0.03712 0.76689 0.74013 0.0
C598 C 0.09259 0.87381 0.71294 0.0
C599 C 0.10122 0.87902 0.68056 0.0
C600 C 0.07984 0.84801 0.72127 0.0
C601 C 0.07597 0.8268 0.69747 0.0
C602 C 0.0836 0.83239 0.66485 0.0
C603 C 0.09583 0.85841 0.65638 0.0
H604 H 0.58208 0.13916 0.25472 0.0
H605 H 0.57547 0.07765 0.17674 0.0
H606 H 0.62436 0.11567 0.27547 0.0
H607 H 0.61662 0.05234 0.19895 0.0
H608 H 0.71157 0.03716 0.22003 0.0
H609 H 0.66493 0.05399 0.20219 0.0
H610 H 0.64668 0.0799 0.30185 0.0
H611 H 0.69438 0.06537 0.31847 0.0
C612 C 0.58926 0.12001 0.24261 0.0
C613 C 0.5756 0.11026 0.21407 0.0
C614 C 0.61352 0.10627 0.25464 0.0
C615 C 0.62435 0.08189 0.239 0.0
C616 C 0.6096 0.07138 0.21131 0.0
C617 C 0.58577 0.08567 0.19871 0.0
C618 C 0.69732 0.04622 0.23801 0.0
C619 C 0.70647 0.05025 0.27046 0.0
C620 C 0.67041 0.05576 0.22792 0.0
C621 C 0.65177 0.06881 0.25037 0.0
C622 C 0.66055 0.07098 0.28343 0.0
C623 C 0.68778 0.06233 0.29317 0.0
H624 H 0.43793 0.7666 0.18224 0.0
H625 H 0.36076 0.7334 0.22463 0.0
H626 H 0.42637 0.81388 0.20389 0.0
H627 H 0.34978 0.78023 0.24695 0.0
H628 H 0.35453 0.86343 0.30566 0.0
H629 H 0.37491 0.81784 0.2891 0.0
H630 H 0.3794 0.84722 0.18898 0.0
H631 H 0.35831 0.89262 0.20526 0.0
C632 C 0.41885 0.76931 0.19669 0.0
C633 C 0.40016 0.74645 0.20169 0.0
C634 C 0.41222 0.79627 0.20892 0.0
C635 C 0.38727 0.80051 0.22709 0.0
C636 C 0.36926 0.77739 0.23322 0.0
C637 C 0.37547 0.75069 0.22033 0.0
C638 C 0.3603 0.86034 0.28022 0.0
C639 C 0.35469 0.88146 0.25667 0.0
C640 C 0.37188 0.83428 0.2708 0.0
C641 C 0.37868 0.82918 0.23784 0.0
C642 C 0.37452 0.85081 0.21459 0.0
C643 C 0.36234 0.87665 0.22387 0.0
H644 H 0.70856 0.43806 0.71448 0.0
H645 H 0.71007 0.36276 0.65399 0.0
H646 H 0.66112 0.42494 0.73398 0.0
H647 H 0.66318 0.34972 0.67357 0.0
H648 H 0.5705 0.34227 0.69399 0.0
H649 H 0.61295 0.36448 0.67137 0.0
H650 H 0.64107 0.38661 0.76916 0.0
H651 H 0.59845 0.36471 0.79182 0.0
C652 C 0.69874 0.41886 0.70518 0.0
C653 C 0.71319 0.4014 0.68279 0.0
C654 C 0.67164 0.41132 0.71644 0.0
C655 C 0.65837 0.38636 0.70522 0.0
C656 C 0.6726 0.36931 0.68232 0.0
C657 C 0.69965 0.37668 0.67131 0.0
C658 C 0.5855 0.35228 0.71064 0.0
C659 C 0.58132 0.35139 0.74473 0.0
C660 C 0.60988 0.36489 0.69768 0.0
C661 C 0.63055 0.37696 0.71852 0.0
C662 C 0.6255 0.37762 0.75247 0.0
C663 C 0.60112 0.36493 0.76545 0.0
H664 H 0.10636 0.59631 0.31733 0.0
H665 H 0.10369 0.56687 0.21698 0.0
H666 H 0.08456 0.64115 0.30023 0.0
H667 H 0.08135 0.61159 0.2001 0.0
H668 H 0.02285 0.6909 0.18902 0.0
H669 H 0.03477 0.64385 0.21137 0.0
H670 H 0.10788 0.67962 0.26092 0.0
H671 H 0.09652 0.72619 0.23807 0.0
C672 C 0.10057 0.59917 0.29175 0.0
C673 C 0.10694 0.57821 0.26841 0.0
C674 C 0.08816 0.62482 0.28202 0.0
C675 C 0.08134 0.62973 0.2489 0.0
C676 C 0.08621 0.60818 0.22583 0.0
C677 C 0.09913 0.58272 0.23545 0.0
C678 C 0.04118 0.6887 0.20509 0.0
C679 C 0.05885 0.71208 0.21174 0.0
C680 C 0.04804 0.66185 0.21771 0.0
C681 C 0.07218 0.65824 0.23786 0.0
C682 C 0.08902 0.68191 0.24567 0.0
C683 C 0.0826 0.70849 0.23247 0.0
H684 H 0.89029 0.09383 0.71614 0.0
H685 H 0.85994 0.10275 0.81543 0.0
H686 H 0.84513 0.07157 0.70029 0.0
H687 H 0.81458 0.08115 0.79928 0.0
H688 H 0.73049 0.09156 0.73162 0.0
H689 H 0.77683 0.10319 0.75573 0.0
H690 H 0.81199 0.0259 0.71628 0.0
H691 H 0.76524 0.01373 0.69285 0.0
C692 C 0.87414 0.09066 0.73463 0.0
C693 C 0.87855 0.10013 0.76695 0.0
C694 C 0.84842 0.07781 0.72562 0.0
C695 C 0.82649 0.07473 0.74861 0.0
C696 C 0.83123 0.08331 0.78116 0.0
C697 C 0.85717 0.0956 0.79036 0.0
C698 C 0.74796 0.07676 0.7287 0.0
C699 C 0.74434 0.05176 0.7104 0.0
C700 C 0.7744 0.08337 0.74256 0.0
C701 C 0.79787 0.06543 0.73775 0.0
C702 C 0.79413 0.04001 0.72028 0.0
C703 C 0.76743 0.03302 0.70708 0.0
H704 H 0.4951 0.18789 0.04965 0.0
H705 H 0.57817 0.2258 0.06241 0.0
H706 H 0.49291 0.20678 -0.00666 0.0
H707 H 0.57563 0.24511 0.00744 0.0
H708 H 0.58359 0.24078 0.89939 0.0
H709 H 0.57911 0.22248 0.95448 0.0
H710 H 0.4918 0.25122 0.95772 0.0
H711 H 0.49609 0.26923 0.90125 0.0
C712 C 0.51265 0.2005 0.0406 0.0
C713 C 0.53708 0.20483 0.06014 0.0
C714 C 0.51135 0.21139 0.0085 0.0
C715 C 0.53438 0.2269 -0.00429 0.0
C716 C 0.55791 0.23252 0.01614 0.0
C717 C 0.55934 0.22147 0.04774 0.0
C718 C 0.56334 0.24331 0.91166 0.0
C719 C 0.54033 0.25695 0.89608 0.0
C720 C 0.56081 0.23285 0.94339 0.0
C721 C 0.5353 0.23597 0.96079 0.0
C722 C 0.51176 0.24859 0.94493 0.0
C723 C 0.51424 0.25898 0.91272 0.0
H724 H 0.23005 0.48543 0.38841 0.0
H725 H 0.1625 0.52336 0.44473 0.0
H726 H 0.25696 0.47645 0.43928 0.0
H727 H 0.18882 0.51346 0.49543 0.0
H728 H 0.3006 0.53175 0.52903 0.0
H729 H 0.27546 0.52095 0.47785 0.0
H730 H 0.21453 0.47078 0.53134 0.0
H731 H 0.24032 0.48079 0.58266 0.0
C732 C 0.22048 0.49074 0.41173 0.0
C733 C 0.19429 0.50511 0.41281 0.0
C734 C 0.23588 0.48571 0.44072 0.0
C735 C 0.22486 0.49424 0.47113 0.0
C736 C 0.1976 0.50641 0.4723 0.0
C737 C 0.18261 0.51215 0.44335 0.0
C738 C 0.28235 0.51772 0.52971 0.0
C739 C 0.27232 0.50717 0.55972 0.0
C740 C 0.26809 0.51141 0.50045 0.0
C741 C 0.24314 0.49502 0.50078 0.0
C742 C 0.23384 0.48332 0.53055 0.0
C743 C 0.2486 0.489 0.55979 0.0
H744 H 0.97378 0.23928 0.07565 0.0
H745 H 0.9282 0.30159 0.01792 0.0
H746 H -0.01571 0.21254 0.0256 0.0
H747 H 0.93944 0.27533 0.96798 0.0
H748 H 0.97214 0.22511 0.88147 0.0
H749 H -0.01793 0.25304 0.93111 0.0
H750 H 0.9417 0.18861 -0.01003 0.0
H751 H 0.93094 0.16131 0.94049 0.0
C752 C 0.96699 0.24783 0.05217 0.0
C753 C 0.94998 0.27236 0.05059 0.0
C754 C 0.97294 0.2325 0.02363 0.0
C755 C 0.96265 0.24192 -0.00694 0.0
C756 C 0.94786 0.26778 -0.00878 0.0
C757 C 0.9413 0.28271 0.01978 0.0
C758 C 0.96623 0.21658 0.90515 0.0
C759 C 0.9507 0.19118 0.90729 0.0
C760 C 0.97182 0.23255 0.93343 0.0
C761 C 0.96269 0.22288 0.96424 0.0
C762 C 0.94925 0.19636 0.96655 0.0
C763 C 0.94299 0.18082 0.93828 0.0
H764 H 0.23822 -0.01972 0.37445 0.0
H765 H 0.30303 0.94039 0.43435 0.0
H766 H 0.21027 -0.00989 0.42376 0.0
H767 H 0.27556 0.95093 0.48352 0.0
H768 H 0.16152 0.93428 0.5076 0.0
H769 H 0.18857 0.9472 0.4589 0.0
H770 H 0.24992 -0.00898 0.51972 0.0
H771 H 0.22224 0.97878 0.56861 0.0
C772 C 0.24703 0.97473 0.39824 0.0
C773 C 0.27264 0.95941 0.40069 0.0
C774 C 0.23101 -0.01974 0.42637 0.0
C775 C 0.24079 0.97121 0.45732 0.0
C776 C 0.26769 0.95837 0.45998 0.0
C777 C 0.28334 0.95223 0.43186 0.0
C778 C 0.18025 0.94748 0.51044 0.0
C779 C 0.18991 0.95543 0.54177 0.0
C780 C 0.19563 0.95503 0.48259 0.0
C781 C 0.2213 0.97008 0.48565 0.0
C782 C 0.2301 0.97952 0.5168 0.0
C783 C 0.21426 0.97257 0.54467 0.0
H784 H 0.47023 0.74948 0.88818 0.0
H785 H 0.39996 0.79783 0.92721 0.0
H786 H 0.47407 0.7235 0.94043 0.0
H787 H 0.40381 0.77199 -0.02131 0.0
H788 H 0.38543 0.68949 0.03204 0.0
H789 H 0.39238 0.7165 -0.01794 0.0
H790 H 0.48012 0.7314 0.00883 0.0
H791 H 0.47323 0.70428 0.05981 0.0
C792 C 0.45622 0.75514 0.90813 0.0
C793 C 0.43447 0.77536 0.9034 0.0
C794 C 0.4584 0.74025 0.93793 0.0
C795 C 0.43886 0.74544 0.96319 0.0
C796 C 0.41881 0.76729 0.95934 0.0
C797 C 0.41666 0.78209 0.92985 0.0
C798 C 0.40636 0.69819 0.02737 0.0
C799 C 0.42867 0.695 0.05027 0.0
C800 C 0.41028 0.71374 -0.00129 0.0
C801 C 0.43663 0.72639 -0.00804 0.0
C802 C 0.45957 0.72191 0.01365 0.0
C803 C 0.45559 0.70641 0.04274 0.0
H804 H 0.74469 0.4775 0.57376 0.0
H805 H 0.80421 0.42775 0.51754 0.0
H806 H 0.7181 0.48856 0.52337 0.0
H807 H 0.77813 0.4395 0.46723 0.0
H808 H 0.66307 0.43829 0.43913 0.0
H809 H 0.69132 0.44753 0.48853 0.0
H810 H 0.75838 0.48272 0.42916 0.0
H811 H 0.72955 0.47433 0.37958 0.0
C812 C 0.75268 0.46982 0.55053 0.0
C813 C 0.77636 0.45159 0.54952 0.0
C814 C 0.73743 0.4761 0.52178 0.0
C815 C 0.74612 0.46487 0.49153 0.0
C816 C 0.77118 0.44865 0.49021 0.0
C817 C 0.78599 0.4418 0.51899 0.0
C818 C 0.68342 0.44891 0.43677 0.0
C819 C 0.69419 0.45562 0.40567 0.0
C820 C 0.69952 0.45429 0.46499 0.0
C821 C 0.72699 0.4658 0.46255 0.0
C822 C 0.73718 0.47395 0.4316 0.0
C823 C 0.72068 0.46926 0.40335 0.0
H824 H 0.08147 0.76364 0.04586 0.0
H825 H -0.00999 0.76526 0.05749 0.0
H826 H 0.07577 0.74636 -0.00946 0.0
H827 H -0.0157 0.74821 0.0008 0.0
H828 H -0.00288 0.68387 0.91021 0.0
H829 H -0.00581 0.70516 0.96522 0.0
H830 H 0.05952 0.7653 0.93862 0.0
H831 H 0.06311 0.74352 0.88485 0.0
C832 C 0.06003 0.76056 0.03655 0.0
C833 C 0.03618 0.76613 0.05616 0.0
C834 C 0.05677 0.75076 0.00459 0.0
C835 C 0.02957 0.74639 -0.00899 0.0
C836 C 0.00554 0.75145 0.01061 0.0
C837 C 0.00882 0.76131 0.04295 0.0
C838 C 0.01041 0.70195 0.91614 0.0
C839 C 0.03075 0.71173 0.89368 0.0
C840 C 0.00871 0.71417 0.94751 0.0
C841 C 0.02712 0.73646 0.9565 0.0
C842 C 0.04564 0.74761 0.93283 0.0
C843 C 0.04764 0.73521 0.90198 0.0
H844 H 0.70237 0.9734 0.55525 0.0
H845 H 0.71921 0.06314 0.54444 0.0
H846 H 0.72926 0.96421 0.50458 0.0
H847 H 0.74559 0.05396 0.49498 0.0
H848 H 0.81334 0.03402 0.42827 0.0
H849 H 0.79228 0.02908 0.48238 0.0
H850 H 0.72433 0.97857 0.44105 0.0
H851 H 0.74589 -0.01695 0.38654 0.0
C852 C 0.71175 -0.00893 0.54222 0.0
C853 C 0.70865 0.01899 0.55399 0.0
C854 C 0.72707 -0.01419 0.51331 0.0
C855 C 0.7399 0.00833 0.49624 0.0
C856 C 0.73649 0.03609 0.50797 0.0
C857 C 0.72108 0.04135 0.5363 0.0
C858 C 0.79441 0.0211 0.43086 0.0
C859 C 0.78098 0.00931 0.40319 0.0
C860 C 0.78232 0.01831 0.46181 0.0
C861 C 0.75635 0.00399 0.46572 0.0
C862 C 0.74437 -0.01028 0.43867 0.0
C863 C 0.7567 -0.0077 0.40752 0.0
loop_
_geom_bond_atom_site_label_1
_geom_bond_atom_site_label_2
_geom_bond_distance
_geom_bond_site_symmetry_2
_ccdc_geom_bond_type
C0 O1 1.306 . S
C0 O3 1.160 . S
O1 C0 1.306 . S
O1 Cd2 2.228 . S
Cd2 O1 2.228 . S
Cd2 O6 2.273 . S
Cd2 O10 2.277 . S
O3 C0 1.160 . S
O3 Cd4 2.203 . S
Cd4 O3 2.203 . S
Cd4 O6 2.411 . S
Cd4 O7 2.333 . S
Cd4 O8 2.352 . S
Cd4 O12 2.277 . S
Cd4 O13 2.356 . S
C5 O10 1.209 . S
C5 O12 1.226 . S
O6 Cd2 2.273 . S
O6 Cd4 2.411 . S
O6 C9 1.320 . S
O7 Cd4 2.333 . S
O7 C9 1.214 . S
O8 Cd4 2.352 . S
O8 C11 1.258 . S
C9 O6 1.320 . S
C9 O7 1.214 . S
O10 Cd2 2.277 . S
O10 C5 1.209 . S
C11 O8 1.258 . S
C11 O13 1.282 . S
O12 Cd4 2.277 . S
O12 C5 1.226 . S
O13 Cd4 2.356 . S
O13 C11 1.282 . S
C14 O15 1.306 . S
C14 O17 1.160 . S
O15 C14 1.306 . S
O15 Cd16 2.228 . S
Cd16 O15 2.228 . S
Cd16 O20 2.273 . S
Cd16 O24 2.277 . S
O17 C14 1.160 . S
O17 Cd18 2.203 . S
Cd18 O17 2.203 . S
Cd18 O20 2.411 . S
Cd18 O21 2.333 . S
Cd18 O22 2.352 . S
Cd18 O26 2.277 . S
Cd18 O27 2.356 . S
C19 O24 1.209 . S
C19 O26 1.226 . S
O20 Cd16 2.273 . S
O20 Cd18 2.411 . S
O20 C23 1.320 . S
O21 Cd18 2.333 . S
O21 C23 1.214 . S
O22 Cd18 2.352 . S
O22 C25 1.258 . S
C23 O20 1.320 . S
C23 O21 1.214 . S
O24 Cd16 2.277 . S
O24 C19 1.209 . S
C25 O22 1.258 . S
C25 O27 1.282 . S
O26 Cd18 2.277 . S
O26 C19 1.226 . S
O27 Cd18 2.356 . S
O27 C25 1.282 . S
C28 O29 1.306 . S
C28 O31 1.160 . S
O29 C28 1.306 . S
O29 Cd30 2.228 . S
Cd30 O29 2.228 . S
Cd30 O34 2.273 . S
Cd30 O38 2.277 . S
O31 C28 1.160 . S
O31 Cd32 2.203 . S
Cd32 O31 2.203 . S
Cd32 O34 2.411 . S
Cd32 O35 2.333 . S
Cd32 O36 2.352 1_655 S
Cd32 O40 2.277 . S
Cd32 O41 2.356 1_655 S
C33 O38 1.209 . S
C33 O40 1.226 . S
O34 Cd30 2.273 . S
O34 Cd32 2.411 . S
O34 C37 1.320 . S
O35 Cd32 2.333 . S
O35 C37 1.214 . S
O36 Cd32 2.352 1_455 S
O36 C39 1.258 . S
C37 O34 1.320 . S
C37 O35 1.214 . S
O38 Cd30 2.277 . S
O38 C33 1.209 . S
C39 O36 1.258 . S
C39 O41 1.282 . S
O40 Cd32 2.277 . S
O40 C33 1.226 . S
O41 Cd32 2.356 1_455 S
O41 C39 1.282 . S
C42 O43 1.306 . S
C42 O45 1.160 . S
O43 C42 1.306 . S
O43 Cd44 2.228 . S
Cd44 O43 2.228 . S
Cd44 O48 2.273 . S
Cd44 O52 2.277 . S
O45 C42 1.160 . S
O45 Cd46 2.203 . S
Cd46 O45 2.203 . S
Cd46 O48 2.411 . S
Cd46 O49 2.333 . S
Cd46 O50 2.352 1_565 S
Cd46 O54 2.277 . S
Cd46 O55 2.356 1_565 S
C47 O52 1.209 . S
C47 O54 1.226 . S
O48 Cd44 2.273 . S
O48 Cd46 2.411 . S
O48 C51 1.320 . S
O49 Cd46 2.333 . S
O49 C51 1.214 . S
O50 Cd46 2.352 1_545 S
O50 C53 1.258 . S
C51 O48 1.320 . S
C51 O49 1.214 . S
O52 Cd44 2.277 . S
O52 C47 1.209 . S
C53 O50 1.258 . S
C53 O55 1.282 . S
O54 Cd46 2.277 . S
O54 C47 1.226 . S
O55 Cd46 2.356 1_545 S
O55 C53 1.282 . S
C56 O57 1.306 . S
C56 O59 1.160 . S
O57 C56 1.306 . S
O57 Cd58 2.228 . S
Cd58 O57 2.228 . S
Cd58 O62 2.273 . S
Cd58 O66 2.277 . S
O59 C56 1.160 . S
O59 Cd60 2.203 . S
Cd60 O59 2.203 . S
Cd60 O62 2.411 . S
Cd60 O63 2.333 . S
Cd60 O64 2.352 . S
Cd60 O68 2.277 . S
Cd60 O69 2.356 . S
C61 O66 1.209 . S
C61 O68 1.226 . S
O62 Cd58 2.273 . S
O62 Cd60 2.411 . S
O62 C65 1.320 . S
O63 Cd60 2.333 . S
O63 C65 1.214 . S
O64 Cd60 2.352 . S
O64 C67 1.258 . S
C65 O62 1.320 . S
C65 O63 1.214 . S
O66 Cd58 2.277 . S
O66 C61 1.209 . S
C67 O64 1.258 . S
C67 O69 1.282 . S
O68 Cd60 2.277 . S
O68 C61 1.226 . S
O69 Cd60 2.356 . S
O69 C67 1.282 . S
C70 O71 1.306 . S
C70 O73 1.160 . S
O71 C70 1.306 . S
O71 Cd72 2.228 . S
Cd72 O71 2.228 . S
Cd72 O76 2.273 . S
Cd72 O80 2.277 . S
O73 C70 1.160 . S
O73 Cd74 2.203 . S
Cd74 O73 2.203 . S
Cd74 O76 2.411 . S
Cd74 O77 2.333 . S
Cd74 O78 2.352 . S
Cd74 O82 2.277 . S
Cd74 O83 2.356 . S
C75 O80 1.209 . S
C75 O82 1.226 . S
O76 Cd72 2.273 . S
O76 Cd74 2.411 . S
O76 C79 1.320 . S
O77 Cd74 2.333 . S
O77 C79 1.214 . S
O78 Cd74 2.352 . S
O78 C81 1.258 . S
C79 O76 1.320 . S
C79 O77 1.214 . S
O80 Cd72 2.277 . S
O80 C75 1.209 . S
C81 O78 1.258 . S
C81 O83 1.282 . S
O82 Cd74 2.277 . S
O82 C75 1.226 . S
O83 Cd74 2.356 . S
O83 C81 1.282 . S
C84 O85 1.306 . S
C84 O87 1.160 . S
O85 C84 1.306 . S
O85 Cd86 2.228 . S
Cd86 O85 2.228 . S
Cd86 O90 2.273 . S
Cd86 O94 2.277 . S
O87 C84 1.160 . S
O87 Cd88 2.203 . S
Cd88 O87 2.203 . S
Cd88 O90 2.411 . S
Cd88 O91 2.333 . S
Cd88 O92 2.352 1_655 S
Cd88 O96 2.277 . S
Cd88 O97 2.356 1_655 S
C89 O94 1.209 . S
C89 O96 1.226 . S
O90 Cd86 2.273 . S
O90 Cd88 2.411 . S
O90 C93 1.320 . S
O91 Cd88 2.333 . S
O91 C93 1.214 . S
O92 Cd88 2.352 1_455 S
O92 C95 1.258 . S
C93 O90 1.320 . S
C93 O91 1.214 . S
O94 Cd86 2.277 . S
O94 C89 1.209 . S
C95 O92 1.258 . S
C95 O97 1.282 . S
O96 Cd88 2.277 . S
O96 C89 1.226 . S
O97 Cd88 2.356 1_455 S
O97 C95 1.282 . S
C98 O99 1.306 . S
C98 O101 1.160 . S
O99 C98 1.306 . S
O99 Cd100 2.228 . S
Cd100 O99 2.228 . S
Cd100 O104 2.273 . S
Cd100 O108 2.277 . S
O101 C98 1.160 . S
O101 Cd102 2.203 . S
Cd102 O101 2.203 . S
Cd102 O104 2.411 . S
Cd102 O105 2.333 . S
Cd102 O106 2.352 1_565 S
Cd102 O110 2.277 . S
Cd102 O111 2.356 1_565 S
C103 O108 1.209 . S
C103 O110 1.226 . S
O104 Cd100 2.273 . S
O104 Cd102 2.411 . S
O104 C107 1.320 . S
O105 Cd102 2.333 . S
O105 C107 1.214 . S
O106 Cd102 2.352 1_545 S
O106 C109 1.258 . S
C107 O104 1.320 . S
C107 O105 1.214 . S
O108 Cd100 2.277 . S
O108 C103 1.209 . S
C109 O106 1.258 . S
C109 O111 1.282 . S
O110 Cd102 2.277 . S
O110 C103 1.226 . S
O111 Cd102 2.356 1_545 S
O111 C109 1.282 . S
C112 O113 1.306 . S
C112 O115 1.160 . S
O113 C112 1.306 . S
O113 Cd114 2.228 . S
Cd114 O113 2.228 . S
Cd114 O118 2.273 . S
Cd114 O122 2.277 . S
O115 C112 1.160 . S
O115 Cd116 2.203 . S
Cd116 O115 2.203 . S
Cd116 O118 2.411 . S
Cd116 O119 2.333 . S
Cd116 O120 2.352 . S
Cd116 O124 2.277 . S
Cd116 O125 2.356 . S
C117 O122 1.209 . S
C117 O124 1.226 . S
O118 Cd114 2.273 . S
O118 Cd116 2.411 . S
O118 C121 1.320 . S
O119 Cd116 2.333 . S
O119 C121 1.214 . S
O120 Cd116 2.352 . S
O120 C123 1.258 . S
C121 O118 1.320 . S
C121 O119 1.214 . S
O122 Cd114 2.277 . S
O122 C117 1.209 . S
C123 O120 1.258 . S
C123 O125 1.282 . S
O124 Cd116 2.277 . S
O124 C117 1.226 . S
O125 Cd116 2.356 . S
O125 C123 1.282 . S
C126 O127 1.306 . S
C126 O129 1.160 . S
O127 C126 1.306 . S
O127 Cd128 2.228 . S
Cd128 O127 2.228 . S
Cd128 O132 2.273 . S
Cd128 O136 2.277 . S
O129 C126 1.160 . S
O129 Cd130 2.203 . S
Cd130 O129 2.203 . S
Cd130 O132 2.411 . S
Cd130 O133 2.333 . S
Cd130 O134 2.352 . S
Cd130 O138 2.277 . S
Cd130 O139 2.356 . S
C131 O136 1.209 . S
C131 O138 1.226 . S
O132 Cd128 2.273 . S
O132 Cd130 2.411 . S
O132 C135 1.320 . S
O133 Cd130 2.333 . S
O133 C135 1.214 . S
O134 Cd130 2.352 . S
O134 C137 1.258 . S
C135 O132 1.320 . S
C135 O133 1.214 . S
O136 Cd128 2.277 . S
O136 C131 1.209 . S
C137 O134 1.258 . S
C137 O139 1.282 . S
O138 Cd130 2.277 . S
O138 C131 1.226 . S
O139 Cd130 2.356 . S
O139 C137 1.282 . S
C140 O141 1.306 . S
C140 O143 1.160 . S
O141 C140 1.306 . S
O141 Cd142 2.228 . S
Cd142 O141 2.228 . S
Cd142 O146 2.273 . S
Cd142 O150 2.277 . S
O143 C140 1.160 . S
O143 Cd144 2.203 . S
Cd144 O143 2.203 . S
Cd144 O146 2.411 . S
Cd144 O147 2.333 . S
Cd144 O148 2.352 1_455 S
Cd144 O152 2.277 . S
Cd144 O153 2.356 1_455 S
C145 O150 1.209 . S
C145 O152 1.226 . S
O146 Cd142 2.273 . S
O146 Cd144 2.411 . S
O146 C149 1.320 . S
O147 Cd144 2.333 . S
O147 C149 1.214 . S
O148 Cd144 2.352 1_655 S
O148 C151 1.258 . S
C149 O146 1.320 . S
C149 O147 1.214 . S
O150 Cd142 2.277 . S
O150 C145 1.209 . S
C151 O148 1.258 . S
C151 O153 1.282 . S
O152 Cd144 2.277 . S
O152 C145 1.226 . S
O153 Cd144 2.356 1_655 S
O153 C151 1.282 . S
C154 O155 1.306 . S
C154 O157 1.160 . S
O155 C154 1.306 . S
O155 Cd156 2.228 . S
Cd156 O155 2.228 . S
Cd156 O160 2.273 . S
Cd156 O164 2.277 . S
O157 C154 1.160 . S
O157 Cd158 2.203 . S
Cd158 O157 2.203 . S
Cd158 O160 2.411 . S
Cd158 O161 2.333 . S
Cd158 O162 2.352 1_545 S
Cd158 O166 2.277 . S
Cd158 O167 2.356 1_545 S
C159 O164 1.209 . S
C159 O166 1.226 . S
O160 Cd156 2.273 . S
O160 Cd158 2.411 . S
O160 C163 1.320 . S
O161 Cd158 2.333 . S
O161 C163 1.214 . S
O162 Cd158 2.352 1_565 S
O162 C165 1.258 . S
C163 O160 1.320 . S
C163 O161 1.214 . S
O164 Cd156 2.277 . S
O164 C159 1.209 . S
C165 O162 1.258 . S
C165 O167 1.282 . S
O166 Cd158 2.277 . S
O166 C159 1.226 . S
O167 Cd158 2.356 1_565 S
O167 C165 1.282 . S
C168 O169 1.306 . S
C168 O171 1.160 . S
O169 C168 1.306 . S
O169 Cd170 2.228 . S
Cd170 O169 2.228 . S
Cd170 O174 2.273 . S
Cd170 O178 2.277 . S
O171 C168 1.160 . S
O171 Cd172 2.203 . S
Cd172 O171 2.203 . S
Cd172 O174 2.411 . S
Cd172 O175 2.333 . S
Cd172 O176 2.352 . S
Cd172 O180 2.277 . S
Cd172 O181 2.356 . S
C173 O178 1.209 . S
C173 O180 1.226 . S
O174 Cd170 2.273 . S
O174 Cd172 2.411 . S
O174 C177 1.320 . S
O175 Cd172 2.333 . S
O175 C177 1.214 . S
O176 Cd172 2.352 . S
O176 C179 1.258 . S
C177 O174 1.320 . S
C177 O175 1.214 . S
O178 Cd170 2.277 . S
O178 C173 1.209 . S
C179 O176 1.258 . S
C179 O181 1.282 . S
O180 Cd172 2.277 . S
O180 C173 1.226 . S
O181 Cd172 2.356 . S
O181 C179 1.282 . S
C182 O183 1.306 . S
C182 O185 1.160 . S
O183 C182 1.306 . S
O183 Cd184 2.228 . S
Cd184 O183 2.228 . S
Cd184 O188 2.273 . S
Cd184 O192 2.277 . S
O185 C182 1.160 . S
O185 Cd186 2.203 . S
Cd186 O185 2.203 . S
Cd186 O188 2.411 . S
Cd186 O189 2.333 . S
Cd186 O190 2.352 . S
Cd186 O194 2.277 . S
Cd186 O195 2.356 . S
C187 O192 1.209 . S
C187 O194 1.226 . S
O188 Cd184 2.273 . S
O188 Cd186 2.411 . S
O188 C191 1.320 . S
O189 Cd186 2.333 . S
O189 C191 1.214 . S
O190 Cd186 2.352 . S
O190 C193 1.258 . S
C191 O188 1.320 . S
C191 O189 1.214 . S
O192 Cd184 2.277 . S
O192 C187 1.209 . S
C193 O190 1.258 . S
C193 O195 1.282 . S
O194 Cd186 2.277 . S
O194 C187 1.226 . S
O195 Cd186 2.356 . S
O195 C193 1.282 . S
C196 O197 1.306 . S
C196 O199 1.160 . S
O197 C196 1.306 . S
O197 Cd198 2.228 . S
Cd198 O197 2.228 . S
Cd198 O202 2.273 . S
Cd198 O206 2.277 . S
O199 C196 1.160 . S
O199 Cd200 2.203 . S
Cd200 O199 2.203 . S
Cd200 O202 2.411 . S
Cd200 O203 2.333 . S
Cd200 O204 2.352 1_455 S
Cd200 O208 2.277 . S
Cd200 O209 2.356 1_455 S
C201 O206 1.209 . S
C201 O208 1.226 . S
O202 Cd198 2.273 . S
O202 Cd200 2.411 . S
O202 C205 1.320 . S
O203 Cd200 2.333 . S
O203 C205 1.214 . S
O204 Cd200 2.352 1_655 S
O204 C207 1.258 . S
C205 O202 1.320 . S
C205 O203 1.214 . S
O206 Cd198 2.277 . S
O206 C201 1.209 . S
C207 O204 1.258 . S
C207 O209 1.282 . S
O208 Cd200 2.277 . S
O208 C201 1.226 . S
O209 Cd200 2.356 1_655 S
O209 C207 1.282 . S
C210 O211 1.306 . S
C210 O213 1.160 . S
O211 C210 1.306 . S
O211 Cd212 2.228 . S
Cd212 O211 2.228 . S
Cd212 O216 2.273 . S
Cd212 O220 2.277 . S
O213 C210 1.160 . S
O213 Cd214 2.203 . S
Cd214 O213 2.203 . S
Cd214 O216 2.411 . S
Cd214 O217 2.333 . S
Cd214 O218 2.352 1_545 S
Cd214 O222 2.277 . S
Cd214 O223 2.356 1_545 S
C215 O220 1.209 . S
C215 O222 1.226 . S
O216 Cd212 2.273 . S
O216 Cd214 2.411 . S
O216 C219 1.320 . S
O217 Cd214 2.333 . S
O217 C219 1.214 . S
O218 Cd214 2.352 1_565 S
O218 C221 1.258 . S
C219 O216 1.320 . S
C219 O217 1.214 . S
O220 Cd212 2.277 . S
O220 C215 1.209 . S
C221 O218 1.258 . S
C221 O223 1.282 . S
O222 Cd214 2.277 . S
O222 C215 1.226 . S
O223 Cd214 2.356 1_565 S
O223 C221 1.282 . S
H224 C232 0.950 . S
H225 C237 0.950 . S
H226 C234 0.950 . S
H227 C236 0.950 . S
H228 C238 0.950 . S
H229 C240 0.950 . S
H230 C242 0.950 . S
H231 C243 0.950 . S
C232 H224 0.950 . S
C232 C233 1.386 . S
C232 C234 1.391 . S
C233 C232 1.386 . S
C233 C237 1.393 . S
C234 H226 0.950 . S
C234 C232 1.391 . S
C234 C235 1.400 . S
C235 C234 1.400 . S
C235 C236 1.398 . S
C235 C241 1.491 . S
C236 H227 0.950 . S
C236 C235 1.398 . S
C236 C237 1.391 . S
C237 H225 0.950 . S
C237 C233 1.393 . S
C237 C236 1.391 . S
C238 H228 0.950 . S
C238 C239 1.386 . S
C238 C240 1.391 . S
C239 C238 1.386 . S
C239 C243 1.393 . S
C240 H229 0.950 . S
C240 C238 1.391 . S
C240 C241 1.400 . S
C241 C235 1.491 . S
C241 C240 1.400 . S
C241 C242 1.398 . S
C242 H230 0.950 . S
C242 C241 1.398 . S
C242 C243 1.391 . S
C243 H231 0.950 . S
C243 C239 1.393 . S
C243 C242 1.391 . S
H244 C252 0.950 . S
H245 C257 0.950 . S
H246 C254 0.950 . S
H247 C256 0.950 . S
H248 C258 0.950 . S
H249 C260 0.950 . S
H250 C262 0.950 . S
H251 C263 0.950 . S
C252 H244 0.950 . S
C252 C253 1.386 . S
C252 C254 1.391 . S
C253 C252 1.386 . S
C253 C257 1.393 . S
C254 H246 0.950 . S
C254 C252 1.391 . S
C254 C255 1.400 . S
C255 C254 1.400 . S
C255 C256 1.398 . S
C255 C261 1.491 . S
C256 H247 0.950 . S
C256 C255 1.398 . S
C256 C257 1.391 . S
C257 H245 0.950 . S
C257 C253 1.393 . S
C257 C256 1.391 . S
C258 H248 0.950 . S
C258 C259 1.386 . S
C258 C260 1.391 . S
C259 C258 1.386 . S
C259 C263 1.393 . S
C260 H249 0.950 . S
C260 C258 1.391 . S
C260 C261 1.400 . S
C261 C255 1.491 . S
C261 C260 1.400 . S
C261 C262 1.398 . S
C262 H250 0.950 . S
C262 C261 1.398 . S
C262 C263 1.391 . S
C263 H251 0.950 . S
C263 C259 1.393 . S
C263 C262 1.391 . S
H264 C272 0.950 . S
H265 C277 0.950 . S
H266 C274 0.950 . S
H267 C276 0.950 . S
H268 C278 0.950 . S
H269 C280 0.950 . S
H270 C282 0.950 . S
H271 C283 0.950 . S
C272 H264 0.950 . S
C272 C273 1.386 . S
C272 C274 1.391 . S
C273 C272 1.386 . S
C273 C277 1.393 . S
C274 H266 0.950 . S
C274 C272 1.391 . S
C274 C275 1.400 . S
C275 C274 1.400 . S
C275 C276 1.398 . S
C275 C281 1.491 . S
C276 H267 0.950 . S
C276 C275 1.398 . S
C276 C277 1.391 . S
C277 H265 0.950 . S
C277 C273 1.393 . S
C277 C276 1.391 . S
C278 H268 0.950 . S
C278 C279 1.386 . S
C278 C280 1.391 . S
C279 C278 1.386 . S
C279 C283 1.393 . S
C280 H269 0.950 . S
C280 C278 1.391 . S
C280 C281 1.400 . S
C281 C275 1.491 . S
C281 C280 1.400 . S
C281 C282 1.398 . S
C282 H270 0.950 . S
C282 C281 1.398 . S
C282 C283 1.391 . S
C283 H271 0.950 . S
C283 C279 1.393 . S
C283 C282 1.391 . S
H284 C292 0.950 . S
H285 C297 0.950 . S
H286 C294 0.950 . S
H287 C296 0.950 . S
H288 C298 0.950 . S
H289 C300 0.950 . S
H290 C302 0.950 . S
H291 C303 0.950 . S
C292 H284 0.950 . S
C292 C293 1.386 . S
C292 C294 1.391 . S
C293 C292 1.386 . S
C293 C297 1.393 . S
C294 H286 0.950 . S
C294 C292 1.391 . S
C294 C295 1.400 . S
C295 C294 1.400 . S
C295 C296 1.398 . S
C295 C301 1.491 . S
C296 H287 0.950 . S
C296 C295 1.398 . S
C296 C297 1.391 . S
C297 H285 0.950 . S
C297 C293 1.393 . S
C297 C296 1.391 . S
C298 H288 0.950 . S
C298 C299 1.386 . S
C298 C300 1.391 . S
C299 C298 1.386 . S
C299 C303 1.393 . S
C300 H289 0.950 . S
C300 C298 1.391 . S
C300 C301 1.400 . S
C301 C295 1.491 . S
C301 C300 1.400 . S
C301 C302 1.398 . S
C302 H290 0.950 . S
C302 C301 1.398 . S
C302 C303 1.391 . S
C303 H291 0.950 . S
C303 C299 1.393 . S
C303 C302 1.391 . S
H304 C312 0.950 . S
H305 C317 0.950 . S
H306 C314 0.950 . S
H307 C316 0.950 . S
H308 C318 0.950 . S
H309 C320 0.950 . S
H310 C322 0.950 . S
H311 C323 0.950 . S
C312 H304 0.950 . S
C312 C313 1.386 . S
C312 C314 1.391 . S
C313 C312 1.386 . S
C313 C317 1.393 . S
C314 H306 0.950 . S
C314 C312 1.391 . S
C314 C315 1.400 . S
C315 C314 1.400 . S
C315 C316 1.398 . S
C315 C321 1.491 . S
C316 H307 0.950 . S
C316 C315 1.398 . S
C316 C317 1.391 . S
C317 H305 0.950 . S
C317 C313 1.393 . S
C317 C316 1.391 . S
C318 H308 0.950 . S
C318 C319 1.386 . S
C318 C320 1.391 . S
C319 C318 1.386 . S
C319 C323 1.393 . S
C320 H309 0.950 . S
C320 C318 1.391 . S
C320 C321 1.400 . S
C321 C315 1.491 . S
C321 C320 1.400 . S
C321 C322 1.398 . S
C322 H310 0.950 . S
C322 C321 1.398 . S
C322 C323 1.391 . S
C323 H311 0.950 . S
C323 C319 1.393 . S
C323 C322 1.391 . S
H324 C332 0.950 . S
H325 C337 0.950 . S
H326 C334 0.950 . S
H327 C336 0.950 . S
H328 C338 0.950 . S
H329 C340 0.950 . S
H330 C342 0.950 . S
H331 C343 0.950 . S
C332 H324 0.950 . S
C332 C333 1.386 . S
C332 C334 1.391 . S
C333 C332 1.386 . S
C333 C337 1.393 . S
C334 H326 0.950 . S
C334 C332 1.391 . S
C334 C335 1.400 . S
C335 C334 1.400 . S
C335 C336 1.398 . S
C335 C341 1.491 . S
C336 H327 0.950 . S
C336 C335 1.398 . S
C336 C337 1.391 . S
C337 H325 0.950 . S
C337 C333 1.393 . S
C337 C336 1.391 . S
C338 H328 0.950 . S
C338 C339 1.386 . S
C338 C340 1.391 . S
C339 C338 1.386 . S
C339 C343 1.393 . S
C340 H329 0.950 . S
C340 C338 1.391 . S
C340 C341 1.400 . S
C341 C335 1.491 . S
C341 C340 1.400 . S
C341 C342 1.398 . S
C342 H330 0.950 . S
C342 C341 1.398 . S
C342 C343 1.391 . S
C343 H331 0.950 . S
C343 C339 1.393 . S
C343 C342 1.391 . S
H344 C352 0.950 . S
H345 C357 0.950 . S
H346 C354 0.950 . S
H347 C356 0.950 . S
H348 C358 0.950 . S
H349 C360 0.950 . S
H350 C362 0.950 . S
H351 C363 0.950 . S
C352 H344 0.950 . S
C352 C353 1.386 . S
C352 C354 1.391 . S
C353 C352 1.386 . S
C353 C357 1.393 . S
C354 H346 0.950 . S
C354 C352 1.391 . S
C354 C355 1.400 . S
C355 C354 1.400 . S
C355 C356 1.398 . S
C355 C361 1.491 . S
C356 H347 0.950 . S
C356 C355 1.398 . S
C356 C357 1.391 . S
C357 H345 0.950 . S
C357 C353 1.393 . S
C357 C356 1.391 . S
C358 H348 0.950 . S
C358 C359 1.386 . S
C358 C360 1.391 . S
C359 C358 1.386 . S
C359 C363 1.393 . S
C360 H349 0.950 . S
C360 C358 1.391 . S
C360 C361 1.400 . S
C361 C355 1.491 . S
C361 C360 1.400 . S
C361 C362 1.398 . S
C362 H350 0.950 . S
C362 C361 1.398 . S
C362 C363 1.391 . S
C363 H351 0.950 . S
C363 C359 1.393 . S
C363 C362 1.391 . S
H364 C372 0.950 . S
H365 C377 0.950 . S
H366 C374 0.950 . S
H367 C376 0.950 . S
H368 C378 0.950 . S
H369 C380 0.950 . S
H370 C382 0.950 . S
H371 C383 0.950 . S
C372 H364 0.950 . S
C372 C373 1.386 . S
C372 C374 1.391 . S
C373 C372 1.386 . S
C373 C377 1.393 . S
C374 H366 0.950 . S
C374 C372 1.391 . S
C374 C375 1.400 . S
C375 C374 1.400 . S
C375 C376 1.398 . S
C375 C381 1.491 . S
C376 H367 0.950 . S
C376 C375 1.398 . S
C376 C377 1.391 . S
C377 H365 0.950 . S
C377 C373 1.393 . S
C377 C376 1.391 . S
C378 H368 0.950 . S
C378 C379 1.386 . S
C378 C380 1.391 . S
C379 C378 1.386 . S
C379 C383 1.393 . S
C380 H369 0.950 . S
C380 C378 1.391 . S
C380 C381 1.400 . S
C381 C375 1.491 . S
C381 C380 1.400 . S
C381 C382 1.398 . S
C382 H370 0.950 . S
C382 C381 1.398 . S
C382 C383 1.391 . S
C383 H371 0.950 . S
C383 C379 1.393 . S
C383 C382 1.391 . S
H384 C392 0.950 . S
H385 C397 0.950 . S
H386 C394 0.950 . S
H387 C396 0.950 . S
H388 C398 0.950 . S
H389 C400 0.950 . S
H390 C402 0.950 . S
H391 C403 0.950 . S
C392 H384 0.950 . S
C392 C393 1.386 . S
C392 C394 1.391 . S
C393 C392 1.386 . S
C393 C397 1.393 . S
C394 H386 0.950 . S
C394 C392 1.391 . S
C394 C395 1.400 . S
C395 C394 1.400 . S
C395 C396 1.398 . S
C395 C401 1.491 . S
C396 H387 0.950 . S
C396 C395 1.398 . S
C396 C397 1.391 . S
C397 H385 0.950 . S
C397 C393 1.393 . S
C397 C396 1.391 . S
C398 H388 0.950 . S
C398 C399 1.386 . S
C398 C400 1.391 . S
C399 C398 1.386 . S
C399 C403 1.393 . S
C400 H389 0.950 . S
C400 C398 1.391 . S
C400 C401 1.400 . S
C401 C395 1.491 . S
C401 C400 1.400 . S
C401 C402 1.398 . S
C402 H390 0.950 . S
C402 C401 1.398 . S
C402 C403 1.391 . S
C403 H391 0.950 . S
C403 C399 1.393 . S
C403 C402 1.391 . S
H404 C412 0.950 . S
H405 C417 0.950 . S
H406 C414 0.950 . S
H407 C416 0.950 . S
H408 C418 0.950 . S
H409 C420 0.950 . S
H410 C422 0.950 . S
H411 C423 0.950 . S
C412 H404 0.950 . S
C412 C413 1.386 . S
C412 C414 1.391 . S
C413 C412 1.386 . S
C413 C417 1.393 . S
C414 H406 0.950 . S
C414 C412 1.391 . S
C414 C415 1.400 . S
C415 C414 1.400 . S
C415 C416 1.398 . S
C415 C421 1.491 . S
C416 H407 0.950 . S
C416 C415 1.398 . S
C416 C417 1.391 . S
C417 H405 0.950 . S
C417 C413 1.393 . S
C417 C416 1.391 . S
C418 H408 0.950 . S
C418 C419 1.386 . S
C418 C420 1.391 . S
C419 C418 1.386 . S
C419 C423 1.393 . S
C420 H409 0.950 . S
C420 C418 1.391 . S
C420 C421 1.400 . S
C421 C415 1.491 . S
C421 C420 1.400 . S
C421 C422 1.398 . S
C422 H410 0.950 . S
C422 C421 1.398 . S
C422 C423 1.391 . S
C423 H411 0.950 . S
C423 C419 1.393 . S
C423 C422 1.391 . S
H424 C432 0.950 . S
H425 C437 0.950 . S
H426 C434 0.950 . S
H427 C436 0.950 . S
H428 C438 0.950 . S
H429 C440 0.950 . S
H430 C442 0.950 . S
H431 C443 0.950 . S
C432 H424 0.950 . S
C432 C433 1.386 . S
C432 C434 1.391 . S
C433 C432 1.386 . S
C433 C437 1.393 . S
C434 H426 0.950 . S
C434 C432 1.391 . S
C434 C435 1.400 . S
C435 C434 1.400 . S
C435 C436 1.398 . S
C435 C441 1.491 . S
C436 H427 0.950 . S
C436 C435 1.398 . S
C436 C437 1.391 . S
C437 H425 0.950 . S
C437 C433 1.393 . S
C437 C436 1.391 . S
C438 H428 0.950 . S
C438 C439 1.386 . S
C438 C440 1.391 . S
C439 C438 1.386 . S
C439 C443 1.393 . S
C440 H429 0.950 . S
C440 C438 1.391 . S
C440 C441 1.400 . S
C441 C435 1.491 . S
C441 C440 1.400 . S
C441 C442 1.398 . S
C442 H430 0.950 . S
C442 C441 1.398 . S
C442 C443 1.391 . S
C443 H431 0.950 . S
C443 C439 1.393 . S
C443 C442 1.391 . S
H444 C452 0.950 . S
H445 C457 0.950 . S
H446 C454 0.950 . S
H447 C456 0.950 . S
H448 C458 0.950 . S
H449 C460 0.950 . S
H450 C462 0.950 . S
H451 C463 0.950 . S
C452 H444 0.950 . S
C452 C453 1.386 . S
C452 C454 1.391 . S
C453 C452 1.386 . S
C453 C457 1.393 . S
C454 H446 0.950 . S
C454 C452 1.391 . S
C454 C455 1.400 . S
C455 C454 1.400 . S
C455 C456 1.398 . S
C455 C461 1.491 . S
C456 H447 0.950 . S
C456 C455 1.398 . S
C456 C457 1.391 . S
C457 H445 0.950 . S
C457 C453 1.393 . S
C457 C456 1.391 . S
C458 H448 0.950 . S
C458 C459 1.386 . S
C458 C460 1.391 . S
C459 C458 1.386 . S
C459 C463 1.393 . S
C460 H449 0.950 . S
C460 C458 1.391 . S
C460 C461 1.400 . S
C461 C455 1.491 . S
C461 C460 1.400 . S
C461 C462 1.398 . S
C462 H450 0.950 . S
C462 C461 1.398 . S
C462 C463 1.391 . S
C463 H451 0.950 . S
C463 C459 1.393 . S
C463 C462 1.391 . S
H464 C472 0.950 . S
H465 C477 0.950 . S
H466 C474 0.950 . S
H467 C476 0.950 . S
H468 C478 0.950 . S
H469 C480 0.950 . S
H470 C482 0.950 . S
H471 C483 0.950 . S
C472 H464 0.950 . S
C472 C473 1.386 . S
C472 C474 1.391 . S
C473 C472 1.386 . S
C473 C477 1.393 . S
C474 H466 0.950 . S
C474 C472 1.391 . S
C474 C475 1.400 . S
C475 C474 1.400 . S
C475 C476 1.398 . S
C475 C481 1.491 . S
C476 H467 0.950 . S
C476 C475 1.398 . S
C476 C477 1.391 . S
C477 H465 0.950 . S
C477 C473 1.393 . S
C477 C476 1.391 . S
C478 H468 0.950 . S
C478 C479 1.386 . S
C478 C480 1.391 . S
C479 C478 1.386 . S
C479 C483 1.393 . S
C480 H469 0.950 . S
C480 C478 1.391 . S
C480 C481 1.400 . S
C481 C475 1.491 . S
C481 C480 1.400 . S
C481 C482 1.398 . S
C482 H470 0.950 . S
C482 C481 1.398 . S
C482 C483 1.391 . S
C483 H471 0.950 . S
C483 C479 1.393 . S
C483 C482 1.391 . S
H484 C492 0.950 . S
H485 C497 0.950 . S
H486 C494 0.950 . S
H487 C496 0.950 . S
H488 C498 0.950 . S
H489 C500 0.950 . S
H490 C502 0.950 . S
H491 C503 0.950 . S
C492 H484 0.950 . S
C492 C493 1.386 . S
C492 C494 1.391 . S
C493 C492 1.386 . S
C493 C497 1.393 . S
C494 H486 0.950 . S
C494 C492 1.391 . S
C494 C495 1.400 . S
C495 C494 1.400 . S
C495 C496 1.398 . S
C495 C501 1.491 . S
C496 H487 0.950 . S
C496 C495 1.398 . S
C496 C497 1.391 . S
C497 H485 0.950 . S
C497 C493 1.393 . S
C497 C496 1.391 . S
C498 H488 0.950 . S
C498 C499 1.386 . S
C498 C500 1.391 . S
C499 C498 1.386 . S
C499 C503 1.393 . S
C500 H489 0.950 . S
C500 C498 1.391 . S
C500 C501 1.400 . S
C501 C495 1.491 . S
C501 C500 1.400 . S
C501 C502 1.398 . S
C502 H490 0.950 . S
C502 C501 1.398 . S
C502 C503 1.391 . S
C503 H491 0.950 . S
C503 C499 1.393 . S
C503 C502 1.391 . S
H504 C512 0.950 . S
H505 C517 0.950 . S
H506 C514 0.950 . S
H507 C516 0.950 . S
H508 C518 0.950 . S
H509 C520 0.950 . S
H510 C522 0.950 . S
H511 C523 0.950 . S
C512 H504 0.950 . S
C512 C513 1.386 . S
C512 C514 1.391 . S
C513 C512 1.386 . S
C513 C517 1.393 . S
C514 H506 0.950 . S
C514 C512 1.391 . S
C514 C515 1.400 . S
C515 C514 1.400 . S
C515 C516 1.398 . S
C515 C521 1.491 . S
C516 H507 0.950 . S
C516 C515 1.398 . S
C516 C517 1.391 . S
C517 H505 0.950 . S
C517 C513 1.393 . S
C517 C516 1.391 . S
C518 H508 0.950 . S
C518 C519 1.386 . S
C518 C520 1.391 . S
C519 C518 1.386 . S
C519 C523 1.393 . S
C520 H509 0.950 . S
C520 C518 1.391 . S
C520 C521 1.400 . S
C521 C515 1.491 . S
C521 C520 1.400 . S
C521 C522 1.398 . S
C522 H510 0.950 . S
C522 C521 1.398 . S
C522 C523 1.391 . S
C523 H511 0.950 . S
C523 C519 1.393 . S
C523 C522 1.391 . S
H524 C532 0.950 . S
H525 C537 0.950 . S
H526 C534 0.950 . S
H527 C536 0.950 . S
H528 C538 0.950 . S
H529 C540 0.950 . S
H530 C542 0.950 . S
H531 C543 0.950 . S
C532 H524 0.950 . S
C532 C533 1.386 . S
C532 C534 1.391 . S
C533 C532 1.386 . S
C533 C537 1.393 . S
C534 H526 0.950 . S
C534 C532 1.391 . S
C534 C535 1.400 . S
C535 C534 1.400 . S
C535 C536 1.398 . S
C535 C541 1.491 . S
C536 H527 0.950 . S
C536 C535 1.398 . S
C536 C537 1.391 . S
C537 H525 0.950 . S
C537 C533 1.393 . S
C537 C536 1.391 . S
C538 H528 0.950 . S
C538 C539 1.386 . S
C538 C540 1.391 . S
C539 C538 1.386 . S
C539 C543 1.393 . S
C540 H529 0.950 . S
C540 C538 1.391 . S
C540 C541 1.400 . S
C541 C535 1.491 . S
C541 C540 1.400 . S
C541 C542 1.398 . S
C542 H530 0.950 . S
C542 C541 1.398 . S
C542 C543 1.391 . S
C543 H531 0.950 . S
C543 C539 1.393 . S
C543 C542 1.391 . S
H544 C552 0.950 . S
H545 C557 0.950 . S
H546 C554 0.950 . S
H547 C556 0.950 . S
H548 C558 0.950 . S
H549 C560 0.950 . S
H550 C562 0.950 . S
H551 C563 0.950 . S
C552 H544 0.950 . S
C552 C553 1.386 . S
C552 C554 1.391 . S
C553 C552 1.386 . S
C553 C557 1.393 . S
C554 H546 0.950 . S
C554 C552 1.391 . S
C554 C555 1.400 . S
C555 C554 1.400 . S
C555 C556 1.398 . S
C555 C561 1.491 . S
C556 H547 0.950 . S
C556 C555 1.398 . S
C556 C557 1.391 . S
C557 H545 0.950 . S
C557 C553 1.393 . S
C557 C556 1.391 . S
C558 H548 0.950 . S
C558 C559 1.386 . S
C558 C560 1.391 . S
C559 C558 1.386 . S
C559 C563 1.393 . S
C560 H549 0.950 . S
C560 C558 1.391 . S
C560 C561 1.400 . S
C561 C555 1.491 . S
C561 C560 1.400 . S
C561 C562 1.398 . S
C562 H550 0.950 . S
C562 C561 1.398 . S
C562 C563 1.391 . S
C563 H551 0.950 . S
C563 C559 1.393 . S
C563 C562 1.391 . S
H564 C572 0.950 . S
H565 C577 0.950 . S
H566 C574 0.950 . S
H567 C576 0.950 . S
H568 C578 0.950 . S
H569 C580 0.950 . S
H570 C582 0.950 . S
H571 C583 0.950 . S
C572 H564 0.950 . S
C572 C573 1.386 . S
C572 C574 1.391 . S
C573 C572 1.386 . S
C573 C577 1.393 . S
C574 H566 0.950 . S
C574 C572 1.391 . S
C574 C575 1.400 . S
C575 C574 1.400 . S
C575 C576 1.398 . S
C575 C581 1.491 . S
C576 H567 0.950 . S
C576 C575 1.398 . S
C576 C577 1.391 . S
C577 H565 0.950 . S
C577 C573 1.393 . S
C577 C576 1.391 . S
C578 H568 0.950 . S
C578 C579 1.386 . S
C578 C580 1.391 . S
C579 C578 1.386 . S
C579 C583 1.393 . S
C580 H569 0.950 . S
C580 C578 1.391 . S
C580 C581 1.400 . S
C581 C575 1.491 . S
C581 C580 1.400 . S
C581 C582 1.398 . S
C582 H570 0.950 . S
C582 C581 1.398 . S
C582 C583 1.391 . S
C583 H571 0.950 . S
C583 C579 1.393 . S
C583 C582 1.391 . S
H584 C592 0.950 . S
H585 C597 0.950 . S
H586 C594 0.950 . S
H587 C596 0.950 . S
H588 C598 0.950 . S
H589 C600 0.950 . S
H590 C602 0.950 . S
H591 C603 0.950 . S
C592 H584 0.950 . S
C592 C593 1.386 . S
C592 C594 1.391 . S
C593 C592 1.386 . S
C593 C597 1.393 . S
C594 H586 0.950 . S
C594 C592 1.391 . S
C594 C595 1.400 . S
C595 C594 1.400 . S
C595 C596 1.398 . S
C595 C601 1.491 . S
C596 H587 0.950 . S
C596 C595 1.398 . S
C596 C597 1.391 . S
C597 H585 0.950 . S
C597 C593 1.393 . S
C597 C596 1.391 . S
C598 H588 0.950 . S
C598 C599 1.386 . S
C598 C600 1.391 . S
C599 C598 1.386 . S
C599 C603 1.393 . S
C600 H589 0.950 . S
C600 C598 1.391 . S
C600 C601 1.400 . S
C601 C595 1.491 . S
C601 C600 1.400 . S
C601 C602 1.398 . S
C602 H590 0.950 . S
C602 C601 1.398 . S
C602 C603 1.391 . S
C603 H591 0.950 . S
C603 C599 1.393 . S
C603 C602 1.391 . S
H604 C612 0.950 . S
H605 C617 0.950 . S
H606 C614 0.950 . S
H607 C616 0.950 . S
H608 C618 0.950 . S
H609 C620 0.950 . S
H610 C622 0.950 . S
H611 C623 0.950 . S
C612 H604 0.950 . S
C612 C613 1.386 . S
C612 C614 1.391 . S
C613 C612 1.386 . S
C613 C617 1.393 . S
C614 H606 0.950 . S
C614 C612 1.391 . S
C614 C615 1.400 . S
C615 C614 1.400 . S
C615 C616 1.398 . S
C615 C621 1.491 . S
C616 H607 0.950 . S
C616 C615 1.398 . S
C616 C617 1.391 . S
C617 H605 0.950 . S
C617 C613 1.393 . S
C617 C616 1.391 . S
C618 H608 0.950 . S
C618 C619 1.386 . S
C618 C620 1.391 . S
C619 C618 1.386 . S
C619 C623 1.393 . S
C620 H609 0.950 . S
C620 C618 1.391 . S
C620 C621 1.400 . S
C621 C615 1.491 . S
C621 C620 1.400 . S
C621 C622 1.398 . S
C622 H610 0.950 . S
C622 C621 1.398 . S
C622 C623 1.391 . S
C623 H611 0.950 . S
C623 C619 1.393 . S
C623 C622 1.391 . S
H624 C632 0.950 . S
H625 C637 0.950 . S
H626 C634 0.950 . S
H627 C636 0.950 . S
H628 C638 0.950 . S
H629 C640 0.950 . S
H630 C642 0.950 . S
H631 C643 0.950 . S
C632 H624 0.950 . S
C632 C633 1.386 . S
C632 C634 1.391 . S
C633 C632 1.386 . S
C633 C637 1.393 . S
C634 H626 0.950 . S
C634 C632 1.391 . S
C634 C635 1.400 . S
C635 C634 1.400 . S
C635 C636 1.398 . S
C635 C641 1.491 . S
C636 H627 0.950 . S
C636 C635 1.398 . S
C636 C637 1.391 . S
C637 H625 0.950 . S
C637 C633 1.393 . S
C637 C636 1.391 . S
C638 H628 0.950 . S
C638 C639 1.386 . S
C638 C640 1.391 . S
C639 C638 1.386 . S
C639 C643 1.393 . S
C640 H629 0.950 . S
C640 C638 1.391 . S
C640 C641 1.400 . S
C641 C635 1.491 . S
C641 C640 1.400 . S
C641 C642 1.398 . S
C642 H630 0.950 . S
C642 C641 1.398 . S
C642 C643 1.391 . S
C643 H631 0.950 . S
C643 C639 1.393 . S
C643 C642 1.391 . S
H644 C652 0.950 . S
H645 C657 0.950 . S
H646 C654 0.950 . S
H647 C656 0.950 . S
H648 C658 0.950 . S
H649 C660 0.950 . S
H650 C662 0.950 . S
H651 C663 0.950 . S
C652 H644 0.950 . S
C652 C653 1.386 . S
C652 C654 1.391 . S
C653 C652 1.386 . S
C653 C657 1.393 . S
C654 H646 0.950 . S
C654 C652 1.391 . S
C654 C655 1.400 . S
C655 C654 1.400 . S
C655 C656 1.398 . S
C655 C661 1.491 . S
C656 H647 0.950 . S
C656 C655 1.398 . S
C656 C657 1.391 . S
C657 H645 0.950 . S
C657 C653 1.393 . S
C657 C656 1.391 . S
C658 H648 0.950 . S
C658 C659 1.386 . S
C658 C660 1.391 . S
C659 C658 1.386 . S
C659 C663 1.393 . S
C660 H649 0.950 . S
C660 C658 1.391 . S
C660 C661 1.400 . S
C661 C655 1.491 . S
C661 C660 1.400 . S
C661 C662 1.398 . S
C662 H650 0.950 . S
C662 C661 1.398 . S
C662 C663 1.391 . S
C663 H651 0.950 . S
C663 C659 1.393 . S
C663 C662 1.391 . S
H664 C672 0.950 . S
H665 C677 0.950 . S
H666 C674 0.950 . S
H667 C676 0.950 . S
H668 C678 0.950 . S
H669 C680 0.950 . S
H670 C682 0.950 . S
H671 C683 0.950 . S
C672 H664 0.950 . S
C672 C673 1.386 . S
C672 C674 1.391 . S
C673 C672 1.386 . S
C673 C677 1.393 . S
C674 H666 0.950 . S
C674 C672 1.391 . S
C674 C675 1.400 . S
C675 C674 1.400 . S
C675 C676 1.398 . S
C675 C681 1.491 . S
C676 H667 0.950 . S
C676 C675 1.398 . S
C676 C677 1.391 . S
C677 H665 0.950 . S
C677 C673 1.393 . S
C677 C676 1.391 . S
C678 H668 0.950 . S
C678 C679 1.386 . S
C678 C680 1.391 . S
C679 C678 1.386 . S
C679 C683 1.393 . S
C680 H669 0.950 . S
C680 C678 1.391 . S
C680 C681 1.400 . S
C681 C675 1.491 . S
C681 C680 1.400 . S
C681 C682 1.398 . S
C682 H670 0.950 . S
C682 C681 1.398 . S
C682 C683 1.391 . S
C683 H671 0.950 . S
C683 C679 1.393 . S
C683 C682 1.391 . S
H684 C692 0.950 . S
H685 C697 0.950 . S
H686 C694 0.950 . S
H687 C696 0.950 . S
H688 C698 0.950 . S
H689 C700 0.950 . S
H690 C702 0.950 . S
H691 C703 0.950 . S
C692 H684 0.950 . S
C692 C693 1.386 . S
C692 C694 1.391 . S
C693 C692 1.386 . S
C693 C697 1.393 . S
C694 H686 0.950 . S
C694 C692 1.391 . S
C694 C695 1.400 . S
C695 C694 1.400 . S
C695 C696 1.398 . S
C695 C701 1.491 . S
C696 H687 0.950 . S
C696 C695 1.398 . S
C696 C697 1.391 . S
C697 H685 0.950 . S
C697 C693 1.393 . S
C697 C696 1.391 . S
C698 H688 0.950 . S
C698 C699 1.386 . S
C698 C700 1.391 . S
C699 C698 1.386 . S
C699 C703 1.393 . S
C700 H689 0.950 . S
C700 C698 1.391 . S
C700 C701 1.400 . S
C701 C695 1.491 . S
C701 C700 1.400 . S
C701 C702 1.398 . S
C702 H690 0.950 . S
C702 C701 1.398 . S
C702 C703 1.391 . S
C703 H691 0.950 . S
C703 C699 1.393 . S
C703 C702 1.391 . S
H704 C712 0.950 . S
H705 C717 0.950 . S
H706 C714 0.950 . S
H707 C716 0.950 . S
H708 C718 0.950 . S
H709 C720 0.950 . S
H710 C722 0.950 . S
H711 C723 0.950 . S
C712 H704 0.950 . S
C712 C713 1.386 . S
C712 C714 1.391 . S
C713 C712 1.386 . S
C713 C717 1.393 . S
C714 H706 0.950 . S
C714 C712 1.391 . S
C714 C715 1.400 . S
C715 C714 1.400 . S
C715 C716 1.398 . S
C715 C721 1.491 1_554 S
C716 H707 0.950 . S
C716 C715 1.398 . S
C716 C717 1.391 . S
C717 H705 0.950 . S
C717 C713 1.393 . S
C717 C716 1.391 . S
C718 H708 0.950 . S
C718 C719 1.386 . S
C718 C720 1.391 . S
C719 C718 1.386 . S
C719 C723 1.393 . S
C720 H709 0.950 . S
C720 C718 1.391 . S
C720 C721 1.400 . S
C721 C715 1.491 1_556 S
C721 C720 1.400 . S
C721 C722 1.398 . S
C722 H710 0.950 . S
C722 C721 1.398 . S
C722 C723 1.391 . S
C723 H711 0.950 . S
C723 C719 1.393 . S
C723 C722 1.391 . S
H724 C732 0.950 . S
H725 C737 0.950 . S
H726 C734 0.950 . S
H727 C736 0.950 . S
H728 C738 0.950 . S
H729 C740 0.950 . S
H730 C742 0.950 . S
H731 C743 0.950 . S
C732 H724 0.950 . S
C732 C733 1.386 . S
C732 C734 1.391 . S
C733 C732 1.386 . S
C733 C737 1.393 . S
C734 H726 0.950 . S
C734 C732 1.391 . S
C734 C735 1.400 . S
C735 C734 1.400 . S
C735 C736 1.398 . S
C735 C741 1.491 . S
C736 H727 0.950 . S
C736 C735 1.398 . S
C736 C737 1.391 . S
C737 H725 0.950 . S
C737 C733 1.393 . S
C737 C736 1.391 . S
C738 H728 0.950 . S
C738 C739 1.386 . S
C738 C740 1.391 . S
C739 C738 1.386 . S
C739 C743 1.393 . S
C740 H729 0.950 . S
C740 C738 1.391 . S
C740 C741 1.400 . S
C741 C735 1.491 . S
C741 C740 1.400 . S
C741 C742 1.398 . S
C742 H730 0.950 . S
C742 C741 1.398 . S
C742 C743 1.391 . S
C743 H731 0.950 . S
C743 C739 1.393 . S
C743 C742 1.391 . S
H744 C752 0.950 . S
H745 C757 0.950 . S
H746 C754 0.950 . S
H747 C756 0.950 . S
H748 C758 0.950 . S
H749 C760 0.950 . S
H750 C762 0.950 . S
H751 C763 0.950 . S
C752 H744 0.950 . S
C752 C753 1.386 1_455 S
C752 C754 1.391 . S
C753 C752 1.386 1_655 S
C753 C757 1.393 . S
C754 H746 0.950 . S
C754 C752 1.391 . S
C754 C755 1.400 1_455 S
C755 C754 1.400 1_655 S
C755 C756 1.398 . S
C755 C761 1.491 1_554 S
C756 H747 0.950 . S
C756 C755 1.398 . S
C756 C757 1.391 . S
C757 H745 0.950 . S
C757 C753 1.393 . S
C757 C756 1.391 . S
C758 H748 0.950 . S
C758 C759 1.386 . S
C758 C760 1.391 . S
C759 C758 1.386 . S
C759 C763 1.393 1_655 S
C760 H749 0.950 . S
C760 C758 1.391 . S
C760 C761 1.400 . S
C761 C755 1.491 1_556 S
C761 C760 1.400 . S
C761 C762 1.398 1_655 S
C762 H750 0.950 . S
C762 C761 1.398 1_455 S
C762 C763 1.391 . S
C763 H751 0.950 . S
C763 C759 1.393 1_455 S
C763 C762 1.391 . S
H764 C772 0.950 . S
H765 C777 0.950 . S
H766 C774 0.950 . S
H767 C776 0.950 . S
H768 C778 0.950 . S
H769 C780 0.950 . S
H770 C782 0.949 1_545 S
H771 C783 0.956 . S
C772 H764 0.950 . S
C772 C773 1.386 . S
C772 C774 1.391 . S
C773 C772 1.386 . S
C773 C777 1.393 . S
C774 H766 0.950 . S
C774 C772 1.391 . S
C774 C775 1.400 . S
C775 C774 1.400 . S
C775 C776 1.398 . S
C775 C781 1.491 . S
C776 H767 0.950 . S
C776 C775 1.398 . S
C776 C777 1.391 . S
C777 H765 0.950 . S
C777 C773 1.393 . S
C777 C776 1.391 . S
C778 H768 0.950 . S
C778 C779 1.386 . S
C778 C780 1.391 . S
C779 C778 1.386 . S
C779 C783 1.393 . S
C780 H769 0.950 . S
C780 C778 1.391 . S
C780 C781 1.400 . S
C781 C775 1.491 . S
C781 C780 1.400 . S
C781 C782 1.398 . S
C782 H770 0.949 1_565 S
C782 C781 1.398 . S
C782 C783 1.391 . S
C783 H771 0.956 . S
C783 C779 1.393 . S
C783 C782 1.391 . S
H784 C792 0.950 . S
H785 C797 0.950 . S
H786 C794 0.950 . S
H787 C796 0.950 . S
H788 C798 0.950 . S
H789 C800 0.950 . S
H790 C802 0.950 . S
H791 C803 0.950 . S
C792 H784 0.950 . S
C792 C793 1.386 . S
C792 C794 1.391 . S
C793 C792 1.386 . S
C793 C797 1.393 . S
C794 H786 0.950 . S
C794 C792 1.391 . S
C794 C795 1.400 . S
C795 C794 1.400 . S
C795 C796 1.398 . S
C795 C801 1.491 1_556 S
C796 H787 0.950 . S
C796 C795 1.398 . S
C796 C797 1.391 . S
C797 H785 0.950 . S
C797 C793 1.393 . S
C797 C796 1.391 . S
C798 H788 0.950 . S
C798 C799 1.386 . S
C798 C800 1.391 . S
C799 C798 1.386 . S
C799 C803 1.393 . S
C800 H789 0.950 . S
C800 C798 1.391 . S
C800 C801 1.400 . S
C801 C795 1.491 1_554 S
C801 C800 1.400 . S
C801 C802 1.398 . S
C802 H790 0.950 . S
C802 C801 1.398 . S
C802 C803 1.391 . S
C803 H791 0.950 . S
C803 C799 1.393 . S
C803 C802 1.391 . S
H804 C812 0.950 . S
H805 C817 0.950 . S
H806 C814 0.950 . S
H807 C816 0.950 . S
H808 C818 0.950 . S
H809 C820 0.950 . S
H810 C822 0.950 . S
H811 C823 0.950 . S
C812 H804 0.950 . S
C812 C813 1.386 . S
C812 C814 1.391 . S
C813 C812 1.386 . S
C813 C817 1.393 . S
C814 H806 0.950 . S
C814 C812 1.391 . S
C814 C815 1.400 . S
C815 C814 1.400 . S
C815 C816 1.398 . S
C815 C821 1.491 . S
C816 H807 0.950 . S
C816 C815 1.398 . S
C816 C817 1.391 . S
C817 H805 0.950 . S
C817 C813 1.393 . S
C817 C816 1.391 . S
C818 H808 0.950 . S
C818 C819 1.386 . S
C818 C820 1.391 . S
C819 C818 1.386 . S
C819 C823 1.393 . S
C820 H809 0.950 . S
C820 C818 1.391 . S
C820 C821 1.400 . S
C821 C815 1.491 . S
C821 C820 1.400 . S
C821 C822 1.398 . S
C822 H810 0.950 . S
C822 C821 1.398 . S
C822 C823 1.391 . S
C823 H811 0.950 . S
C823 C819 1.393 . S
C823 C822 1.391 . S
H824 C832 0.950 . S
H825 C837 0.950 . S
H826 C834 0.950 . S
H827 C836 0.950 . S
H828 C838 0.950 . S
H829 C840 0.950 . S
H830 C842 0.950 . S
H831 C843 0.950 . S
C832 H824 0.950 . S
C832 C833 1.386 . S
C832 C834 1.391 . S
C833 C832 1.386 . S
C833 C837 1.393 1_455 S
C834 H826 0.950 . S
C834 C832 1.391 . S
C834 C835 1.400 . S
C835 C834 1.400 . S
C835 C836 1.398 1_455 S
C835 C841 1.491 1_554 S
C836 H827 0.950 . S
C836 C835 1.398 1_655 S
C836 C837 1.391 . S
C837 H825 0.950 . S
C837 C833 1.393 1_655 S
C837 C836 1.391 . S
C838 H828 0.950 . S
C838 C839 1.386 1_655 S
C838 C840 1.391 . S
C839 C838 1.386 1_455 S
C839 C843 1.393 . S
C840 H829 0.950 . S
C840 C838 1.391 . S
C840 C841 1.400 1_655 S
C841 C835 1.491 1_556 S
C841 C840 1.400 1_455 S
C841 C842 1.398 . S
C842 H830 0.950 . S
C842 C841 1.398 . S
C842 C843 1.391 . S
C843 H831 0.950 . S
C843 C839 1.393 . S
C843 C842 1.391 . S
H844 C852 0.950 . S
H845 C857 0.950 . S
H846 C854 0.958 . S
H847 C856 0.950 . S
H848 C858 0.950 . S
H849 C860 0.950 . S
H850 C862 0.950 1_565 S
H851 C863 0.950 1_565 S
C852 H844 0.950 . S
C852 C853 1.386 . S
C852 C854 1.391 . S
C853 C852 1.386 . S
C853 C857 1.393 . S
C854 H846 0.958 . S
C854 C852 1.391 . S
C854 C855 1.400 . S
C855 C854 1.400 . S
C855 C856 1.398 . S
C855 C861 1.491 . S
C856 H847 0.950 . S
C856 C855 1.398 . S
C856 C857 1.391 . S
C857 H845 0.950 . S
C857 C853 1.393 . S
C857 C856 1.391 . S
C858 H848 0.950 . S
C858 C859 1.386 . S
C858 C860 1.391 . S
C859 C858 1.386 . S
C859 C863 1.393 . S
C860 H849 0.950 . S
C860 C858 1.391 . S
C860 C861 1.400 . S
C861 C855 1.491 . S
C861 C860 1.400 . S
C861 C862 1.398 . S
C862 H850 0.950 1_545 S
C862 C861 1.398 . S
C862 C863 1.391 . S
C863 H851 0.950 1_545 S
C863 C859 1.393 . S
C863 C862 1.391 . S
C233 C11 1.303 . S
C239 C109 1.312 . S
C253 C25 1.308 . S
C259 C67 1.302 . S
C273 C39 1.315 . S
C279 C81 1.306 . S
C293 C53 1.315 . S
C299 C95 1.307 . S
C313 C123 1.309 . S
C319 C221 1.302 . S
C333 C179 1.303 . S
C339 C137 1.305 . S
C353 C151 1.313 . S
C359 C193 1.312 . S
C373 C165 1.314 . S
C379 C207 1.304 . S
C393 C5 1.452 . S
C399 C135 1.466 . S
C413 C19 1.437 . S
C419 C149 1.463 . S
C433 C163 1.468 . S
C439 C33 1.452 . S
C453 C47 1.446 . S
C459 C121 1.467 . S
C473 C61 1.454 . S
C479 C219 1.467 . S
C493 C177 1.468 . S
C499 C75 1.453 . S
C513 C191 1.466 . S
C519 C89 1.453 . S
C533 C205 1.468 . S
C539 C103 1.452 . S
C553 C23 1.464 . S
C559 C117 1.447 . S
C573 C37 1.465 . S
C579 C131 1.449 . S
C593 C145 1.452 . S
C599 C51 1.468 . S
C613 C9 1.463 . S
C619 C159 1.438 . S
C633 C173 1.437 . S
C639 C107 1.464 . S
C653 C187 1.446 . S
C659 C65 1.467 . S
C673 C79 1.467 . S
C679 C201 1.454 . S
C693 C93 1.463 . S
C699 C215 1.439 . S
C713 C0 1.575 . S
C719 C56 1.571 . S
C733 C70 1.565 . S
C739 C14 1.581 . S
C753 C28 1.566 . S
C759 C84 1.580 . S
C773 C98 1.565 . S
C779 C42 1.581 . S
C793 C112 1.579 . S
C799 C168 1.566 . S
C813 C182 1.569 . S
C819 C126 1.576 . S
C833 C196 1.576 . S
C839 C140 1.570 . S
C853 C210 1.565 . S
C859 C154 1.581 . S
