# Generated by pormake.
# Topology sxc, (6)-cn, num edge types: 1
# Building blocks:
#     Node 0, Type 0, BuildingBlock: PAMTOO_clean_sbu_0, # of connection points: 6
#     Node 1, Type 0, BuildingBlock: PAMTOO_clean_sbu_0, # of connection points: 6
#     Node 2, Type 0, BuildingBlock: PAMTOO_clean_sbu_0, # of connection points: 6
#     Edge 3, Type (0, 0), BuildingBlock: ZUJKAS_clean_linker_0, # of connection points: 2
#     Edge 4, Type (0, 0), BuildingBlock: ZUJKAS_clean_linker_0, # of connection points: 2
#     Edge 5, Type (0, 0), BuildingBlock: ZUJKAS_clean_linker_0, # of connection points: 2
#     Edge 6, Type (0, 0), BuildingBlock: ZUJKAS_clean_linker_0, # of connection points: 2
#     Edge 7, Type (0, 0), BuildingBlock: ZUJKAS_clean_linker_0, # of connection points: 2
#     Edge 8, Type (0, 0), BuildingBlock: ZUJKAS_clean_linker_0, # of connection points: 2
#     Edge 9, Type (0, 0), BuildingBlock: ZUJKAS_clean_linker_0, # of connection points: 2
#     Edge 10, Type (0, 0), BuildingBlock: ZUJKAS_clean_linker_0, # of connection points: 2
#     Edge 11, Type (0, 0), BuildingBlock: ZUJKAS_clean_linker_0, # of connection points: 2
# Relax obj value: 0.224
# Max RMSD: 0.106
# Mean RMSD: 0.086
data_MOF--net-sxc--node1-PAMTOO_clean_sbu_0--edge1-ZUJKAS_clean_linker_0
_symmetry_space_group_name_H-M    P1
_symmetry_Int_Tables_number       1
_symmetry_cell_setting            triclinic
loop_
_symmetry_equiv_pos_as_xyz
'x, y, z'
_cell_length_a     22.75282
_cell_length_b     20.642148
_cell_length_c     59.791731
_cell_angle_alpha  91.817498
_cell_angle_beta   98.289363
_cell_angle_gamma 100.39765
loop_
_atom_site_label
_atom_site_type_symbol
_atom_site_fract_x
_atom_site_fract_y
_atom_site_fract_z
_atom_type_partial_charge
Dy0 Dy 1.05678 0.05417 0.00395 0.0
Dy1 Dy 0.20286 0.08134 0.01126 0.0
C2 C 0.13205 0.07172 0.05356 0.0
O3 O 0.08039 0.16538 0.00137 0.0
O4 O 0.1826 0.18549 0.01402 0.0
O5 O 0.97238 1.01544 0.0154 0.0
O6 O 0.97273 0.06521 -0.01604 0.0
O7 O 0.17298 0.10043 0.97512 0.0
O8 O 0.08312 0.02893 0.97061 0.0
O9 O 0.17846 0.96933 0.00633 0.0
O10 O 0.0771 0.95077 0.00878 0.0
O11 O 0.28439 0.06097 0.00057 0.0
O12 O 0.28968 0.12799 0.02981 0.0
C13 C 0.13181 0.20736 0.00773 0.0
O14 O 0.08655 0.08824 0.04037 0.0
O15 O 0.17712 0.0542 0.04497 0.0
C16 C 0.89487 0.97352 -0.01443 0.0
C17 C 0.81487 0.85717 0.96757 0.0
C18 C 0.80565 0.89081 -0.01274 0.0
C19 C 0.84516 0.94854 -0.0039 0.0
C20 C 0.90339 0.94148 0.96553 0.0
C21 C 0.86345 0.88404 0.95652 0.0
C22 C 0.94018 0.029 -0.00313 0.0
C23 C 0.12715 0.06414 0.96189 0.0
C24 C 0.12745 0.92812 0.00756 0.0
C25 C 0.36427 0.15219 0.0064 0.0
C26 C 0.44922 0.24894 -0.00956 0.0
C27 C 0.39134 0.2284 0.97786 0.0
C28 C 0.34901 0.18064 -0.01415 0.0
C29 C 0.4223 0.17155 0.01877 0.0
C30 C 0.4645 0.21973 0.01088 0.0
C31 C 0.31937 0.10407 0.0154 0.0
H32 H 0.76957 0.87103 -0.00347 0.0
H33 H 0.83826 0.97228 0.01169 0.0
H34 H 0.94181 0.95968 0.95718 0.0
H35 H 0.87147 0.85992 0.9412 0.0
H36 H 0.37818 0.25078 0.96222 0.0
H37 H 0.30413 0.16667 0.97616 0.0
H38 H 0.43467 0.15007 0.03467 0.0
H39 H 0.50896 0.23452 0.02082 0.0
Dy40 Dy 0.16932 0.06217 0.34533 0.0
Dy41 Dy 1.02482 0.0312 0.33219 0.0
C42 C 0.10825 0.05521 0.29401 0.0
O43 O 0.14507 0.16303 0.33798 0.0
O44 O 1.04329 0.1427 0.33905 0.0
O45 O 0.25176 0.13458 0.3544 0.0
O46 O 0.25619 0.032 0.34873 0.0
O47 O 1.03831 1.01944 0.36965 0.0
O48 O 0.13826 0.06976 0.37895 0.0
O49 O 1.05143 0.92977 0.33106 0.0
O50 O 0.14726 0.95226 0.35088 0.0
O51 O 0.93331 0.0435 0.33419 0.0
O52 O 0.95057 0.97179 0.30986 0.0
C53 C 0.09417 0.18497 0.33867 0.0
O54 O 0.15055 0.03625 0.30804 0.0
O55 O 1.06087 0.07039 0.30143 0.0
C56 C 0.32078 0.11066 0.33123 0.0
C57 C 0.37313 0.15349 0.29299 0.0
C58 C 0.33703 0.0905 0.29252 0.0
C59 C 0.31106 0.0694 0.31136 0.0
C60 C 0.35783 0.17313 0.33195 0.0
C61 C 0.38387 0.19439 0.313 0.0
C62 C 0.28525 0.09272 0.34964 0.0
C63 C 0.08563 0.04467 0.38478 0.0
C64 C 0.09949 0.90896 0.34127 0.0
C65 C 0.8769 0.0327 0.29746 0.0
C66 C 0.81477 0.08329 0.25985 0.0
C67 C 0.86743 0.12148 0.27226 0.0
C68 C 0.89852 0.09619 0.29084 0.0
C69 C 0.82518 0.99396 0.28486 0.0
C70 C 0.79432 1.01902 0.26617 0.0
C71 C 0.91131 1.00457 0.31613 0.0
H72 H 0.32907 0.05708 0.2776 0.0
H73 H 0.28212 1.02121 0.31008 0.0
H74 H 0.36513 0.20624 0.34693 0.0
H75 H 0.41149 0.24323 0.31388 0.0
H76 H 0.88413 0.1711 0.26774 0.0
H77 H 0.9394 0.1262 0.30003 0.0
H78 H 0.80863 0.94441 0.2895 0.0
H79 H 0.75327 0.98892 0.25714 0.0
Dy80 Dy 0.07792 0.15201 0.67263 0.0
Dy81 Dy 1.05117 1.00083 0.6694 0.0
C82 C 1.05404 0.07575 0.62475 0.0
O83 O 0.96819 0.13229 0.66957 0.0
O84 O 0.95072 1.02139 0.67218 0.0
O85 O 1.06314 0.24313 0.658 0.0
O86 O 0.12238 0.24491 0.68997 0.0
O87 O 0.08886 1.02502 0.70595 0.0
O88 O 1.06676 0.12748 0.70807 0.0
O89 O 0.15924 1.02028 0.66785 0.0
O90 O 0.18033 0.13148 0.6749 0.0
O91 O 1.02013 0.90864 0.6837 0.0
O92 O 1.04878 0.90868 0.65071 0.0
C93 C 0.92667 0.07687 0.67086 0.0
O94 O 0.09018 0.12334 0.63746 0.0
O95 O 1.02157 0.02921 0.63436 0.0
C96 C 0.15097 0.32505 0.66492 0.0
C97 C 0.24963 0.41073 0.65195 0.0
C98 C 0.23753 0.34331 0.64496 0.0
C99 C 0.18867 0.30085 0.65141 0.0
C100 C 0.16173 0.39237 0.67148 0.0
C101 C 0.2107 0.435 0.66503 0.0
C102 C 0.10331 0.27922 0.6734 0.0
C103 C 0.08141 0.07597 0.71803 0.0
C104 C 0.20252 0.07586 0.67137 0.0
C105 C 0.96354 0.83093 0.65615 0.0
C106 C 0.84732 0.75299 0.64427 0.0
C107 C 0.89642 0.72457 0.65371 0.0
C108 C 0.95405 0.7634 0.65971 0.0
C109 C 0.91545 0.85892 0.64585 0.0
C110 C 0.85786 0.82041 0.64002 0.0
C111 C 1.02131 0.87373 0.66527 0.0
H112 H 0.26713 0.32278 0.63521 0.0
H113 H 0.18124 0.24877 0.64637 0.0
H114 H 0.13306 0.41167 0.68198 0.0
H115 H 0.21854 0.48677 0.6705 0.0
H116 H 0.89006 0.67261 0.65689 0.0
H117 H 0.99072 0.74113 0.66772 0.0
H118 H 0.92196 0.91118 0.64309 0.0
H119 H 0.82114 0.84427 0.63312 0.0
H120 H 1.03484 0.27301 0.00019 0.0
H121 H 1.03495 0.39189 0.00018 0.0
H122 H 0.22921 0.43189 0.01556 0.0
H123 H 0.22939 0.31298 0.01552 0.0
H124 H 0.07227 0.49413 0.03241 0.0
H125 H 0.20765 0.54854 0.96321 0.0
H126 H 0.17658 0.4653 0.96922 0.0
H127 H 0.2447 0.50952 -0.01386 0.0
C128 C 0.07787 0.30676 0.0035 0.0
C129 C 0.13215 0.28173 0.00775 0.0
C130 C 0.07785 0.37556 0.00353 0.0
C131 C 0.13209 0.42282 0.00748 0.0
C132 C 0.18638 0.39793 0.0119 0.0
H133 H 0.22419 0.86187 0.01021 0.0
H134 H 0.22414 0.74318 0.01068 0.0
C135 C 0.18642 0.32908 0.01204 0.0
C136 C 0.13152 0.49723 0.00737 0.0
H137 H 0.18694 0.64068 -0.0168 0.0
C138 C 0.09726 0.52582 0.02151 0.0
C139 C 0.16401 0.54047 -0.00661 0.0
C140 C 0.19989 0.51452 0.97696 0.0
C141 C 0.09572 0.59466 0.02247 0.0
C142 C 0.12778 0.63797 0.00832 0.0
C143 C 0.16202 0.6092 -0.00584 0.0
C144 C 0.12714 0.71254 0.00808 0.0
C145 C 1.06125 0.62031 0.03947 0.0
C146 C 0.07288 0.73788 0.00613 0.0
C147 C 0.07289 0.80675 0.0061 0.0
C148 C 0.1271 0.85375 0.00761 0.0
C149 C 0.18123 0.82838 0.00907 0.0
C150 C 0.18122 0.75958 0.0093 0.0
H151 H 1.05698 0.58734 0.05372 0.0
H152 H 0.08354 0.67055 0.04655 0.0
H153 H 1.01488 0.62226 0.03107 0.0
H154 H 1.02985 0.70433 0.00432 0.0
H155 H 1.02994 0.82309 0.00465 0.0
H156 H 0.32405 0.13435 0.24806 0.0
H157 H 0.37937 0.14588 0.21562 0.0
H158 H 0.54299 0.22985 0.26069 0.0
H159 H 0.48862 0.21815 0.29287 0.0
H160 H 0.53376 0.27989 0.21461 0.0
H161 H 0.48658 1.00504 0.21504 0.0
H162 H 0.42602 0.05058 0.2101 0.0
H163 H 0.46813 0.05234 0.23801 0.0
C164 C 0.37159 0.15655 0.2509 0.0
C165 C 0.40236 0.17393 0.27305 0.0
C166 C 0.4029 0.16358 0.23236 0.0
C167 C 0.46534 0.18788 0.23581 0.0
C168 C 0.49464 0.21133 0.25762 0.0
H169 H 0.78096 0.20191 0.26305 0.0
H170 H 0.69631 0.23564 0.24048 0.0
C171 C 0.46351 0.2044 0.27608 0.0
C172 C 0.50362 0.1764 0.21866 0.0
H173 H 0.58238 0.0561 0.20921 0.0
C174 C 0.54332 0.23067 0.2124 0.0
C175 C 0.51469 0.11208 0.21466 0.0
C176 C 0.47171 0.05141 0.21968 0.0
C177 C 0.59911 0.22302 0.20634 0.0
C178 C 0.61591 0.16036 0.20763 0.0
C179 C 0.57095 0.10486 0.2091 0.0
C180 C 0.67958 0.15356 0.21529 0.0
C181 C 0.64174 0.28308 0.20086 0.0
C182 C 0.70096 0.09733 0.20849 0.0
C183 C 0.74878 0.07667 0.22205 0.0
C184 C 0.7767 0.11278 0.2423 0.0
C185 C 0.76051 0.17325 0.24748 0.0
C186 C 0.71216 0.19314 0.23424 0.0
H187 H 0.61712 0.31174 0.18855 0.0
H188 H 0.65875 0.31577 0.21641 0.0
H189 H 0.68062 0.26985 0.19364 0.0
H190 H 0.67702 0.06598 0.19393 0.0
H191 H 0.76117 0.03025 0.21753 0.0
H192 H 0.79583 0.66085 0.67104 0.0
H193 H 0.69086 0.60351 0.66647 0.0
H194 H 0.65064 0.70169 0.60511 0.0
H195 H 0.75627 0.75819 0.60913 0.0
H196 H 0.57151 0.71007 0.63875 0.0
H197 H 0.59887 0.45361 0.61898 0.0
H198 H 0.64998 0.49503 0.64302 0.0
H199 H 0.65503 0.52485 0.61532 0.0
C200 C 0.76522 0.6691 0.65623 0.0
C201 C 0.78468 0.71403 0.6404 0.0
C202 C 0.70513 0.63647 0.65372 0.0
C203 C 0.66331 0.64807 0.63537 0.0
C204 C 0.68244 0.69209 0.61936 0.0
H205 H 0.29684 0.41455 0.61224 0.0
H206 H 0.39401 0.4775 0.60546 0.0
C207 C 0.74271 0.72449 0.62176 0.0
C208 C 0.59897 0.6168 0.63374 0.0
H209 H 0.50504 0.46691 0.63014 0.0
C210 C 0.55667 0.65697 0.63657 0.0
C211 C 0.57988 0.54767 0.63067 0.0
C212 C 0.62314 0.50266 0.62662 0.0
C213 C 0.49599 0.62945 0.6374 0.0
C214 C 0.4776 0.56006 0.63554 0.0
C215 C 0.51939 0.52012 0.6317 0.0
C216 C 0.41621 0.52744 0.63878 0.0
C217 C 0.45229 0.67476 0.64048 0.0
C218 C 0.39648 0.53508 0.65971 0.0
C219 C 0.34126 0.49898 0.66368 0.0
C220 C 0.30492 0.45423 0.64683 0.0
C221 C 0.32412 0.44808 0.62565 0.0
C222 C 0.37941 0.48419 0.6217 0.0
H223 H 0.46847 0.72499 0.63504 0.0
H224 H 0.40682 0.65493 0.63079 0.0
H225 H 0.44785 0.67933 0.65868 0.0
H226 H 0.42486 0.56707 0.67329 0.0
H227 H 0.32836 0.50402 0.6803 0.0
H228 H 0.85185 0.18156 0.67147 0.0
H229 H 0.74321 0.17995 0.67167 0.0
H230 H 0.71155 0.96879 0.66915 0.0
H231 H 0.81944 0.97089 0.66978 0.0
H232 H 0.63259 0.16939 0.65814 0.0
H233 H 0.57769 0.93618 0.6989 0.0
H234 H 0.65493 0.97618 0.69941 0.0
H235 H 0.61368 0.92729 0.67453 0.0
C236 C 0.823 0.13365 0.67119 0.0
C237 C 0.85205 0.07644 0.67085 0.0
C238 C 0.75719 0.13259 0.67127 0.0
C239 C 0.71021 0.07426 0.67111 0.0
C240 C 0.73962 1.01713 0.67034 0.0
H241 H 0.27549 0.9711 0.66692 0.0
H242 H 0.3842 0.97233 0.66688 0.0
C243 C 0.80531 1.01818 0.67038 0.0
C244 C 0.63504 0.07394 0.67129 0.0
H245 H 0.49591 0.98263 0.68392 0.0
C246 C 0.60444 0.12739 0.66406 0.0
C247 C 0.58987 1.02216 0.6787 0.0
C248 C 0.61024 0.96232 0.68853 0.0
C249 C 0.53881 0.12993 0.66351 0.0
C250 C 0.49373 0.07806 0.67084 0.0
C251 C 0.5242 1.0246 0.67803 0.0
C252 C 0.4187 0.07787 0.67102 0.0
C253 C 0.51824 0.19002 0.65396 0.0
C254 C 0.39036 0.13505 0.67368 0.0
C255 C 0.32475 0.13425 0.67378 0.0
C256 C 0.2771 0.07619 0.67131 0.0
C257 C 0.30512 1.01888 0.66887 0.0
C258 C 0.3709 1.01966 0.66888 0.0
H259 H 0.55003 0.21573 0.64322 0.0
H260 H 0.47279 0.17669 0.64358 0.0
H261 H 0.51615 0.2252 0.66811 0.0
H262 H 0.4194 0.18296 0.6763 0.0
H263 H 0.31136 0.1815 0.67597 0.0
H264 H 0.69336 0.81679 0.96773 0.0
H265 H 0.63693 0.70386 0.96295 0.0
H266 H 0.79244 0.63628 0.9439 0.0
H267 H 0.85078 0.74835 0.95029 0.0
H268 H 0.60378 0.60578 0.93041 0.0
H269 H 0.76858 0.53695 -0.00044 0.0
H270 H 0.76985 0.62118 -0.00764 0.0
H271 H 0.79985 0.56615 0.97505 0.0
C272 C 0.71568 0.77798 0.96252 0.0
C273 C 0.77712 0.79153 0.96001 0.0
C274 C 0.68311 0.71351 0.95953 0.0
C275 C 0.71105 0.66146 0.95368 0.0
C276 C 0.77056 0.67554 0.94903 0.0
H277 H 0.48018 0.26531 0.94811 0.0
H278 H 0.54822 0.35919 0.93581 0.0
C279 C 0.80359 0.73993 0.9524 0.0
C280 C 0.67943 0.59265 0.95479 0.0
H281 H 0.68398 0.45663 -0.0145 0.0
C282 C 0.62151 0.57266 0.94222 0.0
C283 C 0.70271 0.5499 0.97038 0.0
C284 C 0.76339 0.56959 -0.01474 0.0
C285 C 0.5849 0.5125 0.94564 0.0
C286 C 0.60772 0.47061 0.96162 0.0
C287 C 0.66684 0.48895 0.97324 0.0
C288 C 0.56886 0.41183 0.96872 0.0
C289 C 0.52097 0.49635 0.93318 0.0
C290 C 0.55962 0.40943 -0.0086 0.0
C291 C 0.52176 0.35578 -0.00151 0.0
C292 C 0.49214 0.30357 0.98299 0.0
C293 C 0.50208 0.30537 0.96032 0.0
C294 C 0.54064 0.35894 0.95327 0.0
H295 H 0.50682 0.53974 0.92495 0.0
H296 H 0.51773 0.45683 0.91981 0.0
H297 H 0.48875 0.47823 0.94489 0.0
H298 H 0.5809 0.44982 0.00359 0.0
H299 H 0.51434 0.35601 0.01598 0.0
H300 H 0.1917 0.29033 0.34484 0.0
H301 H 0.19197 0.40927 0.34592 0.0
H302 H 0.99733 0.36974 0.33271 0.0
H303 H 0.99697 0.25102 0.33259 0.0
H304 H 0.16358 0.49567 0.31903 0.0
H305 H 1.00984 0.50205 0.38208 0.0
H306 H 1.03823 0.42867 0.37574 0.0
H307 H 0.9737 0.44869 0.35792 0.0
C308 C 0.1487 0.30662 0.34233 0.0
C309 C 0.09428 0.25939 0.33887 0.0
C310 C 0.14887 0.37559 0.3429 0.0
C311 C 0.09467 0.40104 0.34001 0.0
C312 C 1.04028 0.35365 0.33596 0.0
H313 H 1.00454 0.80318 0.32826 0.0
H314 H 1.00464 0.68425 0.3281 0.0
C315 C 1.04007 0.28469 0.33564 0.0
C316 C 0.09539 0.47613 0.3407 0.0
H317 H 1.0311 0.59952 0.36213 0.0
C318 C 0.13471 0.51783 0.32869 0.0
C319 C 1.05835 0.50768 0.35319 0.0
C320 C 1.01817 0.4696 0.36815 0.0
C321 C 0.13701 0.5874 0.32839 0.0
C322 C 0.09935 0.61856 0.34058 0.0
C323 C 1.06006 0.57711 0.35259 0.0
C324 C 0.09975 0.69329 0.34099 0.0
C325 C 0.17903 0.62686 0.31437 0.0
C326 C 0.15274 0.74061 0.34861 0.0
C327 C 0.15268 0.80956 0.34893 0.0
C328 C 0.09965 0.8346 0.34153 0.0
C329 C 1.04661 0.78714 0.33407 0.0
C330 C 1.04657 0.71826 0.33399 0.0
H331 H 0.1927 0.59499 0.30148 0.0
H332 H 0.1576 0.6653 0.30563 0.0
H333 H 0.22056 0.65182 0.32564 0.0
H334 H 0.19455 0.72429 0.3546 0.0
H335 H 0.19465 0.84339 0.35489 0.0
H336 H 0.20079 0.0288 0.2724 0.0
H337 H 0.20819 0.0332 0.23205 0.0
H338 H 1.03582 0.09515 0.21971 0.0
H339 H 1.02771 0.09013 0.25997 0.0
H340 H 1.04294 0.99649 0.18949 0.0
H341 H 0.24753 0.19184 0.19515 0.0
H342 H 0.2595 0.12196 0.21106 0.0
H343 H 0.20866 0.17289 0.21908 0.0
C344 C 0.16459 0.04377 0.26115 0.0
C345 C 0.11371 0.05927 0.26953 0.0
C346 C 0.16907 0.04664 0.23804 0.0
C347 C 0.12296 0.06543 0.22278 0.0
C348 C 0.07214 0.08081 0.23111 0.0
H349 H 1.04646 0.10546 0.07734 0.0
H350 H 1.04507 0.10359 0.1181 0.0
C351 C 1.06762 0.07798 0.25419 0.0
C352 C 0.12627 0.06663 0.19802 0.0
H353 H 0.21129 0.13559 0.15905 0.0
C354 C 0.07963 0.0272 0.18285 0.0
C355 C 0.17434 0.10628 0.18927 0.0
C356 C 0.22506 0.15115 0.20448 0.0
C357 C 0.07998 1.02578 0.15933 0.0
C358 C 0.12768 0.06593 0.15057 0.0
C359 C 0.17462 0.10495 0.16572 0.0
C360 C 0.12936 0.06849 0.12575 0.0
C361 C 1.02983 0.98011 0.1441 0.0
C362 C 0.17814 0.05138 0.11644 0.0
C363 C 0.17931 0.05282 0.09307 0.0
C364 C 0.13184 0.07182 0.07848 0.0
C365 C 0.08362 0.09013 0.08795 0.0
C366 C 0.08253 0.08869 0.1113 0.0
H367 H 1.00693 0.93999 0.15355 0.0
H368 H 0.99547 1.00864 0.13685 0.0
H369 H 1.04727 0.95755 0.12991 0.0
H370 H 0.21501 0.03604 0.12724 0.0
H371 H 0.21729 0.03859 0.08644 0.0
H372 H 0.99104 0.98257 0.40496 0.0
H373 H 0.98124 0.98695 0.44529 0.0
H374 H 0.15591 0.11425 0.46045 0.0
H375 H 0.16643 0.11 0.42034 0.0
H376 H 1.06845 0.95291 0.48382 0.0
H377 H 1.03489 0.21274 0.48924 0.0
H378 H 1.02136 0.16395 0.46274 0.0
H379 H 0.09731 0.19795 0.47571 0.0
C380 C 1.02742 1.01154 0.41684 0.0
C381 C 0.07951 0.04601 0.40929 0.0
C382 C 1.02173 1.0139 0.43991 0.0
C383 C 1.06756 0.05148 0.45585 0.0
C384 C 0.11968 0.08555 0.44842 0.0
H385 H 0.12796 0.15402 0.60009 0.0
H386 H 0.12895 0.14581 0.55928 0.0
C387 C 0.12568 0.08276 0.42544 0.0
C388 C 1.06148 0.05469 0.48031 0.0
H389 H 1.04821 0.16031 0.52371 0.0
C390 C 1.06358 0.99806 0.49256 0.0
C391 C 1.05554 0.11374 0.49168 0.0
C392 C 1.05167 0.1756 0.47922 0.0
C393 C 1.06161 0.99935 0.51601 0.0
C394 C 1.05556 0.05851 0.52746 0.0
C395 C 1.05278 0.11493 0.51506 0.0
C396 C 1.05372 0.06357 0.55234 0.0
C397 C 1.06836 0.9379 0.52839 0.0
C398 C 1.01041 1.02094 0.56218 0.0
C399 C 1.01011 1.02511 0.58563 0.0
C400 C 1.0525 0.07279 0.59975 0.0
C401 C 0.09466 0.11664 0.58978 0.0
C402 C 0.09528 0.11202 0.56638 0.0
H403 H 0.08991 0.90415 0.51878 0.0
H404 H 0.09586 0.95028 0.5454 0.0
H405 H 1.02297 0.91087 0.53058 0.0
H406 H 0.97668 0.98437 0.55173 0.0
H407 H 0.97665 0.99091 0.59268 0.0
H408 H 0.09879 0.97253 0.74438 0.0
H409 H 0.10689 0.97002 0.7856 0.0
H410 H 0.08973 0.17449 0.79 0.0
H411 H 0.08023 0.17704 0.74879 0.0
H412 H 0.18804 0.03859 0.81962 0.0
H413 H 0.96073 0.09235 0.82574 0.0
H414 H 0.98304 0.07113 0.7991 0.0
H415 H 1.00593 0.15385 0.8117 0.0
C416 C 0.09665 1.01701 0.75409 0.0
C417 C 0.08839 0.07487 0.74318 0.0
C418 C 0.10133 1.01549 0.7777 0.0
C419 C 0.0978 0.07169 0.79097 0.0
C420 C 0.091 0.12994 0.78016 0.0
H421 H 0.20825 0.13386 0.93754 0.0
H422 H 0.20208 0.13494 0.89637 0.0
C423 C 0.08597 0.13143 0.75655 0.0
C424 C 0.10186 0.06943 0.81608 0.0
H425 H 1.0274 0.09519 0.86039 0.0
C426 C 0.15282 0.05081 0.82852 0.0
C427 C 1.05554 0.0844 0.82775 0.0
C428 C 0.99795 0.10091 0.81539 0.0
C429 C 0.15917 0.04775 0.85222 0.0
C430 C 0.11385 0.06499 0.86395 0.0
C431 C 1.06248 0.08263 0.85148 0.0
C432 C 0.11822 0.06401 0.8891 0.0
C433 C 0.2138 1.02468 0.8644 0.0
C434 C 0.07248 1.02503 0.89886 0.0
C435 C 0.07559 1.02473 0.92243 0.0
C436 C 0.12448 0.06367 0.93684 0.0
C437 C 0.17015 0.1029 0.92702 0.0
C438 C 0.1669 0.10327 0.90343 0.0
H439 H 0.23484 0.99615 0.85273 0.0
H440 H 0.2481 0.06824 0.87168 0.0
H441 H 0.20173 0.99341 0.87843 0.0
H442 H 1.0343 0.99455 0.88821 0.0
H443 H 1.03948 0.99405 0.92934 0.0
loop_
_geom_bond_atom_site_label_1
_geom_bond_atom_site_label_2
_geom_bond_distance
_geom_bond_site_symmetry_2
_ccdc_geom_bond_type
Dy0 O3 2.307 1_565 S
Dy0 O5 2.395 1_556 S
Dy0 O6 2.379 . S
Dy0 O8 2.339 . S
Dy0 O10 2.298 1_655 S
Dy0 O14 2.275 1_666 S
Dy0 C22 2.743 . S
Dy1 O4 2.298 . S
Dy1 O7 2.275 1_554 S
Dy1 O9 2.307 1_545 S
Dy1 O11 2.395 1_554 S
Dy1 O12 2.379 . S
Dy1 O15 2.339 . S
Dy1 C31 2.738 . S
C2 O14 1.254 . S
C2 O15 1.257 . S
O3 Dy0 2.307 1_545 S
O3 C13 1.266 1_656 S
O4 Dy1 2.298 . S
O4 C13 1.236 . S
O5 Dy0 2.395 1_554 S
O5 C22 1.235 1_554 S
O6 Dy0 2.379 . S
O6 C22 1.275 . S
O7 Dy1 2.275 1_556 S
O7 C23 1.254 . S
O8 Dy0 2.339 . S
O8 C23 1.257 1_665 S
O9 Dy1 2.307 1_565 S
O9 C24 1.266 . S
O10 Dy0 2.298 1_455 S
O10 C24 1.236 1_556 S
O11 Dy1 2.395 1_556 S
O11 C31 1.255 1_556 S
O12 Dy1 2.379 . S
O12 C31 1.249 . S
C13 O3 1.266 1_454 S
C13 O4 1.236 . S
O14 Dy0 2.275 1_444 S
O14 C2 1.254 . S
O15 Dy1 2.339 . S
O15 C2 1.257 . S
C16 C19 1.369 . S
C16 C20 1.308 1_554 S
C16 C22 1.506 1_554 S
C17 C18 1.304 . S
C17 C21 1.323 1_554 S
C18 C17 1.304 . S
C18 C19 1.371 . S
C18 H32 0.930 . S
C19 C16 1.369 . S
C19 C18 1.371 . S
C19 H33 0.931 . S
C20 C16 1.308 1_556 S
C20 C21 1.433 . S
C20 H34 0.931 . S
C21 C17 1.323 1_556 S
C21 C20 1.433 . S
C21 H35 0.933 . S
C22 Dy0 2.743 . S
C22 O5 1.235 1_556 S
C22 O6 1.275 . S
C22 C16 1.506 1_556 S
C23 O7 1.254 . S
C23 O8 1.257 1_445 S
C24 O9 1.266 . S
C24 O10 1.236 1_554 S
C25 C28 1.344 1_554 S
C25 C29 1.328 . S
C25 C31 1.516 . S
C26 C27 1.304 1_554 S
C26 C30 1.323 . S
C27 C26 1.304 1_556 S
C27 C28 1.371 . S
C27 H36 0.930 . S
C28 C25 1.344 1_556 S
C28 C27 1.371 . S
C28 H37 0.931 . S
C29 C25 1.328 . S
C29 C30 1.433 . S
C29 H38 0.931 . S
C30 C26 1.323 . S
C30 C29 1.433 . S
C30 H39 0.933 . S
C31 Dy1 2.738 . S
C31 O11 1.255 1_554 S
C31 O12 1.249 . S
C31 C25 1.516 . S
H32 C18 0.930 . S
H33 C19 0.931 . S
H34 C20 0.931 . S
H35 C21 0.933 . S
H36 C27 0.930 . S
H37 C28 0.931 . S
H38 C29 0.931 . S
H39 C30 0.933 . S
Dy40 O43 2.307 . S
Dy40 O45 2.395 . S
Dy40 O46 2.379 . S
Dy40 O48 2.339 . S
Dy40 O50 2.298 1_545 S
Dy40 O54 2.275 . S
Dy40 C62 2.738 . S
Dy41 O44 2.298 1_565 S
Dy41 O47 2.275 1_565 S
Dy41 O49 2.307 . S
Dy41 O51 2.395 1_565 S
Dy41 O52 2.379 1_565 S
Dy41 O55 2.339 1_565 S
Dy41 C71 2.738 1_565 S
C42 O54 1.254 . S
C42 O55 1.257 1_455 S
O43 Dy40 2.307 . S
O43 C53 1.266 . S
O44 Dy41 2.298 1_545 S
O44 C53 1.236 1_655 S
O45 Dy40 2.395 . S
O45 C62 1.255 . S
O46 Dy40 2.379 . S
O46 C62 1.249 . S
O47 Dy41 2.275 1_545 S
O47 C63 1.254 1_655 S
O48 Dy40 2.339 . S
O48 C63 1.257 . S
O49 Dy41 2.307 . S
O49 C64 1.266 1_655 S
O50 Dy40 2.298 1_565 S
O50 C64 1.236 . S
O51 Dy41 2.395 1_545 S
O51 C71 1.255 . S
O52 Dy41 2.379 1_545 S
O52 C71 1.249 . S
C53 O43 1.266 . S
C53 O44 1.236 1_455 S
O54 Dy40 2.275 . S
O54 C42 1.254 . S
O55 Dy41 2.339 1_545 S
O55 C42 1.257 1_655 S
C56 C59 1.344 1_545 S
C56 C60 1.328 . S
C56 C62 1.516 . S
C57 C58 1.304 . S
C57 C61 1.323 1_565 S
C58 C57 1.304 . S
C58 C59 1.371 . S
C58 H72 0.930 . S
C59 C56 1.344 1_565 S
C59 C58 1.371 . S
C59 H73 0.931 . S
C60 C56 1.328 . S
C60 C61 1.433 . S
C60 H74 0.931 . S
C61 C57 1.323 1_545 S
C61 C60 1.433 . S
C61 H75 0.933 . S
C62 Dy40 2.738 . S
C62 O45 1.255 . S
C62 O46 1.249 . S
C62 C56 1.516 . S
C63 O47 1.254 1_455 S
C63 O48 1.257 . S
C64 O49 1.266 1_455 S
C64 O50 1.236 . S
C65 C68 1.344 . S
C65 C69 1.328 . S
C65 C71 1.516 . S
C66 C67 1.304 . S
C66 C70 1.323 . S
C67 C66 1.304 . S
C67 C68 1.371 . S
C67 H76 0.930 . S
C68 C65 1.344 . S
C68 C67 1.371 . S
C68 H77 0.931 . S
C69 C65 1.328 . S
C69 C70 1.433 . S
C69 H78 0.931 . S
C70 C66 1.323 . S
C70 C69 1.433 . S
C70 H79 0.933 . S
C71 Dy41 2.738 1_545 S
C71 O51 1.255 . S
C71 O52 1.249 . S
C71 C65 1.516 . S
H72 C58 0.930 . S
H73 C59 0.931 . S
H74 C60 0.931 . S
H75 C61 0.933 . S
H76 C67 0.930 . S
H77 C68 0.931 . S
H78 C69 0.931 . S
H79 C70 0.933 . S
Dy80 O83 2.307 1_455 S
Dy80 O85 2.395 . S
Dy80 O86 2.379 . S
Dy80 O88 2.339 . S
Dy80 O90 2.298 . S
Dy80 O94 2.275 . S
Dy80 C102 2.738 . S
Dy81 O84 2.298 1_565 S
Dy81 O87 2.275 1_665 S
Dy81 O89 2.307 1_665 S
Dy81 O91 2.395 . S
Dy81 O92 2.379 . S
Dy81 O95 2.339 1_565 S
Dy81 C111 2.738 . S
C82 O94 1.254 . S
C82 O95 1.257 1_455 S
O83 Dy80 2.307 1_655 S
O83 C93 1.266 . S
O84 Dy81 2.298 1_545 S
O84 C93 1.236 . S
O85 Dy80 2.395 . S
O85 C102 1.255 . S
O86 Dy80 2.379 . S
O86 C102 1.249 . S
O87 Dy81 2.275 1_445 S
O87 C103 1.254 . S
O88 Dy80 2.339 . S
O88 C103 1.257 . S
O89 Dy81 2.307 1_445 S
O89 C104 1.266 . S
O90 Dy80 2.298 . S
O90 C104 1.236 . S
O91 Dy81 2.395 . S
O91 C111 1.255 . S
O92 Dy81 2.379 . S
O92 C111 1.249 . S
C93 O83 1.266 . S
C93 O84 1.236 . S
O94 Dy80 2.275 . S
O94 C82 1.254 . S
O95 Dy81 2.339 1_545 S
O95 C82 1.257 1_655 S
C96 C99 1.344 . S
C96 C100 1.328 . S
C96 C102 1.516 . S
C97 C98 1.304 . S
C97 C101 1.323 . S
C98 C97 1.304 . S
C98 C99 1.371 . S
C98 H112 0.930 . S
C99 C96 1.344 . S
C99 C98 1.371 . S
C99 H113 0.931 . S
C100 C96 1.328 . S
C100 C101 1.433 . S
C100 H114 0.931 . S
C101 C97 1.323 . S
C101 C100 1.433 . S
C101 H115 0.933 . S
C102 Dy80 2.738 . S
C102 O85 1.255 . S
C102 O86 1.249 . S
C102 C96 1.516 . S
C103 O87 1.254 . S
C103 O88 1.257 . S
C104 O89 1.266 . S
C104 O90 1.236 . S
C105 C108 1.344 . S
C105 C109 1.328 . S
C105 C111 1.516 . S
C106 C107 1.304 . S
C106 C110 1.323 . S
C107 C106 1.304 . S
C107 C108 1.371 . S
C107 H116 0.930 . S
C108 C105 1.344 . S
C108 C107 1.371 . S
C108 H117 0.931 . S
C109 C105 1.328 . S
C109 C110 1.433 . S
C109 H118 0.931 . S
C110 C106 1.323 . S
C110 C109 1.433 . S
C110 H119 0.933 . S
C111 Dy81 2.738 . S
C111 O91 1.255 . S
C111 O92 1.249 . S
C111 C105 1.516 . S
H112 C98 0.930 . S
H113 C99 0.931 . S
H114 C100 0.931 . S
H115 C101 0.933 . S
H116 C107 0.930 . S
H117 C108 0.931 . S
H118 C109 0.931 . S
H119 C110 0.933 . S
H120 C128 0.929 . S
H121 C130 0.930 . S
H122 C132 0.930 . S
H123 C135 0.929 . S
H124 C138 0.930 . S
H125 C140 0.960 . S
H126 C140 0.960 . S
H127 C140 0.960 . S
C128 H120 0.929 . S
C128 C129 1.377 . S
C128 C130 1.384 . S
C129 C128 1.377 . S
C129 C135 1.390 1_554 S
C130 H121 0.930 . S
C130 C128 1.384 . S
C130 C131 1.372 . S
C131 C130 1.372 . S
C131 C132 1.400 1_554 S
C131 C136 1.490 . S
C132 H122 0.930 . S
C132 C131 1.400 1_556 S
C132 C135 1.386 . S
H133 C149 0.930 . S
H134 C150 0.931 . S
C135 H123 0.929 . S
C135 C129 1.390 1_556 S
C135 C132 1.386 . S
C136 C131 1.490 . S
C136 C138 1.395 . S
C136 C139 1.403 1_554 S
H137 C143 0.930 1_655 S
C138 H124 0.930 . S
C138 C136 1.395 . S
C138 C141 1.403 . S
C139 C136 1.403 1_556 S
C139 C140 1.524 1_455 S
C139 C143 1.400 . S
C140 H125 0.960 . S
C140 H126 0.960 . S
C140 H127 0.960 . S
C140 C139 1.524 1_655 S
C141 C138 1.403 . S
C141 C142 1.392 . S
C141 C145 1.495 . S
C142 C141 1.392 . S
C142 C143 1.385 1_554 S
C142 C144 1.478 . S
C143 H137 0.930 1_455 S
C143 C139 1.400 . S
C143 C142 1.385 1_556 S
C144 C142 1.478 . S
C144 C146 1.381 . S
C144 C150 1.383 1_554 S
C145 C141 1.495 . S
C145 H151 0.959 . S
C145 H152 0.961 . S
C145 H153 0.960 . S
C146 C144 1.381 . S
C146 C147 1.394 . S
C146 H154 0.930 . S
C147 C146 1.394 . S
C147 C148 1.383 . S
C147 H155 0.929 . S
C148 C147 1.383 . S
C148 C149 1.377 1_554 S
C149 H133 0.930 . S
C149 C148 1.377 1_556 S
C149 C150 1.379 . S
C150 H134 0.931 . S
C150 C144 1.383 1_556 S
C150 C149 1.379 . S
H151 C145 0.959 . S
H152 C145 0.961 . S
H153 C145 0.960 . S
H154 C146 0.930 . S
H155 C147 0.929 . S
H156 C164 0.929 . S
H157 C166 0.930 . S
H158 C168 0.930 . S
H159 C171 0.929 . S
H160 C174 0.930 . S
H161 C176 0.960 . S
H162 C176 0.960 . S
H163 C176 0.960 . S
C164 H156 0.929 . S
C164 C165 1.377 . S
C164 C166 1.384 . S
C165 C164 1.377 . S
C165 C171 1.390 . S
C166 H157 0.930 . S
C166 C164 1.384 . S
C166 C167 1.372 . S
C167 C166 1.372 . S
C167 C168 1.400 . S
C167 C172 1.490 1_565 S
C168 H158 0.930 . S
C168 C167 1.400 . S
C168 C171 1.386 . S
H169 C185 0.930 . S
H170 C186 0.931 . S
C171 H159 0.929 . S
C171 C165 1.390 . S
C171 C168 1.386 . S
C172 C167 1.490 1_545 S
C172 C174 1.395 . S
C172 C175 1.403 1_545 S
H173 C179 0.930 1_565 S
C174 H160 0.930 . S
C174 C172 1.395 . S
C174 C177 1.403 . S
C175 C172 1.403 1_565 S
C175 C176 1.524 . S
C175 C179 1.400 1_565 S
C176 H161 0.960 . S
C176 H162 0.960 . S
C176 H163 0.960 . S
C176 C175 1.524 . S
C177 C174 1.403 . S
C177 C178 1.392 . S
C177 C181 1.495 . S
C178 C177 1.392 . S
C178 C179 1.385 . S
C178 C180 1.478 . S
C179 H173 0.930 1_545 S
C179 C175 1.400 1_545 S
C179 C178 1.385 . S
C180 C178 1.478 . S
C180 C182 1.381 . S
C180 C186 1.383 . S
C181 C177 1.495 . S
C181 H187 0.959 . S
C181 H188 0.961 . S
C181 H189 0.960 . S
C182 C180 1.381 . S
C182 C183 1.394 . S
C182 H190 0.930 . S
C183 C182 1.394 . S
C183 C184 1.383 . S
C183 H191 0.929 . S
C184 C183 1.383 . S
C184 C185 1.377 . S
C185 H169 0.930 . S
C185 C184 1.377 . S
C185 C186 1.379 . S
C186 H170 0.931 . S
C186 C180 1.383 . S
C186 C185 1.379 . S
H187 C181 0.959 . S
H188 C181 0.961 . S
H189 C181 0.960 . S
H190 C182 0.930 . S
H191 C183 0.929 . S
H192 C200 0.929 . S
H193 C202 0.930 . S
H194 C204 0.930 . S
H195 C207 0.929 . S
H196 C210 0.930 . S
H197 C212 0.960 . S
H198 C212 0.960 . S
H199 C212 0.960 . S
C200 H192 0.929 . S
C200 C201 1.377 . S
C200 C202 1.384 . S
C201 C200 1.377 . S
C201 C207 1.390 . S
C202 H193 0.930 . S
C202 C200 1.384 . S
C202 C203 1.372 . S
C203 C202 1.372 . S
C203 C204 1.400 . S
C203 C208 1.490 . S
C204 H194 0.930 . S
C204 C203 1.400 . S
C204 C207 1.386 . S
H205 C221 0.930 . S
H206 C222 0.931 . S
C207 H195 0.929 . S
C207 C201 1.390 . S
C207 C204 1.386 . S
C208 C203 1.490 . S
C208 C210 1.395 . S
C208 C211 1.403 . S
H209 C215 0.930 . S
C210 H196 0.930 . S
C210 C208 1.395 . S
C210 C213 1.403 . S
C211 C208 1.403 . S
C211 C212 1.524 . S
C211 C215 1.400 . S
C212 H197 0.960 . S
C212 H198 0.960 . S
C212 H199 0.960 . S
C212 C211 1.524 . S
C213 C210 1.403 . S
C213 C214 1.392 . S
C213 C217 1.495 . S
C214 C213 1.392 . S
C214 C215 1.385 . S
C214 C216 1.478 . S
C215 H209 0.930 . S
C215 C211 1.400 . S
C215 C214 1.385 . S
C216 C214 1.478 . S
C216 C218 1.381 . S
C216 C222 1.383 . S
C217 C213 1.495 . S
C217 H223 0.959 . S
C217 H224 0.961 . S
C217 H225 0.960 . S
C218 C216 1.381 . S
C218 C219 1.394 . S
C218 H226 0.930 . S
C219 C218 1.394 . S
C219 C220 1.383 . S
C219 H227 0.929 . S
C220 C219 1.383 . S
C220 C221 1.377 . S
C221 H205 0.930 . S
C221 C220 1.377 . S
C221 C222 1.379 . S
C222 H206 0.931 . S
C222 C216 1.383 . S
C222 C221 1.379 . S
H223 C217 0.959 . S
H224 C217 0.961 . S
H225 C217 0.960 . S
H226 C218 0.930 . S
H227 C219 0.929 . S
H228 C236 0.929 . S
H229 C238 0.930 . S
H230 C240 0.930 . S
H231 C243 0.929 . S
H232 C246 0.930 . S
H233 C248 0.960 . S
H234 C248 0.960 . S
H235 C248 0.960 . S
C236 H228 0.929 . S
C236 C237 1.377 . S
C236 C238 1.384 . S
C237 C236 1.377 . S
C237 C243 1.390 . S
C238 H229 0.930 . S
C238 C236 1.384 . S
C238 C239 1.372 . S
C239 C238 1.372 . S
C239 C240 1.400 . S
C239 C244 1.490 . S
C240 H230 0.930 . S
C240 C239 1.400 . S
C240 C243 1.386 . S
H241 C257 0.930 1_565 S
H242 C258 0.931 1_565 S
C243 H231 0.929 . S
C243 C237 1.390 . S
C243 C240 1.386 . S
C244 C239 1.490 . S
C244 C246 1.395 . S
C244 C247 1.403 . S
H245 C251 0.930 . S
C246 H232 0.930 . S
C246 C244 1.395 . S
C246 C249 1.403 . S
C247 C244 1.403 . S
C247 C248 1.524 . S
C247 C251 1.400 . S
C248 H233 0.960 . S
C248 H234 0.960 . S
C248 H235 0.960 . S
C248 C247 1.524 . S
C249 C246 1.403 . S
C249 C250 1.392 . S
C249 C253 1.495 . S
C250 C249 1.392 . S
C250 C251 1.385 . S
C250 C252 1.478 . S
C251 H245 0.930 . S
C251 C247 1.400 . S
C251 C250 1.385 . S
C252 C250 1.478 . S
C252 C254 1.381 . S
C252 C258 1.383 . S
C253 C249 1.495 . S
C253 H259 0.959 . S
C253 H260 0.961 . S
C253 H261 0.960 . S
C254 C252 1.381 . S
C254 C255 1.394 . S
C254 H262 0.930 . S
C255 C254 1.394 . S
C255 C256 1.383 . S
C255 H263 0.929 . S
C256 C255 1.383 . S
C256 C257 1.377 . S
C257 H241 0.930 1_545 S
C257 C256 1.377 . S
C257 C258 1.379 . S
C258 H242 0.931 1_545 S
C258 C252 1.383 . S
C258 C257 1.379 . S
H259 C253 0.959 . S
H260 C253 0.961 . S
H261 C253 0.960 . S
H262 C254 0.930 . S
H263 C255 0.929 . S
H264 C272 0.929 . S
H265 C274 0.930 . S
H266 C276 0.930 . S
H267 C279 0.929 . S
H268 C282 0.930 . S
H269 C284 0.960 . S
H270 C284 0.960 . S
H271 C284 0.960 . S
C272 H264 0.929 . S
C272 C273 1.377 . S
C272 C274 1.384 . S
C273 C272 1.377 . S
C273 C279 1.390 1_554 S
C274 H265 0.930 . S
C274 C272 1.384 . S
C274 C275 1.372 . S
C275 C274 1.372 . S
C275 C276 1.400 1_554 S
C275 C280 1.490 . S
C276 H266 0.930 . S
C276 C275 1.400 1_556 S
C276 C279 1.386 . S
H277 C293 0.930 . S
H278 C294 0.931 . S
C279 H267 0.929 . S
C279 C273 1.390 1_556 S
C279 C276 1.386 . S
C280 C275 1.490 . S
C280 C282 1.395 1_554 S
C280 C283 1.403 . S
H281 C287 0.930 . S
C282 H268 0.930 . S
C282 C280 1.395 1_556 S
C282 C285 1.403 . S
C283 C280 1.403 . S
C283 C284 1.524 . S
C283 C287 1.400 . S
C284 H269 0.960 . S
C284 H270 0.960 . S
C284 H271 0.960 . S
C284 C283 1.524 . S
C285 C282 1.403 . S
C285 C286 1.392 1_556 S
C285 C289 1.495 . S
C286 C285 1.392 1_554 S
C286 C287 1.385 . S
C286 C288 1.478 . S
C287 H281 0.930 . S
C287 C283 1.400 . S
C287 C286 1.385 . S
C288 C286 1.478 . S
C288 C290 1.381 . S
C288 C294 1.383 1_554 S
C289 C285 1.495 . S
C289 H295 0.959 . S
C289 H296 0.961 . S
C289 H297 0.960 . S
C290 C288 1.381 . S
C290 C291 1.394 . S
C290 H298 0.930 . S
C291 C290 1.394 . S
C291 C292 1.383 . S
C291 H299 0.929 . S
C292 C291 1.383 . S
C292 C293 1.377 1_554 S
C293 H277 0.930 . S
C293 C292 1.377 1_556 S
C293 C294 1.379 . S
C294 H278 0.931 . S
C294 C288 1.383 1_556 S
C294 C293 1.379 . S
H295 C289 0.959 . S
H296 C289 0.961 . S
H297 C289 0.960 . S
H298 C290 0.930 . S
H299 C291 0.929 . S
H300 C308 0.929 . S
H301 C310 0.930 . S
H302 C312 0.930 . S
H303 C315 0.929 . S
H304 C318 0.930 . S
H305 C320 0.960 . S
H306 C320 0.960 . S
H307 C320 0.960 . S
C308 H300 0.929 . S
C308 C309 1.377 . S
C308 C310 1.384 . S
C309 C308 1.377 . S
C309 C315 1.390 1_455 S
C310 H301 0.930 . S
C310 C308 1.384 . S
C310 C311 1.372 . S
C311 C310 1.372 . S
C311 C312 1.400 1_455 S
C311 C316 1.490 . S
C312 H302 0.930 . S
C312 C311 1.400 1_655 S
C312 C315 1.386 . S
H313 C329 0.930 . S
H314 C330 0.935 . S
C315 H303 0.929 . S
C315 C309 1.390 1_655 S
C315 C312 1.386 . S
C316 C311 1.490 . S
C316 C318 1.395 . S
C316 C319 1.403 1_455 S
H317 C323 0.930 . S
C318 H304 0.930 . S
C318 C316 1.395 . S
C318 C321 1.403 . S
C319 C316 1.403 1_655 S
C319 C320 1.524 . S
C319 C323 1.400 . S
C320 H305 0.960 . S
C320 H306 0.960 . S
C320 H307 0.960 . S
C320 C319 1.524 . S
C321 C318 1.403 . S
C321 C322 1.392 . S
C321 C325 1.495 . S
C322 C321 1.392 . S
C322 C323 1.385 1_455 S
C322 C324 1.478 . S
C323 H317 0.930 . S
C323 C319 1.400 . S
C323 C322 1.385 1_655 S
C324 C322 1.478 . S
C324 C326 1.381 . S
C324 C330 1.375 1_455 S
C325 C321 1.495 . S
C325 H331 0.959 . S
C325 H332 0.961 . S
C325 H333 0.960 . S
C326 C324 1.381 . S
C326 C327 1.394 . S
C326 H334 0.930 . S
C327 C326 1.394 . S
C327 C328 1.383 . S
C327 H335 0.929 . S
C328 C327 1.383 . S
C328 C329 1.377 1_455 S
C329 H313 0.930 . S
C329 C328 1.377 1_655 S
C329 C330 1.383 . S
C330 H314 0.935 . S
C330 C324 1.375 1_655 S
C330 C329 1.383 . S
H331 C325 0.959 . S
H332 C325 0.961 . S
H333 C325 0.960 . S
H334 C326 0.930 . S
H335 C327 0.929 . S
H336 C344 0.929 . S
H337 C346 0.930 . S
H338 C348 0.930 . S
H339 C351 0.929 . S
H340 C354 0.930 . S
H341 C356 0.960 . S
H342 C356 0.960 . S
H343 C356 0.960 . S
C344 H336 0.929 . S
C344 C345 1.377 1_565 S
C344 C346 1.384 . S
C345 C344 1.377 1_545 S
C345 C351 1.390 . S
C346 H337 0.930 . S
C346 C344 1.384 . S
C346 C347 1.372 1_565 S
C347 C346 1.372 1_545 S
C347 C348 1.400 . S
C347 C352 1.490 . S
C348 H338 0.930 . S
C348 C347 1.400 . S
C348 C351 1.386 . S
H349 C365 0.930 . S
H350 C366 0.931 . S
C351 H339 0.929 . S
C351 C345 1.390 . S
C351 C348 1.386 . S
C352 C347 1.490 . S
C352 C354 1.395 1_445 S
C352 C355 1.403 . S
H353 C359 0.930 . S
C354 H340 0.930 . S
C354 C352 1.395 1_665 S
C354 C357 1.403 . S
C355 C352 1.403 . S
C355 C356 1.524 . S
C355 C359 1.400 . S
C356 H341 0.960 . S
C356 H342 0.960 . S
C356 H343 0.960 . S
C356 C355 1.524 . S
C357 C354 1.403 . S
C357 C358 1.392 1_665 S
C357 C361 1.495 . S
C358 C357 1.392 1_445 S
C358 C359 1.385 . S
C358 C360 1.478 . S
C359 H353 0.930 . S
C359 C355 1.400 . S
C359 C358 1.385 . S
C360 C358 1.478 . S
C360 C362 1.381 1_545 S
C360 C366 1.383 . S
C361 C357 1.495 . S
C361 H367 0.959 . S
C361 H368 0.961 . S
C361 H369 0.960 . S
C362 C360 1.381 1_565 S
C362 C363 1.394 . S
C362 H370 0.930 . S
C363 C362 1.394 . S
C363 C364 1.383 1_565 S
C363 H371 0.929 . S
C364 C363 1.383 1_545 S
C364 C365 1.377 . S
C365 H349 0.930 . S
C365 C364 1.377 . S
C365 C366 1.379 . S
C366 H350 0.931 . S
C366 C360 1.383 . S
C366 C365 1.379 . S
H367 C361 0.959 . S
H368 C361 0.961 . S
H369 C361 0.960 . S
H370 C362 0.930 . S
H371 C363 0.929 . S
H372 C380 0.929 . S
H373 C382 0.930 . S
H374 C384 0.930 . S
H375 C387 0.929 . S
H376 C390 0.930 1_565 S
H377 C392 0.960 . S
H378 C392 0.960 . S
H379 C392 0.960 . S
C380 H372 0.929 . S
C380 C381 1.377 1_655 S
C380 C382 1.384 . S
C381 C380 1.377 1_455 S
C381 C387 1.390 . S
C382 H373 0.930 . S
C382 C380 1.384 . S
C382 C383 1.372 1_655 S
C383 C382 1.372 1_455 S
C383 C384 1.400 . S
C383 C388 1.490 . S
C384 H374 0.930 . S
C384 C383 1.400 . S
C384 C387 1.386 . S
H385 C401 0.930 . S
H386 C402 0.931 . S
C387 H375 0.929 . S
C387 C381 1.390 . S
C387 C384 1.386 . S
C388 C383 1.490 . S
C388 C390 1.395 1_455 S
C388 C391 1.403 . S
H389 C395 0.930 . S
C390 H376 0.930 1_545 S
C390 C388 1.395 1_655 S
C390 C393 1.403 . S
C391 C388 1.403 . S
C391 C392 1.524 . S
C391 C395 1.400 . S
C392 H377 0.960 . S
C392 H378 0.960 . S
C392 H379 0.960 . S
C392 C391 1.524 . S
C393 C390 1.403 . S
C393 C394 1.392 1_655 S
C393 C397 1.495 1_545 S
C394 C393 1.392 1_455 S
C394 C395 1.385 . S
C394 C396 1.478 . S
C395 H389 0.930 . S
C395 C391 1.400 . S
C395 C394 1.385 . S
C396 C394 1.478 . S
C396 C398 1.381 1_455 S
C396 C402 1.383 . S
C397 C393 1.495 1_565 S
C397 H403 0.959 . S
C397 H404 0.961 . S
C397 H405 0.960 . S
C398 C396 1.381 1_655 S
C398 C399 1.394 . S
C398 H406 0.930 . S
C399 C398 1.394 . S
C399 C400 1.383 1_655 S
C399 H407 0.929 . S
C400 C399 1.383 1_455 S
C400 C401 1.377 . S
C401 H385 0.930 . S
C401 C400 1.377 . S
C401 C402 1.379 . S
C402 H386 0.931 . S
C402 C396 1.383 . S
C402 C401 1.379 . S
H403 C397 0.959 . S
H404 C397 0.961 . S
H405 C397 0.960 . S
H406 C398 0.930 . S
H407 C399 0.929 . S
H408 C416 0.929 . S
H409 C418 0.930 . S
H410 C420 0.930 . S
H411 C423 0.929 . S
H412 C426 0.930 1_565 S
H413 C428 0.960 . S
H414 C428 0.960 . S
H415 C428 0.960 . S
C416 H408 0.929 . S
C416 C417 1.377 1_655 S
C416 C418 1.384 . S
C417 C416 1.377 1_455 S
C417 C423 1.390 . S
C418 H409 0.930 . S
C418 C416 1.384 . S
C418 C419 1.372 1_655 S
C419 C418 1.372 1_455 S
C419 C420 1.400 . S
C419 C424 1.490 . S
C420 H410 0.930 . S
C420 C419 1.400 . S
C420 C423 1.386 . S
H421 C437 0.930 . S
H422 C438 0.931 . S
C423 H411 0.929 . S
C423 C417 1.390 . S
C423 C420 1.386 . S
C424 C419 1.490 . S
C424 C426 1.395 1_455 S
C424 C427 1.403 . S
H425 C431 0.930 . S
C426 H412 0.930 1_545 S
C426 C424 1.395 1_655 S
C426 C429 1.403 1_545 S
C427 C424 1.403 . S
C427 C428 1.524 . S
C427 C431 1.400 . S
C428 H413 0.960 . S
C428 H414 0.960 . S
C428 H415 0.960 . S
C428 C427 1.524 . S
C429 C426 1.403 1_565 S
C429 C430 1.392 1_665 S
C429 C433 1.495 . S
C430 C429 1.392 1_445 S
C430 C431 1.385 . S
C430 C432 1.478 . S
C431 H425 0.930 . S
C431 C427 1.400 . S
C431 C430 1.385 . S
C432 C430 1.478 . S
C432 C434 1.381 1_455 S
C432 C438 1.383 . S
C433 C429 1.495 . S
C433 H439 0.959 . S
C433 H440 0.961 . S
C433 H441 0.960 . S
C434 C432 1.381 1_655 S
C434 C435 1.394 . S
C434 H442 0.930 . S
C435 C434 1.394 . S
C435 C436 1.383 1_655 S
C435 H443 0.929 . S
C436 C435 1.383 1_455 S
C436 C437 1.377 . S
C437 H421 0.930 . S
C437 C436 1.377 . S
C437 C438 1.379 . S
C438 H422 0.931 . S
C438 C432 1.383 . S
C438 C437 1.379 . S
H439 C433 0.959 . S
H440 C433 0.961 . S
H441 C433 0.960 . S
H442 C434 0.930 . S
H443 C435 0.929 . S
C129 C13 2.818 . S
C148 C24 2.817 . S
C165 C57 1.148 . S
C184 C66 1.180 . S
C201 C106 0.599 . S
C220 C97 0.643 . S
C237 C93 4.758 . S
C256 C104 4.753 . S
C273 C17 0.403 . S
C292 C26 0.381 . S
C309 C53 2.845 . S
C328 C64 2.845 . S
C345 C42 1.498 . S
C364 C2 1.508 . S
C381 C63 1.489 . S
C400 C82 1.446 . S
C417 C103 1.500 . S
C436 C23 1.473 . S
