# Generated by pormake.
# Topology zff, (5)-cn, num edge types: 1
# Building blocks:
#     Node 0, Type 0, BuildingBlock: BEQFEK_clean_sbu_0, # of connection points: 5
#     Node 1, Type 0, BuildingBlock: BEQFEK_clean_sbu_0, # of connection points: 5
#     Node 2, Type 0, BuildingBlock: BEQFEK_clean_sbu_0, # of connection points: 5
#     Node 3, Type 0, BuildingBlock: BEQFEK_clean_sbu_0, # of connection points: 5
#     Node 4, Type 0, BuildingBlock: BEQFEK_clean_sbu_0, # of connection points: 5
#     Node 5, Type 0, BuildingBlock: BEQFEK_clean_sbu_0, # of connection points: 5
#     Node 6, Type 0, BuildingBlock: BEQFEK_clean_sbu_0, # of connection points: 5
#     Node 7, Type 0, BuildingBlock: BEQFEK_clean_sbu_0, # of connection points: 5
#     Node 8, Type 0, BuildingBlock: BEQFEK_clean_sbu_0, # of connection points: 5
#     Node 9, Type 0, BuildingBlock: BEQFEK_clean_sbu_0, # of connection points: 5
#     Node 10, Type 0, BuildingBlock: BEQFEK_clean_sbu_0, # of connection points: 5
#     Node 11, Type 0, BuildingBlock: BEQFEK_clean_sbu_0, # of connection points: 5
#     Node 12, Type 0, BuildingBlock: BEQFEK_clean_sbu_0, # of connection points: 5
#     Node 13, Type 0, BuildingBlock: BEQFEK_clean_sbu_0, # of connection points: 5
#     Node 14, Type 0, BuildingBlock: BEQFEK_clean_sbu_0, # of connection points: 5
#     Node 15, Type 0, BuildingBlock: BEQFEK_clean_sbu_0, # of connection points: 5
#     Edge 16, Type (0, 0), BuildingBlock: XIVTED_clean_linker_0, # of connection points: 2
#     Edge 17, Type (0, 0), BuildingBlock: XIVTED_clean_linker_0, # of connection points: 2
#     Edge 18, Type (0, 0), BuildingBlock: XIVTED_clean_linker_0, # of connection points: 2
#     Edge 19, Type (0, 0), BuildingBlock: XIVTED_clean_linker_0, # of connection points: 2
#     Edge 20, Type (0, 0), BuildingBlock: XIVTED_clean_linker_0, # of connection points: 2
#     Edge 21, Type (0, 0), BuildingBlock: XIVTED_clean_linker_0, # of connection points: 2
#     Edge 22, Type (0, 0), BuildingBlock: XIVTED_clean_linker_0, # of connection points: 2
#     Edge 23, Type (0, 0), BuildingBlock: XIVTED_clean_linker_0, # of connection points: 2
#     Edge 24, Type (0, 0), BuildingBlock: XIVTED_clean_linker_0, # of connection points: 2
#     Edge 25, Type (0, 0), BuildingBlock: XIVTED_clean_linker_0, # of connection points: 2
#     Edge 26, Type (0, 0), BuildingBlock: XIVTED_clean_linker_0, # of connection points: 2
#     Edge 27, Type (0, 0), BuildingBlock: XIVTED_clean_linker_0, # of connection points: 2
#     Edge 28, Type (0, 0), BuildingBlock: XIVTED_clean_linker_0, # of connection points: 2
#     Edge 29, Type (0, 0), BuildingBlock: XIVTED_clean_linker_0, # of connection points: 2
#     Edge 30, Type (0, 0), BuildingBlock: XIVTED_clean_linker_0, # of connection points: 2
#     Edge 31, Type (0, 0), BuildingBlock: XIVTED_clean_linker_0, # of connection points: 2
#     Edge 32, Type (0, 0), BuildingBlock: XIVTED_clean_linker_0, # of connection points: 2
#     Edge 33, Type (0, 0), BuildingBlock: XIVTED_clean_linker_0, # of connection points: 2
#     Edge 34, Type (0, 0), BuildingBlock: XIVTED_clean_linker_0, # of connection points: 2
#     Edge 35, Type (0, 0), BuildingBlock: XIVTED_clean_linker_0, # of connection points: 2
#     Edge 36, Type (0, 0), BuildingBlock: XIVTED_clean_linker_0, # of connection points: 2
#     Edge 37, Type (0, 0), BuildingBlock: XIVTED_clean_linker_0, # of connection points: 2
#     Edge 38, Type (0, 0), BuildingBlock: XIVTED_clean_linker_0, # of connection points: 2
#     Edge 39, Type (0, 0), BuildingBlock: XIVTED_clean_linker_0, # of connection points: 2
#     Edge 40, Type (0, 0), BuildingBlock: XIVTED_clean_linker_0, # of connection points: 2
#     Edge 41, Type (0, 0), BuildingBlock: XIVTED_clean_linker_0, # of connection points: 2
#     Edge 42, Type (0, 0), BuildingBlock: XIVTED_clean_linker_0, # of connection points: 2
#     Edge 43, Type (0, 0), BuildingBlock: XIVTED_clean_linker_0, # of connection points: 2
#     Edge 44, Type (0, 0), BuildingBlock: XIVTED_clean_linker_0, # of connection points: 2
#     Edge 45, Type (0, 0), BuildingBlock: XIVTED_clean_linker_0, # of connection points: 2
#     Edge 46, Type (0, 0), BuildingBlock: XIVTED_clean_linker_0, # of connection points: 2
#     Edge 47, Type (0, 0), BuildingBlock: XIVTED_clean_linker_0, # of connection points: 2
#     Edge 48, Type (0, 0), BuildingBlock: XIVTED_clean_linker_0, # of connection points: 2
#     Edge 49, Type (0, 0), BuildingBlock: XIVTED_clean_linker_0, # of connection points: 2
#     Edge 50, Type (0, 0), BuildingBlock: XIVTED_clean_linker_0, # of connection points: 2
#     Edge 51, Type (0, 0), BuildingBlock: XIVTED_clean_linker_0, # of connection points: 2
#     Edge 52, Type (0, 0), BuildingBlock: XIVTED_clean_linker_0, # of connection points: 2
#     Edge 53, Type (0, 0), BuildingBlock: XIVTED_clean_linker_0, # of connection points: 2
#     Edge 54, Type (0, 0), BuildingBlock: XIVTED_clean_linker_0, # of connection points: 2
#     Edge 55, Type (0, 0), BuildingBlock: XIVTED_clean_linker_0, # of connection points: 2
# Relax obj value: 0.062
# Max RMSD: 0.101
# Mean RMSD: 0.101
data_MOF--net-zff--node1-BEQFEK_clean_sbu_0--edge1-XIVTED_clean_linker_0
_symmetry_space_group_name_H-M    P1
_symmetry_Int_Tables_number       1
_symmetry_cell_setting            triclinic
loop_
_symmetry_equiv_pos_as_xyz
'x, y, z'
_cell_length_a     37.320964
_cell_length_b     37.315715
_cell_length_c     73.658476
_cell_angle_alpha  90.076599
_cell_angle_beta   90.067498
_cell_angle_gamma 90.000316
loop_
_atom_site_label
_atom_site_type_symbol
_atom_site_fract_x
_atom_site_fract_y
_atom_site_fract_z
_atom_type_partial_charge
Co0 Co 0.04377 0.26799 0.40847 0.0
Co1 Co 0.04616 0.27467 0.36573 0.0
C2 C 0.0958 0.22616 0.38713 0.0
O3 O 0.08346 0.23524 0.40259 0.0
O4 O 0.08332 0.23923 0.37244 0.0
C5 C 0.03683 0.24705 0.44609 0.0
O6 O 0.04733 0.21542 0.44032 0.0
C7 C 0.08038 0.29799 0.33167 0.0
C8 C 0.03613 0.29161 0.31199 0.0
C9 C 0.07159 0.30237 0.31342 0.0
N10 N 0.05135 0.28566 0.3405 0.0
N11 N 0.02505 0.28181 0.32864 0.0
C12 C 0.116 0.30362 0.34058 0.0
H13 H 0.11786 0.28792 0.35331 0.0
H14 H 0.11914 0.33235 0.3441 0.0
H15 H 0.13803 0.29586 0.33125 0.0
C16 C 0.05025 0.3458 0.40557 0.0
N17 N 0.05118 0.31317 0.3979 0.0
N18 N 0.05024 0.3165 0.38012 0.0
C19 C 0.04763 0.3515 0.37591 0.0
C20 C 0.04768 0.37118 0.39193 0.0
C21 C 0.0485 0.35222 0.42561 0.0
H22 H 0.06824 0.33482 0.43262 0.0
H23 H 0.05414 0.38067 0.42897 0.0
H24 H 0.02136 0.34513 0.4306 0.0
O25 O -0.00155 0.24785 0.39938 0.0
O26 O -0.00165 0.25318 0.36937 0.0
H27 H 0.02022 0.34598 0.3504 0.0
H28 H 0.02533 0.39169 0.35785 0.0
C29 C 0.03845 0.36505 0.35733 0.0
H30 H 0.06333 0.36743 0.34922 0.0
H31 H -0.00052 0.27255 0.33191 0.0
O32 O 0.03561 0.27306 0.435 0.0
C33 C 0.98316 0.24377 0.38407 0.0
Co34 Co 0.71782 0.04333 0.40448 0.0
Co35 Co 0.71518 0.04717 0.36171 0.0
C36 C 0.76124 0.09644 0.38476 0.0
O37 O 0.75073 0.08342 0.39983 0.0
O38 O 0.74976 0.08444 0.36962 0.0
C39 C 0.7198 0.05176 0.44449 0.0
O40 O 0.73298 0.08409 0.44222 0.0
C41 C 0.69411 0.08178 0.32734 0.0
C42 C 0.70285 0.03795 0.30765 0.0
C43 C 0.69117 0.07312 0.309 0.0
N44 N 0.70647 0.0529 0.3363 0.0
N45 N 0.7118 0.02688 0.32443 0.0
C46 C 0.68705 0.11715 0.33625 0.0
H47 H 0.70229 0.11938 0.34914 0.0
H48 H 0.65814 0.11936 0.33951 0.0
H49 H 0.6944 0.13948 0.32704 0.0
C50 C 0.64024 0.04874 0.39973 0.0
N51 N 0.67353 0.05068 0.39294 0.0
N52 N 0.67193 0.05042 0.37508 0.0
C53 C 0.63743 0.04737 0.36994 0.0
C54 C 0.61626 0.04638 0.38542 0.0
C55 C 0.632 0.04551 0.41954 0.0
H56 H 0.64798 0.06542 0.42728 0.0
H57 H 0.60308 0.04991 0.42224 0.0
H58 H 0.63966 0.01836 0.4243 0.0
O59 O 0.73885 -0.00138 0.39539 0.0
O60 O 0.73644 -0.00079 0.36532 0.0
H61 H 0.59925 0.02516 0.35071 0.0
H62 H 0.62389 0.06359 0.34297 0.0
C63 C 0.62578 0.03854 0.35097 0.0
H64 H 0.64569 0.02068 0.34443 0.0
H65 H 0.72132 0.00145 0.32779 0.0
O66 O 0.71157 0.03299 0.43071 0.0
C67 C 0.74438 0.98365 0.38014 0.0
Co68 Co 0.94256 0.72085 0.40594 0.0
Co69 Co 0.93886 0.71374 0.3631 0.0
C70 C 0.88792 0.76005 0.3846 0.0
O71 O 0.90099 0.75117 0.39993 0.0
O72 O 0.9006 0.74784 0.36979 0.0
C73 C 0.93196 0.71246 0.4461 0.0
O74 O 0.89871 0.70218 0.44342 0.0
C75 C 0.90498 0.69142 0.32846 0.0
C76 C 0.95115 0.69321 0.30976 0.0
C77 C 0.91494 0.68509 0.31051 0.0
N78 N 0.93414 0.70212 0.33781 0.0
N79 N 0.96154 0.70336 0.32649 0.0
C80 C 0.86838 0.68836 0.33661 0.0
H81 H 0.86601 0.70564 0.34878 0.0
H82 H 0.86372 0.66027 0.34091 0.0
H83 H 0.84755 0.69583 0.32653 0.0
C84 C 0.94456 0.6423 0.40285 0.0
N85 N 0.93857 0.67479 0.39555 0.0
N86 N 0.93722 0.67181 0.37772 0.0
C87 C 0.94227 0.63725 0.37316 0.0
C88 C 0.94715 0.61753 0.38889 0.0
C89 C 0.95444 0.63646 0.42233 0.0
H90 H 0.97566 0.65571 0.42635 0.0
H91 H 0.93059 0.64137 0.43093 0.0
H92 H 0.96416 0.60884 0.42487 0.0
O93 O 0.98624 0.74288 0.39646 0.0
O94 O 0.98606 0.73726 0.36648 0.0
H95 H 0.96901 0.6388 0.34746 0.0
H96 H 0.95223 0.59488 0.35354 0.0
C97 C 0.94677 0.62407 0.35408 0.0
H98 H 0.92187 0.62927 0.34636 0.0
H99 H 0.98746 0.71084 0.33023 0.0
O100 O 0.9517 0.72015 0.4326 0.0
C101 C 0.00112 0.74738 0.38113 0.0
Co102 Co 0.26984 0.9428 0.40133 0.0
Co103 Co 0.27081 0.94203 0.35844 0.0
C104 C 0.22543 0.89138 0.38073 0.0
O105 O 0.23673 0.90301 0.39597 0.0
O106 O 0.23632 0.90459 0.36579 0.0
C107 C 0.25357 0.94356 0.43974 0.0
O108 O 0.22318 0.9287 0.43478 0.0
C109 C 0.2887 0.90882 0.32334 0.0
C110 C 0.28513 0.95497 0.30467 0.0
C111 C 0.29343 0.91878 0.3053 0.0
N112 N 0.27883 0.93795 0.33289 0.0
N113 N 0.27641 0.96535 0.32161 0.0
C114 C 0.29264 0.87225 0.33144 0.0
H115 H 0.32087 0.86812 0.33568 0.0
H116 H 0.28537 0.85126 0.3214 0.0
H117 H 0.27562 0.86955 0.34367 0.0
C118 C 0.34733 0.93955 0.39571 0.0
N119 N 0.31377 0.93681 0.38922 0.0
N120 N 0.31453 0.93778 0.37136 0.0
C121 C 0.34871 0.94177 0.36592 0.0
C122 C 0.37056 0.94308 0.38116 0.0
C123 C 0.35589 0.94547 0.41535 0.0
H124 H 0.34515 0.97189 0.41964 0.0
H125 H 0.34263 0.9245 0.42363 0.0
H126 H 0.38513 0.94489 0.41798 0.0
O127 O 0.24819 0.98812 0.39348 0.0
O128 O 0.24963 0.98965 0.36337 0.0
H129 H 0.34373 0.97136 0.34112 0.0
H130 H 0.38866 0.95508 0.34556 0.0
C131 C 0.3597 0.94883 0.3467 0.0
H132 H 0.3543 0.92472 0.33838 0.0
H133 H 0.26934 0.99128 0.32553 0.0
O134 O 0.2774 0.9497 0.42784 0.0
C135 C 0.24205 0.00407 0.37856 0.0
Co136 Co 0.04279 0.71319 0.60893 0.0
Co137 Co 0.04504 0.71186 0.65191 0.0
C138 C 0.09792 0.75369 0.62919 0.0
O139 O 0.08487 0.74344 0.61405 0.0
O140 O 0.08458 0.74365 0.64425 0.0
C141 C 0.03943 0.73085 0.57088 0.0
O142 O 0.05261 0.76173 0.57627 0.0
C143 C 0.07742 0.69251 0.68722 0.0
C144 C 0.03138 0.69886 0.70575 0.0
C145 C 0.06712 0.68882 0.70528 0.0
N146 N 0.04888 0.70356 0.67752 0.0
N147 N 0.02156 0.70757 0.68873 0.0
C148 C 0.11387 0.68674 0.67926 0.0
H149 H 0.11729 0.70288 0.66677 0.0
H150 H 0.11702 0.65812 0.67551 0.0
H151 H 0.13501 0.69386 0.68924 0.0
C152 C 0.04222 0.63559 0.61449 0.0
N153 N 0.04637 0.66898 0.62101 0.0
N154 N 0.04602 0.66811 0.63888 0.0
C155 C 0.04095 0.63406 0.6443 0.0
C156 C 0.03845 0.61242 0.62903 0.0
C157 C 0.03582 0.6273 0.59486 0.0
H158 H 0.01004 0.63947 0.59057 0.0
H159 H 0.05747 0.63938 0.58657 0.0
H160 H 0.03478 0.59806 0.59224 0.0
O161 O -0.0008 0.73785 0.61711 0.0
O162 O -0.00112 0.73623 0.64724 0.0
H163 H 0.01307 0.63984 0.66955 0.0
H164 H 0.02735 0.59438 0.66474 0.0
C165 C 0.03463 0.6231 0.66359 0.0
H166 H 0.0594 0.62753 0.67154 0.0
H167 H -0.00395 0.71587 0.68473 0.0
O168 O 0.03506 0.70596 0.58243 0.0
C169 C 0.98436 0.74493 0.63223 0.0
Co170 Co 0.26519 0.03583 0.6056 0.0
Co171 Co 0.27372 0.03895 0.64832 0.0
C172 C 0.22295 0.08693 0.62759 0.0
O173 O 0.23193 0.07461 0.61211 0.0
O174 O 0.23682 0.07509 0.64222 0.0
C175 C 0.26789 0.0474 0.5653 0.0
O176 O 0.2712 0.08213 0.56768 0.0
C177 C 0.29623 0.07274 0.68289 0.0
C178 C 0.29291 0.02683 0.70171 0.0
C179 C 0.30143 0.06295 0.70095 0.0
N180 N 0.28555 0.04362 0.67352 0.0
N181 N 0.28354 0.01635 0.68489 0.0
C182 C 0.29953 0.10927 0.6747 0.0
H183 H 0.2835 0.1111 0.66205 0.0
H184 H 0.32795 0.11439 0.67117 0.0
H185 H 0.29067 0.13008 0.68449 0.0
C186 C 0.3435 0.04249 0.60777 0.0
N187 N 0.311 0.0439 0.61556 0.0
N188 N 0.3148 0.04411 0.63335 0.0
C189 C 0.34991 0.04224 0.63742 0.0
C190 C 0.36921 0.04128 0.62133 0.0
C191 C 0.34953 0.03856 0.58779 0.0
H192 H 0.33585 0.06074 0.5806 0.0
H193 H 0.37845 0.03925 0.58433 0.0
H194 H 0.33773 0.0129 0.58305 0.0
O195 O 0.24696 0.99024 0.61501 0.0
O196 O 0.25347 0.99049 0.64492 0.0
H197 H 0.3919 0.0243 0.65578 0.0
H198 H 0.36336 0.05935 0.66427 0.0
C199 C 0.36399 0.03445 0.65607 0.0
H200 H 0.34678 0.01421 0.66278 0.0
H201 H 0.27575 0.99051 0.68116 0.0
O202 O 0.26595 0.02676 0.57897 0.0
C203 C 0.24403 0.9749 0.63032 0.0
Co204 Co 0.93927 0.25951 0.61072 0.0
Co205 Co 0.93941 0.26746 0.65346 0.0
C206 C 0.88406 0.22403 0.63324 0.0
O207 O 0.89683 0.23158 0.61766 0.0
O208 O 0.89831 0.23577 0.64782 0.0
C209 C 0.92765 0.26431 0.57027 0.0
O210 O 0.89352 0.27179 0.57242 0.0
C211 C 0.91044 0.29222 0.68857 0.0
C212 C 0.95906 0.29159 0.70571 0.0
C213 C 0.92295 0.30023 0.70589 0.0
N214 N 0.93799 0.27967 0.67866 0.0
N215 N 0.96683 0.27888 0.68908 0.0
C216 C 0.87399 0.29941 0.68095 0.0
H217 H 0.87502 0.30059 0.6659 0.0
H218 H 0.86313 0.3249 0.68644 0.0
H219 H 0.85571 0.27734 0.68494 0.0
C220 C 0.94074 0.33818 0.61318 0.0
N221 N 0.9375 0.30573 0.62089 0.0
N222 N 0.93832 0.30923 0.63869 0.0
C223 C 0.94242 0.34413 0.64285 0.0
C224 C 0.94393 0.36352 0.62682 0.0
C225 C 0.94303 0.34437 0.59315 0.0
H226 H 0.91902 0.33278 0.58653 0.0
H227 H 0.94441 0.37331 0.58982 0.0
H228 H 0.96703 0.33053 0.58768 0.0
O229 O 0.98254 0.23562 0.61952 0.0
O230 O 0.98492 0.24149 0.64941 0.0
H231 H 0.96109 0.3855 0.66138 0.0
H232 H 0.9254 0.35753 0.66969 0.0
C233 C 0.95036 0.3578 0.66156 0.0
H234 H 0.97025 0.34013 0.66823 0.0
H235 H -0.0079 0.27071 0.68466 0.0
O236 O 0.94761 0.25964 0.58405 0.0
C237 C -0.00166 0.2305 0.63456 0.0
Co238 Co 0.71707 0.94463 0.60761 0.0
Co239 Co 0.7113 0.93839 0.65021 0.0
C240 C 0.76195 0.8931 0.62792 0.0
O241 O 0.75197 0.90632 0.61279 0.0
O242 O 0.7485 0.90354 0.64291 0.0
C243 C 0.71701 0.93551 0.56741 0.0
O244 O 0.72314 0.90109 0.56946 0.0
C245 C 0.69173 0.90213 0.68444 0.0
C246 C 0.69224 0.94761 0.70367 0.0
C247 C 0.68568 0.91113 0.70252 0.0
N248 N 0.70085 0.93206 0.67538 0.0
N249 N 0.70134 0.95906 0.687 0.0
C250 C 0.69003 0.86575 0.67589 0.0
H251 H 0.70723 0.86464 0.66365 0.0
H252 H 0.6621 0.86009 0.67161 0.0
H253 H 0.69849 0.84486 0.68572 0.0
C254 C 0.63929 0.93698 0.61066 0.0
N255 N 0.67217 0.93459 0.61802 0.0
N256 N 0.6694 0.93327 0.63583 0.0
C257 C 0.63455 0.93529 0.64037 0.0
C258 C 0.61438 0.93783 0.62459 0.0
C259 C 0.63265 0.94551 0.59109 0.0
H260 H 0.6441 0.97223 0.58794 0.0
H261 H 0.64639 0.92537 0.58248 0.0
H262 H 0.60368 0.94561 0.58775 0.0
O263 O 0.73432 0.9902 0.61752 0.0
O264 O 0.73014 0.98755 0.64749 0.0
H265 H 0.63534 0.9631 0.66583 0.0
H266 H 0.59191 0.94479 0.65984 0.0
C267 C 0.62126 0.94019 0.65939 0.0
H268 H 0.62721 0.91578 0.66735 0.0
H269 H 0.70757 0.98543 0.68351 0.0
O270 O 0.71339 0.95538 0.58129 0.0
C271 C 0.73786 0.00452 0.63307 0.0
Co272 Co 0.54174 0.76354 0.90477 0.0
Co273 Co 0.54529 0.76881 0.862 0.0
C274 C 0.59738 0.72491 0.88373 0.0
O275 O 0.58429 0.73442 0.89894 0.0
O276 O 0.58414 0.73585 0.86883 0.0
C277 C 0.55109 0.77971 0.94428 0.0
O278 O 0.57874 0.80021 0.94063 0.0
C279 C 0.57902 0.78873 0.82717 0.0
C280 C 0.53279 0.78649 0.80845 0.0
C281 C 0.56909 0.79418 0.80918 0.0
N282 N 0.54975 0.77899 0.83663 0.0
N283 N 0.52231 0.77741 0.8253 0.0
C284 C 0.61576 0.79182 0.83524 0.0
H285 H 0.61839 0.77458 0.84737 0.0
H286 H 0.6205 0.8199 0.83957 0.0
H287 H 0.63647 0.78434 0.82512 0.0
C288 C 0.53518 0.84222 0.90057 0.0
N289 N 0.54327 0.80954 0.89394 0.0
N290 N 0.54606 0.81159 0.87611 0.0
C291 C 0.54072 0.84578 0.87095 0.0
C292 C 0.53374 0.86615 0.88626 0.0
C293 C 0.52137 0.84901 0.91936 0.0
H294 H 0.50689 0.82518 0.92446 0.0
H295 H 0.54422 0.85512 0.92847 0.0
H296 H 0.50285 0.87225 0.9197 0.0
O297 O 0.49877 0.73963 0.89569 0.0
O298 O 0.49859 0.74449 0.86566 0.0
H299 H 0.51624 0.8438 0.84467 0.0
H300 H 0.53425 0.88733 0.8506 0.0
C301 C 0.53849 0.85799 0.85163 0.0
H302 H 0.5638 0.85141 0.84459 0.0
H303 H 0.49631 0.77044 0.82912 0.0
O304 O 0.53437 0.76397 0.93154 0.0
C305 C 0.48392 0.73436 0.88038 0.0
Co306 Co 0.21854 0.53959 0.90757 0.0
Co307 Co 0.20859 0.5434 0.86492 0.0
C308 C 0.25887 0.59205 0.88546 0.0
O309 O 0.25053 0.57924 0.90091 0.0
O310 O 0.24494 0.58021 0.87084 0.0
C311 C 0.21503 0.55115 0.94782 0.0
O312 O 0.20837 0.58536 0.94534 0.0
C313 C 0.18493 0.57732 0.83059 0.0
C314 C 0.18742 0.53138 0.81169 0.0
C315 C 0.17918 0.56756 0.81255 0.0
N316 N 0.19568 0.54814 0.83985 0.0
N317 N 0.19715 0.52083 0.82844 0.0
C318 C 0.18196 0.61386 0.83884 0.0
H319 H 0.19812 0.61562 0.85144 0.0
H320 H 0.15359 0.61912 0.84245 0.0
H321 H 0.19082 0.63462 0.82904 0.0
C322 C 0.1401 0.54289 0.90606 0.0
N323 N 0.17223 0.54645 0.89806 0.0
N324 N 0.16788 0.54734 0.8803 0.0
C325 C 0.13274 0.54412 0.87648 0.0
C326 C 0.11408 0.54121 0.89269 0.0
C327 C 0.13493 0.53638 0.92593 0.0
H328 H 0.14988 0.51199 0.93002 0.0
H329 H 0.14577 0.55946 0.93363 0.0
H330 H 0.10621 0.53317 0.92946 0.0
O331 O 0.23734 0.49462 0.89777 0.0
O332 O 0.23019 0.49528 0.86789 0.0
H333 H 0.1347 0.51579 0.85118 0.0
H334 H 0.08997 0.5281 0.85812 0.0
C335 C 0.11835 0.53685 0.85784 0.0
H336 H 0.12026 0.5616 0.84961 0.0
H337 H 0.20491 0.49495 0.83207 0.0
O338 O 0.21908 0.53059 0.93421 0.0
C339 C 0.24024 0.47963 0.88235 0.0
Co340 Co 0.44159 0.2189 0.90359 0.0
Co341 Co 0.43865 0.21118 0.86081 0.0
C342 C 0.38843 0.25919 0.88199 0.0
O343 O 0.40135 0.25056 0.89741 0.0
O344 O 0.4008 0.24625 0.86725 0.0
C345 C 0.43096 0.21662 0.94397 0.0
O346 O 0.39606 0.2151 0.94174 0.0
C347 C 0.40565 0.18727 0.82629 0.0
C348 C 0.45093 0.19367 0.80728 0.0
C349 C 0.41542 0.18294 0.80817 0.0
N350 N 0.43421 0.19961 0.83557 0.0
N351 N 0.46111 0.20344 0.82409 0.0
C352 C 0.36953 0.18169 0.83462 0.0
H353 H 0.36699 0.1974 0.84735 0.0
H354 H 0.36615 0.15297 0.83805 0.0
H355 H 0.34806 0.18946 0.82496 0.0
C356 C 0.43645 0.14059 0.90108 0.0
N357 N 0.43498 0.17314 0.89337 0.0
N358 N 0.43545 0.16958 0.87556 0.0
C359 C 0.43817 0.13454 0.87141 0.0
C360 C 0.43872 0.11506 0.88746 0.0
C361 C 0.4384 0.13442 0.92112 0.0
H362 H 0.46439 0.14456 0.92636 0.0
H363 H 0.41662 0.14953 0.92788 0.0
H364 H 0.43564 0.1056 0.92453 0.0
O365 O 0.48633 0.239 0.89409 0.0
O366 O 0.48622 0.23337 0.86414 0.0
H367 H 0.46508 0.13958 0.84579 0.0
H368 H 0.45949 0.09398 0.85322 0.0
C369 C 0.44673 0.12079 0.85278 0.0
H370 H 0.42164 0.11877 0.84479 0.0
H371 H 0.48649 0.21273 0.82774 0.0
O372 O 0.4514 0.21749 0.93019 0.0
C373 C 0.5015 0.24295 0.8788 0.0
Co374 Co 0.76343 0.43972 0.90628 0.0
Co375 Co 0.77194 0.43854 0.86357 0.0
C376 C 0.72467 0.38663 0.88311 0.0
O377 O 0.73296 0.39925 0.89865 0.0
O378 O 0.73749 0.39966 0.86853 0.0
C379 C 0.77226 0.42622 0.94636 0.0
O380 O 0.78705 0.39485 0.94329 0.0
C381 C 0.79244 0.4099 0.82757 0.0
C382 C 0.80108 0.46005 0.81227 0.0
C383 C 0.80338 0.42309 0.81081 0.0
N384 N 0.7845 0.43787 0.8384 0.0
N385 N 0.78911 0.4677 0.82904 0.0
C386 C 0.79322 0.37186 0.83393 0.0
H387 H 0.79413 0.37075 0.84898 0.0
H388 H 0.81672 0.35759 0.82818 0.0
H389 H 0.76855 0.35807 0.82923 0.0
C390 C 0.84237 0.44011 0.90403 0.0
N391 N 0.80986 0.4359 0.89639 0.0
N392 N 0.81338 0.4343 0.87859 0.0
C393 C 0.8484 0.43658 0.87442 0.0
C394 C 0.86779 0.44055 0.89034 0.0
C395 C 0.8482 0.45017 0.9235 0.0
H396 H 0.82661 0.4684 0.92811 0.0
H397 H 0.8476 0.42558 0.93192 0.0
H398 H 0.87438 0.46361 0.9256 0.0
O399 O 0.74276 0.48471 0.89789 0.0
O400 O 0.74901 0.48574 0.86799 0.0
H401 H 0.85297 0.46235 0.84859 0.0
H402 H 0.8926 0.4378 0.85532 0.0
C403 C 0.86288 0.43788 0.85549 0.0
H404 H 0.85343 0.41414 0.84786 0.0
H405 H 0.7853 0.49338 0.83432 0.0
O406 O 0.76234 0.44566 0.93313 0.0
C407 C 0.73904 0.50043 0.88274 0.0
Co408 Co 0.54199 0.21567 0.10679 0.0
Co409 Co 0.54574 0.21187 0.14968 0.0
C410 C 0.5949 0.25871 0.12736 0.0
O411 O 0.58209 0.2487 0.11212 0.0
O412 O 0.58278 0.24664 0.14231 0.0
C413 C 0.54265 0.23133 0.06794 0.0
O414 O 0.56226 0.25932 0.07226 0.0
C415 C 0.57992 0.19334 0.18467 0.0
C416 C 0.53366 0.19544 0.20332 0.0
C417 C 0.57007 0.18823 0.20271 0.0
N418 N 0.55054 0.20252 0.17513 0.0
N419 N 0.52307 0.20396 0.1864 0.0
C420 C 0.61662 0.19066 0.1766 0.0
H421 H 0.61862 0.20726 0.16419 0.0
H422 H 0.62197 0.16245 0.17269 0.0
H423 H 0.63724 0.19923 0.18657 0.0
C424 C 0.54626 0.13776 0.11119 0.0
N425 N 0.54899 0.17097 0.11814 0.0
N426 N 0.54944 0.16909 0.13599 0.0
C427 C 0.54647 0.13454 0.14096 0.0
C428 C 0.54429 0.1136 0.12542 0.0
C429 C 0.53907 0.13021 0.09155 0.0
H430 H 0.51228 0.14091 0.08788 0.0
H431 H 0.55934 0.14413 0.08311 0.0
H432 H 0.53977 0.10111 0.08852 0.0
O433 O 0.497 0.23662 0.11567 0.0
O434 O 0.49794 0.23322 0.14573 0.0
H435 H 0.51836 0.13699 0.16627 0.0
H436 H 0.53617 0.09303 0.16094 0.0
C437 C 0.54116 0.12228 0.16012 0.0
H438 H 0.56554 0.12835 0.16812 0.0
H439 H 0.49697 0.21045 0.18251 0.0
O440 O 0.53332 0.20948 0.08028 0.0
C441 C 0.48225 0.24169 0.13101 0.0
Co442 Co 0.76771 0.54272 0.10785 0.0
Co443 Co 0.77085 0.5433 0.15073 0.0
C444 C 0.72402 0.59375 0.12891 0.0
O445 O 0.73455 0.58204 0.11356 0.0
O446 O 0.73581 0.58076 0.14375 0.0
C447 C 0.74707 0.5325 0.07095 0.0
O448 O 0.71485 0.53728 0.0777 0.0
C449 C 0.79303 0.5766 0.1852 0.0
C450 C 0.78513 0.5324 0.2047 0.0
C451 C 0.79686 0.56759 0.20344 0.0
N452 N 0.78022 0.54793 0.17619 0.0
N453 N 0.77537 0.52168 0.18795 0.0
C454 C 0.79982 0.61209 0.17641 0.0
H455 H 0.78396 0.61465 0.16374 0.0
H456 H 0.82857 0.61421 0.17277 0.0
H457 H 0.79306 0.63431 0.18584 0.0
C458 C 0.84518 0.54796 0.11248 0.0
N459 N 0.81199 0.54946 0.11943 0.0
N460 N 0.81383 0.54779 0.13726 0.0
C461 C 0.84839 0.54418 0.1422 0.0
C462 C 0.86934 0.54433 0.12664 0.0
C463 C 0.85313 0.54599 0.0926 0.0
H464 H 0.83697 0.56629 0.08525 0.0
H465 H 0.882 0.55065 0.08987 0.0
H466 H 0.84554 0.5191 0.08741 0.0
O467 O 0.74697 0.49714 0.11598 0.0
O468 O 0.74963 0.49553 0.14607 0.0
H469 H 0.84023 0.51532 0.16708 0.0
H470 H 0.8866 0.51989 0.16072 0.0
C471 C 0.86022 0.53354 0.16089 0.0
H472 H 0.86252 0.55784 0.16948 0.0
H473 H 0.76568 0.49632 0.18452 0.0
O474 O 0.77412 0.53592 0.0813 0.0
C475 C 0.74155 0.48109 0.13094 0.0
Co476 Co 0.43991 0.76368 0.10493 0.0
Co477 Co 0.4378 0.77059 0.14764 0.0
C478 C 0.38644 0.72383 0.12651 0.0
O479 O 0.39882 0.73271 0.11104 0.0
O480 O 0.39959 0.73631 0.14116 0.0
C481 C 0.42898 0.77327 0.0649 0.0
O482 O 0.39592 0.78413 0.06754 0.0
C483 C 0.40422 0.79413 0.18183 0.0
C484 C 0.44881 0.7877 0.2013 0.0
C485 C 0.41338 0.79858 0.20002 0.0
N486 N 0.43306 0.7817 0.17287 0.0
N487 N 0.45955 0.77777 0.18461 0.0
C488 C 0.36843 0.79993 0.17312 0.0
H489 H 0.36609 0.78402 0.16046 0.0
H490 H 0.36548 0.82861 0.1695 0.0
H491 H 0.34656 0.79258 0.18261 0.0
C492 C 0.43961 0.8427 0.10813 0.0
N493 N 0.43561 0.80985 0.11538 0.0
N494 N 0.4354 0.81264 0.13322 0.0
C495 C 0.43952 0.84731 0.13786 0.0
C496 C 0.44206 0.86741 0.12211 0.0
C497 C 0.44445 0.84989 0.0883 0.0
H498 H 0.41962 0.84231 0.08103 0.0
H499 H 0.44977 0.87859 0.08552 0.0
H500 H 0.46686 0.83344 0.08298 0.0
O501 O 0.48421 0.74194 0.11414 0.0
O502 O 0.48494 0.74754 0.14412 0.0
H503 H 0.45969 0.88713 0.15685 0.0
H504 H 0.42269 0.86058 0.16477 0.0
C505 C 0.44776 0.85992 0.15674 0.0
H506 H 0.4667 0.84113 0.16334 0.0
H507 H 0.48502 0.76841 0.18121 0.0
O508 O 0.44862 0.76473 0.07831 0.0
C509 C 0.4996 0.73753 0.12938 0.0
Co510 Co 0.21462 0.43876 0.10992 0.0
Co511 Co 0.21463 0.43782 0.15285 0.0
C512 C 0.25906 0.38689 0.13016 0.0
O513 O 0.24753 0.3988 0.11505 0.0
O514 O 0.24867 0.40005 0.14523 0.0
C515 C 0.23259 0.4429 0.07217 0.0
O516 O 0.26409 0.43202 0.07794 0.0
C517 C 0.19667 0.4049 0.18807 0.0
C518 C 0.20075 0.45116 0.20669 0.0
C519 C 0.19197 0.41507 0.20611 0.0
N520 N 0.20695 0.43381 0.17849 0.0
N521 N 0.2097 0.46127 0.18975 0.0
C522 C 0.19224 0.36834 0.17997 0.0
H523 H 0.20935 0.36532 0.16779 0.0
H524 H 0.16399 0.36461 0.17567 0.0
H525 H 0.19911 0.34731 0.19003 0.0
C526 C 0.13734 0.43637 0.11595 0.0
N527 N 0.17096 0.433 0.12226 0.0
N528 N 0.1706 0.4339 0.14013 0.0
C529 C 0.13661 0.43846 0.14576 0.0
C530 C 0.11449 0.44026 0.13063 0.0
C531 C 0.12855 0.44278 0.09639 0.0
H532 H 0.13969 0.46907 0.0922 0.0
H533 H 0.14128 0.42171 0.08793 0.0
H534 H 0.09926 0.44276 0.09388 0.0
O535 O 0.23644 0.48403 0.11772 0.0
O536 O 0.23589 0.48546 0.14784 0.0
H537 H 0.14258 0.46815 0.17051 0.0
H538 H 0.09731 0.45259 0.16632 0.0
C539 C 0.12613 0.44585 0.16503 0.0
H540 H 0.13128 0.42171 0.17334 0.0
H541 H 0.21705 0.48709 0.18581 0.0
O542 O 0.20693 0.4455 0.08343 0.0
C543 C 0.24298 0.49996 0.13262 0.0
H544 H 0.01075 0.59619 0.37493 0.0
H545 H 0.99078 0.39563 0.41119 0.0
H546 H 0.92089 0.55912 0.40642 0.0
H547 H 0.07717 0.43064 0.37671 0.0
H548 H 0.96783 0.45682 0.41207 0.0
H549 H 0.03814 0.53687 0.37741 0.0
C550 C -0.00323 0.57527 0.38225 0.0
C551 C 0.96339 0.58188 0.39021 0.0
C552 C -0.00798 0.45129 0.40446 0.0
C553 C -0.00548 0.51457 0.39339 0.0
C554 C 0.00528 0.41649 0.40411 0.0
C555 C 0.03601 0.40851 0.394 0.0
C556 C 0.00954 0.4781 0.39451 0.0
C557 C 0.05341 0.43606 0.38467 0.0
C558 C 0.01242 0.5416 0.38376 0.0
C559 C 0.94653 0.55457 0.39994 0.0
N560 N 0.0398 0.46976 0.38507 0.0
N561 N 0.96225 0.52189 0.40121 0.0
H562 H 0.55758 0.07655 0.36979 0.0
H563 H 0.43016 0.91177 0.3953 0.0
H564 H 0.59149 0.987 0.40247 0.0
H565 H 0.39235 0.00836 0.36964 0.0
H566 H 0.49014 0.93836 0.39759 0.0
H567 H 0.4967 0.05183 0.36918 0.0
C568 C 0.5519 0.05193 0.37702 0.0
C569 C 0.57905 0.03388 0.38636 0.0
C570 C 0.46874 0.95373 0.39143 0.0
C571 C 0.51033 0.00522 0.38555 0.0
C572 C 0.43475 0.93851 0.39008 0.0
C573 C 0.40689 0.95788 0.38207 0.0
C574 C 0.47459 0.98848 0.38468 0.0
C575 C 0.41359 -0.00749 0.37563 0.0
C576 C 0.51736 0.03779 0.37666 0.0
C577 C 0.5709 0.00192 0.39539 0.0
N578 N 0.44688 0.00673 0.37702 0.0
N579 N 0.53721 0.98845 0.39469 0.0
H580 H 0.00298 0.38771 0.60929 0.0
H581 H 0.97352 0.59051 0.64095 0.0
H582 H 0.91202 0.42305 0.64055 0.0
H583 H 0.06953 0.55298 0.61464 0.0
H584 H 0.94831 0.53015 0.63892 0.0
H585 H 0.02532 0.4493 0.60859 0.0
C586 C 0.9875 0.40872 0.61575 0.0
C587 C 0.95563 0.4008 0.62488 0.0
C588 C 0.97492 0.53501 0.63362 0.0
C589 C 0.98112 0.47072 0.62449 0.0
C590 C 0.9893 0.56928 0.63487 0.0
C591 C 0.02369 0.57611 0.62819 0.0
C592 C -0.00489 0.50759 0.62552 0.0
C593 C 0.04298 0.54832 0.62006 0.0
C594 C 0.00033 0.44371 0.61548 0.0
C595 C 0.93671 0.42847 0.63334 0.0
N596 N 0.02843 0.51507 0.61898 0.0
N597 N 0.94983 0.46235 0.63301 0.0
H598 H 0.55562 0.90794 0.60872 0.0
H599 H 0.42919 0.07386 0.63419 0.0
H600 H 0.59241 0.0026 0.63663 0.0
H601 H 0.39273 0.98078 0.60481 0.0
H602 H 0.49023 0.04963 0.63381 0.0
H603 H 0.49598 0.93515 0.6059 0.0
C604 C 0.55087 0.93438 0.61431 0.0
C605 C 0.57828 0.95299 0.62316 0.0
C606 C 0.46897 0.03468 0.62725 0.0
C607 C 0.51106 0.98434 0.61991 0.0
C608 C 0.43435 0.04858 0.62743 0.0
C609 C 0.40642 0.02931 0.61938 0.0
C610 C 0.47535 0.00117 0.61911 0.0
C611 C 0.41391 -0.00346 0.61093 0.0
C612 C 0.51708 0.94997 0.61266 0.0
C613 C 0.57147 0.98732 0.63 0.0
N614 N 0.44773 0.98334 0.61109 0.0
N615 N 0.53841 0.00191 0.6283 0.0
H616 H 0.47417 0.89025 0.86892 0.0
H617 H 0.4953 0.08971 0.90671 0.0
H618 H 0.55794 0.92303 0.90567 0.0
H619 H 0.40826 0.05606 0.87215 0.0
H620 H 0.517 0.02808 0.90772 0.0
H621 H 0.44837 0.9504 0.87062 0.0
C622 C 0.48726 0.91042 0.87719 0.0
C623 C 0.51853 0.90236 0.88686 0.0
C624 C 0.49294 0.034 0.90006 0.0
C625 C 0.48902 0.97057 0.88922 0.0
C626 C 0.48042 0.06907 0.89962 0.0
C627 C 0.44984 0.07756 0.88948 0.0
C628 C 0.47489 0.00743 0.89013 0.0
C629 C 0.43193 0.05025 0.88014 0.0
C630 C 0.47243 0.94454 0.87829 0.0
C631 C 0.53403 0.9287 0.89785 0.0
N632 N 0.44485 0.01628 0.8806 0.0
N633 N 0.51918 0.96184 0.89867 0.0
H634 H 0.92127 0.41268 0.91112 0.0
H635 H 0.09706 0.47564 0.9056 0.0
H636 H 0.89703 0.49859 0.87405 0.0
H637 H 0.05053 0.57189 0.88359 0.0
H638 H 0.03788 0.44833 0.90669 0.0
H639 H 0.98203 0.4362 0.9145 0.0
C640 C 0.92916 0.4362 0.90349 0.0
C641 C 0.90481 0.45334 0.89198 0.0
C642 C 0.04012 0.47574 0.90211 0.0
C643 C 0.974 0.48012 0.89536 0.0
C644 C 0.07398 0.49121 0.90142 0.0
C645 C 0.07813 0.52607 0.89477 0.0
C646 C 0.01033 0.49548 0.89612 0.0
C647 C 0.04799 0.54503 0.88898 0.0
C648 C 0.96387 0.44953 0.90528 0.0
C649 C 0.91557 0.48415 0.88267 0.0
N650 N 0.01522 0.52939 0.88974 0.0
N651 N 0.94947 0.49654 0.88454 0.0
H652 H 0.40974 0.92724 0.13513 0.0
H653 H 0.57538 0.05463 0.1104 0.0
H654 H 0.50416 0.89063 0.10707 0.0
H655 H 0.4797 0.09109 0.13739 0.0
H656 H 0.54926 -0.00562 0.10819 0.0
H657 H 0.43415 0.9882 0.13522 0.0
C658 C 0.43543 0.93235 0.1288 0.0
C659 C 0.4549 0.90445 0.12088 0.0
C660 C 0.53399 0.01554 0.11463 0.0
C661 C 0.48321 0.97333 0.12111 0.0
C662 C 0.54893 0.04969 0.11591 0.0
C663 C 0.52969 0.07722 0.12429 0.0
C664 C 0.49962 0.00926 0.12177 0.0
C665 C 0.49543 0.07011 0.13109 0.0
C666 C 0.44941 0.96694 0.12888 0.0
C667 C 0.48822 0.91184 0.11303 0.0
N668 N 0.48146 0.03671 0.12972 0.0
N669 N 0.50145 0.94567 0.11338 0.0
H670 H 0.89272 0.48576 0.10835 0.0
H671 H 0.09492 0.50616 0.14235 0.0
H672 H 0.92885 0.57239 0.14254 0.0
H673 H 0.0537 0.41079 0.11672 0.0
H674 H 0.03552 0.53352 0.14026 0.0
H675 H 0.95325 0.46092 0.10845 0.0
C676 C 0.91371 0.49985 0.1156 0.0
C677 C 0.90629 0.53128 0.12528 0.0
C678 C 0.03935 0.50656 0.13516 0.0
C679 C 0.97503 0.50277 0.12584 0.0
C680 C 0.07307 0.49095 0.13644 0.0
C681 C 0.07861 0.45613 0.12994 0.0
C682 C 0.01122 0.48723 0.12715 0.0
C683 C 0.05005 0.43763 0.12201 0.0
C684 C 0.94808 0.48551 0.11582 0.0
C685 C 0.9339 0.54817 0.13485 0.0
N686 N 0.0174 0.45344 0.12083 0.0
N687 N 0.96722 0.53363 0.13492 0.0
H688 H 0.12495 0.35386 0.31391 0.0
H689 H 0.14096 0.36149 0.20596 0.0
H690 H 0.06691 0.28354 0.2778 0.0
H691 H 0.20864 0.42288 0.24193 0.0
H692 H 0.11542 0.33102 0.2321 0.0
H693 H 0.15759 0.37777 0.28796 0.0
C694 C 0.11963 0.34273 0.30063 0.0
C695 C 0.09359 0.31602 0.29814 0.0
C696 C 0.13622 0.35079 0.23429 0.0
C697 C 0.13006 0.34438 0.26816 0.0
C698 C 0.15126 0.36792 0.21928 0.0
C699 C 0.17775 0.39421 0.22166 0.0
C700 C 0.1473 0.36033 0.25188 0.0
C701 C 0.18845 0.40261 0.23945 0.0
C702 C 0.13804 0.35678 0.28573 0.0
C703 C 0.08681 0.30403 0.28039 0.0
N704 N 0.17315 0.38582 0.25387 0.0
N705 N 0.10483 0.31832 0.2661 0.0
H706 H 0.56173 0.20611 0.2383 0.0
H707 H 0.71199 0.06974 0.27367 0.0
H708 H 0.6264 0.14026 0.20302 0.0
H709 H 0.63743 0.12409 0.30897 0.0
H710 H 0.68577 0.10095 0.24773 0.0
H711 H 0.59393 0.18182 0.26447 0.0
C712 C 0.58303 0.18691 0.23602 0.0
C713 C 0.59179 0.17579 0.21836 0.0
C714 C 0.67544 0.10639 0.26118 0.0
C715 C 0.62858 0.1476 0.24829 0.0
C716 C 0.6904 0.0886 0.27601 0.0
C717 C 0.67735 0.09469 0.29361 0.0
C718 C 0.64691 0.13032 0.2639 0.0
C719 C 0.64921 0.11929 0.29581 0.0
C720 C 0.60139 0.17305 0.25097 0.0
C721 C 0.61945 0.15065 0.21624 0.0
N722 N 0.63486 0.13609 0.28112 0.0
N723 N 0.63676 0.13734 0.23102 0.0
H724 H 0.85041 0.61877 0.20301 0.0
H725 H 0.85933 0.63613 0.31098 0.0
H726 H 0.77823 0.56352 0.23913 0.0
H727 H 0.92326 0.70021 0.27462 0.0
H728 H 0.82776 0.61105 0.28493 0.0
H729 H 0.87577 0.6505 0.22893 0.0
C730 C 0.83917 0.61392 0.21629 0.0
C731 C 0.81146 0.58897 0.21878 0.0
C732 C 0.84837 0.63095 0.28264 0.0
C733 C 0.84153 0.62435 0.24876 0.0
C734 C 0.86616 0.64571 0.29759 0.0
C735 C 0.89351 0.67104 0.29507 0.0
C736 C 0.85827 0.64119 0.26499 0.0
C737 C 0.90225 0.6809 0.27722 0.0
C738 C 0.85406 0.63178 0.23118 0.0
C739 C 0.79943 0.58264 0.23655 0.0
N740 N 0.88477 0.66593 0.26289 0.0
N741 N 0.81455 0.60012 0.25084 0.0
H742 H 0.41778 0.77956 0.23557 0.0
H743 H 0.27564 0.92572 0.2696 0.0
H744 H 0.36124 0.85115 0.1996 0.0
H745 H 0.34401 0.86491 0.3054 0.0
H746 H 0.3016 0.89396 0.24367 0.0
H747 H 0.38578 0.80578 0.26127 0.0
C748 C 0.39831 0.80051 0.23304 0.0
C749 C 0.39177 0.81267 0.21532 0.0
C750 C 0.31056 0.88724 0.25724 0.0
C751 C 0.3552 0.84308 0.24473 0.0
C752 C 0.29575 0.90534 0.27204 0.0
C753 C 0.30704 0.89745 0.28977 0.0
C754 C 0.33713 0.86123 0.26016 0.0
C755 C 0.33342 0.87104 0.29212 0.0
C756 C 0.38005 0.81547 0.24772 0.0
C757 C 0.36639 0.84002 0.21287 0.0
N758 N 0.34759 0.85396 0.27749 0.0
N759 N 0.34912 0.85436 0.22741 0.0
H760 H 0.19736 0.55948 0.77705 0.0
H761 H 0.0605 0.70847 0.74075 0.0
H762 H 0.1311 0.624 0.8122 0.0
H763 H 0.11895 0.63608 0.70598 0.0
H764 H 0.09055 0.68223 0.76712 0.0
H765 H 0.17345 0.59169 0.75088 0.0
C766 C 0.17807 0.58072 0.7793 0.0
C767 C 0.16669 0.58935 0.79693 0.0
C768 C 0.09714 0.67242 0.75369 0.0
C769 C 0.13888 0.62624 0.76693 0.0
C770 C 0.08001 0.68739 0.73863 0.0
C771 C 0.08769 0.67501 0.72105 0.0
C772 C 0.12195 0.64455 0.7512 0.0
C773 C 0.11299 0.64744 0.71913 0.0
C774 C 0.16443 0.59911 0.76434 0.0
C775 C 0.14154 0.61704 0.799 0.0
N776 N 0.1291 0.63309 0.73401 0.0
N777 N 0.12838 0.63438 0.78417 0.0
H778 H 0.42173 0.20227 0.77272 0.0
H779 H 0.28294 0.05502 0.73643 0.0
H780 H 0.3626 0.13099 0.8077 0.0
H781 H 0.3501 0.1188 0.70146 0.0
H782 H 0.30719 0.08689 0.7627 0.0
H783 H 0.39111 0.17637 0.74649 0.0
C784 C 0.40198 0.18146 0.77493 0.0
C785 C 0.39437 0.16925 0.79253 0.0
C786 C 0.31631 0.09423 0.74926 0.0
C787 C 0.35936 0.13917 0.76247 0.0
C788 C 0.30247 0.07604 0.73424 0.0
C789 C 0.31401 0.08458 0.71663 0.0
C790 C 0.34219 0.12105 0.74672 0.0
C791 C 0.3395 0.11196 0.71464 0.0
C792 C 0.3845 0.16668 0.75992 0.0
C793 C 0.36863 0.14211 0.79453 0.0
N794 N 0.35281 0.12909 0.7295 0.0
N795 N 0.35218 0.1279 0.77968 0.0
H796 H 0.78295 0.3585 0.79569 0.0
H797 H 0.94952 0.35174 0.72808 0.0
H798 H 0.85997 0.44403 0.79041 0.0
H799 H 0.85437 0.28883 0.71859 0.0
H800 H 0.91971 0.38103 0.75356 0.0
H801 H 0.81121 0.32781 0.76983 0.0
C802 C 0.80596 0.37063 0.78921 0.0
C803 C 0.81943 0.40364 0.7953 0.0
C804 C 0.90522 0.36097 0.74585 0.0
C805 C 0.85157 0.36897 0.76581 0.0
C806 C 0.92227 0.34414 0.73136 0.0
C807 C 0.90421 0.31817 0.72108 0.0
C808 C 0.86999 0.35133 0.75038 0.0
C809 C 0.86895 0.30927 0.72594 0.0
C810 C 0.82182 0.3533 0.77438 0.0
C811 C 0.84873 0.41861 0.78614 0.0
N812 N 0.85298 0.32572 0.74034 0.0
N813 N 0.86397 0.40107 0.77198 0.0
H814 H 0.62332 0.84423 0.80961 0.0
H815 H 0.63776 0.8548 0.70165 0.0
H816 H 0.56257 0.77638 0.77345 0.0
H817 H 0.70252 0.91786 0.73825 0.0
H818 H 0.61323 0.82251 0.72759 0.0
H819 H 0.65565 0.86823 0.78367 0.0
C820 C 0.6174 0.83361 0.79628 0.0
C821 C 0.59075 0.80756 0.79377 0.0
C822 C 0.63319 0.84306 0.72993 0.0
C823 C 0.62681 0.83612 0.76379 0.0
C824 C 0.6476 0.86125 0.71507 0.0
C825 C 0.67278 0.88869 0.71773 0.0
C826 C 0.64374 0.85264 0.74761 0.0
C827 C 0.68322 0.89685 0.73558 0.0
C828 C 0.63561 0.84773 0.78139 0.0
C829 C 0.58307 0.7963 0.776 0.0
N830 N 0.66859 0.87902 0.74982 0.0
N831 N 0.60094 0.81069 0.76168 0.0
H832 H 0.12894 0.191 0.41511 0.0
H833 H 0.22075 0.04649 0.35002 0.0
H834 H 0.12552 0.19689 0.35655 0.0
H835 H 0.2256 0.04349 0.40861 0.0
H836 H 0.19034 0.10447 0.3519 0.0
H837 H 0.16946 0.14001 0.41279 0.0
C838 C 0.13695 0.1818 0.40176 0.0
C839 C 0.12343 0.19797 0.386 0.0
C840 C 0.1983 0.09116 0.36432 0.0
C841 C 0.16959 0.13939 0.38325 0.0
C842 C 0.2156 0.05806 0.36325 0.0
C843 C 0.22537 0.03991 0.37917 0.0
C844 C 0.19072 0.10608 0.38143 0.0
C845 C 0.21825 0.05628 0.39596 0.0
C846 C 0.16008 0.15263 0.40044 0.0
C847 C 0.13498 0.18503 0.36907 0.0
N848 N 0.20118 0.08829 0.39664 0.0
N849 N 0.15713 0.15625 0.36814 0.0
H850 H 0.94274 0.22557 0.35424 0.0
H851 H 0.79287 0.12885 0.41405 0.0
H852 H 0.94158 0.22449 0.4129 0.0
H853 H 0.79363 0.12759 0.35539 0.0
H854 H 0.84368 0.16983 0.41368 0.0
H855 H 0.88472 0.19506 0.35419 0.0
C856 C 0.93023 0.21912 0.36709 0.0
C857 C 0.94725 0.22722 0.38359 0.0
C858 C 0.83257 0.16081 0.40088 0.0
C859 C 0.88099 0.19246 0.38362 0.0
C860 C 0.8035 0.13742 0.40109 0.0
C861 C 0.78926 0.12436 0.38474 0.0
C862 C 0.84765 0.1711 0.38422 0.0
C863 C 0.80397 0.13667 0.36834 0.0
C864 C 0.89711 0.20174 0.36705 0.0
C865 C 0.92969 0.21844 0.39984 0.0
N866 N 0.83261 0.15909 0.36851 0.0
N867 N 0.89766 0.20136 0.39943 0.0
H868 H 0.85288 0.79184 0.41299 0.0
H869 H 0.76513 0.94324 0.35071 0.0
H870 H 0.85857 0.79126 0.35441 0.0
H871 H 0.75952 0.94135 0.40929 0.0
H872 H 0.79401 0.88434 0.35138 0.0
H873 H 0.81241 0.84295 0.41149 0.0
C874 C 0.84534 0.80221 0.3998 0.0
C875 C 0.85959 0.78759 0.38382 0.0
C876 C 0.7862 0.89679 0.36406 0.0
C877 C 0.81355 0.84638 0.382 0.0
C878 C 0.7698 0.93041 0.36368 0.0
C879 C 0.76031 0.94746 0.37997 0.0
C880 C 0.79311 0.88023 0.38083 0.0
C881 C 0.76674 0.92948 0.39639 0.0
C882 C 0.82225 0.83146 0.39895 0.0
C883 C 0.84855 0.80193 0.3671 0.0
N884 N 0.78292 0.897 0.39639 0.0
N885 N 0.8265 0.83084 0.36663 0.0
H886 H 0.04333 0.76446 0.41006 0.0
H887 H 0.19343 0.8613 0.35087 0.0
H888 H 0.04067 0.76835 0.35144 0.0
H889 H 0.19223 0.85913 0.40952 0.0
H890 H 0.14139 0.82172 0.35051 0.0
H891 H 0.10123 0.79393 0.40971 0.0
C892 C 0.05491 0.77151 0.39707 0.0
C893 C 0.03686 0.76428 0.38073 0.0
C894 C 0.15272 0.82967 0.36344 0.0
C895 C 0.10353 0.79816 0.38029 0.0
C896 C 0.18248 0.85224 0.36368 0.0
C897 C 0.19694 0.86397 0.38028 0.0
C898 C 0.13733 0.8188 0.3799 0.0
C899 C 0.18181 0.85108 0.39642 0.0
C900 C 0.08813 0.78828 0.3969 0.0
C901 C 0.05353 0.77366 0.36435 0.0
N902 N 0.15264 0.82944 0.39581 0.0
N903 N 0.08589 0.7904 0.36455 0.0
H904 H 0.22659 0.93448 0.66021 0.0
H905 H 0.13263 0.78325 0.60009 0.0
H906 H 0.22739 0.93194 0.60156 0.0
H907 H 0.12977 0.78494 0.65873 0.0
H908 H 0.17472 0.83313 0.60069 0.0
H909 H 0.19779 0.87556 0.66026 0.0
C910 C 0.22094 0.92147 0.64737 0.0
C911 C 0.22891 0.9384 0.63087 0.0
C912 C 0.16516 0.82237 0.61344 0.0
C913 C 0.19615 0.87115 0.63081 0.0
C914 C 0.14115 0.79382 0.6131 0.0
C915 C 0.12716 0.78029 0.62937 0.0
C916 C 0.17507 0.83765 0.63015 0.0
C917 C 0.13948 0.79484 0.64584 0.0
C918 C 0.20457 0.88784 0.6474 0.0
C919 C 0.22128 0.92017 0.61463 0.0
N920 N 0.1624 0.82307 0.6458 0.0
N921 N 0.2051 0.8877 0.61502 0.0
H922 H 0.18788 0.11986 0.59961 0.0
H923 H 0.04061 0.21091 0.66357 0.0
H924 H 0.19156 0.11461 0.65818 0.0
H925 H 0.03633 0.20913 0.60494 0.0
H926 H 0.0987 0.18036 0.66225 0.0
H927 H 0.13551 0.15845 0.60169 0.0
C928 C 0.17786 0.12704 0.61292 0.0
C929 C 0.19386 0.11359 0.62873 0.0
C930 C 0.08499 0.18681 0.64971 0.0
C931 C 0.13362 0.15757 0.63122 0.0
C932 C 0.05184 0.20415 0.65046 0.0
C933 C 0.03343 0.21231 0.63436 0.0
C934 C 0.09971 0.17776 0.63275 0.0
C935 C 0.04933 0.20314 0.61773 0.0
C936 C 0.14787 0.14905 0.61411 0.0
C937 C 0.17987 0.12411 0.64562 0.0
N938 N 0.08145 0.18631 0.61738 0.0
N939 N 0.1503 0.14524 0.64642 0.0
H940 H 0.74422 0.05223 0.60535 0.0
H941 H 0.85615 0.1927 0.66377 0.0
H942 H 0.7623 0.04122 0.66301 0.0
H943 H 0.84356 0.19699 0.6055 0.0
H944 H 0.81291 0.14361 0.66481 0.0
H945 H 0.77163 0.11121 0.60634 0.0
C946 C 0.75387 0.06228 0.61827 0.0
C947 C 0.75162 0.04148 0.63408 0.0
C948 C 0.81931 0.15563 0.65184 0.0
C949 C 0.7832 0.10915 0.63527 0.0
C950 C 0.84393 0.1837 0.65122 0.0
C951 C 0.85402 0.19849 0.63446 0.0
C952 C 0.80472 0.14237 0.6356 0.0
C953 C 0.83707 0.186 0.61868 0.0
C954 C 0.76943 0.09608 0.61882 0.0
C955 C 0.7639 0.05623 0.65047 0.0
N956 N 0.81355 0.1584 0.61963 0.0
N957 N 0.77964 0.08908 0.65061 0.0
H958 H 0.94327 0.76566 0.66135 0.0
H959 H 0.79814 0.86424 0.59906 0.0
H960 H 0.94585 0.76659 0.6027 0.0
H961 H 0.7929 0.86177 0.65765 0.0
H962 H 0.85017 0.82485 0.60021 0.0
H963 H 0.88625 0.79792 0.66039 0.0
C964 C 0.93185 0.77255 0.64829 0.0
C965 C 0.94951 0.76364 0.6321 0.0
C966 C 0.83751 0.83275 0.61281 0.0
C967 C 0.88438 0.8004 0.6309 0.0
C968 C 0.80775 0.85523 0.61216 0.0
C969 C 0.79134 0.86664 0.62828 0.0
C970 C 0.85108 0.82172 0.6297 0.0
C971 C 0.80486 0.85389 0.64487 0.0
C972 C 0.89928 0.7909 0.64775 0.0
C973 C 0.93336 0.77308 0.61555 0.0
N974 N 0.83413 0.83232 0.64515 0.0
N975 N 0.90182 0.79106 0.61539 0.0
H976 H 0.62978 0.69573 0.85381 0.0
H977 H 0.72297 0.54202 0.91203 0.0
H978 H 0.63017 0.69185 0.91244 0.0
H979 H 0.72014 0.54191 0.85338 0.0
H980 H 0.69554 0.60095 0.91213 0.0
H981 H 0.67001 0.6442 0.8532 0.0
C982 C 0.63867 0.68436 0.86657 0.0
C983 C 0.62606 0.69774 0.88322 0.0
C984 C 0.70102 0.58819 0.89921 0.0
C985 C 0.67189 0.6387 0.88255 0.0
C986 C 0.71658 0.55438 0.89912 0.0
C987 C 0.72342 0.53673 0.88264 0.0
C988 C 0.69193 0.60454 0.88271 0.0
C989 C 0.71502 0.55441 0.86639 0.0
C990 C 0.66158 0.65489 0.86619 0.0
C991 C 0.63881 0.68218 0.89929 0.0
N992 N 0.69939 0.5873 0.86683 0.0
N993 N 0.66071 0.65322 0.89854 0.0
H994 H 0.44361 0.71344 0.85084 0.0
H995 H 0.29169 0.62714 0.91347 0.0
H996 H 0.44305 0.71618 0.9095 0.0
H997 H 0.29144 0.61862 0.85496 0.0
H998 H 0.34382 0.66604 0.91168 0.0
H999 H 0.38498 0.68376 0.8515 0.0
C1000 C 0.43119 0.70788 0.86382 0.0
C1001 C 0.44844 0.71696 0.88013 0.0
C1002 C 0.33226 0.65589 0.8992 0.0
C1003 C 0.38158 0.68345 0.88097 0.0
C1004 C 0.30241 0.63369 0.90022 0.0
C1005 C 0.28748 0.61919 0.88436 0.0
C1006 C 0.3475 0.66349 0.88221 0.0
C1007 C 0.3023 0.62897 0.86755 0.0
C1008 C 0.39774 0.69106 0.86419 0.0
C1009 C 0.43103 0.70938 0.89656 0.0
N1010 N 0.3318 0.65024 0.86692 0.0
N1011 N 0.39869 0.693 0.89654 0.0
H1012 H 0.35988 0.29119 0.85174 0.0
H1013 H 0.25198 0.43433 0.91063 0.0
H1014 H 0.35226 0.28982 0.91027 0.0
H1015 H 0.26376 0.44216 0.85244 0.0
H1016 H 0.28173 0.37654 0.90993 0.0
H1017 H 0.31788 0.34142 0.85102 0.0
C1018 C 0.34911 0.30117 0.86443 0.0
C1019 C 0.36003 0.28663 0.88113 0.0
C1020 C 0.27771 0.39072 0.89727 0.0
C1021 C 0.31209 0.344 0.88035 0.0
C1022 C 0.26077 0.42384 0.89766 0.0
C1023 C 0.2559 0.44339 0.88158 0.0
C1024 C 0.2902 0.377 0.88072 0.0
C1025 C 0.26728 0.4281 0.86516 0.0
C1026 C 0.32518 0.32987 0.86399 0.0
C1027 C 0.34499 0.30046 0.8971 0.0
N1028 N 0.2843 0.39588 0.86516 0.0
N1029 N 0.32203 0.32855 0.89631 0.0
H1030 H 0.69524 0.34838 0.91095 0.0
H1031 H 0.541 0.26379 0.8491 0.0
H1032 H 0.69158 0.36026 0.85264 0.0
H1033 H 0.54471 0.25769 0.90765 0.0
H1034 H 0.6 0.29262 0.84944 0.0
H1035 H 0.64447 0.30765 0.90924 0.0
C1036 C 0.68397 0.34218 0.89776 0.0
C1037 C 0.69729 0.35824 0.88195 0.0
C1038 C 0.58791 0.2847 0.86217 0.0
C1039 C 0.63884 0.31185 0.87991 0.0
C1040 C 0.55426 0.26833 0.86199 0.0
C1041 C 0.53769 0.25878 0.87838 0.0
C1042 C 0.60499 0.29141 0.87885 0.0
C1043 C 0.55618 0.26503 0.89468 0.0
C1044 C 0.65491 0.31892 0.89679 0.0
C1045 C 0.6819 0.34878 0.8652 0.0
N1046 N 0.58869 0.2811 0.89449 0.0
N1047 N 0.65314 0.32652 0.86464 0.0
H1048 H 0.62854 0.2864 0.15729 0.0
H1049 H 0.72446 0.4415 0.10098 0.0
H1050 H 0.62455 0.29532 0.09884 0.0
H1051 H 0.7212 0.43858 0.1596 0.0
H1052 H 0.69432 0.38381 0.10002 0.0
H1053 H 0.66914 0.33752 0.15832 0.0
C1054 C 0.63642 0.29888 0.14464 0.0
C1055 C 0.6227 0.28683 0.12794 0.0
C1056 C 0.70032 0.39565 0.11311 0.0
C1057 C 0.66911 0.34545 0.12909 0.0
C1058 C 0.71752 0.42869 0.11369 0.0
C1059 C 0.72502 0.44516 0.13042 0.0
C1060 C 0.6904 0.37887 0.12936 0.0
C1061 C 0.71569 0.42701 0.1464 0.0
C1062 C 0.6596 0.32812 0.14527 0.0
C1063 C 0.63418 0.30386 0.11202 0.0
N1064 N 0.69861 0.3949 0.14547 0.0
N1065 N 0.6565 0.33252 0.11301 0.0
H1066 H 0.54133 0.72058 0.10028 0.0
H1067 H 0.69197 0.62289 0.15898 0.0
H1068 H 0.53964 0.71656 0.1589 0.0
H1069 H 0.69069 0.62667 0.10035 0.0
H1070 H 0.63989 0.66246 0.15956 0.0
H1071 H 0.59928 0.6911 0.10046 0.0
C1072 C 0.55315 0.71351 0.11323 0.0
C1073 C 0.53537 0.7207 0.12962 0.0
C1074 C 0.65123 0.65486 0.14658 0.0
C1075 C 0.60202 0.68682 0.12987 0.0
C1076 C 0.681 0.63231 0.14622 0.0
C1077 C 0.69545 0.62105 0.12956 0.0
C1078 C 0.63582 0.66617 0.13018 0.0
C1079 C 0.68028 0.63434 0.1135 0.0
C1080 C 0.58638 0.69674 0.11331 0.0
C1081 C 0.55229 0.71129 0.14595 0.0
N1082 N 0.65111 0.65595 0.11422 0.0
N1083 N 0.58464 0.69455 0.14566 0.0
H1084 H 0.257 0.53996 0.1025 0.0
H1085 H 0.35536 0.69627 0.15712 0.0
H1086 H 0.26535 0.54248 0.161 0.0
H1087 H 0.35381 0.68768 0.09862 0.0
H1088 H 0.31535 0.64473 0.15894 0.0
H1089 H 0.2858 0.59825 0.10111 0.0
C1090 C 0.26483 0.55278 0.1151 0.0
C1091 C 0.25912 0.53605 0.13191 0.0
C1092 C 0.32352 0.65434 0.14571 0.0
C1093 C 0.29219 0.60308 0.13036 0.0
C1094 C 0.34631 0.68383 0.14464 0.0
C1095 C 0.35841 0.69601 0.12768 0.0
C1096 C 0.31275 0.63692 0.12973 0.0
C1097 C 0.3455 0.67902 0.11199 0.0
C1098 C 0.28123 0.58618 0.11427 0.0
C1099 C 0.26949 0.55425 0.14775 0.0
N1100 N 0.32363 0.65012 0.11341 0.0
N1101 N 0.28579 0.58674 0.14657 0.0
H1102 H 0.29005 0.35361 0.10098 0.0
H1103 H 0.44243 0.26071 0.16086 0.0
H1104 H 0.29228 0.35685 0.15962 0.0
H1105 H 0.43989 0.2597 0.1022 0.0
H1106 H 0.38408 0.29053 0.16092 0.0
H1107 H 0.34126 0.31312 0.10143 0.0
C1108 C 0.30106 0.34555 0.11396 0.0
C1109 C 0.28715 0.35906 0.13027 0.0
C1110 C 0.39625 0.28355 0.14806 0.0
C1111 C 0.34599 0.31293 0.13088 0.0
C1112 C 0.42957 0.26659 0.14801 0.0
C1113 C 0.44628 0.25807 0.1315 0.0
C1114 C 0.37962 0.29203 0.13149 0.0
C1115 C 0.42825 0.26609 0.11527 0.0
C1116 C 0.33037 0.32246 0.11421 0.0
C1117 C 0.30237 0.34743 0.14669 0.0
N1118 N 0.39602 0.2828 0.11568 0.0
N1119 N 0.33123 0.3253 0.14657 0.0
H1120 H -0.00627 0.30069 0.45899 0.0
H1121 H 0.98912 0.22973 0.56073 0.0
H1122 H 0.04662 0.20311 0.47546 0.0
H1123 H 0.90309 0.29288 0.53816 0.0
H1124 H 0.01654 0.22625 0.53068 0.0
H1125 H 0.96663 0.30509 0.48919 0.0
C1126 C -7e-05 0.28037 0.46901 0.0
C1127 C 0.02249 0.25144 0.4647 0.0
C1128 C 0.99163 0.24079 0.5323 0.0
C1129 C 0.99164 0.25648 0.49923 0.0
C1130 C 0.97598 0.24291 0.54944 0.0
C1131 C 0.94369 0.26159 0.55194 0.0
C1132 C 0.97529 0.25803 0.51755 0.0
C1133 C 0.92786 0.27803 0.5368 0.0
C1134 C 0.98423 0.28279 0.48617 0.0
C1135 C 0.02935 0.22579 0.47818 0.0
N1136 N 0.94398 0.27611 0.52025 0.0
N1137 N 0.01412 0.229 0.49487 0.0
H1138 H 0.71645 0.90195 0.53412 0.0
H1139 H 0.72924 0.08447 0.47762 0.0
H1140 H 0.71402 0.00676 0.559 0.0
H1141 H 0.70396 0.98231 0.45316 0.0
H1142 H 0.72699 0.05617 0.50758 0.0
H1143 H 0.71526 0.93053 0.50419 0.0
C1144 C 0.7156 0.93092 0.53331 0.0
C1145 C 0.71538 0.95194 0.54911 0.0
C1146 C 0.72177 0.04002 0.49564 0.0
C1147 C 0.71424 0.98482 0.51494 0.0
C1148 C 0.72309 0.05616 0.47854 0.0
C1149 C 0.71684 0.03577 0.46283 0.0
C1150 C 0.71454 0.00314 0.49705 0.0
C1151 C 0.70894 -0.00085 0.46488 0.0
C1152 C 0.71485 0.94722 0.51622 0.0
C1153 C 0.71421 0.98941 0.54721 0.0
N1154 N 0.70825 0.98399 0.48163 0.0
N1155 N 0.71388 0.00462 0.53046 0.0
H1156 H 0.05405 0.77262 0.54128 0.0
H1157 H 0.90612 0.68253 0.4776 0.0
H1158 H -0.00646 0.67961 0.55772 0.0
H1159 H -0.00687 0.74661 0.4568 0.0
H1160 H 0.93345 0.6855 0.50791 0.0
H1161 H 0.02809 0.76752 0.51086 0.0
C1162 C 0.03546 0.75101 0.53847 0.0
C1163 C 0.02601 0.72649 0.55207 0.0
C1164 C 0.94652 0.69882 0.49667 0.0
C1165 C -0.00427 0.72086 0.51736 0.0
C1166 C 0.93085 0.69731 0.47941 0.0
C1167 C 0.94734 0.71435 0.46464 0.0
C1168 C 0.97858 0.71798 0.49921 0.0
C1169 C 0.97949 0.73298 0.46776 0.0
C1170 C 0.02066 0.74811 0.5211 0.0
C1171 C 0.00173 0.69902 0.54763 0.0
N1172 N -0.00608 0.73446 0.48469 0.0
N1173 N 0.98719 0.69713 0.53071 0.0
H1174 H 0.24211 0.98175 0.55558 0.0
H1175 H 0.30212 -0.00697 0.45204 0.0
H1176 H 0.29051 0.07683 0.53306 0.0
H1177 H 0.21553 0.92526 0.47014 0.0
H1178 H 0.30635 0.01843 0.48266 0.0
H1179 H 0.24001 0.95538 0.52523 0.0
C1180 C 0.25239 -0.00292 0.54425 0.0
C1181 C 0.26644 0.03163 0.54685 0.0
C1182 C 0.28653 -0.00207 0.4799 0.0
C1183 C 0.26445 0.00131 0.51209 0.0
C1184 C 0.28423 0.98321 0.46249 0.0
C1185 C 0.25836 0.95698 0.45852 0.0
C1186 C 0.26323 0.9859 0.49353 0.0
C1187 C 0.23578 0.94548 0.47258 0.0
C1188 C 0.25106 0.98202 0.52693 0.0
C1189 C 0.27926 0.05024 0.53164 0.0
N1190 N 0.23883 0.95991 0.48947 0.0
N1191 N 0.27818 0.03474 0.51489 0.0
H1192 H 0.52641 0.72086 0.9619 0.0
H1193 H 0.42016 0.82324 0.0381 0.0
H1194 H 0.54016 0.83493 0.96803 0.0
H1195 H 0.4752 0.72469 0.05059 0.0
H1196 H 0.45204 0.82553 0.00882 0.0
H1197 H 0.49617 0.71902 0.99149 0.0
C1198 C 0.52328 0.74543 0.96959 0.0
C1199 C 0.5361 0.77802 0.96274 0.0
C1200 C 0.45687 0.8034 0.018 0.0
C1201 C 0.50048 0.7763 0.99601 0.0
C1202 C 0.43852 0.80188 0.03454 0.0
C1203 C 0.44505 0.77365 0.04664 0.0
C1204 C 0.48098 0.77596 0.01344 0.0
C1205 C 0.46948 0.74687 0.04157 0.0
C1206 C 0.50604 0.74437 0.98637 0.0
C1207 C 0.5311 0.80923 0.97306 0.0
N1208 N 0.48632 0.74846 0.02525 0.0
N1209 N 0.51317 0.80773 0.98913 0.0
H1210 H 0.27567 0.42979 0.04289 0.0
H1211 H 0.18675 0.57786 0.97952 0.0
H1212 H 0.1803 0.48719 0.05877 0.0
H1213 H 0.24758 0.48902 0.95812 0.0
H1214 H 0.18941 0.55018 0.00976 0.0
H1215 H 0.27081 0.45601 0.01253 0.0
C1216 C 0.25359 0.44772 0.03996 0.0
C1217 C 0.22831 0.45623 0.05337 0.0
C1218 C 0.2021 0.53682 0.9984 0.0
C1219 C 0.22302 0.48684 0.01879 0.0
C1220 C 0.2008 0.55268 0.9812 0.0
C1221 C 0.21697 0.53572 0.9663 0.0
C1222 C 0.22031 0.50417 1.00073 0.0
C1223 C 0.23462 0.50297 0.96922 0.0
C1224 C 0.25083 0.46266 0.02264 0.0
C1225 C 0.20027 0.47972 0.04881 0.0
N1226 N 0.23604 0.48841 0.98609 0.0
N1227 N 0.19857 0.4945 0.03195 0.0
H1228 H 0.56454 0.26527 0.03688 0.0
H1229 H 0.4001 0.19819 0.97655 0.0
H1230 H 0.48726 0.18862 0.0566 0.0
H1231 H 0.49866 0.23741 0.95329 0.0
H1232 H 0.42817 0.20019 0.00672 0.0
H1233 H 0.53755 0.26084 1.00663 0.0
C1234 C 0.54203 0.24739 0.03483 0.0
C1235 C 0.5282 0.22726 0.04929 0.0
C1236 C 0.4436 0.20825 0.99497 0.0
C1237 C 0.49683 0.22252 0.01479 0.0
C1238 C 0.42756 0.20728 0.97778 0.0
C1239 C 0.44705 0.21761 0.96237 0.0
C1240 C 0.47913 0.22026 0.99677 0.0
C1241 C 0.48263 0.22904 0.96477 0.0
C1242 C 0.52666 0.24486 0.01757 0.0
C1243 C 0.49892 0.20453 0.04584 0.0
N1244 N 0.49742 0.23029 0.98163 0.0
N1245 N 0.48401 0.20301 0.02899 0.0
H1246 H 0.80892 0.40636 0.97717 0.0
H1247 H 0.6985 0.53487 0.04316 0.0
H1248 H 0.72718 0.47886 0.95798 0.0
H1249 H 0.80526 0.49851 0.05615 0.0
H1250 H 0.70458 0.50839 0.0129 0.0
H1251 H 0.80366 0.43319 0.00756 0.0
C1252 C 0.78972 0.42768 0.97938 0.0
C1253 C 0.76849 0.44042 0.96504 0.0
C1254 C 0.72673 0.50639 0.02235 0.0
C1255 C 0.76226 0.471 0.99963 0.0
C1256 C 0.72329 0.52149 0.03961 0.0
C1257 C 0.75146 0.51902 0.05217 0.0
C1258 C 0.7583 0.48807 0.01771 0.0
C1259 C 0.78297 0.50127 0.04684 0.0
C1260 C 0.78692 0.44313 0.99665 0.0
C1261 C 0.7442 0.4683 0.96862 0.0
N1262 N 0.78543 0.48618 0.03006 0.0
N1263 N 0.74163 0.48251 0.98555 0.0
loop_
_geom_bond_atom_site_label_1
_geom_bond_atom_site_label_2
_geom_bond_distance
_geom_bond_site_symmetry_2
_ccdc_geom_bond_type
Co0 O3 1.970 . S
Co0 N17 1.989 . S
Co0 O25 1.967 1_455 S
Co0 O32 1.920 . S
Co1 O4 1.966 . S
Co1 N10 2.022 . S
Co1 N18 1.993 . S
Co1 O26 1.941 1_455 S
C2 O3 1.258 . S
C2 O4 1.263 . S
O3 Co0 1.970 . S
O3 C2 1.258 . S
O4 Co1 1.966 . S
O4 C2 1.263 . S
C5 O6 1.235 . S
C5 O32 1.289 . S
O6 C5 1.235 . S
C7 C9 1.400 . S
C7 N10 1.351 . S
C7 C12 1.501 . S
C8 C9 1.387 . S
C8 N11 1.341 . S
C9 C7 1.400 . S
C9 C8 1.387 . S
N10 Co1 2.022 . S
N10 C7 1.351 . S
N10 N11 1.365 . S
N11 C8 1.341 . S
N11 N10 1.365 . S
N11 H31 0.862 . S
C12 C7 1.501 . S
C12 H13 0.961 . S
C12 H14 0.961 . S
C12 H15 0.960 . S
H13 C12 0.961 . S
H14 C12 0.961 . S
H15 C12 0.960 . S
C16 N17 1.342 . S
C16 C20 1.401 . S
C16 C21 1.499 . S
N17 Co0 1.989 . S
N17 C16 1.342 . S
N17 N18 1.388 . S
N18 Co1 1.993 . S
N18 N17 1.388 . S
N18 C19 1.346 . S
C19 N18 1.346 . S
C19 C20 1.396 . S
C19 C29 1.510 . S
C20 C16 1.401 . S
C20 C19 1.396 . S
C21 C16 1.499 . S
C21 H22 0.959 . S
C21 H23 0.960 . S
C21 H24 0.961 1_455 S
H22 C21 0.959 . S
H23 C21 0.960 . S
H24 C21 0.961 1_655 S
O25 Co0 1.967 1_655 S
O25 C33 1.258 . S
O26 Co1 1.941 1_655 S
O26 C33 1.266 . S
H27 C29 0.959 . S
H28 C29 0.961 . S
C29 C19 1.510 . S
C29 H27 0.959 . S
C29 H28 0.961 . S
C29 H30 0.960 . S
H30 C29 0.960 . S
H31 N11 0.862 . S
O32 Co0 1.920 . S
O32 C5 1.289 . S
C33 O25 1.258 . S
C33 O26 1.266 . S
Co34 O37 1.970 . S
Co34 N51 1.989 . S
Co34 O59 1.967 1_545 S
Co34 O66 1.920 . S
Co35 O38 1.966 . S
Co35 N44 2.022 . S
Co35 N52 1.993 . S
Co35 O60 1.941 1_545 S
C36 O37 1.258 . S
C36 O38 1.263 . S
O37 Co34 1.970 . S
O37 C36 1.258 . S
O38 Co35 1.966 . S
O38 C36 1.263 . S
C39 O40 1.235 . S
C39 O66 1.289 . S
O40 C39 1.235 . S
C41 C43 1.400 . S
C41 N44 1.351 . S
C41 C46 1.501 . S
C42 C43 1.387 . S
C42 N45 1.341 . S
C43 C41 1.400 . S
C43 C42 1.387 . S
N44 Co35 2.022 . S
N44 C41 1.351 . S
N44 N45 1.365 . S
N45 C42 1.341 . S
N45 N44 1.365 . S
N45 H65 0.862 . S
C46 C41 1.501 . S
C46 H47 0.961 . S
C46 H48 0.961 . S
C46 H49 0.960 . S
H47 C46 0.961 . S
H48 C46 0.961 . S
H49 C46 0.960 . S
C50 N51 1.342 . S
C50 C54 1.401 . S
C50 C55 1.499 . S
N51 Co34 1.989 . S
N51 C50 1.342 . S
N51 N52 1.388 . S
N52 Co35 1.993 . S
N52 N51 1.388 . S
N52 C53 1.346 . S
C53 N52 1.346 . S
C53 C54 1.396 . S
C53 C63 1.510 . S
C54 C50 1.401 . S
C54 C53 1.396 . S
C55 C50 1.499 . S
C55 H56 0.959 . S
C55 H57 0.960 . S
C55 H58 0.961 1_545 S
H56 C55 0.959 . S
H57 C55 0.960 . S
H58 C55 0.961 1_565 S
O59 Co34 1.967 1_565 S
O59 C67 1.258 . S
O60 Co35 1.941 1_565 S
O60 C67 1.266 . S
H61 C63 0.959 . S
H62 C63 0.961 . S
C63 C53 1.510 . S
C63 H61 0.959 . S
C63 H62 0.961 . S
C63 H64 0.960 . S
H64 C63 0.960 . S
H65 N45 0.862 . S
O66 Co34 1.920 . S
O66 C39 1.289 . S
C67 O59 1.258 . S
C67 O60 1.266 . S
Co68 O71 1.970 . S
Co68 N85 1.989 . S
Co68 O93 1.967 1_655 S
Co68 O100 1.920 . S
Co69 O72 1.966 . S
Co69 N78 2.022 . S
Co69 N86 1.993 . S
Co69 O94 1.941 1_655 S
C70 O71 1.258 . S
C70 O72 1.263 . S
O71 Co68 1.970 . S
O71 C70 1.258 . S
O72 Co69 1.966 . S
O72 C70 1.263 . S
C73 O74 1.235 . S
C73 O100 1.289 . S
O74 C73 1.235 . S
C75 C77 1.400 . S
C75 N78 1.351 . S
C75 C80 1.501 . S
C76 C77 1.387 . S
C76 N79 1.341 . S
C77 C75 1.400 . S
C77 C76 1.387 . S
N78 Co69 2.022 . S
N78 C75 1.351 . S
N78 N79 1.365 . S
N79 C76 1.341 . S
N79 N78 1.365 . S
N79 H99 0.862 . S
C80 C75 1.501 . S
C80 H81 0.961 . S
C80 H82 0.961 . S
C80 H83 0.960 . S
H81 C80 0.961 . S
H82 C80 0.961 . S
H83 C80 0.960 . S
C84 N85 1.342 . S
C84 C88 1.401 . S
C84 C89 1.499 . S
N85 Co68 1.989 . S
N85 C84 1.342 . S
N85 N86 1.388 . S
N86 Co69 1.993 . S
N86 N85 1.388 . S
N86 C87 1.346 . S
C87 N86 1.346 . S
C87 C88 1.396 . S
C87 C97 1.510 . S
C88 C84 1.401 . S
C88 C87 1.396 . S
C89 C84 1.499 . S
C89 H90 0.959 . S
C89 H91 0.960 . S
C89 H92 0.961 1_655 S
H90 C89 0.959 . S
H91 C89 0.960 . S
H92 C89 0.961 1_455 S
O93 Co68 1.967 1_455 S
O93 C101 1.258 . S
O94 Co69 1.941 1_455 S
O94 C101 1.266 . S
H95 C97 0.959 . S
H96 C97 0.961 . S
C97 C87 1.510 . S
C97 H95 0.959 . S
C97 H96 0.961 . S
C97 H98 0.960 . S
H98 C97 0.960 . S
H99 N79 0.862 . S
O100 Co68 1.920 . S
O100 C73 1.289 . S
C101 O93 1.258 . S
C101 O94 1.266 . S
Co102 O105 1.970 . S
Co102 N119 1.989 . S
Co102 O127 1.967 1_565 S
Co102 O134 1.920 . S
Co103 O106 1.966 . S
Co103 N112 2.022 . S
Co103 N120 1.993 . S
Co103 O128 1.941 1_565 S
C104 O105 1.258 . S
C104 O106 1.263 . S
O105 Co102 1.970 . S
O105 C104 1.258 . S
O106 Co103 1.966 . S
O106 C104 1.263 . S
C107 O108 1.235 . S
C107 O134 1.289 . S
O108 C107 1.235 . S
C109 C111 1.400 . S
C109 N112 1.351 . S
C109 C114 1.501 . S
C110 C111 1.387 . S
C110 N113 1.341 . S
C111 C109 1.400 . S
C111 C110 1.387 . S
N112 Co103 2.022 . S
N112 C109 1.351 . S
N112 N113 1.365 . S
N113 C110 1.341 . S
N113 N112 1.365 . S
N113 H133 0.862 . S
C114 C109 1.501 . S
C114 H115 0.961 . S
C114 H116 0.961 . S
C114 H117 0.960 . S
H115 C114 0.961 . S
H116 C114 0.961 . S
H117 C114 0.960 . S
C118 N119 1.342 . S
C118 C122 1.401 . S
C118 C123 1.499 . S
N119 Co102 1.989 . S
N119 C118 1.342 . S
N119 N120 1.388 . S
N120 Co103 1.993 . S
N120 N119 1.388 . S
N120 C121 1.346 . S
C121 N120 1.346 . S
C121 C122 1.396 . S
C121 C131 1.510 . S
C122 C118 1.401 . S
C122 C121 1.396 . S
C123 C118 1.499 . S
C123 H124 0.959 . S
C123 H125 0.960 . S
C123 H126 0.961 1_565 S
H124 C123 0.959 . S
H125 C123 0.960 . S
H126 C123 0.961 1_545 S
O127 Co102 1.967 1_545 S
O127 C135 1.258 . S
O128 Co103 1.941 1_545 S
O128 C135 1.266 . S
H129 C131 0.959 . S
H130 C131 0.961 . S
C131 C121 1.510 . S
C131 H129 0.959 . S
C131 H130 0.961 . S
C131 H132 0.960 . S
H132 C131 0.960 . S
H133 N113 0.862 . S
O134 Co102 1.920 . S
O134 C107 1.289 . S
C135 O127 1.258 . S
C135 O128 1.266 . S
Co136 O139 1.970 . S
Co136 N153 1.989 . S
Co136 O161 1.967 1_455 S
Co136 O168 1.920 . S
Co137 O140 1.966 . S
Co137 N146 2.022 . S
Co137 N154 1.993 . S
Co137 O162 1.941 1_455 S
C138 O139 1.258 . S
C138 O140 1.263 . S
O139 Co136 1.970 . S
O139 C138 1.258 . S
O140 Co137 1.966 . S
O140 C138 1.263 . S
C141 O142 1.235 . S
C141 O168 1.289 . S
O142 C141 1.235 . S
C143 C145 1.400 . S
C143 N146 1.351 . S
C143 C148 1.501 . S
C144 C145 1.387 . S
C144 N147 1.341 . S
C145 C143 1.400 . S
C145 C144 1.387 . S
N146 Co137 2.022 . S
N146 C143 1.351 . S
N146 N147 1.365 . S
N147 C144 1.341 . S
N147 N146 1.365 . S
N147 H167 0.862 . S
C148 C143 1.501 . S
C148 H149 0.961 . S
C148 H150 0.961 . S
C148 H151 0.960 . S
H149 C148 0.961 . S
H150 C148 0.961 . S
H151 C148 0.960 . S
C152 N153 1.342 . S
C152 C156 1.401 . S
C152 C157 1.499 . S
N153 Co136 1.989 . S
N153 C152 1.342 . S
N153 N154 1.388 . S
N154 Co137 1.993 . S
N154 N153 1.388 . S
N154 C155 1.346 . S
C155 N154 1.346 . S
C155 C156 1.396 . S
C155 C165 1.510 . S
C156 C152 1.401 . S
C156 C155 1.396 . S
C157 C152 1.499 . S
C157 H158 0.959 . S
C157 H159 0.960 . S
C157 H160 0.961 1_455 S
H158 C157 0.959 . S
H159 C157 0.960 . S
H160 C157 0.961 1_655 S
O161 Co136 1.967 1_655 S
O161 C169 1.258 . S
O162 Co137 1.941 1_655 S
O162 C169 1.266 . S
H163 C165 0.959 . S
H164 C165 0.961 . S
C165 C155 1.510 . S
C165 H163 0.959 . S
C165 H164 0.961 . S
C165 H166 0.960 . S
H166 C165 0.960 . S
H167 N147 0.862 . S
O168 Co136 1.920 . S
O168 C141 1.289 . S
C169 O161 1.258 . S
C169 O162 1.266 . S
Co170 O173 1.970 . S
Co170 N187 1.989 . S
Co170 O195 1.967 1_545 S
Co170 O202 1.920 . S
Co171 O174 1.966 . S
Co171 N180 2.022 . S
Co171 N188 1.993 . S
Co171 O196 1.941 1_545 S
C172 O173 1.258 . S
C172 O174 1.263 . S
O173 Co170 1.970 . S
O173 C172 1.258 . S
O174 Co171 1.966 . S
O174 C172 1.263 . S
C175 O176 1.235 . S
C175 O202 1.289 . S
O176 C175 1.235 . S
C177 C179 1.400 . S
C177 N180 1.351 . S
C177 C182 1.501 . S
C178 C179 1.387 . S
C178 N181 1.341 . S
C179 C177 1.400 . S
C179 C178 1.387 . S
N180 Co171 2.022 . S
N180 C177 1.351 . S
N180 N181 1.365 . S
N181 C178 1.341 . S
N181 N180 1.365 . S
N181 H201 0.862 . S
C182 C177 1.501 . S
C182 H183 0.961 . S
C182 H184 0.961 . S
C182 H185 0.960 . S
H183 C182 0.961 . S
H184 C182 0.961 . S
H185 C182 0.960 . S
C186 N187 1.342 . S
C186 C190 1.401 . S
C186 C191 1.499 . S
N187 Co170 1.989 . S
N187 C186 1.342 . S
N187 N188 1.388 . S
N188 Co171 1.993 . S
N188 N187 1.388 . S
N188 C189 1.346 . S
C189 N188 1.346 . S
C189 C190 1.396 . S
C189 C199 1.510 . S
C190 C186 1.401 . S
C190 C189 1.396 . S
C191 C186 1.499 . S
C191 H192 0.959 . S
C191 H193 0.960 . S
C191 H194 0.961 1_545 S
H192 C191 0.959 . S
H193 C191 0.960 . S
H194 C191 0.961 1_565 S
O195 Co170 1.967 1_565 S
O195 C203 1.258 . S
O196 Co171 1.941 1_565 S
O196 C203 1.266 . S
H197 C199 0.959 . S
H198 C199 0.961 . S
C199 C189 1.510 . S
C199 H197 0.959 . S
C199 H198 0.961 . S
C199 H200 0.960 . S
H200 C199 0.960 . S
H201 N181 0.862 . S
O202 Co170 1.920 . S
O202 C175 1.289 . S
C203 O195 1.258 . S
C203 O196 1.266 . S
Co204 O207 1.970 . S
Co204 N221 1.989 . S
Co204 O229 1.967 1_655 S
Co204 O236 1.920 . S
Co205 O208 1.966 . S
Co205 N214 2.022 . S
Co205 N222 1.993 . S
Co205 O230 1.941 1_655 S
C206 O207 1.258 . S
C206 O208 1.263 . S
O207 Co204 1.970 . S
O207 C206 1.258 . S
O208 Co205 1.966 . S
O208 C206 1.263 . S
C209 O210 1.235 . S
C209 O236 1.289 . S
O210 C209 1.235 . S
C211 C213 1.400 . S
C211 N214 1.351 . S
C211 C216 1.501 . S
C212 C213 1.387 . S
C212 N215 1.341 . S
C213 C211 1.400 . S
C213 C212 1.387 . S
N214 Co205 2.022 . S
N214 C211 1.351 . S
N214 N215 1.365 . S
N215 C212 1.341 . S
N215 N214 1.365 . S
N215 H235 0.862 . S
C216 C211 1.501 . S
C216 H217 0.961 . S
C216 H218 0.961 . S
C216 H219 0.960 . S
H217 C216 0.961 . S
H218 C216 0.961 . S
H219 C216 0.960 . S
C220 N221 1.342 . S
C220 C224 1.401 . S
C220 C225 1.499 . S
N221 Co204 1.989 . S
N221 C220 1.342 . S
N221 N222 1.388 . S
N222 Co205 1.993 . S
N222 N221 1.388 . S
N222 C223 1.346 . S
C223 N222 1.346 . S
C223 C224 1.396 . S
C223 C233 1.510 . S
C224 C220 1.401 . S
C224 C223 1.396 . S
C225 C220 1.499 . S
C225 H226 0.959 . S
C225 H227 0.960 . S
C225 H228 0.961 1_655 S
H226 C225 0.959 . S
H227 C225 0.960 . S
H228 C225 0.961 1_455 S
O229 Co204 1.967 1_455 S
O229 C237 1.258 . S
O230 Co205 1.941 1_455 S
O230 C237 1.266 . S
H231 C233 0.959 . S
H232 C233 0.961 . S
C233 C223 1.510 . S
C233 H231 0.959 . S
C233 H232 0.961 . S
C233 H234 0.960 . S
H234 C233 0.960 . S
H235 N215 0.862 . S
O236 Co204 1.920 . S
O236 C209 1.289 . S
C237 O229 1.258 . S
C237 O230 1.266 . S
Co238 O241 1.970 . S
Co238 N255 1.989 . S
Co238 O263 1.967 1_565 S
Co238 O270 1.920 . S
Co239 O242 1.966 . S
Co239 N248 2.022 . S
Co239 N256 1.993 . S
Co239 O264 1.941 1_565 S
C240 O241 1.258 . S
C240 O242 1.263 . S
O241 Co238 1.970 . S
O241 C240 1.258 . S
O242 Co239 1.966 . S
O242 C240 1.263 . S
C243 O244 1.235 . S
C243 O270 1.289 . S
O244 C243 1.235 . S
C245 C247 1.400 . S
C245 N248 1.351 . S
C245 C250 1.501 . S
C246 C247 1.387 . S
C246 N249 1.341 . S
C247 C245 1.400 . S
C247 C246 1.387 . S
N248 Co239 2.022 . S
N248 C245 1.351 . S
N248 N249 1.365 . S
N249 C246 1.341 . S
N249 N248 1.365 . S
N249 H269 0.862 . S
C250 C245 1.501 . S
C250 H251 0.961 . S
C250 H252 0.961 . S
C250 H253 0.960 . S
H251 C250 0.961 . S
H252 C250 0.961 . S
H253 C250 0.960 . S
C254 N255 1.342 . S
C254 C258 1.401 . S
C254 C259 1.499 . S
N255 Co238 1.989 . S
N255 C254 1.342 . S
N255 N256 1.388 . S
N256 Co239 1.993 . S
N256 N255 1.388 . S
N256 C257 1.346 . S
C257 N256 1.346 . S
C257 C258 1.396 . S
C257 C267 1.510 . S
C258 C254 1.401 . S
C258 C257 1.396 . S
C259 C254 1.499 . S
C259 H260 0.959 . S
C259 H261 0.960 . S
C259 H262 0.961 1_565 S
H260 C259 0.959 . S
H261 C259 0.960 . S
H262 C259 0.961 1_545 S
O263 Co238 1.967 1_545 S
O263 C271 1.258 . S
O264 Co239 1.941 1_545 S
O264 C271 1.266 . S
H265 C267 0.959 . S
H266 C267 0.961 . S
C267 C257 1.510 . S
C267 H265 0.959 . S
C267 H266 0.961 . S
C267 H268 0.960 . S
H268 C267 0.960 . S
H269 N249 0.862 . S
O270 Co238 1.920 . S
O270 C243 1.289 . S
C271 O263 1.258 . S
C271 O264 1.266 . S
Co272 O275 1.970 . S
Co272 N289 1.989 . S
Co272 O297 1.967 . S
Co272 O304 1.920 . S
Co273 O276 1.966 . S
Co273 N282 2.022 . S
Co273 N290 1.993 . S
Co273 O298 1.941 . S
C274 O275 1.258 . S
C274 O276 1.263 . S
O275 Co272 1.970 . S
O275 C274 1.258 . S
O276 Co273 1.966 . S
O276 C274 1.263 . S
C277 O278 1.235 . S
C277 O304 1.289 . S
O278 C277 1.235 . S
C279 C281 1.400 . S
C279 N282 1.351 . S
C279 C284 1.501 . S
C280 C281 1.387 . S
C280 N283 1.341 . S
C281 C279 1.400 . S
C281 C280 1.387 . S
N282 Co273 2.022 . S
N282 C279 1.351 . S
N282 N283 1.365 . S
N283 C280 1.341 . S
N283 N282 1.365 . S
N283 H303 0.862 . S
C284 C279 1.501 . S
C284 H285 0.961 . S
C284 H286 0.961 . S
C284 H287 0.960 . S
H285 C284 0.961 . S
H286 C284 0.961 . S
H287 C284 0.960 . S
C288 N289 1.342 . S
C288 C292 1.401 . S
C288 C293 1.499 . S
N289 Co272 1.989 . S
N289 C288 1.342 . S
N289 N290 1.388 . S
N290 Co273 1.993 . S
N290 N289 1.388 . S
N290 C291 1.346 . S
C291 N290 1.346 . S
C291 C292 1.396 . S
C291 C301 1.510 . S
C292 C288 1.401 . S
C292 C291 1.396 . S
C293 C288 1.499 . S
C293 H294 0.959 . S
C293 H295 0.960 . S
C293 H296 0.961 . S
H294 C293 0.959 . S
H295 C293 0.960 . S
H296 C293 0.961 . S
O297 Co272 1.967 . S
O297 C305 1.258 . S
O298 Co273 1.941 . S
O298 C305 1.266 . S
H299 C301 0.959 . S
H300 C301 0.961 . S
C301 C291 1.510 . S
C301 H299 0.959 . S
C301 H300 0.961 . S
C301 H302 0.960 . S
H302 C301 0.960 . S
H303 N283 0.862 . S
O304 Co272 1.920 . S
O304 C277 1.289 . S
C305 O297 1.258 . S
C305 O298 1.266 . S
Co306 O309 1.970 . S
Co306 N323 1.989 . S
Co306 O331 1.967 . S
Co306 O338 1.920 . S
Co307 O310 1.966 . S
Co307 N316 2.022 . S
Co307 N324 1.993 . S
Co307 O332 1.941 . S
C308 O309 1.258 . S
C308 O310 1.263 . S
O309 Co306 1.970 . S
O309 C308 1.258 . S
O310 Co307 1.966 . S
O310 C308 1.263 . S
C311 O312 1.235 . S
C311 O338 1.289 . S
O312 C311 1.235 . S
C313 C315 1.400 . S
C313 N316 1.351 . S
C313 C318 1.501 . S
C314 C315 1.387 . S
C314 N317 1.341 . S
C315 C313 1.400 . S
C315 C314 1.387 . S
N316 Co307 2.022 . S
N316 C313 1.351 . S
N316 N317 1.365 . S
N317 C314 1.341 . S
N317 N316 1.365 . S
N317 H337 0.862 . S
C318 C313 1.501 . S
C318 H319 0.961 . S
C318 H320 0.961 . S
C318 H321 0.960 . S
H319 C318 0.961 . S
H320 C318 0.961 . S
H321 C318 0.960 . S
C322 N323 1.342 . S
C322 C326 1.401 . S
C322 C327 1.499 . S
N323 Co306 1.989 . S
N323 C322 1.342 . S
N323 N324 1.388 . S
N324 Co307 1.993 . S
N324 N323 1.388 . S
N324 C325 1.346 . S
C325 N324 1.346 . S
C325 C326 1.396 . S
C325 C335 1.510 . S
C326 C322 1.401 . S
C326 C325 1.396 . S
C327 C322 1.499 . S
C327 H328 0.959 . S
C327 H329 0.960 . S
C327 H330 0.961 . S
H328 C327 0.959 . S
H329 C327 0.960 . S
H330 C327 0.961 . S
O331 Co306 1.967 . S
O331 C339 1.258 . S
O332 Co307 1.941 . S
O332 C339 1.266 . S
H333 C335 0.959 . S
H334 C335 0.961 . S
C335 C325 1.510 . S
C335 H333 0.959 . S
C335 H334 0.961 . S
C335 H336 0.960 . S
H336 C335 0.960 . S
H337 N317 0.862 . S
O338 Co306 1.920 . S
O338 C311 1.289 . S
C339 O331 1.258 . S
C339 O332 1.266 . S
Co340 O343 1.970 . S
Co340 N357 1.989 . S
Co340 O365 1.967 . S
Co340 O372 1.920 . S
Co341 O344 1.966 . S
Co341 N350 2.022 . S
Co341 N358 1.993 . S
Co341 O366 1.941 . S
C342 O343 1.258 . S
C342 O344 1.263 . S
O343 Co340 1.970 . S
O343 C342 1.258 . S
O344 Co341 1.966 . S
O344 C342 1.263 . S
C345 O346 1.235 . S
C345 O372 1.289 . S
O346 C345 1.235 . S
C347 C349 1.400 . S
C347 N350 1.351 . S
C347 C352 1.501 . S
C348 C349 1.387 . S
C348 N351 1.341 . S
C349 C347 1.400 . S
C349 C348 1.387 . S
N350 Co341 2.022 . S
N350 C347 1.351 . S
N350 N351 1.365 . S
N351 C348 1.341 . S
N351 N350 1.365 . S
N351 H371 0.862 . S
C352 C347 1.501 . S
C352 H353 0.961 . S
C352 H354 0.961 . S
C352 H355 0.960 . S
H353 C352 0.961 . S
H354 C352 0.961 . S
H355 C352 0.960 . S
C356 N357 1.342 . S
C356 C360 1.401 . S
C356 C361 1.499 . S
N357 Co340 1.989 . S
N357 C356 1.342 . S
N357 N358 1.388 . S
N358 Co341 1.993 . S
N358 N357 1.388 . S
N358 C359 1.346 . S
C359 N358 1.346 . S
C359 C360 1.396 . S
C359 C369 1.510 . S
C360 C356 1.401 . S
C360 C359 1.396 . S
C361 C356 1.499 . S
C361 H362 0.959 . S
C361 H363 0.960 . S
C361 H364 0.961 . S
H362 C361 0.959 . S
H363 C361 0.960 . S
H364 C361 0.961 . S
O365 Co340 1.967 . S
O365 C373 1.258 . S
O366 Co341 1.941 . S
O366 C373 1.266 . S
H367 C369 0.959 . S
H368 C369 0.961 . S
C369 C359 1.510 . S
C369 H367 0.959 . S
C369 H368 0.961 . S
C369 H370 0.960 . S
H370 C369 0.960 . S
H371 N351 0.862 . S
O372 Co340 1.920 . S
O372 C345 1.289 . S
C373 O365 1.258 . S
C373 O366 1.266 . S
Co374 O377 1.970 . S
Co374 N391 1.989 . S
Co374 O399 1.967 . S
Co374 O406 1.920 . S
Co375 O378 1.966 . S
Co375 N384 2.022 . S
Co375 N392 1.993 . S
Co375 O400 1.941 . S
C376 O377 1.258 . S
C376 O378 1.263 . S
O377 Co374 1.970 . S
O377 C376 1.258 . S
O378 Co375 1.966 . S
O378 C376 1.263 . S
C379 O380 1.235 . S
C379 O406 1.289 . S
O380 C379 1.235 . S
C381 C383 1.400 . S
C381 N384 1.351 . S
C381 C386 1.501 . S
C382 C383 1.387 . S
C382 N385 1.341 . S
C383 C381 1.400 . S
C383 C382 1.387 . S
N384 Co375 2.022 . S
N384 C381 1.351 . S
N384 N385 1.365 . S
N385 C382 1.341 . S
N385 N384 1.365 . S
N385 H405 0.862 . S
C386 C381 1.501 . S
C386 H387 0.961 . S
C386 H388 0.961 . S
C386 H389 0.960 . S
H387 C386 0.961 . S
H388 C386 0.961 . S
H389 C386 0.960 . S
C390 N391 1.342 . S
C390 C394 1.401 . S
C390 C395 1.499 . S
N391 Co374 1.989 . S
N391 C390 1.342 . S
N391 N392 1.388 . S
N392 Co375 1.993 . S
N392 N391 1.388 . S
N392 C393 1.346 . S
C393 N392 1.346 . S
C393 C394 1.396 . S
C393 C403 1.510 . S
C394 C390 1.401 . S
C394 C393 1.396 . S
C395 C390 1.499 . S
C395 H396 0.959 . S
C395 H397 0.960 . S
C395 H398 0.961 . S
H396 C395 0.959 . S
H397 C395 0.960 . S
H398 C395 0.961 . S
O399 Co374 1.967 . S
O399 C407 1.258 . S
O400 Co375 1.941 . S
O400 C407 1.266 . S
H401 C403 0.959 . S
H402 C403 0.961 . S
C403 C393 1.510 . S
C403 H401 0.959 . S
C403 H402 0.961 . S
C403 H404 0.960 . S
H404 C403 0.960 . S
H405 N385 0.862 . S
O406 Co374 1.920 . S
O406 C379 1.289 . S
C407 O399 1.258 . S
C407 O400 1.266 . S
Co408 O411 1.970 . S
Co408 N425 1.989 . S
Co408 O433 1.967 . S
Co408 O440 1.920 . S
Co409 O412 1.966 . S
Co409 N418 2.022 . S
Co409 N426 1.993 . S
Co409 O434 1.941 . S
C410 O411 1.258 . S
C410 O412 1.263 . S
O411 Co408 1.970 . S
O411 C410 1.258 . S
O412 Co409 1.966 . S
O412 C410 1.263 . S
C413 O414 1.235 . S
C413 O440 1.289 . S
O414 C413 1.235 . S
C415 C417 1.400 . S
C415 N418 1.351 . S
C415 C420 1.501 . S
C416 C417 1.387 . S
C416 N419 1.341 . S
C417 C415 1.400 . S
C417 C416 1.387 . S
N418 Co409 2.022 . S
N418 C415 1.351 . S
N418 N419 1.365 . S
N419 C416 1.341 . S
N419 N418 1.365 . S
N419 H439 0.862 . S
C420 C415 1.501 . S
C420 H421 0.961 . S
C420 H422 0.961 . S
C420 H423 0.960 . S
H421 C420 0.961 . S
H422 C420 0.961 . S
H423 C420 0.960 . S
C424 N425 1.342 . S
C424 C428 1.401 . S
C424 C429 1.499 . S
N425 Co408 1.989 . S
N425 C424 1.342 . S
N425 N426 1.388 . S
N426 Co409 1.993 . S
N426 N425 1.388 . S
N426 C427 1.346 . S
C427 N426 1.346 . S
C427 C428 1.396 . S
C427 C437 1.510 . S
C428 C424 1.401 . S
C428 C427 1.396 . S
C429 C424 1.499 . S
C429 H430 0.959 . S
C429 H431 0.960 . S
C429 H432 0.961 . S
H430 C429 0.959 . S
H431 C429 0.960 . S
H432 C429 0.961 . S
O433 Co408 1.967 . S
O433 C441 1.258 . S
O434 Co409 1.941 . S
O434 C441 1.266 . S
H435 C437 0.959 . S
H436 C437 0.961 . S
C437 C427 1.510 . S
C437 H435 0.959 . S
C437 H436 0.961 . S
C437 H438 0.960 . S
H438 C437 0.960 . S
H439 N419 0.862 . S
O440 Co408 1.920 . S
O440 C413 1.289 . S
C441 O433 1.258 . S
C441 O434 1.266 . S
Co442 O445 1.970 . S
Co442 N459 1.989 . S
Co442 O467 1.967 . S
Co442 O474 1.920 . S
Co443 O446 1.966 . S
Co443 N452 2.022 . S
Co443 N460 1.993 . S
Co443 O468 1.941 . S
C444 O445 1.258 . S
C444 O446 1.263 . S
O445 Co442 1.970 . S
O445 C444 1.258 . S
O446 Co443 1.966 . S
O446 C444 1.263 . S
C447 O448 1.235 . S
C447 O474 1.289 . S
O448 C447 1.235 . S
C449 C451 1.400 . S
C449 N452 1.351 . S
C449 C454 1.501 . S
C450 C451 1.387 . S
C450 N453 1.341 . S
C451 C449 1.400 . S
C451 C450 1.387 . S
N452 Co443 2.022 . S
N452 C449 1.351 . S
N452 N453 1.365 . S
N453 C450 1.341 . S
N453 N452 1.365 . S
N453 H473 0.862 . S
C454 C449 1.501 . S
C454 H455 0.961 . S
C454 H456 0.961 . S
C454 H457 0.960 . S
H455 C454 0.961 . S
H456 C454 0.961 . S
H457 C454 0.960 . S
C458 N459 1.342 . S
C458 C462 1.401 . S
C458 C463 1.499 . S
N459 Co442 1.989 . S
N459 C458 1.342 . S
N459 N460 1.388 . S
N460 Co443 1.993 . S
N460 N459 1.388 . S
N460 C461 1.346 . S
C461 N460 1.346 . S
C461 C462 1.396 . S
C461 C471 1.510 . S
C462 C458 1.401 . S
C462 C461 1.396 . S
C463 C458 1.499 . S
C463 H464 0.959 . S
C463 H465 0.960 . S
C463 H466 0.961 . S
H464 C463 0.959 . S
H465 C463 0.960 . S
H466 C463 0.961 . S
O467 Co442 1.967 . S
O467 C475 1.258 . S
O468 Co443 1.941 . S
O468 C475 1.266 . S
H469 C471 0.959 . S
H470 C471 0.961 . S
C471 C461 1.510 . S
C471 H469 0.959 . S
C471 H470 0.961 . S
C471 H472 0.960 . S
H472 C471 0.960 . S
H473 N453 0.862 . S
O474 Co442 1.920 . S
O474 C447 1.289 . S
C475 O467 1.258 . S
C475 O468 1.266 . S
Co476 O479 1.970 . S
Co476 N493 1.989 . S
Co476 O501 1.967 . S
Co476 O508 1.920 . S
Co477 O480 1.966 . S
Co477 N486 2.022 . S
Co477 N494 1.993 . S
Co477 O502 1.941 . S
C478 O479 1.258 . S
C478 O480 1.263 . S
O479 Co476 1.970 . S
O479 C478 1.258 . S
O480 Co477 1.966 . S
O480 C478 1.263 . S
C481 O482 1.235 . S
C481 O508 1.289 . S
O482 C481 1.235 . S
C483 C485 1.400 . S
C483 N486 1.351 . S
C483 C488 1.501 . S
C484 C485 1.387 . S
C484 N487 1.341 . S
C485 C483 1.400 . S
C485 C484 1.387 . S
N486 Co477 2.022 . S
N486 C483 1.351 . S
N486 N487 1.365 . S
N487 C484 1.341 . S
N487 N486 1.365 . S
N487 H507 0.862 . S
C488 C483 1.501 . S
C488 H489 0.961 . S
C488 H490 0.961 . S
C488 H491 0.960 . S
H489 C488 0.961 . S
H490 C488 0.961 . S
H491 C488 0.960 . S
C492 N493 1.342 . S
C492 C496 1.401 . S
C492 C497 1.499 . S
N493 Co476 1.989 . S
N493 C492 1.342 . S
N493 N494 1.388 . S
N494 Co477 1.993 . S
N494 N493 1.388 . S
N494 C495 1.346 . S
C495 N494 1.346 . S
C495 C496 1.396 . S
C495 C505 1.510 . S
C496 C492 1.401 . S
C496 C495 1.396 . S
C497 C492 1.499 . S
C497 H498 0.959 . S
C497 H499 0.960 . S
C497 H500 0.961 . S
H498 C497 0.959 . S
H499 C497 0.960 . S
H500 C497 0.961 . S
O501 Co476 1.967 . S
O501 C509 1.258 . S
O502 Co477 1.941 . S
O502 C509 1.266 . S
H503 C505 0.959 . S
H504 C505 0.961 . S
C505 C495 1.510 . S
C505 H503 0.959 . S
C505 H504 0.961 . S
C505 H506 0.960 . S
H506 C505 0.960 . S
H507 N487 0.862 . S
O508 Co476 1.920 . S
O508 C481 1.289 . S
C509 O501 1.258 . S
C509 O502 1.266 . S
Co510 O513 1.970 . S
Co510 N527 1.989 . S
Co510 O535 1.967 . S
Co510 O542 1.920 . S
Co511 O514 1.966 . S
Co511 N520 2.022 . S
Co511 N528 1.993 . S
Co511 O536 1.941 . S
C512 O513 1.258 . S
C512 O514 1.263 . S
O513 Co510 1.970 . S
O513 C512 1.258 . S
O514 Co511 1.966 . S
O514 C512 1.263 . S
C515 O516 1.235 . S
C515 O542 1.289 . S
O516 C515 1.235 . S
C517 C519 1.400 . S
C517 N520 1.351 . S
C517 C522 1.501 . S
C518 C519 1.387 . S
C518 N521 1.341 . S
C519 C517 1.400 . S
C519 C518 1.387 . S
N520 Co511 2.022 . S
N520 C517 1.351 . S
N520 N521 1.365 . S
N521 C518 1.341 . S
N521 N520 1.365 . S
N521 H541 0.862 . S
C522 C517 1.501 . S
C522 H523 0.961 . S
C522 H524 0.961 . S
C522 H525 0.960 . S
H523 C522 0.961 . S
H524 C522 0.961 . S
H525 C522 0.960 . S
C526 N527 1.342 . S
C526 C530 1.401 . S
C526 C531 1.499 . S
N527 Co510 1.989 . S
N527 C526 1.342 . S
N527 N528 1.388 . S
N528 Co511 1.993 . S
N528 N527 1.388 . S
N528 C529 1.346 . S
C529 N528 1.346 . S
C529 C530 1.396 . S
C529 C539 1.510 . S
C530 C526 1.401 . S
C530 C529 1.396 . S
C531 C526 1.499 . S
C531 H532 0.959 . S
C531 H533 0.960 . S
C531 H534 0.961 . S
H532 C531 0.959 . S
H533 C531 0.960 . S
H534 C531 0.961 . S
O535 Co510 1.967 . S
O535 C543 1.258 . S
O536 Co511 1.941 . S
O536 C543 1.266 . S
H537 C539 0.959 . S
H538 C539 0.961 . S
C539 C529 1.510 . S
C539 H537 0.959 . S
C539 H538 0.961 . S
C539 H540 0.960 . S
H540 C539 0.960 . S
H541 N521 0.862 . S
O542 Co510 1.920 . S
O542 C515 1.289 . S
C543 O535 1.258 . S
C543 O536 1.266 . S
H544 C550 0.930 . S
H545 C554 0.930 . S
H546 C559 0.929 . S
H547 C557 0.929 . S
H548 C552 0.929 . S
H549 C558 0.929 . S
C550 H544 0.930 . S
C550 C551 1.367 1_455 S
C550 C558 1.378 . S
C551 C550 1.367 1_655 S
C551 C559 1.433 . S
C552 H548 0.929 . S
C552 C554 1.378 . S
C552 C556 1.350 1_655 S
C553 C556 1.463 1_655 S
C553 C558 1.350 1_655 S
C553 N561 1.427 . S
C554 H545 0.930 . S
C554 C552 1.378 . S
C554 C555 1.367 1_655 S
C555 C554 1.367 1_455 S
C555 C557 1.433 . S
C556 C552 1.350 1_455 S
C556 C553 1.463 1_455 S
C556 N560 1.427 . S
C557 H547 0.929 . S
C557 C555 1.433 . S
C557 N560 1.384 . S
C558 H549 0.929 . S
C558 C550 1.378 . S
C558 C553 1.350 1_455 S
C559 H546 0.929 . S
C559 C551 1.433 . S
C559 N561 1.384 . S
N560 C556 1.427 . S
N560 C557 1.384 . S
N561 C553 1.427 . S
N561 C559 1.384 . S
H562 C568 0.930 . S
H563 C572 0.930 . S
H564 C577 0.924 1_565 S
H565 C575 0.924 1_545 S
H566 C570 0.929 . S
H567 C576 0.929 . S
C568 H562 0.930 . S
C568 C569 1.367 . S
C568 C576 1.378 . S
C569 C568 1.367 . S
C569 C577 1.443 . S
C570 H566 0.929 . S
C570 C572 1.378 . S
C570 C574 1.350 . S
C571 C574 1.463 1_545 S
C571 C576 1.350 . S
C571 N579 1.427 1_545 S
C572 H563 0.930 . S
C572 C570 1.378 . S
C572 C573 1.367 . S
C573 C572 1.367 . S
C573 C575 1.443 . S
C574 C570 1.350 . S
C574 C571 1.463 1_565 S
C574 N578 1.427 1_565 S
C575 H565 0.924 1_565 S
C575 C573 1.443 . S
C575 N578 1.380 1_565 S
C576 H567 0.929 . S
C576 C568 1.378 . S
C576 C571 1.350 . S
C577 H564 0.924 1_545 S
C577 C569 1.443 . S
C577 N579 1.380 1_545 S
N578 C574 1.427 1_545 S
N578 C575 1.380 1_545 S
N579 C571 1.427 1_565 S
N579 C577 1.380 1_565 S
H580 C586 0.930 . S
H581 C590 0.930 . S
H582 C595 0.929 . S
H583 C593 0.929 . S
H584 C588 0.929 . S
H585 C594 0.929 . S
C586 H580 0.930 . S
C586 C587 1.367 . S
C586 C594 1.378 1_655 S
C587 C586 1.367 . S
C587 C595 1.433 . S
C588 H584 0.929 . S
C588 C590 1.378 1_655 S
C588 C592 1.350 1_655 S
C589 C592 1.463 1_655 S
C589 C594 1.350 1_655 S
C589 N597 1.427 . S
C590 H581 0.930 . S
C590 C588 1.378 1_455 S
C590 C591 1.367 . S
C591 C590 1.367 . S
C591 C593 1.433 . S
C592 C588 1.350 1_455 S
C592 C589 1.463 1_455 S
C592 N596 1.427 . S
C593 H583 0.929 . S
C593 C591 1.433 . S
C593 N596 1.384 . S
C594 H585 0.929 . S
C594 C586 1.378 1_455 S
C594 C589 1.350 1_455 S
C595 H582 0.929 . S
C595 C587 1.433 . S
C595 N597 1.384 . S
N596 C592 1.427 . S
N596 C593 1.384 . S
N597 C589 1.427 . S
N597 C595 1.384 . S
H598 C604 0.930 . S
H599 C608 0.930 . S
H600 C613 0.929 . S
H601 C611 0.929 . S
H602 C606 0.929 . S
H603 C612 0.929 . S
C604 H598 0.930 . S
C604 C605 1.367 . S
C604 C612 1.378 . S
C605 C604 1.367 . S
C605 C613 1.433 . S
C606 H602 0.929 . S
C606 C608 1.378 . S
C606 C610 1.350 . S
C607 C610 1.463 1_565 S
C607 C612 1.350 . S
C607 N615 1.427 1_565 S
C608 H599 0.930 . S
C608 C606 1.378 . S
C608 C609 1.367 . S
C609 C608 1.367 . S
C609 C611 1.433 . S
C610 C606 1.350 . S
C610 C607 1.463 1_545 S
C610 N614 1.427 1_545 S
C611 H601 0.929 . S
C611 C609 1.433 . S
C611 N614 1.384 1_545 S
C612 H603 0.929 . S
C612 C604 1.378 . S
C612 C607 1.350 . S
C613 H600 0.929 . S
C613 C605 1.433 . S
C613 N615 1.384 1_565 S
N614 C610 1.427 1_565 S
N614 C611 1.384 1_565 S
N615 C607 1.427 1_545 S
N615 C613 1.384 1_545 S
H616 C622 0.930 . S
H617 C626 0.930 . S
H618 C631 0.929 . S
H619 C629 0.929 . S
H620 C624 0.929 . S
H621 C630 0.929 . S
C622 H616 0.930 . S
C622 C623 1.367 . S
C622 C630 1.378 . S
C623 C622 1.367 . S
C623 C631 1.433 . S
C624 H620 0.929 . S
C624 C626 1.378 . S
C624 C628 1.350 . S
C625 C628 1.463 1_565 S
C625 C630 1.350 . S
C625 N633 1.427 . S
C626 H617 0.930 . S
C626 C624 1.378 . S
C626 C627 1.367 . S
C627 C626 1.367 . S
C627 C629 1.433 . S
C628 C624 1.350 . S
C628 C625 1.463 1_545 S
C628 N632 1.427 . S
C629 H619 0.929 . S
C629 C627 1.433 . S
C629 N632 1.384 . S
C630 H621 0.929 . S
C630 C622 1.378 . S
C630 C625 1.350 . S
C631 H618 0.929 . S
C631 C623 1.433 . S
C631 N633 1.384 . S
N632 C628 1.427 . S
N632 C629 1.384 . S
N633 C625 1.427 . S
N633 C631 1.384 . S
H634 C640 0.930 . S
H635 C644 0.930 . S
H636 C649 0.929 . S
H637 C647 0.929 . S
H638 C642 0.929 . S
H639 C648 0.929 . S
C640 H634 0.930 . S
C640 C641 1.367 . S
C640 C648 1.378 . S
C641 C640 1.367 . S
C641 C649 1.433 . S
C642 H638 0.929 . S
C642 C644 1.378 . S
C642 C646 1.350 . S
C643 C646 1.463 1_655 S
C643 C648 1.350 . S
C643 N651 1.427 . S
C644 H635 0.930 . S
C644 C642 1.378 . S
C644 C645 1.367 . S
C645 C644 1.367 . S
C645 C647 1.433 . S
C646 C642 1.350 . S
C646 C643 1.463 1_455 S
C646 N650 1.427 . S
C647 H637 0.929 . S
C647 C645 1.433 . S
C647 N650 1.384 . S
C648 H639 0.929 . S
C648 C640 1.378 . S
C648 C643 1.350 . S
C649 H636 0.929 . S
C649 C641 1.433 . S
C649 N651 1.384 . S
N650 C646 1.427 . S
N650 C647 1.384 . S
N651 C643 1.427 . S
N651 C649 1.384 . S
H652 C658 0.930 . S
H653 C662 0.930 . S
H654 C667 0.929 . S
H655 C665 0.929 . S
H656 C660 0.929 . S
H657 C666 0.929 . S
C658 H652 0.930 . S
C658 C659 1.367 . S
C658 C666 1.378 . S
C659 C658 1.367 . S
C659 C667 1.433 . S
C660 H656 0.929 . S
C660 C662 1.378 . S
C660 C664 1.350 . S
C661 C664 1.463 1_565 S
C661 C666 1.350 . S
C661 N669 1.427 . S
C662 H653 0.930 . S
C662 C660 1.378 . S
C662 C663 1.367 . S
C663 C662 1.367 . S
C663 C665 1.433 . S
C664 C660 1.350 . S
C664 C661 1.463 1_545 S
C664 N668 1.427 . S
C665 H655 0.929 . S
C665 C663 1.433 . S
C665 N668 1.384 . S
C666 H657 0.929 . S
C666 C658 1.378 . S
C666 C661 1.350 . S
C667 H654 0.929 . S
C667 C659 1.433 . S
C667 N669 1.384 . S
N668 C664 1.427 . S
N668 C665 1.384 . S
N669 C661 1.427 . S
N669 C667 1.384 . S
H670 C676 0.930 . S
H671 C680 0.930 . S
H672 C685 0.929 . S
H673 C683 0.929 . S
H674 C678 0.929 . S
H675 C684 0.929 . S
C676 H670 0.930 . S
C676 C677 1.367 . S
C676 C684 1.378 . S
C677 C676 1.367 . S
C677 C685 1.433 . S
C678 H674 0.929 . S
C678 C680 1.378 . S
C678 C682 1.350 . S
C679 C682 1.463 1_655 S
C679 C684 1.350 . S
C679 N687 1.427 . S
C680 H671 0.930 . S
C680 C678 1.378 . S
C680 C681 1.367 . S
C681 C680 1.367 . S
C681 C683 1.433 . S
C682 C678 1.350 . S
C682 C679 1.463 1_455 S
C682 N686 1.427 . S
C683 H673 0.929 . S
C683 C681 1.433 . S
C683 N686 1.384 . S
C684 H675 0.929 . S
C684 C676 1.378 . S
C684 C679 1.350 . S
C685 H672 0.929 . S
C685 C677 1.433 . S
C685 N687 1.384 . S
N686 C682 1.427 . S
N686 C683 1.384 . S
N687 C679 1.427 . S
N687 C685 1.384 . S
H688 C694 0.930 . S
H689 C698 0.930 . S
H690 C703 0.929 . S
H691 C701 0.929 . S
H692 C696 0.929 . S
H693 C702 0.929 . S
C694 H688 0.930 . S
C694 C695 1.367 . S
C694 C702 1.378 . S
C695 C694 1.367 . S
C695 C703 1.433 . S
C696 H692 0.929 . S
C696 C698 1.378 . S
C696 C700 1.350 . S
C697 C700 1.463 . S
C697 C702 1.350 . S
C697 N705 1.427 . S
C698 H689 0.930 . S
C698 C696 1.378 . S
C698 C699 1.367 . S
C699 C698 1.367 . S
C699 C701 1.433 . S
C700 C696 1.350 . S
C700 C697 1.463 . S
C700 N704 1.427 . S
C701 H691 0.929 . S
C701 C699 1.433 . S
C701 N704 1.384 . S
C702 H693 0.929 . S
C702 C694 1.378 . S
C702 C697 1.350 . S
C703 H690 0.929 . S
C703 C695 1.433 . S
C703 N705 1.384 . S
N704 C700 1.427 . S
N704 C701 1.384 . S
N705 C697 1.427 . S
N705 C703 1.384 . S
H706 C712 0.930 . S
H707 C716 0.930 . S
H708 C721 0.929 . S
H709 C719 0.929 . S
H710 C714 0.929 . S
H711 C720 0.929 . S
C712 H706 0.930 . S
C712 C713 1.367 . S
C712 C720 1.378 . S
C713 C712 1.367 . S
C713 C721 1.433 . S
C714 H710 0.929 . S
C714 C716 1.378 . S
C714 C718 1.350 . S
C715 C718 1.463 . S
C715 C720 1.350 . S
C715 N723 1.427 . S
C716 H707 0.930 . S
C716 C714 1.378 . S
C716 C717 1.367 . S
C717 C716 1.367 . S
C717 C719 1.433 . S
C718 C714 1.350 . S
C718 C715 1.463 . S
C718 N722 1.427 . S
C719 H709 0.929 . S
C719 C717 1.433 . S
C719 N722 1.384 . S
C720 H711 0.929 . S
C720 C712 1.378 . S
C720 C715 1.350 . S
C721 H708 0.929 . S
C721 C713 1.433 . S
C721 N723 1.384 . S
N722 C718 1.427 . S
N722 C719 1.384 . S
N723 C715 1.427 . S
N723 C721 1.384 . S
H724 C730 0.930 . S
H725 C734 0.930 . S
H726 C739 0.929 . S
H727 C737 0.929 . S
H728 C732 0.929 . S
H729 C738 0.929 . S
C730 H724 0.930 . S
C730 C731 1.367 . S
C730 C738 1.378 . S
C731 C730 1.367 . S
C731 C739 1.433 . S
C732 H728 0.929 . S
C732 C734 1.378 . S
C732 C736 1.350 . S
C733 C736 1.463 . S
C733 C738 1.350 . S
C733 N741 1.427 . S
C734 H725 0.930 . S
C734 C732 1.378 . S
C734 C735 1.367 . S
C735 C734 1.367 . S
C735 C737 1.433 . S
C736 C732 1.350 . S
C736 C733 1.463 . S
C736 N740 1.427 . S
C737 H727 0.929 . S
C737 C735 1.433 . S
C737 N740 1.384 . S
C738 H729 0.929 . S
C738 C730 1.378 . S
C738 C733 1.350 . S
C739 H726 0.929 . S
C739 C731 1.433 . S
C739 N741 1.384 . S
N740 C736 1.427 . S
N740 C737 1.384 . S
N741 C733 1.427 . S
N741 C739 1.384 . S
H742 C748 0.930 . S
H743 C752 0.930 . S
H744 C757 0.929 . S
H745 C755 0.929 . S
H746 C750 0.929 . S
H747 C756 0.929 . S
C748 H742 0.930 . S
C748 C749 1.367 . S
C748 C756 1.378 . S
C749 C748 1.367 . S
C749 C757 1.433 . S
C750 H746 0.929 . S
C750 C752 1.378 . S
C750 C754 1.350 . S
C751 C754 1.463 . S
C751 C756 1.350 . S
C751 N759 1.427 . S
C752 H743 0.930 . S
C752 C750 1.378 . S
C752 C753 1.367 . S
C753 C752 1.367 . S
C753 C755 1.433 . S
C754 C750 1.350 . S
C754 C751 1.463 . S
C754 N758 1.427 . S
C755 H745 0.929 . S
C755 C753 1.433 . S
C755 N758 1.384 . S
C756 H747 0.929 . S
C756 C748 1.378 . S
C756 C751 1.350 . S
C757 H744 0.929 . S
C757 C749 1.433 . S
C757 N759 1.384 . S
N758 C754 1.427 . S
N758 C755 1.384 . S
N759 C751 1.427 . S
N759 C757 1.384 . S
H760 C766 0.930 . S
H761 C770 0.930 . S
H762 C775 0.929 . S
H763 C773 0.929 . S
H764 C768 0.929 . S
H765 C774 0.929 . S
C766 H760 0.930 . S
C766 C767 1.367 . S
C766 C774 1.378 . S
C767 C766 1.367 . S
C767 C775 1.433 . S
C768 H764 0.929 . S
C768 C770 1.378 . S
C768 C772 1.350 . S
C769 C772 1.463 . S
C769 C774 1.350 . S
C769 N777 1.427 . S
C770 H761 0.930 . S
C770 C768 1.378 . S
C770 C771 1.367 . S
C771 C770 1.367 . S
C771 C773 1.433 . S
C772 C768 1.350 . S
C772 C769 1.463 . S
C772 N776 1.427 . S
C773 H763 0.929 . S
C773 C771 1.433 . S
C773 N776 1.384 . S
C774 H765 0.929 . S
C774 C766 1.378 . S
C774 C769 1.350 . S
C775 H762 0.929 . S
C775 C767 1.433 . S
C775 N777 1.384 . S
N776 C772 1.427 . S
N776 C773 1.384 . S
N777 C769 1.427 . S
N777 C775 1.384 . S
H778 C784 0.930 . S
H779 C788 0.930 . S
H780 C793 0.929 . S
H781 C791 0.929 . S
H782 C786 0.929 . S
H783 C792 0.929 . S
C784 H778 0.930 . S
C784 C785 1.367 . S
C784 C792 1.378 . S
C785 C784 1.367 . S
C785 C793 1.433 . S
C786 H782 0.929 . S
C786 C788 1.378 . S
C786 C790 1.350 . S
C787 C790 1.463 . S
C787 C792 1.350 . S
C787 N795 1.427 . S
C788 H779 0.930 . S
C788 C786 1.378 . S
C788 C789 1.367 . S
C789 C788 1.367 . S
C789 C791 1.433 . S
C790 C786 1.350 . S
C790 C787 1.463 . S
C790 N794 1.427 . S
C791 H781 0.929 . S
C791 C789 1.433 . S
C791 N794 1.384 . S
C792 H783 0.929 . S
C792 C784 1.378 . S
C792 C787 1.350 . S
C793 H780 0.929 . S
C793 C785 1.433 . S
C793 N795 1.384 . S
N794 C790 1.427 . S
N794 C791 1.384 . S
N795 C787 1.427 . S
N795 C793 1.384 . S
H796 C802 0.930 . S
H797 C806 0.930 . S
H798 C811 0.929 . S
H799 C809 0.929 . S
H800 C804 0.929 . S
H801 C810 0.929 . S
C802 H796 0.930 . S
C802 C803 1.367 . S
C802 C810 1.378 . S
C803 C802 1.367 . S
C803 C811 1.433 . S
C804 H800 0.929 . S
C804 C806 1.378 . S
C804 C808 1.350 . S
C805 C808 1.463 . S
C805 C810 1.350 . S
C805 N813 1.427 . S
C806 H797 0.930 . S
C806 C804 1.378 . S
C806 C807 1.367 . S
C807 C806 1.367 . S
C807 C809 1.433 . S
C808 C804 1.350 . S
C808 C805 1.463 . S
C808 N812 1.427 . S
C809 H799 0.929 . S
C809 C807 1.433 . S
C809 N812 1.384 . S
C810 H801 0.929 . S
C810 C802 1.378 . S
C810 C805 1.350 . S
C811 H798 0.929 . S
C811 C803 1.433 . S
C811 N813 1.384 . S
N812 C808 1.427 . S
N812 C809 1.384 . S
N813 C805 1.427 . S
N813 C811 1.384 . S
H814 C820 0.930 . S
H815 C824 0.930 . S
H816 C829 0.929 . S
H817 C827 0.929 . S
H818 C822 0.929 . S
H819 C828 0.929 . S
C820 H814 0.930 . S
C820 C821 1.367 . S
C820 C828 1.378 . S
C821 C820 1.367 . S
C821 C829 1.433 . S
C822 H818 0.929 . S
C822 C824 1.378 . S
C822 C826 1.350 . S
C823 C826 1.463 . S
C823 C828 1.350 . S
C823 N831 1.427 . S
C824 H815 0.930 . S
C824 C822 1.378 . S
C824 C825 1.367 . S
C825 C824 1.367 . S
C825 C827 1.433 . S
C826 C822 1.350 . S
C826 C823 1.463 . S
C826 N830 1.427 . S
C827 H817 0.929 . S
C827 C825 1.433 . S
C827 N830 1.384 . S
C828 H819 0.929 . S
C828 C820 1.378 . S
C828 C823 1.350 . S
C829 H816 0.929 . S
C829 C821 1.433 . S
C829 N831 1.384 . S
N830 C826 1.427 . S
N830 C827 1.384 . S
N831 C823 1.427 . S
N831 C829 1.384 . S
H832 C838 0.930 . S
H833 C842 0.930 . S
H834 C847 0.929 . S
H835 C845 0.929 . S
H836 C840 0.929 . S
H837 C846 0.929 . S
C838 H832 0.930 . S
C838 C839 1.367 . S
C838 C846 1.378 . S
C839 C838 1.367 . S
C839 C847 1.433 . S
C840 H836 0.929 . S
C840 C842 1.378 . S
C840 C844 1.350 . S
C841 C844 1.463 . S
C841 C846 1.350 . S
C841 N849 1.427 . S
C842 H833 0.930 . S
C842 C840 1.378 . S
C842 C843 1.367 . S
C843 C842 1.367 . S
C843 C845 1.433 . S
C844 C840 1.350 . S
C844 C841 1.463 . S
C844 N848 1.427 . S
C845 H835 0.929 . S
C845 C843 1.433 . S
C845 N848 1.384 . S
C846 H837 0.929 . S
C846 C838 1.378 . S
C846 C841 1.350 . S
C847 H834 0.929 . S
C847 C839 1.433 . S
C847 N849 1.384 . S
N848 C844 1.427 . S
N848 C845 1.384 . S
N849 C841 1.427 . S
N849 C847 1.384 . S
H850 C856 0.930 . S
H851 C860 0.930 . S
H852 C865 0.929 . S
H853 C863 0.929 . S
H854 C858 0.929 . S
H855 C864 0.929 . S
C856 H850 0.930 . S
C856 C857 1.367 . S
C856 C864 1.378 . S
C857 C856 1.367 . S
C857 C865 1.433 . S
C858 H854 0.929 . S
C858 C860 1.378 . S
C858 C862 1.350 . S
C859 C862 1.463 . S
C859 C864 1.350 . S
C859 N867 1.427 . S
C860 H851 0.930 . S
C860 C858 1.378 . S
C860 C861 1.367 . S
C861 C860 1.367 . S
C861 C863 1.433 . S
C862 C858 1.350 . S
C862 C859 1.463 . S
C862 N866 1.427 . S
C863 H853 0.929 . S
C863 C861 1.433 . S
C863 N866 1.384 . S
C864 H855 0.929 . S
C864 C856 1.378 . S
C864 C859 1.350 . S
C865 H852 0.929 . S
C865 C857 1.433 . S
C865 N867 1.384 . S
N866 C862 1.427 . S
N866 C863 1.384 . S
N867 C859 1.427 . S
N867 C865 1.384 . S
H868 C874 0.930 . S
H869 C878 0.930 . S
H870 C883 0.929 . S
H871 C881 0.929 . S
H872 C876 0.929 . S
H873 C882 0.929 . S
C874 H868 0.930 . S
C874 C875 1.367 . S
C874 C882 1.378 . S
C875 C874 1.367 . S
C875 C883 1.433 . S
C876 H872 0.929 . S
C876 C878 1.378 . S
C876 C880 1.350 . S
C877 C880 1.463 . S
C877 C882 1.350 . S
C877 N885 1.427 . S
C878 H869 0.930 . S
C878 C876 1.378 . S
C878 C879 1.367 . S
C879 C878 1.367 . S
C879 C881 1.433 . S
C880 C876 1.350 . S
C880 C877 1.463 . S
C880 N884 1.427 . S
C881 H871 0.929 . S
C881 C879 1.433 . S
C881 N884 1.384 . S
C882 H873 0.929 . S
C882 C874 1.378 . S
C882 C877 1.350 . S
C883 H870 0.929 . S
C883 C875 1.433 . S
C883 N885 1.384 . S
N884 C880 1.427 . S
N884 C881 1.384 . S
N885 C877 1.427 . S
N885 C883 1.384 . S
H886 C892 0.930 . S
H887 C896 0.930 . S
H888 C901 0.929 . S
H889 C899 0.929 . S
H890 C894 0.929 . S
H891 C900 0.929 . S
C892 H886 0.930 . S
C892 C893 1.367 . S
C892 C900 1.378 . S
C893 C892 1.367 . S
C893 C901 1.433 . S
C894 H890 0.929 . S
C894 C896 1.378 . S
C894 C898 1.350 . S
C895 C898 1.463 . S
C895 C900 1.350 . S
C895 N903 1.427 . S
C896 H887 0.930 . S
C896 C894 1.378 . S
C896 C897 1.367 . S
C897 C896 1.367 . S
C897 C899 1.433 . S
C898 C894 1.350 . S
C898 C895 1.463 . S
C898 N902 1.427 . S
C899 H889 0.929 . S
C899 C897 1.433 . S
C899 N902 1.384 . S
C900 H891 0.929 . S
C900 C892 1.378 . S
C900 C895 1.350 . S
C901 H888 0.929 . S
C901 C893 1.433 . S
C901 N903 1.384 . S
N902 C898 1.427 . S
N902 C899 1.384 . S
N903 C895 1.427 . S
N903 C901 1.384 . S
H904 C910 0.930 . S
H905 C914 0.930 . S
H906 C919 0.929 . S
H907 C917 0.929 . S
H908 C912 0.929 . S
H909 C918 0.929 . S
C910 H904 0.930 . S
C910 C911 1.367 . S
C910 C918 1.378 . S
C911 C910 1.367 . S
C911 C919 1.433 . S
C912 H908 0.929 . S
C912 C914 1.378 . S
C912 C916 1.350 . S
C913 C916 1.463 . S
C913 C918 1.350 . S
C913 N921 1.427 . S
C914 H905 0.930 . S
C914 C912 1.378 . S
C914 C915 1.367 . S
C915 C914 1.367 . S
C915 C917 1.433 . S
C916 C912 1.350 . S
C916 C913 1.463 . S
C916 N920 1.427 . S
C917 H907 0.929 . S
C917 C915 1.433 . S
C917 N920 1.384 . S
C918 H909 0.929 . S
C918 C910 1.378 . S
C918 C913 1.350 . S
C919 H906 0.929 . S
C919 C911 1.433 . S
C919 N921 1.384 . S
N920 C916 1.427 . S
N920 C917 1.384 . S
N921 C913 1.427 . S
N921 C919 1.384 . S
H922 C928 0.930 . S
H923 C932 0.930 . S
H924 C937 0.929 . S
H925 C935 0.929 . S
H926 C930 0.929 . S
H927 C936 0.929 . S
C928 H922 0.930 . S
C928 C929 1.367 . S
C928 C936 1.378 . S
C929 C928 1.367 . S
C929 C937 1.433 . S
C930 H926 0.929 . S
C930 C932 1.378 . S
C930 C934 1.350 . S
C931 C934 1.463 . S
C931 C936 1.350 . S
C931 N939 1.427 . S
C932 H923 0.930 . S
C932 C930 1.378 . S
C932 C933 1.367 . S
C933 C932 1.367 . S
C933 C935 1.433 . S
C934 C930 1.350 . S
C934 C931 1.463 . S
C934 N938 1.427 . S
C935 H925 0.929 . S
C935 C933 1.433 . S
C935 N938 1.384 . S
C936 H927 0.929 . S
C936 C928 1.378 . S
C936 C931 1.350 . S
C937 H924 0.929 . S
C937 C929 1.433 . S
C937 N939 1.384 . S
N938 C934 1.427 . S
N938 C935 1.384 . S
N939 C931 1.427 . S
N939 C937 1.384 . S
H940 C946 0.930 . S
H941 C950 0.930 . S
H942 C955 0.929 . S
H943 C953 0.929 . S
H944 C948 0.929 . S
H945 C954 0.929 . S
C946 H940 0.930 . S
C946 C947 1.367 . S
C946 C954 1.378 . S
C947 C946 1.367 . S
C947 C955 1.433 . S
C948 H944 0.929 . S
C948 C950 1.378 . S
C948 C952 1.350 . S
C949 C952 1.463 . S
C949 C954 1.350 . S
C949 N957 1.427 . S
C950 H941 0.930 . S
C950 C948 1.378 . S
C950 C951 1.367 . S
C951 C950 1.367 . S
C951 C953 1.433 . S
C952 C948 1.350 . S
C952 C949 1.463 . S
C952 N956 1.427 . S
C953 H943 0.929 . S
C953 C951 1.433 . S
C953 N956 1.384 . S
C954 H945 0.929 . S
C954 C946 1.378 . S
C954 C949 1.350 . S
C955 H942 0.929 . S
C955 C947 1.433 . S
C955 N957 1.384 . S
N956 C952 1.427 . S
N956 C953 1.384 . S
N957 C949 1.427 . S
N957 C955 1.384 . S
H958 C964 0.930 . S
H959 C968 0.930 . S
H960 C973 0.929 . S
H961 C971 0.929 . S
H962 C966 0.929 . S
H963 C972 0.929 . S
C964 H958 0.930 . S
C964 C965 1.367 . S
C964 C972 1.378 . S
C965 C964 1.367 . S
C965 C973 1.433 . S
C966 H962 0.929 . S
C966 C968 1.378 . S
C966 C970 1.350 . S
C967 C970 1.463 . S
C967 C972 1.350 . S
C967 N975 1.427 . S
C968 H959 0.930 . S
C968 C966 1.378 . S
C968 C969 1.367 . S
C969 C968 1.367 . S
C969 C971 1.433 . S
C970 C966 1.350 . S
C970 C967 1.463 . S
C970 N974 1.427 . S
C971 H961 0.929 . S
C971 C969 1.433 . S
C971 N974 1.384 . S
C972 H963 0.929 . S
C972 C964 1.378 . S
C972 C967 1.350 . S
C973 H960 0.929 . S
C973 C965 1.433 . S
C973 N975 1.384 . S
N974 C970 1.427 . S
N974 C971 1.384 . S
N975 C967 1.427 . S
N975 C973 1.384 . S
H976 C982 0.930 . S
H977 C986 0.930 . S
H978 C991 0.929 . S
H979 C989 0.929 . S
H980 C984 0.929 . S
H981 C990 0.929 . S
C982 H976 0.930 . S
C982 C983 1.367 . S
C982 C990 1.378 . S
C983 C982 1.367 . S
C983 C991 1.433 . S
C984 H980 0.929 . S
C984 C986 1.378 . S
C984 C988 1.350 . S
C985 C988 1.463 . S
C985 C990 1.350 . S
C985 N993 1.427 . S
C986 H977 0.930 . S
C986 C984 1.378 . S
C986 C987 1.367 . S
C987 C986 1.367 . S
C987 C989 1.433 . S
C988 C984 1.350 . S
C988 C985 1.463 . S
C988 N992 1.427 . S
C989 H979 0.929 . S
C989 C987 1.433 . S
C989 N992 1.384 . S
C990 H981 0.929 . S
C990 C982 1.378 . S
C990 C985 1.350 . S
C991 H978 0.929 . S
C991 C983 1.433 . S
C991 N993 1.384 . S
N992 C988 1.427 . S
N992 C989 1.384 . S
N993 C985 1.427 . S
N993 C991 1.384 . S
H994 C1000 0.930 . S
H995 C1004 0.930 . S
H996 C1009 0.929 . S
H997 C1007 0.929 . S
H998 C1002 0.929 . S
H999 C1008 0.929 . S
C1000 H994 0.930 . S
C1000 C1001 1.367 . S
C1000 C1008 1.378 . S
C1001 C1000 1.367 . S
C1001 C1009 1.433 . S
C1002 H998 0.929 . S
C1002 C1004 1.378 . S
C1002 C1006 1.350 . S
C1003 C1006 1.463 . S
C1003 C1008 1.350 . S
C1003 N1011 1.427 . S
C1004 H995 0.930 . S
C1004 C1002 1.378 . S
C1004 C1005 1.367 . S
C1005 C1004 1.367 . S
C1005 C1007 1.433 . S
C1006 C1002 1.350 . S
C1006 C1003 1.463 . S
C1006 N1010 1.427 . S
C1007 H997 0.929 . S
C1007 C1005 1.433 . S
C1007 N1010 1.384 . S
C1008 H999 0.929 . S
C1008 C1000 1.378 . S
C1008 C1003 1.350 . S
C1009 H996 0.929 . S
C1009 C1001 1.433 . S
C1009 N1011 1.384 . S
N1010 C1006 1.427 . S
N1010 C1007 1.384 . S
N1011 C1003 1.427 . S
N1011 C1009 1.384 . S
H1012 C1018 0.930 . S
H1013 C1022 0.930 . S
H1014 C1027 0.929 . S
H1015 C1025 0.929 . S
H1016 C1020 0.929 . S
H1017 C1026 0.929 . S
C1018 H1012 0.930 . S
C1018 C1019 1.367 . S
C1018 C1026 1.378 . S
C1019 C1018 1.367 . S
C1019 C1027 1.433 . S
C1020 H1016 0.929 . S
C1020 C1022 1.378 . S
C1020 C1024 1.350 . S
C1021 C1024 1.463 . S
C1021 C1026 1.350 . S
C1021 N1029 1.427 . S
C1022 H1013 0.930 . S
C1022 C1020 1.378 . S
C1022 C1023 1.367 . S
C1023 C1022 1.367 . S
C1023 C1025 1.433 . S
C1024 C1020 1.350 . S
C1024 C1021 1.463 . S
C1024 N1028 1.427 . S
C1025 H1015 0.929 . S
C1025 C1023 1.433 . S
C1025 N1028 1.384 . S
C1026 H1017 0.929 . S
C1026 C1018 1.378 . S
C1026 C1021 1.350 . S
C1027 H1014 0.929 . S
C1027 C1019 1.433 . S
C1027 N1029 1.384 . S
N1028 C1024 1.427 . S
N1028 C1025 1.384 . S
N1029 C1021 1.427 . S
N1029 C1027 1.384 . S
H1030 C1036 0.930 . S
H1031 C1040 0.930 . S
H1032 C1045 0.929 . S
H1033 C1043 0.929 . S
H1034 C1038 0.929 . S
H1035 C1044 0.929 . S
C1036 H1030 0.930 . S
C1036 C1037 1.367 . S
C1036 C1044 1.378 . S
C1037 C1036 1.367 . S
C1037 C1045 1.433 . S
C1038 H1034 0.929 . S
C1038 C1040 1.378 . S
C1038 C1042 1.350 . S
C1039 C1042 1.463 . S
C1039 C1044 1.350 . S
C1039 N1047 1.427 . S
C1040 H1031 0.930 . S
C1040 C1038 1.378 . S
C1040 C1041 1.367 . S
C1041 C1040 1.367 . S
C1041 C1043 1.433 . S
C1042 C1038 1.350 . S
C1042 C1039 1.463 . S
C1042 N1046 1.427 . S
C1043 H1033 0.929 . S
C1043 C1041 1.433 . S
C1043 N1046 1.384 . S
C1044 H1035 0.929 . S
C1044 C1036 1.378 . S
C1044 C1039 1.350 . S
C1045 H1032 0.929 . S
C1045 C1037 1.433 . S
C1045 N1047 1.384 . S
N1046 C1042 1.427 . S
N1046 C1043 1.384 . S
N1047 C1039 1.427 . S
N1047 C1045 1.384 . S
H1048 C1054 0.930 . S
H1049 C1058 0.930 . S
H1050 C1063 0.929 . S
H1051 C1061 0.929 . S
H1052 C1056 0.929 . S
H1053 C1062 0.929 . S
C1054 H1048 0.930 . S
C1054 C1055 1.367 . S
C1054 C1062 1.378 . S
C1055 C1054 1.367 . S
C1055 C1063 1.433 . S
C1056 H1052 0.929 . S
C1056 C1058 1.378 . S
C1056 C1060 1.350 . S
C1057 C1060 1.463 . S
C1057 C1062 1.350 . S
C1057 N1065 1.427 . S
C1058 H1049 0.930 . S
C1058 C1056 1.378 . S
C1058 C1059 1.367 . S
C1059 C1058 1.367 . S
C1059 C1061 1.433 . S
C1060 C1056 1.350 . S
C1060 C1057 1.463 . S
C1060 N1064 1.427 . S
C1061 H1051 0.929 . S
C1061 C1059 1.433 . S
C1061 N1064 1.384 . S
C1062 H1053 0.929 . S
C1062 C1054 1.378 . S
C1062 C1057 1.350 . S
C1063 H1050 0.929 . S
C1063 C1055 1.433 . S
C1063 N1065 1.384 . S
N1064 C1060 1.427 . S
N1064 C1061 1.384 . S
N1065 C1057 1.427 . S
N1065 C1063 1.384 . S
H1066 C1072 0.930 . S
H1067 C1076 0.930 . S
H1068 C1081 0.929 . S
H1069 C1079 0.929 . S
H1070 C1074 0.929 . S
H1071 C1080 0.929 . S
C1072 H1066 0.930 . S
C1072 C1073 1.367 . S
C1072 C1080 1.378 . S
C1073 C1072 1.367 . S
C1073 C1081 1.433 . S
C1074 H1070 0.929 . S
C1074 C1076 1.378 . S
C1074 C1078 1.350 . S
C1075 C1078 1.463 . S
C1075 C1080 1.350 . S
C1075 N1083 1.427 . S
C1076 H1067 0.930 . S
C1076 C1074 1.378 . S
C1076 C1077 1.367 . S
C1077 C1076 1.367 . S
C1077 C1079 1.433 . S
C1078 C1074 1.350 . S
C1078 C1075 1.463 . S
C1078 N1082 1.427 . S
C1079 H1069 0.929 . S
C1079 C1077 1.433 . S
C1079 N1082 1.384 . S
C1080 H1071 0.929 . S
C1080 C1072 1.378 . S
C1080 C1075 1.350 . S
C1081 H1068 0.929 . S
C1081 C1073 1.433 . S
C1081 N1083 1.384 . S
N1082 C1078 1.427 . S
N1082 C1079 1.384 . S
N1083 C1075 1.427 . S
N1083 C1081 1.384 . S
H1084 C1090 0.930 . S
H1085 C1094 0.930 . S
H1086 C1099 0.929 . S
H1087 C1097 0.929 . S
H1088 C1092 0.929 . S
H1089 C1098 0.929 . S
C1090 H1084 0.930 . S
C1090 C1091 1.367 . S
C1090 C1098 1.378 . S
C1091 C1090 1.367 . S
C1091 C1099 1.433 . S
C1092 H1088 0.929 . S
C1092 C1094 1.378 . S
C1092 C1096 1.350 . S
C1093 C1096 1.463 . S
C1093 C1098 1.350 . S
C1093 N1101 1.427 . S
C1094 H1085 0.930 . S
C1094 C1092 1.378 . S
C1094 C1095 1.367 . S
C1095 C1094 1.367 . S
C1095 C1097 1.433 . S
C1096 C1092 1.350 . S
C1096 C1093 1.463 . S
C1096 N1100 1.427 . S
C1097 H1087 0.929 . S
C1097 C1095 1.433 . S
C1097 N1100 1.384 . S
C1098 H1089 0.929 . S
C1098 C1090 1.378 . S
C1098 C1093 1.350 . S
C1099 H1086 0.929 . S
C1099 C1091 1.433 . S
C1099 N1101 1.384 . S
N1100 C1096 1.427 . S
N1100 C1097 1.384 . S
N1101 C1093 1.427 . S
N1101 C1099 1.384 . S
H1102 C1108 0.930 . S
H1103 C1112 0.930 . S
H1104 C1117 0.929 . S
H1105 C1115 0.929 . S
H1106 C1110 0.929 . S
H1107 C1116 0.929 . S
C1108 H1102 0.930 . S
C1108 C1109 1.367 . S
C1108 C1116 1.378 . S
C1109 C1108 1.367 . S
C1109 C1117 1.433 . S
C1110 H1106 0.929 . S
C1110 C1112 1.378 . S
C1110 C1114 1.350 . S
C1111 C1114 1.463 . S
C1111 C1116 1.350 . S
C1111 N1119 1.427 . S
C1112 H1103 0.930 . S
C1112 C1110 1.378 . S
C1112 C1113 1.367 . S
C1113 C1112 1.367 . S
C1113 C1115 1.433 . S
C1114 C1110 1.350 . S
C1114 C1111 1.463 . S
C1114 N1118 1.427 . S
C1115 H1105 0.929 . S
C1115 C1113 1.433 . S
C1115 N1118 1.384 . S
C1116 H1107 0.929 . S
C1116 C1108 1.378 . S
C1116 C1111 1.350 . S
C1117 H1104 0.929 . S
C1117 C1109 1.433 . S
C1117 N1119 1.384 . S
N1118 C1114 1.427 . S
N1118 C1115 1.384 . S
N1119 C1111 1.427 . S
N1119 C1117 1.384 . S
H1120 C1126 0.930 . S
H1121 C1130 0.930 . S
H1122 C1135 0.929 . S
H1123 C1133 0.929 . S
H1124 C1128 0.929 . S
H1125 C1134 0.929 . S
C1126 H1120 0.930 . S
C1126 C1127 1.367 1_655 S
C1126 C1134 1.378 . S
C1127 C1126 1.367 1_455 S
C1127 C1135 1.433 . S
C1128 H1124 0.929 . S
C1128 C1130 1.378 . S
C1128 C1132 1.350 1_455 S
C1129 C1132 1.463 1_455 S
C1129 C1134 1.350 1_455 S
C1129 N1137 1.427 . S
C1130 H1121 0.930 . S
C1130 C1128 1.378 . S
C1130 C1131 1.367 1_455 S
C1131 C1130 1.367 1_655 S
C1131 C1133 1.433 . S
C1132 C1128 1.350 1_655 S
C1132 C1129 1.463 1_655 S
C1132 N1136 1.427 . S
C1133 H1123 0.929 . S
C1133 C1131 1.433 . S
C1133 N1136 1.384 . S
C1134 H1125 0.929 . S
C1134 C1126 1.378 . S
C1134 C1129 1.350 1_655 S
C1135 H1122 0.929 . S
C1135 C1127 1.433 . S
C1135 N1137 1.384 . S
N1136 C1132 1.427 . S
N1136 C1133 1.384 . S
N1137 C1129 1.427 . S
N1137 C1135 1.384 . S
H1138 C1144 0.930 . S
H1139 C1148 0.930 . S
H1140 C1153 0.929 . S
H1141 C1151 0.929 . S
H1142 C1146 0.929 . S
H1143 C1152 0.929 . S
C1144 H1138 0.930 . S
C1144 C1145 1.367 . S
C1144 C1152 1.378 . S
C1145 C1144 1.367 . S
C1145 C1153 1.433 1_565 S
C1146 H1142 0.929 . S
C1146 C1148 1.378 . S
C1146 C1150 1.350 . S
C1147 C1150 1.463 1_565 S
C1147 C1152 1.350 . S
C1147 N1155 1.427 1_565 S
C1148 H1139 0.930 . S
C1148 C1146 1.378 . S
C1148 C1149 1.367 . S
C1149 C1148 1.367 . S
C1149 C1151 1.433 1_545 S
C1150 C1146 1.350 . S
C1150 C1147 1.463 1_545 S
C1150 N1154 1.427 1_545 S
C1151 H1141 0.929 . S
C1151 C1149 1.433 1_565 S
C1151 N1154 1.384 . S
C1152 H1143 0.929 . S
C1152 C1144 1.378 . S
C1152 C1147 1.350 . S
C1153 H1140 0.929 . S
C1153 C1145 1.433 1_545 S
C1153 N1155 1.384 . S
N1154 C1150 1.427 1_565 S
N1154 C1151 1.384 . S
N1155 C1147 1.427 1_545 S
N1155 C1153 1.384 . S
H1156 C1162 0.930 . S
H1157 C1166 0.930 . S
H1158 C1171 0.929 . S
H1159 C1169 0.929 . S
H1160 C1164 0.929 . S
H1161 C1170 0.929 . S
C1162 H1156 0.930 . S
C1162 C1163 1.367 . S
C1162 C1170 1.378 . S
C1163 C1162 1.367 . S
C1163 C1171 1.433 1_455 S
C1164 H1160 0.929 . S
C1164 C1166 1.378 . S
C1164 C1168 1.350 . S
C1165 C1168 1.463 1_455 S
C1165 C1170 1.350 . S
C1165 N1173 1.427 1_455 S
C1166 H1157 0.930 . S
C1166 C1164 1.378 . S
C1166 C1167 1.367 . S
C1167 C1166 1.367 . S
C1167 C1169 1.433 1_655 S
C1168 C1164 1.350 . S
C1168 C1165 1.463 1_655 S
C1168 N1172 1.427 1_655 S
C1169 H1159 0.929 . S
C1169 C1167 1.433 1_455 S
C1169 N1172 1.384 . S
C1170 H1161 0.929 . S
C1170 C1162 1.378 . S
C1170 C1165 1.350 . S
C1171 H1158 0.929 . S
C1171 C1163 1.433 1_655 S
C1171 N1173 1.384 . S
N1172 C1168 1.427 1_455 S
N1172 C1169 1.384 . S
N1173 C1165 1.427 1_655 S
N1173 C1171 1.384 . S
H1174 C1180 0.930 . S
H1175 C1184 0.930 . S
H1176 C1189 0.929 . S
H1177 C1187 0.929 . S
H1178 C1182 0.929 . S
H1179 C1188 0.929 . S
C1180 H1174 0.930 . S
C1180 C1181 1.367 1_565 S
C1180 C1188 1.378 . S
C1181 C1180 1.367 1_545 S
C1181 C1189 1.433 . S
C1182 H1178 0.929 . S
C1182 C1184 1.378 . S
C1182 C1186 1.350 1_545 S
C1183 C1186 1.463 1_545 S
C1183 C1188 1.350 1_545 S
C1183 N1191 1.427 . S
C1184 H1175 0.930 . S
C1184 C1182 1.378 . S
C1184 C1185 1.367 1_545 S
C1185 C1184 1.367 1_565 S
C1185 C1187 1.433 . S
C1186 C1182 1.350 1_565 S
C1186 C1183 1.463 1_565 S
C1186 N1190 1.427 . S
C1187 H1177 0.929 . S
C1187 C1185 1.433 . S
C1187 N1190 1.384 . S
C1188 H1179 0.929 . S
C1188 C1180 1.378 . S
C1188 C1183 1.350 1_565 S
C1189 H1176 0.929 . S
C1189 C1181 1.433 . S
C1189 N1191 1.384 . S
N1190 C1186 1.427 . S
N1190 C1187 1.384 . S
N1191 C1183 1.427 . S
N1191 C1189 1.384 . S
H1192 C1198 0.930 . S
H1193 C1202 0.930 . S
H1194 C1207 0.929 . S
H1195 C1205 0.929 . S
H1196 C1200 0.929 . S
H1197 C1206 0.929 . S
C1198 H1192 0.930 . S
C1198 C1199 1.367 . S
C1198 C1206 1.378 . S
C1199 C1198 1.367 . S
C1199 C1207 1.433 . S
C1200 H1196 0.929 . S
C1200 C1202 1.378 . S
C1200 C1204 1.350 . S
C1201 C1204 1.463 1_556 S
C1201 C1206 1.350 . S
C1201 N1209 1.427 . S
C1202 H1193 0.930 . S
C1202 C1200 1.378 . S
C1202 C1203 1.367 . S
C1203 C1202 1.367 . S
C1203 C1205 1.433 . S
C1204 C1200 1.350 . S
C1204 C1201 1.463 1_554 S
C1204 N1208 1.427 . S
C1205 H1195 0.929 . S
C1205 C1203 1.433 . S
C1205 N1208 1.384 . S
C1206 H1197 0.929 . S
C1206 C1198 1.378 . S
C1206 C1201 1.350 . S
C1207 H1194 0.929 . S
C1207 C1199 1.433 . S
C1207 N1209 1.384 . S
N1208 C1204 1.427 . S
N1208 C1205 1.384 . S
N1209 C1201 1.427 . S
N1209 C1207 1.384 . S
H1210 C1216 0.930 . S
H1211 C1220 0.930 . S
H1212 C1225 0.929 . S
H1213 C1223 0.929 . S
H1214 C1218 0.929 . S
H1215 C1224 0.929 . S
C1216 H1210 0.930 . S
C1216 C1217 1.367 . S
C1216 C1224 1.378 . S
C1217 C1216 1.367 . S
C1217 C1225 1.433 . S
C1218 H1214 0.929 . S
C1218 C1220 1.378 . S
C1218 C1222 1.350 . S
C1219 C1222 1.463 1_554 S
C1219 C1224 1.350 . S
C1219 N1227 1.427 . S
C1220 H1211 0.930 . S
C1220 C1218 1.378 . S
C1220 C1221 1.367 . S
C1221 C1220 1.367 . S
C1221 C1223 1.433 . S
C1222 C1218 1.350 . S
C1222 C1219 1.463 1_556 S
C1222 N1226 1.427 . S
C1223 H1213 0.929 . S
C1223 C1221 1.433 . S
C1223 N1226 1.384 . S
C1224 H1215 0.929 . S
C1224 C1216 1.378 . S
C1224 C1219 1.350 . S
C1225 H1212 0.929 . S
C1225 C1217 1.433 . S
C1225 N1227 1.384 . S
N1226 C1222 1.427 . S
N1226 C1223 1.384 . S
N1227 C1219 1.427 . S
N1227 C1225 1.384 . S
H1228 C1234 0.930 . S
H1229 C1238 0.930 . S
H1230 C1243 0.929 . S
H1231 C1241 0.929 . S
H1232 C1236 0.929 . S
H1233 C1242 0.929 . S
C1234 H1228 0.930 . S
C1234 C1235 1.367 . S
C1234 C1242 1.378 . S
C1235 C1234 1.367 . S
C1235 C1243 1.433 . S
C1236 H1232 0.929 . S
C1236 C1238 1.378 . S
C1236 C1240 1.350 . S
C1237 C1240 1.463 1_554 S
C1237 C1242 1.350 . S
C1237 N1245 1.427 . S
C1238 H1229 0.930 . S
C1238 C1236 1.378 . S
C1238 C1239 1.367 . S
C1239 C1238 1.367 . S
C1239 C1241 1.433 . S
C1240 C1236 1.350 . S
C1240 C1237 1.463 1_556 S
C1240 N1244 1.427 . S
C1241 H1231 0.929 . S
C1241 C1239 1.433 . S
C1241 N1244 1.384 . S
C1242 H1233 0.929 . S
C1242 C1234 1.378 . S
C1242 C1237 1.350 . S
C1243 H1230 0.929 . S
C1243 C1235 1.433 . S
C1243 N1245 1.384 . S
N1244 C1240 1.427 . S
N1244 C1241 1.384 . S
N1245 C1237 1.427 . S
N1245 C1243 1.384 . S
H1246 C1252 0.930 . S
H1247 C1256 0.930 . S
H1248 C1261 0.929 . S
H1249 C1259 0.929 . S
H1250 C1254 0.929 . S
H1251 C1260 0.929 . S
C1252 H1246 0.930 . S
C1252 C1253 1.367 . S
C1252 C1260 1.378 . S
C1253 C1252 1.367 . S
C1253 C1261 1.433 . S
C1254 H1250 0.929 . S
C1254 C1256 1.378 . S
C1254 C1258 1.350 . S
C1255 C1258 1.463 1_556 S
C1255 C1260 1.350 . S
C1255 N1263 1.427 . S
C1256 H1247 0.930 . S
C1256 C1254 1.378 . S
C1256 C1257 1.367 . S
C1257 C1256 1.367 . S
C1257 C1259 1.433 . S
C1258 C1254 1.350 . S
C1258 C1255 1.463 1_554 S
C1258 N1262 1.427 . S
C1259 H1249 0.929 . S
C1259 C1257 1.433 . S
C1259 N1262 1.384 . S
C1260 H1251 0.929 . S
C1260 C1252 1.378 . S
C1260 C1255 1.350 . S
C1261 H1248 0.929 . S
C1261 C1253 1.433 . S
C1261 N1263 1.384 . S
N1262 C1258 1.427 . S
N1262 C1259 1.384 . S
N1263 C1255 1.427 . S
N1263 C1261 1.384 . S
C551 C88 0.998 . S
C555 C20 0.998 . S
C569 C54 1.000 . S
C573 C122 1.000 . S
C587 C224 0.998 . S
C591 C156 0.998 . S
C605 C258 1.000 . S
C609 C190 0.999 . S
C623 C292 0.997 . S
C627 C360 0.997 . S
C641 C394 0.999 . S
C645 C326 0.999 . S
C659 C496 0.999 . S
C663 C428 1.000 . S
C677 C462 0.997 . S
C681 C530 0.997 . S
C695 C9 1.581 . S
C699 C519 1.589 . S
C713 C417 1.578 . S
C717 C43 1.580 . S
C731 C451 1.589 . S
C735 C77 1.580 . S
C749 C485 1.577 . S
C753 C111 1.582 . S
C767 C315 1.578 . S
C771 C145 1.580 . S
C785 C349 1.577 . S
C789 C179 1.584 . S
C803 C383 1.588 . S
C807 C213 1.578 . S
C821 C281 1.587 . S
C825 C247 1.584 . S
C839 C2 1.424 . S
C843 C135 1.430 . S
C857 C33 1.429 . S
C861 C36 1.427 . S
C875 C70 1.424 . S
C879 C67 1.430 . S
C893 C101 1.426 . S
C897 C104 1.423 . S
C911 C203 1.430 . S
C915 C138 1.425 . S
C929 C172 1.422 . S
C933 C237 1.429 . S
C947 C271 1.426 . S
C951 C206 1.424 . S
C965 C169 1.429 . S
C969 C240 1.423 . S
C983 C274 1.422 . S
C987 C407 1.426 . S
C1001 C305 1.428 . S
C1005 C308 1.421 . S
C1019 C342 1.422 . S
C1023 C339 1.427 . S
C1037 C376 1.423 . S
C1041 C373 1.429 . S
C1055 C410 1.425 . S
C1059 C475 1.427 . S
C1073 C509 1.427 . S
C1077 C444 1.421 . S
C1091 C543 1.427 . S
C1095 C478 1.421 . S
C1109 C512 1.424 . S
C1113 C441 1.430 . S
C1127 C5 1.607 . S
C1131 C209 1.609 . S
C1145 C243 1.607 . S
C1149 C39 1.607 . S
C1163 C141 1.608 . S
C1167 C73 1.606 . S
C1181 C175 1.609 . S
C1185 C107 1.607 . S
C1199 C277 1.609 . S
C1203 C481 1.606 . S
C1217 C515 1.608 . S
C1221 C311 1.606 . S
C1235 C413 1.608 . S
C1239 C345 1.606 . S
C1253 C379 1.606 . S
C1257 C447 1.608 . S
