# Generated by pormake.
# Topology wji, (4)-cn, num edge types: 1
# Building blocks:
#     Node 0, Type 0, BuildingBlock: ICAMEG_clean_sbu_1, # of connection points: 4
#     Node 1, Type 0, BuildingBlock: ICAMEG_clean_sbu_1, # of connection points: 4
#     Node 2, Type 0, BuildingBlock: ICAMEG_clean_sbu_1, # of connection points: 4
#     Node 3, Type 0, BuildingBlock: ICAMEG_clean_sbu_1, # of connection points: 4
#     Node 4, Type 0, BuildingBlock: ICAMEG_clean_sbu_1, # of connection points: 4
#     Node 5, Type 0, BuildingBlock: ICAMEG_clean_sbu_1, # of connection points: 4
#     Node 6, Type 0, BuildingBlock: ICAMEG_clean_sbu_1, # of connection points: 4
#     Node 7, Type 0, BuildingBlock: ICAMEG_clean_sbu_1, # of connection points: 4
#     Node 8, Type 0, BuildingBlock: ICAMEG_clean_sbu_1, # of connection points: 4
#     Node 9, Type 0, BuildingBlock: ICAMEG_clean_sbu_1, # of connection points: 4
#     Node 10, Type 0, BuildingBlock: ICAMEG_clean_sbu_1, # of connection points: 4
#     Node 11, Type 0, BuildingBlock: ICAMEG_clean_sbu_1, # of connection points: 4
#     Edge 12, Type (0, 0), BuildingBlock: ZUJKAS_clean_linker_0, # of connection points: 2
#     Edge 13, Type (0, 0), BuildingBlock: ZUJKAS_clean_linker_0, # of connection points: 2
#     Edge 14, Type (0, 0), BuildingBlock: ZUJKAS_clean_linker_0, # of connection points: 2
#     Edge 15, Type (0, 0), BuildingBlock: ZUJKAS_clean_linker_0, # of connection points: 2
#     Edge 16, Type (0, 0), BuildingBlock: ZUJKAS_clean_linker_0, # of connection points: 2
#     Edge 17, Type (0, 0), BuildingBlock: ZUJKAS_clean_linker_0, # of connection points: 2
#     Edge 18, Type (0, 0), BuildingBlock: ZUJKAS_clean_linker_0, # of connection points: 2
#     Edge 19, Type (0, 0), BuildingBlock: ZUJKAS_clean_linker_0, # of connection points: 2
#     Edge 20, Type (0, 0), BuildingBlock: ZUJKAS_clean_linker_0, # of connection points: 2
#     Edge 21, Type (0, 0), BuildingBlock: ZUJKAS_clean_linker_0, # of connection points: 2
#     Edge 22, Type (0, 0), BuildingBlock: ZUJKAS_clean_linker_0, # of connection points: 2
#     Edge 23, Type (0, 0), BuildingBlock: ZUJKAS_clean_linker_0, # of connection points: 2
#     Edge 24, Type (0, 0), BuildingBlock: ZUJKAS_clean_linker_0, # of connection points: 2
#     Edge 25, Type (0, 0), BuildingBlock: ZUJKAS_clean_linker_0, # of connection points: 2
#     Edge 26, Type (0, 0), BuildingBlock: ZUJKAS_clean_linker_0, # of connection points: 2
#     Edge 27, Type (0, 0), BuildingBlock: ZUJKAS_clean_linker_0, # of connection points: 2
#     Edge 28, Type (0, 0), BuildingBlock: ZUJKAS_clean_linker_0, # of connection points: 2
#     Edge 29, Type (0, 0), BuildingBlock: ZUJKAS_clean_linker_0, # of connection points: 2
#     Edge 30, Type (0, 0), BuildingBlock: ZUJKAS_clean_linker_0, # of connection points: 2
#     Edge 31, Type (0, 0), BuildingBlock: ZUJKAS_clean_linker_0, # of connection points: 2
#     Edge 32, Type (0, 0), BuildingBlock: ZUJKAS_clean_linker_0, # of connection points: 2
#     Edge 33, Type (0, 0), BuildingBlock: ZUJKAS_clean_linker_0, # of connection points: 2
#     Edge 34, Type (0, 0), BuildingBlock: ZUJKAS_clean_linker_0, # of connection points: 2
#     Edge 35, Type (0, 0), BuildingBlock: ZUJKAS_clean_linker_0, # of connection points: 2
# Relax obj value: 0.316
# Max RMSD: 0.212
# Mean RMSD: 0.212
data_MOF--net-wji--node1-ICAMEG_clean_sbu_1--edge1-ZUJKAS_clean_linker_0
_symmetry_space_group_name_H-M    P1
_symmetry_Int_Tables_number       1
_symmetry_cell_setting            triclinic
loop_
_symmetry_equiv_pos_as_xyz
'x, y, z'
_cell_length_a     77.284798
_cell_length_b     77.315752
_cell_length_c     30.019239
_cell_angle_alpha  89.985671
_cell_angle_beta   90.010888
_cell_angle_gamma 120.01129
loop_
_atom_site_label
_atom_site_type_symbol
_atom_site_fract_x
_atom_site_fract_y
_atom_site_fract_z
_atom_type_partial_charge
Co0 Co 0.4435 0.36392 0.4515 0.0
Co1 Co 0.44176 0.32565 0.39272 0.0
O2 O 0.43647 0.33598 0.4471 0.0
C3 C 0.40238 0.34215 0.48932 0.0
O4 O 0.39612 0.33117 0.45313 0.0
C5 C 0.45796 0.31085 0.46416 0.0
O6 O 0.46879 0.32943 0.47753 0.0
O7 O 0.47064 0.34641 0.39724 0.0
O8 O 0.46697 0.37286 0.41064 0.0
H9 H 0.47188 0.33136 0.24145 0.0
H10 H 0.43878 0.34065 0.53369 0.0
O11 O 0.42056 0.35588 0.49302 0.0
H12 H 0.50744 0.39805 0.53988 0.0
H13 H 0.45195 0.42475 0.53227 0.0
H14 H 0.45578 0.39712 0.38696 0.0
H15 H 0.48516 0.39435 0.47743 0.0
H16 H 0.44426 0.3898 0.52605 0.0
O17 O 0.44667 0.30677 0.43011 0.0
H18 H 0.4642 0.34398 0.30975 0.0
H19 H 0.43189 0.28508 0.36172 0.0
H20 H 0.46375 0.43218 0.39175 0.0
H21 H 0.46049 0.34394 0.5972 0.0
H22 H 0.46187 0.44622 0.46482 0.0
H23 H 0.49512 0.37275 0.60045 0.0
O24 O 0.42622 0.3603 0.39958 0.0
H25 H 0.37606 0.27253 0.45459 0.0
H26 H 0.41115 0.31072 0.32026 0.0
H27 H 0.37525 0.2858 0.31598 0.0
H28 H 0.35747 0.26647 0.38346 0.0
H29 H 0.41193 0.29773 0.4575 0.0
H30 H 0.43936 0.27182 0.29418 0.0
H31 H 0.45942 0.29502 0.23338 0.0
O32 O 0.43614 0.34394 0.35398 0.0
C33 C 0.47769 0.36519 0.4005 0.0
C34 C 0.46308 0.32109 0.26765 0.0
C35 C 0.44485 0.28767 0.29728 0.0
N36 N 0.44749 0.31527 0.33946 0.0
C37 C 0.45864 0.32815 0.30632 0.0
C38 C 0.44071 0.29527 0.33548 0.0
C39 C 0.4561 0.3007 0.26317 0.0
C40 C 0.45376 0.35334 0.53513 0.0
N41 N 0.46066 0.36729 0.5019 0.0
C42 C 0.46601 0.35509 0.57108 0.0
C43 C 0.48545 0.37124 0.57285 0.0
C44 C 0.49237 0.38543 0.53889 0.0
C45 C 0.47969 0.38322 0.50352 0.0
C46 C 0.45286 0.41881 0.50026 0.0
C47 C 0.45502 0.40314 0.41892 0.0
C48 C 0.44847 0.39902 0.49651 0.0
N49 N 0.44971 0.39146 0.45623 0.0
C50 C 0.45951 0.423 0.4214 0.0
C51 C 0.45843 0.43086 0.4624 0.0
C52 C 0.42748 0.3542 0.3609 0.0
C53 C 0.38365 0.28082 0.42493 0.0
C54 C 0.40351 0.30242 0.34982 0.0
C55 C 0.38319 0.28829 0.34716 0.0
C56 C 0.37323 0.27745 0.38502 0.0
N57 N 0.41365 0.30562 0.38908 0.0
C58 C 0.40398 0.29506 0.42634 0.0
Co59 Co 0.08971 0.42855 0.61925 0.0
Co60 Co 0.12879 0.43928 0.54863 0.0
O61 O 0.11282 0.42648 0.60158 0.0
C62 C 0.05922 0.38612 0.633 0.0
O63 O 0.04871 0.38837 0.60153 0.0
C64 C 0.158 0.45301 0.62301 0.0
O65 O 0.14649 0.45863 0.64285 0.0
O66 O 0.13176 0.46561 0.5659 0.0
O67 O 0.10234 0.4568 0.59827 0.0
H68 H 0.14918 0.48274 0.41228 0.0
H69 H 0.10913 0.415 0.68485 0.0
O70 O 0.07679 0.40034 0.64168 0.0
H71 H 0.11325 0.47538 0.75068 0.0
H72 H 0.03343 0.41739 0.722 0.0
H73 H 0.06576 0.44431 0.57696 0.0
H74 H 0.09677 0.46265 0.67818 0.0
H75 H 0.06342 0.41597 0.69985 0.0
O76 O 0.1536 0.44559 0.58384 0.0
H77 H 0.12857 0.46613 0.47849 0.0
H78 H 0.16434 0.4401 0.50779 0.0
H79 H 0.03587 0.44617 0.59792 0.0
H80 H 0.12553 0.42708 0.75771 0.0
H81 H 0.01948 0.43262 0.67088 0.0
H82 H 0.12774 0.45753 0.79102 0.0
O83 O 0.07772 0.41914 0.55928 0.0
H84 H 0.12935 0.37538 0.57551 0.0
H85 H 0.11791 0.41562 0.46447 0.0
H86 H 0.11371 0.38299 0.44261 0.0
H87 H 0.11951 0.36266 0.4983 0.0
H88 H 0.1332 0.40801 0.59608 0.0
H89 H 0.18544 0.45655 0.44211 0.0
H90 H 0.17785 0.47798 0.39375 0.0
O91 O 0.10403 0.43261 0.51269 0.0
C92 C 0.11909 0.4699 0.58211 0.0
C93 C 0.1526 0.47339 0.43301 0.0
C94 C 0.17297 0.45871 0.4498 0.0
N95 N 0.14517 0.45205 0.49672 0.0
C96 C 0.14095 0.4639 0.47046 0.0
C97 C 0.16101 0.44947 0.48699 0.0
C98 C 0.16869 0.47073 0.42266 0.0
C99 C 0.1098 0.42812 0.69936 0.0
N100 N 0.1019 0.43804 0.67732 0.0
C101 C 0.1192 0.43495 0.74054 0.0
C102 C 0.12048 0.45205 0.75917 0.0
C103 C 0.11236 0.46208 0.73653 0.0
C104 C 0.1031 0.45484 0.69539 0.0
C105 C 0.04046 0.42338 0.69015 0.0
C106 C 0.05876 0.43846 0.60884 0.0
C107 C 0.05744 0.42262 0.67741 0.0
N108 N 0.06636 0.4301 0.63717 0.0
C109 C 0.04182 0.43953 0.62051 0.0
C110 C 0.03263 0.43192 0.66144 0.0
C111 C 0.08516 0.42339 0.52015 0.0
C112 C 0.12683 0.38412 0.55092 0.0
C113 C 0.12036 0.40682 0.48896 0.0
C114 C 0.11801 0.38838 0.47635 0.0
C115 C 0.12128 0.37699 0.50761 0.0
N116 N 0.12588 0.41376 0.53147 0.0
C117 C 0.12903 0.40264 0.56234 0.0
Co118 Co 0.65997 0.08541 0.78696 0.0
Co119 Co 0.69711 0.12213 0.72582 0.0
O120 O 0.68765 0.10673 0.78074 0.0
C121 C 0.68279 0.06682 0.82348 0.0
O122 O 0.69309 0.0709 0.78636 0.0
C123 C 0.71192 0.15297 0.79738 0.0
O124 O 0.69351 0.14425 0.81241 0.0
O125 O 0.67585 0.12953 0.73109 0.0
O126 O 0.64998 0.09933 0.74704 0.0
H127 H 0.68911 0.14512 0.57471 0.0
H128 H 0.68411 0.1045 0.86785 0.0
O129 O 0.66904 0.07118 0.82781 0.0
H130 H 0.626 0.11444 0.87852 0.0
H131 H 0.60086 0.03252 0.87158 0.0
H132 H 0.62602 0.06353 0.72466 0.0
H133 H 0.62939 0.09607 0.81521 0.0
H134 H 0.63542 0.06039 0.86315 0.0
O135 O 0.7159 0.14638 0.76214 0.0
H136 H 0.67757 0.12512 0.64367 0.0
H137 H 0.73706 0.15341 0.69277 0.0
H138 H 0.59133 0.03579 0.73166 0.0
H139 H 0.68114 0.12269 0.93215 0.0
H140 H 0.57853 0.0201 0.80555 0.0
H141 H 0.65197 0.12785 0.93766 0.0
O142 O 0.66322 0.0717 0.73451 0.0
H143 H 0.75194 0.11167 0.78541 0.0
H144 H 0.71205 0.10676 0.65281 0.0
H145 H 0.73762 0.09668 0.64747 0.0
H146 H 0.75781 0.09915 0.71408 0.0
H147 H 0.72609 0.12144 0.78938 0.0
H148 H 0.74923 0.17384 0.62455 0.0
H149 H 0.72518 0.16969 0.56485 0.0
O150 O 0.67888 0.09782 0.68813 0.0
C151 C 0.65715 0.11754 0.73568 0.0
C152 C 0.69974 0.14702 0.60042 0.0
C153 C 0.73348 0.16316 0.62842 0.0
N154 N 0.70664 0.138 0.67199 0.0
C155 C 0.6933 0.13571 0.63946 0.0
C156 C 0.7265 0.15159 0.66702 0.0
C157 C 0.71998 0.16082 0.59493 0.0
C158 C 0.67125 0.10647 0.87027 0.0
N159 N 0.65694 0.0992 0.83781 0.0
C160 C 0.6697 0.11687 0.90666 0.0
C161 C 0.65334 0.11979 0.90969 0.0
C162 C 0.63878 0.11228 0.87652 0.0
C163 C 0.64082 0.10195 0.84065 0.0
C164 C 0.60625 0.03926 0.83923 0.0
C165 C 0.62054 0.05685 0.75697 0.0
C166 C 0.62582 0.05502 0.83423 0.0
N167 N 0.63269 0.06368 0.79351 0.0
C168 C 0.60089 0.04112 0.76071 0.0
C169 C 0.59373 0.03231 0.80217 0.0
C170 C 0.66887 0.07893 0.69553 0.0
C171 C 0.74328 0.11058 0.75613 0.0
C172 C 0.72073 0.10782 0.68199 0.0
C173 C 0.73522 0.10213 0.67873 0.0
C174 C 0.74655 0.10353 0.71611 0.0
N175 N 0.71764 0.11477 0.72134 0.0
C176 C 0.72867 0.11615 0.75813 0.0
Co177 Co 0.58691 0.65516 0.95613 0.0
Co178 Co 0.58507 0.69214 0.8978 0.0
O179 O 0.59269 0.68278 0.95092 0.0
C180 C 0.62884 0.6799 0.98963 0.0
O181 O 0.63227 0.69407 0.96098 0.0
C182 C 0.57012 0.70586 0.97361 0.0
O183 O 0.56201 0.68757 0.98918 0.0
O184 O 0.55675 0.6704 0.90504 0.0
O185 O 0.56152 0.64484 0.92137 0.0
H186 H 0.55073 0.68388 0.75083 0.0
H187 H 0.59521 0.67953 0.03787 0.0
O188 O 0.61187 0.66403 0.99146 0.0
H189 H 0.52771 0.62161 0.05932 0.0
H190 H 0.58382 0.59632 0.03577 0.0
H191 H 0.57287 0.62115 0.89329 0.0
H192 H 0.54685 0.62475 0.99116 0.0
H193 H 0.59007 0.63078 0.02948 0.0
O194 O 0.57953 0.7102 0.93663 0.0
H195 H 0.5611 0.67253 0.81726 0.0
H196 H 0.59195 0.73183 0.86739 0.0
H197 H 0.56629 0.58654 0.89821 0.0
H198 H 0.5767 0.67684 0.10687 0.0
H199 H 0.57177 0.57391 0.96985 0.0
H200 H 0.54265 0.64775 0.11783 0.0
O201 O 0.60195 0.65831 0.90056 0.0
H202 H 0.65023 0.74935 0.95167 0.0
H203 H 0.61406 0.70761 0.82218 0.0
H204 H 0.64913 0.73432 0.81363 0.0
H205 H 0.66744 0.75546 0.87864 0.0
H206 H 0.61524 0.72226 0.95894 0.0
H207 H 0.58178 0.7438 0.80172 0.0
H208 H 0.56109 0.71976 0.74278 0.0
O209 O 0.59098 0.67455 0.85739 0.0
C210 C 0.55029 0.6518 0.91013 0.0
C211 C 0.55979 0.69451 0.77622 0.0
C212 C 0.5772 0.72814 0.80481 0.0
N213 N 0.57723 0.70153 0.84594 0.0
C214 C 0.56575 0.68818 0.81383 0.0
C215 C 0.58287 0.72127 0.84197 0.0
C216 C 0.5656 0.71464 0.77175 0.0
C217 C 0.58051 0.66671 0.04265 0.0
N218 N 0.57217 0.6523 0.01057 0.0
C219 C 0.57005 0.66532 0.08169 0.0
C220 C 0.55094 0.64901 0.08778 0.0
C221 C 0.54254 0.63434 0.05495 0.0
C222 C 0.55343 0.63624 0.01634 0.0
C223 C 0.58133 0.60163 1.0044 0.0
C224 C 0.57517 0.61574 0.92466 0.0
C225 C 0.58487 0.62114 1.00061 0.0
N226 N 0.58167 0.62793 0.96115 0.0
C227 C 0.57147 0.59614 0.92721 0.0
C228 C 0.57457 0.58907 0.9674 0.0
C229 C 0.59975 0.66429 0.86253 0.0
C230 C 0.6424 0.74026 0.92307 0.0
C231 C 0.62197 0.71661 0.85075 0.0
C232 C 0.6418 0.73178 0.84564 0.0
C233 C 0.65206 0.74366 0.88211 0.0
N234 N 0.61261 0.71335 0.89106 0.0
C235 C 0.62255 0.72496 0.92694 0.0
Co236 Co 0.94324 0.58951 0.12521 0.0
Co237 Co 0.90336 0.58313 0.06235 0.0
O238 O 0.92048 0.59356 0.11521 0.0
C239 C 0.957 0.63171 0.15647 0.0
O240 O 0.94193 0.63198 0.13712 0.0
C241 C 0.87481 0.56922 0.13842 0.0
O242 O 0.88567 0.56232 0.15629 0.0
O243 O 0.89843 0.55566 0.07478 0.0
O244 O 0.9287 0.56235 0.09776 0.0
H245 H 0.87852 0.54338 0.92105 0.0
H246 H 0.92575 0.60041 0.2009 0.0
O247 O 0.9591 0.61642 0.15385 0.0
H248 H 0.92122 0.5368 0.2445 0.0
H249 H 1.00096 0.59339 0.21179 0.0
H250 H 0.9638 0.57347 0.06998 0.0
H251 H 0.93628 0.55263 0.17274 0.0
H252 H 0.9718 0.59779 0.20023 0.0
O253 O 0.87946 0.57751 0.10015 0.0
H254 H 0.90034 0.55707 0.98693 0.0
H255 H 0.86898 0.58646 0.02757 0.0
H256 H 0.99278 0.56867 0.08027 0.0
H257 H 0.91086 0.58527 0.27327 0.0
H258 H 1.01157 0.57866 0.15161 0.0
H259 H 0.90843 0.55317 0.29545 0.0
O260 O 0.95445 0.60169 0.06649 0.0
H261 H 0.90641 0.64782 0.10162 0.0
H262 H 0.91562 0.60946 0.98205 0.0
H263 H 0.92175 0.64335 0.96633 0.0
H264 H 0.91708 0.66276 0.02632 0.0
H265 H 0.90079 0.61401 0.11613 0.0
H266 H 0.84672 0.57298 0.96234 0.0
H267 H 0.85148 0.55133 0.90844 0.0
O268 O 0.92711 0.58901 0.02315 0.0
C269 C 0.91096 0.55015 0.085 0.0
C270 C 0.87633 0.55285 0.94422 0.0
C271 C 0.85847 0.56943 0.96743 0.0
N272 N 0.88603 0.57266 0.01082 0.0
C273 C 0.88867 0.56068 0.9815 0.0
C274 C 0.87109 0.57699 1.00435 0.0
C275 C 0.86116 0.5573 0.93719 0.0
C276 C 0.92506 0.58663 0.21052 0.0
N277 N 0.93209 0.57756 0.18268 0.0
C278 C 0.91648 0.57804 0.25147 0.0
C279 C 0.91508 0.56002 0.26385 0.0
C280 C 0.92224 0.55082 0.23528 0.0
C281 C 0.93071 0.55984 0.1946 0.0
C282 C 0.99286 0.58894 0.18059 0.0
C283 C 0.97183 0.57775 0.10121 0.0
C284 C 0.97636 0.59143 0.17381 0.0
N285 N 0.966 0.58574 0.13458 0.0
C286 C 0.98826 0.57504 0.1068 0.0
C287 C 0.99881 0.58067 0.14682 0.0
C288 C 0.94614 0.59816 0.02829 0.0
C289 C 0.9085 0.63952 0.0752 0.0
C290 C 0.9138 0.61788 0.00852 0.0
C291 C 0.91717 0.63703 0.99932 0.0
C292 C 0.91451 0.6479 0.03297 0.0
N293 N 0.90798 0.60978 0.05009 0.0
C294 C 0.90526 0.62032 0.08317 0.0
Co295 Co 0.36848 0.93315 0.28268 0.0
Co296 Co 0.33046 0.89614 0.2241 0.0
O297 O 0.34061 0.91196 0.27838 0.0
C298 C 0.34616 0.95188 0.3213 0.0
O299 O 0.33475 0.9468 0.28575 0.0
C300 C 0.31579 0.8658 0.29684 0.0
O301 O 0.33424 0.87453 0.31165 0.0
O302 O 0.35148 0.88841 0.22899 0.0
O303 O 0.37768 0.9187 0.24224 0.0
H304 H 0.33676 0.87168 0.07337 0.0
H305 H 0.34543 0.9149 0.36528 0.0
O306 O 0.36028 0.94796 0.32399 0.0
H307 H 0.40327 0.90439 0.37234 0.0
H308 H 0.4291 0.98632 0.36279 0.0
H309 H 0.40155 0.95424 0.21792 0.0
H310 H 0.39919 0.92237 0.30909 0.0
H311 H 0.39431 0.95865 0.35697 0.0
O312 O 0.31176 0.87225 0.26143 0.0
H313 H 0.3491 0.89217 0.14149 0.0
H314 H 0.29006 0.86503 0.19293 0.0
H315 H 0.43645 0.98176 0.2223 0.0
H316 H 0.34912 0.89714 0.42957 0.0
H317 H 0.45045 0.998 0.29515 0.0
H318 H 0.37815 0.89168 0.43326 0.0
O319 O 0.36464 0.94654 0.23039 0.0
H320 H 0.27665 0.90784 0.28512 0.0
H321 H 0.31523 0.91133 0.15122 0.0
H322 H 0.28994 0.9218 0.14647 0.0
H323 H 0.27041 0.92005 0.21374 0.0
H324 H 0.30223 0.89768 0.28849 0.0
H325 H 0.27709 0.84411 0.12558 0.0
H326 H 0.30051 0.84744 0.06513 0.0
O327 O 0.34857 0.92006 0.18521 0.0
C328 C 0.37025 0.90031 0.23232 0.0
C329 C 0.3264 0.87013 0.09942 0.0
C330 C 0.29291 0.85464 0.12875 0.0
N331 N 0.3203 0.87989 0.17094 0.0
C332 C 0.33329 0.88173 0.13799 0.0
C333 C 0.30034 0.86649 0.16685 0.0
C334 C 0.30606 0.85652 0.09484 0.0
C335 C 0.35823 0.9128 0.3669 0.0
N336 N 0.37207 0.91968 0.33344 0.0
C337 C 0.36019 0.90265 0.40329 0.0
C338 C 0.37646 0.89956 0.4053 0.0
C339 C 0.39055 0.90668 0.37113 0.0
C340 C 0.38812 0.91678 0.33529 0.0
C341 C 0.42318 0.97934 0.33087 0.0
C342 C 0.40755 0.96115 0.24979 0.0
C343 C 0.40348 0.9637 0.32735 0.0
N344 N 0.39594 0.95474 0.28719 0.0
C345 C 0.42732 0.97677 0.25204 0.0
C346 C 0.43515 0.98588 0.29291 0.0
C347 C 0.35865 0.939 0.19177 0.0
C348 C 0.28502 0.90862 0.25555 0.0
C349 C 0.30685 0.91058 0.18069 0.0
C350 C 0.29251 0.91649 0.17776 0.0
C351 C 0.28155 0.91549 0.2155 0.0
N352 N 0.31015 0.90382 0.22008 0.0
C353 C 0.29947 0.90282 0.25722 0.0
Co354 Co 0.65877 0.57911 0.39722 0.0
Co355 Co 0.69728 0.58202 0.45833 0.0
O356 O 0.6869 0.58699 0.40348 0.0
C357 C 0.67982 0.62088 0.36245 0.0
O358 O 0.69035 0.62705 0.39929 0.0
C359 C 0.71291 0.56682 0.3868 0.0
O360 O 0.69451 0.55663 0.37186 0.0
O361 O 0.6771 0.55301 0.4541 0.0
O362 O 0.64997 0.55497 0.4359 0.0
H363 H 0.69172 0.55234 0.6101 0.0
H364 H 0.68363 0.58629 0.31657 0.0
O365 O 0.66663 0.60258 0.35753 0.0
H366 H 0.628 0.51701 0.3025 0.0
H367 H 0.59838 0.56996 0.31304 0.0
H368 H 0.62445 0.5647 0.4593 0.0
H369 H 0.62993 0.53764 0.36695 0.0
H370 H 0.63356 0.57861 0.32134 0.0
O371 O 0.71664 0.5775 0.42181 0.0
H372 H 0.67898 0.55948 0.54124 0.0
H373 H 0.73802 0.59295 0.49045 0.0
H374 H 0.58914 0.55578 0.45242 0.0
H375 H 0.68214 0.56625 0.25123 0.0
H376 H 0.57589 0.55838 0.37887 0.0
H377 H 0.65422 0.53131 0.244 0.0
O378 O 0.66084 0.5953 0.45028 0.0
H379 H 0.74962 0.6481 0.39646 0.0
H380 H 0.71127 0.61275 0.53041 0.0
H381 H 0.7355 0.64883 0.53453 0.0
H382 H 0.75492 0.66674 0.46724 0.0
H383 H 0.72508 0.61204 0.39371 0.0
H384 H 0.75141 0.58603 0.55856 0.0
H385 H 0.72819 0.56566 0.61905 0.0
O386 O 0.67847 0.58708 0.49631 0.0
C387 C 0.65829 0.54518 0.44887 0.0
C388 C 0.702 0.56128 0.58403 0.0
C389 C 0.73549 0.58017 0.55508 0.0
N390 N 0.70776 0.57674 0.51208 0.0
C391 C 0.69487 0.56542 0.54505 0.0
C392 C 0.72783 0.584 0.51655 0.0
C393 C 0.72246 0.56875 0.58902 0.0
C394 C 0.67133 0.57117 0.31343 0.0
N395 N 0.65689 0.56316 0.34555 0.0
C396 C 0.6706 0.55987 0.27644 0.0
C397 C 0.65495 0.54025 0.27243 0.0
C398 C 0.64024 0.53222 0.30524 0.0
C399 C 0.64145 0.54396 0.34174 0.0
C400 C 0.60397 0.56873 0.34525 0.0
C401 C 0.61877 0.56576 0.42713 0.0
C402 C 0.62388 0.57364 0.35018 0.0
N403 N 0.63101 0.572 0.3907 0.0
C404 C 0.59878 0.56074 0.42346 0.0
C405 C 0.59135 0.56222 0.38219 0.0
C406 C 0.66726 0.59464 0.48903 0.0
C407 C 0.74129 0.64045 0.42604 0.0
C408 C 0.7196 0.62044 0.50093 0.0
C409 C 0.73334 0.64087 0.5035 0.0
C410 C 0.74424 0.6509 0.46574 0.0
N411 N 0.71682 0.61028 0.46188 0.0
C412 C 0.72743 0.62002 0.42472 0.0
Co413 Co 0.08641 0.65587 0.55698 0.0
Co414 Co 0.12402 0.69167 0.61916 0.0
O415 O 0.10838 0.68316 0.56436 0.0
C416 C 0.06825 0.67977 0.52441 0.0
O417 O 0.07245 0.68943 0.56245 0.0
C418 C 0.15459 0.70624 0.54702 0.0
O419 O 0.14513 0.68803 0.53081 0.0
O420 O 0.1304 0.66974 0.61233 0.0
O421 O 0.0999 0.64475 0.59481 0.0
H422 H 0.14663 0.68127 0.76858 0.0
H423 H 0.10554 0.68072 0.47699 0.0
O424 O 0.07253 0.66606 0.5181 0.0
H425 H 0.11352 0.62163 0.46023 0.0
H426 H 0.03208 0.5987 0.47038 0.0
H427 H 0.06394 0.62135 0.6175 0.0
H428 H 0.09584 0.62488 0.52515 0.0
H429 H 0.0607 0.63275 0.4802 0.0
O430 O 0.14845 0.71017 0.58302 0.0
H431 H 0.12639 0.67092 0.69986 0.0
H432 H 0.15632 0.73083 0.65341 0.0
H433 H 0.03546 0.58714 0.60909 0.0
H434 H 0.12305 0.67791 0.41114 0.0
H435 H 0.01933 0.57561 0.53509 0.0
H436 H 0.12723 0.64825 0.40256 0.0
O437 O 0.07324 0.65892 0.61074 0.0
H438 H 0.11571 0.74841 0.56374 0.0
H439 H 0.10973 0.70683 0.69388 0.0
H440 H 0.10082 0.73318 0.7014 0.0
H441 H 0.10384 0.75423 0.63604 0.0
H442 H 0.12431 0.72178 0.55758 0.0
H443 H 0.177 0.74182 0.72142 0.0
H444 H 0.17215 0.71696 0.77967 0.0
O445 O 0.09961 0.67373 0.65675 0.0
C446 C 0.11793 0.65122 0.60683 0.0
C447 C 0.14884 0.69225 0.74351 0.0
C448 C 0.16591 0.72623 0.71701 0.0
N449 N 0.14008 0.70027 0.67287 0.0
C450 C 0.13739 0.68648 0.7046 0.0
C451 C 0.15419 0.71992 0.67852 0.0
C452 C 0.16317 0.71228 0.74968 0.0
C453 C 0.10708 0.66765 0.47323 0.0
N454 N 0.09964 0.65298 0.50487 0.0
C455 C 0.1171 0.66619 0.43597 0.0
C456 C 0.11946 0.64956 0.43121 0.0
C457 C 0.11179 0.63463 0.46357 0.0
C458 C 0.10185 0.63659 0.50036 0.0
C459 C 0.03901 0.60354 0.50277 0.0
C460 C 0.05708 0.61641 0.58514 0.0
C461 C 0.05519 0.62281 0.50856 0.0
N462 N 0.06409 0.62898 0.54932 0.0
C463 C 0.04092 0.59704 0.5806 0.0
C464 C 0.03187 0.59059 0.53909 0.0
C465 C 0.08069 0.66412 0.64969 0.0
C466 C 0.11439 0.73938 0.59249 0.0
C467 C 0.11103 0.71588 0.66524 0.0
C468 C 0.106 0.73081 0.66973 0.0
C469 C 0.10771 0.74262 0.63305 0.0
N470 N 0.11763 0.71283 0.62536 0.0
C471 C 0.1193 0.72432 0.58924 0.0
Co472 Co 0.44264 0.0835 0.72765 0.0
Co473 Co 0.44173 0.11997 0.78862 0.0
O474 O 0.43598 0.10458 0.73382 0.0
C475 C 0.40113 0.06435 0.69139 0.0
O476 O 0.39484 0.06825 0.72864 0.0
C477 C 0.45811 0.15126 0.71788 0.0
O478 O 0.46877 0.14338 0.70407 0.0
O479 O 0.47049 0.12768 0.78359 0.0
O480 O 0.46655 0.09766 0.76746 0.0
H481 H 0.4725 0.14335 0.93979 0.0
H482 H 0.43734 0.10259 0.64708 0.0
O483 O 0.41933 0.06904 0.68684 0.0
H484 H 0.50563 0.11315 0.63584 0.0
H485 H 0.44949 0.03103 0.64297 0.0
H486 H 0.45509 0.06193 0.78989 0.0
H487 H 0.48395 0.09452 0.6991 0.0
H488 H 0.44243 0.05863 0.65145 0.0
O489 O 0.44687 0.14403 0.75202 0.0
H490 H 0.46429 0.12331 0.87096 0.0
H491 H 0.43259 0.15096 0.82127 0.0
H492 H 0.46242 0.03446 0.78284 0.0
H493 H 0.45843 0.12107 0.58288 0.0
H494 H 0.45965 0.01882 0.70895 0.0
H495 H 0.49287 0.12653 0.57707 0.0
O496 O 0.42578 0.06968 0.78021 0.0
H497 H 0.37615 0.10864 0.72872 0.0
H498 H 0.41137 0.10434 0.86156 0.0
H499 H 0.3756 0.09383 0.86677 0.0
H500 H 0.35776 0.096 0.80005 0.0
H501 H 0.41188 0.11883 0.72488 0.0
H502 H 0.44059 0.17143 0.88937 0.0
H503 H 0.46061 0.16762 0.94929 0.0
O504 O 0.43591 0.09579 0.82645 0.0
C505 C 0.47741 0.11588 0.77896 0.0
C506 C 0.46371 0.14511 0.91398 0.0
C507 C 0.44583 0.16089 0.88565 0.0
N508 N 0.44786 0.13587 0.84235 0.0
C509 C 0.45898 0.13377 0.875 0.0
C510 C 0.44139 0.1493 0.84712 0.0
C511 C 0.45705 0.15873 0.91927 0.0
C512 C 0.45223 0.10471 0.64454 0.0
N513 N 0.45937 0.09743 0.67677 0.0
C514 C 0.46414 0.11526 0.6082 0.0
C515 C 0.48347 0.11835 0.605 0.0
C516 C 0.49064 0.11085 0.63796 0.0
C517 C 0.4783 0.10036 0.67379 0.0
C518 C 0.45079 0.03775 0.67532 0.0
C519 C 0.45395 0.05528 0.75758 0.0
C520 C 0.44677 0.05336 0.68035 0.0
N521 N 0.44849 0.06199 0.72107 0.0
C522 C 0.45808 0.03969 0.75382 0.0
C523 C 0.4565 0.03091 0.71236 0.0
C524 C 0.42724 0.07692 0.81915 0.0
C525 C 0.38377 0.10768 0.75806 0.0
C526 C 0.4037 0.10527 0.83233 0.0
C527 C 0.38346 0.09934 0.83551 0.0
C528 C 0.37346 0.10056 0.79807 0.0
N529 N 0.41373 0.11228 0.79298 0.0
C530 C 0.40402 0.11349 0.75612 0.0
Co531 Co 0.36826 0.43601 0.89377 0.0
Co532 Co 0.33076 0.43687 0.95198 0.0
O533 O 0.34051 0.42983 0.89874 0.0
C534 C 0.34427 0.39402 0.86105 0.0
O535 O 0.33053 0.39026 0.89115 0.0
C536 C 0.31696 0.45222 0.87692 0.0
O537 O 0.33541 0.46114 0.86207 0.0
O538 O 0.35226 0.46536 0.9457 0.0
O539 O 0.37817 0.46117 0.92908 0.0
H540 H 0.33789 0.47009 0.09994 0.0
H541 H 0.34396 0.42779 0.81193 0.0
O542 O 0.35971 0.41126 0.85798 0.0
H543 H 0.40137 0.49572 0.79193 0.0
H544 H 0.42764 0.44025 0.8142 0.0
H545 H 0.40221 0.4502 0.95688 0.0
H546 H 0.39839 0.47635 0.85961 0.0
H547 H 0.393 0.43353 0.82037 0.0
O548 O 0.3126 0.44225 0.91315 0.0
H549 H 0.34979 0.46045 0.03332 0.0
H550 H 0.29071 0.42919 0.98187 0.0
H551 H 0.43699 0.45724 0.95209 0.0
H552 H 0.34649 0.44654 0.74342 0.0
H553 H 0.44993 0.45228 0.88035 0.0
H554 H 0.37531 0.4808 0.73319 0.0
O555 O 0.36521 0.4208 0.94901 0.0
H556 H 0.27455 0.37162 0.89569 0.0
H557 H 0.31526 0.40741 0.0267 0.0
H558 H 0.28893 0.37213 0.034 0.0
H559 H 0.26831 0.35401 0.96822 0.0
H560 H 0.30125 0.40683 0.88968 0.0
H561 H 0.27818 0.43863 0.04771 0.0
H562 H 0.30184 0.45916 0.10741 0.0
O563 O 0.34842 0.43105 0.99235 0.0
C564 C 0.37094 0.4721 0.94075 0.0
C565 C 0.32742 0.46109 0.07422 0.0
C566 C 0.29392 0.44346 0.04487 0.0
N567 N 0.32094 0.44415 1.00396 0.0
C568 C 0.33407 0.45555 0.0365 0.0
C569 C 0.30111 0.4382 1.00762 0.0
C570 C 0.3072 0.45497 0.07837 0.0
C571 C 0.35666 0.4426 0.80747 0.0
N572 N 0.37103 0.45092 0.83966 0.0
C573 C 0.35797 0.45318 0.76871 0.0
C574 C 0.37413 0.47241 0.76303 0.0
C575 C 0.38874 0.4808 0.79598 0.0
C576 C 0.38694 0.46977 0.83431 0.0
C577 C 0.4222 0.44252 0.84562 0.0
C578 C 0.40776 0.44812 0.92547 0.0
C579 C 0.40258 0.43871 0.84934 0.0
N580 N 0.39563 0.44163 0.88886 0.0
C581 C 0.42746 0.45208 0.92299 0.0
C582 C 0.43469 0.44927 0.88274 0.0
C583 C 0.35895 0.42259 0.98704 0.0
C584 C 0.28341 0.37937 0.92462 0.0
C585 C 0.30648 0.39959 0.99781 0.0
C586 C 0.29152 0.37963 1.0022 0.0
C587 C 0.27994 0.36948 0.9653 0.0
N588 N 0.30981 0.40918 0.95777 0.0
C589 C 0.29849 0.39934 0.92147 0.0
Co590 Co 0.94118 0.36045 0.05213 0.0
Co591 Co 0.90267 0.32801 0.12038 0.0
O592 O 0.91889 0.33387 0.06619 0.0
C593 C 0.95475 0.33156 0.02229 0.0
O594 O 0.93907 0.31606 0.03951 0.0
C595 C 0.87312 0.31293 0.04641 0.0
O596 O 0.88393 0.33052 0.02778 0.0
O597 O 0.89776 0.35064 0.10842 0.0
O598 O 0.92657 0.37338 0.07722 0.0
H599 H 0.88062 0.34473 0.26344 0.0
H600 H 0.92232 0.32938 0.98144 0.0
O601 O 0.95713 0.34904 0.02571 0.0
H602 H 0.91721 0.38684 0.9274 0.0
H603 H 0.99725 0.41198 0.95779 0.0
H604 H 0.9618 0.39878 0.10133 0.0
H605 H 0.93337 0.38854 0.99925 0.0
H606 H 0.96868 0.37863 0.97446 0.0
O607 O 0.8781 0.30952 0.08457 0.0
H608 H 0.90128 0.35198 0.19581 0.0
H609 H 0.86866 0.29088 0.1582 0.0
H610 H 0.99019 0.43241 0.08583 0.0
H611 H 0.90634 0.32716 0.90918 0.0
H612 H 1.00812 0.43918 0.01361 0.0
H613 H 0.90362 0.356 0.88168 0.0
O614 O 0.95343 0.36164 0.11096 0.0
H615 H 0.90444 0.26562 0.08181 0.0
H616 H 0.91612 0.31463 0.19982 0.0
H617 H 0.9222 0.28683 0.21551 0.0
H618 H 0.91629 0.26203 0.15631 0.0
H619 H 0.89886 0.29384 0.06731 0.0
H620 H 0.84755 0.28298 0.22523 0.0
H621 H 0.85353 0.31001 0.27848 0.0
O622 O 0.92715 0.34612 0.15723 0.0
C623 C 0.90958 0.36825 0.09422 0.0
C624 C 0.87791 0.33282 0.24056 0.0
C625 C 0.85933 0.29816 0.21908 0.0
N626 N 0.88627 0.32185 0.17332 0.0
C627 C 0.88959 0.33682 0.20229 0.0
C628 C 0.8713 0.30273 0.18114 0.0
C629 C 0.8627 0.31334 0.24895 0.0
C630 C 0.92157 0.34215 0.96954 0.0
N631 N 0.92908 0.35918 0.9945 0.0
C632 C 0.91234 0.34073 0.92863 0.0
C633 C 0.91076 0.35689 0.91328 0.0
C634 C 0.91837 0.37419 0.93893 0.0
C635 C 0.92748 0.37505 0.97969 0.0
C636 C 0.98953 0.40923 0.98934 0.0
C637 C 0.96945 0.40165 0.06971 0.0
C638 C 0.97336 0.39036 0.99902 0.0
N639 N 0.96346 0.3868 0.03871 0.0
C640 C 0.98555 0.4207 0.06118 0.0
C641 C 0.99562 0.42448 0.02067 0.0
C642 C 0.94598 0.35681 0.14998 0.0
C643 C 0.90707 0.27633 0.10789 0.0
C644 C 0.91374 0.30406 0.17369 0.0
C645 C 0.9171 0.28827 0.18287 0.0
C646 C 0.91375 0.27434 0.14967 0.0
N647 N 0.90725 0.30595 0.13257 0.0
C648 C 0.90387 0.29231 0.09992 0.0
Co649 Co 0.58427 0.93606 0.23201 0.0
Co650 Co 0.58563 0.89873 0.288 0.0
O651 O 0.59115 0.91505 0.23483 0.0
C652 C 0.62537 0.95529 0.19388 0.0
O653 O 0.63162 0.95011 0.22943 0.0
C654 C 0.56575 0.85832 0.24518 0.0
O655 O 0.55023 0.85342 0.27092 0.0
O656 O 0.55681 0.89083 0.28288 0.0
O657 O 0.56061 0.92114 0.27217 0.0
H658 H 0.554 0.8715 0.43677 0.0
H659 H 0.58892 0.91799 0.14899 0.0
O660 O 0.60732 0.95129 0.19095 0.0
H661 H 0.52088 0.90833 0.14204 0.0
H662 H 0.57677 0.98989 0.15533 0.0
H663 H 0.57206 0.95638 0.2983 0.0
H664 H 0.54292 0.9258 0.20567 0.0
H665 H 0.58398 0.96225 0.15932 0.0
O666 O 0.58101 0.87583 0.24764 0.0
H667 H 0.56215 0.89285 0.37005 0.0
H668 H 0.59606 0.86815 0.3174 0.0
H669 H 0.56459 0.98385 0.29575 0.0
H670 H 0.56745 0.90067 0.08439 0.0
H671 H 0.56691 1.00081 0.22386 0.0
H672 H 0.53314 0.89569 0.0807 0.0
O673 O 0.60142 0.94893 0.28463 0.0
H674 H 0.65169 0.91216 0.22647 0.0
H675 H 0.61587 0.91341 0.36126 0.0
H676 H 0.65174 0.92433 0.36602 0.0
H677 H 0.66988 0.92369 0.29831 0.0
H678 H 0.61586 0.90157 0.22308 0.0
H679 H 0.58822 0.84645 0.38341 0.0
H680 H 0.56707 0.84808 0.44371 0.0
O681 O 0.59105 0.92206 0.32869 0.0
C682 C 0.54974 0.90259 0.28072 0.0
C683 C 0.56325 0.87067 0.41076 0.0
C684 C 0.58245 0.8566 0.38079 0.0
N685 N 0.57962 0.88179 0.34005 0.0
C686 C 0.56793 0.88274 0.37297 0.0
C687 C 0.58682 0.86891 0.3435 0.0
C688 C 0.57059 0.85753 0.41462 0.0
C689 C 0.57406 0.91601 0.14746 0.0
N690 N 0.56723 0.92296 0.18101 0.0
C691 C 0.56195 0.90615 0.11086 0.0
C692 C 0.5427 0.90334 0.10882 0.0
C693 C 0.53581 0.91043 0.14322 0.0
C694 C 0.54835 0.92027 0.17923 0.0
C695 C 0.57567 0.98259 0.18683 0.0
C696 C 0.57301 0.9636 0.26684 0.0
C697 C 0.57978 0.96696 0.18932 0.0
N698 N 0.5783 0.9576 0.22895 0.0
C699 C 0.5688 0.97919 0.26563 0.0
C700 C 0.57013 0.98871 0.22529 0.0
C701 C 0.59986 0.94107 0.32289 0.0
C702 C 0.64393 0.91243 0.25624 0.0
C703 C 0.62366 0.91315 0.3316 0.0
C704 C 0.64397 0.91931 0.33453 0.0
C705 C 0.65414 0.91893 0.29654 0.0
N706 N 0.61373 0.90674 0.29196 0.0
C707 C 0.62362 0.90637 0.25457 0.0
H708 H 0.35124 0.42508 0.07591 0.0
H709 H 0.36174 0.41302 0.14031 0.0
H710 H 0.39054 0.39103 0.05255 0.0
H711 H 0.38013 0.40286 0.98825 0.0
H712 H 0.36695 0.36348 0.11947 0.0
H713 H 0.41906 0.43821 0.19053 0.0
H714 H 0.39409 0.43328 0.18011 0.0
H715 H 0.40974 0.43492 0.13419 0.0
C716 C 0.35981 0.41768 0.07026 0.0
C717 C 0.36486 0.41505 0.02668 0.0
C718 C 0.3659 0.41088 0.10718 0.0
C719 C 0.37716 0.40132 0.10136 0.0
C720 C 0.38193 0.39841 0.05796 0.0
H721 H 0.4296 0.34745 0.27142 0.0
H722 H 0.41716 0.35841 0.20873 0.0
C723 C 0.37595 0.40524 0.02114 0.0
C724 C 0.38395 0.39418 0.14021 0.0
H725 H 0.41411 0.41017 0.23214 0.0
C726 C 0.37727 0.37368 0.14413 0.0
C727 C 0.39741 0.40748 0.17239 0.0
C728 C 0.40567 0.42972 0.16913 0.0
C729 C 0.38344 0.36609 0.17959 0.0
C730 C 0.39709 0.37941 0.21157 0.0
C731 C 0.40369 0.39992 0.2077 0.0
C732 C 0.40456 0.37244 0.24958 0.0
C733 C 0.37488 0.3438 0.18296 0.0
C734 C 0.40213 0.37705 0.29354 0.0
C735 C 0.40941 0.371 0.32944 0.0
C736 C 0.41941 0.36018 0.32238 0.0
C737 C 0.42187 0.3556 0.27827 0.0
C738 C 0.41463 0.36176 0.24231 0.0
H739 H 0.36065 0.33549 0.16415 0.0
H740 H 0.38567 0.33984 0.16857 0.0
H741 H 0.37211 0.33877 0.2182 0.0
H742 H 0.3945 0.38534 0.30016 0.0
H743 H 0.40723 0.37489 0.3628 0.0
H744 H 0.09384 0.42825 0.43027 0.0
H745 H 0.07028 0.41778 0.36783 0.0
H746 H 0.02094 0.39372 0.46011 0.0
H747 H 0.0442 0.40447 0.52243 0.0
H748 H 0.04073 0.3805 0.34323 0.0
H749 H 1.00694 0.42727 0.38161 0.0
H750 H 0.02956 0.43111 0.40808 0.0
H751 H 1.00557 0.41172 0.42738 0.0
C752 C 0.07798 0.42084 0.43736 0.0
C753 C 0.07103 0.41727 0.48166 0.0
C754 C 0.0645 0.41483 0.40154 0.0
C755 C 0.04378 0.40523 0.40911 0.0
C756 C 0.03682 0.40152 0.45322 0.0
H757 H 0.93726 0.35071 0.23979 0.0
H758 H 0.96085 0.36218 0.30235 0.0
C759 C 0.05023 0.40755 0.48898 0.0
C760 C 0.02938 0.39852 0.37103 0.0
H761 H 0.99031 0.4019 0.32688 0.0
C762 C 0.02982 0.38531 0.33952 0.0
C763 C 0.01501 0.40469 0.36611 0.0
C764 C 0.01432 0.41963 0.39733 0.0
C765 C 0.01613 0.37784 0.30392 0.0
C766 C 1.00172 0.38392 0.29917 0.0
C767 C 1.00126 0.39714 0.33061 0.0
C768 C 0.98732 0.3771 0.26119 0.0
C769 C 0.01694 0.36313 0.27217 0.0
C770 C 0.99427 0.38193 0.21723 0.0
C771 C 0.98086 0.37545 0.18143 0.0
C772 C 0.96007 0.36397 0.1886 0.0
C773 C 0.95312 0.35941 0.23282 0.0
C774 C 0.9666 0.36598 0.2687 0.0
H775 H 0.02515 0.35608 0.28669 0.0
H776 H 1.00167 0.3512 0.26283 0.0
H777 H 0.02483 0.37108 0.24134 0.0
H778 H 1.01013 0.39083 0.21055 0.0
H779 H 0.98687 0.37945 0.14803 0.0
H780 H 0.62025 0.982 0.32314 0.0
H781 H 0.63249 1.00453 0.38685 0.0
H782 H 0.60913 0.95406 0.47594 0.0
H783 H 0.59715 0.93127 0.41206 0.0
H784 H 0.61217 1.009 0.45435 0.0
H785 H 0.66522 0.9874 0.52351 0.0
H786 H 0.65427 0.97968 0.46889 0.0
H787 H 0.64019 0.96685 0.51772 0.0
C788 C 0.61781 0.97559 0.3562 0.0
C789 C 0.60773 0.95471 0.36221 0.0
C790 C 0.62482 0.98857 0.39274 0.0
C791 C 0.62204 0.98111 0.43639 0.0
C792 C 0.61192 0.96027 0.44265 0.0
H793 H 0.64786 0.03794 0.69773 0.0
H794 H 0.63677 0.01468 0.63505 0.0
C795 C 0.60495 0.94722 0.406 0.0
C796 C 0.62916 0.99524 0.47502 0.0
H797 H 0.65918 0.00941 0.56737 0.0
C798 C 0.62253 1.00912 0.47891 0.0
C799 C 0.64268 0.99548 0.50727 0.0
C800 C 0.65117 0.98169 0.50405 0.0
C801 C 0.62878 0.02296 0.5142 0.0
C802 C 0.64229 0.02319 0.54638 0.0
C803 C 0.64885 0.00927 0.54271 0.0
C804 C 0.64954 0.03759 0.58441 0.0
C805 C 0.62052 0.03695 0.51725 0.0
C806 C 0.66074 0.05831 0.57704 0.0
C807 C 0.66719 0.07175 0.61294 0.0
C808 C 0.66263 0.06476 0.65713 0.0
C809 C 0.65167 0.04396 0.66431 0.0
C810 C 0.6453 0.03057 0.62843 0.0
H811 H 0.60685 0.03173 0.49667 0.0
H812 H 0.61691 0.03854 0.55228 0.0
H813 H 0.63191 0.05193 0.50501 0.0
H814 H 0.66453 0.06412 0.54344 0.0
H815 H 0.67566 0.08761 0.60599 0.0
H816 H 0.64494 0.61324 0.48658 0.0
H817 H 0.63445 0.62617 0.54877 0.0
H818 H 0.6639 0.60644 0.64068 0.0
H819 H 0.67491 0.59384 0.57846 0.0
H820 H 0.61084 0.60741 0.61894 0.0
H821 H 0.68588 0.66334 0.6808 0.0
H822 H 0.6822 0.65105 0.62769 0.0
H823 H 0.68226 0.63856 0.67824 0.0
C824 C 0.64935 0.61172 0.51995 0.0
C825 C 0.66093 0.60255 0.52726 0.0
C826 C 0.64327 0.61913 0.5556 0.0
C827 C 0.64862 0.61763 0.59954 0.0
C828 C 0.65998 0.60828 0.60708 0.0
H829 H 0.62035 0.64397 0.86094 0.0
H830 H 0.63182 0.63335 0.79639 0.0
C831 C 0.66617 0.60093 0.57138 0.0
C832 C 0.64181 0.62537 0.63734 0.0
H833 H 0.65829 0.65679 0.72728 0.0
C834 C 0.62125 0.61832 0.64241 0.0
C835 C 0.65534 0.63968 0.66805 0.0
C836 C 0.67766 0.64877 0.66327 0.0
C837 C 0.61386 0.62476 0.67775 0.0
C838 C 0.62737 0.63884 0.70874 0.0
C839 C 0.64792 0.646 0.70356 0.0
C840 C 0.62044 0.64576 0.74771 0.0
C841 C 0.59158 0.61602 0.68238 0.0
C842 C 0.61038 0.65655 0.74203 0.0
C843 C 0.60379 0.66278 0.77911 0.0
C844 C 0.60712 0.65832 0.82269 0.0
C845 C 0.61742 0.64769 0.82805 0.0
C846 C 0.62405 0.64159 0.79109 0.0
H847 H 0.58308 0.60239 0.66173 0.0
H848 H 0.5869 0.61222 0.71767 0.0
H849 H 0.5875 0.62722 0.67137 0.0
H850 H 0.60769 0.66024 0.7089 0.0
H851 H 0.59599 0.67097 0.77357 0.0
H852 H 0.03966 0.64351 0.64858 0.0
H853 H 0.01676 0.63301 0.71187 0.0
H854 H 0.06681 0.65947 0.80218 0.0
H855 H 0.0899 0.67041 0.73902 0.0
H856 H 1.01184 0.60802 0.78049 0.0
H857 H 0.03375 0.68302 0.84748 0.0
H858 H 0.04139 0.67947 0.79305 0.0
H859 H 0.05435 0.67861 0.84205 0.0
C860 C 0.04588 0.64727 0.68185 0.0
C861 C 0.06673 0.65797 0.68846 0.0
C862 C 0.0327 0.64119 0.7181 0.0
C863 C 0.03996 0.64568 0.76194 0.0
C864 C 0.06076 0.65621 0.76874 0.0
H865 H 0.9871 0.61789 0.02575 0.0
H866 H 1.0089 0.62883 0.96064 0.0
C867 C 0.07399 0.66236 0.73247 0.0
C868 C 0.02576 0.63887 0.8004 0.0
H869 H 1.01241 0.65525 0.89305 0.0
C870 C 1.01189 0.61838 0.80492 0.0
C871 C 0.02574 0.65233 0.83238 0.0
C872 C 0.03946 0.6746 0.82838 0.0
C873 C 0.9984 0.61098 0.84092 0.0
C874 C 0.99853 0.62442 0.87311 0.0
C875 C 1.0123 0.64491 0.86847 0.0
C876 C 0.98488 0.61753 0.9125 0.0
C877 C 0.98451 0.58874 0.84486 0.0
C878 C 0.964 0.60762 0.90736 0.0
C879 C 0.95137 0.6013 0.94474 0.0
C880 C 0.95935 0.60481 0.98816 0.0
C881 C 0.9803 0.61486 0.99302 0.0
C882 C 0.99287 0.62119 0.95572 0.0
H883 H 0.98947 0.5802 0.82387 0.0
H884 H 0.98342 0.58376 0.87997 0.0
H885 H 0.96935 0.58503 0.8337 0.0
H886 H 0.95745 0.60493 0.87441 0.0
H887 H 0.93536 0.59369 0.93955 0.0
H888 H 0.40722 0.03592 0.81724 0.0
H889 H 0.39464 0.01274 0.87999 0.0
H890 H 0.4172 0.06236 0.97132 0.0
H891 H 0.42947 0.08572 0.90863 0.0
H892 H 0.41426 1.00758 0.94818 0.0
H893 H 0.36081 0.02877 0.01626 0.0
H894 H 0.37221 0.03691 0.96216 0.0
H895 H 0.3858 0.04947 0.01172 0.0
C896 C 0.40941 0.04199 0.85061 0.0
C897 C 0.41931 0.06279 0.85763 0.0
C898 C 0.40221 0.02865 0.88657 0.0
C899 C 0.40463 0.0357 0.93056 0.0
C900 C 0.41465 0.05646 0.93776 0.0
H901 H 0.37965 0.98 0.19224 0.0
H902 H 0.39034 1.00273 0.1286 0.0
C903 C 0.4218 0.06984 0.90177 0.0
C904 C 0.39723 0.0213 0.9687 0.0
H905 H 0.36724 1.00721 0.06108 0.0
C906 C 0.40388 1.00743 0.97267 0.0
C907 C 0.38364 0.02101 1.00082 0.0
C908 C 0.37503 0.0347 0.9974 0.0
C909 C 0.39769 0.99367 0.00812 0.0
C910 C 0.38425 0.99351 0.04038 0.0
C911 C 0.37755 1.00732 0.03642 0.0
C912 C 0.37728 0.9794 0.07894 0.0
C913 C 0.40599 0.97972 0.01138 0.0
C914 C 0.36606 0.95862 0.07245 0.0
C915 C 0.35982 0.94549 0.10891 0.0
C916 C 0.36464 0.95284 0.15279 0.0
C917 C 0.37564 0.9737 0.15909 0.0
C918 C 0.38179 0.98678 0.12266 0.0
H919 H 0.41951 0.98478 0.99034 0.0
H920 H 0.40987 0.97843 0.04638 0.0
H921 H 0.39452 0.96464 0.99989 0.0
H922 H 0.36207 0.95254 0.03911 0.0
H923 H 0.35132 0.92957 0.10264 0.0
H924 H 0.63142 0.52542 0.5145 0.0
H925 H 0.60406 0.49068 0.51199 0.0
H926 H 0.62649 0.48265 0.38653 0.0
H927 H 0.65456 0.51682 0.39111 0.0
H928 H 0.57613 0.47768 0.45716 0.0
H929 H 0.60924 0.4295 0.43618 0.0
H930 H 0.62403 0.45532 0.45265 0.0
H931 H 0.6189 0.44866 0.39458 0.0
C932 C 0.63094 0.51583 0.48764 0.0
C933 C 0.64521 0.5235 0.45353 0.0
C934 C 0.61522 0.49606 0.48587 0.0
C935 C 0.61315 0.48378 0.44923 0.0
C936 C 0.62795 0.49137 0.41594 0.0
H937 H 0.49611 0.39907 0.35151 0.0
H938 H 0.53034 0.42663 0.36123 0.0
C939 C 0.64399 0.51097 0.41843 0.0
C940 C 0.59425 0.46435 0.44281 0.0
H941 H 0.57522 0.41584 0.40943 0.0
C942 C 0.57605 0.46413 0.44742 0.0
C943 C 0.59386 0.44644 0.43054 0.0
C944 C 0.61257 0.44495 0.42872 0.0
C945 C 0.55767 0.44687 0.43904 0.0
C946 C 0.55738 0.42945 0.42335 0.0
C947 C 0.57546 0.42934 0.42026 0.0
C948 C 0.53834 0.41134 0.41043 0.0
C949 C 0.53873 0.44748 0.4478 0.0
C950 C 0.53203 0.39294 0.43178 0.0
C951 C 0.51266 0.37688 0.42486 0.0
C952 C 0.49934 0.37912 0.39688 0.0
C953 C 0.50617 0.39699 0.37306 0.0
C954 C 0.52561 0.41281 0.37913 0.0
H955 H 0.54122 0.45917 0.47261 0.0
H956 H 0.53366 0.45113 0.41641 0.0
H957 H 0.5266 0.43288 0.46026 0.0
H958 H 0.54161 0.3914 0.45585 0.0
H959 H 0.50758 0.36336 0.4442 0.0
H960 H 0.15336 0.50375 0.55388 0.0
H961 H 0.16119 0.53864 0.56082 0.0
H962 H 0.10369 0.51874 0.62132 0.0
H963 H 0.0957 0.48424 0.61456 0.0
H964 H 0.13867 0.55704 0.52689 0.0
H965 H 0.1441 0.56006 0.71086 0.0
H966 H 0.14603 0.54145 0.67827 0.0
H967 H 0.12192 0.53844 0.69091 0.0
C968 C 0.14239 0.50682 0.56864 0.0
C969 C 0.12397 0.4911 0.58405 0.0
C970 C 0.14691 0.52675 0.57261 0.0
C971 C 0.13318 0.53127 0.59245 0.0
C972 C 0.11469 0.51563 0.60684 0.0
H973 H 0.09451 0.61228 0.62966 0.0
H974 H 0.1031 0.58594 0.62793 0.0
C975 C 0.11013 0.49583 0.60272 0.0
C976 C 0.13757 0.55218 0.59766 0.0
H977 H 0.1372 0.58407 0.6759 0.0
C978 C 0.13893 0.56325 0.55943 0.0
C979 C 0.13796 0.56026 0.6402 0.0
C980 C 0.13763 0.54952 0.68243 0.0
C981 C 0.13911 0.5815 0.56265 0.0
C982 C 0.13807 0.58884 0.60513 0.0
C983 C 0.13799 0.57839 0.64338 0.0
C984 C 0.13403 0.60556 0.61013 0.0
C985 C 0.13901 0.59217 0.52066 0.0
C986 C 0.14878 0.62547 0.60192 0.0
C987 C 0.14394 0.64072 0.60339 0.0
C988 C 0.12425 0.63616 0.61258 0.0
C989 C 0.1098 0.61629 0.62238 0.0
C990 C 0.11467 0.6012 0.6214 0.0
H991 H 0.13906 0.58409 0.49011 0.0
H992 H 0.1256 0.59393 0.52008 0.0
H993 H 0.15236 0.60736 0.52009 0.0
H994 H 0.16384 0.62911 0.59333 0.0
H995 H 0.15533 0.65586 0.59528 0.0
H996 H 0.49497 0.0951 0.80793 0.0
H997 H 0.53019 0.10482 0.80243 0.0
H998 H 0.54406 0.16264 0.7525 0.0
H999 H 0.50859 0.15303 0.75852 0.0
H1000 H 0.55651 0.13929 0.69719 0.0
H1001 H 0.58138 0.14544 0.8726 0.0
H1002 H 0.55759 0.12369 0.86136 0.0
H1003 H 0.56029 0.14809 0.85631 0.0
C1004 C 0.50558 0.1101 0.79697 0.0
C1005 C 0.49906 0.12336 0.78395 0.0
C1006 C 0.52572 0.11564 0.79391 0.0
C1007 C 0.53977 0.1345 0.7774 0.0
C1008 C 0.53346 0.14809 0.76574 0.0
H1009 H 0.66251 0.15434 0.75717 0.0
H1010 H 0.63627 0.16341 0.76337 0.0
C1011 C 0.51326 0.14264 0.76948 0.0
C1012 C 0.56042 0.13886 0.76814 0.0
H1013 H 0.60034 0.13921 0.81787 0.0
C1014 C 0.56634 0.13979 0.72358 0.0
C1015 C 0.57325 0.13956 0.80255 0.0
C1016 C 0.56793 0.13933 0.85095 0.0
C1017 C 0.58412 0.14 0.71253 0.0
C1018 C 0.59622 0.13924 0.74692 0.0
C1019 C 0.59101 0.13974 0.79151 0.0
C1020 C 0.61277 0.13527 0.73752 0.0
C1021 C 0.58944 0.14022 0.66414 0.0
C1022 C 0.60828 0.11661 0.7204 0.0
C1023 C 0.6231 0.11137 0.71724 0.0
C1024 C 0.64279 0.12477 0.73075 0.0
C1025 C 0.64754 0.14387 0.74581 0.0
C1026 C 0.63256 0.149 0.74966 0.0
H1027 H 0.58201 0.1463 0.6427 0.0
H1028 H 0.60586 0.14924 0.65911 0.0
H1029 H 0.58442 0.12471 0.65317 0.0
H1030 H 0.59307 0.10568 0.71149 0.0
H1031 H 0.61897 0.0965 0.70583 0.0
H1032 H 0.53345 0.61327 0.88291 0.0
H1033 H 0.49826 0.5875 0.88639 0.0
H1034 H 0.48308 0.63104 0.93255 0.0
H1035 H 0.51852 0.65718 0.92849 0.0
H1036 H 0.47016 0.5943 0.98816 0.0
H1037 H 0.44813 0.57779 0.81058 0.0
H1038 H 0.47201 0.58036 0.8237 0.0
H1039 H 0.46851 0.60156 0.82914 0.0
C1040 C 0.52259 0.61749 0.89282 0.0
C1041 C 0.52872 0.63726 0.90526 0.0
C1042 C 0.50248 0.60275 0.89468 0.0
C1043 C 0.48806 0.60739 0.90941 0.0
C1044 C 0.49399 0.62722 0.9207 0.0
H1045 H 0.36536 0.50363 0.92124 0.0
H1046 H 0.39139 0.53912 0.91736 0.0
C1047 C 0.51418 0.64213 0.91813 0.0
C1048 C 0.46731 0.59096 0.91687 0.0
H1049 H 0.42835 0.55199 0.86329 0.0
C1050 C 0.46075 0.58531 0.96087 0.0
C1051 C 0.45506 0.57931 0.88126 0.0
C1052 C 0.46116 0.58511 0.83344 0.0
C1053 C 0.44291 0.56751 0.97017 0.0
C1054 C 0.4314 0.55512 0.93458 0.0
C1055 C 0.43722 0.5615 0.89056 0.0
C1056 C 0.41497 0.53438 0.94219 0.0
C1057 C 0.43692 0.56161 0.018 0.0
C1058 C 0.4196 0.52009 0.95786 0.0
C1059 C 0.40493 0.49995 0.95961 0.0
C1060 C 0.38524 0.49368 0.94615 0.0
C1061 C 0.38035 0.5081 0.93243 0.0
C1062 C 0.39519 0.52831 0.92996 0.0
H1063 H 0.44407 0.57474 0.04058 0.0
H1064 H 0.42044 0.55418 0.02191 0.0
H1065 H 0.44173 0.55088 0.02844 0.0
H1066 H 0.43481 0.5244 0.96687 0.0
H1067 H 0.40917 0.48917 0.97015 0.0
H1068 H 0.87518 0.36553 0.12949 0.0
H1069 H 0.86576 0.39164 0.12956 0.0
H1070 H 0.92071 0.43175 0.06222 0.0
H1071 H 0.93043 0.40641 0.06278 0.0
H1072 H 0.89268 0.4347 0.16562 0.0
H1073 H 0.87273 0.43002 0.9868 0.0
H1074 H 0.87133 0.4092 0.01742 0.0
H1075 H 0.89503 0.4289 0.99786 0.0
C1076 C 0.88523 0.37991 0.11469 0.0
C1077 C 0.9035 0.38371 0.09577 0.0
C1078 C 0.8798 0.39476 0.11468 0.0
C1079 C 0.89241 0.41346 0.09515 0.0
C1080 C 0.91062 0.41729 0.07673 0.0
H1081 H 0.93457 0.53384 0.10039 0.0
H1082 H 0.92481 0.4988 0.10509 0.0
C1083 C 0.91615 0.4027 0.07719 0.0
C1084 C 0.88748 0.42967 0.09516 0.0
H1085 H 0.88269 0.46133 0.0234 0.0
C1086 C 0.88988 0.44022 0.1348 0.0
C1087 C 0.88375 0.43679 0.05496 0.0
C1088 C 0.88038 0.42557 0.01181 0.0
C1089 C 0.89031 0.4586 0.13459 0.0
C1090 C 0.88839 0.4666 0.09369 0.0
C1091 C 0.88427 0.45523 0.05468 0.0
C1092 C 0.89368 0.48782 0.08995 0.0
C1093 C 0.89389 0.46987 0.17776 0.0
C1094 C 0.87948 0.49332 0.07842 0.0
C1095 C 0.88501 0.5136 0.07576 0.0
C1096 C 0.90488 0.5286 0.08416 0.0
C1097 C 0.91908 0.52283 0.09419 0.0
C1098 C 0.91353 0.50274 0.0971 0.0
H1099 H 0.88934 0.45966 0.20693 0.0
H1100 H 0.91007 0.48084 0.18101 0.0
H1101 H 0.88561 0.47817 0.1785 0.0
H1102 H 0.8641 0.48197 0.07225 0.0
H1103 H 0.8737 0.51748 0.06786 0.0
H1104 H 0.40823 0.92065 0.20098 0.0
H1105 H 0.43396 0.9113 0.20751 0.0
H1106 H 0.39074 0.85437 0.26293 0.0
H1107 H 0.36467 0.86364 0.25601 0.0
H1108 H 0.42625 0.87805 0.31614 0.0
H1109 H 0.44521 0.87063 0.14194 0.0
H1110 H 0.44335 0.89258 0.15132 0.0
H1111 H 0.42153 0.8683 0.15742 0.0
C1112 C 0.40404 0.9059 0.21334 0.0
C1113 C 0.38441 0.89281 0.22768 0.0
C1114 C 0.41876 0.90056 0.21697 0.0
C1115 C 0.41424 0.88208 0.23533 0.0
C1116 C 0.39448 0.86863 0.24824 0.0
H1117 H 0.51905 0.86556 0.25745 0.0
H1118 H 0.48353 0.85555 0.25064 0.0
C1119 C 0.3796 0.87387 0.24397 0.0
C1120 C 0.43075 0.87811 0.24532 0.0
H1121 H 0.4708 0.87825 0.19692 0.0
C1122 C 0.43573 0.87758 0.29009 0.0
C1123 C 0.44304 0.87738 0.21136 0.0
C1124 C 0.43794 0.87706 0.16278 0.0
C1125 C 0.45346 0.8778 0.30172 0.0
C1126 C 0.46652 0.87864 0.26774 0.0
C1127 C 0.46081 0.87769 0.22299 0.0
C1128 C 0.48719 0.88313 0.27759 0.0
C1129 C 0.45845 0.87791 0.35031 0.0
C1130 C 0.50091 0.9018 0.29554 0.0
C1131 C 0.52109 0.90757 0.29913 0.0
C1132 C 0.528 0.89474 0.2851 0.0
C1133 C 0.51411 0.87562 0.26918 0.0
C1134 C 0.49386 0.86995 0.26499 0.0
H1135 H 0.44479 0.87131 0.37134 0.0
H1136 H 0.46648 0.86954 0.35595 0.0
H1137 H 0.4683 0.89357 0.3613 0.0
H1138 H 0.49617 0.91234 0.30476 0.0
H1139 H 0.53144 0.92243 0.31125 0.0
H1140 H 0.30976 0.36361 0.82476 0.0
H1141 H 0.30741 0.34144 0.76308 0.0
H1142 H 0.37155 0.36808 0.76375 0.0
H1143 H 0.37399 0.39021 0.82408 0.0
H1144 H 0.32835 0.35795 0.67833 0.0
H1145 H 0.35042 0.30698 0.75521 0.0
H1146 H 0.33959 0.31915 0.78683 0.0
H1147 H 0.36585 0.33228 0.77368 0.0
C1148 C 0.32325 0.36433 0.81226 0.0
C1149 C 0.34205 0.37861 0.82896 0.0
C1150 C 0.3219 0.35173 0.77712 0.0
C1151 C 0.33929 0.35296 0.75937 0.0
C1152 C 0.35793 0.36663 0.77751 0.0
H1153 H 0.41258 0.35839 0.57192 0.0
H1154 H 0.39072 0.35425 0.63398 0.0
C1155 C 0.35931 0.37937 0.81177 0.0
C1156 C 0.33887 0.34204 0.71855 0.0
H1157 H 0.36075 0.31647 0.67784 0.0
C1158 C 0.33463 0.34816 0.67797 0.0
C1159 C 0.34696 0.32922 0.71831 0.0
C1160 C 0.35078 0.32135 0.76093 0.0
C1161 C 0.34061 0.3438 0.63729 0.0
C1162 C 0.35087 0.33294 0.63758 0.0
C1163 C 0.35298 0.32489 0.67775 0.0
C1164 C 0.36344 0.33391 0.59944 0.0
C1165 C 0.33788 0.35259 0.59483 0.0
C1166 C 0.3553 0.32368 0.55935 0.0
C1167 C 0.36789 0.32603 0.52331 0.0
C1168 C 0.38869 0.33874 0.52702 0.0
C1169 C 0.39665 0.34862 0.56762 0.0
C1170 C 0.38417 0.34619 0.60334 0.0
H1171 H 0.3296 0.36072 0.60035 0.0
H1172 H 0.35269 0.36309 0.58018 0.0
H1173 H 0.32954 0.34052 0.57021 0.0
H1174 H 0.33931 0.31407 0.55586 0.0
H1175 H 0.36134 0.31817 0.49251 0.0
H1176 H 0.94491 0.29975 0.96701 0.0
H1177 H 0.96338 0.30032 0.89991 0.0
H1178 H 1.01174 0.3584 0.93701 0.0
H1179 H 0.99338 0.35806 1.0034 0.0
H1180 H 0.99037 0.35544 0.85481 0.0
H1181 H 0.01702 0.30059 0.86452 0.0
H1182 H 0.99217 0.29315 0.88395 0.0
H1183 H 1.01338 0.31189 0.91373 0.0
C1184 C 0.95983 0.31224 0.96174 0.0
C1185 C 0.96768 0.32894 0.99013 0.0
C1186 C 0.97035 0.31255 0.92342 0.0
C1187 C 0.98889 0.32941 0.91359 0.0
C1188 C 0.99748 0.34524 0.94412 0.0
H1189 H 0.07502 0.37992 0.70892 0.0
H1190 H 0.05622 0.36091 0.77401 0.0
C1191 C 0.98697 0.34502 0.98201 0.0
C1192 C 0.99763 0.33248 0.86847 0.0
H1193 H 0.02348 0.31904 0.79759 0.0
C1194 C 0.99746 0.34736 0.84211 0.0
C1195 C 1.00684 0.3219 0.85226 0.0
C1196 C 1.00754 0.30601 0.87995 0.0
C1197 C 1.0067 0.35237 0.80034 0.0
C1198 C 0.01607 0.34192 0.78404 0.0
C1199 C 0.01603 0.32679 0.81004 0.0
C1200 C 0.0274 0.3481 0.74177 0.0
C1201 C 1.00706 0.36938 0.77471 0.0
C1202 C 0.01747 0.3462 0.70137 0.0
C1203 C 0.02815 0.35717 0.66407 0.0
C1204 C 0.04891 0.37019 0.66674 0.0
C1205 C 0.05901 0.37022 0.70581 0.0
C1206 C 0.04831 0.35929 0.74309 0.0
H1207 H 1.00213 0.37804 0.79537 0.0
H1208 H 0.02233 0.37975 0.76203 0.0
H1209 H 0.9969 0.36331 0.74562 0.0
H1210 H 1.00131 0.3375 0.69974 0.0
H1211 H 0.01991 0.35661 0.6344 0.0
H1212 H 0.61481 0.9614 0.11174 0.0
H1213 H 0.63631 0.97891 0.0492 0.0
H1214 H 0.68805 0.98958 0.12542 0.0
H1215 H 0.66634 0.9719 0.18933 0.0
H1216 H 0.6922 0.02372 0.08474 0.0
H1217 H 0.66596 0.96344 0.96068 0.0
H1218 H 0.64492 0.96311 0.98666 0.0
H1219 H 0.66169 0.95851 0.01973 0.0
C1220 C 0.63073 0.96728 0.11541 0.0
C1221 C 0.63886 0.96531 0.15571 0.0
C1222 C 0.64301 0.9771 0.07926 0.0
C1223 C 0.66374 0.98515 0.08222 0.0
C1224 C 0.67204 0.9832 0.12226 0.0
H1225 H 0.70333 0.04613 0.82414 0.0
H1226 H 0.70679 0.02778 0.88741 0.0
C1227 C 0.65965 0.97316 0.1587 0.0
C1228 C 0.67636 0.99724 0.04448 0.0
H1229 H 0.67563 0.99686 0.93093 0.0
C1230 C 0.68918 0.01777 0.05114 0.0
C1231 C 0.67294 0.98948 1.00065 0.0
C1232 C 0.66079 0.96737 0.99161 0.0
C1233 C 0.69649 0.03099 0.01489 0.0
C1234 C 0.69048 0.02346 0.9712 0.0
C1235 C 0.67991 1.00273 0.96444 0.0
C1236 C 0.69123 0.03651 0.93417 0.0
C1237 C 0.70947 0.05303 0.02389 0.0
C1238 C 0.68129 0.04738 0.93944 0.0
C1239 C 0.67915 0.05759 0.90367 0.0
C1240 C 0.68681 0.05714 0.86149 0.0
C1241 C 0.69731 0.04677 0.85629 0.0
C1242 C 0.69933 0.03633 0.89235 0.0
H1243 H 0.71912 0.0556 0.05345 0.0
H1244 H 0.71908 0.06099 0.99485 0.0
H1245 H 0.69983 0.05952 0.03131 0.0
H1246 H 0.6744 0.04729 0.97092 0.0
H1247 H 0.67105 0.0655 0.90899 0.0
H1248 H 0.65779 0.71434 0.02925 0.0
H1249 H 0.67942 0.71662 0.09206 0.0
H1250 H 0.65544 0.6529 0.08602 0.0
H1251 H 0.63383 0.65052 0.02449 0.0
H1252 H 0.66236 0.69422 0.17437 0.0
H1253 H 0.7166 0.67605 0.09965 0.0
H1254 H 0.70405 0.68638 0.06769 0.0
H1255 H 0.69172 0.66001 0.07933 0.0
C1256 C 0.65757 0.70096 0.04078 0.0
C1257 C 0.64416 0.68225 0.02219 0.0
C1258 C 0.66986 0.70227 0.07659 0.0
C1259 C 0.66921 0.68496 0.09321 0.0
C1260 C 0.65646 0.66648 0.07317 0.0
H1261 H 0.66498 0.61101 0.27864 0.0
H1262 H 0.66887 0.63311 0.21733 0.0
C1263 C 0.64402 0.66512 0.0382 0.0
C1264 C 0.67967 0.68519 0.1347 0.0
H1265 H 0.70635 0.66461 0.17615 0.0
C1266 C 0.67266 0.68854 0.17507 0.0
C1267 C 0.69316 0.67789 0.1354 0.0
C1268 C 0.70198 0.67507 0.09313 0.0
C1269 C 0.67687 0.68246 0.21579 0.0
C1270 C 0.6885 0.673 0.21582 0.0
C1271 C 0.69734 0.67177 0.176 0.0
C1272 C 0.68771 0.66035 0.25364 0.0
C1273 C 0.66718 0.68422 0.25784 0.0
C1274 C 0.69719 0.66838 0.29452 0.0
C1275 C 0.69498 0.65565 0.33016 0.0
C1276 C 0.68316 0.6348 0.32526 0.0
C1277 C 0.67405 0.62698 0.28388 0.0
C1278 C 0.67634 0.6396 0.24858 0.0
H1279 H 0.65842 0.69184 0.25206 0.0
H1280 H 0.65707 0.66913 0.27171 0.0
H1281 H 0.67882 0.69277 0.2832 0.0
H1282 H 0.70611 0.6844 0.29893 0.0
H1283 H 0.70223 0.66211 0.36157 0.0
H1284 H 0.048 0.70075 0.52774 0.0
H1285 H 0.02957 0.70547 0.46635 0.0
H1286 H 0.04802 0.67385 0.3776 0.0
H1287 H 0.06626 0.66915 0.43777 0.0
H1288 H 0.05054 0.71045 0.34161 0.0
H1289 H 0.9767 0.65668 0.41642 0.0
H1290 H 0.99494 0.67742 0.44889 0.0
H1291 H 0.99926 0.65736 0.43481 0.0
C1292 C 0.04826 0.69502 0.49498 0.0
C1293 C 0.05838 0.68437 0.48775 0.0
C1294 C 0.03772 0.69769 0.46006 0.0
C1295 C 0.03737 0.6899 0.41758 0.0
C1296 C 0.04813 0.68001 0.41011 0.0
H1297 H 0.9947 0.64183 0.18011 0.0
H1298 H 0.0142 0.66318 0.24158 0.0
C1299 C 0.05845 0.67723 0.44472 0.0
C1300 C 0.02489 0.69046 0.38082 0.0
H1301 H 0.97757 0.66285 0.33993 0.0
C1302 C 0.03447 0.70056 0.34154 0.0
C1303 C 1.00393 0.67771 0.38093 0.0
C1304 C 0.99295 0.66659 0.42237 0.0
C1305 C 0.02389 0.69678 0.30137 0.0
C1306 C 1.00333 0.68231 0.30046 0.0
C1307 C 0.99337 0.67387 0.34065 0.0
C1308 C 0.99301 0.67274 0.25826 0.0
C1309 C 0.03508 0.70739 0.25974 0.0
C1310 C 0.97461 0.67109 0.2468 0.0
C1311 C 0.96336 0.65882 0.21127 0.0
C1312 C 0.97022 0.64775 0.18748 0.0
C1313 C 0.98904 0.6502 0.1978 0.0
C1314 C 1.0003 0.66256 0.23275 0.0
H1315 H 0.0476 0.72257 0.26767 0.0
H1316 H 0.04158 0.69887 0.24436 0.0
H1317 H 0.02508 0.70869 0.23506 0.0
H1318 H 0.9686 0.67862 0.26644 0.0
H1319 H 0.94882 0.65705 0.20428 0.0
H1320 H 0.36306 0.95795 0.40319 0.0
H1321 H 0.35932 0.97547 0.46594 0.0
H1322 H 0.3179 0.98604 0.3909 0.0
H1323 H 0.32171 0.96837 0.32669 0.0
H1324 H 0.34781 0.02016 0.43098 0.0
H1325 H 0.31486 0.96012 0.55577 0.0
H1326 H 0.33556 0.95993 0.52938 0.0
H1327 H 0.31398 0.95506 0.49676 0.0
C1328 C 0.35298 0.9638 0.39982 0.0
C1329 C 0.34273 0.96181 0.35972 0.0
C1330 C 0.35067 0.97363 0.43612 0.0
C1331 C 0.33797 0.98166 0.43357 0.0
C1332 C 0.32755 0.97967 0.39375 0.0
H1333 H 0.3599 0.04305 0.69135 0.0
H1334 H 0.33803 0.02434 0.62846 0.0
C1335 C 0.32977 0.96963 0.35714 0.0
C1336 C 0.33761 0.99379 0.47143 0.0
H1337 H 0.33862 0.99366 0.58498 0.0
C1338 C 0.34513 0.01428 0.46464 0.0
C1339 C 0.3336 0.98612 0.51537 0.0
C1340 C 0.32382 0.96404 0.52465 0.0
C1341 C 0.35114 0.02757 0.50078 0.0
C1342 C 0.34992 0.02016 0.54448 0.0
C1343 C 0.33998 0.99944 0.55145 0.0
C1344 C 0.36224 0.03337 0.58131 0.0
C1345 C 0.35992 0.04956 0.49159 0.0
C1346 C 0.38302 0.04453 0.57571 0.0
C1347 C 0.39542 0.05496 0.61127 0.0
C1348 C 0.38738 0.05444 0.65358 0.0
C1349 C 0.36651 0.04376 0.65911 0.0
C1350 C 0.35402 0.03311 0.62326 0.0
H1351 H 0.35264 0.05196 0.46219 0.0
H1352 H 0.35828 0.05749 0.52068 0.0
H1353 H 0.37606 0.05622 0.48384 0.0
H1354 H 0.3898 0.04453 0.54412 0.0
H1355 H 0.41141 0.0631 0.6057 0.0
H1356 H 0.43237 0.27048 0.45678 0.0
H1357 H 0.43217 0.24371 0.50068 0.0
H1358 H 0.4844 0.28717 0.57201 0.0
H1359 H 0.48424 0.31404 0.5294 0.0
H1360 H 0.45746 0.23066 0.50867 0.0
H1361 H 0.44961 0.25704 0.67461 0.0
H1362 H 0.44683 0.26777 0.62368 0.0
H1363 H 0.47133 0.27552 0.64573 0.0
C1364 C 0.4438 0.27437 0.4819 0.0
C1365 C 0.45825 0.29447 0.4897 0.0
C1366 C 0.44367 0.25901 0.50704 0.0
C1367 C 0.45802 0.26333 0.54049 0.0
C1368 C 0.47278 0.28338 0.54749 0.0
H1369 H 0.48418 0.17422 0.65222 0.0
H1370 H 0.4843 0.20128 0.60978 0.0
C1371 C 0.47277 0.29877 0.52276 0.0
C1372 C 0.45774 0.24685 0.56726 0.0
H1373 H 0.45793 0.23122 0.67383 0.0
C1374 C 0.45747 0.23077 0.5448 0.0
C1375 C 0.45738 0.24667 0.6145 0.0
C1376 C 0.45608 0.26256 0.64104 0.0
C1377 C 0.45717 0.21478 0.56801 0.0
C1378 C 0.45779 0.21509 0.61524 0.0
C1379 C 0.45773 0.23102 0.63771 0.0
C1380 C 0.45814 0.19892 0.64199 0.0
C1381 C 0.45563 0.19748 0.54151 0.0
C1382 C 0.44394 0.18901 0.67578 0.0
C1383 C 0.4441 0.17378 0.70082 0.0
C1384 C 0.45843 0.168 0.69258 0.0
C1385 C 0.47281 0.17812 0.65922 0.0
C1386 C 0.47279 0.19353 0.63458 0.0
H1387 H 0.44899 0.19648 0.50812 0.0
H1388 H 0.47082 0.19968 0.53642 0.0
H1389 H 0.44643 0.18308 0.55912 0.0
H1390 H 0.43253 0.1929 0.68246 0.0
H1391 H 0.43278 0.16631 0.72619 0.0
H1392 H 0.3207 0.47168 0.79791 0.0
H1393 H 0.29434 0.47243 0.75423 0.0
H1394 H 0.25072 0.43548 0.85243 0.0
H1395 H 0.27695 0.43449 0.89617 0.0
H1396 H 0.23831 0.42265 0.76559 0.0
H1397 H 0.26585 0.50383 0.78115 0.0
H1398 H 0.28405 0.49793 0.76019 0.0
H1399 H 0.27484 0.491 0.81612 0.0
C1400 C 0.30553 0.46381 0.81045 0.0
C1401 C 0.30103 0.45313 0.85081 0.0
C1402 C 0.29046 0.46433 0.78546 0.0
C1403 C 0.27054 0.45426 0.80027 0.0
C1404 C 0.26597 0.44346 0.84036 0.0
H1405 H 0.17092 0.46711 0.70735 0.0
H1406 H 0.19819 0.46727 0.74903 0.0
C1407 C 0.28103 0.44295 0.86542 0.0
C1408 C 0.2544 0.45459 0.7736 0.0
H1409 H 0.23901 0.48572 0.73092 0.0
C1410 C 0.23847 0.43644 0.75803 0.0
C1411 C 0.25444 0.47256 0.76409 0.0
C1412 C 0.2706 0.49244 0.78155 0.0
C1413 C 0.22277 0.43579 0.73289 0.0
C1414 C 0.22306 0.45381 0.72245 0.0
C1415 C 0.23887 0.47193 0.73847 0.0
C1416 C 0.2068 0.45409 0.69617 0.0
C1417 C 0.20575 0.41575 0.71856 0.0
C1418 C 0.2027 0.44695 0.65215 0.0
C1419 C 0.18709 0.44687 0.62808 0.0
C1420 C 0.17527 0.45401 0.64746 0.0
C1421 C 0.17968 0.46151 0.69126 0.0
C1422 C 0.1953 0.46161 0.71522 0.0
H1423 H 0.20526 0.40333 0.7382 0.0
H1424 H 0.19119 0.41521 0.72213 0.0
H1425 H 0.20771 0.41325 0.68297 0.0
H1426 H 0.21158 0.44141 0.63637 0.0
H1427 H 0.18418 0.44102 0.59444 0.0
H1428 H 0.85953 0.31449 0.96294 0.0
H1429 H 0.83186 0.28759 0.92176 0.0
H1430 H 0.81977 0.24768 0.03263 0.0
H1431 H 0.84762 0.27446 0.07395 0.0
H1432 H 0.81996 0.23042 0.95248 0.0
H1433 H 0.77216 0.26487 0.94006 0.0
H1434 H 0.79706 0.28052 0.9194 0.0
H1435 H 0.79319 0.27409 0.97755 0.0
C1436 C 0.8509 0.30005 0.97883 0.0
C1437 C 0.85576 0.29674 0.02201 0.0
C1438 C 0.83498 0.28467 0.95522 0.0
C1439 C 0.82345 0.26563 0.97425 0.0
C1440 C 0.82834 0.26225 0.01726 0.0
H1441 H 0.70908 0.16982 0.87547 0.0
H1442 H 0.73608 0.19676 0.9182 0.0
C1443 C 0.84426 0.27762 0.04092 0.0
C1444 C 0.80671 0.24912 0.94886 0.0
H1445 H 0.76255 0.23588 0.89602 0.0
C1446 C 0.80738 0.2316 0.94027 0.0
C1447 C 0.79012 0.25049 0.93331 0.0
C1448 C 0.78792 0.26841 0.94336 0.0
C1449 C 0.79218 0.21564 0.91599 0.0
C1450 C 0.77594 0.21729 0.89913 0.0
C1451 C 0.77508 0.23466 0.90843 0.0
C1452 C 0.75953 0.20104 0.87247 0.0
C1453 C 0.79349 0.19698 0.90934 0.0
C1454 C 0.76359 0.19461 0.83202 0.0
C1455 C 0.74816 0.17917 0.80743 0.0
C1456 C 0.72825 0.16987 0.82257 0.0
C1457 C 0.72419 0.1766 0.8627 0.0
C1458 C 0.73964 0.19203 0.88725 0.0
H1459 H 0.80366 0.19592 0.93398 0.0
H1460 H 0.77853 0.18338 0.9121 0.0
H1461 H 0.79946 0.19726 0.87557 0.0
H1462 H 0.77872 0.20158 0.81933 0.0
H1463 H 0.75186 0.17447 0.77663 0.0
H1464 H 0.53492 0.8208 0.22543 0.0
H1465 H 0.53576 0.79545 0.17799 0.0
H1466 H 0.59793 0.83585 0.14932 0.0
H1467 H 0.59726 0.86131 0.19665 0.0
H1468 H 0.54674 0.79787 0.08478 0.0
H1469 H 0.5961 0.7842 0.19626 0.0
H1470 H 0.58291 0.79663 0.215 0.0
H1471 H 0.60506 0.80987 0.18173 0.0
C1472 C 0.54879 0.82434 0.20903 0.0
C1473 C 0.56604 0.84312 0.2151 0.0
C1474 C 0.54922 0.80982 0.18182 0.0
C1475 C 0.56696 0.81363 0.16047 0.0
C1476 C 0.58414 0.83245 0.16592 0.0
H1477 H 0.58231 0.7445 0.94887 0.0
H1478 H 0.58129 0.77059 0.9932 0.0
C1479 C 0.58369 0.84704 0.19286 0.0
C1480 C 0.56747 0.7979 0.13269 0.0
H1481 H 0.58794 0.76765 0.12665 0.0
C1482 C 0.55577 0.79128 0.09388 0.0
C1483 C 0.57909 0.78914 0.14479 0.0
C1484 C 0.59141 0.79515 0.18688 0.0
C1485 C 0.55556 0.77633 0.06664 0.0
C1486 C 0.56743 0.7678 0.07838 0.0
C1487 C 0.57895 0.77427 0.11747 0.0
C1488 C 0.56781 0.75189 0.05101 0.0
C1489 C 0.54238 0.76952 0.0259 0.0
C1490 C 0.56083 0.73273 0.06886 0.0
C1491 C 0.56133 0.71775 0.04356 0.0
C1492 C 0.56906 0.72165 0.99992 0.0
C1493 C 0.57617 0.74092 0.98223 0.0
C1494 C 0.57553 0.75585 1.00748 0.0
H1495 H 0.53106 0.77438 0.02666 0.0
H1496 H 0.55176 0.776 0.99576 0.0
H1497 H 0.53455 0.753 0.0228 0.0
H1498 H 0.5549 0.72934 0.10242 0.0
H1499 H 0.55585 0.70316 0.05844 0.0
H1500 H 0.71067 0.54723 0.30895 0.0
H1501 H 0.73795 0.54722 0.26768 0.0
H1502 H 0.77996 0.58546 0.36709 0.0
H1503 H 0.75279 0.5858 0.40832 0.0
H1504 H 0.79352 0.59815 0.28217 0.0
H1505 H 0.76726 0.51728 0.29734 0.0
H1506 H 0.74896 0.52248 0.27394 0.0
H1507 H 0.75707 0.52954 0.33053 0.0
C1508 C 0.72568 0.55555 0.32228 0.0
C1509 C 0.72946 0.56641 0.36221 0.0
C1510 C 0.74128 0.55544 0.29868 0.0
C1511 C 0.76102 0.56606 0.31456 0.0
C1512 C 0.76486 0.57704 0.35422 0.0
H1513 H 0.86175 0.55418 0.22225 0.0
H1514 H 0.83448 0.55372 0.26467 0.0
C1515 C 0.74928 0.57719 0.37784 0.0
C1516 C 0.77772 0.56616 0.28926 0.0
H1517 H 0.79414 0.53577 0.24715 0.0
C1518 C 0.79367 0.58451 0.27463 0.0
C1519 C 0.77811 0.5484 0.27983 0.0
C1520 C 0.76205 0.52832 0.29657 0.0
C1521 C 0.80975 0.58556 0.2503 0.0
C1522 C 0.8098 0.56774 0.23957 0.0
C1523 C 0.79403 0.54942 0.25487 0.0
C1524 C 0.82622 0.56781 0.21316 0.0
C1525 C 0.82673 0.60581 0.23706 0.0
C1526 C 0.83053 0.57558 0.16967 0.0
C1527 C 0.84614 0.57587 0.14526 0.0
C1528 C 0.85775 0.56826 0.16366 0.0
C1529 C 0.85316 0.56016 0.20694 0.0
C1530 C 0.83754 0.55989 0.2313 0.0
H1531 H 0.82712 0.61792 0.25773 0.0
H1532 H 0.84134 0.6064 0.24016 0.0
H1533 H 0.82478 0.60879 0.20179 0.0
H1534 H 0.82176 0.58139 0.15448 0.0
H1535 H 0.84916 0.58215 0.11201 0.0
H1536 H 0.16987 0.7039 0.46621 0.0
H1537 H 0.19749 0.73075 0.42476 0.0
H1538 H 0.20612 0.77219 0.53014 0.0
H1539 H 0.17827 0.74548 0.57153 0.0
H1540 H 0.20673 0.78785 0.44858 0.0
H1541 H 0.25693 0.75597 0.44728 0.0
H1542 H 0.23261 0.73934 0.4249 0.0
H1543 H 0.2352 0.74638 0.48269 0.0
C1544 C 0.17773 0.71868 0.48082 0.0
C1545 C 0.17188 0.72244 0.52246 0.0
C1546 C 0.19362 0.73403 0.4571 0.0
C1547 C 0.20419 0.75349 0.47455 0.0
C1548 C 0.19831 0.75731 0.516 0.0
H1549 H 0.31846 0.85001 0.37671 0.0
H1550 H 0.29144 0.82321 0.41969 0.0
C1551 C 0.18239 0.74198 0.53972 0.0
C1552 C 0.22095 0.76998 0.44907 0.0
H1553 H 0.26607 0.784 0.40014 0.0
C1554 C 0.21973 0.78702 0.43813 0.0
C1555 C 0.2381 0.7691 0.43585 0.0
C1556 C 0.24094 0.75181 0.44863 0.0
C1557 C 0.23494 0.80296 0.41382 0.0
C1558 C 0.25174 0.80176 0.39919 0.0
C1559 C 0.25313 0.78488 0.41082 0.0
C1560 C 0.26817 0.81796 0.37244 0.0
C1561 C 0.23302 0.82114 0.40484 0.0
C1562 C 0.26424 0.82382 0.33108 0.0
C1563 C 0.27967 0.83922 0.30641 0.0
C1564 C 0.29947 0.84901 0.32231 0.0
C1565 C 0.30343 0.84284 0.36335 0.0
C1566 C 0.28797 0.82748 0.38803 0.0
H1567 H 0.2225 0.82217 0.42845 0.0
H1568 H 0.24774 0.83506 0.40729 0.0
H1569 H 0.22714 0.82015 0.37064 0.0
H1570 H 0.24921 0.81644 0.31772 0.0
H1571 H 0.27605 0.84346 0.27488 0.0
loop_
_geom_bond_atom_site_label_1
_geom_bond_atom_site_label_2
_geom_bond_distance
_geom_bond_site_symmetry_2
_ccdc_geom_bond_type
Co0 O2 2.143 . S
Co0 O8 2.074 . S
Co0 O11 2.093 . S
Co0 O24 2.097 . S
Co0 N41 2.151 . S
Co0 N49 2.214 . S
Co1 O2 2.160 . S
Co1 O7 2.058 . S
Co1 O17 2.057 . S
Co1 O32 2.037 . S
Co1 N36 2.145 . S
Co1 N57 2.257 . S
O2 Co0 2.143 . S
O2 Co1 2.160 . S
C3 O4 1.278 . S
C3 O11 1.224 . S
O4 C3 1.278 . S
C5 O6 1.245 . S
C5 O17 1.232 . S
O6 C5 1.245 . S
O7 Co1 2.058 . S
O7 C33 1.269 . S
O8 Co0 2.074 . S
O8 C33 1.257 . S
H9 C34 0.930 . S
H10 C40 0.930 . S
O11 Co0 2.093 . S
O11 C3 1.224 . S
H12 C44 0.929 . S
H13 C46 0.930 . S
H14 C47 0.930 . S
H15 C45 0.929 . S
H16 C48 0.928 . S
O17 Co1 2.057 . S
O17 C5 1.232 . S
H18 C37 0.929 . S
H19 C38 0.929 . S
H20 C50 0.931 . S
H21 C42 0.929 . S
H22 C51 0.930 . S
H23 C43 0.931 . S
O24 Co0 2.097 . S
O24 C52 1.214 . S
H25 C53 0.929 . S
H26 C54 0.929 . S
H27 C55 0.930 . S
H28 C56 0.929 . S
H29 C58 0.930 . S
H30 C35 0.930 . S
H31 C39 0.930 . S
O32 Co1 2.037 . S
O32 C52 1.234 . S
C33 O7 1.269 . S
C33 O8 1.257 . S
C34 H9 0.930 . S
C34 C37 1.388 . S
C34 C39 1.418 . S
C35 H30 0.930 . S
C35 C38 1.404 . S
C35 C39 1.353 . S
N36 Co1 2.145 . S
N36 C37 1.397 . S
N36 C38 1.334 . S
C37 H18 0.929 . S
C37 C34 1.388 . S
C37 N36 1.397 . S
C38 H19 0.929 . S
C38 C35 1.404 . S
C38 N36 1.334 . S
C39 H31 0.930 . S
C39 C34 1.418 . S
C39 C35 1.353 . S
C40 H10 0.930 . S
C40 N41 1.330 . S
C40 C42 1.446 . S
N41 Co0 2.151 . S
N41 C40 1.330 . S
N41 C45 1.418 . S
C42 H21 0.929 . S
C42 C40 1.446 . S
C42 C43 1.332 . S
C43 H23 0.931 . S
C43 C42 1.332 . S
C43 C44 1.267 . S
C44 H12 0.929 . S
C44 C43 1.267 . S
C44 C45 1.251 . S
C45 H15 0.929 . S
C45 N41 1.418 . S
C45 C44 1.251 . S
C46 H13 0.930 . S
C46 C48 1.406 . S
C46 C51 1.261 . S
C47 H14 0.930 . S
C47 N49 1.325 . S
C47 C50 1.357 . S
C48 H16 0.928 . S
C48 C46 1.406 . S
C48 N49 1.261 . S
N49 Co0 2.214 . S
N49 C47 1.325 . S
N49 C48 1.261 . S
C50 H20 0.931 . S
C50 C47 1.357 . S
C50 C51 1.312 . S
C51 H22 0.930 . S
C51 C46 1.261 . S
C51 C50 1.312 . S
C52 O24 1.214 . S
C52 O32 1.234 . S
C53 H25 0.929 . S
C53 C56 1.391 . S
C53 C58 1.391 . S
C54 H26 0.929 . S
C54 C55 1.390 . S
C54 N57 1.391 . S
C55 H27 0.930 . S
C55 C54 1.390 . S
C55 C56 1.392 . S
C56 H28 0.929 . S
C56 C53 1.391 . S
C56 C55 1.392 . S
N57 Co1 2.257 . S
N57 C54 1.391 . S
N57 C58 1.388 . S
C58 H29 0.930 . S
C58 C53 1.391 . S
C58 N57 1.388 . S
Co59 O61 2.143 . S
Co59 O67 2.074 . S
Co59 O70 2.093 . S
Co59 O83 2.097 . S
Co59 N100 2.151 . S
Co59 N108 2.214 . S
Co60 O61 2.160 . S
Co60 O66 2.058 . S
Co60 O76 2.057 . S
Co60 O91 2.037 . S
Co60 N95 2.145 . S
Co60 N116 2.257 . S
O61 Co59 2.143 . S
O61 Co60 2.160 . S
C62 O63 1.278 . S
C62 O70 1.224 . S
O63 C62 1.278 . S
C64 O65 1.245 . S
C64 O76 1.232 . S
O65 C64 1.245 . S
O66 Co60 2.058 . S
O66 C92 1.269 . S
O67 Co59 2.074 . S
O67 C92 1.257 . S
H68 C93 0.930 . S
H69 C99 0.930 . S
O70 Co59 2.093 . S
O70 C62 1.224 . S
H71 C103 0.929 . S
H72 C105 0.930 . S
H73 C106 0.930 . S
H74 C104 0.929 . S
H75 C107 0.928 . S
O76 Co60 2.057 . S
O76 C64 1.232 . S
H77 C96 0.929 . S
H78 C97 0.929 . S
H79 C109 0.931 . S
H80 C101 0.929 . S
H81 C110 0.930 . S
H82 C102 0.931 . S
O83 Co59 2.097 . S
O83 C111 1.214 . S
H84 C112 0.929 . S
H85 C113 0.929 . S
H86 C114 0.930 . S
H87 C115 0.929 . S
H88 C117 0.930 . S
H89 C94 0.930 . S
H90 C98 0.930 . S
O91 Co60 2.037 . S
O91 C111 1.234 . S
C92 O66 1.269 . S
C92 O67 1.257 . S
C93 H68 0.930 . S
C93 C96 1.388 . S
C93 C98 1.418 . S
C94 H89 0.930 . S
C94 C97 1.404 . S
C94 C98 1.353 . S
N95 Co60 2.145 . S
N95 C96 1.397 . S
N95 C97 1.334 . S
C96 H77 0.929 . S
C96 C93 1.388 . S
C96 N95 1.397 . S
C97 H78 0.929 . S
C97 C94 1.404 . S
C97 N95 1.334 . S
C98 H90 0.930 . S
C98 C93 1.418 . S
C98 C94 1.353 . S
C99 H69 0.930 . S
C99 N100 1.330 . S
C99 C101 1.446 . S
N100 Co59 2.151 . S
N100 C99 1.330 . S
N100 C104 1.418 . S
C101 H80 0.929 . S
C101 C99 1.446 . S
C101 C102 1.332 . S
C102 H82 0.931 . S
C102 C101 1.332 . S
C102 C103 1.267 . S
C103 H71 0.929 . S
C103 C102 1.267 . S
C103 C104 1.251 . S
C104 H74 0.929 . S
C104 N100 1.418 . S
C104 C103 1.251 . S
C105 H72 0.930 . S
C105 C107 1.406 . S
C105 C110 1.261 . S
C106 H73 0.930 . S
C106 N108 1.325 . S
C106 C109 1.357 . S
C107 H75 0.928 . S
C107 C105 1.406 . S
C107 N108 1.261 . S
N108 Co59 2.214 . S
N108 C106 1.325 . S
N108 C107 1.261 . S
C109 H79 0.931 . S
C109 C106 1.357 . S
C109 C110 1.312 . S
C110 H81 0.930 . S
C110 C105 1.261 . S
C110 C109 1.312 . S
C111 O83 1.214 . S
C111 O91 1.234 . S
C112 H84 0.929 . S
C112 C115 1.391 . S
C112 C117 1.391 . S
C113 H85 0.929 . S
C113 C114 1.390 . S
C113 N116 1.391 . S
C114 H86 0.930 . S
C114 C113 1.390 . S
C114 C115 1.392 . S
C115 H87 0.929 . S
C115 C112 1.391 . S
C115 C114 1.392 . S
N116 Co60 2.257 . S
N116 C113 1.391 . S
N116 C117 1.388 . S
C117 H88 0.930 . S
C117 C112 1.391 . S
C117 N116 1.388 . S
Co118 O120 2.143 . S
Co118 O126 2.074 . S
Co118 O129 2.093 . S
Co118 O142 2.097 . S
Co118 N159 2.151 . S
Co118 N167 2.214 . S
Co119 O120 2.160 . S
Co119 O125 2.058 . S
Co119 O135 2.057 . S
Co119 O150 2.037 . S
Co119 N154 2.145 . S
Co119 N175 2.257 . S
O120 Co118 2.143 . S
O120 Co119 2.160 . S
C121 O122 1.278 . S
C121 O129 1.224 . S
O122 C121 1.278 . S
C123 O124 1.245 . S
C123 O135 1.232 . S
O124 C123 1.245 . S
O125 Co119 2.058 . S
O125 C151 1.269 . S
O126 Co118 2.074 . S
O126 C151 1.257 . S
H127 C152 0.930 . S
H128 C158 0.930 . S
O129 Co118 2.093 . S
O129 C121 1.224 . S
H130 C162 0.929 . S
H131 C164 0.930 . S
H132 C165 0.930 . S
H133 C163 0.929 . S
H134 C166 0.928 . S
O135 Co119 2.057 . S
O135 C123 1.232 . S
H136 C155 0.929 . S
H137 C156 0.929 . S
H138 C168 0.931 . S
H139 C160 0.929 . S
H140 C169 0.930 . S
H141 C161 0.931 . S
O142 Co118 2.097 . S
O142 C170 1.214 . S
H143 C171 0.929 . S
H144 C172 0.929 . S
H145 C173 0.930 . S
H146 C174 0.929 . S
H147 C176 0.930 . S
H148 C153 0.930 . S
H149 C157 0.930 . S
O150 Co119 2.037 . S
O150 C170 1.234 . S
C151 O125 1.269 . S
C151 O126 1.257 . S
C152 H127 0.930 . S
C152 C155 1.388 . S
C152 C157 1.418 . S
C153 H148 0.930 . S
C153 C156 1.404 . S
C153 C157 1.353 . S
N154 Co119 2.145 . S
N154 C155 1.397 . S
N154 C156 1.334 . S
C155 H136 0.929 . S
C155 C152 1.388 . S
C155 N154 1.397 . S
C156 H137 0.929 . S
C156 C153 1.404 . S
C156 N154 1.334 . S
C157 H149 0.930 . S
C157 C152 1.418 . S
C157 C153 1.353 . S
C158 H128 0.930 . S
C158 N159 1.330 . S
C158 C160 1.446 . S
N159 Co118 2.151 . S
N159 C158 1.330 . S
N159 C163 1.418 . S
C160 H139 0.929 . S
C160 C158 1.446 . S
C160 C161 1.332 . S
C161 H141 0.931 . S
C161 C160 1.332 . S
C161 C162 1.267 . S
C162 H130 0.929 . S
C162 C161 1.267 . S
C162 C163 1.251 . S
C163 H133 0.929 . S
C163 N159 1.418 . S
C163 C162 1.251 . S
C164 H131 0.930 . S
C164 C166 1.406 . S
C164 C169 1.261 . S
C165 H132 0.930 . S
C165 N167 1.325 . S
C165 C168 1.357 . S
C166 H134 0.928 . S
C166 C164 1.406 . S
C166 N167 1.261 . S
N167 Co118 2.214 . S
N167 C165 1.325 . S
N167 C166 1.261 . S
C168 H138 0.931 . S
C168 C165 1.357 . S
C168 C169 1.312 . S
C169 H140 0.930 . S
C169 C164 1.261 . S
C169 C168 1.312 . S
C170 O142 1.214 . S
C170 O150 1.234 . S
C171 H143 0.929 . S
C171 C174 1.391 . S
C171 C176 1.391 . S
C172 H144 0.929 . S
C172 C173 1.390 . S
C172 N175 1.391 . S
C173 H145 0.930 . S
C173 C172 1.390 . S
C173 C174 1.392 . S
C174 H146 0.929 . S
C174 C171 1.391 . S
C174 C173 1.392 . S
N175 Co119 2.257 . S
N175 C172 1.391 . S
N175 C176 1.388 . S
C176 H147 0.930 . S
C176 C171 1.391 . S
C176 N175 1.388 . S
Co177 O179 2.143 . S
Co177 O185 2.074 . S
Co177 O188 2.093 . S
Co177 O201 2.097 . S
Co177 N218 2.151 1_556 S
Co177 N226 2.214 . S
Co178 O179 2.160 . S
Co178 O184 2.058 . S
Co178 O194 2.057 . S
Co178 O209 2.037 . S
Co178 N213 2.145 . S
Co178 N234 2.257 . S
O179 Co177 2.143 . S
O179 Co178 2.160 . S
C180 O181 1.278 1_554 S
C180 O188 1.224 1_554 S
O181 C180 1.278 1_556 S
C182 O183 1.245 . S
C182 O194 1.232 . S
O183 C182 1.245 . S
O184 Co178 2.058 . S
O184 C210 1.269 . S
O185 Co177 2.074 . S
O185 C210 1.257 . S
H186 C211 0.930 . S
H187 C217 0.930 . S
O188 Co177 2.093 . S
O188 C180 1.224 1_556 S
H189 C221 0.929 . S
H190 C223 0.930 . S
H191 C224 0.930 . S
H192 C222 0.929 1_556 S
H193 C225 0.917 1_554 S
O194 Co178 2.057 . S
O194 C182 1.232 . S
H195 C214 0.929 . S
H196 C215 0.929 . S
H197 C227 0.931 . S
H198 C219 0.929 . S
H199 C228 0.930 . S
H200 C220 0.931 . S
O201 Co177 2.097 . S
O201 C229 1.214 . S
H202 C230 0.929 . S
H203 C231 0.929 . S
H204 C232 0.930 . S
H205 C233 0.929 . S
H206 C235 0.930 . S
H207 C212 0.930 . S
H208 C216 0.930 . S
O209 Co178 2.037 . S
O209 C229 1.234 . S
C210 O184 1.269 . S
C210 O185 1.257 . S
C211 H186 0.930 . S
C211 C214 1.388 . S
C211 C216 1.418 . S
C212 H207 0.930 . S
C212 C215 1.404 . S
C212 C216 1.353 . S
N213 Co178 2.145 . S
N213 C214 1.397 . S
N213 C215 1.334 . S
C214 H195 0.929 . S
C214 C211 1.388 . S
C214 N213 1.397 . S
C215 H196 0.929 . S
C215 C212 1.404 . S
C215 N213 1.334 . S
C216 H208 0.930 . S
C216 C211 1.418 . S
C216 C212 1.353 . S
C217 H187 0.930 . S
C217 N218 1.330 . S
C217 C219 1.446 . S
N218 Co177 2.151 1_554 S
N218 C217 1.330 . S
N218 C222 1.418 . S
C219 H198 0.929 . S
C219 C217 1.446 . S
C219 C220 1.332 . S
C220 H200 0.931 . S
C220 C219 1.332 . S
C220 C221 1.267 . S
C221 H189 0.929 . S
C221 C220 1.267 . S
C221 C222 1.251 . S
C222 H192 0.929 1_554 S
C222 N218 1.418 . S
C222 C221 1.251 . S
C223 H190 0.930 . S
C223 C225 1.406 . S
C223 C228 1.261 . S
C224 H191 0.930 . S
C224 N226 1.325 . S
C224 C227 1.357 . S
C225 H193 0.917 1_556 S
C225 C223 1.406 . S
C225 N226 1.261 . S
N226 Co177 2.214 . S
N226 C224 1.325 . S
N226 C225 1.261 . S
C227 H197 0.931 . S
C227 C224 1.357 . S
C227 C228 1.312 . S
C228 H199 0.930 . S
C228 C223 1.261 . S
C228 C227 1.312 . S
C229 O201 1.214 . S
C229 O209 1.234 . S
C230 H202 0.929 . S
C230 C233 1.391 . S
C230 C235 1.391 . S
C231 H203 0.929 . S
C231 C232 1.390 . S
C231 N234 1.391 . S
C232 H204 0.930 . S
C232 C231 1.390 . S
C232 C233 1.392 . S
C233 H205 0.929 . S
C233 C230 1.391 . S
C233 C232 1.392 . S
N234 Co178 2.257 . S
N234 C231 1.391 . S
N234 C235 1.388 . S
C235 H206 0.930 . S
C235 C230 1.391 . S
C235 N234 1.388 . S
Co236 O238 2.143 . S
Co236 O244 2.074 . S
Co236 O247 2.093 . S
Co236 O260 2.097 . S
Co236 N277 2.151 . S
Co236 N285 2.214 . S
Co237 O238 2.160 . S
Co237 O243 2.058 . S
Co237 O253 2.057 . S
Co237 O268 2.037 . S
Co237 N272 2.145 . S
Co237 N293 2.257 . S
O238 Co236 2.143 . S
O238 Co237 2.160 . S
C239 O240 1.278 . S
C239 O247 1.224 . S
O240 C239 1.278 . S
C241 O242 1.245 . S
C241 O253 1.232 . S
O242 C241 1.245 . S
O243 Co237 2.058 . S
O243 C269 1.269 . S
O244 Co236 2.074 . S
O244 C269 1.257 . S
H245 C270 0.930 . S
H246 C276 0.930 . S
O247 Co236 2.093 . S
O247 C239 1.224 . S
H248 C280 0.929 . S
H249 C282 0.930 . S
H250 C283 0.930 . S
H251 C281 0.929 . S
H252 C284 0.928 . S
O253 Co237 2.057 . S
O253 C241 1.232 . S
H254 C273 0.929 . S
H255 C274 0.929 . S
H256 C286 0.931 . S
H257 C278 0.929 . S
H258 C287 0.930 . S
H259 C279 0.931 . S
O260 Co236 2.097 . S
O260 C288 1.214 . S
H261 C289 0.929 . S
H262 C290 0.929 1_556 S
H263 C291 0.930 1_556 S
H264 C292 0.929 . S
H265 C294 0.930 . S
H266 C271 0.930 . S
H267 C275 0.930 . S
O268 Co237 2.037 . S
O268 C288 1.234 . S
C269 O243 1.269 . S
C269 O244 1.257 . S
C270 H245 0.930 . S
C270 C273 1.388 . S
C270 C275 1.418 . S
C271 H266 0.930 . S
C271 C274 1.404 1_556 S
C271 C275 1.353 . S
N272 Co237 2.145 . S
N272 C273 1.397 1_554 S
N272 C274 1.334 . S
C273 H254 0.929 . S
C273 C270 1.388 . S
C273 N272 1.397 1_556 S
C274 H255 0.929 . S
C274 C271 1.404 1_554 S
C274 N272 1.334 . S
C275 H267 0.930 . S
C275 C270 1.418 . S
C275 C271 1.353 . S
C276 H246 0.930 . S
C276 N277 1.330 . S
C276 C278 1.446 . S
N277 Co236 2.151 . S
N277 C276 1.330 . S
N277 C281 1.418 . S
C278 H257 0.929 . S
C278 C276 1.446 . S
C278 C279 1.332 . S
C279 H259 0.931 . S
C279 C278 1.332 . S
C279 C280 1.267 . S
C280 H248 0.929 . S
C280 C279 1.267 . S
C280 C281 1.251 . S
C281 H251 0.929 . S
C281 N277 1.418 . S
C281 C280 1.251 . S
C282 H249 0.930 . S
C282 C284 1.406 . S
C282 C287 1.261 . S
C283 H250 0.930 . S
C283 N285 1.325 . S
C283 C286 1.357 . S
C284 H252 0.928 . S
C284 C282 1.406 . S
C284 N285 1.261 . S
N285 Co236 2.214 . S
N285 C283 1.325 . S
N285 C284 1.261 . S
C286 H256 0.931 . S
C286 C283 1.357 . S
C286 C287 1.312 . S
C287 H258 0.930 . S
C287 C282 1.261 . S
C287 C286 1.312 . S
C288 O260 1.214 . S
C288 O268 1.234 . S
C289 H261 0.929 . S
C289 C292 1.391 . S
C289 C294 1.391 . S
C290 H262 0.929 1_554 S
C290 C291 1.390 . S
C290 N293 1.391 . S
C291 H263 0.930 1_554 S
C291 C290 1.390 . S
C291 C292 1.392 . S
C292 H264 0.929 . S
C292 C289 1.391 . S
C292 C291 1.392 . S
N293 Co237 2.257 . S
N293 C290 1.391 . S
N293 C294 1.388 . S
C294 H265 0.930 . S
C294 C289 1.391 . S
C294 N293 1.388 . S
Co295 O297 2.143 . S
Co295 O303 2.074 . S
Co295 O306 2.093 . S
Co295 O319 2.097 . S
Co295 N336 2.151 . S
Co295 N344 2.214 . S
Co296 O297 2.160 . S
Co296 O302 2.058 . S
Co296 O312 2.057 . S
Co296 O327 2.037 . S
Co296 N331 2.145 . S
Co296 N352 2.257 . S
O297 Co295 2.143 . S
O297 Co296 2.160 . S
C298 O299 1.278 . S
C298 O306 1.224 . S
O299 C298 1.278 . S
C300 O301 1.245 . S
C300 O312 1.232 . S
O301 C300 1.245 . S
O302 Co296 2.058 . S
O302 C328 1.269 . S
O303 Co295 2.074 . S
O303 C328 1.257 . S
H304 C329 0.930 . S
H305 C335 0.930 . S
O306 Co295 2.093 . S
O306 C298 1.224 . S
H307 C339 0.929 . S
H308 C341 0.930 . S
H309 C342 0.930 . S
H310 C340 0.929 . S
H311 C343 0.928 . S
O312 Co296 2.057 . S
O312 C300 1.232 . S
H313 C332 0.929 . S
H314 C333 0.929 . S
H315 C345 0.931 . S
H316 C337 0.929 . S
H317 C346 0.930 . S
H318 C338 0.931 . S
O319 Co295 2.097 . S
O319 C347 1.214 . S
H320 C348 0.929 . S
H321 C349 0.929 . S
H322 C350 0.930 . S
H323 C351 0.929 . S
H324 C353 0.930 . S
H325 C330 0.930 . S
H326 C334 0.930 . S
O327 Co296 2.037 . S
O327 C347 1.234 . S
C328 O302 1.269 . S
C328 O303 1.257 . S
C329 H304 0.930 . S
C329 C332 1.388 . S
C329 C334 1.418 . S
C330 H325 0.930 . S
C330 C333 1.404 . S
C330 C334 1.353 . S
N331 Co296 2.145 . S
N331 C332 1.397 . S
N331 C333 1.334 . S
C332 H313 0.929 . S
C332 C329 1.388 . S
C332 N331 1.397 . S
C333 H314 0.929 . S
C333 C330 1.404 . S
C333 N331 1.334 . S
C334 H326 0.930 . S
C334 C329 1.418 . S
C334 C330 1.353 . S
C335 H305 0.930 . S
C335 N336 1.330 . S
C335 C337 1.446 . S
N336 Co295 2.151 . S
N336 C335 1.330 . S
N336 C340 1.418 . S
C337 H316 0.929 . S
C337 C335 1.446 . S
C337 C338 1.332 . S
C338 H318 0.931 . S
C338 C337 1.332 . S
C338 C339 1.267 . S
C339 H307 0.929 . S
C339 C338 1.267 . S
C339 C340 1.251 . S
C340 H310 0.929 . S
C340 N336 1.418 . S
C340 C339 1.251 . S
C341 H308 0.930 . S
C341 C343 1.406 . S
C341 C346 1.261 . S
C342 H309 0.930 . S
C342 N344 1.325 . S
C342 C345 1.357 . S
C343 H311 0.928 . S
C343 C341 1.406 . S
C343 N344 1.261 . S
N344 Co295 2.214 . S
N344 C342 1.325 . S
N344 C343 1.261 . S
C345 H315 0.931 . S
C345 C342 1.357 . S
C345 C346 1.312 . S
C346 H317 0.930 . S
C346 C341 1.261 . S
C346 C345 1.312 . S
C347 O319 1.214 . S
C347 O327 1.234 . S
C348 H320 0.929 . S
C348 C351 1.391 . S
C348 C353 1.391 . S
C349 H321 0.929 . S
C349 C350 1.390 . S
C349 N352 1.391 . S
C350 H322 0.930 . S
C350 C349 1.390 . S
C350 C351 1.392 . S
C351 H323 0.929 . S
C351 C348 1.391 . S
C351 C350 1.392 . S
N352 Co296 2.257 . S
N352 C349 1.391 . S
N352 C353 1.388 . S
C353 H324 0.930 . S
C353 C348 1.391 . S
C353 N352 1.388 . S
Co354 O356 2.143 . S
Co354 O362 2.074 . S
Co354 O365 2.093 . S
Co354 O378 2.097 . S
Co354 N395 2.151 . S
Co354 N403 2.214 . S
Co355 O356 2.160 . S
Co355 O361 2.058 . S
Co355 O371 2.057 . S
Co355 O386 2.037 . S
Co355 N390 2.145 . S
Co355 N411 2.257 . S
O356 Co354 2.143 . S
O356 Co355 2.160 . S
C357 O358 1.278 . S
C357 O365 1.224 . S
O358 C357 1.278 . S
C359 O360 1.245 . S
C359 O371 1.232 . S
O360 C359 1.245 . S
O361 Co355 2.058 . S
O361 C387 1.269 . S
O362 Co354 2.074 . S
O362 C387 1.257 . S
H363 C388 0.930 . S
H364 C394 0.930 . S
O365 Co354 2.093 . S
O365 C357 1.224 . S
H366 C398 0.929 . S
H367 C400 0.930 . S
H368 C401 0.930 . S
H369 C399 0.929 . S
H370 C402 0.928 . S
O371 Co355 2.057 . S
O371 C359 1.232 . S
H372 C391 0.929 . S
H373 C392 0.929 . S
H374 C404 0.931 . S
H375 C396 0.929 . S
H376 C405 0.930 . S
H377 C397 0.931 . S
O378 Co354 2.097 . S
O378 C406 1.214 . S
H379 C407 0.929 . S
H380 C408 0.929 . S
H381 C409 0.930 . S
H382 C410 0.929 . S
H383 C412 0.930 . S
H384 C389 0.930 . S
H385 C393 0.930 . S
O386 Co355 2.037 . S
O386 C406 1.234 . S
C387 O361 1.269 . S
C387 O362 1.257 . S
C388 H363 0.930 . S
C388 C391 1.388 . S
C388 C393 1.418 . S
C389 H384 0.930 . S
C389 C392 1.404 . S
C389 C393 1.353 . S
N390 Co355 2.145 . S
N390 C391 1.397 . S
N390 C392 1.334 . S
C391 H372 0.929 . S
C391 C388 1.388 . S
C391 N390 1.397 . S
C392 H373 0.929 . S
C392 C389 1.404 . S
C392 N390 1.334 . S
C393 H385 0.930 . S
C393 C388 1.418 . S
C393 C389 1.353 . S
C394 H364 0.930 . S
C394 N395 1.330 . S
C394 C396 1.446 . S
N395 Co354 2.151 . S
N395 C394 1.330 . S
N395 C399 1.418 . S
C396 H375 0.929 . S
C396 C394 1.446 . S
C396 C397 1.332 . S
C397 H377 0.931 . S
C397 C396 1.332 . S
C397 C398 1.267 . S
C398 H366 0.929 . S
C398 C397 1.267 . S
C398 C399 1.251 . S
C399 H369 0.929 . S
C399 N395 1.418 . S
C399 C398 1.251 . S
C400 H367 0.930 . S
C400 C402 1.406 . S
C400 C405 1.261 . S
C401 H368 0.930 . S
C401 N403 1.325 . S
C401 C404 1.357 . S
C402 H370 0.928 . S
C402 C400 1.406 . S
C402 N403 1.261 . S
N403 Co354 2.214 . S
N403 C401 1.325 . S
N403 C402 1.261 . S
C404 H374 0.931 . S
C404 C401 1.357 . S
C404 C405 1.312 . S
C405 H376 0.930 . S
C405 C400 1.261 . S
C405 C404 1.312 . S
C406 O378 1.214 . S
C406 O386 1.234 . S
C407 H379 0.929 . S
C407 C410 1.391 . S
C407 C412 1.391 . S
C408 H380 0.929 . S
C408 C409 1.390 . S
C408 N411 1.391 . S
C409 H381 0.930 . S
C409 C408 1.390 . S
C409 C410 1.392 . S
C410 H382 0.929 . S
C410 C407 1.391 . S
C410 C409 1.392 . S
N411 Co355 2.257 . S
N411 C408 1.391 . S
N411 C412 1.388 . S
C412 H383 0.930 . S
C412 C407 1.391 . S
C412 N411 1.388 . S
Co413 O415 2.143 . S
Co413 O421 2.074 . S
Co413 O424 2.093 . S
Co413 O437 2.097 . S
Co413 N454 2.151 . S
Co413 N462 2.214 . S
Co414 O415 2.160 . S
Co414 O420 2.058 . S
Co414 O430 2.057 . S
Co414 O445 2.037 . S
Co414 N449 2.145 . S
Co414 N470 2.257 . S
O415 Co413 2.143 . S
O415 Co414 2.160 . S
C416 O417 1.278 . S
C416 O424 1.224 . S
O417 C416 1.278 . S
C418 O419 1.245 . S
C418 O430 1.232 . S
O419 C418 1.245 . S
O420 Co414 2.058 . S
O420 C446 1.269 . S
O421 Co413 2.074 . S
O421 C446 1.257 . S
H422 C447 0.930 . S
H423 C453 0.930 . S
O424 Co413 2.093 . S
O424 C416 1.224 . S
H425 C457 0.929 . S
H426 C459 0.930 . S
H427 C460 0.930 . S
H428 C458 0.929 . S
H429 C461 0.928 . S
O430 Co414 2.057 . S
O430 C418 1.232 . S
H431 C450 0.929 . S
H432 C451 0.929 . S
H433 C463 0.931 . S
H434 C455 0.929 . S
H435 C464 0.930 . S
H436 C456 0.931 . S
O437 Co413 2.097 . S
O437 C465 1.214 . S
H438 C466 0.929 . S
H439 C467 0.929 . S
H440 C468 0.930 . S
H441 C469 0.929 . S
H442 C471 0.930 . S
H443 C448 0.930 . S
H444 C452 0.930 . S
O445 Co414 2.037 . S
O445 C465 1.234 . S
C446 O420 1.269 . S
C446 O421 1.257 . S
C447 H422 0.930 . S
C447 C450 1.388 . S
C447 C452 1.418 . S
C448 H443 0.930 . S
C448 C451 1.404 . S
C448 C452 1.353 . S
N449 Co414 2.145 . S
N449 C450 1.397 . S
N449 C451 1.334 . S
C450 H431 0.929 . S
C450 C447 1.388 . S
C450 N449 1.397 . S
C451 H432 0.929 . S
C451 C448 1.404 . S
C451 N449 1.334 . S
C452 H444 0.930 . S
C452 C447 1.418 . S
C452 C448 1.353 . S
C453 H423 0.930 . S
C453 N454 1.330 . S
C453 C455 1.446 . S
N454 Co413 2.151 . S
N454 C453 1.330 . S
N454 C458 1.418 . S
C455 H434 0.929 . S
C455 C453 1.446 . S
C455 C456 1.332 . S
C456 H436 0.931 . S
C456 C455 1.332 . S
C456 C457 1.267 . S
C457 H425 0.929 . S
C457 C456 1.267 . S
C457 C458 1.251 . S
C458 H428 0.929 . S
C458 N454 1.418 . S
C458 C457 1.251 . S
C459 H426 0.930 . S
C459 C461 1.406 . S
C459 C464 1.261 . S
C460 H427 0.930 . S
C460 N462 1.325 . S
C460 C463 1.357 . S
C461 H429 0.928 . S
C461 C459 1.406 . S
C461 N462 1.261 . S
N462 Co413 2.214 . S
N462 C460 1.325 . S
N462 C461 1.261 . S
C463 H433 0.931 . S
C463 C460 1.357 . S
C463 C464 1.312 . S
C464 H435 0.930 . S
C464 C459 1.261 . S
C464 C463 1.312 . S
C465 O437 1.214 . S
C465 O445 1.234 . S
C466 H438 0.929 . S
C466 C469 1.391 . S
C466 C471 1.391 . S
C467 H439 0.929 . S
C467 C468 1.390 . S
C467 N470 1.391 . S
C468 H440 0.930 . S
C468 C467 1.390 . S
C468 C469 1.392 . S
C469 H441 0.929 . S
C469 C466 1.391 . S
C469 C468 1.392 . S
N470 Co414 2.257 . S
N470 C467 1.391 . S
N470 C471 1.388 . S
C471 H442 0.930 . S
C471 C466 1.391 . S
C471 N470 1.388 . S
Co472 O474 2.143 . S
Co472 O480 2.074 . S
Co472 O483 2.093 . S
Co472 O496 2.097 . S
Co472 N513 2.151 . S
Co472 N521 2.214 . S
Co473 O474 2.160 . S
Co473 O479 2.058 . S
Co473 O489 2.057 . S
Co473 O504 2.037 . S
Co473 N508 2.145 . S
Co473 N529 2.257 . S
O474 Co472 2.143 . S
O474 Co473 2.160 . S
C475 O476 1.278 . S
C475 O483 1.224 . S
O476 C475 1.278 . S
C477 O478 1.245 . S
C477 O489 1.232 . S
O478 C477 1.245 . S
O479 Co473 2.058 . S
O479 C505 1.269 . S
O480 Co472 2.074 . S
O480 C505 1.257 . S
H481 C506 0.930 . S
H482 C512 0.930 . S
O483 Co472 2.093 . S
O483 C475 1.224 . S
H484 C516 0.929 . S
H485 C518 0.930 . S
H486 C519 0.930 . S
H487 C517 0.929 . S
H488 C520 0.928 . S
O489 Co473 2.057 . S
O489 C477 1.232 . S
H490 C509 0.929 . S
H491 C510 0.929 . S
H492 C522 0.931 . S
H493 C514 0.929 . S
H494 C523 0.930 . S
H495 C515 0.931 . S
O496 Co472 2.097 . S
O496 C524 1.214 . S
H497 C525 0.929 . S
H498 C526 0.929 . S
H499 C527 0.930 . S
H500 C528 0.929 . S
H501 C530 0.930 . S
H502 C507 0.930 . S
H503 C511 0.930 . S
O504 Co473 2.037 . S
O504 C524 1.234 . S
C505 O479 1.269 . S
C505 O480 1.257 . S
C506 H481 0.930 . S
C506 C509 1.388 . S
C506 C511 1.418 . S
C507 H502 0.930 . S
C507 C510 1.404 . S
C507 C511 1.353 . S
N508 Co473 2.145 . S
N508 C509 1.397 . S
N508 C510 1.334 . S
C509 H490 0.929 . S
C509 C506 1.388 . S
C509 N508 1.397 . S
C510 H491 0.929 . S
C510 C507 1.404 . S
C510 N508 1.334 . S
C511 H503 0.930 . S
C511 C506 1.418 . S
C511 C507 1.353 . S
C512 H482 0.930 . S
C512 N513 1.330 . S
C512 C514 1.446 . S
N513 Co472 2.151 . S
N513 C512 1.330 . S
N513 C517 1.418 . S
C514 H493 0.929 . S
C514 C512 1.446 . S
C514 C515 1.332 . S
C515 H495 0.931 . S
C515 C514 1.332 . S
C515 C516 1.267 . S
C516 H484 0.929 . S
C516 C515 1.267 . S
C516 C517 1.251 . S
C517 H487 0.929 . S
C517 N513 1.418 . S
C517 C516 1.251 . S
C518 H485 0.930 . S
C518 C520 1.406 . S
C518 C523 1.261 . S
C519 H486 0.930 . S
C519 N521 1.325 . S
C519 C522 1.357 . S
C520 H488 0.928 . S
C520 C518 1.406 . S
C520 N521 1.261 . S
N521 Co472 2.214 . S
N521 C519 1.325 . S
N521 C520 1.261 . S
C522 H492 0.931 . S
C522 C519 1.357 . S
C522 C523 1.312 . S
C523 H494 0.930 . S
C523 C518 1.261 . S
C523 C522 1.312 . S
C524 O496 1.214 . S
C524 O504 1.234 . S
C525 H497 0.929 . S
C525 C528 1.391 . S
C525 C530 1.391 . S
C526 H498 0.929 . S
C526 C527 1.390 . S
C526 N529 1.391 . S
C527 H499 0.930 . S
C527 C526 1.390 . S
C527 C528 1.392 . S
C528 H500 0.929 . S
C528 C525 1.391 . S
C528 C527 1.392 . S
N529 Co473 2.257 . S
N529 C526 1.391 . S
N529 C530 1.388 . S
C530 H501 0.930 . S
C530 C525 1.391 . S
C530 N529 1.388 . S
Co531 O533 2.143 . S
Co531 O539 2.074 . S
Co531 O542 2.093 . S
Co531 O555 2.097 . S
Co531 N572 2.151 . S
Co531 N580 2.214 . S
Co532 O533 2.160 . S
Co532 O538 2.058 . S
Co532 O548 2.057 . S
Co532 O563 2.037 . S
Co532 N567 2.145 . S
Co532 N588 2.257 . S
O533 Co531 2.143 . S
O533 Co532 2.160 . S
C534 O535 1.278 . S
C534 O542 1.224 . S
O535 C534 1.278 . S
C536 O537 1.245 . S
C536 O548 1.232 . S
O537 C536 1.245 . S
O538 Co532 2.058 . S
O538 C564 1.269 . S
O539 Co531 2.074 . S
O539 C564 1.257 . S
H540 C565 0.930 . S
H541 C571 0.930 . S
O542 Co531 2.093 . S
O542 C534 1.224 . S
H543 C575 0.929 . S
H544 C577 0.930 . S
H545 C578 0.930 . S
H546 C576 0.929 . S
H547 C579 0.928 . S
O548 Co532 2.057 . S
O548 C536 1.232 . S
H549 C568 0.929 . S
H550 C569 0.929 . S
H551 C581 0.931 . S
H552 C573 0.929 . S
H553 C582 0.930 . S
H554 C574 0.931 . S
O555 Co531 2.097 . S
O555 C583 1.214 . S
H556 C584 0.929 . S
H557 C585 0.929 1_554 S
H558 C586 0.930 1_554 S
H559 C587 0.929 . S
H560 C589 0.930 . S
H561 C566 0.930 . S
H562 C570 0.930 . S
O563 Co532 2.037 . S
O563 C583 1.234 . S
C564 O538 1.269 . S
C564 O539 1.257 . S
C565 H540 0.930 . S
C565 C568 1.388 . S
C565 C570 1.418 . S
C566 H561 0.930 . S
C566 C569 1.404 1_554 S
C566 C570 1.353 . S
N567 Co532 2.145 . S
N567 C568 1.397 1_556 S
N567 C569 1.334 . S
C568 H549 0.929 . S
C568 C565 1.388 . S
C568 N567 1.397 1_554 S
C569 H550 0.929 . S
C569 C566 1.404 1_556 S
C569 N567 1.334 . S
C570 H562 0.930 . S
C570 C565 1.418 . S
C570 C566 1.353 . S
C571 H541 0.930 . S
C571 N572 1.330 . S
C571 C573 1.446 . S
N572 Co531 2.151 . S
N572 C571 1.330 . S
N572 C576 1.418 . S
C573 H552 0.929 . S
C573 C571 1.446 . S
C573 C574 1.332 . S
C574 H554 0.931 . S
C574 C573 1.332 . S
C574 C575 1.267 . S
C575 H543 0.929 . S
C575 C574 1.267 . S
C575 C576 1.251 . S
C576 H546 0.929 . S
C576 N572 1.418 . S
C576 C575 1.251 . S
C577 H544 0.930 . S
C577 C579 1.406 . S
C577 C582 1.261 . S
C578 H545 0.930 . S
C578 N580 1.325 . S
C578 C581 1.357 . S
C579 H547 0.928 . S
C579 C577 1.406 . S
C579 N580 1.261 . S
N580 Co531 2.214 . S
N580 C578 1.325 . S
N580 C579 1.261 . S
C581 H551 0.931 . S
C581 C578 1.357 . S
C581 C582 1.312 . S
C582 H553 0.930 . S
C582 C577 1.261 . S
C582 C581 1.312 . S
C583 O555 1.214 . S
C583 O563 1.234 . S
C584 H556 0.929 . S
C584 C587 1.391 . S
C584 C589 1.391 . S
C585 H557 0.929 1_556 S
C585 C586 1.390 . S
C585 N588 1.391 . S
C586 H558 0.930 1_556 S
C586 C585 1.390 . S
C586 C587 1.392 . S
C587 H559 0.929 . S
C587 C584 1.391 . S
C587 C586 1.392 . S
N588 Co532 2.257 . S
N588 C585 1.391 . S
N588 C589 1.388 . S
C589 H560 0.930 . S
C589 C584 1.391 . S
C589 N588 1.388 . S
Co590 O592 2.143 . S
Co590 O598 2.074 . S
Co590 O601 2.093 . S
Co590 O614 2.097 . S
Co590 N631 2.151 1_554 S
Co590 N639 2.214 . S
Co591 O592 2.160 . S
Co591 O597 2.058 . S
Co591 O607 2.057 . S
Co591 O622 2.037 . S
Co591 N626 2.145 . S
Co591 N647 2.257 . S
O592 Co590 2.143 . S
O592 Co591 2.160 . S
C593 O594 1.278 1_556 S
C593 O601 1.224 1_556 S
O594 C593 1.278 1_554 S
C595 O596 1.245 . S
C595 O607 1.232 . S
O596 C595 1.245 . S
O597 Co591 2.058 . S
O597 C623 1.269 . S
O598 Co590 2.074 . S
O598 C623 1.257 . S
H599 C624 0.930 . S
H600 C630 0.930 . S
O601 Co590 2.093 . S
O601 C593 1.224 1_554 S
H602 C634 0.929 . S
H603 C636 0.930 . S
H604 C637 0.930 . S
H605 C635 0.929 1_554 S
H606 C638 0.916 1_556 S
O607 Co591 2.057 . S
O607 C595 1.232 . S
H608 C627 0.929 . S
H609 C628 0.929 . S
H610 C640 0.931 . S
H611 C632 0.929 . S
H612 C641 0.930 . S
H613 C633 0.931 . S
O614 Co590 2.097 . S
O614 C642 1.214 . S
H615 C643 0.929 . S
H616 C644 0.929 . S
H617 C645 0.930 . S
H618 C646 0.929 . S
H619 C648 0.930 . S
H620 C625 0.930 . S
H621 C629 0.930 . S
O622 Co591 2.037 . S
O622 C642 1.234 . S
C623 O597 1.269 . S
C623 O598 1.257 . S
C624 H599 0.930 . S
C624 C627 1.388 . S
C624 C629 1.418 . S
C625 H620 0.930 . S
C625 C628 1.404 . S
C625 C629 1.353 . S
N626 Co591 2.145 . S
N626 C627 1.397 . S
N626 C628 1.334 . S
C627 H608 0.929 . S
C627 C624 1.388 . S
C627 N626 1.397 . S
C628 H609 0.929 . S
C628 C625 1.404 . S
C628 N626 1.334 . S
C629 H621 0.930 . S
C629 C624 1.418 . S
C629 C625 1.353 . S
C630 H600 0.930 . S
C630 N631 1.330 . S
C630 C632 1.446 . S
N631 Co590 2.151 1_556 S
N631 C630 1.330 . S
N631 C635 1.418 . S
C632 H611 0.929 . S
C632 C630 1.446 . S
C632 C633 1.332 . S
C633 H613 0.931 . S
C633 C632 1.332 . S
C633 C634 1.267 . S
C634 H602 0.929 . S
C634 C633 1.267 . S
C634 C635 1.251 . S
C635 H605 0.929 1_556 S
C635 N631 1.418 . S
C635 C634 1.251 . S
C636 H603 0.930 . S
C636 C638 1.406 . S
C636 C641 1.261 . S
C637 H604 0.930 . S
C637 N639 1.325 . S
C637 C640 1.357 . S
C638 H606 0.916 1_554 S
C638 C636 1.406 . S
C638 N639 1.261 . S
N639 Co590 2.214 . S
N639 C637 1.325 . S
N639 C638 1.261 . S
C640 H610 0.931 . S
C640 C637 1.357 . S
C640 C641 1.312 . S
C641 H612 0.930 . S
C641 C636 1.261 . S
C641 C640 1.312 . S
C642 O614 1.214 . S
C642 O622 1.234 . S
C643 H615 0.929 . S
C643 C646 1.391 . S
C643 C648 1.391 . S
C644 H616 0.929 . S
C644 C645 1.390 . S
C644 N647 1.391 . S
C645 H617 0.930 . S
C645 C644 1.390 . S
C645 C646 1.392 . S
C646 H618 0.929 . S
C646 C643 1.391 . S
C646 C645 1.392 . S
N647 Co591 2.257 . S
N647 C644 1.391 . S
N647 C648 1.388 . S
C648 H619 0.930 . S
C648 C643 1.391 . S
C648 N647 1.388 . S
Co649 O651 2.143 . S
Co649 O657 2.074 . S
Co649 O660 2.093 . S
Co649 O673 2.097 . S
Co649 N690 2.151 . S
Co649 N698 2.214 . S
Co650 O651 2.160 . S
Co650 O656 2.058 . S
Co650 O666 2.057 . S
Co650 O681 2.037 . S
Co650 N685 2.145 . S
Co650 N706 2.257 . S
O651 Co649 2.143 . S
O651 Co650 2.160 . S
C652 O653 1.278 . S
C652 O660 1.224 . S
O653 C652 1.278 . S
C654 O655 1.245 . S
C654 O666 1.232 . S
O655 C654 1.245 . S
O656 Co650 2.058 . S
O656 C682 1.269 . S
O657 Co649 2.074 . S
O657 C682 1.257 . S
H658 C683 0.930 . S
H659 C689 0.930 . S
O660 Co649 2.093 . S
O660 C652 1.224 . S
H661 C693 0.929 . S
H662 C695 0.930 . S
H663 C696 0.930 . S
H664 C694 0.929 . S
H665 C697 0.928 . S
O666 Co650 2.057 . S
O666 C654 1.232 . S
H667 C686 0.929 . S
H668 C687 0.929 . S
H669 C699 0.931 . S
H670 C691 0.929 . S
H671 C700 0.930 . S
H672 C692 0.931 . S
O673 Co649 2.097 . S
O673 C701 1.214 . S
H674 C702 0.929 . S
H675 C703 0.929 . S
H676 C704 0.930 . S
H677 C705 0.929 . S
H678 C707 0.930 . S
H679 C684 0.930 . S
H680 C688 0.930 . S
O681 Co650 2.037 . S
O681 C701 1.234 . S
C682 O656 1.269 . S
C682 O657 1.257 . S
C683 H658 0.930 . S
C683 C686 1.388 . S
C683 C688 1.418 . S
C684 H679 0.930 . S
C684 C687 1.404 . S
C684 C688 1.353 . S
N685 Co650 2.145 . S
N685 C686 1.397 . S
N685 C687 1.334 . S
C686 H667 0.929 . S
C686 C683 1.388 . S
C686 N685 1.397 . S
C687 H668 0.929 . S
C687 C684 1.404 . S
C687 N685 1.334 . S
C688 H680 0.930 . S
C688 C683 1.418 . S
C688 C684 1.353 . S
C689 H659 0.930 . S
C689 N690 1.330 . S
C689 C691 1.446 . S
N690 Co649 2.151 . S
N690 C689 1.330 . S
N690 C694 1.418 . S
C691 H670 0.929 . S
C691 C689 1.446 . S
C691 C692 1.332 . S
C692 H672 0.931 . S
C692 C691 1.332 . S
C692 C693 1.267 . S
C693 H661 0.929 . S
C693 C692 1.267 . S
C693 C694 1.251 . S
C694 H664 0.929 . S
C694 N690 1.418 . S
C694 C693 1.251 . S
C695 H662 0.930 . S
C695 C697 1.406 . S
C695 C700 1.261 . S
C696 H663 0.930 . S
C696 N698 1.325 . S
C696 C699 1.357 . S
C697 H665 0.928 . S
C697 C695 1.406 . S
C697 N698 1.261 . S
N698 Co649 2.214 . S
N698 C696 1.325 . S
N698 C697 1.261 . S
C699 H669 0.931 . S
C699 C696 1.357 . S
C699 C700 1.312 . S
C700 H671 0.930 . S
C700 C695 1.261 . S
C700 C699 1.312 . S
C701 O673 1.214 . S
C701 O681 1.234 . S
C702 H674 0.929 . S
C702 C705 1.391 . S
C702 C707 1.391 . S
C703 H675 0.929 . S
C703 C704 1.390 . S
C703 N706 1.391 . S
C704 H676 0.930 . S
C704 C703 1.390 . S
C704 C705 1.392 . S
C705 H677 0.929 . S
C705 C702 1.391 . S
C705 C704 1.392 . S
N706 Co650 2.257 . S
N706 C703 1.391 . S
N706 C707 1.388 . S
C707 H678 0.930 . S
C707 C702 1.391 . S
C707 N706 1.388 . S
H708 C716 0.929 . S
H709 C718 0.930 . S
H710 C720 0.930 . S
H711 C723 0.929 . S
H712 C726 0.930 . S
H713 C728 0.960 . S
H714 C728 0.960 . S
H715 C728 0.960 . S
C716 H708 0.929 . S
C716 C717 1.377 . S
C716 C718 1.384 . S
C717 C716 1.377 . S
C717 C723 1.390 . S
C718 H709 0.930 . S
C718 C716 1.384 . S
C718 C719 1.372 . S
C719 C718 1.372 . S
C719 C720 1.400 . S
C719 C724 1.490 . S
C720 H710 0.930 . S
C720 C719 1.400 . S
C720 C723 1.386 . S
H721 C737 0.930 . S
H722 C738 0.931 . S
C723 H711 0.929 . S
C723 C717 1.390 . S
C723 C720 1.386 . S
C724 C719 1.490 . S
C724 C726 1.395 . S
C724 C727 1.403 . S
H725 C731 0.930 . S
C726 H712 0.930 . S
C726 C724 1.395 . S
C726 C729 1.403 . S
C727 C724 1.403 . S
C727 C728 1.524 . S
C727 C731 1.400 . S
C728 H713 0.960 . S
C728 H714 0.960 . S
C728 H715 0.960 . S
C728 C727 1.524 . S
C729 C726 1.403 . S
C729 C730 1.392 . S
C729 C733 1.495 . S
C730 C729 1.392 . S
C730 C731 1.385 . S
C730 C732 1.478 . S
C731 H725 0.930 . S
C731 C727 1.400 . S
C731 C730 1.385 . S
C732 C730 1.478 . S
C732 C734 1.381 . S
C732 C738 1.383 . S
C733 C729 1.495 . S
C733 H739 0.959 . S
C733 H740 0.961 . S
C733 H741 0.960 . S
C734 C732 1.381 . S
C734 C735 1.394 . S
C734 H742 0.930 . S
C735 C734 1.394 . S
C735 C736 1.383 . S
C735 H743 0.929 . S
C736 C735 1.383 . S
C736 C737 1.377 . S
C737 H721 0.930 . S
C737 C736 1.377 . S
C737 C738 1.379 . S
C738 H722 0.931 . S
C738 C732 1.383 . S
C738 C737 1.379 . S
H739 C733 0.959 . S
H740 C733 0.961 . S
H741 C733 0.960 . S
H742 C734 0.930 . S
H743 C735 0.929 . S
H744 C752 0.929 . S
H745 C754 0.930 . S
H746 C756 0.930 . S
H747 C759 0.929 . S
H748 C762 0.930 . S
H749 C764 0.960 . S
H750 C764 0.948 1_455 S
H751 C764 0.960 . S
C752 H744 0.929 . S
C752 C753 1.377 . S
C752 C754 1.384 . S
C753 C752 1.377 . S
C753 C759 1.390 . S
C754 H745 0.930 . S
C754 C752 1.384 . S
C754 C755 1.372 . S
C755 C754 1.372 . S
C755 C756 1.400 . S
C755 C760 1.490 . S
C756 H746 0.930 . S
C756 C755 1.400 . S
C756 C759 1.386 . S
H757 C773 0.930 . S
H758 C774 0.931 . S
C759 H747 0.929 . S
C759 C753 1.390 . S
C759 C756 1.386 . S
C760 C755 1.490 . S
C760 C762 1.395 . S
C760 C763 1.403 1_455 S
H761 C767 0.930 . S
C762 H748 0.930 . S
C762 C760 1.395 . S
C762 C765 1.403 . S
C763 C760 1.403 1_655 S
C763 C764 1.524 . S
C763 C767 1.400 . S
C764 H749 0.960 . S
C764 H750 0.948 1_655 S
C764 H751 0.960 . S
C764 C763 1.524 . S
C765 C762 1.403 . S
C765 C766 1.392 1_455 S
C765 C769 1.495 . S
C766 C765 1.392 1_655 S
C766 C767 1.385 . S
C766 C768 1.478 . S
C767 H761 0.930 . S
C767 C763 1.400 . S
C767 C766 1.385 . S
C768 C766 1.478 . S
C768 C770 1.381 . S
C768 C774 1.383 . S
C769 C765 1.495 . S
C769 H775 0.959 . S
C769 H776 0.961 . S
C769 H777 0.960 . S
C770 C768 1.381 . S
C770 C771 1.394 . S
C770 H778 0.930 . S
C771 C770 1.394 . S
C771 C772 1.383 . S
C771 H779 0.929 . S
C772 C771 1.383 . S
C772 C773 1.377 . S
C773 H757 0.930 . S
C773 C772 1.377 . S
C773 C774 1.379 . S
C774 H758 0.931 . S
C774 C768 1.383 . S
C774 C773 1.379 . S
H775 C769 0.959 . S
H776 C769 0.961 . S
H777 C769 0.960 . S
H778 C770 0.930 . S
H779 C771 0.929 . S
H780 C788 0.929 . S
H781 C790 0.930 . S
H782 C792 0.930 . S
H783 C795 0.929 . S
H784 C798 0.930 . S
H785 C800 0.960 . S
H786 C800 0.960 . S
H787 C800 0.960 . S
C788 H780 0.929 . S
C788 C789 1.377 . S
C788 C790 1.384 . S
C789 C788 1.377 . S
C789 C795 1.390 . S
C790 H781 0.930 . S
C790 C788 1.384 . S
C790 C791 1.372 . S
C791 C790 1.372 . S
C791 C792 1.400 . S
C791 C796 1.490 . S
C792 H782 0.930 . S
C792 C791 1.400 . S
C792 C795 1.386 . S
H793 C809 0.930 . S
H794 C810 0.931 . S
C795 H783 0.929 . S
C795 C789 1.390 . S
C795 C792 1.386 . S
C796 C791 1.490 . S
C796 C798 1.395 1_565 S
C796 C799 1.403 . S
H797 C803 0.908 1_565 S
C798 H784 0.930 . S
C798 C796 1.395 1_545 S
C798 C801 1.403 . S
C799 C796 1.403 . S
C799 C800 1.524 . S
C799 C803 1.388 1_565 S
C800 H785 0.960 . S
C800 H786 0.960 . S
C800 H787 0.960 . S
C800 C799 1.524 . S
C801 C798 1.403 . S
C801 C802 1.392 . S
C801 C805 1.495 . S
C802 C801 1.392 . S
C802 C803 1.403 . S
C802 C804 1.478 . S
C803 H797 0.908 1_545 S
C803 C799 1.388 1_545 S
C803 C802 1.403 . S
C804 C802 1.478 . S
C804 C806 1.381 . S
C804 C810 1.383 . S
C805 C801 1.495 . S
C805 H811 0.959 . S
C805 H812 0.961 . S
C805 H813 0.960 . S
C806 C804 1.381 . S
C806 C807 1.394 . S
C806 H814 0.930 . S
C807 C806 1.394 . S
C807 C808 1.383 . S
C807 H815 0.929 . S
C808 C807 1.383 . S
C808 C809 1.377 . S
C809 H793 0.930 . S
C809 C808 1.377 . S
C809 C810 1.379 . S
C810 H794 0.931 . S
C810 C804 1.383 . S
C810 C809 1.379 . S
H811 C805 0.959 . S
H812 C805 0.961 . S
H813 C805 0.960 . S
H814 C806 0.930 . S
H815 C807 0.929 . S
H816 C824 0.929 . S
H817 C826 0.930 . S
H818 C828 0.930 . S
H819 C831 0.929 . S
H820 C834 0.930 . S
H821 C836 0.960 . S
H822 C836 0.960 . S
H823 C836 0.960 . S
C824 H816 0.929 . S
C824 C825 1.377 . S
C824 C826 1.384 . S
C825 C824 1.377 . S
C825 C831 1.390 . S
C826 H817 0.930 . S
C826 C824 1.384 . S
C826 C827 1.372 . S
C827 C826 1.372 . S
C827 C828 1.400 . S
C827 C832 1.490 . S
C828 H818 0.930 . S
C828 C827 1.400 . S
C828 C831 1.386 . S
H829 C845 0.930 . S
H830 C846 0.931 . S
C831 H819 0.929 . S
C831 C825 1.390 . S
C831 C828 1.386 . S
C832 C827 1.490 . S
C832 C834 1.395 . S
C832 C835 1.403 . S
H833 C839 0.930 . S
C834 H820 0.930 . S
C834 C832 1.395 . S
C834 C837 1.403 . S
C835 C832 1.403 . S
C835 C836 1.524 . S
C835 C839 1.400 . S
C836 H821 0.960 . S
C836 H822 0.960 . S
C836 H823 0.960 . S
C836 C835 1.524 . S
C837 C834 1.403 . S
C837 C838 1.392 . S
C837 C841 1.495 . S
C838 C837 1.392 . S
C838 C839 1.385 . S
C838 C840 1.478 . S
C839 H833 0.930 . S
C839 C835 1.400 . S
C839 C838 1.385 . S
C840 C838 1.478 . S
C840 C842 1.381 . S
C840 C846 1.383 . S
C841 C837 1.495 . S
C841 H847 0.959 . S
C841 H848 0.961 . S
C841 H849 0.960 . S
C842 C840 1.381 . S
C842 C843 1.394 . S
C842 H850 0.930 . S
C843 C842 1.394 . S
C843 C844 1.383 . S
C843 H851 0.929 . S
C844 C843 1.383 . S
C844 C845 1.377 . S
C845 H829 0.930 . S
C845 C844 1.377 . S
C845 C846 1.379 . S
C846 H830 0.931 . S
C846 C840 1.383 . S
C846 C845 1.379 . S
H847 C841 0.959 . S
H848 C841 0.961 . S
H849 C841 0.960 . S
H850 C842 0.930 . S
H851 C843 0.929 . S
H852 C860 0.929 . S
H853 C862 0.930 . S
H854 C864 0.930 . S
H855 C867 0.929 . S
H856 C870 0.911 1_455 S
H857 C872 0.960 . S
H858 C872 0.960 . S
H859 C872 0.960 . S
C860 H852 0.929 . S
C860 C861 1.377 . S
C860 C862 1.384 . S
C861 C860 1.377 . S
C861 C867 1.390 . S
C862 H853 0.930 . S
C862 C860 1.384 . S
C862 C863 1.372 . S
C863 C862 1.372 . S
C863 C864 1.400 . S
C863 C868 1.490 . S
C864 H854 0.930 . S
C864 C863 1.400 . S
C864 C867 1.386 . S
H865 C881 0.930 1_554 S
H866 C882 0.931 . S
C867 H855 0.929 . S
C867 C861 1.390 . S
C867 C864 1.386 . S
C868 C863 1.490 . S
C868 C870 1.391 1_455 S
C868 C871 1.403 . S
H869 C875 0.930 . S
C870 H856 0.911 1_655 S
C870 C868 1.391 1_655 S
C870 C873 1.419 . S
C871 C868 1.403 . S
C871 C872 1.524 . S
C871 C875 1.400 1_455 S
C872 H857 0.960 . S
C872 H858 0.960 . S
C872 H859 0.960 . S
C872 C871 1.524 . S
C873 C870 1.419 . S
C873 C874 1.392 . S
C873 C877 1.495 . S
C874 C873 1.392 . S
C874 C875 1.385 . S
C874 C876 1.478 . S
C875 H869 0.930 . S
C875 C871 1.400 1_655 S
C875 C874 1.385 . S
C876 C874 1.478 . S
C876 C878 1.381 . S
C876 C882 1.383 . S
C877 C873 1.495 . S
C877 H883 0.959 . S
C877 H884 0.961 . S
C877 H885 0.960 . S
C878 C876 1.381 . S
C878 C879 1.394 . S
C878 H886 0.930 . S
C879 C878 1.394 . S
C879 C880 1.383 . S
C879 H887 0.929 . S
C880 C879 1.383 . S
C880 C881 1.377 . S
C881 H865 0.930 1_556 S
C881 C880 1.377 . S
C881 C882 1.379 . S
C882 H866 0.931 . S
C882 C876 1.383 . S
C882 C881 1.379 . S
H883 C877 0.959 . S
H884 C877 0.961 . S
H885 C877 0.960 . S
H886 C878 0.930 . S
H887 C879 0.929 . S
H888 C896 0.929 . S
H889 C898 0.930 . S
H890 C900 0.930 . S
H891 C903 0.929 . S
H892 C906 0.943 . S
H893 C908 0.960 1_554 S
H894 C908 0.960 . S
H895 C908 0.960 . S
C896 H888 0.929 . S
C896 C897 1.377 . S
C896 C898 1.384 . S
C897 C896 1.377 . S
C897 C903 1.390 . S
C898 H889 0.930 . S
C898 C896 1.384 . S
C898 C899 1.372 . S
C899 C898 1.372 . S
C899 C900 1.400 . S
C899 C904 1.490 . S
C900 H890 0.930 . S
C900 C899 1.400 . S
C900 C903 1.386 . S
H901 C917 0.930 . S
H902 C918 0.931 . S
C903 H891 0.929 . S
C903 C897 1.390 . S
C903 C900 1.386 . S
C904 C899 1.490 . S
C904 C906 1.329 1_545 S
C904 C907 1.403 . S
H905 C911 0.930 . S
C906 H892 0.943 . S
C906 C904 1.329 1_565 S
C906 C909 1.449 . S
C907 C904 1.403 . S
C907 C908 1.524 . S
C907 C911 1.400 1_546 S
C908 H893 0.960 1_556 S
C908 H894 0.960 . S
C908 H895 0.960 . S
C908 C907 1.524 . S
C909 C906 1.449 . S
C909 C910 1.392 1_556 S
C909 C913 1.495 . S
C910 C909 1.392 1_554 S
C910 C911 1.385 . S
C910 C912 1.478 . S
C911 H905 0.930 . S
C911 C907 1.400 1_564 S
C911 C910 1.385 . S
C912 C910 1.478 . S
C912 C914 1.381 . S
C912 C918 1.383 . S
C913 C909 1.495 . S
C913 H919 0.959 . S
C913 H920 0.961 1_556 S
C913 H921 0.960 . S
C914 C912 1.381 . S
C914 C915 1.394 . S
C914 H922 0.930 . S
C915 C914 1.394 . S
C915 C916 1.383 . S
C915 H923 0.929 . S
C916 C915 1.383 . S
C916 C917 1.377 . S
C917 H901 0.930 . S
C917 C916 1.377 . S
C917 C918 1.379 . S
C918 H902 0.931 . S
C918 C912 1.383 . S
C918 C917 1.379 . S
H919 C913 0.959 . S
H920 C913 0.961 1_554 S
H921 C913 0.960 . S
H922 C914 0.930 . S
H923 C915 0.929 . S
H924 C932 0.929 . S
H925 C934 0.930 . S
H926 C936 0.930 . S
H927 C939 0.929 . S
H928 C942 0.930 . S
H929 C944 0.960 . S
H930 C944 0.960 . S
H931 C944 0.960 . S
C932 H924 0.929 . S
C932 C933 1.377 . S
C932 C934 1.384 . S
C933 C932 1.377 . S
C933 C939 1.390 . S
C934 H925 0.930 . S
C934 C932 1.384 . S
C934 C935 1.372 . S
C935 C934 1.372 . S
C935 C936 1.400 . S
C935 C940 1.490 . S
C936 H926 0.930 . S
C936 C935 1.400 . S
C936 C939 1.386 . S
H937 C953 0.930 . S
H938 C954 0.931 . S
C939 H927 0.929 . S
C939 C933 1.390 . S
C939 C936 1.386 . S
C940 C935 1.490 . S
C940 C942 1.395 . S
C940 C943 1.403 . S
H941 C947 0.930 . S
C942 H928 0.930 . S
C942 C940 1.395 . S
C942 C945 1.403 . S
C943 C940 1.403 . S
C943 C944 1.524 . S
C943 C947 1.400 . S
C944 H929 0.960 . S
C944 H930 0.960 . S
C944 H931 0.960 . S
C944 C943 1.524 . S
C945 C942 1.403 . S
C945 C946 1.392 . S
C945 C949 1.495 . S
C946 C945 1.392 . S
C946 C947 1.385 . S
C946 C948 1.478 . S
C947 H941 0.930 . S
C947 C943 1.400 . S
C947 C946 1.385 . S
C948 C946 1.478 . S
C948 C950 1.381 . S
C948 C954 1.383 . S
C949 C945 1.495 . S
C949 H955 0.959 . S
C949 H956 0.961 . S
C949 H957 0.960 . S
C950 C948 1.381 . S
C950 C951 1.394 . S
C950 H958 0.930 . S
C951 C950 1.394 . S
C951 C952 1.383 . S
C951 H959 0.929 . S
C952 C951 1.383 . S
C952 C953 1.377 . S
C953 H937 0.930 . S
C953 C952 1.377 . S
C953 C954 1.379 . S
C954 H938 0.931 . S
C954 C948 1.383 . S
C954 C953 1.379 . S
H955 C949 0.959 . S
H956 C949 0.961 . S
H957 C949 0.960 . S
H958 C950 0.930 . S
H959 C951 0.929 . S
H960 C968 0.929 . S
H961 C970 0.930 . S
H962 C972 0.930 . S
H963 C975 0.929 . S
H964 C978 0.930 . S
H965 C980 0.960 . S
H966 C980 0.960 . S
H967 C980 0.960 . S
C968 H960 0.929 . S
C968 C969 1.377 . S
C968 C970 1.384 . S
C969 C968 1.377 . S
C969 C975 1.390 . S
C970 H961 0.930 . S
C970 C968 1.384 . S
C970 C971 1.372 . S
C971 C970 1.372 . S
C971 C972 1.400 . S
C971 C976 1.490 . S
C972 H962 0.930 . S
C972 C971 1.400 . S
C972 C975 1.386 . S
H973 C989 0.930 . S
H974 C990 0.931 . S
C975 H963 0.929 . S
C975 C969 1.390 . S
C975 C972 1.386 . S
C976 C971 1.490 . S
C976 C978 1.395 . S
C976 C979 1.403 . S
H977 C983 0.930 . S
C978 H964 0.930 . S
C978 C976 1.395 . S
C978 C981 1.403 . S
C979 C976 1.403 . S
C979 C980 1.524 . S
C979 C983 1.400 . S
C980 H965 0.960 . S
C980 H966 0.960 . S
C980 H967 0.960 . S
C980 C979 1.524 . S
C981 C978 1.403 . S
C981 C982 1.392 . S
C981 C985 1.495 . S
C982 C981 1.392 . S
C982 C983 1.385 . S
C982 C984 1.478 . S
C983 H977 0.930 . S
C983 C979 1.400 . S
C983 C982 1.385 . S
C984 C982 1.478 . S
C984 C986 1.381 . S
C984 C990 1.383 . S
C985 C981 1.495 . S
C985 H991 0.959 . S
C985 H992 0.961 . S
C985 H993 0.960 . S
C986 C984 1.381 . S
C986 C987 1.394 . S
C986 H994 0.930 . S
C987 C986 1.394 . S
C987 C988 1.383 . S
C987 H995 0.929 . S
C988 C987 1.383 . S
C988 C989 1.377 . S
C989 H973 0.930 . S
C989 C988 1.377 . S
C989 C990 1.379 . S
C990 H974 0.931 . S
C990 C984 1.383 . S
C990 C989 1.379 . S
H991 C985 0.959 . S
H992 C985 0.961 . S
H993 C985 0.960 . S
H994 C986 0.930 . S
H995 C987 0.929 . S
H996 C1004 0.929 . S
H997 C1006 0.930 . S
H998 C1008 0.930 . S
H999 C1011 0.929 . S
H1000 C1014 0.930 . S
H1001 C1016 0.960 . S
H1002 C1016 0.960 . S
H1003 C1016 0.960 . S
C1004 H996 0.929 . S
C1004 C1005 1.377 . S
C1004 C1006 1.384 . S
C1005 C1004 1.377 . S
C1005 C1011 1.390 . S
C1006 H997 0.930 . S
C1006 C1004 1.384 . S
C1006 C1007 1.372 . S
C1007 C1006 1.372 . S
C1007 C1008 1.400 . S
C1007 C1012 1.490 . S
C1008 H998 0.930 . S
C1008 C1007 1.400 . S
C1008 C1011 1.386 . S
H1009 C1025 0.930 . S
H1010 C1026 0.931 . S
C1011 H999 0.929 . S
C1011 C1005 1.390 . S
C1011 C1008 1.386 . S
C1012 C1007 1.490 . S
C1012 C1014 1.395 . S
C1012 C1015 1.403 . S
H1013 C1019 0.930 . S
C1014 H1000 0.930 . S
C1014 C1012 1.395 . S
C1014 C1017 1.403 . S
C1015 C1012 1.403 . S
C1015 C1016 1.524 . S
C1015 C1019 1.400 . S
C1016 H1001 0.960 . S
C1016 H1002 0.960 . S
C1016 H1003 0.960 . S
C1016 C1015 1.524 . S
C1017 C1014 1.403 . S
C1017 C1018 1.392 . S
C1017 C1021 1.495 . S
C1018 C1017 1.392 . S
C1018 C1019 1.385 . S
C1018 C1020 1.478 . S
C1019 H1013 0.930 . S
C1019 C1015 1.400 . S
C1019 C1018 1.385 . S
C1020 C1018 1.478 . S
C1020 C1022 1.381 . S
C1020 C1026 1.383 . S
C1021 C1017 1.495 . S
C1021 H1027 0.959 . S
C1021 H1028 0.961 . S
C1021 H1029 0.960 . S
C1022 C1020 1.381 . S
C1022 C1023 1.394 . S
C1022 H1030 0.930 . S
C1023 C1022 1.394 . S
C1023 C1024 1.383 . S
C1023 H1031 0.929 . S
C1024 C1023 1.383 . S
C1024 C1025 1.377 . S
C1025 H1009 0.930 . S
C1025 C1024 1.377 . S
C1025 C1026 1.379 . S
C1026 H1010 0.931 . S
C1026 C1020 1.383 . S
C1026 C1025 1.379 . S
H1027 C1021 0.959 . S
H1028 C1021 0.961 . S
H1029 C1021 0.960 . S
H1030 C1022 0.930 . S
H1031 C1023 0.929 . S
H1032 C1040 0.929 . S
H1033 C1042 0.930 . S
H1034 C1044 0.930 . S
H1035 C1047 0.929 . S
H1036 C1050 0.930 . S
H1037 C1052 0.960 . S
H1038 C1052 0.960 . S
H1039 C1052 0.960 . S
C1040 H1032 0.929 . S
C1040 C1041 1.377 . S
C1040 C1042 1.384 . S
C1041 C1040 1.377 . S
C1041 C1047 1.390 . S
C1042 H1033 0.930 . S
C1042 C1040 1.384 . S
C1042 C1043 1.372 . S
C1043 C1042 1.372 . S
C1043 C1044 1.400 . S
C1043 C1048 1.490 . S
C1044 H1034 0.930 . S
C1044 C1043 1.400 . S
C1044 C1047 1.386 . S
H1045 C1061 0.930 . S
H1046 C1062 0.931 . S
C1047 H1035 0.929 . S
C1047 C1041 1.390 . S
C1047 C1044 1.386 . S
C1048 C1043 1.490 . S
C1048 C1050 1.395 . S
C1048 C1051 1.403 . S
H1049 C1055 0.930 . S
C1050 H1036 0.930 . S
C1050 C1048 1.395 . S
C1050 C1053 1.403 . S
C1051 C1048 1.403 . S
C1051 C1052 1.524 . S
C1051 C1055 1.400 . S
C1052 H1037 0.960 . S
C1052 H1038 0.960 . S
C1052 H1039 0.960 . S
C1052 C1051 1.524 . S
C1053 C1050 1.403 . S
C1053 C1054 1.392 . S
C1053 C1057 1.495 . S
C1054 C1053 1.392 . S
C1054 C1055 1.385 . S
C1054 C1056 1.478 . S
C1055 H1049 0.930 . S
C1055 C1051 1.400 . S
C1055 C1054 1.385 . S
C1056 C1054 1.478 . S
C1056 C1058 1.381 . S
C1056 C1062 1.383 . S
C1057 C1053 1.495 . S
C1057 H1063 0.959 . S
C1057 H1064 0.961 1_556 S
C1057 H1065 0.960 . S
C1058 C1056 1.381 . S
C1058 C1059 1.394 . S
C1058 H1066 0.930 . S
C1059 C1058 1.394 . S
C1059 C1060 1.383 . S
C1059 H1067 0.929 . S
C1060 C1059 1.383 . S
C1060 C1061 1.377 . S
C1061 H1045 0.930 . S
C1061 C1060 1.377 . S
C1061 C1062 1.379 . S
C1062 H1046 0.931 . S
C1062 C1056 1.383 . S
C1062 C1061 1.379 . S
H1063 C1057 0.959 . S
H1064 C1057 0.961 1_554 S
H1065 C1057 0.960 . S
H1066 C1058 0.930 . S
H1067 C1059 0.929 . S
H1068 C1076 0.929 . S
H1069 C1078 0.930 . S
H1070 C1080 0.930 . S
H1071 C1083 0.929 . S
H1072 C1086 0.930 . S
H1073 C1088 0.960 . S
H1074 C1088 0.960 . S
H1075 C1088 0.960 . S
C1076 H1068 0.929 . S
C1076 C1077 1.377 . S
C1076 C1078 1.384 . S
C1077 C1076 1.377 . S
C1077 C1083 1.390 . S
C1078 H1069 0.930 . S
C1078 C1076 1.384 . S
C1078 C1079 1.372 . S
C1079 C1078 1.372 . S
C1079 C1080 1.400 . S
C1079 C1084 1.490 . S
C1080 H1070 0.930 . S
C1080 C1079 1.400 . S
C1080 C1083 1.386 . S
H1081 C1097 0.930 . S
H1082 C1098 0.931 . S
C1083 H1071 0.929 . S
C1083 C1077 1.390 . S
C1083 C1080 1.386 . S
C1084 C1079 1.490 . S
C1084 C1086 1.395 . S
C1084 C1087 1.403 . S
H1085 C1091 0.930 . S
C1086 H1072 0.930 . S
C1086 C1084 1.395 . S
C1086 C1089 1.403 . S
C1087 C1084 1.403 . S
C1087 C1088 1.524 . S
C1087 C1091 1.400 . S
C1088 H1073 0.960 . S
C1088 H1074 0.960 . S
C1088 H1075 0.960 . S
C1088 C1087 1.524 . S
C1089 C1086 1.403 . S
C1089 C1090 1.392 . S
C1089 C1093 1.495 . S
C1090 C1089 1.392 . S
C1090 C1091 1.385 . S
C1090 C1092 1.478 . S
C1091 H1085 0.930 . S
C1091 C1087 1.400 . S
C1091 C1090 1.385 . S
C1092 C1090 1.478 . S
C1092 C1094 1.381 . S
C1092 C1098 1.383 . S
C1093 C1089 1.495 . S
C1093 H1099 0.959 . S
C1093 H1100 0.961 . S
C1093 H1101 0.960 . S
C1094 C1092 1.381 . S
C1094 C1095 1.394 . S
C1094 H1102 0.930 . S
C1095 C1094 1.394 . S
C1095 C1096 1.383 . S
C1095 H1103 0.929 . S
C1096 C1095 1.383 . S
C1096 C1097 1.377 . S
C1097 H1081 0.930 . S
C1097 C1096 1.377 . S
C1097 C1098 1.379 . S
C1098 H1082 0.931 . S
C1098 C1092 1.383 . S
C1098 C1097 1.379 . S
H1099 C1093 0.959 . S
H1100 C1093 0.961 . S
H1101 C1093 0.960 . S
H1102 C1094 0.930 . S
H1103 C1095 0.929 . S
H1104 C1112 0.929 . S
H1105 C1114 0.930 . S
H1106 C1116 0.930 . S
H1107 C1119 0.929 . S
H1108 C1122 0.930 . S
H1109 C1124 0.960 . S
H1110 C1124 0.960 . S
H1111 C1124 0.960 . S
C1112 H1104 0.929 . S
C1112 C1113 1.377 . S
C1112 C1114 1.384 . S
C1113 C1112 1.377 . S
C1113 C1119 1.390 . S
C1114 H1105 0.930 . S
C1114 C1112 1.384 . S
C1114 C1115 1.372 . S
C1115 C1114 1.372 . S
C1115 C1116 1.400 . S
C1115 C1120 1.490 . S
C1116 H1106 0.930 . S
C1116 C1115 1.400 . S
C1116 C1119 1.386 . S
H1117 C1133 0.930 . S
H1118 C1134 0.931 . S
C1119 H1107 0.929 . S
C1119 C1113 1.390 . S
C1119 C1116 1.386 . S
C1120 C1115 1.490 . S
C1120 C1122 1.395 . S
C1120 C1123 1.403 . S
H1121 C1127 0.930 . S
C1122 H1108 0.930 . S
C1122 C1120 1.395 . S
C1122 C1125 1.403 . S
C1123 C1120 1.403 . S
C1123 C1124 1.524 . S
C1123 C1127 1.400 . S
C1124 H1109 0.960 . S
C1124 H1110 0.960 . S
C1124 H1111 0.960 . S
C1124 C1123 1.524 . S
C1125 C1122 1.403 . S
C1125 C1126 1.392 . S
C1125 C1129 1.495 . S
C1126 C1125 1.392 . S
C1126 C1127 1.385 . S
C1126 C1128 1.478 . S
C1127 H1121 0.930 . S
C1127 C1123 1.400 . S
C1127 C1126 1.385 . S
C1128 C1126 1.478 . S
C1128 C1130 1.381 . S
C1128 C1134 1.383 . S
C1129 C1125 1.495 . S
C1129 H1135 0.959 . S
C1129 H1136 0.961 . S
C1129 H1137 0.960 . S
C1130 C1128 1.381 . S
C1130 C1131 1.394 . S
C1130 H1138 0.930 . S
C1131 C1130 1.394 . S
C1131 C1132 1.383 . S
C1131 H1139 0.929 . S
C1132 C1131 1.383 . S
C1132 C1133 1.377 . S
C1133 H1117 0.930 . S
C1133 C1132 1.377 . S
C1133 C1134 1.379 . S
C1134 H1118 0.931 . S
C1134 C1128 1.383 . S
C1134 C1133 1.379 . S
H1135 C1129 0.959 . S
H1136 C1129 0.961 . S
H1137 C1129 0.960 . S
H1138 C1130 0.930 . S
H1139 C1131 0.929 . S
H1140 C1148 0.929 . S
H1141 C1150 0.930 . S
H1142 C1152 0.930 . S
H1143 C1155 0.929 . S
H1144 C1158 0.930 . S
H1145 C1160 0.960 . S
H1146 C1160 0.960 . S
H1147 C1160 0.960 . S
C1148 H1140 0.929 . S
C1148 C1149 1.377 . S
C1148 C1150 1.384 . S
C1149 C1148 1.377 . S
C1149 C1155 1.390 . S
C1150 H1141 0.930 . S
C1150 C1148 1.384 . S
C1150 C1151 1.372 . S
C1151 C1150 1.372 . S
C1151 C1152 1.400 . S
C1151 C1156 1.490 . S
C1152 H1142 0.930 . S
C1152 C1151 1.400 . S
C1152 C1155 1.386 . S
H1153 C1169 0.930 . S
H1154 C1170 0.931 . S
C1155 H1143 0.929 . S
C1155 C1149 1.390 . S
C1155 C1152 1.386 . S
C1156 C1151 1.490 . S
C1156 C1158 1.395 . S
C1156 C1159 1.403 . S
H1157 C1163 0.930 . S
C1158 H1144 0.930 . S
C1158 C1156 1.395 . S
C1158 C1161 1.403 . S
C1159 C1156 1.403 . S
C1159 C1160 1.524 . S
C1159 C1163 1.400 . S
C1160 H1145 0.960 . S
C1160 H1146 0.960 . S
C1160 H1147 0.960 . S
C1160 C1159 1.524 . S
C1161 C1158 1.403 . S
C1161 C1162 1.392 . S
C1161 C1165 1.495 . S
C1162 C1161 1.392 . S
C1162 C1163 1.385 . S
C1162 C1164 1.478 . S
C1163 H1157 0.930 . S
C1163 C1159 1.400 . S
C1163 C1162 1.385 . S
C1164 C1162 1.478 . S
C1164 C1166 1.381 . S
C1164 C1170 1.383 . S
C1165 C1161 1.495 . S
C1165 H1171 0.959 . S
C1165 H1172 0.961 . S
C1165 H1173 0.960 . S
C1166 C1164 1.381 . S
C1166 C1167 1.394 . S
C1166 H1174 0.930 . S
C1167 C1166 1.394 . S
C1167 C1168 1.383 . S
C1167 H1175 0.929 . S
C1168 C1167 1.383 . S
C1168 C1169 1.377 . S
C1169 H1153 0.930 . S
C1169 C1168 1.377 . S
C1169 C1170 1.379 . S
C1170 H1154 0.931 . S
C1170 C1164 1.383 . S
C1170 C1169 1.379 . S
H1171 C1165 0.959 . S
H1172 C1165 0.961 . S
H1173 C1165 0.960 . S
H1174 C1166 0.930 . S
H1175 C1167 0.929 . S
H1176 C1184 0.929 . S
H1177 C1186 0.930 . S
H1178 C1188 0.930 . S
H1179 C1191 0.929 1_554 S
H1180 C1194 0.930 . S
H1181 C1196 1.005 . S
H1182 C1196 0.938 1_655 S
H1183 C1196 0.961 . S
C1184 H1176 0.929 . S
C1184 C1185 1.377 . S
C1184 C1186 1.384 . S
C1185 C1184 1.377 . S
C1185 C1191 1.390 . S
C1186 H1177 0.930 . S
C1186 C1184 1.384 . S
C1186 C1187 1.372 . S
C1187 C1186 1.372 . S
C1187 C1188 1.400 . S
C1187 C1192 1.490 . S
C1188 H1178 0.930 . S
C1188 C1187 1.400 . S
C1188 C1191 1.386 . S
H1189 C1205 0.930 . S
H1190 C1206 0.931 . S
C1191 H1179 0.929 1_556 S
C1191 C1185 1.390 . S
C1191 C1188 1.386 . S
C1192 C1187 1.490 . S
C1192 C1194 1.395 . S
C1192 C1195 1.434 . S
H1193 C1199 0.930 . S
C1194 H1180 0.930 . S
C1194 C1192 1.395 . S
C1194 C1197 1.403 . S
C1195 C1192 1.434 . S
C1195 C1196 1.489 1_655 S
C1195 C1199 1.384 1_655 S
C1196 H1181 1.005 . S
C1196 H1182 0.938 1_455 S
C1196 H1183 0.961 . S
C1196 C1195 1.489 1_455 S
C1197 C1194 1.403 . S
C1197 C1198 1.392 1_655 S
C1197 C1201 1.495 . S
C1198 C1197 1.392 1_455 S
C1198 C1199 1.385 . S
C1198 C1200 1.478 . S
C1199 H1193 0.930 . S
C1199 C1195 1.384 1_455 S
C1199 C1198 1.385 . S
C1200 C1198 1.478 . S
C1200 C1202 1.381 . S
C1200 C1206 1.383 . S
C1201 C1197 1.495 . S
C1201 H1207 0.959 . S
C1201 H1208 0.961 1_655 S
C1201 H1209 0.960 . S
C1202 C1200 1.381 . S
C1202 C1203 1.394 . S
C1202 H1210 0.930 . S
C1203 C1202 1.394 . S
C1203 C1204 1.383 . S
C1203 H1211 0.929 . S
C1204 C1203 1.383 . S
C1204 C1205 1.377 . S
C1205 H1189 0.930 . S
C1205 C1204 1.377 . S
C1205 C1206 1.379 . S
C1206 H1190 0.931 . S
C1206 C1200 1.383 . S
C1206 C1205 1.379 . S
H1207 C1201 0.959 . S
H1208 C1201 0.961 1_455 S
H1209 C1201 0.960 . S
H1210 C1202 0.930 . S
H1211 C1203 0.929 . S
H1212 C1220 0.929 . S
H1213 C1222 0.930 . S
H1214 C1224 0.930 . S
H1215 C1227 0.929 . S
H1216 C1230 0.930 . S
H1217 C1232 0.960 . S
H1218 C1232 0.960 . S
H1219 C1232 0.960 . S
C1220 H1212 0.929 . S
C1220 C1221 1.377 . S
C1220 C1222 1.384 . S
C1221 C1220 1.377 . S
C1221 C1227 1.390 . S
C1222 H1213 0.930 . S
C1222 C1220 1.384 . S
C1222 C1223 1.372 . S
C1223 C1222 1.372 . S
C1223 C1224 1.400 . S
C1223 C1228 1.490 . S
C1224 H1214 0.930 . S
C1224 C1223 1.400 . S
C1224 C1227 1.386 . S
H1225 C1241 0.930 . S
H1226 C1242 0.931 . S
C1227 H1215 0.929 . S
C1227 C1221 1.390 . S
C1227 C1224 1.386 . S
C1228 C1223 1.490 . S
C1228 C1230 1.395 1_565 S
C1228 C1231 1.403 1_554 S
H1229 C1235 0.930 . S
C1230 H1216 0.930 . S
C1230 C1228 1.395 1_545 S
C1230 C1233 1.403 . S
C1231 C1228 1.403 1_556 S
C1231 C1232 1.524 . S
C1231 C1235 1.400 . S
C1232 H1217 0.960 . S
C1232 H1218 0.960 . S
C1232 H1219 0.960 . S
C1232 C1231 1.524 . S
C1233 C1230 1.403 . S
C1233 C1234 1.392 1_554 S
C1233 C1237 1.495 . S
C1234 C1233 1.392 1_556 S
C1234 C1235 1.385 1_545 S
C1234 C1236 1.478 . S
C1235 H1229 0.930 . S
C1235 C1231 1.400 . S
C1235 C1234 1.385 1_565 S
C1236 C1234 1.478 . S
C1236 C1238 1.381 . S
C1236 C1242 1.383 . S
C1237 C1233 1.495 . S
C1237 H1243 0.959 . S
C1237 H1244 0.961 . S
C1237 H1245 0.960 . S
C1238 C1236 1.381 . S
C1238 C1239 1.394 . S
C1238 H1246 0.930 . S
C1239 C1238 1.394 . S
C1239 C1240 1.383 . S
C1239 H1247 0.929 . S
C1240 C1239 1.383 . S
C1240 C1241 1.377 . S
C1241 H1225 0.930 . S
C1241 C1240 1.377 . S
C1241 C1242 1.379 . S
C1242 H1226 0.931 . S
C1242 C1236 1.383 . S
C1242 C1241 1.379 . S
H1243 C1237 0.959 . S
H1244 C1237 0.961 . S
H1245 C1237 0.960 . S
H1246 C1238 0.930 . S
H1247 C1239 0.929 . S
H1248 C1256 0.929 . S
H1249 C1258 0.930 . S
H1250 C1260 0.930 . S
H1251 C1263 0.929 1_556 S
H1252 C1266 0.930 . S
H1253 C1268 0.960 . S
H1254 C1268 0.960 . S
H1255 C1268 0.960 . S
C1256 H1248 0.929 . S
C1256 C1257 1.377 . S
C1256 C1258 1.384 . S
C1257 C1256 1.377 . S
C1257 C1263 1.390 . S
C1258 H1249 0.930 . S
C1258 C1256 1.384 . S
C1258 C1259 1.372 . S
C1259 C1258 1.372 . S
C1259 C1260 1.400 . S
C1259 C1264 1.490 . S
C1260 H1250 0.930 . S
C1260 C1259 1.400 . S
C1260 C1263 1.386 . S
H1261 C1277 0.930 . S
H1262 C1278 0.931 . S
C1263 H1251 0.929 1_554 S
C1263 C1257 1.390 . S
C1263 C1260 1.386 . S
C1264 C1259 1.490 . S
C1264 C1266 1.395 . S
C1264 C1267 1.403 . S
H1265 C1271 0.930 . S
C1266 H1252 0.930 . S
C1266 C1264 1.395 . S
C1266 C1269 1.403 . S
C1267 C1264 1.403 . S
C1267 C1268 1.524 . S
C1267 C1271 1.400 . S
C1268 H1253 0.960 . S
C1268 H1254 0.960 . S
C1268 H1255 0.960 . S
C1268 C1267 1.524 . S
C1269 C1266 1.403 . S
C1269 C1270 1.392 . S
C1269 C1273 1.495 . S
C1270 C1269 1.392 . S
C1270 C1271 1.385 . S
C1270 C1272 1.478 . S
C1271 H1265 0.930 . S
C1271 C1267 1.400 . S
C1271 C1270 1.385 . S
C1272 C1270 1.478 . S
C1272 C1274 1.381 . S
C1272 C1278 1.383 . S
C1273 C1269 1.495 . S
C1273 H1279 0.959 . S
C1273 H1280 0.961 . S
C1273 H1281 0.960 . S
C1274 C1272 1.381 . S
C1274 C1275 1.394 . S
C1274 H1282 0.930 . S
C1275 C1274 1.394 . S
C1275 C1276 1.383 . S
C1275 H1283 0.929 . S
C1276 C1275 1.383 . S
C1276 C1277 1.377 . S
C1277 H1261 0.930 . S
C1277 C1276 1.377 . S
C1277 C1278 1.379 . S
C1278 H1262 0.931 . S
C1278 C1272 1.383 . S
C1278 C1277 1.379 . S
H1279 C1273 0.959 . S
H1280 C1273 0.961 . S
H1281 C1273 0.960 . S
H1282 C1274 0.930 . S
H1283 C1275 0.929 . S
H1284 C1292 0.929 . S
H1285 C1294 0.930 . S
H1286 C1296 0.930 . S
H1287 C1299 0.929 . S
H1288 C1302 0.930 . S
H1289 C1304 0.966 . S
H1290 C1304 0.967 . S
H1291 C1304 0.939 1_455 S
C1292 H1284 0.929 . S
C1292 C1293 1.377 . S
C1292 C1294 1.384 . S
C1293 C1292 1.377 . S
C1293 C1299 1.390 . S
C1294 H1285 0.930 . S
C1294 C1292 1.384 . S
C1294 C1295 1.372 . S
C1295 C1294 1.372 . S
C1295 C1296 1.400 . S
C1295 C1300 1.490 . S
C1296 H1286 0.930 . S
C1296 C1295 1.400 . S
C1296 C1299 1.386 . S
H1297 C1313 0.930 . S
H1298 C1314 0.931 . S
C1299 H1287 0.929 . S
C1299 C1293 1.390 . S
C1299 C1296 1.386 . S
C1300 C1295 1.490 . S
C1300 C1302 1.395 . S
C1300 C1303 1.407 . S
H1301 C1307 0.930 . S
C1302 H1288 0.930 . S
C1302 C1300 1.395 . S
C1302 C1305 1.375 1_455 S
C1303 C1300 1.407 . S
C1303 C1304 1.542 1_455 S
C1303 C1307 1.385 1_455 S
C1304 H1289 0.966 . S
C1304 H1290 0.967 . S
C1304 H1291 0.939 1_655 S
C1304 C1303 1.542 1_655 S
C1305 C1302 1.375 1_655 S
C1305 C1306 1.400 . S
C1305 C1309 1.497 . S
C1306 C1305 1.400 . S
C1306 C1307 1.385 . S
C1306 C1308 1.478 . S
C1307 H1301 0.930 . S
C1307 C1303 1.385 1_655 S
C1307 C1306 1.385 . S
C1308 C1306 1.478 . S
C1308 C1310 1.381 . S
C1308 C1314 1.383 . S
C1309 C1305 1.497 . S
C1309 H1315 0.948 1_655 S
C1309 H1316 0.947 1_655 S
C1309 H1317 1.005 . S
C1310 C1308 1.381 . S
C1310 C1311 1.394 . S
C1310 H1318 0.930 . S
C1311 C1310 1.394 . S
C1311 C1312 1.383 . S
C1311 H1319 0.929 . S
C1312 C1311 1.383 . S
C1312 C1313 1.377 . S
C1313 H1297 0.930 . S
C1313 C1312 1.377 . S
C1313 C1314 1.379 . S
C1314 H1298 0.931 . S
C1314 C1308 1.383 . S
C1314 C1313 1.379 . S
H1315 C1309 0.948 1_455 S
H1316 C1309 0.947 1_455 S
H1317 C1309 1.005 . S
H1318 C1310 0.930 . S
H1319 C1311 0.929 . S
H1320 C1328 0.929 . S
H1321 C1330 0.930 . S
H1322 C1332 0.930 . S
H1323 C1335 0.929 . S
H1324 C1338 0.930 . S
H1325 C1340 0.960 . S
H1326 C1340 0.960 . S
H1327 C1340 0.960 . S
C1328 H1320 0.929 . S
C1328 C1329 1.377 . S
C1328 C1330 1.384 . S
C1329 C1328 1.377 . S
C1329 C1335 1.390 . S
C1330 H1321 0.930 . S
C1330 C1328 1.384 . S
C1330 C1331 1.372 . S
C1331 C1330 1.372 . S
C1331 C1332 1.400 . S
C1331 C1336 1.490 . S
C1332 H1322 0.930 . S
C1332 C1331 1.400 . S
C1332 C1335 1.386 . S
H1333 C1349 0.930 . S
H1334 C1350 0.931 . S
C1335 H1323 0.929 . S
C1335 C1329 1.390 . S
C1335 C1332 1.386 . S
C1336 C1331 1.490 . S
C1336 C1338 1.395 1_565 S
C1336 C1339 1.403 . S
H1337 C1343 0.930 . S
C1338 H1324 0.930 . S
C1338 C1336 1.395 1_545 S
C1338 C1341 1.403 . S
C1339 C1336 1.403 . S
C1339 C1340 1.524 . S
C1339 C1343 1.400 . S
C1340 H1325 0.960 . S
C1340 H1326 0.960 . S
C1340 H1327 0.960 . S
C1340 C1339 1.524 . S
C1341 C1338 1.403 . S
C1341 C1342 1.392 . S
C1341 C1345 1.495 . S
C1342 C1341 1.392 . S
C1342 C1343 1.385 1_545 S
C1342 C1344 1.478 . S
C1343 H1337 0.930 . S
C1343 C1339 1.400 . S
C1343 C1342 1.385 1_565 S
C1344 C1342 1.478 . S
C1344 C1346 1.381 . S
C1344 C1350 1.383 . S
C1345 C1341 1.495 . S
C1345 H1351 0.959 . S
C1345 H1352 0.961 . S
C1345 H1353 0.960 . S
C1346 C1344 1.381 . S
C1346 C1347 1.394 . S
C1346 H1354 0.930 . S
C1347 C1346 1.394 . S
C1347 C1348 1.383 . S
C1347 H1355 0.929 . S
C1348 C1347 1.383 . S
C1348 C1349 1.377 . S
C1349 H1333 0.930 . S
C1349 C1348 1.377 . S
C1349 C1350 1.379 . S
C1350 H1334 0.931 . S
C1350 C1344 1.383 . S
C1350 C1349 1.379 . S
H1351 C1345 0.959 . S
H1352 C1345 0.961 . S
H1353 C1345 0.960 . S
H1354 C1346 0.930 . S
H1355 C1347 0.929 . S
H1356 C1364 0.929 . S
H1357 C1366 0.930 . S
H1358 C1368 0.930 . S
H1359 C1371 0.929 . S
H1360 C1374 0.930 . S
H1361 C1376 0.960 . S
H1362 C1376 0.960 . S
H1363 C1376 0.960 . S
C1364 H1356 0.929 . S
C1364 C1365 1.377 . S
C1364 C1366 1.384 . S
C1365 C1364 1.377 . S
C1365 C1371 1.390 . S
C1366 H1357 0.930 . S
C1366 C1364 1.384 . S
C1366 C1367 1.372 . S
C1367 C1366 1.372 . S
C1367 C1368 1.400 . S
C1367 C1372 1.490 . S
C1368 H1358 0.930 . S
C1368 C1367 1.400 . S
C1368 C1371 1.386 . S
H1369 C1385 0.930 . S
H1370 C1386 0.931 . S
C1371 H1359 0.929 . S
C1371 C1365 1.390 . S
C1371 C1368 1.386 . S
C1372 C1367 1.490 . S
C1372 C1374 1.395 . S
C1372 C1375 1.403 . S
H1373 C1379 0.930 . S
C1374 H1360 0.930 . S
C1374 C1372 1.395 . S
C1374 C1377 1.403 . S
C1375 C1372 1.403 . S
C1375 C1376 1.524 . S
C1375 C1379 1.400 . S
C1376 H1361 0.960 . S
C1376 H1362 0.960 . S
C1376 H1363 0.960 . S
C1376 C1375 1.524 . S
C1377 C1374 1.403 . S
C1377 C1378 1.392 . S
C1377 C1381 1.495 . S
C1378 C1377 1.392 . S
C1378 C1379 1.385 . S
C1378 C1380 1.478 . S
C1379 H1373 0.930 . S
C1379 C1375 1.400 . S
C1379 C1378 1.385 . S
C1380 C1378 1.478 . S
C1380 C1382 1.381 . S
C1380 C1386 1.383 . S
C1381 C1377 1.495 . S
C1381 H1387 0.959 . S
C1381 H1388 0.961 . S
C1381 H1389 0.960 . S
C1382 C1380 1.381 . S
C1382 C1383 1.394 . S
C1382 H1390 0.930 . S
C1383 C1382 1.394 . S
C1383 C1384 1.383 . S
C1383 H1391 0.929 . S
C1384 C1383 1.383 . S
C1384 C1385 1.377 . S
C1385 H1369 0.930 . S
C1385 C1384 1.377 . S
C1385 C1386 1.379 . S
C1386 H1370 0.931 . S
C1386 C1380 1.383 . S
C1386 C1385 1.379 . S
H1387 C1381 0.959 . S
H1388 C1381 0.961 . S
H1389 C1381 0.960 . S
H1390 C1382 0.930 . S
H1391 C1383 0.929 . S
H1392 C1400 0.929 . S
H1393 C1402 0.930 . S
H1394 C1404 0.930 . S
H1395 C1407 0.929 . S
H1396 C1410 0.930 . S
H1397 C1412 0.960 . S
H1398 C1412 0.960 . S
H1399 C1412 0.960 . S
C1400 H1392 0.929 . S
C1400 C1401 1.377 . S
C1400 C1402 1.384 . S
C1401 C1400 1.377 . S
C1401 C1407 1.390 . S
C1402 H1393 0.930 . S
C1402 C1400 1.384 . S
C1402 C1403 1.372 . S
C1403 C1402 1.372 . S
C1403 C1404 1.400 . S
C1403 C1408 1.490 . S
C1404 H1394 0.930 . S
C1404 C1403 1.400 . S
C1404 C1407 1.386 . S
H1405 C1421 0.930 . S
H1406 C1422 0.931 . S
C1407 H1395 0.929 . S
C1407 C1401 1.390 . S
C1407 C1404 1.386 . S
C1408 C1403 1.490 . S
C1408 C1410 1.395 . S
C1408 C1411 1.403 . S
H1409 C1415 0.930 . S
C1410 H1396 0.930 . S
C1410 C1408 1.395 . S
C1410 C1413 1.403 . S
C1411 C1408 1.403 . S
C1411 C1412 1.524 . S
C1411 C1415 1.400 . S
C1412 H1397 0.960 . S
C1412 H1398 0.960 . S
C1412 H1399 0.960 . S
C1412 C1411 1.524 . S
C1413 C1410 1.403 . S
C1413 C1414 1.392 . S
C1413 C1417 1.495 . S
C1414 C1413 1.392 . S
C1414 C1415 1.385 . S
C1414 C1416 1.478 . S
C1415 H1409 0.930 . S
C1415 C1411 1.400 . S
C1415 C1414 1.385 . S
C1416 C1414 1.478 . S
C1416 C1418 1.381 . S
C1416 C1422 1.383 . S
C1417 C1413 1.495 . S
C1417 H1423 0.959 . S
C1417 H1424 0.961 . S
C1417 H1425 0.960 . S
C1418 C1416 1.381 . S
C1418 C1419 1.394 . S
C1418 H1426 0.930 . S
C1419 C1418 1.394 . S
C1419 C1420 1.383 . S
C1419 H1427 0.929 . S
C1420 C1419 1.383 . S
C1420 C1421 1.377 . S
C1421 H1405 0.930 . S
C1421 C1420 1.377 . S
C1421 C1422 1.379 . S
C1422 H1406 0.931 . S
C1422 C1416 1.383 . S
C1422 C1421 1.379 . S
H1423 C1417 0.959 . S
H1424 C1417 0.961 . S
H1425 C1417 0.960 . S
H1426 C1418 0.930 . S
H1427 C1419 0.929 . S
H1428 C1436 0.929 . S
H1429 C1438 0.930 . S
H1430 C1440 0.930 1_554 S
H1431 C1443 0.929 . S
H1432 C1446 0.930 . S
H1433 C1448 0.960 . S
H1434 C1448 0.960 . S
H1435 C1448 0.960 . S
C1436 H1428 0.929 . S
C1436 C1437 1.377 1_556 S
C1436 C1438 1.384 . S
C1437 C1436 1.377 1_554 S
C1437 C1443 1.390 . S
C1438 H1429 0.930 . S
C1438 C1436 1.384 . S
C1438 C1439 1.372 . S
C1439 C1438 1.372 . S
C1439 C1440 1.400 . S
C1439 C1444 1.490 . S
C1440 H1430 0.930 1_556 S
C1440 C1439 1.400 . S
C1440 C1443 1.386 1_556 S
H1441 C1457 0.930 . S
H1442 C1458 0.931 . S
C1443 H1431 0.929 . S
C1443 C1437 1.390 . S
C1443 C1440 1.386 1_554 S
C1444 C1439 1.490 . S
C1444 C1446 1.395 . S
C1444 C1447 1.403 . S
H1445 C1451 0.930 . S
C1446 H1432 0.930 . S
C1446 C1444 1.395 . S
C1446 C1449 1.403 . S
C1447 C1444 1.403 . S
C1447 C1448 1.524 . S
C1447 C1451 1.400 . S
C1448 H1433 0.960 . S
C1448 H1434 0.960 . S
C1448 H1435 0.960 . S
C1448 C1447 1.524 . S
C1449 C1446 1.403 . S
C1449 C1450 1.392 . S
C1449 C1453 1.495 . S
C1450 C1449 1.392 . S
C1450 C1451 1.385 . S
C1450 C1452 1.478 . S
C1451 H1445 0.930 . S
C1451 C1447 1.400 . S
C1451 C1450 1.385 . S
C1452 C1450 1.478 . S
C1452 C1454 1.381 . S
C1452 C1458 1.383 . S
C1453 C1449 1.495 . S
C1453 H1459 0.959 . S
C1453 H1460 0.961 . S
C1453 H1461 0.960 . S
C1454 C1452 1.381 . S
C1454 C1455 1.394 . S
C1454 H1462 0.930 . S
C1455 C1454 1.394 . S
C1455 C1456 1.383 . S
C1455 H1463 0.929 . S
C1456 C1455 1.383 . S
C1456 C1457 1.377 . S
C1457 H1441 0.930 . S
C1457 C1456 1.377 . S
C1457 C1458 1.379 . S
C1458 H1442 0.931 . S
C1458 C1452 1.383 . S
C1458 C1457 1.379 . S
H1459 C1453 0.959 . S
H1460 C1453 0.961 . S
H1461 C1453 0.960 . S
H1462 C1454 0.930 . S
H1463 C1455 0.929 . S
H1464 C1472 0.929 . S
H1465 C1474 0.930 . S
H1466 C1476 0.930 . S
H1467 C1479 0.929 . S
H1468 C1482 0.930 . S
H1469 C1484 0.960 . S
H1470 C1484 0.960 . S
H1471 C1484 0.960 . S
C1472 H1464 0.929 . S
C1472 C1473 1.377 . S
C1472 C1474 1.384 . S
C1473 C1472 1.377 . S
C1473 C1479 1.390 . S
C1474 H1465 0.930 . S
C1474 C1472 1.384 . S
C1474 C1475 1.372 . S
C1475 C1474 1.372 . S
C1475 C1476 1.400 . S
C1475 C1480 1.490 . S
C1476 H1466 0.930 . S
C1476 C1475 1.400 . S
C1476 C1479 1.386 . S
H1477 C1493 0.930 . S
H1478 C1494 0.931 . S
C1479 H1467 0.929 . S
C1479 C1473 1.390 . S
C1479 C1476 1.386 . S
C1480 C1475 1.490 . S
C1480 C1482 1.395 . S
C1480 C1483 1.403 . S
H1481 C1487 0.930 . S
C1482 H1468 0.930 . S
C1482 C1480 1.395 . S
C1482 C1485 1.403 . S
C1483 C1480 1.403 . S
C1483 C1484 1.524 . S
C1483 C1487 1.400 . S
C1484 H1469 0.960 . S
C1484 H1470 0.960 . S
C1484 H1471 0.960 . S
C1484 C1483 1.524 . S
C1485 C1482 1.403 . S
C1485 C1486 1.392 . S
C1485 C1489 1.495 . S
C1486 C1485 1.392 . S
C1486 C1487 1.385 . S
C1486 C1488 1.478 . S
C1487 H1481 0.930 . S
C1487 C1483 1.400 . S
C1487 C1486 1.385 . S
C1488 C1486 1.478 . S
C1488 C1490 1.381 . S
C1488 C1494 1.383 . S
C1489 C1485 1.495 . S
C1489 H1495 0.959 1_554 S
C1489 H1496 0.961 1_554 S
C1489 H1497 0.960 . S
C1490 C1488 1.381 . S
C1490 C1491 1.394 . S
C1490 H1498 0.930 . S
C1491 C1490 1.394 . S
C1491 C1492 1.383 1_554 S
C1491 H1499 0.929 . S
C1492 C1491 1.383 1_556 S
C1492 C1493 1.377 . S
C1493 H1477 0.930 . S
C1493 C1492 1.377 . S
C1493 C1494 1.379 1_556 S
C1494 H1478 0.931 . S
C1494 C1488 1.383 . S
C1494 C1493 1.379 1_554 S
H1495 C1489 0.959 1_556 S
H1496 C1489 0.961 1_556 S
H1497 C1489 0.960 . S
H1498 C1490 0.930 . S
H1499 C1491 0.929 . S
H1500 C1508 0.929 . S
H1501 C1510 0.930 . S
H1502 C1512 0.930 . S
H1503 C1515 0.929 . S
H1504 C1518 0.930 . S
H1505 C1520 0.960 . S
H1506 C1520 0.960 . S
H1507 C1520 0.960 . S
C1508 H1500 0.929 . S
C1508 C1509 1.377 . S
C1508 C1510 1.384 . S
C1509 C1508 1.377 . S
C1509 C1515 1.390 . S
C1510 H1501 0.930 . S
C1510 C1508 1.384 . S
C1510 C1511 1.372 . S
C1511 C1510 1.372 . S
C1511 C1512 1.400 . S
C1511 C1516 1.490 . S
C1512 H1502 0.930 . S
C1512 C1511 1.400 . S
C1512 C1515 1.386 . S
H1513 C1529 0.930 . S
H1514 C1530 0.931 . S
C1515 H1503 0.929 . S
C1515 C1509 1.390 . S
C1515 C1512 1.386 . S
C1516 C1511 1.490 . S
C1516 C1518 1.395 . S
C1516 C1519 1.403 . S
H1517 C1523 0.930 . S
C1518 H1504 0.930 . S
C1518 C1516 1.395 . S
C1518 C1521 1.403 . S
C1519 C1516 1.403 . S
C1519 C1520 1.524 . S
C1519 C1523 1.400 . S
C1520 H1505 0.960 . S
C1520 H1506 0.960 . S
C1520 H1507 0.960 . S
C1520 C1519 1.524 . S
C1521 C1518 1.403 . S
C1521 C1522 1.392 . S
C1521 C1525 1.495 . S
C1522 C1521 1.392 . S
C1522 C1523 1.385 . S
C1522 C1524 1.478 . S
C1523 H1517 0.930 . S
C1523 C1519 1.400 . S
C1523 C1522 1.385 . S
C1524 C1522 1.478 . S
C1524 C1526 1.381 . S
C1524 C1530 1.383 . S
C1525 C1521 1.495 . S
C1525 H1531 0.959 . S
C1525 H1532 0.961 . S
C1525 H1533 0.960 . S
C1526 C1524 1.381 . S
C1526 C1527 1.394 . S
C1526 H1534 0.930 . S
C1527 C1526 1.394 . S
C1527 C1528 1.383 . S
C1527 H1535 0.929 . S
C1528 C1527 1.383 . S
C1528 C1529 1.377 . S
C1529 H1513 0.930 . S
C1529 C1528 1.377 . S
C1529 C1530 1.379 . S
C1530 H1514 0.931 . S
C1530 C1524 1.383 . S
C1530 C1529 1.379 . S
H1531 C1525 0.959 . S
H1532 C1525 0.961 . S
H1533 C1525 0.960 . S
H1534 C1526 0.930 . S
H1535 C1527 0.929 . S
H1536 C1544 0.929 . S
H1537 C1546 0.930 . S
H1538 C1548 0.930 . S
H1539 C1551 0.929 . S
H1540 C1554 0.930 . S
H1541 C1556 0.960 . S
H1542 C1556 0.960 . S
H1543 C1556 0.960 . S
C1544 H1536 0.929 . S
C1544 C1545 1.377 . S
C1544 C1546 1.384 . S
C1545 C1544 1.377 . S
C1545 C1551 1.390 . S
C1546 H1537 0.930 . S
C1546 C1544 1.384 . S
C1546 C1547 1.372 . S
C1547 C1546 1.372 . S
C1547 C1548 1.400 . S
C1547 C1552 1.490 . S
C1548 H1538 0.930 . S
C1548 C1547 1.400 . S
C1548 C1551 1.386 . S
H1549 C1565 0.930 . S
H1550 C1566 0.931 . S
C1551 H1539 0.929 . S
C1551 C1545 1.390 . S
C1551 C1548 1.386 . S
C1552 C1547 1.490 . S
C1552 C1554 1.395 . S
C1552 C1555 1.403 . S
H1553 C1559 0.930 . S
C1554 H1540 0.930 . S
C1554 C1552 1.395 . S
C1554 C1557 1.403 . S
C1555 C1552 1.403 . S
C1555 C1556 1.524 . S
C1555 C1559 1.400 . S
C1556 H1541 0.960 . S
C1556 H1542 0.960 . S
C1556 H1543 0.960 . S
C1556 C1555 1.524 . S
C1557 C1554 1.403 . S
C1557 C1558 1.392 . S
C1557 C1561 1.495 . S
C1558 C1557 1.392 . S
C1558 C1559 1.385 . S
C1558 C1560 1.478 . S
C1559 H1553 0.930 . S
C1559 C1555 1.400 . S
C1559 C1558 1.385 . S
C1560 C1558 1.478 . S
C1560 C1562 1.381 . S
C1560 C1566 1.383 . S
C1561 C1557 1.495 . S
C1561 H1567 0.959 . S
C1561 H1568 0.961 . S
C1561 H1569 0.960 . S
C1562 C1560 1.381 . S
C1562 C1563 1.394 . S
C1562 H1570 0.930 . S
C1563 C1562 1.394 . S
C1563 C1564 1.383 . S
C1563 H1571 0.929 . S
C1564 C1563 1.383 . S
C1564 C1565 1.377 . S
C1565 H1549 0.930 . S
C1565 C1564 1.377 . S
C1565 C1566 1.379 . S
C1566 H1550 0.931 . S
C1566 C1560 1.383 . S
C1566 C1565 1.379 . S
H1567 C1561 0.959 . S
H1568 C1561 0.961 . S
H1569 C1561 0.960 . S
H1570 C1562 0.930 . S
H1571 C1563 0.929 . S
C717 C583 2.138 1_554 S
C736 C52 2.137 . S
C753 C111 2.137 . S
C772 C642 2.128 . S
C789 C701 2.136 . S
C808 C170 2.137 . S
C825 C406 2.137 . S
C844 C229 2.138 . S
C861 C465 2.136 . S
C880 C288 2.135 1_556 S
C897 C524 2.136 . S
C916 C347 2.136 . S
C933 C387 1.557 . S
C952 C33 1.527 . S
C969 C92 1.556 . S
C988 C446 1.533 . S
C1005 C505 1.548 . S
C1024 C151 1.572 . S
C1041 C210 1.554 . S
C1060 C564 1.549 . S
C1077 C623 1.555 . S
C1096 C269 1.523 . S
C1113 C328 1.553 . S
C1132 C682 1.556 . S
C1149 C534 0.944 . S
C1168 C3 0.926 . S
C1185 C593 0.947 . S
C1204 C62 0.906 . S
C1221 C652 0.934 . S
C1240 C121 0.963 . S
C1257 C180 0.946 . S
C1276 C357 0.911 . S
C1293 C416 0.937 . S
C1312 C239 0.958 . S
C1329 C298 0.936 . S
C1348 C475 0.951 . S
C1365 C5 1.140 . S
C1384 C477 1.126 . S
C1401 C536 1.141 . S
C1420 C64 1.149 . S
C1437 C595 1.139 . S
C1456 C123 1.133 . S
C1473 C654 1.144 . S
C1492 C182 1.151 . S
C1509 C359 1.140 . S
C1528 C241 1.142 . S
C1545 C418 1.142 . S
C1564 C300 1.150 . S
