# Generated by pormake.
# Topology bcg, (8)-cn, num edge types: 1
# Building blocks:
#     Node 0, Type 0, BuildingBlock: EBIMEJ_clean_sbu_0, # of connection points: 8
#     Node 1, Type 0, BuildingBlock: EBIMEJ_clean_sbu_0, # of connection points: 8
#     Node 2, Type 0, BuildingBlock: EBIMEJ_clean_sbu_0, # of connection points: 8
#     Node 3, Type 0, BuildingBlock: EBIMEJ_clean_sbu_0, # of connection points: 8
#     Edge 4, Type (0, 0), BuildingBlock: XUDNAN_clean_linker_2, # of connection points: 2
#     Edge 5, Type (0, 0), BuildingBlock: XUDNAN_clean_linker_2, # of connection points: 2
#     Edge 6, Type (0, 0), BuildingBlock: XUDNAN_clean_linker_2, # of connection points: 2
#     Edge 7, Type (0, 0), BuildingBlock: XUDNAN_clean_linker_2, # of connection points: 2
#     Edge 8, Type (0, 0), BuildingBlock: XUDNAN_clean_linker_2, # of connection points: 2
#     Edge 9, Type (0, 0), BuildingBlock: XUDNAN_clean_linker_2, # of connection points: 2
#     Edge 10, Type (0, 0), BuildingBlock: XUDNAN_clean_linker_2, # of connection points: 2
#     Edge 11, Type (0, 0), BuildingBlock: XUDNAN_clean_linker_2, # of connection points: 2
#     Edge 12, Type (0, 0), BuildingBlock: XUDNAN_clean_linker_2, # of connection points: 2
#     Edge 13, Type (0, 0), BuildingBlock: XUDNAN_clean_linker_2, # of connection points: 2
#     Edge 14, Type (0, 0), BuildingBlock: XUDNAN_clean_linker_2, # of connection points: 2
#     Edge 15, Type (0, 0), BuildingBlock: XUDNAN_clean_linker_2, # of connection points: 2
#     Edge 16, Type (0, 0), BuildingBlock: XUDNAN_clean_linker_2, # of connection points: 2
#     Edge 17, Type (0, 0), BuildingBlock: XUDNAN_clean_linker_2, # of connection points: 2
#     Edge 18, Type (0, 0), BuildingBlock: XUDNAN_clean_linker_2, # of connection points: 2
#     Edge 19, Type (0, 0), BuildingBlock: XUDNAN_clean_linker_2, # of connection points: 2
# Relax obj value: 0.041
# Max RMSD: 0.091
# Mean RMSD: 0.091
data_MOF--net-bcg--node1-EBIMEJ_clean_sbu_0--edge1-XUDNAN_clean_linker_2
_symmetry_space_group_name_H-M    P1
_symmetry_Int_Tables_number       1
_symmetry_cell_setting            triclinic
loop_
_symmetry_equiv_pos_as_xyz
'x, y, z'
_cell_length_a     16.764833
_cell_length_b     28.164453
_cell_length_c     34.321948
_cell_angle_alpha  81.942983
_cell_angle_beta   89.922925
_cell_angle_gamma 89.955165
loop_
_atom_site_label
_atom_site_type_symbol
_atom_site_fract_x
_atom_site_fract_y
_atom_site_fract_z
_atom_type_partial_charge
Co0 Co 0.16678 0.24983 0.94318 0.0
Co1 Co 0.32513 0.25096 0.99829 0.0
Co2 Co 0.1653 0.2502 0.03722 0.0
H3 H 0.18343 0.25816 0.99091 0.0
O4 O 0.22012 0.27941 0.98555 0.0
H5 H 0.30737 0.24183 0.04414 0.0
O6 O 0.27002 0.22092 0.04951 0.0
Co7 Co 0.33023 0.24896 0.09112 0.0
O8 O 0.44399 0.25655 0.06884 0.0
O9 O 0.42958 0.22334 1.01415 0.0
O10 O 0.23724 0.22581 0.12752 0.0
O11 O 0.12395 0.23042 0.09203 0.0
O12 O 0.1729 0.22142 0.89112 0.0
O13 O 0.08 0.26715 0.90026 0.0
O14 O 0.32128 0.31924 0.07202 0.0
O15 O 0.36043 0.31686 1.01047 0.0
C16 C 0.02927 0.28961 0.98923 0.0
C17 C 0.33768 0.26482 0.91059 0.0
C18 C 0.39167 0.2376 0.15807 0.0
C19 C 0.13864 0.16183 0.99601 0.0
C20 C 0.47343 0.24127 0.03855 0.0
C21 C 0.16153 0.22217 0.12475 0.0
C22 C 0.11074 0.2418 0.87685 0.0
C23 C 0.34902 0.33999 0.03963 0.0
O24 O 0.06179 0.28031 0.95735 0.0
O25 O 0.06252 0.28062 0.02279 0.0
O26 O 0.36798 0.27001 0.94395 0.0
O27 O 0.26395 0.25539 0.90636 0.0
O28 O 0.37789 0.2777 0.13828 0.0
O29 O 0.3703 0.20397 0.13987 0.0
O30 O 0.17564 0.18058 0.96547 0.0
O31 O 0.12299 0.18625 0.02393 0.0
Co32 Co 0.67136 0.73169 0.94223 0.0
Co33 Co 0.83029 0.74799 0.99686 0.0
Co34 Co 0.66789 0.75294 0.03139 0.0
H35 H 0.68854 0.75057 0.98643 0.0
O36 O 0.72492 0.77121 0.9786 0.0
H37 H 0.80906 0.74938 0.04241 0.0
O38 O 0.7727 0.72838 0.0497 0.0
Co39 Co 0.82417 0.76742 0.08741 0.0
O40 O 0.93911 0.76786 0.06837 0.0
O41 O 0.9368 0.72714 0.01698 0.0
O42 O 0.72265 0.76427 0.12196 0.0
O43 O 0.62193 0.74311 0.0851 0.0
O44 O 0.58322 0.71976 0.90267 0.0
O45 O 0.69023 0.75132 0.88273 0.0
O46 O 0.84418 0.83467 0.05991 0.0
O47 O 0.86054 0.8174 0.99884 0.0
C48 C 0.52948 0.77689 0.97927 0.0
C49 C 0.84681 0.73147 0.91572 0.0
C50 C 0.87621 0.75895 0.15653 0.0
C51 C 0.62277 0.65504 1.00397 0.0
C52 C 0.97468 0.74796 0.04196 0.0
C53 C 0.64992 0.75194 0.11782 0.0
C54 C 0.62322 0.7369 0.87306 0.0
C55 C 0.86269 0.84712 0.02394 0.0
O56 O 0.55963 0.75744 0.95117 0.0
O57 O 0.56547 0.77934 1.01152 0.0
O58 O 0.87318 0.75567 0.94187 0.0
O59 O 0.77658 0.71332 0.91742 0.0
O60 O 0.91291 0.77968 0.12707 0.0
O61 O 0.81038 0.743 0.1467 0.0
O62 O 0.64192 0.6659 0.9681 0.0
O63 O 0.63001 0.68499 0.02863 0.0
Co64 Co 0.17099 0.75794 0.59145 0.0
Co65 Co 0.32558 0.75776 0.53148 0.0
Co66 Co 0.16196 0.75185 0.49892 0.0
H67 H 0.18577 0.74708 0.54431 0.0
O68 O 0.22454 0.72715 0.54933 0.0
H69 H 0.30364 0.75745 0.48623 0.0
O70 O 0.26571 0.77759 0.47981 0.0
Co71 Co 0.32055 0.74211 0.44062 0.0
O72 O 0.43404 0.763 0.45275 0.0
O73 O 0.42474 0.78896 0.51154 0.0
O74 O 0.21684 0.74934 0.40794 0.0
O75 O 0.11384 0.76646 0.44582 0.0
O76 O 0.14081 0.77957 0.64491 0.0
O77 O 0.1204 0.70957 0.63557 0.0
O78 O 0.35377 0.67563 0.46436 0.0
O79 O 0.37025 0.69232 0.52534 0.0
C80 C 0.01959 0.74738 0.54563 0.0
C81 C 0.3448 0.7465 0.61953 0.0
C82 C 0.36942 0.73802 0.3724 0.0
C83 C 0.14936 0.8454 0.53496 0.0
C84 C 0.46306 0.78384 0.48037 0.0
C85 C 0.14344 0.76015 0.41256 0.0
C86 C 0.11408 0.73935 0.6595 0.0
C87 C 0.37688 0.66376 0.49958 0.0
O88 O 0.05569 0.76504 0.57301 0.0
O89 O 0.05733 0.72787 0.5198 0.0
O90 O 0.37371 0.74698 0.58501 0.0
O91 O 0.27033 0.75072 0.62611 0.0
O92 O 0.30854 0.71653 0.38733 0.0
O93 O 0.40193 0.76218 0.39606 0.0
O94 O 0.18018 0.82683 0.56736 0.0
O95 O 0.13237 0.81991 0.50792 0.0
Co96 Co 0.67037 0.26629 0.58777 0.0
Co97 Co 0.82765 0.25648 0.53243 0.0
Co98 Co 0.66676 0.25606 0.49552 0.0
H99 H 0.68628 0.2522 0.54154 0.0
O100 O 0.72203 0.23056 0.54805 0.0
H101 H 0.8092 0.25567 0.4869 0.0
O102 O 0.77445 0.27738 0.47896 0.0
Co103 Co 0.82747 0.23683 0.44272 0.0
O104 O 0.93396 0.26934 0.4518 0.0
O105 O 0.93046 0.28403 0.51454 0.0
O106 O 0.72327 0.23 0.41288 0.0
O107 O 0.62626 0.26948 0.44045 0.0
O108 O 0.58068 0.28204 0.62613 0.0
O109 O 0.67176 0.23548 0.64612 0.0
O110 O 0.84944 0.16975 0.4686 0.0
O111 O 0.86905 0.18969 0.52828 0.0
C112 C 0.52065 0.25548 0.53984 0.0
C113 C 0.84043 0.25104 0.62031 0.0
C114 C 0.89012 0.22055 0.37955 0.0
C115 C 0.65977 0.35085 0.52915 0.0
C116 C 0.96463 0.28599 0.48121 0.0
C117 C 0.65369 0.24884 0.41229 0.0
C118 C 0.6095 0.25605 0.65545 0.0
C119 C 0.87286 0.15933 0.50385 0.0
O120 O 0.55629 0.27237 0.56775 0.0
O121 O 0.55835 0.23621 0.51379 0.0
O122 O 0.87039 0.24469 0.58718 0.0
O123 O 0.76713 0.26179 0.62441 0.0
O124 O 0.89994 0.19547 0.41243 0.0
O125 O 0.84383 0.25512 0.38228 0.0
O126 O 0.69535 0.33214 0.56017 0.0
O127 O 0.63931 0.32516 0.50278 0.0
H128 H 0.60503 0.25822 0.08278 0.0
H129 H 0.51938 0.26485 0.96309 0.0
H130 H 0.64831 0.2956 0.93759 0.0
H131 H 0.73816 0.36709 0.06258 0.0
H132 H 0.81414 0.34009 0.09566 0.0
H133 H 0.71056 0.32568 0.10536 0.0
H134 H 0.74164 0.23507 0.10756 0.0
H135 H 0.84501 0.24937 0.09885 0.0
H136 H 0.79253 0.21489 0.06655 0.0
H137 H 0.78778 0.31496 0.92436 0.0
H138 H 0.93433 0.31296 0.92442 0.0
H139 H 0.93287 0.29698 0.05224 0.0
C140 C 0.61366 0.26658 0.05129 0.0
C141 C 0.553 0.25791 0.0248 0.0
C142 C 0.56597 0.26944 0.9838 0.0
C143 C 0.63847 0.28812 0.96903 0.0
C144 C 0.6975 0.29578 0.9957 0.0
C145 C 0.68641 0.28523 0.03596 0.0
C146 C 0.76305 0.29164 0.0578 0.0
C147 C 0.75603 0.33364 0.08176 0.0
C148 C 0.78696 0.24496 0.08419 0.0
C149 C 0.8196 0.3037 0.02333 0.0
C150 C 0.77984 0.30768 0.98783 0.0
C151 C 0.81985 0.31304 0.95188 0.0
C152 C 0.90316 0.31176 0.9522 0.0
C153 C 0.94504 0.30455 0.9883 0.0
C154 C 0.90264 0.30309 0.02412 0.0
H155 H 0.07801 0.70997 0.99212 0.0
H156 H 0.06069 0.81586 0.07261 0.0
H157 H 0.19338 0.84616 0.05216 0.0
H158 H 0.2782 0.68051 1.01179 0.0
H159 H 0.30279 0.6725 0.96197 0.0
H160 H 0.20215 0.66327 0.97941 0.0
H161 H 0.15334 0.72528 0.92109 0.0
H162 H 0.25464 0.73562 0.90426 0.0
H163 H 0.19377 0.78513 0.91461 0.0
H164 H 0.32764 0.86233 0.02736 0.0
H165 H 0.4684 0.85196 1.01039 0.0
H166 H 0.40405 0.73515 0.94661 0.0
C167 C 0.10229 0.73947 1.00545 0.0
C168 C 0.05885 0.76048 0.03392 0.0
C169 C 0.09285 0.79882 0.05093 0.0
C170 C 0.16766 0.81699 0.03897 0.0
C171 C 0.20789 0.79641 1.0101 0.0
C172 C 0.17749 0.75786 0.99412 0.0
C173 C 0.23745 0.73889 0.96707 0.0
C174 C 0.25629 0.68567 0.98092 0.0
C175 C 0.20803 0.7467 0.92422 0.0
C176 C 0.30793 0.771 0.97244 0.0
C177 C 0.28802 0.80519 0.99608 0.0
C178 C 0.34402 0.83624 1.00842 0.0
C179 C 0.42368 0.83012 0.99861 0.0
C180 C 0.44632 0.79284 0.97723 0.0
C181 C 0.38757 0.76462 0.96216 0.0
H182 H 0.58641 0.73413 0.45403 0.0
H183 H 0.52924 0.8596 0.50883 0.0
H184 H 0.67046 0.86742 0.52655 0.0
H185 H 0.70679 0.68286 0.52492 0.0
H186 H 0.78076 0.6588 0.49492 0.0
H187 H 0.68079 0.66907 0.47679 0.0
H188 H 0.73241 0.7239 0.41485 0.0
H189 H 0.83298 0.7119 0.432 0.0
H190 H 0.79853 0.77288 0.4206 0.0
H191 H 0.80695 0.85205 0.55042 0.0
H192 H 0.94004 0.82161 0.57084 0.0
H193 H 0.91158 0.70552 0.50089 0.0
C194 C 0.60467 0.7647 0.46781 0.0
C195 C 0.54776 0.79663 0.47976 0.0
C196 C 0.57258 0.83513 0.49922 0.0
C197 C 0.65247 0.83978 0.50944 0.0
C198 C 0.70645 0.80575 0.49976 0.0
C199 C 0.68436 0.76957 0.47854 0.0
C200 C 0.75222 0.73452 0.47608 0.0
C201 C 0.72868 0.68331 0.49427 0.0
C202 C 0.78072 0.73592 0.43334 0.0
C203 C 0.81413 0.75541 0.50086 0.0
C204 C 0.78652 0.79664 0.51393 0.0
C205 C 0.83008 0.82038 0.53974 0.0
C206 C 0.90508 0.8023 0.55168 0.0
C207 C 0.93587 0.76099 0.53762 0.0
C208 C 0.88949 0.73718 0.51204 0.0
H209 H 0.08963 0.2476 0.44593 0.0
H210 H 0.02488 0.35893 0.51544 0.0
H211 H 0.16592 0.36869 0.53228 0.0
H212 H 0.21455 0.19006 0.50906 0.0
H213 H 0.29058 0.17429 0.47595 0.0
H214 H 0.19012 0.18476 0.45869 0.0
H215 H 0.23759 0.25031 0.40303 0.0
H216 H 0.33911 0.23882 0.41897 0.0
H217 H 0.29919 0.29874 0.41485 0.0
H218 H 0.30182 0.3522 0.55526 0.0
H219 H 0.43555 0.32149 0.57348 0.0
H220 H 0.41634 0.22068 0.48889 0.0
C221 C 0.10609 0.27597 0.46266 0.0
C222 C 0.04724 0.30284 0.47921 0.0
C223 C 0.06975 0.33839 0.50233 0.0
C224 C 0.14955 0.34409 0.51209 0.0
C225 C 0.20575 0.3143 0.49806 0.0
C226 C 0.18583 0.28191 0.47284 0.0
C227 C 0.25621 0.25017 0.46616 0.0
C228 C 0.23662 0.19669 0.47821 0.0
C229 C 0.28472 0.26012 0.4232 0.0
C230 C 0.31643 0.26756 0.49374 0.0
C231 C 0.28621 0.3049 0.51142 0.0
C232 C 0.32731 0.324 0.54076 0.0
C233 C 0.40277 0.30568 0.55135 0.0
C234 C 0.4365 0.26867 0.53253 0.0
C235 C 0.3923 0.24917 0.50358 0.0
H236 H 0.59383 0.58104 0.9602 0.0
H237 H 0.56127 0.62172 0.07674 0.0
H238 H 0.48549 0.5474 0.09671 0.0
H239 H 0.40077 0.52921 0.95242 0.0
H240 H 0.43478 0.48057 0.92765 0.0
H241 H 0.48897 0.53634 0.92206 0.0
H242 H 0.61827 0.49114 0.9462 0.0
H243 H 0.56467 0.43519 0.9514 0.0
H244 H 0.61809 0.45243 0.99273 0.0
H245 H 0.40744 0.47159 0.10348 0.0
H246 H 0.34323 0.39432 0.09945 0.0
H247 H 0.42831 0.39874 0.97928 0.0
C248 C 0.57162 0.57413 0.99009 0.0
C249 C 0.58395 0.60764 0.01687 0.0
C250 C 0.55321 0.59695 0.05561 0.0
C251 C 0.50962 0.55479 0.06723 0.0
C252 C 0.4973 0.52321 0.03995 0.0
C253 C 0.52821 0.53187 1.00235 0.0
C254 C 0.50616 0.49156 0.97901 0.0
C255 C 0.45462 0.51057 0.94316 0.0
C256 C 0.58128 0.46607 0.96662 0.0
C257 C 0.45802 0.45896 1.00944 0.0
C258 C 0.45325 0.47841 0.04418 0.0
C259 C 0.41119 0.45588 0.07651 0.0
C260 C 0.37446 0.41183 0.07375 0.0
C261 C 0.38021 0.38988 0.039 0.0
C262 C 0.42215 0.41435 1.00622 0.0
H263 H 0.58225 0.41118 0.46865 0.0
H264 H 0.6615 0.40333 0.58998 0.0
H265 H 0.59568 0.47967 0.59509 0.0
H266 H 0.61027 0.54299 0.44609 0.0
H267 H 0.5246 0.55125 0.41419 0.0
H268 H 0.57949 0.49567 0.41909 0.0
H269 H 0.44938 0.44898 0.43902 0.0
H270 H 0.39428 0.50441 0.43468 0.0
H271 H 0.39198 0.46368 0.48016 0.0
H272 H 0.51568 0.55407 0.5898 0.0
H273 H 0.43768 0.62777 0.57163 0.0
H274 H 0.41275 0.59323 0.45271 0.0
C275 C 0.58677 0.4259 0.49605 0.0
C276 C 0.62778 0.40064 0.5288 0.0
C277 C 0.63152 0.42149 0.56417 0.0
C278 C 0.59371 0.46502 0.56759 0.0
C279 C 0.55292 0.48843 0.53526 0.0
C280 C 0.55029 0.47034 0.49987 0.0
C281 C 0.50345 0.50413 0.46962 0.0
C282 C 0.55767 0.52472 0.4352 0.0
C283 C 0.43042 0.47877 0.45503 0.0
C284 C 0.47868 0.543 0.49402 0.0
C285 C 0.50799 0.53289 0.53182 0.0
C286 C 0.49297 0.56269 0.56015 0.0
C287 C 0.44815 0.60456 0.54951 0.0
C288 C 0.41864 0.6168 0.51069 0.0
C289 C 0.43394 0.58511 0.48269 0.0
H290 H 0.05175 0.10359 0.05431 0.0
H291 H 0.1469 0.10824 0.9359 0.0
H292 H 0.08246 0.03166 0.9301 0.0
H293 H 0.07676 0.97325 0.08084 0.0
H294 H 0.98631 0.96605 0.10949 0.0
H295 H 0.04041 0.02181 0.10509 0.0
H296 H 0.91279 0.06743 0.07909 0.0
H297 H 0.85863 0.01172 0.08297 0.0
H298 H 0.86266 0.05067 0.03662 0.0
H299 H 0.00403 0.95656 0.93463 0.0
H300 H 0.92773 0.88214 0.95247 0.0
H301 H 0.88512 0.92108 0.06887 0.0
C302 C 0.05966 0.08826 0.02735 0.0
C303 C 0.1048 0.11263 0.99561 0.0
C304 C 0.11319 0.0909 0.96085 0.0
C305 C 0.07634 0.04721 0.95705 0.0
C306 C 0.03139 0.0247 0.98835 0.0
C307 C 0.02376 0.04384 0.02312 0.0
C308 C 0.97317 0.01095 0.05237 0.0
C309 C 0.02209 0.99189 0.08912 0.0
C310 C 0.89731 0.03675 0.0634 0.0
C311 C 0.95328 0.97093 0.0283 0.0
C312 C 0.98718 0.98003 0.99136 0.0
C313 C 0.97742 0.94887 0.96357 0.0
C314 C 0.93339 0.90664 0.97397 0.0
C315 C 0.89971 0.89534 1.01206 0.0
C316 C 0.90938 0.92851 0.03939 0.0
H317 H 0.87633 0.07828 0.46586 0.0
H318 H 0.96896 0.13568 0.56784 0.0
H319 H 0.05313 0.06402 0.58378 0.0
H320 H 0.87017 0.95281 0.51369 0.0
H321 H 0.89816 0.92888 0.46962 0.0
H322 H 0.84388 0.98456 0.46612 0.0
H323 H 0.95469 0.02637 0.42105 0.0
H324 H 0.00978 0.97094 0.42488 0.0
H325 H 0.05643 0.02405 0.43815 0.0
H326 H 0.13304 0.98932 0.58708 0.0
H327 H 0.19107 0.91008 0.58339 0.0
H328 H 0.04389 0.89618 0.48147 0.0
C329 C 0.9136 0.0755 0.49182 0.0
C330 C 0.91565 0.11298 0.51557 0.0
C331 C 0.9655 0.10768 0.54925 0.0
C332 C 0.01417 0.06714 0.55844 0.0
C333 C 0.01196 0.03153 0.53407 0.0
C334 C 0.96188 0.03464 0.50191 0.0
C335 C 0.97004 0.99024 0.48139 0.0
C336 C 0.89086 0.96249 0.4828 0.0
C337 C -0.00051 0.00372 0.43884 0.0
C338 C 0.0332 0.96211 0.50684 0.0
C339 C 0.05678 0.98708 0.53676 0.0
C340 C 0.11455 0.96923 0.56399 0.0
C341 C 0.14744 0.92403 0.56148 0.0
C342 C 0.12236 0.89639 0.53216 0.0
C343 C 0.06517 0.91632 0.50402 0.0
H344 H 0.58441 0.31417 0.35447 0.0
H345 H 0.60934 0.16231 0.39573 0.0
H346 H 0.53826 0.14323 0.33693 0.0
H347 H 0.38581 0.30754 0.30679 0.0
H348 H 0.4116 0.35223 0.26584 0.0
H349 H 0.45577 0.35431 0.31343 0.0
H350 H 0.59651 0.35352 0.28232 0.0
H351 H 0.55297 0.35094 0.23475 0.0
H352 H 0.62335 0.3057 0.25496 0.0
H353 H 0.47465 0.13994 0.27197 0.0
H354 H 0.41981 0.15272 0.20461 0.0
H355 H 0.4381 0.30668 0.20301 0.0
C356 C 0.57254 0.27706 0.3515 0.0
C357 C 0.60073 0.23958 0.37987 0.0
C358 C 0.58698 0.19138 0.3745 0.0
C359 C 0.54684 0.18023 0.34121 0.0
C360 C 0.52129 0.21774 0.31323 0.0
C361 C 0.53315 0.26522 0.31794 0.0
C362 C 0.50444 0.29835 0.28189 0.0
C363 C 0.43528 0.32998 0.29263 0.0
C364 C 0.57344 0.32892 0.26233 0.0
C365 C 0.47605 0.26204 0.2561 0.0
C366 C 0.48582 0.21579 0.27499 0.0
C367 C 0.46609 0.17601 0.25696 0.0
C368 C 0.43523 0.18361 0.21863 0.0
C369 C 0.42469 0.23061 0.19854 0.0
C370 C 0.44533 0.27031 0.21766 0.0
H371 H 0.66902 0.78688 0.18877 0.0
H372 H 0.50862 0.70298 0.12625 0.0
H373 H 0.41967 0.69103 0.18401 0.0
H374 H 0.65037 0.7192 0.2831 0.0
H375 H 0.64759 0.7691 0.31076 0.0
H376 H 0.69983 0.77471 0.2646 0.0
H377 H 0.61847 0.8482 0.23597 0.0
H378 H 0.56733 0.84589 0.2824 0.0
H379 H 0.51106 0.84578 0.2377 0.0
H380 H 0.34894 0.6863 0.24918 0.0
H381 H 0.30058 0.69105 0.31662 0.0
H382 H 0.50406 0.77952 0.33668 0.0
C383 C 0.61525 0.76595 0.18722 0.0
C384 C 0.59617 0.7458 0.1528 0.0
C385 C 0.52467 0.71901 0.15205 0.0
C386 C 0.47368 0.71189 0.1848 0.0
C387 C 0.49423 0.73215 0.21817 0.0
C388 C 0.56295 0.75896 0.21957 0.0
C389 C 0.57009 0.77752 0.2589 0.0
C390 C 0.64648 0.75892 0.28063 0.0
C391 C 0.5665 0.83262 0.2534 0.0
C392 C 0.49603 0.75577 0.2797 0.0
C393 C 0.45283 0.72997 0.25558 0.0
C394 C 0.38228 0.70647 0.26829 0.0
C395 C 0.35528 0.70932 0.30666 0.0
C396 C 0.39851 0.73559 0.33189 0.0
C397 C 0.46969 0.75918 0.31805 0.0
H398 H 0.30996 0.72525 0.69867 0.0
H399 H 0.5063 0.76117 0.61713 0.0
H400 H 0.59827 0.76153 0.67307 0.0
H401 H 0.36859 0.79675 0.77078 0.0
H402 H 0.34009 0.75372 0.81238 0.0
H403 H 0.28951 0.75457 0.76605 0.0
H404 H 0.32387 0.66503 0.76584 0.0
H405 H 0.37422 0.66373 0.81233 0.0
H406 H 0.42633 0.64566 0.77085 0.0
H407 H 0.6678 0.76274 0.73752 0.0
H408 H 0.71203 0.75929 0.8065 0.0
H409 H 0.4725 0.71968 0.8467 0.0
C410 C 0.37239 0.73289 0.69255 0.0
C411 C 0.40072 0.74328 0.65337 0.0
C412 C 0.48303 0.75286 0.64676 0.0
C413 C 0.53581 0.75332 0.67838 0.0
C414 C 0.50578 0.74355 0.71653 0.0
C415 C 0.42622 0.73291 0.7238 0.0
C416 C 0.40958 0.72336 0.76769 0.0
C417 C 0.34834 0.75926 0.77993 0.0
C418 C 0.38188 0.67135 0.77989 0.0
C419 C 0.49188 0.73149 0.7839 0.0
C420 C 0.54642 0.74307 0.75383 0.0
C421 C 0.62582 0.75331 0.76132 0.0
C422 C 0.65034 0.7514 0.80057 0.0
C423 C 0.5958 0.7391 0.83188 0.0
C424 C 0.51559 0.72893 0.82333 0.0
H425 H 0.30754 0.29537 0.83154 0.0
H426 H 0.48767 0.22794 0.91138 0.0
H427 H 0.57592 0.22005 0.85535 0.0
H428 H 0.33755 0.22207 0.75607 0.0
H429 H 0.32364 0.26948 0.71557 0.0
H430 H 0.27532 0.27277 0.76202 0.0
H431 H 0.34046 0.35536 0.76533 0.0
H432 H 0.38848 0.35267 0.71868 0.0
H433 H 0.44726 0.36147 0.76101 0.0
H434 H 0.64197 0.21458 0.79095 0.0
H435 H 0.68589 0.21703 0.72211 0.0
H436 H 0.46604 0.28924 0.68195 0.0
C437 C 0.36613 0.2797 0.83717 0.0
C438 C 0.39184 0.26394 0.87621 0.0
C439 C 0.46819 0.2426 0.88218 0.0
C440 C 0.5183 0.23716 0.85035 0.0
C441 C 0.49149 0.25312 0.81238 0.0
C442 C 0.41755 0.27436 0.80552 0.0
C443 C 0.40356 0.28802 0.76156 0.0
C444 C 0.3307 0.26149 0.74802 0.0
C445 C 0.3944 0.34263 0.75103 0.0
C446 C 0.48072 0.27052 0.7449 0.0
C447 C 0.53023 0.2503 0.77489 0.0
C448 C 0.60394 0.23061 0.76723 0.0
C449 C 0.62827 0.23201 0.72795 0.0
C450 C 0.57959 0.25332 0.69657 0.0
C451 C 0.50467 0.27281 0.70529 0.0
H452 H 0.18148 0.77963 0.33363 0.0
H453 H 0.98263 0.7438 0.41351 0.0
H454 H 0.89397 0.73895 0.35681 0.0
H455 H 0.06357 0.85528 0.25889 0.0
H456 H 0.11914 0.83722 0.21842 0.0
H457 H 0.16689 0.8382 0.2653 0.0
H458 H 0.20705 0.74964 0.2666 0.0
H459 H 0.15817 0.74744 0.22024 0.0
H460 H 0.13136 0.70513 0.26262 0.0
H461 H 0.82973 0.7309 0.29193 0.0
H462 H 0.78876 0.73183 0.22269 0.0
H463 H 0.02533 0.77976 0.18393 0.0
C464 C 0.11912 0.77115 0.33917 0.0
C465 C 0.08914 0.76191 0.37813 0.0
C466 C 0.00701 0.75125 0.38403 0.0
C467 C 0.95622 0.74814 0.35199 0.0
C468 C 0.98791 0.75669 0.31407 0.0
C469 C 0.06702 0.76901 0.30742 0.0
C470 C 0.08517 0.77786 0.26361 0.0
C471 C 0.11015 0.83026 0.2508 0.0
C472 C 0.1492 0.7429 0.25264 0.0
C473 C 0.00436 0.76751 0.24671 0.0
C474 C 0.94941 0.7549 0.27642 0.0
C475 C 0.87175 0.74162 0.26839 0.0
C476 C 0.84909 0.74215 0.22897 0.0
C477 C 0.90338 0.75652 0.19792 0.0
C478 C 0.98222 0.76916 0.20703 0.0
H479 H 0.87739 0.26992 0.3037 0.0
H480 H 0.99572 0.14907 0.37245 0.0
H481 H 0.06877 0.13287 0.31339 0.0
H482 H 0.8586 0.21526 0.21246 0.0
H483 H 0.87846 0.27056 0.1807 0.0
H484 H 0.83153 0.27175 0.22785 0.0
H485 H 0.94235 0.32819 0.2469 0.0
H486 H 0.98927 0.32731 0.19979 0.0
H487 H 0.04534 0.31039 0.24436 0.0
H488 H 0.13773 0.13333 0.24911 0.0
H489 H 0.19653 0.14958 0.18257 0.0
H490 H 0.03088 0.26721 0.1525 0.0
C491 C 0.91806 0.23977 0.30614 0.0
C492 C 0.93066 0.21069 0.34284 0.0
C493 C 0.98482 0.1718 0.3448 0.0
C494 C 0.0266 0.16222 0.31133 0.0
C495 C 0.01336 0.19155 0.27574 0.0
C496 C 0.96016 0.22941 0.27271 0.0
C497 C 0.95959 0.2562 0.23093 0.0
C498 C 0.87713 0.25325 0.21186 0.0
C499 C 0.98571 0.30862 0.23048 0.0
C500 C 0.02155 0.22785 0.21127 0.0
C501 C 0.05166 0.19075 0.23784 0.0
C502 C 0.11357 0.16165 0.22783 0.0
C503 C 0.14651 0.17105 0.18994 0.0
C504 C 0.117 0.20877 0.16209 0.0
C505 C 0.05278 0.23711 0.17277 0.0
H506 H 0.97194 0.27874 0.84118 0.0
H507 H 0.18426 0.1972 0.82125 0.0
H508 H 0.13884 0.19121 0.75377 0.0
H509 H 0.8347 0.21375 0.78683 0.0
H510 H 0.77948 0.26666 0.7672 0.0
H511 H 0.82928 0.26416 0.81386 0.0
H512 H 0.90432 0.3427 0.78732 0.0
H513 H 0.85522 0.34439 0.74048 0.0
H514 H 0.96258 0.34529 0.74288 0.0
H515 H 0.07154 0.19464 0.68811 0.0
H516 H 0.9852 0.20549 0.62933 0.0
H517 H 0.81403 0.28298 0.69172 0.0
C518 C 0.00862 0.25953 0.8226 0.0
C519 C 0.08152 0.23824 0.83656 0.0
C520 C 0.12801 0.21355 0.81131 0.0
C521 C 0.10279 0.21003 0.77286 0.0
C522 C 0.03065 0.23124 0.75998 0.0
C523 C 0.98403 0.25542 0.78405 0.0
C524 C 0.90904 0.275 0.76275 0.0
C525 C 0.83369 0.25356 0.78394 0.0
C526 C 0.90774 0.33011 0.75809 0.0
C527 C 0.92023 0.25732 0.72327 0.0
C528 C 0.99124 0.23264 0.72219 0.0
C529 C 0.01566 0.21381 0.68864 0.0
C530 C 0.96622 0.22027 0.65532 0.0
C531 C 0.89258 0.24496 0.65576 0.0
C532 C 0.86957 0.2636 0.6904 0.0
H533 H 0.09662 0.79973 0.716 0.0
H534 H 0.05364 0.65392 0.694 0.0
H535 H 0.99202 0.635 0.75967 0.0
H536 H 0.14087 0.76938 0.82215 0.0
H537 H 0.09118 0.8218 0.83502 0.0
H538 H 0.13706 0.82352 0.7873 0.0
H539 H 0.00279 0.85031 0.75375 0.0
H540 H 0.95675 0.84884 0.80132 0.0
H541 H 0.9148 0.81446 0.76584 0.0
H542 H 0.92551 0.63319 0.82458 0.0
H543 H 0.85809 0.64824 0.88549 0.0
H544 H 0.94597 0.79446 0.86852 0.0
C545 C 0.07496 0.7637 0.72524 0.0
C546 C 0.07999 0.72822 0.69978 0.0
C547 C 0.05055 0.68162 0.71288 0.0
C548 C 0.01561 0.67051 0.75022 0.0
C549 C 0.01092 0.70625 0.77444 0.0
C550 C 0.04002 0.75188 0.76268 0.0
C551 C 0.02427 0.784 0.79406 0.0
C552 C 0.10304 0.80065 0.81061 0.0
C553 C 0.97152 0.82694 0.77777 0.0
C554 C 0.98 0.74959 0.8248 0.0
C555 C 0.9736 0.70488 0.81278 0.0
C556 C 0.93115 0.6678 0.83457 0.0
C557 C 0.893 0.67672 0.86916 0.0
C558 C 0.89769 0.72223 0.88209 0.0
C559 C 0.94309 0.75896 0.85991 0.0
loop_
_geom_bond_atom_site_label_1
_geom_bond_atom_site_label_2
_geom_bond_distance
_geom_bond_site_symmetry_2
_ccdc_geom_bond_type
Co0 H3 2.400 . S
Co0 O4 2.009 . S
Co0 O12 2.115 . S
Co0 O13 2.315 . S
Co0 O24 2.053 . S
Co0 O27 2.094 . S
Co0 O30 2.122 . S
Co1 O4 2.126 . S
Co1 H5 2.388 1_556 S
Co1 O6 2.053 1_556 S
Co1 O9 2.047 . S
Co1 O15 2.113 . S
Co1 O26 2.063 . S
Co2 H3 2.388 1_554 S
Co2 O4 2.053 1_554 S
Co2 O6 2.126 . S
Co2 O11 2.063 . S
Co2 O25 2.047 . S
Co2 O31 2.113 . S
H3 Co0 2.400 . S
H3 Co2 2.388 1_556 S
H3 O4 0.760 . S
O4 Co0 2.009 . S
O4 Co1 2.126 . S
O4 Co2 2.053 1_556 S
O4 H3 0.760 . S
H5 Co1 2.388 1_554 S
H5 O6 0.760 . S
H5 Co7 2.400 . S
O6 Co1 2.053 1_554 S
O6 Co2 2.126 . S
O6 H5 0.760 . S
O6 Co7 2.009 . S
Co7 H5 2.400 . S
Co7 O6 2.009 . S
Co7 O8 2.053 . S
Co7 O10 2.094 . S
Co7 O14 2.122 . S
Co7 O28 2.115 . S
Co7 O29 2.315 . S
O8 Co7 2.053 . S
O8 C20 1.259 . S
O9 Co1 2.047 . S
O9 C20 1.257 1_556 S
O10 Co7 2.094 . S
O10 C21 1.253 . S
O11 Co2 2.063 . S
O11 C21 1.268 . S
O12 Co0 2.115 . S
O12 C22 1.281 . S
O13 Co0 2.315 . S
O13 C22 1.252 . S
O14 Co7 2.122 . S
O14 C23 1.272 . S
O15 Co1 2.113 . S
O15 C23 1.245 1_556 S
C16 O24 1.259 . S
C16 O25 1.257 1_556 S
C17 O26 1.268 . S
C17 O27 1.253 . S
C18 O28 1.281 . S
C18 O29 1.252 . S
C19 O30 1.272 . S
C19 O31 1.245 1_556 S
C20 O8 1.259 . S
C20 O9 1.257 1_554 S
C21 O10 1.253 . S
C21 O11 1.268 . S
C22 O12 1.281 . S
C22 O13 1.252 . S
C23 O14 1.272 . S
C23 O15 1.245 1_554 S
O24 Co0 2.053 . S
O24 C16 1.259 . S
O25 Co2 2.047 . S
O25 C16 1.257 1_554 S
O26 Co1 2.063 . S
O26 C17 1.268 . S
O27 Co0 2.094 . S
O27 C17 1.253 . S
O28 Co7 2.115 . S
O28 C18 1.281 . S
O29 Co7 2.315 . S
O29 C18 1.252 . S
O30 Co0 2.122 . S
O30 C19 1.272 . S
O31 Co2 2.113 . S
O31 C19 1.245 1_554 S
Co32 H35 2.400 . S
Co32 O36 2.009 . S
Co32 O44 2.115 . S
Co32 O45 2.315 . S
Co32 O56 2.053 . S
Co32 O59 2.094 . S
Co32 O62 2.122 . S
Co33 O36 2.126 . S
Co33 H37 2.388 1_556 S
Co33 O38 2.053 1_556 S
Co33 O41 2.047 . S
Co33 O47 2.113 . S
Co33 O58 2.063 . S
Co34 H35 2.388 1_554 S
Co34 O36 2.053 1_554 S
Co34 O38 2.126 . S
Co34 O43 2.063 . S
Co34 O57 2.047 . S
Co34 O63 2.113 . S
H35 Co32 2.400 . S
H35 Co34 2.388 1_556 S
H35 O36 0.760 . S
O36 Co32 2.009 . S
O36 Co33 2.126 . S
O36 Co34 2.053 1_556 S
O36 H35 0.760 . S
H37 Co33 2.388 1_554 S
H37 O38 0.760 . S
H37 Co39 2.400 . S
O38 Co33 2.053 1_554 S
O38 Co34 2.126 . S
O38 H37 0.760 . S
O38 Co39 2.009 . S
Co39 H37 2.400 . S
Co39 O38 2.009 . S
Co39 O40 2.053 . S
Co39 O42 2.094 . S
Co39 O46 2.122 . S
Co39 O60 2.115 . S
Co39 O61 2.315 . S
O40 Co39 2.053 . S
O40 C52 1.259 . S
O41 Co33 2.047 . S
O41 C52 1.257 1_556 S
O42 Co39 2.094 . S
O42 C53 1.253 . S
O43 Co34 2.063 . S
O43 C53 1.268 . S
O44 Co32 2.115 . S
O44 C54 1.281 . S
O45 Co32 2.315 . S
O45 C54 1.252 . S
O46 Co39 2.122 . S
O46 C55 1.272 . S
O47 Co33 2.113 . S
O47 C55 1.245 1_556 S
C48 O56 1.259 . S
C48 O57 1.257 1_556 S
C49 O58 1.268 . S
C49 O59 1.253 . S
C50 O60 1.281 . S
C50 O61 1.252 . S
C51 O62 1.272 . S
C51 O63 1.245 1_556 S
C52 O40 1.259 . S
C52 O41 1.257 1_554 S
C53 O42 1.253 . S
C53 O43 1.268 . S
C54 O44 1.281 . S
C54 O45 1.252 . S
C55 O46 1.272 . S
C55 O47 1.245 1_554 S
O56 Co32 2.053 . S
O56 C48 1.259 . S
O57 Co34 2.047 . S
O57 C48 1.257 1_554 S
O58 Co33 2.063 . S
O58 C49 1.268 . S
O59 Co32 2.094 . S
O59 C49 1.253 . S
O60 Co39 2.115 . S
O60 C50 1.281 . S
O61 Co39 2.315 . S
O61 C50 1.252 . S
O62 Co32 2.122 . S
O62 C51 1.272 . S
O63 Co34 2.113 . S
O63 C51 1.245 1_554 S
Co64 H67 2.400 . S
Co64 O68 2.009 . S
Co64 O76 2.115 . S
Co64 O77 2.315 . S
Co64 O88 2.053 . S
Co64 O91 2.094 . S
Co64 O94 2.122 . S
Co65 O68 2.126 . S
Co65 H69 2.388 . S
Co65 O70 2.053 . S
Co65 O73 2.047 . S
Co65 O79 2.113 . S
Co65 O90 2.063 . S
Co66 H67 2.388 . S
Co66 O68 2.053 . S
Co66 O70 2.126 . S
Co66 O75 2.063 . S
Co66 O89 2.047 . S
Co66 O95 2.113 . S
H67 Co64 2.400 . S
H67 Co66 2.388 . S
H67 O68 0.760 . S
O68 Co64 2.009 . S
O68 Co65 2.126 . S
O68 Co66 2.053 . S
O68 H67 0.760 . S
H69 Co65 2.388 . S
H69 O70 0.760 . S
H69 Co71 2.400 . S
O70 Co65 2.053 . S
O70 Co66 2.126 . S
O70 H69 0.760 . S
O70 Co71 2.009 . S
Co71 H69 2.400 . S
Co71 O70 2.009 . S
Co71 O72 2.053 . S
Co71 O74 2.094 . S
Co71 O78 2.122 . S
Co71 O92 2.115 . S
Co71 O93 2.315 . S
O72 Co71 2.053 . S
O72 C84 1.259 . S
O73 Co65 2.047 . S
O73 C84 1.257 . S
O74 Co71 2.094 . S
O74 C85 1.253 . S
O75 Co66 2.063 . S
O75 C85 1.268 . S
O76 Co64 2.115 . S
O76 C86 1.281 . S
O77 Co64 2.315 . S
O77 C86 1.252 . S
O78 Co71 2.122 . S
O78 C87 1.272 . S
O79 Co65 2.113 . S
O79 C87 1.245 . S
C80 O88 1.259 . S
C80 O89 1.257 . S
C81 O90 1.268 . S
C81 O91 1.253 . S
C82 O92 1.281 . S
C82 O93 1.252 . S
C83 O94 1.272 . S
C83 O95 1.245 . S
C84 O72 1.259 . S
C84 O73 1.257 . S
C85 O74 1.253 . S
C85 O75 1.268 . S
C86 O76 1.281 . S
C86 O77 1.252 . S
C87 O78 1.272 . S
C87 O79 1.245 . S
O88 Co64 2.053 . S
O88 C80 1.259 . S
O89 Co66 2.047 . S
O89 C80 1.257 . S
O90 Co65 2.063 . S
O90 C81 1.268 . S
O91 Co64 2.094 . S
O91 C81 1.253 . S
O92 Co71 2.115 . S
O92 C82 1.281 . S
O93 Co71 2.315 . S
O93 C82 1.252 . S
O94 Co64 2.122 . S
O94 C83 1.272 . S
O95 Co66 2.113 . S
O95 C83 1.245 . S
Co96 H99 2.400 . S
Co96 O100 2.009 . S
Co96 O108 2.115 . S
Co96 O109 2.315 . S
Co96 O120 2.053 . S
Co96 O123 2.094 . S
Co96 O126 2.122 . S
Co97 O100 2.126 . S
Co97 H101 2.388 . S
Co97 O102 2.053 . S
Co97 O105 2.047 . S
Co97 O111 2.113 . S
Co97 O122 2.063 . S
Co98 H99 2.388 . S
Co98 O100 2.053 . S
Co98 O102 2.126 . S
Co98 O107 2.063 . S
Co98 O121 2.047 . S
Co98 O127 2.113 . S
H99 Co96 2.400 . S
H99 Co98 2.388 . S
H99 O100 0.760 . S
O100 Co96 2.009 . S
O100 Co97 2.126 . S
O100 Co98 2.053 . S
O100 H99 0.760 . S
H101 Co97 2.388 . S
H101 O102 0.760 . S
H101 Co103 2.400 . S
O102 Co97 2.053 . S
O102 Co98 2.126 . S
O102 H101 0.760 . S
O102 Co103 2.009 . S
Co103 H101 2.400 . S
Co103 O102 2.009 . S
Co103 O104 2.053 . S
Co103 O106 2.094 . S
Co103 O110 2.122 . S
Co103 O124 2.115 . S
Co103 O125 2.315 . S
O104 Co103 2.053 . S
O104 C116 1.259 . S
O105 Co97 2.047 . S
O105 C116 1.257 . S
O106 Co103 2.094 . S
O106 C117 1.253 . S
O107 Co98 2.063 . S
O107 C117 1.268 . S
O108 Co96 2.115 . S
O108 C118 1.281 . S
O109 Co96 2.315 . S
O109 C118 1.252 . S
O110 Co103 2.122 . S
O110 C119 1.272 . S
O111 Co97 2.113 . S
O111 C119 1.245 . S
C112 O120 1.259 . S
C112 O121 1.257 . S
C113 O122 1.268 . S
C113 O123 1.253 . S
C114 O124 1.281 . S
C114 O125 1.252 . S
C115 O126 1.272 . S
C115 O127 1.245 . S
C116 O104 1.259 . S
C116 O105 1.257 . S
C117 O106 1.253 . S
C117 O107 1.268 . S
C118 O108 1.281 . S
C118 O109 1.252 . S
C119 O110 1.272 . S
C119 O111 1.245 . S
O120 Co96 2.053 . S
O120 C112 1.259 . S
O121 Co98 2.047 . S
O121 C112 1.257 . S
O122 Co97 2.063 . S
O122 C113 1.268 . S
O123 Co96 2.094 . S
O123 C113 1.253 . S
O124 Co103 2.115 . S
O124 C114 1.281 . S
O125 Co103 2.315 . S
O125 C114 1.252 . S
O126 Co96 2.122 . S
O126 C115 1.272 . S
O127 Co98 2.113 . S
O127 C115 1.245 . S
H128 C140 0.930 . S
H129 C142 0.930 . S
H130 C143 0.930 . S
H131 C147 0.959 . S
H132 C147 0.959 . S
H133 C147 0.961 . S
H134 C148 0.960 . S
H135 C148 0.961 . S
H136 C148 0.959 . S
H137 C151 0.929 . S
H138 C152 0.931 . S
H139 C154 0.930 . S
C140 H128 0.930 . S
C140 C141 1.399 . S
C140 C145 1.399 . S
C141 C140 1.399 . S
C141 C142 1.376 1_554 S
C142 H129 0.930 . S
C142 C141 1.376 1_556 S
C142 C143 1.388 . S
C143 H130 0.930 . S
C143 C142 1.388 . S
C143 C144 1.390 . S
C144 C143 1.390 . S
C144 C145 1.394 1_556 S
C144 C150 1.465 . S
C145 C140 1.399 . S
C145 C144 1.394 1_554 S
C145 C146 1.516 . S
C146 C145 1.516 . S
C146 C147 1.502 . S
C146 C148 1.561 . S
C146 C149 1.526 . S
C147 H131 0.959 . S
C147 H132 0.959 . S
C147 H133 0.961 . S
C147 C146 1.502 . S
C148 H134 0.960 . S
C148 H135 0.961 . S
C148 H136 0.959 . S
C148 C146 1.561 . S
C149 C146 1.526 . S
C149 C150 1.396 1_554 S
C149 C154 1.390 . S
C150 C144 1.465 . S
C150 C149 1.396 1_556 S
C150 C151 1.399 . S
C151 H137 0.929 . S
C151 C150 1.399 . S
C151 C152 1.385 . S
C152 H138 0.931 . S
C152 C151 1.385 . S
C152 C153 1.389 . S
C153 C152 1.389 . S
C153 C154 1.387 1_556 S
C154 H139 0.930 . S
C154 C149 1.390 . S
C154 C153 1.387 1_554 S
H155 C167 0.930 . S
H156 C169 0.930 . S
H157 C170 0.930 . S
H158 C174 0.959 . S
H159 C174 0.959 . S
H160 C174 0.961 . S
H161 C175 0.960 . S
H162 C175 0.961 . S
H163 C175 0.959 . S
H164 C178 0.929 . S
H165 C179 0.931 . S
H166 C181 0.930 . S
C167 H155 0.930 . S
C167 C168 1.399 1_556 S
C167 C172 1.399 . S
C168 C167 1.399 1_554 S
C168 C169 1.376 . S
C169 H156 0.930 . S
C169 C168 1.376 . S
C169 C170 1.388 . S
C170 H157 0.930 . S
C170 C169 1.388 . S
C170 C171 1.390 . S
C171 C170 1.390 . S
C171 C172 1.394 1_554 S
C171 C177 1.465 . S
C172 C167 1.399 . S
C172 C171 1.394 1_556 S
C172 C173 1.516 . S
C173 C172 1.516 . S
C173 C174 1.502 . S
C173 C175 1.561 . S
C173 C176 1.526 . S
C174 H158 0.959 . S
C174 H159 0.959 . S
C174 H160 0.961 . S
C174 C173 1.502 . S
C175 H161 0.960 . S
C175 H162 0.961 . S
C175 H163 0.959 . S
C175 C173 1.561 . S
C176 C173 1.526 . S
C176 C177 1.396 1_556 S
C176 C181 1.390 . S
C177 C171 1.465 . S
C177 C176 1.396 1_554 S
C177 C178 1.399 . S
C178 H164 0.929 . S
C178 C177 1.399 . S
C178 C179 1.385 . S
C179 H165 0.931 . S
C179 C178 1.385 . S
C179 C180 1.389 1_554 S
C180 C179 1.389 1_556 S
C180 C181 1.387 . S
C181 H166 0.930 . S
C181 C176 1.390 . S
C181 C180 1.387 . S
H182 C194 0.930 . S
H183 C196 0.930 . S
H184 C197 0.930 . S
H185 C201 0.959 . S
H186 C201 0.959 . S
H187 C201 0.961 . S
H188 C202 0.960 . S
H189 C202 0.961 . S
H190 C202 0.959 . S
H191 C205 0.929 . S
H192 C206 0.931 . S
H193 C208 0.930 . S
C194 H182 0.930 . S
C194 C195 1.399 . S
C194 C199 1.399 . S
C195 C194 1.399 . S
C195 C196 1.376 . S
C196 H183 0.930 . S
C196 C195 1.376 . S
C196 C197 1.388 . S
C197 H184 0.930 . S
C197 C196 1.388 . S
C197 C198 1.390 . S
C198 C197 1.390 . S
C198 C199 1.394 . S
C198 C204 1.465 . S
C199 C194 1.399 . S
C199 C198 1.394 . S
C199 C200 1.516 . S
C200 C199 1.516 . S
C200 C201 1.502 . S
C200 C202 1.561 . S
C200 C203 1.526 . S
C201 H185 0.959 . S
C201 H186 0.959 . S
C201 H187 0.961 . S
C201 C200 1.502 . S
C202 H188 0.960 . S
C202 H189 0.961 . S
C202 H190 0.959 . S
C202 C200 1.561 . S
C203 C200 1.526 . S
C203 C204 1.396 . S
C203 C208 1.390 . S
C204 C198 1.465 . S
C204 C203 1.396 . S
C204 C205 1.399 . S
C205 H191 0.929 . S
C205 C204 1.399 . S
C205 C206 1.385 . S
C206 H192 0.931 . S
C206 C205 1.385 . S
C206 C207 1.389 . S
C207 C206 1.389 . S
C207 C208 1.387 . S
C208 H193 0.930 . S
C208 C203 1.390 . S
C208 C207 1.387 . S
H209 C221 0.930 . S
H210 C223 0.930 . S
H211 C224 0.930 . S
H212 C228 0.959 . S
H213 C228 0.959 . S
H214 C228 0.961 . S
H215 C229 0.960 . S
H216 C229 0.961 . S
H217 C229 0.959 . S
H218 C232 0.929 . S
H219 C233 0.931 . S
H220 C235 0.930 . S
C221 H209 0.930 . S
C221 C222 1.399 . S
C221 C226 1.399 . S
C222 C221 1.399 . S
C222 C223 1.376 . S
C223 H210 0.930 . S
C223 C222 1.376 . S
C223 C224 1.388 . S
C224 H211 0.930 . S
C224 C223 1.388 . S
C224 C225 1.390 . S
C225 C224 1.390 . S
C225 C226 1.394 . S
C225 C231 1.465 . S
C226 C221 1.399 . S
C226 C225 1.394 . S
C226 C227 1.516 . S
C227 C226 1.516 . S
C227 C228 1.502 . S
C227 C229 1.561 . S
C227 C230 1.526 . S
C228 H212 0.959 . S
C228 H213 0.959 . S
C228 H214 0.961 . S
C228 C227 1.502 . S
C229 H215 0.960 . S
C229 H216 0.961 . S
C229 H217 0.959 . S
C229 C227 1.561 . S
C230 C227 1.526 . S
C230 C231 1.396 . S
C230 C235 1.390 . S
C231 C225 1.465 . S
C231 C230 1.396 . S
C231 C232 1.399 . S
C232 H218 0.929 . S
C232 C231 1.399 . S
C232 C233 1.385 . S
C233 H219 0.931 . S
C233 C232 1.385 . S
C233 C234 1.389 . S
C234 C233 1.389 . S
C234 C235 1.387 . S
C235 H220 0.930 . S
C235 C230 1.390 . S
C235 C234 1.387 . S
H236 C248 0.930 . S
H237 C250 0.930 . S
H238 C251 0.930 . S
H239 C255 0.959 . S
H240 C255 0.959 . S
H241 C255 0.961 . S
H242 C256 0.960 . S
H243 C256 0.961 . S
H244 C256 0.959 . S
H245 C259 0.929 . S
H246 C260 0.931 . S
H247 C262 0.930 . S
C248 H236 0.930 . S
C248 C249 1.399 1_556 S
C248 C253 1.399 . S
C249 C248 1.399 1_554 S
C249 C250 1.376 . S
C250 H237 0.930 . S
C250 C249 1.376 . S
C250 C251 1.388 . S
C251 H238 0.930 . S
C251 C250 1.388 . S
C251 C252 1.390 . S
C252 C251 1.390 . S
C252 C253 1.394 1_554 S
C252 C258 1.465 . S
C253 C248 1.399 . S
C253 C252 1.394 1_556 S
C253 C254 1.516 . S
C254 C253 1.516 . S
C254 C255 1.502 . S
C254 C256 1.561 . S
C254 C257 1.526 . S
C255 H239 0.959 . S
C255 H240 0.959 . S
C255 H241 0.961 . S
C255 C254 1.502 . S
C256 H242 0.960 . S
C256 H243 0.961 . S
C256 H244 0.959 . S
C256 C254 1.561 . S
C257 C254 1.526 . S
C257 C258 1.396 1_556 S
C257 C262 1.390 . S
C258 C252 1.465 . S
C258 C257 1.396 1_554 S
C258 C259 1.399 . S
C259 H245 0.929 . S
C259 C258 1.399 . S
C259 C260 1.385 . S
C260 H246 0.931 . S
C260 C259 1.385 . S
C260 C261 1.389 . S
C261 C260 1.389 . S
C261 C262 1.387 1_554 S
C262 H247 0.930 . S
C262 C257 1.390 . S
C262 C261 1.387 1_556 S
H263 C275 0.930 . S
H264 C277 0.930 . S
H265 C278 0.930 . S
H266 C282 0.959 . S
H267 C282 0.959 . S
H268 C282 0.961 . S
H269 C283 0.960 . S
H270 C283 0.961 . S
H271 C283 0.959 . S
H272 C286 0.929 . S
H273 C287 0.931 . S
H274 C289 0.930 . S
C275 H263 0.930 . S
C275 C276 1.399 . S
C275 C280 1.399 . S
C276 C275 1.399 . S
C276 C277 1.376 . S
C277 H264 0.930 . S
C277 C276 1.376 . S
C277 C278 1.388 . S
C278 H265 0.930 . S
C278 C277 1.388 . S
C278 C279 1.390 . S
C279 C278 1.390 . S
C279 C280 1.394 . S
C279 C285 1.465 . S
C280 C275 1.399 . S
C280 C279 1.394 . S
C280 C281 1.516 . S
C281 C280 1.516 . S
C281 C282 1.502 . S
C281 C283 1.561 . S
C281 C284 1.526 . S
C282 H266 0.959 . S
C282 H267 0.959 . S
C282 H268 0.961 . S
C282 C281 1.502 . S
C283 H269 0.960 . S
C283 H270 0.961 . S
C283 H271 0.959 . S
C283 C281 1.561 . S
C284 C281 1.526 . S
C284 C285 1.396 . S
C284 C289 1.390 . S
C285 C279 1.465 . S
C285 C284 1.396 . S
C285 C286 1.399 . S
C286 H272 0.929 . S
C286 C285 1.399 . S
C286 C287 1.385 . S
C287 H273 0.931 . S
C287 C286 1.385 . S
C287 C288 1.389 . S
C288 C287 1.389 . S
C288 C289 1.387 . S
C289 H274 0.930 . S
C289 C284 1.390 . S
C289 C288 1.387 . S
H290 C302 0.930 . S
H291 C304 0.930 . S
H292 C305 0.930 . S
H293 C309 0.959 . S
H294 C309 0.959 1_655 S
H295 C309 0.977 . S
H296 C310 0.960 . S
H297 C310 0.961 . S
H298 C310 0.959 . S
H299 C313 0.929 . S
H300 C314 0.931 . S
H301 C316 0.930 . S
C302 H290 0.930 . S
C302 C303 1.399 1_554 S
C302 C307 1.399 . S
C303 C302 1.399 1_556 S
C303 C304 1.376 . S
C304 H291 0.930 . S
C304 C303 1.376 . S
C304 C305 1.388 . S
C305 H292 0.930 . S
C305 C304 1.388 . S
C305 C306 1.390 . S
C306 C305 1.390 . S
C306 C307 1.394 1_556 S
C306 C312 1.465 1_445 S
C307 C302 1.399 . S
C307 C306 1.394 1_554 S
C307 C308 1.516 1_455 S
C308 C307 1.516 1_655 S
C308 C309 1.502 1_645 S
C308 C310 1.561 . S
C308 C311 1.526 1_545 S
C309 H293 0.959 . S
C309 H294 0.959 1_455 S
C309 H295 0.977 . S
C309 C308 1.502 1_465 S
C310 H296 0.960 . S
C310 H297 0.961 . S
C310 H298 0.959 . S
C310 C308 1.561 . S
C311 C308 1.526 1_565 S
C311 C312 1.396 1_554 S
C311 C316 1.390 . S
C312 C306 1.465 1_665 S
C312 C311 1.396 1_556 S
C312 C313 1.399 . S
C313 H299 0.929 . S
C313 C312 1.399 . S
C313 C314 1.385 . S
C314 H300 0.931 . S
C314 C313 1.385 . S
C314 C315 1.389 . S
C315 C314 1.389 . S
C315 C316 1.387 1_556 S
C316 H301 0.930 . S
C316 C311 1.390 . S
C316 C315 1.387 1_554 S
H317 C329 0.930 . S
H318 C331 0.930 . S
H319 C332 0.930 1_455 S
H320 C336 0.959 . S
H321 C336 0.959 . S
H322 C336 0.961 . S
H323 C337 0.960 1_655 S
H324 C337 0.961 1_565 S
H325 C337 0.959 . S
H326 C340 0.929 . S
H327 C341 0.931 . S
H328 C343 0.930 . S
C329 H317 0.930 . S
C329 C330 1.399 . S
C329 C334 1.399 . S
C330 C329 1.399 . S
C330 C331 1.376 . S
C331 H318 0.930 . S
C331 C330 1.376 . S
C331 C332 1.388 . S
C332 H319 0.930 1_655 S
C332 C331 1.388 . S
C332 C333 1.390 . S
C333 C332 1.390 . S
C333 C334 1.394 . S
C333 C339 1.465 1_645 S
C334 C329 1.399 . S
C334 C333 1.394 . S
C334 C335 1.516 1_545 S
C335 C334 1.516 1_565 S
C335 C336 1.502 . S
C335 C337 1.561 1_665 S
C335 C338 1.526 1_655 S
C336 H320 0.959 . S
C336 H321 0.959 . S
C336 H322 0.961 . S
C336 C335 1.502 . S
C337 H323 0.960 1_455 S
C337 H324 0.961 1_545 S
C337 H325 0.959 . S
C337 C335 1.561 1_445 S
C338 C335 1.526 1_455 S
C338 C339 1.396 . S
C338 C343 1.390 . S
C339 C333 1.465 1_465 S
C339 C338 1.396 . S
C339 C340 1.399 . S
C340 H326 0.929 . S
C340 C339 1.399 . S
C340 C341 1.385 . S
C341 H327 0.931 . S
C341 C340 1.385 . S
C341 C342 1.389 . S
C342 C341 1.389 . S
C342 C343 1.387 . S
C343 H328 0.930 . S
C343 C338 1.390 . S
C343 C342 1.387 . S
H344 C356 0.930 . S
H345 C358 0.930 . S
H346 C359 0.930 . S
H347 C363 0.959 . S
H348 C363 0.959 . S
H349 C363 0.961 . S
H350 C364 0.960 . S
H351 C364 0.961 . S
H352 C364 0.959 . S
H353 C367 0.929 . S
H354 C368 0.931 . S
H355 C370 0.930 . S
C356 H344 0.930 . S
C356 C357 1.399 . S
C356 C361 1.399 . S
C357 C356 1.399 . S
C357 C358 1.376 . S
C358 H345 0.930 . S
C358 C357 1.376 . S
C358 C359 1.388 . S
C359 H346 0.930 . S
C359 C358 1.388 . S
C359 C360 1.390 . S
C360 C359 1.390 . S
C360 C361 1.394 . S
C360 C366 1.465 . S
C361 C356 1.399 . S
C361 C360 1.394 . S
C361 C362 1.516 . S
C362 C361 1.516 . S
C362 C363 1.502 . S
C362 C364 1.561 . S
C362 C365 1.526 . S
C363 H347 0.959 . S
C363 H348 0.959 . S
C363 H349 0.961 . S
C363 C362 1.502 . S
C364 H350 0.960 . S
C364 H351 0.961 . S
C364 H352 0.959 . S
C364 C362 1.561 . S
C365 C362 1.526 . S
C365 C366 1.396 . S
C365 C370 1.390 . S
C366 C360 1.465 . S
C366 C365 1.396 . S
C366 C367 1.399 . S
C367 H353 0.929 . S
C367 C366 1.399 . S
C367 C368 1.385 . S
C368 H354 0.931 . S
C368 C367 1.385 . S
C368 C369 1.389 . S
C369 C368 1.389 . S
C369 C370 1.387 . S
C370 H355 0.930 . S
C370 C365 1.390 . S
C370 C369 1.387 . S
H371 C383 0.930 . S
H372 C385 0.930 . S
H373 C386 0.930 . S
H374 C390 0.959 . S
H375 C390 0.959 . S
H376 C390 0.961 . S
H377 C391 0.960 . S
H378 C391 0.961 . S
H379 C391 0.959 . S
H380 C394 0.929 . S
H381 C395 0.931 . S
H382 C397 0.930 . S
C383 H371 0.930 . S
C383 C384 1.399 . S
C383 C388 1.399 . S
C384 C383 1.399 . S
C384 C385 1.376 . S
C385 H372 0.930 . S
C385 C384 1.376 . S
C385 C386 1.388 . S
C386 H373 0.930 . S
C386 C385 1.388 . S
C386 C387 1.390 . S
C387 C386 1.390 . S
C387 C388 1.394 . S
C387 C393 1.465 . S
C388 C383 1.399 . S
C388 C387 1.394 . S
C388 C389 1.516 . S
C389 C388 1.516 . S
C389 C390 1.502 . S
C389 C391 1.561 . S
C389 C392 1.526 . S
C390 H374 0.959 . S
C390 H375 0.959 . S
C390 H376 0.961 . S
C390 C389 1.502 . S
C391 H377 0.960 . S
C391 H378 0.961 . S
C391 H379 0.959 . S
C391 C389 1.561 . S
C392 C389 1.526 . S
C392 C393 1.396 . S
C392 C397 1.390 . S
C393 C387 1.465 . S
C393 C392 1.396 . S
C393 C394 1.399 . S
C394 H380 0.929 . S
C394 C393 1.399 . S
C394 C395 1.385 . S
C395 H381 0.931 . S
C395 C394 1.385 . S
C395 C396 1.389 . S
C396 C395 1.389 . S
C396 C397 1.387 . S
C397 H382 0.930 . S
C397 C392 1.390 . S
C397 C396 1.387 . S
H398 C410 0.930 . S
H399 C412 0.930 . S
H400 C413 0.930 . S
H401 C417 0.959 . S
H402 C417 0.959 . S
H403 C417 0.961 . S
H404 C418 0.960 . S
H405 C418 0.961 . S
H406 C418 0.959 . S
H407 C421 0.929 . S
H408 C422 0.931 . S
H409 C424 0.930 . S
C410 H398 0.930 . S
C410 C411 1.399 . S
C410 C415 1.399 . S
C411 C410 1.399 . S
C411 C412 1.376 . S
C412 H399 0.930 . S
C412 C411 1.376 . S
C412 C413 1.388 . S
C413 H400 0.930 . S
C413 C412 1.388 . S
C413 C414 1.390 . S
C414 C413 1.390 . S
C414 C415 1.394 . S
C414 C420 1.465 . S
C415 C410 1.399 . S
C415 C414 1.394 . S
C415 C416 1.516 . S
C416 C415 1.516 . S
C416 C417 1.502 . S
C416 C418 1.561 . S
C416 C419 1.526 . S
C417 H401 0.959 . S
C417 H402 0.959 . S
C417 H403 0.961 . S
C417 C416 1.502 . S
C418 H404 0.960 . S
C418 H405 0.961 . S
C418 H406 0.959 . S
C418 C416 1.561 . S
C419 C416 1.526 . S
C419 C420 1.396 . S
C419 C424 1.390 . S
C420 C414 1.465 . S
C420 C419 1.396 . S
C420 C421 1.399 . S
C421 H407 0.929 . S
C421 C420 1.399 . S
C421 C422 1.385 . S
C422 H408 0.931 . S
C422 C421 1.385 . S
C422 C423 1.389 . S
C423 C422 1.389 . S
C423 C424 1.387 . S
C424 H409 0.930 . S
C424 C419 1.390 . S
C424 C423 1.387 . S
H425 C437 0.930 . S
H426 C439 0.930 . S
H427 C440 0.930 . S
H428 C444 0.959 . S
H429 C444 0.959 . S
H430 C444 0.961 . S
H431 C445 0.960 . S
H432 C445 0.961 . S
H433 C445 0.959 . S
H434 C448 0.929 . S
H435 C449 0.931 . S
H436 C451 0.930 . S
C437 H425 0.930 . S
C437 C438 1.399 . S
C437 C442 1.399 . S
C438 C437 1.399 . S
C438 C439 1.376 . S
C439 H426 0.930 . S
C439 C438 1.376 . S
C439 C440 1.388 . S
C440 H427 0.930 . S
C440 C439 1.388 . S
C440 C441 1.390 . S
C441 C440 1.390 . S
C441 C442 1.394 . S
C441 C447 1.465 . S
C442 C437 1.399 . S
C442 C441 1.394 . S
C442 C443 1.516 . S
C443 C442 1.516 . S
C443 C444 1.502 . S
C443 C445 1.561 . S
C443 C446 1.526 . S
C444 H428 0.959 . S
C444 H429 0.959 . S
C444 H430 0.961 . S
C444 C443 1.502 . S
C445 H431 0.960 . S
C445 H432 0.961 . S
C445 H433 0.959 . S
C445 C443 1.561 . S
C446 C443 1.526 . S
C446 C447 1.396 . S
C446 C451 1.390 . S
C447 C441 1.465 . S
C447 C446 1.396 . S
C447 C448 1.399 . S
C448 H434 0.929 . S
C448 C447 1.399 . S
C448 C449 1.385 . S
C449 H435 0.931 . S
C449 C448 1.385 . S
C449 C450 1.389 . S
C450 C449 1.389 . S
C450 C451 1.387 . S
C451 H436 0.930 . S
C451 C446 1.390 . S
C451 C450 1.387 . S
H452 C464 0.930 . S
H453 C466 0.930 . S
H454 C467 0.930 . S
H455 C471 0.959 1_655 S
H456 C471 0.959 . S
H457 C471 0.961 . S
H458 C472 0.960 . S
H459 C472 0.961 . S
H460 C472 0.959 . S
H461 C475 0.929 . S
H462 C476 0.931 . S
H463 C478 0.930 . S
C464 H452 0.930 . S
C464 C465 1.399 . S
C464 C469 1.399 . S
C465 C464 1.399 . S
C465 C466 1.376 . S
C466 H453 0.930 . S
C466 C465 1.376 . S
C466 C467 1.388 . S
C467 H454 0.930 . S
C467 C466 1.388 . S
C467 C468 1.390 . S
C468 C467 1.390 . S
C468 C469 1.394 . S
C468 C474 1.465 . S
C469 C464 1.399 . S
C469 C468 1.394 . S
C469 C470 1.516 . S
C470 C469 1.516 . S
C470 C471 1.502 . S
C470 C472 1.561 . S
C470 C473 1.526 . S
C471 H455 0.959 1_455 S
C471 H456 0.959 . S
C471 H457 0.961 . S
C471 C470 1.502 . S
C472 H458 0.960 . S
C472 H459 0.961 . S
C472 H460 0.959 . S
C472 C470 1.561 . S
C473 C470 1.526 . S
C473 C474 1.396 . S
C473 C478 1.390 1_455 S
C474 C468 1.465 . S
C474 C473 1.396 . S
C474 C475 1.399 1_455 S
C475 H461 0.929 . S
C475 C474 1.399 1_655 S
C475 C476 1.385 . S
C476 H462 0.931 . S
C476 C475 1.385 . S
C476 C477 1.389 . S
C477 C476 1.389 . S
C477 C478 1.387 . S
C478 H463 0.930 . S
C478 C473 1.390 1_655 S
C478 C477 1.387 . S
H479 C491 0.930 . S
H480 C493 0.930 . S
H481 C494 0.930 . S
H482 C498 0.959 . S
H483 C498 0.959 . S
H484 C498 0.961 . S
H485 C499 0.960 1_655 S
H486 C499 0.961 . S
H487 C499 0.959 . S
H488 C502 0.929 . S
H489 C503 0.931 . S
H490 C505 0.930 . S
C491 H479 0.930 . S
C491 C492 1.399 . S
C491 C496 1.399 . S
C492 C491 1.399 . S
C492 C493 1.376 1_655 S
C493 H480 0.930 . S
C493 C492 1.376 1_455 S
C493 C494 1.388 . S
C494 H481 0.930 . S
C494 C493 1.388 . S
C494 C495 1.390 . S
C495 C494 1.390 . S
C495 C496 1.394 1_455 S
C495 C501 1.465 . S
C496 C491 1.399 . S
C496 C495 1.394 1_655 S
C496 C497 1.516 . S
C497 C496 1.516 . S
C497 C498 1.502 . S
C497 C499 1.561 1_655 S
C497 C500 1.526 1_655 S
C498 H482 0.959 . S
C498 H483 0.959 . S
C498 H484 0.961 . S
C498 C497 1.502 . S
C499 H485 0.960 1_455 S
C499 H486 0.961 . S
C499 H487 0.959 . S
C499 C497 1.561 1_455 S
C500 C497 1.526 1_455 S
C500 C501 1.396 . S
C500 C505 1.390 . S
C501 C495 1.465 . S
C501 C500 1.396 . S
C501 C502 1.399 . S
C502 H488 0.929 . S
C502 C501 1.399 . S
C502 C503 1.385 . S
C503 H489 0.931 . S
C503 C502 1.385 . S
C503 C504 1.389 . S
C504 C503 1.389 . S
C504 C505 1.387 . S
C505 H490 0.930 . S
C505 C500 1.390 . S
C505 C504 1.387 . S
H506 C518 0.930 . S
H507 C520 0.930 . S
H508 C521 0.930 . S
H509 C525 0.959 . S
H510 C525 0.959 . S
H511 C525 0.961 . S
H512 C526 0.960 . S
H513 C526 0.959 1_655 S
H514 C526 0.959 . S
H515 C529 0.929 . S
H516 C530 0.931 . S
H517 C532 0.930 . S
C518 H506 0.930 . S
C518 C519 1.399 . S
C518 C523 1.399 1_455 S
C519 C518 1.399 . S
C519 C520 1.376 . S
C520 H507 0.930 . S
C520 C519 1.376 . S
C520 C521 1.388 . S
C521 H508 0.930 . S
C521 C520 1.388 . S
C521 C522 1.390 . S
C522 C521 1.390 . S
C522 C523 1.394 1_455 S
C522 C528 1.465 1_455 S
C523 C518 1.399 1_655 S
C523 C522 1.394 1_655 S
C523 C524 1.516 . S
C524 C523 1.516 . S
C524 C525 1.502 . S
C524 C526 1.561 1_655 S
C524 C527 1.526 . S
C525 H509 0.959 . S
C525 H510 0.959 . S
C525 H511 0.961 . S
C525 C524 1.502 . S
C526 H512 0.960 . S
C526 H513 0.959 1_455 S
C526 H514 0.959 . S
C526 C524 1.561 1_455 S
C527 C524 1.526 . S
C527 C528 1.396 . S
C527 C532 1.390 . S
C528 C522 1.465 1_655 S
C528 C527 1.396 . S
C528 C529 1.399 . S
C529 H515 0.929 . S
C529 C528 1.399 . S
C529 C530 1.385 . S
C530 H516 0.931 . S
C530 C529 1.385 . S
C530 C531 1.389 . S
C531 C530 1.389 . S
C531 C532 1.387 . S
C532 H517 0.930 . S
C532 C527 1.390 . S
C532 C531 1.387 . S
H533 C545 0.930 . S
H534 C547 0.930 . S
H535 C548 0.930 . S
H536 C552 0.959 . S
H537 C552 0.959 . S
H538 C552 0.961 . S
H539 C553 0.960 . S
H540 C553 0.961 . S
H541 C553 0.959 . S
H542 C556 0.929 . S
H543 C557 0.931 . S
H544 C559 0.930 . S
C545 H533 0.930 . S
C545 C546 1.399 . S
C545 C550 1.399 . S
C546 C545 1.399 . S
C546 C547 1.376 . S
C547 H534 0.930 . S
C547 C546 1.376 . S
C547 C548 1.388 1_455 S
C548 H535 0.930 . S
C548 C547 1.388 1_655 S
C548 C549 1.390 . S
C549 C548 1.390 . S
C549 C550 1.394 1_655 S
C549 C555 1.465 . S
C550 C545 1.399 . S
C550 C549 1.394 1_455 S
C550 C551 1.516 1_455 S
C551 C550 1.516 1_655 S
C551 C552 1.502 1_655 S
C551 C553 1.561 . S
C551 C554 1.526 . S
C552 H536 0.959 . S
C552 H537 0.959 . S
C552 H538 0.961 . S
C552 C551 1.502 1_455 S
C553 H539 0.960 . S
C553 H540 0.961 . S
C553 H541 0.959 . S
C553 C551 1.561 . S
C554 C551 1.526 . S
C554 C555 1.396 . S
C554 C559 1.390 . S
C555 C549 1.465 . S
C555 C554 1.396 . S
C555 C556 1.399 . S
C556 H542 0.929 . S
C556 C555 1.399 . S
C556 C557 1.385 . S
C557 H543 0.931 . S
C557 C556 1.385 . S
C557 C558 1.389 . S
C558 C557 1.389 . S
C558 C559 1.387 . S
C559 H544 0.930 . S
C559 C554 1.390 . S
C559 C558 1.387 . S
C141 C20 0.890 . S
C153 C16 0.904 1_655 S
C168 C52 0.897 1_455 S
C180 C48 0.892 . S
C195 C84 0.903 . S
C207 C80 0.891 1_655 S
C222 C116 0.891 1_455 S
C234 C112 0.903 . S
C249 C51 1.486 1_554 S
C261 C23 1.414 . S
C276 C115 1.409 . S
C288 C87 1.486 . S
C303 C19 1.412 . S
C315 C55 1.476 1_556 S
C330 C119 1.446 . S
C342 C83 1.439 . S
C357 C117 1.702 . S
C369 C18 1.678 . S
C384 C53 1.705 . S
C396 C82 1.673 . S
C411 C81 1.698 . S
C423 C54 1.702 . S
C438 C17 1.698 . S
C450 C118 1.700 . S
C465 C85 1.699 . S
C477 C50 1.691 . S
C492 C114 1.655 . S
C504 C21 1.706 . S
C519 C22 1.680 . S
C531 C113 1.710 . S
C546 C86 1.670 . S
C558 C49 1.705 . S
