# Generated by pormake.
# Topology unc, (4)-cn, num edge types: 1
# Building blocks:
#     Node 0, Type 0, BuildingBlock: UXUYUI_clean_sbu_0, # of connection points: 4
#     Node 1, Type 0, BuildingBlock: UXUYUI_clean_sbu_0, # of connection points: 4
#     Node 2, Type 0, BuildingBlock: UXUYUI_clean_sbu_0, # of connection points: 4
#     Node 3, Type 0, BuildingBlock: UXUYUI_clean_sbu_0, # of connection points: 4
#     Edge 4, Type (0, 0), BuildingBlock: MIFKUJ_clean_linker_0, # of connection points: 2
#     Edge 5, Type (0, 0), BuildingBlock: MIFKUJ_clean_linker_0, # of connection points: 2
#     Edge 6, Type (0, 0), BuildingBlock: MIFKUJ_clean_linker_0, # of connection points: 2
#     Edge 7, Type (0, 0), BuildingBlock: MIFKUJ_clean_linker_0, # of connection points: 2
#     Edge 8, Type (0, 0), BuildingBlock: MIFKUJ_clean_linker_0, # of connection points: 2
#     Edge 9, Type (0, 0), BuildingBlock: MIFKUJ_clean_linker_0, # of connection points: 2
#     Edge 10, Type (0, 0), BuildingBlock: MIFKUJ_clean_linker_0, # of connection points: 2
#     Edge 11, Type (0, 0), BuildingBlock: MIFKUJ_clean_linker_0, # of connection points: 2
# Relax obj value: 0.184
# Max RMSD: 0.213
# Mean RMSD: 0.213
data_MOF--net-unc--node1-UXUYUI_clean_sbu_0--edge1-MIFKUJ_clean_linker_0
_symmetry_space_group_name_H-M    P1
_symmetry_Int_Tables_number       1
_symmetry_cell_setting            triclinic
loop_
_symmetry_equiv_pos_as_xyz
'x, y, z'
_cell_length_a     51.944381
_cell_length_b     51.959482
_cell_length_c     39.247964
_cell_angle_alpha  90.072444
_cell_angle_beta   89.996612
_cell_angle_gamma 90.007255
loop_
_atom_site_label
_atom_site_type_symbol
_atom_site_fract_x
_atom_site_fract_y
_atom_site_fract_z
_atom_type_partial_charge
Li0 Li 0.0168 0.67725 0.00801 0.0
Li1 Li 0.98541 0.64562 0.02805 0.0
Li2 Li 0.00481 0.64222 0.97147 0.0
Li3 Li 0.97336 0.67589 0.98477 0.0
C4 C 0.03849 0.62007 0.01341 0.0
N5 N 0.07064 0.57817 0.00511 0.0
C6 C 0.03336 0.59707 0.03055 0.0
C7 C 0.06006 0.62182 0.99224 0.0
C8 C 0.04984 0.57609 0.02598 0.0
C9 C 0.07604 0.6004 0.9883 0.0
C10 C 0.97603 0.68704 0.06454 0.0
C11 C 0.94303 0.68527 0.1077 0.0
N12 N 0.96075 0.6919 0.13167 0.0
C13 C 0.99391 0.6939 0.08958 0.0
C14 C 0.95036 0.68278 0.07362 0.0
C15 C 0.9858 0.69626 0.12338 0.0
C16 C 0.03704 0.72502 0.02694 0.0
N17 N 0.0434 0.69997 0.02176 0.0
C18 C 0.08678 0.70802 0.03883 0.0
C19 C 0.06768 0.69121 0.02734 0.0
C20 C 0.08072 0.734 0.0448 0.0
C21 C 0.05548 0.74247 0.03847 0.0
H22 H 0.01745 0.73132 0.02268 0.0
H23 H 0.07215 0.67115 0.02329 0.0
C24 C 0.95402 0.60952 0.06172 0.0
N25 N 0.9741 0.62599 0.06584 0.0
C26 C 0.94646 0.5935 0.08842 0.0
C27 C 0.98009 0.61211 0.12325 0.0
C28 C 0.98721 0.62751 0.09573 0.0
C29 C 0.95967 0.59463 0.11957 0.0
H30 H 0.94424 0.60839 0.03747 0.0
H31 H 0.00359 0.64025 0.09792 0.0
C32 C 0.02078 0.69886 0.9483 0.0
N33 N 0.05112 0.74 0.92902 0.0
C34 C 0.01041 0.72366 0.94731 0.0
C35 C 0.0465 0.69492 0.93924 0.0
C36 C 0.02608 0.74422 0.93753 0.0
C37 C 0.06155 0.71599 0.92965 0.0
C38 C 0.9457 0.63546 0.96739 0.0
C39 C 0.94578 0.62763 0.93331 0.0
C40 C 0.92239 0.64141 0.98334 0.0
C41 C 0.92249 0.62613 0.91562 0.0
C42 C 0.89951 0.63972 0.96476 0.0
N43 N 0.90004 0.63219 0.93156 0.0
C44 C 0.01311 0.59292 0.94464 0.0
C45 C 0.02335 0.62684 0.90667 0.0
C46 C 0.01956 0.57463 0.92011 0.0
N47 N 0.01534 0.61841 0.93765 0.0
C48 C 0.02943 0.60918 0.88103 0.0
C49 C 0.0275 0.5826 0.88751 0.0
H50 H 0.00606 0.5868 0.96924 0.0
H51 H 0.02436 0.64726 0.90159 0.0
C52 C 0.93472 0.71388 0.98736 0.0
N53 N 0.94667 0.69662 0.96668 0.0
C54 C 0.91609 0.73043 0.97421 0.0
C55 C 0.9222 0.71093 0.9188 0.0
C56 C 0.94096 0.69496 0.93295 0.0
C57 C 0.90972 0.72911 0.93949 0.0
H58 H 0.94002 0.71513 0.01393 0.0
H59 H 0.95128 0.68152 0.91696 0.0
O60 O 0.02246 0.64075 0.01734 0.0
O61 O 0.98364 0.68432 0.03137 0.0
O62 O 0.00595 0.67858 0.95863 0.0
O63 O 0.96833 0.63741 0.98502 0.0
H64 H 0.01675 0.59533 0.04698 0.0
H65 H 0.06421 0.63941 0.97859 0.0
H66 H 0.04606 0.55813 0.03897 0.0
H67 H 0.09269 0.60143 0.9718 0.0
H68 H 0.92326 0.68189 0.11511 0.0
H69 H 0.01389 0.69708 0.08309 0.0
H70 H 0.9363 0.67737 0.05458 0.0
H71 H -0.00056 0.70144 0.14305 0.0
H72 H 0.10604 0.70073 0.04307 0.0
H73 H 0.04984 0.76221 0.04326 0.0
H74 H 0.93063 0.58022 0.08468 0.0
H75 H 0.99102 0.61317 0.14671 0.0
H76 H 0.99057 0.72706 0.9544 0.0
H77 H 0.05481 0.67584 0.93992 0.0
H78 H 0.01837 0.76355 0.93683 0.0
H79 H 0.08153 0.71326 0.92277 0.0
H80 H 0.96364 0.62297 0.92054 0.0
H81 H 0.922 0.64752 0.0097 0.0
H82 H 0.92227 0.62022 0.88918 0.0
H83 H 0.88135 0.64444 0.97671 0.0
H84 H 0.01813 0.55446 0.92668 0.0
H85 H 0.03486 0.61637 0.85618 0.0
H86 H 0.90682 0.74419 0.99096 0.0
H87 H 0.91807 0.70962 0.89181 0.0
Li88 Li 0.3517 0.98415 0.27325 0.0
Li89 Li 0.3197 0.01764 0.26157 0.0
Li90 Li 0.316 0.97463 0.23696 0.0
Li91 Li 0.349 0.00461 0.2173 0.0
C92 C 0.29427 0.97091 0.29654 0.0
N93 N 0.2514 0.9427 0.31489 0.0
C94 C 0.27025 0.98288 0.29905 0.0
C95 C 0.29655 0.94465 0.3036 0.0
C96 C 0.2488 0.96827 0.30834 0.0
C97 C 0.27462 0.93071 0.31275 0.0
C98 C 0.36259 0.04283 0.27826 0.0
C99 C 0.36166 0.08918 0.28151 0.0
N100 N 0.37071 0.08796 0.31399 0.0
C101 C 0.37199 0.04203 0.31162 0.0
C102 C 0.35751 0.06658 0.26299 0.0
C103 C 0.37594 0.06506 0.32927 0.0
C104 C 0.40065 0.97454 0.29996 0.0
N105 N 0.37511 0.97186 0.30641 0.0
C106 C 0.38391 0.95501 0.36176 0.0
C107 C 0.36645 0.9622 0.33644 0.0
C108 C 0.41051 0.9577 0.35596 0.0
C109 C 0.41876 0.9672 0.32425 0.0
H110 H 0.40694 0.98278 0.27609 0.0
H111 H 0.34599 0.96077 0.34108 0.0
C112 C 0.28243 0.05689 0.26109 0.0
N113 N 0.3007 0.04534 0.28051 0.0
C114 C 0.26737 0.07664 0.27462 0.0
C115 C 0.29047 0.07245 0.32779 0.0
C116 C 0.30473 0.05244 0.31341 0.0
C117 C 0.27129 0.08476 0.30844 0.0
H118 H 0.27918 0.0504 0.23528 0.0
H119 H 0.31894 0.04246 0.32855 0.0
C120 C 0.37237 0.95062 0.23053 0.0
N121 N 0.41345 0.91737 0.23845 0.0
C122 C 0.39576 0.95565 0.21423 0.0
C123 C 0.36982 0.92859 0.25066 0.0
C124 C 0.41631 0.93862 0.21859 0.0
C125 C 0.39083 0.91206 0.25443 0.0
C126 C 0.30772 0.01698 0.18209 0.0
C127 C 0.30032 -8e-05 0.15632 0.0
C128 C 0.31253 0.04275 0.17418 0.0
C129 C 0.29805 0.00893 0.12293 0.0
C130 C 0.31009 0.051 0.14047 0.0
N131 N 0.30297 0.03406 0.11576 0.0
C132 C 0.26714 0.95656 0.21807 0.0
C133 C 0.30022 0.92522 0.21467 0.0
C134 C 0.24915 0.93903 0.2055 0.0
N135 N 0.2921 0.9494 0.22227 0.0
C136 C 0.28287 0.90704 0.20208 0.0
C137 C 0.257 0.91395 0.19705 0.0
H138 H 0.26134 0.97605 0.22404 0.0
H139 H 0.32025 0.92019 0.21771 0.0
C140 C 0.38565 0.03519 0.18297 0.0
N141 N 0.36866 0.01549 0.1793 0.0
C142 C 0.40147 0.04235 0.15585 0.0
C143 C 0.38171 0.00904 0.1216 0.0
C144 C 0.36647 0.00236 0.14948 0.0
C145 C 0.39967 0.0291 0.12475 0.0
H146 H 0.38733 0.04497 0.20716 0.0
H147 H 0.3533 0.98631 0.14763 0.0
O148 O 0.31539 0.98474 0.28672 0.0
O149 O 0.3584 0.02049 0.26065 0.0
O150 O 0.35211 0.96721 0.22688 0.0
O151 O 0.31044 0.00846 0.21484 0.0
H152 H 0.26815 0.00317 0.29357 0.0
H153 H 0.315 0.9351 0.30168 0.0
H154 H 0.23006 0.97724 0.31023 0.0
H155 H 0.27606 0.91033 0.31806 0.0
H156 H 0.35766 0.10768 0.27008 0.0
H157 H 0.376 0.02384 0.32388 0.0
H158 H 0.35021 0.06754 0.23721 0.0
H159 H 0.3831 0.06473 0.35514 0.0
H160 H 0.37658 0.94826 0.38598 0.0
H161 H 0.43901 0.96926 0.31832 0.0
H162 H 0.25241 0.08496 0.25892 0.0
H163 H 0.29447 0.07812 0.3538 0.0
H164 H 0.39813 0.97262 0.19863 0.0
H165 H 0.35192 0.9245 0.26366 0.0
H166 H 0.43456 0.94233 0.20625 0.0
H167 H 0.38918 0.89505 0.27014 0.0
H168 H 0.29668 0.97987 0.16194 0.0
H169 H 0.31827 0.05619 0.19383 0.0
H170 H 0.29247 0.99592 0.1027 0.0
H171 H 0.31388 0.07086 0.13395 0.0
H172 H 0.22934 0.94507 0.2023 0.0
H173 H 0.2898 0.88803 0.19541 0.0
H174 H 0.41509 0.05793 0.15923 0.0
H175 H 0.38009 -0.00195 0.09822 0.0
Li176 Li 0.00712 0.34839 0.52311 0.0
Li177 Li 0.97652 0.31565 0.5046 0.0
Li178 Li 0.0201 0.31691 0.48158 0.0
Li179 Li 0.98816 0.34942 0.46636 0.0
C180 C 0.01659 0.30928 0.56213 0.0
N181 N 0.03046 0.30933 0.63008 0.0
C182 C -0.00215 0.30622 0.58735 0.0
C183 C 0.04239 0.31228 0.57144 0.0
C184 C 0.00525 0.3063 0.62158 0.0
C185 C 0.04901 0.31229 0.60594 0.0
C186 C 0.95482 0.37317 0.50473 0.0
C187 C 0.91753 0.39181 0.47767 0.0
N188 N 0.92474 0.41544 0.48917 0.0
C189 C 0.96186 0.39764 0.51628 0.0
C190 C 0.93244 0.37021 0.48531 0.0
C191 C 0.94639 0.41876 0.50817 0.0
C192 C 0.04058 0.38085 0.56134 0.0
N193 N 0.01734 0.36886 0.5608 0.0
C194 C 0.00597 0.38748 0.61434 0.0
C195 C 0.00016 0.37175 0.5866 0.0
C196 C 0.02978 0.40033 0.6156 0.0
C197 C 0.0473 0.39665 0.58873 0.0
H198 H 0.05379 0.37842 0.54036 0.0
H199 H 0.98168 0.36219 0.58523 0.0
C200 C 0.95787 0.26838 0.52776 0.0
N201 N 0.95054 0.29281 0.52014 0.0
C202 C 0.94005 0.2509 0.5408 0.0
C203 C 0.90737 0.28395 0.53743 0.0
C204 C 0.9259 0.30087 0.5247 0.0
C205 C 0.91447 0.25869 0.54596 0.0
H206 H 0.97768 0.26261 0.52405 0.0
H207 H 0.9207 0.32051 0.51897 0.0
C208 C 0.04752 0.35769 0.46331 0.0
N209 N 0.09399 0.36169 0.42942 0.0
C210 C 0.04821 0.36614 0.42952 0.0
C211 C 0.07048 0.35134 0.47988 0.0
C212 C 0.0719 0.36805 0.41284 0.0
C213 C 0.09377 0.35344 0.46229 0.0
C214 C 0.97359 0.29114 0.44717 0.0
C215 C 0.98539 0.26698 0.44652 0.0
C216 C 0.94729 0.29323 0.44015 0.0
C217 C 0.97061 0.24523 0.43904 0.0
C218 C 0.93316 0.27102 0.43286 0.0
N219 N 0.94502 0.24768 0.43246 0.0
C220 C 0.05841 0.27871 0.48647 0.0
C221 C 0.05549 0.2987 0.43239 0.0
C222 C 0.07838 0.26296 0.47502 0.0
N223 N 0.04759 0.29624 0.46522 0.0
C224 C 0.07576 0.28373 0.42006 0.0
C225 C 0.08748 0.26543 0.44141 0.0
H226 H 0.05127 0.27669 0.51219 0.0
H227 H 0.04609 0.31236 0.41579 0.0
C228 C 0.98448 0.39721 0.43497 0.0
N229 N 0.97693 0.3723 0.43186 0.0
C230 C 0.97674 0.41541 0.41106 0.0
C231 C 0.95369 0.38193 0.38096 0.0
C232 C 0.9619 0.36433 0.40555 0.0
C233 C 0.96111 0.40787 0.38359 0.0
H234 H 0.99664 0.40288 0.45605 0.0
H235 H 0.95629 0.34436 0.40367 0.0
O236 O 0.00966 0.30996 0.52853 0.0
O237 O 0.97003 0.35233 0.51174 0.0
O238 O 0.02449 0.35552 0.48002 0.0
O239 O 0.98759 0.31259 0.45529 0.0
H240 H 0.97776 0.30417 0.58064 0.0
H241 H 0.05711 0.31484 0.55225 0.0
H242 H 0.99094 0.30407 0.64138 0.0
H243 H 0.06888 0.31473 0.61353 0.0
H244 H 0.90029 0.38982 0.46244 0.0
H245 H 0.97927 0.40041 0.53092 0.0
H246 H 0.92694 0.35152 0.47559 0.0
H247 H 0.95168 0.43782 0.51682 0.0
H248 H 0.99164 0.39009 0.63408 0.0
H249 H 0.06596 0.40593 0.58878 0.0
H250 H 0.94622 0.23152 0.54682 0.0
H251 H 0.8879 0.29076 0.54144 0.0
H252 H 0.03066 0.37093 0.41616 0.0
H253 H 0.0703 0.34441 0.50585 0.0
H254 H 0.07271 0.37448 0.38666 0.0
H255 H 0.11165 0.34842 0.47473 0.0
H256 H 0.00569 0.26497 0.45203 0.0
H257 H 0.93778 0.31174 0.44092 0.0
H258 H 0.97946 0.22639 0.43859 0.0
H259 H 0.91276 0.27232 0.42765 0.0
H260 H 0.08621 0.2487 0.49222 0.0
H261 H 0.08218 0.28664 0.39411 0.0
H262 H 0.98337 0.43508 0.41371 0.0
H263 H 0.94157 0.37535 0.36026 0.0
Li264 Li 0.64394 0.00607 0.77302 0.0
Li265 Li 0.67696 0.97653 0.75843 0.0
Li266 Li 0.67718 0.01972 0.73676 0.0
Li267 Li 0.64403 0.98959 0.71607 0.0
C268 C 0.68508 0.00289 0.81797 0.0
N269 N 0.69387 0.99043 0.88541 0.0
C270 C 0.67039 0.98379 0.83383 0.0
C271 C 0.70425 0.01561 0.83642 0.0
C272 C 0.67513 0.97778 0.86794 0.0
C273 C 0.7084 0.00905 0.87049 0.0
C274 C 0.63327 0.94504 0.75114 0.0
C275 C 0.64072 0.90667 0.7179 0.0
N276 N 0.62149 0.89459 0.73514 0.0
C277 C 0.61356 0.93227 0.76845 0.0
C278 C 0.64696 0.93217 0.72558 0.0
C279 C 0.60791 0.90675 0.76003 0.0
C280 C 0.59662 0.00561 0.8061 0.0
N281 N 0.62053 0.01609 0.80776 0.0
C282 C 0.6091 0.04012 0.85742 0.0
C283 C 0.62708 0.03313 0.83262 0.0
C284 C 0.58422 0.02955 0.85637 0.0
C285 C 0.57806 0.01212 0.83023 0.0
H286 H 0.592 0.99222 0.78588 0.0
H287 H 0.64617 0.04142 0.83303 0.0
C288 C 0.7245 0.95348 0.77076 0.0
N289 N 0.69877 0.94975 0.77451 0.0
C290 C 0.74193 0.93517 0.78273 0.0
C291 C 0.70605 0.90971 0.8028 0.0
C292 C 0.68934 0.9286 0.79066 0.0
C293 C 0.73272 0.91288 0.79885 0.0
H294 H 0.73146 0.97089 0.75885 0.0
H295 H 0.6689 0.92651 0.79474 0.0
C296 C 0.62373 0.04458 0.74063 0.0
N297 N 0.59009 0.08138 0.76514 0.0
C298 C 0.59746 0.04284 0.73334 0.0
C299 C 0.63294 0.06513 0.76016 0.0
C300 C 0.58074 0.06161 0.74604 0.0
C301 C 0.61561 0.08352 0.77235 0.0
C302 C 0.69693 0.99509 0.68393 0.0
C303 C 0.68698 0.01284 0.66063 0.0
C304 C 0.72233 0.98661 0.68049 0.0
C305 C 0.70273 0.02205 0.63451 0.0
C306 C 0.73746 0.99625 0.65398 0.0
N307 N 0.72744 0.01366 0.63177 0.0
C308 C 0.72517 0.04363 0.72796 0.0
C309 C 0.68982 0.06769 0.70692 0.0
C310 C 0.74246 0.06178 0.71521 0.0
N311 N 0.69946 0.04676 0.72323 0.0
C312 C 0.70638 0.0865 0.69421 0.0
C313 C 0.73316 0.08353 0.6978 0.0
H314 H 0.73223 0.02657 0.74066 0.0
H315 H 0.66929 0.06947 0.70305 0.0
C316 C 0.59744 0.97569 0.68596 0.0
N317 N 0.62305 0.97809 0.67967 0.0
C318 C 0.58078 0.96756 0.66024 0.0
C319 C 0.6173 0.96386 0.62232 0.0
C320 C 0.63328 0.97185 0.64887 0.0
C321 C 0.59066 0.96189 0.62779 0.0
H322 H 0.58998 0.9802 0.71099 0.0
H323 H 0.6538 0.97301 0.64487 0.0
O324 O 0.68107 0.00912 0.78451 0.0
O325 O 0.63868 0.97013 0.75901 0.0
O326 O 0.64033 0.02603 0.72924 0.0
O327 O 0.68203 0.98653 0.71035 0.0
H328 H 0.65546 0.97368 0.8201 0.0
H329 H 0.71583 0.0304 0.82448 0.0
H330 H 0.6639 0.96305 0.88051 0.0
H331 H 0.72318 0.01876 0.88507 0.0
H332 H 0.65116 0.89647 0.69823 0.0
H333 H 0.60274 0.94198 0.78823 0.0
H334 H 0.66226 0.94166 0.71182 0.0
H335 H 0.59271 0.89663 0.77326 0.0
H336 H 0.61453 0.05381 0.87698 0.0
H337 H 0.55922 0.00324 0.82878 0.0
H338 H 0.76237 0.93835 0.77924 0.0
H339 H 0.69823 0.89309 0.81581 0.0
H340 H 0.59002 0.02711 0.71821 0.0
H341 H 0.65319 0.0666 0.76634 0.0
H342 H 0.56034 0.06044 0.74076 0.0
H343 H 0.62243 0.09942 0.78772 0.0
H344 H 0.6674 0.01974 0.66307 0.0
H345 H 0.7303 0.97273 0.69807 0.0
H346 H 0.69535 0.03596 0.61651 0.0
H347 H 0.75718 0.98992 0.65109 0.0
H348 H 0.7629 0.05835 0.71811 0.0
H349 H 0.69824 0.10309 0.68148 0.0
H350 H 0.56033 0.96635 0.66542 0.0
H351 H 0.62567 0.95923 0.59779 0.0
H352 H 0.95292 0.54282 0.11504 0.0
H353 H 0.9462 0.51243 0.16158 0.0
H354 H 0.94512 0.57536 0.23351 0.0
H355 H 0.95265 0.60579 0.18693 0.0
H356 H 0.97515 0.53979 0.25574 0.0
H357 H 0.88955 0.5397 0.21208 0.0
H358 H 0.85551 0.53669 0.16848 0.0
H359 H 0.87804 0.459 0.14603 0.0
H360 H 0.91247 0.46164 0.18916 0.0
H361 H 0.94546 0.45761 0.39329 0.0
H362 H 0.93826 0.49042 0.34971 0.0
H363 H 0.95228 0.43413 0.27103 0.0
H364 H 0.9599 0.40127 0.31442 0.0
H365 H 0.91185 0.46825 0.25535 0.0
H366 H 7e-05 0.47101 0.29544 0.0
H367 H 0.03362 0.47429 0.33969 0.0
H368 H 0.00453 0.54831 0.36959 0.0
H369 H 0.97055 0.54527 0.32581 0.0
C370 C 0.9508 0.55018 0.14072 0.0
C371 C 0.95326 0.57661 0.14746 0.0
C372 C 0.94686 0.53281 0.16731 0.0
C373 C 0.94478 0.54161 0.20106 0.0
C374 C 0.94664 0.56812 0.20769 0.0
C375 C 0.95095 0.58547 0.18114 0.0
C376 C 0.94272 0.52298 0.22957 0.0
C377 C 0.9609 0.52452 0.25596 0.0
C378 C 0.92451 0.50267 0.22959 0.0
C379 C 0.90373 0.50094 0.20371 0.0
C380 C 0.88737 0.52203 0.19769 0.0
C381 C 0.86798 0.52038 0.17308 0.0
C382 C 0.86465 0.49769 0.15445 0.0
C383 C 0.88066 0.47657 0.16046 0.0
C384 C 0.90009 0.47812 0.18503 0.0
C385 C 0.9469 0.45219 0.3667 0.0
C386 C 0.9536 0.42693 0.35729 0.0
C387 C 0.94264 0.47091 0.34188 0.0
C388 C 0.94505 0.46472 0.30723 0.0
C389 C 0.95029 0.43924 0.29768 0.0
C390 C 0.95461 0.42049 0.3225 0.0
C391 C 0.94427 0.48518 0.28109 0.0
C392 C 0.92573 0.48386 0.2552 0.0
C393 C 0.96201 0.50583 0.28157 0.0
C394 C 0.98261 0.50779 0.30762 0.0
C395 C 0.00071 0.48789 0.31162 0.0
C396 C 0.01982 0.48972 0.33659 0.0
C397 C 0.02116 0.51147 0.3575 0.0
C398 C 0.00344 0.53146 0.35341 0.0
C399 C 0.98426 0.5297 0.32852 0.0
H400 H 0.03596 0.51285 0.37683 0.0
H401 H 0.84963 0.49646 0.1354 0.0
H402 H 0.45499 0.98374 0.37041 0.0
H403 H 0.48568 0.97535 0.41585 0.0
H404 H 0.43942 0.91174 0.45072 0.0
H405 H 0.40891 0.91922 0.40416 0.0
H406 H 0.45418 0.94813 0.50236 0.0
H407 H 0.49264 0.89655 0.41558 0.0
H408 H 0.50891 0.88686 0.35797 0.0
H409 H 0.565 0.94716 0.36741 0.0
H410 H 0.5488 0.95749 0.42489 0.0
H411 H 0.55063 0.92763 0.62845 0.0
H412 H 0.52021 0.91857 0.58223 0.0
H413 H 0.56048 0.97233 0.51756 0.0
H414 H 0.59111 0.98098 0.56331 0.0
H415 H 0.54704 0.93181 0.48192 0.0
H416 H 0.5046 0.98848 0.56223 0.0
H417 H 0.48794 0.00115 0.61867 0.0
H418 H 0.43919 0.93441 0.62023 0.0
H419 H 0.45583 0.92118 0.56395 0.0
C420 C 0.45152 0.96754 0.38711 0.0
C421 C 0.42948 0.95204 0.38334 0.0
C422 C 0.46906 0.96289 0.41324 0.0
C423 C 0.46488 0.94281 0.43637 0.0
C424 C 0.44294 0.9273 0.43298 0.0
C425 C 0.42548 0.93173 0.4065 0.0
C426 C 0.48306 0.93906 0.46489 0.0
C427 C 0.4744 0.94393 0.49809 0.0
C428 C 0.50945 0.93413 0.45902 0.0
C429 C 0.51938 0.92789 0.4245 0.0
C430 C 0.50832 0.90788 0.40529 0.0
C431 C 0.51755 0.90225 0.37266 0.0
C432 C 0.53795 0.91641 0.35902 0.0
C433 C 0.54919 0.93621 0.37801 0.0
C434 C 0.54002 0.94193 0.41064 0.0
C435 C 0.55299 0.93739 0.60428 0.0
C436 C 0.57314 0.95507 0.59945 0.0
C437 C 0.53563 0.93222 0.57793 0.0
C438 C 0.53787 0.94503 0.54658 0.0
C439 C 0.55841 0.96215 0.54148 0.0
C440 C 0.57591 0.96708 0.56763 0.0
C441 C 0.51834 0.94164 0.51938 0.0
C442 C 0.52675 0.93544 0.48639 0.0
C443 C 0.49175 0.9457 0.52537 0.0
C444 C 0.48169 0.95368 0.55912 0.0
C445 C 0.49047 0.97641 0.57474 0.0
C446 C 0.48101 0.98371 0.60667 0.0
C447 C 0.46258 0.96855 0.62307 0.0
C448 C 0.45351 0.9461 0.60753 0.0
C449 C 0.46294 0.9387 0.57562 0.0
H450 H 0.45528 0.97424 0.64779 0.0
H451 H 0.54507 0.91203 0.33375 0.0
H452 H 0.06298 0.58524 0.83538 0.0
H453 H 0.06918 0.55455 0.78878 0.0
H454 H 0.01101 0.50516 0.8317 0.0
H455 H 0.00338 0.53621 0.87706 0.0
H456 H 0.06078 0.48051 0.80932 0.0
H457 H 0.99145 0.53751 0.77275 0.0
H458 H 0.9729 0.58017 0.76038 0.0
H459 H 0.0329 0.59457 0.68757 0.0
H460 H 0.05202 0.5521 0.69994 0.0
H461 H 0.01793 0.39465 0.68321 0.0
H462 H 0.02404 0.42584 0.72888 0.0
H463 H 0.06224 0.47722 0.6589 0.0
H464 H 0.0548 0.44674 0.61254 0.0
H465 H 0.02905 0.50294 0.69386 0.0
H466 H 0.09556 0.44465 0.72311 0.0
H467 H 0.11602 0.40281 0.73498 0.0
H468 H 0.06563 0.39157 0.8204 0.0
H469 H 0.04459 0.43319 0.80876 0.0
C470 C 0.05128 0.56801 0.83483 0.0
C471 C 0.03261 0.56335 0.86016 0.0
C472 C 0.05507 0.55039 0.80835 0.0
C473 C 0.04061 0.52765 0.80704 0.0
C474 C 0.02252 0.52254 0.83259 0.0
C475 C 0.01834 0.54032 0.85866 0.0
C476 C 0.04325 0.50966 0.77815 0.0
C477 C 0.05379 0.48524 0.78405 0.0
C478 C 0.03488 0.51635 0.7451 0.0
C479 C 0.02335 0.54181 0.7376 0.0
C480 C 0.00084 0.54989 0.75438 0.0
C481 C 0.99019 0.574 0.74731 0.0
C482 C 0.00177 0.59011 0.7233 0.0
C483 C 0.02398 0.5821 0.70623 0.0
C484 C 0.03473 0.55801 0.71325 0.0
C485 C 0.02757 0.4126 0.67745 0.0
C486 C 0.03574 0.41821 0.64412 0.0
C487 C 0.03141 0.43029 0.70375 0.0
C488 C 0.04391 0.45377 0.69746 0.0
C489 C 0.05263 0.45918 0.66439 0.0
C490 C 0.04858 0.4416 0.63797 0.0
C491 C 0.04622 0.4733 0.72492 0.0
C492 C 0.03654 0.49812 0.71885 0.0
C493 C 0.05576 0.46705 0.7577 0.0
C494 C 0.06836 0.44199 0.76489 0.0
C495 C 0.0887 0.43318 0.74427 0.0
C496 C 0.10043 0.40951 0.75099 0.0
C497 C 0.0921 0.39452 0.77838 0.0
C498 C 0.07205 0.4032 0.79917 0.0
C499 C 0.06024 0.42685 0.79255 0.0
H500 H 0.10121 0.3762 0.78354 0.0
H501 H 0.99348 0.60877 0.71784 0.0
H502 H 0.45155 0.03634 0.12803 0.0
H503 H 0.48138 0.04272 0.08072 0.0
H504 H 0.41773 0.04176 0.01001 0.0
H505 H 0.38782 0.03485 0.05737 0.0
H506 H 0.45408 0.01133 0.98854 0.0
H507 H 0.45197 0.09802 0.02897 0.0
H508 H 0.45453 0.13294 0.07143 0.0
H509 H 0.5331 0.11301 0.09275 0.0
H510 H 0.53092 0.07772 0.05075 0.0
H511 H 0.53312 0.04012 0.84745 0.0
H512 H 0.50048 0.04626 0.89163 0.0
H513 H 0.55893 0.03955 0.96918 0.0
H514 H 0.59169 0.03332 0.92514 0.0
H515 H 0.5233 0.07709 0.9845 0.0
H516 H 0.52359 0.98819 0.94804 0.0
H517 H 0.52105 0.95321 0.90564 0.0
H518 H 0.44521 0.97795 0.877 0.0
H519 H 0.44746 0.01333 0.91892 0.0
C520 C 0.44389 0.03796 0.10245 0.0
C521 C 0.41739 0.03513 0.09633 0.0
C522 C 0.46094 0.04167 0.07542 0.0
C523 C 0.45178 0.04305 0.04181 0.0
C524 C 0.42523 0.04078 0.03573 0.0
C525 C 0.40819 0.03679 0.06274 0.0
C526 C 0.47008 0.04494 0.0129 0.0
C527 C 0.46886 0.02607 0.98733 0.0
C528 C 0.48977 0.06378 0.01171 0.0
C529 C 0.49121 0.08509 0.03687 0.0
C530 C 0.46974 0.10096 0.04288 0.0
C531 C 0.47113 0.12084 0.06684 0.0
C532 C 0.49395 0.12516 0.08482 0.0
C533 C 0.51544 0.10964 0.07881 0.0
C534 C 0.51414 0.08971 0.05489 0.0
C535 C 0.53902 0.04005 0.87392 0.0
C536 C 0.56491 0.03593 0.88287 0.0
C537 C 0.52039 0.04366 0.89909 0.0
C538 C 0.52727 0.043 0.93365 0.0
C539 C 0.55326 0.04014 0.94263 0.0
C540 C 0.57193 0.0366 0.91745 0.0
C541 C 0.50723 0.04349 0.96045 0.0
C542 C 0.50823 0.06266 0.98561 0.0
C543 C 0.48727 0.02497 0.96131 0.0
C544 C 0.4858 0.00356 0.93634 0.0
C545 C 0.50645 0.98628 0.93252 0.0
C546 C 0.50505 0.96637 0.9086 0.0
C547 C 0.48301 0.9634 0.88857 0.0
C548 C 0.46229 0.9803 0.89249 0.0
C549 C 0.46361 0.00027 0.91633 0.0
H550 H 0.48197 0.94798 0.87006 0.0
H551 H 0.49498 0.14056 0.10337 0.0
H552 H 0.25164 0.86274 0.21165 0.0
H553 H 0.22218 0.83193 0.1851 0.0
H554 H 0.19139 0.89233 0.12172 0.0
H555 H 0.22077 0.92321 0.14812 0.0
H556 H 0.15365 0.86306 0.14714 0.0
H557 H 0.23394 0.84868 0.08986 0.0
H558 H 0.28042 0.83959 0.08574 0.0
H559 H 0.26911 0.76683 0.1353 0.0
H560 H 0.22258 0.77566 0.14016 0.0
H561 H 0.08899 0.78429 0.02707 0.0
H562 H 0.11941 0.81457 0.05267 0.0
H563 H 0.14723 0.75478 0.11932 0.0
H564 H 0.11663 0.72447 0.09423 0.0
H565 H 0.18653 0.78355 0.09208 0.0
H566 H 0.10603 0.79833 0.14926 0.0
H567 H 0.05955 0.80757 0.15266 0.0
H568 H 0.07141 0.87993 0.10233 0.0
H569 H 0.11795 0.87095 0.09817 0.0
C570 C 0.23867 0.86941 0.19194 0.0
C571 C 0.23856 0.89538 0.18192 0.0
C572 C 0.22186 0.85181 0.17681 0.0
C573 C 0.20482 0.85979 0.15114 0.0
C574 C 0.20437 0.88578 0.1415 0.0
C575 C 0.2211 0.9034 0.15669 0.0
C576 C 0.18745 0.84107 0.13429 0.0
C577 C 0.16087 0.84585 0.13471 0.0
C578 C 0.19686 0.81836 0.11868 0.0
C579 C 0.22481 0.81295 0.11568 0.0
C580 C 0.24139 0.83083 0.10012 0.0
C581 C 0.26774 0.82571 0.09762 0.0
C582 C 0.27773 0.80268 0.11034 0.0
C583 C 0.26136 0.78468 0.12551 0.0
C584 C 0.23499 0.78972 0.12812 0.0
C585 C 0.1015 0.7776 0.04727 0.0
C586 C 0.10027 0.752 0.05875 0.0
C587 C 0.11891 0.7949 0.06179 0.0
C588 C 0.13534 0.78696 0.08814 0.0
C589 C 0.13472 0.76126 0.09898 0.0
C590 C 0.11728 0.74395 0.08452 0.0
C591 C 0.15279 0.8056 0.10491 0.0
C592 C 0.17936 0.80079 0.1045 0.0
C593 C 0.14339 0.82832 0.12044 0.0
C594 C 0.11544 0.83384 0.1231 0.0
C595 C 0.0987 0.81612 0.13867 0.0
C596 C 0.07235 0.82132 0.14078 0.0
C597 C 0.06252 0.84429 0.12764 0.0
C598 C 0.07904 0.86213 0.11246 0.0
C599 C 0.10541 0.857 0.11024 0.0
H600 H 0.04211 0.84829 0.1293 0.0
H601 H 0.29813 0.79874 0.10837 0.0
H602 H 0.2541 0.08868 0.37451 0.0
H603 H 0.22615 0.12145 0.39879 0.0
H604 H 0.22142 0.15905 0.30103 0.0
H605 H 0.25118 0.1276 0.27715 0.0
H606 H 0.22317 0.19388 0.34696 0.0
H607 H 0.17301 0.11754 0.33253 0.0
H608 H 0.16194 0.07162 0.3385 0.0
H609 H 0.15939 0.07996 0.44731 0.0
H610 H 0.17079 0.12589 0.442 0.0
H611 H 0.0937 0.24563 0.3769 0.0
H612 H 0.12806 0.21762 0.35628 0.0
H613 H 0.16254 0.21737 0.45607 0.0
H614 H 0.1293 0.24681 0.47667 0.0
H615 H 0.14598 0.16484 0.41077 0.0
H616 H 0.19776 0.24373 0.42066 0.0
H617 H 0.2053 0.2898 0.40933 0.0
H618 H 0.20004 0.27585 0.30168 0.0
H619 H 0.19206 0.22974 0.31246 0.0
C620 C 0.24766 0.1042 0.35823 0.0
C621 C 0.25486 0.10527 0.32368 0.0
C622 C 0.23129 0.12275 0.37211 0.0
C623 C 0.22114 0.14239 0.35157 0.0
C624 C 0.22882 0.14397 0.31736 0.0
C625 C 0.2456 0.12571 0.30361 0.0
C626 C 0.2021 0.16095 0.36554 0.0
C627 C 0.20626 0.18742 0.36073 0.0
C628 C 0.17994 0.15268 0.38359 0.0
C629 C 0.17302 0.12508 0.38688 0.0
C630 C 0.17027 0.10954 0.35774 0.0
C631 C 0.16391 0.08351 0.361 0.0
C632 C 0.16003 0.07286 0.39327 0.0
C633 C 0.16244 0.08823 0.42233 0.0
C634 C 0.16883 0.11426 0.41922 0.0
C635 C 0.10886 0.24022 0.3944 0.0
C636 C 0.10861 0.24863 0.42855 0.0
C637 C 0.12835 0.22402 0.38256 0.0
C638 C 0.14773 0.21563 0.40469 0.0
C639 C 0.14766 0.22378 0.4387 0.0
C640 C 0.12847 0.2404 0.45044 0.0
C641 C 0.16741 0.19741 0.39248 0.0
C642 C 0.16314 0.17108 0.39733 0.0
C643 C 0.18908 0.20574 0.37386 0.0
C644 C 0.19398 0.23339 0.36739 0.0
C645 C 0.1979 0.25055 0.3946 0.0
C646 C 0.20234 0.27665 0.38828 0.0
C647 C 0.20306 0.28577 0.35481 0.0
C648 C 0.19942 0.26878 0.3276 0.0
C649 C 0.19496 0.24266 0.3338 0.0
H650 H 0.20651 0.30598 0.34996 0.0
H651 H 0.1551 0.05271 0.39574 0.0
H652 H 0.77952 0.10026 0.72327 0.0
H653 H 0.80979 0.13009 0.69702 0.0
H654 H 0.75762 0.14091 0.61269 0.0
H655 H 0.72808 0.10969 0.6375 0.0
H656 H 0.80362 0.13642 0.58926 0.0
H657 H 0.76579 0.18684 0.6782 0.0
H658 H 0.75214 0.19715 0.73683 0.0
H659 H 0.83072 0.19389 0.7705 0.0
H660 H 0.84481 0.18321 0.71213 0.0
H661 H 0.86503 0.24962 0.52525 0.0
H662 H 0.83364 0.22029 0.55106 0.0
H663 H 0.88969 0.19819 0.62664 0.0
H664 H 0.92107 0.22759 0.60116 0.0
H665 H 0.84121 0.2094 0.65396 0.0
H666 H 0.87803 0.15864 0.56313 0.0
H667 H 0.89044 0.14981 0.50361 0.0
H668 H 0.81142 0.15593 0.47255 0.0
H669 H 0.79858 0.16518 0.53185 0.0
C670 C 0.77455 0.10874 0.69895 0.0
C671 C 0.75124 0.10255 0.68262 0.0
C672 C 0.79176 0.12611 0.68419 0.0
C673 C 0.78581 0.13813 0.65314 0.0
C674 C 0.76259 0.13201 0.63676 0.0
C675 C 0.74554 0.11435 0.65124 0.0
C676 C 0.80404 0.15661 0.63731 0.0
C677 C 0.8115 0.1526 0.60331 0.0
C678 C 0.81472 0.1775 0.65573 0.0
C679 C 0.80632 0.18399 0.69085 0.0
C680 C 0.78014 0.18814 0.69815 0.0
C681 C 0.77233 0.19408 0.73133 0.0
C682 C 0.79055 0.19611 0.75739 0.0
C683 C 0.81663 0.19228 0.7503 0.0
C684 C 0.82454 0.18631 0.71717 0.0
C685 C 0.87059 0.23856 0.54744 0.0
C686 C 0.89549 0.24078 0.56114 0.0
C687 C 0.85273 0.22174 0.56201 0.0
C688 C 0.85945 0.207 0.59061 0.0
C689 C 0.88419 0.20939 0.60454 0.0
C690 C 0.90212 0.22601 0.58982 0.0
C691 C 0.84066 0.18911 0.60613 0.0
C692 C 0.83316 0.19325 0.64001 0.0
C693 C 0.82969 0.16855 0.5875 0.0
C694 C 0.83738 0.16286 0.55187 0.0
C695 C 0.86333 0.15832 0.54357 0.0
C696 C 0.87044 0.1532 0.50988 0.0
C697 C 0.85174 0.15238 0.4843 0.0
C698 C 0.82589 0.15661 0.49238 0.0
C699 C 0.81868 0.16177 0.52603 0.0
H700 H 0.85728 0.14841 0.45823 0.0
H701 H 0.78446 0.20071 0.78306 0.0
H702 H 0.77687 0.92091 0.83504 0.0
H703 H 0.80656 0.88856 0.85727 0.0
H704 H 0.75922 0.82826 0.81483 0.0
H705 H 0.72925 0.8606 0.79286 0.0
H706 H 0.77346 0.81611 0.87731 0.0
H707 H 0.81643 0.84581 0.77736 0.0
H708 H 0.83467 0.87771 0.73766 0.0
H709 H 0.88733 0.90321 0.81497 0.0
H710 H 0.86915 0.8717 0.85532 0.0
H711 H 0.86968 0.71818 0.8967 0.0
H712 H 0.83897 0.74864 0.87162 0.0
H713 H 0.87681 0.8113 0.92359 0.0
H714 H 0.90752 0.78101 0.94866 0.0
H715 H 0.86724 0.82065 0.85399 0.0
H716 H 0.82242 0.79079 0.9541 0.0
H717 H 0.80412 0.75788 0.9923 0.0
H718 H 0.75493 0.7312 0.91174 0.0
H719 H 0.77323 0.76373 0.87289 0.0
C720 C 0.77293 0.90077 0.83019 0.0
C721 C 0.75083 0.89327 0.81207 0.0
C722 C 0.7899 0.8823 0.84289 0.0
C723 C 0.7853 0.856 0.83729 0.0
C724 C 0.76314 0.84845 0.81943 0.0
C725 C 0.74604 0.86691 0.80694 0.0
C726 C 0.80347 0.8364 0.85053 0.0
C727 C 0.7939 0.81688 0.87175 0.0
C728 C 0.83021 0.8376 0.84369 0.0
C729 C 0.84126 0.85654 0.81946 0.0
C730 C 0.83177 0.85835 0.78599 0.0
C731 C 0.84212 0.87634 0.76335 0.0
C732 C 0.8621 0.89252 0.77381 0.0
C733 C 0.87183 0.89069 0.80692 0.0
C734 C 0.86152 0.87275 0.82967 0.0
C735 C 0.87142 0.73847 0.90268 0.0
C736 C 0.89087 0.74728 0.92469 0.0
C737 C 0.85385 0.75578 0.88851 0.0
C738 C 0.85562 0.78215 0.89593 0.0
C739 C 0.87515 0.791 0.91763 0.0
C740 C 0.89253 0.77369 0.9321 0.0
C741 C 0.83722 0.80063 0.8809 0.0
C742 C 0.84676 0.81988 0.85933 0.0
C743 C 0.81046 0.79902 0.88714 0.0
C744 C 0.7994 0.7795 0.91049 0.0
C745 C 0.80788 0.77775 0.94444 0.0
C746 C 0.79747 0.7592 0.96623 0.0
C747 C 0.77843 0.74241 0.95442 0.0
C748 C 0.76971 0.74419 0.92083 0.0
C749 C 0.78008 0.76269 0.89892 0.0
H750 H 0.77039 0.72807 0.97133 0.0
H751 H 0.8701 0.90643 0.75625 0.0
loop_
_geom_bond_atom_site_label_1
_geom_bond_atom_site_label_2
_geom_bond_distance
_geom_bond_site_symmetry_2
_ccdc_geom_bond_type
Li0 N17 1.990 . S
Li0 O60 1.956 . S
Li0 O61 1.970 1_455 S
Li0 O62 1.961 1_554 S
Li1 N25 1.990 . S
Li1 O60 1.970 1_655 S
Li1 O61 1.956 . S
Li1 O63 1.961 1_554 S
Li2 N47 1.990 . S
Li2 O60 1.961 1_556 S
Li2 O62 1.956 . S
Li2 O63 1.970 1_455 S
Li3 N53 1.990 . S
Li3 O61 1.961 1_556 S
Li3 O62 1.970 1_655 S
Li3 O63 1.956 . S
C4 C6 1.348 . S
C4 C7 1.356 1_554 S
C4 O60 1.325 . S
N5 C8 1.314 . S
N5 C9 1.279 . S
C6 C4 1.348 . S
C6 C8 1.353 . S
C6 H64 0.929 . S
C7 C4 1.356 1_556 S
C7 C9 1.358 1_556 S
C7 H65 0.930 . S
C8 N5 1.314 . S
C8 C6 1.353 . S
C8 H66 0.930 . S
C9 N5 1.279 . S
C9 C7 1.358 1_554 S
C9 H67 0.930 1_554 S
C10 C13 1.348 1_655 S
C10 C14 1.356 . S
C10 O61 1.325 . S
C11 N12 1.279 . S
C11 C14 1.358 . S
C11 H68 0.930 . S
N12 C11 1.279 . S
N12 C15 1.314 . S
C13 C10 1.348 1_455 S
C13 C15 1.353 1_455 S
C13 H69 0.929 . S
C14 C10 1.356 . S
C14 C11 1.358 . S
C14 H70 0.930 . S
C15 N12 1.314 . S
C15 C13 1.353 1_655 S
C15 H71 0.930 1_655 S
C16 N17 1.314 . S
C16 C21 1.353 . S
C16 H22 0.930 1_554 S
N17 Li0 1.990 . S
N17 C16 1.314 . S
N17 C19 1.279 . S
C18 C19 1.358 . S
C18 C20 1.356 . S
C18 H72 0.930 . S
C19 N17 1.279 . S
C19 C18 1.358 . S
C19 H23 0.930 . S
C20 C18 1.356 . S
C20 C21 1.348 . S
C21 C16 1.353 . S
C21 C20 1.348 . S
C21 H73 0.929 . S
H22 C16 0.930 1_556 S
H23 C19 0.930 . S
C24 N25 1.314 . S
C24 C26 1.353 . S
C24 H30 0.930 . S
N25 Li1 1.990 . S
N25 C24 1.314 . S
N25 C28 1.279 . S
C26 C24 1.353 . S
C26 C29 1.348 . S
C26 H74 0.929 . S
C27 C28 1.358 . S
C27 C29 1.356 . S
C27 H75 0.930 . S
C28 N25 1.279 . S
C28 C27 1.358 . S
C28 H31 0.930 . S
C29 C26 1.348 . S
C29 C27 1.356 . S
H30 C24 0.930 . S
H31 C28 0.930 . S
C32 C34 1.348 1_455 S
C32 C35 1.356 . S
C32 O62 1.325 . S
N33 C36 1.314 . S
N33 C37 1.279 . S
C34 C32 1.348 1_655 S
C34 C36 1.353 1_655 S
C34 H76 0.929 . S
C35 C32 1.356 . S
C35 C37 1.358 . S
C35 H77 0.930 . S
C36 N33 1.314 . S
C36 C34 1.353 1_455 S
C36 H78 0.930 1_455 S
C37 N33 1.279 . S
C37 C35 1.358 . S
C37 H79 0.930 . S
C38 C39 1.348 . S
C38 C40 1.356 1_556 S
C38 O63 1.325 . S
C39 C38 1.348 . S
C39 C41 1.353 . S
C39 H80 0.929 . S
C40 C38 1.356 1_554 S
C40 C42 1.358 1_554 S
C40 H81 0.930 . S
C41 C39 1.353 . S
C41 N43 1.314 . S
C41 H82 0.930 . S
C42 C40 1.358 1_556 S
C42 N43 1.279 . S
C42 H83 0.930 1_556 S
N43 C41 1.314 . S
N43 C42 1.279 . S
C44 C46 1.353 . S
C44 N47 1.314 . S
C44 H50 0.930 . S
C45 N47 1.279 . S
C45 C48 1.358 . S
C45 H51 0.930 . S
C46 C44 1.353 . S
C46 C49 1.348 . S
C46 H84 0.929 . S
N47 Li2 1.990 . S
N47 C44 1.314 . S
N47 C45 1.279 . S
C48 C45 1.358 . S
C48 C49 1.356 . S
C48 H85 0.930 . S
C49 C46 1.348 . S
C49 C48 1.356 . S
H50 C44 0.930 . S
H51 C45 0.930 . S
C52 N53 1.314 . S
C52 C54 1.353 . S
C52 H58 0.930 1_556 S
N53 Li3 1.990 . S
N53 C52 1.314 . S
N53 C56 1.279 . S
C54 C52 1.353 . S
C54 C57 1.348 . S
C54 H86 0.929 . S
C55 C56 1.358 . S
C55 C57 1.356 . S
C55 H87 0.930 . S
C56 N53 1.279 . S
C56 C55 1.358 . S
C56 H59 0.930 . S
C57 C54 1.348 . S
C57 C55 1.356 . S
H58 C52 0.930 1_554 S
H59 C56 0.930 . S
O60 Li0 1.956 . S
O60 Li1 1.970 1_455 S
O60 Li2 1.961 1_554 S
O60 C4 1.325 . S
O61 Li0 1.970 1_655 S
O61 Li1 1.956 . S
O61 Li3 1.961 1_554 S
O61 C10 1.325 . S
O62 Li0 1.961 1_556 S
O62 Li2 1.956 . S
O62 Li3 1.970 1_455 S
O62 C32 1.325 . S
O63 Li1 1.961 1_556 S
O63 Li2 1.970 1_655 S
O63 Li3 1.956 . S
O63 C38 1.325 . S
H64 C6 0.929 . S
H65 C7 0.930 . S
H66 C8 0.930 . S
H67 C9 0.930 1_556 S
H68 C11 0.930 . S
H69 C13 0.929 . S
H70 C14 0.930 . S
H71 C15 0.930 1_455 S
H72 C18 0.930 . S
H73 C21 0.929 . S
H74 C26 0.929 . S
H75 C27 0.930 . S
H76 C34 0.929 . S
H77 C35 0.930 . S
H78 C36 0.930 1_655 S
H79 C37 0.930 . S
H80 C39 0.929 . S
H81 C40 0.930 . S
H82 C41 0.930 . S
H83 C42 0.930 1_554 S
H84 C46 0.929 . S
H85 C48 0.930 . S
H86 C54 0.929 . S
H87 C55 0.930 . S
Li88 N105 1.990 . S
Li88 O148 1.956 . S
Li88 O149 1.970 1_565 S
Li88 O150 1.961 . S
Li89 N113 1.990 . S
Li89 O148 1.970 1_545 S
Li89 O149 1.956 . S
Li89 O151 1.961 . S
Li90 N135 1.990 . S
Li90 O148 1.961 . S
Li90 O150 1.956 . S
Li90 O151 1.970 1_565 S
Li91 N141 1.990 . S
Li91 O149 1.961 . S
Li91 O150 1.970 1_545 S
Li91 O151 1.956 . S
C92 C94 1.348 1_565 S
C92 C95 1.356 . S
C92 O148 1.325 . S
N93 C96 1.314 . S
N93 C97 1.279 . S
C94 C92 1.348 1_545 S
C94 C96 1.353 1_545 S
C94 H152 0.929 . S
C95 C92 1.356 . S
C95 C97 1.358 . S
C95 H153 0.930 . S
C96 N93 1.314 . S
C96 C94 1.353 1_565 S
C96 H154 0.930 1_565 S
C97 N93 1.279 . S
C97 C95 1.358 . S
C97 H155 0.930 . S
C98 C101 1.348 . S
C98 C102 1.356 . S
C98 O149 1.325 . S
C99 N100 1.279 . S
C99 C102 1.358 . S
C99 H156 0.930 . S
N100 C99 1.279 . S
N100 C103 1.314 . S
C101 C98 1.348 . S
C101 C103 1.353 . S
C101 H157 0.929 . S
C102 C98 1.356 . S
C102 C99 1.358 . S
C102 H158 0.930 . S
C103 N100 1.314 . S
C103 C101 1.353 . S
C103 H159 0.930 . S
C104 N105 1.314 . S
C104 C109 1.353 . S
C104 H110 0.930 . S
N105 Li88 1.990 . S
N105 C104 1.314 . S
N105 C107 1.279 . S
C106 C107 1.358 . S
C106 C108 1.356 . S
C106 H160 0.930 . S
C107 N105 1.279 . S
C107 C106 1.358 . S
C107 H111 0.930 . S
C108 C106 1.356 . S
C108 C109 1.348 . S
C109 C104 1.353 . S
C109 C108 1.348 . S
C109 H161 0.929 . S
H110 C104 0.930 . S
H111 C107 0.930 . S
C112 N113 1.314 . S
C112 C114 1.353 . S
C112 H118 0.930 . S
N113 Li89 1.990 . S
N113 C112 1.314 . S
N113 C116 1.279 . S
C114 C112 1.353 . S
C114 C117 1.348 . S
C114 H162 0.929 . S
C115 C116 1.358 . S
C115 C117 1.356 . S
C115 H163 0.930 . S
C116 N113 1.279 . S
C116 C115 1.358 . S
C116 H119 0.930 . S
C117 C114 1.348 . S
C117 C115 1.356 . S
H118 C112 0.930 . S
H119 C116 0.930 . S
C120 C122 1.348 . S
C120 C123 1.356 . S
C120 O150 1.325 . S
N121 C124 1.314 . S
N121 C125 1.279 . S
C122 C120 1.348 . S
C122 C124 1.353 . S
C122 H164 0.929 . S
C123 C120 1.356 . S
C123 C125 1.358 . S
C123 H165 0.930 . S
C124 N121 1.314 . S
C124 C122 1.353 . S
C124 H166 0.930 . S
C125 N121 1.279 . S
C125 C123 1.358 . S
C125 H167 0.930 . S
C126 C127 1.348 1_545 S
C126 C128 1.356 . S
C126 O151 1.325 . S
C127 C126 1.348 1_565 S
C127 C129 1.353 1_565 S
C127 H168 0.929 . S
C128 C126 1.356 . S
C128 C130 1.358 . S
C128 H169 0.930 . S
C129 C127 1.353 1_545 S
C129 N131 1.314 . S
C129 H170 0.930 1_545 S
C130 C128 1.358 . S
C130 N131 1.279 . S
C130 H171 0.930 . S
N131 C129 1.314 . S
N131 C130 1.279 . S
C132 C134 1.353 . S
C132 N135 1.314 . S
C132 H138 0.930 . S
C133 N135 1.279 . S
C133 C136 1.358 . S
C133 H139 0.930 . S
C134 C132 1.353 . S
C134 C137 1.348 . S
C134 H172 0.929 . S
N135 Li90 1.990 . S
N135 C132 1.314 . S
N135 C133 1.279 . S
C136 C133 1.358 . S
C136 C137 1.356 . S
C136 H173 0.930 . S
C137 C134 1.348 . S
C137 C136 1.356 . S
H138 C132 0.930 . S
H139 C133 0.930 . S
C140 N141 1.314 . S
C140 C142 1.353 . S
C140 H146 0.930 . S
N141 Li91 1.990 . S
N141 C140 1.314 . S
N141 C144 1.279 . S
C142 C140 1.353 . S
C142 C145 1.348 . S
C142 H174 0.929 . S
C143 C144 1.358 . S
C143 C145 1.356 . S
C143 H175 0.930 . S
C144 N141 1.279 . S
C144 C143 1.358 . S
C144 H147 0.930 . S
C145 C142 1.348 . S
C145 C143 1.356 . S
H146 C140 0.930 . S
H147 C144 0.930 . S
O148 Li88 1.956 . S
O148 Li89 1.970 1_565 S
O148 Li90 1.961 . S
O148 C92 1.325 . S
O149 Li88 1.970 1_545 S
O149 Li89 1.956 . S
O149 Li91 1.961 . S
O149 C98 1.325 . S
O150 Li88 1.961 . S
O150 Li90 1.956 . S
O150 Li91 1.970 1_565 S
O150 C120 1.325 . S
O151 Li89 1.961 . S
O151 Li90 1.970 1_545 S
O151 Li91 1.956 . S
O151 C126 1.325 . S
H152 C94 0.929 . S
H153 C95 0.930 . S
H154 C96 0.930 1_545 S
H155 C97 0.930 . S
H156 C99 0.930 . S
H157 C101 0.929 . S
H158 C102 0.930 . S
H159 C103 0.930 . S
H160 C106 0.930 . S
H161 C109 0.929 . S
H162 C114 0.929 . S
H163 C115 0.930 . S
H164 C122 0.929 . S
H165 C123 0.930 . S
H166 C124 0.930 . S
H167 C125 0.930 . S
H168 C127 0.929 . S
H169 C128 0.930 . S
H170 C129 0.930 1_565 S
H171 C130 0.930 . S
H172 C134 0.929 . S
H173 C136 0.930 . S
H174 C142 0.929 . S
H175 C143 0.930 . S
Li176 N193 1.990 . S
Li176 O236 1.956 . S
Li176 O237 1.970 1_455 S
Li176 O238 1.961 . S
Li177 N201 1.990 . S
Li177 O236 1.970 1_655 S
Li177 O237 1.956 . S
Li177 O239 1.961 . S
Li178 N223 1.990 . S
Li178 O236 1.961 . S
Li178 O238 1.956 . S
Li178 O239 1.970 1_455 S
Li179 N229 1.990 . S
Li179 O237 1.961 . S
Li179 O238 1.970 1_655 S
Li179 O239 1.956 . S
C180 C182 1.348 1_455 S
C180 C183 1.356 . S
C180 O236 1.325 . S
N181 C184 1.314 . S
N181 C185 1.279 . S
C182 C180 1.348 1_655 S
C182 C184 1.353 1_655 S
C182 H240 0.929 . S
C183 C180 1.356 . S
C183 C185 1.358 . S
C183 H241 0.930 . S
C184 N181 1.314 . S
C184 C182 1.353 1_455 S
C184 H242 0.930 1_455 S
C185 N181 1.279 . S
C185 C183 1.358 . S
C185 H243 0.930 . S
C186 C189 1.348 . S
C186 C190 1.356 . S
C186 O237 1.325 . S
C187 N188 1.279 . S
C187 C190 1.358 . S
C187 H244 0.930 . S
N188 C187 1.279 . S
N188 C191 1.314 . S
C189 C186 1.348 . S
C189 C191 1.353 . S
C189 H245 0.929 . S
C190 C186 1.356 . S
C190 C187 1.358 . S
C190 H246 0.930 . S
C191 N188 1.314 . S
C191 C189 1.353 . S
C191 H247 0.930 . S
C192 N193 1.314 . S
C192 C197 1.353 . S
C192 H198 0.930 . S
N193 Li176 1.990 . S
N193 C192 1.314 . S
N193 C195 1.279 . S
C194 C195 1.358 . S
C194 C196 1.356 . S
C194 H248 0.930 . S
C195 N193 1.279 . S
C195 C194 1.358 . S
C195 H199 0.930 . S
C196 C194 1.356 . S
C196 C197 1.348 . S
C197 C192 1.353 . S
C197 C196 1.348 . S
C197 H249 0.929 . S
H198 C192 0.930 . S
H199 C195 0.930 . S
C200 N201 1.314 . S
C200 C202 1.353 . S
C200 H206 0.930 . S
N201 Li177 1.990 . S
N201 C200 1.314 . S
N201 C204 1.279 . S
C202 C200 1.353 . S
C202 C205 1.348 . S
C202 H250 0.929 . S
C203 C204 1.358 . S
C203 C205 1.356 . S
C203 H251 0.930 . S
C204 N201 1.279 . S
C204 C203 1.358 . S
C204 H207 0.930 . S
C205 C202 1.348 . S
C205 C203 1.356 . S
H206 C200 0.930 . S
H207 C204 0.930 . S
C208 C210 1.348 . S
C208 C211 1.356 . S
C208 O238 1.325 . S
N209 C212 1.314 . S
N209 C213 1.279 . S
C210 C208 1.348 . S
C210 C212 1.353 . S
C210 H252 0.929 . S
C211 C208 1.356 . S
C211 C213 1.358 . S
C211 H253 0.930 . S
C212 N209 1.314 . S
C212 C210 1.353 . S
C212 H254 0.930 . S
C213 N209 1.279 . S
C213 C211 1.358 . S
C213 H255 0.930 . S
C214 C215 1.348 1_655 S
C214 C216 1.356 . S
C214 O239 1.325 . S
C215 C214 1.348 1_455 S
C215 C217 1.353 1_455 S
C215 H256 0.929 . S
C216 C214 1.356 . S
C216 C218 1.358 . S
C216 H257 0.930 . S
C217 C215 1.353 1_655 S
C217 N219 1.314 . S
C217 H258 0.930 1_655 S
C218 C216 1.358 . S
C218 N219 1.279 . S
C218 H259 0.930 . S
N219 C217 1.314 . S
N219 C218 1.279 . S
C220 C222 1.353 . S
C220 N223 1.314 . S
C220 H226 0.930 . S
C221 N223 1.279 . S
C221 C224 1.358 . S
C221 H227 0.930 . S
C222 C220 1.353 . S
C222 C225 1.348 . S
C222 H260 0.929 . S
N223 Li178 1.990 . S
N223 C220 1.314 . S
N223 C221 1.279 . S
C224 C221 1.358 . S
C224 C225 1.356 . S
C224 H261 0.930 . S
C225 C222 1.348 . S
C225 C224 1.356 . S
H226 C220 0.930 . S
H227 C221 0.930 . S
C228 N229 1.314 . S
C228 C230 1.353 . S
C228 H234 0.930 . S
N229 Li179 1.990 . S
N229 C228 1.314 . S
N229 C232 1.279 . S
C230 C228 1.353 . S
C230 C233 1.348 . S
C230 H262 0.929 . S
C231 C232 1.358 . S
C231 C233 1.356 . S
C231 H263 0.930 . S
C232 N229 1.279 . S
C232 C231 1.358 . S
C232 H235 0.930 . S
C233 C230 1.348 . S
C233 C231 1.356 . S
H234 C228 0.930 . S
H235 C232 0.930 . S
O236 Li176 1.956 . S
O236 Li177 1.970 1_455 S
O236 Li178 1.961 . S
O236 C180 1.325 . S
O237 Li176 1.970 1_655 S
O237 Li177 1.956 . S
O237 Li179 1.961 . S
O237 C186 1.325 . S
O238 Li176 1.961 . S
O238 Li178 1.956 . S
O238 Li179 1.970 1_455 S
O238 C208 1.325 . S
O239 Li177 1.961 . S
O239 Li178 1.970 1_655 S
O239 Li179 1.956 . S
O239 C214 1.325 . S
H240 C182 0.929 . S
H241 C183 0.930 . S
H242 C184 0.930 1_655 S
H243 C185 0.930 . S
H244 C187 0.930 . S
H245 C189 0.929 . S
H246 C190 0.930 . S
H247 C191 0.930 . S
H248 C194 0.930 . S
H249 C197 0.929 . S
H250 C202 0.929 . S
H251 C203 0.930 . S
H252 C210 0.929 . S
H253 C211 0.930 . S
H254 C212 0.930 . S
H255 C213 0.930 . S
H256 C215 0.929 . S
H257 C216 0.930 . S
H258 C217 0.930 1_455 S
H259 C218 0.930 . S
H260 C222 0.929 . S
H261 C224 0.930 . S
H262 C230 0.929 . S
H263 C231 0.930 . S
Li264 N281 1.990 . S
Li264 O324 1.956 . S
Li264 O325 1.970 1_545 S
Li264 O326 1.961 . S
Li265 N289 1.990 . S
Li265 O324 1.970 1_565 S
Li265 O325 1.956 . S
Li265 O327 1.961 . S
Li266 N311 1.990 . S
Li266 O324 1.961 . S
Li266 O326 1.956 . S
Li266 O327 1.970 1_545 S
Li267 N317 1.990 . S
Li267 O325 1.961 . S
Li267 O326 1.970 1_565 S
Li267 O327 1.956 . S
C268 C270 1.348 1_545 S
C268 C271 1.356 . S
C268 O324 1.325 . S
N269 C272 1.314 . S
N269 C273 1.279 . S
C270 C268 1.348 1_565 S
C270 C272 1.353 1_565 S
C270 H328 0.929 . S
C271 C268 1.356 . S
C271 C273 1.358 . S
C271 H329 0.930 . S
C272 N269 1.314 . S
C272 C270 1.353 1_545 S
C272 H330 0.930 1_545 S
C273 N269 1.279 . S
C273 C271 1.358 . S
C273 H331 0.930 . S
C274 C277 1.348 . S
C274 C278 1.356 . S
C274 O325 1.325 . S
C275 N276 1.279 . S
C275 C278 1.358 . S
C275 H332 0.930 . S
N276 C275 1.279 . S
N276 C279 1.314 . S
C277 C274 1.348 . S
C277 C279 1.353 . S
C277 H333 0.929 . S
C278 C274 1.356 . S
C278 C275 1.358 . S
C278 H334 0.930 . S
C279 N276 1.314 . S
C279 C277 1.353 . S
C279 H335 0.930 . S
C280 N281 1.314 . S
C280 C285 1.353 . S
C280 H286 0.930 . S
N281 Li264 1.990 . S
N281 C280 1.314 . S
N281 C283 1.279 . S
C282 C283 1.358 . S
C282 C284 1.356 . S
C282 H336 0.930 . S
C283 N281 1.279 . S
C283 C282 1.358 . S
C283 H287 0.930 . S
C284 C282 1.356 . S
C284 C285 1.348 . S
C285 C280 1.353 . S
C285 C284 1.348 . S
C285 H337 0.929 . S
H286 C280 0.930 . S
H287 C283 0.930 . S
C288 N289 1.314 . S
C288 C290 1.353 . S
C288 H294 0.930 . S
N289 Li265 1.990 . S
N289 C288 1.314 . S
N289 C292 1.279 . S
C290 C288 1.353 . S
C290 C293 1.348 . S
C290 H338 0.929 . S
C291 C292 1.358 . S
C291 C293 1.356 . S
C291 H339 0.930 . S
C292 N289 1.279 . S
C292 C291 1.358 . S
C292 H295 0.930 . S
C293 C290 1.348 . S
C293 C291 1.356 . S
H294 C288 0.930 . S
H295 C292 0.930 . S
C296 C298 1.348 . S
C296 C299 1.356 . S
C296 O326 1.325 . S
N297 C300 1.314 . S
N297 C301 1.279 . S
C298 C296 1.348 . S
C298 C300 1.353 . S
C298 H340 0.929 . S
C299 C296 1.356 . S
C299 C301 1.358 . S
C299 H341 0.930 . S
C300 N297 1.314 . S
C300 C298 1.353 . S
C300 H342 0.930 . S
C301 N297 1.279 . S
C301 C299 1.358 . S
C301 H343 0.930 . S
C302 C303 1.348 1_565 S
C302 C304 1.356 . S
C302 O327 1.325 . S
C303 C302 1.348 1_545 S
C303 C305 1.353 1_545 S
C303 H344 0.929 . S
C304 C302 1.356 . S
C304 C306 1.358 . S
C304 H345 0.930 . S
C305 C303 1.353 1_565 S
C305 N307 1.314 . S
C305 H346 0.930 1_565 S
C306 C304 1.358 . S
C306 N307 1.279 . S
C306 H347 0.930 . S
N307 C305 1.314 . S
N307 C306 1.279 . S
C308 C310 1.353 . S
C308 N311 1.314 . S
C308 H314 0.930 . S
C309 N311 1.279 . S
C309 C312 1.358 . S
C309 H315 0.930 . S
C310 C308 1.353 . S
C310 C313 1.348 . S
C310 H348 0.929 . S
N311 Li266 1.990 . S
N311 C308 1.314 . S
N311 C309 1.279 . S
C312 C309 1.358 . S
C312 C313 1.356 . S
C312 H349 0.930 . S
C313 C310 1.348 . S
C313 C312 1.356 . S
H314 C308 0.930 . S
H315 C309 0.930 . S
C316 N317 1.314 . S
C316 C318 1.353 . S
C316 H322 0.930 . S
N317 Li267 1.990 . S
N317 C316 1.314 . S
N317 C320 1.279 . S
C318 C316 1.353 . S
C318 C321 1.348 . S
C318 H350 0.929 . S
C319 C320 1.358 . S
C319 C321 1.356 . S
C319 H351 0.930 . S
C320 N317 1.279 . S
C320 C319 1.358 . S
C320 H323 0.930 . S
C321 C318 1.348 . S
C321 C319 1.356 . S
H322 C316 0.930 . S
H323 C320 0.930 . S
O324 Li264 1.956 . S
O324 Li265 1.970 1_545 S
O324 Li266 1.961 . S
O324 C268 1.325 . S
O325 Li264 1.970 1_565 S
O325 Li265 1.956 . S
O325 Li267 1.961 . S
O325 C274 1.325 . S
O326 Li264 1.961 . S
O326 Li266 1.956 . S
O326 Li267 1.970 1_545 S
O326 C296 1.325 . S
O327 Li265 1.961 . S
O327 Li266 1.970 1_565 S
O327 Li267 1.956 . S
O327 C302 1.325 . S
H328 C270 0.929 . S
H329 C271 0.930 . S
H330 C272 0.930 1_565 S
H331 C273 0.930 . S
H332 C275 0.930 . S
H333 C277 0.929 . S
H334 C278 0.930 . S
H335 C279 0.930 . S
H336 C282 0.930 . S
H337 C285 0.929 . S
H338 C290 0.929 . S
H339 C291 0.930 . S
H340 C298 0.929 . S
H341 C299 0.930 . S
H342 C300 0.930 . S
H343 C301 0.930 . S
H344 C303 0.929 . S
H345 C304 0.930 . S
H346 C305 0.930 1_545 S
H347 C306 0.930 . S
H348 C310 0.929 . S
H349 C312 0.930 . S
H350 C318 0.929 . S
H351 C319 0.930 . S
H352 C370 0.951 . S
H353 C372 0.951 . S
H354 C374 0.950 . S
H355 C375 0.950 . S
H356 C377 0.950 . S
H357 C380 0.950 . S
H358 C381 0.950 . S
H359 C383 0.950 . S
H360 C384 0.950 . S
H361 C385 0.951 . S
H362 C387 0.951 . S
H363 C389 0.950 . S
H364 C390 0.950 . S
H365 C392 0.950 . S
H366 C395 0.950 . S
H367 C396 0.950 . S
H368 C398 0.950 . S
H369 C399 0.950 . S
C370 H352 0.951 . S
C370 C371 1.366 . S
C370 C372 1.388 . S
C371 C370 1.366 . S
C371 C375 1.385 . S
C372 H353 0.951 . S
C372 C370 1.388 . S
C372 C373 1.366 . S
C373 C372 1.366 . S
C373 C374 1.414 . S
C373 C376 1.499 . S
C374 H354 0.950 . S
C374 C373 1.414 . S
C374 C375 1.374 . S
C375 H355 0.950 . S
C375 C371 1.385 . S
C375 C374 1.374 . S
C376 C373 1.499 . S
C376 C377 1.373 . S
C376 C378 1.389 . S
C377 H356 0.950 . S
C377 C376 1.373 . S
C377 C393 1.377 . S
C378 C376 1.389 . S
C378 C379 1.524 . S
C378 C392 1.377 . S
C379 C378 1.524 . S
C379 C380 1.397 . S
C379 C384 1.363 . S
C380 H357 0.950 . S
C380 C379 1.397 . S
C380 C381 1.334 . S
C381 H358 0.950 . S
C381 C380 1.334 . S
C381 C382 1.287 . S
C382 C381 1.287 . S
C382 C383 1.524 . S
C382 H401 0.913 . S
C383 H359 0.950 . S
C383 C382 1.524 . S
C383 C384 1.415 . S
C384 H360 0.950 . S
C384 C379 1.363 . S
C384 C383 1.415 . S
C385 H361 0.951 . S
C385 C386 1.366 . S
C385 C387 1.388 . S
C386 C385 1.366 . S
C386 C390 1.385 . S
C387 H362 0.951 . S
C387 C385 1.388 . S
C387 C388 1.366 . S
C388 C387 1.366 . S
C388 C389 1.414 . S
C388 C391 1.499 . S
C389 H363 0.950 . S
C389 C388 1.414 . S
C389 C390 1.374 . S
C390 H364 0.950 . S
C390 C386 1.385 . S
C390 C389 1.374 . S
C391 C388 1.499 . S
C391 C392 1.373 . S
C391 C393 1.389 . S
C392 H365 0.950 . S
C392 C378 1.377 . S
C392 C391 1.373 . S
C393 C377 1.377 . S
C393 C391 1.389 . S
C393 C394 1.524 . S
C394 C393 1.524 . S
C394 C395 1.397 1_655 S
C394 C399 1.363 . S
C395 H366 0.950 . S
C395 C394 1.397 1_455 S
C395 C396 1.334 . S
C396 H367 0.950 . S
C396 C395 1.334 . S
C396 C397 1.287 . S
C397 C396 1.287 . S
C397 C398 1.524 1_455 S
C397 H400 0.999 . S
C398 H368 0.950 . S
C398 C397 1.524 1_655 S
C398 C399 1.415 . S
C399 H369 0.950 . S
C399 C394 1.363 . S
C399 C398 1.415 . S
H400 C397 0.999 . S
H401 C382 0.913 . S
H402 C420 0.951 . S
H403 C422 0.951 . S
H404 C424 0.950 . S
H405 C425 0.950 . S
H406 C427 0.950 . S
H407 C430 0.950 . S
H408 C431 0.950 . S
H409 C433 0.950 . S
H410 C434 0.950 . S
H411 C435 0.951 . S
H412 C437 0.951 . S
H413 C439 0.950 . S
H414 C440 0.950 . S
H415 C442 0.950 . S
H416 C445 0.950 . S
H417 C446 0.950 . S
H418 C448 0.950 . S
H419 C449 0.950 . S
C420 H402 0.951 . S
C420 C421 1.366 . S
C420 C422 1.388 . S
C421 C420 1.366 . S
C421 C425 1.385 . S
C422 H403 0.951 . S
C422 C420 1.388 . S
C422 C423 1.366 . S
C423 C422 1.366 . S
C423 C424 1.414 . S
C423 C426 1.499 . S
C424 H404 0.950 . S
C424 C423 1.414 . S
C424 C425 1.374 . S
C425 H405 0.950 . S
C425 C421 1.385 . S
C425 C424 1.374 . S
C426 C423 1.499 . S
C426 C427 1.373 . S
C426 C428 1.389 . S
C427 H406 0.950 . S
C427 C426 1.373 . S
C427 C443 1.377 . S
C428 C426 1.389 . S
C428 C429 1.524 . S
C428 C442 1.377 . S
C429 C428 1.524 . S
C429 C430 1.397 . S
C429 C434 1.363 . S
C430 H407 0.950 . S
C430 C429 1.397 . S
C430 C431 1.334 . S
C431 H408 0.950 . S
C431 C430 1.334 . S
C431 C432 1.287 . S
C432 C431 1.287 . S
C432 C433 1.524 . S
C432 H451 0.913 . S
C433 H409 0.950 . S
C433 C432 1.524 . S
C433 C434 1.415 . S
C434 H410 0.950 . S
C434 C429 1.363 . S
C434 C433 1.415 . S
C435 H411 0.951 . S
C435 C436 1.366 . S
C435 C437 1.388 . S
C436 C435 1.366 . S
C436 C440 1.385 . S
C437 H412 0.951 . S
C437 C435 1.388 . S
C437 C438 1.366 . S
C438 C437 1.366 . S
C438 C439 1.414 . S
C438 C441 1.499 . S
C439 H413 0.950 . S
C439 C438 1.414 . S
C439 C440 1.374 . S
C440 H414 0.950 . S
C440 C436 1.385 . S
C440 C439 1.374 . S
C441 C438 1.499 . S
C441 C442 1.373 . S
C441 C443 1.389 . S
C442 H415 0.950 . S
C442 C428 1.377 . S
C442 C441 1.373 . S
C443 C427 1.377 . S
C443 C441 1.389 . S
C443 C444 1.524 . S
C444 C443 1.524 . S
C444 C445 1.397 1_565 S
C444 C449 1.363 . S
C445 H416 0.950 . S
C445 C444 1.397 1_545 S
C445 C446 1.334 . S
C446 H417 0.950 . S
C446 C445 1.334 . S
C446 C447 1.287 . S
C447 C446 1.287 . S
C447 C448 1.524 1_545 S
C447 H450 0.999 . S
C448 H418 0.950 . S
C448 C447 1.524 1_565 S
C448 C449 1.415 . S
C449 H419 0.950 . S
C449 C444 1.363 . S
C449 C448 1.415 . S
H450 C447 0.999 . S
H451 C432 0.913 . S
H452 C470 0.951 . S
H453 C472 0.951 . S
H454 C474 0.950 . S
H455 C475 0.950 . S
H456 C477 0.950 . S
H457 C480 0.950 . S
H458 C481 0.950 . S
H459 C483 0.950 . S
H460 C484 0.950 . S
H461 C485 0.951 . S
H462 C487 0.951 . S
H463 C489 0.950 . S
H464 C490 0.950 . S
H465 C492 0.952 1_655 S
H466 C495 0.950 . S
H467 C496 0.950 . S
H468 C498 0.950 . S
H469 C499 0.950 . S
C470 H452 0.951 . S
C470 C471 1.366 . S
C470 C472 1.388 . S
C471 C470 1.366 . S
C471 C475 1.385 . S
C472 H453 0.951 . S
C472 C470 1.388 . S
C472 C473 1.366 . S
C473 C472 1.366 . S
C473 C474 1.414 . S
C473 C476 1.499 . S
C474 H454 0.950 . S
C474 C473 1.414 . S
C474 C475 1.374 . S
C475 H455 0.950 . S
C475 C471 1.385 . S
C475 C474 1.374 . S
C476 C473 1.499 . S
C476 C477 1.373 . S
C476 C478 1.389 . S
C477 H456 0.950 . S
C477 C476 1.373 . S
C477 C493 1.377 . S
C478 C476 1.389 . S
C478 C479 1.524 1_455 S
C478 C492 1.377 . S
C479 C478 1.524 1_655 S
C479 C480 1.397 . S
C479 C484 1.363 . S
C480 H457 0.950 . S
C480 C479 1.397 . S
C480 C481 1.334 . S
C481 H458 0.950 . S
C481 C480 1.334 . S
C481 C482 1.287 . S
C482 C481 1.287 . S
C482 C483 1.524 . S
C482 H501 0.913 . S
C483 H459 0.950 . S
C483 C482 1.524 . S
C483 C484 1.415 . S
C484 H460 0.950 . S
C484 C479 1.363 . S
C484 C483 1.415 . S
C485 H461 0.951 . S
C485 C486 1.366 . S
C485 C487 1.388 . S
C486 C485 1.366 . S
C486 C490 1.385 . S
C487 H462 0.951 . S
C487 C485 1.388 . S
C487 C488 1.366 . S
C488 C487 1.366 . S
C488 C489 1.414 . S
C488 C491 1.499 . S
C489 H463 0.950 . S
C489 C488 1.414 . S
C489 C490 1.374 . S
C490 H464 0.950 . S
C490 C486 1.385 . S
C490 C489 1.374 . S
C491 C488 1.499 . S
C491 C492 1.373 . S
C491 C493 1.389 . S
C492 H465 0.952 1_455 S
C492 C478 1.377 . S
C492 C491 1.373 . S
C493 C477 1.377 . S
C493 C491 1.389 . S
C493 C494 1.524 . S
C494 C493 1.524 . S
C494 C495 1.397 . S
C494 C499 1.363 . S
C495 H466 0.950 . S
C495 C494 1.397 . S
C495 C496 1.334 . S
C496 H467 0.950 . S
C496 C495 1.334 . S
C496 C497 1.287 . S
C497 C496 1.287 . S
C497 C498 1.524 . S
C497 H500 0.999 . S
C498 H468 0.950 . S
C498 C497 1.524 . S
C498 C499 1.415 . S
C499 H469 0.950 . S
C499 C494 1.363 . S
C499 C498 1.415 . S
H500 C497 0.999 . S
H501 C482 0.913 . S
H502 C520 0.951 . S
H503 C522 0.951 . S
H504 C524 0.950 . S
H505 C525 0.950 . S
H506 C527 0.950 . S
H507 C530 0.950 . S
H508 C531 0.950 . S
H509 C533 0.950 . S
H510 C534 0.950 . S
H511 C535 0.951 . S
H512 C537 0.951 . S
H513 C539 0.950 . S
H514 C540 0.950 . S
H515 C542 0.950 . S
H516 C545 0.950 . S
H517 C546 0.950 . S
H518 C548 0.950 1_545 S
H519 C549 0.950 . S
C520 H502 0.951 . S
C520 C521 1.366 . S
C520 C522 1.388 . S
C521 C520 1.366 . S
C521 C525 1.385 . S
C522 H503 0.951 . S
C522 C520 1.388 . S
C522 C523 1.366 . S
C523 C522 1.366 . S
C523 C524 1.414 . S
C523 C526 1.499 . S
C524 H504 0.950 . S
C524 C523 1.414 . S
C524 C525 1.374 . S
C525 H505 0.950 . S
C525 C521 1.385 . S
C525 C524 1.374 . S
C526 C523 1.499 . S
C526 C527 1.373 1_554 S
C526 C528 1.389 . S
C527 H506 0.950 . S
C527 C526 1.373 1_556 S
C527 C543 1.377 . S
C528 C526 1.389 . S
C528 C529 1.524 . S
C528 C542 1.377 . S
C529 C528 1.524 . S
C529 C530 1.397 . S
C529 C534 1.363 . S
C530 H507 0.950 . S
C530 C529 1.397 . S
C530 C531 1.334 . S
C531 H508 0.950 . S
C531 C530 1.334 . S
C531 C532 1.287 . S
C532 C531 1.287 . S
C532 C533 1.524 . S
C532 H551 0.913 . S
C533 H509 0.950 . S
C533 C532 1.524 . S
C533 C534 1.415 . S
C534 H510 0.950 . S
C534 C529 1.363 . S
C534 C533 1.415 . S
C535 H511 0.951 . S
C535 C536 1.366 . S
C535 C537 1.388 . S
C536 C535 1.366 . S
C536 C540 1.385 . S
C537 H512 0.951 . S
C537 C535 1.388 . S
C537 C538 1.366 . S
C538 C537 1.366 . S
C538 C539 1.414 . S
C538 C541 1.499 . S
C539 H513 0.950 . S
C539 C538 1.414 . S
C539 C540 1.374 . S
C540 H514 0.950 . S
C540 C536 1.385 . S
C540 C539 1.374 . S
C541 C538 1.499 . S
C541 C542 1.373 1_556 S
C541 C543 1.389 . S
C542 H515 0.950 . S
C542 C528 1.377 . S
C542 C541 1.373 1_554 S
C543 C527 1.377 . S
C543 C541 1.389 . S
C543 C544 1.524 . S
C544 C543 1.524 . S
C544 C545 1.397 1_545 S
C544 C549 1.363 . S
C545 H516 0.950 . S
C545 C544 1.397 1_565 S
C545 C546 1.334 . S
C546 H517 0.950 . S
C546 C545 1.334 . S
C546 C547 1.287 . S
C547 C546 1.287 . S
C547 C548 1.524 . S
C547 H550 0.999 . S
C548 H518 0.950 1_565 S
C548 C547 1.524 . S
C548 C549 1.415 1_565 S
C549 H519 0.950 . S
C549 C544 1.363 . S
C549 C548 1.415 1_545 S
H550 C547 0.999 . S
H551 C532 0.913 . S
H552 C570 0.951 . S
H553 C572 0.951 . S
H554 C574 0.950 . S
H555 C575 0.950 . S
H556 C577 0.950 . S
H557 C580 0.950 . S
H558 C581 0.950 . S
H559 C583 0.950 . S
H560 C584 0.950 . S
H561 C585 0.951 . S
H562 C587 0.951 . S
H563 C589 0.950 . S
H564 C590 0.950 . S
H565 C592 0.950 . S
H566 C595 0.950 . S
H567 C596 0.950 . S
H568 C598 0.950 . S
H569 C599 0.950 . S
C570 H552 0.951 . S
C570 C571 1.366 . S
C570 C572 1.388 . S
C571 C570 1.366 . S
C571 C575 1.385 . S
C572 H553 0.951 . S
C572 C570 1.388 . S
C572 C573 1.366 . S
C573 C572 1.366 . S
C573 C574 1.414 . S
C573 C576 1.499 . S
C574 H554 0.950 . S
C574 C573 1.414 . S
C574 C575 1.374 . S
C575 H555 0.950 . S
C575 C571 1.385 . S
C575 C574 1.374 . S
C576 C573 1.499 . S
C576 C577 1.373 . S
C576 C578 1.389 . S
C577 H556 0.950 . S
C577 C576 1.373 . S
C577 C593 1.377 . S
C578 C576 1.389 . S
C578 C579 1.524 . S
C578 C592 1.377 . S
C579 C578 1.524 . S
C579 C580 1.397 . S
C579 C584 1.363 . S
C580 H557 0.950 . S
C580 C579 1.397 . S
C580 C581 1.334 . S
C581 H558 0.950 . S
C581 C580 1.334 . S
C581 C582 1.287 . S
C582 C581 1.287 . S
C582 C583 1.524 . S
C582 H601 0.913 . S
C583 H559 0.950 . S
C583 C582 1.524 . S
C583 C584 1.415 . S
C584 H560 0.950 . S
C584 C579 1.363 . S
C584 C583 1.415 . S
C585 H561 0.951 . S
C585 C586 1.366 . S
C585 C587 1.388 . S
C586 C585 1.366 . S
C586 C590 1.385 . S
C587 H562 0.951 . S
C587 C585 1.388 . S
C587 C588 1.366 . S
C588 C587 1.366 . S
C588 C589 1.414 . S
C588 C591 1.499 . S
C589 H563 0.950 . S
C589 C588 1.414 . S
C589 C590 1.374 . S
C590 H564 0.950 . S
C590 C586 1.385 . S
C590 C589 1.374 . S
C591 C588 1.499 . S
C591 C592 1.373 . S
C591 C593 1.389 . S
C592 H565 0.950 . S
C592 C578 1.377 . S
C592 C591 1.373 . S
C593 C577 1.377 . S
C593 C591 1.389 . S
C593 C594 1.524 . S
C594 C593 1.524 . S
C594 C595 1.397 . S
C594 C599 1.363 . S
C595 H566 0.950 . S
C595 C594 1.397 . S
C595 C596 1.334 . S
C596 H567 0.950 . S
C596 C595 1.334 . S
C596 C597 1.287 . S
C597 C596 1.287 . S
C597 C598 1.524 . S
C597 H600 0.999 . S
C598 H568 0.950 . S
C598 C597 1.524 . S
C598 C599 1.415 . S
C599 H569 0.950 . S
C599 C594 1.363 . S
C599 C598 1.415 . S
H600 C597 0.999 . S
H601 C582 0.913 . S
H602 C620 0.951 . S
H603 C622 0.951 . S
H604 C624 0.950 . S
H605 C625 0.950 . S
H606 C627 0.950 . S
H607 C630 0.950 . S
H608 C631 0.950 . S
H609 C633 0.950 . S
H610 C634 0.950 . S
H611 C635 0.951 . S
H612 C637 0.951 . S
H613 C639 0.950 . S
H614 C640 0.950 . S
H615 C642 0.950 . S
H616 C645 0.950 . S
H617 C646 0.950 . S
H618 C648 0.950 . S
H619 C649 0.950 . S
C620 H602 0.951 . S
C620 C621 1.366 . S
C620 C622 1.388 . S
C621 C620 1.366 . S
C621 C625 1.385 . S
C622 H603 0.951 . S
C622 C620 1.388 . S
C622 C623 1.366 . S
C623 C622 1.366 . S
C623 C624 1.414 . S
C623 C626 1.499 . S
C624 H604 0.950 . S
C624 C623 1.414 . S
C624 C625 1.374 . S
C625 H605 0.950 . S
C625 C621 1.385 . S
C625 C624 1.374 . S
C626 C623 1.499 . S
C626 C627 1.373 . S
C626 C628 1.389 . S
C627 H606 0.950 . S
C627 C626 1.373 . S
C627 C643 1.377 . S
C628 C626 1.389 . S
C628 C629 1.524 . S
C628 C642 1.377 . S
C629 C628 1.524 . S
C629 C630 1.397 . S
C629 C634 1.363 . S
C630 H607 0.950 . S
C630 C629 1.397 . S
C630 C631 1.334 . S
C631 H608 0.950 . S
C631 C630 1.334 . S
C631 C632 1.287 . S
C632 C631 1.287 . S
C632 C633 1.524 . S
C632 H651 0.913 . S
C633 H609 0.950 . S
C633 C632 1.524 . S
C633 C634 1.415 . S
C634 H610 0.950 . S
C634 C629 1.363 . S
C634 C633 1.415 . S
C635 H611 0.951 . S
C635 C636 1.366 . S
C635 C637 1.388 . S
C636 C635 1.366 . S
C636 C640 1.385 . S
C637 H612 0.951 . S
C637 C635 1.388 . S
C637 C638 1.366 . S
C638 C637 1.366 . S
C638 C639 1.414 . S
C638 C641 1.499 . S
C639 H613 0.950 . S
C639 C638 1.414 . S
C639 C640 1.374 . S
C640 H614 0.950 . S
C640 C636 1.385 . S
C640 C639 1.374 . S
C641 C638 1.499 . S
C641 C642 1.373 . S
C641 C643 1.389 . S
C642 H615 0.950 . S
C642 C628 1.377 . S
C642 C641 1.373 . S
C643 C627 1.377 . S
C643 C641 1.389 . S
C643 C644 1.524 . S
C644 C643 1.524 . S
C644 C645 1.397 . S
C644 C649 1.363 . S
C645 H616 0.950 . S
C645 C644 1.397 . S
C645 C646 1.334 . S
C646 H617 0.950 . S
C646 C645 1.334 . S
C646 C647 1.287 . S
C647 C646 1.287 . S
C647 C648 1.524 . S
C647 H650 0.999 . S
C648 H618 0.950 . S
C648 C647 1.524 . S
C648 C649 1.415 . S
C649 H619 0.950 . S
C649 C644 1.363 . S
C649 C648 1.415 . S
H650 C647 0.999 . S
H651 C632 0.913 . S
H652 C670 0.951 . S
H653 C672 0.951 . S
H654 C674 0.950 . S
H655 C675 0.950 . S
H656 C677 0.950 . S
H657 C680 0.950 . S
H658 C681 0.950 . S
H659 C683 0.950 . S
H660 C684 0.950 . S
H661 C685 0.951 . S
H662 C687 0.951 . S
H663 C689 0.950 . S
H664 C690 0.950 . S
H665 C692 0.950 . S
H666 C695 0.950 . S
H667 C696 0.950 . S
H668 C698 0.950 . S
H669 C699 0.950 . S
C670 H652 0.951 . S
C670 C671 1.366 . S
C670 C672 1.388 . S
C671 C670 1.366 . S
C671 C675 1.385 . S
C672 H653 0.951 . S
C672 C670 1.388 . S
C672 C673 1.366 . S
C673 C672 1.366 . S
C673 C674 1.414 . S
C673 C676 1.499 . S
C674 H654 0.950 . S
C674 C673 1.414 . S
C674 C675 1.374 . S
C675 H655 0.950 . S
C675 C671 1.385 . S
C675 C674 1.374 . S
C676 C673 1.499 . S
C676 C677 1.373 . S
C676 C678 1.389 . S
C677 H656 0.950 . S
C677 C676 1.373 . S
C677 C693 1.377 . S
C678 C676 1.389 . S
C678 C679 1.524 . S
C678 C692 1.377 . S
C679 C678 1.524 . S
C679 C680 1.397 . S
C679 C684 1.363 . S
C680 H657 0.950 . S
C680 C679 1.397 . S
C680 C681 1.334 . S
C681 H658 0.950 . S
C681 C680 1.334 . S
C681 C682 1.287 . S
C682 C681 1.287 . S
C682 C683 1.524 . S
C682 H701 0.913 . S
C683 H659 0.950 . S
C683 C682 1.524 . S
C683 C684 1.415 . S
C684 H660 0.950 . S
C684 C679 1.363 . S
C684 C683 1.415 . S
C685 H661 0.951 . S
C685 C686 1.366 . S
C685 C687 1.388 . S
C686 C685 1.366 . S
C686 C690 1.385 . S
C687 H662 0.951 . S
C687 C685 1.388 . S
C687 C688 1.366 . S
C688 C687 1.366 . S
C688 C689 1.414 . S
C688 C691 1.499 . S
C689 H663 0.950 . S
C689 C688 1.414 . S
C689 C690 1.374 . S
C690 H664 0.950 . S
C690 C686 1.385 . S
C690 C689 1.374 . S
C691 C688 1.499 . S
C691 C692 1.373 . S
C691 C693 1.389 . S
C692 H665 0.950 . S
C692 C678 1.377 . S
C692 C691 1.373 . S
C693 C677 1.377 . S
C693 C691 1.389 . S
C693 C694 1.524 . S
C694 C693 1.524 . S
C694 C695 1.397 . S
C694 C699 1.363 . S
C695 H666 0.950 . S
C695 C694 1.397 . S
C695 C696 1.334 . S
C696 H667 0.950 . S
C696 C695 1.334 . S
C696 C697 1.287 . S
C697 C696 1.287 . S
C697 C698 1.524 . S
C697 H700 0.999 . S
C698 H668 0.950 . S
C698 C697 1.524 . S
C698 C699 1.415 . S
C699 H669 0.950 . S
C699 C694 1.363 . S
C699 C698 1.415 . S
H700 C697 0.999 . S
H701 C682 0.913 . S
H702 C720 0.951 . S
H703 C722 0.951 . S
H704 C724 0.950 . S
H705 C725 0.950 . S
H706 C727 0.950 . S
H707 C730 0.950 . S
H708 C731 0.950 . S
H709 C733 0.950 . S
H710 C734 0.950 . S
H711 C735 0.951 . S
H712 C737 0.951 . S
H713 C739 0.950 . S
H714 C740 0.950 . S
H715 C742 0.950 . S
H716 C745 0.950 . S
H717 C746 0.950 . S
H718 C748 0.950 . S
H719 C749 0.950 . S
C720 H702 0.951 . S
C720 C721 1.366 . S
C720 C722 1.388 . S
C721 C720 1.366 . S
C721 C725 1.385 . S
C722 H703 0.951 . S
C722 C720 1.388 . S
C722 C723 1.366 . S
C723 C722 1.366 . S
C723 C724 1.414 . S
C723 C726 1.499 . S
C724 H704 0.950 . S
C724 C723 1.414 . S
C724 C725 1.374 . S
C725 H705 0.950 . S
C725 C721 1.385 . S
C725 C724 1.374 . S
C726 C723 1.499 . S
C726 C727 1.373 . S
C726 C728 1.389 . S
C727 H706 0.950 . S
C727 C726 1.373 . S
C727 C743 1.377 . S
C728 C726 1.389 . S
C728 C729 1.524 . S
C728 C742 1.377 . S
C729 C728 1.524 . S
C729 C730 1.397 . S
C729 C734 1.363 . S
C730 H707 0.950 . S
C730 C729 1.397 . S
C730 C731 1.334 . S
C731 H708 0.950 . S
C731 C730 1.334 . S
C731 C732 1.287 . S
C732 C731 1.287 . S
C732 C733 1.524 . S
C732 H751 0.913 . S
C733 H709 0.950 . S
C733 C732 1.524 . S
C733 C734 1.415 . S
C734 H710 0.950 . S
C734 C729 1.363 . S
C734 C733 1.415 . S
C735 H711 0.951 . S
C735 C736 1.366 . S
C735 C737 1.388 . S
C736 C735 1.366 . S
C736 C740 1.385 . S
C737 H712 0.951 . S
C737 C735 1.388 . S
C737 C738 1.366 . S
C738 C737 1.366 . S
C738 C739 1.414 . S
C738 C741 1.499 . S
C739 H713 0.950 . S
C739 C738 1.414 . S
C739 C740 1.374 . S
C740 H714 0.950 . S
C740 C736 1.385 . S
C740 C739 1.374 . S
C741 C738 1.499 . S
C741 C742 1.373 . S
C741 C743 1.389 . S
C742 H715 0.950 . S
C742 C728 1.377 . S
C742 C741 1.373 . S
C743 C727 1.377 . S
C743 C741 1.389 . S
C743 C744 1.524 . S
C744 C743 1.524 . S
C744 C745 1.397 . S
C744 C749 1.363 . S
C745 H716 0.950 . S
C745 C744 1.397 . S
C745 C746 1.334 . S
C746 H717 0.950 . S
C746 C745 1.334 . S
C746 C747 1.287 . S
C747 C746 1.287 . S
C747 C748 1.524 . S
C747 H750 0.999 . S
C748 H718 0.950 . S
C748 C747 1.524 . S
C748 C749 1.415 . S
C749 H719 0.950 . S
C749 C744 1.363 . S
C749 C748 1.415 . S
H750 C747 0.999 . S
H751 C732 0.913 . S
C371 C29 0.704 . S
C386 C233 0.701 . S
C421 C108 0.704 . S
C436 C321 0.704 . S
C471 C49 0.704 . S
C486 C196 0.706 . S
C521 C145 0.704 . S
C536 C284 0.704 . S
C571 C137 1.590 . S
C586 C20 1.588 . S
C621 C117 1.590 . S
C636 C225 1.583 . S
C671 C313 1.589 . S
C686 C205 1.590 . S
C721 C293 1.590 . S
C736 C57 1.598 . S
