# Generated by pormake.
# Topology uof, (4)-cn, num edge types: 1
# Building blocks:
#     Node 0, Type 0, BuildingBlock: TATPOV_clean_sbu_0, # of connection points: 4
#     Node 1, Type 0, BuildingBlock: TATPOV_clean_sbu_0, # of connection points: 4
#     Node 2, Type 0, BuildingBlock: TATPOV_clean_sbu_0, # of connection points: 4
#     Node 3, Type 0, BuildingBlock: TATPOV_clean_sbu_0, # of connection points: 4
#     Node 4, Type 0, BuildingBlock: TATPOV_clean_sbu_0, # of connection points: 4
#     Node 5, Type 0, BuildingBlock: TATPOV_clean_sbu_0, # of connection points: 4
#     Node 6, Type 0, BuildingBlock: TATPOV_clean_sbu_0, # of connection points: 4
#     Node 7, Type 0, BuildingBlock: TATPOV_clean_sbu_0, # of connection points: 4
#     Node 8, Type 0, BuildingBlock: TATPOV_clean_sbu_0, # of connection points: 4
#     Node 9, Type 0, BuildingBlock: TATPOV_clean_sbu_0, # of connection points: 4
#     Node 10, Type 0, BuildingBlock: TATPOV_clean_sbu_0, # of connection points: 4
#     Node 11, Type 0, BuildingBlock: TATPOV_clean_sbu_0, # of connection points: 4
#     Edge 12, Type (0, 0), BuildingBlock: ZUJKAS_clean_linker_0, # of connection points: 2
#     Edge 13, Type (0, 0), BuildingBlock: ZUJKAS_clean_linker_0, # of connection points: 2
#     Edge 14, Type (0, 0), BuildingBlock: ZUJKAS_clean_linker_0, # of connection points: 2
#     Edge 15, Type (0, 0), BuildingBlock: ZUJKAS_clean_linker_0, # of connection points: 2
#     Edge 16, Type (0, 0), BuildingBlock: ZUJKAS_clean_linker_0, # of connection points: 2
#     Edge 17, Type (0, 0), BuildingBlock: ZUJKAS_clean_linker_0, # of connection points: 2
#     Edge 18, Type (0, 0), BuildingBlock: ZUJKAS_clean_linker_0, # of connection points: 2
#     Edge 19, Type (0, 0), BuildingBlock: ZUJKAS_clean_linker_0, # of connection points: 2
#     Edge 20, Type (0, 0), BuildingBlock: ZUJKAS_clean_linker_0, # of connection points: 2
#     Edge 21, Type (0, 0), BuildingBlock: ZUJKAS_clean_linker_0, # of connection points: 2
#     Edge 22, Type (0, 0), BuildingBlock: ZUJKAS_clean_linker_0, # of connection points: 2
#     Edge 23, Type (0, 0), BuildingBlock: ZUJKAS_clean_linker_0, # of connection points: 2
#     Edge 24, Type (0, 0), BuildingBlock: ZUJKAS_clean_linker_0, # of connection points: 2
#     Edge 25, Type (0, 0), BuildingBlock: ZUJKAS_clean_linker_0, # of connection points: 2
#     Edge 26, Type (0, 0), BuildingBlock: ZUJKAS_clean_linker_0, # of connection points: 2
#     Edge 27, Type (0, 0), BuildingBlock: ZUJKAS_clean_linker_0, # of connection points: 2
#     Edge 28, Type (0, 0), BuildingBlock: ZUJKAS_clean_linker_0, # of connection points: 2
#     Edge 29, Type (0, 0), BuildingBlock: ZUJKAS_clean_linker_0, # of connection points: 2
#     Edge 30, Type (0, 0), BuildingBlock: ZUJKAS_clean_linker_0, # of connection points: 2
#     Edge 31, Type (0, 0), BuildingBlock: ZUJKAS_clean_linker_0, # of connection points: 2
#     Edge 32, Type (0, 0), BuildingBlock: ZUJKAS_clean_linker_0, # of connection points: 2
#     Edge 33, Type (0, 0), BuildingBlock: ZUJKAS_clean_linker_0, # of connection points: 2
#     Edge 34, Type (0, 0), BuildingBlock: ZUJKAS_clean_linker_0, # of connection points: 2
#     Edge 35, Type (0, 0), BuildingBlock: ZUJKAS_clean_linker_0, # of connection points: 2
# Relax obj value: 0.223
# Max RMSD: 0.181
# Mean RMSD: 0.181
data_MOF--net-uof--node1-TATPOV_clean_sbu_0--edge1-ZUJKAS_clean_linker_0
_symmetry_space_group_name_H-M    P1
_symmetry_Int_Tables_number       1
_symmetry_cell_setting            triclinic
loop_
_symmetry_equiv_pos_as_xyz
'x, y, z'
_cell_length_a     40.141403
_cell_length_b     40.129128
_cell_length_c     84.207278
_cell_angle_alpha  90.014245
_cell_angle_beta   90.009711
_cell_angle_gamma 119.97986
loop_
_atom_site_label
_atom_site_type_symbol
_atom_site_fract_x
_atom_site_fract_y
_atom_site_fract_z
_atom_type_partial_charge
Zn0 Zn 0.25467 0.36217 0.20274 0.0
Zn1 Zn 0.22608 0.32027 0.22944 0.0
O2 O 0.18098 0.32684 0.22127 0.0
O3 O 0.20564 0.36378 0.20022 0.0
O4 O 0.20933 0.29239 0.25054 0.0
O5 O 0.30067 0.40311 0.21448 0.0
O6 O 0.27752 0.36755 0.23589 0.0
C7 C 0.1774 0.34469 0.20942 0.0
C8 C 0.24621 0.28629 0.20104 0.0
O9 O 0.23358 0.28347 0.21514 0.0
O10 O 0.25717 0.31697 0.19318 0.0
C11 C 0.22867 0.27726 0.25556 0.0
O12 O 0.25618 0.27892 0.24655 0.0
C13 C 0.30393 0.39737 0.22903 0.0
Zn14 Zn 0.88758 0.25096 0.53382 0.0
Zn15 Zn 0.90138 0.22389 0.56095 0.0
O16 O 0.84997 0.17808 0.55297 0.0
O17 O 0.83699 0.20161 0.5317 0.0
O18 O 0.91264 0.20854 0.5824 0.0
O19 O 0.89193 0.29723 0.54498 0.0
O20 O 0.90541 0.27581 0.56665 0.0
C21 C 0.82825 0.17391 0.54115 0.0
C22 C 0.95551 0.24307 0.5327 0.0
O23 O 0.94543 0.23058 0.54679 0.0
O24 O 0.93591 0.25389 0.52466 0.0
C25 C 0.94752 0.22565 0.58703 0.0
O26 O 0.97427 0.25038 0.57744 0.0
C27 C 0.9014 0.30155 0.55948 0.0
Zn28 Zn 0.63479 0.88883 0.87118 0.0
Zn29 Zn 0.67474 0.90038 0.89849 0.0
O30 O 0.67136 0.8508 0.8894 0.0
O31 O 0.63643 0.83994 0.86775 0.0
O32 O 0.69929 0.90928 0.92036 0.0
O33 O 0.59081 0.88896 0.88238 0.0
O34 O 0.62554 0.90226 0.90409 0.0
C35 C 0.65523 0.83063 0.87705 0.0
C36 C 0.7092 0.95873 0.87166 0.0
O37 O 0.71189 0.94668 0.88531 0.0
O38 O 0.67906 0.93989 0.86338 0.0
C39 C 0.73298 0.93641 0.9237 0.0
O40 O 0.75544 0.9581 0.9122 0.0
C41 C 0.59542 0.89748 0.89699 0.0
Zn42 Zn 0.73597 0.62799 0.20483 0.0
Zn43 Zn 0.76743 0.66556 0.23193 0.0
O44 O 0.81236 0.66182 0.22152 0.0
O45 O 0.78592 0.63048 0.19935 0.0
O46 O 0.78533 0.68907 0.25376 0.0
O47 O 0.69341 0.5827 0.21603 0.0
O48 O 0.71667 0.61633 0.2379 0.0
C49 C 0.81497 0.64743 0.20836 0.0
C50 C 0.74067 0.70214 0.2071 0.0
O51 O 0.75763 0.70431 0.22016 0.0
O52 O 0.72772 0.67219 0.19857 0.0
C53 C 0.80193 0.72488 0.25683 0.0
O54 O 0.81178 0.74955 0.24507 0.0
C55 C 0.69077 0.58652 0.23081 0.0
Zn56 Zn 0.11139 0.74719 0.53607 0.0
Zn57 Zn 0.09772 0.7712 0.56378 0.0
O58 O 0.14837 0.81804 0.5557 0.0
O59 O 0.16257 0.79584 0.53434 0.0
O60 O 0.08842 0.78474 0.58587 0.0
O61 O 0.10617 0.69915 0.54587 0.0
O62 O 0.09463 0.7192 0.56837 0.0
C63 C 0.17062 0.82304 0.54399 0.0
C64 C 0.04287 0.7547 0.53626 0.0
O65 O 0.05193 0.76425 0.55071 0.0
O66 O 0.06368 0.74665 0.52756 0.0
C67 C 0.06867 0.80057 0.5893 0.0
O68 O 0.05487 0.81226 0.57779 0.0
C69 C 0.09782 0.69384 0.56048 0.0
Zn70 Zn 0.36135 0.10598 0.87037 0.0
Zn71 Zn 0.32192 0.09186 0.89768 0.0
O72 O 0.32598 0.14251 0.88945 0.0
O73 O 0.36351 0.15702 0.86845 0.0
O74 O 0.29774 0.08215 0.91952 0.0
O75 O 0.40365 0.10089 0.8808 0.0
O76 O 0.37063 0.08902 0.90292 0.0
C77 C 0.34376 0.16488 0.87783 0.0
C78 C 0.28555 0.0372 0.86991 0.0
O79 O 0.28413 0.04616 0.8843 0.0
O80 O 0.3149 0.05816 0.86148 0.0
C81 C 0.26211 0.06136 0.92263 0.0
O82 O 0.23735 0.04669 0.91089 0.0
C83 C 0.39972 0.09241 0.89541 0.0
Zn84 Zn 0.63775 0.74497 0.46818 0.0
Zn85 Zn 0.67727 0.77108 0.44085 0.0
O86 O 0.67261 0.81726 0.44923 0.0
O87 O 0.63534 0.79364 0.47028 0.0
O88 O 0.70146 0.78588 0.41899 0.0
O89 O 0.59547 0.6978 0.45761 0.0
O90 O 0.62889 0.7193 0.43559 0.0
C91 C 0.65476 0.82144 0.46093 0.0
C92 C 0.71386 0.75265 0.46851 0.0
O93 O 0.71525 0.76343 0.45418 0.0
O94 O 0.68438 0.74367 0.47694 0.0
C95 C 0.73705 0.8001 0.4159 0.0
O96 O 0.76163 0.80932 0.42766 0.0
C97 C 0.59972 0.69347 0.44301 0.0
Zn98 Zn 0.88917 0.63316 0.8024 0.0
Zn99 Zn 0.90274 0.67133 0.77484 0.0
O100 O 0.85315 0.66897 0.78344 0.0
O101 O 0.83868 0.63196 0.80461 0.0
O102 O 0.91182 0.69462 0.75284 0.0
O103 O 0.89292 0.58982 0.79226 0.0
O104 O 0.90436 0.6218 0.76987 0.0
C105 C 0.8311 0.65193 0.79523 0.0
C106 C 0.95882 0.70835 0.80208 0.0
O107 O 0.9494 0.70921 0.78771 0.0
O108 O 0.93781 0.6796 0.81079 0.0
C109 C 0.93173 0.73026 0.74957 0.0
O110 O 0.94581 0.75543 0.76119 0.0
C111 C 0.90078 0.59288 0.7776 0.0
Zn112 Zn 0.25051 0.88762 0.1362 0.0
Zn113 Zn 0.22434 0.89709 0.10826 0.0
O114 O 0.17822 0.84699 0.11724 0.0
O115 O 0.20161 0.83739 0.13933 0.0
O116 O 0.20951 0.90436 0.0861 0.0
O117 O 0.2974 0.89069 0.12618 0.0
O118 O 0.27605 0.89974 0.1035 0.0
C119 C 0.1739 0.82712 0.12972 0.0
C120 C 0.24312 0.95581 0.13459 0.0
O121 O 0.2319 0.94436 0.12046 0.0
O122 O 0.25249 0.93664 0.14367 0.0
C123 C 0.19251 0.92296 0.08259 0.0
O124 O 0.18031 0.93638 0.09406 0.0
C125 C 0.3018 0.8973 0.11141 0.0
Zn126 Zn 0.36495 0.25517 0.47108 0.0
Zn127 Zn 0.32811 0.22717 0.44314 0.0
O128 O 0.3319 0.18147 0.45254 0.0
O129 O 0.36595 0.2059 0.47437 0.0
O130 O 0.30603 0.21168 0.42098 0.0
O131 O 0.40864 0.30123 0.46048 0.0
O132 O 0.37712 0.2785 0.43811 0.0
C133 C 0.34803 0.17779 0.46497 0.0
C134 C 0.28917 0.24793 0.46916 0.0
O135 O 0.28902 0.23548 0.45525 0.0
O136 O 0.31794 0.25806 0.47821 0.0
C137 C 0.27104 0.19896 0.41716 0.0
O138 O 0.24548 0.19139 0.42837 0.0
C139 C 0.40575 0.30465 0.44568 0.0
Zn140 Zn 0.10772 0.36113 0.80436 0.0
Zn141 Zn 0.09545 0.31976 0.77754 0.0
O142 O 0.14624 0.32505 0.78609 0.0
O143 O 0.15725 0.36056 0.80756 0.0
O144 O 0.08509 0.29324 0.75615 0.0
O145 O 0.10612 0.40402 0.79279 0.0
O146 O 0.09201 0.36784 0.77148 0.0
C147 C 0.1668 0.34194 0.79826 0.0
C148 C 0.03877 0.28587 0.80488 0.0
O149 O 0.05043 0.28239 0.79126 0.0
O150 O 0.05741 0.31681 0.81272 0.0
C151 C 0.05146 0.28097 0.75056 0.0
O152 O 0.02616 0.28445 0.75923 0.0
C153 C 0.09668 0.39825 0.77829 0.0
Zn154 Zn 0.73729 0.10075 0.13936 0.0
Zn155 Zn 0.76773 0.08882 0.11299 0.0
O156 O 0.81262 0.14015 0.12146 0.0
O157 O 0.78751 0.14969 0.14306 0.0
O158 O 0.78532 0.07719 0.09228 0.0
O159 O 0.69393 0.09985 0.12709 0.0
O160 O 0.71669 0.08536 0.10611 0.0
C161 C 0.81592 0.16006 0.13382 0.0
C162 C 0.74317 0.03197 0.14052 0.0
O163 O 0.75915 0.04385 0.12705 0.0
O164 O 0.73023 0.05041 0.14807 0.0
C165 C 0.78589 0.09474 0.07962 0.0
O166 O 0.77856 0.12315 0.08051 0.0
C167 C 0.69086 0.09039 0.1126 0.0
H168 H 0.83164 0.20853 0.159 0.0
H169 H 0.8941 0.25017 0.17102 0.0
H170 H 0.94948 0.2254 0.13261 0.0
H171 H 0.88666 0.18262 0.12063 0.0
H172 H 0.96917 0.21032 0.16099 0.0
H173 H 0.98513 0.35535 0.16313 0.0
H174 H 0.94028 0.31935 0.17142 0.0
H175 H 0.94999 0.31744 0.15067 0.0
C176 C 0.8571 0.2126 0.15284 0.0
C177 C 0.85404 0.19188 0.13889 0.0
C178 C 0.89294 0.23675 0.15971 0.0
C179 C 0.92658 0.24117 0.15269 0.0
C180 C 0.92387 0.22247 0.13822 0.0
H181 H 0.16074 0.37984 0.18543 0.0
H182 H 0.09839 0.35696 0.17279 0.0
C183 C 0.88794 0.19814 0.13134 0.0
C184 C 0.96358 0.26096 0.1615 0.0
H185 H 0.02576 0.34427 0.18073 0.0
C186 C 0.9817 0.23973 0.16518 0.0
C187 C 0.97999 0.29936 0.16694 0.0
C188 C 0.96304 0.32432 0.1627 0.0
C189 C 0.01537 0.25554 0.17433 0.0
C190 C 0.03091 0.29338 0.18035 0.0
C191 C 0.01332 0.31498 0.17641 0.0
C192 C 0.0669 0.31157 0.18983 0.0
C193 C 0.03439 0.23175 0.17719 0.0
C194 C 0.06954 0.29509 0.20416 0.0
C195 C 0.10531 0.308 0.21143 0.0
C196 C 0.13895 0.33775 0.2045 0.0
C197 C 0.13552 0.35656 0.191 0.0
C198 C 0.09984 0.34355 0.18374 0.0
H199 H 0.02426 0.20746 0.16866 0.0
H200 H 0.06615 0.24966 0.17621 0.0
H201 H 0.02733 0.2195 0.18935 0.0
H202 H 0.04424 0.27092 0.20927 0.0
H203 H 0.10683 0.29304 0.22186 0.0
H204 H 0.76493 0.15685 0.52336 0.0
H205 H 0.72186 0.09554 0.51043 0.0
H206 H 0.77988 0.04363 0.53422 0.0
H207 H 0.82173 0.10432 0.5477 0.0
H208 H 0.74359 0.06337 0.48962 0.0
H209 H 0.67271 0.9576 0.53762 0.0
H210 H 0.69822 0.00872 0.54135 0.0
H211 H 0.72379 0.98244 0.54031 0.0
C212 C 0.76754 0.13195 0.52627 0.0
C213 C 0.79664 0.13536 0.53658 0.0
C214 C 0.74306 0.09697 0.51879 0.0
C215 C 0.74739 0.06475 0.52134 0.0
C216 C 0.77515 0.06762 0.53231 0.0
H217 H 0.71831 0.89103 0.45496 0.0
H218 H 0.73624 0.95166 0.46835 0.0
C219 C 0.7992 0.10246 0.54002 0.0
C220 C 0.72635 0.02991 0.5112 0.0
H221 H 0.67734 0.93181 0.51225 0.0
C222 C 0.72849 0.03461 0.4946 0.0
C223 C 0.70606 0.9923 0.51758 0.0
C224 C 0.6997 0.98502 0.53519 0.0
C225 C 0.71244 0.00288 0.48428 0.0
C226 C 0.69488 0.96528 0.49068 0.0
C227 C 0.69121 0.96057 0.50726 0.0
C228 C 0.68184 0.93045 0.48059 0.0
C229 C 0.71451 0.01015 0.46663 0.0
C230 C 0.64519 0.8982 0.48283 0.0
C231 C 0.6352 0.86327 0.47542 0.0
C232 C 0.66152 0.85995 0.46547 0.0
C233 C 0.69718 0.89286 0.46234 0.0
C234 C 0.70744 0.92764 0.47 0.0
H235 H 0.71501 0.03753 0.464 0.0
H236 H 0.74152 0.01278 0.4619 0.0
H237 H 0.68979 0.98642 0.46028 0.0
H238 H 0.62487 0.89957 0.49089 0.0
H239 H 0.60752 0.83836 0.47807 0.0
H240 H 0.7198 0.82629 0.88286 0.0
H241 H 0.74035 0.78661 0.86855 0.0
H242 H 0.63006 0.72666 0.84516 0.0
H243 H 0.61015 0.76768 0.85883 0.0
H244 H 0.71978 0.71402 0.86503 0.0
H245 H 0.69869 0.76787 0.80743 0.0
H246 H 0.69423 0.78687 0.82618 0.0
H247 H 0.65516 0.74239 0.81869 0.0
C248 C 0.69962 0.80406 0.87494 0.0
C249 C 0.66354 0.80036 0.87182 0.0
C250 C 0.71146 0.7815 0.86669 0.0
C251 C 0.68725 0.75453 0.85534 0.0
C252 C 0.64981 0.74828 0.85338 0.0
H253 H 0.76565 0.60663 0.81205 0.0
H254 H 0.72479 0.62731 0.82533 0.0
C255 C 0.63827 0.77138 0.86136 0.0
C256 C 0.70211 0.73475 0.84501 0.0
H257 H 0.71776 0.72101 0.80625 0.0
C258 C 0.71921 0.71543 0.85218 0.0
C259 C 0.70204 0.73719 0.8282 0.0
C260 C 0.68692 0.76002 0.81966 0.0
C261 C 0.73666 0.69898 0.84309 0.0
C262 C 0.73561 0.70046 0.82628 0.0
C263 C 0.71806 0.71935 0.8191 0.0
C264 C 0.75522 0.68532 0.816 0.0
C265 C 0.75762 0.68187 0.85169 0.0
C266 C 0.78361 0.70985 0.80518 0.0
C267 C 0.8061 0.69763 0.79713 0.0
C268 C 0.80091 0.66082 0.79994 0.0
C269 C 0.7705 0.6353 0.80978 0.0
C270 C 0.74748 0.64726 0.81755 0.0
H271 H 0.76474 0.69252 0.86411 0.0
H272 H 0.73899 0.65014 0.85217 0.0
H273 H 0.78474 0.68874 0.8455 0.0
H274 H 0.78988 0.73923 0.80363 0.0
H275 H 0.82944 0.71801 0.7897 0.0
H276 H 0.88699 0.69735 0.22011 0.0
H277 H 0.94845 0.71922 0.20649 0.0
H278 H 0.88981 0.63798 0.16876 0.0
H279 H 0.82863 0.61546 0.18235 0.0
H280 H 0.96107 0.64571 0.1758 0.0
H281 H 0.9708 0.78755 0.1672 0.0
H282 H 0.9675 0.77309 0.18758 0.0
H283 H 0.92778 0.74593 0.17436 0.0
C284 C 0.88729 0.68347 0.20912 0.0
C285 C 0.85279 0.65504 0.20222 0.0
C286 C 0.92239 0.69624 0.20128 0.0
C287 C 0.92352 0.6809 0.18641 0.0
C288 C 0.88957 0.65047 0.18014 0.0
H289 H 0.10365 0.80823 0.11695 0.0
H290 H 0.04059 0.76692 0.12903 0.0
C291 C 0.85457 0.63767 0.18795 0.0
C292 C 0.9592 0.69838 0.17674 0.0
H293 H 0.02349 0.78181 0.15829 0.0
C294 C 0.97478 0.67547 0.17196 0.0
C295 C 0.97642 0.7369 0.17139 0.0
C296 C 0.95964 0.76227 0.17524 0.0
C297 C 0.00771 0.69037 0.1623 0.0
C298 C 0.02577 0.72934 0.15747 0.0
C299 C 0.00968 0.75194 0.16199 0.0
C300 C 0.06254 0.7482 0.14849 0.0
C301 C 0.02252 0.66411 0.15718 0.0
C302 C 0.09565 0.75042 0.1551 0.0
C303 C 0.1316 0.77375 0.14818 0.0
C304 C 0.13532 0.79577 0.13458 0.0
C305 C 0.10184 0.7916 0.12737 0.0
C306 C 0.06578 0.76815 0.13432 0.0
H307 H -0.00065 0.63346 0.15737 0.0
H308 H 0.035 0.67134 0.14506 0.0
H309 H 0.04532 0.66733 0.16554 0.0
H310 H 0.09407 0.73594 0.16616 0.0
H311 H 0.15675 0.77622 0.15405 0.0
H312 H 0.39332 0.16187 0.48396 0.0
H313 H 0.37539 0.10071 0.49696 0.0
H314 H 0.26719 0.04719 0.47182 0.0
H315 H 0.28587 0.10774 0.45824 0.0
H316 H 0.32078 0.06664 0.5171 0.0
H317 H 0.29109 0.96314 0.46862 0.0
H318 H 0.31567 0.01435 0.46519 0.0
H319 H 0.26383 0.98688 0.46572 0.0
C320 C 0.36626 0.13669 0.48081 0.0
C321 C 0.34106 0.13953 0.47003 0.0
C322 C 0.35593 0.10178 0.48832 0.0
C323 C 0.31999 0.06909 0.48535 0.0
C324 C 0.29551 0.07154 0.47404 0.0
H325 H 0.17523 0.89182 0.55038 0.0
H326 H 0.21757 0.95317 0.53747 0.0
C327 C 0.30618 0.10628 0.46628 0.0
C328 C 0.30637 0.03398 0.49532 0.0
H329 H 0.25948 0.93597 0.49364 0.0
C330 C 0.308 0.03809 0.51194 0.0
C331 C 0.29026 0.99666 0.48872 0.0
C332 C 0.29053 0.99006 0.47108 0.0
C333 C 0.29254 0.006 0.52207 0.0
C334 C 0.27361 0.96861 0.51542 0.0
C335 C 0.2735 0.96454 0.49882 0.0
C336 C 0.25195 0.93329 0.52525 0.0
C337 C 0.29686 0.0127 0.53976 0.0
C338 C 0.2571 0.90151 0.52285 0.0
C339 C 0.2323 0.86613 0.52997 0.0
C340 C 0.20213 0.86192 0.53979 0.0
C341 C 0.19863 0.89435 0.5431 0.0
C342 C 0.22296 0.92955 0.53571 0.0
H343 H 0.32333 0.04024 0.54263 0.0
H344 H 0.272 0.01471 0.54434 0.0
H345 H 0.29806 0.98902 0.54606 0.0
H346 H 0.27925 0.90359 0.51488 0.0
H347 H 0.23562 0.84159 0.52718 0.0
H348 H 0.3903 0.22953 0.86082 0.0
H349 H 0.37213 0.2731 0.8483 0.0
H350 H 0.26089 0.21212 0.87087 0.0
H351 H 0.27965 0.16979 0.88399 0.0
H352 H 0.31984 0.25313 0.82702 0.0
H353 H 0.28032 0.31833 0.87579 0.0
H354 H 0.30609 0.29291 0.8793 0.0
H355 H 0.25436 0.26702 0.87764 0.0
C356 C 0.36247 0.22633 0.86355 0.0
C357 C 0.33644 0.19634 0.87343 0.0
C358 C 0.35201 0.25111 0.85631 0.0
C359 C 0.31516 0.24616 0.85865 0.0
C360 C 0.28983 0.21736 0.86916 0.0
H361 H 0.17437 0.27948 0.79168 0.0
H362 H 0.2164 0.26096 0.80523 0.0
C363 C 0.30057 0.19302 0.87665 0.0
C364 C 0.30166 0.26783 0.84874 0.0
H365 H 0.25134 0.31558 0.85024 0.0
C366 C 0.30548 0.26741 0.83214 0.0
C367 C 0.28346 0.28709 0.85531 0.0
C368 C 0.28123 0.29174 0.873 0.0
C369 C 0.29018 0.28413 0.82198 0.0
C370 C 0.26921 0.30057 0.82852 0.0
C371 C 0.26692 0.30256 0.84513 0.0
C372 C 0.24773 0.31412 0.8185 0.0
C373 C 0.29682 0.28399 0.80435 0.0
C374 C 0.25124 0.35024 0.82132 0.0
C375 C 0.2266 0.36051 0.81382 0.0
C376 C 0.19821 0.33504 0.8032 0.0
C377 C 0.19636 0.29998 0.79959 0.0
C378 C 0.22053 0.2894 0.80733 0.0
H379 H 0.32418 0.28431 0.80188 0.0
H380 H 0.27316 0.25725 0.79908 0.0
H381 H 0.29778 0.3091 0.79836 0.0
H382 H 0.27199 0.36988 0.82984 0.0
H383 H 0.22866 0.38771 0.81686 0.0
H384 H 0.63023 0.52096 0.21899 0.0
H385 H 0.56496 0.48762 0.22927 0.0
H386 H 0.60259 0.55759 0.27157 0.0
H387 H 0.66829 0.59229 0.26107 0.0
H388 H 0.5257 0.44721 0.25531 0.0
H389 H 0.52865 0.58749 0.25255 0.0
H390 H 0.56724 0.58177 0.24469 0.0
H391 H 0.5621 0.58442 0.26578 0.0
C392 C 0.62496 0.52885 0.23064 0.0
C393 C 0.65435 0.55994 0.23903 0.0
C394 C 0.58752 0.50962 0.23654 0.0
C395 C 0.57866 0.52086 0.25098 0.0
C396 C 0.60861 0.54918 0.26019 0.0
H397 H 0.32537 0.38887 0.25911 0.0
H398 H 0.39071 0.42149 0.27003 0.0
C399 C 0.64622 0.56874 0.25422 0.0
C400 C 0.53761 0.50573 0.25508 0.0
H401 H 0.4688 0.53207 0.25478 0.0
C402 C 0.51318 0.4657 0.2556 0.0
C403 C 0.52144 0.53005 0.25542 0.0
C404 C 0.54603 0.57331 0.2545 0.0
C405 C 0.47303 0.44922 0.25503 0.0
C406 C 0.45693 0.47358 0.25437 0.0
C407 C 0.48128 0.51356 0.25529 0.0
C408 C 0.41625 0.45869 0.2497 0.0
C409 C 0.44849 0.40602 0.25374 0.0
C410 C 0.40853 0.47064 0.23518 0.0
C411 C 0.37131 0.45259 0.22903 0.0
C412 C 0.34097 0.42199 0.23724 0.0
C413 C 0.34816 0.41211 0.2524 0.0
C414 C 0.38555 0.43048 0.25861 0.0
H415 H 0.466 0.39189 0.25207 0.0
H416 H 0.43143 0.39448 0.26478 0.0
H417 H 0.42814 0.398 0.24363 0.0
H418 H 0.43172 0.49254 0.22813 0.0
H419 H 0.36682 0.46121 0.2174 0.0
H420 H 0.09913 0.63308 0.54661 0.0
H421 H 0.06699 0.56683 0.55588 0.0
H422 H 0.03766 0.60133 0.59979 0.0
H423 H 0.06904 0.66801 0.59039 0.0
H424 H 0.07177 0.52721 0.58143 0.0
H425 H 0.93257 0.52649 0.58147 0.0
H426 H 0.97583 0.5658 0.57323 0.0
H427 H 0.96968 0.56041 0.59438 0.0
C428 C 0.08648 0.62686 0.55837 0.0
C429 C 0.08606 0.6558 0.56763 0.0
C430 C 0.06814 0.58888 0.56367 0.0
C431 C 0.04911 0.57898 0.57836 0.0
C432 C 0.05137 0.60821 0.58825 0.0
H433 H 0.93452 0.32638 0.58888 0.0
H434 H 0.96695 0.39273 0.59873 0.0
C435 C 0.0696 0.64636 0.5829 0.0
C436 C 0.02425 0.53767 0.58231 0.0
H437 H 0.92982 0.46722 0.58372 0.0
C438 C 0.04076 0.51402 0.5823 0.0
C439 C 0.98377 0.52066 0.58339 0.0
C440 C 0.9642 0.54446 0.58303 0.0
C441 C 0.01786 0.47377 0.58212 0.0
C442 C 0.97729 0.45675 0.58236 0.0
C443 C 0.9609 0.4804 0.58359 0.0
C444 C 0.95177 0.41552 0.57844 0.0
C445 C 0.03726 0.44999 0.58037 0.0
C446 C 0.9303 0.40593 0.56435 0.0
C447 C 0.91136 0.36814 0.5588 0.0
C448 C 0.91363 0.33909 0.56722 0.0
C449 C 0.93249 0.34814 0.58203 0.0
C450 C 0.95132 0.3861 0.58762 0.0
H451 H 0.06854 0.46801 0.57793 0.0
H452 H 0.03377 0.43386 0.59153 0.0
H453 H 0.02391 0.42882 0.57058 0.0
H454 H 0.93001 0.42812 0.55711 0.0
H455 H 0.89682 0.3622 0.54744 0.0
H456 H 0.4622 0.09316 0.88229 0.0
H457 H 0.49565 0.06095 0.89226 0.0
H458 H 0.43007 0.03277 0.93567 0.0
H459 H 0.3954 0.06419 0.92556 0.0
H460 H 0.53891 0.0661 0.9182 0.0
H461 H 0.40021 0.92714 0.91816 0.0
H462 H 0.40456 0.97027 0.90956 0.0
H463 H 0.40317 0.96468 0.93076 0.0
C464 C 0.45524 0.08075 0.89408 0.0
C465 C 0.42558 0.08065 0.90299 0.0
C466 C 0.4745 0.06236 0.89979 0.0
C467 C 0.4647 0.04362 0.91455 0.0
C468 C 0.43741 0.04623 0.92408 0.0
H469 H 0.6027 0.92963 0.92654 0.0
H470 H 0.56805 0.96137 0.93634 0.0
C471 C 0.41786 0.06448 0.91832 0.0
C472 C 0.48085 0.01874 0.91893 0.0
H473 H 0.4565 0.92421 0.92095 0.0
C474 C 0.52097 0.03511 0.91917 0.0
C475 C 0.45724 0.97828 0.92016 0.0
C476 C 0.41391 0.95883 0.91956 0.0
C477 C 0.53819 0.01208 0.91934 0.0
C478 C 0.51453 0.97151 0.9197 0.0
C479 C 0.47449 0.95528 0.92073 0.0
C480 C 0.53017 0.94581 0.916 0.0
C481 C 0.58138 0.03134 0.91778 0.0
C482 C 0.51842 0.92412 0.90195 0.0
C483 C 0.53766 0.90553 0.89646 0.0
C484 C 0.56925 0.9084 0.90486 0.0
C485 C 0.57873 0.92717 0.91969 0.0
C486 C 0.5592 0.94563 0.92525 0.0
H487 H 0.59478 0.06259 0.91522 0.0
H488 H 0.59374 0.028 0.92905 0.0
H489 H 0.58936 0.01777 0.90813 0.0
H490 H 0.49588 0.92357 0.89468 0.0
H491 H 0.52927 0.89099 0.88509 0.0
H492 H 0.60917 0.66726 0.41422 0.0
H493 H 0.57466 0.60076 0.40464 0.0
H494 H 0.49939 0.56804 0.44528 0.0
H495 H 0.53311 0.63412 0.45477 0.0
H496 H 0.57446 0.54319 0.42097 0.0
H497 H 0.42419 0.5058 0.41091 0.0
H498 H 0.4629 0.5551 0.41205 0.0
H499 H 0.44008 0.52858 0.42988 0.0
C500 C 0.58446 0.64614 0.42085 0.0
C501 C 0.57407 0.65594 0.43534 0.0
C502 C 0.56485 0.60812 0.41537 0.0
C503 C 0.53425 0.57944 0.42417 0.0
C504 C 0.52233 0.58974 0.43808 0.0
H505 H 0.47093 0.36503 0.45794 0.0
H506 H 0.50577 0.43031 0.44763 0.0
C507 C 0.5419 0.6276 0.44358 0.0
C508 C 0.51839 0.53814 0.42037 0.0
H509 H 0.43373 0.45304 0.41988 0.0
C510 C 0.54371 0.52351 0.42027 0.0
C511 C 0.47839 0.51241 0.4191 0.0
C512 C 0.44993 0.52641 0.41781 0.0
C513 C 0.52987 0.48376 0.42051 0.0
C514 C 0.48977 0.45811 0.42116 0.0
C515 C 0.46454 0.47267 0.41966 0.0
C516 C 0.47342 0.41715 0.42569 0.0
C517 C 0.5584 0.46971 0.42071 0.0
C518 C 0.44386 0.38775 0.41672 0.0
C519 C 0.4236 0.3502 0.42268 0.0
C520 C 0.43227 0.34159 0.4378 0.0
C521 C 0.46347 0.37062 0.44627 0.0
C522 C 0.48368 0.40802 0.44031 0.0
H523 H 0.58494 0.48974 0.41411 0.0
H524 H 0.56682 0.4686 0.43317 0.0
H525 H 0.54608 0.44055 0.41544 0.0
H526 H 0.43533 0.39421 0.40545 0.0
H527 H 0.39969 0.32853 0.41585 0.0
H528 H 0.89946 0.53055 0.79118 0.0
H529 H 0.93118 0.49634 0.78154 0.0
H530 H 0.95885 0.55992 0.7376 0.0
H531 H 0.92798 0.59539 0.74739 0.0
H532 H 0.92594 0.45188 0.75611 0.0
H533 H 0.06463 0.59082 0.75505 0.0
H534 H 0.02158 0.58683 0.76355 0.0
H535 H 0.02693 0.58706 0.74236 0.0
C536 C 0.91163 0.53689 0.77934 0.0
C537 C 0.91182 0.56629 0.7702 0.0
C538 C 0.92973 0.51719 0.77382 0.0
C539 C 0.94826 0.52626 0.75902 0.0
C540 C 0.94559 0.55316 0.74923 0.0
H541 H 0.06326 0.38863 0.74888 0.0
H542 H 0.03069 0.42212 0.7387 0.0
C543 C 0.92764 0.57317 0.75481 0.0
C544 C 0.97315 0.50996 0.75487 0.0
H545 H 0.0677 0.53449 0.7529 0.0
C546 C 0.95689 0.46984 0.75503 0.0
C547 C 0.01357 0.5336 0.75351 0.0
C548 C 0.03293 0.57696 0.75369 0.0
C549 C 0.98002 0.45272 0.75516 0.0
C550 C 0.02056 0.47647 0.75468 0.0
C551 C 0.03665 0.51644 0.75322 0.0
C552 C 0.04643 0.46119 0.75863 0.0
C553 C 0.96093 0.40964 0.75715 0.0
C554 C 0.06839 0.47391 0.77259 0.0
C555 C 0.08746 0.45533 0.7783 0.0
C556 C 0.0848 0.42346 0.77021 0.0
C557 C 0.06559 0.41288 0.75549 0.0
C558 C 0.04666 0.43174 0.74971 0.0
H559 H 0.92971 0.39629 0.75976 0.0
H560 H 0.96415 0.39666 0.74604 0.0
H561 H 0.97469 0.40228 0.76693 0.0
H562 H 0.06889 0.49678 0.77962 0.0
H563 H 0.10229 0.46453 0.78959 0.0
H564 H 0.3631 0.897 0.12521 0.0
H565 H 0.4288 0.92805 0.11539 0.0
H566 H 0.39216 0.95307 0.07103 0.0
H567 H 0.32601 0.92284 0.08099 0.0
H568 H 0.46722 0.92081 0.09005 0.0
H569 H 0.46781 0.05991 0.08741 0.0
H570 H 0.42882 0.01753 0.09635 0.0
H571 H 0.4335 0.02141 0.07512 0.0
C572 C 0.36872 0.90845 0.11325 0.0
C573 C 0.33936 0.90807 0.10401 0.0
C574 C 0.40639 0.92616 0.10763 0.0
C575 C 0.41557 0.94373 0.09263 0.0
C576 C 0.38586 0.94054 0.0828 0.0
H577 H 0.66803 0.0569 0.08315 0.0
H578 H 0.60237 0.02469 0.07255 0.0
C579 C 0.34801 0.92295 0.08847 0.0
C580 C 0.45668 0.9682 0.08829 0.0
H581 H 0.52702 0.06252 0.08572 0.0
C582 C 0.48036 0.95173 0.08871 0.0
C583 C 0.47364 0.00857 0.08657 0.0
C584 C 0.44982 0.02812 0.08642 0.0
C585 C 0.5206 0.97469 0.08881 0.0
C586 C 0.53757 0.01523 0.08804 0.0
C587 C 0.51389 0.03146 0.08627 0.0
C588 C 0.57863 0.04106 0.09213 0.0
C589 C 0.54438 0.95546 0.09112 0.0
C590 C 0.58757 0.06328 0.10601 0.0
C591 C 0.62497 0.08209 0.11196 0.0
C592 C 0.65427 0.07893 0.1042 0.0
C593 C 0.64603 0.05957 0.08952 0.0
C594 C 0.60846 0.04086 0.0835 0.0
H595 H 0.52637 0.9243 0.09381 0.0
H596 H 0.56081 0.9584 0.08011 0.0
H597 H 0.56527 0.96935 0.10096 0.0
H598 H 0.56509 0.06411 0.11282 0.0
H599 H 0.63032 0.09709 0.12319 0.0
H600 H 0.25578 0.98252 0.16505 0.0
H601 H 0.25688 0.04001 0.17518 0.0
H602 H 0.23635 0.06736 0.12795 0.0
H603 H 0.23419 0.00922 0.11772 0.0
H604 H 0.30423 0.1153 0.16784 0.0
H605 H 0.15282 0.07172 0.15331 0.0
H606 H 0.17072 0.0385 0.15256 0.0
H607 H 0.1806 0.07189 0.13658 0.0
C608 C 0.25141 0.00068 0.15679 0.0
C609 C 0.24466 0.99117 0.14059 0.0
C610 C 0.25209 0.03354 0.16262 0.0
C611 C 0.24611 0.05759 0.15236 0.0
C612 C 0.24012 0.04867 0.13612 0.0
H613 H 0.26204 0.27859 0.17012 0.0
H614 H 0.26316 0.22371 0.15798 0.0
C615 C 0.23913 0.01557 0.13029 0.0
C616 C 0.24664 0.09219 0.15877 0.0
H617 H 0.19198 0.13496 0.16327 0.0
C618 C 0.27969 0.11958 0.16684 0.0
C619 C 0.21446 0.09757 0.1575 0.0
C620 C 0.1775 0.06822 0.14965 0.0
C621 C 0.28143 0.15228 0.17366 0.0
C622 C 0.24939 0.15762 0.17232 0.0
C623 C 0.21649 0.13058 0.16416 0.0
C624 C 0.24924 0.19078 0.17971 0.0
C625 C 0.31733 0.181 0.18231 0.0
C626 C 0.24095 0.19005 0.1959 0.0
C627 C 0.24008 0.22117 0.20288 0.0
C628 C 0.24765 0.25355 0.19374 0.0
C629 C 0.25618 0.25414 0.1775 0.0
C630 C 0.25679 0.22288 0.17052 0.0
H631 H 0.34093 0.17428 0.18119 0.0
H632 H 0.32742 0.21038 0.17762 0.0
H633 H 0.31069 0.18115 0.1951 0.0
H634 H 0.23498 0.1653 0.20311 0.0
H635 H 0.2335 0.21984 0.21542 0.0
H636 H 0.98883 0.27352 0.50402 0.0
H637 H 0.04564 0.27554 0.49236 0.0
H638 H 0.05731 0.21895 0.53374 0.0
H639 H 0.00058 0.21672 0.54554 0.0
H640 H 0.12266 0.30972 0.50623 0.0
H641 H 0.05487 0.15263 0.4948 0.0
H642 H 0.02713 0.17617 0.49816 0.0
H643 H 0.04906 0.16583 0.51458 0.0
C644 C 0.00342 0.26144 0.51064 0.0
C645 C 0.99007 0.24477 0.52568 0.0
C646 C 0.03587 0.2627 0.50397 0.0
C647 C 0.05524 0.24702 0.51214 0.0
C648 C 0.04232 0.23073 0.52719 0.0
H649 H 0.28016 0.27406 0.49794 0.0
H650 H 0.22356 0.2755 0.50769 0.0
C651 C 0.01 0.22962 0.53392 0.0
C652 C 0.08922 0.24793 0.50498 0.0
H653 H 0.12222 0.19011 0.49083 0.0
C654 C 0.12263 0.28365 0.50279 0.0
C655 C 0.08871 0.21382 0.50038 0.0
C656 C 0.05297 0.17489 0.50195 0.0
C657 C 0.15605 0.28609 0.4964 0.0
C658 C 0.15591 0.25188 0.49226 0.0
C659 C 0.1222 0.21623 0.49413 0.0
C660 C 0.19059 0.25233 0.48613 0.0
C661 C 0.19112 0.32519 0.49403 0.0
C662 C 0.19046 0.23831 0.47087 0.0
C663 C 0.22268 0.2373 0.46527 0.0
C664 C 0.25546 0.25004 0.4749 0.0
C665 C 0.25544 0.26415 0.4902 0.0
C666 C 0.22323 0.26521 0.49577 0.0
H667 H 0.18374 0.34844 0.4941 0.0
H668 H 0.2118 0.33086 0.50382 0.0
H669 H 0.20564 0.3264 0.48265 0.0
H670 H 0.16537 0.22806 0.46331 0.0
H671 H 0.22171 0.22623 0.45344 0.0
H672 H 0.00725 0.20953 0.79832 0.0
H673 H 0.94931 0.1562 0.80989 0.0
H674 H 0.93148 0.23659 0.83753 0.0
H675 H 0.99066 0.28986 0.82665 0.0
H676 H 0.91946 0.17965 0.85521 0.0
H677 H 0.84035 0.11903 0.79923 0.0
H678 H 0.8857 0.12056 0.79888 0.0
H679 H 0.88433 0.16475 0.79994 0.0
C680 C 0.99084 0.21578 0.80682 0.0
C681 C 0.00331 0.25377 0.81157 0.0
C682 C 0.95754 0.18532 0.81332 0.0
C683 C 0.93543 0.1924 0.82429 0.0
C684 C 0.94792 0.23041 0.82903 0.0
H685 H 0.7063 0.00758 0.84996 0.0
H686 H 0.7602 0.06678 0.83938 0.0
C687 C 0.98172 0.26081 0.82281 0.0
C688 C 0.90024 0.16008 0.83133 0.0
H689 H 0.81717 0.07777 0.82206 0.0
C690 C 0.89686 0.15762 0.84795 0.0
C691 C 0.8703 0.13173 0.82189 0.0
C692 C 0.87014 0.13439 0.80401 0.0
C693 C 0.86496 0.12708 0.85538 0.0
C694 C 0.83644 0.09725 0.84594 0.0
C695 C 0.83928 0.10029 0.82933 0.0
C696 C 0.80367 0.06241 0.85299 0.0
C697 C 0.86199 0.12764 0.87324 0.0
C698 C 0.81012 0.04014 0.86411 0.0
C699 C 0.77929 0.00686 0.87043 0.0
C700 C 0.74157 0.99455 0.86536 0.0
C701 C 0.73514 0.01641 0.85404 0.0
C702 C 0.7659 0.0502 0.848 0.0
H703 H 0.8776 0.15753 0.87791 0.0
H704 H 0.83159 0.11388 0.87721 0.0
H705 H 0.8754 0.11187 0.87856 0.0
H706 H 0.83904 0.04813 0.86773 0.0
H707 H 0.78508 0.99022 0.87899 0.0
H708 H 0.78735 -0.00034 0.13399 0.0
H709 H 0.78296 0.94218 0.14598 0.0
H710 H 0.68642 0.92645 0.17422 0.0
H711 H 0.69194 0.98506 0.16283 0.0
H712 H 0.73299 0.91525 0.19175 0.0
H713 H 0.70895 0.83271 0.13626 0.0
H714 H 0.75289 0.87789 0.13531 0.0
H715 H 0.70762 0.87693 0.13688 0.0
C716 C 0.76506 0.9838 0.14269 0.0
C717 C 0.73987 0.99669 0.14743 0.0
C718 C 0.76239 0.9508 0.14945 0.0
C719 C 0.73376 0.92944 0.16072 0.0
C720 C 0.70861 0.94234 0.16548 0.0
H721 H 0.68651 0.70015 0.18705 0.0
H722 H 0.68146 0.75462 0.17706 0.0
C723 C 0.71177 0.9758 0.15897 0.0
C724 C 0.73094 0.89444 0.16796 0.0
H725 H 0.72758 0.80995 0.159 0.0
C726 C 0.73137 0.892 0.18459 0.0
C727 C 0.72802 0.86373 0.15864 0.0
C728 C 0.7239 0.86273 0.1408 0.0
C729 C 0.72999 0.86019 0.19215 0.0
C730 C 0.72973 0.83074 0.1828 0.0
C731 C 0.7283 0.83274 0.16619 0.0
C732 C 0.73122 0.79769 0.1899 0.0
C733 C 0.72813 0.85832 0.21005 0.0
C734 C 0.76073 0.80368 0.20051 0.0
C735 C 0.76311 0.7725 0.20652 0.0
C736 C 0.73674 0.73488 0.20162 0.0
C737 C 0.70732 0.72889 0.19098 0.0
C738 C 0.70443 0.75998 0.18526 0.0
H739 H 0.71514 0.87499 0.2149 0.0
H740 H 0.71112 0.8282 0.21433 0.0
H741 H 0.75773 0.87117 0.2149 0.0
H742 H 0.78249 0.83252 0.20388 0.0
H743 H 0.78635 0.77794 0.21457 0.0
H744 H 0.77791 0.7615 0.45319 0.0
H745 H 0.83266 0.75943 0.46484 0.0
H746 H 0.77993 0.73956 0.5111 0.0
H747 H 0.72471 0.74063 0.49954 0.0
H748 H 0.88262 0.80598 0.48746 0.0
H749 H 0.80656 0.65492 0.50865 0.0
H750 H 0.78493 0.67327 0.495 0.0
H751 H 0.7859 0.68259 0.51595 0.0
C752 C 0.77782 0.75641 0.46583 0.0
C753 C 0.74685 0.75101 0.47543 0.0
C754 C 0.80913 0.75525 0.47246 0.0
C755 C 0.81002 0.74868 0.48878 0.0
C756 C 0.77935 0.74366 0.49841 0.0
H757 H 0.98706 0.76197 0.55194 0.0
H758 H 0.93029 0.76056 0.54041 0.0
C759 C 0.74792 0.74453 0.49179 0.0
C760 C 0.84375 0.74861 0.49583 0.0
H761 H 0.87088 0.6946 0.5178 0.0
C762 C 0.88008 0.78155 0.494 0.0
C763 C 0.84031 0.71663 0.50436 0.0
C764 C 0.80239 0.67971 0.50599 0.0
C765 C 0.91302 0.78356 0.50069 0.0
C766 C 0.90942 0.75185 0.50937 0.0
C767 C 0.87325 0.71891 0.5112 0.0
C768 C 0.94325 0.75217 0.51632 0.0
C769 C 0.95147 0.81963 0.49861 0.0
C770 C 0.96884 0.74753 0.50653 0.0
C771 C 0.00107 0.74808 0.51304 0.0
C772 C 0.0083 0.75345 0.52947 0.0
C773 C 0.98237 0.75789 0.53925 0.0
C774 C 0.94995 0.75705 0.53272 0.0
H775 H 0.94866 0.8435 0.49335 0.0
H776 H 0.96643 0.82918 0.51023 0.0
H777 H 0.96981 0.81346 0.49067 0.0
H778 H 0.96385 0.74353 0.49385 0.0
H779 H 0.02046 0.74459 0.50517 0.0
H780 H 0.27521 0.01485 0.83881 0.0
H781 H 0.22041 0.95823 0.82708 0.0
H782 H 0.16708 0.92448 0.87315 0.0
H783 H 0.22167 0.98122 0.88507 0.0
H784 H 0.17481 0.86505 0.85096 0.0
H785 H 0.10543 0.94334 0.82523 0.0
H786 H 0.15672 0.96425 0.82309 0.0
H787 H 0.13654 0.961 0.8424 0.0
C788 C 0.2519 0.9954 0.84648 0.0
C789 C 0.25275 0.00258 0.86288 0.0
C790 C 0.22064 0.96316 0.83974 0.0
C791 C 0.18986 0.93753 0.84928 0.0
C792 C 0.1907 0.94417 0.86565 0.0
H793 H 0.98234 0.72012 0.83303 0.0
H794 H 0.0393 0.77525 0.84421 0.0
C795 C 0.22184 0.97658 0.87241 0.0
C796 C 0.15671 0.90376 0.8421 0.0
H797 H 0.07647 0.87709 0.81974 0.0
C798 C 0.15319 0.8675 0.84415 0.0
C799 C 0.12902 0.90745 0.83314 0.0
C800 C 0.13173 0.94601 0.83082 0.0
C801 C 0.12257 0.83454 0.83729 0.0
C802 C 0.09435 0.83805 0.82854 0.0
C803 C 0.09813 0.87449 0.82645 0.0
C804 C 0.06029 0.80425 0.82168 0.0
C805 C 0.1212 0.79649 0.83921 0.0
C806 C 0.05263 0.80276 0.80536 0.0
C807 C 0.01977 0.7715 0.79894 0.0
C808 C 0.99399 0.74118 0.80876 0.0
C809 C 0.00178 0.74281 0.82511 0.0
C810 C 0.03447 0.77419 0.83152 0.0
H811 H 0.15007 0.8005 0.84192 0.0
H812 H 0.10187 0.78049 0.84925 0.0
H813 H 0.10998 0.77864 0.82833 0.0
H814 H 0.07211 0.82583 0.79758 0.0
H815 H 0.01458 0.77115 0.7863 0.0
H816 H 0.19974 0.17613 0.40459 0.0
H817 H 0.18431 0.18247 0.37698 0.0
H818 H 0.30296 0.22722 0.36391 0.0
H819 H 0.31872 0.22098 0.39136 0.0
H820 H 0.2679 0.27402 0.35538 0.0
H821 H 0.18264 0.12132 0.33577 0.0
H822 H 0.17063 0.13382 0.35462 0.0
H823 H 0.21609 0.13608 0.35218 0.0
C824 C 0.22245 0.18672 0.3958 0.0
C825 C 0.26051 0.19814 0.40022 0.0
C826 C 0.21353 0.19025 0.38002 0.0
C827 C 0.24249 0.20521 0.36843 0.0
C828 C 0.28021 0.21555 0.3727 0.0
H829 H 0.25867 0.23521 0.26796 0.0
H830 H 0.25657 0.21541 0.29554 0.0
C831 C 0.28912 0.21187 0.38841 0.0
C832 C 0.23432 0.21273 0.35207 0.0
H833 H 0.19067 0.16896 0.31725 0.0
C834 C 0.25077 0.2511 0.34706 0.0
C835 C 0.21204 0.1827 0.3413 0.0
C836 C 0.1944 0.14107 0.34611 0.0
C837 C 0.246 0.26027 0.33146 0.0
C838 C 0.22401 0.23026 0.32062 0.0
C839 C 0.20718 0.19186 0.32566 0.0
C840 C 0.22107 0.23846 0.30369 0.0
C841 C 0.26559 0.30197 0.3265 0.0
C842 C 0.20092 0.25711 0.29906 0.0
C843 C 0.20193 0.26841 0.28324 0.0
C844 C 0.22334 0.26141 0.27185 0.0
C845 C 0.24213 0.24129 0.27645 0.0
C846 C 0.24087 0.22981 0.2922 0.0
H847 H 0.2861 0.32135 0.33564 0.0
H848 H 0.2814 0.3062 0.31518 0.0
H849 H 0.24357 0.31054 0.32451 0.0
H850 H 0.18525 0.26379 0.30777 0.0
H851 H 0.18712 0.2838 0.28008 0.0
H852 H 0.01903 0.24806 0.5986 0.0
H853 H 0.03766 0.24818 0.6262 0.0
H854 H 0.91876 0.19551 0.64045 0.0
H855 H 0.89978 0.19433 0.61273 0.0
H856 H 0.02853 0.28763 0.64948 0.0
H857 H 0.95316 0.13357 0.66616 0.0
H858 H 0.9585 0.14932 0.64577 0.0
H859 H 0.92131 0.1484 0.65803 0.0
C860 C 0.99673 0.23583 0.60756 0.0
C861 C 0.95791 0.22125 0.60347 0.0
C862 C 0.00745 0.23592 0.62335 0.0
C863 C 0.97964 0.22154 0.63542 0.0
C864 C 0.94069 0.20593 0.63133 0.0
H865 H 0.9809 0.24763 0.73647 0.0
H866 H 0.96544 0.23042 0.70854 0.0
C867 C 0.92988 0.20547 0.61548 0.0
C868 C 0.99187 0.22644 0.65234 0.0
H869 H 0.97761 0.17898 0.68761 0.0
C870 C 0.01779 0.26375 0.65775 0.0
C871 C 0.97778 0.19533 0.66317 0.0
C872 C 0.95145 0.15436 0.65796 0.0
C873 C 0.02909 0.27099 0.67373 0.0
C874 C 0.01441 0.24003 0.6846 0.0
C875 C 0.98889 0.20263 0.67921 0.0
C876 C 0.02353 0.24656 0.70177 0.0
C877 C 0.05563 0.31192 0.67898 0.0
C878 C 0.06119 0.26037 0.70731 0.0
C879 C 0.0702 0.27023 0.72333 0.0
C880 C 0.04165 0.26652 0.73404 0.0
C881 C 0.00365 0.25111 0.72853 0.0
C882 C 0.99468 0.24112 0.71257 0.0
H883 H 0.05885 0.3331 0.66975 0.0
H884 H 0.04481 0.3183 0.69005 0.0
H885 H 0.08451 0.31585 0.68152 0.0
H886 H 0.08378 0.26437 0.69916 0.0
H887 H 0.0997 0.28189 0.72719 0.0
H888 H 0.78777 0.12518 0.05037 0.0
H889 H 0.78438 0.09619 0.02446 0.0
H890 H 0.78657 0.00109 0.04722 0.0
H891 H 0.79053 0.03014 0.07323 0.0
H892 H 0.8314 0.0266 0.01916 0.0
H893 H 0.68383 0.00173 0.00981 0.0
H894 H 0.71892 0.05096 0.01389 0.0
H895 H 0.70753 0.0149 0.02887 0.0
C896 C 0.78801 0.09833 0.04989 0.0
C897 C 0.78898 0.07978 0.0639 0.0
C898 C 0.78588 0.08171 0.03506 0.0
C899 C 0.78438 0.04608 0.03394 0.0
C900 C 0.78743 0.02847 0.04783 0.0
H901 H 0.69242 0.89991 0.9505 0.0
H902 H 0.70714 0.92314 0.97787 0.0
C903 C 0.78968 0.04514 0.06269 0.0
C904 C 0.77768 0.02638 0.01837 0.0
H905 H 0.7134 0.99004 0.98779 0.0
C906 C 0.80556 0.01843 0.01231 0.0
C907 C 0.74359 0.01505 0.00961 0.0
C908 C 0.71155 0.02071 0.01591 0.0
C909 C 0.80071 0.00044 0.99746 0.0
C910 C 0.76734 0.99064 0.9884 0.0
C911 C 0.73908 0.99773 0.99469 0.0
C912 C 0.76127 0.97398 0.97218 0.0
C913 C 0.83115 0.99176 0.99171 0.0
C914 C 0.78712 0.99443 0.95989 0.0
C915 C 0.77887 0.98112 0.94423 0.0
C916 C 0.74436 0.94729 0.94051 0.0
C917 C 0.71923 0.92608 0.95293 0.0
C918 C 0.72757 0.93936 0.96859 0.0
H919 H 0.8483 0.99015 1.00173 0.0
H920 H 0.81819 0.96421 0.98504 0.0
H921 H 0.85113 0.01513 0.98366 0.0
H922 H 0.8129 0.02161 0.96229 0.0
H923 H 0.79882 0.99828 0.93497 0.0
H924 H 0.83566 0.79901 0.26788 0.0
H925 H 0.83505 0.82019 0.2951 0.0
H926 H 0.77339 0.70194 0.31054 0.0
H927 H 0.77472 0.68062 0.28356 0.0
H928 H 0.77367 0.80623 0.31233 0.0
H929 H 0.85386 0.74866 0.34459 0.0
H930 H 0.85409 0.75167 0.3232 0.0
H931 H 0.81501 0.71174 0.33334 0.0
C932 C 0.8226 0.77753 0.27713 0.0
C933 C 0.80533 0.7381 0.27352 0.0
C934 C 0.8222 0.7897 0.29268 0.0
C935 C 0.80464 0.76272 0.30495 0.0
C936 C 0.78801 0.72339 0.30141 0.0
H937 H 0.69223 0.77389 0.38927 0.0
H938 H 0.71237 0.77018 0.36234 0.0
C939 C 0.78859 0.71122 0.28591 0.0
C940 C 0.80091 0.77529 0.32115 0.0
H941 H 0.81274 0.76315 0.36048 0.0
C942 C 0.78274 0.79727 0.32285 0.0
C943 C 0.81329 0.76426 0.3349 0.0
C944 C 0.83552 0.74314 0.33392 0.0
C945 C 0.77499 0.80692 0.3379 0.0
C946 C 0.78483 0.79343 0.35166 0.0
C947 C 0.80468 0.77307 0.34996 0.0
C948 C 0.77314 0.79835 0.36786 0.0
C949 C 0.75627 0.83141 0.33888 0.0
C950 C 0.80047 0.81489 0.38007 0.0
C951 C 0.78895 0.81665 0.3956 0.0
C952 C 0.74982 0.80177 0.39923 0.0
C953 C 0.72263 0.78594 0.3869 0.0
C954 C 0.73414 0.784 0.37143 0.0
H955 H 0.76274 0.84985 0.32819 0.0
H956 H 0.7246 0.81244 0.33952 0.0
H957 H 0.76592 0.85013 0.34957 0.0
H958 H 0.8307 0.82597 0.37763 0.0
H959 H 0.81064 0.82894 0.40481 0.0
H960 H 0.0844 0.77002 0.6153 0.0
H961 H 0.06077 0.76559 0.64234 0.0
H962 H 0.00495 0.82918 0.62854 0.0
H963 H 0.0277 0.83292 0.60125 0.0
H964 H 0.07041 0.81878 0.66447 0.0
H965 H 0.91638 0.73267 0.64744 0.0
H966 H 0.95482 0.74193 0.63386 0.0
H967 H 0.9424 0.77847 0.6377 0.0
C968 C 0.06729 0.78331 0.61799 0.0
C969 C 0.05764 0.80152 0.60604 0.0
C970 C 0.05381 0.78076 0.63349 0.0
C971 C 0.03044 0.79638 0.63742 0.0
C972 C 0.02213 0.81607 0.6257 0.0
H973 H 0.97311 0.80384 0.73794 0.0
H974 H 0.9958 0.82347 0.71069 0.0
C975 C 0.03541 0.81843 0.61013 0.0
C976 C 0.01426 0.79104 0.65371 0.0
H977 H 0.92986 0.74898 0.67449 0.0
C978 C 0.03968 0.80375 0.66667 0.0
C979 C 0.97413 0.77101 0.65656 0.0
C980 C 0.94527 0.75489 0.64319 0.0
C981 C 0.02614 0.7964 0.68239 0.0
C982 C 0.986 0.77657 0.68524 0.0
C983 C 0.96059 0.76448 0.67228 0.0
C984 C 0.9698 0.76539 0.70151 0.0
C985 C 0.05497 0.80846 0.69575 0.0
C986 C 0.94617 0.72635 0.70527 0.0
C987 C 0.93272 0.71507 0.72075 0.0
C988 C 0.94268 0.74264 0.73285 0.0
C989 C 0.96516 0.78185 0.72894 0.0
C990 C 0.97841 0.79312 0.71339 0.0
H991 H 0.08377 0.81495 0.69145 0.0
H992 H 0.05813 0.83486 0.70141 0.0
H993 H 0.04522 0.78566 0.70495 0.0
H994 H 0.93898 0.70443 0.69629 0.0
H995 H 0.91541 0.68463 0.7233 0.0
H996 H 0.22432 0.90857 0.05665 0.0
H997 H 0.22822 0.932 0.02961 0.0
H998 H 0.16099 0.98407 0.04323 0.0
H999 H 0.15778 0.96154 0.07052 0.0
H1000 H 0.175 0.92083 0.00728 0.0
H1001 H 0.25621 0.07491 0.02474 0.0
H1002 H 0.24796 0.03668 0.03826 0.0
H1003 H 0.21034 0.04747 0.03428 0.0
C1004 C 0.2101 0.92478 0.05392 0.0
C1005 C 0.19105 0.9335 0.06582 0.0
C1006 C 0.21236 0.93815 0.03842 0.0
C1007 C 0.19558 0.96047 0.03444 0.0
C1008 C 0.17499 0.96773 0.0461 0.0
H1009 H 0.18843 0.01791 0.9339 0.0
H1010 H 0.16854 0.99452 0.96105 0.0
C1011 C 0.17294 0.95458 0.06168 0.0
C1012 C 0.20076 0.97678 0.01818 0.0
H1013 H 0.2408 0.06149 0.99762 0.0
C1014 C 0.18914 0.95158 0.00516 0.0
C1015 C 0.21965 0.01695 0.01543 0.0
C1016 C 0.23461 0.04566 0.02889 0.0
C1017 C 0.1965 0.96538 0.98948 0.0
C1018 C 0.21519 0.00555 0.98673 0.0
C1019 C 0.22616 0.03072 0.99975 0.0
C1020 C 0.22641 0.02213 0.97052 0.0
C1021 C 0.18571 0.93687 0.97605 0.0
C1022 C 0.26537 0.04687 0.96695 0.0
C1023 C 0.27677 0.0607 0.95153 0.0
C1024 C 0.24944 0.05003 0.93929 0.0
C1025 C 0.21026 0.02643 0.94301 0.0
C1026 C 0.19884 0.0128 0.9585 0.0
H1027 H 0.1801 0.90831 0.98032 0.0
H1028 H 0.15911 0.93284 0.97027 0.0
H1029 H 0.20881 0.94746 0.96696 0.0
H1030 H 0.28715 0.05463 0.97604 0.0
H1031 H 0.30718 0.07887 0.94912 0.0
loop_
_geom_bond_atom_site_label_1
_geom_bond_atom_site_label_2
_geom_bond_distance
_geom_bond_site_symmetry_2
_ccdc_geom_bond_type
Zn0 O3 2.031 . S
Zn0 O5 2.049 . S
Zn0 O10 2.067 . S
Zn1 O2 1.962 . S
Zn1 O4 1.986 . S
Zn1 O6 1.996 . S
Zn1 O9 1.943 . S
O2 Zn1 1.962 . S
O2 C7 1.254 . S
O3 Zn0 2.031 . S
O3 C7 1.269 . S
O4 Zn1 1.986 . S
O4 C11 1.262 . S
O5 Zn0 2.049 . S
O5 C13 1.260 . S
O6 Zn1 1.996 . S
O6 C13 1.257 . S
C7 O2 1.254 . S
C7 O3 1.269 . S
C8 O9 1.249 . S
C8 O10 1.270 . S
O9 Zn1 1.943 . S
O9 C8 1.249 . S
O10 Zn0 2.067 . S
O10 C8 1.270 . S
C11 O4 1.262 . S
C11 O12 1.232 . S
O12 C11 1.232 . S
C13 O5 1.260 . S
C13 O6 1.257 . S
Zn14 O17 2.031 . S
Zn14 O19 2.049 . S
Zn14 O24 2.067 . S
Zn15 O16 1.962 . S
Zn15 O18 1.986 . S
Zn15 O20 1.996 . S
Zn15 O23 1.943 . S
O16 Zn15 1.962 . S
O16 C21 1.254 . S
O17 Zn14 2.031 . S
O17 C21 1.269 . S
O18 Zn15 1.986 . S
O18 C25 1.262 . S
O19 Zn14 2.049 . S
O19 C27 1.260 . S
O20 Zn15 1.996 . S
O20 C27 1.257 . S
C21 O16 1.254 . S
C21 O17 1.269 . S
C22 O23 1.258 . S
C22 O24 1.287 . S
O23 Zn15 1.943 . S
O23 C22 1.258 . S
O24 Zn14 2.067 . S
O24 C22 1.287 . S
C25 O18 1.262 . S
C25 O26 1.232 . S
O26 C25 1.232 . S
C27 O19 1.260 . S
C27 O20 1.257 . S
Zn28 O31 2.031 . S
Zn28 O33 2.049 . S
Zn28 O38 2.067 . S
Zn29 O30 1.962 . S
Zn29 O32 1.986 . S
Zn29 O34 1.996 . S
Zn29 O37 1.943 . S
O30 Zn29 1.962 . S
O30 C35 1.254 . S
O31 Zn28 2.031 . S
O31 C35 1.269 . S
O32 Zn29 1.986 . S
O32 C39 1.262 . S
O33 Zn28 2.049 . S
O33 C41 1.260 . S
O34 Zn29 1.996 . S
O34 C41 1.257 . S
C35 O30 1.254 . S
C35 O31 1.269 . S
C36 O37 1.258 . S
C36 O38 1.270 . S
O37 Zn29 1.943 . S
O37 C36 1.258 . S
O38 Zn28 2.067 . S
O38 C36 1.270 . S
C39 O32 1.262 . S
C39 O40 1.232 . S
O40 C39 1.232 . S
C41 O33 1.260 . S
C41 O34 1.257 . S
Zn42 O45 2.031 . S
Zn42 O47 2.049 . S
Zn42 O52 2.067 . S
Zn43 O44 1.962 . S
Zn43 O46 1.986 . S
Zn43 O48 1.996 . S
Zn43 O51 1.943 . S
O44 Zn43 1.962 . S
O44 C49 1.254 . S
O45 Zn42 2.031 . S
O45 C49 1.269 . S
O46 Zn43 1.986 . S
O46 C53 1.262 . S
O47 Zn42 2.049 . S
O47 C55 1.260 . S
O48 Zn43 1.996 . S
O48 C55 1.257 . S
C49 O44 1.254 . S
C49 O45 1.269 . S
C50 O51 1.249 . S
C50 O52 1.270 . S
O51 Zn43 1.943 . S
O51 C50 1.249 . S
O52 Zn42 2.067 . S
O52 C50 1.270 . S
C53 O46 1.262 . S
C53 O54 1.232 . S
O54 C53 1.232 . S
C55 O47 1.260 . S
C55 O48 1.257 . S
Zn56 O59 2.031 . S
Zn56 O61 2.049 . S
Zn56 O66 2.067 . S
Zn57 O58 1.962 . S
Zn57 O60 1.986 . S
Zn57 O62 1.996 . S
Zn57 O65 1.943 . S
O58 Zn57 1.962 . S
O58 C63 1.254 . S
O59 Zn56 2.031 . S
O59 C63 1.269 . S
O60 Zn57 1.986 . S
O60 C67 1.262 . S
O61 Zn56 2.049 . S
O61 C69 1.260 . S
O62 Zn57 1.996 . S
O62 C69 1.257 . S
C63 O58 1.254 . S
C63 O59 1.269 . S
C64 O65 1.257 . S
C64 O66 1.287 . S
O65 Zn57 1.943 . S
O65 C64 1.257 . S
O66 Zn56 2.067 . S
O66 C64 1.287 . S
C67 O60 1.262 . S
C67 O68 1.232 . S
O68 C67 1.232 . S
C69 O61 1.260 . S
C69 O62 1.257 . S
Zn70 O73 2.031 . S
Zn70 O75 2.049 . S
Zn70 O80 2.067 . S
Zn71 O72 1.962 . S
Zn71 O74 1.986 . S
Zn71 O76 1.996 . S
Zn71 O79 1.943 . S
O72 Zn71 1.962 . S
O72 C77 1.254 . S
O73 Zn70 2.031 . S
O73 C77 1.269 . S
O74 Zn71 1.986 . S
O74 C81 1.262 . S
O75 Zn70 2.049 . S
O75 C83 1.260 . S
O76 Zn71 1.996 . S
O76 C83 1.257 . S
C77 O72 1.254 . S
C77 O73 1.269 . S
C78 O79 1.258 . S
C78 O80 1.270 . S
O79 Zn71 1.943 . S
O79 C78 1.258 . S
O80 Zn70 2.067 . S
O80 C78 1.270 . S
C81 O74 1.262 . S
C81 O82 1.232 . S
O82 C81 1.232 . S
C83 O75 1.260 . S
C83 O76 1.257 . S
Zn84 O87 2.031 . S
Zn84 O89 2.049 . S
Zn84 O94 2.067 . S
Zn85 O86 1.962 . S
Zn85 O88 1.986 . S
Zn85 O90 1.996 . S
Zn85 O93 1.943 . S
O86 Zn85 1.962 . S
O86 C91 1.254 . S
O87 Zn84 2.031 . S
O87 C91 1.269 . S
O88 Zn85 1.986 . S
O88 C95 1.262 . S
O89 Zn84 2.049 . S
O89 C97 1.260 . S
O90 Zn85 1.996 . S
O90 C97 1.257 . S
C91 O86 1.254 . S
C91 O87 1.269 . S
C92 O93 1.249 . S
C92 O94 1.270 . S
O93 Zn85 1.943 . S
O93 C92 1.249 . S
O94 Zn84 2.067 . S
O94 C92 1.270 . S
C95 O88 1.262 . S
C95 O96 1.232 . S
O96 C95 1.232 . S
C97 O89 1.260 . S
C97 O90 1.257 . S
Zn98 O101 2.031 . S
Zn98 O103 2.049 . S
Zn98 O108 2.067 . S
Zn99 O100 1.962 . S
Zn99 O102 1.986 . S
Zn99 O104 1.996 . S
Zn99 O107 1.943 . S
O100 Zn99 1.962 . S
O100 C105 1.254 . S
O101 Zn98 2.031 . S
O101 C105 1.269 . S
O102 Zn99 1.986 . S
O102 C109 1.262 . S
O103 Zn98 2.049 . S
O103 C111 1.260 . S
O104 Zn99 1.996 . S
O104 C111 1.257 . S
C105 O100 1.254 . S
C105 O101 1.269 . S
C106 O107 1.258 . S
C106 O108 1.270 . S
O107 Zn99 1.943 . S
O107 C106 1.258 . S
O108 Zn98 2.067 . S
O108 C106 1.270 . S
C109 O102 1.262 . S
C109 O110 1.232 . S
O110 C109 1.232 . S
C111 O103 1.260 . S
C111 O104 1.257 . S
Zn112 O115 2.031 . S
Zn112 O117 2.049 . S
Zn112 O122 2.067 . S
Zn113 O114 1.962 . S
Zn113 O116 1.986 . S
Zn113 O118 1.996 . S
Zn113 O121 1.943 . S
O114 Zn113 1.962 . S
O114 C119 1.254 . S
O115 Zn112 2.031 . S
O115 C119 1.269 . S
O116 Zn113 1.986 . S
O116 C123 1.262 . S
O117 Zn112 2.049 . S
O117 C125 1.260 . S
O118 Zn113 1.996 . S
O118 C125 1.257 . S
C119 O114 1.254 . S
C119 O115 1.269 . S
C120 O121 1.257 . S
C120 O122 1.287 . S
O121 Zn113 1.943 . S
O121 C120 1.257 . S
O122 Zn112 2.067 . S
O122 C120 1.287 . S
C123 O116 1.262 . S
C123 O124 1.232 . S
O124 C123 1.232 . S
C125 O117 1.260 . S
C125 O118 1.257 . S
Zn126 O129 2.031 . S
Zn126 O131 2.049 . S
Zn126 O136 2.067 . S
Zn127 O128 1.962 . S
Zn127 O130 1.986 . S
Zn127 O132 1.996 . S
Zn127 O135 1.943 . S
O128 Zn127 1.962 . S
O128 C133 1.254 . S
O129 Zn126 2.031 . S
O129 C133 1.269 . S
O130 Zn127 1.986 . S
O130 C137 1.262 . S
O131 Zn126 2.049 . S
O131 C139 1.260 . S
O132 Zn127 1.996 . S
O132 C139 1.257 . S
C133 O128 1.254 . S
C133 O129 1.269 . S
C134 O135 1.249 . S
C134 O136 1.270 . S
O135 Zn127 1.943 . S
O135 C134 1.249 . S
O136 Zn126 2.067 . S
O136 C134 1.270 . S
C137 O130 1.262 . S
C137 O138 1.232 . S
O138 C137 1.232 . S
C139 O131 1.260 . S
C139 O132 1.257 . S
Zn140 O143 2.031 . S
Zn140 O145 2.049 . S
Zn140 O150 2.067 . S
Zn141 O142 1.962 . S
Zn141 O144 1.986 . S
Zn141 O146 1.996 . S
Zn141 O149 1.943 . S
O142 Zn141 1.962 . S
O142 C147 1.254 . S
O143 Zn140 2.031 . S
O143 C147 1.269 . S
O144 Zn141 1.986 . S
O144 C151 1.262 . S
O145 Zn140 2.049 . S
O145 C153 1.260 . S
O146 Zn141 1.996 . S
O146 C153 1.257 . S
C147 O142 1.254 . S
C147 O143 1.269 . S
C148 O149 1.258 . S
C148 O150 1.270 . S
O149 Zn141 1.943 . S
O149 C148 1.258 . S
O150 Zn140 2.067 . S
O150 C148 1.270 . S
C151 O144 1.262 . S
C151 O152 1.232 . S
O152 C151 1.232 . S
C153 O145 1.260 . S
C153 O146 1.257 . S
Zn154 O157 2.031 . S
Zn154 O159 2.049 . S
Zn154 O164 2.067 . S
Zn155 O156 1.962 . S
Zn155 O158 1.986 . S
Zn155 O160 1.996 . S
Zn155 O163 1.943 . S
O156 Zn155 1.962 . S
O156 C161 1.254 . S
O157 Zn154 2.031 . S
O157 C161 1.269 . S
O158 Zn155 1.986 . S
O158 C165 1.262 . S
O159 Zn154 2.049 . S
O159 C167 1.260 . S
O160 Zn155 1.996 . S
O160 C167 1.257 . S
C161 O156 1.254 . S
C161 O157 1.269 . S
C162 O163 1.258 . S
C162 O164 1.287 . S
O163 Zn155 1.943 . S
O163 C162 1.258 . S
O164 Zn154 2.067 . S
O164 C162 1.287 . S
C165 O158 1.262 . S
C165 O166 1.232 . S
O166 C165 1.232 . S
C167 O159 1.260 . S
C167 O160 1.257 . S
H168 C176 0.929 . S
H169 C178 0.930 . S
H170 C180 0.930 . S
H171 C183 0.929 . S
H172 C186 0.930 . S
H173 C188 0.960 . S
H174 C188 0.960 . S
H175 C188 0.960 . S
C176 H168 0.929 . S
C176 C177 1.377 . S
C176 C178 1.384 . S
C177 C176 1.377 . S
C177 C183 1.390 . S
C178 H169 0.930 . S
C178 C176 1.384 . S
C178 C179 1.372 . S
C179 C178 1.372 . S
C179 C180 1.400 . S
C179 C184 1.490 . S
C180 H170 0.930 . S
C180 C179 1.400 . S
C180 C183 1.386 . S
H181 C197 0.930 . S
H182 C198 0.931 . S
C183 H171 0.929 . S
C183 C177 1.390 . S
C183 C180 1.386 . S
C184 C179 1.490 . S
C184 C186 1.395 . S
C184 C187 1.403 . S
H185 C191 0.930 . S
C186 H172 0.930 . S
C186 C184 1.395 . S
C186 C189 1.403 1_655 S
C187 C184 1.403 . S
C187 C188 1.524 . S
C187 C191 1.400 1_655 S
C188 H173 0.960 . S
C188 H174 0.960 . S
C188 H175 0.960 . S
C188 C187 1.524 . S
C189 C186 1.403 1_455 S
C189 C190 1.392 . S
C189 C193 1.495 . S
C190 C189 1.392 . S
C190 C191 1.385 . S
C190 C192 1.478 . S
C191 H185 0.930 . S
C191 C187 1.400 1_455 S
C191 C190 1.385 . S
C192 C190 1.478 . S
C192 C194 1.381 . S
C192 C198 1.383 . S
C193 C189 1.495 . S
C193 H199 0.959 . S
C193 H200 0.961 . S
C193 H201 0.960 . S
C194 C192 1.381 . S
C194 C195 1.394 . S
C194 H202 0.930 . S
C195 C194 1.394 . S
C195 C196 1.383 . S
C195 H203 0.929 . S
C196 C195 1.383 . S
C196 C197 1.377 . S
C197 H181 0.930 . S
C197 C196 1.377 . S
C197 C198 1.379 . S
C198 H182 0.931 . S
C198 C192 1.383 . S
C198 C197 1.379 . S
H199 C193 0.959 . S
H200 C193 0.961 . S
H201 C193 0.960 . S
H202 C194 0.930 . S
H203 C195 0.929 . S
H204 C212 0.929 . S
H205 C214 0.930 . S
H206 C216 0.930 . S
H207 C219 0.929 . S
H208 C222 0.930 . S
H209 C224 0.960 1_565 S
H210 C224 0.960 . S
H211 C224 0.960 . S
C212 H204 0.929 . S
C212 C213 1.377 . S
C212 C214 1.384 . S
C213 C212 1.377 . S
C213 C219 1.390 . S
C214 H205 0.930 . S
C214 C212 1.384 . S
C214 C215 1.372 . S
C215 C214 1.372 . S
C215 C216 1.400 . S
C215 C220 1.490 . S
C216 H206 0.930 . S
C216 C215 1.400 . S
C216 C219 1.386 . S
H217 C233 0.930 . S
H218 C234 0.931 . S
C219 H207 0.929 . S
C219 C213 1.390 . S
C219 C216 1.386 . S
C220 C215 1.490 . S
C220 C222 1.395 . S
C220 C223 1.403 . S
H221 C227 0.930 . S
C222 H208 0.930 . S
C222 C220 1.395 . S
C222 C225 1.403 1_545 S
C223 C220 1.403 . S
C223 C224 1.524 . S
C223 C227 1.400 1_545 S
C224 H209 0.960 1_545 S
C224 H210 0.960 . S
C224 H211 0.960 . S
C224 C223 1.524 . S
C225 C222 1.403 1_565 S
C225 C226 1.392 . S
C225 C229 1.495 . S
C226 C225 1.392 . S
C226 C227 1.385 . S
C226 C228 1.478 . S
C227 H221 0.930 . S
C227 C223 1.400 1_565 S
C227 C226 1.385 . S
C228 C226 1.478 . S
C228 C230 1.381 . S
C228 C234 1.383 . S
C229 C225 1.495 . S
C229 H235 0.959 1_565 S
C229 H236 0.961 . S
C229 H237 0.960 . S
C230 C228 1.381 . S
C230 C231 1.394 . S
C230 H238 0.930 . S
C231 C230 1.394 . S
C231 C232 1.383 . S
C231 H239 0.929 . S
C232 C231 1.383 . S
C232 C233 1.377 . S
C233 H217 0.930 . S
C233 C232 1.377 . S
C233 C234 1.379 . S
C234 H218 0.931 . S
C234 C228 1.383 . S
C234 C233 1.379 . S
H235 C229 0.959 1_545 S
H236 C229 0.961 . S
H237 C229 0.960 . S
H238 C230 0.930 . S
H239 C231 0.929 . S
H240 C248 0.929 . S
H241 C250 0.930 . S
H242 C252 0.930 . S
H243 C255 0.929 . S
H244 C258 0.930 . S
H245 C260 0.960 . S
H246 C260 0.960 . S
H247 C260 0.960 . S
C248 H240 0.929 . S
C248 C249 1.377 . S
C248 C250 1.384 . S
C249 C248 1.377 . S
C249 C255 1.390 . S
C250 H241 0.930 . S
C250 C248 1.384 . S
C250 C251 1.372 . S
C251 C250 1.372 . S
C251 C252 1.400 . S
C251 C256 1.490 . S
C252 H242 0.930 . S
C252 C251 1.400 . S
C252 C255 1.386 . S
H253 C269 0.930 . S
H254 C270 0.931 . S
C255 H243 0.929 . S
C255 C249 1.390 . S
C255 C252 1.386 . S
C256 C251 1.490 . S
C256 C258 1.395 . S
C256 C259 1.403 . S
H257 C263 0.930 . S
C258 H244 0.930 . S
C258 C256 1.395 . S
C258 C261 1.403 . S
C259 C256 1.403 . S
C259 C260 1.524 . S
C259 C263 1.400 . S
C260 H245 0.960 . S
C260 H246 0.960 . S
C260 H247 0.960 . S
C260 C259 1.524 . S
C261 C258 1.403 . S
C261 C262 1.392 . S
C261 C265 1.495 . S
C262 C261 1.392 . S
C262 C263 1.385 . S
C262 C264 1.478 . S
C263 H257 0.930 . S
C263 C259 1.400 . S
C263 C262 1.385 . S
C264 C262 1.478 . S
C264 C266 1.381 . S
C264 C270 1.383 . S
C265 C261 1.495 . S
C265 H271 0.959 . S
C265 H272 0.961 . S
C265 H273 0.960 . S
C266 C264 1.381 . S
C266 C267 1.394 . S
C266 H274 0.930 . S
C267 C266 1.394 . S
C267 C268 1.383 . S
C267 H275 0.929 . S
C268 C267 1.383 . S
C268 C269 1.377 . S
C269 H253 0.930 . S
C269 C268 1.377 . S
C269 C270 1.379 . S
C270 H254 0.931 . S
C270 C264 1.383 . S
C270 C269 1.379 . S
H271 C265 0.959 . S
H272 C265 0.961 . S
H273 C265 0.960 . S
H274 C266 0.930 . S
H275 C267 0.929 . S
H276 C284 0.929 . S
H277 C286 0.930 . S
H278 C288 0.930 . S
H279 C291 0.929 . S
H280 C294 0.930 . S
H281 C296 0.960 . S
H282 C296 0.960 . S
H283 C296 0.960 . S
C284 H276 0.929 . S
C284 C285 1.377 . S
C284 C286 1.384 . S
C285 C284 1.377 . S
C285 C291 1.390 . S
C286 H277 0.930 . S
C286 C284 1.384 . S
C286 C287 1.372 . S
C287 C286 1.372 . S
C287 C288 1.400 . S
C287 C292 1.490 . S
C288 H278 0.930 . S
C288 C287 1.400 . S
C288 C291 1.386 . S
H289 C305 0.930 . S
H290 C306 0.931 . S
C291 H279 0.929 . S
C291 C285 1.390 . S
C291 C288 1.386 . S
C292 C287 1.490 . S
C292 C294 1.395 . S
C292 C295 1.403 . S
H293 C299 0.930 . S
C294 H280 0.930 . S
C294 C292 1.395 . S
C294 C297 1.403 1_655 S
C295 C292 1.403 . S
C295 C296 1.524 . S
C295 C299 1.400 1_655 S
C296 H281 0.960 . S
C296 H282 0.960 . S
C296 H283 0.960 . S
C296 C295 1.524 . S
C297 C294 1.403 1_455 S
C297 C298 1.392 . S
C297 C301 1.495 . S
C298 C297 1.392 . S
C298 C299 1.385 . S
C298 C300 1.478 . S
C299 H293 0.930 . S
C299 C295 1.400 1_455 S
C299 C298 1.385 . S
C300 C298 1.478 . S
C300 C302 1.381 . S
C300 C306 1.383 . S
C301 C297 1.495 . S
C301 H307 0.959 . S
C301 H308 0.961 . S
C301 H309 0.960 . S
C302 C300 1.381 . S
C302 C303 1.394 . S
C302 H310 0.930 . S
C303 C302 1.394 . S
C303 C304 1.383 . S
C303 H311 0.929 . S
C304 C303 1.383 . S
C304 C305 1.377 . S
C305 H289 0.930 . S
C305 C304 1.377 . S
C305 C306 1.379 . S
C306 H290 0.931 . S
C306 C300 1.383 . S
C306 C305 1.379 . S
H307 C301 0.959 . S
H308 C301 0.961 . S
H309 C301 0.960 . S
H310 C302 0.930 . S
H311 C303 0.929 . S
H312 C320 0.929 . S
H313 C322 0.930 . S
H314 C324 0.930 . S
H315 C327 0.929 . S
H316 C330 0.930 . S
H317 C332 0.937 1_565 S
H318 C332 0.961 . S
H319 C332 0.979 . S
C320 H312 0.929 . S
C320 C321 1.377 . S
C320 C322 1.384 . S
C321 C320 1.377 . S
C321 C327 1.390 . S
C322 H313 0.930 . S
C322 C320 1.384 . S
C322 C323 1.372 . S
C323 C322 1.372 . S
C323 C324 1.400 . S
C323 C328 1.490 . S
C324 H314 0.930 . S
C324 C323 1.400 . S
C324 C327 1.386 . S
H325 C341 0.930 . S
H326 C342 0.931 . S
C327 H315 0.929 . S
C327 C321 1.390 . S
C327 C324 1.386 . S
C328 C323 1.490 . S
C328 C330 1.395 . S
C328 C331 1.403 . S
H329 C335 0.930 . S
C330 H316 0.930 . S
C330 C328 1.395 . S
C330 C333 1.403 . S
C331 C328 1.403 . S
C331 C332 1.528 . S
C331 C335 1.400 1_545 S
C332 H317 0.937 1_545 S
C332 H318 0.961 . S
C332 H319 0.979 . S
C332 C331 1.528 . S
C333 C330 1.403 . S
C333 C334 1.392 1_545 S
C333 C337 1.495 . S
C334 C333 1.392 1_565 S
C334 C335 1.385 . S
C334 C336 1.478 . S
C335 H329 0.930 . S
C335 C331 1.400 1_565 S
C335 C334 1.385 . S
C336 C334 1.478 . S
C336 C338 1.381 . S
C336 C342 1.383 . S
C337 C333 1.495 . S
C337 H343 0.959 . S
C337 H344 0.961 1_545 S
C337 H345 0.960 1_545 S
C338 C336 1.381 . S
C338 C339 1.394 . S
C338 H346 0.930 . S
C339 C338 1.394 . S
C339 C340 1.383 . S
C339 H347 0.929 . S
C340 C339 1.383 . S
C340 C341 1.377 . S
C341 H325 0.930 . S
C341 C340 1.377 . S
C341 C342 1.379 . S
C342 H326 0.931 . S
C342 C336 1.383 . S
C342 C341 1.379 . S
H343 C337 0.959 . S
H344 C337 0.961 1_565 S
H345 C337 0.960 1_565 S
H346 C338 0.930 . S
H347 C339 0.929 . S
H348 C356 0.929 . S
H349 C358 0.930 . S
H350 C360 0.930 . S
H351 C363 0.929 . S
H352 C366 0.930 . S
H353 C368 0.960 . S
H354 C368 0.960 . S
H355 C368 0.960 . S
C356 H348 0.929 . S
C356 C357 1.377 . S
C356 C358 1.384 . S
C357 C356 1.377 . S
C357 C363 1.390 . S
C358 H349 0.930 . S
C358 C356 1.384 . S
C358 C359 1.372 . S
C359 C358 1.372 . S
C359 C360 1.400 . S
C359 C364 1.490 . S
C360 H350 0.930 . S
C360 C359 1.400 . S
C360 C363 1.386 . S
H361 C377 0.930 . S
H362 C378 0.931 . S
C363 H351 0.929 . S
C363 C357 1.390 . S
C363 C360 1.386 . S
C364 C359 1.490 . S
C364 C366 1.395 . S
C364 C367 1.403 . S
H365 C371 0.930 . S
C366 H352 0.930 . S
C366 C364 1.395 . S
C366 C369 1.403 . S
C367 C364 1.403 . S
C367 C368 1.524 . S
C367 C371 1.400 . S
C368 H353 0.960 . S
C368 H354 0.960 . S
C368 H355 0.960 . S
C368 C367 1.524 . S
C369 C366 1.403 . S
C369 C370 1.392 . S
C369 C373 1.495 . S
C370 C369 1.392 . S
C370 C371 1.385 . S
C370 C372 1.478 . S
C371 H365 0.930 . S
C371 C367 1.400 . S
C371 C370 1.385 . S
C372 C370 1.478 . S
C372 C374 1.381 . S
C372 C378 1.383 . S
C373 C369 1.495 . S
C373 H379 0.959 . S
C373 H380 0.961 . S
C373 H381 0.960 . S
C374 C372 1.381 . S
C374 C375 1.394 . S
C374 H382 0.930 . S
C375 C374 1.394 . S
C375 C376 1.383 . S
C375 H383 0.929 . S
C376 C375 1.383 . S
C376 C377 1.377 . S
C377 H361 0.930 . S
C377 C376 1.377 . S
C377 C378 1.379 . S
C378 H362 0.931 . S
C378 C372 1.383 . S
C378 C377 1.379 . S
H379 C373 0.959 . S
H380 C373 0.961 . S
H381 C373 0.960 . S
H382 C374 0.930 . S
H383 C375 0.929 . S
H384 C392 0.929 . S
H385 C394 0.930 . S
H386 C396 0.930 . S
H387 C399 0.929 . S
H388 C402 0.930 . S
H389 C404 0.960 . S
H390 C404 0.960 . S
H391 C404 0.960 . S
C392 H384 0.929 . S
C392 C393 1.377 . S
C392 C394 1.384 . S
C393 C392 1.377 . S
C393 C399 1.390 . S
C394 H385 0.930 . S
C394 C392 1.384 . S
C394 C395 1.372 . S
C395 C394 1.372 . S
C395 C396 1.400 . S
C395 C400 1.490 . S
C396 H386 0.930 . S
C396 C395 1.400 . S
C396 C399 1.386 . S
H397 C413 0.930 . S
H398 C414 0.931 . S
C399 H387 0.929 . S
C399 C393 1.390 . S
C399 C396 1.386 . S
C400 C395 1.490 . S
C400 C402 1.395 . S
C400 C403 1.403 . S
H401 C407 0.930 . S
C402 H388 0.930 . S
C402 C400 1.395 . S
C402 C405 1.403 . S
C403 C400 1.403 . S
C403 C404 1.524 . S
C403 C407 1.400 . S
C404 H389 0.960 . S
C404 H390 0.960 . S
C404 H391 0.960 . S
C404 C403 1.524 . S
C405 C402 1.403 . S
C405 C406 1.392 . S
C405 C409 1.495 . S
C406 C405 1.392 . S
C406 C407 1.385 . S
C406 C408 1.478 . S
C407 H401 0.930 . S
C407 C403 1.400 . S
C407 C406 1.385 . S
C408 C406 1.478 . S
C408 C410 1.381 . S
C408 C414 1.383 . S
C409 C405 1.495 . S
C409 H415 0.959 . S
C409 H416 0.961 . S
C409 H417 0.960 . S
C410 C408 1.381 . S
C410 C411 1.394 . S
C410 H418 0.930 . S
C411 C410 1.394 . S
C411 C412 1.383 . S
C411 H419 0.929 . S
C412 C411 1.383 . S
C412 C413 1.377 . S
C413 H397 0.930 . S
C413 C412 1.377 . S
C413 C414 1.379 . S
C414 H398 0.931 . S
C414 C408 1.383 . S
C414 C413 1.379 . S
H415 C409 0.959 . S
H416 C409 0.961 . S
H417 C409 0.960 . S
H418 C410 0.930 . S
H419 C411 0.929 . S
H420 C428 0.929 . S
H421 C430 0.930 . S
H422 C432 0.930 . S
H423 C435 0.929 . S
H424 C438 0.930 . S
H425 C440 0.960 . S
H426 C440 0.960 . S
H427 C440 0.960 . S
C428 H420 0.929 . S
C428 C429 1.377 . S
C428 C430 1.384 . S
C429 C428 1.377 . S
C429 C435 1.390 . S
C430 H421 0.930 . S
C430 C428 1.384 . S
C430 C431 1.372 . S
C431 C430 1.372 . S
C431 C432 1.400 . S
C431 C436 1.490 . S
C432 H422 0.930 . S
C432 C431 1.400 . S
C432 C435 1.386 . S
H433 C449 0.930 . S
H434 C450 0.931 . S
C435 H423 0.929 . S
C435 C429 1.390 . S
C435 C432 1.386 . S
C436 C431 1.490 . S
C436 C438 1.395 . S
C436 C439 1.403 1_455 S
H437 C443 0.930 . S
C438 H424 0.930 . S
C438 C436 1.395 . S
C438 C441 1.403 . S
C439 C436 1.403 1_655 S
C439 C440 1.524 . S
C439 C443 1.400 . S
C440 H425 0.960 . S
C440 H426 0.960 . S
C440 H427 0.960 . S
C440 C439 1.524 . S
C441 C438 1.403 . S
C441 C442 1.392 1_455 S
C441 C445 1.495 . S
C442 C441 1.392 1_655 S
C442 C443 1.385 . S
C442 C444 1.478 . S
C443 H437 0.930 . S
C443 C439 1.400 . S
C443 C442 1.385 . S
C444 C442 1.478 . S
C444 C446 1.381 . S
C444 C450 1.383 . S
C445 C441 1.495 . S
C445 H451 0.959 . S
C445 H452 0.961 . S
C445 H453 0.960 . S
C446 C444 1.381 . S
C446 C447 1.394 . S
C446 H454 0.930 . S
C447 C446 1.394 . S
C447 C448 1.383 . S
C447 H455 0.929 . S
C448 C447 1.383 . S
C448 C449 1.377 . S
C449 H433 0.930 . S
C449 C448 1.377 . S
C449 C450 1.379 . S
C450 H434 0.931 . S
C450 C444 1.383 . S
C450 C449 1.379 . S
H451 C445 0.959 . S
H452 C445 0.961 . S
H453 C445 0.960 . S
H454 C446 0.930 . S
H455 C447 0.929 . S
H456 C464 0.929 . S
H457 C466 0.930 . S
H458 C468 0.930 1_565 S
H459 C471 0.929 . S
H460 C474 0.930 . S
H461 C476 0.960 . S
H462 C476 0.960 . S
H463 C476 0.960 . S
C464 H456 0.929 . S
C464 C465 1.377 . S
C464 C466 1.384 . S
C465 C464 1.377 . S
C465 C471 1.390 . S
C466 H457 0.930 . S
C466 C464 1.384 . S
C466 C467 1.372 . S
C467 C466 1.372 . S
C467 C468 1.400 . S
C467 C472 1.490 . S
C468 H458 0.930 1_545 S
C468 C467 1.400 . S
C468 C471 1.386 . S
H469 C485 0.930 . S
H470 C486 0.931 . S
C471 H459 0.929 . S
C471 C465 1.390 . S
C471 C468 1.386 . S
C472 C467 1.490 . S
C472 C474 1.395 . S
C472 C475 1.403 1_545 S
H473 C479 0.930 . S
C474 H460 0.930 . S
C474 C472 1.395 . S
C474 C477 1.403 . S
C475 C472 1.403 1_565 S
C475 C476 1.524 . S
C475 C479 1.400 . S
C476 H461 0.960 . S
C476 H462 0.960 . S
C476 H463 0.960 . S
C476 C475 1.524 . S
C477 C474 1.403 . S
C477 C478 1.392 1_545 S
C477 C481 1.495 . S
C478 C477 1.392 1_565 S
C478 C479 1.385 . S
C478 C480 1.478 . S
C479 H473 0.930 . S
C479 C475 1.400 . S
C479 C478 1.385 . S
C480 C478 1.478 . S
C480 C482 1.381 . S
C480 C486 1.383 . S
C481 C477 1.495 . S
C481 H487 0.959 . S
C481 H488 0.961 . S
C481 H489 0.960 . S
C482 C480 1.381 . S
C482 C483 1.394 . S
C482 H490 0.930 1_565 S
C483 C482 1.394 . S
C483 C484 1.383 . S
C483 H491 0.929 . S
C484 C483 1.383 . S
C484 C485 1.377 . S
C485 H469 0.930 . S
C485 C484 1.377 . S
C485 C486 1.379 . S
C486 H470 0.931 . S
C486 C480 1.383 . S
C486 C485 1.379 . S
H487 C481 0.959 . S
H488 C481 0.961 . S
H489 C481 0.960 . S
H490 C482 0.930 1_545 S
H491 C483 0.929 . S
H492 C500 0.929 . S
H493 C502 0.930 . S
H494 C504 0.930 . S
H495 C507 0.929 . S
H496 C510 0.930 . S
H497 C512 0.960 . S
H498 C512 0.960 . S
H499 C512 0.960 . S
C500 H492 0.929 . S
C500 C501 1.377 . S
C500 C502 1.384 . S
C501 C500 1.377 . S
C501 C507 1.390 . S
C502 H493 0.930 . S
C502 C500 1.384 . S
C502 C503 1.372 . S
C503 C502 1.372 . S
C503 C504 1.400 . S
C503 C508 1.490 . S
C504 H494 0.930 . S
C504 C503 1.400 . S
C504 C507 1.386 . S
H505 C521 0.930 . S
H506 C522 0.931 . S
C507 H495 0.929 . S
C507 C501 1.390 . S
C507 C504 1.386 . S
C508 C503 1.490 . S
C508 C510 1.395 . S
C508 C511 1.403 . S
H509 C515 0.930 . S
C510 H496 0.930 . S
C510 C508 1.395 . S
C510 C513 1.403 . S
C511 C508 1.403 . S
C511 C512 1.524 . S
C511 C515 1.400 . S
C512 H497 0.960 . S
C512 H498 0.960 . S
C512 H499 0.960 . S
C512 C511 1.524 . S
C513 C510 1.403 . S
C513 C514 1.392 . S
C513 C517 1.495 . S
C514 C513 1.392 . S
C514 C515 1.385 . S
C514 C516 1.478 . S
C515 H509 0.930 . S
C515 C511 1.400 . S
C515 C514 1.385 . S
C516 C514 1.478 . S
C516 C518 1.381 . S
C516 C522 1.383 . S
C517 C513 1.495 . S
C517 H523 0.959 . S
C517 H524 0.961 . S
C517 H525 0.960 . S
C518 C516 1.381 . S
C518 C519 1.394 . S
C518 H526 0.930 . S
C519 C518 1.394 . S
C519 C520 1.383 . S
C519 H527 0.929 . S
C520 C519 1.383 . S
C520 C521 1.377 . S
C521 H505 0.930 . S
C521 C520 1.377 . S
C521 C522 1.379 . S
C522 H506 0.931 . S
C522 C516 1.383 . S
C522 C521 1.379 . S
H523 C517 0.959 . S
H524 C517 0.961 . S
H525 C517 0.960 . S
H526 C518 0.930 . S
H527 C519 0.929 . S
H528 C536 0.929 . S
H529 C538 0.930 . S
H530 C540 0.930 1_455 S
H531 C543 0.929 . S
H532 C546 0.930 . S
H533 C548 0.960 . S
H534 C548 0.960 . S
H535 C548 0.960 . S
C536 H528 0.929 . S
C536 C537 1.377 . S
C536 C538 1.384 . S
C537 C536 1.377 . S
C537 C543 1.390 . S
C538 H529 0.930 . S
C538 C536 1.384 . S
C538 C539 1.372 . S
C539 C538 1.372 . S
C539 C540 1.400 . S
C539 C544 1.490 . S
C540 H530 0.930 1_655 S
C540 C539 1.400 . S
C540 C543 1.386 . S
H541 C557 0.930 . S
H542 C558 0.931 . S
C543 H531 0.929 . S
C543 C537 1.390 . S
C543 C540 1.386 . S
C544 C539 1.490 . S
C544 C546 1.395 . S
C544 C547 1.403 1_655 S
H545 C551 0.930 . S
C546 H532 0.930 . S
C546 C544 1.395 . S
C546 C549 1.403 . S
C547 C544 1.403 1_455 S
C547 C548 1.524 . S
C547 C551 1.400 . S
C548 H533 0.960 . S
C548 H534 0.960 . S
C548 H535 0.960 . S
C548 C547 1.524 . S
C549 C546 1.403 . S
C549 C550 1.392 1_655 S
C549 C553 1.495 . S
C550 C549 1.392 1_455 S
C550 C551 1.385 . S
C550 C552 1.478 . S
C551 H545 0.930 . S
C551 C547 1.400 . S
C551 C550 1.385 . S
C552 C550 1.478 . S
C552 C554 1.381 . S
C552 C558 1.383 . S
C553 C549 1.495 . S
C553 H559 0.959 . S
C553 H560 0.961 . S
C553 H561 0.960 . S
C554 C552 1.381 . S
C554 C555 1.394 . S
C554 H562 0.930 1_455 S
C555 C554 1.394 . S
C555 C556 1.383 . S
C555 H563 0.929 . S
C556 C555 1.383 . S
C556 C557 1.377 . S
C557 H541 0.930 . S
C557 C556 1.377 . S
C557 C558 1.379 . S
C558 H542 0.931 . S
C558 C552 1.383 . S
C558 C557 1.379 . S
H559 C553 0.959 . S
H560 C553 0.961 . S
H561 C553 0.960 . S
H562 C554 0.930 1_655 S
H563 C555 0.929 . S
H564 C572 0.929 . S
H565 C574 0.930 . S
H566 C576 0.930 . S
H567 C579 0.929 . S
H568 C582 0.930 . S
H569 C584 0.960 . S
H570 C584 0.960 . S
H571 C584 0.960 . S
C572 H564 0.929 . S
C572 C573 1.377 . S
C572 C574 1.384 . S
C573 C572 1.377 . S
C573 C579 1.390 . S
C574 H565 0.930 . S
C574 C572 1.384 . S
C574 C575 1.372 . S
C575 C574 1.372 . S
C575 C576 1.400 . S
C575 C580 1.490 . S
C576 H566 0.930 . S
C576 C575 1.400 . S
C576 C579 1.386 . S
H577 C593 0.930 . S
H578 C594 0.931 . S
C579 H567 0.929 . S
C579 C573 1.390 . S
C579 C576 1.386 . S
C580 C575 1.490 . S
C580 C582 1.395 . S
C580 C583 1.403 1_565 S
H581 C587 0.930 . S
C582 H568 0.930 . S
C582 C580 1.395 . S
C582 C585 1.403 . S
C583 C580 1.403 1_545 S
C583 C584 1.524 . S
C583 C587 1.400 . S
C584 H569 0.960 . S
C584 H570 0.960 . S
C584 H571 0.960 . S
C584 C583 1.524 . S
C585 C582 1.403 . S
C585 C586 1.392 1_565 S
C585 C589 1.495 . S
C586 C585 1.392 1_545 S
C586 C587 1.385 . S
C586 C588 1.478 . S
C587 H581 0.930 . S
C587 C583 1.400 . S
C587 C586 1.385 . S
C588 C586 1.478 . S
C588 C590 1.381 . S
C588 C594 1.383 . S
C589 C585 1.495 . S
C589 H595 0.959 . S
C589 H596 0.961 . S
C589 H597 0.960 . S
C590 C588 1.381 . S
C590 C591 1.394 . S
C590 H598 0.930 . S
C591 C590 1.394 . S
C591 C592 1.383 . S
C591 H599 0.929 . S
C592 C591 1.383 . S
C592 C593 1.377 . S
C593 H577 0.930 . S
C593 C592 1.377 . S
C593 C594 1.379 . S
C594 H578 0.931 . S
C594 C588 1.383 . S
C594 C593 1.379 . S
H595 C589 0.959 . S
H596 C589 0.961 . S
H597 C589 0.960 . S
H598 C590 0.930 . S
H599 C591 0.929 . S
H600 C608 0.929 . S
H601 C610 0.930 . S
H602 C612 0.930 . S
H603 C615 0.929 . S
H604 C618 0.930 . S
H605 C620 0.960 . S
H606 C620 0.960 . S
H607 C620 0.960 . S
C608 H600 0.929 . S
C608 C609 1.377 1_565 S
C608 C610 1.384 1_565 S
C609 C608 1.377 1_545 S
C609 C615 1.390 . S
C610 H601 0.930 . S
C610 C608 1.384 1_545 S
C610 C611 1.372 . S
C611 C610 1.372 . S
C611 C612 1.400 . S
C611 C616 1.490 . S
C612 H602 0.930 . S
C612 C611 1.400 . S
C612 C615 1.386 . S
H613 C629 0.930 . S
H614 C630 0.931 . S
C615 H603 0.929 . S
C615 C609 1.390 . S
C615 C612 1.386 . S
C616 C611 1.490 . S
C616 C618 1.395 . S
C616 C619 1.403 . S
H617 C623 0.930 . S
C618 H604 0.930 . S
C618 C616 1.395 . S
C618 C621 1.403 . S
C619 C616 1.403 . S
C619 C620 1.524 . S
C619 C623 1.400 . S
C620 H605 0.960 . S
C620 H606 0.960 . S
C620 H607 0.960 . S
C620 C619 1.524 . S
C621 C618 1.403 . S
C621 C622 1.392 . S
C621 C625 1.495 . S
C622 C621 1.392 . S
C622 C623 1.385 . S
C622 C624 1.478 . S
C623 H617 0.930 . S
C623 C619 1.400 . S
C623 C622 1.385 . S
C624 C622 1.478 . S
C624 C626 1.381 . S
C624 C630 1.383 . S
C625 C621 1.495 . S
C625 H631 0.959 . S
C625 H632 0.961 . S
C625 H633 0.960 . S
C626 C624 1.381 . S
C626 C627 1.394 . S
C626 H634 0.930 . S
C627 C626 1.394 . S
C627 C628 1.383 . S
C627 H635 0.929 . S
C628 C627 1.383 . S
C628 C629 1.377 . S
C629 H613 0.930 . S
C629 C628 1.377 . S
C629 C630 1.379 . S
C630 H614 0.931 . S
C630 C624 1.383 . S
C630 C629 1.379 . S
H631 C625 0.959 . S
H632 C625 0.961 . S
H633 C625 0.960 . S
H634 C626 0.930 . S
H635 C627 0.929 . S
H636 C644 0.929 . S
H637 C646 0.930 . S
H638 C648 0.930 . S
H639 C651 0.929 . S
H640 C654 0.930 . S
H641 C656 0.960 . S
H642 C656 0.960 . S
H643 C656 0.960 . S
C644 H636 0.929 . S
C644 C645 1.377 . S
C644 C646 1.384 . S
C645 C644 1.377 . S
C645 C651 1.390 . S
C646 H637 0.930 . S
C646 C644 1.384 . S
C646 C647 1.372 . S
C647 C646 1.372 . S
C647 C648 1.400 . S
C647 C652 1.490 . S
C648 H638 0.930 . S
C648 C647 1.400 . S
C648 C651 1.386 . S
H649 C665 0.930 . S
H650 C666 0.931 . S
C651 H639 0.929 . S
C651 C645 1.390 . S
C651 C648 1.386 . S
C652 C647 1.490 . S
C652 C654 1.395 . S
C652 C655 1.403 . S
H653 C659 0.930 . S
C654 H640 0.930 . S
C654 C652 1.395 . S
C654 C657 1.403 . S
C655 C652 1.403 . S
C655 C656 1.524 . S
C655 C659 1.400 . S
C656 H641 0.960 . S
C656 H642 0.960 . S
C656 H643 0.960 . S
C656 C655 1.524 . S
C657 C654 1.403 . S
C657 C658 1.392 . S
C657 C661 1.495 . S
C658 C657 1.392 . S
C658 C659 1.385 . S
C658 C660 1.478 . S
C659 H653 0.930 . S
C659 C655 1.400 . S
C659 C658 1.385 . S
C660 C658 1.478 . S
C660 C662 1.381 . S
C660 C666 1.383 . S
C661 C657 1.495 . S
C661 H667 0.959 . S
C661 H668 0.961 . S
C661 H669 0.960 . S
C662 C660 1.381 . S
C662 C663 1.394 . S
C662 H670 0.930 . S
C663 C662 1.394 . S
C663 C664 1.383 . S
C663 H671 0.929 . S
C664 C663 1.383 . S
C664 C665 1.377 . S
C665 H649 0.930 . S
C665 C664 1.377 . S
C665 C666 1.379 . S
C666 H650 0.931 . S
C666 C660 1.383 . S
C666 C665 1.379 . S
H667 C661 0.959 . S
H668 C661 0.961 . S
H669 C661 0.960 . S
H670 C662 0.930 . S
H671 C663 0.929 . S
H672 C680 0.929 1_455 S
H673 C682 0.930 . S
H674 C684 0.930 . S
H675 C687 0.929 . S
H676 C690 0.930 . S
H677 C692 0.960 . S
H678 C692 0.960 . S
H679 C692 0.960 . S
C680 H672 0.929 1_655 S
C680 C681 1.377 . S
C680 C682 1.384 . S
C681 C680 1.377 . S
C681 C687 1.390 . S
C682 H673 0.930 . S
C682 C680 1.384 . S
C682 C683 1.372 . S
C683 C682 1.372 . S
C683 C684 1.400 . S
C683 C688 1.490 . S
C684 H674 0.930 . S
C684 C683 1.400 . S
C684 C687 1.386 . S
H685 C701 0.930 . S
H686 C702 0.931 . S
C687 H675 0.929 . S
C687 C681 1.390 . S
C687 C684 1.386 . S
C688 C683 1.490 . S
C688 C690 1.395 . S
C688 C691 1.403 . S
H689 C695 0.930 . S
C690 H676 0.930 . S
C690 C688 1.395 . S
C690 C693 1.403 . S
C691 C688 1.403 . S
C691 C692 1.524 . S
C691 C695 1.400 . S
C692 H677 0.960 . S
C692 H678 0.960 . S
C692 H679 0.960 . S
C692 C691 1.524 . S
C693 C690 1.403 . S
C693 C694 1.392 . S
C693 C697 1.495 . S
C694 C693 1.392 . S
C694 C695 1.385 . S
C694 C696 1.478 . S
C695 H689 0.930 . S
C695 C691 1.400 . S
C695 C694 1.385 . S
C696 C694 1.478 . S
C696 C698 1.381 . S
C696 C702 1.383 . S
C697 C693 1.495 . S
C697 H703 0.959 . S
C697 H704 0.961 . S
C697 H705 0.960 . S
C698 C696 1.381 . S
C698 C699 1.394 1_545 S
C698 H706 0.930 . S
C699 C698 1.394 1_565 S
C699 C700 1.383 1_565 S
C699 H707 0.929 . S
C700 C699 1.383 1_545 S
C700 C701 1.377 . S
C701 H685 0.930 . S
C701 C700 1.377 . S
C701 C702 1.379 . S
C702 H686 0.931 . S
C702 C696 1.383 . S
C702 C701 1.379 . S
H703 C697 0.959 . S
H704 C697 0.961 . S
H705 C697 0.960 . S
H706 C698 0.930 . S
H707 C699 0.929 . S
H708 C716 0.929 1_545 S
H709 C718 0.930 . S
H710 C720 0.930 . S
H711 C723 0.929 . S
H712 C726 0.930 . S
H713 C728 0.960 . S
H714 C728 0.960 . S
H715 C728 0.960 . S
C716 H708 0.929 1_565 S
C716 C717 1.377 . S
C716 C718 1.384 . S
C717 C716 1.377 . S
C717 C723 1.390 . S
C718 H709 0.930 . S
C718 C716 1.384 . S
C718 C719 1.372 . S
C719 C718 1.372 . S
C719 C720 1.400 . S
C719 C724 1.490 . S
C720 H710 0.930 . S
C720 C719 1.400 . S
C720 C723 1.386 . S
H721 C737 0.930 . S
H722 C738 0.931 . S
C723 H711 0.929 . S
C723 C717 1.390 . S
C723 C720 1.386 . S
C724 C719 1.490 . S
C724 C726 1.395 . S
C724 C727 1.403 . S
H725 C731 0.930 . S
C726 H712 0.930 . S
C726 C724 1.395 . S
C726 C729 1.403 . S
C727 C724 1.403 . S
C727 C728 1.524 . S
C727 C731 1.400 . S
C728 H713 0.960 . S
C728 H714 0.960 . S
C728 H715 0.960 . S
C728 C727 1.524 . S
C729 C726 1.403 . S
C729 C730 1.392 . S
C729 C733 1.495 . S
C730 C729 1.392 . S
C730 C731 1.385 . S
C730 C732 1.478 . S
C731 H725 0.930 . S
C731 C727 1.400 . S
C731 C730 1.385 . S
C732 C730 1.478 . S
C732 C734 1.381 . S
C732 C738 1.383 . S
C733 C729 1.495 . S
C733 H739 0.959 . S
C733 H740 0.961 . S
C733 H741 0.960 . S
C734 C732 1.381 . S
C734 C735 1.394 . S
C734 H742 0.930 . S
C735 C734 1.394 . S
C735 C736 1.383 . S
C735 H743 0.929 . S
C736 C735 1.383 . S
C736 C737 1.377 . S
C737 H721 0.930 . S
C737 C736 1.377 . S
C737 C738 1.379 . S
C738 H722 0.931 . S
C738 C732 1.383 . S
C738 C737 1.379 . S
H739 C733 0.959 . S
H740 C733 0.961 . S
H741 C733 0.960 . S
H742 C734 0.930 . S
H743 C735 0.929 . S
H744 C752 0.929 . S
H745 C754 0.930 . S
H746 C756 0.930 . S
H747 C759 0.929 . S
H748 C762 0.930 . S
H749 C764 0.960 . S
H750 C764 0.960 . S
H751 C764 0.960 . S
C752 H744 0.929 . S
C752 C753 1.377 . S
C752 C754 1.384 . S
C753 C752 1.377 . S
C753 C759 1.390 . S
C754 H745 0.930 . S
C754 C752 1.384 . S
C754 C755 1.372 . S
C755 C754 1.372 . S
C755 C756 1.400 . S
C755 C760 1.490 . S
C756 H746 0.930 . S
C756 C755 1.400 . S
C756 C759 1.386 . S
H757 C773 0.930 1_455 S
H758 C774 0.931 . S
C759 H747 0.929 . S
C759 C753 1.390 . S
C759 C756 1.386 . S
C760 C755 1.490 . S
C760 C762 1.395 . S
C760 C763 1.403 . S
H761 C767 0.930 . S
C762 H748 0.930 . S
C762 C760 1.395 . S
C762 C765 1.403 . S
C763 C760 1.403 . S
C763 C764 1.524 . S
C763 C767 1.400 . S
C764 H749 0.960 . S
C764 H750 0.960 . S
C764 H751 0.960 . S
C764 C763 1.524 . S
C765 C762 1.403 . S
C765 C766 1.392 . S
C765 C769 1.495 . S
C766 C765 1.392 . S
C766 C767 1.385 . S
C766 C768 1.478 . S
C767 H761 0.930 . S
C767 C763 1.400 . S
C767 C766 1.385 . S
C768 C766 1.478 . S
C768 C770 1.381 . S
C768 C774 1.383 . S
C769 C765 1.495 . S
C769 H775 0.959 . S
C769 H776 0.961 . S
C769 H777 0.960 . S
C770 C768 1.381 . S
C770 C771 1.394 . S
C770 H778 0.930 . S
C771 C770 1.394 . S
C771 C772 1.383 . S
C771 H779 0.929 . S
C772 C771 1.383 . S
C772 C773 1.377 . S
C773 H757 0.930 1_655 S
C773 C772 1.377 . S
C773 C774 1.379 . S
C774 H758 0.931 . S
C774 C768 1.383 . S
C774 C773 1.379 . S
H775 C769 0.959 . S
H776 C769 0.961 . S
H777 C769 0.960 . S
H778 C770 0.930 . S
H779 C771 0.929 . S
H780 C788 0.929 . S
H781 C790 0.930 . S
H782 C792 0.930 . S
H783 C795 0.929 1_545 S
H784 C798 0.930 . S
H785 C800 0.960 . S
H786 C800 0.960 . S
H787 C800 0.960 . S
C788 H780 0.929 . S
C788 C789 1.377 . S
C788 C790 1.384 . S
C789 C788 1.377 . S
C789 C795 1.390 . S
C790 H781 0.930 . S
C790 C788 1.384 . S
C790 C791 1.372 . S
C791 C790 1.372 . S
C791 C792 1.400 . S
C791 C796 1.490 . S
C792 H782 0.930 . S
C792 C791 1.400 . S
C792 C795 1.386 . S
H793 C809 0.930 . S
H794 C810 0.931 . S
C795 H783 0.929 1_565 S
C795 C789 1.390 . S
C795 C792 1.386 . S
C796 C791 1.490 . S
C796 C798 1.395 . S
C796 C799 1.403 . S
H797 C803 0.930 . S
C798 H784 0.930 . S
C798 C796 1.395 . S
C798 C801 1.403 . S
C799 C796 1.403 . S
C799 C800 1.524 . S
C799 C803 1.400 . S
C800 H785 0.960 . S
C800 H786 0.960 . S
C800 H787 0.960 . S
C800 C799 1.524 . S
C801 C798 1.403 . S
C801 C802 1.392 . S
C801 C805 1.495 . S
C802 C801 1.392 . S
C802 C803 1.385 . S
C802 C804 1.478 . S
C803 H797 0.930 . S
C803 C799 1.400 . S
C803 C802 1.385 . S
C804 C802 1.478 . S
C804 C806 1.381 . S
C804 C810 1.383 . S
C805 C801 1.495 . S
C805 H811 0.959 . S
C805 H812 0.961 . S
C805 H813 0.960 . S
C806 C804 1.381 . S
C806 C807 1.394 . S
C806 H814 0.930 . S
C807 C806 1.394 . S
C807 C808 1.383 . S
C807 H815 0.929 . S
C808 C807 1.383 . S
C808 C809 1.377 1_455 S
C809 H793 0.930 . S
C809 C808 1.377 1_655 S
C809 C810 1.379 1_655 S
C810 H794 0.931 . S
C810 C804 1.383 . S
C810 C809 1.379 1_455 S
H811 C805 0.959 . S
H812 C805 0.961 . S
H813 C805 0.960 . S
H814 C806 0.930 . S
H815 C807 0.929 . S
H816 C824 0.929 . S
H817 C826 0.930 . S
H818 C828 0.930 . S
H819 C831 0.929 . S
H820 C834 0.930 . S
H821 C836 0.960 . S
H822 C836 0.960 . S
H823 C836 0.960 . S
C824 H816 0.929 . S
C824 C825 1.377 . S
C824 C826 1.384 . S
C825 C824 1.377 . S
C825 C831 1.390 . S
C826 H817 0.930 . S
C826 C824 1.384 . S
C826 C827 1.372 . S
C827 C826 1.372 . S
C827 C828 1.400 . S
C827 C832 1.490 . S
C828 H818 0.930 . S
C828 C827 1.400 . S
C828 C831 1.386 . S
H829 C845 0.930 . S
H830 C846 0.931 . S
C831 H819 0.929 . S
C831 C825 1.390 . S
C831 C828 1.386 . S
C832 C827 1.490 . S
C832 C834 1.395 . S
C832 C835 1.403 . S
H833 C839 0.930 . S
C834 H820 0.930 . S
C834 C832 1.395 . S
C834 C837 1.403 . S
C835 C832 1.403 . S
C835 C836 1.524 . S
C835 C839 1.400 . S
C836 H821 0.960 . S
C836 H822 0.960 . S
C836 H823 0.960 . S
C836 C835 1.524 . S
C837 C834 1.403 . S
C837 C838 1.392 . S
C837 C841 1.495 . S
C838 C837 1.392 . S
C838 C839 1.385 . S
C838 C840 1.478 . S
C839 H833 0.930 . S
C839 C835 1.400 . S
C839 C838 1.385 . S
C840 C838 1.478 . S
C840 C842 1.381 . S
C840 C846 1.383 . S
C841 C837 1.495 . S
C841 H847 0.959 . S
C841 H848 0.961 . S
C841 H849 0.960 . S
C842 C840 1.381 . S
C842 C843 1.394 . S
C842 H850 0.930 . S
C843 C842 1.394 . S
C843 C844 1.383 . S
C843 H851 0.929 . S
C844 C843 1.383 . S
C844 C845 1.377 . S
C845 H829 0.930 . S
C845 C844 1.377 . S
C845 C846 1.379 . S
C846 H830 0.931 . S
C846 C840 1.383 . S
C846 C845 1.379 . S
H847 C841 0.959 . S
H848 C841 0.961 . S
H849 C841 0.960 . S
H850 C842 0.930 . S
H851 C843 0.929 . S
H852 C860 0.929 1_455 S
H853 C862 0.930 . S
H854 C864 0.930 . S
H855 C867 0.929 . S
H856 C870 0.930 . S
H857 C872 0.960 . S
H858 C872 0.960 . S
H859 C872 0.960 . S
C860 H852 0.929 1_655 S
C860 C861 1.377 . S
C860 C862 1.384 1_655 S
C861 C860 1.377 . S
C861 C867 1.390 . S
C862 H853 0.930 . S
C862 C860 1.384 1_455 S
C862 C863 1.372 1_455 S
C863 C862 1.372 1_655 S
C863 C864 1.400 . S
C863 C868 1.490 . S
C864 H854 0.930 . S
C864 C863 1.400 . S
C864 C867 1.386 . S
H865 C881 0.930 1_655 S
H866 C882 0.932 . S
C867 H855 0.929 . S
C867 C861 1.390 . S
C867 C864 1.386 . S
C868 C863 1.490 . S
C868 C870 1.395 1_655 S
C868 C871 1.403 . S
H869 C875 0.930 . S
C870 H856 0.930 . S
C870 C868 1.395 1_455 S
C870 C873 1.403 . S
C871 C868 1.403 . S
C871 C872 1.524 . S
C871 C875 1.400 . S
C872 H857 0.960 . S
C872 H858 0.960 . S
C872 H859 0.960 . S
C872 C871 1.524 . S
C873 C870 1.403 . S
C873 C874 1.392 . S
C873 C877 1.495 . S
C874 C873 1.392 . S
C874 C875 1.385 1_455 S
C874 C876 1.478 . S
C875 H869 0.930 . S
C875 C871 1.400 . S
C875 C874 1.385 1_655 S
C876 C874 1.478 . S
C876 C878 1.381 . S
C876 C882 1.381 1_455 S
C877 C873 1.495 . S
C877 H883 0.959 . S
C877 H884 0.961 . S
C877 H885 0.960 . S
C878 C876 1.381 . S
C878 C879 1.394 . S
C878 H886 0.930 . S
C879 C878 1.394 . S
C879 C880 1.383 . S
C879 H887 0.929 . S
C880 C879 1.383 . S
C880 C881 1.377 . S
C881 H865 0.930 1_455 S
C881 C880 1.377 . S
C881 C882 1.379 1_455 S
C882 H866 0.932 . S
C882 C876 1.381 1_655 S
C882 C881 1.379 1_655 S
H883 C877 0.959 . S
H884 C877 0.961 . S
H885 C877 0.960 . S
H886 C878 0.930 . S
H887 C879 0.929 . S
H888 C896 0.929 . S
H889 C898 0.930 . S
H890 C900 0.930 1_565 S
H891 C903 0.929 1_565 S
H892 C906 0.930 . S
H893 C908 0.960 . S
H894 C908 0.960 . S
H895 C908 0.960 . S
C896 H888 0.929 . S
C896 C897 1.377 . S
C896 C898 1.384 . S
C897 C896 1.377 . S
C897 C903 1.390 . S
C898 H889 0.930 . S
C898 C896 1.384 . S
C898 C899 1.372 . S
C899 C898 1.372 . S
C899 C900 1.400 . S
C899 C904 1.490 . S
C900 H890 0.930 1_545 S
C900 C899 1.400 . S
C900 C903 1.386 . S
H901 C917 0.930 . S
H902 C918 0.931 . S
C903 H891 0.929 1_545 S
C903 C897 1.390 . S
C903 C900 1.386 . S
C904 C899 1.490 . S
C904 C906 1.395 1_545 S
C904 C907 1.403 . S
H905 C911 0.930 . S
C906 H892 0.930 . S
C906 C904 1.395 1_565 S
C906 C909 1.403 1_554 S
C907 C904 1.403 . S
C907 C908 1.524 . S
C907 C911 1.400 1_554 S
C908 H893 0.960 . S
C908 H894 0.960 . S
C908 H895 0.960 . S
C908 C907 1.524 . S
C909 C906 1.403 1_556 S
C909 C910 1.392 . S
C909 C913 1.495 . S
C910 C909 1.392 . S
C910 C911 1.385 1_565 S
C910 C912 1.478 . S
C911 H905 0.930 . S
C911 C907 1.400 1_556 S
C911 C910 1.385 1_545 S
C912 C910 1.478 . S
C912 C914 1.381 . S
C912 C918 1.383 . S
C913 C909 1.495 . S
C913 H919 0.959 . S
C913 H920 0.961 . S
C913 H921 0.960 . S
C914 C912 1.381 . S
C914 C915 1.394 . S
C914 H922 0.930 1_565 S
C915 C914 1.394 . S
C915 C916 1.383 . S
C915 H923 0.929 1_565 S
C916 C915 1.383 . S
C916 C917 1.377 . S
C917 H901 0.930 . S
C917 C916 1.377 . S
C917 C918 1.379 . S
C918 H902 0.931 . S
C918 C912 1.383 . S
C918 C917 1.379 . S
H919 C913 0.959 . S
H920 C913 0.961 . S
H921 C913 0.960 . S
H922 C914 0.930 1_545 S
H923 C915 0.929 1_545 S
H924 C932 0.929 . S
H925 C934 0.930 . S
H926 C936 0.930 . S
H927 C939 0.929 . S
H928 C942 0.930 . S
H929 C944 0.960 . S
H930 C944 0.960 . S
H931 C944 0.960 . S
C932 H924 0.929 . S
C932 C933 1.377 . S
C932 C934 1.384 . S
C933 C932 1.377 . S
C933 C939 1.390 . S
C934 H925 0.930 . S
C934 C932 1.384 . S
C934 C935 1.372 . S
C935 C934 1.372 . S
C935 C936 1.400 . S
C935 C940 1.490 . S
C936 H926 0.930 . S
C936 C935 1.400 . S
C936 C939 1.386 . S
H937 C953 0.930 . S
H938 C954 0.931 . S
C939 H927 0.929 . S
C939 C933 1.390 . S
C939 C936 1.386 . S
C940 C935 1.490 . S
C940 C942 1.395 . S
C940 C943 1.403 . S
H941 C947 0.930 . S
C942 H928 0.930 . S
C942 C940 1.395 . S
C942 C945 1.403 . S
C943 C940 1.403 . S
C943 C944 1.524 . S
C943 C947 1.400 . S
C944 H929 0.960 . S
C944 H930 0.960 . S
C944 H931 0.960 . S
C944 C943 1.524 . S
C945 C942 1.403 . S
C945 C946 1.392 . S
C945 C949 1.495 . S
C946 C945 1.392 . S
C946 C947 1.385 . S
C946 C948 1.478 . S
C947 H941 0.930 . S
C947 C943 1.400 . S
C947 C946 1.385 . S
C948 C946 1.478 . S
C948 C950 1.381 . S
C948 C954 1.383 . S
C949 C945 1.495 . S
C949 H955 0.959 . S
C949 H956 0.961 . S
C949 H957 0.960 . S
C950 C948 1.381 . S
C950 C951 1.394 . S
C950 H958 0.930 . S
C951 C950 1.394 . S
C951 C952 1.383 . S
C951 H959 0.929 . S
C952 C951 1.383 . S
C952 C953 1.377 . S
C953 H937 0.930 . S
C953 C952 1.377 . S
C953 C954 1.379 . S
C954 H938 0.931 . S
C954 C948 1.383 . S
C954 C953 1.379 . S
H955 C949 0.959 . S
H956 C949 0.961 . S
H957 C949 0.960 . S
H958 C950 0.930 . S
H959 C951 0.929 . S
H960 C968 0.929 . S
H961 C970 0.930 . S
H962 C972 0.930 . S
H963 C975 0.929 . S
H964 C978 0.930 . S
H965 C980 0.960 . S
H966 C980 0.960 . S
H967 C980 0.960 . S
C968 H960 0.929 . S
C968 C969 1.377 . S
C968 C970 1.384 . S
C969 C968 1.377 . S
C969 C975 1.390 . S
C970 H961 0.930 . S
C970 C968 1.384 . S
C970 C971 1.372 . S
C971 C970 1.372 . S
C971 C972 1.400 . S
C971 C976 1.490 . S
C972 H962 0.930 . S
C972 C971 1.400 . S
C972 C975 1.386 . S
H973 C989 0.930 . S
H974 C990 0.931 . S
C975 H963 0.929 . S
C975 C969 1.390 . S
C975 C972 1.386 . S
C976 C971 1.490 . S
C976 C978 1.395 . S
C976 C979 1.403 1_455 S
H977 C983 0.930 . S
C978 H964 0.930 . S
C978 C976 1.395 . S
C978 C981 1.403 . S
C979 C976 1.403 1_655 S
C979 C980 1.524 . S
C979 C983 1.400 . S
C980 H965 0.960 . S
C980 H966 0.960 . S
C980 H967 0.960 . S
C980 C979 1.524 . S
C981 C978 1.403 . S
C981 C982 1.392 1_455 S
C981 C985 1.495 . S
C982 C981 1.392 1_655 S
C982 C983 1.385 . S
C982 C984 1.478 . S
C983 H977 0.930 . S
C983 C979 1.400 . S
C983 C982 1.385 . S
C984 C982 1.478 . S
C984 C986 1.381 . S
C984 C990 1.383 . S
C985 C981 1.495 . S
C985 H991 0.959 . S
C985 H992 0.961 . S
C985 H993 0.960 . S
C986 C984 1.381 . S
C986 C987 1.394 . S
C986 H994 0.930 . S
C987 C986 1.394 . S
C987 C988 1.383 . S
C987 H995 0.929 . S
C988 C987 1.383 . S
C988 C989 1.377 . S
C989 H973 0.930 . S
C989 C988 1.377 . S
C989 C990 1.379 . S
C990 H974 0.931 . S
C990 C984 1.383 . S
C990 C989 1.379 . S
H991 C985 0.959 . S
H992 C985 0.961 . S
H993 C985 0.960 . S
H994 C986 0.930 . S
H995 C987 0.929 . S
H996 C1004 0.929 . S
H997 C1006 0.930 . S
H998 C1008 0.930 . S
H999 C1011 0.929 . S
H1000 C1014 0.930 . S
H1001 C1016 0.960 . S
H1002 C1016 0.960 . S
H1003 C1016 0.960 . S
C1004 H996 0.929 . S
C1004 C1005 1.377 . S
C1004 C1006 1.384 . S
C1005 C1004 1.377 . S
C1005 C1011 1.390 . S
C1006 H997 0.930 . S
C1006 C1004 1.384 . S
C1006 C1007 1.372 . S
C1007 C1006 1.372 . S
C1007 C1008 1.400 . S
C1007 C1012 1.490 . S
C1008 H998 0.930 . S
C1008 C1007 1.400 . S
C1008 C1011 1.386 . S
H1009 C1025 0.930 . S
H1010 C1026 0.931 . S
C1011 H999 0.929 . S
C1011 C1005 1.390 . S
C1011 C1008 1.386 . S
C1012 C1007 1.490 . S
C1012 C1014 1.395 . S
C1012 C1015 1.403 1_565 S
H1013 C1019 0.930 . S
C1014 H1000 0.930 . S
C1014 C1012 1.395 . S
C1014 C1017 1.403 1_554 S
C1015 C1012 1.403 1_545 S
C1015 C1016 1.524 . S
C1015 C1019 1.400 1_554 S
C1016 H1001 0.960 . S
C1016 H1002 0.960 . S
C1016 H1003 0.960 . S
C1016 C1015 1.524 . S
C1017 C1014 1.403 1_556 S
C1017 C1018 1.392 1_565 S
C1017 C1021 1.495 . S
C1018 C1017 1.392 1_545 S
C1018 C1019 1.385 . S
C1018 C1020 1.478 . S
C1019 H1013 0.930 . S
C1019 C1015 1.400 1_556 S
C1019 C1018 1.385 . S
C1020 C1018 1.478 . S
C1020 C1022 1.381 . S
C1020 C1026 1.383 . S
C1021 C1017 1.495 . S
C1021 H1027 0.959 . S
C1021 H1028 0.961 . S
C1021 H1029 0.960 . S
C1022 C1020 1.381 . S
C1022 C1023 1.394 . S
C1022 H1030 0.930 . S
C1023 C1022 1.394 . S
C1023 C1024 1.383 . S
C1023 H1031 0.929 . S
C1024 C1023 1.383 . S
C1024 C1025 1.377 . S
C1025 H1009 0.930 . S
C1025 C1024 1.377 . S
C1025 C1026 1.379 . S
C1026 H1010 0.931 . S
C1026 C1020 1.383 . S
C1026 C1025 1.379 . S
H1027 C1021 0.959 . S
H1028 C1021 0.961 . S
H1029 C1021 0.960 . S
H1030 C1022 0.930 . S
H1031 C1023 0.929 . S
C177 C161 1.350 . S
C196 C7 1.331 . S
C213 C21 1.356 . S
C232 C91 1.367 . S
C249 C35 1.348 . S
C268 C105 1.335 . S
C285 C49 1.352 . S
C304 C119 1.361 . S
C321 C133 1.356 . S
C340 C63 1.357 . S
C357 C77 1.356 . S
C376 C147 1.365 . S
C393 C55 1.073 . S
C412 C13 1.044 . S
C429 C69 1.072 . S
C448 C27 1.051 . S
C465 C83 1.071 . S
C484 C41 1.079 . S
C501 C97 1.082 . S
C520 C139 1.105 . S
C537 C111 1.071 . S
C556 C153 1.081 . S
C573 C125 1.070 . S
C592 C167 1.065 . S
C609 C120 0.296 1_545 S
C628 C8 0.359 . S
C645 C22 0.268 1_455 S
C664 C134 0.231 . S
C681 C148 0.326 1_655 S
C700 C36 0.395 1_545 S
C717 C162 0.298 1_565 S
C736 C50 0.389 . S
C753 C92 0.289 . S
C772 C64 0.229 1_655 S
C789 C78 0.290 1_565 S
C808 C106 0.219 1_455 S
C825 C137 1.562 . S
C844 C11 1.561 . S
C861 C25 1.562 . S
C880 C151 1.562 . S
C897 C165 1.563 . S
C916 C39 1.559 . S
C933 C53 1.563 . S
C952 C95 1.560 . S
C969 C67 1.561 . S
C988 C109 1.556 . S
C1005 C123 1.561 . S
C1024 C81 1.556 . S
