# Generated by pormake.
# Topology fnj, (5)-cn, num edge types: 1
# Building blocks:
#     Node 0, Type 0, BuildingBlock: BEQFEK_clean_sbu_0, # of connection points: 5
#     Node 1, Type 0, BuildingBlock: BEQFEK_clean_sbu_0, # of connection points: 5
#     Node 2, Type 0, BuildingBlock: BEQFEK_clean_sbu_0, # of connection points: 5
#     Node 3, Type 0, BuildingBlock: BEQFEK_clean_sbu_0, # of connection points: 5
#     Node 4, Type 0, BuildingBlock: BEQFEK_clean_sbu_0, # of connection points: 5
#     Node 5, Type 0, BuildingBlock: BEQFEK_clean_sbu_0, # of connection points: 5
#     Node 6, Type 0, BuildingBlock: BEQFEK_clean_sbu_0, # of connection points: 5
#     Node 7, Type 0, BuildingBlock: BEQFEK_clean_sbu_0, # of connection points: 5
#     Node 8, Type 0, BuildingBlock: BEQFEK_clean_sbu_0, # of connection points: 5
#     Node 9, Type 0, BuildingBlock: BEQFEK_clean_sbu_0, # of connection points: 5
#     Node 10, Type 0, BuildingBlock: BEQFEK_clean_sbu_0, # of connection points: 5
#     Node 11, Type 0, BuildingBlock: BEQFEK_clean_sbu_0, # of connection points: 5
#     Node 12, Type 0, BuildingBlock: BEQFEK_clean_sbu_0, # of connection points: 5
#     Node 13, Type 0, BuildingBlock: BEQFEK_clean_sbu_0, # of connection points: 5
#     Node 14, Type 0, BuildingBlock: BEQFEK_clean_sbu_0, # of connection points: 5
#     Node 15, Type 0, BuildingBlock: BEQFEK_clean_sbu_0, # of connection points: 5
#     Edge 16, Type (0, 0), BuildingBlock: CIFDUS_clean_linker_0, # of connection points: 2
#     Edge 17, Type (0, 0), BuildingBlock: CIFDUS_clean_linker_0, # of connection points: 2
#     Edge 18, Type (0, 0), BuildingBlock: CIFDUS_clean_linker_0, # of connection points: 2
#     Edge 19, Type (0, 0), BuildingBlock: CIFDUS_clean_linker_0, # of connection points: 2
#     Edge 20, Type (0, 0), BuildingBlock: CIFDUS_clean_linker_0, # of connection points: 2
#     Edge 21, Type (0, 0), BuildingBlock: CIFDUS_clean_linker_0, # of connection points: 2
#     Edge 22, Type (0, 0), BuildingBlock: CIFDUS_clean_linker_0, # of connection points: 2
#     Edge 23, Type (0, 0), BuildingBlock: CIFDUS_clean_linker_0, # of connection points: 2
#     Edge 24, Type (0, 0), BuildingBlock: CIFDUS_clean_linker_0, # of connection points: 2
#     Edge 25, Type (0, 0), BuildingBlock: CIFDUS_clean_linker_0, # of connection points: 2
#     Edge 26, Type (0, 0), BuildingBlock: CIFDUS_clean_linker_0, # of connection points: 2
#     Edge 27, Type (0, 0), BuildingBlock: CIFDUS_clean_linker_0, # of connection points: 2
#     Edge 28, Type (0, 0), BuildingBlock: CIFDUS_clean_linker_0, # of connection points: 2
#     Edge 29, Type (0, 0), BuildingBlock: CIFDUS_clean_linker_0, # of connection points: 2
#     Edge 30, Type (0, 0), BuildingBlock: CIFDUS_clean_linker_0, # of connection points: 2
#     Edge 31, Type (0, 0), BuildingBlock: CIFDUS_clean_linker_0, # of connection points: 2
#     Edge 32, Type (0, 0), BuildingBlock: CIFDUS_clean_linker_0, # of connection points: 2
#     Edge 33, Type (0, 0), BuildingBlock: CIFDUS_clean_linker_0, # of connection points: 2
#     Edge 34, Type (0, 0), BuildingBlock: CIFDUS_clean_linker_0, # of connection points: 2
#     Edge 35, Type (0, 0), BuildingBlock: CIFDUS_clean_linker_0, # of connection points: 2
#     Edge 36, Type (0, 0), BuildingBlock: CIFDUS_clean_linker_0, # of connection points: 2
#     Edge 37, Type (0, 0), BuildingBlock: CIFDUS_clean_linker_0, # of connection points: 2
#     Edge 38, Type (0, 0), BuildingBlock: CIFDUS_clean_linker_0, # of connection points: 2
#     Edge 39, Type (0, 0), BuildingBlock: CIFDUS_clean_linker_0, # of connection points: 2
#     Edge 40, Type (0, 0), BuildingBlock: CIFDUS_clean_linker_0, # of connection points: 2
#     Edge 41, Type (0, 0), BuildingBlock: CIFDUS_clean_linker_0, # of connection points: 2
#     Edge 42, Type (0, 0), BuildingBlock: CIFDUS_clean_linker_0, # of connection points: 2
#     Edge 43, Type (0, 0), BuildingBlock: CIFDUS_clean_linker_0, # of connection points: 2
#     Edge 44, Type (0, 0), BuildingBlock: CIFDUS_clean_linker_0, # of connection points: 2
#     Edge 45, Type (0, 0), BuildingBlock: CIFDUS_clean_linker_0, # of connection points: 2
#     Edge 46, Type (0, 0), BuildingBlock: CIFDUS_clean_linker_0, # of connection points: 2
#     Edge 47, Type (0, 0), BuildingBlock: CIFDUS_clean_linker_0, # of connection points: 2
#     Edge 48, Type (0, 0), BuildingBlock: CIFDUS_clean_linker_0, # of connection points: 2
#     Edge 49, Type (0, 0), BuildingBlock: CIFDUS_clean_linker_0, # of connection points: 2
#     Edge 50, Type (0, 0), BuildingBlock: CIFDUS_clean_linker_0, # of connection points: 2
#     Edge 51, Type (0, 0), BuildingBlock: CIFDUS_clean_linker_0, # of connection points: 2
#     Edge 52, Type (0, 0), BuildingBlock: CIFDUS_clean_linker_0, # of connection points: 2
#     Edge 53, Type (0, 0), BuildingBlock: CIFDUS_clean_linker_0, # of connection points: 2
#     Edge 54, Type (0, 0), BuildingBlock: CIFDUS_clean_linker_0, # of connection points: 2
#     Edge 55, Type (0, 0), BuildingBlock: CIFDUS_clean_linker_0, # of connection points: 2
# Relax obj value: 0.145
# Max RMSD: 0.166
# Mean RMSD: 0.166
data_MOF--net-fnj--node1-BEQFEK_clean_sbu_0--edge1-CIFDUS_clean_linker_0
_symmetry_space_group_name_H-M    P1
_symmetry_Int_Tables_number       1
_symmetry_cell_setting            triclinic
loop_
_symmetry_equiv_pos_as_xyz
'x, y, z'
_cell_length_a     65.237772
_cell_length_b     65.163112
_cell_length_c     17.16698
_cell_angle_alpha  90.054389
_cell_angle_beta   89.91368
_cell_angle_gamma 100.16456
loop_
_atom_site_label
_atom_site_type_symbol
_atom_site_fract_x
_atom_site_fract_y
_atom_site_fract_z
_atom_type_partial_charge
Co0 Co 0.39411 0.05216 0.97211 0.0
Co1 Co 0.38782 0.03294 0.13732 0.0
C2 C 0.37466 0.0741 0.09273 0.0
O3 O 0.38178 0.07433 0.02358 0.0
O4 O 0.37588 0.05904 0.13861 0.0
C5 C 0.40739 0.06944 0.8072 0.0
O6 O 0.42152 0.08581 0.8239 0.0
C7 C 0.39973 0.03895 0.2978 0.0
C8 C 0.38369 0.01033 0.35573 0.0
C9 C 0.39636 0.02943 0.36971 0.0
N10 N 0.38975 0.02604 0.24369 0.0
N11 N 0.38031 0.00885 0.27834 0.0
C12 C 0.41071 0.0607 0.28124 0.0
H13 H 0.40468 0.07188 0.32022 0.0
H14 H 0.40879 0.06496 0.21958 0.0
H15 H 0.42759 0.06193 0.29274 0.0
C16 C 0.43833 0.04774 0.00479 0.0
N17 N 0.41807 0.04619 0.02426 0.0
N18 N 0.41495 0.03703 0.09259 0.0
C19 C 0.433 0.03209 0.11803 0.0
C20 C 0.44848 0.03895 0.06395 0.0
C21 C 0.44776 0.058 0.9322 0.0
H22 H 0.44466 0.07417 0.93029 0.0
H23 H 0.46482 0.05848 0.92968 0.0
H24 H 0.44027 0.04951 0.88072 0.0
O25 O 0.373 0.02637 0.96592 0.0
O26 O 0.36859 0.01083 0.0808 0.0
H27 H 0.44805 0.01035 0.18175 0.0
H28 H 0.43846 0.02949 0.24013 0.0
C29 C 0.43506 0.01915 0.18872 0.0
H30 H 0.42044 0.00797 0.1992 0.0
H31 H 0.37109 0.99643 0.24957 0.0
O32 O 0.39824 0.05787 0.86062 0.0
C33 C 0.36436 0.01135 0.00848 0.0
Co34 Co 0.28084 0.16597 0.4164 0.0
Co35 Co 0.26319 0.15926 0.24646 0.0
C36 C 0.30319 0.14516 0.29939 0.0
O37 O 0.30287 0.15234 0.36846 0.0
O38 O 0.28882 0.14678 0.25087 0.0
C39 C 0.29967 0.18018 0.57511 0.0
O40 O 0.31787 0.18925 0.54809 0.0
C41 C 0.26766 0.16505 0.07643 0.0
C42 C 0.23539 0.15447 0.03647 0.0
C43 C 0.25543 0.16179 0.00956 0.0
N44 N 0.25536 0.15988 0.1391 0.0
N45 N 0.23608 0.15371 0.1147 0.0
C46 C 0.29073 0.17229 0.08128 0.0
H47 H 0.29887 0.16355 0.03921 0.0
H48 H 0.29654 0.17053 0.14085 0.0
H49 H 0.29448 0.18911 0.06677 0.0
C50 C 0.27768 0.21001 0.37816 0.0
N51 N 0.27598 0.18969 0.35936 0.0
N52 N 0.26803 0.18673 0.2889 0.0
C53 C 0.26432 0.20505 0.26087 0.0
C54 C 0.27038 0.22044 0.31635 0.0
C55 C 0.28471 0.21888 0.45602 0.0
H56 H 0.27597 0.20926 0.50254 0.0
H57 H 0.30149 0.21829 0.46335 0.0
H58 H 0.2823 0.23522 0.46247 0.0
O59 O 0.25479 0.1456 0.42219 0.0
O60 O 0.24056 0.14083 0.30514 0.0
H61 H 0.24101 0.19623 0.17355 0.0
H62 H 0.2523 0.22368 0.1725 0.0
C63 C 0.25554 0.20774 0.18175 0.0
H64 H 0.2669 0.20477 0.13703 0.0
H65 H 0.22345 0.1486 0.1514 0.0
O66 O 0.28555 0.17167 0.5287 0.0
C67 C 0.24015 0.13704 0.378 0.0
Co68 Co 0.11843 0.00505 0.47483 0.0
Co69 Co 0.12474 0.02367 0.641 0.0
C70 C 0.13701 0.9822 0.59553 0.0
O71 O 0.13005 0.98238 0.52634 0.0
O72 O 0.13603 0.99719 0.64211 0.0
C73 C 0.10478 0.98773 0.31137 0.0
O74 O 0.08942 0.9727 0.33035 0.0
C75 C 0.11283 0.0176 0.80162 0.0
C76 C 0.12915 0.04604 0.85994 0.0
C77 C 0.11635 0.02701 0.87366 0.0
N78 N 0.12282 0.03052 0.74756 0.0
N79 N 0.13245 0.0476 0.78247 0.0
C80 C 0.10169 0.99593 0.78488 0.0
H81 H 0.1086 0.98458 0.81998 0.0
H82 H 0.10248 0.99217 0.72212 0.0
H83 H 0.08507 0.9944 0.80161 0.0
C84 C 0.0749 0.01258 0.5035 0.0
N85 N 0.0946 0.0119 0.52598 0.0
N86 N 0.09776 0.02061 0.59517 0.0
C87 C 0.08035 0.0274 0.61826 0.0
C88 C 0.06523 0.02237 0.56135 0.0
C89 C 0.06621 0.00597 0.4251 0.0
H90 H 0.07744 0.01259 0.37928 0.0
H91 H 0.06386 0.98873 0.42121 0.0
H92 H 0.0511 0.01109 0.41482 0.0
O93 O 0.13998 0.03044 0.4696 0.0
O94 O 0.14455 0.0456 0.5852 0.0
H95 H 0.09288 0.0508 0.70179 0.0
H96 H 0.0649 0.04724 0.69161 0.0
C97 C 0.0785 0.03919 0.69217 0.0
H98 H 0.07646 0.02813 0.74166 0.0
H99 H 0.14176 0.05999 0.75381 0.0
O100 O 0.11477 0.99925 0.36316 0.0
C101 C 0.14882 0.04523 0.51279 0.0
Co102 Co 0.23203 0.89061 0.91272 0.0
Co103 Co 0.24937 0.89793 0.74249 0.0
C104 C 0.20876 0.91063 0.79608 0.0
O105 O 0.20939 0.90344 0.86498 0.0
O106 O 0.22319 0.9095 0.74711 0.0
C107 C 0.21371 0.87538 0.07139 0.0
O108 O 0.19606 0.86503 0.04423 0.0
C109 C 0.24518 0.89185 0.57264 0.0
C110 C 0.27715 0.90398 0.53229 0.0
C111 C 0.25732 0.89571 0.50562 0.0
N112 N 0.25732 0.89761 0.63515 0.0
N113 N 0.27644 0.90469 0.61053 0.0
C114 C 0.22232 0.88348 0.57783 0.0
H115 H 0.21634 0.88522 0.63728 0.0
H116 H 0.21949 0.86658 0.56432 0.0
H117 H 0.21365 0.89148 0.53522 0.0
C118 C 0.23896 0.84749 0.87704 0.0
N119 N 0.23809 0.86726 0.85593 0.0
N120 N 0.24574 0.87053 0.78506 0.0
C121 C 0.25172 0.85298 0.75895 0.0
C122 C 0.24764 0.83777 0.81626 0.0
C123 C 0.23396 0.83901 0.95711 0.0
H124 H 0.24262 0.84976 0.00067 0.0
H125 H 0.21708 0.83809 0.96824 0.0
H126 H 0.23805 0.82331 0.9645 0.0
O127 O 0.25754 0.9117 0.91843 0.0
O128 O 0.27156 0.91692 0.80103 0.0
H129 H 0.27594 0.86323 0.67625 0.0
H130 H 0.26592 0.83548 0.67252 0.0
C131 C 0.26176 0.85109 0.68142 0.0
H132 H 0.25083 0.85372 0.63474 0.0
H133 H 0.28891 0.91041 0.64709 0.0
O134 O 0.2274 0.88481 0.02505 0.0
C135 C 0.27196 0.92065 0.87398 0.0
Co136 Co 0.61839 0.00487 0.14476 0.0
Co137 Co 0.62615 0.02354 0.97612 0.0
C138 C 0.63885 0.98254 0.02705 0.0
O139 O 0.63154 0.98251 0.0961 0.0
O140 O 0.63776 0.9974 0.97999 0.0
C141 C 0.60433 0.98625 0.3049 0.0
O142 O 0.59674 0.96742 0.27958 0.0
C143 C 0.61975 0.01927 0.80662 0.0
C144 C 0.63273 0.05094 0.7652 0.0
C145 C 0.62384 0.03119 0.73894 0.0
N146 N 0.62604 0.03147 0.86863 0.0
N147 N 0.63364 0.0504 0.8434 0.0
C148 C 0.61067 0.99659 0.8134 0.0
H149 H 0.61184 0.99097 0.87372 0.0
H150 H 0.59388 0.99417 0.79846 0.0
H151 H 0.61866 0.98732 0.77277 0.0
C152 C 0.57479 0.00889 0.10376 0.0
N153 N 0.59518 0.01053 0.08653 0.0
N154 N 0.59866 0.01904 0.01712 0.0
C155 C 0.58065 0.02328 0.9884 0.0
C156 C 0.56486 0.01686 0.04198 0.0
C157 C 0.5651 0.99953 0.17747 0.0
H158 H 0.57002 0.01038 0.22653 0.0
H159 H 0.57075 0.98478 0.18945 0.0
H160 H 0.54786 0.99634 0.17391 0.0
O161 O 0.63935 0.03054 0.15199 0.0
O162 O 0.64468 0.04563 0.03653 0.0
H163 H 0.5648 0.0422 0.91371 0.0
H164 H 0.5782 0.024 0.86441 0.0
C165 C 0.57896 0.03494 0.91425 0.0
H166 H 0.59283 0.04733 0.90692 0.0
H167 H 0.6398 0.06286 0.87949 0.0
O168 O 0.61207 1.00045 0.25729 0.0
C169 C 0.64829 0.04541 0.10945 0.0
Co170 Co 0.72824 0.89205 0.68095 0.0
Co171 Co 0.74626 0.89368 0.84879 0.0
C172 C 0.70672 0.91014 0.80754 0.0
O173 O 0.70671 0.90456 0.73641 0.0
O174 O 0.72113 0.90705 0.85353 0.0
C175 C 0.70956 0.88206 0.51856 0.0
O176 O 0.69299 0.86877 0.54007 0.0
C177 C 0.7391 0.8813 0.00915 0.0
C178 C 0.7689 0.89402 0.06651 0.0
C179 C 0.74879 0.88369 0.08094 0.0
N180 N 0.75285 0.88966 0.9546 0.0
N181 N 0.77074 0.89703 0.98897 0.0
C182 C 0.71655 0.87324 0.99337 0.0
H183 H 0.7069 0.88334 0.02296 0.0
H184 H 0.71332 0.87276 0.92996 0.0
H185 H 0.71205 0.85727 0.01714 0.0
C186 C 0.73119 0.8469 0.69836 0.0
N187 N 0.73278 0.86653 0.72569 0.0
N188 N 0.74091 0.86744 0.79607 0.0
C189 C 0.74479 0.84844 0.81558 0.0
C190 C 0.73864 0.83476 0.75448 0.0
C191 C 0.72446 0.8403 0.61758 0.0
H192 H 0.73181 0.8522 0.5753 0.0
H193 H 0.70731 0.83889 0.61351 0.0
H194 H 0.72876 0.82507 0.60217 0.0
O195 O 0.75477 0.91179 0.68081 0.0
O196 O 0.76947 0.91314 0.79726 0.0
H197 H 0.76761 0.85571 0.90588 0.0
H198 H 0.75878 0.82805 0.89154 0.0
C199 C 0.75399 0.84352 0.89176 0.0
H200 H 0.74218 0.84342 0.93824 0.0
H201 H 0.78388 0.9049 0.96002 0.0
O202 O 0.72271 0.8905 0.56846 0.0
C203 C 0.76976 0.91878 0.72613 0.0
Co204 Co 0.89211 0.05131 0.64719 0.0
Co205 Co 0.88653 0.03346 0.47986 0.0
C206 C 0.87383 0.07455 0.52646 0.0
O207 O 0.88044 0.074 0.596 0.0
O208 O 0.87513 0.05987 0.47888 0.0
C209 C 0.90545 0.06904 0.80945 0.0
O210 O 0.92055 0.08418 0.78891 0.0
C211 C 0.89854 0.03975 0.31941 0.0
C212 C 0.88263 0.01114 0.26102 0.0
C213 C 0.89517 0.03032 0.2474 0.0
N214 N 0.8887 0.02671 0.37341 0.0
N215 N 0.87934 0.00953 0.33847 0.0
C216 C 0.90932 0.06156 0.33614 0.0
H217 H 0.90903 0.06505 0.39928 0.0
H218 H 0.92577 0.06362 0.31686 0.0
H219 H 0.90169 0.07276 0.30308 0.0
C220 C 0.93584 0.04413 0.61995 0.0
N221 N 0.91621 0.04484 0.59669 0.0
N222 N 0.91337 0.03653 0.52672 0.0
C223 C 0.93094 0.03 0.50385 0.0
C224 C 0.9458 0.03477 0.56174 0.0
C225 C 0.9442 0.05027 0.69922 0.0
H226 H 0.93266 0.04366 0.74403 0.0
H227 H 0.94688 0.0675 0.70405 0.0
H228 H 0.95911 0.04479 0.71016 0.0
O229 O 0.87072 0.02574 0.65126 0.0
O230 O 0.86667 0.01133 0.53423 0.0
H231 H 0.91897 0.00681 0.41881 0.0
H232 H 0.94696 0.01088 0.42958 0.0
C233 C 0.93315 0.01863 0.42928 0.0
H234 H 0.93503 0.02991 0.38048 0.0
H235 H 0.87018 0.99704 0.36709 0.0
O236 O 0.89548 0.05708 0.75886 0.0
C237 C 0.86215 0.01119 0.6065 0.0
Co238 Co 0.779 0.16725 0.21381 0.0
Co239 Co 0.76145 0.15915 0.38364 0.0
C240 C 0.80219 0.14679 0.32918 0.0
O241 O 0.80165 0.1543 0.26074 0.0
O242 O 0.78768 0.14767 0.37808 0.0
C243 C 0.79705 0.18282 0.05478 0.0
O244 O 0.81473 0.19323 0.08145 0.0
C245 C 0.76572 0.1649 0.55371 0.0
C246 C 0.73379 0.15265 0.59421 0.0
C247 C 0.7536 0.16102 0.6208 0.0
N248 N 0.75357 0.15911 0.49123 0.0
N249 N 0.73448 0.15192 0.51596 0.0
C250 C 0.78856 0.17337 0.54844 0.0
H251 H 0.79457 0.17152 0.48912 0.0
H252 H 0.7913 0.19031 0.56138 0.0
H253 H 0.79726 0.16553 0.59141 0.0
C254 C 0.77232 0.21029 0.25264 0.0
N255 N 0.77286 0.19034 0.27207 0.0
N256 N 0.76509 0.18674 0.34262 0.0
C257 C 0.75931 0.20425 0.37015 0.0
C258 C 0.76371 0.21979 0.31419 0.0
C259 C 0.77772 0.21925 0.17352 0.0
H260 H 0.76917 0.20883 0.12872 0.0
H261 H 0.79463 0.22007 0.16321 0.0
H262 H 0.77381 0.23505 0.16722 0.0
O263 O 0.75359 0.14608 0.20731 0.0
O264 O 0.73931 0.1403 0.32406 0.0
H265 H 0.73528 0.19359 0.4532 0.0
H266 H 0.74506 0.22138 0.45769 0.0
C267 C 0.74935 0.20587 0.44802 0.0
H268 H 0.76042 0.20327 0.49427 0.0
H269 H 0.722 0.14619 0.47945 0.0
O270 O 0.78351 0.17332 0.10149 0.0
C271 C 0.73911 0.13686 0.25091 0.0
Co272 Co 0.89268 0.54494 0.48771 0.0
Co273 Co 0.89003 0.52928 0.66056 0.0
C274 C 0.87645 0.56975 0.60981 0.0
O275 O 0.88112 0.56789 0.53828 0.0
O276 O 0.87919 0.5561 0.66005 0.0
C277 C 0.90347 0.56403 0.32921 0.0
O278 O 0.90995 0.58283 0.35707 0.0
C279 C 0.89391 0.53256 0.83105 0.0
C280 C 0.89462 0.49998 0.86488 0.0
C281 C 0.89534 0.51984 0.89498 0.0
N282 N 0.89284 0.52081 0.76622 0.0
N283 N 0.89319 0.50135 0.78691 0.0
C284 C 0.89055 0.55468 0.83116 0.0
H285 H 0.90221 0.56413 0.79255 0.0
H286 H 0.89124 0.5617 0.88992 0.0
H287 H 0.87482 0.55505 0.80746 0.0
C288 C 0.93669 0.53994 0.50866 0.0
N289 N 0.91733 0.53969 0.53648 0.0
N290 N 0.91625 0.5326 0.60841 0.0
C291 C 0.93496 0.52814 0.62866 0.0
C292 C 0.94853 0.53256 0.56591 0.0
C293 C 0.94364 0.54719 0.42867 0.0
H294 H 0.9395 0.56273 0.4183 0.0
H295 H 0.96069 0.54838 0.42102 0.0
H296 H 0.93538 0.53619 0.38497 0.0
O297 O 0.87141 0.51946 0.48886 0.0
O298 O 0.86933 0.50722 0.60932 0.0
H299 H 0.92868 0.50246 0.70717 0.0
H300 H 0.95533 0.51541 0.70861 0.0
C301 C 0.93901 0.51787 0.70365 0.0
H302 H 0.93534 0.52752 0.75327 0.0
H303 H 0.89214 0.48893 0.74783 0.0
O304 O 0.89696 0.549 0.37495 0.0
C305 C 0.86359 0.50582 0.53835 0.0
Co306 Co 0.77257 0.66254 0.82452 0.0
Co307 Co 0.75478 0.65995 0.65389 0.0
C308 C 0.79425 0.64371 0.69889 0.0
O309 O 0.79423 0.64941 0.7701 0.0
O310 O 0.77996 0.64689 0.65231 0.0
C311 C 0.78534 0.65576 0.98231 0.0
O312 O 0.7909 0.63885 0.95378 0.0
C313 C 0.75942 0.66648 0.48559 0.0
C314 C 0.72688 0.66267 0.4451 0.0
C315 C 0.74734 0.6664 0.41919 0.0
N316 N 0.74674 0.66274 0.54775 0.0
N317 N 0.72728 0.66051 0.52316 0.0
C318 C 0.78265 0.67169 0.4907 0.0
H319 H 0.78751 0.67782 0.54942 0.0
H320 H 0.78891 0.68336 0.44571 0.0
H321 H 0.78928 0.65742 0.48 0.0
C322 C 0.77079 0.70723 0.79988 0.0
N323 N 0.76837 0.6874 0.77428 0.0
N324 N 0.7605 0.68636 0.70356 0.0
C325 C 0.75761 0.70553 0.68189 0.0
C326 C 0.76403 0.71941 0.7422 0.0
C327 C 0.77778 0.71382 0.88052 0.0
H328 H 0.76661 0.70532 0.9232 0.0
H329 H 0.79321 0.70947 0.89163 0.0
H330 H 0.77874 0.7308 0.88973 0.0
O331 O 0.74607 0.64238 0.82786 0.0
O332 O 0.73224 0.64089 0.70958 0.0
H333 H 0.7334 0.70103 0.5965 0.0
H334 H 0.74849 0.72719 0.59811 0.0
C335 C 0.7492 0.7104 0.60431 0.0
H336 H 0.75934 0.70597 0.55766 0.0
H337 H 0.71429 0.6574 0.55959 0.0
O338 O 0.77878 0.66843 0.93634 0.0
C339 C 0.73149 0.63526 0.7808 0.0
Co340 Co 0.62017 0.50981 0.95866 0.0
Co341 Co 0.62561 0.52553 0.13101 0.0
C342 C 0.63943 0.48574 0.07632 0.0
O343 O 0.63332 0.48747 0.00647 0.0
O344 O 0.63722 0.49924 0.12802 0.0
C345 C 0.62291 0.49376 0.80285 0.0
O346 O 0.63727 0.48418 0.83199 0.0
C347 C 0.61882 0.52088 0.29874 0.0
C348 C 0.62665 0.55333 0.34104 0.0
C349 C 0.62014 0.53297 0.36566 0.0
N350 N 0.62439 0.53348 0.23754 0.0
N351 N 0.62911 0.55287 0.26318 0.0
C352 C 0.61109 0.49794 0.29191 0.0
H353 H 0.60473 0.49402 0.23274 0.0
H354 H 0.59893 0.49268 0.33641 0.0
H355 H 0.62423 0.48956 0.30176 0.0
C356 C 0.5765 0.51405 0.99156 0.0
N357 N 0.5963 0.51444 0.01447 0.0
N358 N 0.5986 0.52177 0.08592 0.0
C359 C 0.58035 0.52654 0.11053 0.0
C360 C 0.56567 0.5218 0.05148 0.0
C361 C 0.56834 0.50667 0.91311 0.0
H362 H 0.57462 0.49254 0.89625 0.0
H363 H 0.55107 0.50301 0.91277 0.0
H364 H 0.57369 0.51899 0.86939 0.0
O365 O 0.6408 0.53598 0.95398 0.0
O366 O 0.64485 0.54784 0.07509 0.0
H367 H 0.59117 0.55064 0.1931 0.0
H368 H 0.56323 0.54416 0.18666 0.0
C369 C 0.57784 0.53768 0.18532 0.0
H370 H 0.5778 0.52667 0.23459 0.0
H371 H 0.6339 0.56578 0.22748 0.0
O372 O 0.61307 0.50409 0.84788 0.0
C373 C 0.6492 0.54962 0.00274 0.0
Co374 Co 0.7366 0.39466 0.37943 0.0
Co375 Co 0.75145 0.39732 0.2084 0.0
C376 C 0.71202 0.41204 0.25943 0.0
O377 O 0.71381 0.40644 0.32972 0.0
O378 O 0.72553 0.40947 0.20857 0.0
C379 C 0.7178 0.38271 0.53757 0.0
O380 O 0.70237 0.36866 0.51172 0.0
C381 C 0.74398 0.38509 0.04854 0.0
C382 C 0.77358 0.39818 0.99016 0.0
C383 C 0.75363 0.38734 0.97677 0.0
N384 N 0.75763 0.39393 0.10235 0.0
N385 N 0.77539 0.40157 0.06745 0.0
C386 C 0.7216 0.37643 0.06517 0.0
H387 H 0.7189 0.37441 0.12873 0.0
H388 H 0.71692 0.36118 0.0357 0.0
H389 H 0.71172 0.38724 0.04194 0.0
C390 C 0.74285 0.35034 0.35951 0.0
N391 N 0.74168 0.36956 0.33235 0.0
N392 N 0.74829 0.37101 0.25973 0.0
C393 C 0.75389 0.35286 0.23847 0.0
C394 C 0.75056 0.33913 0.30077 0.0
C395 C 0.73906 0.34368 0.44239 0.0
H396 H 0.74582 0.35656 0.48197 0.0
H397 H 0.72204 0.33992 0.45285 0.0
H398 H 0.74593 0.32967 0.45575 0.0
O399 O 0.7626 0.41542 0.37745 0.0
O400 O 0.77449 0.41741 0.25637 0.0
H401 H 0.77609 0.36183 0.14711 0.0
H402 H 0.76861 0.33392 0.1587 0.0
C403 C 0.76302 0.349 0.16084 0.0
H404 H 0.75092 0.34866 0.11547 0.0
H405 H 0.78847 0.40969 0.09597 0.0
O406 O 0.73122 0.39245 0.49123 0.0
C407 C 0.77627 0.42296 0.32754 0.0
Co408 Co 0.12154 0.50265 0.67365 0.0
Co409 Co 0.12602 0.52064 0.50365 0.0
C410 C 0.14048 0.48031 0.55134 0.0
O411 O 0.13423 0.48052 0.62177 0.0
O412 O 0.13834 0.49484 0.5041 0.0
C413 C 0.1094 0.48328 0.833 0.0
O414 O 0.10203 0.46457 0.806 0.0
C415 C 0.11848 0.51652 0.33482 0.0
C416 C 0.12958 0.54872 0.29462 0.0
C417 C 0.1219 0.52872 0.26765 0.0
N418 N 0.12414 0.52876 0.39721 0.0
N419 N 0.13051 0.54802 0.37275 0.0
C420 C 0.11077 0.49354 0.34066 0.0
H421 H 0.11188 0.48796 0.40104 0.0
H422 H 0.09409 0.4901 0.32411 0.0
H423 H 0.11971 0.485 0.30076 0.0
C424 C 0.07772 0.5077 0.64716 0.0
N425 N 0.09733 0.50799 0.62187 0.0
N426 N 0.09927 0.51597 0.55125 0.0
C427 C 0.08094 0.52101 0.52939 0.0
C428 C 0.06667 0.51597 0.58955 0.0
C429 C 0.06997 0.50011 0.72586 0.0
H430 H 0.07399 0.48452 0.73624 0.0
H431 H 0.05286 0.49898 0.73111 0.0
H432 H 0.07782 0.51091 0.77102 0.0
O433 O 0.14208 0.52863 0.67686 0.0
O434 O 0.1452 0.54312 0.55985 0.0
H435 H 0.09109 0.54566 0.44829 0.0
H436 H 0.06313 0.53865 0.45665 0.0
C437 C 0.07793 0.53251 0.45603 0.0
H438 H 0.07787 0.52181 0.4057 0.0
H439 H 0.13609 0.56058 0.40925 0.0
O440 O 0.1166 0.49795 0.78653 0.0
C441 C 0.14999 0.54338 0.63182 0.0
Co442 Co 0.23224 0.39155 0.20712 0.0
Co443 Co 0.25022 0.39467 0.3748 0.0
C444 C 0.21 0.40956 0.33165 0.0
O445 O 0.21014 0.40366 0.26095 0.0
O446 O 0.22459 0.40715 0.37791 0.0
C447 C 0.21381 0.38028 0.04502 0.0
O448 O 0.19773 0.36636 0.0665 0.0
C449 C 0.24322 0.38267 0.53534 0.0
C450 C 0.27273 0.39627 0.593 0.0
C451 C 0.25285 0.3853 0.60713 0.0
N452 N 0.25679 0.39143 0.48096 0.0
N453 N 0.27451 0.39938 0.5155 0.0
C454 C 0.22085 0.37379 0.51932 0.0
H455 H 0.21768 0.37311 0.45587 0.0
H456 H 0.21687 0.35782 0.54344 0.0
H457 H 0.21074 0.38351 0.54848 0.0
C458 C 0.23638 0.34667 0.22905 0.0
N459 N 0.23755 0.3665 0.25401 0.0
N460 N 0.24576 0.36816 0.32427 0.0
C461 C 0.2502 0.34954 0.34596 0.0
C462 C 0.24429 0.33527 0.28653 0.0
C463 C 0.22934 0.33916 0.14956 0.0
H464 H 0.23624 0.35074 0.10539 0.0
H465 H 0.21214 0.3374 0.14656 0.0
H466 H 0.23387 0.32391 0.13606 0.0
O467 O 0.25837 0.41208 0.2057 0.0
O468 O 0.27292 0.41439 0.3225 0.0
H469 H 0.27259 0.3583 0.43682 0.0
H470 H 0.26519 0.33046 0.42419 0.0
C471 C 0.25953 0.34549 0.42291 0.0
H472 H 0.2475 0.3449 0.4688 0.0
H473 H 0.2875 0.40758 0.48662 0.0
O474 O 0.22663 0.38932 0.09491 0.0
C475 C 0.27314 0.4197 0.25103 0.0
Co476 Co 0.39306 0.5543 0.17872 0.0
Co477 Co 0.38953 0.53623 0.01131 0.0
C478 C 0.37499 0.57674 0.05529 0.0
O479 O 0.38105 0.57648 0.12572 0.0
O480 O 0.3772 0.56214 0.00844 0.0
C481 C 0.40407 0.57262 0.34175 0.0
O482 O 0.41656 0.58986 0.32153 0.0
C483 C 0.40245 0.54254 0.85142 0.0
C484 C 0.38682 0.51381 0.7931 0.0
C485 C 0.39907 0.53314 0.77922 0.0
N486 N 0.39272 0.52942 0.90541 0.0
N487 N 0.38363 0.51212 0.87053 0.0
C488 C 0.41289 0.56445 0.86833 0.0
H489 H 0.4062 0.57549 0.83094 0.0
H490 H 0.41123 0.56838 0.93055 0.0
H491 H 0.42973 0.56621 0.85481 0.0
C492 C 0.43739 0.54908 0.15706 0.0
N493 N 0.41783 0.54876 0.13112 0.0
N494 N 0.41601 0.54037 0.06117 0.0
C495 C 0.43426 0.53489 0.04069 0.0
C496 C 0.4485 0.54035 0.10046 0.0
C497 C 0.44513 0.55756 0.23461 0.0
H498 H 0.44243 0.57381 0.23971 0.0
H499 H 0.462 0.55751 0.24223 0.0
H500 H 0.43621 0.54822 0.28146 0.0
O501 O 0.37236 0.52824 0.18068 0.0
O502 O 0.36985 0.5136 0.06391 0.0
H503 H 0.42284 0.51119 0.9566 0.0
H504 H 0.45028 0.51369 0.97726 0.0
C505 C 0.43728 0.52242 0.96957 0.0
H506 H 0.44093 0.5331 0.91924 0.0
H507 H 0.37453 0.49959 0.89909 0.0
O508 O 0.39579 0.55966 0.29089 0.0
C509 C 0.36464 0.51343 0.1355 0.0
Co510 Co 0.28059 0.66725 0.72747 0.0
Co511 Co 0.26179 0.65867 0.89511 0.0
C512 C 0.30308 0.64697 0.84734 0.0
O513 O 0.30267 0.65408 0.77822 0.0
O514 O 0.28837 0.64793 0.89525 0.0
C515 C 0.28733 0.66007 0.5724 0.0
O516 O 0.28523 0.64126 0.60234 0.0
C517 C 0.26334 0.66175 0.06538 0.0
C518 C 0.2317 0.64613 0.09823 0.0
C519 C 0.25091 0.65482 0.12893 0.0
N520 N 0.25201 0.65733 0.00014 0.0
N521 N 0.233 0.64831 0.02031 0.0
C522 C 0.28615 0.67046 0.06615 0.0
H523 H 0.29197 0.67463 0.00651 0.0
H524 H 0.28912 0.68465 0.103 0.0
H525 H 0.29475 0.65888 0.09196 0.0
C526 C 0.27316 0.70984 0.76592 0.0
N527 N 0.27379 0.68997 0.7859 0.0
N528 N 0.26557 0.68628 0.85567 0.0
C529 C 0.25945 0.70369 0.88241 0.0
C530 C 0.26398 0.71924 0.82641 0.0
C531 C 0.27886 0.71859 0.68666 0.0
H532 H 0.26887 0.70919 0.64259 0.0
H533 H 0.29524 0.71728 0.67364 0.0
H534 H 0.2769 0.7351 0.68167 0.0
O535 O 0.25511 0.64608 0.71426 0.0
O536 O 0.24098 0.63984 0.83107 0.0
H537 H 0.23444 0.69346 0.96179 0.0
H538 H 0.24554 0.72092 0.97048 0.0
C539 C 0.24904 0.70512 0.95949 0.0
H540 H 0.25941 0.70136 0.00642 0.0
H541 H 0.22122 0.64267 0.98069 0.0
O542 O 0.28808 0.67549 0.61836 0.0
C543 C 0.24078 0.63657 0.75786 0.0
H544 H 0.43258 0.07439 0.67902 0.0
H545 H 0.36995 0.05016 0.75549 0.0
H546 H 0.3611 0.0356 0.62679 0.0
H547 H 0.37141 0.02836 0.49437 0.0
H548 H 0.43419 0.05099 0.4172 0.0
H549 H 0.44278 0.06755 0.54378 0.0
C550 C 0.41694 0.06623 0.66678 0.0
C551 C 0.40194 0.06335 0.7263 0.0
C552 C 0.41204 0.05744 0.59282 0.0
C553 C 0.38178 0.0525 0.71041 0.0
C554 C 0.3767 0.0441 0.637 0.0
C555 C 0.38698 0.03686 0.50552 0.0
C556 C 0.40205 0.03874 0.4466 0.0
C557 C 0.39179 0.04616 0.57827 0.0
C558 C 0.42217 0.04983 0.46124 0.0
C559 C 0.42712 0.05917 0.53374 0.0
H560 H 0.28795 0.18848 0.93841 0.0
H561 H 0.2362 0.1389 0.89048 0.0
H562 H 0.24529 0.14037 0.75297 0.0
H563 H 0.26791 0.15514 0.64695 0.0
H564 H 0.32084 0.20343 0.69323 0.0
H565 H 0.31171 0.20244 0.83205 0.0
C566 C 0.27898 0.17753 0.89892 0.0
C567 C 0.26164 0.16324 0.92599 0.0
C568 C 0.28453 0.17817 0.81957 0.0
C569 C 0.24964 0.15005 0.87186 0.0
C570 C 0.25487 0.15079 0.79305 0.0
C571 C 0.27752 0.1655 0.6872 0.0
C572 C 0.295 0.17942 0.65965 0.0
C573 C 0.27228 0.16473 0.7664 0.0
C574 C 0.30733 0.19255 0.71293 0.0
C575 C 0.30207 0.19202 0.79221 0.0
H576 H 0.07906 0.98401 0.18489 0.0
H577 H 0.14292 1.00366 0.2561 0.0
H578 H 0.15211 0.01745 0.12655 0.0
H579 H 0.14175 0.02583 0.99545 0.0
H580 H 0.07794 0.00752 0.92314 0.0
H581 H 0.06891 0.99134 0.05017 0.0
C582 C 0.09502 0.99094 0.17128 0.0
C583 C 0.11028 0.99284 0.22965 0.0
C584 C 0.10015 0.99931 0.09682 0.0
C585 C 0.13089 1.00211 0.21194 0.0
C586 C 0.13616 0.01008 0.13806 0.0
C587 C 0.12588 0.0183 0.00777 0.0
C588 C 0.11057 0.01764 0.95033 0.0
C589 C 0.12085 0.00917 0.08064 0.0
C590 C 0.09007 0.00779 0.96625 0.0
C591 C 0.08488 0.99865 0.03895 0.0
H592 H 0.22592 0.86765 0.43463 0.0
H593 H 0.27546 0.91946 0.38667 0.0
H594 H 0.26633 0.91763 0.2493 0.0
H595 H 0.24432 0.90188 0.14337 0.0
H596 H 0.19362 0.85117 0.18945 0.0
H597 H 0.20273 0.85258 0.32819 0.0
C598 C 0.23438 0.87896 0.39511 0.0
C599 C 0.25111 0.894 0.42214 0.0
C600 C 0.22881 0.87808 0.31581 0.0
C601 C 0.26249 0.90773 0.36806 0.0
C602 C 0.25724 0.90678 0.28933 0.0
C603 C 0.23519 0.89108 0.18355 0.0
C604 C 0.21834 0.87637 0.15594 0.0
C605 C 0.24043 0.89207 0.26269 0.0
C606 C 0.20663 0.86268 0.20917 0.0
C607 C 0.21189 0.86345 0.28841 0.0
H608 H 0.59722 0.99805 0.6687 0.0
H609 H 0.64532 0.05098 0.6174 0.0
H610 H 0.64311 0.04203 0.48008 0.0
H611 H 0.62837 0.01908 0.37483 0.0
H612 H 0.582 0.96479 0.42457 0.0
H613 H 0.5833 0.97405 0.56327 0.0
C614 C 0.6077 0.00738 0.6287 0.0
C615 C 0.62178 0.02499 0.65509 0.0
C616 C 0.60672 1.00188 0.54921 0.0
C617 C 0.63433 0.03731 0.59978 0.0
C618 C 0.63317 0.03218 0.52088 0.0
C619 C 0.61847 0.00923 0.4158 0.0
C620 C 0.60502 0.9913 0.38923 0.0
C621 C 0.61951 0.01448 0.49506 0.0
C622 C 0.59251 0.97865 0.44346 0.0
C623 C 0.59323 0.98398 0.52271 0.0
H624 H 0.70251 0.85497 0.39634 0.0
H625 H 0.72918 0.91828 0.45742 0.0
H626 H 0.74353 0.92438 0.3267 0.0
H627 H 0.75049 0.91118 0.19792 0.0
H628 H 0.7252 0.84771 0.13597 0.0
H629 H 0.70835 0.8421 0.26374 0.0
C630 C 0.71106 0.87018 0.38017 0.0
C631 C 0.71477 0.88617 0.43599 0.0
C632 C 0.71977 0.87345 0.30521 0.0
C633 C 0.72617 0.90575 0.41513 0.0
C634 C 0.73447 0.90923 0.34064 0.0
C635 C 0.7413 0.89613 0.21265 0.0
C636 C 0.73891 0.87993 0.158 0.0
C637 C 0.73178 0.89307 0.28588 0.0
C638 C 0.72688 0.86052 0.17698 0.0
C639 C 0.71735 0.85729 0.25006 0.0
H640 H 0.86934 0.0319 0.12743 0.0
H641 H 0.93346 0.04971 0.19654 0.0
H642 H 0.94215 0.06581 0.06905 0.0
H643 H 0.93161 0.07299 0.93461 0.0
H644 H 0.86741 0.05389 0.86688 0.0
H645 H 0.85856 0.04041 0.99711 0.0
C646 C 0.88521 0.03931 0.11431 0.0
C647 C 0.90072 0.0398 0.17081 0.0
C648 C 0.89002 0.04841 0.04128 0.0
C649 C 0.9212 0.04953 0.15399 0.0
C650 C 0.92618 0.05863 0.08109 0.0
C651 C 0.91566 0.06627 0.94918 0.0
C652 C 0.90019 0.06439 0.8916 0.0
C653 C 0.91072 0.05807 0.02401 0.0
C654 C 0.87958 0.05541 0.91048 0.0
C655 C 0.87451 0.04761 0.98472 0.0
H656 H 0.78482 0.18946 0.69106 0.0
H657 H 0.73557 0.13751 0.74054 0.0
H658 H 0.7446 0.13984 0.87801 0.0
H659 H 0.76647 0.15605 0.98362 0.0
H660 H 0.81694 0.20687 0.93594 0.0
H661 H 0.80786 0.20501 0.79717 0.0
C662 C 0.77641 0.17822 0.73095 0.0
C663 C 0.75979 0.16299 0.7043 0.0
C664 C 0.78192 0.1794 0.81031 0.0
C665 C 0.74846 0.14937 0.75883 0.0
C666 C 0.75365 0.15061 0.83763 0.0
C667 C 0.77556 0.16678 0.94309 0.0
C668 C 0.79234 0.18165 0.97027 0.0
C669 C 0.77036 0.16551 0.86389 0.0
C670 C 0.80398 0.19525 0.91658 0.0
C671 C 0.79875 0.19422 0.83731 0.0
H672 H 0.8834 0.52982 0.25539 0.0
H673 H 0.9252 0.58794 0.21409 0.0
H674 H 0.9272 0.57894 0.07582 0.0
H675 H 0.9175 0.55402 0.96779 0.0
H676 H 0.87418 0.49702 0.01033 0.0
H677 H 0.87304 0.50573 0.14841 0.0
C678 C 0.89298 0.54059 0.21631 0.0
C679 C 0.90419 0.55952 0.24496 0.0
C680 C 0.89394 0.53538 0.13751 0.0
C681 C 0.91635 0.57332 0.19334 0.0
C682 C 0.91757 0.56813 0.11448 0.0
C683 C 0.90742 0.54379 0.00702 0.0
C684 C 0.89543 0.52521 0.97864 0.0
C685 C 0.90643 0.54918 0.086 0.0
C686 C 0.88337 0.5115 0.03077 0.0
C687 C 0.88263 0.51652 0.10954 0.0
H688 H 0.77699 0.64845 0.34775 0.0
H689 H 0.73221 0.68853 0.30569 0.0
H690 H 0.74163 0.69054 0.16747 0.0
H691 H 0.76105 0.67922 0.0578 0.0
H692 H 0.80412 0.63714 0.09825 0.0
H693 H 0.79729 0.63797 0.23833 0.0
C694 C 0.76966 0.658 0.30864 0.0
C695 C 0.75417 0.66861 0.33693 0.0
C696 C 0.77483 0.65868 0.22904 0.0
C697 C 0.74423 0.68031 0.28511 0.0
C698 C 0.74963 0.68147 0.20622 0.0
C699 C 0.76921 0.67048 0.09732 0.0
C700 C 0.78314 0.65818 0.06761 0.0
C701 C 0.76471 0.67051 0.17737 0.0
C702 C 0.79333 0.64673 0.11961 0.0
C703 C 0.78939 0.64715 0.19968 0.0
H704 H 0.60401 0.52152 0.72546 0.0
H705 H 0.63778 0.47102 0.68845 0.0
H706 H 0.63839 0.47763 0.54814 0.0
H707 H 0.63215 0.49986 0.43791 0.0
H708 H 0.60039 0.55164 0.47697 0.0
H709 H 0.59634 0.54256 0.61501 0.0
C710 C 0.61123 0.51172 0.6867 0.0
C711 C 0.62087 0.49581 0.71746 0.0
C712 C 0.61208 0.51602 0.6066 0.0
C713 C 0.63029 0.4834 0.66632 0.0
C714 C 0.6307 0.48722 0.58612 0.0
C715 C 0.6239 0.50883 0.47628 0.0
C716 C 0.61631 0.52623 0.44733 0.0
C717 C 0.62205 0.50377 0.55583 0.0
C718 C 0.6063 0.53816 0.49816 0.0
C719 C 0.60397 0.53296 0.57694 0.0
H720 H 0.712 0.35509 0.65807 0.0
H721 H 0.7316 0.42012 0.6021 0.0
H722 H 0.74386 0.42738 0.73484 0.0
H723 H 0.75197 0.41482 0.8629 0.0
H724 H 0.73348 0.34993 0.92108 0.0
H725 H 0.71785 0.34288 0.79165 0.0
C726 C 0.71848 0.37087 0.67587 0.0
C727 C 0.72098 0.38705 0.62093 0.0
C728 C 0.72602 0.37487 0.75205 0.0
C729 C 0.72964 0.40744 0.64379 0.0
C730 C 0.73675 0.4116 0.7194 0.0
C731 C 0.74446 0.39917 0.84698 0.0
C732 C 0.74383 0.38289 0.90036 0.0
C733 C 0.73559 0.39534 0.77319 0.0
C734 C 0.73392 0.36269 0.88036 0.0
C735 C 0.72506 0.35868 0.80655 0.0
H736 H 0.1313 0.51685 0.90552 0.0
H737 H 0.08723 0.46047 0.95007 0.0
H738 H 0.08649 0.46972 0.08849 0.0
H739 H 0.09777 0.49442 0.19485 0.0
H740 H 0.14346 0.54969 0.14871 0.0
H741 H 0.14345 0.54055 0.01173 0.0
C742 C 0.12149 0.50651 0.94532 0.0
C743 C 0.10927 0.48801 0.9174 0.0
C744 C 0.12127 0.51183 0.02432 0.0
C745 C 0.09684 0.47477 0.97009 0.0
C746 C 0.09636 0.4801 0.04914 0.0
C747 C 0.10821 0.50424 0.1561 0.0
C748 C 0.12097 0.52256 0.1838 0.0
C749 C 0.10852 0.49865 0.0769 0.0
C750 C 0.13346 0.53548 0.13001 0.0
C751 C 0.13358 0.53023 0.05135 0.0
H752 H 0.20801 0.35344 0.92178 0.0
H753 H 0.23142 0.41736 0.98507 0.0
H754 H 0.24536 0.42459 0.85433 0.0
H755 H 0.25305 0.41228 0.72496 0.0
H756 H 0.23102 0.3483 0.66066 0.0
H757 H 0.21443 0.34145 0.78843 0.0
C758 C 0.21576 0.36901 0.9061 0.0
C759 C 0.2187 0.38486 0.96254 0.0
C760 C 0.22424 0.37296 0.83109 0.0
C761 C 0.22904 0.40493 0.9423 0.0
C762 C 0.23711 0.40906 0.86779 0.0
C763 C 0.24461 0.39685 0.7392 0.0
C764 C 0.24308 0.38085 0.68397 0.0
C765 C 0.23525 0.39309 0.8124 0.0
C766 C 0.23203 0.36094 0.70222 0.0
C767 C 0.22265 0.35701 0.77527 0.0
H768 H 0.37259 0.53169 0.65952 0.0
H769 H 0.43575 0.55628 0.72693 0.0
H770 H 0.4424 0.57308 0.59961 0.0
H771 H 0.43049 0.57919 0.46588 0.0
H772 H 0.36752 0.55304 0.39964 0.0
H773 H 0.36045 0.53867 0.52974 0.0
C774 C 0.38783 0.54069 0.64615 0.0
C775 C 0.4036 0.54292 0.70231 0.0
C776 C 0.3915 0.55014 0.57314 0.0
C777 C 0.42324 0.55472 0.68489 0.0
C778 C 0.42707 0.56423 0.61202 0.0
C779 C 0.41515 0.57071 0.4808 0.0
C780 C 0.39953 0.56718 0.42376 0.0
C781 C 0.41132 0.56198 0.55547 0.0
C782 C 0.37978 0.55589 0.44292 0.0
C783 C 0.37574 0.54759 0.51706 0.0
H784 H 0.27172 0.68504 0.22439 0.0
H785 H 0.2443 0.61984 0.21586 0.0
H786 H 0.25481 0.61541 0.35037 0.0
H787 H 0.27074 0.63012 0.47086 0.0
H788 H 0.29639 0.69574 0.48467 0.0
H789 H 0.28808 0.69993 0.34693 0.0
C790 C 0.26836 0.66985 0.25184 0.0
C791 C 0.25747 0.65272 0.21035 0.0
C792 C 0.2742 0.66749 0.32978 0.0
C793 C 0.25263 0.63322 0.24698 0.0
C794 C 0.25871 0.63067 0.32365 0.0
C795 C 0.27482 0.64531 0.44363 0.0
C796 C 0.28436 0.66256 0.48773 0.0
C797 C 0.26941 0.64769 0.36563 0.0
C798 C 0.28915 0.6822 0.45178 0.0
C799 C 0.28432 0.6846 0.37319 0.0
H800 H 0.36746 0.08489 0.24215 0.0
H801 H 0.3567 0.10067 0.00328 0.0
H802 H 0.33464 0.1251 0.04689 0.0
H803 H 0.31619 0.13973 0.15201 0.0
H804 H 0.3275 0.12485 0.39122 0.0
H805 H 0.35175 0.10241 0.34828 0.0
C806 C 0.36044 0.09382 0.19965 0.0
C807 C 0.36352 0.09077 0.11948 0.0
C808 C 0.34782 0.1079 0.22515 0.0
C809 C 0.35457 0.10269 0.06524 0.0
C810 C 0.34187 0.11659 0.09013 0.0
C811 C 0.32411 0.13175 0.19488 0.0
C812 C 0.31986 0.13377 0.2747 0.0
C813 C 0.33805 0.11898 0.1698 0.0
C814 C 0.33048 0.12355 0.32948 0.0
C815 C 0.34427 0.11064 0.30492 0.0
H816 H 0.17539 0.07679 0.58453 0.0
H817 H 0.15658 0.05157 0.35778 0.0
H818 H 0.18217 0.07824 0.29574 0.0
H819 H 0.21095 0.10808 0.30523 0.0
H820 H 0.23044 0.13267 0.53212 0.0
H821 H 0.20362 0.10714 0.59384 0.0
C822 C 0.17682 0.07719 0.52157 0.0
C823 C 0.1641 0.06208 0.47627 0.0
C824 C 0.19178 0.09251 0.48583 0.0
C825 C 0.16622 0.06287 0.39454 0.0
C826 C 0.18087 0.07817 0.3587 0.0
C827 C 0.2092 0.10796 0.36808 0.0
C828 C 0.22278 0.12225 0.41369 0.0
C829 C 0.19387 0.09298 0.4037 0.0
C830 C 0.22033 0.12178 0.49529 0.0
C831 C 0.20496 0.10717 0.5309 0.0
H832 H 0.19523 0.91607 0.64947 0.0
H833 H 0.18435 0.93042 0.88976 0.0
H834 H 0.15995 0.95289 0.84891 0.0
H835 H 0.14418 0.9708 0.74426 0.0
H836 H 0.15453 0.95559 0.50424 0.0
H837 H 0.17652 0.93093 0.54578 0.0
C838 C 0.18735 0.92393 0.69302 0.0
C839 C 0.19179 0.92176 0.77256 0.0
C840 C 0.17334 0.93675 0.66911 0.0
C841 C 0.18122 0.93182 0.82822 0.0
C842 C 0.16736 0.94476 0.80484 0.0
C843 C 0.15108 0.96193 0.70105 0.0
C844 C 0.14791 0.96524 0.62115 0.0
C845 C 0.16367 0.94771 0.72537 0.0
C846 C 0.15671 0.95339 0.56601 0.0
C847 C 0.16938 0.93935 0.58973 0.0
H848 H 0.33709 0.98045 0.08021 0.0
H849 H 0.35721 0.0046 0.85328 0.0
H850 H 0.3312 0.97829 0.79127 0.0
H851 H 0.30173 0.94907 0.80097 0.0
H852 H 0.28104 0.92567 0.02833 0.0
H853 H 0.30817 0.95083 0.08981 0.0
C854 C 0.33588 0.97987 0.01721 0.0
C855 C 0.34907 0.99456 0.9718 0.0
C856 C 0.32066 0.96481 0.98157 0.0
C857 C 0.3472 0.99359 0.89004 0.0
C858 C 0.33231 0.97851 0.85426 0.0
C859 C 0.30324 0.9494 0.86389 0.0
C860 C 0.28926 0.93553 0.90965 0.0
C861 C 0.31881 0.96415 0.8994 0.0
C862 C 0.29145 0.93624 0.99133 0.0
C863 C 0.30701 0.95063 0.02682 0.0
H864 H 0.69662 0.91655 0.95866 0.0
H865 H 0.68068 0.92985 0.72221 0.0
H866 H 0.65719 0.95236 0.7701 0.0
H867 H 0.64342 0.97039 0.87825 0.0
H868 H 0.65851 0.95675 0.11505 0.0
H869 H 0.67997 0.932 0.06781 0.0
C870 C 0.68785 0.92421 0.91757 0.0
C871 C 0.69061 0.92168 0.83683 0.0
C872 C 0.67432 0.93711 0.94554 0.0
C873 C 0.67892 0.93152 0.78452 0.0
C874 C 0.66554 0.94447 0.81187 0.0
C875 C 0.65125 0.96187 0.91967 0.0
C876 C 0.64958 0.96559 6e-05 0.0
C877 C 0.66347 0.94771 0.89212 0.0
C878 C 0.65955 0.95418 0.05293 0.0
C879 C 0.6719 0.94012 0.02589 0.0
H880 H 0.79901 0.94658 0.80418 0.0
H881 H 0.78015 0.92459 0.57346 0.0
H882 H 0.80744 0.95047 0.5161 0.0
H883 H 0.83576 0.98046 0.5303 0.0
H884 H 0.85396 1.00334 0.7606 0.0
H885 H 0.82803 0.97616 0.8185 0.0
C886 C 0.80102 0.94734 0.74146 0.0
C887 C 0.78747 0.93371 0.69343 0.0
C888 C 0.8166 0.96257 0.70835 0.0
C889 C 0.79023 0.935 0.61205 0.0
C890 C 0.80586 0.9498 0.57896 0.0
C891 C 0.83414 0.97944 0.59313 0.0
C892 C 0.84677 0.99403 0.64068 0.0
C893 C 0.81898 0.96386 0.6264 0.0
C894 C 0.84438 0.99244 0.7222 0.0
C895 C 0.82955 0.97684 0.75563 0.0
H896 H 0.86683 0.08654 0.37822 0.0
H897 H 0.85608 0.10073 0.61895 0.0
H898 H 0.83411 0.1255 0.57855 0.0
H899 H 0.81553 0.14076 0.47555 0.0
H900 H 0.82678 0.12744 0.23459 0.0
H901 H 0.85116 0.10486 0.27441 0.0
C902 C 0.85985 0.09522 0.42185 0.0
C903 C 0.8629 0.09158 0.50159 0.0
C904 C 0.84726 0.10951 0.39819 0.0
C905 C 0.85399 0.10318 0.55728 0.0
C906 C 0.84133 0.11729 0.53422 0.0
C907 C 0.82348 0.13311 0.43164 0.0
C908 C 0.81915 0.13559 0.3522 0.0
C909 C 0.83749 0.12021 0.45495 0.0
C910 C 0.82982 0.1258 0.29607 0.0
C911 C 0.84368 0.11279 0.31886 0.0
H912 H 0.70903 0.10825 0.32162 0.0
H913 H 0.73089 0.13192 0.09587 0.0
H914 H 0.70437 0.10655 0.03229 0.0
H915 H 0.67572 0.0766 0.03961 0.0
H916 H 0.65434 0.05233 0.2651 0.0
H917 H 0.67969 0.07885 0.32902 0.0
C918 C 0.7079 0.10794 0.25859 0.0
C919 C 0.72206 0.12194 0.21394 0.0
C920 C 0.69267 0.09309 0.22184 0.0
C921 C 0.72034 0.12126 0.13208 0.0
C922 C 0.70513 0.10674 0.09536 0.0
C923 C 0.67651 0.0772 0.1027 0.0
C924 C 0.66317 0.06238 0.14711 0.0
C925 C 0.69134 0.09241 0.13953 0.0
C926 C 0.66448 0.06341 0.22904 0.0
C927 C 0.679 0.07862 0.26594 0.0
H928 H 0.82679 0.63181 0.77815 0.0
H929 H 0.79781 0.62925 0.55145 0.0
H930 H 0.82232 0.60847 0.5017 0.0
H931 H 0.85005 0.58833 0.52439 0.0
H932 H 0.87839 0.58934 0.75118 0.0
H933 H 0.85627 0.61328 0.79862 0.0
C934 C 0.82597 0.62689 0.7177 0.0
C935 C 0.81042 0.63225 0.66887 0.0
C936 C 0.83995 0.61444 0.68936 0.0
C937 C 0.80964 0.62561 0.59061 0.0
C938 C 0.82363 0.61358 0.56188 0.0
C939 C 0.85165 0.59411 0.58376 0.0
C940 C 0.86561 0.58681 0.63452 0.0
C941 C 0.83862 0.60759 0.61096 0.0
C942 C 0.86741 0.59433 0.71146 0.0
C943 C 0.8548 0.6081 0.73855 0.0
H944 H 0.72166 0.62518 0.93158 0.0
H945 H 0.70154 0.61013 0.6956 0.0
H946 H 0.67399 0.58271 0.7439 0.0
H947 H 0.65662 0.56209 0.85254 0.0
H948 H 0.67644 0.57753 0.08857 0.0
H949 H 0.70311 0.60581 0.04053 0.0
C950 C 0.71122 0.61597 0.89055 0.0
C951 C 0.71381 0.61963 0.80991 0.0
C952 C 0.69541 0.60026 0.91869 0.0
C953 C 0.69995 0.60767 0.75786 0.0
C954 C 0.68422 0.59193 0.78545 0.0
C955 C 0.66673 0.57166 0.89363 0.0
C956 C 0.66462 0.56754 0.97413 0.0
C957 C 0.68197 0.58794 0.86565 0.0
C958 C 0.67771 0.58029 0.0264 0.0
C959 C 0.693 0.59645 -0.00106 0.0
H960 H 0.6466 0.47181 0.22135 0.0
H961 H 0.65802 0.46141 0.97807 0.0
H962 H 0.68041 0.43649 0.01322 0.0
H963 H 0.69903 0.41993 0.11329 0.0
H964 H 0.68699 0.42997 0.3565 0.0
H965 H 0.66239 0.45257 0.32096 0.0
C966 C 0.6538 0.46394 0.17592 0.0
C967 C 0.65079 0.46868 0.0972 0.0
C968 C 0.66663 0.44962 0.19653 0.0
C969 C 0.66006 0.45811 0.03913 0.0
C970 C 0.67296 0.44391 0.0592 0.0
C971 C 0.69086 0.42687 0.15857 0.0
C972 C 0.69507 0.42341 0.23752 0.0
C973 C 0.67671 0.43989 0.13775 0.0
C974 C 0.68413 0.43236 0.29532 0.0
C975 C 0.6701 0.44539 0.27506 0.0
H976 H 0.78847 0.43223 0.47663 0.0
H977 H 0.80479 0.44859 0.23795 0.0
H978 H 0.83357 0.47524 0.28261 0.0
H979 H 0.85326 0.49458 0.38913 0.0
H980 H 0.83729 0.47786 0.62779 0.0
H981 H 0.80917 0.4505 0.58307 0.0
C982 C 0.79831 0.44159 0.43419 0.0
C983 C 0.79434 0.43851 0.35392 0.0
C984 C 0.81486 0.45681 0.46025 0.0
C985 C 0.80745 0.45064 0.29996 0.0
C986 C 0.82388 0.46591 0.32549 0.0
C987 C 0.84367 0.48494 0.43156 0.0
C988 C 0.8473 0.48841 0.51186 0.0
C989 C 0.8276 0.46924 0.40546 0.0
C990 C 0.83485 0.47558 0.56576 0.0
C991 C 0.81874 0.45996 0.5402 0.0
H992 H 0.14539 0.46854 0.40174 0.0
H993 H 0.16049 0.45472 0.63845 0.0
H994 H 0.18234 0.43044 0.59101 0.0
H995 H 0.19937 0.41548 0.48215 0.0
H996 H 0.18366 0.42882 0.24556 0.0
H997 H 0.15964 0.45085 0.29329 0.0
C998 C 0.1533 0.46008 0.44307 0.0
C999 C 0.15151 0.46364 0.52357 0.0
C1000 C 0.16579 0.44615 0.4154 0.0
C1001 C 0.16162 0.4523 0.57627 0.0
C1002 C 0.17419 0.43849 0.54914 0.0
C1003 C 0.19054 0.42303 0.44096 0.0
C1004 C 0.1935 0.42068 0.36031 0.0
C1005 C 0.17674 0.43565 0.46881 0.0
C1006 C 0.18172 0.43037 0.30784 0.0
C1007 C 0.16804 0.44305 0.33512 0.0
H1008 H 0.30223 0.44741 0.32966 0.0
H1009 H 0.28301 0.42655 0.09802 0.0
H1010 H 0.31008 0.45289 0.04167 0.0
H1011 H 0.33839 0.48294 0.05735 0.0
H1012 H 0.35675 0.50463 0.28891 0.0
H1013 H 0.33104 0.47702 0.34538 0.0
C1014 C 0.30409 0.44853 0.26692 0.0
C1015 C 0.29054 0.43505 0.21839 0.0
C1016 C 0.31952 0.464 0.23449 0.0
C1017 C 0.29311 0.43681 0.13702 0.0
C1018 C 0.30862 0.45188 0.10452 0.0
C1019 C 0.33685 0.48154 0.12012 0.0
C1020 C 0.34946 0.49593 0.16852 0.0
C1021 C 0.32178 0.46573 0.15259 0.0
C1022 C 0.34718 0.4939 0.24993 0.0
C1023 C 0.33247 0.47806 0.28253 0.0
H1024 H 0.31585 0.64171 0.99494 0.0
H1025 H 0.32835 0.62755 0.7559 0.0
H1026 H 0.35288 0.60548 0.7992 0.0
H1027 H 0.36839 0.58789 0.90557 0.0
H1028 H 0.35622 0.60284 0.14438 0.0
H1029 H 0.33406 0.62706 0.10045 0.0
C1030 C 0.3241 0.63397 0.95222 0.0
C1031 C 0.32009 0.63608 0.87232 0.0
C1032 C 0.33814 0.62135 0.97754 0.0
C1033 C 0.33115 0.62619 0.81772 0.0
C1034 C 0.34508 0.61347 0.8425 0.0
C1035 C 0.36105 0.5966 0.94802 0.0
C1036 C 0.36378 0.59334 0.02826 0.0
C1037 C 0.34834 0.61057 0.92233 0.0
C1038 C 0.35438 0.60499 0.08238 0.0
C1039 C 0.34163 0.61879 0.0573 0.0
H1040 H 0.1777 0.57319 0.55561 0.0
H1041 H 0.15576 0.55297 0.78526 0.0
H1042 H 0.18112 0.5804 0.84413 0.0
H1043 H 0.21045 0.60932 0.83162 0.0
H1044 H 0.23337 0.6291 0.60275 0.0
H1045 H 0.20678 0.60283 0.54304 0.0
C1046 C 0.17839 0.57489 0.61845 0.0
C1047 C 0.16489 0.56094 0.6657 0.0
C1048 C 0.19327 0.59062 0.65244 0.0
C1049 C 0.16606 0.56335 0.74722 0.0
C1050 C 0.18056 0.57907 0.78118 0.0
C1051 C 0.20957 0.60799 0.76868 0.0
C1052 C 0.22395 0.62117 0.72204 0.0
C1053 C 0.1944 0.59266 0.7345 0.0
C1054 C 0.22257 0.61914 0.6404 0.0
C1055 C 0.20734 0.60409 0.60599 0.0
H1056 H 0.47153 0.02174 0.95847 0.0
H1057 H 0.47474 0.05135 0.18368 0.0
H1058 H 0.51097 0.04672 0.19816 0.0
H1059 H 0.54182 0.03433 0.14627 0.0
H1060 H 0.53865 0.00451 0.92147 0.0
H1061 H 0.50245 0.00927 0.90657 0.0
C1062 C 0.48032 0.02738 0.01013 0.0
C1063 C 0.47068 0.03701 0.06967 0.0
C1064 C 0.50108 0.02455 0.01813 0.0
C1065 C 0.48196 0.0439 0.13715 0.0
C1066 C 0.50263 0.04126 0.14544 0.0
C1067 C 0.53307 0.0287 0.09452 0.0
C1068 C 0.54273 0.01902 0.03518 0.0
C1069 C 0.51233 0.03153 0.08645 0.0
C1070 C 0.53145 0.01207 0.96774 0.0
C1071 C 0.51079 0.01478 0.95925 0.0
H1072 H 0.27913 0.31845 0.30517 0.0
H1073 H 0.21316 0.30226 0.26356 0.0
H1074 H 0.21533 0.26509 0.26818 0.0
H1075 H 0.23591 0.23725 0.28933 0.0
H1076 H 0.30177 0.2535 0.33317 0.0
H1077 H 0.29977 0.29064 0.32479 0.0
C1078 C 0.26525 0.30672 0.29765 0.0
C1079 C 0.24597 0.31292 0.28513 0.0
C1080 C 0.26661 0.28548 0.30159 0.0
C1081 C 0.22814 0.29772 0.27349 0.0
C1082 C 0.22937 0.27653 0.2765 0.0
C1083 C 0.2498 0.24899 0.2964 0.0
C1084 C 0.26898 0.24281 0.31143 0.0
C1085 C 0.24849 0.27023 0.29128 0.0
C1086 C 0.28686 0.25802 0.32171 0.0
C1087 C 0.28572 0.2792 0.31664 0.0
H1088 H 0.02812 0.99625 0.55821 0.0
H1089 H 0.05581 0.06131 0.56019 0.0
H1090 H 0.0212 0.07105 0.56319 0.0
H1091 H 0.98289 0.0609 0.56561 0.0
H1092 H 0.95521 0.99584 0.56292 0.0
H1093 H 0.98982 0.9861 0.5604 0.0
C1094 C 0.02645 0.01252 0.559 0.0
C1095 C 0.0443 0.02808 0.55963 0.0
C1096 C 0.00653 0.01794 0.56099 0.0
C1097 C 0.04215 0.04914 0.56047 0.0
C1098 C 0.02242 0.05468 0.56219 0.0
C1099 C 0.98457 0.04463 0.56483 0.0
C1100 C 0.96673 0.02906 0.564 0.0
C1101 C 1.00449 0.03921 0.56286 0.0
C1102 C 0.96887 0.00801 0.563 0.0
C1103 C 0.9886 1.00247 0.5615 0.0
H1104 H 0.28869 0.75691 0.80661 0.0
H1105 H 0.225 0.72768 0.84594 0.0
H1106 H 0.21423 0.76182 0.84791 0.0
H1107 H 0.223 0.80016 0.8375 0.0
H1108 H 0.28665 0.82937 0.79724 0.0
H1109 H 0.29745 0.79523 0.796 0.0
C1110 C 0.27247 0.75812 0.81529 0.0
C1111 C 0.25765 0.73995 0.82651 0.0
C1112 C 0.26643 0.77779 0.81601 0.0
C1113 C 0.23667 0.74156 0.83798 0.0
C1114 C 0.23052 0.76104 0.83889 0.0
C1115 C 0.23921 0.79894 0.82868 0.0
C1116 C 0.25402 0.81709 0.81691 0.0
C1117 C 0.24526 0.77927 0.82804 0.0
C1118 C 0.27499 0.81549 0.80555 0.0
C1119 C 0.28116 0.79602 0.80504 0.0
H1120 H 0.72976 0.737 0.72385 0.0
H1121 H 0.79562 0.75176 0.76947 0.0
H1122 H 0.79372 0.78895 0.777 0.0
H1123 H 0.7732 0.81727 0.76966 0.0
H1124 H 0.70728 0.80246 0.72531 0.0
H1125 H 0.70925 0.76531 0.71652 0.0
C1126 C 0.74366 0.74845 0.73499 0.0
C1127 C 0.7628 0.74183 0.74603 0.0
C1128 C 0.7424 0.76972 0.73915 0.0
C1129 C 0.78073 0.75663 0.76117 0.0
C1130 C 0.77964 0.77783 0.76526 0.0
C1131 C 0.75928 0.80582 0.75889 0.0
C1132 C 0.74008 0.8124 0.74908 0.0
C1133 C 0.76056 0.78455 0.75447 0.0
C1134 C 0.72219 0.79761 0.73328 0.0
C1135 C 0.72332 0.77643 0.72842 0.0
H1136 H 0.78934 0.25694 0.29567 0.0
H1137 H 0.7252 0.22934 0.33553 0.0
H1138 H 0.71549 0.26396 0.33902 0.0
H1139 H 0.72523 0.30224 0.32777 0.0
H1140 H 0.78927 0.32977 0.28579 0.0
H1141 H 0.79916 0.2952 0.28632 0.0
C1142 C 0.77327 0.25862 0.30503 0.0
C1143 C 0.758 0.24077 0.31581 0.0
C1144 C 0.76783 0.27855 0.30661 0.0
C1145 C 0.73721 0.24297 0.32793 0.0
C1146 C 0.73166 0.26272 0.32974 0.0
C1147 C 0.74133 0.30056 0.31929 0.0
C1148 C 0.75652 0.31832 0.30612 0.0
C1149 C 0.74683 0.28063 0.31902 0.0
C1150 C 0.77736 0.31616 0.29528 0.0
C1151 C 0.78299 0.29645 0.29555 0.0
H1152 H 0.98142 0.54544 0.66108 0.0
H1153 H 0.9633 0.50956 0.45369 0.0
H1154 H 0.99847 0.50162 0.44114 0.0
H1155 H 0.0343 0.50431 0.49116 0.0
H1156 H 0.05204 0.53925 0.70089 0.0
H1157 H 0.0171 0.54789 0.71166 0.0
C1158 C 0.98522 0.53579 0.61351 0.0
C1159 C 0.96992 0.52808 0.55839 0.0
C1160 C 1.00535 0.53103 0.60751 0.0
C1161 C 0.97497 0.5158 0.49641 0.0
C1162 C 0.99501 0.51118 0.48946 0.0
C1163 C 0.03042 0.51383 0.53898 0.0
C1164 C 0.04552 0.52107 0.59541 0.0
C1165 C 0.0103 0.51864 0.54484 0.0
C1166 C 0.04048 0.53336 0.65734 0.0
C1167 C 0.02058 0.53835 0.6633 0.0
H1168 H 0.47919 0.55022 0.99388 0.0
H1169 H 0.46551 0.51997 0.21563 0.0
H1170 H 0.50058 0.51142 0.22021 0.0
H1171 H 0.53503 0.51204 0.15948 0.0
H1172 H 0.54867 0.54268 0.93829 0.0
H1173 H 0.51366 0.55118 0.93397 0.0
C1174 C 0.48397 0.54179 0.04315 0.0
C1175 C 0.46997 0.5359 0.1047 0.0
C1176 C 0.50405 0.5368 0.04493 0.0
C1177 C 0.47622 0.52497 0.16828 0.0
C1178 C 0.49619 0.51995 0.17059 0.0
C1179 C 0.53029 0.52065 0.11061 0.0
C1180 C 0.5443 0.52661 0.04905 0.0
C1181 C 0.51023 0.52574 0.10913 0.0
C1182 C 0.53802 0.53764 0.98575 0.0
C1183 C 0.51807 0.54264 0.98354 0.0
loop_
_geom_bond_atom_site_label_1
_geom_bond_atom_site_label_2
_geom_bond_distance
_geom_bond_site_symmetry_2
_ccdc_geom_bond_type
Co0 O3 1.970 1_556 S
Co0 N17 1.989 1_556 S
Co0 O25 1.967 . S
Co0 O32 1.920 . S
Co1 O4 1.966 . S
Co1 N10 2.022 . S
Co1 N18 1.993 . S
Co1 O26 1.941 . S
C2 O3 1.258 . S
C2 O4 1.263 . S
O3 Co0 1.970 1_554 S
O3 C2 1.258 . S
O4 Co1 1.966 . S
O4 C2 1.263 . S
C5 O6 1.235 . S
C5 O32 1.289 . S
O6 C5 1.235 . S
C7 C9 1.400 . S
C7 N10 1.351 . S
C7 C12 1.501 . S
C8 C9 1.387 . S
C8 N11 1.341 . S
C9 C7 1.400 . S
C9 C8 1.387 . S
N10 Co1 2.022 . S
N10 C7 1.351 . S
N10 N11 1.365 . S
N11 C8 1.341 . S
N11 N10 1.365 . S
N11 H31 0.862 1_545 S
C12 C7 1.501 . S
C12 H13 0.961 . S
C12 H14 0.961 . S
C12 H15 0.960 . S
H13 C12 0.961 . S
H14 C12 0.961 . S
H15 C12 0.960 . S
C16 N17 1.342 . S
C16 C20 1.401 . S
C16 C21 1.499 1_554 S
N17 Co0 1.989 1_554 S
N17 C16 1.342 . S
N17 N18 1.388 . S
N18 Co1 1.993 . S
N18 N17 1.388 . S
N18 C19 1.346 . S
C19 N18 1.346 . S
C19 C20 1.396 . S
C19 C29 1.510 . S
C20 C16 1.401 . S
C20 C19 1.396 . S
C21 C16 1.499 1_556 S
C21 H22 0.959 . S
C21 H23 0.960 . S
C21 H24 0.961 . S
H22 C21 0.959 . S
H23 C21 0.960 . S
H24 C21 0.961 . S
O25 Co0 1.967 . S
O25 C33 1.258 1_556 S
O26 Co1 1.941 . S
O26 C33 1.266 . S
H27 C29 0.959 . S
H28 C29 0.961 . S
C29 C19 1.510 . S
C29 H27 0.959 . S
C29 H28 0.961 . S
C29 H30 0.960 . S
H30 C29 0.960 . S
H31 N11 0.862 1_565 S
O32 Co0 1.920 . S
O32 C5 1.289 . S
C33 O25 1.258 1_554 S
C33 O26 1.266 . S
Co34 O37 1.970 . S
Co34 N51 1.989 . S
Co34 O59 1.967 . S
Co34 O66 1.920 . S
Co35 O38 1.966 . S
Co35 N44 2.022 . S
Co35 N52 1.993 . S
Co35 O60 1.941 . S
C36 O37 1.258 . S
C36 O38 1.263 . S
O37 Co34 1.970 . S
O37 C36 1.258 . S
O38 Co35 1.966 . S
O38 C36 1.263 . S
C39 O40 1.235 . S
C39 O66 1.289 . S
O40 C39 1.235 . S
C41 C43 1.400 1_554 S
C41 N44 1.351 . S
C41 C46 1.501 . S
C42 C43 1.387 . S
C42 N45 1.341 1_556 S
C43 C41 1.400 1_556 S
C43 C42 1.387 . S
N44 Co35 2.022 . S
N44 C41 1.351 . S
N44 N45 1.365 . S
N45 C42 1.341 1_554 S
N45 N44 1.365 . S
N45 H65 0.862 . S
C46 C41 1.501 . S
C46 H47 0.961 . S
C46 H48 0.961 . S
C46 H49 0.960 . S
H47 C46 0.961 . S
H48 C46 0.961 . S
H49 C46 0.960 . S
C50 N51 1.342 . S
C50 C54 1.401 . S
C50 C55 1.499 . S
N51 Co34 1.989 . S
N51 C50 1.342 . S
N51 N52 1.388 . S
N52 Co35 1.993 . S
N52 N51 1.388 . S
N52 C53 1.346 . S
C53 N52 1.346 . S
C53 C54 1.396 . S
C53 C63 1.510 . S
C54 C50 1.401 . S
C54 C53 1.396 . S
C55 C50 1.499 . S
C55 H56 0.959 . S
C55 H57 0.960 . S
C55 H58 0.961 . S
H56 C55 0.959 . S
H57 C55 0.960 . S
H58 C55 0.961 . S
O59 Co34 1.967 . S
O59 C67 1.258 . S
O60 Co35 1.941 . S
O60 C67 1.266 . S
H61 C63 0.959 . S
H62 C63 0.961 . S
C63 C53 1.510 . S
C63 H61 0.959 . S
C63 H62 0.961 . S
C63 H64 0.960 . S
H64 C63 0.960 . S
H65 N45 0.862 . S
O66 Co34 1.920 . S
O66 C39 1.289 . S
C67 O59 1.258 . S
C67 O60 1.266 . S
Co68 O71 1.970 1_545 S
Co68 N85 1.989 . S
Co68 O93 1.967 . S
Co68 O100 1.920 . S
Co69 O72 1.966 1_545 S
Co69 N78 2.022 . S
Co69 N86 1.993 . S
Co69 O94 1.941 . S
C70 O71 1.258 . S
C70 O72 1.263 . S
O71 Co68 1.970 1_565 S
O71 C70 1.258 . S
O72 Co69 1.966 1_565 S
O72 C70 1.263 . S
C73 O74 1.235 . S
C73 O100 1.289 1_565 S
O74 C73 1.235 . S
C75 C77 1.400 . S
C75 N78 1.351 . S
C75 C80 1.501 1_545 S
C76 C77 1.387 . S
C76 N79 1.341 . S
C77 C75 1.400 . S
C77 C76 1.387 . S
N78 Co69 2.022 . S
N78 C75 1.351 . S
N78 N79 1.365 . S
N79 C76 1.341 . S
N79 N78 1.365 . S
N79 H99 0.862 . S
C80 C75 1.501 1_565 S
C80 H81 0.961 . S
C80 H82 0.961 . S
C80 H83 0.960 . S
H81 C80 0.961 . S
H82 C80 0.961 . S
H83 C80 0.960 . S
C84 N85 1.342 . S
C84 C88 1.401 . S
C84 C89 1.499 . S
N85 Co68 1.989 . S
N85 C84 1.342 . S
N85 N86 1.388 . S
N86 Co69 1.993 . S
N86 N85 1.388 . S
N86 C87 1.346 . S
C87 N86 1.346 . S
C87 C88 1.396 . S
C87 C97 1.510 . S
C88 C84 1.401 . S
C88 C87 1.396 . S
C89 C84 1.499 . S
C89 H90 0.959 . S
C89 H91 0.980 . S
C89 H92 0.961 . S
H90 C89 0.959 . S
H91 C89 0.980 . S
H92 C89 0.961 . S
O93 Co68 1.967 . S
O93 C101 1.258 . S
O94 Co69 1.941 . S
O94 C101 1.266 . S
H95 C97 0.959 . S
H96 C97 0.961 . S
C97 C87 1.510 . S
C97 H95 0.959 . S
C97 H96 0.961 . S
C97 H98 0.960 . S
H98 C97 0.960 . S
H99 N79 0.862 . S
O100 Co68 1.920 . S
O100 C73 1.289 1_545 S
C101 O93 1.258 . S
C101 O94 1.266 . S
Co102 O105 1.970 . S
Co102 N119 1.989 . S
Co102 O127 1.967 . S
Co102 O134 1.925 . S
Co103 O106 1.966 . S
Co103 N112 2.022 . S
Co103 N120 1.993 . S
Co103 O128 1.941 . S
C104 O105 1.258 . S
C104 O106 1.263 . S
O105 Co102 1.970 . S
O105 C104 1.258 . S
O106 Co103 1.966 . S
O106 C104 1.263 . S
C107 O108 1.235 1_554 S
C107 O134 1.286 1_554 S
O108 C107 1.235 1_556 S
C109 C111 1.400 . S
C109 N112 1.351 . S
C109 C114 1.501 . S
C110 C111 1.387 . S
C110 N113 1.341 . S
C111 C109 1.400 . S
C111 C110 1.387 . S
N112 Co103 2.022 . S
N112 C109 1.351 . S
N112 N113 1.365 . S
N113 C110 1.341 . S
N113 N112 1.365 . S
N113 H133 0.862 . S
C114 C109 1.501 . S
C114 H115 0.961 . S
C114 H116 0.961 . S
C114 H117 0.960 . S
H115 C114 0.961 . S
H116 C114 0.961 . S
H117 C114 0.960 . S
C118 N119 1.342 . S
C118 C122 1.401 . S
C118 C123 1.499 . S
N119 Co102 1.989 . S
N119 C118 1.342 . S
N119 N120 1.388 . S
N120 Co103 1.993 . S
N120 N119 1.388 . S
N120 C121 1.346 . S
C121 N120 1.346 . S
C121 C122 1.396 . S
C121 C131 1.510 . S
C122 C118 1.401 . S
C122 C121 1.396 . S
C123 C118 1.499 . S
C123 H124 0.959 . S
C123 H125 0.960 . S
C123 H126 0.961 . S
H124 C123 0.959 . S
H125 C123 0.960 . S
H126 C123 0.961 . S
O127 Co102 1.967 . S
O127 C135 1.258 . S
O128 Co103 1.941 . S
O128 C135 1.266 . S
H129 C131 0.959 . S
H130 C131 0.961 . S
C131 C121 1.510 . S
C131 H129 0.959 . S
C131 H130 0.961 . S
C131 H132 0.960 . S
H132 C131 0.960 . S
H133 N113 0.862 . S
O134 Co102 1.925 . S
O134 C107 1.286 1_556 S
C135 O127 1.258 . S
C135 O128 1.266 . S
Co136 O139 1.970 1_545 S
Co136 N153 1.989 . S
Co136 O161 1.967 . S
Co136 O168 1.920 . S
Co137 O140 1.966 1_545 S
Co137 N146 2.022 . S
Co137 N154 1.993 1_556 S
Co137 O162 1.941 . S
C138 O139 1.258 . S
C138 O140 1.263 1_554 S
O139 Co136 1.970 1_565 S
O139 C138 1.258 . S
O140 Co137 1.966 1_565 S
O140 C138 1.263 1_556 S
C141 O142 1.235 . S
C141 O168 1.289 1_565 S
O142 C141 1.235 . S
C143 C145 1.400 . S
C143 N146 1.351 . S
C143 C148 1.501 1_545 S
C144 C145 1.387 . S
C144 N147 1.341 . S
C145 C143 1.400 . S
C145 C144 1.387 . S
N146 Co137 2.022 . S
N146 C143 1.351 . S
N146 N147 1.365 . S
N147 C144 1.341 . S
N147 N146 1.365 . S
N147 H167 0.862 . S
C148 C143 1.501 1_565 S
C148 H149 0.961 . S
C148 H150 0.961 . S
C148 H151 0.960 . S
H149 C148 0.961 . S
H150 C148 0.961 . S
H151 C148 0.960 . S
C152 N153 1.342 . S
C152 C156 1.401 . S
C152 C157 1.499 . S
N153 Co136 1.989 . S
N153 C152 1.342 . S
N153 N154 1.388 . S
N154 Co137 1.993 1_554 S
N154 N153 1.388 . S
N154 C155 1.346 1_554 S
C155 N154 1.346 1_556 S
C155 C156 1.396 1_556 S
C155 C165 1.510 . S
C156 C152 1.401 . S
C156 C155 1.396 1_554 S
C157 C152 1.499 . S
C157 H158 0.959 . S
C157 H159 0.980 . S
C157 H160 0.961 . S
H158 C157 0.959 . S
H159 C157 0.980 . S
H160 C157 0.961 . S
O161 Co136 1.967 . S
O161 C169 1.258 . S
O162 Co137 1.941 . S
O162 C169 1.266 1_556 S
H163 C165 0.959 . S
H164 C165 0.961 . S
C165 C155 1.510 . S
C165 H163 0.959 . S
C165 H164 0.961 . S
C165 H166 0.960 . S
H166 C165 0.960 . S
H167 N147 0.862 . S
O168 Co136 1.920 . S
O168 C141 1.289 1_545 S
C169 O161 1.258 . S
C169 O162 1.266 1_554 S
Co170 O173 1.970 . S
Co170 N187 1.989 . S
Co170 O195 1.967 . S
Co170 O202 1.920 . S
Co171 O174 1.966 . S
Co171 N180 2.022 1_556 S
Co171 N188 1.993 . S
Co171 O196 1.941 . S
C172 O173 1.258 . S
C172 O174 1.263 . S
O173 Co170 1.970 . S
O173 C172 1.258 . S
O174 Co171 1.966 . S
O174 C172 1.263 . S
C175 O176 1.235 . S
C175 O202 1.289 . S
O176 C175 1.235 . S
C177 C179 1.400 . S
C177 N180 1.351 . S
C177 C182 1.501 . S
C178 C179 1.387 . S
C178 N181 1.341 . S
C179 C177 1.400 . S
C179 C178 1.387 . S
N180 Co171 2.022 1_554 S
N180 C177 1.351 . S
N180 N181 1.365 . S
N181 C178 1.341 . S
N181 N180 1.365 . S
N181 H201 0.862 . S
C182 C177 1.501 . S
C182 H183 0.961 . S
C182 H184 0.961 . S
C182 H185 0.960 . S
H183 C182 0.961 . S
H184 C182 0.961 . S
H185 C182 0.960 . S
C186 N187 1.342 . S
C186 C190 1.401 . S
C186 C191 1.499 . S
N187 Co170 1.989 . S
N187 C186 1.342 . S
N187 N188 1.388 . S
N188 Co171 1.993 . S
N188 N187 1.388 . S
N188 C189 1.346 . S
C189 N188 1.346 . S
C189 C190 1.396 . S
C189 C199 1.510 . S
C190 C186 1.401 . S
C190 C189 1.396 . S
C191 C186 1.499 . S
C191 H192 0.959 . S
C191 H193 0.960 . S
C191 H194 0.961 . S
H192 C191 0.959 . S
H193 C191 0.960 . S
H194 C191 0.961 . S
O195 Co170 1.967 . S
O195 C203 1.258 . S
O196 Co171 1.941 . S
O196 C203 1.266 . S
H197 C199 0.959 . S
H198 C199 0.961 . S
C199 C189 1.510 . S
C199 H197 0.959 . S
C199 H198 0.961 . S
C199 H200 0.960 1_556 S
H200 C199 0.960 1_554 S
H201 N181 0.862 . S
O202 Co170 1.920 . S
O202 C175 1.289 . S
C203 O195 1.258 . S
C203 O196 1.266 . S
Co204 O207 1.970 . S
Co204 N221 1.989 . S
Co204 O229 1.967 . S
Co204 O236 1.920 . S
Co205 O208 1.966 . S
Co205 N214 2.022 . S
Co205 N222 1.993 . S
Co205 O230 1.941 . S
C206 O207 1.258 . S
C206 O208 1.263 . S
O207 Co204 1.970 . S
O207 C206 1.258 . S
O208 Co205 1.966 . S
O208 C206 1.263 . S
C209 O210 1.235 . S
C209 O236 1.289 . S
O210 C209 1.235 . S
C211 C213 1.400 . S
C211 N214 1.351 . S
C211 C216 1.501 . S
C212 C213 1.387 . S
C212 N215 1.341 . S
C213 C211 1.400 . S
C213 C212 1.387 . S
N214 Co205 2.022 . S
N214 C211 1.351 . S
N214 N215 1.365 . S
N215 C212 1.341 . S
N215 N214 1.365 . S
N215 H235 0.862 1_545 S
C216 C211 1.501 . S
C216 H217 0.961 . S
C216 H218 0.961 . S
C216 H219 0.960 . S
H217 C216 0.961 . S
H218 C216 0.961 . S
H219 C216 0.960 . S
C220 N221 1.342 . S
C220 C224 1.401 . S
C220 C225 1.499 . S
N221 Co204 1.989 . S
N221 C220 1.342 . S
N221 N222 1.388 . S
N222 Co205 1.993 . S
N222 N221 1.388 . S
N222 C223 1.346 . S
C223 N222 1.346 . S
C223 C224 1.396 . S
C223 C233 1.510 . S
C224 C220 1.401 . S
C224 C223 1.396 . S
C225 C220 1.499 . S
C225 H226 0.959 . S
C225 H227 0.960 . S
C225 H228 0.961 . S
H226 C225 0.959 . S
H227 C225 0.960 . S
H228 C225 0.961 . S
O229 Co204 1.967 . S
O229 C237 1.258 . S
O230 Co205 1.941 . S
O230 C237 1.266 . S
H231 C233 0.959 . S
H232 C233 0.961 . S
C233 C223 1.510 . S
C233 H231 0.959 . S
C233 H232 0.961 . S
C233 H234 0.960 . S
H234 C233 0.960 . S
H235 N215 0.862 1_565 S
O236 Co204 1.920 . S
O236 C209 1.289 . S
C237 O229 1.258 . S
C237 O230 1.266 . S
Co238 O241 1.970 . S
Co238 N255 1.989 . S
Co238 O263 1.967 . S
Co238 O270 1.920 . S
Co239 O242 1.966 . S
Co239 N248 2.022 . S
Co239 N256 1.993 . S
Co239 O264 1.941 . S
C240 O241 1.258 . S
C240 O242 1.263 . S
O241 Co238 1.970 . S
O241 C240 1.258 . S
O242 Co239 1.966 . S
O242 C240 1.263 . S
C243 O244 1.235 . S
C243 O270 1.289 . S
O244 C243 1.235 . S
C245 C247 1.400 . S
C245 N248 1.351 . S
C245 C250 1.501 . S
C246 C247 1.387 . S
C246 N249 1.341 . S
C247 C245 1.400 . S
C247 C246 1.387 . S
N248 Co239 2.022 . S
N248 C245 1.351 . S
N248 N249 1.365 . S
N249 C246 1.341 . S
N249 N248 1.365 . S
N249 H269 0.862 . S
C250 C245 1.501 . S
C250 H251 0.961 . S
C250 H252 0.961 . S
C250 H253 0.960 . S
H251 C250 0.961 . S
H252 C250 0.961 . S
H253 C250 0.960 . S
C254 N255 1.342 . S
C254 C258 1.401 . S
C254 C259 1.499 . S
N255 Co238 1.989 . S
N255 C254 1.342 . S
N255 N256 1.388 . S
N256 Co239 1.993 . S
N256 N255 1.388 . S
N256 C257 1.346 . S
C257 N256 1.346 . S
C257 C258 1.396 . S
C257 C267 1.510 . S
C258 C254 1.401 . S
C258 C257 1.396 . S
C259 C254 1.499 . S
C259 H260 0.959 . S
C259 H261 0.960 . S
C259 H262 0.961 . S
H260 C259 0.959 . S
H261 C259 0.960 . S
H262 C259 0.961 . S
O263 Co238 1.967 . S
O263 C271 1.258 . S
O264 Co239 1.941 . S
O264 C271 1.266 . S
H265 C267 0.959 . S
H266 C267 0.961 . S
C267 C257 1.510 . S
C267 H265 0.959 . S
C267 H266 0.961 . S
C267 H268 0.960 . S
H268 C267 0.960 . S
H269 N249 0.862 . S
O270 Co238 1.920 . S
O270 C243 1.289 . S
C271 O263 1.258 . S
C271 O264 1.266 . S
Co272 O275 1.970 . S
Co272 N289 1.989 . S
Co272 O297 1.967 . S
Co272 O304 1.920 . S
Co273 O276 1.966 . S
Co273 N282 2.022 . S
Co273 N290 1.993 . S
Co273 O298 1.941 . S
C274 O275 1.258 . S
C274 O276 1.263 . S
O275 Co272 1.970 . S
O275 C274 1.258 . S
O276 Co273 1.966 . S
O276 C274 1.263 . S
C277 O278 1.235 . S
C277 O304 1.289 . S
O278 C277 1.235 . S
C279 C281 1.400 . S
C279 N282 1.351 . S
C279 C284 1.501 . S
C280 C281 1.387 . S
C280 N283 1.341 . S
C281 C279 1.400 . S
C281 C280 1.387 . S
N282 Co273 2.022 . S
N282 C279 1.351 . S
N282 N283 1.365 . S
N283 C280 1.341 . S
N283 N282 1.365 . S
N283 H303 0.862 . S
C284 C279 1.501 . S
C284 H285 0.961 . S
C284 H286 0.961 . S
C284 H287 0.960 . S
H285 C284 0.961 . S
H286 C284 0.961 . S
H287 C284 0.960 . S
C288 N289 1.342 . S
C288 C292 1.401 . S
C288 C293 1.499 . S
N289 Co272 1.989 . S
N289 C288 1.342 . S
N289 N290 1.388 . S
N290 Co273 1.993 . S
N290 N289 1.388 . S
N290 C291 1.346 . S
C291 N290 1.346 . S
C291 C292 1.396 . S
C291 C301 1.510 . S
C292 C288 1.401 . S
C292 C291 1.396 . S
C293 C288 1.499 . S
C293 H294 0.959 . S
C293 H295 0.960 . S
C293 H296 0.961 . S
H294 C293 0.959 . S
H295 C293 0.960 . S
H296 C293 0.961 . S
O297 Co272 1.967 . S
O297 C305 1.258 . S
O298 Co273 1.941 . S
O298 C305 1.266 . S
H299 C301 0.959 . S
H300 C301 0.961 . S
C301 C291 1.510 . S
C301 H299 0.959 . S
C301 H300 0.961 . S
C301 H302 0.960 . S
H302 C301 0.960 . S
H303 N283 0.862 . S
O304 Co272 1.920 . S
O304 C277 1.289 . S
C305 O297 1.258 . S
C305 O298 1.266 . S
Co306 O309 1.970 . S
Co306 N323 1.989 . S
Co306 O331 1.967 . S
Co306 O338 1.927 . S
Co307 O310 1.966 . S
Co307 N316 2.022 . S
Co307 N324 1.993 . S
Co307 O332 1.941 . S
C308 O309 1.258 . S
C308 O310 1.263 . S
O309 Co306 1.970 . S
O309 C308 1.258 . S
O310 Co307 1.966 . S
O310 C308 1.263 . S
C311 O312 1.235 1_554 S
C311 O338 1.286 1_554 S
O312 C311 1.235 1_556 S
C313 C315 1.400 . S
C313 N316 1.351 . S
C313 C318 1.501 . S
C314 C315 1.387 . S
C314 N317 1.341 . S
C315 C313 1.400 . S
C315 C314 1.387 . S
N316 Co307 2.022 . S
N316 C313 1.351 . S
N316 N317 1.365 . S
N317 C314 1.341 . S
N317 N316 1.365 . S
N317 H337 0.862 . S
C318 C313 1.501 . S
C318 H319 0.961 . S
C318 H320 0.961 . S
C318 H321 0.960 . S
H319 C318 0.961 . S
H320 C318 0.961 . S
H321 C318 0.960 . S
C322 N323 1.342 . S
C322 C326 1.401 . S
C322 C327 1.499 . S
N323 Co306 1.989 . S
N323 C322 1.342 . S
N323 N324 1.388 . S
N324 Co307 1.993 . S
N324 N323 1.388 . S
N324 C325 1.346 . S
C325 N324 1.346 . S
C325 C326 1.396 . S
C325 C335 1.510 . S
C326 C322 1.401 . S
C326 C325 1.396 . S
C327 C322 1.499 . S
C327 H328 0.959 . S
C327 H329 0.960 . S
C327 H330 0.961 . S
H328 C327 0.959 . S
H329 C327 0.960 . S
H330 C327 0.961 . S
O331 Co306 1.967 . S
O331 C339 1.258 . S
O332 Co307 1.941 . S
O332 C339 1.266 . S
H333 C335 0.959 . S
H334 C335 0.961 . S
C335 C325 1.510 . S
C335 H333 0.959 . S
C335 H334 0.961 . S
C335 H336 0.960 . S
H336 C335 0.960 . S
H337 N317 0.862 . S
O338 Co306 1.927 . S
O338 C311 1.286 1_556 S
C339 O331 1.258 . S
C339 O332 1.266 . S
Co340 O343 1.970 1_556 S
Co340 N357 1.989 1_556 S
Co340 O365 1.967 . S
Co340 O372 1.920 . S
Co341 O344 1.966 . S
Co341 N350 2.022 . S
Co341 N358 1.993 . S
Co341 O366 1.941 . S
C342 O343 1.258 . S
C342 O344 1.263 . S
O343 Co340 1.970 1_554 S
O343 C342 1.258 . S
O344 Co341 1.966 . S
O344 C342 1.263 . S
C345 O346 1.235 . S
C345 O372 1.289 . S
O346 C345 1.235 . S
C347 C349 1.400 . S
C347 N350 1.351 . S
C347 C352 1.501 . S
C348 C349 1.387 . S
C348 N351 1.341 . S
C349 C347 1.400 . S
C349 C348 1.387 . S
N350 Co341 2.022 . S
N350 C347 1.351 . S
N350 N351 1.365 . S
N351 C348 1.341 . S
N351 N350 1.365 . S
N351 H371 0.862 . S
C352 C347 1.501 . S
C352 H353 0.961 . S
C352 H354 0.961 . S
C352 H355 0.960 . S
H353 C352 0.961 . S
H354 C352 0.961 . S
H355 C352 0.960 . S
C356 N357 1.342 . S
C356 C360 1.401 . S
C356 C361 1.499 1_554 S
N357 Co340 1.989 1_554 S
N357 C356 1.342 . S
N357 N358 1.388 . S
N358 Co341 1.993 . S
N358 N357 1.388 . S
N358 C359 1.346 . S
C359 N358 1.346 . S
C359 C360 1.396 . S
C359 C369 1.510 . S
C360 C356 1.401 . S
C360 C359 1.396 . S
C361 C356 1.499 1_556 S
C361 H362 0.959 . S
C361 H363 0.960 . S
C361 H364 0.961 . S
H362 C361 0.959 . S
H363 C361 0.960 . S
H364 C361 0.961 . S
O365 Co340 1.967 . S
O365 C373 1.258 1_556 S
O366 Co341 1.941 . S
O366 C373 1.266 . S
H367 C369 0.959 . S
H368 C369 0.961 . S
C369 C359 1.510 . S
C369 H367 0.959 . S
C369 H368 0.961 . S
C369 H370 0.960 . S
H370 C369 0.960 . S
H371 N351 0.862 . S
O372 Co340 1.920 . S
O372 C345 1.289 . S
C373 O365 1.258 1_554 S
C373 O366 1.266 . S
Co374 O377 1.970 . S
Co374 N391 1.989 . S
Co374 O399 1.967 . S
Co374 O406 1.920 . S
Co375 O378 1.966 . S
Co375 N384 2.022 . S
Co375 N392 1.993 . S
Co375 O400 1.941 . S
C376 O377 1.258 . S
C376 O378 1.263 . S
O377 Co374 1.970 . S
O377 C376 1.258 . S
O378 Co375 1.966 . S
O378 C376 1.263 . S
C379 O380 1.235 . S
C379 O406 1.289 . S
O380 C379 1.235 . S
C381 C383 1.400 1_554 S
C381 N384 1.351 . S
C381 C386 1.501 . S
C382 C383 1.387 . S
C382 N385 1.341 1_556 S
C383 C381 1.400 1_556 S
C383 C382 1.387 . S
N384 Co375 2.022 . S
N384 C381 1.351 . S
N384 N385 1.365 . S
N385 C382 1.341 1_554 S
N385 N384 1.365 . S
N385 H405 0.862 . S
C386 C381 1.501 . S
C386 H387 0.961 . S
C386 H388 0.961 . S
C386 H389 0.960 . S
H387 C386 0.961 . S
H388 C386 0.961 . S
H389 C386 0.960 . S
C390 N391 1.342 . S
C390 C394 1.401 . S
C390 C395 1.499 . S
N391 Co374 1.989 . S
N391 C390 1.342 . S
N391 N392 1.388 . S
N392 Co375 1.993 . S
N392 N391 1.388 . S
N392 C393 1.346 . S
C393 N392 1.346 . S
C393 C394 1.396 . S
C393 C403 1.510 . S
C394 C390 1.401 . S
C394 C393 1.396 . S
C395 C390 1.499 . S
C395 H396 0.959 . S
C395 H397 0.960 . S
C395 H398 0.961 . S
H396 C395 0.959 . S
H397 C395 0.960 . S
H398 C395 0.961 . S
O399 Co374 1.967 . S
O399 C407 1.258 . S
O400 Co375 1.941 . S
O400 C407 1.266 . S
H401 C403 0.959 . S
H402 C403 0.961 . S
C403 C393 1.510 . S
C403 H401 0.959 . S
C403 H402 0.961 . S
C403 H404 0.960 . S
H404 C403 0.960 . S
H405 N385 0.862 . S
O406 Co374 1.920 . S
O406 C379 1.289 . S
C407 O399 1.258 . S
C407 O400 1.266 . S
Co408 O411 1.970 . S
Co408 N425 1.989 . S
Co408 O433 1.967 . S
Co408 O440 1.920 . S
Co409 O412 1.966 . S
Co409 N418 2.022 . S
Co409 N426 1.993 . S
Co409 O434 1.941 . S
C410 O411 1.258 . S
C410 O412 1.263 . S
O411 Co408 1.970 . S
O411 C410 1.258 . S
O412 Co409 1.966 . S
O412 C410 1.263 . S
C413 O414 1.235 . S
C413 O440 1.289 . S
O414 C413 1.235 . S
C415 C417 1.400 . S
C415 N418 1.351 . S
C415 C420 1.501 . S
C416 C417 1.387 . S
C416 N419 1.341 . S
C417 C415 1.400 . S
C417 C416 1.387 . S
N418 Co409 2.022 . S
N418 C415 1.351 . S
N418 N419 1.365 . S
N419 C416 1.341 . S
N419 N418 1.365 . S
N419 H439 0.862 . S
C420 C415 1.501 . S
C420 H421 0.961 . S
C420 H422 0.961 . S
C420 H423 0.960 . S
H421 C420 0.961 . S
H422 C420 0.961 . S
H423 C420 0.960 . S
C424 N425 1.342 . S
C424 C428 1.401 . S
C424 C429 1.499 . S
N425 Co408 1.989 . S
N425 C424 1.342 . S
N425 N426 1.388 . S
N426 Co409 1.993 . S
N426 N425 1.388 . S
N426 C427 1.346 . S
C427 N426 1.346 . S
C427 C428 1.396 . S
C427 C437 1.510 . S
C428 C424 1.401 . S
C428 C427 1.396 . S
C429 C424 1.499 . S
C429 H430 0.959 . S
C429 H431 0.960 . S
C429 H432 0.961 . S
H430 C429 0.959 . S
H431 C429 0.960 . S
H432 C429 0.961 . S
O433 Co408 1.967 . S
O433 C441 1.258 . S
O434 Co409 1.941 . S
O434 C441 1.266 . S
H435 C437 0.959 . S
H436 C437 0.961 . S
C437 C427 1.510 . S
C437 H435 0.959 . S
C437 H436 0.961 . S
C437 H438 0.960 . S
H438 C437 0.960 . S
H439 N419 0.862 . S
O440 Co408 1.920 . S
O440 C413 1.289 . S
C441 O433 1.258 . S
C441 O434 1.266 . S
Co442 O445 1.970 . S
Co442 N459 1.989 . S
Co442 O467 1.967 . S
Co442 O474 1.920 . S
Co443 O446 1.966 . S
Co443 N452 2.022 . S
Co443 N460 1.993 . S
Co443 O468 1.941 . S
C444 O445 1.258 . S
C444 O446 1.263 . S
O445 Co442 1.970 . S
O445 C444 1.258 . S
O446 Co443 1.966 . S
O446 C444 1.263 . S
C447 O448 1.235 . S
C447 O474 1.289 . S
O448 C447 1.235 . S
C449 C451 1.400 . S
C449 N452 1.351 . S
C449 C454 1.501 . S
C450 C451 1.387 . S
C450 N453 1.341 . S
C451 C449 1.400 . S
C451 C450 1.387 . S
N452 Co443 2.022 . S
N452 C449 1.351 . S
N452 N453 1.365 . S
N453 C450 1.341 . S
N453 N452 1.365 . S
N453 H473 0.862 . S
C454 C449 1.501 . S
C454 H455 0.961 . S
C454 H456 0.961 . S
C454 H457 0.960 . S
H455 C454 0.961 . S
H456 C454 0.961 . S
H457 C454 0.960 . S
C458 N459 1.342 . S
C458 C462 1.401 . S
C458 C463 1.499 . S
N459 Co442 1.989 . S
N459 C458 1.342 . S
N459 N460 1.388 . S
N460 Co443 1.993 . S
N460 N459 1.388 . S
N460 C461 1.346 . S
C461 N460 1.346 . S
C461 C462 1.396 . S
C461 C471 1.510 . S
C462 C458 1.401 . S
C462 C461 1.396 . S
C463 C458 1.499 . S
C463 H464 0.959 . S
C463 H465 0.960 . S
C463 H466 0.961 . S
H464 C463 0.959 . S
H465 C463 0.960 . S
H466 C463 0.961 . S
O467 Co442 1.967 . S
O467 C475 1.258 . S
O468 Co443 1.941 . S
O468 C475 1.266 . S
H469 C471 0.959 . S
H470 C471 0.961 . S
C471 C461 1.510 . S
C471 H469 0.959 . S
C471 H470 0.961 . S
C471 H472 0.960 . S
H472 C471 0.960 . S
H473 N453 0.862 . S
O474 Co442 1.920 . S
O474 C447 1.289 . S
C475 O467 1.258 . S
C475 O468 1.266 . S
Co476 O479 1.970 . S
Co476 N493 1.989 . S
Co476 O501 1.967 . S
Co476 O508 1.920 . S
Co477 O480 1.966 . S
Co477 N486 2.022 . S
Co477 N494 1.993 1_556 S
Co477 O502 1.941 . S
C478 O479 1.258 . S
C478 O480 1.263 1_554 S
O479 Co476 1.970 . S
O479 C478 1.258 . S
O480 Co477 1.966 . S
O480 C478 1.263 1_556 S
C481 O482 1.235 . S
C481 O508 1.289 . S
O482 C481 1.235 . S
C483 C485 1.400 . S
C483 N486 1.351 . S
C483 C488 1.501 . S
C484 C485 1.387 . S
C484 N487 1.341 . S
C485 C483 1.400 . S
C485 C484 1.387 . S
N486 Co477 2.022 . S
N486 C483 1.351 . S
N486 N487 1.365 . S
N487 C484 1.341 . S
N487 N486 1.365 . S
N487 H507 0.862 . S
C488 C483 1.501 . S
C488 H489 0.961 . S
C488 H490 0.961 . S
C488 H491 0.960 . S
H489 C488 0.961 . S
H490 C488 0.961 . S
H491 C488 0.960 . S
C492 N493 1.342 . S
C492 C496 1.401 . S
C492 C497 1.499 . S
N493 Co476 1.989 . S
N493 C492 1.342 . S
N493 N494 1.388 . S
N494 Co477 1.993 1_554 S
N494 N493 1.388 . S
N494 C495 1.346 1_554 S
C495 N494 1.346 1_556 S
C495 C496 1.396 1_556 S
C495 C505 1.510 . S
C496 C492 1.401 . S
C496 C495 1.396 1_554 S
C497 C492 1.499 . S
C497 H498 0.959 . S
C497 H499 0.960 . S
C497 H500 0.961 . S
H498 C497 0.959 . S
H499 C497 0.960 . S
H500 C497 0.961 . S
O501 Co476 1.967 . S
O501 C509 1.258 . S
O502 Co477 1.941 . S
O502 C509 1.266 1_556 S
H503 C505 0.959 . S
H504 C505 0.961 . S
C505 C495 1.510 . S
C505 H503 0.959 . S
C505 H504 0.961 . S
C505 H506 0.960 . S
H506 C505 0.960 . S
H507 N487 0.862 . S
O508 Co476 1.920 . S
O508 C481 1.289 . S
C509 O501 1.258 . S
C509 O502 1.266 1_554 S
Co510 O513 1.970 . S
Co510 N527 1.989 . S
Co510 O535 1.967 . S
Co510 O542 1.920 . S
Co511 O514 1.966 . S
Co511 N520 2.022 1_556 S
Co511 N528 1.993 . S
Co511 O536 1.941 . S
C512 O513 1.258 . S
C512 O514 1.263 . S
O513 Co510 1.970 . S
O513 C512 1.258 . S
O514 Co511 1.966 . S
O514 C512 1.263 . S
C515 O516 1.235 . S
C515 O542 1.289 . S
O516 C515 1.235 . S
C517 C519 1.400 . S
C517 N520 1.351 . S
C517 C522 1.501 . S
C518 C519 1.387 . S
C518 N521 1.341 . S
C519 C517 1.400 . S
C519 C518 1.387 . S
N520 Co511 2.022 1_554 S
N520 C517 1.351 . S
N520 N521 1.365 . S
N521 C518 1.341 . S
N521 N520 1.365 . S
N521 H541 0.862 . S
C522 C517 1.501 . S
C522 H523 0.961 . S
C522 H524 0.961 . S
C522 H525 0.960 . S
H523 C522 0.961 . S
H524 C522 0.961 . S
H525 C522 0.960 . S
C526 N527 1.342 . S
C526 C530 1.401 . S
C526 C531 1.499 . S
N527 Co510 1.989 . S
N527 C526 1.342 . S
N527 N528 1.388 . S
N528 Co511 1.993 . S
N528 N527 1.388 . S
N528 C529 1.346 . S
C529 N528 1.346 . S
C529 C530 1.396 . S
C529 C539 1.510 . S
C530 C526 1.401 . S
C530 C529 1.396 . S
C531 C526 1.499 . S
C531 H532 0.959 . S
C531 H533 0.960 . S
C531 H534 0.961 . S
H532 C531 0.959 . S
H533 C531 0.960 . S
H534 C531 0.961 . S
O535 Co510 1.967 . S
O535 C543 1.258 . S
O536 Co511 1.941 . S
O536 C543 1.266 . S
H537 C539 0.959 . S
H538 C539 0.961 . S
C539 C529 1.510 . S
C539 H537 0.959 . S
C539 H538 0.961 . S
C539 H540 0.960 1_556 S
H540 C539 0.960 1_554 S
H541 N521 0.862 . S
O542 Co510 1.920 . S
O542 C515 1.289 . S
C543 O535 1.258 . S
C543 O536 1.266 . S
H544 C550 0.930 . S
H545 C553 0.930 . S
H546 C554 0.930 . S
H547 C555 0.930 . S
H548 C558 0.930 . S
H549 C559 0.930 . S
C550 H544 0.930 . S
C550 C551 1.355 . S
C550 C552 1.415 . S
C551 C550 1.355 . S
C551 C553 1.419 . S
C552 C550 1.415 . S
C552 C557 1.425 . S
C552 C559 1.409 . S
C553 H545 0.930 . S
C553 C551 1.419 . S
C553 C554 1.362 . S
C554 H546 0.930 . S
C554 C553 1.362 . S
C554 C557 1.409 . S
C555 H547 0.930 . S
C555 C556 1.355 . S
C555 C557 1.415 . S
C556 C555 1.355 . S
C556 C558 1.419 . S
C557 C552 1.425 . S
C557 C554 1.409 . S
C557 C555 1.415 . S
C558 H548 0.930 . S
C558 C556 1.419 . S
C558 C559 1.362 . S
C559 H549 0.930 . S
C559 C552 1.409 . S
C559 C558 1.362 . S
H560 C566 0.930 . S
H561 C569 0.930 . S
H562 C570 0.930 . S
H563 C571 0.930 . S
H564 C574 0.930 . S
H565 C575 0.930 . S
C566 H560 0.930 . S
C566 C567 1.355 . S
C566 C568 1.415 . S
C567 C566 1.355 . S
C567 C569 1.419 . S
C568 C566 1.415 . S
C568 C573 1.425 . S
C568 C575 1.409 . S
C569 H561 0.930 . S
C569 C567 1.419 . S
C569 C570 1.362 . S
C570 H562 0.930 . S
C570 C569 1.362 . S
C570 C573 1.409 . S
C571 H563 0.930 . S
C571 C572 1.355 . S
C571 C573 1.415 . S
C572 C571 1.355 . S
C572 C574 1.419 . S
C573 C568 1.425 . S
C573 C570 1.409 . S
C573 C571 1.415 . S
C574 H564 0.930 . S
C574 C572 1.419 . S
C574 C575 1.362 . S
C575 H565 0.930 . S
C575 C568 1.409 . S
C575 C574 1.362 . S
H576 C582 0.930 . S
H577 C585 0.930 . S
H578 C586 0.930 . S
H579 C587 0.930 . S
H580 C590 0.930 . S
H581 C591 0.930 . S
C582 H576 0.930 . S
C582 C583 1.355 . S
C582 C584 1.415 . S
C583 C582 1.355 . S
C583 C585 1.419 1_565 S
C584 C582 1.415 . S
C584 C589 1.425 1_565 S
C584 C591 1.409 . S
C585 H577 0.930 . S
C585 C583 1.419 1_545 S
C585 C586 1.362 . S
C586 H578 0.930 . S
C586 C585 1.362 . S
C586 C589 1.409 . S
C587 H579 0.930 . S
C587 C588 1.355 1_554 S
C587 C589 1.415 . S
C588 C587 1.355 1_556 S
C588 C590 1.419 1_545 S
C589 C584 1.425 1_545 S
C589 C586 1.409 . S
C589 C587 1.415 . S
C590 H580 0.930 . S
C590 C588 1.419 1_565 S
C590 C591 1.362 1_556 S
C591 H581 0.930 . S
C591 C584 1.409 . S
C591 C590 1.362 1_554 S
H592 C598 0.930 . S
H593 C601 0.930 . S
H594 C602 0.930 . S
H595 C603 0.930 . S
H596 C606 0.930 . S
H597 C607 0.930 . S
C598 H592 0.930 . S
C598 C599 1.355 . S
C598 C600 1.415 . S
C599 C598 1.355 . S
C599 C601 1.419 . S
C600 C598 1.415 . S
C600 C605 1.425 . S
C600 C607 1.409 . S
C601 H593 0.930 . S
C601 C599 1.419 . S
C601 C602 1.362 . S
C602 H594 0.930 . S
C602 C601 1.362 . S
C602 C605 1.409 . S
C603 H595 0.930 . S
C603 C604 1.355 . S
C603 C605 1.415 . S
C604 C603 1.355 . S
C604 C606 1.419 . S
C605 C600 1.425 . S
C605 C602 1.409 . S
C605 C603 1.415 . S
C606 H596 0.930 . S
C606 C604 1.419 . S
C606 C607 1.362 . S
C607 H597 0.930 . S
C607 C600 1.409 . S
C607 C606 1.362 . S
H608 C614 0.929 . S
H609 C617 0.930 . S
H610 C618 0.930 . S
H611 C619 0.930 1_545 S
H612 C622 0.930 . S
H613 C623 0.930 . S
C614 H608 0.929 . S
C614 C615 1.355 . S
C614 C616 1.404 1_545 S
C615 C614 1.355 . S
C615 C617 1.419 . S
C616 C614 1.404 1_565 S
C616 C621 1.430 1_565 S
C616 C623 1.419 . S
C617 H609 0.930 . S
C617 C615 1.419 . S
C617 C618 1.362 . S
C618 H610 0.930 . S
C618 C617 1.362 . S
C618 C621 1.409 . S
C619 H611 0.930 1_565 S
C619 C620 1.355 . S
C619 C621 1.415 1_565 S
C620 C619 1.355 . S
C620 C622 1.419 . S
C621 C616 1.430 1_545 S
C621 C618 1.409 . S
C621 C619 1.415 1_545 S
C622 H612 0.930 . S
C622 C620 1.419 . S
C622 C623 1.362 . S
C623 H613 0.930 . S
C623 C616 1.419 . S
C623 C622 1.362 . S
H624 C630 0.930 . S
H625 C633 0.930 . S
H626 C634 0.930 . S
H627 C635 0.930 . S
H628 C638 0.930 . S
H629 C639 0.930 . S
C630 H624 0.930 . S
C630 C631 1.355 . S
C630 C632 1.415 . S
C631 C630 1.355 . S
C631 C633 1.419 . S
C632 C630 1.415 . S
C632 C637 1.425 . S
C632 C639 1.409 . S
C633 H625 0.930 . S
C633 C631 1.419 . S
C633 C634 1.362 . S
C634 H626 0.930 . S
C634 C633 1.362 . S
C634 C637 1.409 . S
C635 H627 0.930 . S
C635 C636 1.355 . S
C635 C637 1.415 . S
C636 C635 1.355 . S
C636 C638 1.419 . S
C637 C632 1.425 . S
C637 C634 1.409 . S
C637 C635 1.415 . S
C638 H628 0.930 . S
C638 C636 1.419 . S
C638 C639 1.362 . S
C639 H629 0.930 . S
C639 C632 1.409 . S
C639 C638 1.362 . S
H640 C646 0.930 . S
H641 C649 0.930 . S
H642 C650 0.930 . S
H643 C651 0.930 . S
H644 C654 0.930 . S
H645 C655 0.930 . S
C646 H640 0.930 . S
C646 C647 1.355 . S
C646 C648 1.415 . S
C647 C646 1.355 . S
C647 C649 1.419 . S
C648 C646 1.415 . S
C648 C653 1.425 1_554 S
C648 C655 1.409 1_554 S
C649 H641 0.930 . S
C649 C647 1.419 . S
C649 C650 1.362 . S
C650 H642 0.930 . S
C650 C649 1.362 . S
C650 C653 1.409 1_554 S
C651 H643 0.930 . S
C651 C652 1.355 . S
C651 C653 1.415 . S
C652 C651 1.355 . S
C652 C654 1.419 . S
C653 C648 1.425 1_556 S
C653 C650 1.409 1_556 S
C653 C651 1.415 . S
C654 H644 0.930 . S
C654 C652 1.419 . S
C654 C655 1.362 . S
C655 H645 0.930 . S
C655 C648 1.409 1_556 S
C655 C654 1.362 . S
H656 C662 0.930 . S
H657 C665 0.930 . S
H658 C666 0.930 . S
H659 C667 0.930 . S
H660 C670 0.930 1_554 S
H661 C671 0.930 . S
C662 H656 0.930 . S
C662 C663 1.355 . S
C662 C664 1.415 . S
C663 C662 1.355 . S
C663 C665 1.419 . S
C664 C662 1.415 . S
C664 C669 1.425 . S
C664 C671 1.409 . S
C665 H657 0.930 . S
C665 C663 1.419 . S
C665 C666 1.362 . S
C666 H658 0.930 . S
C666 C665 1.362 . S
C666 C669 1.409 . S
C667 H659 0.930 . S
C667 C668 1.355 1_556 S
C667 C669 1.415 . S
C668 C667 1.355 1_554 S
C668 C670 1.419 1_554 S
C669 C664 1.425 . S
C669 C666 1.409 . S
C669 C667 1.415 . S
C670 H660 0.930 1_556 S
C670 C668 1.419 1_556 S
C670 C671 1.362 . S
C671 H661 0.930 . S
C671 C664 1.409 . S
C671 C670 1.362 . S
H672 C678 0.930 . S
H673 C681 0.930 . S
H674 C682 0.930 . S
H675 C683 0.930 1_556 S
H676 C686 0.930 1_556 S
H677 C687 0.930 . S
C678 H672 0.930 . S
C678 C679 1.355 . S
C678 C680 1.415 . S
C679 C678 1.355 . S
C679 C681 1.419 . S
C680 C678 1.415 . S
C680 C685 1.425 . S
C680 C687 1.409 . S
C681 H673 0.930 . S
C681 C679 1.419 . S
C681 C682 1.362 . S
C682 H674 0.930 . S
C682 C681 1.362 . S
C682 C685 1.409 . S
C683 H675 0.930 1_554 S
C683 C684 1.355 1_554 S
C683 C685 1.415 . S
C684 C683 1.355 1_556 S
C684 C686 1.419 1_556 S
C685 C680 1.425 . S
C685 C682 1.409 . S
C685 C683 1.415 . S
C686 H676 0.930 1_554 S
C686 C684 1.419 1_554 S
C686 C687 1.362 . S
C687 H677 0.930 . S
C687 C680 1.409 . S
C687 C686 1.362 . S
H688 C694 0.930 . S
H689 C697 0.930 . S
H690 C698 0.930 . S
H691 C699 0.930 . S
H692 C702 0.930 . S
H693 C703 0.930 . S
C694 H688 0.930 . S
C694 C695 1.355 . S
C694 C696 1.415 . S
C695 C694 1.355 . S
C695 C697 1.419 . S
C696 C694 1.415 . S
C696 C701 1.425 . S
C696 C703 1.409 . S
C697 H689 0.930 . S
C697 C695 1.419 . S
C697 C698 1.362 . S
C698 H690 0.930 . S
C698 C697 1.362 . S
C698 C701 1.409 . S
C699 H691 0.930 . S
C699 C700 1.355 . S
C699 C701 1.415 . S
C700 C699 1.355 . S
C700 C702 1.419 . S
C701 C696 1.425 . S
C701 C698 1.409 . S
C701 C699 1.415 . S
C702 H692 0.930 . S
C702 C700 1.419 . S
C702 C703 1.362 . S
C703 H693 0.930 . S
C703 C696 1.409 . S
C703 C702 1.362 . S
H704 C710 0.930 . S
H705 C713 0.930 . S
H706 C714 0.930 . S
H707 C715 0.930 . S
H708 C718 0.930 . S
H709 C719 0.930 . S
C710 H704 0.930 . S
C710 C711 1.355 . S
C710 C712 1.415 . S
C711 C710 1.355 . S
C711 C713 1.419 . S
C712 C710 1.415 . S
C712 C717 1.425 . S
C712 C719 1.409 . S
C713 H705 0.930 . S
C713 C711 1.419 . S
C713 C714 1.362 . S
C714 H706 0.930 . S
C714 C713 1.362 . S
C714 C717 1.409 . S
C715 H707 0.930 . S
C715 C716 1.355 . S
C715 C717 1.415 . S
C716 C715 1.355 . S
C716 C718 1.419 . S
C717 C712 1.425 . S
C717 C714 1.409 . S
C717 C715 1.415 . S
C718 H708 0.930 . S
C718 C716 1.419 . S
C718 C719 1.362 . S
C719 H709 0.930 . S
C719 C712 1.409 . S
C719 C718 1.362 . S
H720 C726 0.930 . S
H721 C729 0.930 . S
H722 C730 0.930 . S
H723 C731 0.930 . S
H724 C734 0.930 . S
H725 C735 0.930 . S
C726 H720 0.930 . S
C726 C727 1.355 . S
C726 C728 1.415 . S
C727 C726 1.355 . S
C727 C729 1.419 . S
C728 C726 1.415 . S
C728 C733 1.425 . S
C728 C735 1.409 . S
C729 H721 0.930 . S
C729 C727 1.419 . S
C729 C730 1.362 . S
C730 H722 0.930 . S
C730 C729 1.362 . S
C730 C733 1.409 . S
C731 H723 0.930 . S
C731 C732 1.355 . S
C731 C733 1.415 . S
C732 C731 1.355 . S
C732 C734 1.419 . S
C733 C728 1.425 . S
C733 C730 1.409 . S
C733 C731 1.415 . S
C734 H724 0.930 . S
C734 C732 1.419 . S
C734 C735 1.362 . S
C735 H725 0.930 . S
C735 C728 1.409 . S
C735 C734 1.362 . S
H736 C742 0.930 . S
H737 C745 0.930 . S
H738 C746 0.930 . S
H739 C747 0.930 . S
H740 C750 0.930 . S
H741 C751 0.930 . S
C742 H736 0.930 . S
C742 C743 1.355 . S
C742 C744 1.415 . S
C743 C742 1.355 . S
C743 C745 1.419 . S
C744 C742 1.415 . S
C744 C749 1.425 1_556 S
C744 C751 1.409 1_556 S
C745 H737 0.930 . S
C745 C743 1.419 . S
C745 C746 1.362 . S
C746 H738 0.930 . S
C746 C745 1.362 . S
C746 C749 1.409 1_556 S
C747 H739 0.930 . S
C747 C748 1.355 . S
C747 C749 1.415 . S
C748 C747 1.355 . S
C748 C750 1.419 . S
C749 C744 1.425 1_554 S
C749 C746 1.409 1_554 S
C749 C747 1.415 . S
C750 H740 0.930 . S
C750 C748 1.419 . S
C750 C751 1.362 . S
C751 H741 0.930 . S
C751 C744 1.409 1_554 S
C751 C750 1.362 . S
H752 C758 0.930 . S
H753 C761 0.930 1_554 S
H754 C762 0.930 . S
H755 C763 0.930 . S
H756 C766 0.930 . S
H757 C767 0.930 . S
C758 H752 0.930 . S
C758 C759 1.355 1_556 S
C758 C760 1.415 . S
C759 C758 1.355 1_554 S
C759 C761 1.419 1_554 S
C760 C758 1.415 . S
C760 C765 1.425 . S
C760 C767 1.409 . S
C761 H753 0.930 1_556 S
C761 C759 1.419 1_556 S
C761 C762 1.362 . S
C762 H754 0.930 . S
C762 C761 1.362 . S
C762 C765 1.409 . S
C763 H755 0.930 . S
C763 C764 1.355 . S
C763 C765 1.415 . S
C764 C763 1.355 . S
C764 C766 1.419 . S
C765 C760 1.425 . S
C765 C762 1.409 . S
C765 C763 1.415 . S
C766 H756 0.930 . S
C766 C764 1.419 . S
C766 C767 1.362 . S
C767 H757 0.930 . S
C767 C760 1.409 . S
C767 C766 1.362 . S
H768 C774 0.930 . S
H769 C777 0.930 . S
H770 C778 0.930 . S
H771 C779 0.930 . S
H772 C782 0.930 . S
H773 C783 0.930 . S
C774 H768 0.930 . S
C774 C775 1.355 . S
C774 C776 1.415 . S
C775 C774 1.355 . S
C775 C777 1.419 . S
C776 C774 1.415 . S
C776 C781 1.425 . S
C776 C783 1.409 . S
C777 H769 0.930 . S
C777 C775 1.419 . S
C777 C778 1.362 . S
C778 H770 0.930 . S
C778 C777 1.362 . S
C778 C781 1.409 . S
C779 H771 0.930 . S
C779 C780 1.355 . S
C779 C781 1.415 . S
C780 C779 1.355 . S
C780 C782 1.419 . S
C781 C776 1.425 . S
C781 C778 1.409 . S
C781 C779 1.415 . S
C782 H772 0.930 . S
C782 C780 1.419 . S
C782 C783 1.362 . S
C783 H773 0.930 . S
C783 C776 1.409 . S
C783 C782 1.362 . S
H784 C790 0.930 . S
H785 C793 0.930 . S
H786 C794 0.930 . S
H787 C795 0.930 . S
H788 C798 0.930 . S
H789 C799 0.930 . S
C790 H784 0.930 . S
C790 C791 1.355 . S
C790 C792 1.415 . S
C791 C790 1.355 . S
C791 C793 1.419 . S
C792 C790 1.415 . S
C792 C797 1.425 . S
C792 C799 1.409 . S
C793 H785 0.930 . S
C793 C791 1.419 . S
C793 C794 1.362 . S
C794 H786 0.930 . S
C794 C793 1.362 . S
C794 C797 1.409 . S
C795 H787 0.930 . S
C795 C796 1.355 . S
C795 C797 1.415 . S
C796 C795 1.355 . S
C796 C798 1.419 . S
C797 C792 1.425 . S
C797 C794 1.409 . S
C797 C795 1.415 . S
C798 H788 0.930 . S
C798 C796 1.419 . S
C798 C799 1.362 . S
C799 H789 0.930 . S
C799 C792 1.409 . S
C799 C798 1.362 . S
H800 C806 0.930 . S
H801 C809 0.930 . S
H802 C810 0.930 . S
H803 C811 0.930 . S
H804 C814 0.930 . S
H805 C815 0.930 . S
C806 H800 0.930 . S
C806 C807 1.355 . S
C806 C808 1.415 . S
C807 C806 1.355 . S
C807 C809 1.419 . S
C808 C806 1.415 . S
C808 C813 1.425 . S
C808 C815 1.409 . S
C809 H801 0.930 . S
C809 C807 1.419 . S
C809 C810 1.362 . S
C810 H802 0.930 . S
C810 C809 1.362 . S
C810 C813 1.409 . S
C811 H803 0.930 . S
C811 C812 1.355 . S
C811 C813 1.415 . S
C812 C811 1.355 . S
C812 C814 1.419 . S
C813 C808 1.425 . S
C813 C810 1.409 . S
C813 C811 1.415 . S
C814 H804 0.930 . S
C814 C812 1.419 . S
C814 C815 1.362 . S
C815 H805 0.930 . S
C815 C808 1.409 . S
C815 C814 1.362 . S
H816 C822 0.930 . S
H817 C825 0.930 . S
H818 C826 0.930 . S
H819 C827 0.930 . S
H820 C830 0.930 . S
H821 C831 0.930 . S
C822 H816 0.930 . S
C822 C823 1.355 . S
C822 C824 1.415 . S
C823 C822 1.355 . S
C823 C825 1.419 . S
C824 C822 1.415 . S
C824 C829 1.425 . S
C824 C831 1.409 . S
C825 H817 0.930 . S
C825 C823 1.419 . S
C825 C826 1.362 . S
C826 H818 0.930 . S
C826 C825 1.362 . S
C826 C829 1.409 . S
C827 H819 0.930 . S
C827 C828 1.355 . S
C827 C829 1.415 . S
C828 C827 1.355 . S
C828 C830 1.419 . S
C829 C824 1.425 . S
C829 C826 1.409 . S
C829 C827 1.415 . S
C830 H820 0.930 . S
C830 C828 1.419 . S
C830 C831 1.362 . S
C831 H821 0.930 . S
C831 C824 1.409 . S
C831 C830 1.362 . S
H832 C838 0.930 . S
H833 C841 0.930 . S
H834 C842 0.930 . S
H835 C843 0.930 . S
H836 C846 0.930 . S
H837 C847 0.930 . S
C838 H832 0.930 . S
C838 C839 1.355 . S
C838 C840 1.415 . S
C839 C838 1.355 . S
C839 C841 1.419 . S
C840 C838 1.415 . S
C840 C845 1.425 . S
C840 C847 1.409 . S
C841 H833 0.930 . S
C841 C839 1.419 . S
C841 C842 1.362 . S
C842 H834 0.930 . S
C842 C841 1.362 . S
C842 C845 1.409 . S
C843 H835 0.930 . S
C843 C844 1.355 . S
C843 C845 1.415 . S
C844 C843 1.355 . S
C844 C846 1.419 . S
C845 C840 1.425 . S
C845 C842 1.409 . S
C845 C843 1.415 . S
C846 H836 0.930 . S
C846 C844 1.419 . S
C846 C847 1.362 . S
C847 H837 0.930 . S
C847 C840 1.409 . S
C847 C846 1.362 . S
H848 C854 0.930 . S
H849 C857 0.930 . S
H850 C858 0.930 . S
H851 C859 0.930 . S
H852 C862 0.930 . S
H853 C863 0.930 1_554 S
C854 H848 0.930 . S
C854 C855 1.355 . S
C854 C856 1.415 1_554 S
C855 C854 1.355 . S
C855 C857 1.419 1_554 S
C856 C854 1.415 1_556 S
C856 C861 1.425 . S
C856 C863 1.409 . S
C857 H849 0.930 . S
C857 C855 1.419 1_556 S
C857 C858 1.362 . S
C858 H850 0.930 . S
C858 C857 1.362 . S
C858 C861 1.409 . S
C859 H851 0.930 . S
C859 C860 1.355 . S
C859 C861 1.415 . S
C860 C859 1.355 . S
C860 C862 1.419 . S
C861 C856 1.425 . S
C861 C858 1.409 . S
C861 C859 1.415 . S
C862 H852 0.930 . S
C862 C860 1.419 . S
C862 C863 1.362 . S
C863 H853 0.930 1_556 S
C863 C856 1.409 . S
C863 C862 1.362 . S
H864 C870 0.930 . S
H865 C873 0.930 . S
H866 C874 0.930 . S
H867 C875 0.930 . S
H868 C878 0.930 . S
H869 C879 0.930 . S
C870 H864 0.930 . S
C870 C871 1.355 . S
C870 C872 1.415 . S
C871 C870 1.355 . S
C871 C873 1.419 . S
C872 C870 1.415 . S
C872 C877 1.425 . S
C872 C879 1.409 . S
C873 H865 0.930 . S
C873 C871 1.419 . S
C873 C874 1.362 . S
C874 H866 0.930 . S
C874 C873 1.362 . S
C874 C877 1.409 . S
C875 H867 0.930 . S
C875 C876 1.355 . S
C875 C877 1.415 . S
C876 C875 1.355 . S
C876 C878 1.419 1_556 S
C877 C872 1.425 . S
C877 C874 1.409 . S
C877 C875 1.415 . S
C878 H868 0.930 . S
C878 C876 1.419 1_554 S
C878 C879 1.362 1_554 S
C879 H869 0.930 . S
C879 C872 1.409 . S
C879 C878 1.362 1_556 S
H880 C886 0.930 . S
H881 C889 0.930 . S
H882 C890 0.930 . S
H883 C891 0.930 . S
H884 C894 0.930 1_545 S
H885 C895 0.930 . S
C886 H880 0.930 . S
C886 C887 1.355 . S
C886 C888 1.415 . S
C887 C886 1.355 . S
C887 C889 1.419 . S
C888 C886 1.415 . S
C888 C893 1.425 . S
C888 C895 1.409 . S
C889 H881 0.930 . S
C889 C887 1.419 . S
C889 C890 1.362 . S
C890 H882 0.930 . S
C890 C889 1.362 . S
C890 C893 1.409 . S
C891 H883 0.930 . S
C891 C892 1.355 . S
C891 C893 1.415 . S
C892 C891 1.355 . S
C892 C894 1.419 . S
C893 C888 1.425 . S
C893 C890 1.409 . S
C893 C891 1.415 . S
C894 H884 0.930 1_565 S
C894 C892 1.419 . S
C894 C895 1.362 . S
C895 H885 0.930 . S
C895 C888 1.409 . S
C895 C894 1.362 . S
H896 C902 0.930 . S
H897 C905 0.930 . S
H898 C906 0.930 . S
H899 C907 0.930 . S
H900 C910 0.930 . S
H901 C911 0.930 . S
C902 H896 0.930 . S
C902 C903 1.355 . S
C902 C904 1.415 . S
C903 C902 1.355 . S
C903 C905 1.419 . S
C904 C902 1.415 . S
C904 C909 1.425 . S
C904 C911 1.409 . S
C905 H897 0.930 . S
C905 C903 1.419 . S
C905 C906 1.362 . S
C906 H898 0.930 . S
C906 C905 1.362 . S
C906 C909 1.409 . S
C907 H899 0.930 . S
C907 C908 1.355 . S
C907 C909 1.415 . S
C908 C907 1.355 . S
C908 C910 1.419 . S
C909 C904 1.425 . S
C909 C906 1.409 . S
C909 C907 1.415 . S
C910 H900 0.930 . S
C910 C908 1.419 . S
C910 C911 1.362 . S
C911 H901 0.930 . S
C911 C904 1.409 . S
C911 C910 1.362 . S
H912 C918 0.930 . S
H913 C921 0.930 . S
H914 C922 0.930 . S
H915 C923 0.930 . S
H916 C926 0.930 . S
H917 C927 0.930 . S
C918 H912 0.930 . S
C918 C919 1.355 . S
C918 C920 1.415 . S
C919 C918 1.355 . S
C919 C921 1.419 . S
C920 C918 1.415 . S
C920 C925 1.425 . S
C920 C927 1.409 . S
C921 H913 0.930 . S
C921 C919 1.419 . S
C921 C922 1.362 . S
C922 H914 0.930 . S
C922 C921 1.362 . S
C922 C925 1.409 . S
C923 H915 0.930 . S
C923 C924 1.355 . S
C923 C925 1.415 . S
C924 C923 1.355 . S
C924 C926 1.419 . S
C925 C920 1.425 . S
C925 C922 1.409 . S
C925 C923 1.415 . S
C926 H916 0.930 . S
C926 C924 1.419 . S
C926 C927 1.362 . S
C927 H917 0.930 . S
C927 C920 1.409 . S
C927 C926 1.362 . S
H928 C934 0.930 . S
H929 C937 0.930 . S
H930 C938 0.930 . S
H931 C939 0.930 . S
H932 C942 0.930 . S
H933 C943 0.930 . S
C934 H928 0.930 . S
C934 C935 1.355 . S
C934 C936 1.415 . S
C935 C934 1.355 . S
C935 C937 1.419 . S
C936 C934 1.415 . S
C936 C941 1.425 . S
C936 C943 1.409 . S
C937 H929 0.930 . S
C937 C935 1.419 . S
C937 C938 1.362 . S
C938 H930 0.930 . S
C938 C937 1.362 . S
C938 C941 1.409 . S
C939 H931 0.930 . S
C939 C940 1.355 . S
C939 C941 1.415 . S
C940 C939 1.355 . S
C940 C942 1.419 . S
C941 C936 1.425 . S
C941 C938 1.409 . S
C941 C939 1.415 . S
C942 H932 0.930 . S
C942 C940 1.419 . S
C942 C943 1.362 . S
C943 H933 0.930 . S
C943 C936 1.409 . S
C943 C942 1.362 . S
H944 C950 0.930 . S
H945 C953 0.930 . S
H946 C954 0.930 . S
H947 C955 0.930 . S
H948 C958 0.930 . S
H949 C959 0.930 . S
C950 H944 0.930 . S
C950 C951 1.355 . S
C950 C952 1.415 . S
C951 C950 1.355 . S
C951 C953 1.419 . S
C952 C950 1.415 . S
C952 C957 1.425 . S
C952 C959 1.409 . S
C953 H945 0.930 . S
C953 C951 1.419 . S
C953 C954 1.362 . S
C954 H946 0.930 . S
C954 C953 1.362 . S
C954 C957 1.409 . S
C955 H947 0.930 . S
C955 C956 1.355 1_556 S
C955 C957 1.415 . S
C956 C955 1.355 1_554 S
C956 C958 1.419 . S
C957 C952 1.425 . S
C957 C954 1.409 . S
C957 C955 1.415 . S
C958 H948 0.930 . S
C958 C956 1.419 . S
C958 C959 1.362 1_554 S
C959 H949 0.930 . S
C959 C952 1.409 . S
C959 C958 1.362 1_556 S
H960 C966 0.930 . S
H961 C969 0.930 . S
H962 C970 0.930 . S
H963 C971 0.930 . S
H964 C974 0.930 . S
H965 C975 0.930 . S
C966 H960 0.930 . S
C966 C967 1.355 . S
C966 C968 1.415 . S
C967 C966 1.355 . S
C967 C969 1.419 . S
C968 C966 1.415 . S
C968 C973 1.425 . S
C968 C975 1.409 . S
C969 H961 0.930 . S
C969 C967 1.419 . S
C969 C970 1.362 . S
C970 H962 0.930 . S
C970 C969 1.362 . S
C970 C973 1.409 . S
C971 H963 0.930 . S
C971 C972 1.355 . S
C971 C973 1.415 . S
C972 C971 1.355 . S
C972 C974 1.419 . S
C973 C968 1.425 . S
C973 C970 1.409 . S
C973 C971 1.415 . S
C974 H964 0.930 . S
C974 C972 1.419 . S
C974 C975 1.362 . S
C975 H965 0.930 . S
C975 C968 1.409 . S
C975 C974 1.362 . S
H976 C982 0.930 . S
H977 C985 0.930 . S
H978 C986 0.930 . S
H979 C987 0.930 . S
H980 C990 0.930 . S
H981 C991 0.930 . S
C982 H976 0.930 . S
C982 C983 1.355 . S
C982 C984 1.415 . S
C983 C982 1.355 . S
C983 C985 1.419 . S
C984 C982 1.415 . S
C984 C989 1.425 . S
C984 C991 1.409 . S
C985 H977 0.930 . S
C985 C983 1.419 . S
C985 C986 1.362 . S
C986 H978 0.930 . S
C986 C985 1.362 . S
C986 C989 1.409 . S
C987 H979 0.930 . S
C987 C988 1.355 . S
C987 C989 1.415 . S
C988 C987 1.355 . S
C988 C990 1.419 . S
C989 C984 1.425 . S
C989 C986 1.409 . S
C989 C987 1.415 . S
C990 H980 0.930 . S
C990 C988 1.419 . S
C990 C991 1.362 . S
C991 H981 0.930 . S
C991 C984 1.409 . S
C991 C990 1.362 . S
H992 C998 0.930 . S
H993 C1001 0.930 . S
H994 C1002 0.930 . S
H995 C1003 0.930 . S
H996 C1006 0.930 . S
H997 C1007 0.930 . S
C998 H992 0.930 . S
C998 C999 1.355 . S
C998 C1000 1.415 . S
C999 C998 1.355 . S
C999 C1001 1.419 . S
C1000 C998 1.415 . S
C1000 C1005 1.425 . S
C1000 C1007 1.409 . S
C1001 H993 0.930 . S
C1001 C999 1.419 . S
C1001 C1002 1.362 . S
C1002 H994 0.930 . S
C1002 C1001 1.362 . S
C1002 C1005 1.409 . S
C1003 H995 0.930 . S
C1003 C1004 1.355 . S
C1003 C1005 1.415 . S
C1004 C1003 1.355 . S
C1004 C1006 1.419 . S
C1005 C1000 1.425 . S
C1005 C1002 1.409 . S
C1005 C1003 1.415 . S
C1006 H996 0.930 . S
C1006 C1004 1.419 . S
C1006 C1007 1.362 . S
C1007 H997 0.930 . S
C1007 C1000 1.409 . S
C1007 C1006 1.362 . S
H1008 C1014 0.930 . S
H1009 C1017 0.930 . S
H1010 C1018 0.930 . S
H1011 C1019 0.930 . S
H1012 C1022 0.930 . S
H1013 C1023 0.930 . S
C1014 H1008 0.930 . S
C1014 C1015 1.355 . S
C1014 C1016 1.415 . S
C1015 C1014 1.355 . S
C1015 C1017 1.419 . S
C1016 C1014 1.415 . S
C1016 C1021 1.425 . S
C1016 C1023 1.409 . S
C1017 H1009 0.930 . S
C1017 C1015 1.419 . S
C1017 C1018 1.362 . S
C1018 H1010 0.930 . S
C1018 C1017 1.362 . S
C1018 C1021 1.409 . S
C1019 H1011 0.930 . S
C1019 C1020 1.355 . S
C1019 C1021 1.415 . S
C1020 C1019 1.355 . S
C1020 C1022 1.419 . S
C1021 C1016 1.425 . S
C1021 C1018 1.409 . S
C1021 C1019 1.415 . S
C1022 H1012 0.930 . S
C1022 C1020 1.419 . S
C1022 C1023 1.362 . S
C1023 H1013 0.930 . S
C1023 C1016 1.409 . S
C1023 C1022 1.362 . S
H1024 C1030 0.930 . S
H1025 C1033 0.930 . S
H1026 C1034 0.930 . S
H1027 C1035 0.930 . S
H1028 C1038 0.930 . S
H1029 C1039 0.930 . S
C1030 H1024 0.930 . S
C1030 C1031 1.355 . S
C1030 C1032 1.415 . S
C1031 C1030 1.355 . S
C1031 C1033 1.419 . S
C1032 C1030 1.415 . S
C1032 C1037 1.425 . S
C1032 C1039 1.409 1_556 S
C1033 H1025 0.930 . S
C1033 C1031 1.419 . S
C1033 C1034 1.362 . S
C1034 H1026 0.930 . S
C1034 C1033 1.362 . S
C1034 C1037 1.409 . S
C1035 H1027 0.930 . S
C1035 C1036 1.362 . S
C1035 C1037 1.415 . S
C1036 C1035 1.362 . S
C1036 C1038 1.415 1_556 S
C1037 C1032 1.425 . S
C1037 C1034 1.409 . S
C1037 C1035 1.415 . S
C1038 H1028 0.930 . S
C1038 C1036 1.415 1_554 S
C1038 C1039 1.362 . S
C1039 H1029 0.930 . S
C1039 C1032 1.409 1_554 S
C1039 C1038 1.362 . S
H1040 C1046 0.930 . S
H1041 C1049 0.930 . S
H1042 C1050 0.930 . S
H1043 C1051 0.930 . S
H1044 C1054 0.930 . S
H1045 C1055 0.930 . S
C1046 H1040 0.930 . S
C1046 C1047 1.355 . S
C1046 C1048 1.415 . S
C1047 C1046 1.355 . S
C1047 C1049 1.419 . S
C1048 C1046 1.415 . S
C1048 C1053 1.425 . S
C1048 C1055 1.409 . S
C1049 H1041 0.930 . S
C1049 C1047 1.419 . S
C1049 C1050 1.362 . S
C1050 H1042 0.930 . S
C1050 C1049 1.362 . S
C1050 C1053 1.409 . S
C1051 H1043 0.930 . S
C1051 C1052 1.355 . S
C1051 C1053 1.415 . S
C1052 C1051 1.355 . S
C1052 C1054 1.419 . S
C1053 C1048 1.425 . S
C1053 C1050 1.409 . S
C1053 C1051 1.415 . S
C1054 H1044 0.930 . S
C1054 C1052 1.419 . S
C1054 C1055 1.362 . S
C1055 H1045 0.930 . S
C1055 C1048 1.409 . S
C1055 C1054 1.362 . S
H1056 C1062 0.930 1_556 S
H1057 C1065 0.930 . S
H1058 C1066 0.930 . S
H1059 C1067 0.930 . S
H1060 C1070 0.930 . S
H1061 C1071 0.930 . S
C1062 H1056 0.930 1_554 S
C1062 C1063 1.355 . S
C1062 C1064 1.415 . S
C1063 C1062 1.355 . S
C1063 C1065 1.419 . S
C1064 C1062 1.415 . S
C1064 C1069 1.425 . S
C1064 C1071 1.409 1_554 S
C1065 H1057 0.930 . S
C1065 C1063 1.419 . S
C1065 C1066 1.362 . S
C1066 H1058 0.930 . S
C1066 C1065 1.362 . S
C1066 C1069 1.409 . S
C1067 H1059 0.930 . S
C1067 C1068 1.355 . S
C1067 C1069 1.415 . S
C1068 C1067 1.355 . S
C1068 C1070 1.419 1_554 S
C1069 C1064 1.425 . S
C1069 C1066 1.409 . S
C1069 C1067 1.415 . S
C1070 H1060 0.930 . S
C1070 C1068 1.419 1_556 S
C1070 C1071 1.362 . S
C1071 H1061 0.930 . S
C1071 C1064 1.409 1_556 S
C1071 C1070 1.362 . S
H1072 C1078 0.930 . S
H1073 C1081 0.930 . S
H1074 C1082 0.930 . S
H1075 C1083 0.930 . S
H1076 C1086 0.930 . S
H1077 C1087 0.930 . S
C1078 H1072 0.930 . S
C1078 C1079 1.355 . S
C1078 C1080 1.415 . S
C1079 C1078 1.355 . S
C1079 C1081 1.419 . S
C1080 C1078 1.415 . S
C1080 C1085 1.425 . S
C1080 C1087 1.409 . S
C1081 H1073 0.930 . S
C1081 C1079 1.419 . S
C1081 C1082 1.362 . S
C1082 H1074 0.930 . S
C1082 C1081 1.362 . S
C1082 C1085 1.409 . S
C1083 H1075 0.930 . S
C1083 C1084 1.355 . S
C1083 C1085 1.415 . S
C1084 C1083 1.355 . S
C1084 C1086 1.419 . S
C1085 C1080 1.425 . S
C1085 C1082 1.409 . S
C1085 C1083 1.415 . S
C1086 H1076 0.930 . S
C1086 C1084 1.419 . S
C1086 C1087 1.362 . S
C1087 H1077 0.930 . S
C1087 C1080 1.409 . S
C1087 C1086 1.362 . S
H1088 C1094 0.930 1_565 S
H1089 C1097 0.930 . S
H1090 C1098 0.930 . S
H1091 C1099 0.930 . S
H1092 C1102 0.930 1_565 S
H1093 C1103 0.925 1_565 S
C1094 H1088 0.930 1_545 S
C1094 C1095 1.355 . S
C1094 C1096 1.415 . S
C1095 C1094 1.355 . S
C1095 C1097 1.419 . S
C1096 C1094 1.415 . S
C1096 C1101 1.425 1_455 S
C1096 C1103 1.412 1_455 S
C1097 H1089 0.930 . S
C1097 C1095 1.419 . S
C1097 C1098 1.362 . S
C1098 H1090 0.930 . S
C1098 C1097 1.362 . S
C1098 C1101 1.409 1_455 S
C1099 H1091 0.930 . S
C1099 C1100 1.355 . S
C1099 C1101 1.415 . S
C1100 C1099 1.355 . S
C1100 C1102 1.419 . S
C1101 C1096 1.425 1_655 S
C1101 C1098 1.409 1_655 S
C1101 C1099 1.415 . S
C1102 H1092 0.930 1_545 S
C1102 C1100 1.419 . S
C1102 C1103 1.365 . S
C1103 H1093 0.925 1_545 S
C1103 C1096 1.412 1_655 S
C1103 C1102 1.365 . S
H1104 C1110 0.930 . S
H1105 C1113 0.930 . S
H1106 C1114 0.930 . S
H1107 C1115 0.930 . S
H1108 C1118 0.930 . S
H1109 C1119 0.930 . S
C1110 H1104 0.930 . S
C1110 C1111 1.355 . S
C1110 C1112 1.415 . S
C1111 C1110 1.355 . S
C1111 C1113 1.419 . S
C1112 C1110 1.415 . S
C1112 C1117 1.425 . S
C1112 C1119 1.409 . S
C1113 H1105 0.930 . S
C1113 C1111 1.419 . S
C1113 C1114 1.362 . S
C1114 H1106 0.930 . S
C1114 C1113 1.362 . S
C1114 C1117 1.409 . S
C1115 H1107 0.930 . S
C1115 C1116 1.355 . S
C1115 C1117 1.415 . S
C1116 C1115 1.355 . S
C1116 C1118 1.419 . S
C1117 C1112 1.425 . S
C1117 C1114 1.409 . S
C1117 C1115 1.415 . S
C1118 H1108 0.930 . S
C1118 C1116 1.419 . S
C1118 C1119 1.362 . S
C1119 H1109 0.930 . S
C1119 C1112 1.409 . S
C1119 C1118 1.362 . S
H1120 C1126 0.930 . S
H1121 C1129 0.930 . S
H1122 C1130 0.930 . S
H1123 C1131 0.930 . S
H1124 C1134 0.930 . S
H1125 C1135 0.930 . S
C1126 H1120 0.930 . S
C1126 C1127 1.355 . S
C1126 C1128 1.415 . S
C1127 C1126 1.355 . S
C1127 C1129 1.419 . S
C1128 C1126 1.415 . S
C1128 C1133 1.425 . S
C1128 C1135 1.409 . S
C1129 H1121 0.930 . S
C1129 C1127 1.419 . S
C1129 C1130 1.362 . S
C1130 H1122 0.930 . S
C1130 C1129 1.362 . S
C1130 C1133 1.409 . S
C1131 H1123 0.930 . S
C1131 C1132 1.355 . S
C1131 C1133 1.415 . S
C1132 C1131 1.355 . S
C1132 C1134 1.419 . S
C1133 C1128 1.425 . S
C1133 C1130 1.409 . S
C1133 C1131 1.415 . S
C1134 H1124 0.930 . S
C1134 C1132 1.419 . S
C1134 C1135 1.362 . S
C1135 H1125 0.930 . S
C1135 C1128 1.409 . S
C1135 C1134 1.362 . S
H1136 C1142 0.930 . S
H1137 C1145 0.930 . S
H1138 C1146 0.930 . S
H1139 C1147 0.930 . S
H1140 C1150 0.930 . S
H1141 C1151 0.930 . S
C1142 H1136 0.930 . S
C1142 C1143 1.355 . S
C1142 C1144 1.415 . S
C1143 C1142 1.355 . S
C1143 C1145 1.419 . S
C1144 C1142 1.415 . S
C1144 C1149 1.425 . S
C1144 C1151 1.409 . S
C1145 H1137 0.930 . S
C1145 C1143 1.419 . S
C1145 C1146 1.362 . S
C1146 H1138 0.930 . S
C1146 C1145 1.362 . S
C1146 C1149 1.409 . S
C1147 H1139 0.930 . S
C1147 C1148 1.355 . S
C1147 C1149 1.415 . S
C1148 C1147 1.355 . S
C1148 C1150 1.419 . S
C1149 C1144 1.425 . S
C1149 C1146 1.409 . S
C1149 C1147 1.415 . S
C1150 H1140 0.930 . S
C1150 C1148 1.419 . S
C1150 C1151 1.362 . S
C1151 H1141 0.930 . S
C1151 C1144 1.409 . S
C1151 C1150 1.362 . S
H1152 C1158 0.930 . S
H1153 C1161 0.930 . S
H1154 C1162 0.930 . S
H1155 C1163 0.930 . S
H1156 C1166 0.930 . S
H1157 C1167 0.930 . S
C1158 H1152 0.930 . S
C1158 C1159 1.355 . S
C1158 C1160 1.415 . S
C1159 C1158 1.355 . S
C1159 C1161 1.419 . S
C1160 C1158 1.415 . S
C1160 C1165 1.425 1_655 S
C1160 C1167 1.409 1_655 S
C1161 H1153 0.930 . S
C1161 C1159 1.419 . S
C1161 C1162 1.362 . S
C1162 H1154 0.930 . S
C1162 C1161 1.362 . S
C1162 C1165 1.409 1_655 S
C1163 H1155 0.930 . S
C1163 C1164 1.355 . S
C1163 C1165 1.415 . S
C1164 C1163 1.355 . S
C1164 C1166 1.419 . S
C1165 C1160 1.425 1_455 S
C1165 C1162 1.409 1_455 S
C1165 C1163 1.415 . S
C1166 H1156 0.930 . S
C1166 C1164 1.419 . S
C1166 C1167 1.362 . S
C1167 H1157 0.930 . S
C1167 C1160 1.409 1_455 S
C1167 C1166 1.362 . S
H1168 C1174 0.930 1_556 S
H1169 C1177 0.930 . S
H1170 C1178 0.930 . S
H1171 C1179 0.930 . S
H1172 C1182 0.930 1_556 S
H1173 C1183 0.930 . S
C1174 H1168 0.930 1_554 S
C1174 C1175 1.355 . S
C1174 C1176 1.415 . S
C1175 C1174 1.355 . S
C1175 C1177 1.419 . S
C1176 C1174 1.415 . S
C1176 C1181 1.425 . S
C1176 C1183 1.409 1_554 S
C1177 H1169 0.930 . S
C1177 C1175 1.419 . S
C1177 C1178 1.362 . S
C1178 H1170 0.930 . S
C1178 C1177 1.362 . S
C1178 C1181 1.409 . S
C1179 H1171 0.930 . S
C1179 C1180 1.355 . S
C1179 C1181 1.415 . S
C1180 C1179 1.355 . S
C1180 C1182 1.419 . S
C1181 C1176 1.425 . S
C1181 C1178 1.409 . S
C1181 C1179 1.415 . S
C1182 H1172 0.930 1_554 S
C1182 C1180 1.419 . S
C1182 C1183 1.362 1_554 S
C1183 H1173 0.930 . S
C1183 C1176 1.409 1_556 S
C1183 C1182 1.362 1_556 S
C551 C5 1.303 . S
C556 C9 1.332 . S
C567 C43 1.281 . S
C572 C39 1.333 . S
C583 C73 1.307 . S
C588 C77 1.333 . S
C599 C111 1.280 . S
C604 C107 1.322 . S
C615 C145 1.294 . S
C620 C141 1.308 . S
C631 C175 1.299 . S
C636 C179 1.317 . S
C647 C213 1.331 . S
C652 C209 1.316 . S
C663 C247 1.290 . S
C668 C243 1.310 . S
C679 C277 1.319 . S
C684 C281 1.282 . S
C695 C315 1.331 . S
C700 C311 1.316 . S
C711 C345 1.336 . S
C716 C349 1.297 . S
C727 C379 1.322 . S
C732 C383 1.325 . S
C743 C413 1.323 . S
C748 C417 1.279 . S
C759 C447 1.313 . S
C764 C451 1.332 . S
C775 C485 1.333 . S
C780 C481 1.309 . S
C791 C519 1.322 . S
C796 C515 1.299 . S
C807 C2 1.618 . S
C812 C36 1.625 . S
C823 C101 1.577 . S
C828 C67 1.568 . S
C839 C104 1.633 . S
C844 C70 1.638 . S
C855 C33 1.571 1_565 S
C860 C135 1.564 . S
C871 C172 1.630 . S
C876 C138 1.623 1_556 S
C887 C203 1.564 . S
C892 C237 1.561 1_565 S
C903 C206 1.634 . S
C908 C240 1.639 . S
C919 C271 1.569 . S
C924 C169 1.563 . S
C935 C308 1.612 . S
C940 C274 1.617 . S
C951 C339 1.594 . S
C956 C373 1.585 . S
C967 C342 1.635 . S
C972 C376 1.640 . S
C983 C407 1.578 . S
C988 C305 1.588 . S
C999 C410 1.643 . S
C1004 C444 1.641 . S
C1015 C475 1.570 . S
C1020 C509 1.563 . S
C1031 C512 1.637 . S
C1036 C478 1.628 1_556 S
C1047 C441 1.565 . S
C1052 C543 1.572 . S
C1063 C20 1.515 . S
C1068 C156 1.515 . S
C1079 C462 1.505 . S
C1084 C54 1.505 . S
C1095 C88 1.519 . S
C1100 C224 1.519 . S
C1111 C530 1.519 . S
C1116 C122 1.519 . S
C1127 C326 1.501 . S
C1132 C190 1.501 . S
C1143 C258 1.520 . S
C1148 C394 1.520 . S
C1159 C292 1.507 . S
C1164 C428 1.507 . S
C1175 C496 1.515 . S
C1180 C360 1.515 . S
