# Generated by pormake.
# Topology snz, (6)-cn, num edge types: 1
# Building blocks:
#     Node 0, Type 0, BuildingBlock: BETFEN_clean_sbu_0, # of connection points: 6
#     Node 1, Type 0, BuildingBlock: BETFEN_clean_sbu_0, # of connection points: 6
#     Node 2, Type 0, BuildingBlock: BETFEN_clean_sbu_0, # of connection points: 6
#     Node 3, Type 0, BuildingBlock: BETFEN_clean_sbu_0, # of connection points: 6
#     Node 4, Type 0, BuildingBlock: BETFEN_clean_sbu_0, # of connection points: 6
#     Node 5, Type 0, BuildingBlock: BETFEN_clean_sbu_0, # of connection points: 6
#     Node 6, Type 0, BuildingBlock: BETFEN_clean_sbu_0, # of connection points: 6
#     Node 7, Type 0, BuildingBlock: BETFEN_clean_sbu_0, # of connection points: 6
#     Node 8, Type 0, BuildingBlock: BETFEN_clean_sbu_0, # of connection points: 6
#     Edge 9, Type (0, 0), BuildingBlock: AJUNOK_clean_linker_0, # of connection points: 2
#     Edge 10, Type (0, 0), BuildingBlock: AJUNOK_clean_linker_0, # of connection points: 2
#     Edge 11, Type (0, 0), BuildingBlock: AJUNOK_clean_linker_0, # of connection points: 2
#     Edge 12, Type (0, 0), BuildingBlock: AJUNOK_clean_linker_0, # of connection points: 2
#     Edge 13, Type (0, 0), BuildingBlock: AJUNOK_clean_linker_0, # of connection points: 2
#     Edge 14, Type (0, 0), BuildingBlock: AJUNOK_clean_linker_0, # of connection points: 2
#     Edge 15, Type (0, 0), BuildingBlock: AJUNOK_clean_linker_0, # of connection points: 2
#     Edge 16, Type (0, 0), BuildingBlock: AJUNOK_clean_linker_0, # of connection points: 2
#     Edge 17, Type (0, 0), BuildingBlock: AJUNOK_clean_linker_0, # of connection points: 2
#     Edge 18, Type (0, 0), BuildingBlock: AJUNOK_clean_linker_0, # of connection points: 2
#     Edge 19, Type (0, 0), BuildingBlock: AJUNOK_clean_linker_0, # of connection points: 2
#     Edge 20, Type (0, 0), BuildingBlock: AJUNOK_clean_linker_0, # of connection points: 2
#     Edge 21, Type (0, 0), BuildingBlock: AJUNOK_clean_linker_0, # of connection points: 2
#     Edge 22, Type (0, 0), BuildingBlock: AJUNOK_clean_linker_0, # of connection points: 2
#     Edge 23, Type (0, 0), BuildingBlock: AJUNOK_clean_linker_0, # of connection points: 2
#     Edge 24, Type (0, 0), BuildingBlock: AJUNOK_clean_linker_0, # of connection points: 2
#     Edge 25, Type (0, 0), BuildingBlock: AJUNOK_clean_linker_0, # of connection points: 2
#     Edge 26, Type (0, 0), BuildingBlock: AJUNOK_clean_linker_0, # of connection points: 2
#     Edge 27, Type (0, 0), BuildingBlock: AJUNOK_clean_linker_0, # of connection points: 2
#     Edge 28, Type (0, 0), BuildingBlock: AJUNOK_clean_linker_0, # of connection points: 2
#     Edge 29, Type (0, 0), BuildingBlock: AJUNOK_clean_linker_0, # of connection points: 2
#     Edge 30, Type (0, 0), BuildingBlock: AJUNOK_clean_linker_0, # of connection points: 2
#     Edge 31, Type (0, 0), BuildingBlock: AJUNOK_clean_linker_0, # of connection points: 2
#     Edge 32, Type (0, 0), BuildingBlock: AJUNOK_clean_linker_0, # of connection points: 2
#     Edge 33, Type (0, 0), BuildingBlock: AJUNOK_clean_linker_0, # of connection points: 2
#     Edge 34, Type (0, 0), BuildingBlock: AJUNOK_clean_linker_0, # of connection points: 2
#     Edge 35, Type (0, 0), BuildingBlock: AJUNOK_clean_linker_0, # of connection points: 2
# Relax obj value: 0.623
# Max RMSD: 0.283
# Mean RMSD: 0.189
data_MOF--net-snz--node1-BETFEN_clean_sbu_0--edge1-AJUNOK_clean_linker_0
_symmetry_space_group_name_H-M    P1
_symmetry_Int_Tables_number       1
_symmetry_cell_setting            triclinic
loop_
_symmetry_equiv_pos_as_xyz
'x, y, z'
_cell_length_a     54.522585
_cell_length_b     41.776086
_cell_length_c     12.48859
_cell_angle_alpha  96.947543
_cell_angle_beta   98.052638
_cell_angle_gamma 120.91757
loop_
_atom_site_label
_atom_site_type_symbol
_atom_site_fract_x
_atom_site_fract_y
_atom_site_fract_z
_atom_type_partial_charge
Pr0 Pr 0.16096 0.50838 0.25051 0.0
Pr1 Pr 0.12234 0.5133 0.26224 0.0
C2 C 0.19983 0.48671 0.30326 0.0
C3 C 0.20525 0.45524 0.30875 0.0
C4 C 0.23242 0.46123 0.29665 0.0
C5 C 0.24087 0.43608 0.32435 0.0
C6 C 0.2225 0.40415 0.36592 0.0
C7 C 0.19457 0.39713 0.37267 0.0
C8 C 0.18605 0.42225 0.34429 0.0
C9 C 0.14902 0.51519 1.01734 0.0
C10 C 0.09573 0.42565 0.15706 0.0
C11 C 0.08284 0.53312 0.27607 0.0
C12 C 0.06796 0.54883 0.21818 0.0
C13 C 0.04363 0.54615 0.25116 0.0
C14 C 1.02994 0.56275 0.20128 0.0
C15 C 1.04059 0.58223 0.11822 0.0
C16 C 0.0651 0.58501 1.08543 0.0
C17 C 0.07878 0.56838 0.1354 0.0
C18 C 0.13707 0.50529 0.49281 0.0
C19 C 0.18046 0.59858 0.29071 0.0
O20 O 0.18416 0.4901 0.36766 0.0
O21 O 0.19604 0.49647 0.20994 0.0
O22 O 0.12913 0.49891 1.07485 0.0
O23 O 0.17462 0.53043 1.08594 0.0
O24 O 0.0877 0.45019 0.15874 0.0
O25 O 0.12377 0.44032 0.20043 0.0
O26 O 0.07525 0.49844 0.23237 0.0
O27 O 0.11107 0.55653 0.31512 0.0
O28 O 0.15522 0.52609 0.43563 0.0
O29 O 0.11184 0.48432 0.42128 0.0
O30 O 0.19192 0.57793 0.30925 0.0
O31 O 0.15192 0.57846 0.25101 0.0
H32 H 0.24782 0.4865 0.27059 0.0
H33 H 0.26232 0.44235 0.31607 0.0
H34 H 0.17982 0.37339 0.4056 0.0
H35 H 0.16502 0.41687 0.35554 0.0
H36 H 1.03534 0.53142 0.31593 0.0
H37 H 1.011 0.56031 0.22719 0.0
H38 H 0.07323 0.59927 1.0197 0.0
H39 H 0.09774 0.57079 0.10981 0.0
Pr40 Pr 0.6849 0.51582 0.15208 0.0
Pr41 Pr 0.64652 0.51971 1.09951 0.0
C42 C 0.73918 0.52593 0.17788 0.0
C43 C 0.76405 0.53803 0.12346 0.0
C44 C 0.78986 0.54154 0.17872 0.0
C45 C 0.81464 0.55589 0.13362 0.0
C46 C 0.81411 0.56677 1.03138 0.0
C47 C 0.78804 0.56299 0.97585 0.0
C48 C 0.7633 0.54884 1.0215 0.0
C49 C 0.66804 0.51193 0.36985 0.0
C50 C 0.69898 0.60606 0.17979 0.0
C51 C 0.59117 0.50337 1.05935 0.0
C52 C 0.5675 0.48116 0.11294 0.0
C53 C 0.53814 0.46141 1.05328 0.0
C54 C 0.51559 0.43823 0.10195 0.0
C55 C 0.52228 0.43438 0.21045 0.0
C56 C 0.5518 0.45336 0.26887 0.0
C57 C 0.57428 0.47652 0.22035 0.0
C58 C 0.66554 0.52378 0.88512 0.0
C59 C 0.62374 0.43075 1.08201 0.0
O60 O 0.71472 0.49317 0.13295 0.0
O61 O 0.73454 0.55232 0.21469 0.0
O62 O 0.66598 0.53215 0.30094 0.0
O63 O 0.67612 0.49122 0.31836 0.0
O64 O 0.67046 0.58638 0.16523 0.0
O65 O 0.71056 0.58512 0.16622 0.0
O66 O 0.61351 0.5361 0.11995 0.0
O67 O 0.59908 0.48328 1.00353 0.0
O68 O 0.66568 0.50239 0.95282 0.0
O69 O 0.6588 0.54603 0.93717 0.0
O70 O 0.65157 0.447 1.07737 0.0
O71 O 0.61666 0.45513 0.11361 0.0
H72 H 0.7911 0.534 0.25844 0.0
H73 H 0.8345 0.55952 0.18072 0.0
H74 H 0.7868 0.57111 0.89709 0.0
H75 H 0.74374 0.54685 0.97804 0.0
H76 H 0.5327 0.46405 0.96934 0.0
H77 H 0.49294 0.42433 1.05622 0.0
H78 H 0.55743 0.4507 0.35267 0.0
H79 H 0.59693 0.49073 0.26655 0.0
Pr80 Pr 0.64538 0.10112 1.00769 0.0
Pr81 Pr 0.68403 0.14205 1.04812 0.0
C82 C 0.58836 0.04468 0.96509 0.0
C83 C 0.5669 0.03315 1.03322 0.0
C84 C 0.53792 1.00293 0.98592 0.0
C85 C 0.51702 0.9922 1.049 0.0
C86 C 0.52494 1.01173 0.15979 0.0
C87 C 0.55381 0.04267 0.20698 0.0
C88 C 0.57483 0.05335 0.14377 0.0
C89 C 0.66052 0.11221 0.78296 0.0
C90 C 0.63185 0.16277 1.00618 0.0
C91 C 0.74498 0.1852 1.09692 0.0
C92 C 0.77044 0.18715 1.05284 0.0
C93 C 0.79994 0.21572 0.10701 0.0
C94 C 0.82404 0.21465 1.07973 0.0
C95 C 0.81991 0.18465 0.99748 0.0
C96 C 0.79025 0.15639 0.9419 0.0
C97 C 0.76616 0.15745 0.96946 0.0
C98 C 0.6707 0.11713 0.2868 0.0
C99 C 0.67993 0.06479 1.05896 0.0
O100 O 0.60965 0.03908 0.99245 0.0
O101 O 0.59733 0.07806 0.94286 0.0
O102 O 0.66432 0.13721 0.86418 0.0
O103 O 0.65229 0.08186 0.82383 0.0
O104 O 0.6581 0.17452 0.98295 0.0
O105 O 0.62346 0.13406 1.05247 0.0
O106 O 0.72876 0.1543 0.1299 0.0
O107 O 0.72888 0.19685 1.04955 0.0
O108 O 0.66517 0.13309 0.20926 0.0
O109 O 0.66461 0.13369 0.21219 0.0
O110 O 0.65937 0.06507 1.09739 0.0
O111 O 0.69078 0.08998 0.99871 0.0
H112 H 0.53152 0.98751 0.90048 0.0
H113 H 0.49474 0.96814 1.01214 0.0
H114 H 0.56017 0.0577 0.29291 0.0
H115 H 0.5972 0.07709 0.18097 0.0
H116 H 0.80445 0.23855 0.17369 0.0
H117 H 0.84607 0.23703 0.12603 0.0
H118 H 0.7854 0.13319 0.87599 0.0
H119 H 0.74399 0.1344 0.92662 0.0
Pr120 Pr 0.82545 0.86585 0.31853 0.0
Pr121 Pr 0.78634 0.86899 0.33247 0.0
C122 C 0.86518 0.84616 0.31048 0.0
C123 C 0.87426 0.82264 0.35725 0.0
C124 C 0.89418 0.81684 0.3129 0.0
C125 C 0.90345 0.79467 0.35588 0.0
C126 C 0.89268 0.77791 0.44305 0.0
C127 C 0.87186 0.78246 0.48505 0.0
C128 C 0.86261 0.80485 0.44203 0.0
C129 C 0.81059 0.87345 1.08827 0.0
C130 C 0.76765 0.77964 0.29267 0.0
C131 C 0.74647 0.88955 0.28819 0.0
C132 C 0.74305 0.92173 0.26697 0.0
C133 C 0.73078 0.93536 0.33712 0.0
C134 C 0.72314 0.96127 0.30961 0.0
C135 C 0.72689 0.97376 0.20958 0.0
C136 C 0.74081 0.96182 0.14269 0.0
C137 C 0.74877 0.93621 0.17089 0.0
C138 C 0.79916 0.86104 0.56301 0.0
C139 C 0.85096 0.95388 0.4146 0.0
O140 O 0.87101 0.87704 0.37691 0.0
O141 O 0.83907 0.82731 0.24465 0.0
O142 O 0.79255 0.85255 0.14565 0.0
O143 O 0.83577 0.89521 0.15999 0.0
O144 O 0.75545 0.79968 0.28066 0.0
O145 O 0.79638 0.80015 0.32556 0.0
O146 O 0.75388 0.87409 0.21299 0.0
O147 O 0.75805 0.8907 0.38818 0.0
O148 O 0.81855 0.88003 0.50647 0.0
O149 O 0.77342 0.84272 0.49292 0.0
O150 O 0.86027 0.93105 0.39609 0.0
O151 O 0.82219 0.9375 0.38992 0.0
H152 H 0.90294 0.83004 0.24634 0.0
H153 H 0.91981 0.79165 0.32387 0.0
H154 H 0.86381 0.77012 0.55374 0.0
H155 H 0.84685 0.80881 0.47578 0.0
H156 H 0.7262 0.92502 0.41192 0.0
H157 H 0.7137 0.9709 0.36614 0.0
H158 H 0.74438 0.9709 1.06565 0.0
H159 H 0.75837 0.92665 0.1149 0.0
Pr160 Pr 0.30418 0.85863 0.47669 0.0
Pr161 Pr 0.26643 0.86417 0.42453 0.0
C162 C 0.35872 0.8721 0.51273 0.0
C163 C 0.38404 0.8966 0.46963 0.0
C164 C 0.41218 0.90802 0.52689 0.0
C165 C 0.43658 0.9319 0.48798 0.0
C166 C 0.43303 0.94466 0.39158 0.0
C167 C 0.40498 0.93473 0.33689 0.0
C168 C 0.38051 0.91061 0.37554 0.0
C169 C 0.2854 0.85555 0.69119 0.0
C170 C 0.3286 0.94931 0.48817 0.0
C171 C 0.21195 0.85343 0.40316 0.0
C172 C 0.18487 0.83323 0.44561 0.0
C173 C 0.16677 0.84786 0.44773 0.0
C174 C 0.1402 0.82814 0.48072 0.0
C175 C 0.13112 0.79334 0.51353 0.0
C176 C 0.14915 0.77853 0.51048 0.0
C177 C 0.17577 0.79831 0.47741 0.0
C178 C 0.28383 0.86787 0.20799 0.0
C179 C 0.25099 0.77267 0.40006 0.0
O180 O 0.33633 0.84213 0.44168 0.0
O181 O 0.35106 0.89054 0.57716 0.0
O182 O 0.28641 0.8777 0.62427 0.0
O183 O 0.29047 0.83169 0.63729 0.0
O184 O 0.30003 0.93405 0.47799 0.0
O185 O 0.33605 0.92429 0.47625 0.0
O186 O 0.23564 0.88293 0.46993 0.0
O187 O 0.21784 0.83218 0.3411 0.0
O188 O 0.28413 0.84628 0.27535 0.0
O189 O 0.27719 0.89017 0.2609 0.0
O190 O 0.27959 0.79164 0.41922 0.0
O191 O 0.23985 0.79437 0.40772 0.0
H192 H 0.41522 0.89806 0.60077 0.0
H193 H 0.45817 0.93946 0.53096 0.0
H194 H 0.40191 0.94417 0.26184 0.0
H195 H 0.35886 0.90244 0.33114 0.0
H196 H 0.173 0.87439 0.42224 0.0
H197 H 0.12658 0.83999 0.47931 0.0
H198 H 0.14287 0.75188 0.53522 0.0
H199 H 0.18918 0.78621 0.47628 0.0
Pr200 Pr 0.26748 0.23718 0.5526 0.0
Pr201 Pr 0.30914 0.2855 0.59791 0.0
C202 C 0.20851 0.19494 0.55153 0.0
C203 C 0.1803 0.19557 0.54159 0.0
C204 C 0.15192 0.16153 0.51049 0.0
C205 C 0.12639 0.16118 0.52746 0.0
C206 C 0.12808 0.19483 0.57785 0.0
C207 C 0.15632 0.22892 0.6054 0.0
C208 C 0.18161 0.22928 0.58796 0.0
C209 C 0.28797 0.24548 0.31077 0.0
C210 C 0.26964 0.3163 0.54212 0.0
C211 C 0.36671 0.33916 0.63717 0.0
C212 C 0.38794 0.34849 0.56812 0.0
C213 C 0.4165 0.35932 0.61781 0.0
C214 C 0.43718 0.36771 0.55465 0.0
C215 C 0.4296 0.36556 0.44087 0.0
C216 C 0.40051 0.35268 0.3893 0.0
C217 C 0.37963 0.34386 0.45271 0.0
C218 C 0.29339 0.27059 0.81868 0.0
C219 C 0.32223 0.22122 0.58059 0.0
O220 O 0.22998 0.22068 0.63408 0.0
O221 O 0.2184 0.18749 0.46717 0.0
O222 O 0.2835 0.26229 0.39652 0.0
O223 O 0.2836 0.26301 0.39439 0.0
O224 O 0.29602 0.32635 0.5361 0.0
O225 O 0.25489 0.28441 0.57504 0.0
O226 O 0.34637 0.34654 0.61129 0.0
O227 O 0.35674 0.30601 0.66196 0.0
O228 O 0.29258 0.2481 0.7368 0.0
O229 O 0.299 0.3007 0.77942 0.0
O230 O 0.29537 0.20603 0.60022 0.0
O231 O 0.32988 0.25138 0.54048 0.0
H232 H 0.1496 0.13463 0.47801 0.0
H233 H 0.10548 0.134 0.50598 0.0
H234 H 0.1591 0.25564 0.64342 0.0
H235 H 0.20264 0.25619 0.61642 0.0
H236 H 0.42287 0.36162 0.70591 0.0
H237 H 0.45939 0.37692 0.59525 0.0
H238 H 0.39426 0.35088 0.30143 0.0
H239 H 0.35727 0.33407 0.41221 0.0
Pr240 Pr 0.48667 0.20298 0.71493 0.0
Pr241 Pr 0.46757 0.17568 0.83193 0.0
C242 C 0.49425 0.23238 0.53677 0.0
C243 C 0.47113 0.2238 0.44608 0.0
C244 C 0.4809 0.23753 0.34831 0.0
C245 C 0.44867 0.20851 0.13999 0.0
C246 C 0.42636 0.20725 0.25128 0.0
C247 C 0.4166 0.18183 0.36469 0.0
C248 C 0.44141 0.19474 0.45086 0.0
C249 C 0.52884 0.26456 0.8921 0.0
C250 C 0.42587 0.20472 0.74804 0.0
C251 C 0.45693 0.12616 0.95924 0.0
C252 C 0.45111 0.09907 1.02894 0.0
C253 C 0.42126 0.07194 1.01975 0.0
C254 C 0.41008 0.07331 0.11284 0.0
C255 C 0.42886 0.10492 0.20187 0.0
C256 C 0.45837 0.11492 0.22573 0.0
C257 C 0.47033 0.11443 0.13425 0.0
C258 C 0.42545 0.1172 0.64501 0.0
C259 C 0.53154 0.18359 0.83816 0.0
O260 O 0.49692 0.20345 0.5464 0.0
O261 O 0.49412 0.25021 0.629 0.0
O262 O 0.50106 0.24439 0.8901 0.0
O263 O 0.53446 0.24924 0.81101 0.0
O264 O 0.43003 0.19074 0.83314 0.0
O265 O 0.44561 0.21231 0.68883 0.0
O266 O 0.45225 0.15393 0.98083 0.0
O267 O 0.46808 0.12504 0.87445 0.0
O268 O 0.45358 0.13505 0.65715 0.0
O269 O 0.41974 0.13529 0.71827 0.0
O270 O 0.52341 0.18647 0.73748 0.0
O271 O 0.51491 0.18462 0.90371 0.0
H272 H 0.4754 0.23266 0.30582 0.0
H273 H 0.44841 0.21856 1.0628 0.0
H274 H 0.39446 0.16551 0.37682 0.0
H275 H 0.43763 0.17967 0.51664 0.0
H276 H 0.40606 0.05668 0.9392 0.0
H277 H 0.38648 0.05752 0.10264 0.0
H278 H 0.4734 0.13383 0.30402 0.0
H279 H 0.4938 0.13369 0.14406 0.0
Pr280 Pr 0.97702 0.16974 0.84941 0.0
Pr281 Pr 0.97077 0.20671 0.73377 0.0
C282 C 0.97805 0.12429 0.98311 0.0
C283 C 0.9551 0.09899 1.03446 0.0
C284 C 0.96462 0.09857 0.14402 0.0
C285 C 0.95434 0.11065 0.22645 0.0
C286 C 0.93716 0.12564 0.19484 0.0
C287 C 0.91867 0.10938 1.08749 0.0
C288 C 0.92821 0.09642 1.00452 0.0
C289 C 0.93904 0.11679 0.64752 0.0
C290 C 0.92146 0.18194 0.8704 0.0
C291 C 0.96695 0.24913 0.59534 0.0
C292 C 0.98616 0.27923 0.54506 0.0
C293 C 0.97421 0.29542 0.4808 0.0
C294 C 0.98388 0.3048 0.38435 0.0
C295 C 0.99987 0.28969 0.34774 0.0
C296 C 1.02163 0.29381 0.43479 0.0
C297 C 1.01272 0.2835 0.53142 0.0
C298 C 1.00828 0.26146 0.93295 0.0
C299 C 1.02698 0.19605 0.71593 0.0
O300 O 0.98829 0.16062 1.01839 0.0
O301 O 0.97244 0.11434 0.87584 0.0
O302 O 0.93512 0.14094 0.70151 0.0
O303 O 0.96559 0.12565 0.68551 0.0
O304 O 0.92516 0.18884 0.77288 0.0
O305 O 0.94105 0.17691 0.92856 0.0
O306 O 0.9627 0.2154 0.561 0.0
O307 O 0.9708 0.25865 0.70169 0.0
O308 O 1.01221 0.23635 0.88427 0.0
O309 O 0.98209 0.25286 0.89104 0.0
O310 O 1.02363 0.19051 0.8149 0.0
O311 O 1.0065 0.1989 0.65501 0.0
H312 H 0.9843 0.09814 0.16819 0.0
H313 H 0.96657 0.11907 0.31175 0.0
H314 H 0.90246 0.1162 1.06198 0.0
H315 H 0.91908 0.09409 0.91889 0.0
H316 H 0.95495 0.2952 0.4947 0.0
H317 H 0.9719 0.312 0.32594 0.0
H318 H 1.04002 0.29246 0.4176 0.0
H319 H 1.02382 0.27388 0.5849 0.0
Pr320 Pr 0.95317 0.64211 0.65514 0.0
Pr321 Pr 0.98308 0.70651 0.84244 0.0
C322 C 0.93065 0.59591 0.45336 0.0
C323 C 0.94083 0.60755 0.35361 0.0
C324 C 0.97115 0.62633 0.35775 0.0
C325 C 0.98426 0.65714 0.30725 0.0
C326 C 0.96715 0.66947 0.25505 0.0
C327 C 0.93639 0.64502 0.22827 0.0
C328 C 0.92317 0.61385 0.27733 0.0
C329 C 0.97838 0.62806 0.83503 0.0
C330 C 1.02196 0.71387 0.6656 0.0
C331 C 1.01159 0.76368 1.02098 0.0
C332 C 1.02481 0.78333 0.13847 0.0
C333 C 1.02627 0.8245 0.17627 0.0
C334 C 1.03719 0.84798 0.30944 0.0
C335 C 1.03978 0.82732 0.41811 0.0
C336 C 0.0567 0.80411 0.45407 0.0
C337 C 0.04882 0.7669 0.34421 0.0
C338 C 0.95598 0.72044 0.66649 0.0
C339 C 0.9176 0.63518 0.84676 0.0
O340 O 0.91862 0.61328 0.49455 0.0
O341 O 0.94905 0.59473 0.52969 0.0
O342 O 0.99078 0.65851 0.80153 0.0
O343 O 0.95234 0.60285 0.77315 0.0
O344 O 1.02376 0.72461 0.77052 0.0
O345 O 0.99656 0.68571 0.59973 0.0
O346 O 0.98323 0.7468 0.9823 0.0
O347 O 1.02387 0.74891 0.96928 0.0
O348 O 0.94439 0.68963 0.69842 0.0
O349 O 0.98275 0.7443 0.72222 0.0
O350 O 0.91391 0.62391 0.7395 0.0
O351 O 0.94357 0.66258 0.91013 0.0
H352 H 0.98541 0.62163 0.41406 0.0
H353 H 1.00805 0.67524 0.32704 0.0
H354 H 0.92278 0.65385 0.18683 0.0
H355 H 0.89973 0.59946 0.27178 0.0
H356 H 1.01997 0.83612 0.11281 0.0
H357 H 1.03732 0.87404 0.32718 0.0
H358 H 0.05446 0.7815 0.41159 0.0
H359 H 0.0515 0.73977 0.3395 0.0
C360 C 0.11827 0.4936 0.79892 0.0
C361 C 0.1454 0.51256 0.8827 0.0
C362 C 0.11617 0.49173 0.67902 0.0
C363 C 0.1408 0.50878 0.62748 0.0
H364 H 0.09791 0.47957 0.82579 0.0
H365 H 0.09429 0.47637 0.62514 0.0
S366 S 0.21772 0.56162 0.80171 0.0
N367 N 0.19803 0.54843 0.89548 0.0
N368 N 0.19402 0.54542 0.68034 0.0
C369 C 0.16796 0.52782 0.71013 0.0
C370 C 0.17014 0.52947 0.83198 0.0
C371 C 0.66302 0.54417 0.6874 0.0
C372 C 0.66644 0.52002 0.75355 0.0
C373 C 0.66335 0.54192 0.56908 0.0
C374 C 0.66721 0.51513 0.50174 0.0
H375 H 0.65992 0.56577 0.7281 0.0
H376 H 0.66056 0.56197 0.53007 0.0
S377 S 0.6771 0.44375 0.62501 0.0
N378 N 0.67377 0.46728 0.7324 0.0
N379 N 0.67454 0.46319 0.51976 0.0
C380 C 0.67069 0.4908 0.56694 0.0
C381 C 0.67028 0.49307 0.68736 0.0
C382 C 0.66939 0.1481 0.6097 0.0
C383 C 0.66195 0.11497 0.6554 0.0
C384 C 0.67075 0.14936 0.4931 0.0
C385 C 0.66479 0.1175 0.41039 0.0
H386 H 0.67469 0.17395 0.66516 0.0
H387 H 0.67754 0.17621 0.46909 0.0
S388 S 0.64403 0.02353 0.47984 0.0
N389 N 0.64821 0.04943 0.59966 0.0
N390 N 0.6511 0.0517 0.39125 0.0
C391 C 0.65735 0.08469 0.45611 0.0
C392 C 0.65577 0.08337 0.57316 0.0
C393 C 0.82753 0.89377 0.78431 0.0
C394 C 0.80285 0.86404 0.69772 0.0
C395 C 0.82939 0.89626 0.90428 0.0
C396 C 0.80692 0.86951 0.95334 0.0
H397 H 0.84596 0.91618 0.7596 0.0
H398 H 0.84927 0.92026 0.96036 0.0
S399 S 0.73792 0.78358 0.7703 0.0
N400 N 0.7555 0.80567 0.67881 0.0
N401 N 0.7591 0.8101 0.89439 0.0
C402 C 0.7824 0.83935 0.86772 0.0
C403 C 0.78044 0.83685 0.74561 0.0
C404 C 0.27969 0.82958 0.88137 0.0
C405 C 0.28474 0.85951 0.82321 0.0
C406 C 0.27965 0.83191 1.00003 0.0
C407 C 0.28477 0.86467 1.07606 0.0
H408 H 0.27546 0.80311 0.83369 0.0
H409 H 0.27518 0.80699 1.03211 0.0
S410 S 0.30194 0.95382 0.9784 0.0
N411 N 0.29677 0.9249 0.86297 0.0
N412 N 0.29662 0.9292 1.07622 0.0
C413 C 0.2902 0.89499 1.0193 0.0
C414 C 0.29025 0.89259 0.89846 0.0
C415 C 0.29195 0.23514 0.98755 0.0
C416 C 0.29162 0.26533 0.94525 0.0
C417 C 0.29094 0.23047 0.1014 0.0
C418 C 0.2891 0.25488 0.18743 0.0
H419 H 0.29327 0.21443 0.93167 0.0
H420 H 0.29152 0.20644 0.12239 0.0
S421 S 0.28594 0.33847 0.12566 0.0
N422 N 0.28849 0.32022 1.00581 0.0
N423 N 0.28605 0.31135 0.21172 0.0
C424 C 0.28822 0.28505 0.14588 0.0
C425 C 0.2896 0.29009 1.02942 0.0
C426 C 0.38832 0.16238 0.14293 0.0
C427 C 0.40411 0.20346 0.19545 0.0
C428 C 0.39685 0.1336 0.1509 0.0
C429 C 0.42469 0.13787 0.2068 0.0
H430 H 0.36652 0.15083 1.0925 0.0
H431 H 0.37914 0.10504 0.10753 0.0
S432 S 0.49959 0.25555 0.18542 0.0
N433 N 0.46661 0.26689 0.23411 0.0
N434 N 0.48178 0.19666 0.21084 0.0
C435 C 0.44968 0.17547 0.25706 0.0
C436 C 0.4365 0.22753 0.27155 0.0
C437 C 0.99652 0.23113 0.25148 0.0
C438 C 0.98183 0.2498 0.27367 0.0
C439 C 0.98229 0.19154 0.23525 0.0
C440 C 0.95189 0.16791 0.22941 0.0
H441 H 1.01998 0.2474 0.25735 0.0
H442 H 0.99562 0.17961 0.2267 0.0
S443 S 0.90021 0.20006 0.23605 0.0
N444 N 0.93284 0.23994 0.25853 0.0
N445 N 0.90622 0.16512 0.22173 0.0
C446 C 0.93591 0.18538 0.23453 0.0
C447 C 0.95059 0.22616 0.25519 0.0
C448 C 0.97453 0.72619 0.37937 0.0
C449 C 0.97939 0.71081 0.2809 0.0
C450 C 0.99102 0.76597 0.43394 0.0
C451 C 1.00957 0.79448 0.38381 0.0
H452 H 0.95997 0.70634 0.42333 0.0
H453 H 0.99076 0.77424 0.51821 0.0
S454 S 0.06418 0.77421 0.1765 0.0
N455 N 1.02256 0.72912 0.17139 0.0
N456 N 0.05968 0.81402 0.27653 0.0
C457 C 1.01754 0.78279 0.30205 0.0
C458 C 1.00169 0.73644 0.23605 0.0
C459 C 0.27416 0.37784 0.515 0.0
C460 C 0.25642 0.33786 0.50182 0.0
C461 C 0.26298 0.39864 0.47132 0.0
C462 C 0.23359 0.38049 0.40984 0.0
H463 H 0.29699 0.39335 0.56017 0.0
H464 H 0.27761 0.42946 0.48705 0.0
S465 S 0.17912 0.27525 0.33651 0.0
N466 N 0.20863 0.28036 0.41382 0.0
N467 N 0.18774 0.31899 0.32998 0.0
C468 C 0.2158 0.3402 0.39305 0.0
C469 C 0.22717 0.31908 0.43901 0.0
C470 C 0.70319 0.67128 0.21248 0.0
C471 C 0.71711 0.65036 0.20927 0.0
C472 C 0.71924 0.71225 0.23946 0.0
C473 C 0.75039 0.73531 0.26642 0.0
H474 H 0.6794 0.6558 0.19323 0.0
H475 H 0.70694 0.72597 0.23915 0.0
S476 S 0.79831 0.69587 0.27299 0.0
N477 N 0.76465 0.65717 0.23737 0.0
N478 N 0.79439 0.7327 0.28815 0.0
C479 C 0.76461 0.71471 0.26447 0.0
C480 C 0.74824 0.67301 0.23616 0.0
C481 C 0.4907 1.01657 0.26375 0.0
C482 C 0.50352 0.9967 0.22786 0.0
C483 C 0.46783 0.99986 0.31837 0.0
C484 C 0.45786 0.96335 0.33959 0.0
H485 H 0.49775 0.04444 0.24643 0.0
H486 H 0.45778 1.01527 0.34332 0.0
S487 S 0.48481 0.90054 0.26231 0.0
N488 N 0.50506 0.93939 0.21719 0.0
N489 N 0.46238 0.90814 0.32085 0.0
C490 C 0.47102 0.9438 0.30571 0.0
C491 C 0.49387 0.96051 0.24955 0.0
C492 C 0.60863 0.19222 0.88116 0.0
C493 C 0.60862 0.17295 0.96777 0.0
C494 C 0.5842 0.19568 0.8386 0.0
C495 C 0.55822 0.18027 0.88013 0.0
H496 H 0.6273 0.20392 0.84367 0.0
H497 H 0.58578 0.21067 0.77244 0.0
S498 S 0.54541 0.12568 0.10207 0.0
N499 N 0.57866 0.13771 1.09025 0.0
N500 N 0.5345 0.14404 1.01135 0.0
C501 C 0.55815 0.16129 0.96622 0.0
C502 C 0.5826 0.15769 1.00914 0.0
C503 C 1.02954 0.3328 0.95955 0.0
C504 C 1.03205 0.30278 0.98937 0.0
C505 C 0.04977 0.37173 1.01468 0.0
C506 C 0.07407 0.38323 0.10231 0.0
H507 H 1.01166 0.32621 0.89207 0.0
H508 H 0.04651 0.39314 0.9869 0.0
S509 S 0.09056 0.31607 0.2151 0.0
N510 N 0.06073 0.28756 0.11391 0.0
N511 N 0.09871 0.36018 0.21735 0.0
C512 C 0.07689 0.35345 0.13282 0.0
C513 C 0.05609 0.31362 1.07645 0.0
C514 C 0.87411 0.63273 0.89567 0.0
C515 C 0.89194 0.6177 0.89571 0.0
C516 C 0.84913 0.6161 0.93975 0.0
C517 C 0.84094 0.58365 0.98505 0.0
H518 H 0.87954 0.65755 0.86131 0.0
H519 H 0.8363 0.62909 0.93935 0.0
S520 S 0.88067 0.53319 1.00039 0.0
N521 N 0.90011 0.56881 0.94205 0.0
N522 N 0.85304 0.53688 1.02408 0.0
C523 C 0.85886 0.56841 0.98492 0.0
C524 C 0.88432 0.58554 0.94008 0.0
C525 C 0.97914 0.58286 0.94298 0.0
C526 C 0.99391 0.61916 0.91874 0.0
C527 C 0.9943 0.57178 1.01224 0.0
C528 C 1.02461 0.59673 1.05906 0.0
H529 H 0.95597 0.56237 0.90527 0.0
H530 H 0.98249 0.54291 1.02517 0.0
S531 S 0.07229 0.69689 1.03411 0.0
N532 N 1.03969 0.68159 0.9555 0.0
N533 N 0.06822 0.66057 1.08714 0.0
C534 C 1.03924 0.63396 1.04107 0.0
C535 C 1.02382 0.6453 0.97055 0.0
C536 C 0.56971 0.37299 1.04009 0.0
C537 C 0.60001 0.38734 1.04495 0.0
C538 C 0.54678 0.33343 0.99744 0.0
C539 C 0.55271 0.30561 0.95712 0.0
H540 H 0.56339 0.39278 1.06688 0.0
H541 H 0.52416 0.32496 0.9921 0.0
S542 S 0.62787 0.32603 0.9586 0.0
N543 N 0.63396 0.36847 1.01029 0.0
N544 N 0.59191 0.29564 0.93214 0.0
C545 C 0.58293 0.31934 0.96539 0.0
C546 C 0.60614 0.35943 1.00846 0.0
C547 C 0.89723 0.21651 0.94037 0.0
C548 C 0.89659 0.18217 0.91299 0.0
C549 C 0.87303 0.21711 0.96915 0.0
C550 C 0.84625 0.18326 0.97002 0.0
H551 H 0.91664 0.24337 0.93839 0.0
H552 H 0.87516 0.24453 0.98811 0.0
S553 S 0.83315 0.08542 0.90499 0.0
N554 N 0.86668 0.11337 0.88797 0.0
N555 N 0.82192 0.11405 0.94332 0.0
C556 C 0.8456 0.14872 0.94342 0.0
C557 C 0.87037 0.14829 0.9147 0.0
C558 C 0.71941 0.04897 1.08187 0.0
C559 C 0.69147 0.04074 1.09262 0.0
C560 C 0.73087 0.02766 0.1206 0.0
C561 C 0.71492 0.99721 0.172 0.0
H562 H 0.73277 0.07243 1.04496 0.0
H563 H 0.75258 0.03545 0.11126 0.0
S564 S 0.64011 0.96326 0.21645 0.0
N565 N 0.64807 0.99963 0.15756 0.0
N566 N 0.66896 0.95945 0.22696 0.0
C567 C 0.68688 0.98875 0.18249 0.0
C568 C 0.67537 1.01047 0.14377 0.0
C569 C 0.24582 0.70675 0.37079 0.0
C570 C 0.23234 0.72825 0.37186 0.0
C571 C 0.22939 0.66572 0.34499 0.0
C572 C 0.19821 0.64305 0.31706 0.0
H573 H 0.26959 0.72183 0.39062 0.0
H574 H 0.24142 0.65163 0.34663 0.0
S575 S 0.15126 0.684 0.30683 0.0
N576 N 0.1851 0.72231 0.34187 0.0
N577 N 0.15467 0.64674 0.29331 0.0
C578 C 0.18441 0.66422 0.31727 0.0
C579 C 0.20118 0.706 0.34439 0.0
C580 C 0.50058 0.43428 0.3712 0.0
C581 C 0.49869 0.41456 0.26797 0.0
C582 C 0.47813 0.41784 0.42642 0.0
C583 C 0.453 0.38104 0.38053 0.0
H584 H 0.51925 0.4631 0.40845 0.0
H585 H 0.4802 0.43441 0.50481 0.0
S586 S 0.43835 0.31613 0.11699 0.0
N587 N 0.47041 0.3555 0.12407 0.0
N588 N 0.42799 0.3243 0.22991 0.0
C589 C 0.45095 0.36056 0.27855 0.0
C590 C 0.47388 0.3774 0.22167 0.0
C591 C 0.95192 0.773 0.61492 0.0
C592 C 0.93872 0.73362 0.60958 0.0
C593 C 0.93665 0.78669 0.55944 0.0
C594 C 0.90722 0.76173 0.50153 0.0
H595 H 0.97446 0.79352 0.66072 0.0
H596 H 0.94788 0.81713 0.56238 0.0
S597 S 0.86138 0.65683 0.47349 0.0
N598 N 0.89399 0.66999 0.54748 0.0
N599 N 0.86452 0.69645 0.44704 0.0
C600 C 0.89311 0.72256 0.49971 0.0
C601 C 0.90903 0.70833 0.55364 0.0
C602 C 0.4068 0.04513 0.57963 0.0
C603 C 0.40153 0.07506 0.58764 0.0
C604 C 0.38336 1.00551 0.5456 0.0
C605 C 0.35297 0.99283 0.51776 0.0
H606 H 0.42918 0.05221 0.60423 0.0
H607 H 0.38931 0.98442 0.544 0.0
S608 S 0.32705 0.05964 0.51535 0.0
N609 N 0.36317 0.08859 0.5579 0.0
N610 N 0.32001 1.01557 0.49474 0.0
C611 C 0.3476 0.02267 0.52214 0.0
C612 C 0.37145 0.06296 0.55674 0.0
C613 C 0.08078 0.21552 0.74739 0.0
C614 C 0.0525 0.19693 0.67531 0.0
C615 C 0.1046 0.21502 0.71465 0.0
C616 C 0.10157 0.19476 0.60886 0.0
H617 H 0.08466 0.23089 0.83057 0.0
H618 H 0.12562 0.23016 0.77448 0.0
S619 S 1.03147 0.13909 0.39013 0.0
N620 N 1.02281 0.15677 0.4933 0.0
N621 N 0.06662 0.15457 0.43294 0.0
C622 C 0.07309 0.17536 0.53666 0.0
C623 C 0.04901 0.1768 0.5693 0.0
C624 C 0.37254 0.19131 0.74817 0.0
C625 C 0.3987 0.20795 0.70763 0.0
C626 C 0.34743 0.19357 0.70548 0.0
C627 C 0.34648 0.21233 0.6182 0.0
H628 H 0.37137 0.17637 0.8142 0.0
H629 H 0.32888 0.18122 0.7435 0.0
S630 S 0.40858 0.26063 0.48018 0.0
N631 N 0.4209 0.24415 0.57297 0.0
N632 N 0.3752 0.24742 0.49345 0.0
C633 C 0.37239 0.22844 0.57661 0.0
C634 C 0.39774 0.22645 0.6203 0.0
C635 C 0.86439 0.01969 0.52334 0.0
C636 C 0.87262 0.99664 0.46561 0.0
C637 C 0.88532 0.05881 0.57878 0.0
C638 C 0.9155 0.07694 0.57825 0.0
H639 H 0.84173 1.0071 0.52877 0.0
H640 H 0.87794 0.07453 0.62509 0.0
S641 S 0.94845 0.03134 0.43165 0.0
N642 N 0.9134 0.9968 0.40748 0.0
N643 N 0.9518 0.06899 0.50846 0.0
C644 C 0.92366 0.0546 0.51775 0.0
C645 C 0.90261 1.01504 0.46254 0.0
C646 C 0.05584 0.71453 0.54612 0.0
C647 C 0.04914 0.73437 0.62381 0.0
C648 C 0.0826 0.73341 0.51259 0.0
C649 C 0.10331 0.77313 0.55314 0.0
H650 H 1.0406 0.68406 0.51271 0.0
H651 H 0.08673 0.71697 0.45216 0.0
S652 S 0.09625 0.83819 0.75844 0.0
N653 N 0.06566 0.79595 0.74139 0.0
N654 N 0.11531 0.83122 0.67739 0.0
C655 C 0.09685 0.7931 0.63149 0.0
C656 C 0.06994 0.77385 0.66682 0.0
loop_
_geom_bond_atom_site_label_1
_geom_bond_atom_site_label_2
_geom_bond_distance
_geom_bond_site_symmetry_2
_ccdc_geom_bond_type
Pr0 C2 2.880 . S
Pr0 O20 2.562 . S
Pr0 O21 2.490 . S
Pr0 O22 2.695 1_554 S
Pr0 O23 2.512 1_554 S
Pr0 O25 2.437 1_554 S
Pr0 O28 2.436 . S
Pr0 O30 2.438 . S
Pr1 C11 2.880 1_554 S
Pr1 O22 2.436 1_554 S
Pr1 O24 2.438 1_554 S
Pr1 O26 2.562 1_554 S
Pr1 O27 2.490 . S
Pr1 O28 2.695 . S
Pr1 O29 2.512 . S
Pr1 O31 2.437 . S
C2 Pr0 2.880 . S
C2 C3 1.491 . S
C2 O20 1.254 . S
C2 O21 1.225 . S
C3 C2 1.491 . S
C3 C4 1.392 . S
C3 C8 1.356 . S
C4 C3 1.392 . S
C4 C5 1.368 . S
C4 H32 0.929 . S
C5 C4 1.368 . S
C5 C6 1.386 . S
C5 H33 0.929 . S
C6 C5 1.386 . S
C6 C7 1.373 . S
C7 C6 1.373 . S
C7 C8 1.409 . S
C7 H34 0.931 . S
C8 C3 1.356 . S
C8 C7 1.409 . S
C8 H35 0.930 . S
C9 O22 1.270 . S
C9 O23 1.248 . S
C10 O24 1.267 . S
C10 O25 1.278 . S
C11 Pr1 2.880 1_556 S
C11 C12 1.491 . S
C11 O26 1.254 . S
C11 O27 1.225 1_556 S
C12 C11 1.491 . S
C12 C13 1.392 1_456 S
C12 C17 1.356 . S
C13 C12 1.392 1_654 S
C13 C14 1.368 . S
C13 H36 0.929 . S
C14 C13 1.368 . S
C14 C15 1.386 1_554 S
C14 H37 0.929 . S
C15 C14 1.386 1_556 S
C15 C16 1.373 1_655 S
C16 C15 1.373 1_455 S
C16 C17 1.409 . S
C16 H38 0.931 . S
C17 C12 1.356 . S
C17 C16 1.409 . S
C17 H39 0.930 . S
C18 O28 1.270 . S
C18 O29 1.248 . S
C19 O30 1.267 . S
C19 O31 1.278 . S
O20 Pr0 2.562 . S
O20 C2 1.254 . S
O21 Pr0 2.490 . S
O21 C2 1.225 . S
O22 Pr0 2.695 1_556 S
O22 Pr1 2.436 1_556 S
O22 C9 1.270 . S
O23 Pr0 2.512 1_556 S
O23 C9 1.248 . S
O24 Pr1 2.438 1_556 S
O24 C10 1.267 . S
O25 Pr0 2.437 1_556 S
O25 C10 1.278 . S
O26 Pr1 2.562 1_556 S
O26 C11 1.254 . S
O27 Pr1 2.490 . S
O27 C11 1.225 1_554 S
O28 Pr0 2.436 . S
O28 Pr1 2.695 . S
O28 C18 1.270 . S
O29 Pr1 2.512 . S
O29 C18 1.248 . S
O30 Pr0 2.438 . S
O30 C19 1.267 . S
O31 Pr1 2.437 . S
O31 C19 1.278 . S
H32 C4 0.929 . S
H33 C5 0.929 . S
H34 C7 0.931 . S
H35 C8 0.930 . S
H36 C13 0.929 . S
H37 C14 0.929 . S
H38 C16 0.931 . S
H39 C17 0.930 . S
Pr40 C42 2.880 . S
Pr40 O60 2.562 . S
Pr40 O61 2.490 . S
Pr40 O62 2.695 . S
Pr40 O63 2.512 . S
Pr40 O65 2.437 . S
Pr40 O68 2.436 . S
Pr40 O70 2.438 . S
Pr41 C51 2.880 . S
Pr41 O62 2.436 . S
Pr41 O64 2.438 . S
Pr41 O66 2.562 . S
Pr41 O67 2.490 . S
Pr41 O68 2.695 . S
Pr41 O69 2.512 1_554 S
Pr41 O71 2.437 . S
C42 Pr40 2.880 . S
C42 C43 1.491 . S
C42 O60 1.254 . S
C42 O61 1.225 . S
C43 C42 1.491 . S
C43 C44 1.392 . S
C43 C48 1.356 . S
C44 C43 1.392 . S
C44 C45 1.368 . S
C44 H72 0.929 . S
C45 C44 1.368 . S
C45 C46 1.386 . S
C45 H73 0.929 . S
C46 C45 1.386 . S
C46 C47 1.373 . S
C47 C46 1.373 . S
C47 C48 1.409 . S
C47 H74 0.931 . S
C48 C43 1.356 . S
C48 C47 1.409 . S
C48 H75 0.930 . S
C49 O62 1.270 . S
C49 O63 1.248 . S
C50 O64 1.267 . S
C50 O65 1.278 . S
C51 Pr41 2.880 . S
C51 C52 1.491 . S
C51 O66 1.254 . S
C51 O67 1.225 . S
C52 C51 1.491 . S
C52 C53 1.392 . S
C52 C57 1.356 . S
C53 C52 1.392 . S
C53 C54 1.368 . S
C53 H76 0.929 . S
C54 C53 1.368 . S
C54 C55 1.386 . S
C54 H77 0.929 . S
C55 C54 1.386 . S
C55 C56 1.373 . S
C56 C55 1.373 . S
C56 C57 1.409 . S
C56 H78 0.931 . S
C57 C52 1.356 . S
C57 C56 1.409 . S
C57 H79 0.930 . S
C58 O68 1.270 1_556 S
C58 O69 1.248 . S
C59 O70 1.267 . S
C59 O71 1.278 . S
O60 Pr40 2.562 . S
O60 C42 1.254 . S
O61 Pr40 2.490 . S
O61 C42 1.225 . S
O62 Pr40 2.695 . S
O62 Pr41 2.436 . S
O62 C49 1.270 . S
O63 Pr40 2.512 . S
O63 C49 1.248 . S
O64 Pr41 2.438 . S
O64 C50 1.267 . S
O65 Pr40 2.437 . S
O65 C50 1.278 . S
O66 Pr41 2.562 . S
O66 C51 1.254 . S
O67 Pr41 2.490 . S
O67 C51 1.225 . S
O68 Pr40 2.436 . S
O68 Pr41 2.695 . S
O68 C58 1.270 1_554 S
O69 Pr41 2.512 1_556 S
O69 C58 1.248 . S
O70 Pr40 2.438 . S
O70 C59 1.267 . S
O71 Pr41 2.437 . S
O71 C59 1.278 . S
H72 C44 0.929 . S
H73 C45 0.929 . S
H74 C47 0.931 . S
H75 C48 0.930 . S
H76 C53 0.929 . S
H77 C54 0.929 . S
H78 C56 0.931 . S
H79 C57 0.930 . S
Pr80 C82 2.880 . S
Pr80 O100 2.562 . S
Pr80 O101 2.490 . S
Pr80 O102 2.695 . S
Pr80 O103 2.512 1_554 S
Pr80 O105 2.437 . S
Pr80 O108 2.436 . S
Pr80 O110 2.438 . S
Pr81 C91 2.880 . S
Pr81 O102 2.436 . S
Pr81 O104 2.438 . S
Pr81 O106 2.562 . S
Pr81 O107 2.490 . S
Pr81 O108 2.695 . S
Pr81 O109 2.512 . S
Pr81 O111 2.437 . S
C82 Pr80 2.880 . S
C82 C83 1.491 . S
C82 O100 1.254 . S
C82 O101 1.225 . S
C83 C82 1.491 . S
C83 C84 1.392 . S
C83 C88 1.356 . S
C84 C83 1.392 . S
C84 C85 1.368 . S
C84 H112 0.929 . S
C85 C84 1.368 . S
C85 C86 1.386 . S
C85 H113 0.935 1_545 S
C86 C85 1.386 . S
C86 C87 1.373 . S
C87 C86 1.373 . S
C87 C88 1.409 . S
C87 H114 0.931 . S
C88 C83 1.356 . S
C88 C87 1.409 . S
C88 H115 0.930 . S
C89 O102 1.270 1_556 S
C89 O103 1.248 . S
C90 O104 1.267 . S
C90 O105 1.278 . S
C91 Pr81 2.880 . S
C91 C92 1.491 . S
C91 O106 1.254 . S
C91 O107 1.225 . S
C92 C91 1.491 . S
C92 C93 1.392 . S
C92 C97 1.356 . S
C93 C92 1.392 . S
C93 C94 1.368 . S
C93 H116 0.929 . S
C94 C93 1.368 . S
C94 C95 1.386 . S
C94 H117 0.929 . S
C95 C94 1.386 . S
C95 C96 1.373 . S
C96 C95 1.373 . S
C96 C97 1.409 . S
C96 H118 0.931 . S
C97 C92 1.356 . S
C97 C96 1.409 . S
C97 H119 0.930 . S
C98 O108 1.270 . S
C98 O109 1.248 . S
C99 O110 1.267 . S
C99 O111 1.278 . S
O100 Pr80 2.562 . S
O100 C82 1.254 . S
O101 Pr80 2.490 . S
O101 C82 1.225 . S
O102 Pr80 2.695 . S
O102 Pr81 2.436 . S
O102 C89 1.270 1_554 S
O103 Pr80 2.512 1_556 S
O103 C89 1.248 . S
O104 Pr81 2.438 . S
O104 C90 1.267 . S
O105 Pr80 2.437 . S
O105 C90 1.278 . S
O106 Pr81 2.562 . S
O106 C91 1.254 . S
O107 Pr81 2.490 . S
O107 C91 1.225 . S
O108 Pr80 2.436 . S
O108 Pr81 2.695 . S
O108 C98 1.270 . S
O109 Pr81 2.512 . S
O109 C98 1.248 . S
O110 Pr80 2.438 . S
O110 C99 1.267 . S
O111 Pr81 2.437 . S
O111 C99 1.278 . S
H112 C84 0.929 . S
H113 C85 0.935 1_565 S
H114 C87 0.931 . S
H115 C88 0.930 . S
H116 C93 0.929 . S
H117 C94 0.929 . S
H118 C96 0.931 . S
H119 C97 0.930 . S
Pr120 C122 2.880 . S
Pr120 O140 2.562 . S
Pr120 O141 2.490 . S
Pr120 O142 2.695 . S
Pr120 O143 2.512 . S
Pr120 O145 2.437 . S
Pr120 O148 2.436 . S
Pr120 O150 2.438 . S
Pr121 C131 2.880 . S
Pr121 O142 2.436 . S
Pr121 O144 2.438 . S
Pr121 O146 2.562 . S
Pr121 O147 2.490 . S
Pr121 O148 2.695 . S
Pr121 O149 2.512 . S
Pr121 O151 2.437 . S
C122 Pr120 2.880 . S
C122 C123 1.491 . S
C122 O140 1.254 . S
C122 O141 1.225 . S
C123 C122 1.491 . S
C123 C124 1.392 . S
C123 C128 1.356 . S
C124 C123 1.392 . S
C124 C125 1.368 . S
C124 H152 0.929 . S
C125 C124 1.368 . S
C125 C126 1.386 . S
C125 H153 0.929 . S
C126 C125 1.386 . S
C126 C127 1.373 . S
C127 C126 1.373 . S
C127 C128 1.409 . S
C127 H154 0.931 . S
C128 C123 1.356 . S
C128 C127 1.409 . S
C128 H155 0.930 . S
C129 O142 1.270 . S
C129 O143 1.248 . S
C130 O144 1.267 . S
C130 O145 1.278 . S
C131 Pr121 2.880 . S
C131 C132 1.491 . S
C131 O146 1.254 . S
C131 O147 1.225 . S
C132 C131 1.491 . S
C132 C133 1.392 . S
C132 C137 1.356 . S
C133 C132 1.392 . S
C133 C134 1.368 . S
C133 H156 0.929 . S
C134 C133 1.368 . S
C134 C135 1.386 1_565 S
C134 H157 0.929 . S
C135 C134 1.386 1_545 S
C135 C136 1.373 . S
C136 C135 1.373 . S
C136 C137 1.409 1_545 S
C136 H158 0.931 . S
C137 C132 1.356 . S
C137 C136 1.409 1_565 S
C137 H159 0.930 . S
C138 O148 1.270 . S
C138 O149 1.248 . S
C139 O150 1.267 . S
C139 O151 1.278 . S
O140 Pr120 2.562 . S
O140 C122 1.254 . S
O141 Pr120 2.490 . S
O141 C122 1.225 . S
O142 Pr120 2.695 . S
O142 Pr121 2.436 . S
O142 C129 1.270 . S
O143 Pr120 2.512 . S
O143 C129 1.248 . S
O144 Pr121 2.438 . S
O144 C130 1.267 . S
O145 Pr120 2.437 . S
O145 C130 1.278 . S
O146 Pr121 2.562 . S
O146 C131 1.254 . S
O147 Pr121 2.490 . S
O147 C131 1.225 . S
O148 Pr120 2.436 . S
O148 Pr121 2.695 . S
O148 C138 1.270 . S
O149 Pr121 2.512 . S
O149 C138 1.248 . S
O150 Pr120 2.438 . S
O150 C139 1.267 . S
O151 Pr121 2.437 . S
O151 C139 1.278 . S
H152 C124 0.929 . S
H153 C125 0.929 . S
H154 C127 0.931 . S
H155 C128 0.930 . S
H156 C133 0.929 . S
H157 C134 0.929 . S
H158 C136 0.931 . S
H159 C137 0.930 . S
Pr160 C162 2.880 . S
Pr160 O180 2.562 . S
Pr160 O181 2.490 . S
Pr160 O182 2.695 . S
Pr160 O183 2.512 . S
Pr160 O185 2.437 . S
Pr160 O188 2.436 . S
Pr160 O190 2.438 . S
Pr161 C171 2.880 . S
Pr161 O182 2.436 . S
Pr161 O184 2.438 . S
Pr161 O186 2.562 . S
Pr161 O187 2.490 . S
Pr161 O188 2.695 . S
Pr161 O189 2.512 . S
Pr161 O191 2.437 . S
C162 Pr160 2.880 . S
C162 C163 1.491 . S
C162 O180 1.254 . S
C162 O181 1.225 . S
C163 C162 1.491 . S
C163 C164 1.392 . S
C163 C168 1.356 . S
C164 C163 1.392 . S
C164 C165 1.368 . S
C164 H192 0.929 . S
C165 C164 1.368 . S
C165 C166 1.386 . S
C165 H193 0.929 . S
C166 C165 1.386 . S
C166 C167 1.373 . S
C167 C166 1.373 . S
C167 C168 1.409 . S
C167 H194 0.931 . S
C168 C163 1.356 . S
C168 C167 1.409 . S
C168 H195 0.930 . S
C169 O182 1.270 . S
C169 O183 1.248 . S
C170 O184 1.267 . S
C170 O185 1.278 . S
C171 Pr161 2.880 . S
C171 C172 1.491 . S
C171 O186 1.254 . S
C171 O187 1.225 . S
C172 C171 1.491 . S
C172 C173 1.392 . S
C172 C177 1.356 . S
C173 C172 1.392 . S
C173 C174 1.368 . S
C173 H196 0.929 . S
C174 C173 1.368 . S
C174 C175 1.386 . S
C174 H197 0.929 . S
C175 C174 1.386 . S
C175 C176 1.373 . S
C176 C175 1.373 . S
C176 C177 1.409 . S
C176 H198 0.931 . S
C177 C172 1.356 . S
C177 C176 1.409 . S
C177 H199 0.930 . S
C178 O188 1.270 . S
C178 O189 1.248 . S
C179 O190 1.267 . S
C179 O191 1.278 . S
O180 Pr160 2.562 . S
O180 C162 1.254 . S
O181 Pr160 2.490 . S
O181 C162 1.225 . S
O182 Pr160 2.695 . S
O182 Pr161 2.436 . S
O182 C169 1.270 . S
O183 Pr160 2.512 . S
O183 C169 1.248 . S
O184 Pr161 2.438 . S
O184 C170 1.267 . S
O185 Pr160 2.437 . S
O185 C170 1.278 . S
O186 Pr161 2.562 . S
O186 C171 1.254 . S
O187 Pr161 2.490 . S
O187 C171 1.225 . S
O188 Pr160 2.436 . S
O188 Pr161 2.695 . S
O188 C178 1.270 . S
O189 Pr161 2.512 . S
O189 C178 1.248 . S
O190 Pr160 2.438 . S
O190 C179 1.267 . S
O191 Pr161 2.437 . S
O191 C179 1.278 . S
H192 C164 0.929 . S
H193 C165 0.929 . S
H194 C167 0.931 . S
H195 C168 0.930 . S
H196 C173 0.929 . S
H197 C174 0.929 . S
H198 C176 0.931 . S
H199 C177 0.930 . S
Pr200 C202 2.880 . S
Pr200 O220 2.562 . S
Pr200 O221 2.490 . S
Pr200 O222 2.695 . S
Pr200 O223 2.512 . S
Pr200 O225 2.437 . S
Pr200 O228 2.436 . S
Pr200 O230 2.438 . S
Pr201 C211 2.880 . S
Pr201 O222 2.436 . S
Pr201 O224 2.438 . S
Pr201 O226 2.562 . S
Pr201 O227 2.490 . S
Pr201 O228 2.695 . S
Pr201 O229 2.512 . S
Pr201 O231 2.437 . S
C202 Pr200 2.880 . S
C202 C203 1.491 . S
C202 O220 1.254 . S
C202 O221 1.225 . S
C203 C202 1.491 . S
C203 C204 1.392 . S
C203 C208 1.356 . S
C204 C203 1.392 . S
C204 C205 1.368 . S
C204 H232 0.929 . S
C205 C204 1.368 . S
C205 C206 1.386 . S
C205 H233 0.929 . S
C206 C205 1.386 . S
C206 C207 1.373 . S
C207 C206 1.373 . S
C207 C208 1.409 . S
C207 H234 0.931 . S
C208 C203 1.356 . S
C208 C207 1.409 . S
C208 H235 0.930 . S
C209 O222 1.270 . S
C209 O223 1.248 . S
C210 O224 1.267 . S
C210 O225 1.278 . S
C211 Pr201 2.880 . S
C211 C212 1.491 . S
C211 O226 1.254 . S
C211 O227 1.225 . S
C212 C211 1.491 . S
C212 C213 1.392 . S
C212 C217 1.356 . S
C213 C212 1.392 . S
C213 C214 1.368 . S
C213 H236 0.929 . S
C214 C213 1.368 . S
C214 C215 1.386 . S
C214 H237 0.929 . S
C215 C214 1.386 . S
C215 C216 1.373 . S
C216 C215 1.373 . S
C216 C217 1.409 . S
C216 H238 0.931 . S
C217 C212 1.356 . S
C217 C216 1.409 . S
C217 H239 0.930 . S
C218 O228 1.270 . S
C218 O229 1.248 . S
C219 O230 1.267 . S
C219 O231 1.278 . S
O220 Pr200 2.562 . S
O220 C202 1.254 . S
O221 Pr200 2.490 . S
O221 C202 1.225 . S
O222 Pr200 2.695 . S
O222 Pr201 2.436 . S
O222 C209 1.270 . S
O223 Pr200 2.512 . S
O223 C209 1.248 . S
O224 Pr201 2.438 . S
O224 C210 1.267 . S
O225 Pr200 2.437 . S
O225 C210 1.278 . S
O226 Pr201 2.562 . S
O226 C211 1.254 . S
O227 Pr201 2.490 . S
O227 C211 1.225 . S
O228 Pr200 2.436 . S
O228 Pr201 2.695 . S
O228 C218 1.270 . S
O229 Pr201 2.512 . S
O229 C218 1.248 . S
O230 Pr200 2.438 . S
O230 C219 1.267 . S
O231 Pr201 2.437 . S
O231 C219 1.278 . S
H232 C204 0.929 . S
H233 C205 0.929 . S
H234 C207 0.931 . S
H235 C208 0.930 . S
H236 C213 0.929 . S
H237 C214 0.929 . S
H238 C216 0.931 . S
H239 C217 0.930 . S
Pr240 C242 2.880 . S
Pr240 O260 2.562 . S
Pr240 O261 2.490 . S
Pr240 O262 2.695 . S
Pr240 O263 2.512 . S
Pr240 O265 2.437 . S
Pr240 O268 2.436 . S
Pr240 O270 2.438 . S
Pr241 C251 2.880 . S
Pr241 O262 2.436 . S
Pr241 O264 2.438 . S
Pr241 O266 2.562 . S
Pr241 O267 2.490 . S
Pr241 O268 2.695 . S
Pr241 O269 2.512 . S
Pr241 O271 2.437 . S
C242 Pr240 2.880 . S
C242 C243 1.491 . S
C242 O260 1.254 . S
C242 O261 1.225 . S
C243 C242 1.491 . S
C243 C244 1.392 . S
C243 C248 1.356 . S
C244 C243 1.392 . S
C244 C245 1.368 . S
C244 H272 0.929 . S
C245 C244 1.368 . S
C245 C246 1.386 . S
C245 H273 0.929 . S
C246 C245 1.386 . S
C246 C247 1.373 . S
C247 C246 1.373 . S
C247 C248 1.409 . S
C247 H274 0.931 . S
C248 C243 1.356 . S
C248 C247 1.409 . S
C248 H275 0.930 . S
C249 O262 1.270 . S
C249 O263 1.248 . S
C250 O264 1.267 . S
C250 O265 1.278 . S
C251 Pr241 2.880 . S
C251 C252 1.491 1_556 S
C251 O266 1.254 . S
C251 O267 1.225 . S
C252 C251 1.491 1_554 S
C252 C253 1.392 . S
C252 C257 1.356 . S
C253 C252 1.392 . S
C253 C254 1.368 . S
C253 H276 0.929 . S
C254 C253 1.368 . S
C254 C255 1.386 . S
C254 H277 0.929 . S
C255 C254 1.386 . S
C255 C256 1.373 . S
C256 C255 1.373 . S
C256 C257 1.409 . S
C256 H278 0.931 . S
C257 C252 1.356 . S
C257 C256 1.409 . S
C257 H279 0.930 . S
C258 O268 1.270 . S
C258 O269 1.248 . S
C259 O270 1.267 . S
C259 O271 1.278 . S
O260 Pr240 2.562 . S
O260 C242 1.254 . S
O261 Pr240 2.490 . S
O261 C242 1.225 . S
O262 Pr240 2.695 . S
O262 Pr241 2.436 . S
O262 C249 1.270 . S
O263 Pr240 2.512 . S
O263 C249 1.248 . S
O264 Pr241 2.438 . S
O264 C250 1.267 . S
O265 Pr240 2.437 . S
O265 C250 1.278 . S
O266 Pr241 2.562 . S
O266 C251 1.254 . S
O267 Pr241 2.490 . S
O267 C251 1.225 . S
O268 Pr240 2.436 . S
O268 Pr241 2.695 . S
O268 C258 1.270 . S
O269 Pr241 2.512 . S
O269 C258 1.248 . S
O270 Pr240 2.438 . S
O270 C259 1.267 . S
O271 Pr241 2.437 . S
O271 C259 1.278 . S
H272 C244 0.929 . S
H273 C245 0.929 . S
H274 C247 0.931 . S
H275 C248 0.930 . S
H276 C253 0.929 . S
H277 C254 0.929 . S
H278 C256 0.931 . S
H279 C257 0.930 . S
Pr280 C282 2.880 . S
Pr280 O300 2.562 . S
Pr280 O301 2.490 . S
Pr280 O302 2.695 . S
Pr280 O303 2.512 . S
Pr280 O305 2.437 . S
Pr280 O308 2.436 . S
Pr280 O310 2.438 . S
Pr281 C291 2.880 . S
Pr281 O302 2.436 . S
Pr281 O304 2.438 . S
Pr281 O306 2.562 . S
Pr281 O307 2.490 . S
Pr281 O308 2.695 . S
Pr281 O309 2.512 . S
Pr281 O311 2.437 . S
C282 Pr280 2.880 . S
C282 C283 1.491 1_556 S
C282 O300 1.254 . S
C282 O301 1.225 . S
C283 C282 1.491 1_554 S
C283 C284 1.392 . S
C283 C288 1.356 . S
C284 C283 1.392 . S
C284 C285 1.368 . S
C284 H312 0.929 . S
C285 C284 1.368 . S
C285 C286 1.386 . S
C285 H313 0.929 . S
C286 C285 1.386 . S
C286 C287 1.373 . S
C287 C286 1.373 . S
C287 C288 1.409 . S
C287 H314 0.931 . S
C288 C283 1.356 . S
C288 C287 1.409 . S
C288 H315 0.930 . S
C289 O302 1.270 . S
C289 O303 1.248 . S
C290 O304 1.267 . S
C290 O305 1.278 . S
C291 Pr281 2.880 . S
C291 C292 1.491 . S
C291 O306 1.254 . S
C291 O307 1.225 . S
C292 C291 1.491 . S
C292 C293 1.392 . S
C292 C297 1.356 . S
C293 C292 1.392 . S
C293 C294 1.368 . S
C293 H316 0.929 . S
C294 C293 1.368 . S
C294 C295 1.386 . S
C294 H317 0.929 . S
C295 C294 1.386 . S
C295 C296 1.373 . S
C296 C295 1.373 . S
C296 C297 1.409 . S
C296 H318 0.931 . S
C297 C292 1.356 . S
C297 C296 1.409 . S
C297 H319 0.930 . S
C298 O308 1.270 . S
C298 O309 1.248 . S
C299 O310 1.267 . S
C299 O311 1.278 . S
O300 Pr280 2.562 . S
O300 C282 1.254 . S
O301 Pr280 2.490 . S
O301 C282 1.225 . S
O302 Pr280 2.695 . S
O302 Pr281 2.436 . S
O302 C289 1.270 . S
O303 Pr280 2.512 . S
O303 C289 1.248 . S
O304 Pr281 2.438 . S
O304 C290 1.267 . S
O305 Pr280 2.437 . S
O305 C290 1.278 . S
O306 Pr281 2.562 . S
O306 C291 1.254 . S
O307 Pr281 2.490 . S
O307 C291 1.225 . S
O308 Pr280 2.436 . S
O308 Pr281 2.695 . S
O308 C298 1.270 . S
O309 Pr281 2.512 . S
O309 C298 1.248 . S
O310 Pr280 2.438 . S
O310 C299 1.267 . S
O311 Pr281 2.437 . S
O311 C299 1.278 . S
H312 C284 0.929 . S
H313 C285 0.929 . S
H314 C287 0.931 . S
H315 C288 0.930 . S
H316 C293 0.929 . S
H317 C294 0.929 . S
H318 C296 0.931 . S
H319 C297 0.930 . S
Pr320 C322 2.880 . S
Pr320 O340 2.562 . S
Pr320 O341 2.490 . S
Pr320 O342 2.695 . S
Pr320 O343 2.512 . S
Pr320 O345 2.437 . S
Pr320 O348 2.436 . S
Pr320 O350 2.438 . S
Pr321 C331 2.880 . S
Pr321 O342 2.436 . S
Pr321 O344 2.438 . S
Pr321 O346 2.562 . S
Pr321 O347 2.490 . S
Pr321 O348 2.695 . S
Pr321 O349 2.512 . S
Pr321 O351 2.437 . S
C322 Pr320 2.880 . S
C322 C323 1.491 . S
C322 O340 1.254 . S
C322 O341 1.225 . S
C323 C322 1.491 . S
C323 C324 1.392 . S
C323 C328 1.356 . S
C324 C323 1.392 . S
C324 C325 1.368 . S
C324 H352 0.929 . S
C325 C324 1.368 . S
C325 C326 1.386 . S
C325 H353 0.929 . S
C326 C325 1.386 . S
C326 C327 1.373 . S
C327 C326 1.373 . S
C327 C328 1.409 . S
C327 H354 0.931 . S
C328 C323 1.356 . S
C328 C327 1.409 . S
C328 H355 0.930 . S
C329 O342 1.270 . S
C329 O343 1.248 . S
C330 O344 1.267 . S
C330 O345 1.278 . S
C331 Pr321 2.880 . S
C331 C332 1.491 1_556 S
C331 O346 1.254 . S
C331 O347 1.225 . S
C332 C331 1.491 1_554 S
C332 C333 1.392 . S
C332 C337 1.356 . S
C333 C332 1.392 . S
C333 C334 1.368 . S
C333 H356 0.929 . S
C334 C333 1.368 . S
C334 C335 1.386 . S
C334 H357 0.929 . S
C335 C334 1.386 . S
C335 C336 1.373 . S
C336 C335 1.373 . S
C336 C337 1.409 . S
C336 H358 0.931 . S
C337 C332 1.356 . S
C337 C336 1.409 . S
C337 H359 0.930 . S
C338 O348 1.270 . S
C338 O349 1.248 . S
C339 O350 1.267 . S
C339 O351 1.278 . S
O340 Pr320 2.562 . S
O340 C322 1.254 . S
O341 Pr320 2.490 . S
O341 C322 1.225 . S
O342 Pr320 2.695 . S
O342 Pr321 2.436 . S
O342 C329 1.270 . S
O343 Pr320 2.512 . S
O343 C329 1.248 . S
O344 Pr321 2.438 . S
O344 C330 1.267 . S
O345 Pr320 2.437 . S
O345 C330 1.278 . S
O346 Pr321 2.562 . S
O346 C331 1.254 . S
O347 Pr321 2.490 . S
O347 C331 1.225 . S
O348 Pr320 2.436 . S
O348 Pr321 2.695 . S
O348 C338 1.270 . S
O349 Pr321 2.512 . S
O349 C338 1.248 . S
O350 Pr320 2.438 . S
O350 C339 1.267 . S
O351 Pr321 2.437 . S
O351 C339 1.278 . S
H352 C324 0.929 . S
H353 C325 0.929 . S
H354 C327 0.931 . S
H355 C328 0.930 . S
H356 C333 0.929 . S
H357 C334 0.929 . S
H358 C336 0.931 . S
H359 C337 0.930 . S
C360 C361 1.369 . S
C360 C362 1.419 . S
C360 H364 0.930 . S
C361 C360 1.369 . S
C361 C370 1.429 . S
C362 C360 1.419 . S
C362 C363 1.363 . S
C362 H365 0.929 . S
C363 C362 1.363 . S
C363 C369 1.428 . S
H364 C360 0.930 . S
H365 C362 0.929 . S
S366 N367 1.613 . S
S366 N368 1.610 . S
N367 S366 1.613 . S
N367 C370 1.350 . S
N368 S366 1.610 . S
N368 C369 1.351 . S
C369 C363 1.428 . S
C369 N368 1.351 . S
C369 C370 1.434 . S
C370 C361 1.429 . S
C370 N367 1.350 . S
C370 C369 1.434 . S
C371 C372 1.369 . S
C371 C373 1.419 . S
C371 H375 0.930 . S
C372 C371 1.369 . S
C372 C381 1.429 . S
C373 C371 1.419 . S
C373 C374 1.363 . S
C373 H376 0.929 . S
C374 C373 1.363 . S
C374 C380 1.428 . S
H375 C371 0.930 . S
H376 C373 0.929 . S
S377 N378 1.613 . S
S377 N379 1.610 . S
N378 S377 1.613 . S
N378 C381 1.350 . S
N379 S377 1.610 . S
N379 C380 1.351 . S
C380 C374 1.428 . S
C380 N379 1.351 . S
C380 C381 1.434 . S
C381 C372 1.429 . S
C381 N378 1.350 . S
C381 C380 1.434 . S
C382 C383 1.369 . S
C382 C384 1.419 . S
C382 H386 0.930 . S
C383 C382 1.369 . S
C383 C392 1.429 . S
C384 C382 1.419 . S
C384 C385 1.363 . S
C384 H387 0.929 . S
C385 C384 1.363 . S
C385 C391 1.428 . S
H386 C382 0.930 . S
H387 C384 0.929 . S
S388 N389 1.613 . S
S388 N390 1.610 . S
N389 S388 1.613 . S
N389 C392 1.350 . S
N390 S388 1.610 . S
N390 C391 1.351 . S
C391 C385 1.428 . S
C391 N390 1.351 . S
C391 C392 1.434 . S
C392 C383 1.429 . S
C392 N389 1.350 . S
C392 C391 1.434 . S
C393 C394 1.369 . S
C393 C395 1.419 . S
C393 H397 0.930 . S
C394 C393 1.369 . S
C394 C403 1.429 . S
C395 C393 1.419 . S
C395 C396 1.363 . S
C395 H398 0.929 . S
C396 C395 1.363 . S
C396 C402 1.428 . S
H397 C393 0.930 . S
H398 C395 0.929 . S
S399 N400 1.613 . S
S399 N401 1.610 . S
N400 S399 1.613 . S
N400 C403 1.350 . S
N401 S399 1.610 . S
N401 C402 1.351 . S
C402 C396 1.428 . S
C402 N401 1.351 . S
C402 C403 1.434 . S
C403 C394 1.429 . S
C403 N400 1.350 . S
C403 C402 1.434 . S
C404 C405 1.369 . S
C404 C406 1.419 . S
C404 H408 0.930 . S
C405 C404 1.369 . S
C405 C414 1.429 . S
C406 C404 1.419 . S
C406 C407 1.363 . S
C406 H409 0.929 . S
C407 C406 1.363 . S
C407 C413 1.428 . S
H408 C404 0.930 . S
H409 C406 0.929 . S
S410 N411 1.613 . S
S410 N412 1.610 . S
N411 S410 1.613 . S
N411 C414 1.350 . S
N412 S410 1.610 . S
N412 C413 1.351 . S
C413 C407 1.428 . S
C413 N412 1.351 . S
C413 C414 1.434 . S
C414 C405 1.429 . S
C414 N411 1.350 . S
C414 C413 1.434 . S
C415 C416 1.369 . S
C415 C417 1.419 . S
C415 H419 0.930 . S
C416 C415 1.369 . S
C416 C425 1.429 . S
C417 C415 1.419 . S
C417 C418 1.363 . S
C417 H420 0.929 . S
C418 C417 1.363 . S
C418 C424 1.428 . S
H419 C415 0.930 . S
H420 C417 0.929 . S
S421 N422 1.613 . S
S421 N423 1.610 . S
N422 S421 1.613 . S
N422 C425 1.350 . S
N423 S421 1.610 . S
N423 C424 1.351 . S
C424 C418 1.428 . S
C424 N423 1.351 . S
C424 C425 1.434 . S
C425 C416 1.429 . S
C425 N422 1.350 . S
C425 C424 1.434 . S
C426 C427 1.369 . S
C426 C428 1.419 . S
C426 H430 0.930 . S
C427 C426 1.369 . S
C427 C436 1.429 . S
C428 C426 1.419 . S
C428 C429 1.363 . S
C428 H431 0.929 . S
C429 C428 1.363 . S
C429 C435 1.428 . S
H430 C426 0.930 . S
H431 C428 0.929 . S
S432 N433 1.613 . S
S432 N434 1.610 . S
N433 S432 1.613 . S
N433 C436 1.350 . S
N434 S432 1.610 . S
N434 C435 1.351 . S
C435 C429 1.428 . S
C435 N434 1.351 . S
C435 C436 1.434 . S
C436 C427 1.429 . S
C436 N433 1.350 . S
C436 C435 1.434 . S
C437 C438 1.369 . S
C437 C439 1.419 . S
C437 H441 0.930 . S
C438 C437 1.369 . S
C438 C447 1.429 . S
C439 C437 1.419 . S
C439 C440 1.363 . S
C439 H442 0.929 . S
C440 C439 1.363 . S
C440 C446 1.428 . S
H441 C437 0.930 . S
H442 C439 0.929 . S
S443 N444 1.613 . S
S443 N445 1.610 . S
N444 S443 1.613 . S
N444 C447 1.350 . S
N445 S443 1.610 . S
N445 C446 1.351 . S
C446 C440 1.428 . S
C446 N445 1.351 . S
C446 C447 1.434 . S
C447 C438 1.429 . S
C447 N444 1.350 . S
C447 C446 1.434 . S
C448 C449 1.369 . S
C448 C450 1.419 . S
C448 H452 0.930 . S
C449 C448 1.369 . S
C449 C458 1.429 . S
C450 C448 1.419 . S
C450 C451 1.363 . S
C450 H453 0.929 . S
C451 C450 1.363 . S
C451 C457 1.428 . S
H452 C448 0.930 . S
H453 C450 0.929 . S
S454 N455 1.613 . S
S454 N456 1.610 . S
N455 S454 1.613 . S
N455 C458 1.350 . S
N456 S454 1.610 . S
N456 C457 1.351 . S
C457 C451 1.428 . S
C457 N456 1.351 . S
C457 C458 1.434 . S
C458 C449 1.429 . S
C458 N455 1.350 . S
C458 C457 1.434 . S
C459 C460 1.369 . S
C459 C461 1.419 . S
C459 H463 0.930 . S
C460 C459 1.369 . S
C460 C469 1.429 . S
C461 C459 1.419 . S
C461 C462 1.363 . S
C461 H464 0.929 . S
C462 C461 1.363 . S
C462 C468 1.428 . S
H463 C459 0.930 . S
H464 C461 0.929 . S
S465 N466 1.613 . S
S465 N467 1.610 . S
N466 S465 1.613 . S
N466 C469 1.350 . S
N467 S465 1.610 . S
N467 C468 1.351 . S
C468 C462 1.428 . S
C468 N467 1.351 . S
C468 C469 1.434 . S
C469 C460 1.429 . S
C469 N466 1.350 . S
C469 C468 1.434 . S
C470 C471 1.369 . S
C470 C472 1.419 . S
C470 H474 0.930 . S
C471 C470 1.369 . S
C471 C480 1.429 . S
C472 C470 1.419 . S
C472 C473 1.363 . S
C472 H475 0.929 . S
C473 C472 1.363 . S
C473 C479 1.428 . S
H474 C470 0.930 . S
H475 C472 0.929 . S
S476 N477 1.613 . S
S476 N478 1.610 . S
N477 S476 1.613 . S
N477 C480 1.350 . S
N478 S476 1.610 . S
N478 C479 1.351 . S
C479 C473 1.428 . S
C479 N478 1.351 . S
C479 C480 1.434 . S
C480 C471 1.429 . S
C480 N477 1.350 . S
C480 C479 1.434 . S
C481 C482 1.369 . S
C481 C483 1.419 . S
C481 H485 0.930 . S
C482 C481 1.369 . S
C482 C491 1.429 1_545 S
C483 C481 1.419 . S
C483 C484 1.363 1_545 S
C483 H486 0.929 . S
C484 C483 1.363 1_565 S
C484 C490 1.428 . S
H485 C481 0.930 . S
H486 C483 0.929 . S
S487 N488 1.613 . S
S487 N489 1.610 . S
N488 S487 1.613 . S
N488 C491 1.350 . S
N489 S487 1.610 . S
N489 C490 1.351 . S
C490 C484 1.428 . S
C490 N489 1.351 . S
C490 C491 1.434 . S
C491 C482 1.429 1_565 S
C491 N488 1.350 . S
C491 C490 1.434 . S
C492 C493 1.369 1_556 S
C492 C494 1.419 . S
C492 H496 0.930 . S
C493 C492 1.369 1_554 S
C493 C502 1.429 . S
C494 C492 1.419 . S
C494 C495 1.363 . S
C494 H497 0.929 . S
C495 C494 1.363 . S
C495 C501 1.428 . S
H496 C492 0.930 . S
H497 C494 0.929 . S
S498 N499 1.613 . S
S498 N500 1.610 1_554 S
N499 S498 1.613 . S
N499 C502 1.350 . S
N500 S498 1.610 1_556 S
N500 C501 1.351 . S
C501 C495 1.428 . S
C501 N500 1.351 . S
C501 C502 1.434 1_556 S
C502 C493 1.429 . S
C502 N499 1.350 . S
C502 C501 1.434 1_554 S
C503 C504 1.369 . S
C503 C505 1.419 1_655 S
C503 H507 0.930 . S
C504 C503 1.369 . S
C504 C513 1.429 . S
C505 C503 1.419 1_455 S
C505 C506 1.363 . S
C505 H508 0.929 . S
C506 C505 1.363 . S
C506 C512 1.428 . S
H507 C503 0.930 . S
H508 C505 0.929 . S
S509 N510 1.613 1_554 S
S509 N511 1.610 1_655 S
N510 S509 1.613 1_556 S
N510 C513 1.350 . S
N511 S509 1.610 1_455 S
N511 C512 1.351 1_554 S
C512 C506 1.428 . S
C512 N511 1.351 1_556 S
C512 C513 1.434 1_455 S
C513 C504 1.429 . S
C513 N510 1.350 . S
C513 C512 1.434 1_655 S
C514 C515 1.369 . S
C514 C516 1.419 . S
C514 H518 0.930 . S
C515 C514 1.369 . S
C515 C524 1.429 . S
C516 C514 1.419 . S
C516 C517 1.363 1_556 S
C516 H519 0.929 . S
C517 C516 1.363 1_554 S
C517 C523 1.428 . S
H518 C514 0.930 . S
H519 C516 0.929 . S
S520 N521 1.613 1_554 S
S520 N522 1.610 . S
N521 S520 1.613 1_556 S
N521 C524 1.350 . S
N522 S520 1.610 . S
N522 C523 1.351 . S
C523 C517 1.428 . S
C523 N522 1.351 . S
C523 C524 1.434 1_554 S
C524 C515 1.429 . S
C524 N521 1.350 . S
C524 C523 1.434 1_556 S
C525 C526 1.369 . S
C525 C527 1.419 . S
C525 H529 0.930 . S
C526 C525 1.369 . S
C526 C535 1.429 . S
C527 C525 1.419 . S
C527 C528 1.363 . S
C527 H530 0.929 . S
C528 C527 1.363 . S
C528 C534 1.428 . S
H529 C525 0.930 . S
H530 C527 0.929 . S
S531 N532 1.613 . S
S531 N533 1.610 . S
N532 S531 1.613 . S
N532 C535 1.350 1_455 S
N533 S531 1.610 . S
N533 C534 1.351 1_455 S
C534 C528 1.428 . S
C534 N533 1.351 1_655 S
C534 C535 1.434 . S
C535 C526 1.429 . S
C535 N532 1.350 1_655 S
C535 C534 1.434 . S
C536 C537 1.369 1_554 S
C536 C538 1.419 1_554 S
C536 H540 0.930 . S
C537 C536 1.369 1_556 S
C537 C546 1.429 . S
C538 C536 1.419 1_556 S
C538 C539 1.363 . S
C538 H541 0.929 . S
C539 C538 1.363 . S
C539 C545 1.428 . S
H540 C536 0.930 . S
H541 C538 0.929 . S
S542 N543 1.613 . S
S542 N544 1.610 . S
N543 S542 1.613 . S
N543 C546 1.350 . S
N544 S542 1.610 . S
N544 C545 1.351 . S
C545 C539 1.428 . S
C545 N544 1.351 . S
C545 C546 1.434 . S
C546 C537 1.429 . S
C546 N543 1.350 . S
C546 C545 1.434 . S
C547 C548 1.369 . S
C547 C549 1.419 1_556 S
C547 H551 0.930 . S
C548 C547 1.369 . S
C548 C557 1.429 . S
C549 C547 1.419 1_554 S
C549 C550 1.363 . S
C549 H552 0.929 . S
C550 C549 1.363 . S
C550 C556 1.428 1_554 S
H551 C547 0.930 . S
H552 C549 0.929 . S
S553 N554 1.613 . S
S553 N555 1.610 . S
N554 S553 1.613 . S
N554 C557 1.350 . S
N555 S553 1.610 . S
N555 C556 1.351 . S
C556 C550 1.428 1_556 S
C556 N555 1.351 . S
C556 C557 1.434 . S
C557 C548 1.429 . S
C557 N554 1.350 . S
C557 C556 1.434 . S
C558 C559 1.369 . S
C558 C560 1.419 . S
C558 H562 0.930 . S
C559 C558 1.369 . S
C559 C568 1.429 . S
C560 C558 1.419 . S
C560 C561 1.363 . S
C560 H563 0.929 . S
C561 C560 1.363 . S
C561 C567 1.428 . S
H562 C558 0.930 . S
H563 C560 0.929 . S
S564 N565 1.613 1_565 S
S564 N566 1.610 . S
N565 S564 1.613 1_545 S
N565 C568 1.350 . S
N566 S564 1.610 . S
N566 C567 1.351 1_565 S
C567 C561 1.428 . S
C567 N566 1.351 1_545 S
C567 C568 1.434 . S
C568 C559 1.429 . S
C568 N565 1.350 . S
C568 C567 1.434 . S
C569 C570 1.369 . S
C569 C571 1.419 . S
C569 H573 0.930 . S
C570 C569 1.369 . S
C570 C579 1.429 . S
C571 C569 1.419 . S
C571 C572 1.363 . S
C571 H574 0.929 . S
C572 C571 1.363 . S
C572 C578 1.428 . S
H573 C569 0.930 . S
H574 C571 0.929 . S
S575 N576 1.613 . S
S575 N577 1.610 . S
N576 S575 1.613 . S
N576 C579 1.350 . S
N577 S575 1.610 . S
N577 C578 1.351 . S
C578 C572 1.428 . S
C578 N577 1.351 . S
C578 C579 1.434 . S
C579 C570 1.429 . S
C579 N576 1.350 . S
C579 C578 1.434 . S
C580 C581 1.369 . S
C580 C582 1.419 . S
C580 H584 0.930 . S
C581 C580 1.369 . S
C581 C590 1.429 . S
C582 C580 1.419 . S
C582 C583 1.363 . S
C582 H585 0.929 . S
C583 C582 1.363 . S
C583 C589 1.428 . S
H584 C580 0.930 . S
H585 C582 0.929 . S
S586 N587 1.613 . S
S586 N588 1.610 . S
N587 S586 1.613 . S
N587 C590 1.350 . S
N588 S586 1.610 . S
N588 C589 1.351 . S
C589 C583 1.428 . S
C589 N588 1.351 . S
C589 C590 1.434 . S
C590 C581 1.429 . S
C590 N587 1.350 . S
C590 C589 1.434 . S
C591 C592 1.369 . S
C591 C593 1.419 . S
C591 H595 0.930 . S
C592 C591 1.369 . S
C592 C601 1.429 . S
C593 C591 1.419 . S
C593 C594 1.363 . S
C593 H596 0.929 . S
C594 C593 1.363 . S
C594 C600 1.428 . S
H595 C591 0.930 . S
H596 C593 0.929 . S
S597 N598 1.613 . S
S597 N599 1.610 . S
N598 S597 1.613 . S
N598 C601 1.350 . S
N599 S597 1.610 . S
N599 C600 1.351 . S
C600 C594 1.428 . S
C600 N599 1.351 . S
C600 C601 1.434 . S
C601 C592 1.429 . S
C601 N598 1.350 . S
C601 C600 1.434 . S
C602 C603 1.369 . S
C602 C604 1.419 1_545 S
C602 H606 0.930 . S
C603 C602 1.369 . S
C603 C612 1.429 . S
C604 C602 1.419 1_565 S
C604 C605 1.363 . S
C604 H607 0.929 . S
C605 C604 1.363 . S
C605 C611 1.428 1_565 S
H606 C602 0.930 . S
H607 C604 0.929 . S
S608 N609 1.613 . S
S608 N610 1.610 . S
N609 S608 1.613 . S
N609 C612 1.350 . S
N610 S608 1.610 . S
N610 C611 1.351 . S
C611 C605 1.428 1_545 S
C611 N610 1.351 . S
C611 C612 1.434 . S
C612 C603 1.429 . S
C612 N609 1.350 . S
C612 C611 1.434 . S
C613 C614 1.369 1_455 S
C613 C615 1.419 . S
C613 H617 0.930 . S
C614 C613 1.369 1_655 S
C614 C623 1.429 . S
C615 C613 1.419 . S
C615 C616 1.363 . S
C615 H618 0.929 . S
C616 C615 1.363 . S
C616 C622 1.428 1_455 S
H617 C613 0.930 . S
H618 C615 0.929 . S
S619 N620 1.613 . S
S619 N621 1.610 . S
N620 S619 1.613 . S
N620 C623 1.350 . S
N621 S619 1.610 . S
N621 C622 1.351 . S
C622 C616 1.428 1_655 S
C622 N621 1.351 . S
C622 C623 1.434 . S
C623 C614 1.429 . S
C623 N620 1.350 . S
C623 C622 1.434 . S
C624 C625 1.369 . S
C624 C626 1.419 . S
C624 H628 0.930 . S
C625 C624 1.369 . S
C625 C634 1.429 . S
C626 C624 1.419 . S
C626 C627 1.363 . S
C626 H629 0.929 . S
C627 C626 1.363 . S
C627 C633 1.428 . S
H628 C624 0.930 . S
H629 C626 0.929 . S
S630 N631 1.613 . S
S630 N632 1.610 . S
N631 S630 1.613 . S
N631 C634 1.350 . S
N632 S630 1.610 . S
N632 C633 1.351 . S
C633 C627 1.428 . S
C633 N632 1.351 . S
C633 C634 1.434 . S
C634 C625 1.429 . S
C634 N631 1.350 . S
C634 C633 1.434 . S
C635 C636 1.369 1_545 S
C635 C637 1.419 . S
C635 H639 0.930 . S
C636 C635 1.369 1_565 S
C636 C645 1.429 1_565 S
C637 C635 1.419 . S
C637 C638 1.363 . S
C637 H640 0.929 . S
C638 C637 1.363 . S
C638 C644 1.428 . S
H639 C635 0.930 . S
H640 C637 0.929 . S
S641 N642 1.613 1_545 S
S641 N643 1.610 . S
N642 S641 1.613 1_565 S
N642 C645 1.350 1_565 S
N643 S641 1.610 . S
N643 C644 1.351 . S
C644 C638 1.428 . S
C644 N643 1.351 . S
C644 C645 1.434 . S
C645 C636 1.429 1_545 S
C645 N642 1.350 1_545 S
C645 C644 1.434 . S
C646 C647 1.369 1_455 S
C646 C648 1.419 . S
C646 H650 0.930 . S
C647 C646 1.369 1_655 S
C647 C656 1.429 . S
C648 C646 1.419 . S
C648 C649 1.363 . S
C648 H651 0.929 . S
C649 C648 1.363 . S
C649 C655 1.428 1_455 S
H650 C646 0.930 . S
H651 C648 0.929 . S
S652 N653 1.613 . S
S652 N654 1.610 . S
N653 S652 1.613 . S
N653 C656 1.350 . S
N654 S652 1.610 . S
N654 C655 1.351 . S
C655 C649 1.428 1_655 S
C655 N654 1.351 . S
C655 C656 1.434 . S
C656 C647 1.429 . S
C656 N653 1.350 . S
C656 C655 1.434 . S
C361 C9 3.612 . S
C363 C18 3.614 . S
C372 C58 3.716 . S
C374 C49 3.716 . S
C383 C89 3.761 . S
C385 C98 3.762 . S
C394 C138 3.613 . S
C396 C129 3.614 1_556 S
C405 C169 3.716 . S
C407 C178 3.717 1_556 S
C416 C218 3.761 . S
C418 C209 3.762 1_556 S
C427 C246 0.308 . S
C429 C255 0.312 . S
C438 C295 0.289 . S
C440 C286 0.310 . S
C449 C326 0.699 . S
C451 C335 0.680 . S
C460 C210 1.585 . S
C462 C6 1.619 . S
C471 C50 2.662 . S
C473 C130 2.702 . S
C482 C86 1.212 . S
C484 C166 1.228 . S
C493 C90 3.120 . S
C495 C259 3.308 . S
C504 C298 1.372 . S
C506 C10 1.272 . S
C515 C339 2.260 . S
C517 C46 2.052 . S
C526 C329 1.165 . S
C528 C15 1.054 . S
C537 C59 2.397 1_556 S
C539 C249 2.470 . S
C548 C290 3.228 . S
C550 C95 2.952 . S
C559 C99 1.585 . S
C561 C135 1.617 . S
C570 C179 2.661 . S
C572 C19 2.701 . S
C581 C55 1.230 . S
C583 C215 1.213 . S
C592 C338 1.163 . S
C594 C126 1.055 . S
C603 C258 2.469 . S
C605 C170 2.402 . S
C614 C299 3.226 . S
C616 C206 2.958 . S
C625 C250 3.308 . S
C627 C219 3.122 . S
C636 C139 1.263 . S
C638 C289 1.370 . S
C647 C330 2.259 . S
C649 C175 2.053 . S
