# Generated by pormake.
# Topology wmi, (6)-cn, num edge types: 1
# Building blocks:
#     Node 0, Type 0, BuildingBlock: BETDAH_clean_sbu_0, # of connection points: 6
#     Node 1, Type 0, BuildingBlock: BETDAH_clean_sbu_0, # of connection points: 6
#     Node 2, Type 0, BuildingBlock: BETDAH_clean_sbu_0, # of connection points: 6
#     Node 3, Type 0, BuildingBlock: BETDAH_clean_sbu_0, # of connection points: 6
#     Node 4, Type 0, BuildingBlock: BETDAH_clean_sbu_0, # of connection points: 6
#     Node 5, Type 0, BuildingBlock: BETDAH_clean_sbu_0, # of connection points: 6
#     Node 6, Type 0, BuildingBlock: BETDAH_clean_sbu_0, # of connection points: 6
#     Node 7, Type 0, BuildingBlock: BETDAH_clean_sbu_0, # of connection points: 6
#     Node 8, Type 0, BuildingBlock: BETDAH_clean_sbu_0, # of connection points: 6
#     Node 9, Type 0, BuildingBlock: BETDAH_clean_sbu_0, # of connection points: 6
#     Node 10, Type 0, BuildingBlock: BETDAH_clean_sbu_0, # of connection points: 6
#     Node 11, Type 0, BuildingBlock: BETDAH_clean_sbu_0, # of connection points: 6
#     Node 12, Type 0, BuildingBlock: BETDAH_clean_sbu_0, # of connection points: 6
#     Node 13, Type 0, BuildingBlock: BETDAH_clean_sbu_0, # of connection points: 6
#     Node 14, Type 0, BuildingBlock: BETDAH_clean_sbu_0, # of connection points: 6
#     Node 15, Type 0, BuildingBlock: BETDAH_clean_sbu_0, # of connection points: 6
#     Node 16, Type 0, BuildingBlock: BETDAH_clean_sbu_0, # of connection points: 6
#     Node 17, Type 0, BuildingBlock: BETDAH_clean_sbu_0, # of connection points: 6
#     Edge 18, Type (0, 0), BuildingBlock: EZIPEK_clean_linker_0, # of connection points: 2
#     Edge 19, Type (0, 0), BuildingBlock: EZIPEK_clean_linker_0, # of connection points: 2
#     Edge 20, Type (0, 0), BuildingBlock: EZIPEK_clean_linker_0, # of connection points: 2
#     Edge 21, Type (0, 0), BuildingBlock: EZIPEK_clean_linker_0, # of connection points: 2
#     Edge 22, Type (0, 0), BuildingBlock: EZIPEK_clean_linker_0, # of connection points: 2
#     Edge 23, Type (0, 0), BuildingBlock: EZIPEK_clean_linker_0, # of connection points: 2
#     Edge 24, Type (0, 0), BuildingBlock: EZIPEK_clean_linker_0, # of connection points: 2
#     Edge 25, Type (0, 0), BuildingBlock: EZIPEK_clean_linker_0, # of connection points: 2
#     Edge 26, Type (0, 0), BuildingBlock: EZIPEK_clean_linker_0, # of connection points: 2
#     Edge 27, Type (0, 0), BuildingBlock: EZIPEK_clean_linker_0, # of connection points: 2
#     Edge 28, Type (0, 0), BuildingBlock: EZIPEK_clean_linker_0, # of connection points: 2
#     Edge 29, Type (0, 0), BuildingBlock: EZIPEK_clean_linker_0, # of connection points: 2
#     Edge 30, Type (0, 0), BuildingBlock: EZIPEK_clean_linker_0, # of connection points: 2
#     Edge 31, Type (0, 0), BuildingBlock: EZIPEK_clean_linker_0, # of connection points: 2
#     Edge 32, Type (0, 0), BuildingBlock: EZIPEK_clean_linker_0, # of connection points: 2
#     Edge 33, Type (0, 0), BuildingBlock: EZIPEK_clean_linker_0, # of connection points: 2
#     Edge 34, Type (0, 0), BuildingBlock: EZIPEK_clean_linker_0, # of connection points: 2
#     Edge 35, Type (0, 0), BuildingBlock: EZIPEK_clean_linker_0, # of connection points: 2
#     Edge 36, Type (0, 0), BuildingBlock: EZIPEK_clean_linker_0, # of connection points: 2
#     Edge 37, Type (0, 0), BuildingBlock: EZIPEK_clean_linker_0, # of connection points: 2
#     Edge 38, Type (0, 0), BuildingBlock: EZIPEK_clean_linker_0, # of connection points: 2
#     Edge 39, Type (0, 0), BuildingBlock: EZIPEK_clean_linker_0, # of connection points: 2
#     Edge 40, Type (0, 0), BuildingBlock: EZIPEK_clean_linker_0, # of connection points: 2
#     Edge 41, Type (0, 0), BuildingBlock: EZIPEK_clean_linker_0, # of connection points: 2
#     Edge 42, Type (0, 0), BuildingBlock: EZIPEK_clean_linker_0, # of connection points: 2
#     Edge 43, Type (0, 0), BuildingBlock: EZIPEK_clean_linker_0, # of connection points: 2
#     Edge 44, Type (0, 0), BuildingBlock: EZIPEK_clean_linker_0, # of connection points: 2
#     Edge 45, Type (0, 0), BuildingBlock: EZIPEK_clean_linker_0, # of connection points: 2
#     Edge 46, Type (0, 0), BuildingBlock: EZIPEK_clean_linker_0, # of connection points: 2
#     Edge 47, Type (0, 0), BuildingBlock: EZIPEK_clean_linker_0, # of connection points: 2
#     Edge 48, Type (0, 0), BuildingBlock: EZIPEK_clean_linker_0, # of connection points: 2
#     Edge 49, Type (0, 0), BuildingBlock: EZIPEK_clean_linker_0, # of connection points: 2
#     Edge 50, Type (0, 0), BuildingBlock: EZIPEK_clean_linker_0, # of connection points: 2
#     Edge 51, Type (0, 0), BuildingBlock: EZIPEK_clean_linker_0, # of connection points: 2
#     Edge 52, Type (0, 0), BuildingBlock: EZIPEK_clean_linker_0, # of connection points: 2
#     Edge 53, Type (0, 0), BuildingBlock: EZIPEK_clean_linker_0, # of connection points: 2
#     Edge 54, Type (0, 0), BuildingBlock: EZIPEK_clean_linker_0, # of connection points: 2
#     Edge 55, Type (0, 0), BuildingBlock: EZIPEK_clean_linker_0, # of connection points: 2
#     Edge 56, Type (0, 0), BuildingBlock: EZIPEK_clean_linker_0, # of connection points: 2
#     Edge 57, Type (0, 0), BuildingBlock: EZIPEK_clean_linker_0, # of connection points: 2
#     Edge 58, Type (0, 0), BuildingBlock: EZIPEK_clean_linker_0, # of connection points: 2
#     Edge 59, Type (0, 0), BuildingBlock: EZIPEK_clean_linker_0, # of connection points: 2
#     Edge 60, Type (0, 0), BuildingBlock: EZIPEK_clean_linker_0, # of connection points: 2
#     Edge 61, Type (0, 0), BuildingBlock: EZIPEK_clean_linker_0, # of connection points: 2
#     Edge 62, Type (0, 0), BuildingBlock: EZIPEK_clean_linker_0, # of connection points: 2
#     Edge 63, Type (0, 0), BuildingBlock: EZIPEK_clean_linker_0, # of connection points: 2
#     Edge 64, Type (0, 0), BuildingBlock: EZIPEK_clean_linker_0, # of connection points: 2
#     Edge 65, Type (0, 0), BuildingBlock: EZIPEK_clean_linker_0, # of connection points: 2
#     Edge 66, Type (0, 0), BuildingBlock: EZIPEK_clean_linker_0, # of connection points: 2
#     Edge 67, Type (0, 0), BuildingBlock: EZIPEK_clean_linker_0, # of connection points: 2
#     Edge 68, Type (0, 0), BuildingBlock: EZIPEK_clean_linker_0, # of connection points: 2
#     Edge 69, Type (0, 0), BuildingBlock: EZIPEK_clean_linker_0, # of connection points: 2
#     Edge 70, Type (0, 0), BuildingBlock: EZIPEK_clean_linker_0, # of connection points: 2
#     Edge 71, Type (0, 0), BuildingBlock: EZIPEK_clean_linker_0, # of connection points: 2
# Relax obj value: 0.110
# Max RMSD: 0.239
# Mean RMSD: 0.239
data_MOF--net-wmi--node1-BETDAH_clean_sbu_0--edge1-EZIPEK_clean_linker_0
_symmetry_space_group_name_H-M    P1
_symmetry_Int_Tables_number       1
_symmetry_cell_setting            triclinic
loop_
_symmetry_equiv_pos_as_xyz
'x, y, z'
_cell_length_a     32.048567
_cell_length_b     32.087772
_cell_length_c     56.772873
_cell_angle_alpha  90.187943
_cell_angle_beta   89.808663
_cell_angle_gamma 119.64884
loop_
_atom_site_label
_atom_site_type_symbol
_atom_site_fract_x
_atom_site_fract_y
_atom_site_fract_z
_atom_type_partial_charge
Ho0 Ho 0.54677 0.05898 0.11578 0.0
Ho1 Ho 0.44721 1.00619 0.09644 0.0
C2 C 0.49584 0.11963 0.10246 0.0
C3 C 0.63689 0.11412 0.1272 0.0
C4 C 0.68263 0.15903 0.12214 0.0
C5 C 0.69298 0.18091 0.09984 0.0
C6 C 0.73868 0.22016 0.09496 0.0
C7 C 0.77499 0.23819 0.11221 0.0
C8 C 0.76424 0.21686 0.13461 0.0
C9 C 0.71864 0.17768 0.13947 0.0
C10 C 0.47219 1.01396 0.14785 0.0
C11 C 0.50908 0.95072 0.10539 0.0
C12 C 0.3579 0.94119 0.09207 0.0
C13 C 0.3314 0.88781 0.09357 0.0
C14 C 0.30666 0.86491 0.11435 0.0
C15 C 0.27992 0.81478 0.11567 0.0
C16 C 0.27717 0.78644 0.09621 0.0
C17 C 0.3028 0.80897 0.07564 0.0
C18 C 0.32964 0.85915 0.07431 0.0
C19 C 0.51247 0.0488 0.06182 0.0
O20 O 0.5366 0.11877 0.10179 0.0
O21 O 0.45385 0.07913 0.1031 0.0
O22 O 0.60155 0.11693 0.13718 0.0
O23 O 0.62175 0.08026 0.11134 0.0
O24 O 0.5129 1.01474 0.14962 0.0
O25 O 0.47491 0.03836 0.13023 0.0
O26 O 0.46629 0.94723 0.10305 0.0
O27 O 0.54794 0.99218 0.10842 0.0
O28 O 0.38664 0.96085 0.07407 0.0
O29 O 0.37638 0.96436 0.11169 0.0
O30 O 0.47056 0.04588 0.06275 0.0
O31 O 0.51815 0.02825 0.07978 0.0
H32 H 0.66606 0.16713 0.08609 0.0
H33 H 0.74593 0.23625 0.07762 0.0
H34 H 0.79137 0.2302 0.14826 0.0
H35 H 0.7118 0.16119 0.15672 0.0
H36 H 0.30724 0.88578 0.12952 0.0
H37 H 0.26015 0.79812 0.13164 0.0
H38 H 0.30085 0.78772 0.06039 0.0
H39 H 0.34827 0.8754 0.05805 0.0
Ho40 Ho 1.02698 0.51436 0.11966 0.0
Ho41 Ho 0.08159 0.4665 0.10016 0.0
C42 C 0.96576 0.40517 0.09974 0.0
C43 C 0.97098 0.54839 0.13166 0.0
C44 C 0.92871 0.55325 0.12513 0.0
C45 C 0.9153 0.5533 0.10156 0.0
C46 C 0.87827 0.56319 0.09606 0.0
C47 C 0.85373 0.57289 0.11402 0.0
C48 C 0.86688 0.57211 0.13754 0.0
C49 C 0.90398 0.56257 0.14299 0.0
C50 C 0.07072 0.48349 0.15165 0.0
C51 C 0.13462 0.5845 0.10557 0.0
C52 C 0.14117 0.43458 0.10318 0.0
C53 C 0.19385 0.45895 0.10142 0.0
C54 C 0.22169 0.50635 0.10957 0.0
C55 C 0.27162 0.52858 0.10973 0.0
C56 C 0.29446 0.50362 0.1018 0.0
C57 C 0.26698 0.45677 0.09299 0.0
C58 C 0.21682 0.4345 0.09282 0.0
C59 C 0.06204 0.50211 0.06205 0.0
O60 O 0.96706 0.44613 0.1047 0.0
O61 O 1.00597 0.40263 0.09978 0.0
O62 O 0.96407 0.50658 0.13855 0.0
O63 O 1.00952 0.57132 0.11872 0.0
O64 O 0.06942 0.52304 0.15382 0.0
O65 O 0.04739 0.46308 0.13344 0.0
O66 O 0.13969 0.54587 0.10349 0.0
O67 O 0.09299 0.58099 0.11037 0.0
O68 O 0.11741 0.43106 0.08388 0.0
O69 O 0.12504 0.44741 0.12131 0.0
O70 O 0.08201 0.47558 0.06186 0.0
O71 O 0.04918 0.50675 0.08298 0.0
H72 H 0.93397 0.54651 0.08742 0.0
H73 H 0.8688 0.56341 0.07779 0.0
H74 H 0.84862 0.57933 0.15172 0.0
H75 H 0.91401 0.56336 0.16127 0.0
H76 H 0.20481 0.52576 0.11643 0.0
H77 H 0.29238 0.56479 0.1165 0.0
H78 H 0.28435 0.43724 0.08669 0.0
H79 H 0.19602 0.398 0.08645 0.0
Ho80 Ho 0.57751 0.54273 0.11711 0.0
Ho81 Ho 0.6109 0.63923 0.0992 0.0
C82 C 0.68632 0.59733 0.10398 0.0
C83 C 0.53434 0.45122 0.12669 0.0
C84 C 0.53315 0.4049 0.12232 0.0
C85 C 0.54785 0.39416 0.10082 0.0
C86 C 0.54192 0.34819 0.09674 0.0
C87 C 0.52078 0.31206 0.11398 0.0
C88 C 0.50667 0.3232 0.13547 0.0
C89 C 0.51289 0.36902 0.13959 0.0
C90 C 0.60356 0.61443 0.15115 0.0
C91 C 0.49783 0.57243 0.10582 0.0
C92 C 0.64515 0.73028 0.09295 0.0
C93 C 0.6212 0.75933 0.09361 0.0
C94 C 0.57354 0.73893 0.10155 0.0
C95 C 0.55071 0.76627 0.1028 0.0
C96 C 0.57499 0.81436 0.0958 0.0
C97 C 0.62232 0.8347 0.08732 0.0
C98 C 0.64535 0.80728 0.08626 0.0
C99 C 0.57678 0.57418 0.06395 0.0
O100 O 0.6485 0.55457 0.10611 0.0
O101 O 0.68114 0.63606 0.10287 0.0
O102 O 0.56911 0.4838 0.13944 0.0
O103 O 0.52276 0.46988 0.10924 0.0
O104 O 0.61513 0.58101 0.15132 0.0
O105 O 0.57946 0.60767 0.13279 0.0
O106 O 0.53289 0.61732 0.10456 0.0
O107 O 0.50657 0.537 0.10899 0.0
O108 O 0.63224 0.69948 0.07568 0.0
O109 O 0.64722 0.71159 0.11305 0.0
O110 O 0.56823 0.60913 0.06716 0.0
O111 O 0.6029 0.57397 0.08092 0.0
H112 H 0.56332 0.42105 0.08713 0.0
H113 H 0.55349 0.34067 0.0801 0.0
H114 H 0.49065 0.29622 0.14911 0.0
H115 H 0.50095 0.3762 0.15622 0.0
H116 H 0.55413 0.70206 0.10715 0.0
H117 H 0.51437 0.75018 0.10957 0.0
H118 H 0.64167 0.872 0.08205 0.0
H119 H 0.68203 0.82358 0.07996 0.0
Ho120 Ho 0.08314 0.53078 0.91155 0.0
Ho121 Ho 1.02333 0.43695 0.93236 0.0
C122 C 0.13713 0.47946 0.93156 0.0
C123 C 0.14705 0.61626 0.89665 0.0
C124 C 0.18517 0.66572 0.90314 0.0
C125 C 0.18759 0.68632 0.92538 0.0
C126 C 0.22361 0.7339 0.93024 0.0
C127 C 0.25787 0.76173 0.91299 0.0
C128 C 0.25552 0.74072 0.89092 0.0
C129 C 0.2197 0.69343 0.88609 0.0
C130 C 0.04343 0.45393 0.8797 0.0
C131 C 0.97761 0.50376 0.91905 0.0
C132 C 0.95315 0.35046 0.94073 0.0
C133 C 0.90032 0.32397 0.93749 0.0
C134 C 0.87871 0.33243 0.91789 0.0
C135 C 0.82905 0.30493 0.91431 0.0
C136 C 0.80011 0.26819 0.93011 0.0
C137 C 0.82154 0.26019 0.94985 0.0
C138 C 0.8712 0.28788 0.9535 0.0
C139 C 0.06329 0.50377 0.96655 0.0
O140 O 0.13796 0.5208 0.931 0.0
O141 O 0.09544 0.43869 0.93035 0.0
O142 O 0.15586 0.58122 0.90005 0.0
O143 O 0.1023 0.60341 0.90108 0.0
O144 O 0.04487 0.49469 0.8769 0.0
O145 O 0.06241 0.45663 0.89924 0.0
O146 O 0.97168 0.46008 0.91737 0.0
O147 O 1.02124 0.53993 0.92161 0.0
O148 O 0.97071 0.38423 0.95662 0.0
O149 O 0.97859 0.36348 0.92157 0.0
O150 O 0.05876 0.46134 0.96704 0.0
O151 O 0.04717 0.50987 0.94712 0.0
H152 H 0.16155 0.66583 0.93889 0.0
H153 H 0.22457 0.74915 0.94741 0.0
H154 H 0.28133 0.76114 0.8773 0.0
H155 H 0.21872 0.67854 0.86881 0.0
H156 H 0.90027 0.35992 0.90519 0.0
H157 H 0.81324 0.3117 0.89899 0.0
H158 H 0.79988 0.23204 0.96224 0.0
H159 H 0.88703 0.28054 0.96864 0.0
Ho160 Ho 0.56106 0.57109 0.90774 0.0
Ho161 Ho 0.65834 0.60894 0.9258 0.0
C162 C 0.60832 0.67525 0.93043 0.0
C163 C 0.47403 0.54684 0.89438 0.0
C164 C 0.42651 0.53822 0.90294 0.0
C165 C 0.40653 0.51507 0.92444 0.0
C166 C 0.35969 0.50391 0.9309 0.0
C167 C 0.33209 0.51579 0.91603 0.0
C168 C 0.35255 0.53977 0.89481 0.0
C169 C 0.39916 0.55078 0.88835 0.0
C170 C 0.63552 0.61185 0.87509 0.0
C171 C 0.59065 0.49416 0.91796 0.0
C172 C 0.7469 0.63102 0.92025 0.0
C173 C 0.77682 0.6079 0.92338 0.0
C174 C 0.77804 0.5785 0.90517 0.0
C175 C 0.80814 0.5589 0.90649 0.0
C176 C 0.83824 0.56842 0.92587 0.0
C177 C 0.83698 0.59699 0.94442 0.0
C178 C 0.80639 0.61668 0.94317 0.0
C179 C 0.60672 0.57456 0.96481 0.0
O180 O 0.56838 0.63429 0.92743 0.0
O181 O 0.65037 0.67628 0.92824 0.0
O182 O 0.50956 0.59086 0.89444 0.0
O183 O 0.48772 0.51625 0.90045 0.0
O184 O 0.5976 0.57006 0.87271 0.0
O185 O 0.63189 0.62679 0.89482 0.0
O186 O 0.63467 0.53092 0.9172 0.0
O187 O 0.55364 0.5009 0.91777 0.0
O188 O 0.73258 0.64574 0.93865 0.0
O189 O 0.7133 0.6102 0.90441 0.0
O190 O 0.65265 0.59257 0.96304 0.0
O191 O 0.58678 0.57251 0.94486 0.0
H192 H 0.42673 0.50487 0.93603 0.0
H193 H 0.34469 0.48538 0.94734 0.0
H194 H 0.33205 0.54925 0.88302 0.0
H195 H 0.41355 0.56834 0.87163 0.0
H196 H 0.7565 0.57132 0.88943 0.0
H197 H 0.80899 0.53733 0.89196 0.0
H198 H 0.86045 0.60498 0.95946 0.0
H199 H 0.80663 0.63947 0.95734 0.0
Ho200 Ho 0.52963 1.02046 0.90995 0.0
Ho201 Ho 0.4809 0.07298 0.92771 0.0
C202 C 0.41696 0.9587 0.92303 0.0
C203 C 0.56775 0.9664 0.9007 0.0
C204 C 0.56885 0.92117 0.90545 0.0
C205 C 0.55675 0.89855 0.92758 0.0
C206 C 0.56416 0.85964 0.9324 0.0
C207 C 0.58417 0.84267 0.91531 0.0
C208 C 0.59526 0.86462 0.89304 0.0
C209 C 0.58775 0.90341 0.88821 0.0
C210 C 0.50054 0.06389 0.87674 0.0
C211 C 0.59831 0.13048 0.91865 0.0
C212 C 0.45314 0.13615 0.93089 0.0
C213 C 0.47786 0.18924 0.92878 0.0
C214 C 0.46271 0.21041 0.91166 0.0
C215 C 0.48523 0.26041 0.90949 0.0
C216 C 0.52388 0.29032 0.92417 0.0
C217 C 0.53998 0.26915 0.94084 0.0
C218 C 0.51677 0.2192 0.94337 0.0
C219 C 0.50606 0.03472 0.96378 0.0
O220 O 0.4586 0.95945 0.92219 0.0
O221 O 0.41524 0.99929 0.92335 0.0
O222 O 0.53243 0.96488 0.88854 0.0
O223 O 0.58168 0.99809 0.91761 0.0
O224 O 0.5405 0.06291 0.87549 0.0
O225 O 0.47817 0.03984 0.89438 0.0
O226 O 0.5582 0.13295 0.92024 0.0
O227 O 0.59651 0.08888 0.91667 0.0
O228 O 0.46333 0.11819 0.94918 0.0
O229 O 0.45007 0.11268 0.91153 0.0
O230 O 0.46575 0.0349 0.96196 0.0
O231 O 0.53105 0.05377 0.94524 0.0
H232 H 0.54248 0.91154 0.9413 0.0
H233 H 0.55476 0.84304 0.94962 0.0
H234 H 0.61019 0.85202 0.87946 0.0
H235 H 0.59789 0.92039 0.87108 0.0
H236 H 0.43304 0.18823 0.90008 0.0
H237 H 0.47218 0.27583 0.89649 0.0
H238 H 0.5697 0.29141 0.95237 0.0
H239 H 0.52903 0.20416 0.9569 0.0
Ho240 Ho 0.21937 0.40127 0.44707 0.0
Ho241 Ho 0.11905 0.34353 0.42958 0.0
C242 C 0.16617 0.45747 0.43124 0.0
C243 C 0.30959 0.4599 0.45668 0.0
C244 C 0.35562 0.50302 0.44982 0.0
C245 C 0.3763 0.50746 0.42737 0.0
C246 C 0.42327 0.54448 0.42265 0.0
C247 C 0.45055 0.57774 0.44026 0.0
C248 C 0.42942 0.57413 0.46244 0.0
C249 C 0.38255 0.5372 0.46715 0.0
C250 C 0.14742 0.36356 0.4812 0.0
C251 C 0.18565 0.29235 0.43827 0.0
C252 C 1.02968 0.2775 0.42968 0.0
C253 C 1.00357 0.22436 0.43074 0.0
C254 C 0.97502 0.2014 0.45057 0.0
C255 C 0.94937 0.15134 0.45203 0.0
C256 C 0.95167 0.12325 0.43366 0.0
C257 C 0.98107 0.14596 0.41406 0.0
C258 C 1.0069 0.19612 0.41261 0.0
C259 C 0.18007 0.38118 0.39314 0.0
O260 O 0.20721 0.45734 0.43014 0.0
O261 O 0.12484 0.41674 0.43366 0.0
O262 O 0.2745 0.46527 0.46504 0.0
O263 O 0.29419 0.42152 0.44365 0.0
O264 O 0.18838 0.36481 0.48282 0.0
O265 O 0.14842 0.3826 0.46188 0.0
O266 O 0.14256 0.28693 0.43379 0.0
O267 O 0.22219 0.33427 0.44363 0.0
O268 O 0.05327 0.29828 0.41038 0.0
O269 O 0.05354 0.29905 0.44868 0.0
O270 O 0.13738 0.37646 0.39422 0.0
O271 O 0.18902 0.36522 0.41203 0.0
H272 H 0.35678 0.48154 0.41366 0.0
H273 H 0.43874 0.54658 0.40541 0.0
H274 H 0.44966 0.59936 0.47628 0.0
H275 H 0.36789 0.53436 0.48467 0.0
H276 H 0.97208 0.22227 0.46487 0.0
H277 H 0.92664 0.13448 0.4672 0.0
H278 H 0.98298 0.1248 0.39962 0.0
H279 H 1.02892 0.21265 0.3972 0.0
Ho280 Ho 0.70263 0.84855 0.4484 0.0
Ho281 Ho 0.7611 0.80645 0.43042 0.0
C282 C 0.64512 0.73745 0.43273 0.0
C283 C 0.64623 0.8833 0.45848 0.0
C284 C 0.60199 0.88544 0.45274 0.0
C285 C 0.58274 0.87721 0.42985 0.0
C286 C 0.54436 0.88523 0.42454 0.0
C287 C 0.52475 0.90197 0.44194 0.0
C288 C 0.54355 0.9094 0.46486 0.0
C289 C 0.58164 0.90116 0.47017 0.0
C290 C 0.74934 0.82278 0.48172 0.0
C291 C 0.81195 0.92024 0.43869 0.0
C292 C 0.81936 0.77319 0.42774 0.0
C293 C 0.87266 0.80016 0.42867 0.0
C294 C 0.89655 0.83465 0.44647 0.0
C295 C 0.94662 0.85909 0.44797 0.0
C296 C 0.97399 0.85003 0.4316 0.0
C297 C 0.95056 0.81692 0.41333 0.0
C298 C 0.90023 0.79215 0.41187 0.0
C299 C 0.73936 0.85008 0.39523 0.0
O300 O 0.64246 0.77576 0.43902 0.0
O301 O 0.68699 0.73953 0.42823 0.0
O302 O 0.64236 0.84476 0.46837 0.0
O303 O 0.68164 0.90239 0.44337 0.0
O304 O 0.74605 0.86144 0.48303 0.0
O305 O 0.7269 0.8012 0.46372 0.0
O306 O 0.81743 0.88219 0.4411 0.0
O307 O 0.76868 0.91484 0.43723 0.0
O308 O 0.79903 0.77916 0.40904 0.0
O309 O 0.79777 0.77362 0.44724 0.0
O310 O 0.78064 0.85318 0.39887 0.0
O311 O 0.71105 0.8252 0.41183 0.0
H312 H 0.59796 0.86552 0.416 0.0
H313 H 0.53036 0.87902 0.40676 0.0
H314 H 0.529 0.92201 0.47861 0.0
H315 H 0.59607 0.90828 0.48788 0.0
H316 H 0.87658 0.8423 0.45956 0.0
H317 H 0.964 0.88425 0.46226 0.0
H318 H 0.97118 0.8093 0.40062 0.0
H319 H 0.88282 0.76625 0.39788 0.0
Ho320 Ho 0.24925 0.88086 0.44793 0.0
Ho321 Ho 0.29035 0.97957 0.43003 0.0
C322 C 0.35987 0.93146 0.43173 0.0
C323 C 0.21303 0.79049 0.45843 0.0
C324 C 0.20959 0.74356 0.4534 0.0
C325 C 0.22749 0.73425 0.43258 0.0
C326 C 0.21982 0.68782 0.4279 0.0
C327 C 0.19371 0.65005 0.44383 0.0
C328 C 0.17605 0.65973 0.46459 0.0
C329 C 0.18403 0.70593 0.46932 0.0
C330 C 0.27552 0.95298 0.48128 0.0
C331 C 0.17732 0.91795 0.43993 0.0
C332 C 0.32463 0.07106 0.42762 0.0
C333 C 0.30008 0.10022 0.42781 0.0
C334 C 0.29557 0.12041 0.44911 0.0
C335 C 0.27154 0.14682 0.44987 0.0
C336 C 0.2516 0.15391 0.42936 0.0
C337 C 0.25536 0.13336 0.40811 0.0
C338 C 0.27939 0.1068 0.40732 0.0
C339 C 0.24453 0.91482 0.39491 0.0
O340 O 0.32222 0.89245 0.43988 0.0
O341 O 0.35671 0.97026 0.42627 0.0
O342 O 0.25205 0.82455 0.46813 0.0
O343 O 0.19473 0.80682 0.44292 0.0
O344 O 0.23638 0.91192 0.48244 0.0
O345 O 0.2973 0.95197 0.46328 0.0
O346 O 0.2154 0.96096 0.4427 0.0
O347 O 0.18284 0.88056 0.43694 0.0
O348 O 0.31962 0.04469 0.409 0.0
O349 O 0.32133 0.04844 0.44723 0.0
O350 O 0.24115 0.95266 0.39926 0.0
O351 O 0.27031 0.91097 0.41102 0.0
H352 H 0.24696 0.76264 0.41994 0.0
H353 H 0.23414 0.68131 0.41187 0.0
H354 H 0.15618 0.63142 0.47722 0.0
H355 H 0.16954 0.71214 0.48538 0.0
H356 H 0.31082 0.11592 0.46527 0.0
H357 H 0.2694 0.16265 0.4664 0.0
H358 H 0.24059 0.13881 0.39203 0.0
H359 H 0.28189 0.09165 0.39066 0.0
Ho360 Ho 0.74464 0.86972 0.24071 0.0
Ho361 Ho 0.68541 0.77011 0.25911 0.0
C362 C 0.80271 0.81861 0.25722 0.0
C363 C 0.80029 0.95923 0.2289 0.0
C364 C 0.843 1.00663 0.23418 0.0
C365 C 0.8709 1.01565 0.25464 0.0
C366 C 0.90948 0.06208 0.25928 0.0
C367 C 0.92049 0.10028 0.24366 0.0
C368 C 0.89238 0.09092 0.22331 0.0
C369 C 0.85427 0.04475 0.21864 0.0
C370 C 0.7005 0.79508 0.20752 0.0
C371 C 0.63642 0.83521 0.2504 0.0
C372 C 0.62704 0.67879 0.26186 0.0
C373 C 0.57352 0.6498 0.26247 0.0
C374 C 0.54818 0.62974 0.24139 0.0
C375 C 0.49797 0.60374 0.2411 0.0
C376 C 0.47163 0.59668 0.26191 0.0
C377 C 0.49654 0.61672 0.28303 0.0
C378 C 0.54701 0.64304 0.28333 0.0
C379 C 0.7071 0.83589 0.29419 0.0
O380 O 0.805 0.86001 0.25305 0.0
O381 O 0.76083 0.77783 0.25945 0.0
O382 O 0.80649 0.92411 0.22129 0.0
O383 O 0.76329 0.94435 0.24296 0.0
O384 O 0.70236 0.83631 0.20598 0.0
O385 O 0.72152 0.7977 0.22629 0.0
O386 O 0.6302 0.79141 0.24785 0.0
O387 O 0.67978 0.87209 0.2521 0.0
O388 O 0.65003 0.70478 0.28029 0.0
O389 O 0.64452 0.70177 0.24217 0.0
O390 O 0.66577 0.79823 0.29051 0.0
O391 O 0.73532 0.83877 0.27755 0.0
H392 H 0.86277 0.98698 0.26701 0.0
H393 H 0.93082 0.06819 0.275 0.0
H394 H 0.90019 0.11945 0.2109 0.0
H395 H 0.83318 0.03889 0.20284 0.0
H396 H 0.56726 0.63415 0.22497 0.0
H397 H 0.47962 0.58835 0.22467 0.0
H398 H 0.47689 0.61129 0.29934 0.0
H399 H 0.56517 0.65796 0.29985 0.0
Ho400 Ho 0.22669 0.90113 0.24082 0.0
Ho401 Ho 0.32665 0.94286 0.25754 0.0
C402 C 0.27943 1.0123 0.25582 0.0
C403 C 0.13583 0.86687 0.23201 0.0
C404 C 0.09056 0.86505 0.23993 0.0
C405 C 0.06464 0.83733 0.25954 0.0
C406 C 1.01814 0.82892 0.2644 0.0
C407 C 0.99659 0.84829 0.24991 0.0
C408 C 1.02314 0.87752 0.23088 0.0
C409 C 0.06939 0.88549 0.22586 0.0
C410 C 0.29733 0.927 0.20667 0.0
C411 C 0.26497 0.82975 0.24842 0.0
C412 C 0.41817 0.97731 0.25875 0.0
C413 C 0.44686 0.95247 0.25833 0.0
C414 C 0.47058 0.95234 0.23742 0.0
C415 C 0.49572 0.9271 0.23604 0.0
C416 C 0.49782 0.90158 0.25556 0.0
C417 C 0.47351 0.90084 0.27636 0.0
C418 C 0.44825 0.92606 0.27776 0.0
C419 C 0.26268 0.89805 0.29338 0.0
O420 O 0.23843 0.97378 0.25036 0.0
O421 O 0.31931 1.0101 0.25967 0.0
O422 O 0.16971 0.90634 0.22252 0.0
O423 O 0.153 0.84548 0.24512 0.0
O424 O 0.25605 0.88813 0.20574 0.0
O425 O 0.29701 0.94887 0.22474 0.0
O426 O 0.30781 0.86786 0.24527 0.0
O427 O 0.2273 0.83493 0.25164 0.0
O428 O 0.39295 0.9735 0.27769 0.0
O429 O 0.3944 0.97268 0.23937 0.0
O430 O 0.30109 0.89558 0.28914 0.0
O431 O 0.25864 0.92336 0.27718 0.0
H432 H 0.07948 0.82054 0.27066 0.0
H433 H 0.99842 0.80617 0.2791 0.0
H434 H 1.00729 0.89274 0.21937 0.0
H435 H 0.0879 0.90624 0.21041 0.0
H436 H 0.46966 0.9718 0.22205 0.0
H437 H 0.51451 0.92843 0.21992 0.0
H438 H 0.47516 0.88172 0.2917 0.0
H439 H 0.42994 0.92486 0.29402 0.0
Ho440 Ho 0.19499 0.35323 0.24012 0.0
Ho441 Ho 0.15011 0.40772 0.25981 0.0
C442 C 0.08528 0.29369 0.25548 0.0
C443 C 0.22743 0.29532 0.22888 0.0
C444 C 0.22984 0.25168 0.23575 0.0
C445 C 0.24256 0.2454 0.25867 0.0
C446 C 0.25147 0.20758 0.26371 0.0
C447 C 0.24786 0.17521 0.24598 0.0
C448 C 0.23388 0.18071 0.22327 0.0
C449 C 0.22504 0.21848 0.21824 0.0
C450 C 0.16372 0.39688 0.20793 0.0
C451 C 0.26808 0.46094 0.25173 0.0
C452 C 0.12597 0.47346 0.26341 0.0
C453 C 0.1533 0.52652 0.26158 0.0
C454 C 0.18724 0.54941 0.24348 0.0
C455 C 0.21093 0.59936 0.2411 0.0
C456 C 0.20128 0.6274 0.25682 0.0
C457 C 0.16855 0.60483 0.27532 0.0
C458 C 0.14474 0.55478 0.27767 0.0
C459 C 0.17366 0.36706 0.29488 0.0
O460 O 0.12689 0.29461 0.25593 0.0
O461 O 0.08367 0.33433 0.25454 0.0
O462 O 0.18705 0.29045 0.22092 0.0
O463 O 0.25035 0.33347 0.24201 0.0
O464 O 0.20304 0.39496 0.20559 0.0
O465 O 0.14348 0.37396 0.22614 0.0
O466 O 0.22956 0.46569 0.25519 0.0
O467 O 0.26383 0.41924 0.24647 0.0
O468 O 0.13479 0.45439 0.28169 0.0
O469 O 0.12194 0.44976 0.244 0.0
O470 O 0.13449 0.36969 0.2939 0.0
O471 O 0.19869 0.38523 0.27619 0.0
H472 H 0.24688 0.27044 0.27256 0.0
H473 H 0.26209 0.20409 0.28136 0.0
H474 H 0.23074 0.15626 0.2093 0.0
H475 H 0.21585 0.22265 0.20038 0.0
H476 H 0.19482 0.52865 0.2309 0.0
H477 H 0.2359 0.61606 0.22666 0.0
H478 H 0.16051 0.62588 0.28756 0.0
H479 H 0.11895 0.53807 0.29179 0.0
Ho480 Ho 0.87966 0.73005 0.77844 0.0
Ho481 Ho 0.78048 0.67213 0.75795 0.0
C482 C 0.8315 0.78926 0.75918 0.0
C483 C 0.96712 0.78828 0.79286 0.0
C484 C 1.0151 0.82838 0.78614 0.0
C485 C 1.02436 0.85168 0.76434 0.0
C486 C 0.06998 0.89117 0.75935 0.0
C487 C 0.10699 0.91074 0.7766 0.0
C488 C 0.09831 0.88232 0.79708 0.0
C489 C 0.05305 0.84304 0.80205 0.0
C490 C 0.80214 0.69277 0.80961 0.0
C491 C 0.84816 0.6239 0.76613 0.0
C492 C 0.69308 0.60354 0.7634 0.0
C493 C 0.66312 0.55105 0.76021 0.0
C494 C 0.6399 0.52364 0.78027 0.0
C495 C 0.61346 0.47374 0.77914 0.0
C496 C 0.60962 0.44985 0.7579 0.0
C497 C 0.6333 0.47689 0.73774 0.0
C498 C 0.66007 0.5273 0.73889 0.0
C499 C 0.83754 0.68983 0.72067 0.0
O500 O 0.87219 0.78896 0.762 0.0
O501 O 0.78946 0.74815 0.75799 0.0
O502 O 0.93176 0.79731 0.79464 0.0
O503 O 0.95342 0.74623 0.78358 0.0
O504 O 0.84129 0.69086 0.81272 0.0
O505 O 0.80706 0.71271 0.79018 0.0
O506 O 0.80431 0.6177 0.76616 0.0
O507 O 0.88563 0.66681 0.76782 0.0
O508 O 0.70621 0.63312 0.74533 0.0
O509 O 0.72744 0.61518 0.77871 0.0
O510 O 0.79108 0.6671 0.72007 0.0
O511 O 0.85365 0.70489 0.74153 0.0
H512 H 0.99646 0.83918 0.75109 0.0
H513 H 0.07523 0.90463 0.74165 0.0
H514 H 0.12643 0.89017 0.80971 0.0
H515 H 0.04772 0.82405 0.81852 0.0
H516 H 0.64274 0.54091 0.79707 0.0
H517 H 0.59549 0.45371 0.79485 0.0
H518 H 0.63053 0.45899 0.72114 0.0
H519 H 0.67843 0.54748 0.7233 0.0
Ho520 Ho 0.36415 0.17712 0.7825 0.0
Ho521 Ho 0.41961 0.13008 0.76173 0.0
C522 C 0.30377 0.06871 0.76377 0.0
C523 C 0.30754 0.21007 0.79515 0.0
C524 C 0.26643 0.21667 0.78838 0.0
C525 C 0.24677 0.2072 0.76568 0.0
C526 C 0.20847 0.21528 0.76011 0.0
C527 C 0.18646 0.23035 0.77744 0.0
C528 C 0.21146 0.24546 0.79917 0.0
C529 C 0.24931 0.23725 0.80476 0.0
C530 C 0.40733 0.14306 0.814 0.0
C531 C 0.47066 0.24797 0.76731 0.0
C532 C 0.48361 0.10395 0.766 0.0
C533 C 0.53686 0.12971 0.76544 0.0
C534 C 0.56247 0.14712 0.7867 0.0
C535 C 0.61248 0.17056 0.78697 0.0
C536 C 0.63812 0.17688 0.76605 0.0
C537 C 0.61302 0.16067 0.74467 0.0
C538 C 0.5627 0.13715 0.74436 0.0
C539 C 0.39832 0.16552 0.72433 0.0
O540 O 0.30484 0.11008 0.76662 0.0
O541 O 0.34372 0.06555 0.76266 0.0
O542 O 0.29921 0.16683 0.80011 0.0
O543 O 0.34777 0.23499 0.78366 0.0
O544 O 0.40387 0.1813 0.81732 0.0
O545 O 0.38554 0.12592 0.79505 0.0
O546 O 0.47623 0.20981 0.76459 0.0
O547 O 0.42932 0.24411 0.77308 0.0
O548 O 0.45963 0.09775 0.74638 0.0
O549 O 0.46571 0.1164 0.78344 0.0
O550 O 0.41822 0.13885 0.72358 0.0
O551 O 0.38585 0.16981 0.74548 0.0
H552 H 0.26163 0.1945 0.75211 0.0
H553 H 0.19803 0.21096 0.74188 0.0
H554 H 0.20296 0.26477 0.81215 0.0
H555 H 0.26599 0.24804 0.82194 0.0
H556 H 0.54383 0.14197 0.80332 0.0
H557 H 0.63116 0.1824 0.80363 0.0
H558 H 0.63237 0.16486 0.72837 0.0
H559 H 0.54413 0.12421 0.72775 0.0
Ho560 Ho 0.92643 0.21671 0.77948 0.0
Ho561 Ho 0.95274 0.31022 0.7591 0.0
C562 C 1.02916 0.26894 0.76013 0.0
C563 C 0.88707 0.1262 0.79086 0.0
C564 C 0.88148 0.07862 0.78418 0.0
C565 C 0.86573 0.05848 0.76163 0.0
C566 C 0.85569 1.01141 0.75667 0.0
C567 C 0.86101 0.98333 0.77411 0.0
C568 C 0.87723 1.00359 0.79652 0.0
C569 C 0.88723 0.05058 0.80149 0.0
C570 C 0.96915 0.29364 0.81046 0.0
C571 C 0.84249 0.24349 0.77333 0.0
C572 C 0.97962 0.39949 0.75067 0.0
C573 C 0.95261 0.42571 0.74921 0.0
C574 C 0.90997 0.40983 0.76228 0.0
C575 C 0.88842 0.43832 0.76435 0.0
C576 C 0.90878 0.48299 0.75316 0.0
C577 C 0.95004 0.49803 0.73917 0.0
C578 C 0.97194 0.46961 0.73728 0.0
C579 C 0.91171 0.24061 0.72606 0.0
O580 O 0.99113 0.22627 0.761 0.0
O581 O 1.02427 0.3079 0.76094 0.0
O582 O 0.92829 0.15929 0.79922 0.0
O583 O 0.86699 0.14412 0.77732 0.0
O584 O 0.97493 0.25642 0.81084 0.0
O585 O 0.93749 0.28573 0.79525 0.0
O586 O 0.87531 0.28678 0.76665 0.0
O587 O 0.85419 0.21126 0.77959 0.0
O588 O 0.97353 0.36889 0.73396 0.0
O589 O 0.97843 0.38198 0.7714 0.0
O590 O 0.90093 0.27373 0.73023 0.0
O591 O 0.9414 0.24301 0.74175 0.0
H592 H 0.86044 0.07878 0.74792 0.0
H593 H 0.8435 0.99674 0.73922 0.0
H594 H 0.8819 0.98288 0.81024 0.0
H595 H 0.89866 0.06476 0.81909 0.0
H596 H 0.89454 0.37639 0.77185 0.0
H597 H 0.85676 0.42625 0.77529 0.0
H598 H 0.96627 0.53256 0.73048 0.0
H599 H 1.0049 0.48272 0.72728 0.0
Ho600 Ho 0.40771 0.20045 0.57365 0.0
Ho601 Ho 0.35574 0.10216 0.59312 0.0
C602 C 0.46936 0.15098 0.58759 0.0
C603 C 0.46194 0.29019 0.5617 0.0
C604 C 0.50677 0.33636 0.56583 0.0
C605 C 0.5341 0.34609 0.58653 0.0
C606 C 0.57416 0.3919 0.59036 0.0
C607 C 0.58717 0.4288 0.57369 0.0
C608 C 0.55977 0.41869 0.55303 0.0
C609 C 0.52022 0.37306 0.54914 0.0
C610 C 0.36288 0.12626 0.54135 0.0
C611 C 0.29902 0.16194 0.58294 0.0
C612 C 0.29071 1.01353 0.59942 0.0
C613 C 0.23737 0.98751 0.59777 0.0
C614 C 0.21381 0.98167 0.57608 0.0
C615 C 0.1636 0.95531 0.57467 0.0
C616 C 0.13588 0.93426 0.5949 0.0
C617 C 0.15918 0.94149 0.61671 0.0
C618 C 0.20938 0.96766 0.61811 0.0
C619 C 0.39568 0.16803 0.6279 0.0
O620 O 0.46804 0.19145 0.58801 0.0
O621 O 0.42901 0.10889 0.58702 0.0
O622 O 0.46462 0.25485 0.55172 0.0
O623 O 0.4291 0.2754 0.57808 0.0
O624 O 0.36373 0.16696 0.53981 0.0
O625 O 0.38736 0.12859 0.55896 0.0
O626 O 0.29635 0.11945 0.58408 0.0
O627 O 0.34064 0.20124 0.58146 0.0
O628 O 0.30963 0.04423 0.61669 0.0
O629 O 0.3148 0.02964 0.57978 0.0
O630 O 0.39481 0.12717 0.62706 0.0
O631 O 0.37569 0.17274 0.60947 0.0
H632 H 0.52423 0.31853 0.59977 0.0
H633 H 0.59485 0.39866 0.60637 0.0
H634 H 0.56908 0.44627 0.53985 0.0
H635 H 0.49952 0.36662 0.53315 0.0
H636 H 0.23411 0.99647 0.56006 0.0
H637 H 0.14647 0.94997 0.55765 0.0
H638 H 0.13852 0.92526 0.63252 0.0
H639 H 0.2264 0.97158 0.63506 0.0
Ho640 Ho 0.89396 0.23565 0.57179 0.0
Ho641 Ho 0.98883 0.26535 0.58948 0.0
C642 C 0.94878 0.34156 0.58611 0.0
C643 C 0.80332 0.19599 0.56025 0.0
C644 C 0.75577 0.19128 0.56577 0.0
C645 C 0.74753 0.21227 0.58576 0.0
C646 C 0.70125 0.20533 0.59047 0.0
C647 C 0.66247 0.17704 0.57537 0.0
C648 C 0.67104 0.15615 0.55549 0.0
C649 C 0.71706 0.16324 0.55076 0.0
C650 C 0.96688 0.2664 0.5377 0.0
C651 C 0.9212 0.15314 0.58142 0.0
C652 C 0.07967 0.2989 0.59683 0.0
C653 C 0.10847 0.27469 0.59614 0.0
C654 C 0.08827 0.22771 0.58734 0.0
C655 C 0.1156 0.20491 0.58572 0.0
C656 C 0.16359 0.22868 0.59299 0.0
C657 C 0.18371 0.27528 0.60234 0.0
C658 C 0.15622 0.29819 0.6039 0.0
C659 C 0.92356 0.23125 0.62493 0.0
O660 O 0.90603 0.30365 0.58764 0.0
O661 O 0.9872 0.33607 0.58393 0.0
O662 O 0.8368 0.23633 0.5514 0.0
O663 O 0.82057 0.1775 0.57513 0.0
O664 O 0.93379 0.27835 0.53879 0.0
O665 O 0.9589 0.23901 0.55495 0.0
O666 O 0.96649 0.18767 0.58215 0.0
O667 O 0.88647 0.16354 0.57944 0.0
O668 O 0.06201 0.30191 0.57664 0.0
O669 O 0.04799 0.28547 0.61372 0.0
O670 O 0.95714 0.22084 0.62125 0.0
O671 O 0.92428 0.2584 0.60833 0.0
H672 H 0.77673 0.23389 0.59767 0.0
H673 H 0.6957 0.22216 0.60582 0.0
H674 H 0.64201 0.13454 0.54349 0.0
H675 H 0.72239 0.14653 0.5353 0.0
H676 H 0.05164 0.20891 0.58124 0.0
H677 H 0.09967 0.16913 0.57831 0.0
H678 H 0.2209 0.2942 0.60788 0.0
H679 H 0.17238 0.33438 0.6108 0.0
Ho680 Ho 0.86564 0.68432 0.56933 0.0
Ho681 Ho 0.81655 0.73401 0.58993 0.0
C682 C 0.75429 0.62082 0.58342 0.0
C683 C 0.90397 0.63139 0.55863 0.0
C684 C 0.90544 0.58641 0.56309 0.0
C685 C 0.89579 0.56434 0.58525 0.0
C686 C 0.90198 0.52438 0.58923 0.0
C687 C 0.91538 0.503 0.57084 0.0
C688 C 0.93032 0.52973 0.54959 0.0
C689 C 0.9239 0.5693 0.54556 0.0
C690 C 0.83449 0.7291 0.53809 0.0
C691 C 0.93457 0.79288 0.58177 0.0
C692 C 0.78751 0.79573 0.59442 0.0
C693 C 0.81172 0.84884 0.59358 0.0
C694 C 0.81004 0.87165 0.57276 0.0
C695 C 0.83211 0.92156 0.57159 0.0
C696 C 0.85595 0.94969 0.59127 0.0
C697 C 0.85846 0.92731 0.61201 0.0
C698 C 0.83648 0.87725 0.61318 0.0
C699 C 0.84337 0.69369 0.62404 0.0
O700 O 0.79628 0.62245 0.58256 0.0
O701 O 0.75158 0.66076 0.58399 0.0
O702 O 0.86745 0.62922 0.54728 0.0
O703 O 0.91931 0.66349 0.5754 0.0
O704 O 0.87466 0.72878 0.5358 0.0
O705 O 0.81328 0.70388 0.55562 0.0
O706 O 0.89507 0.79471 0.58708 0.0
O707 O 0.93222 0.75319 0.57412 0.0
O708 O 0.79623 0.77588 0.61245 0.0
O709 O 0.78652 0.77464 0.57454 0.0
O710 O 0.80242 0.69295 0.62311 0.0
O711 O 0.86769 0.71429 0.60557 0.0
H712 H 0.88488 0.57885 0.59976 0.0
H713 H 0.89784 0.51215 0.60718 0.0
H714 H 0.94879 0.52185 0.53591 0.0
H715 H 0.93519 0.58779 0.52882 0.0
H716 H 0.79119 0.85086 0.55738 0.0
H717 H 0.82977 0.93824 0.55546 0.0
H718 H 0.87667 0.94858 0.62738 0.0
H719 H 0.83854 0.86088 0.62947 0.0
C720 C 0.50449 0.87931 0.08403 0.0
C721 C 0.51538 0.90782 0.10475 0.0
C722 C 0.56222 0.8722 0.12014 0.0
C723 C 0.55221 0.8445 0.09929 0.0
N724 N 0.50675 0.81375 0.06354 0.0
N725 N 0.54363 0.92243 0.14487 0.0
C726 C 0.5208 0.84536 0.08196 0.0
C727 C 0.54083 0.90134 0.12353 0.0
N728 N 0.4811 0.88656 0.06577 0.0
N729 N 0.59338 0.8717 0.13642 0.0
H730 H 0.52842 0.94401 0.148 0.0
H731 H 0.55694 0.91513 0.16006 0.0
H732 H 0.60804 0.8491 0.13519 0.0
H733 H 0.60716 0.89565 0.15045 0.0
H734 H 0.47746 0.87152 0.04912 0.0
H735 H 0.46744 0.90997 0.0667 0.0
H736 H 0.47997 0.80869 0.05167 0.0
H737 H 0.51959 0.78986 0.06101 0.0
C738 C 0.198 0.71476 0.08565 0.0
C739 C 0.24342 0.73356 0.09664 0.0
C740 C 0.21996 0.65357 0.11253 0.0
C741 C 0.17514 0.63417 0.10061 0.0
N742 N 0.12728 0.64504 0.0709 0.0
N743 N 0.30164 0.71981 0.11656 0.0
C744 C 0.16605 0.66444 0.08565 0.0
C745 C 0.25568 0.70252 0.10878 0.0
N746 N 0.1843 0.74519 0.07604 0.0
N747 N 0.22746 0.62639 0.12857 0.0
H748 H 0.32828 0.75551 0.11437 0.0
H749 H 0.31436 0.69807 0.12333 0.0
H750 H 0.20223 0.59091 0.13201 0.0
H751 H 0.25695 0.64 0.1398 0.0
H752 H 0.14939 0.73411 0.07051 0.0
H753 H 0.20659 0.78228 0.07539 0.0
H754 H 0.12205 0.66448 0.05772 0.0
H755 H 0.10279 0.60849 0.07007 0.0
C756 C 0.37506 0.5431 0.08247 0.0
C757 C 0.34733 0.5261 0.10327 0.0
C758 C 0.42022 0.54917 0.12626 0.0
C759 C 0.44703 0.56064 0.105 0.0
N760 N 0.44809 0.55972 0.06244 0.0
N761 N 0.34171 0.50851 0.14482 0.0
C762 C 0.4241 0.55564 0.08297 0.0
C763 C 0.36944 0.52833 0.12522 0.0
N764 N 0.35461 0.54772 0.06226 0.0
N765 N 0.44334 0.55813 0.14743 0.0
H766 H 0.30443 0.49322 0.14481 0.0
H767 H 0.35505 0.50405 0.16073 0.0
H768 H 0.48017 0.57118 0.14885 0.0
H769 H 0.42676 0.55582 0.16355 0.0
H770 H 0.37433 0.56476 0.04722 0.0
H771 H 0.31855 0.53854 0.06124 0.0
H772 H 0.43158 0.55097 0.046 0.0
H773 H 0.48347 0.56722 0.062 0.0
C774 C 0.89251 0.4861 0.93032 0.0
C775 C 0.93698 0.51439 0.91821 0.0
C776 C 0.91698 0.57845 0.91265 0.0
C777 C 0.87355 0.55116 0.92514 0.0
N778 N 0.82038 0.48128 0.9475 0.0
N779 N 0.98063 0.57776 0.89013 0.0
C780 C 0.86112 0.50527 0.93417 0.0
C781 C 0.94609 0.55789 0.90721 0.0
N782 N 0.87919 0.44054 0.93747 0.0
N783 N 0.93112 0.62475 0.90646 0.0
H784 H 0.99961 0.56125 0.88399 0.0
H785 H 0.98612 0.607 0.87994 0.0
H786 H 0.91059 0.64111 0.90997 0.0
H787 H 0.96516 0.64832 0.89986 0.0
H788 H 0.84461 0.41577 0.94286 0.0
H789 H 0.90116 0.4254 0.93669 0.0
H790 H 0.81136 0.45037 0.95707 0.0
H791 H 0.79673 0.49429 0.95045 0.0
C792 C 0.56891 0.36889 0.9019 0.0
C793 C 0.54579 0.34375 0.92288 0.0
C794 C 0.56694 0.42043 0.94187 0.0
C795 C 0.58195 0.44417 0.91994 0.0
N796 N 0.59566 0.44102 0.87843 0.0
N797 N 0.5156 0.34577 0.96174 0.0
C798 C 0.5828 0.41846 0.89974 0.0
C799 C 0.54308 0.36959 0.94265 0.0
N800 N 0.57883 0.34582 0.88435 0.0
N801 N 0.57686 0.4466 0.96211 0.0
H802 H 0.49558 0.30849 0.96275 0.0
H803 H 0.50874 0.36311 0.97552 0.0
H804 H 0.59661 0.48394 0.96207 0.0
H805 H 0.57055 0.43134 0.97884 0.0
H806 H 0.59951 0.36326 0.86962 0.0
H807 H 0.57019 0.31 0.88559 0.0
H808 H 0.59183 0.42303 0.86258 0.0
H809 H 0.6076 0.47754 0.87648 0.0
C810 C 0.68176 0.17501 0.90223 0.0
C811 C 0.64756 0.1743 0.91845 0.0
C812 C 0.7135 0.24251 0.93952 0.0
C813 C 0.7475 0.23716 0.92562 0.0
N814 N 0.76408 0.19489 0.89509 0.0
N815 N 0.63067 0.21107 0.95155 0.0
C816 C 0.73165 0.20277 0.90719 0.0
C817 C 0.66332 0.20955 0.93666 0.0
N818 N 0.66631 0.15005 0.88158 0.0
N819 N 0.72927 0.27994 0.95506 0.0
H820 H 0.59424 0.19334 0.94799 0.0
H821 H 0.63951 0.2299 0.96739 0.0
H822 H 0.76557 0.30444 0.95764 0.0
H823 H 0.70676 0.28907 0.96421 0.0
H824 H 0.68933 0.15251 0.86798 0.0
H825 H 0.63012 0.13135 0.87695 0.0
H826 H 0.75412 0.16651 0.88335 0.0
H827 H 0.80094 0.21409 0.89824 0.0
C828 C 0.18629 0.17286 0.44103 0.0
C829 C 0.23106 0.18679 0.42983 0.0
C830 C 0.2372 0.26345 0.41911 0.0
C831 C 0.19674 0.25298 0.43353 0.0
N832 N 0.13463 0.19859 0.45994 0.0
N833 N 0.30319 0.24897 0.41161 0.0
C834 C 0.17134 0.20764 0.44478 0.0
C835 C 0.25754 0.23302 0.41972 0.0
N836 N 0.15784 0.12626 0.44776 0.0
N837 N 0.25553 0.30187 0.40419 0.0
H838 H 0.31997 0.22822 0.41188 0.0
H839 H 0.32609 0.28442 0.40667 0.0
H840 H 0.24078 0.32422 0.40239 0.0
H841 H 0.28187 0.30831 0.39165 0.0
H842 H 0.12279 0.11266 0.45384 0.0
H843 H 0.16787 0.10017 0.4453 0.0
H844 H 0.11812 0.16825 0.47057 0.0
H845 H 0.12293 0.22315 0.46322 0.0
C846 C 0.92916 0.04033 0.44843 0.0
C847 C 0.9193 0.07027 0.43383 0.0
C848 C 0.84957 0.99947 0.41786 0.0
C849 C 0.8538 0.97001 0.43529 0.0
N850 N 0.89888 0.96337 0.46773 0.0
N851 N 0.86539 0.07873 0.40722 0.0
C852 C 0.8943 0.99054 0.4506 0.0
C853 C 0.87819 0.04994 0.41927 0.0
N854 N 0.97223 0.05932 0.45984 0.0
N855 N 0.8199 0.97905 0.39907 0.0
H856 H 0.88518 0.11609 0.40772 0.0
H857 H 0.83267 0.06547 0.3985 0.0
H858 H 0.80217 0.94229 0.39625 0.0
H859 H 0.81835 0.99858 0.3848 0.0
H860 H 0.98393 0.03868 0.46875 0.0
H861 H 0.99813 0.09554 0.45873 0.0
H862 H 0.92373 0.97767 0.48136 0.0
H863 H 0.87645 0.92657 0.46899 0.0
C864 C 0.09371 0.8709 0.45551 0.0
C865 C 0.12694 0.90901 0.44099 0.0
C866 C 0.05962 0.91436 0.42338 0.0
C867 C 1.02674 0.87152 0.43517 0.0
N868 N 1.01228 0.80603 0.4609 0.0
N869 N 0.14141 0.9661 0.41004 0.0
C870 C 0.04375 0.8491 0.45089 0.0
C871 C 0.10998 0.93107 0.42485 0.0
N872 N 0.11003 0.85637 0.47421 0.0
N873 N 0.04267 0.93928 0.41096 0.0
H874 H 0.17844 0.98054 0.411 0.0
H875 H 0.13068 0.97914 0.3959 0.0
H876 H 1.00609 0.9274 0.40913 0.0
H877 H 0.0647 0.97338 0.4041 0.0
H878 H 0.08755 0.83196 0.48679 0.0
H879 H 0.14625 0.87279 0.47863 0.0
H880 H 1.02317 0.7851 0.47017 0.0
H881 H 0.97523 0.78917 0.45841 0.0
C882 C 0.5198 0.84009 0.24083 0.0
C883 C 0.53019 0.88058 0.2551 0.0
C884 C 0.60022 0.87925 0.27066 0.0
C885 C 0.59539 0.84475 0.25347 0.0
N886 N 0.55206 0.7962 0.21987 0.0
N887 N 0.58705 0.94524 0.27973 0.0
C888 C 0.55525 0.82569 0.238 0.0
C889 C 0.57236 0.90208 0.26888 0.0
N890 N 0.47597 0.81507 0.23027 0.0
N891 N 0.62998 0.88878 0.28944 0.0
H892 H 0.56845 0.96416 0.27848 0.0
H893 H 0.62038 0.9645 0.28791 0.0
H894 H 0.64703 0.86906 0.29266 0.0
H895 H 0.63211 0.91103 0.30336 0.0
H896 H 0.46456 0.7825 0.22165 0.0
H897 H 0.44945 0.82475 0.23203 0.0
H898 H 0.52609 0.78535 0.20674 0.0
H899 H 0.57763 0.7858 0.21673 0.0
C900 C 0.2781 0.76337 0.26459 0.0
C901 C 0.25695 0.77973 0.2476 0.0
C902 C 0.20107 0.69632 0.23605 0.0
C903 C 0.2224 0.67997 0.25281 0.0
N904 N 0.28696 0.69725 0.27964 0.0
N905 N 0.20766 0.76268 0.21303 0.0
C906 C 0.26284 0.71338 0.26599 0.0
C907 C 0.22131 0.74636 0.23206 0.0
N908 N 0.31097 0.79507 0.28016 0.0
N909 N 0.1602 0.66407 0.22456 0.0
H910 H 0.2225 0.79901 0.20929 0.0
H911 H 0.1856 0.74049 0.19966 0.0
H912 H 0.1446 0.62704 0.22661 0.0
H913 H 0.13958 0.67397 0.21436 0.0
H914 H 0.32278 0.78473 0.29492 0.0
H915 H 0.32494 0.83196 0.27903 0.0
H916 H 0.3196 0.71979 0.28779 0.0
H917 H 0.27622 0.66093 0.2813 0.0
C918 C 0.39762 0.5184 0.2715 0.0
C919 C 0.4182 0.56495 0.26167 0.0
C920 C 0.33849 0.54647 0.24685 0.0
C921 C 0.31783 0.50041 0.25747 0.0
N922 N 0.32601 0.4504 0.28675 0.0
N923 N 0.40703 0.62721 0.24442 0.0
C924 C 0.34694 0.48891 0.27193 0.0
C925 C 0.38817 0.58024 0.25074 0.0
N926 N 0.42639 0.50119 0.27949 0.0
N927 N 0.31149 0.55735 0.23225 0.0
H928 H 0.44308 0.65258 0.24702 0.0
H929 H 0.3863 0.64186 0.23856 0.0
H930 H 0.27504 0.53426 0.22954 0.0
H931 H 0.32574 0.58796 0.2218 0.0
H932 H 0.41319 0.46547 0.28422 0.0
H933 H 0.46379 0.5212 0.27935 0.0
H934 H 0.34523 0.44295 0.29921 0.0
H935 H 0.28894 0.42933 0.28861 0.0
C936 C 0.88816 0.57935 0.78127 0.0
C937 C 0.8565 0.5822 0.76476 0.0
C938 C 0.8515 0.51291 0.74351 0.0
C939 C 0.8891 0.51565 0.75771 0.0
N940 N 0.94544 0.55281 0.78953 0.0
N941 N 0.80926 0.55284 0.72916 0.0
C942 C 0.90794 0.54915 0.7765 0.0
C943 C 0.83779 0.54878 0.7458 0.0
N944 N 0.89779 0.60419 0.80202 0.0
N945 N 0.82877 0.47586 0.72791 0.0
H946 H 0.79831 0.57841 0.72988 0.0
H947 H 0.79949 0.53338 0.7135 0.0
H948 H 0.83898 0.44997 0.72524 0.0
H949 H 0.7975 0.46853 0.71902 0.0
H950 H 0.91687 0.60014 0.81579 0.0
H951 H 0.8822 0.62499 0.80653 0.0
H952 H 0.96452 0.5804 0.80152 0.0
H953 H 0.95976 0.5301 0.78724 0.0
C954 C 0.53127 0.37757 0.7469 0.0
C955 C 0.57759 0.39674 0.75691 0.0
C956 C 0.55592 0.31715 0.77283 0.0
C957 C 0.51025 0.29752 0.76182 0.0
N958 N 0.45976 0.30736 0.73326 0.0
N959 N 0.63778 0.38359 0.77517 0.0
C960 C 0.49971 0.32724 0.74723 0.0
C961 C 0.59114 0.366 0.76845 0.0
N962 N 0.51615 0.40759 0.73822 0.0
N963 N 0.56471 0.29041 0.78865 0.0
H964 H 0.66418 0.41914 0.77226 0.0
H965 H 0.65112 0.36212 0.78159 0.0
H966 H 0.5398 0.25499 0.79272 0.0
H967 H 0.59523 0.30448 0.7992 0.0
H968 H 0.48064 0.39604 0.73359 0.0
H969 H 0.53795 0.44473 0.73745 0.0
H970 H 0.45331 0.32653 0.72038 0.0
H971 H 0.43547 0.27073 0.73269 0.0
C972 C 0.72281 0.24364 0.7736 0.0
C973 C 0.69073 0.19534 0.76715 0.0
C974 C 0.75862 0.182 0.76133 0.0
C975 C 0.79036 0.22796 0.7711 0.0
N976 N 0.7998 0.29891 0.79089 0.0
N977 N 0.67772 0.1153 0.76074 0.0
C978 C 0.77178 0.25805 0.77836 0.0
C979 C 0.70849 0.16351 0.76281 0.0
N980 N 0.70675 0.27587 0.77484 0.0
N981 N 0.77602 0.15691 0.74928 0.0
H982 H 0.64053 0.0998 0.76216 0.0
H983 H 0.68956 0.09034 0.76005 0.0
H984 H 0.81229 0.17078 0.74567 0.0
H985 H 0.75401 0.1252 0.74021 0.0
H986 H 0.72959 0.31256 0.77714 0.0
H987 H 0.67118 0.26645 0.77139 0.0
H988 H 0.78673 0.32 0.79825 0.0
H989 H 0.83462 0.30888 0.79617 0.0
C990 C 0.22344 0.2189 0.56867 0.0
C991 C 0.19368 0.20598 0.58894 0.0
C992 C 0.22169 0.15052 0.60118 0.0
C993 C 0.25554 0.16766 0.58242 0.0
N994 N 0.27881 0.20621 0.54458 0.0
N995 N 0.16522 0.16203 0.62521 0.0
C996 C 0.25343 0.19842 0.56506 0.0
C997 C 0.19247 0.17193 0.60523 0.0
N998 N 0.22421 0.25216 0.55336 0.0
N999 N 0.21644 0.11308 0.61471 0.0
H1000 H 0.14285 0.17641 0.62853 0.0
H1001 H 0.16705 0.14234 0.6393 0.0
H1002 H 0.23531 0.09498 0.61168 0.0
H1003 H 0.18971 0.09622 0.62736 0.0
H1004 H 0.24925 0.26808 0.5399 0.0
H1005 H 0.20094 0.26603 0.5547 0.0
H1006 H 0.27624 0.22467 0.53015 0.0
H1007 H 0.29948 0.19013 0.54107 0.0
C1008 C 0.85187 1.02343 0.60243 0.0
C1009 C 0.8757 1.00246 0.59038 0.0
C1010 C 0.92843 0.0794 0.57135 0.0
C1011 C 0.90777 0.10172 0.5851 0.0
N1012 N 0.85866 0.09598 0.61869 0.0
N1013 N 0.94364 1.0128 0.56752 0.0
C1014 C 0.87201 0.07398 0.6021 0.0
C1015 C 0.91644 0.03131 0.57627 0.0
N1016 N 0.80909 0.99513 0.61355 0.0
N1017 N 0.95636 0.10248 0.55239 0.0
H1018 H 0.93567 0.97762 0.57075 0.0
H1019 H 0.97642 0.03367 0.55905 0.0
H1020 H 0.96089 0.13512 0.54677 0.0
H1021 H 0.96923 0.08655 0.54057 0.0
H1022 H 0.78768 1.00844 0.62027 0.0
H1023 H 0.79283 0.95785 0.61417 0.0
H1024 H 0.83592 0.07781 0.63275 0.0
H1025 H 0.87495 0.13304 0.62006 0.0
C1026 C 0.06581 0.85076 0.59746 0.0
C1027 C 0.08319 0.89997 0.59289 0.0
C1028 C 1.00112 0.88144 0.58227 0.0
C1029 C 0.98374 0.83252 0.58822 0.0
N1030 N 0.99826 0.77697 0.61071 0.0
N1031 N 0.06591 0.96395 0.58599 0.0
C1032 C 1.01574 0.81918 0.59867 0.0
C1033 C 0.05035 0.91594 0.58683 0.0
N1034 N 0.09692 0.83345 0.59978 0.0
N1035 N 0.97156 0.89491 0.57159 0.0
H1036 H 0.10149 0.98987 0.58929 0.0
H1037 H 0.04288 0.97792 0.5841 0.0
H1038 H 0.93528 0.87143 0.56864 0.0
H1039 H 0.98373 0.92881 0.56439 0.0
H1040 H 0.0854 0.79688 0.60071 0.0
H1041 H 0.13407 0.8549 0.59825 0.0
H1042 H 1.02022 0.76754 0.62013 0.0
H1043 H 0.96173 0.75456 0.61389 0.0
C1044 C 0.54044 0.09325 0.024 0.0
C1045 C 0.53474 0.05415 0.03788 0.0
C1046 C 0.52762 1.00824 1.00175 0.0
C1047 C 0.52759 0.04508 0.98803 0.0
N1048 N 0.54733 0.12773 0.98526 0.0
N1049 N 0.54414 0.98438 0.03969 0.0
C1050 C 0.53906 0.08951 0.99894 0.0
C1051 C 0.53531 1.01477 0.02667 0.0
N1052 N 0.5444 0.13298 0.03505 0.0
N1053 N 0.5182 0.96627 0.99111 0.0
H1054 H 0.55308 0.99049 0.05747 0.0
H1055 H 0.54853 0.95701 0.03237 0.0
H1056 H 0.51482 0.96172 0.97286 0.0
H1057 H 0.51186 0.93569 1.00035 0.0
H1058 H 0.54206 0.16043 0.02656 0.0
H1059 H 0.54894 0.13774 0.05325 0.0
H1060 H 0.55992 0.16233 0.99163 0.0
H1061 H 0.54475 0.12542 0.96702 0.0
C1062 C 1.01491 0.50141 1.0022 0.0
C1063 C 0.05918 0.52401 0.98961 0.0
C1064 C 0.10307 0.55212 0.02668 0.0
C1065 C 0.05948 0.52471 0.03948 0.0
N1066 N 0.9738 0.48699 0.04013 0.0
N1067 N 0.14191 0.58446 0.9889 0.0
C1068 C 1.01521 0.5046 0.02738 0.0
C1069 C 0.10201 0.55458 1.00164 0.0
N1070 N 0.97315 0.4745 0.99014 0.0
N1071 N 0.14584 0.57232 0.03838 0.0
H1072 H 0.14108 0.58594 0.97053 0.0
H1073 H 0.17387 0.61051 0.99642 0.0
H1074 H 0.14779 0.57134 0.05667 0.0
H1075 H 0.17915 0.58798 0.03005 0.0
H1076 H 0.94017 0.45257 0.99816 0.0
H1077 H 0.97191 0.47342 0.97179 0.0
H1078 H 0.9399 0.47368 0.03271 0.0
H1079 H 0.97441 0.49003 0.05844 0.0
C1080 C 0.61666 0.6143 1.00282 0.0
C1081 C 0.58741 0.57366 0.98885 0.0
C1082 C 0.5497 0.5289 0.02524 0.0
C1083 C 0.58532 0.56754 0.03878 0.0
N1084 N 0.65965 0.643 0.03927 0.0
N1085 N 0.52374 0.49207 0.98638 0.0
C1086 C 0.62113 0.60877 0.02712 0.0
C1087 C 0.55295 0.53069 0.99995 0.0
N1088 N 0.64025 0.65861 0.99267 0.0
N1089 N 0.5127 0.49125 0.03657 0.0
H1090 H 0.52362 0.49437 0.96804 0.0
H1091 H 0.50099 0.45806 0.99314 0.0
H1092 H 0.51105 0.48852 0.05491 0.0
H1093 H 0.48314 0.46399 0.02793 0.0
H1094 H 0.65885 0.69023 1.00235 0.0
H1095 H 0.6363 0.66372 0.97488 0.0
H1096 H 0.68863 0.6719 0.03108 0.0
H1097 H 0.66511 0.6397 0.05708 0.0
C1098 C 0.18036 0.33321 0.35748 0.0
C1099 C 0.19798 0.37834 0.36906 0.0
C1100 C 0.21583 0.41841 0.33055 0.0
C1101 C 0.19512 0.373 0.31897 0.0
N1102 N 0.17245 0.28995 0.32085 0.0
N1103 N 0.24599 0.46383 0.36699 0.0
C1104 C 0.18283 0.3314 0.33235 0.0
C1105 C 0.2207 0.42091 0.3556 0.0
N1106 N 0.15802 0.29186 0.37026 0.0
N1107 N 0.22764 0.45881 0.31784 0.0
H1108 H 0.24977 0.46596 0.38529 0.0
H1109 H 0.26686 0.49631 0.35838 0.0
H1110 H 0.22597 0.45881 0.29957 0.0
H1111 H 0.23686 0.49185 0.32541 0.0
H1112 H 0.13928 0.25786 0.36274 0.0
H1113 H 0.15623 0.29161 0.38854 0.0
H1114 H 0.16702 0.25897 0.32938 0.0
H1115 H 0.17407 0.28837 0.30251 0.0
C1116 C 0.72222 0.80545 0.35695 0.0
C1117 C 0.72463 0.84462 0.36983 0.0
C1118 C 0.72377 0.8832 0.33232 0.0
C1119 C 0.72196 0.84416 0.31959 0.0
N1120 N 0.73024 0.77347 0.31966 0.0
N1121 N 0.7194 0.91661 0.37042 0.0
C1122 C 0.72423 0.80686 0.33193 0.0
C1123 C 0.72325 0.88253 0.35765 0.0
N1124 N 0.71613 0.7657 0.36869 0.0
N1125 N 0.72818 0.92173 0.32007 0.0
H1126 H 0.71685 0.91522 0.38877 0.0
H1127 H 0.715 0.94382 0.36306 0.0
H1128 H 0.73104 0.92354 0.30173 0.0
H1129 H 0.73288 0.95316 0.32785 0.0
H1130 H 0.70778 0.73344 0.3605 0.0
H1131 H 0.71473 0.76312 0.38693 0.0
H1132 H 0.73841 0.74907 0.32746 0.0
H1133 H 0.73198 0.77304 0.30139 0.0
C1134 C 0.28887 0.94318 0.33159 0.0
C1135 C 0.25345 0.90302 0.31893 0.0
C1136 C 0.21155 0.86822 0.35659 0.0
C1137 C 0.24967 0.9063 0.36925 0.0
N1138 N 0.32912 0.97567 0.36849 0.0
N1139 N 0.18304 0.82492 0.3194 0.0
C1140 C 0.28958 0.94234 0.3566 0.0
C1141 C 0.21525 0.8648 0.33147 0.0
N1142 N 0.32165 0.9831 0.3197 0.0
N1143 N 0.17147 0.83595 0.36853 0.0
H1144 H 0.18375 0.82251 0.30107 0.0
H1145 H 0.15729 0.7936 0.32752 0.0
H1146 H 0.16876 0.83654 0.38684 0.0
H1147 H 0.1402 0.81035 0.3603 0.0
H1148 H 0.34427 1.01569 0.3279 0.0
H1149 H 0.32329 0.9854 0.30145 0.0
H1150 H 0.36167 0.9987 0.36034 0.0
H1151 H 0.33111 0.97756 0.38672 0.0
C1152 C 0.87218 0.66987 0.68586 0.0
C1153 C 0.86424 0.70414 0.69793 0.0
C1154 C 0.87156 0.74423 0.66026 0.0
C1155 C 0.86577 0.70317 0.64798 0.0
N1156 N 0.86437 0.62775 0.64887 0.0
N1157 N 0.85025 0.77118 0.69552 0.0
C1158 C 0.86823 0.66655 0.6607 0.0
C1159 C 0.86379 0.74153 0.68491 0.0
N1160 N 0.882 0.63989 0.69862 0.0
N1161 N 0.88186 0.78489 0.64822 0.0
H1162 H 0.84096 0.76807 0.71325 0.0
H1163 H 0.84395 0.79558 0.68632 0.0
H1164 H 0.88767 0.78768 0.63014 0.0
H1165 H 0.88984 0.81701 0.65654 0.0
H1166 H 0.89056 0.61543 0.69108 0.0
H1167 H 0.88597 0.64328 0.71689 0.0
H1168 H 0.86077 0.59727 0.65721 0.0
H1169 H 0.86309 0.62582 0.6305 0.0
C1170 C 0.43497 0.2175 0.6636 0.0
C1171 C 0.39202 0.18584 0.65185 0.0
C1172 C 0.34947 0.16566 0.69012 0.0
C1173 C 0.39415 0.18745 0.70187 0.0
N1174 N 0.48023 0.23689 0.69998 0.0
N1175 N 0.30663 0.13196 0.65353 0.0
C1176 C 0.43702 0.2155 0.68865 0.0
C1177 C 0.34841 0.16156 0.66498 0.0
N1178 N 0.47411 0.24822 0.65061 0.0
N1179 N 0.30834 0.14717 0.70317 0.0
H1180 H 0.30467 0.1293 0.63524 0.0
H1181 H 0.27459 0.10883 0.66202 0.0
H1182 H 0.30921 0.15009 0.72151 0.0
H1183 H 0.27421 0.13319 0.69593 0.0
H1184 H 0.50583 0.27509 0.65796 0.0
H1185 H 0.47281 0.24954 0.63226 0.0
H1186 H 0.51325 0.25309 0.69136 0.0
H1187 H 0.48289 0.23629 0.71824 0.0
C1188 C 0.8766 0.20078 0.66258 0.0
C1189 C 0.91568 0.23805 0.65026 0.0
C1190 C 0.95645 0.27237 0.68789 0.0
C1191 C 0.91774 0.23426 0.70034 0.0
N1192 N 0.84598 0.15764 0.69949 0.0
N1193 N 0.98805 0.31472 0.65102 0.0
C1194 C 0.87901 0.19728 0.68762 0.0
C1195 C 0.95424 0.27537 0.66293 0.0
N1196 N 0.83643 0.17003 0.65028 0.0
N1197 N 0.9963 0.30499 0.69988 0.0
H1198 H 0.98755 0.31835 0.63283 0.0
H1199 H 1.01409 0.34592 0.65909 0.0
H1200 H 0.9995 0.30486 0.71805 0.0
H1201 H 1.0282 0.32991 0.69189 0.0
H1202 H 0.80484 0.1439 0.65805 0.0
H1203 H 0.8335 0.17397 0.6322 0.0
H1204 H 0.81813 0.12762 0.69145 0.0
H1205 H 0.85001 0.15285 0.71733 0.0
C1206 C 0.36061 0.9184 0.18227 0.0
C1207 C 0.33916 0.94608 0.18953 0.0
C1208 C 0.40882 1.01819 0.17289 0.0
C1209 C 0.42862 0.99028 0.16394 0.0
N1210 N 0.41841 0.9116 0.15708 0.0
N1211 N 0.3377 1.02013 0.18583 0.0
C1212 C 0.4032 0.93975 0.16788 0.0
C1213 C 0.36191 0.99534 0.18312 0.0
N1214 N 0.34144 0.87209 0.18972 0.0
N1215 N 0.43574 0.06708 0.17256 0.0
H1216 H 0.3026 1.00435 0.19221 0.0
H1217 H 0.35028 0.05462 0.17929 0.0
H1218 H 0.47082 0.08517 0.16617 0.0
H1219 H 0.42538 0.08941 0.18101 0.0
H1220 H 0.3587 0.85203 0.18774 0.0
H1221 H 0.3095 0.85452 0.19919 0.0
H1222 H 0.39838 0.87431 0.15661 0.0
H1223 H 0.44955 0.92574 0.14702 0.0
C1224 C 0.14376 0.49148 0.17488 0.0
C1225 C 0.09487 0.46337 0.16756 0.0
C1226 C 0.0939 0.39144 0.18419 0.0
C1227 C 0.14244 0.41935 0.19172 0.0
N1228 N 0.21648 0.49428 0.1897 0.0
N1229 N 1.02069 0.38854 0.17068 0.0
C1230 C 0.16815 0.46893 0.18576 0.0
C1231 C 0.06941 0.41382 0.17362 0.0
N1232 N 0.16657 0.54013 0.17234 0.0
N1233 N 0.072 0.34262 0.18568 0.0
H1234 H 1.00094 0.40388 0.16426 0.0
H1235 H 0.99894 0.35397 0.17705 0.0
H1236 H 0.08965 0.325 0.19188 0.0
H1237 H 0.03876 0.31941 0.17825 0.0
H1238 H 0.19982 0.56343 0.17971 0.0
H1239 H 0.15065 0.55803 0.16454 0.0
H1240 H 0.23887 0.52876 0.18339 0.0
H1241 H 0.23525 0.47941 0.19769 0.0
C1242 C 0.68549 0.71098 0.1954 0.0
C1243 C 0.67558 0.74967 0.1919 0.0
C1244 C 0.61079 0.69543 0.16433 0.0
C1245 C 0.62279 0.65842 0.16738 0.0
N1246 N 0.65344 0.62523 0.19589 0.0
N1247 N 0.63404 0.7795 0.16752 0.0
C1248 C 0.65492 0.66452 0.18577 0.0
C1249 C 0.63962 0.74206 0.17487 0.0
N1250 N 0.72592 0.71842 0.20686 0.0
N1251 N 0.56867 0.68473 0.15354 0.0
H1252 H 0.65418 0.81432 0.17373 0.0
H1253 H 0.61307 0.77726 0.15307 0.0
H1254 H 0.54385 0.65019 0.14826 0.0
H1255 H 0.55477 0.70799 0.15316 0.0
H1256 H 0.73701 0.69289 0.20752 0.0
H1257 H 0.75186 0.75152 0.21285 0.0
H1258 H 0.67263 0.62723 0.21105 0.0
H1259 H 0.62726 0.59028 0.1918 0.0
C1260 C 1.01346 0.36494 0.86838 0.0
C1261 C 1.02924 0.41354 0.86155 0.0
C1262 C 1.02071 0.38357 0.82084 0.0
C1263 C 0.99047 0.33512 0.82799 0.0
N1264 N 0.95564 0.28171 0.86106 0.0
N1265 N 0.049 0.46726 0.82801 0.0
C1266 C 0.98562 0.3265 0.85252 0.0
C1267 C 1.03205 0.4222 0.83683 0.0
N1268 N 1.02986 0.35473 0.88835 0.0
N1269 N 0.04515 0.39318 0.80017 0.0
H1270 H 0.06525 0.49837 0.83807 0.0
H1271 H 0.04624 0.47309 0.81014 0.0
H1272 H 0.04118 0.36614 0.78891 0.0
H1273 H 0.07212 0.42746 0.79543 0.0
H1274 H 1.02231 0.32 0.89249 0.0
H1275 H 0.05526 0.38085 0.89916 0.0
H1276 H 0.94924 0.27516 0.87908 0.0
H1277 H 0.93428 0.25261 0.85019 0.0
C1278 C 0.67108 0.63443 0.83327 0.0
C1279 C 0.67754 0.63825 0.85802 0.0
C1280 C 0.7653 0.68035 0.85134 0.0
C1281 C 0.75929 0.67715 0.82643 0.0
N1282 N 0.70351 0.67784 0.79746 0.0
N1283 N 0.73273 0.69652 0.88608 0.0
C1284 C 0.7114 0.66197 0.81826 0.0
C1285 C 0.72514 0.67039 0.86601 0.0
N1286 N 0.62642 0.60813 0.82371 0.0
N1287 N 0.80921 0.69635 0.86143 0.0
H1288 H 0.70509 0.69739 0.89517 0.0
H1289 H 0.7669 0.72267 0.89148 0.0
H1290 H 0.84114 0.70976 0.85203 0.0
H1291 H 0.81305 0.69467 0.8796 0.0
H1292 H 0.62119 0.60171 0.80564 0.0
H1293 H 0.59494 0.59217 0.83359 0.0
H1294 H 0.66981 0.67229 0.79251 0.0
H1295 H 0.73053 0.70002 0.78612 0.0
C1296 C 0.475 0.15412 0.84302 0.0
C1297 C 0.43354 0.123 0.82922 0.0
C1298 C 0.4382 0.05365 0.84634 0.0
C1299 C 0.48021 0.08469 0.85909 0.0
N1300 N 0.54408 0.16501 0.86589 0.0
N1301 N 0.38735 0.04182 0.81318 0.0
C1302 C 0.50009 0.13505 0.85634 0.0
C1303 C 0.41836 0.07248 0.82966 0.0
N1304 N 0.49164 0.20239 0.8432 0.0
N1305 N 0.41704 1.00523 0.84978 0.0
H1306 H 0.37339 0.05185 0.79948 0.0
H1307 H 0.38032 1.0067 0.81094 0.0
H1308 H 0.43271 0.98913 0.85955 0.0
H1309 H 0.38234 0.98114 0.84417 0.0
H1310 H 0.51538 0.22545 0.85584 0.0
H1311 H 0.48139 0.21979 0.83108 0.0
H1312 H 0.56353 0.20172 0.86268 0.0
H1313 H 0.56337 0.15242 0.87533 0.0
C1314 C 0.04882 0.27586 0.52429 0.0
C1315 C 1.0123 0.28898 0.52203 0.0
C1316 C 0.06787 0.3551 0.49584 0.0
C1317 C 0.1041 0.34171 0.49795 0.0
N1318 N 0.13292 0.29877 0.52172 0.0
N1319 N 0.98315 0.32942 0.49674 0.0
C1320 C 0.09578 0.30491 0.51436 0.0
C1321 C 1.02076 0.32545 0.50536 0.0
N1322 N 1.03744 0.23267 0.53383 0.0
N1323 N 0.07931 0.39846 0.48626 0.0
H1324 H 0.94748 0.30474 0.50041 0.0
H1325 H 0.98676 0.35239 0.48298 0.0
H1326 H 0.11432 0.42386 0.48175 0.0
H1327 H 0.05583 0.41215 0.48621 0.0
H1328 H 0.06043 0.21842 0.53384 0.0
H1329 H 1.00247 0.20783 0.53804 0.0
H1330 H 0.12991 0.27649 0.53571 0.0
H1331 H 0.16827 0.32037 0.51643 0.0
C1332 C 0.74394 0.75176 0.50392 0.0
C1333 C 0.77031 0.8018 0.49906 0.0
C1334 C 0.84032 0.80522 0.5197 0.0
C1335 C 0.81461 0.75448 0.52305 0.0
N1336 N 0.74476 0.67878 0.51397 0.0
N1337 N 0.83908 0.87793 0.50838 0.0
C1338 C 0.76709 0.72776 0.51409 0.0
C1339 C 0.81735 0.82908 0.50863 0.0
N1340 N 0.69539 0.72754 0.50043 0.0
N1341 N 0.8872 0.83061 0.52658 0.0
H1342 H 0.82278 0.89621 0.50135 0.0
H1343 H 0.87102 0.90051 0.51703 0.0
H1344 H 0.90464 0.81493 0.53514 0.0
H1345 H 0.91005 0.86646 0.52244 0.0
H1346 H 0.67301 0.69249 0.50606 0.0
H1347 H 0.67651 0.74424 0.49456 0.0
H1348 H 0.71258 0.65712 0.50523 0.0
H1349 H 0.7609 0.65976 0.52034 0.0
C1350 C 0.2675 1.01653 0.50571 0.0
C1351 C 0.2951 0.995 0.49835 0.0
C1352 C 0.36733 0.06402 0.51543 0.0
C1353 C 0.3394 0.0835 0.52473 0.0
N1354 N 0.26129 0.07585 0.53006 0.0
N1355 N 0.36963 0.9939 0.50123 0.0
C1356 C 0.28904 0.05917 0.5201 0.0
C1357 C 0.34453 1.01765 0.50465 0.0
N1358 N 0.22108 0.99736 0.4983 0.0
N1359 N 0.41625 0.09101 0.5158 0.0
H1360 H 0.35399 0.95908 0.49456 0.0
H1361 H 0.40432 1.00638 0.50751 0.0
H1362 H 0.43414 0.1259 0.52237 0.0
H1363 H 0.43878 0.08122 0.50711 0.0
H1364 H 0.20081 1.01437 0.50029 0.0
H1365 H 0.20339 0.96542 0.48886 0.0
H1366 H 0.22392 0.05689 0.53015 0.0
H1367 H 0.27567 0.10765 0.53959 0.0
C1368 C 0.54066 0.2474 0.1243 0.0
C1369 C 0.5145 0.26283 0.11014 0.0
C1370 C 0.47667 0.18449 0.08971 0.0
C1371 C 0.4992 0.16766 0.10557 0.0
N1372 N 0.54358 0.18028 0.14172 0.0
N1373 N 0.45123 0.24298 0.08193 0.0
C1374 C 0.52865 0.19838 0.12392 0.0
C1375 C 0.4807 0.23049 0.09352 0.0
N1376 N 0.57821 0.27992 0.13764 0.0
N1377 N 0.45307 0.15753 0.07047 0.0
H1378 H 0.45289 0.276 0.0843 0.0
H1379 H 0.42253 0.21913 0.07152 0.0
H1380 H 0.44961 0.12401 0.06709 0.0
H1381 H 0.44048 0.17011 0.0569 0.0
H1382 H 0.60177 0.27166 0.14634 0.0
H1383 H 0.58888 0.31635 0.13806 0.0
H1384 H 0.56089 0.19978 0.15677 0.0
H1385 H 0.53405 0.14423 0.14276 0.0
C1386 C 0.82979 0.32672 0.10533 0.0
C1387 C 0.82386 0.28005 0.10688 0.0
C1388 C 0.90964 0.31327 0.09637 0.0
C1389 C 0.9163 0.36063 0.09706 0.0
N1390 N 0.87587 0.40558 0.08854 0.0
N1391 N 0.85806 0.22814 0.10454 0.0
C1392 C 0.87441 0.36553 0.09765 0.0
C1393 C 0.86382 0.27312 0.10251 0.0
N1394 N 0.79326 0.33461 0.112 0.0
N1395 N 0.94512 0.30604 0.08735 0.0
H1396 H 0.82479 0.19777 0.10756 0.0
H1397 H 0.88642 0.22104 0.10467 0.0
H1398 H 0.97487 0.33284 0.07862 0.0
H1399 H 0.94206 0.27247 0.08507 0.0
H1400 H 0.79768 0.36888 0.11395 0.0
H1401 H 0.75994 0.30732 0.11777 0.0
H1402 H 0.84568 0.40963 0.08698 0.0
H1403 H 0.9052 0.43098 0.07896 0.0
C1404 C 0.77591 0.63333 0.11463 0.0
C1405 C 0.73418 0.59903 0.10231 0.0
C1406 C 0.77124 0.54812 0.09742 0.0
C1407 C 0.81385 0.58328 0.10847 0.0
N1408 N 0.86133 0.66549 0.12111 0.0
N1409 N 0.70229 0.5337 0.07425 0.0
C1410 C 0.81767 0.62793 0.11496 0.0
C1411 C 0.73525 0.55967 0.0912 0.0
N1412 N 0.77538 0.66937 0.12725 0.0
N1413 N 0.76361 0.50274 0.0939 0.0
H1414 H 0.67763 0.54325 0.06793 0.0
H1415 H 0.70357 0.50672 0.06453 0.0
H1416 H 0.78806 0.49196 0.09899 0.0
H1417 H 0.7308 0.47464 0.08816 0.0
H1418 H 0.80315 0.69182 0.1385 0.0
H1419 H 0.74593 0.67463 0.12818 0.0
H1420 H 0.86723 0.70016 0.12371 0.0
H1421 H 0.8926 0.66302 0.12114 0.0
C1422 C 0.24306 0.46689 0.90815 0.0
C1423 C 0.28112 0.50182 0.92204 0.0
C1424 C 0.22187 0.51104 0.94594 0.0
C1425 C 0.18476 0.48121 0.93001 0.0
N1426 N 0.16434 0.44095 0.8922 0.0
N1427 N 0.30742 0.56288 0.95208 0.0
C1428 C 0.19628 0.46135 0.91022 0.0
C1429 C 0.2707 0.5253 0.9405 0.0
N1430 N 0.25151 0.43888 0.89288 0.0
N1431 N 0.21034 0.52552 0.96642 0.0
H1432 H 0.34349 0.5746 0.9485 0.0
H1433 H 0.3022 0.58499 0.96376 0.0
H1434 H 0.17497 0.51498 0.97111 0.0
H1435 H 0.2351 0.54387 0.97971 0.0
H1436 H 0.22412 0.40972 0.88402 0.0
H1437 H 0.28522 0.44177 0.89089 0.0
H1438 H 0.17294 0.43066 0.8763 0.0
H1439 H 0.13127 0.43947 0.89187 0.0
C1440 C 0.63824 0.80803 0.92648 0.0
C1441 C 0.59185 0.8009 0.92067 0.0
C1442 C 0.557 0.71578 0.93052 0.0
C1443 C 0.60356 0.72035 0.9323 0.0
N1444 N 0.68672 0.77409 0.94111 0.0
N1445 N 0.50844 0.74566 0.91285 0.0
C1446 C 0.64402 0.76758 0.9327 0.0
C1447 C 0.55176 0.7541 0.92139 0.0
N1448 N 0.67664 0.85352 0.92588 0.0
N1449 N 0.51782 0.67671 0.93977 0.0
H1450 H 0.50292 0.77263 0.90592 0.0
H1451 H 0.47951 0.71114 0.9105 0.0
H1452 H 0.52091 0.65243 0.95078 0.0
H1453 H 0.4836 0.67298 0.94 0.0
H1454 H 0.71216 0.86199 0.92805 0.0
H1455 H 0.67316 0.88352 0.92231 0.0
H1456 H 0.71804 0.80699 0.94233 0.0
H1457 H 0.68955 0.7469 0.94961 0.0
C1458 C 0.36963 0.87307 0.93753 0.0
C1459 C 0.37185 0.91018 0.92296 0.0
C1460 C 0.29393 0.85106 0.90564 0.0
C1461 C 0.29581 0.81313 0.91757 0.0
N1462 N 0.33999 0.78787 0.94243 0.0
N1463 N 0.33773 0.93208 0.89053 0.0
C1464 C 0.33483 0.82413 0.93294 0.0
C1465 C 0.33416 0.89867 0.90647 0.0
N1466 N 0.3999 0.88472 0.95635 0.0
N1467 N 0.25319 0.84177 0.89376 0.0
H1468 H 0.36594 0.9672 0.89023 0.0
H1469 H 0.31459 0.92389 0.87626 0.0
H1470 H 0.22312 0.80761 0.89279 0.0
H1471 H 0.24747 0.86855 0.88683 0.0
H1472 H 0.39733 0.8598 0.96881 0.0
H1473 H 0.42398 0.92013 0.961 0.0
H1474 H 0.37062 0.79367 0.9515 0.0
H1475 H 0.31556 0.75172 0.93947 0.0
C1476 C 0.20929 0.58312 0.45498 0.0
C1477 C 0.18652 0.60067 0.43975 0.0
C1478 C 0.14953 0.52365 0.41818 0.0
C1479 C 0.16916 0.50507 0.43473 0.0
N1480 N 0.20791 0.51375 0.47228 0.0
N1481 N 0.12861 0.58504 0.4091 0.0
C1482 C 0.19618 0.53388 0.45412 0.0
C1483 C 0.15483 0.57019 0.42192 0.0
N1484 N 0.24484 0.61392 0.46981 0.0
N1485 N 0.12727 0.49758 0.3985 0.0
H1486 H 0.13154 0.61866 0.41134 0.0
H1487 H 0.10132 0.56276 0.39761 0.0
H1488 H 0.12224 0.4633 0.39549 0.0
H1489 H 0.11692 0.51119 0.38445 0.0
H1490 H 0.26626 0.60418 0.47947 0.0
H1491 H 0.2563 0.65049 0.47068 0.0
H1492 H 0.22299 0.53168 0.488 0.0
H1493 H 0.19795 0.47755 0.47275 0.0
C1494 C 0.56066 0.69198 0.41762 0.0
C1495 C 0.59821 0.69157 0.43069 0.0
C1496 C 0.53997 0.61157 0.44593 0.0
C1497 C 0.50167 0.61575 0.4358 0.0
N1498 N 0.47518 0.66259 0.41389 0.0
N1499 N 0.62298 0.65181 0.45881 0.0
C1500 C 0.51195 0.65653 0.42198 0.0
C1501 C 0.58786 0.65126 0.44502 0.0
N1502 N 0.57184 0.726 0.40062 0.0
N1503 N 0.53063 0.56931 0.45616 0.0
H1504 H 0.6586 0.67916 0.45826 0.0
H1505 H 0.61631 0.62662 0.47191 0.0
H1506 H 0.49613 0.53974 0.45726 0.0
H1507 H 0.55734 0.56206 0.46167 0.0
H1508 H 0.54672 0.7259 0.389 0.0
H1509 H 0.60722 0.75146 0.39652 0.0
H1510 H 0.48039 0.69419 0.40614 0.0
H1511 H 0.43911 0.6375 0.41664 0.0
C1512 C 0.49257 0.95917 0.43474 0.0
C1513 C 0.4843 0.91145 0.43636 0.0
C1514 C 0.40045 0.88219 0.42541 0.0
C1515 C 0.40559 0.92857 0.42904 0.0
N1516 N 0.45983 1.01269 0.43797 0.0
N1517 N 0.42738 0.82676 0.43667 0.0
C1518 C 0.45269 0.96775 0.43361 0.0
C1519 C 0.43739 0.87274 0.43262 0.0
N1520 N 0.53868 0.99641 0.43389 0.0
N1521 N 0.36086 0.84735 0.41413 0.0
H1522 H 0.45328 0.8182 0.44213 0.0
H1523 H 0.39246 0.79779 0.43672 0.0
H1524 H 0.33534 0.85416 0.40639 0.0
H1525 H 0.35682 0.81396 0.40976 0.0
H1526 H 0.54735 0.03147 0.42994 0.0
H1527 H 0.56843 0.99143 0.43488 0.0
H1528 H 0.4922 0.04061 0.4442 0.0
H1529 H 0.43327 1.02212 0.43691 0.0
C1530 C 0.88088 0.83743 0.27665 0.0
C1531 C 0.84966 0.81939 0.25695 0.0
C1532 C 0.91164 0.81164 0.2352 0.0
C1533 C 0.94522 0.83562 0.25347 0.0
N1534 N 0.96359 0.8793 0.29017 0.0
N1535 N 0.8451 0.80926 0.21468 0.0
C1536 C 0.93029 0.85041 0.27398 0.0
C1537 C 0.8674 0.81148 0.23544 0.0
N1538 N 0.8636 0.84312 0.29771 0.0
N1539 N 0.92201 0.78946 0.21741 0.0
H1540 H 0.8179 0.81799 0.21356 0.0
H1541 H 0.85862 0.80651 0.19838 0.0
H1542 H 0.95373 0.78785 0.21686 0.0
H1543 H 0.89677 0.76847 0.20472 0.0
H1544 H 0.88341 0.85224 0.31325 0.0
H1545 H 0.828 0.83492 0.29997 0.0
H1546 H 0.95575 0.89554 0.30409 0.0
H1547 H 1.00007 0.8906 0.28851 0.0
C1548 C 0.24088 0.05979 0.26971 0.0
C1549 C 0.27871 0.05876 0.25703 0.0
C1550 C 0.30208 0.13895 0.24121 0.0
C1551 C 0.25977 0.13618 0.25088 0.0
N1552 N 0.18545 0.09057 0.27211 0.0
N1553 N 0.34292 0.0962 0.22851 0.0
C1554 C 0.22839 0.0958 0.26469 0.0
C1555 C 0.30912 0.09832 0.2424 0.0
N1556 N 0.2174 0.02665 0.28698 0.0
N1557 N 0.33603 0.1808 0.23117 0.0
H1558 H 0.34998 0.06786 0.22889 0.0
H1559 H 0.3617 0.12101 0.2153 0.0
H1560 H 0.33215 0.21114 0.22997 0.0
H1561 H 0.36982 0.18689 0.22603 0.0
H1562 H 0.19239 0.0279 0.29829 0.0
H1563 H 0.22678 1.00092 0.29163 0.0
H1564 H 0.15865 0.05929 0.27983 0.0
H1565 H 0.17482 0.11588 0.26873 0.0
C1566 C 1.00296 0.16684 0.23227 0.0
C1567 C 0.96278 0.14969 0.24761 0.0
C1568 C 1.003 0.22707 0.26904 0.0
C1569 C 0.04106 0.24546 0.25234 0.0
N1570 N 0.07147 0.23544 0.21502 0.0
N1571 N 0.92125 0.16592 0.27863 0.0
C1572 C 0.03932 0.21599 0.23312 0.0
C1573 C 0.96191 0.18052 0.26549 0.0
N1574 N 1.00732 0.1357 0.21732 0.0
N1575 N 1.00689 0.25322 0.28877 0.0
H1576 H 0.89083 0.13225 0.27665 0.0
H1577 H 0.91628 0.18837 0.29017 0.0
H1578 H 1.03608 0.2873 0.29178 0.0
H1579 H 0.98315 0.23978 0.30292 0.0
H1580 H 0.03828 0.14482 0.2076 0.0
H1581 H 0.98192 0.09932 0.21635 0.0
H1582 H 0.0687 0.2174 0.19931 0.0
H1583 H 0.09818 0.27131 0.21464 0.0
C1584 C 0.87261 0.87824 0.7488 0.0
C1585 C 0.83476 0.83796 0.76073 0.0
C1586 C 0.81052 0.89303 0.77887 0.0
C1587 C 0.85095 0.93319 0.7688 0.0
N1588 N 0.92583 0.96442 0.74782 0.0
N1589 N 0.7777 0.81185 0.79296 0.0
C1590 C 0.8833 0.92585 0.75466 0.0
C1591 C 0.806 0.84651 0.77718 0.0
N1592 N 0.89861 0.87142 0.73164 0.0
N1593 N 0.77629 0.8992 0.7902 0.0
H1594 H 0.77703 0.77925 0.79428 0.0
H1595 H 0.75983 0.81778 0.8068 0.0
H1596 H 0.77862 0.93266 0.79204 0.0
H1597 H 0.74366 0.87064 0.7958 0.0
H1598 H 0.92188 0.89848 0.72029 0.0
H1599 H 0.89461 0.83818 0.72744 0.0
H1600 H 0.95375 0.96132 0.74017 0.0
H1601 H 0.93519 0.99977 0.75173 0.0
C1602 C 0.22231 1.01099 0.74718 0.0
C1603 C 0.25508 0.0253 0.76622 0.0
C1604 C 0.18674 0.97904 0.79294 0.0
C1605 C 0.15559 0.95732 0.7734 0.0
N1606 N 0.14062 0.98731 0.73743 0.0
N1607 N 0.26758 1.02294 0.80801 0.0
C1608 C 0.17196 0.98196 0.75153 0.0
C1609 C 0.237 1.00891 0.78928 0.0
N1610 N 0.23898 0.02636 0.72494 0.0
N1611 N 0.16744 0.97837 0.81452 0.0
H1612 H 0.30375 0.04828 0.80664 0.0
H1613 H 0.2573 1.00716 0.82459 0.0
H1614 H 0.13059 0.96453 0.81687 0.0
H1615 H 0.18777 0.99744 0.82906 0.0
H1616 H 0.2169 1.01396 0.71014 0.0
H1617 H 0.27546 0.0481 0.72125 0.0
H1618 H 0.15101 1.00777 0.72209 0.0
H1619 H 0.10702 0.97997 0.74369 0.0
C1620 C 0.11838 0.22647 0.75042 0.0
C1621 C 0.14162 0.23545 0.77277 0.0
C1622 C 0.09414 0.27271 0.78573 0.0
C1623 C 0.07624 0.26995 0.76264 0.0
N1624 N 0.07518 0.24767 0.72216 0.0
N1625 N 0.11643 0.23052 0.8132 0.0
C1626 C 0.09012 0.24836 0.7447 0.0
C1627 C 0.12028 0.24889 0.79115 0.0
N1628 N 0.11392 0.18922 0.73697 0.0
N1629 N 0.08497 0.29678 0.80294 0.0
H1630 H 0.12601 0.20443 0.8167 0.0
H1631 H 0.09715 0.23533 0.82676 0.0
H1632 H 0.06661 0.31521 0.79958 0.0
H1633 H 0.10014 0.30244 0.81969 0.0
H1634 H 0.09436 0.17845 0.72136 0.0
H1635 H 0.12179 0.16371 0.74376 0.0
H1636 H 0.08747 0.23615 0.70791 0.0
H1637 H 0.05425 0.26307 0.71763 0.0
C1638 C 0.54658 0.18103 0.56486 0.0
C1639 C 0.51766 0.15476 0.58442 0.0
C1640 C 0.58297 0.14079 0.59773 0.0
C1641 C 0.61322 0.17081 0.57938 0.0
N1642 N 0.62645 0.22693 0.54824 0.0
N1643 N 0.51094 0.11549 0.62141 0.0
C1644 C 0.59568 0.19299 0.56374 0.0
C1645 C 0.53652 0.13607 0.60137 0.0
N1646 N 0.52662 0.19316 0.54676 0.0
N1647 N 0.59801 0.11561 0.61125 0.0
H1648 H 0.47694 0.11118 0.62452 0.0
H1649 H 0.52481 0.10607 0.6357 0.0
H1650 H 0.63167 0.11843 0.60924 0.0
H1651 H 0.5759 0.08928 0.62319 0.0
H1652 H 0.54414 0.20722 0.53083 0.0
H1653 H 0.49085 0.18491 0.54665 0.0
H1654 H 0.61719 0.24825 0.53822 0.0
H1655 H 0.66277 0.23718 0.54704 0.0
C1656 C 0.95567 0.40884 0.56101 0.0
C1657 C 0.95012 0.38872 0.58377 0.0
C1658 C 0.90731 0.43137 0.59602 0.0
C1659 C 0.91919 0.45711 0.57434 0.0
N1660 N 0.91805 0.43631 0.5334 0.0
N1661 N 0.92523 0.38549 0.62401 0.0
C1662 C 0.93399 0.43723 0.55575 0.0
C1663 C 0.9278 0.40196 0.60162 0.0
N1664 N 0.98 0.39947 0.54395 0.0
N1665 N 0.86899 0.42633 0.6088 0.0
H1666 H 0.93979 0.36385 0.62859 0.0
H1667 H 0.91299 0.39725 0.63821 0.0
H1668 H 0.8452 0.43661 0.60202 0.0
H1669 H 0.85603 0.40476 0.62372 0.0
H1670 H 0.98795 0.41637 0.52757 0.0
H1671 H 0.99624 0.37875 0.54699 0.0
H1672 H 0.92392 0.41848 0.51951 0.0
H1673 H 0.89229 0.44632 0.52981 0.0
C1674 C 0.6701 0.49345 0.56168 0.0
C1675 C 0.63024 0.47776 0.57713 0.0
C1676 C 0.67244 0.55552 0.59797 0.0
C1677 C 0.71002 0.57261 0.58101 0.0
N1678 N 0.73809 0.56086 0.54335 0.0
N1679 N 0.58992 0.49698 0.60765 0.0
C1680 C 0.70698 0.54237 0.56192 0.0
C1681 C 0.63042 0.50969 0.59467 0.0
N1682 N 0.67361 0.46123 0.54717 0.0
N1683 N 0.67755 0.5821 0.6177 0.0
H1684 H 0.5586 0.46402 0.60572 0.0
H1685 H 0.58601 0.52057 0.61887 0.0
H1686 H 0.70767 0.61549 0.62075 0.0
H1687 H 0.6539 0.56932 0.63191 0.0
H1688 H 0.70428 0.46955 0.53735 0.0
H1689 H 0.64792 0.42489 0.54676 0.0
H1690 H 0.73431 0.54184 0.52785 0.0
H1691 H 0.76459 0.5968 0.54227 0.0
loop_
_geom_bond_atom_site_label_1
_geom_bond_atom_site_label_2
_geom_bond_distance
_geom_bond_site_symmetry_2
_ccdc_geom_bond_type
Ho0 C3 2.811 . S
Ho0 O20 2.322 . S
Ho0 O22 2.378 . S
Ho0 O23 2.524 . S
Ho0 O24 2.381 . S
Ho0 O25 2.669 1_545 S
Ho0 O27 2.346 1_545 S
Ho0 O31 2.305 . S
Ho1 C12 2.811 . S
Ho1 O21 2.346 1_565 S
Ho1 O25 2.305 . S
Ho1 O26 2.322 . S
Ho1 O28 2.378 . S
Ho1 O29 2.524 . S
Ho1 O30 2.381 . S
Ho1 O31 2.669 1_565 S
C2 O20 1.259 . S
C2 O21 1.268 . S
C3 Ho0 2.811 . S
C3 C4 1.488 . S
C3 O22 1.215 . S
C3 O23 1.289 . S
C4 C3 1.488 . S
C4 C5 1.348 . S
C4 C9 1.413 . S
C5 C4 1.348 . S
C5 C6 1.442 . S
C5 H32 0.930 . S
C6 C5 1.442 . S
C6 C7 1.381 . S
C6 H33 0.931 . S
C7 C6 1.381 . S
C7 C8 1.321 . S
C8 C7 1.321 . S
C8 C9 1.403 . S
C8 H34 0.934 . S
C9 C4 1.413 . S
C9 C8 1.403 . S
C9 H35 0.930 . S
C10 O24 1.275 . S
C10 O25 1.256 1_545 S
C11 O26 1.259 . S
C11 O27 1.268 . S
C12 Ho1 2.811 . S
C12 C13 1.488 . S
C12 O28 1.215 . S
C12 O29 1.289 . S
C13 C12 1.488 . S
C13 C14 1.348 . S
C13 C18 1.413 . S
C14 C13 1.348 . S
C14 C15 1.442 . S
C14 H36 0.930 . S
C15 C14 1.442 . S
C15 C16 1.381 . S
C15 H37 0.931 . S
C16 C15 1.381 . S
C16 C17 1.321 . S
C17 C16 1.321 . S
C17 C18 1.403 . S
C17 H38 0.934 . S
C18 C13 1.413 . S
C18 C17 1.403 . S
C18 H39 0.930 . S
C19 O30 1.275 1_545 S
C19 O31 1.256 . S
O20 Ho0 2.322 . S
O20 C2 1.259 . S
O21 Ho1 2.346 1_545 S
O21 C2 1.268 . S
O22 Ho0 2.378 . S
O22 C3 1.215 . S
O23 Ho0 2.524 . S
O23 C3 1.289 . S
O24 Ho0 2.381 . S
O24 C10 1.275 . S
O25 Ho0 2.669 1_565 S
O25 Ho1 2.305 . S
O25 C10 1.256 1_565 S
O26 Ho1 2.322 . S
O26 C11 1.259 . S
O27 Ho0 2.346 1_565 S
O27 C11 1.268 . S
O28 Ho1 2.378 . S
O28 C12 1.215 . S
O29 Ho1 2.524 . S
O29 C12 1.289 . S
O30 Ho1 2.381 . S
O30 C19 1.275 1_565 S
O31 Ho0 2.305 . S
O31 Ho1 2.669 1_545 S
O31 C19 1.256 . S
H32 C5 0.930 . S
H33 C6 0.931 . S
H34 C8 0.934 . S
H35 C9 0.930 . S
H36 C14 0.930 . S
H37 C15 0.931 . S
H38 C17 0.934 . S
H39 C18 0.930 . S
Ho40 C43 2.811 . S
Ho40 O60 2.322 . S
Ho40 O62 2.378 . S
Ho40 O63 2.524 . S
Ho40 O64 2.381 1_655 S
Ho40 O65 2.669 1_655 S
Ho40 O67 2.346 1_655 S
Ho40 O71 2.305 1_655 S
Ho41 C52 2.811 . S
Ho41 O61 2.346 1_455 S
Ho41 O65 2.305 . S
Ho41 O66 2.322 . S
Ho41 O68 2.378 . S
Ho41 O69 2.524 . S
Ho41 O70 2.381 . S
Ho41 O71 2.669 . S
C42 O60 1.259 . S
C42 O61 1.268 . S
C43 Ho40 2.811 . S
C43 C44 1.488 . S
C43 O62 1.215 . S
C43 O63 1.289 . S
C44 C43 1.488 . S
C44 C45 1.348 . S
C44 C49 1.413 . S
C45 C44 1.348 . S
C45 C46 1.442 . S
C45 H72 0.930 . S
C46 C45 1.442 . S
C46 C47 1.381 . S
C46 H73 0.931 . S
C47 C46 1.381 . S
C47 C48 1.321 . S
C48 C47 1.321 . S
C48 C49 1.403 . S
C48 H74 0.934 . S
C49 C44 1.413 . S
C49 C48 1.403 . S
C49 H75 0.930 . S
C50 O64 1.275 . S
C50 O65 1.256 . S
C51 O66 1.259 . S
C51 O67 1.268 . S
C52 Ho41 2.811 . S
C52 C53 1.488 . S
C52 O68 1.215 . S
C52 O69 1.289 . S
C53 C52 1.488 . S
C53 C54 1.348 . S
C53 C58 1.413 . S
C54 C53 1.348 . S
C54 C55 1.442 . S
C54 H76 0.930 . S
C55 C54 1.442 . S
C55 C56 1.381 . S
C55 H77 0.931 . S
C56 C55 1.381 . S
C56 C57 1.321 . S
C57 C56 1.321 . S
C57 C58 1.403 . S
C57 H78 0.934 . S
C58 C53 1.413 . S
C58 C57 1.403 . S
C58 H79 0.930 . S
C59 O70 1.275 . S
C59 O71 1.256 . S
O60 Ho40 2.322 . S
O60 C42 1.259 . S
O61 Ho41 2.346 1_655 S
O61 C42 1.268 . S
O62 Ho40 2.378 . S
O62 C43 1.215 . S
O63 Ho40 2.524 . S
O63 C43 1.289 . S
O64 Ho40 2.381 1_455 S
O64 C50 1.275 . S
O65 Ho40 2.669 1_455 S
O65 Ho41 2.305 . S
O65 C50 1.256 . S
O66 Ho41 2.322 . S
O66 C51 1.259 . S
O67 Ho40 2.346 1_455 S
O67 C51 1.268 . S
O68 Ho41 2.378 . S
O68 C52 1.215 . S
O69 Ho41 2.524 . S
O69 C52 1.289 . S
O70 Ho41 2.381 . S
O70 C59 1.275 . S
O71 Ho40 2.305 1_455 S
O71 Ho41 2.669 . S
O71 C59 1.256 . S
H72 C45 0.930 . S
H73 C46 0.931 . S
H74 C48 0.934 . S
H75 C49 0.930 . S
H76 C54 0.930 . S
H77 C55 0.931 . S
H78 C57 0.934 . S
H79 C58 0.930 . S
Ho80 C83 2.811 . S
Ho80 O100 2.322 . S
Ho80 O102 2.378 . S
Ho80 O103 2.524 . S
Ho80 O104 2.381 . S
Ho80 O105 2.669 . S
Ho80 O107 2.346 . S
Ho80 O111 2.305 . S
Ho81 C92 2.811 . S
Ho81 O101 2.346 . S
Ho81 O105 2.305 . S
Ho81 O106 2.322 . S
Ho81 O108 2.378 . S
Ho81 O109 2.524 . S
Ho81 O110 2.381 . S
Ho81 O111 2.669 . S
C82 O100 1.259 . S
C82 O101 1.268 . S
C83 Ho80 2.811 . S
C83 C84 1.488 . S
C83 O102 1.215 . S
C83 O103 1.289 . S
C84 C83 1.488 . S
C84 C85 1.348 . S
C84 C89 1.413 . S
C85 C84 1.348 . S
C85 C86 1.442 . S
C85 H112 0.930 . S
C86 C85 1.442 . S
C86 C87 1.381 . S
C86 H113 0.931 . S
C87 C86 1.381 . S
C87 C88 1.321 . S
C88 C87 1.321 . S
C88 C89 1.403 . S
C88 H114 0.934 . S
C89 C84 1.413 . S
C89 C88 1.403 . S
C89 H115 0.930 . S
C90 O104 1.275 . S
C90 O105 1.256 . S
C91 O106 1.259 . S
C91 O107 1.268 . S
C92 Ho81 2.811 . S
C92 C93 1.488 . S
C92 O108 1.215 . S
C92 O109 1.289 . S
C93 C92 1.488 . S
C93 C94 1.348 . S
C93 C98 1.413 . S
C94 C93 1.348 . S
C94 C95 1.442 . S
C94 H116 0.930 . S
C95 C94 1.442 . S
C95 C96 1.381 . S
C95 H117 0.931 . S
C96 C95 1.381 . S
C96 C97 1.321 . S
C97 C96 1.321 . S
C97 C98 1.403 . S
C97 H118 0.934 . S
C98 C93 1.413 . S
C98 C97 1.403 . S
C98 H119 0.930 . S
C99 O110 1.275 . S
C99 O111 1.256 . S
O100 Ho80 2.322 . S
O100 C82 1.259 . S
O101 Ho81 2.346 . S
O101 C82 1.268 . S
O102 Ho80 2.378 . S
O102 C83 1.215 . S
O103 Ho80 2.524 . S
O103 C83 1.289 . S
O104 Ho80 2.381 . S
O104 C90 1.275 . S
O105 Ho80 2.669 . S
O105 Ho81 2.305 . S
O105 C90 1.256 . S
O106 Ho81 2.322 . S
O106 C91 1.259 . S
O107 Ho80 2.346 . S
O107 C91 1.268 . S
O108 Ho81 2.378 . S
O108 C92 1.215 . S
O109 Ho81 2.524 . S
O109 C92 1.289 . S
O110 Ho81 2.381 . S
O110 C99 1.275 . S
O111 Ho80 2.305 . S
O111 Ho81 2.669 . S
O111 C99 1.256 . S
H112 C85 0.930 . S
H113 C86 0.931 . S
H114 C88 0.934 . S
H115 C89 0.930 . S
H116 C94 0.930 . S
H117 C95 0.931 . S
H118 C97 0.934 . S
H119 C98 0.930 . S
Ho120 C123 2.811 . S
Ho120 O140 2.322 . S
Ho120 O142 2.378 . S
Ho120 O143 2.524 . S
Ho120 O144 2.381 . S
Ho120 O145 2.669 1_455 S
Ho120 O147 2.346 1_455 S
Ho120 O151 2.305 . S
Ho121 C132 2.811 . S
Ho121 O141 2.346 1_655 S
Ho121 O145 2.305 . S
Ho121 O146 2.322 . S
Ho121 O148 2.378 . S
Ho121 O149 2.524 . S
Ho121 O150 2.381 . S
Ho121 O151 2.669 1_655 S
C122 O140 1.259 . S
C122 O141 1.268 . S
C123 Ho120 2.811 . S
C123 C124 1.488 . S
C123 O142 1.215 . S
C123 O143 1.289 . S
C124 C123 1.488 . S
C124 C125 1.348 . S
C124 C129 1.413 . S
C125 C124 1.348 . S
C125 C126 1.442 . S
C125 H152 0.930 . S
C126 C125 1.442 . S
C126 C127 1.381 . S
C126 H153 0.931 . S
C127 C126 1.381 . S
C127 C128 1.321 . S
C128 C127 1.321 . S
C128 C129 1.403 . S
C128 H154 0.934 . S
C129 C124 1.413 . S
C129 C128 1.403 . S
C129 H155 0.930 . S
C130 O144 1.275 . S
C130 O145 1.256 1_455 S
C131 O146 1.259 . S
C131 O147 1.268 . S
C132 Ho121 2.811 . S
C132 C133 1.488 . S
C132 O148 1.215 . S
C132 O149 1.289 . S
C133 C132 1.488 . S
C133 C134 1.348 . S
C133 C138 1.413 . S
C134 C133 1.348 . S
C134 C135 1.442 . S
C134 H156 0.930 . S
C135 C134 1.442 . S
C135 C136 1.381 . S
C135 H157 0.931 . S
C136 C135 1.381 . S
C136 C137 1.321 . S
C137 C136 1.321 . S
C137 C138 1.403 . S
C137 H158 0.934 . S
C138 C133 1.413 . S
C138 C137 1.403 . S
C138 H159 0.930 . S
C139 O150 1.275 1_455 S
C139 O151 1.256 . S
O140 Ho120 2.322 . S
O140 C122 1.259 . S
O141 Ho121 2.346 1_455 S
O141 C122 1.268 . S
O142 Ho120 2.378 . S
O142 C123 1.215 . S
O143 Ho120 2.524 . S
O143 C123 1.289 . S
O144 Ho120 2.381 . S
O144 C130 1.275 . S
O145 Ho120 2.669 1_655 S
O145 Ho121 2.305 . S
O145 C130 1.256 1_655 S
O146 Ho121 2.322 . S
O146 C131 1.259 . S
O147 Ho120 2.346 1_655 S
O147 C131 1.268 . S
O148 Ho121 2.378 . S
O148 C132 1.215 . S
O149 Ho121 2.524 . S
O149 C132 1.289 . S
O150 Ho121 2.381 . S
O150 C139 1.275 1_655 S
O151 Ho120 2.305 . S
O151 Ho121 2.669 1_455 S
O151 C139 1.256 . S
H152 C125 0.930 . S
H153 C126 0.931 . S
H154 C128 0.934 . S
H155 C129 0.930 . S
H156 C134 0.930 . S
H157 C135 0.931 . S
H158 C137 0.934 . S
H159 C138 0.930 . S
Ho160 C163 2.811 . S
Ho160 O180 2.322 . S
Ho160 O182 2.378 . S
Ho160 O183 2.524 . S
Ho160 O184 2.381 . S
Ho160 O185 2.669 . S
Ho160 O187 2.346 . S
Ho160 O191 2.305 . S
Ho161 C172 2.811 . S
Ho161 O181 2.346 . S
Ho161 O185 2.305 . S
Ho161 O186 2.322 . S
Ho161 O188 2.378 . S
Ho161 O189 2.524 . S
Ho161 O190 2.381 . S
Ho161 O191 2.669 . S
C162 O180 1.259 . S
C162 O181 1.268 . S
C163 Ho160 2.811 . S
C163 C164 1.488 . S
C163 O182 1.215 . S
C163 O183 1.289 . S
C164 C163 1.488 . S
C164 C165 1.348 . S
C164 C169 1.413 . S
C165 C164 1.348 . S
C165 C166 1.442 . S
C165 H192 0.930 . S
C166 C165 1.442 . S
C166 C167 1.381 . S
C166 H193 0.931 . S
C167 C166 1.381 . S
C167 C168 1.321 . S
C168 C167 1.321 . S
C168 C169 1.403 . S
C168 H194 0.934 . S
C169 C164 1.413 . S
C169 C168 1.403 . S
C169 H195 0.930 . S
C170 O184 1.275 . S
C170 O185 1.256 . S
C171 O186 1.259 . S
C171 O187 1.268 . S
C172 Ho161 2.811 . S
C172 C173 1.488 . S
C172 O188 1.215 . S
C172 O189 1.289 . S
C173 C172 1.488 . S
C173 C174 1.348 . S
C173 C178 1.413 . S
C174 C173 1.348 . S
C174 C175 1.442 . S
C174 H196 0.930 . S
C175 C174 1.442 . S
C175 C176 1.381 . S
C175 H197 0.931 . S
C176 C175 1.381 . S
C176 C177 1.321 . S
C177 C176 1.321 . S
C177 C178 1.403 . S
C177 H198 0.934 . S
C178 C173 1.413 . S
C178 C177 1.403 . S
C178 H199 0.930 . S
C179 O190 1.275 . S
C179 O191 1.256 . S
O180 Ho160 2.322 . S
O180 C162 1.259 . S
O181 Ho161 2.346 . S
O181 C162 1.268 . S
O182 Ho160 2.378 . S
O182 C163 1.215 . S
O183 Ho160 2.524 . S
O183 C163 1.289 . S
O184 Ho160 2.381 . S
O184 C170 1.275 . S
O185 Ho160 2.669 . S
O185 Ho161 2.305 . S
O185 C170 1.256 . S
O186 Ho161 2.322 . S
O186 C171 1.259 . S
O187 Ho160 2.346 . S
O187 C171 1.268 . S
O188 Ho161 2.378 . S
O188 C172 1.215 . S
O189 Ho161 2.524 . S
O189 C172 1.289 . S
O190 Ho161 2.381 . S
O190 C179 1.275 . S
O191 Ho160 2.305 . S
O191 Ho161 2.669 . S
O191 C179 1.256 . S
H192 C165 0.930 . S
H193 C166 0.931 . S
H194 C168 0.934 . S
H195 C169 0.930 . S
H196 C174 0.930 . S
H197 C175 0.931 . S
H198 C177 0.934 . S
H199 C178 0.930 . S
Ho200 C203 2.811 . S
Ho200 O220 2.322 . S
Ho200 O222 2.378 . S
Ho200 O223 2.524 . S
Ho200 O224 2.381 1_565 S
Ho200 O225 2.669 1_565 S
Ho200 O227 2.346 1_565 S
Ho200 O231 2.305 1_565 S
Ho201 C212 2.811 . S
Ho201 O221 2.346 1_545 S
Ho201 O225 2.305 . S
Ho201 O226 2.322 . S
Ho201 O228 2.378 . S
Ho201 O229 2.524 . S
Ho201 O230 2.381 . S
Ho201 O231 2.669 . S
C202 O220 1.259 . S
C202 O221 1.268 . S
C203 Ho200 2.811 . S
C203 C204 1.488 . S
C203 O222 1.215 . S
C203 O223 1.289 . S
C204 C203 1.488 . S
C204 C205 1.348 . S
C204 C209 1.413 . S
C205 C204 1.348 . S
C205 C206 1.442 . S
C205 H232 0.930 . S
C206 C205 1.442 . S
C206 C207 1.381 . S
C206 H233 0.931 . S
C207 C206 1.381 . S
C207 C208 1.321 . S
C208 C207 1.321 . S
C208 C209 1.403 . S
C208 H234 0.934 . S
C209 C204 1.413 . S
C209 C208 1.403 . S
C209 H235 0.930 . S
C210 O224 1.275 . S
C210 O225 1.256 . S
C211 O226 1.259 . S
C211 O227 1.268 . S
C212 Ho201 2.811 . S
C212 C213 1.488 . S
C212 O228 1.215 . S
C212 O229 1.289 . S
C213 C212 1.488 . S
C213 C214 1.348 . S
C213 C218 1.413 . S
C214 C213 1.348 . S
C214 C215 1.442 . S
C214 H236 0.930 . S
C215 C214 1.442 . S
C215 C216 1.381 . S
C215 H237 0.931 . S
C216 C215 1.381 . S
C216 C217 1.321 . S
C217 C216 1.321 . S
C217 C218 1.403 . S
C217 H238 0.934 . S
C218 C213 1.413 . S
C218 C217 1.403 . S
C218 H239 0.930 . S
C219 O230 1.275 . S
C219 O231 1.256 . S
O220 Ho200 2.322 . S
O220 C202 1.259 . S
O221 Ho201 2.346 1_565 S
O221 C202 1.268 . S
O222 Ho200 2.378 . S
O222 C203 1.215 . S
O223 Ho200 2.524 . S
O223 C203 1.289 . S
O224 Ho200 2.381 1_545 S
O224 C210 1.275 . S
O225 Ho200 2.669 1_545 S
O225 Ho201 2.305 . S
O225 C210 1.256 . S
O226 Ho201 2.322 . S
O226 C211 1.259 . S
O227 Ho200 2.346 1_545 S
O227 C211 1.268 . S
O228 Ho201 2.378 . S
O228 C212 1.215 . S
O229 Ho201 2.524 . S
O229 C212 1.289 . S
O230 Ho201 2.381 . S
O230 C219 1.275 . S
O231 Ho200 2.305 1_545 S
O231 Ho201 2.669 . S
O231 C219 1.256 . S
H232 C205 0.930 . S
H233 C206 0.931 . S
H234 C208 0.934 . S
H235 C209 0.930 . S
H236 C214 0.930 . S
H237 C215 0.931 . S
H238 C217 0.934 . S
H239 C218 0.930 . S
Ho240 C243 2.811 . S
Ho240 O260 2.322 . S
Ho240 O262 2.378 . S
Ho240 O263 2.524 . S
Ho240 O264 2.381 . S
Ho240 O265 2.669 . S
Ho240 O267 2.346 . S
Ho240 O271 2.305 . S
Ho241 C252 2.811 . S
Ho241 O261 2.346 . S
Ho241 O265 2.305 . S
Ho241 O266 2.322 . S
Ho241 O268 2.378 . S
Ho241 O269 2.524 . S
Ho241 O270 2.381 . S
Ho241 O271 2.669 . S
C242 O260 1.259 . S
C242 O261 1.268 . S
C243 Ho240 2.811 . S
C243 C244 1.488 . S
C243 O262 1.215 . S
C243 O263 1.289 . S
C244 C243 1.488 . S
C244 C245 1.348 . S
C244 C249 1.413 . S
C245 C244 1.348 . S
C245 C246 1.442 . S
C245 H272 0.930 . S
C246 C245 1.442 . S
C246 C247 1.381 . S
C246 H273 0.931 . S
C247 C246 1.381 . S
C247 C248 1.321 . S
C248 C247 1.321 . S
C248 C249 1.403 . S
C248 H274 0.934 . S
C249 C244 1.413 . S
C249 C248 1.403 . S
C249 H275 0.930 . S
C250 O264 1.275 . S
C250 O265 1.256 . S
C251 O266 1.259 . S
C251 O267 1.268 . S
C252 Ho241 2.811 . S
C252 C253 1.488 1_455 S
C252 O268 1.215 . S
C252 O269 1.289 . S
C253 C252 1.488 1_655 S
C253 C254 1.348 . S
C253 C258 1.413 . S
C254 C253 1.348 . S
C254 C255 1.442 . S
C254 H276 0.930 . S
C255 C254 1.442 . S
C255 C256 1.381 . S
C255 H277 0.931 . S
C256 C255 1.381 . S
C256 C257 1.321 . S
C257 C256 1.321 . S
C257 C258 1.403 . S
C257 H278 0.934 . S
C258 C253 1.413 . S
C258 C257 1.403 . S
C258 H279 0.930 . S
C259 O270 1.275 . S
C259 O271 1.256 . S
O260 Ho240 2.322 . S
O260 C242 1.259 . S
O261 Ho241 2.346 . S
O261 C242 1.268 . S
O262 Ho240 2.378 . S
O262 C243 1.215 . S
O263 Ho240 2.524 . S
O263 C243 1.289 . S
O264 Ho240 2.381 . S
O264 C250 1.275 . S
O265 Ho240 2.669 . S
O265 Ho241 2.305 . S
O265 C250 1.256 . S
O266 Ho241 2.322 . S
O266 C251 1.259 . S
O267 Ho240 2.346 . S
O267 C251 1.268 . S
O268 Ho241 2.378 . S
O268 C252 1.215 . S
O269 Ho241 2.524 . S
O269 C252 1.289 . S
O270 Ho241 2.381 . S
O270 C259 1.275 . S
O271 Ho240 2.305 . S
O271 Ho241 2.669 . S
O271 C259 1.256 . S
H272 C245 0.930 . S
H273 C246 0.931 . S
H274 C248 0.934 . S
H275 C249 0.930 . S
H276 C254 0.930 . S
H277 C255 0.931 . S
H278 C257 0.934 . S
H279 C258 0.930 . S
Ho280 C283 2.811 . S
Ho280 O300 2.322 . S
Ho280 O302 2.378 . S
Ho280 O303 2.524 . S
Ho280 O304 2.381 . S
Ho280 O305 2.669 . S
Ho280 O307 2.346 . S
Ho280 O311 2.305 . S
Ho281 C292 2.811 . S
Ho281 O301 2.346 . S
Ho281 O305 2.305 . S
Ho281 O306 2.322 . S
Ho281 O308 2.378 . S
Ho281 O309 2.524 . S
Ho281 O310 2.381 . S
Ho281 O311 2.669 . S
C282 O300 1.259 . S
C282 O301 1.268 . S
C283 Ho280 2.811 . S
C283 C284 1.488 . S
C283 O302 1.215 . S
C283 O303 1.289 . S
C284 C283 1.488 . S
C284 C285 1.348 . S
C284 C289 1.413 . S
C285 C284 1.348 . S
C285 C286 1.442 . S
C285 H312 0.930 . S
C286 C285 1.442 . S
C286 C287 1.381 . S
C286 H313 0.931 . S
C287 C286 1.381 . S
C287 C288 1.321 . S
C288 C287 1.321 . S
C288 C289 1.403 . S
C288 H314 0.934 . S
C289 C284 1.413 . S
C289 C288 1.403 . S
C289 H315 0.930 . S
C290 O304 1.275 . S
C290 O305 1.256 . S
C291 O306 1.259 . S
C291 O307 1.268 . S
C292 Ho281 2.811 . S
C292 C293 1.488 . S
C292 O308 1.215 . S
C292 O309 1.289 . S
C293 C292 1.488 . S
C293 C294 1.348 . S
C293 C298 1.413 . S
C294 C293 1.348 . S
C294 C295 1.442 . S
C294 H316 0.930 . S
C295 C294 1.442 . S
C295 C296 1.381 . S
C295 H317 0.931 . S
C296 C295 1.381 . S
C296 C297 1.321 . S
C297 C296 1.321 . S
C297 C298 1.403 . S
C297 H318 0.934 . S
C298 C293 1.413 . S
C298 C297 1.403 . S
C298 H319 0.930 . S
C299 O310 1.275 . S
C299 O311 1.256 . S
O300 Ho280 2.322 . S
O300 C282 1.259 . S
O301 Ho281 2.346 . S
O301 C282 1.268 . S
O302 Ho280 2.378 . S
O302 C283 1.215 . S
O303 Ho280 2.524 . S
O303 C283 1.289 . S
O304 Ho280 2.381 . S
O304 C290 1.275 . S
O305 Ho280 2.669 . S
O305 Ho281 2.305 . S
O305 C290 1.256 . S
O306 Ho281 2.322 . S
O306 C291 1.259 . S
O307 Ho280 2.346 . S
O307 C291 1.268 . S
O308 Ho281 2.378 . S
O308 C292 1.215 . S
O309 Ho281 2.524 . S
O309 C292 1.289 . S
O310 Ho281 2.381 . S
O310 C299 1.275 . S
O311 Ho280 2.305 . S
O311 Ho281 2.669 . S
O311 C299 1.256 . S
H312 C285 0.930 . S
H313 C286 0.931 . S
H314 C288 0.934 . S
H315 C289 0.930 . S
H316 C294 0.930 . S
H317 C295 0.931 . S
H318 C297 0.934 . S
H319 C298 0.930 . S
Ho320 C323 2.811 . S
Ho320 O340 2.322 . S
Ho320 O342 2.378 . S
Ho320 O343 2.524 . S
Ho320 O344 2.381 . S
Ho320 O345 2.669 . S
Ho320 O347 2.346 . S
Ho320 O351 2.305 . S
Ho321 C332 2.811 1_565 S
Ho321 O341 2.346 . S
Ho321 O345 2.305 . S
Ho321 O346 2.322 . S
Ho321 O348 2.378 1_565 S
Ho321 O349 2.523 . S
Ho321 O350 2.381 . S
Ho321 O351 2.669 . S
C322 O340 1.259 . S
C322 O341 1.268 . S
C323 Ho320 2.811 . S
C323 C324 1.488 . S
C323 O342 1.215 . S
C323 O343 1.289 . S
C324 C323 1.488 . S
C324 C325 1.348 . S
C324 C329 1.413 . S
C325 C324 1.348 . S
C325 C326 1.442 . S
C325 H352 0.930 . S
C326 C325 1.442 . S
C326 C327 1.381 . S
C326 H353 0.931 . S
C327 C326 1.381 . S
C327 C328 1.321 . S
C328 C327 1.321 . S
C328 C329 1.403 . S
C328 H354 0.934 . S
C329 C324 1.413 . S
C329 C328 1.403 . S
C329 H355 0.930 . S
C330 O344 1.275 . S
C330 O345 1.256 . S
C331 O346 1.259 . S
C331 O347 1.268 . S
C332 Ho321 2.811 1_545 S
C332 C333 1.488 . S
C332 O348 1.215 . S
C332 O349 1.290 1_545 S
C333 C332 1.488 . S
C333 C334 1.348 . S
C333 C338 1.413 . S
C334 C333 1.348 . S
C334 C335 1.442 . S
C334 H356 0.930 . S
C335 C334 1.442 . S
C335 C336 1.381 . S
C335 H357 0.931 . S
C336 C335 1.381 . S
C336 C337 1.321 . S
C337 C336 1.321 . S
C337 C338 1.403 . S
C337 H358 0.934 . S
C338 C333 1.413 . S
C338 C337 1.403 . S
C338 H359 0.930 . S
C339 O350 1.275 . S
C339 O351 1.256 . S
O340 Ho320 2.322 . S
O340 C322 1.259 . S
O341 Ho321 2.346 . S
O341 C322 1.268 . S
O342 Ho320 2.378 . S
O342 C323 1.215 . S
O343 Ho320 2.524 . S
O343 C323 1.289 . S
O344 Ho320 2.381 . S
O344 C330 1.275 . S
O345 Ho320 2.669 . S
O345 Ho321 2.305 . S
O345 C330 1.256 . S
O346 Ho321 2.322 . S
O346 C331 1.259 . S
O347 Ho320 2.346 . S
O347 C331 1.268 . S
O348 Ho321 2.378 1_545 S
O348 C332 1.215 . S
O349 Ho321 2.523 . S
O349 C332 1.290 1_565 S
O350 Ho321 2.381 . S
O350 C339 1.275 . S
O351 Ho320 2.305 . S
O351 Ho321 2.669 . S
O351 C339 1.256 . S
H352 C325 0.930 . S
H353 C326 0.931 . S
H354 C328 0.934 . S
H355 C329 0.930 . S
H356 C334 0.930 . S
H357 C335 0.931 . S
H358 C337 0.934 . S
H359 C338 0.930 . S
Ho360 C363 2.811 . S
Ho360 O380 2.322 . S
Ho360 O382 2.378 . S
Ho360 O383 2.524 . S
Ho360 O384 2.381 . S
Ho360 O385 2.669 . S
Ho360 O387 2.346 . S
Ho360 O391 2.305 . S
Ho361 C372 2.811 . S
Ho361 O381 2.346 . S
Ho361 O385 2.305 . S
Ho361 O386 2.322 . S
Ho361 O388 2.378 . S
Ho361 O389 2.524 . S
Ho361 O390 2.381 . S
Ho361 O391 2.669 . S
C362 O380 1.259 . S
C362 O381 1.268 . S
C363 Ho360 2.811 . S
C363 C364 1.488 . S
C363 O382 1.215 . S
C363 O383 1.289 . S
C364 C363 1.488 . S
C364 C365 1.348 1_565 S
C364 C369 1.413 1_565 S
C365 C364 1.348 1_545 S
C365 C366 1.442 . S
C365 H392 0.930 1_545 S
C366 C365 1.442 . S
C366 C367 1.381 . S
C366 H393 0.931 . S
C367 C366 1.381 . S
C367 C368 1.321 . S
C368 C367 1.321 . S
C368 C369 1.403 . S
C368 H394 0.934 . S
C369 C364 1.413 1_545 S
C369 C368 1.403 . S
C369 H395 0.930 1_545 S
C370 O384 1.275 . S
C370 O385 1.256 . S
C371 O386 1.259 . S
C371 O387 1.268 . S
C372 Ho361 2.811 . S
C372 C373 1.488 . S
C372 O388 1.215 . S
C372 O389 1.289 . S
C373 C372 1.488 . S
C373 C374 1.348 . S
C373 C378 1.413 . S
C374 C373 1.348 . S
C374 C375 1.442 . S
C374 H396 0.930 . S
C375 C374 1.442 . S
C375 C376 1.381 . S
C375 H397 0.931 . S
C376 C375 1.381 . S
C376 C377 1.321 . S
C377 C376 1.321 . S
C377 C378 1.403 . S
C377 H398 0.934 . S
C378 C373 1.413 . S
C378 C377 1.403 . S
C378 H399 0.930 . S
C379 O390 1.275 . S
C379 O391 1.256 . S
O380 Ho360 2.322 . S
O380 C362 1.259 . S
O381 Ho361 2.346 . S
O381 C362 1.268 . S
O382 Ho360 2.378 . S
O382 C363 1.215 . S
O383 Ho360 2.524 . S
O383 C363 1.289 . S
O384 Ho360 2.381 . S
O384 C370 1.275 . S
O385 Ho360 2.669 . S
O385 Ho361 2.305 . S
O385 C370 1.256 . S
O386 Ho361 2.322 . S
O386 C371 1.259 . S
O387 Ho360 2.346 . S
O387 C371 1.268 . S
O388 Ho361 2.378 . S
O388 C372 1.215 . S
O389 Ho361 2.524 . S
O389 C372 1.289 . S
O390 Ho361 2.381 . S
O390 C379 1.275 . S
O391 Ho360 2.305 . S
O391 Ho361 2.669 . S
O391 C379 1.256 . S
H392 C365 0.930 1_565 S
H393 C366 0.931 . S
H394 C368 0.934 . S
H395 C369 0.930 1_565 S
H396 C374 0.930 . S
H397 C375 0.931 . S
H398 C377 0.934 . S
H399 C378 0.930 . S
Ho400 C403 2.811 . S
Ho400 O420 2.322 . S
Ho400 O422 2.378 . S
Ho400 O423 2.524 . S
Ho400 O424 2.381 . S
Ho400 O425 2.669 . S
Ho400 O427 2.346 . S
Ho400 O431 2.305 . S
Ho401 C412 2.811 . S
Ho401 O421 2.346 . S
Ho401 O425 2.305 . S
Ho401 O426 2.322 . S
Ho401 O428 2.378 . S
Ho401 O429 2.524 . S
Ho401 O430 2.381 . S
Ho401 O431 2.669 . S
C402 O420 1.259 . S
C402 O421 1.268 . S
C403 Ho400 2.811 . S
C403 C404 1.488 . S
C403 O422 1.215 . S
C403 O423 1.289 . S
C404 C403 1.488 . S
C404 C405 1.348 . S
C404 C409 1.413 . S
C405 C404 1.348 . S
C405 C406 1.442 1_455 S
C405 H432 0.930 . S
C406 C405 1.442 1_655 S
C406 C407 1.381 . S
C406 H433 0.931 . S
C407 C406 1.381 . S
C407 C408 1.321 . S
C408 C407 1.321 . S
C408 C409 1.403 1_655 S
C408 H434 0.934 . S
C409 C404 1.413 . S
C409 C408 1.403 1_455 S
C409 H435 0.930 . S
C410 O424 1.275 . S
C410 O425 1.256 . S
C411 O426 1.259 . S
C411 O427 1.268 . S
C412 Ho401 2.811 . S
C412 C413 1.488 . S
C412 O428 1.215 . S
C412 O429 1.289 . S
C413 C412 1.488 . S
C413 C414 1.348 . S
C413 C418 1.413 . S
C414 C413 1.348 . S
C414 C415 1.442 . S
C414 H436 0.930 . S
C415 C414 1.442 . S
C415 C416 1.381 . S
C415 H437 0.931 . S
C416 C415 1.381 . S
C416 C417 1.321 . S
C417 C416 1.321 . S
C417 C418 1.403 . S
C417 H438 0.934 . S
C418 C413 1.413 . S
C418 C417 1.403 . S
C418 H439 0.930 . S
C419 O430 1.275 . S
C419 O431 1.256 . S
O420 Ho400 2.322 . S
O420 C402 1.259 . S
O421 Ho401 2.346 . S
O421 C402 1.268 . S
O422 Ho400 2.378 . S
O422 C403 1.215 . S
O423 Ho400 2.524 . S
O423 C403 1.289 . S
O424 Ho400 2.381 . S
O424 C410 1.275 . S
O425 Ho400 2.669 . S
O425 Ho401 2.305 . S
O425 C410 1.256 . S
O426 Ho401 2.322 . S
O426 C411 1.259 . S
O427 Ho400 2.346 . S
O427 C411 1.268 . S
O428 Ho401 2.378 . S
O428 C412 1.215 . S
O429 Ho401 2.524 . S
O429 C412 1.289 . S
O430 Ho401 2.381 . S
O430 C419 1.275 . S
O431 Ho400 2.305 . S
O431 Ho401 2.669 . S
O431 C419 1.256 . S
H432 C405 0.930 . S
H433 C406 0.931 . S
H434 C408 0.934 . S
H435 C409 0.930 . S
H436 C414 0.930 . S
H437 C415 0.931 . S
H438 C417 0.934 . S
H439 C418 0.930 . S
Ho440 C443 2.811 . S
Ho440 O460 2.322 . S
Ho440 O462 2.378 . S
Ho440 O463 2.524 . S
Ho440 O464 2.381 . S
Ho440 O465 2.669 . S
Ho440 O467 2.346 . S
Ho440 O471 2.305 . S
Ho441 C452 2.811 . S
Ho441 O461 2.346 . S
Ho441 O465 2.305 . S
Ho441 O466 2.322 . S
Ho441 O468 2.378 . S
Ho441 O469 2.524 . S
Ho441 O470 2.381 . S
Ho441 O471 2.669 . S
C442 O460 1.259 . S
C442 O461 1.268 . S
C443 Ho440 2.811 . S
C443 C444 1.488 . S
C443 O462 1.215 . S
C443 O463 1.289 . S
C444 C443 1.488 . S
C444 C445 1.348 . S
C444 C449 1.413 . S
C445 C444 1.348 . S
C445 C446 1.442 . S
C445 H472 0.930 . S
C446 C445 1.442 . S
C446 C447 1.381 . S
C446 H473 0.931 . S
C447 C446 1.381 . S
C447 C448 1.321 . S
C448 C447 1.321 . S
C448 C449 1.403 . S
C448 H474 0.934 . S
C449 C444 1.413 . S
C449 C448 1.403 . S
C449 H475 0.930 . S
C450 O464 1.275 . S
C450 O465 1.256 . S
C451 O466 1.259 . S
C451 O467 1.268 . S
C452 Ho441 2.811 . S
C452 C453 1.488 . S
C452 O468 1.215 . S
C452 O469 1.289 . S
C453 C452 1.488 . S
C453 C454 1.348 . S
C453 C458 1.413 . S
C454 C453 1.348 . S
C454 C455 1.442 . S
C454 H476 0.930 . S
C455 C454 1.442 . S
C455 C456 1.381 . S
C455 H477 0.931 . S
C456 C455 1.381 . S
C456 C457 1.321 . S
C457 C456 1.321 . S
C457 C458 1.403 . S
C457 H478 0.934 . S
C458 C453 1.413 . S
C458 C457 1.403 . S
C458 H479 0.930 . S
C459 O470 1.275 . S
C459 O471 1.256 . S
O460 Ho440 2.322 . S
O460 C442 1.259 . S
O461 Ho441 2.346 . S
O461 C442 1.268 . S
O462 Ho440 2.378 . S
O462 C443 1.215 . S
O463 Ho440 2.524 . S
O463 C443 1.289 . S
O464 Ho440 2.381 . S
O464 C450 1.275 . S
O465 Ho440 2.669 . S
O465 Ho441 2.305 . S
O465 C450 1.256 . S
O466 Ho441 2.322 . S
O466 C451 1.259 . S
O467 Ho440 2.346 . S
O467 C451 1.268 . S
O468 Ho441 2.378 . S
O468 C452 1.215 . S
O469 Ho441 2.524 . S
O469 C452 1.289 . S
O470 Ho441 2.381 . S
O470 C459 1.275 . S
O471 Ho440 2.305 . S
O471 Ho441 2.669 . S
O471 C459 1.256 . S
H472 C445 0.930 . S
H473 C446 0.931 . S
H474 C448 0.934 . S
H475 C449 0.930 . S
H476 C454 0.930 . S
H477 C455 0.931 . S
H478 C457 0.934 . S
H479 C458 0.930 . S
Ho480 C483 2.811 . S
Ho480 O500 2.322 . S
Ho480 O502 2.378 . S
Ho480 O503 2.524 . S
Ho480 O504 2.381 . S
Ho480 O505 2.669 . S
Ho480 O507 2.346 . S
Ho480 O511 2.305 . S
Ho481 C492 2.811 . S
Ho481 O501 2.346 . S
Ho481 O505 2.305 . S
Ho481 O506 2.322 . S
Ho481 O508 2.378 . S
Ho481 O509 2.524 . S
Ho481 O510 2.381 . S
Ho481 O511 2.669 . S
C482 O500 1.259 . S
C482 O501 1.268 . S
C483 Ho480 2.811 . S
C483 C484 1.488 . S
C483 O502 1.215 . S
C483 O503 1.289 . S
C484 C483 1.488 . S
C484 C485 1.348 1_655 S
C484 C489 1.413 1_655 S
C485 C484 1.348 1_455 S
C485 C486 1.442 . S
C485 H512 0.930 1_455 S
C486 C485 1.442 . S
C486 C487 1.381 . S
C486 H513 0.931 . S
C487 C486 1.381 . S
C487 C488 1.321 . S
C488 C487 1.321 . S
C488 C489 1.403 . S
C488 H514 0.934 . S
C489 C484 1.413 1_455 S
C489 C488 1.403 . S
C489 H515 0.930 1_455 S
C490 O504 1.275 . S
C490 O505 1.256 . S
C491 O506 1.259 . S
C491 O507 1.268 . S
C492 Ho481 2.811 . S
C492 C493 1.488 . S
C492 O508 1.215 . S
C492 O509 1.289 . S
C493 C492 1.488 . S
C493 C494 1.348 . S
C493 C498 1.413 . S
C494 C493 1.348 . S
C494 C495 1.442 . S
C494 H516 0.930 . S
C495 C494 1.442 . S
C495 C496 1.381 . S
C495 H517 0.931 . S
C496 C495 1.381 . S
C496 C497 1.321 . S
C497 C496 1.321 . S
C497 C498 1.403 . S
C497 H518 0.934 . S
C498 C493 1.413 . S
C498 C497 1.403 . S
C498 H519 0.930 . S
C499 O510 1.275 . S
C499 O511 1.256 . S
O500 Ho480 2.322 . S
O500 C482 1.259 . S
O501 Ho481 2.346 . S
O501 C482 1.268 . S
O502 Ho480 2.378 . S
O502 C483 1.215 . S
O503 Ho480 2.524 . S
O503 C483 1.289 . S
O504 Ho480 2.381 . S
O504 C490 1.275 . S
O505 Ho480 2.669 . S
O505 Ho481 2.305 . S
O505 C490 1.256 . S
O506 Ho481 2.322 . S
O506 C491 1.259 . S
O507 Ho480 2.346 . S
O507 C491 1.268 . S
O508 Ho481 2.378 . S
O508 C492 1.215 . S
O509 Ho481 2.524 . S
O509 C492 1.289 . S
O510 Ho481 2.381 . S
O510 C499 1.275 . S
O511 Ho480 2.305 . S
O511 Ho481 2.669 . S
O511 C499 1.256 . S
H512 C485 0.930 1_655 S
H513 C486 0.931 . S
H514 C488 0.934 . S
H515 C489 0.930 1_655 S
H516 C494 0.930 . S
H517 C495 0.931 . S
H518 C497 0.934 . S
H519 C498 0.930 . S
Ho520 C523 2.811 . S
Ho520 O540 2.322 . S
Ho520 O542 2.378 . S
Ho520 O543 2.524 . S
Ho520 O544 2.381 . S
Ho520 O545 2.669 . S
Ho520 O547 2.346 . S
Ho520 O551 2.305 . S
Ho521 C532 2.811 . S
Ho521 O541 2.346 . S
Ho521 O545 2.305 . S
Ho521 O546 2.322 . S
Ho521 O548 2.378 . S
Ho521 O549 2.524 . S
Ho521 O550 2.381 . S
Ho521 O551 2.669 . S
C522 O540 1.259 . S
C522 O541 1.268 . S
C523 Ho520 2.811 . S
C523 C524 1.488 . S
C523 O542 1.215 . S
C523 O543 1.289 . S
C524 C523 1.488 . S
C524 C525 1.348 . S
C524 C529 1.413 . S
C525 C524 1.348 . S
C525 C526 1.442 . S
C525 H552 0.930 . S
C526 C525 1.442 . S
C526 C527 1.381 . S
C526 H553 0.931 . S
C527 C526 1.381 . S
C527 C528 1.321 . S
C528 C527 1.321 . S
C528 C529 1.403 . S
C528 H554 0.934 . S
C529 C524 1.413 . S
C529 C528 1.403 . S
C529 H555 0.930 . S
C530 O544 1.275 . S
C530 O545 1.256 . S
C531 O546 1.259 . S
C531 O547 1.268 . S
C532 Ho521 2.811 . S
C532 C533 1.488 . S
C532 O548 1.215 . S
C532 O549 1.289 . S
C533 C532 1.488 . S
C533 C534 1.348 . S
C533 C538 1.413 . S
C534 C533 1.348 . S
C534 C535 1.442 . S
C534 H556 0.930 . S
C535 C534 1.442 . S
C535 C536 1.381 . S
C535 H557 0.931 . S
C536 C535 1.381 . S
C536 C537 1.321 . S
C537 C536 1.321 . S
C537 C538 1.403 . S
C537 H558 0.934 . S
C538 C533 1.413 . S
C538 C537 1.403 . S
C538 H559 0.930 . S
C539 O550 1.275 . S
C539 O551 1.256 . S
O540 Ho520 2.322 . S
O540 C522 1.259 . S
O541 Ho521 2.346 . S
O541 C522 1.268 . S
O542 Ho520 2.378 . S
O542 C523 1.215 . S
O543 Ho520 2.524 . S
O543 C523 1.289 . S
O544 Ho520 2.381 . S
O544 C530 1.275 . S
O545 Ho520 2.669 . S
O545 Ho521 2.305 . S
O545 C530 1.256 . S
O546 Ho521 2.322 . S
O546 C531 1.259 . S
O547 Ho520 2.346 . S
O547 C531 1.268 . S
O548 Ho521 2.378 . S
O548 C532 1.215 . S
O549 Ho521 2.524 . S
O549 C532 1.289 . S
O550 Ho521 2.381 . S
O550 C539 1.275 . S
O551 Ho520 2.305 . S
O551 Ho521 2.669 . S
O551 C539 1.256 . S
H552 C525 0.930 . S
H553 C526 0.931 . S
H554 C528 0.934 . S
H555 C529 0.930 . S
H556 C534 0.930 . S
H557 C535 0.931 . S
H558 C537 0.934 . S
H559 C538 0.930 . S
Ho560 C563 2.811 . S
Ho560 O580 2.322 . S
Ho560 O582 2.378 . S
Ho560 O583 2.524 . S
Ho560 O584 2.381 . S
Ho560 O585 2.669 . S
Ho560 O587 2.346 . S
Ho560 O591 2.305 . S
Ho561 C572 2.811 . S
Ho561 O581 2.346 . S
Ho561 O585 2.305 . S
Ho561 O586 2.322 . S
Ho561 O588 2.378 . S
Ho561 O589 2.524 . S
Ho561 O590 2.381 . S
Ho561 O591 2.669 . S
C562 O580 1.259 . S
C562 O581 1.268 . S
C563 Ho560 2.811 . S
C563 C564 1.488 . S
C563 O582 1.215 . S
C563 O583 1.289 . S
C564 C563 1.488 . S
C564 C565 1.348 . S
C564 C569 1.413 . S
C565 C564 1.348 . S
C565 C566 1.442 1_545 S
C565 H592 0.930 . S
C566 C565 1.442 1_565 S
C566 C567 1.381 . S
C566 H593 0.931 . S
C567 C566 1.381 . S
C567 C568 1.321 . S
C568 C567 1.321 . S
C568 C569 1.403 1_565 S
C568 H594 0.934 . S
C569 C564 1.413 . S
C569 C568 1.403 1_545 S
C569 H595 0.930 . S
C570 O584 1.275 . S
C570 O585 1.256 . S
C571 O586 1.259 . S
C571 O587 1.268 . S
C572 Ho561 2.811 . S
C572 C573 1.488 . S
C572 O588 1.215 . S
C572 O589 1.289 . S
C573 C572 1.488 . S
C573 C574 1.348 . S
C573 C578 1.413 . S
C574 C573 1.348 . S
C574 C575 1.442 . S
C574 H596 0.930 . S
C575 C574 1.442 . S
C575 C576 1.381 . S
C575 H597 0.931 . S
C576 C575 1.381 . S
C576 C577 1.321 . S
C577 C576 1.321 . S
C577 C578 1.403 . S
C577 H598 0.934 . S
C578 C573 1.413 . S
C578 C577 1.403 . S
C578 H599 0.930 . S
C579 O590 1.275 . S
C579 O591 1.256 . S
O580 Ho560 2.322 . S
O580 C562 1.259 . S
O581 Ho561 2.346 . S
O581 C562 1.268 . S
O582 Ho560 2.378 . S
O582 C563 1.215 . S
O583 Ho560 2.524 . S
O583 C563 1.289 . S
O584 Ho560 2.381 . S
O584 C570 1.275 . S
O585 Ho560 2.669 . S
O585 Ho561 2.305 . S
O585 C570 1.256 . S
O586 Ho561 2.322 . S
O586 C571 1.259 . S
O587 Ho560 2.346 . S
O587 C571 1.268 . S
O588 Ho561 2.378 . S
O588 C572 1.215 . S
O589 Ho561 2.524 . S
O589 C572 1.289 . S
O590 Ho561 2.381 . S
O590 C579 1.275 . S
O591 Ho560 2.305 . S
O591 Ho561 2.669 . S
O591 C579 1.256 . S
H592 C565 0.930 . S
H593 C566 0.931 . S
H594 C568 0.934 . S
H595 C569 0.930 . S
H596 C574 0.930 . S
H597 C575 0.931 . S
H598 C577 0.934 . S
H599 C578 0.930 . S
Ho600 C603 2.811 . S
Ho600 O620 2.322 . S
Ho600 O622 2.378 . S
Ho600 O623 2.524 . S
Ho600 O624 2.381 . S
Ho600 O625 2.669 . S
Ho600 O627 2.346 . S
Ho600 O631 2.305 . S
Ho601 C612 2.811 . S
Ho601 O621 2.346 . S
Ho601 O625 2.305 . S
Ho601 O626 2.322 . S
Ho601 O628 2.378 . S
Ho601 O629 2.524 . S
Ho601 O630 2.381 . S
Ho601 O631 2.669 . S
C602 O620 1.259 . S
C602 O621 1.268 . S
C603 Ho600 2.811 . S
C603 C604 1.488 . S
C603 O622 1.215 . S
C603 O623 1.289 . S
C604 C603 1.488 . S
C604 C605 1.348 . S
C604 C609 1.413 . S
C605 C604 1.348 . S
C605 C606 1.442 . S
C605 H632 0.930 . S
C606 C605 1.442 . S
C606 C607 1.381 . S
C606 H633 0.931 . S
C607 C606 1.381 . S
C607 C608 1.321 . S
C608 C607 1.321 . S
C608 C609 1.403 . S
C608 H634 0.934 . S
C609 C604 1.413 . S
C609 C608 1.403 . S
C609 H635 0.930 . S
C610 O624 1.275 . S
C610 O625 1.256 . S
C611 O626 1.259 . S
C611 O627 1.268 . S
C612 Ho601 2.811 . S
C612 C613 1.488 1_545 S
C612 O628 1.215 . S
C612 O629 1.289 . S
C613 C612 1.488 1_565 S
C613 C614 1.348 . S
C613 C618 1.413 . S
C614 C613 1.348 . S
C614 C615 1.442 . S
C614 H636 0.930 . S
C615 C614 1.442 . S
C615 C616 1.381 . S
C615 H637 0.931 . S
C616 C615 1.381 . S
C616 C617 1.321 . S
C617 C616 1.321 . S
C617 C618 1.403 . S
C617 H638 0.934 . S
C618 C613 1.413 . S
C618 C617 1.403 . S
C618 H639 0.930 . S
C619 O630 1.275 . S
C619 O631 1.256 . S
O620 Ho600 2.322 . S
O620 C602 1.259 . S
O621 Ho601 2.346 . S
O621 C602 1.268 . S
O622 Ho600 2.378 . S
O622 C603 1.215 . S
O623 Ho600 2.524 . S
O623 C603 1.289 . S
O624 Ho600 2.381 . S
O624 C610 1.275 . S
O625 Ho600 2.669 . S
O625 Ho601 2.305 . S
O625 C610 1.256 . S
O626 Ho601 2.322 . S
O626 C611 1.259 . S
O627 Ho600 2.346 . S
O627 C611 1.268 . S
O628 Ho601 2.378 . S
O628 C612 1.215 . S
O629 Ho601 2.524 . S
O629 C612 1.289 . S
O630 Ho601 2.381 . S
O630 C619 1.275 . S
O631 Ho600 2.305 . S
O631 Ho601 2.669 . S
O631 C619 1.256 . S
H632 C605 0.930 . S
H633 C606 0.931 . S
H634 C608 0.934 . S
H635 C609 0.930 . S
H636 C614 0.930 . S
H637 C615 0.931 . S
H638 C617 0.934 . S
H639 C618 0.930 . S
Ho640 C643 2.811 . S
Ho640 O660 2.322 . S
Ho640 O662 2.378 . S
Ho640 O663 2.524 . S
Ho640 O664 2.381 . S
Ho640 O665 2.669 . S
Ho640 O667 2.346 . S
Ho640 O671 2.305 . S
Ho641 C652 2.811 1_655 S
Ho641 O661 2.346 . S
Ho641 O665 2.305 . S
Ho641 O666 2.322 . S
Ho641 O668 2.378 1_655 S
Ho641 O669 2.523 . S
Ho641 O670 2.381 . S
Ho641 O671 2.669 . S
C642 O660 1.259 . S
C642 O661 1.268 . S
C643 Ho640 2.811 . S
C643 C644 1.488 . S
C643 O662 1.215 . S
C643 O663 1.289 . S
C644 C643 1.488 . S
C644 C645 1.348 . S
C644 C649 1.413 . S
C645 C644 1.348 . S
C645 C646 1.442 . S
C645 H672 0.930 . S
C646 C645 1.442 . S
C646 C647 1.381 . S
C646 H673 0.931 . S
C647 C646 1.381 . S
C647 C648 1.321 . S
C648 C647 1.321 . S
C648 C649 1.403 . S
C648 H674 0.934 . S
C649 C644 1.413 . S
C649 C648 1.403 . S
C649 H675 0.930 . S
C650 O664 1.275 . S
C650 O665 1.256 . S
C651 O666 1.259 . S
C651 O667 1.268 . S
C652 Ho641 2.811 1_455 S
C652 C653 1.488 . S
C652 O668 1.215 . S
C652 O669 1.290 1_455 S
C653 C652 1.488 . S
C653 C654 1.348 . S
C653 C658 1.413 . S
C654 C653 1.348 . S
C654 C655 1.442 . S
C654 H676 0.930 . S
C655 C654 1.442 . S
C655 C656 1.381 . S
C655 H677 0.931 . S
C656 C655 1.381 . S
C656 C657 1.321 . S
C657 C656 1.321 . S
C657 C658 1.403 . S
C657 H678 0.934 . S
C658 C653 1.413 . S
C658 C657 1.403 . S
C658 H679 0.930 . S
C659 O670 1.275 . S
C659 O671 1.256 . S
O660 Ho640 2.322 . S
O660 C642 1.259 . S
O661 Ho641 2.346 . S
O661 C642 1.268 . S
O662 Ho640 2.378 . S
O662 C643 1.215 . S
O663 Ho640 2.524 . S
O663 C643 1.289 . S
O664 Ho640 2.381 . S
O664 C650 1.275 . S
O665 Ho640 2.669 . S
O665 Ho641 2.305 . S
O665 C650 1.256 . S
O666 Ho641 2.322 . S
O666 C651 1.259 . S
O667 Ho640 2.346 . S
O667 C651 1.268 . S
O668 Ho641 2.378 1_455 S
O668 C652 1.215 . S
O669 Ho641 2.523 . S
O669 C652 1.290 1_655 S
O670 Ho641 2.381 . S
O670 C659 1.275 . S
O671 Ho640 2.305 . S
O671 Ho641 2.669 . S
O671 C659 1.256 . S
H672 C645 0.930 . S
H673 C646 0.931 . S
H674 C648 0.934 . S
H675 C649 0.930 . S
H676 C654 0.930 . S
H677 C655 0.931 . S
H678 C657 0.934 . S
H679 C658 0.930 . S
Ho680 C683 2.811 . S
Ho680 O700 2.322 . S
Ho680 O702 2.378 . S
Ho680 O703 2.524 . S
Ho680 O704 2.381 . S
Ho680 O705 2.669 . S
Ho680 O707 2.346 . S
Ho680 O711 2.305 . S
Ho681 C692 2.811 . S
Ho681 O701 2.346 . S
Ho681 O705 2.305 . S
Ho681 O706 2.322 . S
Ho681 O708 2.378 . S
Ho681 O709 2.524 . S
Ho681 O710 2.381 . S
Ho681 O711 2.669 . S
C682 O700 1.259 . S
C682 O701 1.268 . S
C683 Ho680 2.811 . S
C683 C684 1.488 . S
C683 O702 1.215 . S
C683 O703 1.289 . S
C684 C683 1.488 . S
C684 C685 1.348 . S
C684 C689 1.413 . S
C685 C684 1.348 . S
C685 C686 1.442 . S
C685 H712 0.930 . S
C686 C685 1.442 . S
C686 C687 1.381 . S
C686 H713 0.931 . S
C687 C686 1.381 . S
C687 C688 1.321 . S
C688 C687 1.321 . S
C688 C689 1.403 . S
C688 H714 0.934 . S
C689 C684 1.413 . S
C689 C688 1.403 . S
C689 H715 0.930 . S
C690 O704 1.275 . S
C690 O705 1.256 . S
C691 O706 1.259 . S
C691 O707 1.268 . S
C692 Ho681 2.811 . S
C692 C693 1.488 . S
C692 O708 1.215 . S
C692 O709 1.289 . S
C693 C692 1.488 . S
C693 C694 1.348 . S
C693 C698 1.413 . S
C694 C693 1.348 . S
C694 C695 1.442 . S
C694 H716 0.930 . S
C695 C694 1.442 . S
C695 C696 1.381 . S
C695 H717 0.931 . S
C696 C695 1.381 . S
C696 C697 1.321 . S
C697 C696 1.321 . S
C697 C698 1.403 . S
C697 H718 0.934 . S
C698 C693 1.413 . S
C698 C697 1.403 . S
C698 H719 0.930 . S
C699 O710 1.275 . S
C699 O711 1.256 . S
O700 Ho680 2.322 . S
O700 C682 1.259 . S
O701 Ho681 2.346 . S
O701 C682 1.268 . S
O702 Ho680 2.378 . S
O702 C683 1.215 . S
O703 Ho680 2.524 . S
O703 C683 1.289 . S
O704 Ho680 2.381 . S
O704 C690 1.275 . S
O705 Ho680 2.669 . S
O705 Ho681 2.305 . S
O705 C690 1.256 . S
O706 Ho681 2.322 . S
O706 C691 1.259 . S
O707 Ho680 2.346 . S
O707 C691 1.268 . S
O708 Ho681 2.378 . S
O708 C692 1.215 . S
O709 Ho681 2.524 . S
O709 C692 1.289 . S
O710 Ho681 2.381 . S
O710 C699 1.275 . S
O711 Ho680 2.305 . S
O711 Ho681 2.669 . S
O711 C699 1.256 . S
H712 C685 0.930 . S
H713 C686 0.931 . S
H714 C688 0.934 . S
H715 C689 0.930 . S
H716 C694 0.930 . S
H717 C695 0.931 . S
H718 C697 0.934 . S
H719 C698 0.930 . S
C720 C721 1.363 . S
C720 C726 1.379 . S
C720 N728 1.356 . S
C721 C720 1.363 . S
C721 C727 1.363 . S
C722 C723 1.363 . S
C722 C727 1.379 . S
C722 N729 1.356 . S
C723 C722 1.363 . S
C723 C726 1.363 . S
N724 C726 1.356 . S
N724 H736 0.984 . S
N724 H737 0.985 . S
N725 C727 1.356 . S
N725 H730 0.984 . S
N725 H731 0.985 . S
C726 C720 1.379 . S
C726 C723 1.363 . S
C726 N724 1.356 . S
C727 C721 1.363 . S
C727 C722 1.379 . S
C727 N725 1.356 . S
N728 C720 1.356 . S
N728 H734 0.984 . S
N728 H735 0.984 . S
N729 C722 1.356 . S
N729 H732 0.984 . S
N729 H733 0.985 . S
H730 N725 0.984 . S
H731 N725 0.985 . S
H732 N729 0.984 . S
H733 N729 0.985 . S
H734 N728 0.984 . S
H735 N728 0.984 . S
H736 N724 0.984 . S
H737 N724 0.985 . S
C738 C739 1.363 . S
C738 C744 1.379 . S
C738 N746 1.356 . S
C739 C738 1.363 . S
C739 C745 1.363 . S
C740 C741 1.363 . S
C740 C745 1.379 . S
C740 N747 1.356 . S
C741 C740 1.363 . S
C741 C744 1.363 . S
N742 C744 1.356 . S
N742 H754 0.984 . S
N742 H755 0.985 . S
N743 C745 1.356 . S
N743 H748 0.984 . S
N743 H749 0.985 . S
C744 C738 1.379 . S
C744 C741 1.363 . S
C744 N742 1.356 . S
C745 C739 1.363 . S
C745 C740 1.379 . S
C745 N743 1.356 . S
N746 C738 1.356 . S
N746 H752 0.984 . S
N746 H753 0.984 . S
N747 C740 1.356 . S
N747 H750 0.984 . S
N747 H751 0.985 . S
H748 N743 0.984 . S
H749 N743 0.985 . S
H750 N747 0.984 . S
H751 N747 0.985 . S
H752 N746 0.984 . S
H753 N746 0.984 . S
H754 N742 0.984 . S
H755 N742 0.985 . S
C756 C757 1.363 . S
C756 C762 1.379 . S
C756 N764 1.356 . S
C757 C756 1.363 . S
C757 C763 1.363 . S
C758 C759 1.363 . S
C758 C763 1.379 . S
C758 N765 1.356 . S
C759 C758 1.363 . S
C759 C762 1.363 . S
N760 C762 1.356 . S
N760 H772 0.984 . S
N760 H773 0.985 . S
N761 C763 1.356 . S
N761 H766 0.984 . S
N761 H767 0.985 . S
C762 C756 1.379 . S
C762 C759 1.363 . S
C762 N760 1.356 . S
C763 C757 1.363 . S
C763 C758 1.379 . S
C763 N761 1.356 . S
N764 C756 1.356 . S
N764 H770 0.984 . S
N764 H771 0.984 . S
N765 C758 1.356 . S
N765 H768 0.984 . S
N765 H769 0.985 . S
H766 N761 0.984 . S
H767 N761 0.985 . S
H768 N765 0.984 . S
H769 N765 0.985 . S
H770 N764 0.984 . S
H771 N764 0.984 . S
H772 N760 0.984 . S
H773 N760 0.985 . S
C774 C775 1.363 . S
C774 C780 1.379 . S
C774 N782 1.356 . S
C775 C774 1.363 . S
C775 C781 1.363 . S
C776 C777 1.363 . S
C776 C781 1.379 . S
C776 N783 1.356 . S
C777 C776 1.363 . S
C777 C780 1.363 . S
N778 C780 1.356 . S
N778 H790 0.984 . S
N778 H791 0.985 . S
N779 C781 1.356 . S
N779 H784 0.984 . S
N779 H785 0.985 . S
C780 C774 1.379 . S
C780 C777 1.363 . S
C780 N778 1.356 . S
C781 C775 1.363 . S
C781 C776 1.379 . S
C781 N779 1.356 . S
N782 C774 1.356 . S
N782 H788 0.984 . S
N782 H789 0.984 . S
N783 C776 1.356 . S
N783 H786 0.984 . S
N783 H787 0.985 . S
H784 N779 0.984 . S
H785 N779 0.985 . S
H786 N783 0.984 . S
H787 N783 0.985 . S
H788 N782 0.984 . S
H789 N782 0.984 . S
H790 N778 0.984 . S
H791 N778 0.985 . S
C792 C793 1.363 . S
C792 C798 1.379 . S
C792 N800 1.356 . S
C793 C792 1.363 . S
C793 C799 1.363 . S
C794 C795 1.363 . S
C794 C799 1.379 . S
C794 N801 1.356 . S
C795 C794 1.363 . S
C795 C798 1.363 . S
N796 C798 1.356 . S
N796 H808 0.984 . S
N796 H809 0.985 . S
N797 C799 1.356 . S
N797 H802 0.984 . S
N797 H803 0.985 . S
C798 C792 1.379 . S
C798 C795 1.363 . S
C798 N796 1.356 . S
C799 C793 1.363 . S
C799 C794 1.379 . S
C799 N797 1.356 . S
N800 C792 1.356 . S
N800 H806 0.984 . S
N800 H807 0.984 . S
N801 C794 1.356 . S
N801 H804 0.984 . S
N801 H805 0.985 . S
H802 N797 0.984 . S
H803 N797 0.985 . S
H804 N801 0.984 . S
H805 N801 0.985 . S
H806 N800 0.984 . S
H807 N800 0.984 . S
H808 N796 0.984 . S
H809 N796 0.985 . S
C810 C811 1.363 . S
C810 C816 1.379 . S
C810 N818 1.356 . S
C811 C810 1.363 . S
C811 C817 1.363 . S
C812 C813 1.363 . S
C812 C817 1.379 . S
C812 N819 1.356 . S
C813 C812 1.363 . S
C813 C816 1.363 . S
N814 C816 1.356 . S
N814 H826 0.984 . S
N814 H827 0.985 . S
N815 C817 1.356 . S
N815 H820 0.984 . S
N815 H821 0.985 . S
C816 C810 1.379 . S
C816 C813 1.363 . S
C816 N814 1.356 . S
C817 C811 1.363 . S
C817 C812 1.379 . S
C817 N815 1.356 . S
N818 C810 1.356 . S
N818 H824 0.984 . S
N818 H825 0.984 . S
N819 C812 1.356 . S
N819 H822 0.984 . S
N819 H823 0.985 . S
H820 N815 0.984 . S
H821 N815 0.985 . S
H822 N819 0.984 . S
H823 N819 0.985 . S
H824 N818 0.984 . S
H825 N818 0.984 . S
H826 N814 0.984 . S
H827 N814 0.985 . S
C828 C829 1.363 . S
C828 C834 1.379 . S
C828 N836 1.356 . S
C829 C828 1.363 . S
C829 C835 1.363 . S
C830 C831 1.363 . S
C830 C835 1.379 . S
C830 N837 1.356 . S
C831 C830 1.363 . S
C831 C834 1.363 . S
N832 C834 1.356 . S
N832 H844 0.984 . S
N832 H845 0.985 . S
N833 C835 1.356 . S
N833 H838 0.984 . S
N833 H839 0.985 . S
C834 C828 1.379 . S
C834 C831 1.363 . S
C834 N832 1.356 . S
C835 C829 1.363 . S
C835 C830 1.379 . S
C835 N833 1.356 . S
N836 C828 1.356 . S
N836 H842 0.984 . S
N836 H843 0.984 . S
N837 C830 1.356 . S
N837 H840 0.984 . S
N837 H841 0.985 . S
H838 N833 0.984 . S
H839 N833 0.985 . S
H840 N837 0.984 . S
H841 N837 0.985 . S
H842 N836 0.984 . S
H843 N836 0.984 . S
H844 N832 0.984 . S
H845 N832 0.985 . S
C846 C847 1.363 . S
C846 C852 1.379 1_545 S
C846 N854 1.356 . S
C847 C846 1.363 . S
C847 C853 1.363 . S
C848 C849 1.363 . S
C848 C853 1.379 1_565 S
C848 N855 1.356 . S
C849 C848 1.363 . S
C849 C852 1.363 . S
N850 C852 1.356 . S
N850 H862 0.984 . S
N850 H863 0.985 . S
N851 C853 1.356 . S
N851 H856 0.984 . S
N851 H857 0.985 . S
C852 C846 1.379 1_565 S
C852 C849 1.363 . S
C852 N850 1.356 . S
C853 C847 1.363 . S
C853 C848 1.379 1_545 S
C853 N851 1.356 . S
N854 C846 1.356 . S
N854 H860 0.984 . S
N854 H861 0.984 . S
N855 C848 1.356 . S
N855 H858 0.984 . S
N855 H859 0.985 . S
H856 N851 0.984 . S
H857 N851 0.985 . S
H858 N855 0.984 . S
H859 N855 0.985 . S
H860 N854 0.984 . S
H861 N854 0.984 . S
H862 N850 0.984 . S
H863 N850 0.985 . S
C864 C865 1.363 . S
C864 C870 1.379 . S
C864 N872 1.356 . S
C865 C864 1.363 . S
C865 C871 1.363 . S
C866 C867 1.358 1_455 S
C866 C871 1.379 . S
C866 N873 1.356 . S
C867 C866 1.358 1_655 S
C867 C870 1.355 1_655 S
N868 C870 1.356 1_655 S
N868 H880 0.984 . S
N868 H881 0.985 . S
N869 C871 1.356 . S
N869 H874 0.984 . S
N869 H875 0.985 . S
C870 C864 1.379 . S
C870 C867 1.355 1_455 S
C870 N868 1.356 1_455 S
C871 C865 1.363 . S
C871 C866 1.379 . S
C871 N869 1.356 . S
N872 C864 1.356 . S
N872 H878 0.984 . S
N872 H879 0.984 . S
N873 C866 1.356 . S
N873 H876 0.984 1_455 S
N873 H877 0.985 . S
H874 N869 0.984 . S
H875 N869 0.985 . S
H876 N873 0.984 1_655 S
H877 N873 0.985 . S
H878 N872 0.984 . S
H879 N872 0.984 . S
H880 N868 0.984 . S
H881 N868 0.985 . S
C882 C883 1.363 . S
C882 C888 1.379 . S
C882 N890 1.356 . S
C883 C882 1.363 . S
C883 C889 1.363 . S
C884 C885 1.363 . S
C884 C889 1.379 . S
C884 N891 1.356 . S
C885 C884 1.363 . S
C885 C888 1.363 . S
N886 C888 1.356 . S
N886 H898 0.984 . S
N886 H899 0.985 . S
N887 C889 1.356 . S
N887 H892 0.984 . S
N887 H893 0.985 . S
C888 C882 1.379 . S
C888 C885 1.363 . S
C888 N886 1.356 . S
C889 C883 1.363 . S
C889 C884 1.379 . S
C889 N887 1.356 . S
N890 C882 1.356 . S
N890 H896 0.984 . S
N890 H897 0.984 . S
N891 C884 1.356 . S
N891 H894 0.984 . S
N891 H895 0.985 . S
H892 N887 0.984 . S
H893 N887 0.985 . S
H894 N891 0.984 . S
H895 N891 0.985 . S
H896 N890 0.984 . S
H897 N890 0.984 . S
H898 N886 0.984 . S
H899 N886 0.985 . S
C900 C901 1.363 . S
C900 C906 1.379 . S
C900 N908 1.356 . S
C901 C900 1.363 . S
C901 C907 1.363 . S
C902 C903 1.363 . S
C902 C907 1.379 . S
C902 N909 1.356 . S
C903 C902 1.363 . S
C903 C906 1.363 . S
N904 C906 1.356 . S
N904 H916 0.984 . S
N904 H917 0.985 . S
N905 C907 1.356 . S
N905 H910 0.984 . S
N905 H911 0.985 . S
C906 C900 1.379 . S
C906 C903 1.363 . S
C906 N904 1.356 . S
C907 C901 1.363 . S
C907 C902 1.379 . S
C907 N905 1.356 . S
N908 C900 1.356 . S
N908 H914 0.984 . S
N908 H915 0.984 . S
N909 C902 1.356 . S
N909 H912 0.984 . S
N909 H913 0.985 . S
H910 N905 0.984 . S
H911 N905 0.985 . S
H912 N909 0.984 . S
H913 N909 0.985 . S
H914 N908 0.984 . S
H915 N908 0.984 . S
H916 N904 0.984 . S
H917 N904 0.985 . S
C918 C919 1.363 . S
C918 C924 1.379 . S
C918 N926 1.356 . S
C919 C918 1.363 . S
C919 C925 1.363 . S
C920 C921 1.363 . S
C920 C925 1.379 . S
C920 N927 1.356 . S
C921 C920 1.363 . S
C921 C924 1.363 . S
N922 C924 1.356 . S
N922 H934 0.984 . S
N922 H935 0.985 . S
N923 C925 1.356 . S
N923 H928 0.984 . S
N923 H929 0.985 . S
C924 C918 1.379 . S
C924 C921 1.363 . S
C924 N922 1.356 . S
C925 C919 1.363 . S
C925 C920 1.379 . S
C925 N923 1.356 . S
N926 C918 1.356 . S
N926 H932 0.984 . S
N926 H933 0.984 . S
N927 C920 1.356 . S
N927 H930 0.984 . S
N927 H931 0.985 . S
H928 N923 0.984 . S
H929 N923 0.985 . S
H930 N927 0.984 . S
H931 N927 0.985 . S
H932 N926 0.984 . S
H933 N926 0.984 . S
H934 N922 0.984 . S
H935 N922 0.985 . S
C936 C937 1.363 . S
C936 C942 1.379 . S
C936 N944 1.356 . S
C937 C936 1.363 . S
C937 C943 1.363 . S
C938 C939 1.363 . S
C938 C943 1.379 . S
C938 N945 1.356 . S
C939 C938 1.363 . S
C939 C942 1.363 . S
N940 C942 1.356 . S
N940 H952 0.984 . S
N940 H953 0.985 . S
N941 C943 1.356 . S
N941 H946 0.984 . S
N941 H947 0.985 . S
C942 C936 1.379 . S
C942 C939 1.363 . S
C942 N940 1.356 . S
C943 C937 1.363 . S
C943 C938 1.379 . S
C943 N941 1.356 . S
N944 C936 1.356 . S
N944 H950 0.984 . S
N944 H951 0.984 . S
N945 C938 1.356 . S
N945 H948 0.984 . S
N945 H949 0.985 . S
H946 N941 0.984 . S
H947 N941 0.985 . S
H948 N945 0.984 . S
H949 N945 0.985 . S
H950 N944 0.984 . S
H951 N944 0.984 . S
H952 N940 0.984 . S
H953 N940 0.985 . S
C954 C955 1.363 . S
C954 C960 1.379 . S
C954 N962 1.356 . S
C955 C954 1.363 . S
C955 C961 1.363 . S
C956 C957 1.363 . S
C956 C961 1.379 . S
C956 N963 1.356 . S
C957 C956 1.363 . S
C957 C960 1.363 . S
N958 C960 1.356 . S
N958 H970 0.984 . S
N958 H971 0.985 . S
N959 C961 1.356 . S
N959 H964 0.984 . S
N959 H965 0.985 . S
C960 C954 1.379 . S
C960 C957 1.363 . S
C960 N958 1.356 . S
C961 C955 1.363 . S
C961 C956 1.379 . S
C961 N959 1.356 . S
N962 C954 1.356 . S
N962 H968 0.984 . S
N962 H969 0.984 . S
N963 C956 1.356 . S
N963 H966 0.984 . S
N963 H967 0.985 . S
H964 N959 0.984 . S
H965 N959 0.985 . S
H966 N963 0.984 . S
H967 N963 0.985 . S
H968 N962 0.984 . S
H969 N962 0.984 . S
H970 N958 0.984 . S
H971 N958 0.985 . S
C972 C973 1.363 . S
C972 C978 1.379 . S
C972 N980 1.356 . S
C973 C972 1.363 . S
C973 C979 1.363 . S
C974 C975 1.363 . S
C974 C979 1.379 . S
C974 N981 1.356 . S
C975 C974 1.363 . S
C975 C978 1.363 . S
N976 C978 1.356 . S
N976 H988 0.984 . S
N976 H989 0.985 . S
N977 C979 1.356 . S
N977 H982 0.984 . S
N977 H983 0.985 . S
C978 C972 1.379 . S
C978 C975 1.363 . S
C978 N976 1.356 . S
C979 C973 1.363 . S
C979 C974 1.379 . S
C979 N977 1.356 . S
N980 C972 1.356 . S
N980 H986 0.984 . S
N980 H987 0.984 . S
N981 C974 1.356 . S
N981 H984 0.984 . S
N981 H985 0.985 . S
H982 N977 0.984 . S
H983 N977 0.985 . S
H984 N981 0.984 . S
H985 N981 0.985 . S
H986 N980 0.984 . S
H987 N980 0.984 . S
H988 N976 0.984 . S
H989 N976 0.985 . S
C990 C991 1.363 . S
C990 C996 1.379 . S
C990 N998 1.356 . S
C991 C990 1.363 . S
C991 C997 1.363 . S
C992 C993 1.363 . S
C992 C997 1.379 . S
C992 N999 1.356 . S
C993 C992 1.363 . S
C993 C996 1.363 . S
N994 C996 1.356 . S
N994 H1006 0.984 . S
N994 H1007 0.985 . S
N995 C997 1.356 . S
N995 H1000 0.984 . S
N995 H1001 0.985 . S
C996 C990 1.379 . S
C996 C993 1.363 . S
C996 N994 1.356 . S
C997 C991 1.363 . S
C997 C992 1.379 . S
C997 N995 1.356 . S
N998 C990 1.356 . S
N998 H1004 0.984 . S
N998 H1005 0.984 . S
N999 C992 1.356 . S
N999 H1002 0.984 . S
N999 H1003 0.985 . S
H1000 N995 0.984 . S
H1001 N995 0.985 . S
H1002 N999 0.984 . S
H1003 N999 0.985 . S
H1004 N998 0.984 . S
H1005 N998 0.984 . S
H1006 N994 0.984 . S
H1007 N994 0.985 . S
C1008 C1009 1.352 1_545 S
C1008 C1014 1.379 . S
C1008 N1016 1.356 1_545 S
C1009 C1008 1.352 1_565 S
C1009 C1015 1.362 1_565 S
C1010 C1011 1.363 . S
C1010 C1015 1.379 . S
C1010 N1017 1.356 . S
C1011 C1010 1.363 . S
C1011 C1014 1.363 . S
N1012 C1014 1.356 . S
N1012 H1024 0.984 . S
N1012 H1025 0.985 . S
N1013 C1015 1.356 1_565 S
N1013 H1018 0.984 . S
N1013 H1019 0.985 . S
C1014 C1008 1.379 . S
C1014 C1011 1.363 . S
C1014 N1012 1.356 . S
C1015 C1009 1.362 1_545 S
C1015 C1010 1.379 . S
C1015 N1013 1.356 1_545 S
N1016 C1008 1.356 1_565 S
N1016 H1022 0.984 . S
N1016 H1023 0.984 . S
N1017 C1010 1.356 . S
N1017 H1020 0.984 . S
N1017 H1021 0.985 . S
H1018 N1013 0.984 . S
H1019 N1013 0.985 . S
H1020 N1017 0.984 . S
H1021 N1017 0.985 . S
H1022 N1016 0.984 . S
H1023 N1016 0.984 . S
H1024 N1012 0.984 . S
H1025 N1012 0.985 . S
C1026 C1027 1.363 . S
C1026 C1032 1.379 1_455 S
C1026 N1034 1.356 . S
C1027 C1026 1.363 . S
C1027 C1033 1.363 . S
C1028 C1029 1.363 . S
C1028 C1033 1.379 1_655 S
C1028 N1035 1.356 . S
C1029 C1028 1.363 . S
C1029 C1032 1.363 . S
N1030 C1032 1.356 . S
N1030 H1042 0.984 . S
N1030 H1043 0.985 . S
N1031 C1033 1.356 . S
N1031 H1036 0.984 . S
N1031 H1037 0.985 . S
C1032 C1026 1.379 1_655 S
C1032 C1029 1.363 . S
C1032 N1030 1.356 . S
C1033 C1027 1.363 . S
C1033 C1028 1.379 1_455 S
C1033 N1031 1.356 . S
N1034 C1026 1.356 . S
N1034 H1040 0.984 . S
N1034 H1041 0.984 . S
N1035 C1028 1.356 . S
N1035 H1038 0.984 . S
N1035 H1039 0.985 . S
H1036 N1031 0.984 . S
H1037 N1031 0.985 . S
H1038 N1035 0.984 . S
H1039 N1035 0.985 . S
H1040 N1034 0.984 . S
H1041 N1034 0.984 . S
H1042 N1030 0.984 . S
H1043 N1030 0.985 . S
C1044 C1045 1.363 . S
C1044 C1050 1.379 1_554 S
C1044 N1052 1.356 . S
C1045 C1044 1.363 . S
C1045 C1051 1.363 1_545 S
C1046 C1047 1.363 1_565 S
C1046 C1051 1.379 1_556 S
C1046 N1053 1.356 . S
C1047 C1046 1.363 1_545 S
C1047 C1050 1.363 . S
N1048 C1050 1.356 . S
N1048 H1060 0.984 . S
N1048 H1061 0.985 . S
N1049 C1051 1.356 . S
N1049 H1054 0.984 . S
N1049 H1055 0.985 . S
C1050 C1044 1.379 1_556 S
C1050 C1047 1.363 . S
C1050 N1048 1.356 . S
C1051 C1045 1.363 1_565 S
C1051 C1046 1.379 1_554 S
C1051 N1049 1.356 . S
N1052 C1044 1.356 . S
N1052 H1058 0.984 . S
N1052 H1059 0.984 . S
N1053 C1046 1.356 . S
N1053 H1056 0.984 . S
N1053 H1057 0.985 . S
H1054 N1049 0.984 . S
H1055 N1049 0.985 . S
H1056 N1053 0.984 . S
H1057 N1053 0.985 . S
H1058 N1052 0.984 . S
H1059 N1052 0.984 . S
H1060 N1048 0.984 . S
H1061 N1048 0.985 . S
C1062 C1063 1.363 1_655 S
C1062 C1068 1.379 1_556 S
C1062 N1070 1.356 . S
C1063 C1062 1.363 1_455 S
C1063 C1069 1.363 . S
C1064 C1065 1.363 . S
C1064 C1069 1.379 1_554 S
C1064 N1071 1.356 . S
C1065 C1064 1.363 . S
C1065 C1068 1.363 1_455 S
N1066 C1068 1.356 . S
N1066 H1078 0.984 . S
N1066 H1079 0.985 . S
N1067 C1069 1.356 . S
N1067 H1072 0.984 . S
N1067 H1073 0.985 . S
C1068 C1062 1.379 1_554 S
C1068 C1065 1.363 1_655 S
C1068 N1066 1.356 . S
C1069 C1063 1.363 . S
C1069 C1064 1.379 1_556 S
C1069 N1067 1.356 . S
N1070 C1062 1.356 . S
N1070 H1076 0.984 . S
N1070 H1077 0.984 . S
N1071 C1064 1.356 . S
N1071 H1074 0.984 . S
N1071 H1075 0.985 . S
H1072 N1067 0.984 . S
H1073 N1067 0.985 . S
H1074 N1071 0.984 . S
H1075 N1071 0.985 . S
H1076 N1070 0.984 . S
H1077 N1070 0.984 . S
H1078 N1066 0.984 . S
H1079 N1066 0.985 . S
C1080 C1081 1.363 . S
C1080 C1086 1.379 1_556 S
C1080 N1088 1.356 . S
C1081 C1080 1.363 . S
C1081 C1087 1.363 . S
C1082 C1083 1.363 . S
C1082 C1087 1.379 1_554 S
C1082 N1089 1.356 . S
C1083 C1082 1.363 . S
C1083 C1086 1.363 . S
N1084 C1086 1.356 . S
N1084 H1096 0.984 . S
N1084 H1097 0.985 . S
N1085 C1087 1.356 . S
N1085 H1090 0.984 . S
N1085 H1091 0.985 . S
C1086 C1080 1.379 1_554 S
C1086 C1083 1.363 . S
C1086 N1084 1.356 . S
C1087 C1081 1.363 . S
C1087 C1082 1.379 1_556 S
C1087 N1085 1.356 . S
N1088 C1080 1.356 . S
N1088 H1094 0.984 . S
N1088 H1095 0.984 . S
N1089 C1082 1.356 . S
N1089 H1092 0.984 . S
N1089 H1093 0.985 . S
H1090 N1085 0.984 . S
H1091 N1085 0.985 . S
H1092 N1089 0.984 . S
H1093 N1089 0.985 . S
H1094 N1088 0.984 . S
H1095 N1088 0.984 . S
H1096 N1084 0.984 . S
H1097 N1084 0.985 . S
C1098 C1099 1.363 . S
C1098 C1104 1.379 . S
C1098 N1106 1.356 . S
C1099 C1098 1.363 . S
C1099 C1105 1.363 . S
C1100 C1101 1.363 . S
C1100 C1105 1.379 . S
C1100 N1107 1.356 . S
C1101 C1100 1.363 . S
C1101 C1104 1.363 . S
N1102 C1104 1.356 . S
N1102 H1114 0.984 . S
N1102 H1115 0.985 . S
N1103 C1105 1.356 . S
N1103 H1108 0.984 . S
N1103 H1109 0.985 . S
C1104 C1098 1.379 . S
C1104 C1101 1.363 . S
C1104 N1102 1.356 . S
C1105 C1099 1.363 . S
C1105 C1100 1.379 . S
C1105 N1103 1.356 . S
N1106 C1098 1.356 . S
N1106 H1112 0.984 . S
N1106 H1113 0.984 . S
N1107 C1100 1.356 . S
N1107 H1110 0.984 . S
N1107 H1111 0.985 . S
H1108 N1103 0.984 . S
H1109 N1103 0.985 . S
H1110 N1107 0.984 . S
H1111 N1107 0.985 . S
H1112 N1106 0.984 . S
H1113 N1106 0.984 . S
H1114 N1102 0.984 . S
H1115 N1102 0.985 . S
C1116 C1117 1.363 . S
C1116 C1122 1.379 . S
C1116 N1124 1.356 . S
C1117 C1116 1.363 . S
C1117 C1123 1.363 . S
C1118 C1119 1.363 . S
C1118 C1123 1.379 . S
C1118 N1125 1.356 . S
C1119 C1118 1.363 . S
C1119 C1122 1.363 . S
N1120 C1122 1.356 . S
N1120 H1132 0.984 . S
N1120 H1133 0.985 . S
N1121 C1123 1.356 . S
N1121 H1126 0.984 . S
N1121 H1127 0.985 . S
C1122 C1116 1.379 . S
C1122 C1119 1.363 . S
C1122 N1120 1.356 . S
C1123 C1117 1.363 . S
C1123 C1118 1.379 . S
C1123 N1121 1.356 . S
N1124 C1116 1.356 . S
N1124 H1130 0.984 . S
N1124 H1131 0.984 . S
N1125 C1118 1.356 . S
N1125 H1128 0.984 . S
N1125 H1129 0.985 . S
H1126 N1121 0.984 . S
H1127 N1121 0.985 . S
H1128 N1125 0.984 . S
H1129 N1125 0.985 . S
H1130 N1124 0.984 . S
H1131 N1124 0.984 . S
H1132 N1120 0.984 . S
H1133 N1120 0.985 . S
C1134 C1135 1.363 . S
C1134 C1140 1.379 . S
C1134 N1142 1.356 . S
C1135 C1134 1.363 . S
C1135 C1141 1.363 . S
C1136 C1137 1.363 . S
C1136 C1141 1.379 . S
C1136 N1143 1.356 . S
C1137 C1136 1.363 . S
C1137 C1140 1.363 . S
N1138 C1140 1.356 . S
N1138 H1150 0.984 . S
N1138 H1151 0.985 . S
N1139 C1141 1.356 . S
N1139 H1144 0.984 . S
N1139 H1145 0.985 . S
C1140 C1134 1.379 . S
C1140 C1137 1.363 . S
C1140 N1138 1.356 . S
C1141 C1135 1.363 . S
C1141 C1136 1.379 . S
C1141 N1139 1.356 . S
N1142 C1134 1.356 . S
N1142 H1148 0.984 . S
N1142 H1149 0.984 . S
N1143 C1136 1.356 . S
N1143 H1146 0.984 . S
N1143 H1147 0.985 . S
H1144 N1139 0.984 . S
H1145 N1139 0.985 . S
H1146 N1143 0.984 . S
H1147 N1143 0.985 . S
H1148 N1142 0.984 . S
H1149 N1142 0.984 . S
H1150 N1138 0.984 . S
H1151 N1138 0.985 . S
C1152 C1153 1.363 . S
C1152 C1158 1.379 . S
C1152 N1160 1.356 . S
C1153 C1152 1.363 . S
C1153 C1159 1.363 . S
C1154 C1155 1.363 . S
C1154 C1159 1.379 . S
C1154 N1161 1.356 . S
C1155 C1154 1.363 . S
C1155 C1158 1.363 . S
N1156 C1158 1.356 . S
N1156 H1168 0.984 . S
N1156 H1169 0.985 . S
N1157 C1159 1.356 . S
N1157 H1162 0.984 . S
N1157 H1163 0.985 . S
C1158 C1152 1.379 . S
C1158 C1155 1.363 . S
C1158 N1156 1.356 . S
C1159 C1153 1.363 . S
C1159 C1154 1.379 . S
C1159 N1157 1.356 . S
N1160 C1152 1.356 . S
N1160 H1166 0.984 . S
N1160 H1167 0.984 . S
N1161 C1154 1.356 . S
N1161 H1164 0.984 . S
N1161 H1165 0.985 . S
H1162 N1157 0.984 . S
H1163 N1157 0.985 . S
H1164 N1161 0.984 . S
H1165 N1161 0.985 . S
H1166 N1160 0.984 . S
H1167 N1160 0.984 . S
H1168 N1156 0.984 . S
H1169 N1156 0.985 . S
C1170 C1171 1.363 . S
C1170 C1176 1.379 . S
C1170 N1178 1.356 . S
C1171 C1170 1.363 . S
C1171 C1177 1.363 . S
C1172 C1173 1.363 . S
C1172 C1177 1.379 . S
C1172 N1179 1.356 . S
C1173 C1172 1.363 . S
C1173 C1176 1.363 . S
N1174 C1176 1.356 . S
N1174 H1186 0.984 . S
N1174 H1187 0.985 . S
N1175 C1177 1.356 . S
N1175 H1180 0.984 . S
N1175 H1181 0.985 . S
C1176 C1170 1.379 . S
C1176 C1173 1.363 . S
C1176 N1174 1.356 . S
C1177 C1171 1.363 . S
C1177 C1172 1.379 . S
C1177 N1175 1.356 . S
N1178 C1170 1.356 . S
N1178 H1184 0.984 . S
N1178 H1185 0.984 . S
N1179 C1172 1.356 . S
N1179 H1182 0.984 . S
N1179 H1183 0.985 . S
H1180 N1175 0.984 . S
H1181 N1175 0.985 . S
H1182 N1179 0.984 . S
H1183 N1179 0.985 . S
H1184 N1178 0.984 . S
H1185 N1178 0.984 . S
H1186 N1174 0.984 . S
H1187 N1174 0.985 . S
C1188 C1189 1.363 . S
C1188 C1194 1.379 . S
C1188 N1196 1.356 . S
C1189 C1188 1.363 . S
C1189 C1195 1.363 . S
C1190 C1191 1.363 . S
C1190 C1195 1.379 . S
C1190 N1197 1.356 . S
C1191 C1190 1.363 . S
C1191 C1194 1.363 . S
N1192 C1194 1.356 . S
N1192 H1204 0.984 . S
N1192 H1205 0.985 . S
N1193 C1195 1.356 . S
N1193 H1198 0.984 . S
N1193 H1199 0.985 . S
C1194 C1188 1.379 . S
C1194 C1191 1.363 . S
C1194 N1192 1.356 . S
C1195 C1189 1.363 . S
C1195 C1190 1.379 . S
C1195 N1193 1.356 . S
N1196 C1188 1.356 . S
N1196 H1202 0.984 . S
N1196 H1203 0.984 . S
N1197 C1190 1.356 . S
N1197 H1200 0.984 . S
N1197 H1201 0.985 . S
H1198 N1193 0.984 . S
H1199 N1193 0.985 . S
H1200 N1197 0.984 . S
H1201 N1197 0.985 . S
H1202 N1196 0.984 . S
H1203 N1196 0.984 . S
H1204 N1192 0.984 . S
H1205 N1192 0.985 . S
C1206 C1207 1.363 . S
C1206 C1212 1.379 . S
C1206 N1214 1.356 . S
C1207 C1206 1.363 . S
C1207 C1213 1.363 . S
C1208 C1209 1.363 . S
C1208 C1213 1.379 . S
C1208 N1215 1.356 1_565 S
C1209 C1208 1.363 . S
C1209 C1212 1.363 . S
N1210 C1212 1.356 . S
N1210 H1222 0.984 . S
N1210 H1223 0.985 . S
N1211 C1213 1.356 . S
N1211 H1216 0.984 . S
N1211 H1217 0.985 1_565 S
C1212 C1206 1.379 . S
C1212 C1209 1.363 . S
C1212 N1210 1.356 . S
C1213 C1207 1.363 . S
C1213 C1208 1.379 . S
C1213 N1211 1.356 . S
N1214 C1206 1.356 . S
N1214 H1220 0.984 . S
N1214 H1221 0.984 . S
N1215 C1208 1.356 1_545 S
N1215 H1218 0.984 . S
N1215 H1219 0.985 . S
H1216 N1211 0.984 . S
H1217 N1211 0.985 1_545 S
H1218 N1215 0.984 . S
H1219 N1215 0.985 . S
H1220 N1214 0.984 . S
H1221 N1214 0.984 . S
H1222 N1210 0.984 . S
H1223 N1210 0.985 . S
C1224 C1225 1.363 . S
C1224 C1230 1.379 . S
C1224 N1232 1.356 . S
C1225 C1224 1.363 . S
C1225 C1231 1.363 . S
C1226 C1227 1.363 . S
C1226 C1231 1.379 . S
C1226 N1233 1.356 . S
C1227 C1226 1.363 . S
C1227 C1230 1.363 . S
N1228 C1230 1.356 . S
N1228 H1240 0.984 . S
N1228 H1241 0.985 . S
N1229 C1231 1.356 . S
N1229 H1234 0.984 . S
N1229 H1235 0.985 1_455 S
C1230 C1224 1.379 . S
C1230 C1227 1.363 . S
C1230 N1228 1.356 . S
C1231 C1225 1.363 . S
C1231 C1226 1.379 . S
C1231 N1229 1.356 . S
N1232 C1224 1.356 . S
N1232 H1238 0.984 . S
N1232 H1239 0.984 . S
N1233 C1226 1.356 . S
N1233 H1236 0.984 . S
N1233 H1237 0.985 . S
H1234 N1229 0.984 . S
H1235 N1229 0.985 1_655 S
H1236 N1233 0.984 . S
H1237 N1233 0.985 . S
H1238 N1232 0.984 . S
H1239 N1232 0.984 . S
H1240 N1228 0.984 . S
H1241 N1228 0.985 . S
C1242 C1243 1.363 . S
C1242 C1248 1.379 . S
C1242 N1250 1.356 . S
C1243 C1242 1.363 . S
C1243 C1249 1.363 . S
C1244 C1245 1.363 . S
C1244 C1249 1.379 . S
C1244 N1251 1.356 . S
C1245 C1244 1.363 . S
C1245 C1248 1.363 . S
N1246 C1248 1.356 . S
N1246 H1258 0.984 . S
N1246 H1259 0.985 . S
N1247 C1249 1.356 . S
N1247 H1252 0.984 . S
N1247 H1253 0.985 . S
C1248 C1242 1.379 . S
C1248 C1245 1.363 . S
C1248 N1246 1.356 . S
C1249 C1243 1.363 . S
C1249 C1244 1.379 . S
C1249 N1247 1.356 . S
N1250 C1242 1.356 . S
N1250 H1256 0.984 . S
N1250 H1257 0.984 . S
N1251 C1244 1.356 . S
N1251 H1254 0.984 . S
N1251 H1255 0.985 . S
H1252 N1247 0.984 . S
H1253 N1247 0.985 . S
H1254 N1251 0.984 . S
H1255 N1251 0.985 . S
H1256 N1250 0.984 . S
H1257 N1250 0.984 . S
H1258 N1246 0.984 . S
H1259 N1246 0.985 . S
C1260 C1261 1.363 . S
C1260 C1266 1.379 . S
C1260 N1268 1.356 . S
C1261 C1260 1.363 . S
C1261 C1267 1.363 . S
C1262 C1263 1.363 . S
C1262 C1267 1.379 . S
C1262 N1269 1.356 . S
C1263 C1262 1.363 . S
C1263 C1266 1.363 . S
N1264 C1266 1.356 . S
N1264 H1276 0.984 . S
N1264 H1277 0.985 . S
N1265 C1267 1.356 . S
N1265 H1270 0.984 . S
N1265 H1271 0.985 . S
C1266 C1260 1.379 . S
C1266 C1263 1.363 . S
C1266 N1264 1.356 . S
C1267 C1261 1.363 . S
C1267 C1262 1.379 . S
C1267 N1265 1.356 . S
N1268 C1260 1.356 . S
N1268 H1274 0.984 . S
N1268 H1275 0.984 . S
N1269 C1262 1.356 . S
N1269 H1272 0.984 . S
N1269 H1273 0.985 . S
H1270 N1265 0.984 . S
H1271 N1265 0.985 . S
H1272 N1269 0.984 . S
H1273 N1269 0.985 . S
H1274 N1268 0.984 . S
H1275 N1268 0.984 . S
H1276 N1264 0.984 . S
H1277 N1264 0.985 . S
C1278 C1279 1.363 . S
C1278 C1284 1.379 . S
C1278 N1286 1.356 . S
C1279 C1278 1.363 . S
C1279 C1285 1.363 . S
C1280 C1281 1.363 . S
C1280 C1285 1.379 . S
C1280 N1287 1.356 . S
C1281 C1280 1.363 . S
C1281 C1284 1.363 . S
N1282 C1284 1.356 . S
N1282 H1294 0.984 . S
N1282 H1295 0.985 . S
N1283 C1285 1.356 . S
N1283 H1288 0.984 . S
N1283 H1289 0.985 . S
C1284 C1278 1.379 . S
C1284 C1281 1.363 . S
C1284 N1282 1.356 . S
C1285 C1279 1.363 . S
C1285 C1280 1.379 . S
C1285 N1283 1.356 . S
N1286 C1278 1.356 . S
N1286 H1292 0.984 . S
N1286 H1293 0.984 . S
N1287 C1280 1.356 . S
N1287 H1290 0.984 . S
N1287 H1291 0.985 . S
H1288 N1283 0.984 . S
H1289 N1283 0.985 . S
H1290 N1287 0.984 . S
H1291 N1287 0.985 . S
H1292 N1286 0.984 . S
H1293 N1286 0.984 . S
H1294 N1282 0.984 . S
H1295 N1282 0.985 . S
C1296 C1297 1.363 . S
C1296 C1302 1.379 . S
C1296 N1304 1.356 . S
C1297 C1296 1.363 . S
C1297 C1303 1.363 . S
C1298 C1299 1.363 . S
C1298 C1303 1.379 . S
C1298 N1305 1.356 . S
C1299 C1298 1.363 . S
C1299 C1302 1.363 . S
N1300 C1302 1.356 . S
N1300 H1312 0.984 . S
N1300 H1313 0.985 . S
N1301 C1303 1.356 . S
N1301 H1306 0.984 . S
N1301 H1307 0.985 . S
C1302 C1296 1.379 . S
C1302 C1299 1.363 . S
C1302 N1300 1.356 . S
C1303 C1297 1.363 . S
C1303 C1298 1.379 . S
C1303 N1301 1.356 . S
N1304 C1296 1.356 . S
N1304 H1310 0.984 . S
N1304 H1311 0.984 . S
N1305 C1298 1.356 . S
N1305 H1308 0.996 . S
N1305 H1309 0.985 1_545 S
H1306 N1301 0.984 . S
H1307 N1301 0.985 . S
H1308 N1305 0.996 . S
H1309 N1305 0.985 1_565 S
H1310 N1304 0.984 . S
H1311 N1304 0.984 . S
H1312 N1300 0.984 . S
H1313 N1300 0.985 . S
C1314 C1315 1.363 1_455 S
C1314 C1320 1.379 . S
C1314 N1322 1.356 1_455 S
C1315 C1314 1.363 1_655 S
C1315 C1321 1.363 . S
C1316 C1317 1.363 . S
C1316 C1321 1.379 1_455 S
C1316 N1323 1.356 . S
C1317 C1316 1.363 . S
C1317 C1320 1.363 . S
N1318 C1320 1.356 . S
N1318 H1330 0.984 . S
N1318 H1331 0.985 . S
N1319 C1321 1.356 . S
N1319 H1324 0.984 . S
N1319 H1325 0.985 . S
C1320 C1314 1.379 . S
C1320 C1317 1.363 . S
C1320 N1318 1.356 . S
C1321 C1315 1.363 . S
C1321 C1316 1.379 1_655 S
C1321 N1319 1.356 . S
N1322 C1314 1.356 1_655 S
N1322 H1328 1.001 . S
N1322 H1329 0.984 . S
N1323 C1316 1.356 . S
N1323 H1326 0.984 . S
N1323 H1327 0.985 . S
H1324 N1319 0.984 . S
H1325 N1319 0.985 . S
H1326 N1323 0.984 . S
H1327 N1323 0.985 . S
H1328 N1322 1.001 . S
H1329 N1322 0.984 . S
H1330 N1318 0.984 . S
H1331 N1318 0.985 . S
C1332 C1333 1.363 . S
C1332 C1338 1.379 . S
C1332 N1340 1.356 . S
C1333 C1332 1.363 . S
C1333 C1339 1.363 . S
C1334 C1335 1.363 . S
C1334 C1339 1.379 . S
C1334 N1341 1.356 . S
C1335 C1334 1.363 . S
C1335 C1338 1.363 . S
N1336 C1338 1.356 . S
N1336 H1348 0.984 . S
N1336 H1349 0.985 . S
N1337 C1339 1.356 . S
N1337 H1342 0.984 . S
N1337 H1343 0.985 . S
C1338 C1332 1.379 . S
C1338 C1335 1.363 . S
C1338 N1336 1.356 . S
C1339 C1333 1.363 . S
C1339 C1334 1.379 . S
C1339 N1337 1.356 . S
N1340 C1332 1.356 . S
N1340 H1346 0.984 . S
N1340 H1347 0.984 . S
N1341 C1334 1.356 . S
N1341 H1344 0.984 . S
N1341 H1345 0.985 . S
H1342 N1337 0.984 . S
H1343 N1337 0.985 . S
H1344 N1341 0.984 . S
H1345 N1341 0.985 . S
H1346 N1340 0.984 . S
H1347 N1340 0.984 . S
H1348 N1336 0.984 . S
H1349 N1336 0.985 . S
C1350 C1351 1.363 . S
C1350 C1356 1.379 1_565 S
C1350 N1358 1.356 . S
C1351 C1350 1.363 . S
C1351 C1357 1.363 1_565 S
C1352 C1353 1.363 . S
C1352 C1357 1.379 . S
C1352 N1359 1.356 . S
C1353 C1352 1.363 . S
C1353 C1356 1.363 . S
N1354 C1356 1.356 . S
N1354 H1366 0.984 . S
N1354 H1367 0.985 . S
N1355 C1357 1.356 1_565 S
N1355 H1360 0.984 . S
N1355 H1361 0.985 . S
C1356 C1350 1.379 1_545 S
C1356 C1353 1.363 . S
C1356 N1354 1.356 . S
C1357 C1351 1.363 1_545 S
C1357 C1352 1.379 . S
C1357 N1355 1.356 1_545 S
N1358 C1350 1.356 . S
N1358 H1364 0.984 . S
N1358 H1365 0.984 . S
N1359 C1352 1.356 . S
N1359 H1362 0.984 . S
N1359 H1363 0.985 . S
H1360 N1355 0.984 . S
H1361 N1355 0.985 . S
H1362 N1359 0.984 . S
H1363 N1359 0.985 . S
H1364 N1358 0.984 . S
H1365 N1358 0.984 . S
H1366 N1354 0.984 . S
H1367 N1354 0.985 . S
C1368 C1369 1.363 . S
C1368 C1374 1.379 . S
C1368 N1376 1.356 . S
C1369 C1368 1.363 . S
C1369 C1375 1.363 . S
C1370 C1371 1.363 . S
C1370 C1375 1.379 . S
C1370 N1377 1.356 . S
C1371 C1370 1.363 . S
C1371 C1374 1.363 . S
N1372 C1374 1.356 . S
N1372 H1384 0.984 . S
N1372 H1385 0.985 . S
N1373 C1375 1.356 . S
N1373 H1378 0.984 . S
N1373 H1379 0.985 . S
C1374 C1368 1.379 . S
C1374 C1371 1.363 . S
C1374 N1372 1.356 . S
C1375 C1369 1.363 . S
C1375 C1370 1.379 . S
C1375 N1373 1.356 . S
N1376 C1368 1.356 . S
N1376 H1382 0.984 . S
N1376 H1383 0.984 . S
N1377 C1370 1.356 . S
N1377 H1380 0.984 . S
N1377 H1381 0.985 . S
H1378 N1373 0.984 . S
H1379 N1373 0.985 . S
H1380 N1377 0.984 . S
H1381 N1377 0.985 . S
H1382 N1376 0.984 . S
H1383 N1376 0.984 . S
H1384 N1372 0.984 . S
H1385 N1372 0.985 . S
C1386 C1387 1.363 . S
C1386 C1392 1.379 . S
C1386 N1394 1.356 . S
C1387 C1386 1.363 . S
C1387 C1393 1.363 . S
C1388 C1389 1.363 . S
C1388 C1393 1.379 . S
C1388 N1395 1.356 . S
C1389 C1388 1.363 . S
C1389 C1392 1.363 . S
N1390 C1392 1.356 . S
N1390 H1402 0.984 . S
N1390 H1403 0.985 . S
N1391 C1393 1.356 . S
N1391 H1396 0.984 . S
N1391 H1397 0.985 . S
C1392 C1386 1.379 . S
C1392 C1389 1.363 . S
C1392 N1390 1.356 . S
C1393 C1387 1.363 . S
C1393 C1388 1.379 . S
C1393 N1391 1.356 . S
N1394 C1386 1.356 . S
N1394 H1400 0.984 . S
N1394 H1401 0.984 . S
N1395 C1388 1.356 . S
N1395 H1398 0.984 . S
N1395 H1399 0.985 . S
H1396 N1391 0.984 . S
H1397 N1391 0.985 . S
H1398 N1395 0.984 . S
H1399 N1395 0.985 . S
H1400 N1394 0.984 . S
H1401 N1394 0.984 . S
H1402 N1390 0.984 . S
H1403 N1390 0.985 . S
C1404 C1405 1.363 . S
C1404 C1410 1.379 . S
C1404 N1412 1.356 . S
C1405 C1404 1.363 . S
C1405 C1411 1.363 . S
C1406 C1407 1.363 . S
C1406 C1411 1.379 . S
C1406 N1413 1.356 . S
C1407 C1406 1.363 . S
C1407 C1410 1.363 . S
N1408 C1410 1.356 . S
N1408 H1420 0.984 . S
N1408 H1421 0.985 . S
N1409 C1411 1.356 . S
N1409 H1414 0.984 . S
N1409 H1415 0.985 . S
C1410 C1404 1.379 . S
C1410 C1407 1.363 . S
C1410 N1408 1.356 . S
C1411 C1405 1.363 . S
C1411 C1406 1.379 . S
C1411 N1409 1.356 . S
N1412 C1404 1.356 . S
N1412 H1418 0.984 . S
N1412 H1419 0.984 . S
N1413 C1406 1.356 . S
N1413 H1416 0.984 . S
N1413 H1417 0.985 . S
H1414 N1409 0.984 . S
H1415 N1409 0.985 . S
H1416 N1413 0.984 . S
H1417 N1413 0.985 . S
H1418 N1412 0.984 . S
H1419 N1412 0.984 . S
H1420 N1408 0.984 . S
H1421 N1408 0.985 . S
C1422 C1423 1.363 . S
C1422 C1428 1.379 . S
C1422 N1430 1.356 . S
C1423 C1422 1.363 . S
C1423 C1429 1.363 . S
C1424 C1425 1.363 . S
C1424 C1429 1.379 . S
C1424 N1431 1.356 . S
C1425 C1424 1.363 . S
C1425 C1428 1.363 . S
N1426 C1428 1.356 . S
N1426 H1438 0.984 . S
N1426 H1439 0.985 . S
N1427 C1429 1.356 . S
N1427 H1432 0.984 . S
N1427 H1433 0.985 . S
C1428 C1422 1.379 . S
C1428 C1425 1.363 . S
C1428 N1426 1.356 . S
C1429 C1423 1.363 . S
C1429 C1424 1.379 . S
C1429 N1427 1.356 . S
N1430 C1422 1.356 . S
N1430 H1436 0.984 . S
N1430 H1437 0.984 . S
N1431 C1424 1.356 . S
N1431 H1434 0.984 . S
N1431 H1435 0.985 . S
H1432 N1427 0.984 . S
H1433 N1427 0.985 . S
H1434 N1431 0.984 . S
H1435 N1431 0.985 . S
H1436 N1430 0.984 . S
H1437 N1430 0.984 . S
H1438 N1426 0.984 . S
H1439 N1426 0.985 . S
C1440 C1441 1.363 . S
C1440 C1446 1.379 . S
C1440 N1448 1.356 . S
C1441 C1440 1.363 . S
C1441 C1447 1.363 . S
C1442 C1443 1.363 . S
C1442 C1447 1.379 . S
C1442 N1449 1.356 . S
C1443 C1442 1.363 . S
C1443 C1446 1.363 . S
N1444 C1446 1.356 . S
N1444 H1456 0.984 . S
N1444 H1457 0.985 . S
N1445 C1447 1.356 . S
N1445 H1450 0.984 . S
N1445 H1451 0.985 . S
C1446 C1440 1.379 . S
C1446 C1443 1.363 . S
C1446 N1444 1.356 . S
C1447 C1441 1.363 . S
C1447 C1442 1.379 . S
C1447 N1445 1.356 . S
N1448 C1440 1.356 . S
N1448 H1454 0.984 . S
N1448 H1455 0.984 . S
N1449 C1442 1.356 . S
N1449 H1452 0.984 . S
N1449 H1453 0.985 . S
H1450 N1445 0.984 . S
H1451 N1445 0.985 . S
H1452 N1449 0.984 . S
H1453 N1449 0.985 . S
H1454 N1448 0.984 . S
H1455 N1448 0.984 . S
H1456 N1444 0.984 . S
H1457 N1444 0.985 . S
C1458 C1459 1.363 . S
C1458 C1464 1.379 . S
C1458 N1466 1.356 . S
C1459 C1458 1.363 . S
C1459 C1465 1.363 . S
C1460 C1461 1.363 . S
C1460 C1465 1.379 . S
C1460 N1467 1.356 . S
C1461 C1460 1.363 . S
C1461 C1464 1.363 . S
N1462 C1464 1.356 . S
N1462 H1474 0.984 . S
N1462 H1475 0.985 . S
N1463 C1465 1.356 . S
N1463 H1468 0.984 . S
N1463 H1469 0.985 . S
C1464 C1458 1.379 . S
C1464 C1461 1.363 . S
C1464 N1462 1.356 . S
C1465 C1459 1.363 . S
C1465 C1460 1.379 . S
C1465 N1463 1.356 . S
N1466 C1458 1.356 . S
N1466 H1472 0.984 . S
N1466 H1473 0.984 . S
N1467 C1460 1.356 . S
N1467 H1470 0.984 . S
N1467 H1471 0.985 . S
H1468 N1463 0.984 . S
H1469 N1463 0.985 . S
H1470 N1467 0.984 . S
H1471 N1467 0.985 . S
H1472 N1466 0.984 . S
H1473 N1466 0.984 . S
H1474 N1462 0.984 . S
H1475 N1462 0.985 . S
C1476 C1477 1.363 . S
C1476 C1482 1.379 . S
C1476 N1484 1.356 . S
C1477 C1476 1.363 . S
C1477 C1483 1.363 . S
C1478 C1479 1.363 . S
C1478 C1483 1.379 . S
C1478 N1485 1.356 . S
C1479 C1478 1.363 . S
C1479 C1482 1.363 . S
N1480 C1482 1.356 . S
N1480 H1492 0.984 . S
N1480 H1493 0.985 . S
N1481 C1483 1.356 . S
N1481 H1486 0.984 . S
N1481 H1487 0.985 . S
C1482 C1476 1.379 . S
C1482 C1479 1.363 . S
C1482 N1480 1.356 . S
C1483 C1477 1.363 . S
C1483 C1478 1.379 . S
C1483 N1481 1.356 . S
N1484 C1476 1.356 . S
N1484 H1490 0.984 . S
N1484 H1491 0.984 . S
N1485 C1478 1.356 . S
N1485 H1488 0.984 . S
N1485 H1489 0.985 . S
H1486 N1481 0.984 . S
H1487 N1481 0.985 . S
H1488 N1485 0.984 . S
H1489 N1485 0.985 . S
H1490 N1484 0.984 . S
H1491 N1484 0.984 . S
H1492 N1480 0.984 . S
H1493 N1480 0.985 . S
C1494 C1495 1.363 . S
C1494 C1500 1.379 . S
C1494 N1502 1.356 . S
C1495 C1494 1.363 . S
C1495 C1501 1.363 . S
C1496 C1497 1.363 . S
C1496 C1501 1.379 . S
C1496 N1503 1.356 . S
C1497 C1496 1.363 . S
C1497 C1500 1.363 . S
N1498 C1500 1.356 . S
N1498 H1510 0.984 . S
N1498 H1511 0.985 . S
N1499 C1501 1.356 . S
N1499 H1504 0.984 . S
N1499 H1505 0.985 . S
C1500 C1494 1.379 . S
C1500 C1497 1.363 . S
C1500 N1498 1.356 . S
C1501 C1495 1.363 . S
C1501 C1496 1.379 . S
C1501 N1499 1.356 . S
N1502 C1494 1.356 . S
N1502 H1508 0.984 . S
N1502 H1509 0.984 . S
N1503 C1496 1.356 . S
N1503 H1506 0.984 . S
N1503 H1507 0.985 . S
H1504 N1499 0.984 . S
H1505 N1499 0.985 . S
H1506 N1503 0.984 . S
H1507 N1503 0.985 . S
H1508 N1502 0.984 . S
H1509 N1502 0.984 . S
H1510 N1498 0.984 . S
H1511 N1498 0.985 . S
C1512 C1513 1.363 . S
C1512 C1518 1.379 . S
C1512 N1520 1.356 . S
C1513 C1512 1.363 . S
C1513 C1519 1.363 . S
C1514 C1515 1.363 . S
C1514 C1519 1.379 . S
C1514 N1521 1.356 . S
C1515 C1514 1.363 . S
C1515 C1518 1.363 . S
N1516 C1518 1.356 . S
N1516 H1528 0.984 . S
N1516 H1529 0.985 . S
N1517 C1519 1.356 . S
N1517 H1522 0.984 . S
N1517 H1523 0.985 . S
C1518 C1512 1.379 . S
C1518 C1515 1.363 . S
C1518 N1516 1.356 . S
C1519 C1513 1.363 . S
C1519 C1514 1.379 . S
C1519 N1517 1.356 . S
N1520 C1512 1.356 . S
N1520 H1526 0.984 . S
N1520 H1527 0.984 . S
N1521 C1514 1.356 . S
N1521 H1524 0.984 . S
N1521 H1525 0.985 . S
H1522 N1517 0.984 . S
H1523 N1517 0.985 . S
H1524 N1521 0.984 . S
H1525 N1521 0.985 . S
H1526 N1520 0.984 . S
H1527 N1520 0.984 . S
H1528 N1516 0.984 . S
H1529 N1516 0.985 . S
C1530 C1531 1.363 . S
C1530 C1536 1.379 . S
C1530 N1538 1.356 . S
C1531 C1530 1.363 . S
C1531 C1537 1.363 . S
C1532 C1533 1.363 . S
C1532 C1537 1.379 . S
C1532 N1539 1.356 . S
C1533 C1532 1.363 . S
C1533 C1536 1.363 . S
N1534 C1536 1.356 . S
N1534 H1546 0.984 . S
N1534 H1547 0.985 . S
N1535 C1537 1.356 . S
N1535 H1540 0.984 . S
N1535 H1541 0.985 . S
C1536 C1530 1.379 . S
C1536 C1533 1.363 . S
C1536 N1534 1.356 . S
C1537 C1531 1.363 . S
C1537 C1532 1.379 . S
C1537 N1535 1.356 . S
N1538 C1530 1.356 . S
N1538 H1544 0.984 . S
N1538 H1545 0.984 . S
N1539 C1532 1.356 . S
N1539 H1542 0.984 . S
N1539 H1543 0.985 . S
H1540 N1535 0.984 . S
H1541 N1535 0.985 . S
H1542 N1539 0.984 . S
H1543 N1539 0.985 . S
H1544 N1538 0.984 . S
H1545 N1538 0.984 . S
H1546 N1534 0.984 . S
H1547 N1534 0.985 . S
C1548 C1549 1.363 . S
C1548 C1554 1.379 1_565 S
C1548 N1556 1.356 . S
C1549 C1548 1.363 . S
C1549 C1555 1.363 1_565 S
C1550 C1551 1.363 . S
C1550 C1555 1.379 . S
C1550 N1557 1.356 . S
C1551 C1550 1.363 . S
C1551 C1554 1.363 . S
N1552 C1554 1.356 . S
N1552 H1564 0.984 1_545 S
N1552 H1565 0.985 . S
N1553 C1555 1.356 . S
N1553 H1558 0.984 . S
N1553 H1559 0.985 . S
C1554 C1548 1.379 1_545 S
C1554 C1551 1.363 . S
C1554 N1552 1.356 . S
C1555 C1549 1.363 1_545 S
C1555 C1550 1.379 . S
C1555 N1553 1.356 . S
N1556 C1548 1.356 . S
N1556 H1562 0.984 . S
N1556 H1563 0.984 . S
N1557 C1550 1.356 . S
N1557 H1560 0.984 . S
N1557 H1561 0.985 . S
H1558 N1553 0.984 . S
H1559 N1553 0.985 . S
H1560 N1557 0.984 . S
H1561 N1557 0.985 . S
H1562 N1556 0.984 . S
H1563 N1556 0.984 . S
H1564 N1552 0.984 1_565 S
H1565 N1552 0.985 . S
C1566 C1567 1.363 1_455 S
C1566 C1572 1.379 . S
C1566 N1574 1.356 . S
C1567 C1566 1.363 1_655 S
C1567 C1573 1.363 . S
C1568 C1569 1.363 . S
C1568 C1573 1.379 1_455 S
C1568 N1575 1.356 . S
C1569 C1568 1.363 . S
C1569 C1572 1.363 . S
N1570 C1572 1.356 . S
N1570 H1582 0.984 . S
N1570 H1583 0.985 . S
N1571 C1573 1.356 . S
N1571 H1576 0.984 . S
N1571 H1577 0.985 . S
C1572 C1566 1.379 . S
C1572 C1569 1.363 . S
C1572 N1570 1.356 . S
C1573 C1567 1.363 . S
C1573 C1568 1.379 1_655 S
C1573 N1571 1.356 . S
N1574 C1566 1.356 . S
N1574 H1580 0.984 . S
N1574 H1581 0.984 1_455 S
N1575 C1568 1.356 . S
N1575 H1578 0.984 . S
N1575 H1579 0.985 1_455 S
H1576 N1571 0.984 . S
H1577 N1571 0.985 . S
H1578 N1575 0.984 . S
H1579 N1575 0.985 1_655 S
H1580 N1574 0.984 . S
H1581 N1574 0.984 1_655 S
H1582 N1570 0.984 . S
H1583 N1570 0.985 . S
C1584 C1585 1.363 . S
C1584 C1590 1.379 . S
C1584 N1592 1.356 . S
C1585 C1584 1.363 . S
C1585 C1591 1.363 . S
C1586 C1587 1.363 . S
C1586 C1591 1.379 . S
C1586 N1593 1.356 . S
C1587 C1586 1.363 . S
C1587 C1590 1.363 . S
N1588 C1590 1.356 . S
N1588 H1600 0.984 . S
N1588 H1601 0.985 . S
N1589 C1591 1.356 . S
N1589 H1594 0.984 . S
N1589 H1595 0.985 . S
C1590 C1584 1.379 . S
C1590 C1587 1.363 . S
C1590 N1588 1.356 . S
C1591 C1585 1.363 . S
C1591 C1586 1.379 . S
C1591 N1589 1.356 . S
N1592 C1584 1.356 . S
N1592 H1598 0.984 . S
N1592 H1599 0.984 . S
N1593 C1586 1.356 . S
N1593 H1596 0.984 . S
N1593 H1597 0.985 . S
H1594 N1589 0.984 . S
H1595 N1589 0.985 . S
H1596 N1593 0.984 . S
H1597 N1593 0.985 . S
H1598 N1592 0.984 . S
H1599 N1592 0.984 . S
H1600 N1588 0.984 . S
H1601 N1588 0.985 . S
C1602 C1603 1.363 . S
C1602 C1608 1.379 . S
C1602 N1610 1.356 . S
C1603 C1602 1.363 . S
C1603 C1609 1.363 . S
C1604 C1605 1.363 . S
C1604 C1609 1.379 1_565 S
C1604 N1611 1.356 . S
C1605 C1604 1.363 . S
C1605 C1608 1.363 1_565 S
N1606 C1608 1.356 1_565 S
N1606 H1618 0.984 1_565 S
N1606 H1619 0.985 . S
N1607 C1609 1.356 . S
N1607 H1612 0.984 . S
N1607 H1613 0.985 . S
C1608 C1602 1.379 . S
C1608 C1605 1.363 1_545 S
C1608 N1606 1.356 1_545 S
C1609 C1603 1.363 . S
C1609 C1604 1.379 1_545 S
C1609 N1607 1.356 . S
N1610 C1602 1.356 . S
N1610 H1616 0.984 . S
N1610 H1617 0.984 . S
N1611 C1604 1.356 . S
N1611 H1614 0.984 . S
N1611 H1615 0.985 . S
H1612 N1607 0.984 . S
H1613 N1607 0.985 . S
H1614 N1611 0.984 . S
H1615 N1611 0.985 . S
H1616 N1610 0.984 . S
H1617 N1610 0.984 . S
H1618 N1606 0.984 1_545 S
H1619 N1606 0.985 . S
C1620 C1621 1.363 . S
C1620 C1626 1.379 . S
C1620 N1628 1.356 . S
C1621 C1620 1.363 . S
C1621 C1627 1.363 . S
C1622 C1623 1.363 1_455 S
C1622 C1627 1.379 . S
C1622 N1629 1.356 1_455 S
C1623 C1622 1.363 1_655 S
C1623 C1626 1.363 1_655 S
N1624 C1626 1.356 1_655 S
N1624 H1636 0.984 1_655 S
N1624 H1637 0.985 . S
N1625 C1627 1.356 . S
N1625 H1630 0.984 . S
N1625 H1631 0.985 . S
C1626 C1620 1.379 . S
C1626 C1623 1.363 1_455 S
C1626 N1624 1.356 1_455 S
C1627 C1621 1.363 . S
C1627 C1622 1.379 . S
C1627 N1625 1.356 . S
N1628 C1620 1.356 . S
N1628 H1634 0.984 . S
N1628 H1635 0.984 . S
N1629 C1622 1.356 1_655 S
N1629 H1632 0.984 . S
N1629 H1633 0.985 . S
H1630 N1625 0.984 . S
H1631 N1625 0.985 . S
H1632 N1629 0.984 . S
H1633 N1629 0.985 . S
H1634 N1628 0.984 . S
H1635 N1628 0.984 . S
H1636 N1624 0.984 1_455 S
H1637 N1624 0.985 . S
C1638 C1639 1.363 . S
C1638 C1644 1.379 . S
C1638 N1646 1.356 . S
C1639 C1638 1.363 . S
C1639 C1645 1.363 . S
C1640 C1641 1.363 . S
C1640 C1645 1.379 . S
C1640 N1647 1.356 . S
C1641 C1640 1.363 . S
C1641 C1644 1.363 . S
N1642 C1644 1.356 . S
N1642 H1654 0.984 . S
N1642 H1655 0.985 . S
N1643 C1645 1.356 . S
N1643 H1648 0.984 . S
N1643 H1649 0.985 . S
C1644 C1638 1.379 . S
C1644 C1641 1.363 . S
C1644 N1642 1.356 . S
C1645 C1639 1.363 . S
C1645 C1640 1.379 . S
C1645 N1643 1.356 . S
N1646 C1638 1.356 . S
N1646 H1652 0.984 . S
N1646 H1653 0.984 . S
N1647 C1640 1.356 . S
N1647 H1650 0.984 . S
N1647 H1651 0.985 . S
H1648 N1643 0.984 . S
H1649 N1643 0.985 . S
H1650 N1647 0.984 . S
H1651 N1647 0.985 . S
H1652 N1646 0.984 . S
H1653 N1646 0.984 . S
H1654 N1642 0.984 . S
H1655 N1642 0.985 . S
C1656 C1657 1.363 . S
C1656 C1662 1.379 . S
C1656 N1664 1.356 . S
C1657 C1656 1.363 . S
C1657 C1663 1.363 . S
C1658 C1659 1.363 . S
C1658 C1663 1.379 . S
C1658 N1665 1.356 . S
C1659 C1658 1.363 . S
C1659 C1662 1.363 . S
N1660 C1662 1.356 . S
N1660 H1672 0.984 . S
N1660 H1673 0.985 . S
N1661 C1663 1.356 . S
N1661 H1666 0.984 . S
N1661 H1667 0.985 . S
C1662 C1656 1.379 . S
C1662 C1659 1.363 . S
C1662 N1660 1.356 . S
C1663 C1657 1.363 . S
C1663 C1658 1.379 . S
C1663 N1661 1.356 . S
N1664 C1656 1.356 . S
N1664 H1670 0.984 . S
N1664 H1671 0.984 . S
N1665 C1658 1.356 . S
N1665 H1668 0.984 . S
N1665 H1669 0.985 . S
H1666 N1661 0.984 . S
H1667 N1661 0.985 . S
H1668 N1665 0.984 . S
H1669 N1665 0.985 . S
H1670 N1664 0.984 . S
H1671 N1664 0.984 . S
H1672 N1660 0.984 . S
H1673 N1660 0.985 . S
C1674 C1675 1.363 . S
C1674 C1680 1.379 . S
C1674 N1682 1.356 . S
C1675 C1674 1.363 . S
C1675 C1681 1.363 . S
C1676 C1677 1.363 . S
C1676 C1681 1.379 . S
C1676 N1683 1.356 . S
C1677 C1676 1.363 . S
C1677 C1680 1.363 . S
N1678 C1680 1.356 . S
N1678 H1690 0.984 . S
N1678 H1691 0.985 . S
N1679 C1681 1.356 . S
N1679 H1684 0.984 . S
N1679 H1685 0.985 . S
C1680 C1674 1.379 . S
C1680 C1677 1.363 . S
C1680 N1678 1.356 . S
C1681 C1675 1.363 . S
C1681 C1676 1.379 . S
C1681 N1679 1.356 . S
N1682 C1674 1.356 . S
N1682 H1688 0.984 . S
N1682 H1689 0.984 . S
N1683 C1676 1.356 . S
N1683 H1686 0.984 . S
N1683 H1687 0.985 . S
H1684 N1679 0.984 . S
H1685 N1679 0.985 . S
H1686 N1683 0.984 . S
H1687 N1683 0.985 . S
H1688 N1682 0.984 . S
H1689 N1682 0.984 . S
H1690 N1678 0.984 . S
H1691 N1678 0.985 . S
C721 C11 1.326 . S
C723 C96 1.386 . S
C739 C16 1.386 . S
C741 C51 1.326 . S
C757 C56 1.385 . S
C759 C91 1.326 . S
C775 C131 1.326 . S
C777 C176 1.386 . S
C793 C216 1.385 . S
C795 C171 1.326 . S
C811 C211 1.326 . S
C813 C136 1.386 . S
C829 C336 1.386 . S
C831 C251 1.326 . S
C847 C256 1.386 . S
C849 C291 1.326 . S
C865 C331 1.326 . S
C867 C296 1.399 . S
C883 C416 1.386 . S
C885 C371 1.326 . S
C901 C411 1.326 . S
C903 C456 1.386 . S
C919 C376 1.386 . S
C921 C451 1.326 . S
C937 C491 1.326 . S
C939 C576 1.386 . S
C955 C496 1.386 . S
C957 C531 1.326 . S
C973 C536 1.386 . S
C975 C571 1.326 . S
C991 C656 1.386 . S
C993 C611 1.326 . S
C1009 C696 1.399 . S
C1011 C651 1.326 . S
C1027 C616 1.386 . S
C1029 C691 1.326 . S
C1045 C19 1.672 . S
C1047 C219 1.672 . S
C1063 C139 1.672 . S
C1065 C59 1.672 . S
C1081 C179 1.672 . S
C1083 C99 1.672 . S
C1099 C259 1.672 . S
C1101 C459 1.672 . S
C1117 C299 1.672 . S
C1119 C379 1.672 . S
C1135 C419 1.672 . S
C1137 C339 1.672 . S
C1153 C499 1.672 . S
C1155 C699 1.672 . S
C1171 C619 1.672 . S
C1173 C539 1.672 . S
C1189 C659 1.672 . S
C1191 C579 1.672 . S
C1207 C410 2.513 . S
C1209 C10 2.513 1_565 S
C1225 C50 2.512 . S
C1227 C450 2.512 . S
C1243 C370 2.512 . S
C1245 C90 2.512 . S
C1261 C130 2.513 1_655 S
C1263 C570 2.513 . S
C1279 C170 2.512 . S
C1281 C490 2.512 . S
C1297 C530 2.512 . S
C1299 C210 2.512 . S
C1315 C650 2.513 . S
C1317 C250 2.513 . S
C1333 C290 2.513 . S
C1335 C690 2.513 . S
C1351 C330 2.513 . S
C1353 C610 2.513 . S
C1369 C87 1.886 . S
C1371 C2 1.915 . S
C1387 C7 1.886 . S
C1389 C42 1.915 . S
C1405 C82 1.915 . S
C1407 C47 1.886 . S
C1423 C167 1.886 . S
C1425 C122 1.915 . S
C1441 C207 1.886 . S
C1443 C162 1.915 . S
C1459 C202 1.915 . S
C1461 C127 1.886 . S
C1477 C327 1.886 . S
C1479 C242 1.915 . S
C1495 C282 1.915 . S
C1497 C247 1.886 . S
C1513 C287 1.886 . S
C1515 C322 1.915 . S
C1531 C362 1.915 . S
C1533 C407 1.886 . S
C1549 C402 1.915 . S
C1551 C447 1.886 . S
C1567 C367 1.886 . S
C1569 C442 1.915 . S
C1585 C482 1.915 . S
C1587 C567 1.886 . S
C1603 C522 1.915 . S
C1605 C487 1.886 . S
C1621 C527 1.886 . S
C1623 C562 1.915 . S
C1639 C602 1.915 . S
C1641 C647 1.886 . S
C1657 C642 1.915 . S
C1659 C687 1.886 . S
C1675 C607 1.886 . S
C1677 C682 1.915 . S
