# Generated by pormake.
# Topology cdt, (3)-cn, num edge types: 1
# Building blocks:
#     Node 0, Type 0, BuildingBlock: WUSLED_clean_sbu_0, # of connection points: 3
#     Node 1, Type 0, BuildingBlock: WUSLED_clean_sbu_0, # of connection points: 3
#     Node 2, Type 0, BuildingBlock: WUSLED_clean_sbu_0, # of connection points: 3
#     Node 3, Type 0, BuildingBlock: WUSLED_clean_sbu_0, # of connection points: 3
#     Node 4, Type 0, BuildingBlock: WUSLED_clean_sbu_0, # of connection points: 3
#     Node 5, Type 0, BuildingBlock: WUSLED_clean_sbu_0, # of connection points: 3
#     Node 6, Type 0, BuildingBlock: WUSLED_clean_sbu_0, # of connection points: 3
#     Node 7, Type 0, BuildingBlock: WUSLED_clean_sbu_0, # of connection points: 3
#     Edge 8, Type (0, 0), BuildingBlock: ZUJKAS_clean_linker_0, # of connection points: 2
#     Edge 9, Type (0, 0), BuildingBlock: ZUJKAS_clean_linker_0, # of connection points: 2
#     Edge 10, Type (0, 0), BuildingBlock: ZUJKAS_clean_linker_0, # of connection points: 2
#     Edge 11, Type (0, 0), BuildingBlock: ZUJKAS_clean_linker_0, # of connection points: 2
#     Edge 12, Type (0, 0), BuildingBlock: ZUJKAS_clean_linker_0, # of connection points: 2
#     Edge 13, Type (0, 0), BuildingBlock: ZUJKAS_clean_linker_0, # of connection points: 2
#     Edge 14, Type (0, 0), BuildingBlock: ZUJKAS_clean_linker_0, # of connection points: 2
#     Edge 15, Type (0, 0), BuildingBlock: ZUJKAS_clean_linker_0, # of connection points: 2
#     Edge 16, Type (0, 0), BuildingBlock: ZUJKAS_clean_linker_0, # of connection points: 2
#     Edge 17, Type (0, 0), BuildingBlock: ZUJKAS_clean_linker_0, # of connection points: 2
#     Edge 18, Type (0, 0), BuildingBlock: ZUJKAS_clean_linker_0, # of connection points: 2
#     Edge 19, Type (0, 0), BuildingBlock: ZUJKAS_clean_linker_0, # of connection points: 2
# Relax obj value: 0.076
# Max RMSD: 0.066
# Mean RMSD: 0.066
data_MOF--net-cdt--node1-WUSLED_clean_sbu_0--edge1-ZUJKAS_clean_linker_0
_symmetry_space_group_name_H-M    P1
_symmetry_Int_Tables_number       1
_symmetry_cell_setting            triclinic
loop_
_symmetry_equiv_pos_as_xyz
'x, y, z'
_cell_length_a     55.321851
_cell_length_b     37.164914
_cell_length_c     87.854484
_cell_angle_alpha  90.040647
_cell_angle_beta   90.196989
_cell_angle_gamma 89.905269
loop_
_atom_site_label
_atom_site_type_symbol
_atom_site_fract_x
_atom_site_fract_y
_atom_site_fract_z
_atom_type_partial_charge
C0 C 0.39691 0.16223 0.09411 0.0
C1 C 0.38635 0.15754 0.10847 0.0
C2 C 0.36119 0.10914 0.0984 0.0
C3 C 0.36861 0.13117 0.1106 0.0
C4 C 0.3726 0.11317 0.08422 0.0
C5 C 0.39027 0.13943 0.08212 0.0
U6 U 0.44307 0.23763 0.10391 0.0
O7 O 0.47215 0.25859 0.08915 0.0
O8 O 0.44111 0.29344 0.09565 0.0
C9 C 0.46144 0.29013 0.08808 0.0
C10 C 0.4129 0.19275 0.09077 0.0
C11 C 0.47161 0.32021 0.07926 0.0
C12 C 0.49541 0.34191 0.05795 0.0
C13 C 0.48763 0.31364 0.06722 0.0
C14 C 0.47212 0.38392 0.07307 0.0
C15 C 0.48746 0.37735 0.06062 0.0
C16 C 0.46419 0.35563 0.08222 0.0
C17 C 0.45815 0.22972 0.14932 0.0
C18 C 0.48715 0.22242 0.16999 0.0
C19 C 0.44587 0.23964 0.17551 0.0
C20 C 0.4403 0.23846 0.16001 0.0
C21 C 0.4695 0.23248 0.18068 0.0
C22 C 0.48151 0.22098 0.15445 0.0
C23 C 0.45285 0.23251 0.13288 0.0
O24 O 0.40635 0.22389 0.09653 0.0
O25 O 0.43631 0.18689 0.09152 0.0
O26 O 0.4661 0.2164 0.12248 0.0
O27 O 0.43417 0.25073 0.1277 0.0
H28 H 0.39128 0.17493 0.11789 0.0
H29 H 0.36042 0.12845 0.12172 0.0
H30 H 0.36714 0.09712 0.07451 0.0
H31 H 0.3981 0.14286 0.07092 0.0
H32 H 0.50699 0.33576 0.04838 0.0
H33 H 0.4935 0.28649 0.06464 0.0
H34 H 0.46606 0.41093 0.07569 0.0
H35 H 0.45198 0.36147 0.09153 0.0
H36 H 0.50555 0.21697 0.17355 0.0
H37 H 0.43168 0.24664 0.18345 0.0
H38 H 0.42209 0.24503 0.15637 0.0
H39 H 0.49565 0.21434 0.14643 0.0
C40 C 0.11493 0.82821 0.08963 0.0
C41 C 0.12034 0.84555 0.10341 0.0
C42 C 0.15283 0.87879 0.09119 0.0
C43 C 0.13913 0.87059 0.1042 0.0
C44 C 0.14694 0.86185 0.07732 0.0
C45 C 0.12815 0.83673 0.07657 0.0
U46 U 0.06583 0.77612 0.10949 0.0
O47 O 0.03055 0.75596 0.10157 0.0
O48 O 0.05803 0.7182 0.11004 0.0
C49 C 0.0368 0.7221 0.10348 0.0
C50 C 0.09619 0.80026 0.08905 0.0
C51 C 0.03221 0.69812 0.09049 0.0
C52 C 0.04234 0.67568 0.06532 0.0
C53 C 0.04636 0.69985 0.07729 0.0
C54 C 0.0098 0.64824 0.07958 0.0
C55 C 0.02407 0.64944 0.06636 0.0
C56 C 0.01386 0.67236 0.09152 0.0
C57 C 0.05392 0.8013 0.15126 0.0
C58 C 0.03194 0.76443 0.16936 0.0
C59 C 0.04686 0.8231 0.17689 0.0
C60 C 0.05626 0.82817 0.16233 0.0
C61 C 0.0349 0.79095 0.18068 0.0
C62 C 0.04137 0.76959 0.15474 0.0
C63 C 0.06599 0.80612 0.13654 0.0
O64 O 0.10061 0.77203 0.09762 0.0
O65 O 0.07381 0.81191 0.09017 0.0
O66 O 0.05237 0.81764 0.12527 0.0
O67 O 0.08084 0.78015 0.13258 0.0
H68 H 0.11031 0.83918 0.11364 0.0
H69 H 0.14333 0.88274 0.11509 0.0
H70 H 0.15689 0.86793 0.06705 0.0
H71 H 0.12415 0.82364 0.06583 0.0
H72 H 0.05346 0.67759 0.05523 0.0
H73 H 0.06062 0.71966 0.07632 0.0
H74 H 0.99584 0.62809 0.08087 0.0
H75 H 1.00285 0.67057 0.10167 0.0
H76 H 0.02261 0.73954 0.17185 0.0
H77 H 0.04983 0.84384 0.18535 0.0
H78 H 0.06599 0.85275 0.15983 0.0
H79 H 0.03934 0.74857 0.14628 0.0
C80 C 0.39422 0.33072 0.43199 0.0
C81 C 0.38941 0.34999 0.41859 0.0
C82 C 0.35665 0.38217 0.43116 0.0
C83 C 0.37081 0.3755 0.41817 0.0
C84 C 0.36185 0.36308 0.44463 0.0
C85 C 0.38046 0.33756 0.44502 0.0
U86 U 0.44287 0.27795 0.41163 0.0
O87 O 0.47828 0.25764 0.41933 0.0
O88 O 0.45058 0.21996 0.41118 0.0
C89 C 0.47202 0.22381 0.41746 0.0
C90 C 0.41293 0.30261 0.43226 0.0
C91 C 0.47727 0.19965 0.43029 0.0
C92 C 0.46758 0.17497 0.45513 0.0
C93 C 0.46281 0.19943 0.44337 0.0
C94 C 0.50151 0.15125 0.4409 0.0
C95 C 0.48692 0.15041 0.45399 0.0
C96 C 0.49671 0.17563 0.42918 0.0
C97 C 0.45466 0.30132 0.36976 0.0
C98 C 0.47061 0.2613 0.35031 0.0
C99 C 0.46655 0.32508 0.34518 0.0
C100 C 0.45762 0.33048 0.35986 0.0
C101 C 0.47254 0.29028 0.34008 0.0
C102 C 0.46179 0.26679 0.36505 0.0
C103 C 0.44263 0.30719 0.38446 0.0
O104 O 0.40823 0.27448 0.42369 0.0
O105 O 0.43531 0.31404 0.43094 0.0
O106 O 0.45634 0.31899 0.39564 0.0
O107 O 0.42746 0.28192 0.38867 0.0
H108 H 0.39984 0.34489 0.40839 0.0
H109 H 0.36715 0.38937 0.40757 0.0
H110 H 0.35156 0.36792 0.4549 0.0
H111 H 0.38396 0.32294 0.45547 0.0
H112 H 0.45617 0.17532 0.46512 0.0
H113 H 0.44773 0.21791 0.44441 0.0
H114 H 0.51631 0.13243 0.43953 0.0
H115 H 0.50799 0.17538 0.41912 0.0
H116 H 0.4749 0.23414 0.34675 0.0
H117 H 0.46829 0.34809 0.33772 0.0
H118 H 0.45239 0.35735 0.36334 0.0
H119 H 0.45977 0.24391 0.37257 0.0
C120 C 0.12193 0.68762 0.43037 0.0
C121 C 0.1327 0.678 0.41649 0.0
C122 C 0.15882 0.63512 0.42956 0.0
C123 C 0.15106 0.65212 0.4161 0.0
C124 C 0.14761 0.64432 0.44339 0.0
C125 C 0.12936 0.67043 0.44378 0.0
U126 U 0.07273 0.74086 0.41056 0.0
O127 O 0.03725 0.76021 0.41853 0.0
O128 O 0.06449 0.79865 0.41052 0.0
C129 C 0.04333 0.7942 0.41701 0.0
C130 C 0.10306 0.71556 0.43091 0.0
C131 C 0.03836 0.81767 0.43015 0.0
C132 C 0.05155 0.84924 0.45296 0.0
C133 C 0.05619 0.82491 0.44115 0.0
C134 C 0.011 0.85842 0.44319 0.0
C135 C 0.02896 0.86656 0.45403 0.0
C136 C 0.0157 0.83426 0.43136 0.0
C137 C 0.06132 0.71756 0.36844 0.0
C138 C 0.03249 0.74832 0.35205 0.0
C139 C 0.05958 0.70353 0.34151 0.0
C140 C 0.06957 0.69788 0.35591 0.0
C141 C 0.041 0.72896 0.33934 0.0
C142 C 0.0426 0.74268 0.3665 0.0
C143 C 0.07327 0.71232 0.38322 0.0
O144 O 0.1074 0.7444 0.42271 0.0
O145 O 0.08074 0.70391 0.42954 0.0
O146 O 0.05964 0.70016 0.3943 0.0
O147 O 0.08783 0.73835 0.38749 0.0
H148 H 0.12701 0.69067 0.40596 0.0
H149 H 0.1591 0.64526 0.40525 0.0
H150 H 0.1533 0.63188 0.45396 0.0
H151 H 0.12118 0.67741 0.45458 0.0
H152 H 0.06565 0.85456 0.46124 0.0
H153 H 0.07378 0.81217 0.44047 0.0
H154 H 0.99352 0.87154 0.44358 0.0
H155 H 1.00174 0.82903 0.42296 0.0
H156 H 0.01809 0.76789 0.35081 0.0
H157 H 0.06697 0.68867 0.33199 0.0
H158 H 0.08413 0.67857 0.35721 0.0
H159 H 0.03606 0.75815 0.3761 0.0
C160 C 0.62334 0.83865 0.9285 0.0
C161 C 0.62905 0.85637 0.91488 0.0
C162 C 0.65989 0.89145 0.92802 0.0
C163 C 0.6472 0.88251 0.91463 0.0
C164 C 0.65377 0.87397 0.94168 0.0
C165 C 0.63567 0.84775 0.9419 0.0
U166 U 0.57476 0.78474 0.90833 0.0
O167 O 0.56808 0.72656 0.90772 0.0
O168 O 0.54015 0.76298 0.91657 0.0
C169 C 0.54711 0.72946 0.91463 0.0
C170 C 0.60511 0.80997 0.92869 0.0
C171 C 0.54353 0.70536 0.92769 0.0
C172 C 0.55873 0.67453 0.95017 0.0
C173 C 0.56212 0.69901 0.93828 0.0
C174 C 0.5179 0.66336 0.94128 0.0
C175 C 0.53664 0.6562 0.95173 0.0
C176 C 0.52136 0.68768 0.92937 0.0
C177 C 0.56031 0.80819 0.86673 0.0
C178 C 0.54686 0.76825 0.84648 0.0
C179 C 0.54352 0.83283 0.84338 0.0
C180 C 0.55329 0.83784 0.85791 0.0
C181 C 0.54077 0.798 0.83731 0.0
C182 C 0.55646 0.7733 0.86107 0.0
C183 C 0.57301 0.81436 0.88126 0.0
O184 O 0.58252 0.82075 0.92765 0.0
O185 O 0.60997 0.78229 0.9199 0.0
O186 O 0.58899 0.78981 0.88517 0.0
O187 O 0.55967 0.8255 0.89269 0.0
H188 H 0.61962 0.84971 0.90442 0.0
H189 H 0.65125 0.89579 0.90398 0.0
H190 H 0.66337 0.87993 0.95214 0.0
H191 H 0.63152 0.83423 0.95249 0.0
H192 H 0.57338 0.66995 0.95814 0.0
H193 H 0.57932 0.71266 0.93725 0.0
H194 H 0.50077 0.64944 0.94208 0.0
H195 H 0.50681 0.69227 0.9213 0.0
H196 H 0.54519 0.74107 0.84216 0.0
H197 H 0.53858 0.85631 0.83677 0.0
H198 H 0.55595 0.86496 0.86212 0.0
H199 H 0.5616 0.74995 0.86772 0.0
C200 C 0.89554 0.19409 0.93062 0.0
C201 C 0.88608 0.18178 0.91672 0.0
C202 C 0.85882 0.14141 0.93015 0.0
C203 C 0.86783 0.15581 0.91649 0.0
C204 C 0.86877 0.15337 0.94404 0.0
C205 C 0.88693 0.17954 0.94426 0.0
U206 U 0.94381 0.24728 0.91028 0.0
O207 O 0.95109 0.30535 0.9097 0.0
O208 O 0.97905 0.26812 0.91795 0.0
C209 C 0.97249 0.30185 0.91608 0.0
C210 C 0.91408 0.22241 0.93092 0.0
C211 C 0.9772 0.32599 0.92899 0.0
C212 C 0.96731 0.34875 0.95416 0.0
C213 C 0.96318 0.32442 0.94225 0.0
C214 C 0.99971 0.376 0.93971 0.0
C215 C 0.98556 0.37497 0.95298 0.0
C216 C 0.99554 0.35173 0.92784 0.0
C217 C 0.95551 0.22302 0.86848 0.0
C218 C 0.97727 0.26095 0.85067 0.0
C219 C 0.96235 0.20267 0.84262 0.0
C220 C 0.9531 0.19674 0.85716 0.0
C221 C 0.97418 0.23509 0.8391 0.0
C222 C 0.96802 0.25493 0.86527 0.0
C223 C 0.94358 0.21747 0.88319 0.0
O224 O 0.93653 0.21118 0.92962 0.0
O225 O 0.90926 0.25064 0.92242 0.0
O226 O 0.92845 0.24296 0.88729 0.0
O227 O 0.95744 0.20614 0.89439 0.0
H228 H 0.89258 0.19264 0.90605 0.0
H229 H 0.86044 0.14765 0.90559 0.0
H230 H 0.86258 0.14244 0.95476 0.0
H231 H 0.89416 0.18855 0.95508 0.0
H232 H 0.95628 0.34696 0.96429 0.0
H233 H 0.94893 0.30461 0.94333 0.0
H234 H 0.01366 0.39613 0.93832 0.0
H235 H 1.00645 0.35339 0.91764 0.0
H236 H 0.9865 0.28603 0.84838 0.0
H237 H 0.95931 0.18242 0.83395 0.0
H238 H 0.94343 0.17201 0.85946 0.0
H239 H 0.97011 0.27548 0.87393 0.0
C240 C 0.62282 0.6896 0.58794 0.0
C241 C 0.62942 0.67368 0.60183 0.0
C242 C 0.65919 0.63635 0.58889 0.0
C243 C 0.64749 0.64735 0.60231 0.0
C244 C 0.65218 0.652 0.57497 0.0
C245 C 0.63416 0.67846 0.57452 0.0
U246 U 0.57461 0.74426 0.60782 0.0
O247 O 0.56783 0.80251 0.60817 0.0
O248 O 0.5397 0.76579 0.59982 0.0
C249 C 0.54644 0.79939 0.60175 0.0
C250 C 0.60459 0.71841 0.58748 0.0
C251 C 0.54169 0.82381 0.58894 0.0
C252 C 0.55205 0.84862 0.56422 0.0
C253 C 0.55644 0.82398 0.57598 0.0
C254 C 0.51797 0.87264 0.57821 0.0
C255 C 0.53281 0.87338 0.56524 0.0
C256 C 0.52238 0.84809 0.58993 0.0
C257 C 0.56116 0.72174 0.64946 0.0
C258 C 0.54276 0.76268 0.66763 0.0
C259 C 0.54927 0.70021 0.67441 0.0
C260 C 0.55909 0.69373 0.66003 0.0
C261 C 0.54146 0.73493 0.67849 0.0
C262 C 0.55247 0.75611 0.65321 0.0
C263 C 0.57368 0.71506 0.63499 0.0
O264 O 0.58201 0.7078 0.5886 0.0
O265 O 0.60954 0.74646 0.59606 0.0
O266 O 0.58935 0.73978 0.63095 0.0
O267 O 0.56013 0.70371 0.62366 0.0
H268 H 0.62074 0.68188 0.61232 0.0
H269 H 0.65225 0.63551 0.61318 0.0
H270 H 0.661 0.6444 0.56446 0.0
H271 H 0.6293 0.69052 0.56371 0.0
H272 H 0.56366 0.8482 0.55432 0.0
H273 H 0.57142 0.8053 0.57503 0.0
H274 H 0.50324 0.89162 0.57949 0.0
H275 H 0.51088 0.84839 0.59989 0.0
H276 H 0.53662 0.7896 0.67038 0.0
H277 H 0.54876 0.67835 0.68255 0.0
H278 H 0.56571 0.66703 0.65732 0.0
H279 H 0.55375 0.77804 0.64514 0.0
C280 C 0.89131 0.32648 0.58799 0.0
C281 C 0.88318 0.34011 0.60197 0.0
C282 C 0.85458 0.37929 0.58881 0.0
C283 C 0.86494 0.3662 0.60239 0.0
C284 C 0.86319 0.36596 0.57482 0.0
C285 C 0.88136 0.33974 0.57444 0.0
U286 U 0.94049 0.27293 0.60771 0.0
O287 O 0.94792 0.21489 0.60807 0.0
O288 O 0.97545 0.25218 0.59948 0.0
C289 C 0.96899 0.21845 0.60136 0.0
C290 C 0.90983 0.29807 0.58751 0.0
C291 C 0.97347 0.19424 0.5884 0.0
C292 C 0.9597 0.16196 0.56591 0.0
C293 C 0.95538 0.18674 0.57761 0.0
C294 C 1.0004 0.15278 0.57541 0.0
C295 C 0.98221 0.14447 0.56475 0.0
C296 C 0.99604 0.17738 0.58712 0.0
C297 C 0.95418 0.29666 0.64939 0.0
C298 C 0.97361 0.25706 0.66774 0.0
C299 C 0.96445 0.31876 0.67459 0.0
C300 C 0.95488 0.32463 0.66007 0.0
C301 C 0.97344 0.28468 0.67871 0.0
C302 C 0.9641 0.26303 0.65317 0.0
C303 C 0.94158 0.30246 0.63485 0.0
O304 O 0.93232 0.3092 0.58853 0.0
O305 O 0.90535 0.2699 0.59608 0.0
O306 O 0.92619 0.27719 0.6309 0.0
O307 O 0.9549 0.31387 0.62348 0.0
H308 H 0.89072 0.33022 0.61258 0.0
H309 H 0.85861 0.3755 0.61336 0.0
H310 H 0.85596 0.37587 0.56415 0.0
H311 H 0.88755 0.32968 0.56354 0.0
H312 H 0.94542 0.15651 0.55777 0.0
H313 H 0.93786 0.19968 0.57834 0.0
H314 H 0.01784 0.13952 0.57496 0.0
H315 H 0.0102 0.18281 0.59536 0.0
H316 H 0.98065 0.23065 0.67051 0.0
H317 H 0.96377 0.34047 0.68281 0.0
H318 H 0.94727 0.35074 0.65734 0.0
H319 H 0.96385 0.24115 0.64501 0.0
H320 H 0.31874 0.11956 0.11379 0.0
H321 H 0.28355 0.07987 0.1145 0.0
H322 H 0.32117 1.00263 0.08657 0.0
H323 H 0.35677 0.04135 0.08635 0.0
H324 H 0.25665 0.05819 0.09007 0.0
H325 H 0.29426 0.93897 0.11971 0.0
H326 H 0.30942 0.98195 0.11962 0.0
H327 H 0.31182 0.95219 0.10353 0.0
C328 C 0.31979 0.0937 0.10814 0.0
C329 C 0.34064 0.08363 0.10004 0.0
C330 C 0.29956 0.07119 0.10844 0.0
C331 C 0.2998 0.03811 0.10073 0.0
C332 C 0.32071 0.0277 0.09286 0.0
H333 H 0.19716 0.87214 0.07771 0.0
H334 H 0.23189 0.91234 0.08005 0.0
C335 C 0.34097 0.05009 0.0926 0.0
C336 C 0.27772 0.01552 0.10009 0.0
H337 H 0.25653 0.93081 0.10688 0.0
C338 C 0.25654 0.03044 0.09389 0.0
C339 C 0.27763 0.9793 0.10505 0.0
C340 C 0.29943 0.96224 0.11249 0.0
C341 C 0.23546 0.00983 0.09209 0.0
C342 C 0.23551 0.97346 0.09681 0.0
C343 C 0.25659 0.95867 0.1032 0.0
C344 C 0.21401 0.95005 0.09504 0.0
C345 C 0.21357 0.02684 0.08473 0.0
C346 C 0.19242 0.95792 0.10271 0.0
C347 C 0.17243 0.93514 0.10128 0.0
C348 C 0.1737 0.90392 0.09224 0.0
C349 C 0.19539 0.89623 0.08456 0.0
C350 C 0.21534 0.91901 0.08599 0.0
H351 H 0.21827 0.05182 0.07847 0.0
H352 H 0.20474 1.00784 0.07669 0.0
H353 H 0.20028 0.03397 0.09367 0.0
H354 H 0.19112 0.98143 0.10995 0.0
H355 H 0.15597 0.94202 0.10727 0.0
H356 H 0.31179 0.3756 0.44394 0.0
H357 H 0.27832 0.41859 0.44303 0.0
H358 H 0.32159 0.49075 0.41611 0.0
H359 H 0.35532 0.44809 0.4171 0.0
H360 H 0.27797 0.49056 0.4533 0.0
H361 H 0.25858 0.48175 0.39131 0.0
H362 H 0.27673 0.44873 0.40122 0.0
H363 H 0.28947 0.4915 0.39615 0.0
C364 C 0.31429 0.40072 0.43791 0.0
C365 C 0.33627 0.40836 0.43059 0.0
C366 C 0.29508 0.42515 0.43733 0.0
C367 C 0.29735 0.45761 0.42932 0.0
C368 C 0.31928 0.4655 0.42207 0.0
H369 H 0.20158 0.6397 0.41417 0.0
H370 H 0.23504 0.59653 0.41419 0.0
C371 C 0.33853 0.44108 0.42266 0.0
C372 C 0.27699 0.48359 0.42899 0.0
H373 H 0.23725 0.52618 0.40521 0.0
C374 C 0.26899 0.49828 0.4428 0.0
C375 C 0.26542 0.49371 0.41526 0.0
C376 C 0.27279 0.47793 0.40014 0.0
C377 C 0.24992 0.52324 0.44325 0.0
C378 C 0.23816 0.53313 0.42954 0.0
C379 C 0.24624 0.51852 0.41571 0.0
C380 C 0.21755 0.55877 0.4293 0.0
C381 C 0.24298 0.53941 0.45839 0.0
C382 C 0.1964 0.55158 0.43755 0.0
C383 C 0.1773 0.57627 0.4376 0.0
C384 C 0.17883 0.6084 0.42922 0.0
C385 C 0.19978 0.61509 0.42065 0.0
C386 C 0.21895 0.5905 0.4207 0.0
H387 H 0.25784 0.53701 0.46687 0.0
H388 H 0.23813 0.56827 0.45718 0.0
H389 H 0.22707 0.52489 0.46294 0.0
H390 H 0.19465 0.52682 0.44393 0.0
H391 H 0.16123 0.57007 0.44409 0.0
H392 H 0.82033 0.13651 0.94963 0.0
H393 H 0.78721 0.09317 0.94901 0.0
H394 H 0.81775 0.04383 0.909 0.0
H395 H 0.85159 0.08591 0.90995 0.0
H396 H 0.75351 0.08251 0.92678 0.0
H397 H 0.80629 0.95721 0.93583 0.0
H398 H 0.81898 1.00131 0.93894 0.0
H399 H 0.81647 0.98345 0.91997 0.0
C400 C 0.82031 0.11601 0.94087 0.0
C401 C 0.83879 0.11463 0.9299 0.0
C402 C 0.80122 0.09144 0.94045 0.0
C403 C 0.80016 0.06493 0.92909 0.0
C404 C 0.81843 0.06357 0.91806 0.0
H405 H 0.69539 0.8987 0.90661 0.0
H406 H 0.72871 0.94196 0.9064 0.0
C407 C 0.83763 0.088 0.91851 0.0
C408 C 0.7795 0.03949 0.92854 0.0
H409 H 0.76492 0.95021 0.92917 0.0
C410 C 0.756 0.05359 0.92737 0.0
C411 C 0.78278 1.00174 0.92927 0.0
C412 C 0.80747 0.98498 0.93122 0.0
C413 C 0.73571 0.03098 0.92674 0.0
C414 C 0.73901 0.99329 0.92749 0.0
C415 C 0.76249 0.97915 0.92857 0.0
C416 C 0.71831 0.96803 0.92741 0.0
C417 C 0.71093 0.04756 0.92504 0.0
C418 C 0.70149 0.96828 0.93933 0.0
C419 C 0.68239 0.94368 0.93946 0.0
C420 C 0.67979 0.9183 0.92768 0.0
C421 C 0.69667 0.91822 0.91574 0.0
C422 C 0.71581 0.94275 0.91564 0.0
H423 H 0.71191 0.07573 0.92086 0.0
H424 H 0.69959 0.03165 0.91705 0.0
H425 H 0.70186 0.04784 0.93628 0.0
H426 H 0.70331 0.98722 0.94863 0.0
H427 H 0.66962 0.94462 0.94877 0.0
H428 H 0.69621 0.63147 0.60957 0.0
H429 H 0.72951 0.58802 0.60994 0.0
H430 H 0.70018 0.5364 0.56998 0.0
H431 H 0.66689 0.5798 0.5695 0.0
H432 H 0.72948 0.51396 0.61221 0.0
H433 H 0.76945 0.55668 0.55731 0.0
H434 H 0.74682 0.58293 0.56707 0.0
H435 H 0.73814 0.54451 0.55586 0.0
C436 C 0.69675 0.61071 0.60092 0.0
C437 C 0.67899 0.60924 0.58943 0.0
C438 C 0.71584 0.58599 0.60111 0.0
C439 C 0.71758 0.5594 0.58982 0.0
C440 C 0.69955 0.55728 0.57857 0.0
H441 H 0.81421 0.38224 0.57068 0.0
H442 H 0.78138 0.42628 0.57142 0.0
C443 C 0.68052 0.58207 0.57833 0.0
C444 C 0.73818 0.53375 0.58986 0.0
H445 H 0.78508 0.50292 0.56825 0.0
C446 C 0.74174 0.51168 0.60264 0.0
C447 C 0.75421 0.53094 0.57739 0.0
C448 C 0.75216 0.55526 0.56369 0.0
C449 C 0.76053 0.48622 0.60312 0.0
C450 C 0.77629 0.48307 0.59055 0.0
C451 C 0.77287 0.50532 0.57783 0.0
C452 C 0.7963 0.45652 0.59026 0.0
C453 C 0.76304 0.46229 0.6169 0.0
C454 C 0.81574 0.45924 0.60049 0.0
C455 C 0.8347 0.43431 0.60001 0.0
C456 C 0.8346 0.4062 0.58925 0.0
C457 C 0.8151 0.40379 0.57897 0.0
C458 C 0.79622 0.42879 0.57943 0.0
H459 H 0.74651 0.46269 0.62406 0.0
H460 H 0.76684 0.43409 0.61346 0.0
H461 H 0.77842 0.4718 0.62397 0.0
H462 H 0.81636 0.48088 0.60875 0.0
H463 H 0.84959 0.43738 0.60793 0.0
H464 H 0.53114 0.38891 0.04659 0.0
H465 H 0.54155 0.43715 0.0288 0.0
H466 H 0.46986 0.48141 0.03325 0.0
H467 H 0.45904 0.43299 0.05067 0.0
H468 H 0.51664 0.45437 1.00051 0.0
H469 H 0.516 0.56765 0.04179 0.0
H470 H 0.5186 0.52118 0.04762 0.0
H471 H 0.48971 0.53932 0.0422 0.0
C472 C 0.51753 0.4088 0.04374 0.0
C473 C 0.49428 0.40713 0.05016 0.0
C474 C 0.52357 0.43643 0.03365 0.0
C475 C 0.50658 0.46308 0.02992 0.0
C476 C 0.48338 0.4615 0.03624 0.0
H477 H 0.49709 0.64614 0.9699 0.0
H478 H 0.49087 0.59896 0.98892 0.0
C479 C 0.47728 0.43383 0.04625 0.0
C480 C 0.5127 0.49191 0.01899 0.0
H481 H 0.51795 0.58307 0.01558 0.0
C482 C 0.51717 0.4825 1.0038 0.0
C483 C 0.51323 0.52852 0.02336 0.0
C484 C 0.50933 0.53991 0.03965 0.0
C485 C 0.52153 0.50889 0.99272 0.0
C486 C 0.52188 0.54557 0.99706 0.0
C487 C 0.51766 0.55493 0.0123 0.0
C488 C 0.52608 0.57466 0.98586 0.0
C489 C 0.52493 0.49742 0.97638 0.0
C490 C 0.54811 0.57698 0.97806 0.0
C491 C 0.55169 0.60382 0.96716 0.0
C492 C 0.53331 0.62889 0.96389 0.0
C493 C 0.51146 0.62694 0.972 0.0
C494 C 0.50793 0.60015 0.98292 0.0
H495 H 0.51855 0.46948 0.97439 0.0
H496 H 0.5151 0.51575 0.96853 0.0
H497 H 0.54444 0.49854 0.97352 0.0
H498 H 0.56248 0.55789 0.98034 0.0
H499 H 0.56865 0.60442 0.96104 0.0
H500 H 0.02869 0.40003 0.96416 0.0
H501 H 0.03509 0.44638 0.98354 0.0
H502 H 0.958 0.45716 0.98906 0.0
H503 H 0.95141 0.41105 0.96962 0.0
H504 H 0.01887 0.51772 0.98287 0.0
H505 H 0.98215 0.44506 0.03289 0.0
H506 H 0.98988 0.42251 0.01535 0.0
H507 H 0.96196 0.44705 0.01686 0.0
C508 C 0.01308 0.41226 0.96949 0.0
C509 C 0.98953 0.40177 0.96534 0.0
C510 C 0.01678 0.43864 0.9806 0.0
C511 C 0.99704 0.45491 0.98787 0.0
C512 C 0.97351 0.44442 0.98383 0.0
H513 H 0.98104 0.62451 0.05499 0.0
H514 H 0.97481 0.57827 0.03554 0.0
C515 C 0.96978 0.41802 0.97272 0.0
C516 C 1.00107 0.48384 0.99923 0.0
H517 H 0.99116 0.50695 0.03631 0.0
C518 C 0.01293 0.51533 0.99458 0.0
C519 C 0.99324 0.48065 0.01448 0.0
C520 C 0.98129 0.44689 0.02027 0.0
C521 C 0.0168 0.54401 1.00471 0.0
C522 C 0.00894 0.54084 0.01996 0.0
C523 C 0.99711 0.50934 0.02461 0.0
C524 C 0.01289 0.5698 0.03132 0.0
C525 C 0.02877 0.57777 0.99893 0.0
C526 C 0.03639 0.58032 0.03542 0.0
C527 C 0.04002 0.60664 0.04658 0.0
C528 C 0.02022 0.6228 0.05393 0.0
C529 C 0.9967 0.61233 0.04969 0.0
C530 C 0.99309 0.58602 0.03854 0.0
H531 H 0.028 0.57955 0.98631 0.0
H532 H 0.02013 0.60215 1.00381 0.0
H533 H 0.04807 0.57765 1.0024 0.0
H534 H 0.05194 0.56761 0.03022 0.0
H535 H 0.05837 0.6136 0.04974 0.0
H536 H 0.53062 0.12842 0.46551 0.0
H537 H 0.53829 0.08089 0.48417 0.0
H538 H 0.46158 0.06426 0.48897 0.0
H539 H 0.45374 0.11091 0.46995 0.0
H540 H 0.52348 0.07469 0.5144 0.0
H541 H 0.48671 0.96328 0.47917 0.0
H542 H 0.49343 1.00707 0.4714 0.0
H543 H 0.46611 1.00005 0.48201 0.0
C544 C 0.51536 0.11447 0.47044 0.0
C545 C 0.49156 0.12327 0.46612 0.0
C546 C 0.51979 0.08746 0.48117 0.0
C547 C 0.50053 0.06859 0.48775 0.0
C548 C 0.47673 0.07799 0.48381 0.0
H549 H 0.48939 0.89569 0.55344 0.0
H550 H 0.48216 0.94323 0.53474 0.0
C551 C 0.47227 0.10499 0.47307 0.0
C552 C 0.5054 0.03913 0.49874 0.0
H553 H 0.49729 0.94912 0.50465 0.0
C554 C 0.51786 0.0472 0.51225 0.0
C555 C 0.49805 1.00329 0.49589 0.0
C556 C 0.48552 0.99271 0.48127 0.0
C557 C 0.52274 0.02051 0.52316 0.0
C558 C 0.51536 0.98467 0.52032 0.0
C559 C 0.50294 0.9766 0.50679 0.0
C560 C 0.52001 0.95526 0.53138 0.0
C561 C 0.53525 0.0311 0.53778 0.0
C562 C 0.54372 0.94571 0.53546 0.0
C563 C 0.54792 0.91869 0.54624 0.0
C564 C 0.52847 0.90056 0.55308 0.0
C565 C 0.50476 0.90953 0.54861 0.0
C566 C 0.50059 0.93654 0.53784 0.0
H567 H 0.53415 0.06055 0.53985 0.0
H568 H 0.52726 0.01686 0.54766 0.0
H569 H 0.55464 0.02361 0.53709 0.0
H570 H 0.55899 0.95931 0.53038 0.0
H571 H 0.56639 0.91263 0.54947 0.0
H572 H 0.95154 0.0913 0.55507 0.0
H573 H 0.95958 0.04402 0.53634 0.0
H574 H 0.03067 0.08768 0.52868 0.0
H575 H 0.02278 0.13507 0.54737 0.0
H576 H 0.97168 0.04861 0.50561 0.0
H577 H 0.04495 0.9824 0.53867 0.0
H578 H 0.02484 0.01524 0.54696 0.0
H579 H 0.04971 0.02951 0.53533 0.0
C580 C 0.96881 0.09106 0.5493 0.0
C581 C 0.98658 0.11684 0.55279 0.0
C582 C 0.97341 0.06391 0.53865 0.0
C583 C 0.99589 0.06191 0.53134 0.0
C584 C 0.01343 0.08816 0.53448 0.0
H585 H 0.05936 0.9197 0.46403 0.0
H586 H 0.05098 0.9666 0.48286 0.0
C587 C 0.00887 0.11526 0.54515 0.0
C588 C 1.00091 0.0325 0.52035 0.0
H589 H 0.03868 0.96156 0.51343 0.0
C590 C 0.98625 0.02945 0.50735 0.0
C591 C 0.01994 1.00756 0.52264 0.0
C592 C 0.03565 1.00852 0.53672 0.0
C593 C 0.9904 1.00258 0.4964 0.0
C594 C 0.00946 0.97768 0.49868 0.0
C595 C 0.02409 0.98069 0.5117 0.0
C596 C 0.01464 0.94847 0.48762 0.0
C597 C 0.97472 1.00167 0.48232 0.0
C598 C 0.9972 0.9222 0.4843 0.0
C599 C 1.00194 0.89532 0.47357 0.0
C600 C 0.02434 0.89396 0.46604 0.0
C601 C 0.04202 0.91975 0.46972 0.0
C602 C 0.03722 0.94669 0.48042 0.0
H603 H 0.96536 0.02776 0.4804 0.0
H604 H 0.98556 0.99509 0.47207 0.0
H605 H 0.9607 0.98061 0.48367 0.0
H606 H 0.97988 0.9225 0.49001 0.0
H607 H 0.9881 0.87549 0.4712 0.0
H608 H 0.45236 0.32161 0.31498 0.0
H609 H 0.46087 0.30918 0.2883 0.0
H610 H 0.51504 0.23157 0.30144 0.0
H611 H 0.50689 0.24426 0.32836 0.0
H612 H 0.50585 0.3134 0.27172 0.0
H613 H 0.46753 0.17481 0.27359 0.0
H614 H 0.46171 0.20737 0.28839 0.0
H615 H 0.49076 0.18607 0.28715 0.0
C616 C 0.46642 0.30237 0.31227 0.0
C617 C 0.47896 0.28397 0.32385 0.0
C618 C 0.47116 0.29516 0.29699 0.0
C619 C 0.4884 0.26925 0.29291 0.0
C620 C 0.50141 0.25132 0.30437 0.0
H621 H 0.49925 0.19041 0.19851 0.0
H622 H 0.50901 0.19866 0.22555 0.0
C623 C 0.4967 0.25856 0.31973 0.0
C624 C 0.49189 0.26064 0.27661 0.0
H625 H 0.47817 0.19758 0.24967 0.0
C626 C 0.50014 0.28789 0.2669 0.0
C627 C 0.48468 0.2272 0.27039 0.0
C628 C 0.47554 0.19712 0.28034 0.0
C629 C 0.50042 0.28316 0.25105 0.0
C630 C 0.49163 0.25063 0.24476 0.0
C631 C 0.48475 0.22258 0.25452 0.0
C632 C 0.48711 0.24654 0.22819 0.0
C633 C 0.50974 0.31333 0.24122 0.0
C634 C 0.47141 0.27048 0.22075 0.0
C635 C 0.46596 0.26602 0.20536 0.0
C636 C 0.47579 0.23715 0.19705 0.0
C637 C 0.49155 0.21312 0.20452 0.0
C638 C 0.49707 0.2177 0.21998 0.0
H639 H 0.5233 0.32982 0.24743 0.0
H640 H 0.51809 0.30292 0.23061 0.0
H641 H 0.49448 0.3313 0.23807 0.0
H642 H 0.46303 0.29241 0.22692 0.0
H643 H 0.45405 0.28536 0.19995 0.0
H644 H 0.0292 0.7942 0.32671 0.0
H645 H 0.01875 0.80677 0.3002 0.0
H646 H 0.02303 0.69347 0.28985 0.0
H647 H 0.03215 0.68051 0.31645 0.0
H648 H 0.04815 0.79481 0.27712 0.0
H649 H 0.96371 0.71976 0.26619 0.0
H650 H 0.97482 0.72822 0.2852 0.0
H651 H 0.98658 0.69122 0.2742 0.0
C652 C 0.02714 0.77182 0.31892 0.0
C653 C 0.03168 0.73634 0.32373 0.0
C654 C 0.02131 0.77909 0.30372 0.0
C655 C 0.01986 0.75106 0.29302 0.0
C656 C 0.0235 0.71552 0.29791 0.0
H657 H 0.03894 0.72864 0.19713 0.0
H658 H 0.03141 0.72033 0.22432 0.0
C659 C 0.02912 0.7082 0.31311 0.0
C660 C 0.01746 0.75922 0.27653 0.0
H661 H 0.98726 0.73544 0.24403 0.0
C662 C 0.03453 0.78234 0.26995 0.0
C663 C 0.99976 0.74282 0.26713 0.0
C664 C 0.98004 0.71942 0.27358 0.0
C665 C 0.03502 0.78839 0.25421 0.0
C666 C 0.01788 0.77104 0.24478 0.0
C667 C 1.00041 0.74859 0.25132 0.0
C668 C 0.01881 0.77473 0.22803 0.0
C669 C 0.05445 0.81223 0.24766 0.0
C670 C 0.01345 0.80773 0.22107 0.0
C671 C 0.01757 0.81253 0.20551 0.0
C672 C 0.0272 0.7844 0.19665 0.0
C673 C 0.03131 0.75077 0.20356 0.0
C674 C 0.02711 0.74599 0.21911 0.0
H675 H 0.06852 0.81921 0.25622 0.0
H676 H 0.0633 0.79885 0.23784 0.0
H677 H 0.04615 0.83759 0.24349 0.0
H678 H 1.0068 0.83011 0.22777 0.0
H679 H 0.01378 0.83855 0.2005 0.0
H680 H 0.55409 0.79227 0.6962 0.0
H681 H 0.5453 0.80166 0.72313 0.0
H682 H 0.50291 0.7044 0.72374 0.0
H683 H 0.51177 0.69466 0.69673 0.0
H684 H 0.50262 0.80854 0.73978 0.0
H685 H 0.55389 0.68563 0.75648 0.0
H686 H 0.55536 0.70429 0.73756 0.0
H687 H 0.52942 0.67873 0.74332 0.0
C688 C 0.54253 0.77319 0.70198 0.0
C689 C 0.53377 0.74256 0.69436 0.0
C690 C 0.53759 0.77854 0.71739 0.0
C691 C 0.52382 0.7534 0.7255 0.0
C692 C 0.51404 0.7237 0.71777 0.0
H693 H 0.51125 0.74561 0.82519 0.0
H694 H 0.50258 0.73439 0.79822 0.0
C695 C 0.51908 0.71821 0.70235 0.0
C696 C 0.52091 0.75764 0.74218 0.0
H697 H 0.53768 0.72065 0.77619 0.0
C698 C 0.51006 0.78916 0.74776 0.0
C699 C 0.53056 0.73224 0.75256 0.0
C700 C 0.54314 0.69843 0.74724 0.0
C701 C 0.50916 0.7964 0.76343 0.0
C702 C 0.5197 0.77171 0.77375 0.0
C703 C 0.52959 0.73948 0.76823 0.0
C704 C 0.52282 0.78025 0.79012 0.0
C705 C 0.49723 0.83063 0.7688 0.0
C706 C 0.53712 0.80965 0.79448 0.0
C707 C 0.5423 0.81592 0.8098 0.0
C708 C 0.53336 0.79283 0.82115 0.0
C709 C 0.51862 0.76373 0.81676 0.0
C710 C 0.51351 0.7574 0.80137 0.0
H711 H 0.48371 0.84052 0.7604 0.0
H712 H 0.48814 0.82667 0.77992 0.0
H713 H 0.51118 0.8518 0.77021 0.0
H714 H 0.54504 0.82705 0.78596 0.0
H715 H 0.55416 0.83807 0.81269 0.0
H716 H 1.00001 0.32745 0.69799 0.0
H717 H 1.00646 0.31882 0.72537 0.0
H718 H 0.96918 0.21719 0.72307 0.0
H719 H 0.96226 0.22583 0.69584 0.0
H720 H 0.95057 0.2684 0.74456 0.0
H721 H 0.04977 0.24782 0.75068 0.0
H722 H 0.04018 0.28489 0.73893 0.0
H723 H 0.03381 0.23966 0.73302 0.0
C724 C 0.99346 0.30305 0.70329 0.0
C725 C 0.98056 0.27737 0.69475 0.0
C726 C 0.99736 0.29803 0.7189 0.0
C727 C 0.98844 0.26725 0.72619 0.0
C728 C 0.97636 0.24099 0.7176 0.0
H729 H 0.99538 0.18921 0.8186 0.0
H730 H 1.00115 0.19923 0.79131 0.0
C731 C 0.97254 0.24589 0.70202 0.0
C732 C 0.98928 0.26417 0.74298 0.0
H733 H 0.0272 0.25378 0.77345 0.0
C734 C 0.96732 0.26522 0.75089 0.0
C735 C 0.01116 0.25993 0.75114 0.0
C736 C 0.03513 0.25773 0.74307 0.0
C737 C 0.9666 0.26215 0.76677 0.0
C738 C 0.98848 0.25838 0.77499 0.0
C739 C 0.0105 0.25709 0.7671 0.0
C740 C 0.98845 0.25428 0.79175 0.0
C741 C 0.94236 0.26228 0.77462 0.0
C742 C 0.98019 0.28233 0.80108 0.0
C743 C 0.97667 0.27663 0.81664 0.0
C744 C 0.98144 0.24275 0.82315 0.0
C745 C 0.99114 0.21541 0.81389 0.0
C746 C 0.99464 0.22115 0.79833 0.0
H747 H 0.92722 0.25793 0.76649 0.0
H748 H 0.94164 0.24109 0.78352 0.0
H749 H 0.93957 0.2887 0.78024 0.0
H750 H 0.97553 0.3082 0.79621 0.0
H751 H 0.96905 0.2982 0.82339 0.0
loop_
_geom_bond_atom_site_label_1
_geom_bond_atom_site_label_2
_geom_bond_distance
_geom_bond_site_symmetry_2
_ccdc_geom_bond_type
C0 C1 1.264 . S
C0 C5 1.479 . S
C0 C10 1.465 . S
C1 C0 1.264 . S
C1 C3 1.339 . S
C1 H28 0.931 . S
C2 C3 1.395 . S
C2 C4 1.320 . S
C3 C1 1.339 . S
C3 C2 1.395 . S
C3 H29 0.929 . S
C4 C2 1.320 . S
C4 C5 1.405 . S
C4 H30 0.930 . S
C5 C0 1.479 . S
C5 C4 1.405 . S
C5 H31 0.931 . S
U6 O7 2.454 . S
U6 O8 2.458 . S
U6 C9 2.984 . S
U6 C10 2.847 . S
U6 C23 2.882 . S
U6 O24 2.441 . S
U6 O25 2.420 . S
U6 O26 2.455 . S
U6 O27 2.449 . S
O7 U6 2.454 . S
O7 C9 1.353 . S
O8 U6 2.458 . S
O8 C9 1.286 . S
C9 U6 2.984 . S
C9 O7 1.353 . S
C9 O8 1.286 . S
C9 C11 1.363 . S
C10 C0 1.465 . S
C10 U6 2.847 . S
C10 O24 1.249 . S
C10 O25 1.202 . S
C11 C9 1.363 . S
C11 C13 1.408 . S
C11 C16 1.342 . S
C12 C13 1.310 . S
C12 C15 1.461 . S
C12 H32 0.932 . S
C13 C11 1.408 . S
C13 C12 1.310 . S
C13 H33 0.930 . S
C14 C15 1.474 . S
C14 C16 1.285 . S
C14 H34 0.929 . S
C15 C12 1.461 . S
C15 C14 1.474 . S
C16 C11 1.342 . S
C16 C14 1.285 . S
C16 H35 0.930 . S
C17 C20 1.424 . S
C17 C22 1.245 . S
C17 C23 1.428 . S
C18 C21 1.260 . S
C18 C22 1.477 . S
C18 H36 0.932 . S
C19 C20 1.384 . S
C19 C21 1.479 . S
C19 H37 0.929 . S
C20 C17 1.424 . S
C20 C19 1.384 . S
C20 H38 0.928 . S
C21 C18 1.260 . S
C21 C19 1.479 . S
C22 C17 1.245 . S
C22 C18 1.477 . S
C22 H39 0.932 . S
C23 U6 2.882 . S
C23 C17 1.428 . S
C23 O26 1.301 . S
C23 O27 1.282 . S
O24 U6 2.441 . S
O24 C10 1.249 . S
O25 U6 2.420 . S
O25 C10 1.202 . S
O26 U6 2.455 . S
O26 C23 1.301 . S
O27 U6 2.449 . S
O27 C23 1.282 . S
H28 C1 0.931 . S
H29 C3 0.929 . S
H30 C4 0.930 . S
H31 C5 0.931 . S
H32 C12 0.932 . S
H33 C13 0.930 . S
H34 C14 0.929 . S
H35 C16 0.930 . S
H36 C18 0.932 . S
H37 C19 0.929 . S
H38 C20 0.928 . S
H39 C22 0.932 . S
C40 C41 1.264 . S
C40 C45 1.479 . S
C40 C50 1.465 . S
C41 C40 1.264 . S
C41 C43 1.339 . S
C41 H68 0.931 . S
C42 C43 1.395 . S
C42 C44 1.320 . S
C43 C41 1.339 . S
C43 C42 1.395 . S
C43 H69 0.929 . S
C44 C42 1.320 . S
C44 C45 1.405 . S
C44 H70 0.930 . S
C45 C40 1.479 . S
C45 C44 1.405 . S
C45 H71 0.931 . S
U46 O47 2.454 . S
U46 O48 2.458 . S
U46 C49 2.984 . S
U46 C50 2.847 . S
U46 C63 2.882 . S
U46 O64 2.441 . S
U46 O65 2.420 . S
U46 O66 2.455 1_455 S
U46 O67 2.449 . S
O47 U46 2.454 . S
O47 C49 1.353 . S
O48 U46 2.458 . S
O48 C49 1.286 . S
C49 U46 2.984 . S
C49 O47 1.353 . S
C49 O48 1.286 . S
C49 C51 1.374 . S
C50 C40 1.465 . S
C50 U46 2.847 . S
C50 O64 1.249 . S
C50 O65 1.202 . S
C51 C49 1.374 . S
C51 C53 1.421 . S
C51 C56 1.321 1_455 S
C52 C53 1.310 . S
C52 C55 1.461 1_455 S
C52 H72 0.932 . S
C53 C51 1.421 . S
C53 C52 1.310 . S
C53 H73 0.930 . S
C54 C55 1.474 . S
C54 C56 1.285 . S
C54 H74 0.929 . S
C55 C52 1.461 1_655 S
C55 C54 1.474 . S
C56 C51 1.321 1_655 S
C56 C54 1.285 . S
C56 H75 0.930 . S
C57 C60 1.424 1_655 S
C57 C62 1.245 . S
C57 C63 1.428 1_655 S
C58 C61 1.260 . S
C58 C62 1.477 . S
C58 H76 0.932 . S
C59 C60 1.384 . S
C59 C61 1.479 1_455 S
C59 H77 0.929 . S
C60 C57 1.424 1_455 S
C60 C59 1.384 . S
C60 H78 0.928 . S
C61 C58 1.260 . S
C61 C59 1.479 1_655 S
C62 C57 1.245 . S
C62 C58 1.477 . S
C62 H79 0.932 . S
C63 U46 2.882 . S
C63 C57 1.428 1_455 S
C63 O66 1.301 1_455 S
C63 O67 1.282 . S
O64 U46 2.441 . S
O64 C50 1.249 . S
O65 U46 2.420 . S
O65 C50 1.202 . S
O66 U46 2.455 1_655 S
O66 C63 1.301 1_655 S
O67 U46 2.449 . S
O67 C63 1.282 . S
H68 C41 0.931 . S
H69 C43 0.929 . S
H70 C44 0.930 . S
H71 C45 0.931 . S
H72 C52 0.932 . S
H73 C53 0.930 . S
H74 C54 0.929 . S
H75 C56 0.930 . S
H76 C58 0.932 . S
H77 C59 0.929 . S
H78 C60 0.928 . S
H79 C62 0.932 . S
C80 C81 1.264 . S
C80 C85 1.479 . S
C80 C90 1.465 . S
C81 C80 1.264 . S
C81 C83 1.339 . S
C81 H108 0.931 . S
C82 C83 1.395 . S
C82 C84 1.320 . S
C83 C81 1.339 . S
C83 C82 1.395 . S
C83 H109 0.929 . S
C84 C82 1.320 . S
C84 C85 1.405 . S
C84 H110 0.930 . S
C85 C80 1.479 . S
C85 C84 1.405 . S
C85 H111 0.931 . S
U86 O87 2.454 . S
U86 O88 2.458 . S
U86 C89 2.984 . S
U86 C90 2.847 . S
U86 C103 2.882 . S
U86 O104 2.441 . S
U86 O105 2.420 . S
U86 O106 2.455 . S
U86 O107 2.449 . S
O87 U86 2.454 . S
O87 C89 1.353 . S
O88 U86 2.458 . S
O88 C89 1.286 . S
C89 U86 2.984 . S
C89 O87 1.353 . S
C89 O88 1.286 . S
C89 C91 1.363 . S
C90 C80 1.465 . S
C90 U86 2.847 . S
C90 O104 1.249 . S
C90 O105 1.202 . S
C91 C89 1.363 . S
C91 C93 1.408 . S
C91 C96 1.342 . S
C92 C93 1.310 . S
C92 C95 1.461 . S
C92 H112 0.932 . S
C93 C91 1.408 . S
C93 C92 1.310 . S
C93 H113 0.930 . S
C94 C95 1.474 . S
C94 C96 1.285 . S
C94 H114 0.929 . S
C95 C92 1.461 . S
C95 C94 1.474 . S
C96 C91 1.342 . S
C96 C94 1.285 . S
C96 H115 0.930 . S
C97 C100 1.424 . S
C97 C102 1.245 . S
C97 C103 1.428 . S
C98 C101 1.260 . S
C98 C102 1.477 . S
C98 H116 0.932 . S
C99 C100 1.384 . S
C99 C101 1.479 . S
C99 H117 0.929 . S
C100 C97 1.424 . S
C100 C99 1.384 . S
C100 H118 0.928 . S
C101 C98 1.260 . S
C101 C99 1.479 . S
C102 C97 1.245 . S
C102 C98 1.477 . S
C102 H119 0.932 . S
C103 U86 2.882 . S
C103 C97 1.428 . S
C103 O106 1.301 . S
C103 O107 1.282 . S
O104 U86 2.441 . S
O104 C90 1.249 . S
O105 U86 2.420 . S
O105 C90 1.202 . S
O106 U86 2.455 . S
O106 C103 1.301 . S
O107 U86 2.449 . S
O107 C103 1.282 . S
H108 C81 0.931 . S
H109 C83 0.929 . S
H110 C84 0.930 . S
H111 C85 0.931 . S
H112 C92 0.932 . S
H113 C93 0.930 . S
H114 C94 0.929 . S
H115 C96 0.930 . S
H116 C98 0.932 . S
H117 C99 0.929 . S
H118 C100 0.928 . S
H119 C102 0.932 . S
C120 C121 1.264 . S
C120 C125 1.479 . S
C120 C130 1.465 . S
C121 C120 1.264 . S
C121 C123 1.339 . S
C121 H148 0.931 . S
C122 C123 1.395 . S
C122 C124 1.320 . S
C123 C121 1.339 . S
C123 C122 1.395 . S
C123 H149 0.929 . S
C124 C122 1.320 . S
C124 C125 1.405 . S
C124 H150 0.930 . S
C125 C120 1.479 . S
C125 C124 1.405 . S
C125 H151 0.931 . S
U126 O127 2.454 . S
U126 O128 2.458 . S
U126 C129 2.984 . S
U126 C130 2.847 . S
U126 C143 2.882 . S
U126 O144 2.441 . S
U126 O145 2.420 . S
U126 O146 2.455 1_455 S
U126 O147 2.449 . S
O127 U126 2.454 . S
O127 C129 1.353 . S
O128 U126 2.458 . S
O128 C129 1.286 . S
C129 U126 2.984 . S
C129 O127 1.353 . S
C129 O128 1.286 . S
C129 C131 1.374 . S
C130 C120 1.465 . S
C130 U126 2.847 . S
C130 O144 1.249 . S
C130 O145 1.202 . S
C131 C129 1.374 . S
C131 C133 1.421 . S
C131 C136 1.321 1_455 S
C132 C133 1.310 . S
C132 C135 1.461 1_455 S
C132 H152 0.932 . S
C133 C131 1.421 . S
C133 C132 1.310 . S
C133 H153 0.930 . S
C134 C135 1.474 . S
C134 C136 1.285 . S
C134 H154 0.929 . S
C135 C132 1.461 1_655 S
C135 C134 1.474 . S
C136 C131 1.321 1_655 S
C136 C134 1.285 . S
C136 H155 0.930 . S
C137 C140 1.424 1_655 S
C137 C142 1.245 . S
C137 C143 1.428 1_655 S
C138 C141 1.260 . S
C138 C142 1.477 . S
C138 H156 0.932 . S
C139 C140 1.384 . S
C139 C141 1.479 1_455 S
C139 H157 0.929 . S
C140 C137 1.424 1_455 S
C140 C139 1.384 . S
C140 H158 0.928 . S
C141 C138 1.260 . S
C141 C139 1.479 1_655 S
C142 C137 1.245 . S
C142 C138 1.477 . S
C142 H159 0.932 . S
C143 U126 2.882 . S
C143 C137 1.428 1_455 S
C143 O146 1.301 1_455 S
C143 O147 1.282 . S
O144 U126 2.441 . S
O144 C130 1.249 . S
O145 U126 2.420 . S
O145 C130 1.202 . S
O146 U126 2.455 1_655 S
O146 C143 1.301 1_655 S
O147 U126 2.449 . S
O147 C143 1.282 . S
H148 C121 0.931 . S
H149 C123 0.929 . S
H150 C124 0.930 . S
H151 C125 0.931 . S
H152 C132 0.932 . S
H153 C133 0.930 . S
H154 C134 0.929 . S
H155 C136 0.930 . S
H156 C138 0.932 . S
H157 C139 0.929 . S
H158 C140 0.928 . S
H159 C142 0.932 . S
C160 C161 1.264 . S
C160 C165 1.479 . S
C160 C170 1.465 . S
C161 C160 1.264 . S
C161 C163 1.339 . S
C161 H188 0.931 . S
C162 C163 1.395 . S
C162 C164 1.320 . S
C163 C161 1.339 . S
C163 C162 1.395 . S
C163 H189 0.929 . S
C164 C162 1.320 . S
C164 C165 1.405 . S
C164 H190 0.930 . S
C165 C160 1.479 . S
C165 C164 1.405 . S
C165 H191 0.931 . S
U166 O167 2.454 . S
U166 O168 2.458 . S
U166 C169 2.984 . S
U166 C170 2.847 . S
U166 C183 2.882 . S
U166 O184 2.441 . S
U166 O185 2.420 . S
U166 O186 2.455 . S
U166 O187 2.449 . S
O167 U166 2.454 . S
O167 C169 1.353 . S
O168 U166 2.458 . S
O168 C169 1.286 . S
C169 U166 2.984 . S
C169 O167 1.353 . S
C169 O168 1.286 . S
C169 C171 1.363 . S
C170 C160 1.465 . S
C170 U166 2.847 . S
C170 O184 1.249 . S
C170 O185 1.202 . S
C171 C169 1.363 . S
C171 C173 1.408 . S
C171 C176 1.342 . S
C172 C173 1.310 . S
C172 C175 1.461 . S
C172 H192 0.932 . S
C173 C171 1.408 . S
C173 C172 1.310 . S
C173 H193 0.930 . S
C174 C175 1.474 . S
C174 C176 1.285 . S
C174 H194 0.929 . S
C175 C172 1.461 . S
C175 C174 1.474 . S
C176 C171 1.342 . S
C176 C174 1.285 . S
C176 H195 0.930 . S
C177 C180 1.424 . S
C177 C182 1.245 . S
C177 C183 1.428 . S
C178 C181 1.260 . S
C178 C182 1.477 . S
C178 H196 0.932 . S
C179 C180 1.384 . S
C179 C181 1.479 . S
C179 H197 0.929 . S
C180 C177 1.424 . S
C180 C179 1.384 . S
C180 H198 0.928 . S
C181 C178 1.260 . S
C181 C179 1.479 . S
C182 C177 1.245 . S
C182 C178 1.477 . S
C182 H199 0.932 . S
C183 U166 2.882 . S
C183 C177 1.428 . S
C183 O186 1.301 . S
C183 O187 1.282 . S
O184 U166 2.441 . S
O184 C170 1.249 . S
O185 U166 2.420 . S
O185 C170 1.202 . S
O186 U166 2.455 . S
O186 C183 1.301 . S
O187 U166 2.449 . S
O187 C183 1.282 . S
H188 C161 0.931 . S
H189 C163 0.929 . S
H190 C164 0.930 . S
H191 C165 0.931 . S
H192 C172 0.932 . S
H193 C173 0.930 . S
H194 C174 0.929 . S
H195 C176 0.930 . S
H196 C178 0.932 . S
H197 C179 0.929 . S
H198 C180 0.928 . S
H199 C182 0.932 . S
C200 C201 1.264 . S
C200 C205 1.479 . S
C200 C210 1.465 . S
C201 C200 1.264 . S
C201 C203 1.339 . S
C201 H228 0.931 . S
C202 C203 1.395 . S
C202 C204 1.320 . S
C203 C201 1.339 . S
C203 C202 1.395 . S
C203 H229 0.929 . S
C204 C202 1.320 . S
C204 C205 1.405 . S
C204 H230 0.930 . S
C205 C200 1.479 . S
C205 C204 1.405 . S
C205 H231 0.931 . S
U206 O207 2.454 . S
U206 O208 2.458 . S
U206 C209 2.984 . S
U206 C210 2.847 . S
U206 C223 2.882 . S
U206 O224 2.441 . S
U206 O225 2.420 . S
U206 O226 2.455 . S
U206 O227 2.449 . S
O207 U206 2.454 . S
O207 C209 1.353 . S
O208 U206 2.458 . S
O208 C209 1.286 . S
C209 U206 2.984 . S
C209 O207 1.353 . S
C209 O208 1.286 . S
C209 C211 1.363 . S
C210 C200 1.465 . S
C210 U206 2.847 . S
C210 O224 1.249 . S
C210 O225 1.202 . S
C211 C209 1.363 . S
C211 C213 1.408 . S
C211 C216 1.342 1_655 S
C212 C213 1.310 . S
C212 C215 1.461 1_655 S
C212 H232 0.932 . S
C213 C211 1.408 . S
C213 C212 1.310 . S
C213 H233 0.930 . S
C214 C215 1.474 . S
C214 C216 1.285 . S
C214 H234 0.929 . S
C215 C212 1.461 1_455 S
C215 C214 1.474 . S
C216 C211 1.342 1_455 S
C216 C214 1.285 . S
C216 H235 0.930 . S
C217 C220 1.424 . S
C217 C222 1.245 1_655 S
C217 C223 1.428 . S
C218 C221 1.260 . S
C218 C222 1.477 . S
C218 H236 0.932 . S
C219 C220 1.384 . S
C219 C221 1.479 1_655 S
C219 H237 0.929 . S
C220 C217 1.424 . S
C220 C219 1.384 . S
C220 H238 0.928 . S
C221 C218 1.260 . S
C221 C219 1.479 1_455 S
C222 C217 1.245 1_455 S
C222 C218 1.477 . S
C222 H239 0.932 . S
C223 U206 2.882 . S
C223 C217 1.428 . S
C223 O226 1.301 . S
C223 O227 1.282 . S
O224 U206 2.441 . S
O224 C210 1.249 . S
O225 U206 2.420 . S
O225 C210 1.202 . S
O226 U206 2.455 . S
O226 C223 1.301 . S
O227 U206 2.449 . S
O227 C223 1.282 . S
H228 C201 0.931 . S
H229 C203 0.929 . S
H230 C204 0.930 . S
H231 C205 0.931 . S
H232 C212 0.932 . S
H233 C213 0.930 . S
H234 C214 0.929 . S
H235 C216 0.930 . S
H236 C218 0.932 . S
H237 C219 0.929 . S
H238 C220 0.928 . S
H239 C222 0.932 . S
C240 C241 1.264 . S
C240 C245 1.479 . S
C240 C250 1.465 . S
C241 C240 1.264 . S
C241 C243 1.339 . S
C241 H268 0.931 . S
C242 C243 1.395 . S
C242 C244 1.320 . S
C243 C241 1.339 . S
C243 C242 1.395 . S
C243 H269 0.929 . S
C244 C242 1.320 . S
C244 C245 1.405 . S
C244 H270 0.930 . S
C245 C240 1.479 . S
C245 C244 1.405 . S
C245 H271 0.931 . S
U246 O247 2.454 . S
U246 O248 2.458 . S
U246 C249 2.984 . S
U246 C250 2.847 . S
U246 C263 2.882 . S
U246 O264 2.441 . S
U246 O265 2.420 . S
U246 O266 2.455 . S
U246 O267 2.449 . S
O247 U246 2.454 . S
O247 C249 1.353 . S
O248 U246 2.458 . S
O248 C249 1.286 . S
C249 U246 2.984 . S
C249 O247 1.353 . S
C249 O248 1.286 . S
C249 C251 1.363 . S
C250 C240 1.465 . S
C250 U246 2.847 . S
C250 O264 1.249 . S
C250 O265 1.202 . S
C251 C249 1.363 . S
C251 C253 1.408 . S
C251 C256 1.342 . S
C252 C253 1.310 . S
C252 C255 1.461 . S
C252 H272 0.932 . S
C253 C251 1.408 . S
C253 C252 1.310 . S
C253 H273 0.930 . S
C254 C255 1.474 . S
C254 C256 1.285 . S
C254 H274 0.929 . S
C255 C252 1.461 . S
C255 C254 1.474 . S
C256 C251 1.342 . S
C256 C254 1.285 . S
C256 H275 0.930 . S
C257 C260 1.424 . S
C257 C262 1.245 . S
C257 C263 1.428 . S
C258 C261 1.260 . S
C258 C262 1.477 . S
C258 H276 0.932 . S
C259 C260 1.384 . S
C259 C261 1.479 . S
C259 H277 0.929 . S
C260 C257 1.424 . S
C260 C259 1.384 . S
C260 H278 0.928 . S
C261 C258 1.260 . S
C261 C259 1.479 . S
C262 C257 1.245 . S
C262 C258 1.477 . S
C262 H279 0.932 . S
C263 U246 2.882 . S
C263 C257 1.428 . S
C263 O266 1.301 . S
C263 O267 1.282 . S
O264 U246 2.441 . S
O264 C250 1.249 . S
O265 U246 2.420 . S
O265 C250 1.202 . S
O266 U246 2.455 . S
O266 C263 1.301 . S
O267 U246 2.449 . S
O267 C263 1.282 . S
H268 C241 0.931 . S
H269 C243 0.929 . S
H270 C244 0.930 . S
H271 C245 0.931 . S
H272 C252 0.932 . S
H273 C253 0.930 . S
H274 C254 0.929 . S
H275 C256 0.930 . S
H276 C258 0.932 . S
H277 C259 0.929 . S
H278 C260 0.928 . S
H279 C262 0.932 . S
C280 C281 1.264 . S
C280 C285 1.479 . S
C280 C290 1.465 . S
C281 C280 1.264 . S
C281 C283 1.339 . S
C281 H308 0.931 . S
C282 C283 1.395 . S
C282 C284 1.320 . S
C283 C281 1.339 . S
C283 C282 1.395 . S
C283 H309 0.929 . S
C284 C282 1.320 . S
C284 C285 1.405 . S
C284 H310 0.930 . S
C285 C280 1.479 . S
C285 C284 1.405 . S
C285 H311 0.931 . S
U286 O287 2.454 . S
U286 O288 2.458 . S
U286 C289 2.984 . S
U286 C290 2.847 . S
U286 C303 2.882 . S
U286 O304 2.441 . S
U286 O305 2.420 . S
U286 O306 2.455 . S
U286 O307 2.449 . S
O287 U286 2.454 . S
O287 C289 1.353 . S
O288 U286 2.458 . S
O288 C289 1.286 . S
C289 U286 2.984 . S
C289 O287 1.353 . S
C289 O288 1.286 . S
C289 C291 1.363 . S
C290 C280 1.465 . S
C290 U286 2.847 . S
C290 O304 1.249 . S
C290 O305 1.202 . S
C291 C289 1.363 . S
C291 C293 1.408 . S
C291 C296 1.342 1_655 S
C292 C293 1.310 . S
C292 C295 1.461 1_655 S
C292 H312 0.932 . S
C293 C291 1.408 . S
C293 C292 1.310 . S
C293 H313 0.930 . S
C294 C295 1.474 . S
C294 C296 1.285 . S
C294 H314 0.929 . S
C295 C292 1.461 1_455 S
C295 C294 1.474 . S
C296 C291 1.342 1_455 S
C296 C294 1.285 . S
C296 H315 0.930 . S
C297 C300 1.424 . S
C297 C302 1.245 1_655 S
C297 C303 1.428 . S
C298 C301 1.260 . S
C298 C302 1.477 . S
C298 H316 0.932 . S
C299 C300 1.384 . S
C299 C301 1.479 1_655 S
C299 H317 0.929 . S
C300 C297 1.424 . S
C300 C299 1.384 . S
C300 H318 0.928 . S
C301 C298 1.260 . S
C301 C299 1.479 1_455 S
C302 C297 1.245 1_455 S
C302 C298 1.477 . S
C302 H319 0.932 . S
C303 U286 2.882 . S
C303 C297 1.428 . S
C303 O306 1.301 . S
C303 O307 1.282 . S
O304 U286 2.441 . S
O304 C290 1.249 . S
O305 U286 2.420 . S
O305 C290 1.202 . S
O306 U286 2.455 . S
O306 C303 1.301 . S
O307 U286 2.449 . S
O307 C303 1.282 . S
H308 C281 0.931 . S
H309 C283 0.929 . S
H310 C284 0.930 . S
H311 C285 0.931 . S
H312 C292 0.932 . S
H313 C293 0.930 . S
H314 C294 0.929 . S
H315 C296 0.930 . S
H316 C298 0.932 . S
H317 C299 0.929 . S
H318 C300 0.928 . S
H319 C302 0.932 . S
H320 C328 0.929 . S
H321 C330 0.930 . S
H322 C332 0.922 1_565 S
H323 C335 0.929 1_565 S
H324 C338 0.930 . S
H325 C340 0.960 . S
H326 C340 0.960 . S
H327 C340 0.960 . S
C328 H320 0.929 . S
C328 C329 1.377 . S
C328 C330 1.384 . S
C329 C328 1.377 . S
C329 C335 1.390 . S
C330 H321 0.930 . S
C330 C328 1.384 . S
C330 C331 1.372 . S
C331 C330 1.372 . S
C331 C332 1.405 . S
C331 C336 1.490 . S
C332 H322 0.922 1_545 S
C332 C331 1.405 . S
C332 C335 1.388 . S
H333 C349 0.930 . S
H334 C350 0.931 . S
C335 H323 0.929 1_545 S
C335 C329 1.390 . S
C335 C332 1.388 . S
C336 C331 1.490 . S
C336 C338 1.395 . S
C336 C339 1.403 1_545 S
H337 C343 0.930 . S
C338 H324 0.930 . S
C338 C336 1.395 . S
C338 C341 1.403 . S
C339 C336 1.403 1_565 S
C339 C340 1.524 . S
C339 C343 1.400 . S
C340 H325 0.960 . S
C340 H326 0.960 . S
C340 H327 0.960 . S
C340 C339 1.524 . S
C341 C338 1.403 . S
C341 C342 1.392 1_545 S
C341 C345 1.495 . S
C342 C341 1.392 1_565 S
C342 C343 1.385 . S
C342 C344 1.478 . S
C343 H337 0.930 . S
C343 C339 1.400 . S
C343 C342 1.385 . S
C344 C342 1.478 . S
C344 C346 1.381 1_565 S
C344 C350 1.383 . S
C345 C341 1.495 . S
C345 H351 0.959 . S
C345 H352 0.961 . S
C345 H353 0.960 . S
C346 C344 1.381 1_545 S
C346 C347 1.394 1_545 S
C346 H354 0.930 . S
C347 C346 1.394 1_565 S
C347 C348 1.383 . S
C347 H355 0.929 1_565 S
C348 C347 1.383 . S
C348 C349 1.377 . S
C349 H333 0.930 . S
C349 C348 1.377 . S
C349 C350 1.379 . S
C350 H334 0.931 . S
C350 C344 1.383 . S
C350 C349 1.379 . S
H351 C345 0.959 . S
H352 C345 0.961 . S
H353 C345 0.960 . S
H354 C346 0.930 . S
H355 C347 0.929 1_545 S
H356 C364 0.929 . S
H357 C366 0.930 . S
H358 C368 0.930 . S
H359 C371 0.929 . S
H360 C374 0.930 . S
H361 C376 0.960 . S
H362 C376 0.960 . S
H363 C376 0.960 . S
C364 H356 0.929 . S
C364 C365 1.377 . S
C364 C366 1.384 . S
C365 C364 1.377 . S
C365 C371 1.390 . S
C366 H357 0.930 . S
C366 C364 1.384 . S
C366 C367 1.372 . S
C367 C366 1.372 . S
C367 C368 1.400 . S
C367 C372 1.490 . S
C368 H358 0.930 . S
C368 C367 1.400 . S
C368 C371 1.386 . S
H369 C385 0.930 . S
H370 C386 0.931 . S
C371 H359 0.929 . S
C371 C365 1.390 . S
C371 C368 1.386 . S
C372 C367 1.490 . S
C372 C374 1.395 . S
C372 C375 1.403 . S
H373 C379 0.930 . S
C374 H360 0.930 . S
C374 C372 1.395 . S
C374 C377 1.403 . S
C375 C372 1.403 . S
C375 C376 1.524 . S
C375 C379 1.400 . S
C376 H361 0.960 . S
C376 H362 0.960 . S
C376 H363 0.960 . S
C376 C375 1.524 . S
C377 C374 1.403 . S
C377 C378 1.392 . S
C377 C381 1.495 . S
C378 C377 1.392 . S
C378 C379 1.385 . S
C378 C380 1.478 . S
C379 H373 0.930 . S
C379 C375 1.400 . S
C379 C378 1.385 . S
C380 C378 1.478 . S
C380 C382 1.381 . S
C380 C386 1.383 . S
C381 C377 1.495 . S
C381 H387 0.959 . S
C381 H388 0.961 . S
C381 H389 0.960 . S
C382 C380 1.381 . S
C382 C383 1.394 . S
C382 H390 0.930 . S
C383 C382 1.394 . S
C383 C384 1.383 . S
C383 H391 0.929 . S
C384 C383 1.383 . S
C384 C385 1.377 . S
C385 H369 0.930 . S
C385 C384 1.377 . S
C385 C386 1.379 . S
C386 H370 0.931 . S
C386 C380 1.383 . S
C386 C385 1.379 . S
H387 C381 0.959 . S
H388 C381 0.961 . S
H389 C381 0.960 . S
H390 C382 0.930 . S
H391 C383 0.929 . S
H392 C400 0.929 . S
H393 C402 0.930 . S
H394 C404 0.930 1_565 S
H395 C407 0.929 . S
H396 C410 0.930 . S
H397 C412 0.960 . S
H398 C412 0.960 . S
H399 C412 0.960 . S
C400 H392 0.929 . S
C400 C401 1.377 . S
C400 C402 1.384 . S
C401 C400 1.377 . S
C401 C407 1.390 . S
C402 H393 0.930 . S
C402 C400 1.384 . S
C402 C403 1.372 . S
C403 C402 1.372 . S
C403 C404 1.400 . S
C403 C408 1.490 . S
C404 H394 0.930 1_545 S
C404 C403 1.400 . S
C404 C407 1.386 . S
H405 C421 0.930 . S
H406 C422 0.931 . S
C407 H395 0.929 . S
C407 C401 1.390 . S
C407 C404 1.386 . S
C408 C403 1.490 . S
C408 C410 1.395 . S
C408 C411 1.403 1_545 S
H409 C415 0.930 . S
C410 H396 0.930 . S
C410 C408 1.395 . S
C410 C413 1.403 . S
C411 C408 1.403 1_565 S
C411 C412 1.524 . S
C411 C415 1.400 . S
C412 H397 0.960 . S
C412 H398 0.960 . S
C412 H399 0.960 . S
C412 C411 1.524 . S
C413 C410 1.403 . S
C413 C414 1.392 1_545 S
C413 C417 1.495 . S
C414 C413 1.392 1_565 S
C414 C415 1.385 . S
C414 C416 1.478 . S
C415 H409 0.930 . S
C415 C411 1.400 . S
C415 C414 1.385 . S
C416 C414 1.478 . S
C416 C418 1.381 . S
C416 C422 1.383 . S
C417 C413 1.495 . S
C417 H423 0.959 . S
C417 H424 0.961 . S
C417 H425 0.960 . S
C418 C416 1.381 . S
C418 C419 1.394 . S
C418 H426 0.930 1_565 S
C419 C418 1.394 . S
C419 C420 1.383 . S
C419 H427 0.929 . S
C420 C419 1.383 . S
C420 C421 1.377 . S
C421 H405 0.930 . S
C421 C420 1.377 . S
C421 C422 1.379 . S
C422 H406 0.931 . S
C422 C416 1.383 . S
C422 C421 1.379 . S
H423 C417 0.959 . S
H424 C417 0.961 . S
H425 C417 0.960 . S
H426 C418 0.930 1_545 S
H427 C419 0.929 . S
H428 C436 0.929 . S
H429 C438 0.930 . S
H430 C440 0.930 . S
H431 C443 0.929 . S
H432 C446 0.930 . S
H433 C448 0.960 . S
H434 C448 0.960 . S
H435 C448 0.960 . S
C436 H428 0.929 . S
C436 C437 1.377 . S
C436 C438 1.384 . S
C437 C436 1.377 . S
C437 C443 1.390 . S
C438 H429 0.930 . S
C438 C436 1.384 . S
C438 C439 1.372 . S
C439 C438 1.372 . S
C439 C440 1.400 . S
C439 C444 1.490 . S
C440 H430 0.930 . S
C440 C439 1.400 . S
C440 C443 1.386 . S
H441 C457 0.930 . S
H442 C458 0.931 . S
C443 H431 0.929 . S
C443 C437 1.390 . S
C443 C440 1.386 . S
C444 C439 1.490 . S
C444 C446 1.395 . S
C444 C447 1.403 . S
H445 C451 0.930 . S
C446 H432 0.930 . S
C446 C444 1.395 . S
C446 C449 1.403 . S
C447 C444 1.403 . S
C447 C448 1.524 . S
C447 C451 1.400 . S
C448 H433 0.960 . S
C448 H434 0.960 . S
C448 H435 0.960 . S
C448 C447 1.524 . S
C449 C446 1.403 . S
C449 C450 1.392 . S
C449 C453 1.495 . S
C450 C449 1.392 . S
C450 C451 1.385 . S
C450 C452 1.478 . S
C451 H445 0.930 . S
C451 C447 1.400 . S
C451 C450 1.385 . S
C452 C450 1.478 . S
C452 C454 1.381 . S
C452 C458 1.383 . S
C453 C449 1.495 . S
C453 H459 0.959 . S
C453 H460 0.961 . S
C453 H461 0.960 . S
C454 C452 1.381 . S
C454 C455 1.394 . S
C454 H462 0.930 . S
C455 C454 1.394 . S
C455 C456 1.383 . S
C455 H463 0.929 . S
C456 C455 1.383 . S
C456 C457 1.377 . S
C457 H441 0.930 . S
C457 C456 1.377 . S
C457 C458 1.379 . S
C458 H442 0.931 . S
C458 C452 1.383 . S
C458 C457 1.379 . S
H459 C453 0.959 . S
H460 C453 0.961 . S
H461 C453 0.960 . S
H462 C454 0.930 . S
H463 C455 0.929 . S
H464 C472 0.929 . S
H465 C474 0.930 1_556 S
H466 C476 0.930 . S
H467 C479 0.929 . S
H468 C482 0.930 . S
H469 C484 0.960 . S
H470 C484 0.960 . S
H471 C484 0.960 . S
C472 H464 0.929 . S
C472 C473 1.377 . S
C472 C474 1.384 . S
C473 C472 1.377 . S
C473 C479 1.390 . S
C474 H465 0.930 1_554 S
C474 C472 1.384 . S
C474 C475 1.372 . S
C475 C474 1.372 . S
C475 C476 1.400 . S
C475 C480 1.490 . S
C476 H466 0.930 . S
C476 C475 1.400 . S
C476 C479 1.386 . S
H477 C493 0.930 . S
H478 C494 0.931 . S
C479 H467 0.929 . S
C479 C473 1.390 . S
C479 C476 1.386 . S
C480 C475 1.490 . S
C480 C482 1.395 1_554 S
C480 C483 1.403 . S
H481 C487 0.930 . S
C482 H468 0.930 . S
C482 C480 1.395 1_556 S
C482 C485 1.403 . S
C483 C480 1.403 . S
C483 C484 1.524 . S
C483 C487 1.400 . S
C484 H469 0.960 . S
C484 H470 0.960 . S
C484 H471 0.960 . S
C484 C483 1.524 . S
C485 C482 1.403 . S
C485 C486 1.392 . S
C485 C489 1.495 . S
C486 C485 1.392 . S
C486 C487 1.385 1_556 S
C486 C488 1.478 . S
C487 H481 0.930 . S
C487 C483 1.400 . S
C487 C486 1.385 1_554 S
C488 C486 1.478 . S
C488 C490 1.381 . S
C488 C494 1.383 . S
C489 C485 1.495 . S
C489 H495 0.959 . S
C489 H496 0.961 . S
C489 H497 0.960 . S
C490 C488 1.381 . S
C490 C491 1.394 . S
C490 H498 0.930 . S
C491 C490 1.394 . S
C491 C492 1.383 . S
C491 H499 0.929 . S
C492 C491 1.383 . S
C492 C493 1.377 . S
C493 H477 0.930 . S
C493 C492 1.377 . S
C493 C494 1.379 . S
C494 H478 0.931 . S
C494 C488 1.383 . S
C494 C493 1.379 . S
H495 C489 0.959 . S
H496 C489 0.961 . S
H497 C489 0.960 . S
H498 C490 0.930 . S
H499 C491 0.929 . S
H500 C508 0.929 . S
H501 C510 0.930 . S
H502 C512 0.930 . S
H503 C515 0.929 . S
H504 C518 0.930 . S
H505 C520 0.963 . S
H506 C520 0.949 1_455 S
H507 C520 0.969 . S
C508 H500 0.929 . S
C508 C509 1.377 . S
C508 C510 1.384 . S
C509 C508 1.377 . S
C509 C515 1.390 1_455 S
C510 H501 0.930 . S
C510 C508 1.384 . S
C510 C511 1.372 . S
C511 C510 1.372 . S
C511 C512 1.400 1_455 S
C511 C516 1.490 . S
C512 H502 0.930 . S
C512 C511 1.400 1_655 S
C512 C515 1.386 . S
H513 C529 0.930 . S
H514 C530 0.931 . S
C515 H503 0.929 . S
C515 C509 1.390 1_655 S
C515 C512 1.386 . S
C516 C511 1.490 . S
C516 C518 1.395 . S
C516 C519 1.404 1_556 S
H517 C523 0.930 . S
C518 H504 0.930 . S
C518 C516 1.395 . S
C518 C521 1.403 . S
C519 C516 1.404 1_554 S
C519 C520 1.523 1_455 S
C519 C523 1.399 1_455 S
C520 H505 0.963 . S
C520 H506 0.949 1_655 S
C520 H507 0.969 . S
C520 C519 1.523 1_655 S
C521 C518 1.403 . S
C521 C522 1.392 1_456 S
C521 C525 1.495 . S
C522 C521 1.392 1_654 S
C522 C523 1.385 . S
C522 C524 1.478 . S
C523 H517 0.930 . S
C523 C519 1.399 1_655 S
C523 C522 1.385 . S
C524 C522 1.478 . S
C524 C526 1.381 1_655 S
C524 C530 1.383 . S
C525 C521 1.495 . S
C525 H531 0.959 . S
C525 H532 0.961 1_455 S
C525 H533 0.960 . S
C526 C524 1.381 1_455 S
C526 C527 1.394 . S
C526 H534 0.930 . S
C527 C526 1.394 . S
C527 C528 1.383 1_455 S
C527 H535 0.929 . S
C528 C527 1.383 1_655 S
C528 C529 1.377 . S
C529 H513 0.930 . S
C529 C528 1.377 . S
C529 C530 1.379 . S
C530 H514 0.931 . S
C530 C524 1.383 . S
C530 C529 1.379 . S
H531 C525 0.959 . S
H532 C525 0.961 1_655 S
H533 C525 0.960 . S
H534 C526 0.930 . S
H535 C527 0.929 . S
H536 C544 0.929 . S
H537 C546 0.930 . S
H538 C548 0.930 . S
H539 C551 0.929 . S
H540 C554 0.930 . S
H541 C556 0.960 1_565 S
H542 C556 0.960 . S
H543 C556 0.960 . S
C544 H536 0.929 . S
C544 C545 1.377 . S
C544 C546 1.384 . S
C545 C544 1.377 . S
C545 C551 1.390 . S
C546 H537 0.930 . S
C546 C544 1.384 . S
C546 C547 1.372 . S
C547 C546 1.372 . S
C547 C548 1.400 . S
C547 C552 1.490 . S
C548 H538 0.930 . S
C548 C547 1.400 . S
C548 C551 1.386 . S
H549 C565 0.930 . S
H550 C566 0.931 . S
C551 H539 0.929 . S
C551 C545 1.390 . S
C551 C548 1.386 . S
C552 C547 1.490 . S
C552 C554 1.395 . S
C552 C555 1.403 . S
H553 C559 0.930 . S
C554 H540 0.930 . S
C554 C552 1.395 . S
C554 C557 1.403 1_545 S
C555 C552 1.403 . S
C555 C556 1.524 . S
C555 C559 1.400 1_545 S
C556 H541 0.960 1_545 S
C556 H542 0.960 . S
C556 H543 0.960 . S
C556 C555 1.524 . S
C557 C554 1.403 1_565 S
C557 C558 1.392 . S
C557 C561 1.495 . S
C558 C557 1.392 . S
C558 C559 1.385 . S
C558 C560 1.478 . S
C559 H553 0.930 . S
C559 C555 1.400 1_565 S
C559 C558 1.385 . S
C560 C558 1.478 . S
C560 C562 1.381 . S
C560 C566 1.383 . S
C561 C557 1.495 . S
C561 H567 0.959 1_565 S
C561 H568 0.961 . S
C561 H569 0.960 . S
C562 C560 1.381 . S
C562 C563 1.394 . S
C562 H570 0.930 . S
C563 C562 1.394 . S
C563 C564 1.383 . S
C563 H571 0.929 . S
C564 C563 1.383 . S
C564 C565 1.377 . S
C565 H549 0.930 . S
C565 C564 1.377 . S
C565 C566 1.379 . S
C566 H550 0.931 . S
C566 C560 1.383 . S
C566 C565 1.379 . S
H567 C561 0.959 1_545 S
H568 C561 0.961 . S
H569 C561 0.960 . S
H570 C562 0.930 . S
H571 C563 0.929 . S
H572 C580 0.929 . S
H573 C582 0.930 . S
H574 C584 0.930 . S
H575 C587 0.929 . S
H576 C590 0.930 . S
H577 C592 0.960 1_565 S
H578 C592 0.960 . S
H579 C592 0.960 . S
C580 H572 0.929 . S
C580 C581 1.377 1_655 S
C580 C582 1.384 . S
C581 C580 1.377 1_455 S
C581 C587 1.390 . S
C582 H573 0.930 . S
C582 C580 1.384 . S
C582 C583 1.372 1_655 S
C583 C582 1.372 1_455 S
C583 C584 1.400 . S
C583 C588 1.490 . S
C584 H574 0.930 . S
C584 C583 1.400 . S
C584 C587 1.386 . S
H585 C601 0.930 . S
H586 C602 0.931 . S
C587 H575 0.929 . S
C587 C581 1.390 . S
C587 C584 1.386 . S
C588 C583 1.490 . S
C588 C590 1.395 1_455 S
C588 C591 1.403 . S
H589 C595 0.930 . S
C590 H576 0.930 . S
C590 C588 1.395 1_655 S
C590 C593 1.403 1_545 S
C591 C588 1.403 . S
C591 C592 1.524 . S
C591 C595 1.400 1_545 S
C592 H577 0.960 1_545 S
C592 H578 0.960 . S
C592 H579 0.960 . S
C592 C591 1.524 . S
C593 C590 1.403 1_565 S
C593 C594 1.392 . S
C593 C597 1.495 . S
C594 C593 1.392 . S
C594 C595 1.385 1_655 S
C594 C596 1.478 . S
C595 H589 0.930 . S
C595 C591 1.400 1_565 S
C595 C594 1.385 1_455 S
C596 C594 1.478 . S
C596 C598 1.381 . S
C596 C602 1.383 1_655 S
C597 C593 1.495 . S
C597 H603 0.959 1_565 S
C597 H604 0.961 . S
C597 H605 0.960 . S
C598 C596 1.381 . S
C598 C599 1.394 . S
C598 H606 0.930 . S
C599 C598 1.394 . S
C599 C600 1.383 . S
C599 H607 0.929 . S
C600 C599 1.383 . S
C600 C601 1.377 1_655 S
C601 H585 0.930 . S
C601 C600 1.377 1_455 S
C601 C602 1.379 . S
C602 H586 0.931 . S
C602 C596 1.383 1_455 S
C602 C601 1.379 . S
H603 C597 0.959 1_545 S
H604 C597 0.961 . S
H605 C597 0.960 . S
H606 C598 0.930 . S
H607 C599 0.929 . S
H608 C616 0.929 . S
H609 C618 0.930 . S
H610 C620 0.930 . S
H611 C623 0.929 . S
H612 C626 0.930 . S
H613 C628 0.960 . S
H614 C628 0.960 . S
H615 C628 0.960 . S
C616 H608 0.929 . S
C616 C617 1.377 . S
C616 C618 1.384 . S
C617 C616 1.377 . S
C617 C623 1.390 . S
C618 H609 0.930 . S
C618 C616 1.384 . S
C618 C619 1.372 . S
C619 C618 1.372 . S
C619 C620 1.400 . S
C619 C624 1.490 . S
C620 H610 0.930 . S
C620 C619 1.400 . S
C620 C623 1.386 . S
H621 C637 0.930 . S
H622 C638 0.931 . S
C623 H611 0.929 . S
C623 C617 1.390 . S
C623 C620 1.386 . S
C624 C619 1.490 . S
C624 C626 1.395 . S
C624 C627 1.403 . S
H625 C631 0.930 . S
C626 H612 0.930 . S
C626 C624 1.395 . S
C626 C629 1.403 . S
C627 C624 1.403 . S
C627 C628 1.524 . S
C627 C631 1.400 . S
C628 H613 0.960 . S
C628 H614 0.960 . S
C628 H615 0.960 . S
C628 C627 1.524 . S
C629 C626 1.403 . S
C629 C630 1.392 . S
C629 C633 1.495 . S
C630 C629 1.392 . S
C630 C631 1.385 . S
C630 C632 1.478 . S
C631 H625 0.930 . S
C631 C627 1.400 . S
C631 C630 1.385 . S
C632 C630 1.478 . S
C632 C634 1.381 . S
C632 C638 1.383 . S
C633 C629 1.495 . S
C633 H639 0.959 . S
C633 H640 0.961 . S
C633 H641 0.960 . S
C634 C632 1.381 . S
C634 C635 1.394 . S
C634 H642 0.930 . S
C635 C634 1.394 . S
C635 C636 1.383 . S
C635 H643 0.929 . S
C636 C635 1.383 . S
C636 C637 1.377 . S
C637 H621 0.930 . S
C637 C636 1.377 . S
C637 C638 1.379 . S
C638 H622 0.931 . S
C638 C632 1.383 . S
C638 C637 1.379 . S
H639 C633 0.959 . S
H640 C633 0.961 . S
H641 C633 0.960 . S
H642 C634 0.930 . S
H643 C635 0.929 . S
H644 C652 0.929 . S
H645 C654 0.930 . S
H646 C656 0.930 . S
H647 C659 0.929 . S
H648 C662 0.930 . S
H649 C664 0.960 . S
H650 C664 0.960 . S
H651 C664 0.960 . S
C652 H644 0.929 . S
C652 C653 1.377 . S
C652 C654 1.384 . S
C653 C652 1.377 . S
C653 C659 1.390 . S
C654 H645 0.930 . S
C654 C652 1.384 . S
C654 C655 1.372 . S
C655 C654 1.372 . S
C655 C656 1.400 . S
C655 C660 1.490 . S
C656 H646 0.930 . S
C656 C655 1.400 . S
C656 C659 1.386 . S
H657 C673 0.925 1_455 S
H658 C674 0.931 1_455 S
C659 H647 0.929 . S
C659 C653 1.390 . S
C659 C656 1.386 . S
C660 C655 1.490 . S
C660 C662 1.395 1_655 S
C660 C663 1.403 . S
H661 C667 0.930 . S
C662 H648 0.930 . S
C662 C660 1.395 1_455 S
C662 C665 1.403 . S
C663 C660 1.403 . S
C663 C664 1.524 . S
C663 C667 1.400 . S
C664 H649 0.960 . S
C664 H650 0.960 . S
C664 H651 0.960 . S
C664 C663 1.524 . S
C665 C662 1.403 . S
C665 C666 1.392 1_455 S
C665 C669 1.495 . S
C666 C665 1.392 1_655 S
C666 C667 1.385 . S
C666 C668 1.478 . S
C667 H661 0.930 . S
C667 C663 1.400 . S
C667 C666 1.385 . S
C668 C666 1.478 . S
C668 C670 1.381 . S
C668 C674 1.383 . S
C669 C665 1.495 . S
C669 H675 0.959 . S
C669 H676 0.961 . S
C669 H677 0.960 . S
C670 C668 1.381 . S
C670 C671 1.394 . S
C670 H678 0.930 . S
C671 C670 1.394 . S
C671 C672 1.383 . S
C671 H679 0.929 . S
C672 C671 1.383 . S
C672 C673 1.377 . S
C673 H657 0.925 1_655 S
C673 C672 1.377 . S
C673 C674 1.379 . S
C674 H658 0.931 1_655 S
C674 C668 1.383 . S
C674 C673 1.379 . S
H675 C669 0.959 . S
H676 C669 0.961 . S
H677 C669 0.960 . S
H678 C670 0.930 . S
H679 C671 0.929 . S
H680 C688 0.929 . S
H681 C690 0.930 . S
H682 C692 0.930 . S
H683 C695 0.929 . S
H684 C698 0.930 . S
H685 C700 0.960 . S
H686 C700 0.960 . S
H687 C700 0.960 . S
C688 H680 0.929 . S
C688 C689 1.377 . S
C688 C690 1.384 . S
C689 C688 1.377 . S
C689 C695 1.390 . S
C690 H681 0.930 . S
C690 C688 1.384 . S
C690 C691 1.372 . S
C691 C690 1.372 . S
C691 C692 1.400 . S
C691 C696 1.490 . S
C692 H682 0.930 . S
C692 C691 1.400 . S
C692 C695 1.386 . S
H693 C709 0.930 . S
H694 C710 0.931 . S
C695 H683 0.929 . S
C695 C689 1.390 . S
C695 C692 1.386 . S
C696 C691 1.490 . S
C696 C698 1.395 . S
C696 C699 1.403 . S
H697 C703 0.930 . S
C698 H684 0.930 . S
C698 C696 1.395 . S
C698 C701 1.403 . S
C699 C696 1.403 . S
C699 C700 1.524 . S
C699 C703 1.400 . S
C700 H685 0.960 . S
C700 H686 0.960 . S
C700 H687 0.960 . S
C700 C699 1.524 . S
C701 C698 1.403 . S
C701 C702 1.392 . S
C701 C705 1.495 . S
C702 C701 1.392 . S
C702 C703 1.385 . S
C702 C704 1.478 . S
C703 H697 0.930 . S
C703 C699 1.400 . S
C703 C702 1.385 . S
C704 C702 1.478 . S
C704 C706 1.381 . S
C704 C710 1.383 . S
C705 C701 1.495 . S
C705 H711 0.959 . S
C705 H712 0.961 . S
C705 H713 0.960 . S
C706 C704 1.381 . S
C706 C707 1.394 . S
C706 H714 0.930 . S
C707 C706 1.394 . S
C707 C708 1.383 . S
C707 H715 0.929 . S
C708 C707 1.383 . S
C708 C709 1.377 . S
C709 H693 0.930 . S
C709 C708 1.377 . S
C709 C710 1.379 . S
C710 H694 0.931 . S
C710 C704 1.383 . S
C710 C709 1.379 . S
H711 C705 0.959 . S
H712 C705 0.961 . S
H713 C705 0.960 . S
H714 C706 0.930 . S
H715 C707 0.929 . S
H716 C724 0.929 . S
H717 C726 0.937 . S
H718 C728 0.930 . S
H719 C731 0.929 . S
H720 C734 0.930 . S
H721 C736 0.960 . S
H722 C736 0.960 . S
H723 C736 0.960 . S
C724 H716 0.929 . S
C724 C725 1.377 . S
C724 C726 1.384 . S
C725 C724 1.377 . S
C725 C731 1.390 . S
C726 H717 0.937 . S
C726 C724 1.384 . S
C726 C727 1.372 . S
C727 C726 1.372 . S
C727 C728 1.400 . S
C727 C732 1.490 . S
C728 H718 0.930 . S
C728 C727 1.400 . S
C728 C731 1.386 . S
H729 C745 0.930 . S
H730 C746 0.931 . S
C731 H719 0.929 . S
C731 C725 1.390 . S
C731 C728 1.386 . S
C732 C727 1.490 . S
C732 C734 1.395 1_455 S
C732 C735 1.403 . S
H733 C739 0.930 . S
C734 H720 0.930 . S
C734 C732 1.395 1_655 S
C734 C737 1.403 . S
C735 C732 1.403 . S
C735 C736 1.524 . S
C735 C739 1.400 . S
C736 H721 0.960 . S
C736 H722 0.960 . S
C736 H723 0.960 . S
C736 C735 1.524 . S
C737 C734 1.403 . S
C737 C738 1.392 1_655 S
C737 C741 1.495 . S
C738 C737 1.392 1_455 S
C738 C739 1.385 . S
C738 C740 1.478 . S
C739 H733 0.930 . S
C739 C735 1.400 . S
C739 C738 1.385 . S
C740 C738 1.478 . S
C740 C742 1.381 . S
C740 C746 1.383 . S
C741 C737 1.495 . S
C741 H747 0.959 . S
C741 H748 0.961 . S
C741 H749 0.960 . S
C742 C740 1.381 . S
C742 C743 1.394 . S
C742 H750 0.926 1_455 S
C743 C742 1.394 . S
C743 C744 1.383 . S
C743 H751 0.929 . S
C744 C743 1.383 . S
C744 C745 1.377 . S
C745 H729 0.930 . S
C745 C744 1.377 . S
C745 C746 1.379 . S
C746 H730 0.931 . S
C746 C740 1.383 . S
C746 C745 1.379 . S
H747 C741 0.959 . S
H748 C741 0.961 . S
H749 C741 0.960 . S
H750 C742 0.926 1_655 S
H751 C743 0.929 . S
C329 C2 2.268 . S
C348 C42 2.276 . S
C365 C82 2.266 . S
C384 C122 2.266 . S
C401 C202 2.135 . S
C420 C162 2.153 . S
C437 C242 2.126 . S
C456 C282 2.108 . S
C473 C15 2.484 . S
C492 C175 2.456 . S
C509 C215 2.472 . S
C528 C55 2.488 . S
C545 C95 2.481 . S
C564 C255 2.445 . S
C581 C295 2.464 . S
C600 C135 2.480 . S
C617 C101 2.098 . S
C636 C21 2.093 . S
C653 C141 2.100 . S
C672 C61 2.091 . S
C689 C261 2.004 . S
C708 C181 2.021 . S
C725 C301 2.012 . S
C744 C221 1.984 . S
