# Generated by pormake.
# Topology wkw, (8)-cn, num edge types: 1
# Building blocks:
#     Node 0, Type 0, BuildingBlock: TAGTUT_clean_sbu_1, # of connection points: 8
#     Node 1, Type 0, BuildingBlock: TAGTUT_clean_sbu_1, # of connection points: 8
#     Node 2, Type 0, BuildingBlock: TAGTUT_clean_sbu_1, # of connection points: 8
#     Node 3, Type 0, BuildingBlock: TAGTUT_clean_sbu_1, # of connection points: 8
#     Node 4, Type 0, BuildingBlock: TAGTUT_clean_sbu_1, # of connection points: 8
#     Node 5, Type 0, BuildingBlock: TAGTUT_clean_sbu_1, # of connection points: 8
#     Edge 6, Type (0, 0), BuildingBlock: XUDNAN_clean_linker_2, # of connection points: 2
#     Edge 7, Type (0, 0), BuildingBlock: XUDNAN_clean_linker_2, # of connection points: 2
#     Edge 8, Type (0, 0), BuildingBlock: XUDNAN_clean_linker_2, # of connection points: 2
#     Edge 9, Type (0, 0), BuildingBlock: XUDNAN_clean_linker_2, # of connection points: 2
#     Edge 10, Type (0, 0), BuildingBlock: XUDNAN_clean_linker_2, # of connection points: 2
#     Edge 11, Type (0, 0), BuildingBlock: XUDNAN_clean_linker_2, # of connection points: 2
#     Edge 12, Type (0, 0), BuildingBlock: XUDNAN_clean_linker_2, # of connection points: 2
#     Edge 13, Type (0, 0), BuildingBlock: XUDNAN_clean_linker_2, # of connection points: 2
#     Edge 14, Type (0, 0), BuildingBlock: XUDNAN_clean_linker_2, # of connection points: 2
#     Edge 15, Type (0, 0), BuildingBlock: XUDNAN_clean_linker_2, # of connection points: 2
#     Edge 16, Type (0, 0), BuildingBlock: XUDNAN_clean_linker_2, # of connection points: 2
#     Edge 17, Type (0, 0), BuildingBlock: XUDNAN_clean_linker_2, # of connection points: 2
#     Edge 18, Type (0, 0), BuildingBlock: XUDNAN_clean_linker_2, # of connection points: 2
#     Edge 19, Type (0, 0), BuildingBlock: XUDNAN_clean_linker_2, # of connection points: 2
#     Edge 20, Type (0, 0), BuildingBlock: XUDNAN_clean_linker_2, # of connection points: 2
#     Edge 21, Type (0, 0), BuildingBlock: XUDNAN_clean_linker_2, # of connection points: 2
#     Edge 22, Type (0, 0), BuildingBlock: XUDNAN_clean_linker_2, # of connection points: 2
#     Edge 23, Type (0, 0), BuildingBlock: XUDNAN_clean_linker_2, # of connection points: 2
#     Edge 24, Type (0, 0), BuildingBlock: XUDNAN_clean_linker_2, # of connection points: 2
#     Edge 25, Type (0, 0), BuildingBlock: XUDNAN_clean_linker_2, # of connection points: 2
#     Edge 26, Type (0, 0), BuildingBlock: XUDNAN_clean_linker_2, # of connection points: 2
#     Edge 27, Type (0, 0), BuildingBlock: XUDNAN_clean_linker_2, # of connection points: 2
#     Edge 28, Type (0, 0), BuildingBlock: XUDNAN_clean_linker_2, # of connection points: 2
#     Edge 29, Type (0, 0), BuildingBlock: XUDNAN_clean_linker_2, # of connection points: 2
# Relax obj value: 0.240
# Max RMSD: 0.273
# Mean RMSD: 0.273
data_MOF--net-wkw--node1-TAGTUT_clean_sbu_1--edge1-XUDNAN_clean_linker_2
_symmetry_space_group_name_H-M    P1
_symmetry_Int_Tables_number       1
_symmetry_cell_setting            triclinic
loop_
_symmetry_equiv_pos_as_xyz
'x, y, z'
_cell_length_a     39.566582
_cell_length_b     39.34096
_cell_length_c     18.844741
_cell_angle_alpha  90.123173
_cell_angle_beta   89.966934
_cell_angle_gamma 119.54403
loop_
_atom_site_label
_atom_site_type_symbol
_atom_site_fract_x
_atom_site_fract_y
_atom_site_fract_z
_atom_type_partial_charge
C0 C 0.76227 0.2193 0.83698 0.0
C1 C 0.86764 0.30665 0.74239 0.0
C2 C 0.93739 0.2633 0.96331 0.0
Mg3 Mg 0.82114 0.3031 0.87657 0.0
O4 O 0.84218 0.27648 0.92433 0.0
Mg5 Mg 0.8558 0.24169 0.86978 0.0
Mg6 Mg 0.88844 0.30429 0.98307 0.0
O7 O 0.93552 0.33247 0.04598 0.0
Mg8 Mg 0.94901 0.30266 0.10858 0.0
Mg9 Mg 0.92191 0.37029 0.09109 0.0
C10 C 0.84597 0.35678 0.01334 0.0
C11 C 0.93454 0.39465 0.9268 0.0
O12 O 0.78971 0.21062 0.8326 0.0
O13 O 0.76775 0.2528 0.8564 0.0
O14 O 0.87329 0.27994 0.76874 0.0
O15 O 0.84943 0.32067 0.77642 0.0
O16 O 0.82853 0.34759 0.95316 0.0
O17 O 0.86155 0.33761 0.03974 0.0
C18 C 0.84001 0.21179 0.03075 0.0
O19 O 0.85754 0.24695 0.05577 0.0
O20 O 0.83775 0.20489 0.96461 0.0
O21 O 0.98338 0.39792 0.13275 0.0
O22 O 1.00488 0.35433 0.13545 0.0
O23 O 0.90026 0.33579 0.1922 0.0
C24 C 1.01021 0.38921 0.14319 0.0
O25 O 0.91472 0.28842 0.20541 0.0
O26 O 0.92661 0.25539 0.0279 0.0
C27 C 0.89894 0.30784 0.22803 0.0
O28 O 0.91987 0.27601 0.92208 0.0
O29 O 0.9151 0.35853 0.90901 0.0
O30 O 0.94211 0.40511 -0.00853 0.0
C31 C 0.5672 0.76828 0.94786 0.0
C32 C 0.58257 0.87858 0.8892 0.0
C33 C 0.67949 0.94303 0.11121 0.0
Mg34 Mg 0.53572 0.8204 0.00458 0.0
O35 O 0.57899 0.83477 0.06395 0.0
Mg36 Mg 0.63044 0.85827 0.01551 0.0
Mg37 Mg 0.58792 0.87609 0.13309 0.0
O38 O 0.59509 0.91794 0.20126 0.0
Mg39 Mg 0.63849 0.94319 0.25898 0.0
Mg40 Mg 0.54354 0.8918 0.24998 0.0
C41 C 0.49565 0.8203 0.15185 0.0
C42 C 0.52898 0.90915 0.0885 0.0
O43 O 0.60277 0.79468 0.96116 0.0
O44 O 0.538 0.77268 0.96191 0.0
O45 O 0.61152 0.87949 0.92036 0.0
O46 O 0.54844 0.85921 0.91476 0.0
O47 O 0.4929 0.81216 0.08522 0.0
O48 O 0.52858 0.83647 0.18441 0.0
C49 C 0.64276 0.83701 0.17501 0.0
O50 O 0.62191 0.85102 0.20092 0.0
O51 O 0.64883 0.83713 0.10871 0.0
O52 O 0.5612 0.95017 0.30219 0.0
O53 O 0.62622 0.98757 0.3017 0.0
O54 O 0.5671 0.87521 0.34977 0.0
C55 C 0.59217 0.98244 0.31487 0.0
O56 O 0.63164 0.90446 0.3427 0.0
O57 O 0.68038 0.95377 0.17601 0.0
C58 C 0.60004 0.88274 0.37549 0.0
O59 O 0.64757 0.91737 0.08083 0.0
O60 O 0.55287 0.89837 0.06525 0.0
O61 O 0.52228 0.90966 0.15461 0.0
C62 C 0.81896 0.56583 0.17954 0.0
C63 C 0.7221 0.57487 0.10681 0.0
C64 C 0.75258 0.67943 0.32892 0.0
Mg65 Mg 0.73467 0.53114 0.23005 0.0
O66 O 0.75844 0.57625 0.28613 0.0
Mg67 Mg 0.78688 0.62788 0.23638 0.0
Mg68 Mg 0.72342 0.58616 0.34541 0.0
O69 O 0.68636 0.5945 0.40415 0.0
Mg70 Mg 0.70383 0.63536 0.47011 0.0
Mg71 Mg 0.65181 0.54018 0.43929 0.0
C72 C 0.68235 0.48988 0.36351 0.0
C73 C 0.63976 0.53698 0.26939 0.0
O74 O 0.82481 0.60099 0.18798 0.0
O75 O 0.78689 0.53522 0.19458 0.0
O76 O 0.74875 0.60718 0.13288 0.0
O77 O 0.71002 0.54262 0.13949 0.0
O78 O 0.69452 0.48621 0.30244 0.0
O79 O 0.69539 0.52357 0.39295 0.0
C80 C 0.8123 0.63549 0.40258 0.0
O81 O 0.77684 0.61336 0.42284 0.0
O82 O 0.82139 0.64484 0.33754 0.0
O83 O 0.61158 0.56251 0.47692 0.0
O84 O 0.6467 0.6276 0.49501 0.0
O85 O 0.68073 0.55557 0.54938 0.0
C86 C 0.61435 0.59534 0.49383 0.0
O87 O 0.72252 0.6188 0.56557 0.0
O88 O 0.74236 0.67968 0.3939 0.0
C89 C 0.70508 0.58366 0.58828 0.0
O90 O 0.74587 0.64743 0.29688 0.0
O91 O 0.676 0.56063 0.26327 0.0
O92 O 0.62357 0.52506 0.32982 0.0
C93 C 0.25787 0.79333 0.29268 0.0
C94 C 0.15273 0.69769 0.21866 0.0
C95 C 0.08586 0.73791 0.4458 0.0
Mg96 Mg 0.2066 0.70913 0.34397 0.0
O97 O 0.18469 0.7333 0.39524 0.0
Mg98 Mg 0.16572 0.76493 0.34402 0.0
Mg99 Mg 0.14299 0.70538 0.46437 0.0
O100 O 0.10139 0.67969 0.53807 0.0
Mg101 Mg 0.08803 0.71148 0.59604 0.0
Mg102 Mg 0.12297 0.6498 0.58712 0.0
C103 C 0.19203 0.66023 0.48514 0.0
C104 C 0.09875 0.61144 0.43157 0.0
O105 O 0.22905 0.79987 0.29622 0.0
O106 O 0.25578 0.76111 0.31129 0.0
O107 O 0.1473 0.72477 0.2445 0.0
O108 O 0.17162 0.68441 0.25241 0.0
O109 O 0.20669 0.6696 0.42275 0.0
O110 O 0.17781 0.67937 0.51727 0.0
C111 C 0.18946 0.79945 0.50267 0.0
O112 O 0.17472 0.76489 0.52891 0.0
O113 O 0.18689 0.80476 0.43684 0.0
O114 O 0.0657 0.62361 0.64719 0.0
O115 O 0.03669 0.66071 0.63872 0.0
O116 O 0.1502 0.69291 0.67652 0.0
C117 C 0.0372 0.62974 0.65888 0.0
O118 O 0.12747 0.73432 0.68565 0.0
O119 O 0.09948 0.75223 0.50688 0.0
C120 C 0.14887 0.72081 0.70822 0.0
O121 O 0.10529 0.72714 0.40551 0.0
O122 O 0.1142 0.64542 0.40239 0.0
O123 O 0.0968 0.60759 0.49882 0.0
C124 C 0.46028 0.24532 0.4788 0.0
C125 C 0.4396 0.13277 0.41967 0.0
C126 C 0.33468 0.07452 0.6418 0.0
Mg127 Mg 0.4824 0.18709 0.54101 0.0
O128 O 0.43765 0.17438 0.59295 0.0
Mg129 Mg 0.38933 0.15656 0.53691 0.0
Mg130 Mg 0.4212 0.13076 0.65937 0.0
O131 O 0.40509 0.0865 0.73042 0.0
Mg132 Mg 0.36075 0.07048 0.79113 0.0
Mg133 Mg 0.45685 0.10545 0.77767 0.0
C134 C 0.51525 0.17903 0.68848 0.0
C135 C 0.47075 0.08743 0.61707 0.0
O136 O 0.4237 0.22098 0.48777 0.0
O137 O 0.48708 0.23774 0.49589 0.0
O138 O 0.40993 0.13456 0.44137 0.0
O139 O 0.47066 0.14698 0.45621 0.0
O140 O 0.52103 0.19056 0.62386 0.0
O141 O 0.48108 0.16307 0.71645 0.0
C142 C 0.37426 0.17892 0.69381 0.0
O143 O 0.39216 0.16262 0.72315 0.0
O144 O 0.37007 0.17882 0.62695 0.0
O145 O 0.42745 0.04587 0.83003 0.0
O146 O 0.36197 0.01742 0.82484 0.0
O147 O 0.44116 0.12886 0.87345 0.0
C148 C 0.39339 0.01695 0.84092 0.0
O149 O 0.37797 0.10714 0.88564 0.0
O150 O 0.336 0.08878 0.70334 0.0
C151 C 0.4128 0.12715 0.90809 0.0
O152 O 0.36262 0.09454 0.59777 0.0
O153 O 0.45098 0.10283 0.59365 0.0
O154 O 0.47438 0.08351 0.68327 0.0
C155 C 0.1989 0.4537 0.696 0.0
C156 C 0.29636 0.4477 0.60909 0.0
C157 C 0.28009 0.3492 0.8253 0.0
Mg158 Mg 0.28515 0.49272 0.73353 0.0
O159 O 0.26528 0.44821 0.79099 0.0
Mg160 Mg 0.23732 0.39608 0.74321 0.0
Mg161 Mg 0.30185 0.44112 0.85138 0.0
O162 O 0.34028 0.43559 0.91011 0.0
Mg163 Mg 0.33254 0.39242 0.96194 0.0
Mg164 Mg 0.36868 0.48802 0.95511 0.0
C165 C 0.33677 0.53462 0.87133 0.0
C166 C 0.38831 0.49917 0.78689 0.0
O167 O 0.19658 0.41972 0.69677 0.0
O168 O 0.22982 0.48524 0.71256 0.0
O169 O 0.27356 0.41678 0.6431 0.0
O170 O 0.30621 0.48161 0.63379 0.0
O171 O 0.32515 0.53669 0.80856 0.0
O172 O 0.32359 0.5017 0.90395 0.0
C173 C 0.21272 0.38657 0.90815 0.0
O174 O 0.24811 0.40879 0.92851 0.0
O175 O 0.20347 0.37823 0.84312 0.0
O176 O 0.41436 0.47244 -0.01259 0.0
O177 O 0.39276 0.40808 0.97545 0.0
O178 O 0.33631 0.46396 0.06387 0.0
C179 C 0.41998 0.44311 0.98657 0.0
O180 O 0.31051 0.39898 0.06063 0.0
O181 O 0.29615 0.34921 0.88454 0.0
C182 C 0.31722 0.43021 0.0931 0.0
O183 O 0.28216 0.38066 0.79922 0.0
O184 O 0.35297 0.47372 0.77257 0.0
O185 O 0.39994 0.50877 0.8507 0.0
H186 H 0.91476 0.27428 0.34302 0.0
H187 H 0.85144 0.33343 0.27961 0.0
H188 H 0.84082 0.34287 0.40472 0.0
H189 H 0.85211 0.22458 0.49974 0.0
H190 H 0.8926 0.22952 0.55148 0.0
H191 H 0.89291 0.22494 0.45637 0.0
H192 H 0.95895 0.28924 0.45196 0.0
H193 H 0.95822 0.29469 0.54678 0.0
H194 H 0.96278 0.33326 0.4892 0.0
H195 H 0.84445 0.35407 0.5337 0.0
H196 H 0.84697 0.35165 0.6636 0.0
H197 H 0.90383 0.28142 0.64724 0.0
C198 C 0.89758 0.28803 0.35551 0.0
C199 C 0.88423 0.3034 0.30144 0.0
C200 C 0.86222 0.32166 0.32004 0.0
C201 C 0.85623 0.32743 0.391 0.0
C202 C 0.87181 0.31419 0.44293 0.0
C203 C 0.89085 0.2937 0.42656 0.0
C204 C 0.90418 0.28239 0.49352 0.0
C205 C 0.88425 0.23771 0.50071 0.0
C206 C 0.94868 0.30101 0.49543 0.0
C207 C 0.88999 0.30018 0.54956 0.0
C208 C 0.87209 0.31899 0.51877 0.0
C209 C 0.85771 0.3388 0.55874 0.0
C210 C 0.85964 0.33752 0.63265 0.0
C211 C 0.87514 0.3159 0.66595 0.0
C212 C 0.89166 0.29806 0.62357 0.0
H213 H 0.54078 0.84661 0.47431 0.0
H214 H 0.66656 0.90727 0.45212 0.0
H215 H 0.67352 0.91941 0.58016 0.0
H216 H 0.53323 0.90471 0.60545 0.0
H217 H 0.49614 0.86595 0.65778 0.0
H218 H 0.49932 0.85912 0.56394 0.0
H219 H 0.50542 0.79742 0.58691 0.0
H220 H 0.50047 0.80307 0.68057 0.0
H221 H 0.54183 0.80026 0.64786 0.0
H222 H 0.66772 0.93526 0.70431 0.0
H223 H 0.65083 0.93187 0.83042 0.0
H224 H 0.52934 0.85423 0.77921 0.0
C225 C 0.56977 0.86128 0.4966 0.0
C226 C 0.60308 0.87676 0.45239 0.0
C227 C 0.64048 0.89553 0.48415 0.0
C228 C 0.64485 0.90307 0.55697 0.0
C229 C 0.61159 0.89045 0.59789 0.0
C230 C 0.5748 0.86813 0.56999 0.0
C231 C 0.54418 0.85629 0.62769 0.0
C232 C 0.51659 0.87249 0.61278 0.0
C233 C 0.52166 0.81161 0.63629 0.0
C234 C 0.56972 0.87619 0.69174 0.0
C235 C 0.60838 0.89667 0.67233 0.0
C236 C 0.63767 0.91852 0.72072 0.0
C237 C 0.62767 0.91675 0.79217 0.0
C238 C 0.58888 0.89225 0.8149 0.0
C239 C 0.5592 0.87335 0.76355 0.0
H240 H 0.75322 0.63193 0.00267 0.0
H241 H 0.6628 0.51217 0.0408 0.0
H242 H 0.65085 0.50209 0.91283 0.0
H243 H 0.70248 0.64811 0.84926 0.0
H244 H 0.74746 0.67797 0.80298 0.0
H245 H 0.74663 0.67714 0.8986 0.0
H246 H 0.8004 0.65775 0.8979 0.0
H247 H 0.80063 0.65741 0.80234 0.0
H248 H 0.79231 0.61447 0.85064 0.0
H249 H 0.65493 0.50114 0.78262 0.0
H250 H 0.66373 0.51352 0.65478 0.0
H251 H 0.74843 0.6352 0.69619 0.0
C252 C 0.73012 0.60398 0.98426 0.0
C253 C 0.70918 0.5728 0.0322 0.0
C254 C 0.67946 0.53654 0.00555 0.0
C255 C 0.67251 0.53037 0.93271 0.0
C256 C 0.69512 0.56086 0.88684 0.0
C257 C 0.72246 0.59733 0.91121 0.0
C258 C 0.74268 0.62481 0.84948 0.0
C259 C 0.7343 0.65903 0.85011 0.0
C260 C 0.78661 0.63946 0.85017 0.0
C261 C 0.72304 0.59764 0.78699 0.0
C262 C 0.69608 0.56082 0.81027 0.0
C263 C 0.67536 0.53005 0.76354 0.0
C264 C 0.68092 0.53742 0.69075 0.0
C265 C 0.70657 0.57549 0.66483 0.0
C266 C 0.72857 0.60581 0.71398 0.0
H267 H 0.11413 0.71959 0.12252 0.0
H268 H 0.18292 0.66129 0.13845 0.0
H269 H 0.19586 0.66988 0.01078 0.0
H270 H 0.0719 0.67494 0.94526 0.0
H271 H 0.07081 0.71814 0.91705 0.0
H272 H 0.06519 0.7051 0.00956 0.0
H273 H 0.12262 0.77403 0.03838 0.0
H274 H 0.12961 0.78652 0.94559 0.0
H275 H 0.16927 0.78973 -0.00227 0.0
H276 H 0.21048 0.69389 0.8874 0.0
H277 H 0.20586 0.70914 0.76258 0.0
H278 H 0.12262 0.74605 0.82091 0.0
C279 C 0.13085 0.7075 0.09882 0.0
C280 C 0.14809 0.69047 0.1412 0.0
C281 C 0.16954 0.67475 0.10775 0.0
C282 C 0.1776 0.67995 0.03517 0.0
C283 C 0.16296 0.69977 -0.00377 0.0
C284 C 0.13838 0.71146 0.02571 0.0
C285 C 0.12482 0.72997 0.97016 0.0
C286 C 0.08056 0.70558 0.95987 0.0
C287 C 0.13733 0.77259 -0.01085 0.0
C288 C 0.14656 0.72773 0.90556 0.0
C289 C 0.16911 0.71107 0.92264 0.0
C290 C 0.19233 0.70622 0.87285 0.0
C291 C 0.1899 0.71551 0.80222 0.0
C292 C 0.16356 0.72837 0.7818 0.0
C293 C 0.1433 0.73666 0.8348 0.0
H294 H 0.36232 0.10169 0.02197 0.0
H295 H 0.48254 0.18 0.96368 0.0
H296 H 0.50217 0.18288 0.08815 0.0
H297 H 0.36872 0.15086 0.19609 0.0
H298 H 0.33593 0.1051 0.238 0.0
H299 H 0.33127 0.11171 0.14469 0.0
H300 H 0.33644 0.04965 0.11902 0.0
H301 H 0.34298 0.04395 0.21197 0.0
H302 H 0.37872 0.04759 0.14853 0.0
H303 H 0.51051 0.16826 0.21247 0.0
H304 H 0.50544 0.15773 0.34123 0.0
H305 H 0.37951 0.09455 0.32433 0.0
C306 C 0.3925 0.12076 0.03579 0.0
C307 C 0.42095 0.14019 0.9828 0.0
C308 C 0.46024 0.16456 0.0032 0.0
C309 C 0.47181 0.16602 0.07365 0.0
C310 C 0.44362 0.14384 0.12346 0.0
C311 C 0.40459 0.12323 0.1065 0.0
C312 C 0.38035 0.10307 0.17153 0.0
C313 C 0.35243 0.11863 0.18861 0.0
C314 C 0.35832 0.05842 0.16215 0.0
C315 C 0.41201 0.1155 0.22716 0.0
C316 C 0.44829 0.13791 0.19745 0.0
C317 C 0.48224 0.15156 0.23692 0.0
C318 C 0.47899 0.1449 0.31007 0.0
C319 C 0.44203 0.12585 0.34321 0.0
C320 C 0.40815 0.10936 0.3006 0.0
H321 H 0.32839 0.48858 0.19028 0.0
H322 H 0.28768 0.36398 0.17226 0.0
H323 H 0.28554 0.35843 0.30137 0.0
H324 H 0.38732 0.50734 0.34515 0.0
H325 H 0.37342 0.53985 0.38698 0.0
H326 H 0.3726 0.53573 0.29163 0.0
H327 H 0.30014 0.51761 0.28912 0.0
H328 H 0.30107 0.52266 0.38423 0.0
H329 H 0.26559 0.47772 0.34296 0.0
H330 H 0.29309 0.36587 0.4296 0.0
H331 H 0.29273 0.38215 0.55499 0.0
H332 H 0.32211 0.50048 0.49693 0.0
C333 C 0.31842 0.46005 0.21354 0.0
C334 C 0.30873 0.42687 0.17041 0.0
C335 C 0.29558 0.39003 0.20333 0.0
C336 C 0.29457 0.38651 0.27701 0.0
C337 C 0.30593 0.41985 0.31772 0.0
C338 C 0.31629 0.45568 0.28781 0.0
C339 C 0.32461 0.48603 0.34537 0.0
C340 C 0.36702 0.5192 0.34204 0.0
C341 C 0.29615 0.50193 0.34011 0.0
C342 C 0.31732 0.4614 0.41176 0.0
C343 C 0.3076 0.42361 0.39382 0.0
C344 C 0.30001 0.39518 0.44456 0.0
C345 C 0.30004 0.40485 0.5158 0.0
C346 C 0.30677 0.44243 0.53595 0.0
C347 C 0.31695 0.47156 0.48328 0.0
H348 H 0.58709 0.20269 0.63364 0.0
H349 H 0.51861 0.15238 0.82402 0.0
H350 H 0.57183 0.14371 0.87333 0.0
H351 H 0.63884 0.14565 0.62508 0.0
H352 H 0.68103 0.18866 0.59367 0.0
H353 H 0.63332 0.18155 0.57444 0.0
H354 H 0.65832 0.2513 0.63293 0.0
H355 H 0.70377 0.25417 0.65531 0.0
H356 H 0.67437 0.25843 0.72401 0.0
H357 H 0.63531 0.14511 0.9044 0.0
H358 H 0.7051 0.1668 0.92197 0.0
H359 H 0.73019 0.21588 0.71089 0.0
C360 C 0.5827 0.18938 0.68552 0.0
C361 C 0.54779 0.17699 0.72381 0.0
C362 C 0.54431 0.16086 0.79235 0.0
C363 C 0.57444 0.15575 0.82073 0.0
C364 C 0.60787 0.16716 0.78007 0.0
C365 C 0.61224 0.18425 0.71435 0.0
C366 C 0.65244 0.19863 0.68434 0.0
C367 C 0.65123 0.17736 0.61516 0.0
C368 C 0.67345 0.24326 0.67359 0.0
C369 C 0.67039 0.18713 0.74353 0.0
C370 C 0.64422 0.16848 0.79803 0.0
C371 C 0.65568 0.15879 0.86134 0.0
C372 C 0.6952 0.17054 0.87048 0.0
C373 C 0.72242 0.19148 0.81649 0.0
C374 C 0.70951 0.19817 0.75132 0.0
H375 H 0.53281 0.73528 0.82452 0.0
H376 H 0.5708 0.71213 0.0245 0.0
H377 H 0.51432 0.64559 0.02486 0.0
H378 H 0.44365 0.70069 0.87265 0.0
H379 H 0.41861 0.67869 0.79105 0.0
H380 H 0.46778 0.71832 0.78855 0.0
H381 H 0.49344 0.67639 0.72066 0.0
H382 H 0.44237 0.64147 0.71354 0.0
H383 H 0.47481 0.6265 0.74953 0.0
H384 H 0.44393 0.59252 0.02388 0.0
H385 H 0.37466 0.54595 0.00056 0.0
H386 H 0.38357 0.60219 0.79818 0.0
C387 C 0.53109 0.71491 0.86489 0.0
C388 C 0.55627 0.72863 0.92413 0.0
C389 C 0.55231 0.70194 0.97797 0.0
C390 C 0.51967 0.6643 0.97934 0.0
C391 C 0.49218 0.65366 0.92523 0.0
C392 C 0.49842 0.6775 0.86706 0.0
C393 C 0.46207 0.66221 0.82169 0.0
C394 C 0.4472 0.69175 0.81836 0.0
C395 C 0.4687 0.65108 0.7469 0.0
C396 C 0.43454 0.62643 0.86357 0.0
C397 C 0.45206 0.62228 0.92371 0.0
C398 C 0.43067 0.59412 0.97472 0.0
C399 C 0.3913 0.56768 0.96092 0.0
C400 C 0.37417 0.56846 0.89532 0.0
C401 C 0.39585 0.59956 0.84783 0.0
H402 H 0.83301 0.41302 0.95496 0.0
H403 H 0.87564 0.38582 0.14652 0.0
H404 H 0.89143 0.44999 0.19649 0.0
H405 H 0.89964 0.52062 0.95409 0.0
H406 H 0.86152 0.5297 0.92462 0.0
H407 H 0.86129 0.48545 0.89839 0.0
H408 H 0.79187 0.4439 0.95074 0.0
H409 H 0.79198 0.48805 0.97512 0.0
H410 H 0.78307 0.45169 0.04164 0.0
H411 H 0.89502 0.51313 0.23153 0.0
H412 H 0.87347 0.56094 0.25782 0.0
H413 H 0.82623 0.54605 0.04617 0.0
C414 C 0.84619 0.42063 0.0071 0.0
C415 C 0.85403 0.39454 0.04592 0.0
C416 C 0.87054 0.40562 0.11454 0.0
C417 C 0.87972 0.44218 0.14334 0.0
C418 C 0.87205 0.46737 0.10311 0.0
C419 C 0.85502 0.45667 0.03687 0.0
C420 C 0.84409 0.48598 0.00874 0.0
C421 C 0.86806 0.50666 0.9425 0.0
C422 C 0.80017 0.46623 -0.00675 0.0
C423 C 0.85565 0.51386 0.0712 0.0
C424 C 0.87315 0.50349 0.12402 0.0
C425 C 0.88224 0.5221 0.18998 0.0
C426 C 0.87046 0.54977 0.20421 0.0
C427 C 0.84931 0.55797 0.15318 0.0
C428 C 0.844 0.54159 0.08467 0.0
H429 H 0.42851 0.80769 0.08679 0.0
H430 H 0.48643 0.83577 0.29153 0.0
H431 H 0.43794 0.85238 0.3374 0.0
H432 H 0.39434 0.87721 0.08616 0.0
H433 H 0.34714 0.84384 0.05022 0.0
H434 H 0.38869 0.8387 0.02745 0.0
H435 H 0.35628 0.76769 0.07284 0.0
H436 H 0.31318 0.77064 0.08983 0.0
H437 H 0.33474 0.75658 0.16001 0.0
H438 H 0.38217 0.86299 0.36268 0.0
H439 H 0.31352 0.84475 0.3792 0.0
H440 H 0.28894 0.80424 0.16208 0.0
C441 C 0.43127 0.81743 0.14134 0.0
C442 C 0.46261 0.82236 0.18448 0.0
C443 C 0.46395 0.83373 0.25624 0.0
C444 C 0.43663 0.84344 0.28266 0.0
C445 C 0.4075 0.84052 0.23721 0.0
C446 C 0.40377 0.82618 0.16903 0.0
C447 C 0.36634 0.8192 0.13481 0.0
C448 C 0.37459 0.84635 0.07085 0.0
C449 C 0.34114 0.77598 0.11321 0.0
C450 C 0.3486 0.83026 0.19567 0.0
C451 C 0.37372 0.84429 0.25307 0.0
C452 C 0.36244 0.85257 0.31796 0.0
C453 C 0.32352 0.84272 0.32661 0.0
C454 C 0.29646 0.82381 0.27137 0.0
C455 C 0.3096 0.82012 0.20387 0.0
H456 H 0.49859 0.27595 0.35745 0.0
H457 H 0.46 0.30462 0.55182 0.0
H458 H 0.51302 0.37314 0.54187 0.0
H459 H 0.59357 0.32526 0.39471 0.0
H460 H 0.6113 0.34244 0.30649 0.0
H461 H 0.56552 0.29852 0.31839 0.0
H462 H 0.53025 0.3265 0.24396 0.0
H463 H 0.57601 0.37035 0.22947 0.0
H464 H 0.5355 0.37333 0.26715 0.0
H465 H 0.58022 0.4323 0.52738 0.0
H466 H 0.64582 0.48341 0.49213 0.0
H467 H 0.63775 0.41774 0.30155 0.0
C468 C 0.49965 0.29737 0.39499 0.0
C469 C 0.47464 0.28544 0.45422 0.0
C470 C 0.47804 0.31361 0.5047 0.0
C471 C 0.50862 0.35239 0.50019 0.0
C472 C 0.53502 0.36236 0.44432 0.0
C473 C 0.53001 0.33594 0.39129 0.0
C474 C 0.564 0.35259 0.3404 0.0
C475 C 0.5848 0.32824 0.34004 0.0
C476 C 0.55065 0.35591 0.26571 0.0
C477 C 0.5893 0.39236 0.37335 0.0
C478 C 0.5725 0.39723 0.434 0.0
C479 C 0.59269 0.42964 0.47796 0.0
C480 C 0.62998 0.45872 0.45724 0.0
C481 C 0.6463 0.45601 0.39188 0.0
C482 C 0.62588 0.42162 0.35073 0.0
H483 H 0.17529 0.62879 0.6213 0.0
H484 H 0.18699 0.60132 0.40235 0.0
H485 H 0.16802 0.53446 0.43594 0.0
H486 H 0.21993 0.58046 0.69159 0.0
H487 H 0.19017 0.56318 0.77015 0.0
H488 H 0.19643 0.6063 0.72626 0.0
H489 H 0.12146 0.57446 0.71664 0.0
H490 H 0.11535 0.53051 0.75816 0.0
H491 H 0.09406 0.52803 0.67243 0.0
H492 H 0.15328 0.47277 0.49007 0.0
H493 H 0.16775 0.43052 0.56526 0.0
H494 H 0.1676 0.49536 0.75075 0.0
C495 C 0.17293 0.60837 0.5804 0.0
C496 C 0.18221 0.6205 0.50916 0.0
C497 C 0.18022 0.59318 0.45755 0.0
C498 C 0.16864 0.55463 0.47573 0.0
C499 C 0.15865 0.54319 0.54573 0.0
C500 C 0.16178 0.56947 0.59784 0.0
C501 C 0.1572 0.55164 0.67084 0.0
C502 C 0.19307 0.57686 0.71737 0.0
C503 C 0.11979 0.54581 0.7066 0.0
C504 C 0.15393 0.51255 0.65137 0.0
C505 C 0.15231 0.50736 0.57865 0.0
C506 C 0.15393 0.47602 0.54717 0.0
C507 C 0.16154 0.45164 0.59039 0.0
C508 C 0.16861 0.45977 0.66348 0.0
C509 C 0.1613 0.4882 0.69504 0.0
H510 H 0.76379 0.16155 0.0354 0.0
H511 H 0.87478 0.17966 0.11023 0.0
H512 H 0.8469 0.10801 0.12259 0.0
H513 H 0.69963 0.07213 0.14047 0.0
H514 H 0.66628 0.05209 0.06704 0.0
H515 H 0.69404 0.10418 0.07926 0.0
H516 H 0.71912 0.11001 0.9502 0.0
H517 H 0.69345 0.05775 0.93938 0.0
H518 H 0.74521 0.08504 0.9253 0.0
H519 H 0.80721 0.03311 0.11525 0.0
H520 H 0.756 0.96364 0.1147 0.0
H521 H 0.67424 0.99582 0.02953 0.0
C522 C 0.78149 0.15052 0.05884 0.0
C523 C 0.82109 0.17625 0.07437 0.0
C524 C 0.84401 0.16064 0.10097 0.0
C525 C 0.82861 0.11987 0.1062 0.0
C526 C 0.79037 0.09527 0.08395 0.0
C527 C 0.76688 0.11014 0.06245 0.0
C528 C 0.72765 0.07802 0.03717 0.0
C529 C 0.69497 0.07649 0.08378 0.0
C530 C 0.721 0.08304 0.95834 0.0
C531 C 0.73243 0.04248 0.04805 0.0
C532 C 0.76884 0.05294 0.07478 0.0
C533 C 0.77879 0.02474 0.09379 0.0
C534 C 0.7498 0.98514 0.09142 0.0
C535 C 0.71136 0.97412 0.07024 0.0
C536 C 0.70367 1.00308 0.04309 0.0
H537 H 0.62744 0.76257 0.1637 0.0
H538 H 0.70043 0.87072 0.2755 0.0
H539 H 0.74343 0.84464 0.31354 0.0
H540 H 0.63711 0.6967 0.29096 0.0
H541 H 0.63644 0.66518 0.22075 0.0
H542 H 0.61096 0.69213 0.20995 0.0
H543 H 0.64938 0.72127 0.09362 0.0
H544 H 0.67638 0.69591 0.1062 0.0
H545 H 0.70173 0.74828 0.09612 0.0
H546 H 0.78041 0.80704 0.33268 0.0
H547 H 0.8 0.7571 0.35301 0.0
H548 H 0.7038 0.67487 0.22366 0.0
C549 C 0.65162 0.78014 0.1987 0.0
C550 C 0.66004 0.81824 0.21853 0.0
C551 C 0.69273 0.84099 0.26194 0.0
C552 C 0.71769 0.82664 0.28242 0.0
C553 C 0.70957 0.78961 0.25865 0.0
C554 C 0.6767 0.76633 0.21921 0.0
C555 C 0.67422 0.72768 0.20006 0.0
C556 C 0.63753 0.6934 0.23239 0.0
C557 C 0.6755 0.72304 0.11919 0.0
C558 C 0.71087 0.73256 0.23498 0.0
C559 C 0.73115 0.76866 0.26783 0.0
C560 C 0.76482 0.77888 0.30674 0.0
C561 C 0.77629 0.75057 0.31679 0.0
C562 C 0.75417 0.71237 0.28832 0.0
C563 C 0.72232 0.7042 0.24363 0.0
H564 H 0.03588 0.76581 0.43554 0.0
H565 H 0.03976 0.65814 0.45584 0.0
H566 H 0.9684 0.62163 0.47402 0.0
H567 H 0.95858 0.74438 0.56106 0.0
H568 H 0.93651 0.76599 0.50729 0.0
H569 H 0.98809 0.78408 0.50198 0.0
H570 H 0.98317 0.77178 0.366 0.0
H571 H 0.93202 0.75526 0.37089 0.0
H572 H 0.94867 0.72415 0.33233 0.0
H573 H 0.89598 0.59704 0.48784 0.0
H574 H 0.82894 0.5841 0.46707 0.0
H575 H 0.8725 0.70733 0.43124 0.0
C576 C 0.02153 0.73446 0.44313 0.0
C577 C 0.04308 0.71468 0.44407 0.0
C578 C 0.0236 0.67373 0.45438 0.0
C579 C 0.9832 0.6529 0.46568 0.0
C580 C 0.96278 0.67348 0.46591 0.0
C581 C 0.98125 0.71322 0.45298 0.0
C582 C 0.95247 0.72795 0.44857 0.0
C583 C 0.95934 0.75734 0.5083 0.0
C584 C 0.95417 0.7458 0.3751 0.0
C585 C 0.91469 0.6902 0.45954 0.0
C586 C 0.92125 0.65926 0.47173 0.0
C587 C 0.89056 0.62112 0.47908 0.0
C588 C 0.85243 0.61407 0.46859 0.0
C589 C 0.84554 0.64487 0.44935 0.0
C590 C 0.87691 0.68355 0.44848 0.0
H591 H 0.25099 0.86611 0.45645 0.0
H592 H 0.18003 0.81438 0.64332 0.0
H593 H 0.21413 0.87908 0.70363 0.0
H594 H 0.34118 0.93681 0.55029 0.0
H595 H 0.35291 0.97335 0.48281 0.0
H596 H 0.32673 0.92224 0.4596 0.0
H597 H 0.27209 0.93179 0.40422 0.0
H598 H 0.29775 0.98269 0.42796 0.0
H599 H 0.24848 0.95206 0.45762 0.0
H600 H 0.2501 0.95117 0.73575 0.0
H601 H 0.28657 0.02279 0.74168 0.0
H602 H 0.33454 0.02709 0.5323 0.0
C603 C 0.24299 0.86812 0.51067 0.0
C604 C 0.21268 0.83528 0.54531 0.0
C605 C 0.20328 0.83907 0.61615 0.0
C606 C 0.22245 0.87572 0.65048 0.0
C607 C 0.25122 0.90784 0.61342 0.0
C608 C 0.26181 0.90411 0.54536 0.0
C609 C 0.29177 0.94319 0.51496 0.0
C610 C 0.33044 0.94393 0.50112 0.0
C611 C 0.27659 0.95299 0.44721 0.0
C612 C 0.29547 0.9701 0.57553 0.0
C613 C 0.27217 0.94909 0.63208 0.0
C614 C 0.26893 0.96771 0.69233 0.0
C615 C 0.28988 0.00863 0.69496 0.0
C616 C 0.31411 0.03097 0.63776 0.0
C617 C 0.31689 0.01112 0.57738 0.0
H618 H 0.39346 0.25395 0.67625 0.0
H619 H 0.3148 0.14935 0.79141 0.0
H620 H 0.27339 0.17883 0.82006 0.0
H621 H 0.38505 0.32465 0.79131 0.0
H622 H 0.38852 0.35483 0.71673 0.0
H623 H 0.41192 0.3256 0.71332 0.0
H624 H 0.37469 0.29461 0.59646 0.0
H625 H 0.34946 0.32213 0.60205 0.0
H626 H 0.32233 0.26958 0.5962 0.0
H627 H 0.23949 0.22004 0.83083 0.0
H628 H 0.22468 0.2737 0.84643 0.0
H629 H 0.32347 0.34882 0.71598 0.0
C630 C 0.36833 0.23789 0.71004 0.0
C631 C 0.35788 0.19983 0.73355 0.0
C632 C 0.32404 0.17906 0.7752 0.0
C633 C 0.29996 0.1953 0.79017 0.0
C634 C 0.31003 0.23208 0.76239 0.0
C635 C 0.34398 0.25342 0.72459 0.0
C636 C 0.34866 0.29222 0.70038 0.0
C637 C 0.3857 0.32633 0.73238 0.0
C638 C 0.34879 0.29475 0.61893 0.0
C639 C 0.31222 0.28994 0.73122 0.0
C640 C 0.28998 0.2548 0.76598 0.0
C641 C 0.25654 0.2474 0.80317 0.0
C642 C 0.24768 0.27778 0.81026 0.0
C643 C 0.27234 0.31522 0.78102 0.0
C644 C 0.30317 0.32016 0.73647 0.0
H645 H 0.99721 0.33721 0.92818 0.0
H646 H 0.97157 0.22017 0.98498 0.0
H647 H 0.04152 0.24333 0.00034 0.0
H648 H 0.08494 0.36239 0.82795 0.0
H649 H 0.10946 0.41247 0.85778 0.0
H650 H 0.05732 0.38593 0.85191 0.0
H651 H 0.05353 0.40213 0.98469 0.0
H652 H 0.10581 0.42772 -0.00957 0.0
H653 H 0.07744 0.38833 0.05075 0.0
H654 H 0.11374 0.27837 0.00912 0.0
H655 H 0.18392 0.32023 0.9858 0.0
H656 H 0.16399 0.41501 0.92615 0.0
C657 C 1.00654 0.31638 0.94174 0.0
C658 C 0.97913 0.27667 0.95391 0.0
C659 C 0.99228 0.25051 0.97404 0.0
C660 C 0.03187 0.26351 0.98406 0.0
C661 C 0.05814 0.303 0.9744 0.0
C662 C 0.04622 0.32896 0.95222 0.0
C663 C 0.08087 0.36952 0.94263 0.0
C664 C 0.0833 0.38338 0.8655 0.0
C665 C 0.07929 0.39863 -0.00476 0.0
C666 C 0.114 0.36187 0.96065 0.0
C667 C 0.10013 0.32351 0.98069 0.0
C668 C 0.12506 0.30867 -0.00537 0.0
C669 C 0.16503 0.33284 0.9827 0.0
C670 C 0.17948 0.37119 0.95679 0.0
C671 C 0.15386 0.3864 0.9493 0.0
H672 H 0.05023 0.46563 0.10654 0.0
H673 H 0.04473 0.38188 0.26131 0.0
H674 H 0.07576 0.43453 0.34962 0.0
H675 H 0.1456 0.55592 0.18587 0.0
H676 H 0.12626 0.58753 0.1636 0.0
H677 H 0.11692 0.54695 0.10654 0.0
H678 H 0.04348 0.52302 0.11682 0.0
H679 H 0.05212 0.56199 0.17687 0.0
H680 H 0.02084 0.51197 0.20315 0.0
H681 H 0.07912 0.48529 0.42681 0.0
H682 H 0.08227 0.54136 0.48708 0.0
H683 H 0.0946 0.59918 0.28439 0.0
C684 C 0.05841 0.45915 0.15746 0.0
C685 C 0.0453 0.41992 0.17756 0.0
C686 C 0.05518 0.4118 0.2448 0.0
C687 C 0.07234 0.44154 0.29554 0.0
C688 C 0.08059 0.47917 0.27678 0.0
C689 C 0.07613 0.48879 0.20832 0.0
C690 C 0.08304 0.53045 0.20473 0.0
C691 C 0.12018 0.55677 0.1627 0.0
C692 C 0.04776 0.53187 0.17357 0.0
C693 C 0.08829 0.5412 0.28279 0.0
C694 C 0.08641 0.51088 0.32289 0.0
C695 C 0.08303 0.51019 0.39609 0.0
C696 C 0.08423 0.54229 0.42973 0.0
C697 C 0.09007 0.5757 0.39078 0.0
C698 C 0.09144 0.57479 0.31588 0.0
H699 H 0.45739 0.05718 0.48021 0.0
H700 H 0.54325 0.10348 0.6489 0.0
H701 H 0.58824 0.09239 0.57618 0.0
H702 H 0.47405 0.98053 0.44129 0.0
H703 H 0.46682 0.98014 0.34677 0.0
H704 H 0.44355 0.99841 0.4053 0.0
H705 H 0.47507 0.06368 0.33612 0.0
H706 H 0.49912 0.04586 0.27795 0.0
H707 H 0.5271 0.09097 0.32594 0.0
H708 H 0.62371 0.07493 0.49222 0.0
H709 H 0.64044 0.03572 0.41207 0.0
H710 H 0.53156 0.9962 0.30001 0.0
C711 C 0.48617 0.06608 0.50056 0.0
C712 C 0.497 0.08157 0.56967 0.0
C713 C 0.5344 0.09177 0.59584 0.0
C714 C 0.56062 0.08647 0.55455 0.0
C715 C 0.54943 0.07126 0.48681 0.0
C716 C 0.51284 0.06036 0.46018 0.0
C717 C 0.50603 0.03818 0.39101 0.0
C718 C 0.47054 0.99687 0.39648 0.0
C719 C 0.50159 0.06105 0.32908 0.0
C720 C 0.54376 0.03699 0.38534 0.0
C721 C 0.56895 0.0577 0.43967 0.0
C722 C 0.60453 0.05889 0.44876 0.0
C723 C 0.61392 0.03672 0.40294 0.0
C724 C 0.58729 0.01307 0.35028 0.0
C725 C 0.55249 0.01434 0.33982 0.0
H726 H 0.6006 0.6092 0.62754 0.0
H727 H 0.54806 0.57328 0.41992 0.0
H728 H 0.48334 0.55282 0.47171 0.0
H729 H 0.53072 0.52776 0.7113 0.0
H730 H 0.53162 0.55157 0.79369 0.0
H731 H 0.5741 0.57146 0.73838 0.0
H732 H 0.5755 0.63674 0.73854 0.0
H733 H 0.53128 0.61856 0.78906 0.0
H734 H 0.53559 0.64089 0.70325 0.0
H735 H 0.42453 0.52373 0.5481 0.0
H736 H 0.37583 0.49267 0.64276 0.0
H737 H 0.46646 0.54809 0.80132 0.0
C738 C 0.57564 0.59907 0.5928 0.0
C739 C 0.579 0.59405 0.51975 0.0
C740 C 0.54576 0.57838 0.47579 0.0
C741 C 0.50902 0.56654 0.50482 0.0
C742 C 0.50626 0.57018 0.57789 0.0
C743 C 0.53874 0.58627 0.62129 0.0
C744 C 0.52761 0.58167 0.69885 0.0
C745 C 0.54185 0.55663 0.73776 0.0
C746 C 0.54331 0.62181 0.73461 0.0
C747 C 0.48374 0.56013 0.69234 0.0
C748 C 0.472 0.55365 0.62222 0.0
C749 C 0.43321 0.52971 0.60321 0.0
C750 C 0.40567 0.51203 0.65732 0.0
C751 C 0.41697 0.5185 0.72943 0.0
C752 C 0.45657 0.54319 0.74675 0.0
H753 H 0.04086 0.61338 0.79439 0.0
H754 H 0.96597 0.57539 0.61015 0.0
H755 H 0.92758 0.50948 0.66297 0.0
H756 H 0.05102 0.53448 0.80174 0.0
H757 H 0.05307 0.53111 0.89683 0.0
H758 H 0.06766 0.57757 0.85612 0.0
H759 H 0.01818 0.58666 0.93161 0.0
H760 H 1.00383 0.5407 0.97483 0.0
H761 H 0.9679 0.54912 0.9321 0.0
H762 H 0.90711 0.44493 0.7243 0.0
H763 H 0.89891 0.38981 0.79905 0.0
H764 H 0.99024 0.47084 0.93878 0.0
C765 C 0.01472 0.59185 0.76766 0.0
C766 C 1.00532 0.59939 0.69968 0.0
C767 C 0.97246 0.57026 0.66361 0.0
C768 C 0.95098 0.53268 0.6928 0.0
C769 C 0.963 0.5252 0.75774 0.0
C770 C 0.99362 0.55434 0.79552 0.0
C771 C 1.00449 0.53813 0.85873 0.0
C772 C 0.04654 0.5458 0.85293 0.0
C773 C 0.99819 0.5546 0.92846 0.0
C774 C 0.97566 0.49525 0.85017 0.0
C775 C 0.95201 0.48818 0.79173 0.0
C776 C 0.92497 0.45028 0.77098 0.0
C777 C 0.92095 0.41902 0.81295 0.0
C778 C 0.94387 0.42593 0.87455 0.0
C779 C 0.97205 0.46457 0.8922 0.0
H780 H 0.50521 0.96212 0.1102 0.0
H781 H 0.49677 0.87453 0.9606 0.0
H782 H 0.44975 0.8844 0.88903 0.0
H783 H 0.40386 0.94018 0.10434 0.0
H784 H 0.41822 0.9911 0.11076 0.0
H785 H 0.44805 0.97335 0.15012 0.0
H786 H 0.50678 0.02567 0.07683 0.0
H787 H 0.47577 0.04189 0.03785 0.0
H788 H 0.50257 0.02642 0.98165 0.0
H789 H 0.40634 0.90726 0.83087 0.0
H790 H 0.37865 0.94716 0.78389 0.0
H791 H 0.4132 0.01657 0.97583 0.0
C792 C 0.49356 0.94509 0.06216 0.0
C793 C 0.5052 0.91812 0.03992 0.0
C794 C 0.48929 0.89631 0.97706 0.0
C795 C 0.46192 0.90114 0.9371 0.0
C796 C 0.45058 0.9276 0.96132 0.0
C797 C 0.46632 0.94949 0.02213 0.0
C798 C 0.4521 0.97833 0.03419 0.0
C799 C 0.42922 0.97018 0.10398 0.0
C800 C 0.48632 0.02055 0.03245 0.0
C801 C 0.42583 0.96942 0.97044 0.0
C802 C 0.4249 0.93981 0.92922 0.0
C803 C 0.40607 0.92978 0.86353 0.0
C804 C 0.38985 0.95212 0.83761 0.0
C805 C 0.3926 0.9838 0.87761 0.0
C806 C 0.40917 0.99125 0.94596 0.0
H807 H 0.44684 0.4053 0.07038 0.0
H808 H 0.48283 0.50227 0.92526 0.0
H809 H 0.55047 0.52958 0.96485 0.0
H810 H 0.49169 0.45032 0.20809 0.0
H811 H 0.50982 0.41951 0.24188 0.0
H812 H 0.46819 0.39917 0.18491 0.0
H813 H 0.50204 0.37402 0.10267 0.0
H814 H 0.54741 0.39707 0.15073 0.0
H815 H 0.54668 0.40758 0.05875 0.0
H816 H 0.60671 0.55628 0.04283 0.0
H817 H 0.64905 0.57794 0.14835 0.0
H818 H 0.5781 0.46472 0.24569 0.0
C819 C 0.46951 0.43102 0.04454 0.0
C820 C 0.46014 0.45183 -0.00467 0.0
C821 C 0.48987 0.48608 0.96335 0.0
C822 C 0.52837 0.50165 0.98509 0.0
C823 C 0.53657 0.48229 0.03817 0.0
C824 C 0.5082 0.44714 0.06629 0.0
C825 C 0.52351 0.43552 0.12973 0.0
C826 C 0.49672 0.4256 0.19493 0.0
C827 C 0.53019 0.40146 0.10933 0.0
C828 C 0.56187 0.47259 0.14033 0.0
C829 C 0.56993 0.49818 0.08444 0.0
C830 C 0.60142 0.53606 0.0858 0.0
C831 C 0.62507 0.54823 0.14609 0.0
C832 C 0.61641 0.52291 0.20466 0.0
C833 C 0.58502 0.48446 0.2012 0.0
loop_
_geom_bond_atom_site_label_1
_geom_bond_atom_site_label_2
_geom_bond_distance
_geom_bond_site_symmetry_2
_ccdc_geom_bond_type
C0 O12 1.241 . S
C0 O13 1.280 . S
C1 O14 1.277 . S
C1 O15 1.245 . S
C2 O26 1.247 1_556 S
C2 O28 1.289 . S
Mg3 O4 1.926 . S
Mg3 O13 1.984 . S
Mg3 O15 1.988 . S
Mg3 O16 2.061 . S
O4 Mg3 1.926 . S
O4 Mg5 1.986 . S
O4 Mg6 1.914 1_556 S
Mg5 O4 1.986 . S
Mg5 O12 2.042 . S
Mg5 O14 2.041 . S
Mg5 O20 2.038 . S
Mg5 O28 2.238 . S
Mg6 O4 1.914 1_554 S
Mg6 O7 1.920 . S
Mg6 O17 2.108 . S
Mg6 O19 2.081 . S
Mg6 O28 2.104 1_554 S
Mg6 O29 2.076 1_554 S
O7 Mg6 1.920 . S
O7 Mg8 1.926 . S
O7 Mg9 1.986 . S
Mg8 O7 1.926 . S
Mg8 O22 1.984 . S
Mg8 O25 1.988 . S
Mg8 O26 2.061 . S
Mg9 O7 1.986 . S
Mg9 O17 2.238 . S
Mg9 O21 2.042 . S
Mg9 O23 2.041 . S
Mg9 O30 2.038 . S
C10 O16 1.247 1_554 S
C10 O17 1.289 . S
C11 O29 1.245 . S
C11 O30 1.274 1_556 S
O12 C0 1.241 . S
O12 Mg5 2.042 . S
O13 C0 1.280 . S
O13 Mg3 1.984 . S
O14 C1 1.277 . S
O14 Mg5 2.041 . S
O15 C1 1.245 . S
O15 Mg3 1.988 . S
O16 Mg3 2.061 . S
O16 C10 1.247 1_556 S
O17 Mg6 2.108 . S
O17 Mg9 2.238 . S
O17 C10 1.289 . S
C18 O19 1.245 . S
C18 O20 1.274 1_554 S
O19 Mg6 2.081 . S
O19 C18 1.245 . S
O20 Mg5 2.038 . S
O20 C18 1.274 1_556 S
O21 Mg9 2.042 . S
O21 C24 1.241 . S
O22 Mg8 1.984 . S
O22 C24 1.280 . S
O23 Mg9 2.041 . S
O23 C27 1.277 . S
C24 O21 1.241 . S
C24 O22 1.280 . S
O25 Mg8 1.988 . S
O25 C27 1.245 . S
O26 C2 1.247 1_554 S
O26 Mg8 2.061 . S
C27 O23 1.277 . S
C27 O25 1.245 . S
O28 C2 1.289 . S
O28 Mg5 2.238 . S
O28 Mg6 2.104 1_556 S
O29 Mg6 2.076 1_556 S
O29 C11 1.245 . S
O30 Mg9 2.038 . S
O30 C11 1.274 1_554 S
C31 O43 1.241 . S
C31 O44 1.280 . S
C32 O45 1.277 . S
C32 O46 1.245 . S
C33 O57 1.247 . S
C33 O59 1.289 . S
Mg34 O35 1.926 . S
Mg34 O44 1.984 . S
Mg34 O46 1.988 1_554 S
Mg34 O47 2.061 . S
O35 Mg34 1.926 . S
O35 Mg36 1.986 . S
O35 Mg37 1.917 . S
Mg36 O35 1.986 . S
Mg36 O43 2.042 . S
Mg36 O45 2.041 1_554 S
Mg36 O51 2.038 . S
Mg36 O59 2.238 . S
Mg37 O35 1.917 . S
Mg37 O38 1.917 . S
Mg37 O48 2.106 . S
Mg37 O50 2.079 . S
Mg37 O59 2.106 . S
Mg37 O60 2.079 . S
O38 Mg37 1.917 . S
O38 Mg39 1.926 . S
O38 Mg40 1.986 . S
Mg39 O38 1.926 . S
Mg39 O53 1.984 . S
Mg39 O56 1.988 . S
Mg39 O57 2.061 . S
Mg40 O38 1.986 . S
Mg40 O48 2.238 . S
Mg40 O52 2.042 . S
Mg40 O54 2.041 . S
Mg40 O61 2.038 . S
C41 O47 1.247 . S
C41 O48 1.289 . S
C42 O60 1.245 . S
C42 O61 1.274 . S
O43 C31 1.241 . S
O43 Mg36 2.042 . S
O44 C31 1.280 . S
O44 Mg34 1.984 . S
O45 C32 1.277 . S
O45 Mg36 2.041 1_556 S
O46 C32 1.245 . S
O46 Mg34 1.988 1_556 S
O47 Mg34 2.061 . S
O47 C41 1.247 . S
O48 Mg37 2.106 . S
O48 Mg40 2.238 . S
O48 C41 1.289 . S
C49 O50 1.245 . S
C49 O51 1.274 . S
O50 Mg37 2.079 . S
O50 C49 1.245 . S
O51 Mg36 2.038 . S
O51 C49 1.274 . S
O52 Mg40 2.042 . S
O52 C55 1.241 . S
O53 Mg39 1.984 . S
O53 C55 1.280 . S
O54 Mg40 2.041 . S
O54 C58 1.277 . S
C55 O52 1.241 . S
C55 O53 1.280 . S
O56 Mg39 1.988 . S
O56 C58 1.245 . S
O57 C33 1.247 . S
O57 Mg39 2.061 . S
C58 O54 1.277 . S
C58 O56 1.245 . S
O59 C33 1.289 . S
O59 Mg36 2.238 . S
O59 Mg37 2.106 . S
O60 Mg37 2.079 . S
O60 C42 1.245 . S
O61 Mg40 2.038 . S
O61 C42 1.274 . S
C62 O74 1.241 . S
C62 O75 1.280 . S
C63 O76 1.277 . S
C63 O77 1.245 . S
C64 O88 1.247 . S
C64 O90 1.289 . S
Mg65 O66 1.926 . S
Mg65 O75 1.984 . S
Mg65 O77 1.988 . S
Mg65 O78 2.061 . S
O66 Mg65 1.926 . S
O66 Mg67 1.986 . S
O66 Mg68 1.917 . S
Mg67 O66 1.986 . S
Mg67 O74 2.042 . S
Mg67 O76 2.041 . S
Mg67 O82 2.038 . S
Mg67 O90 2.238 . S
Mg68 O66 1.917 . S
Mg68 O69 1.917 . S
Mg68 O79 2.106 . S
Mg68 O81 2.079 . S
Mg68 O90 2.106 . S
Mg68 O91 2.079 . S
O69 Mg68 1.917 . S
O69 Mg70 1.926 . S
O69 Mg71 1.986 . S
Mg70 O69 1.926 . S
Mg70 O84 1.984 . S
Mg70 O87 1.988 . S
Mg70 O88 2.061 . S
Mg71 O69 1.986 . S
Mg71 O79 2.238 . S
Mg71 O83 2.042 . S
Mg71 O85 2.041 . S
Mg71 O92 2.038 . S
C72 O78 1.247 . S
C72 O79 1.289 . S
C73 O91 1.245 . S
C73 O92 1.274 . S
O74 C62 1.241 . S
O74 Mg67 2.042 . S
O75 C62 1.280 . S
O75 Mg65 1.984 . S
O76 C63 1.277 . S
O76 Mg67 2.041 . S
O77 C63 1.245 . S
O77 Mg65 1.988 . S
O78 Mg65 2.061 . S
O78 C72 1.247 . S
O79 Mg68 2.106 . S
O79 Mg71 2.238 . S
O79 C72 1.289 . S
C80 O81 1.245 . S
C80 O82 1.274 . S
O81 Mg68 2.079 . S
O81 C80 1.245 . S
O82 Mg67 2.038 . S
O82 C80 1.274 . S
O83 Mg71 2.042 . S
O83 C86 1.241 . S
O84 Mg70 1.984 . S
O84 C86 1.280 . S
O85 Mg71 2.041 . S
O85 C89 1.277 . S
C86 O83 1.241 . S
C86 O84 1.280 . S
O87 Mg70 1.988 . S
O87 C89 1.245 . S
O88 C64 1.247 . S
O88 Mg70 2.061 . S
C89 O85 1.277 . S
C89 O87 1.245 . S
O90 C64 1.289 . S
O90 Mg67 2.238 . S
O90 Mg68 2.106 . S
O91 Mg68 2.079 . S
O91 C73 1.245 . S
O92 Mg71 2.038 . S
O92 C73 1.274 . S
C93 O105 1.241 . S
C93 O106 1.280 . S
C94 O107 1.277 . S
C94 O108 1.245 . S
C95 O119 1.247 . S
C95 O121 1.289 . S
Mg96 O97 1.926 . S
Mg96 O106 1.984 . S
Mg96 O108 1.988 . S
Mg96 O109 2.061 . S
O97 Mg96 1.926 . S
O97 Mg98 1.986 . S
O97 Mg99 1.917 . S
Mg98 O97 1.986 . S
Mg98 O105 2.042 . S
Mg98 O107 2.041 . S
Mg98 O113 2.038 . S
Mg98 O121 2.238 . S
Mg99 O97 1.917 . S
Mg99 O100 1.917 . S
Mg99 O110 2.106 . S
Mg99 O112 2.079 . S
Mg99 O121 2.106 . S
Mg99 O122 2.079 . S
O100 Mg99 1.917 . S
O100 Mg101 1.926 . S
O100 Mg102 1.986 . S
Mg101 O100 1.926 . S
Mg101 O115 1.984 . S
Mg101 O118 1.988 . S
Mg101 O119 2.061 . S
Mg102 O100 1.986 . S
Mg102 O110 2.238 . S
Mg102 O114 2.042 . S
Mg102 O116 2.041 . S
Mg102 O123 2.038 . S
C103 O109 1.247 . S
C103 O110 1.289 . S
C104 O122 1.245 . S
C104 O123 1.274 . S
O105 C93 1.241 . S
O105 Mg98 2.042 . S
O106 C93 1.280 . S
O106 Mg96 1.984 . S
O107 C94 1.277 . S
O107 Mg98 2.041 . S
O108 C94 1.245 . S
O108 Mg96 1.988 . S
O109 Mg96 2.061 . S
O109 C103 1.247 . S
O110 Mg99 2.106 . S
O110 Mg102 2.238 . S
O110 C103 1.289 . S
C111 O112 1.245 . S
C111 O113 1.274 . S
O112 Mg99 2.079 . S
O112 C111 1.245 . S
O113 Mg98 2.038 . S
O113 C111 1.274 . S
O114 Mg102 2.042 . S
O114 C117 1.241 . S
O115 Mg101 1.984 . S
O115 C117 1.280 . S
O116 Mg102 2.041 . S
O116 C120 1.277 . S
C117 O114 1.241 . S
C117 O115 1.280 . S
O118 Mg101 1.988 . S
O118 C120 1.245 . S
O119 C95 1.247 . S
O119 Mg101 2.061 . S
C120 O116 1.277 . S
C120 O118 1.245 . S
O121 C95 1.289 . S
O121 Mg98 2.238 . S
O121 Mg99 2.106 . S
O122 Mg99 2.079 . S
O122 C104 1.245 . S
O123 Mg102 2.038 . S
O123 C104 1.274 . S
C124 O136 1.241 . S
C124 O137 1.280 . S
C125 O138 1.277 . S
C125 O139 1.245 . S
C126 O150 1.247 . S
C126 O152 1.289 . S
Mg127 O128 1.926 . S
Mg127 O137 1.984 . S
Mg127 O139 1.988 . S
Mg127 O140 2.061 . S
O128 Mg127 1.926 . S
O128 Mg129 1.986 . S
O128 Mg130 1.917 . S
Mg129 O128 1.986 . S
Mg129 O136 2.042 . S
Mg129 O138 2.041 . S
Mg129 O144 2.038 . S
Mg129 O152 2.238 . S
Mg130 O128 1.917 . S
Mg130 O131 1.917 . S
Mg130 O141 2.106 . S
Mg130 O143 2.079 . S
Mg130 O152 2.106 . S
Mg130 O153 2.079 . S
O131 Mg130 1.917 . S
O131 Mg132 1.926 . S
O131 Mg133 1.986 . S
Mg132 O131 1.926 . S
Mg132 O146 1.984 . S
Mg132 O149 1.988 . S
Mg132 O150 2.061 . S
Mg133 O131 1.986 . S
Mg133 O141 2.238 . S
Mg133 O145 2.042 . S
Mg133 O147 2.041 . S
Mg133 O154 2.038 . S
C134 O140 1.247 . S
C134 O141 1.289 . S
C135 O153 1.245 . S
C135 O154 1.274 . S
O136 C124 1.241 . S
O136 Mg129 2.042 . S
O137 C124 1.280 . S
O137 Mg127 1.984 . S
O138 C125 1.277 . S
O138 Mg129 2.041 . S
O139 C125 1.245 . S
O139 Mg127 1.988 . S
O140 Mg127 2.061 . S
O140 C134 1.247 . S
O141 Mg130 2.106 . S
O141 Mg133 2.238 . S
O141 C134 1.289 . S
C142 O143 1.245 . S
C142 O144 1.274 . S
O143 Mg130 2.079 . S
O143 C142 1.245 . S
O144 Mg129 2.038 . S
O144 C142 1.274 . S
O145 Mg133 2.042 . S
O145 C148 1.241 . S
O146 Mg132 1.984 . S
O146 C148 1.280 . S
O147 Mg133 2.041 . S
O147 C151 1.277 . S
C148 O145 1.241 . S
C148 O146 1.280 . S
O149 Mg132 1.988 . S
O149 C151 1.245 . S
O150 C126 1.247 . S
O150 Mg132 2.061 . S
C151 O147 1.277 . S
C151 O149 1.245 . S
O152 C126 1.289 . S
O152 Mg129 2.238 . S
O152 Mg130 2.106 . S
O153 Mg130 2.079 . S
O153 C135 1.245 . S
O154 Mg133 2.038 . S
O154 C135 1.274 . S
C155 O167 1.241 . S
C155 O168 1.280 . S
C156 O169 1.277 . S
C156 O170 1.245 . S
C157 O181 1.247 . S
C157 O183 1.289 . S
Mg158 O159 1.926 . S
Mg158 O168 1.984 . S
Mg158 O170 1.988 . S
Mg158 O171 2.061 . S
O159 Mg158 1.926 . S
O159 Mg160 1.986 . S
O159 Mg161 1.917 . S
Mg160 O159 1.986 . S
Mg160 O167 2.042 . S
Mg160 O169 2.041 . S
Mg160 O175 2.038 . S
Mg160 O183 2.238 . S
Mg161 O159 1.917 . S
Mg161 O162 1.917 . S
Mg161 O172 2.106 . S
Mg161 O174 2.079 . S
Mg161 O183 2.106 . S
Mg161 O184 2.079 . S
O162 Mg161 1.917 . S
O162 Mg163 1.926 . S
O162 Mg164 1.986 . S
Mg163 O162 1.926 . S
Mg163 O177 1.984 . S
Mg163 O180 1.988 1_556 S
Mg163 O181 2.061 . S
Mg164 O162 1.986 . S
Mg164 O172 2.238 . S
Mg164 O176 2.042 . S
Mg164 O178 2.041 1_556 S
Mg164 O185 2.038 . S
C165 O171 1.247 . S
C165 O172 1.289 . S
C166 O184 1.245 . S
C166 O185 1.274 . S
O167 C155 1.241 . S
O167 Mg160 2.042 . S
O168 C155 1.280 . S
O168 Mg158 1.984 . S
O169 C156 1.277 . S
O169 Mg160 2.041 . S
O170 C156 1.245 . S
O170 Mg158 1.988 . S
O171 Mg158 2.061 . S
O171 C165 1.247 . S
O172 Mg161 2.106 . S
O172 Mg164 2.238 . S
O172 C165 1.289 . S
C173 O174 1.245 . S
C173 O175 1.274 . S
O174 Mg161 2.079 . S
O174 C173 1.245 . S
O175 Mg160 2.038 . S
O175 C173 1.274 . S
O176 Mg164 2.042 . S
O176 C179 1.241 . S
O177 Mg163 1.984 . S
O177 C179 1.280 . S
O178 Mg164 2.041 1_554 S
O178 C182 1.277 . S
C179 O176 1.241 . S
C179 O177 1.280 . S
O180 Mg163 1.988 1_554 S
O180 C182 1.245 . S
O181 C157 1.247 . S
O181 Mg163 2.061 . S
C182 O178 1.277 . S
C182 O180 1.245 . S
O183 C157 1.289 . S
O183 Mg160 2.238 . S
O183 Mg161 2.106 . S
O184 Mg161 2.079 . S
O184 C166 1.245 . S
O185 Mg164 2.038 . S
O185 C166 1.274 . S
H186 C198 0.930 . S
H187 C200 0.930 . S
H188 C201 0.930 . S
H189 C205 0.959 . S
H190 C205 0.959 . S
H191 C205 0.961 . S
H192 C206 0.960 . S
H193 C206 0.961 . S
H194 C206 0.959 . S
H195 C209 0.929 . S
H196 C210 0.931 . S
H197 C212 0.930 . S
C198 H186 0.930 . S
C198 C199 1.399 . S
C198 C203 1.399 . S
C199 C198 1.399 . S
C199 C200 1.376 . S
C200 H187 0.930 . S
C200 C199 1.376 . S
C200 C201 1.388 . S
C201 H188 0.930 . S
C201 C200 1.388 . S
C201 C202 1.390 . S
C202 C201 1.390 . S
C202 C203 1.394 . S
C202 C208 1.465 . S
C203 C198 1.399 . S
C203 C202 1.394 . S
C203 C204 1.516 . S
C204 C203 1.516 . S
C204 C205 1.502 . S
C204 C206 1.561 . S
C204 C207 1.526 . S
C205 H189 0.959 . S
C205 H190 0.959 . S
C205 H191 0.961 . S
C205 C204 1.502 . S
C206 H192 0.960 . S
C206 H193 0.961 . S
C206 H194 0.959 . S
C206 C204 1.561 . S
C207 C204 1.526 . S
C207 C208 1.396 . S
C207 C212 1.390 . S
C208 C202 1.465 . S
C208 C207 1.396 . S
C208 C209 1.399 . S
C209 H195 0.929 . S
C209 C208 1.399 . S
C209 C210 1.385 . S
C210 H196 0.931 . S
C210 C209 1.385 . S
C210 C211 1.389 . S
C211 C210 1.389 . S
C211 C212 1.387 . S
C212 H197 0.930 . S
C212 C207 1.390 . S
C212 C211 1.387 . S
H213 C225 0.930 . S
H214 C227 0.930 . S
H215 C228 0.930 . S
H216 C232 0.959 . S
H217 C232 0.959 . S
H218 C232 0.961 . S
H219 C233 0.960 . S
H220 C233 0.961 . S
H221 C233 0.959 . S
H222 C236 0.929 . S
H223 C237 0.931 . S
H224 C239 0.930 . S
C225 H213 0.930 . S
C225 C226 1.399 . S
C225 C230 1.399 . S
C226 C225 1.399 . S
C226 C227 1.376 . S
C227 H214 0.930 . S
C227 C226 1.376 . S
C227 C228 1.388 . S
C228 H215 0.930 . S
C228 C227 1.388 . S
C228 C229 1.390 . S
C229 C228 1.390 . S
C229 C230 1.394 . S
C229 C235 1.465 . S
C230 C225 1.399 . S
C230 C229 1.394 . S
C230 C231 1.516 . S
C231 C230 1.516 . S
C231 C232 1.502 . S
C231 C233 1.561 . S
C231 C234 1.526 . S
C232 H216 0.959 . S
C232 H217 0.959 . S
C232 H218 0.961 . S
C232 C231 1.502 . S
C233 H219 0.960 . S
C233 H220 0.961 . S
C233 H221 0.959 . S
C233 C231 1.561 . S
C234 C231 1.526 . S
C234 C235 1.396 . S
C234 C239 1.390 . S
C235 C229 1.465 . S
C235 C234 1.396 . S
C235 C236 1.399 . S
C236 H222 0.929 . S
C236 C235 1.399 . S
C236 C237 1.385 . S
C237 H223 0.931 . S
C237 C236 1.385 . S
C237 C238 1.389 . S
C238 C237 1.389 . S
C238 C239 1.387 . S
C239 H224 0.930 . S
C239 C234 1.390 . S
C239 C238 1.387 . S
H240 C252 0.930 . S
H241 C254 0.936 . S
H242 C255 0.930 . S
H243 C259 0.959 . S
H244 C259 0.959 . S
H245 C259 0.961 . S
H246 C260 0.960 . S
H247 C260 0.961 . S
H248 C260 0.959 . S
H249 C263 0.929 . S
H250 C264 0.931 . S
H251 C266 0.930 . S
C252 H240 0.930 . S
C252 C253 1.399 1_556 S
C252 C257 1.399 . S
C253 C252 1.399 1_554 S
C253 C254 1.379 . S
C254 H241 0.936 . S
C254 C253 1.379 . S
C254 C255 1.380 1_554 S
C255 H242 0.930 . S
C255 C254 1.380 1_556 S
C255 C256 1.390 . S
C256 C255 1.390 . S
C256 C257 1.394 . S
C256 C262 1.465 . S
C257 C252 1.399 . S
C257 C256 1.394 . S
C257 C258 1.516 . S
C258 C257 1.516 . S
C258 C259 1.502 . S
C258 C260 1.561 . S
C258 C261 1.526 . S
C259 H243 0.959 . S
C259 H244 0.959 . S
C259 H245 0.961 . S
C259 C258 1.502 . S
C260 H246 0.960 . S
C260 H247 0.961 . S
C260 H248 0.959 . S
C260 C258 1.561 . S
C261 C258 1.526 . S
C261 C262 1.396 . S
C261 C266 1.390 . S
C262 C256 1.465 . S
C262 C261 1.396 . S
C262 C263 1.399 . S
C263 H249 0.929 . S
C263 C262 1.399 . S
C263 C264 1.385 . S
C264 H250 0.931 . S
C264 C263 1.385 . S
C264 C265 1.389 . S
C265 C264 1.389 . S
C265 C266 1.387 . S
C266 H251 0.930 . S
C266 C261 1.390 . S
C266 C265 1.387 . S
H267 C279 0.930 . S
H268 C281 0.930 . S
H269 C282 0.930 . S
H270 C286 0.959 . S
H271 C286 0.959 . S
H272 C286 0.961 1_554 S
H273 C287 0.960 . S
H274 C287 0.961 1_556 S
H275 C287 0.958 1_556 S
H276 C290 0.929 . S
H277 C291 0.931 . S
H278 C293 0.930 . S
C279 H267 0.930 . S
C279 C280 1.399 . S
C279 C284 1.399 . S
C280 C279 1.399 . S
C280 C281 1.376 . S
C281 H268 0.930 . S
C281 C280 1.376 . S
C281 C282 1.388 . S
C282 H269 0.930 . S
C282 C281 1.388 . S
C282 C283 1.390 . S
C283 C282 1.390 . S
C283 C284 1.394 . S
C283 C289 1.465 1_554 S
C284 C279 1.399 . S
C284 C283 1.394 . S
C284 C285 1.510 1_554 S
C285 C284 1.510 1_556 S
C285 C286 1.502 . S
C285 C287 1.561 1_556 S
C285 C288 1.532 . S
C286 H270 0.959 . S
C286 H271 0.959 . S
C286 H272 0.961 1_556 S
C286 C285 1.502 . S
C287 H273 0.960 . S
C287 H274 0.961 1_554 S
C287 H275 0.958 1_554 S
C287 C285 1.561 1_554 S
C288 C285 1.532 . S
C288 C289 1.396 . S
C288 C293 1.390 . S
C289 C283 1.465 1_556 S
C289 C288 1.396 . S
C289 C290 1.399 . S
C290 H276 0.929 . S
C290 C289 1.399 . S
C290 C291 1.385 . S
C291 H277 0.931 . S
C291 C290 1.385 . S
C291 C292 1.389 . S
C292 C291 1.389 . S
C292 C293 1.387 . S
C293 H278 0.930 . S
C293 C288 1.390 . S
C293 C292 1.387 . S
H294 C306 0.930 . S
H295 C308 0.930 1_556 S
H296 C309 0.930 . S
H297 C313 0.959 . S
H298 C313 0.959 . S
H299 C313 0.961 . S
H300 C314 0.960 . S
H301 C314 0.961 . S
H302 C314 0.959 . S
H303 C317 0.929 . S
H304 C318 0.931 . S
H305 C320 0.930 . S
C306 H294 0.930 . S
C306 C307 1.399 1_554 S
C306 C311 1.399 . S
C307 C306 1.399 1_556 S
C307 C308 1.376 1_556 S
C308 H295 0.930 1_554 S
C308 C307 1.376 1_554 S
C308 C309 1.388 . S
C309 H296 0.930 . S
C309 C308 1.388 . S
C309 C310 1.390 . S
C310 C309 1.390 . S
C310 C311 1.394 . S
C310 C316 1.465 . S
C311 C306 1.399 . S
C311 C310 1.394 . S
C311 C312 1.516 . S
C312 C311 1.516 . S
C312 C313 1.502 . S
C312 C314 1.561 . S
C312 C315 1.526 . S
C313 H297 0.959 . S
C313 H298 0.959 . S
C313 H299 0.961 . S
C313 C312 1.502 . S
C314 H300 0.960 . S
C314 H301 0.961 . S
C314 H302 0.959 . S
C314 C312 1.561 . S
C315 C312 1.526 . S
C315 C316 1.396 . S
C315 C320 1.390 . S
C316 C310 1.465 . S
C316 C315 1.396 . S
C316 C317 1.399 . S
C317 H303 0.929 . S
C317 C316 1.399 . S
C317 C318 1.385 . S
C318 H304 0.931 . S
C318 C317 1.385 . S
C318 C319 1.389 . S
C319 C318 1.389 . S
C319 C320 1.387 . S
C320 H305 0.930 . S
C320 C315 1.390 . S
C320 C319 1.387 . S
H321 C333 0.930 . S
H322 C335 0.930 . S
H323 C336 0.930 . S
H324 C340 0.959 . S
H325 C340 0.959 . S
H326 C340 0.961 . S
H327 C341 0.960 . S
H328 C341 0.961 . S
H329 C341 0.959 . S
H330 C344 0.929 . S
H331 C345 0.931 . S
H332 C347 0.930 . S
C333 H321 0.930 . S
C333 C334 1.399 . S
C333 C338 1.399 . S
C334 C333 1.399 . S
C334 C335 1.376 . S
C335 H322 0.930 . S
C335 C334 1.376 . S
C335 C336 1.388 . S
C336 H323 0.930 . S
C336 C335 1.388 . S
C336 C337 1.390 . S
C337 C336 1.390 . S
C337 C338 1.394 . S
C337 C343 1.465 . S
C338 C333 1.399 . S
C338 C337 1.394 . S
C338 C339 1.516 . S
C339 C338 1.516 . S
C339 C340 1.502 . S
C339 C341 1.561 . S
C339 C342 1.526 . S
C340 H324 0.959 . S
C340 H325 0.959 . S
C340 H326 0.961 . S
C340 C339 1.502 . S
C341 H327 0.960 . S
C341 H328 0.961 . S
C341 H329 0.959 . S
C341 C339 1.561 . S
C342 C339 1.526 . S
C342 C343 1.396 . S
C342 C347 1.390 . S
C343 C337 1.465 . S
C343 C342 1.396 . S
C343 C344 1.399 . S
C344 H330 0.929 . S
C344 C343 1.399 . S
C344 C345 1.385 . S
C345 H331 0.931 . S
C345 C344 1.385 . S
C345 C346 1.389 . S
C346 C345 1.389 . S
C346 C347 1.387 . S
C347 H332 0.930 . S
C347 C342 1.390 . S
C347 C346 1.387 . S
H348 C360 0.930 . S
H349 C362 0.930 . S
H350 C363 0.930 . S
H351 C367 0.959 . S
H352 C367 0.959 . S
H353 C367 0.961 . S
H354 C368 0.960 . S
H355 C368 0.961 . S
H356 C368 0.959 . S
H357 C371 0.929 . S
H358 C372 0.931 . S
H359 C374 0.930 . S
C360 H348 0.930 . S
C360 C361 1.399 . S
C360 C365 1.399 . S
C361 C360 1.399 . S
C361 C362 1.376 . S
C362 H349 0.930 . S
C362 C361 1.376 . S
C362 C363 1.388 . S
C363 H350 0.930 . S
C363 C362 1.388 . S
C363 C364 1.390 . S
C364 C363 1.390 . S
C364 C365 1.394 . S
C364 C370 1.465 . S
C365 C360 1.399 . S
C365 C364 1.394 . S
C365 C366 1.516 . S
C366 C365 1.516 . S
C366 C367 1.502 . S
C366 C368 1.561 . S
C366 C369 1.526 . S
C367 H351 0.959 . S
C367 H352 0.959 . S
C367 H353 0.961 . S
C367 C366 1.502 . S
C368 H354 0.960 . S
C368 H355 0.961 . S
C368 H356 0.959 . S
C368 C366 1.561 . S
C369 C366 1.526 . S
C369 C370 1.396 . S
C369 C374 1.390 . S
C370 C364 1.465 . S
C370 C369 1.396 . S
C370 C371 1.399 . S
C371 H357 0.929 . S
C371 C370 1.399 . S
C371 C372 1.385 . S
C372 H358 0.931 . S
C372 C371 1.385 . S
C372 C373 1.389 . S
C373 C372 1.389 . S
C373 C374 1.387 . S
C374 H359 0.930 . S
C374 C369 1.390 . S
C374 C373 1.387 . S
H375 C387 0.930 . S
H376 C389 0.930 . S
H377 C390 0.930 . S
H378 C394 0.959 . S
H379 C394 0.959 . S
H380 C394 0.961 . S
H381 C395 0.960 . S
H382 C395 0.961 . S
H383 C395 0.959 . S
H384 C398 0.929 . S
H385 C399 0.931 . S
H386 C401 0.930 . S
C387 H375 0.930 . S
C387 C388 1.399 1_556 S
C387 C392 1.399 . S
C388 C387 1.399 1_554 S
C388 C389 1.376 . S
C389 H376 0.930 . S
C389 C388 1.376 . S
C389 C390 1.388 . S
C390 H377 0.930 . S
C390 C389 1.388 . S
C390 C391 1.390 1_554 S
C391 C390 1.390 1_556 S
C391 C392 1.394 . S
C391 C397 1.465 . S
C392 C387 1.399 . S
C392 C391 1.394 . S
C392 C393 1.516 . S
C393 C392 1.516 . S
C393 C394 1.502 . S
C393 C395 1.561 . S
C393 C396 1.526 . S
C394 H378 0.959 . S
C394 H379 0.959 . S
C394 H380 0.961 . S
C394 C393 1.502 . S
C395 H381 0.960 . S
C395 H382 0.961 . S
C395 H383 0.959 . S
C395 C393 1.561 . S
C396 C393 1.526 . S
C396 C397 1.396 . S
C396 C401 1.390 . S
C397 C391 1.465 . S
C397 C396 1.396 . S
C397 C398 1.399 1_556 S
C398 H384 0.929 . S
C398 C397 1.399 1_554 S
C398 C399 1.385 1_554 S
C399 H385 0.931 . S
C399 C398 1.385 1_556 S
C399 C400 1.389 . S
C400 C399 1.389 . S
C400 C401 1.387 . S
C401 H386 0.930 . S
C401 C396 1.390 . S
C401 C400 1.387 . S
H402 C414 0.930 . S
H403 C416 0.930 . S
H404 C417 0.930 . S
H405 C421 0.959 . S
H406 C421 0.959 . S
H407 C421 0.961 . S
H408 C422 0.960 . S
H409 C422 0.961 . S
H410 C422 0.959 . S
H411 C425 0.929 . S
H412 C426 0.931 . S
H413 C428 0.930 . S
C414 H402 0.930 . S
C414 C415 1.399 . S
C414 C419 1.399 . S
C415 C414 1.399 . S
C415 C416 1.376 . S
C416 H403 0.930 . S
C416 C415 1.376 . S
C416 C417 1.388 . S
C417 H404 0.930 . S
C417 C416 1.388 . S
C417 C418 1.390 . S
C418 C417 1.390 . S
C418 C419 1.394 . S
C418 C424 1.465 . S
C419 C414 1.399 . S
C419 C418 1.394 . S
C419 C420 1.516 . S
C420 C419 1.516 . S
C420 C421 1.502 . S
C420 C422 1.561 1_554 S
C420 C423 1.526 . S
C421 H405 0.959 . S
C421 H406 0.959 . S
C421 H407 0.961 . S
C421 C420 1.502 . S
C422 H408 0.960 . S
C422 H409 0.961 . S
C422 H410 0.959 . S
C422 C420 1.561 1_556 S
C423 C420 1.526 . S
C423 C424 1.396 . S
C423 C428 1.390 . S
C424 C418 1.465 . S
C424 C423 1.396 . S
C424 C425 1.399 . S
C425 H411 0.929 . S
C425 C424 1.399 . S
C425 C426 1.385 . S
C426 H412 0.931 . S
C426 C425 1.385 . S
C426 C427 1.389 . S
C427 C426 1.389 . S
C427 C428 1.387 . S
C428 H413 0.930 . S
C428 C423 1.390 . S
C428 C427 1.387 . S
H429 C441 0.930 . S
H430 C443 0.930 . S
H431 C444 0.930 . S
H432 C448 0.959 . S
H433 C448 0.959 . S
H434 C448 0.961 . S
H435 C449 0.960 . S
H436 C449 0.961 . S
H437 C449 0.959 . S
H438 C452 0.929 . S
H439 C453 0.931 . S
H440 C455 0.930 . S
C441 H429 0.930 . S
C441 C442 1.399 . S
C441 C446 1.399 . S
C442 C441 1.399 . S
C442 C443 1.376 . S
C443 H430 0.930 . S
C443 C442 1.376 . S
C443 C444 1.388 . S
C444 H431 0.930 . S
C444 C443 1.388 . S
C444 C445 1.390 . S
C445 C444 1.390 . S
C445 C446 1.394 . S
C445 C451 1.465 . S
C446 C441 1.399 . S
C446 C445 1.394 . S
C446 C447 1.516 . S
C447 C446 1.516 . S
C447 C448 1.502 . S
C447 C449 1.561 . S
C447 C450 1.526 . S
C448 H432 0.959 . S
C448 H433 0.959 . S
C448 H434 0.961 . S
C448 C447 1.502 . S
C449 H435 0.960 . S
C449 H436 0.961 . S
C449 H437 0.959 . S
C449 C447 1.561 . S
C450 C447 1.526 . S
C450 C451 1.396 . S
C450 C455 1.390 . S
C451 C445 1.465 . S
C451 C450 1.396 . S
C451 C452 1.399 . S
C452 H438 0.929 . S
C452 C451 1.399 . S
C452 C453 1.385 . S
C453 H439 0.931 . S
C453 C452 1.385 . S
C453 C454 1.389 . S
C454 C453 1.389 . S
C454 C455 1.387 . S
C455 H440 0.930 . S
C455 C450 1.390 . S
C455 C454 1.387 . S
H456 C468 0.930 . S
H457 C470 0.930 . S
H458 C471 0.930 . S
H459 C475 0.959 . S
H460 C475 0.959 . S
H461 C475 0.961 . S
H462 C476 0.960 . S
H463 C476 0.961 . S
H464 C476 0.959 . S
H465 C479 0.929 . S
H466 C480 0.931 . S
H467 C482 0.930 . S
C468 H456 0.930 . S
C468 C469 1.399 . S
C468 C473 1.399 . S
C469 C468 1.399 . S
C469 C470 1.376 . S
C470 H457 0.930 . S
C470 C469 1.376 . S
C470 C471 1.388 . S
C471 H458 0.930 . S
C471 C470 1.388 . S
C471 C472 1.390 . S
C472 C471 1.390 . S
C472 C473 1.394 . S
C472 C478 1.465 . S
C473 C468 1.399 . S
C473 C472 1.394 . S
C473 C474 1.516 . S
C474 C473 1.516 . S
C474 C475 1.502 . S
C474 C476 1.561 . S
C474 C477 1.526 . S
C475 H459 0.959 . S
C475 H460 0.959 . S
C475 H461 0.961 . S
C475 C474 1.502 . S
C476 H462 0.960 . S
C476 H463 0.961 . S
C476 H464 0.959 . S
C476 C474 1.561 . S
C477 C474 1.526 . S
C477 C478 1.396 . S
C477 C482 1.390 . S
C478 C472 1.465 . S
C478 C477 1.396 . S
C478 C479 1.399 . S
C479 H465 0.929 . S
C479 C478 1.399 . S
C479 C480 1.385 . S
C480 H466 0.931 . S
C480 C479 1.385 . S
C480 C481 1.389 . S
C481 C480 1.389 . S
C481 C482 1.387 . S
C482 H467 0.930 . S
C482 C477 1.390 . S
C482 C481 1.387 . S
H483 C495 0.930 . S
H484 C497 0.930 . S
H485 C498 0.930 . S
H486 C502 0.959 . S
H487 C502 0.959 . S
H488 C502 0.961 . S
H489 C503 0.960 . S
H490 C503 0.961 . S
H491 C503 0.959 . S
H492 C506 0.929 . S
H493 C507 0.931 . S
H494 C509 0.930 . S
C495 H483 0.930 . S
C495 C496 1.399 . S
C495 C500 1.399 . S
C496 C495 1.399 . S
C496 C497 1.376 . S
C497 H484 0.930 . S
C497 C496 1.376 . S
C497 C498 1.388 . S
C498 H485 0.930 . S
C498 C497 1.388 . S
C498 C499 1.390 . S
C499 C498 1.390 . S
C499 C500 1.394 . S
C499 C505 1.465 . S
C500 C495 1.399 . S
C500 C499 1.394 . S
C500 C501 1.516 . S
C501 C500 1.516 . S
C501 C502 1.502 . S
C501 C503 1.561 . S
C501 C504 1.526 . S
C502 H486 0.959 . S
C502 H487 0.959 . S
C502 H488 0.961 . S
C502 C501 1.502 . S
C503 H489 0.960 . S
C503 H490 0.961 . S
C503 H491 0.959 . S
C503 C501 1.561 . S
C504 C501 1.526 . S
C504 C505 1.396 . S
C504 C509 1.390 . S
C505 C499 1.465 . S
C505 C504 1.396 . S
C505 C506 1.399 . S
C506 H492 0.929 . S
C506 C505 1.399 . S
C506 C507 1.385 . S
C507 H493 0.931 . S
C507 C506 1.385 . S
C507 C508 1.389 . S
C508 C507 1.389 . S
C508 C509 1.387 . S
C509 H494 0.930 . S
C509 C504 1.390 . S
C509 C508 1.387 . S
H510 C522 0.930 1_556 S
H511 C524 0.930 . S
H512 C525 0.930 . S
H513 C529 0.959 1_554 S
H514 C529 0.959 . S
H515 C529 0.961 . S
H516 C530 0.960 . S
H517 C530 0.961 . S
H518 C530 0.959 . S
H519 C533 0.929 . S
H520 C534 0.931 1_565 S
H521 C536 0.930 . S
C522 H510 0.930 1_554 S
C522 C523 1.399 . S
C522 C527 1.399 . S
C523 C522 1.399 . S
C523 C524 1.376 . S
C524 H511 0.930 . S
C524 C523 1.376 . S
C524 C525 1.388 . S
C525 H512 0.930 . S
C525 C524 1.388 . S
C525 C526 1.390 . S
C526 C525 1.390 . S
C526 C527 1.394 . S
C526 C532 1.465 . S
C527 C522 1.399 . S
C527 C526 1.394 . S
C527 C528 1.516 . S
C528 C527 1.516 . S
C528 C529 1.502 1_554 S
C528 C530 1.561 1_554 S
C528 C531 1.526 . S
C529 H513 0.959 1_556 S
C529 H514 0.959 . S
C529 H515 0.961 . S
C529 C528 1.502 1_556 S
C530 H516 0.960 . S
C530 H517 0.961 . S
C530 H518 0.959 . S
C530 C528 1.561 1_556 S
C531 C528 1.526 . S
C531 C532 1.396 . S
C531 C536 1.390 . S
C532 C526 1.465 . S
C532 C531 1.396 . S
C532 C533 1.399 . S
C533 H519 0.929 . S
C533 C532 1.399 . S
C533 C534 1.385 . S
C534 H520 0.931 1_545 S
C534 C533 1.385 . S
C534 C535 1.389 1_545 S
C535 C534 1.389 1_565 S
C535 C536 1.387 1_565 S
C536 H521 0.930 . S
C536 C531 1.390 . S
C536 C535 1.387 1_545 S
H537 C549 0.930 . S
H538 C551 0.930 . S
H539 C552 0.930 . S
H540 C556 0.959 . S
H541 C556 0.959 . S
H542 C556 0.961 . S
H543 C557 0.960 . S
H544 C557 0.961 . S
H545 C557 0.959 . S
H546 C560 0.929 . S
H547 C561 0.931 . S
H548 C563 0.930 . S
C549 H537 0.930 . S
C549 C550 1.399 . S
C549 C554 1.399 . S
C550 C549 1.399 . S
C550 C551 1.376 . S
C551 H538 0.930 . S
C551 C550 1.376 . S
C551 C552 1.388 . S
C552 H539 0.930 . S
C552 C551 1.388 . S
C552 C553 1.390 . S
C553 C552 1.390 . S
C553 C554 1.394 . S
C553 C559 1.465 . S
C554 C549 1.399 . S
C554 C553 1.394 . S
C554 C555 1.516 . S
C555 C554 1.516 . S
C555 C556 1.502 . S
C555 C557 1.561 . S
C555 C558 1.526 . S
C556 H540 0.959 . S
C556 H541 0.959 . S
C556 H542 0.961 . S
C556 C555 1.502 . S
C557 H543 0.960 . S
C557 H544 0.961 . S
C557 H545 0.959 . S
C557 C555 1.561 . S
C558 C555 1.526 . S
C558 C559 1.396 . S
C558 C563 1.390 . S
C559 C553 1.465 . S
C559 C558 1.396 . S
C559 C560 1.399 . S
C560 H546 0.929 . S
C560 C559 1.399 . S
C560 C561 1.385 . S
C561 H547 0.931 . S
C561 C560 1.385 . S
C561 C562 1.389 . S
C562 C561 1.389 . S
C562 C563 1.387 . S
C563 H548 0.930 . S
C563 C558 1.390 . S
C563 C562 1.387 . S
H564 C576 0.930 . S
H565 C578 0.930 1_455 S
H566 C579 0.930 . S
H567 C583 0.959 . S
H568 C583 0.959 . S
H569 C583 0.961 . S
H570 C584 0.960 . S
H571 C584 0.961 . S
H572 C584 0.959 . S
H573 C587 0.929 . S
H574 C588 0.931 . S
H575 C590 0.930 . S
C576 H564 0.930 . S
C576 C577 1.399 1_655 S
C576 C581 1.399 . S
C577 C576 1.399 1_455 S
C577 C578 1.376 1_455 S
C578 H565 0.930 1_655 S
C578 C577 1.376 1_655 S
C578 C579 1.388 . S
C579 H566 0.930 . S
C579 C578 1.388 . S
C579 C580 1.390 . S
C580 C579 1.390 . S
C580 C581 1.394 . S
C580 C586 1.465 . S
C581 C576 1.399 . S
C581 C580 1.394 . S
C581 C582 1.516 . S
C582 C581 1.516 . S
C582 C583 1.502 . S
C582 C584 1.561 . S
C582 C585 1.526 . S
C583 H567 0.959 . S
C583 H568 0.959 . S
C583 H569 0.961 . S
C583 C582 1.502 . S
C584 H570 0.960 . S
C584 H571 0.961 . S
C584 H572 0.959 . S
C584 C582 1.561 . S
C585 C582 1.526 . S
C585 C586 1.396 . S
C585 C590 1.390 . S
C586 C580 1.465 . S
C586 C585 1.396 . S
C586 C587 1.399 . S
C587 H573 0.929 . S
C587 C586 1.399 . S
C587 C588 1.385 . S
C588 H574 0.931 . S
C588 C587 1.385 . S
C588 C589 1.389 . S
C589 C588 1.389 . S
C589 C590 1.387 . S
C590 H575 0.930 . S
C590 C585 1.390 . S
C590 C589 1.387 . S
H591 C603 0.930 . S
H592 C605 0.930 . S
H593 C606 0.930 . S
H594 C610 0.959 . S
H595 C610 0.959 . S
H596 C610 0.961 . S
H597 C611 0.960 . S
H598 C611 0.961 . S
H599 C611 0.959 . S
H600 C614 0.929 . S
H601 C615 0.931 1_545 S
H602 C617 0.930 . S
C603 H591 0.930 . S
C603 C604 1.399 . S
C603 C608 1.399 . S
C604 C603 1.399 . S
C604 C605 1.376 . S
C605 H592 0.930 . S
C605 C604 1.376 . S
C605 C606 1.388 . S
C606 H593 0.930 . S
C606 C605 1.388 . S
C606 C607 1.390 . S
C607 C606 1.390 . S
C607 C608 1.394 . S
C607 C613 1.465 . S
C608 C603 1.399 . S
C608 C607 1.394 . S
C608 C609 1.516 . S
C609 C608 1.516 . S
C609 C610 1.502 . S
C609 C611 1.561 . S
C609 C612 1.526 . S
C610 H594 0.959 . S
C610 H595 0.959 . S
C610 H596 0.961 . S
C610 C609 1.502 . S
C611 H597 0.960 . S
C611 H598 0.961 . S
C611 H599 0.959 . S
C611 C609 1.561 . S
C612 C609 1.526 . S
C612 C613 1.396 . S
C612 C617 1.390 . S
C613 C607 1.465 . S
C613 C612 1.396 . S
C613 C614 1.399 . S
C614 H600 0.929 . S
C614 C613 1.399 . S
C614 C615 1.385 . S
C615 H601 0.931 1_565 S
C615 C614 1.385 . S
C615 C616 1.389 1_565 S
C616 C615 1.389 1_545 S
C616 C617 1.387 1_545 S
C617 H602 0.930 . S
C617 C612 1.390 . S
C617 C616 1.387 1_565 S
H618 C630 0.930 . S
H619 C632 0.930 . S
H620 C633 0.930 . S
H621 C637 0.959 . S
H622 C637 0.959 . S
H623 C637 0.961 . S
H624 C638 0.960 . S
H625 C638 0.961 . S
H626 C638 0.959 . S
H627 C641 0.929 . S
H628 C642 0.931 . S
H629 C644 0.930 . S
C630 H618 0.930 . S
C630 C631 1.399 . S
C630 C635 1.399 . S
C631 C630 1.399 . S
C631 C632 1.376 . S
C632 H619 0.930 . S
C632 C631 1.376 . S
C632 C633 1.388 . S
C633 H620 0.930 . S
C633 C632 1.388 . S
C633 C634 1.390 . S
C634 C633 1.390 . S
C634 C635 1.394 . S
C634 C640 1.465 . S
C635 C630 1.399 . S
C635 C634 1.394 . S
C635 C636 1.516 . S
C636 C635 1.516 . S
C636 C637 1.502 . S
C636 C638 1.561 . S
C636 C639 1.526 . S
C637 H621 0.959 . S
C637 H622 0.959 . S
C637 H623 0.961 . S
C637 C636 1.502 . S
C638 H624 0.960 . S
C638 H625 0.961 . S
C638 H626 0.959 . S
C638 C636 1.561 . S
C639 C636 1.526 . S
C639 C640 1.396 . S
C639 C644 1.390 . S
C640 C634 1.465 . S
C640 C639 1.396 . S
C640 C641 1.399 . S
C641 H627 0.929 . S
C641 C640 1.399 . S
C641 C642 1.385 . S
C642 H628 0.931 . S
C642 C641 1.385 . S
C642 C643 1.389 . S
C643 C642 1.389 . S
C643 C644 1.387 . S
C644 H629 0.930 . S
C644 C639 1.390 . S
C644 C643 1.387 . S
H645 C657 0.930 . S
H646 C659 0.930 1_655 S
H647 C660 0.930 . S
H648 C664 0.959 . S
H649 C664 0.959 . S
H650 C664 0.961 . S
H651 C665 0.960 . S
H652 C665 0.961 . S
H653 C665 0.959 . S
H654 C668 0.929 . S
H655 C669 0.931 1_554 S
H656 C671 0.930 . S
C657 H645 0.930 . S
C657 C658 1.399 1_455 S
C657 C662 1.399 . S
C658 C657 1.399 1_655 S
C658 C659 1.376 1_656 S
C659 H646 0.930 1_455 S
C659 C658 1.376 1_454 S
C659 C660 1.388 . S
C660 H647 0.930 . S
C660 C659 1.388 . S
C660 C661 1.390 1_554 S
C661 C660 1.390 1_556 S
C661 C662 1.394 . S
C661 C667 1.465 . S
C662 C657 1.399 . S
C662 C661 1.394 . S
C662 C663 1.516 . S
C663 C662 1.516 . S
C663 C664 1.502 . S
C663 C665 1.561 . S
C663 C666 1.526 . S
C664 H648 0.959 . S
C664 H649 0.959 . S
C664 H650 0.961 . S
C664 C663 1.502 . S
C665 H651 0.960 . S
C665 H652 0.961 . S
C665 H653 0.959 . S
C665 C663 1.561 . S
C666 C663 1.526 . S
C666 C667 1.396 . S
C666 C671 1.390 . S
C667 C661 1.465 . S
C667 C666 1.396 . S
C667 C668 1.399 1_556 S
C668 H654 0.929 . S
C668 C667 1.399 1_554 S
C668 C669 1.385 1_554 S
C669 H655 0.931 1_556 S
C669 C668 1.385 1_556 S
C669 C670 1.389 . S
C670 C669 1.389 . S
C670 C671 1.387 . S
C671 H656 0.930 . S
C671 C666 1.390 . S
C671 C670 1.387 . S
H672 C684 0.930 . S
H673 C686 0.930 . S
H674 C687 0.930 . S
H675 C691 0.959 . S
H676 C691 0.959 . S
H677 C691 0.961 . S
H678 C692 0.960 . S
H679 C692 0.961 . S
H680 C692 0.959 . S
H681 C695 0.929 1_655 S
H682 C696 0.931 . S
H683 C698 0.930 . S
C684 H672 0.930 . S
C684 C685 1.399 . S
C684 C689 1.399 . S
C685 C684 1.399 . S
C685 C686 1.376 1_455 S
C686 H673 0.930 . S
C686 C685 1.376 1_655 S
C686 C687 1.388 . S
C687 H674 0.930 . S
C687 C686 1.388 . S
C687 C688 1.390 1_655 S
C688 C687 1.390 1_455 S
C688 C689 1.394 . S
C688 C694 1.465 . S
C689 C684 1.399 . S
C689 C688 1.394 . S
C689 C690 1.516 . S
C690 C689 1.516 . S
C690 C691 1.502 . S
C690 C692 1.561 . S
C690 C693 1.526 . S
C691 H675 0.959 . S
C691 H676 0.959 . S
C691 H677 0.961 . S
C691 C690 1.502 . S
C692 H678 0.960 . S
C692 H679 0.961 . S
C692 H680 0.959 . S
C692 C690 1.561 . S
C693 C690 1.526 . S
C693 C694 1.396 . S
C693 C698 1.390 . S
C694 C688 1.465 . S
C694 C693 1.396 . S
C694 C695 1.399 . S
C695 H681 0.929 1_455 S
C695 C694 1.399 . S
C695 C696 1.385 . S
C696 H682 0.931 . S
C696 C695 1.385 . S
C696 C697 1.389 . S
C697 C696 1.389 . S
C697 C698 1.387 . S
C698 H683 0.930 . S
C698 C693 1.390 . S
C698 C697 1.387 . S
H699 C711 0.930 . S
H700 C713 0.930 . S
H701 C714 0.930 1_565 S
H702 C718 0.959 . S
H703 C718 0.959 . S
H704 C718 0.961 . S
H705 C719 0.960 . S
H706 C719 0.961 . S
H707 C719 0.959 . S
H708 C722 0.929 . S
H709 C723 0.931 . S
H710 C725 0.930 . S
C711 H699 0.930 . S
C711 C712 1.399 . S
C711 C716 1.399 . S
C712 C711 1.399 . S
C712 C713 1.376 . S
C713 H700 0.930 . S
C713 C712 1.376 . S
C713 C714 1.388 . S
C714 H701 0.930 1_545 S
C714 C713 1.388 . S
C714 C715 1.390 . S
C715 C714 1.390 . S
C715 C716 1.394 . S
C715 C721 1.465 . S
C716 C711 1.399 . S
C716 C715 1.394 . S
C716 C717 1.516 . S
C717 C716 1.516 . S
C717 C718 1.502 . S
C717 C719 1.561 . S
C717 C720 1.526 . S
C718 H702 0.959 . S
C718 H703 0.959 . S
C718 H704 0.961 . S
C718 C717 1.502 . S
C719 H705 0.960 . S
C719 H706 0.961 . S
C719 H707 0.959 . S
C719 C717 1.561 . S
C720 C717 1.526 . S
C720 C721 1.396 . S
C720 C725 1.390 . S
C721 C715 1.465 . S
C721 C720 1.396 . S
C721 C722 1.399 1_545 S
C722 H708 0.929 . S
C722 C721 1.399 1_565 S
C722 C723 1.385 . S
C723 H709 0.931 . S
C723 C722 1.385 . S
C723 C724 1.389 1_565 S
C724 C723 1.389 1_545 S
C724 C725 1.387 . S
C725 H710 0.930 . S
C725 C720 1.390 . S
C725 C724 1.387 . S
H726 C738 0.930 . S
H727 C740 0.930 . S
H728 C741 0.930 . S
H729 C745 0.959 . S
H730 C745 0.959 . S
H731 C745 0.961 . S
H732 C746 0.960 . S
H733 C746 0.961 . S
H734 C746 0.959 . S
H735 C749 0.929 . S
H736 C750 0.931 . S
H737 C752 0.930 . S
C738 H726 0.930 . S
C738 C739 1.399 . S
C738 C743 1.399 . S
C739 C738 1.399 . S
C739 C740 1.376 . S
C740 H727 0.930 . S
C740 C739 1.376 . S
C740 C741 1.388 . S
C741 H728 0.930 . S
C741 C740 1.388 . S
C741 C742 1.390 . S
C742 C741 1.390 . S
C742 C743 1.394 . S
C742 C748 1.465 . S
C743 C738 1.399 . S
C743 C742 1.394 . S
C743 C744 1.516 . S
C744 C743 1.516 . S
C744 C745 1.502 . S
C744 C746 1.561 . S
C744 C747 1.526 . S
C745 H729 0.959 . S
C745 H730 0.959 . S
C745 H731 0.961 . S
C745 C744 1.502 . S
C746 H732 0.960 . S
C746 H733 0.961 . S
C746 H734 0.959 . S
C746 C744 1.561 . S
C747 C744 1.526 . S
C747 C748 1.396 . S
C747 C752 1.390 . S
C748 C742 1.465 . S
C748 C747 1.396 . S
C748 C749 1.399 . S
C749 H735 0.929 . S
C749 C748 1.399 . S
C749 C750 1.385 . S
C750 H736 0.931 . S
C750 C749 1.385 . S
C750 C751 1.389 . S
C751 C750 1.389 . S
C751 C752 1.387 . S
C752 H737 0.930 . S
C752 C747 1.390 . S
C752 C751 1.387 . S
H753 C765 0.927 1_455 S
H754 C767 0.930 . S
H755 C768 0.930 . S
H756 C772 0.959 . S
H757 C772 0.959 . S
H758 C772 0.961 . S
H759 C773 0.960 . S
H760 C773 0.961 . S
H761 C773 0.959 . S
H762 C776 0.929 . S
H763 C777 0.931 . S
H764 C779 0.930 . S
C765 H753 0.927 1_655 S
C765 C766 1.402 . S
C765 C770 1.399 . S
C766 C765 1.402 . S
C766 C767 1.376 . S
C767 H754 0.930 . S
C767 C766 1.376 . S
C767 C768 1.388 . S
C768 H755 0.930 . S
C768 C767 1.388 . S
C768 C769 1.390 . S
C769 C768 1.390 . S
C769 C770 1.394 . S
C769 C775 1.465 . S
C770 C765 1.399 . S
C770 C769 1.394 . S
C770 C771 1.516 . S
C771 C770 1.516 . S
C771 C772 1.502 1_655 S
C771 C773 1.561 . S
C771 C774 1.526 . S
C772 H756 0.959 . S
C772 H757 0.959 . S
C772 H758 0.961 . S
C772 C771 1.502 1_455 S
C773 H759 0.960 . S
C773 H760 0.961 . S
C773 H761 0.959 . S
C773 C771 1.561 . S
C774 C771 1.526 . S
C774 C775 1.396 . S
C774 C779 1.390 . S
C775 C769 1.465 . S
C775 C774 1.396 . S
C775 C776 1.399 . S
C776 H762 0.929 . S
C776 C775 1.399 . S
C776 C777 1.385 . S
C777 H763 0.931 . S
C777 C776 1.385 . S
C777 C778 1.389 . S
C778 C777 1.389 . S
C778 C779 1.387 . S
C779 H764 0.930 . S
C779 C774 1.390 . S
C779 C778 1.387 . S
H780 C792 0.930 . S
H781 C794 0.930 . S
H782 C795 0.930 . S
H783 C799 0.959 . S
H784 C799 0.959 . S
H785 C799 0.961 . S
H786 C800 0.960 . S
H787 C800 0.961 . S
H788 C800 0.959 . S
H789 C803 0.929 . S
H790 C804 0.931 . S
H791 C806 0.930 . S
C792 H780 0.930 . S
C792 C793 1.399 . S
C792 C797 1.399 . S
C793 C792 1.399 . S
C793 C794 1.376 . S
C794 H781 0.930 . S
C794 C793 1.376 . S
C794 C795 1.388 1_554 S
C795 H782 0.930 . S
C795 C794 1.388 1_556 S
C795 C796 1.390 . S
C796 C795 1.390 . S
C796 C797 1.394 1_556 S
C796 C802 1.465 . S
C797 C792 1.399 . S
C797 C796 1.394 1_554 S
C797 C798 1.516 1_564 S
C798 C797 1.516 1_546 S
C798 C799 1.502 1_556 S
C798 C800 1.561 . S
C798 C801 1.526 1_545 S
C799 H783 0.959 . S
C799 H784 0.959 . S
C799 H785 0.961 . S
C799 C798 1.502 1_554 S
C800 H786 0.960 . S
C800 H787 0.961 . S
C800 H788 0.959 . S
C800 C798 1.561 . S
C801 C798 1.526 1_565 S
C801 C802 1.396 . S
C801 C806 1.390 1_565 S
C802 C796 1.465 . S
C802 C801 1.396 . S
C802 C803 1.399 . S
C803 H789 0.929 . S
C803 C802 1.399 . S
C803 C804 1.385 . S
C804 H790 0.931 . S
C804 C803 1.385 . S
C804 C805 1.389 . S
C805 C804 1.389 . S
C805 C806 1.387 1_565 S
C806 H791 0.930 . S
C806 C801 1.390 1_545 S
C806 C805 1.387 1_545 S
H807 C819 0.930 . S
H808 C821 0.930 . S
H809 C822 0.930 1_556 S
H810 C826 0.959 . S
H811 C826 0.959 . S
H812 C826 0.961 . S
H813 C827 0.960 . S
H814 C827 0.961 . S
H815 C827 0.959 . S
H816 C830 0.929 . S
H817 C831 0.931 . S
H818 C833 0.930 . S
C819 H807 0.930 . S
C819 C820 1.399 1_554 S
C819 C824 1.399 . S
C820 C819 1.399 1_556 S
C820 C821 1.376 . S
C821 H808 0.930 . S
C821 C820 1.376 . S
C821 C822 1.388 1_556 S
C822 H809 0.930 1_554 S
C822 C821 1.388 1_554 S
C822 C823 1.390 . S
C823 C822 1.390 . S
C823 C824 1.394 . S
C823 C829 1.465 . S
C824 C819 1.399 . S
C824 C823 1.394 . S
C824 C825 1.516 . S
C825 C824 1.516 . S
C825 C826 1.502 . S
C825 C827 1.561 . S
C825 C828 1.526 . S
C826 H810 0.959 . S
C826 H811 0.959 . S
C826 H812 0.961 . S
C826 C825 1.502 . S
C827 H813 0.960 . S
C827 H814 0.961 . S
C827 H815 0.959 . S
C827 C825 1.561 . S
C828 C825 1.526 . S
C828 C829 1.396 . S
C828 C833 1.390 . S
C829 C823 1.465 . S
C829 C828 1.396 . S
C829 C830 1.399 . S
C830 H816 0.929 . S
C830 C829 1.399 . S
C830 C831 1.385 . S
C831 H817 0.931 . S
C831 C830 1.385 . S
C831 C832 1.389 . S
C832 C831 1.389 . S
C832 C833 1.387 . S
C833 H818 0.930 . S
C833 C828 1.390 . S
C833 C832 1.387 . S
C199 C27 1.429 . S
C211 C1 1.506 . S
C226 C58 1.447 . S
C238 C32 1.503 . S
C253 C63 1.428 . S
C265 C89 1.511 . S
C280 C94 1.465 . S
C292 C120 1.463 . S
C307 C151 1.494 . S
C319 C125 1.438 . S
C334 C182 1.478 . S
C346 C156 1.476 . S
C361 C134 1.293 . S
C373 C0 1.352 . S
C388 C31 1.356 . S
C400 C165 1.284 . S
C415 C10 1.343 . S
C427 C62 1.271 . S
C442 C41 1.293 . S
C454 C93 1.352 . S
C469 C124 1.280 . S
C481 C72 1.343 . S
C496 C103 1.214 . S
C508 C155 1.324 . S
C523 C18 2.063 . S
C535 C33 2.011 . S
C550 C49 2.009 . S
C562 C64 2.067 . S
C577 C95 2.073 . S
C589 C80 2.008 . S
C604 C111 2.067 . S
C616 C126 2.008 . S
C631 C142 2.045 . S
C643 C157 2.029 . S
C658 C2 1.997 . S
C670 C173 2.080 . S
C685 C24 0.724 1_455 S
C697 C104 0.937 . S
C712 C135 0.919 . S
C724 C55 0.726 1_545 S
C739 C86 0.913 . S
C751 C166 0.930 . S
C766 C117 0.954 1_655 S
C778 C11 0.892 . S
C793 C42 0.889 . S
C805 C148 0.952 1_565 S
C820 C179 0.877 . S
C832 C73 0.943 . S
