# Generated by pormake.
# Topology whr, (6)-cn, num edge types: 1
# Building blocks:
#     Node 0, Type 0, BuildingBlock: OJICUG_clean_sbu_0, # of connection points: 6
#     Node 1, Type 0, BuildingBlock: OJICUG_clean_sbu_0, # of connection points: 6
#     Node 2, Type 0, BuildingBlock: OJICUG_clean_sbu_0, # of connection points: 6
#     Node 3, Type 0, BuildingBlock: OJICUG_clean_sbu_0, # of connection points: 6
#     Node 4, Type 0, BuildingBlock: OJICUG_clean_sbu_0, # of connection points: 6
#     Node 5, Type 0, BuildingBlock: OJICUG_clean_sbu_0, # of connection points: 6
#     Node 6, Type 0, BuildingBlock: OJICUG_clean_sbu_0, # of connection points: 6
#     Node 7, Type 0, BuildingBlock: OJICUG_clean_sbu_0, # of connection points: 6
#     Node 8, Type 0, BuildingBlock: OJICUG_clean_sbu_0, # of connection points: 6
#     Node 9, Type 0, BuildingBlock: OJICUG_clean_sbu_0, # of connection points: 6
#     Node 10, Type 0, BuildingBlock: OJICUG_clean_sbu_0, # of connection points: 6
#     Node 11, Type 0, BuildingBlock: OJICUG_clean_sbu_0, # of connection points: 6
#     Node 12, Type 0, BuildingBlock: OJICUG_clean_sbu_0, # of connection points: 6
#     Node 13, Type 0, BuildingBlock: OJICUG_clean_sbu_0, # of connection points: 6
#     Node 14, Type 0, BuildingBlock: OJICUG_clean_sbu_0, # of connection points: 6
#     Node 15, Type 0, BuildingBlock: OJICUG_clean_sbu_0, # of connection points: 6
#     Edge 16, Type (0, 0), BuildingBlock: XUDNAN_clean_linker_2, # of connection points: 2
#     Edge 17, Type (0, 0), BuildingBlock: XUDNAN_clean_linker_2, # of connection points: 2
#     Edge 18, Type (0, 0), BuildingBlock: XUDNAN_clean_linker_2, # of connection points: 2
#     Edge 19, Type (0, 0), BuildingBlock: XUDNAN_clean_linker_2, # of connection points: 2
#     Edge 20, Type (0, 0), BuildingBlock: XUDNAN_clean_linker_2, # of connection points: 2
#     Edge 21, Type (0, 0), BuildingBlock: XUDNAN_clean_linker_2, # of connection points: 2
#     Edge 22, Type (0, 0), BuildingBlock: XUDNAN_clean_linker_2, # of connection points: 2
#     Edge 23, Type (0, 0), BuildingBlock: XUDNAN_clean_linker_2, # of connection points: 2
#     Edge 24, Type (0, 0), BuildingBlock: XUDNAN_clean_linker_2, # of connection points: 2
#     Edge 25, Type (0, 0), BuildingBlock: XUDNAN_clean_linker_2, # of connection points: 2
#     Edge 26, Type (0, 0), BuildingBlock: XUDNAN_clean_linker_2, # of connection points: 2
#     Edge 27, Type (0, 0), BuildingBlock: XUDNAN_clean_linker_2, # of connection points: 2
#     Edge 28, Type (0, 0), BuildingBlock: XUDNAN_clean_linker_2, # of connection points: 2
#     Edge 29, Type (0, 0), BuildingBlock: XUDNAN_clean_linker_2, # of connection points: 2
#     Edge 30, Type (0, 0), BuildingBlock: XUDNAN_clean_linker_2, # of connection points: 2
#     Edge 31, Type (0, 0), BuildingBlock: XUDNAN_clean_linker_2, # of connection points: 2
#     Edge 32, Type (0, 0), BuildingBlock: XUDNAN_clean_linker_2, # of connection points: 2
#     Edge 33, Type (0, 0), BuildingBlock: XUDNAN_clean_linker_2, # of connection points: 2
#     Edge 34, Type (0, 0), BuildingBlock: XUDNAN_clean_linker_2, # of connection points: 2
#     Edge 35, Type (0, 0), BuildingBlock: XUDNAN_clean_linker_2, # of connection points: 2
#     Edge 36, Type (0, 0), BuildingBlock: XUDNAN_clean_linker_2, # of connection points: 2
#     Edge 37, Type (0, 0), BuildingBlock: XUDNAN_clean_linker_2, # of connection points: 2
#     Edge 38, Type (0, 0), BuildingBlock: XUDNAN_clean_linker_2, # of connection points: 2
#     Edge 39, Type (0, 0), BuildingBlock: XUDNAN_clean_linker_2, # of connection points: 2
#     Edge 40, Type (0, 0), BuildingBlock: XUDNAN_clean_linker_2, # of connection points: 2
#     Edge 41, Type (0, 0), BuildingBlock: XUDNAN_clean_linker_2, # of connection points: 2
#     Edge 42, Type (0, 0), BuildingBlock: XUDNAN_clean_linker_2, # of connection points: 2
#     Edge 43, Type (0, 0), BuildingBlock: XUDNAN_clean_linker_2, # of connection points: 2
#     Edge 44, Type (0, 0), BuildingBlock: XUDNAN_clean_linker_2, # of connection points: 2
#     Edge 45, Type (0, 0), BuildingBlock: XUDNAN_clean_linker_2, # of connection points: 2
#     Edge 46, Type (0, 0), BuildingBlock: XUDNAN_clean_linker_2, # of connection points: 2
#     Edge 47, Type (0, 0), BuildingBlock: XUDNAN_clean_linker_2, # of connection points: 2
#     Edge 48, Type (0, 0), BuildingBlock: XUDNAN_clean_linker_2, # of connection points: 2
#     Edge 49, Type (0, 0), BuildingBlock: XUDNAN_clean_linker_2, # of connection points: 2
#     Edge 50, Type (0, 0), BuildingBlock: XUDNAN_clean_linker_2, # of connection points: 2
#     Edge 51, Type (0, 0), BuildingBlock: XUDNAN_clean_linker_2, # of connection points: 2
#     Edge 52, Type (0, 0), BuildingBlock: XUDNAN_clean_linker_2, # of connection points: 2
#     Edge 53, Type (0, 0), BuildingBlock: XUDNAN_clean_linker_2, # of connection points: 2
#     Edge 54, Type (0, 0), BuildingBlock: XUDNAN_clean_linker_2, # of connection points: 2
#     Edge 55, Type (0, 0), BuildingBlock: XUDNAN_clean_linker_2, # of connection points: 2
#     Edge 56, Type (0, 0), BuildingBlock: XUDNAN_clean_linker_2, # of connection points: 2
#     Edge 57, Type (0, 0), BuildingBlock: XUDNAN_clean_linker_2, # of connection points: 2
#     Edge 58, Type (0, 0), BuildingBlock: XUDNAN_clean_linker_2, # of connection points: 2
#     Edge 59, Type (0, 0), BuildingBlock: XUDNAN_clean_linker_2, # of connection points: 2
#     Edge 60, Type (0, 0), BuildingBlock: XUDNAN_clean_linker_2, # of connection points: 2
#     Edge 61, Type (0, 0), BuildingBlock: XUDNAN_clean_linker_2, # of connection points: 2
#     Edge 62, Type (0, 0), BuildingBlock: XUDNAN_clean_linker_2, # of connection points: 2
#     Edge 63, Type (0, 0), BuildingBlock: XUDNAN_clean_linker_2, # of connection points: 2
# Relax obj value: 0.342
# Max RMSD: 0.271
# Mean RMSD: 0.271
data_MOF--net-whr--node1-OJICUG_clean_sbu_0--edge1-XUDNAN_clean_linker_2
_symmetry_space_group_name_H-M    P1
_symmetry_Int_Tables_number       1
_symmetry_cell_setting            triclinic
loop_
_symmetry_equiv_pos_as_xyz
'x, y, z'
_cell_length_a     48.705891
_cell_length_b     48.687474
_cell_length_c     29.603316
_cell_angle_alpha  89.947043
_cell_angle_beta   90.039657
_cell_angle_gamma 89.979167
loop_
_atom_site_label
_atom_site_type_symbol
_atom_site_fract_x
_atom_site_fract_y
_atom_site_fract_z
_atom_type_partial_charge
Sc0 Sc 0.19266 0.0534 0.10766 0.0
Sc1 Sc 0.23342 0.09412 0.03904 0.0
Sc2 Sc 0.25481 0.02853 0.06817 0.0
O3 O 0.22677 0.05878 0.07141 0.0
C4 C 0.23983 0.02488 0.16812 0.0
C5 C 0.20741 0.11402 0.13301 0.0
C6 C 0.29281 0.08166 0.0615 0.0
C7 C 0.17035 0.08861 0.02353 0.0
C8 C 0.19844 0.99523 0.06949 0.0
C9 C 0.25204 0.04738 0.96871 0.0
O10 O 0.21482 0.03014 0.15844 0.0
O11 O 0.21707 0.11897 0.0938 0.0
O12 O 0.28966 0.05586 0.05777 0.0
O13 O 0.16685 0.07627 0.06107 0.0
O14 O 0.22433 0.9964 0.07491 0.0
O15 O 0.25021 0.07261 0.9804 0.0
O16 O 0.18315 0.01633 0.07147 0.0
O17 O 0.19401 0.0933 0.0072 0.0
O18 O 0.24996 0.02757 -0.0034 0.0
O19 O 0.20042 0.09007 0.1458 0.0
O20 O 0.25941 0.02864 0.14022 0.0
O21 O 0.27278 0.09738 0.07003 0.0
Sc22 Sc 0.05867 0.80848 0.90911 0.0
Sc23 Sc 0.09617 0.7627 0.97532 0.0
Sc24 Sc 0.02553 0.75352 0.96087 0.0
O25 O 0.06025 0.77474 0.94801 0.0
C26 C 0.00482 0.81581 0.96465 0.0
C27 C 0.10161 0.82636 0.98588 0.0
C28 C 0.05307 0.75431 0.05581 0.0
C29 C 0.11417 0.78375 0.87658 0.0
C30 C 0.0168 0.76689 0.85932 0.0
C31 C 0.07094 0.70566 0.95464 0.0
O32 O 0.02701 0.8259 0.94975 0.0
O33 O 0.10396 0.80252 0.00291 0.0
O34 O 0.03211 0.75818 0.03119 0.0
O35 O 0.09093 0.79389 0.86664 0.0
O36 O 0.01657 0.74876 0.89033 0.0
O37 O 0.09095 0.72206 0.94934 0.0
O38 O 0.02912 0.78988 0.86352 0.0
O39 O 0.11977 0.77365 0.91526 0.0
O40 O 0.04658 0.71389 0.9628 0.0
O41 O 0.08791 0.83105 0.95003 0.0
O42 O -8e-05 0.79009 0.96424 0.0
O43 O 0.07725 0.75149 0.03986 0.0
Sc44 Sc 0.74868 0.96975 0.07054 0.0
Sc45 Sc 0.77791 0.90501 0.04797 0.0
Sc46 Sc 0.8025 0.94414 0.13875 0.0
O47 O 0.77618 0.93952 0.08609 0.0
C48 C 0.8024 0.00399 0.09462 0.0
C49 C 0.76958 0.95104 0.97344 0.0
C50 C 0.84149 0.91403 0.06937 0.0
C51 C 0.71305 0.91713 0.05122 0.0
C52 C 0.74825 0.97085 0.17873 0.0
C53 C 0.78585 0.88044 0.14603 0.0
O54 O 0.78051 0.00059 0.07186 0.0
O55 O 0.781 0.92887 0.98635 0.0
O56 O 0.83811 0.93186 0.10019 0.0
O57 O 0.7142 0.9418 0.06526 0.0
O58 O 0.7702 0.957 0.18347 0.0
O59 O 0.77615 0.8781 0.10624 0.0
O60 O 0.73859 0.97755 0.14034 0.0
O61 O 0.73422 0.90286 0.04251 0.0
O62 O 0.79656 0.90242 0.16109 0.0
O63 O 0.75584 0.96651 -0.00062 0.0
O64 O 0.81181 0.98618 0.12195 0.0
O65 O 0.82171 0.90233 0.04928 0.0
Sc66 Sc 0.97031 0.24666 0.9492 0.0
Sc67 Sc 0.90207 0.22842 0.97032 0.0
Sc68 Sc 0.94512 0.18426 0.91038 0.0
O69 O 0.93902 0.21976 0.94345 0.0
C70 C 0.97838 0.22844 0.85071 0.0
C71 C 0.91925 0.28756 0.94136 0.0
C72 C 0.88732 0.2028 0.87352 0.0
C73 C 0.94555 0.24718 0.04633 0.0
C74 C 0.00147 0.18865 0.95595 0.0
C75 C 0.90476 0.16491 0.98952 0.0
O76 O 0.97561 0.2486 0.8776 0.0
O77 O 0.90154 0.26849 0.94085 0.0
O78 O 0.91104 0.19257 0.86768 0.0
O79 O 0.96641 0.24541 0.02065 0.0
O80 O 0.98018 0.17394 0.95103 0.0
O81 O 0.89883 0.18902 0.00256 0.0
O82 O 0.00114 0.21464 0.95151 0.0
O83 O 0.92091 0.24398 0.03228 0.0
O84 O 0.9195 0.16006 0.955 0.0
O85 O 0.94462 0.28308 0.94814 0.0
O86 O 0.97098 0.20402 0.86047 0.0
O87 O 0.87994 0.21415 0.91046 0.0
Sc88 Sc 0.74196 0.03631 0.57929 0.0
Sc89 Sc 0.76425 0.10039 0.53601 0.0
Sc90 Sc 0.81004 0.05859 0.59439 0.0
O91 O 0.77186 0.06506 0.5701 0.0
C92 C 0.77133 0.03715 0.67497 0.0
C93 C 0.70465 0.08958 0.57819 0.0
C94 C 0.79711 0.12158 0.6197 0.0
C95 C 0.73911 0.05322 0.47435 0.0
C96 C 0.79479 0.99822 0.5645 0.0
C97 C 0.82693 0.09048 0.50743 0.0
O98 O 0.74949 0.03353 0.65176 0.0
O99 O 0.72285 0.1037 0.55844 0.0
O100 O 0.81194 0.09999 0.62067 0.0
O101 O 0.73407 0.03705 0.50737 0.0
O102 O 0.81241 0.017 0.57066 0.0
O103 O 0.80498 0.10455 0.50717 0.0
O104 O 0.76916 0.00223 0.56821 0.0
O105 O 0.75069 0.07668 0.47846 0.0
O106 O 0.83044 0.07021 0.5335 0.0
O107 O 0.70865 0.06496 0.59056 0.0
O108 O 0.79376 0.04554 0.65788 0.0
O109 O 0.77671 0.12466 0.59327 0.0
Sc110 Sc 0.05364 0.19337 0.37853 0.0
Sc111 Sc 0.09399 0.22117 0.4626 0.0
Sc112 Sc 0.0254 0.24165 0.4521 0.0
O113 O 0.05749 0.21881 0.4311 0.0
C114 C 0.01682 0.24478 0.348 0.0
C115 C 0.11209 0.214 0.35938 0.0
C116 C 0.07706 0.28279 0.45838 0.0
C117 C 0.09194 0.15884 0.44662 0.0
C118 C 0.99762 0.18346 0.42803 0.0
C119 C 0.05188 0.22719 0.54448 0.0
O120 O 0.02742 0.22118 0.34225 0.0
O121 O 0.11776 0.21393 0.40136 0.0
O122 O 0.05165 0.27744 0.46494 0.0
O123 O 0.08037 0.16253 0.40841 0.0
O124 O 0.99627 0.20825 0.44196 0.0
O125 O 0.07611 0.22839 0.52862 0.0
O126 O 0.01878 0.17369 0.40863 0.0
O127 O 0.0942 0.17783 0.47585 0.0
O128 O 0.03063 0.22747 0.51978 0.0
O129 O 0.08772 0.21197 0.34474 0.0
O130 O 0.01663 0.25718 0.38569 0.0
O131 O 0.09492 0.26435 0.4502 0.0
Sc132 Sc 0.1914 0.94968 0.61695 0.0
Sc133 Sc 0.2187 0.90106 0.54321 0.0
Sc134 Sc 0.25288 0.96353 0.55845 0.0
O135 O 0.22114 0.93803 0.57343 0.0
C136 C 0.20077 0.00296 0.55609 0.0
C137 C 0.155 0.91582 0.54937 0.0
C138 C 0.23785 0.93722 0.46276 0.0
C139 C 0.20386 0.88669 0.64404 0.0
C140 C 0.24401 0.9756 0.6633 0.0
C141 C 0.28426 0.90896 0.55293 0.0
O142 O 0.18744 0.98985 0.58619 0.0
O143 O 0.17483 0.90032 0.53855 0.0
O144 O 0.25257 0.95202 0.48846 0.0
O145 O 0.19273 0.91013 0.6505 0.0
O146 O 0.25747 0.97847 0.62684 0.0
O147 O 0.26235 0.89663 0.54154 0.0
O148 O 0.22072 0.96404 0.66512 0.0
O149 O 0.21647 0.88041 0.60771 0.0
O150 O 0.28411 0.93283 0.57037 0.0
O151 O 0.15805 0.93676 0.57426 0.0
O152 O 0.22424 0.99554 0.54175 0.0
O153 O 0.22044 0.91981 0.47716 0.0
Sc154 Sc 0.96776 0.75865 0.46249 0.0
Sc155 Sc 0.8967 0.76394 0.47136 0.0
Sc156 Sc 0.93324 0.80983 0.40384 0.0
O157 O 0.93238 0.7775 0.44564 0.0
C158 C 0.98695 0.82115 0.45662 0.0
C159 C 0.9388 0.76211 0.55513 0.0
C160 C 0.88759 0.82769 0.47626 0.0
C161 C 0.92571 0.70825 0.46171 0.0
C162 C 0.97633 0.76699 0.36001 0.0
C163 C 0.8796 0.78063 0.36986 0.0
O164 O 0.99223 0.79562 0.45876 0.0
O165 O 0.91539 0.75641 0.53783 0.0
O166 O 0.90272 0.83245 0.44201 0.0
O167 O 0.94887 0.71859 0.47181 0.0
O168 O 0.96383 0.79007 0.36152 0.0
O169 O 0.87389 0.77082 0.40875 0.0
O170 O 0.97684 0.75018 0.39302 0.0
O171 O 0.90544 0.72289 0.44966 0.0
O172 O 0.90221 0.79254 0.36134 0.0
O173 O 0.95991 0.76747 0.53155 0.0
O174 O 0.96399 0.83024 0.44315 0.0
O175 O 0.88523 0.80404 0.49403 0.0
Sc176 Sc 0.68432 0.5651 0.57437 0.0
Sc177 Sc 0.73338 0.60159 0.51282 0.0
Sc178 Sc 0.74955 0.53597 0.55548 0.0
O179 O 0.72248 0.56746 0.54743 0.0
C180 C 0.72229 0.53805 0.65175 0.0
C181 C 0.70672 0.62485 0.6019 0.0
C182 C 0.79257 0.58407 0.54981 0.0
C183 C 0.66898 0.60078 0.48935 0.0
C184 C 0.69231 0.50412 0.54248 0.0
C185 C 0.75241 0.55247 0.45021 0.0
O186 O 0.70017 0.54786 0.63565 0.0
O187 O 0.72536 0.62649 0.5718 0.0
O188 O 0.78604 0.5607 0.56524 0.0
O189 O 0.66284 0.58211 0.51736 0.0
O190 O 0.7182 0.50552 0.54676 0.0
O191 O 0.74293 0.57684 0.45447 0.0
O192 O 0.6765 0.52469 0.54719 0.0
O193 O 0.69315 0.6102 0.48604 0.0
O194 O 0.7563 0.53595 0.48322 0.0
O195 O 0.68947 0.6052 0.6045 0.0
O196 O 0.74367 0.53384 0.62795 0.0
O197 O 0.77552 0.59984 0.53078 0.0
Sc198 Sc 0.56577 0.30909 0.37415 0.0
Sc199 Sc 0.60255 0.26637 0.44578 0.0
Sc200 Sc 0.53256 0.25602 0.43043 0.0
O201 O 0.56706 0.2773 0.41672 0.0
C202 C 0.51031 0.31743 0.42373 0.0
C203 C 0.60722 0.33025 0.4511 0.0
C204 C 0.5579 0.26061 0.52538 0.0
C205 C 0.62157 0.28266 0.34553 0.0
C206 C 0.52603 0.26403 0.32788 0.0
C207 C 0.57892 0.20952 0.43727 0.0
O208 O 0.53317 0.3276 0.4118 0.0
O209 O 0.60968 0.30699 0.47021 0.0
O210 O 0.53746 0.26549 0.4999 0.0
O211 O 0.59851 0.29265 0.33411 0.0
O212 O 0.52618 0.24684 0.36038 0.0
O213 O 0.59678 0.22567 0.42117 0.0
O214 O 0.5371 0.28777 0.33032 0.0
O215 O 0.62712 0.27509 0.38576 0.0
O216 O 0.55433 0.21745 0.44381 0.0
O217 O 0.59419 0.33361 0.41408 0.0
O218 O 0.50588 0.29165 0.42408 0.0
O219 O 0.58216 0.2567 0.51012 0.0
Sc220 Sc 0.25338 0.46824 0.53871 0.0
Sc221 Sc 0.27848 0.40113 0.51762 0.0
Sc222 Sc 0.30766 0.44136 0.60362 0.0
O223 O 0.27969 0.43687 0.55343 0.0
C224 C 0.30938 0.50018 0.55674 0.0
C225 C 0.26891 0.44556 0.44075 0.0
C226 C 0.34301 0.40874 0.53073 0.0
C227 C 0.21459 0.41633 0.52634 0.0
C228 C 0.2566 0.4728 0.64613 0.0
C229 C 0.2884 0.37914 0.61752 0.0
O230 O 0.28633 0.49802 0.5368 0.0
O231 O 0.27767 0.42223 0.45362 0.0
O232 O 0.34098 0.42556 0.56333 0.0
O233 O 0.2176 0.44141 0.53765 0.0
O234 O 0.27815 0.45823 0.64943 0.0
O235 O 0.27935 0.37563 0.57759 0.0
O236 O 0.24524 0.47826 0.6085 0.0
O237 O 0.2346 0.40033 0.51822 0.0
O238 O 0.29908 0.40151 0.63086 0.0
O239 O 0.25902 0.46338 0.46741 0.0
O240 O 0.31916 0.48179 0.58252 0.0
O241 O 0.32232 0.39789 0.5117 0.0
Sc242 Sc 0.46658 0.75021 0.40375 0.0
Sc243 Sc 0.40382 0.72771 0.45079 0.0
Sc244 Sc 0.43752 0.68703 0.3706 0.0
O245 O 0.43592 0.7217 0.40848 0.0
C246 C 0.45895 0.7337 0.30287 0.0
C247 C 0.41532 0.78932 0.4203 0.0
C248 C 0.37479 0.7049 0.36161 0.0
C249 C 0.45613 0.74611 0.50878 0.0
C250 C 0.49988 0.69325 0.39692 0.0
C251 C 0.41036 0.66296 0.45962 0.0
O252 O 0.46384 0.7522 0.33186 0.0
O253 O 0.39974 0.77003 0.43324 0.0
O254 O 0.39623 0.69287 0.34721 0.0
O255 O 0.47156 0.75068 0.47506 0.0
O256 O 0.47907 0.6779 0.39117 0.0
O257 O 0.40313 0.68613 0.47504 0.0
O258 O 0.49829 0.7193 0.39889 0.0
O259 O 0.43139 0.73772 0.50582 0.0
O260 O 0.42286 0.66 0.42244 0.0
O261 O 0.4402 0.78569 0.40921 0.0
O262 O 0.45129 0.7095 0.31272 0.0
O263 O 0.37382 0.7183 0.39855 0.0
Sc264 Sc 0.25281 0.53472 0.03865 0.0
Sc265 Sc 0.26355 0.60551 0.02003 0.0
Sc266 Sc 0.31003 0.56729 0.0853 0.0
O267 O 0.27531 0.56933 0.04812 0.0
C268 C 0.26822 0.52817 0.13997 0.0
C269 C 0.20527 0.58041 0.0399 0.0
C270 C 0.2829 0.62263 0.11996 0.0
C271 C 0.25462 0.56084 0.94125 0.0
C272 C 0.31438 0.51121 0.03476 0.0
C273 C 0.32823 0.61016 0.0088 0.0
O274 O 0.24984 0.52682 0.10955 0.0
O275 O 0.22164 0.60061 0.03917 0.0
O276 O 0.29709 0.60102 0.12556 0.0
O277 O 0.25515 0.54036 0.96782 0.0
O278 O 0.32563 0.53331 0.04774 0.0
O279 O 0.30387 0.61533 0.99633 0.0
O280 O 0.28845 0.50797 0.03426 0.0
O281 O 0.25557 0.58581 0.95469 0.0
O282 O 0.33365 0.59389 0.04123 0.0
O283 O 0.21328 0.55557 0.03859 0.0
O284 O 0.29115 0.54029 0.13446 0.0
O285 O 0.27051 0.62826 0.08298 0.0
Sc286 Sc 0.55905 0.68092 0.86994 0.0
Sc287 Sc 0.59557 0.71581 0.95292 0.0
Sc288 Sc 0.53786 0.74543 0.90208 0.0
O289 O 0.56454 0.71418 0.90871 0.0
C290 C 0.54209 0.73005 0.80398 0.0
C291 C 0.6215 0.69558 0.85856 0.0
C292 C 0.59168 0.77883 0.92999 0.0
C293 C 0.5849 0.65236 0.95683 0.0
C294 C 0.49975 0.69204 0.89756 0.0
C295 C 0.54191 0.73562 0.00645 0.0
O296 O 0.54136 0.70484 0.81543 0.0
O297 O 0.6247 0.70355 0.89958 0.0
O298 O 0.56673 0.77819 0.91752 0.0
O299 O 0.57605 0.65118 0.91661 0.0
O300 O 0.50363 0.71744 0.88873 0.0
O301 O 0.56712 0.72805 0.00656 0.0
O302 O 0.5193 0.67476 0.89882 0.0
O303 O 0.59011 0.67477 0.97642 0.0
O304 O 0.52855 0.74192 0.97112 0.0
O305 O 0.59859 0.68775 0.84226 0.0
O306 O 0.54694 0.74908 0.83202 0.0
O307 O 0.60539 0.75726 0.93766 0.0
Sc308 Sc 0.69541 0.43888 0.11802 0.0
Sc309 Sc 0.71839 0.40398 0.0212 0.0
Sc310 Sc 0.74627 0.46877 0.04911 0.0
O311 O 0.72023 0.43708 0.06296 0.0
C312 C 0.6901 0.49875 0.07646 0.0
C313 C 0.65559 0.4096 0.04696 0.0
C314 C 0.72487 0.45287 0.95077 0.0
C315 C 0.7148 0.3767 0.12022 0.0
C316 C 0.74913 0.46847 0.15629 0.0
C317 C 0.78288 0.41735 0.02269 0.0
O318 O 0.68084 0.47907 0.10019 0.0
O319 O 0.67452 0.40276 0.01988 0.0
O320 O 0.73628 0.46873 0.97894 0.0
O321 O 0.70768 0.39883 0.13973 0.0
O322 O 0.75935 0.47418 0.118 0.0
O323 O 0.76215 0.40197 0.01619 0.0
O324 O 0.72655 0.45583 0.16084 0.0
O325 O 0.71897 0.37505 0.07768 0.0
O326 O 0.78107 0.44187 0.0374 0.0
O327 O 0.66018 0.42197 0.08391 0.0
O328 O 0.7134 0.49822 0.05693 0.0
O329 O 0.71643 0.4289 0.96059 0.0
Sc330 Sc 0.46762 0.2513 0.93264 0.0
Sc331 Sc 0.39949 0.27489 0.94971 0.0
Sc332 Sc 0.44311 0.30897 0.87334 0.0
O333 O 0.43663 0.27821 0.91836 0.0
C334 C 0.49761 0.30954 0.93213 0.0
C335 C 0.44071 0.26113 0.02974 0.0
C336 C 0.40559 0.33985 0.9457 0.0
C337 C 0.416 0.2118 0.93204 0.0
C338 C 0.47792 0.26084 0.82771 0.0
C339 C 0.38292 0.28861 0.8478 0.0
O340 O 0.49586 0.28449 0.94382 0.0
O341 O 0.41766 0.27017 0.01605 0.0
O342 O 0.42279 0.33923 0.91363 0.0
O343 O 0.44163 0.2155 0.92626 0.0
O344 O 0.46468 0.28325 0.82705 0.0
O345 O 0.37723 0.27938 0.88691 0.0
O346 O 0.48071 0.24643 0.86322 0.0
O347 O 0.3993 0.23122 0.94052 0.0
O348 O 0.40585 0.29944 0.83752 0.0
O349 O 0.45964 0.25322 0.00344 0.0
O350 O 0.48056 0.32136 0.90608 0.0
O351 O 0.39522 0.31833 0.96295 0.0
H352 H 0.20464 0.11287 0.22517 0.0
H353 H 0.1957 0.16712 0.10984 0.0
H354 H 0.1776 0.20341 0.15987 0.0
H355 H 0.14515 0.12817 0.27731 0.0
H356 H 0.15805 0.12703 0.33438 0.0
H357 H 0.17491 0.10771 0.29098 0.0
H358 H 0.22075 0.13216 0.31045 0.0
H359 H 0.2036 0.15173 0.35376 0.0
H360 H 0.22237 0.16916 0.30979 0.0
H361 H 0.15067 0.22883 0.21815 0.0
H362 H 0.12064 0.24275 0.2816 0.0
H363 H 0.15065 0.1743 0.36086 0.0
C364 C 0.19968 0.13271 0.21073 0.0
C365 C 0.20156 0.13723 0.1637 0.0
C366 C 0.19469 0.16333 0.14587 0.0
C367 C 0.18439 0.18407 0.17405 0.0
C368 C 0.18183 0.17862 0.22011 0.0
C369 C 0.18988 0.15377 0.23851 0.0
C370 C 0.18279 0.15212 0.28824 0.0
C371 C 0.1641 0.12731 0.29824 0.0
C372 C 0.20894 0.15125 0.31727 0.0
C373 C 0.16771 0.17907 0.2942 0.0
C374 C 0.16765 0.19426 0.25464 0.0
C375 C 0.15149 0.21776 0.24984 0.0
C376 C 0.13452 0.22555 0.28593 0.0
C377 C 0.13425 0.21013 0.32638 0.0
C378 C 0.15163 0.18714 0.33099 0.0
H379 H 0.13757 0.83298 0.86965 0.0
H380 H 0.13899 0.7513 0.81239 0.0
H381 H 0.16977 0.76786 0.75112 0.0
H382 H 0.1295 0.86668 0.77135 0.0
H383 H 0.15011 0.89625 0.78518 0.0
H384 H 0.13413 0.87679 0.82945 0.0
H385 H 0.18131 0.8693 0.86782 0.0
H386 H 0.19756 0.88905 0.82378 0.0
H387 H 0.20923 0.85468 0.8359 0.0
H388 H 0.19419 0.79535 0.69031 0.0
H389 H 0.20836 0.83064 0.63494 0.0
H390 H 0.18922 0.89445 0.73217 0.0
C391 C 0.1454 0.8184 0.84518 0.0
C392 C 0.1367 0.79084 0.84591 0.0
C393 C 0.14617 0.77235 0.81269 0.0
C394 C 0.16357 0.78163 0.77791 0.0
C395 C 0.17116 0.80935 0.77725 0.0
C396 C 0.16248 0.82739 0.81039 0.0
C397 C 0.17011 0.85674 0.79924 0.0
C398 C 0.14444 0.87516 0.79609 0.0
C399 C 0.19079 0.8681 0.83373 0.0
C400 C 0.18333 0.8527 0.75357 0.0
C401 C 0.18439 0.82522 0.74181 0.0
C402 C 0.19391 0.81685 0.69957 0.0
C403 C 0.20194 0.83706 0.66831 0.0
C404 C 0.1999 0.86534 0.67919 0.0
C405 C 0.19114 0.87303 0.72284 0.0
H406 H 0.88674 0.78793 0.27929 0.0
H407 H 0.82369 0.77993 0.38173 0.0
H408 H 0.78906 0.79658 0.32722 0.0
H409 H 0.86792 0.84857 0.24042 0.0
H410 H 0.87498 0.84288 0.18138 0.0
H411 H 0.89301 0.82338 0.22337 0.0
H412 H 0.87667 0.77811 0.18641 0.0
H413 H 0.85861 0.79755 0.14386 0.0
H414 H 0.84052 0.77239 0.17718 0.0
H415 H 0.76439 0.82517 0.2692 0.0
H416 H 0.75176 0.85985 0.21127 0.0
H417 H 0.8302 0.84796 0.14585 0.0
C418 C 0.86543 0.78852 0.28967 0.0
C419 C 0.85793 0.78254 0.33474 0.0
C420 C 0.82991 0.784 0.34724 0.0
C421 C 0.81007 0.79353 0.31646 0.0
C422 C 0.81848 0.80094 0.27304 0.0
C423 C 0.84547 0.79787 0.25932 0.0
C424 C 0.85017 0.81055 0.21321 0.0
C425 C 0.87283 0.83265 0.21476 0.0
C426 C 0.85688 0.78832 0.17809 0.0
C427 C 0.82219 0.82302 0.20455 0.0
C428 C 0.80394 0.81683 0.23892 0.0
C429 C 0.7781 0.82928 0.24126 0.0
C430 C 0.77103 0.84889 0.20831 0.0
C431 C 0.78971 0.85566 0.1736 0.0
C432 C 0.81522 0.84212 0.17116 0.0
H433 H 0.84744 0.14166 0.63822 0.0
H434 H 0.7619 0.14882 0.67598 0.0
H435 H 0.77506 0.17763 0.74164 0.0
H436 H 0.87369 0.1321 0.74121 0.0
H437 H 0.90458 0.15199 0.73369 0.0
H438 H 0.88792 0.13707 0.68557 0.0
H439 H 0.88474 0.18492 0.6479 0.0
H440 H 0.9012 0.20034 0.69619 0.0
H441 H 0.86831 0.21282 0.67739 0.0
H442 H 0.79894 0.19752 0.81105 0.0
H443 H 0.83073 0.20869 0.87392 0.0
H444 H 0.89991 0.19016 0.78679 0.0
C445 C 0.83146 0.15015 0.6595 0.0
C446 C 0.80376 0.14328 0.65234 0.0
C447 C 0.78325 0.15431 0.68085 0.0
C448 C 0.79056 0.17061 0.71816 0.0
C449 C 0.81834 0.17616 0.72546 0.0
C450 C 0.83838 0.16676 0.69612 0.0
C451 C 0.86685 0.17331 0.71304 0.0
C452 C 0.88424 0.14706 0.71874 0.0
C453 C 0.88111 0.19408 0.68175 0.0
C454 C 0.85988 0.1861 0.75802 0.0
C455 C 0.83187 0.1881 0.76455 0.0
C456 C 0.82091 0.19671 0.80581 0.0
C457 C 0.83909 0.20295 0.84138 0.0
C458 C 0.8678 0.2002 0.83539 0.0
C459 C 0.87809 0.19249 0.79265 0.0
H460 H 0.61869 0.70742 0.77025 0.0
H461 H 0.67577 0.68152 0.87409 0.0
H462 H 0.71011 0.67046 0.81483 0.0
H463 H 0.62774 0.6542 0.70396 0.0
H464 H 0.62419 0.67171 0.65058 0.0
H465 H 0.60833 0.68567 0.70006 0.0
H466 H 0.63409 0.73165 0.68817 0.0
H467 H 0.65001 0.71786 0.6381 0.0
H468 H 0.67095 0.73172 0.68282 0.0
H469 H 0.73342 0.65281 0.74437 0.0
H470 H 0.74218 0.62875 0.67209 0.0
H471 H 0.66806 0.66367 0.61577 0.0
C472 C 0.63884 0.7004 0.78063 0.0
C473 C 0.64472 0.69534 0.82656 0.0
C474 C 0.67109 0.68591 0.83905 0.0
C475 C 0.69064 0.67958 0.80555 0.0
C476 C 0.68347 0.68323 0.7601 0.0
C477 C 0.65817 0.69375 0.74782 0.0
C478 C 0.65312 0.69132 0.69757 0.0
C479 C 0.62682 0.67473 0.68752 0.0
C480 C 0.65199 0.71984 0.67536 0.0
C481 C 0.67864 0.67595 0.68359 0.0
C482 C 0.69646 0.67236 0.71966 0.0
C483 C 0.72002 0.65621 0.71573 0.0
C484 C 0.72491 0.6427 0.67459 0.0
C485 C 0.70605 0.64508 0.63849 0.0
C486 C 0.68313 0.66242 0.64263 0.0
H487 H 0.6667 0.31476 0.34696 0.0
H488 H 0.62333 0.25517 0.26567 0.0
H489 H 0.6538 0.26542 0.20098 0.0
H490 H 0.66671 0.36325 0.26889 0.0
H491 H 0.69974 0.37817 0.28131 0.0
H492 H 0.68152 0.35993 0.32449 0.0
H493 H 0.72337 0.32779 0.33606 0.0
H494 H 0.74179 0.34607 0.29258 0.0
H495 H 0.7374 0.3094 0.28855 0.0
H496 H 0.68168 0.28857 0.14176 0.0
H497 H 0.69983 0.32522 0.09253 0.0
H498 H 0.72341 0.37199 0.21078 0.0
C499 C 0.66481 0.30283 0.31624 0.0
C500 C 0.64351 0.28349 0.31146 0.0
C501 C 0.64018 0.26943 0.27011 0.0
C502 C 0.65744 0.27512 0.23331 0.0
C503 C 0.67769 0.29519 0.23831 0.0
C504 C 0.68143 0.30887 0.27889 0.0
C505 C 0.70038 0.33331 0.27316 0.0
C506 C 0.68622 0.36023 0.28778 0.0
C507 C 0.72734 0.32886 0.29913 0.0
C508 C 0.70515 0.33241 0.22261 0.0
C509 C 0.69288 0.30964 0.20335 0.0
C510 C 0.69193 0.3061 0.15656 0.0
C511 C 0.70246 0.32699 0.12874 0.0
C512 C 0.71314 0.35138 0.14785 0.0
C513 C 0.71571 0.35336 0.19531 0.0
H514 H 0.34168 0.32511 0.8472 0.0
H515 H 0.3771 0.25813 0.77123 0.0
H516 H 0.3455 0.26802 0.7076 0.0
H517 H 0.26911 0.32297 0.7963 0.0
H518 H 0.26772 0.35997 0.79556 0.0
H519 H 0.28636 0.34242 0.83965 0.0
H520 H 0.33 0.37031 0.81975 0.0
H521 H 0.31159 0.38784 0.77594 0.0
H522 H 0.34282 0.36969 0.76261 0.0
H523 H 0.31701 0.29038 0.64806 0.0
H524 H 0.29919 0.32572 0.59578 0.0
H525 H 0.28461 0.38011 0.70895 0.0
C526 C 0.34165 0.31176 0.81794 0.0
C527 C 0.36093 0.29037 0.81419 0.0
C528 C 0.36177 0.27411 0.77478 0.0
C529 C 0.34385 0.27955 0.73871 0.0
C530 C 0.3255 0.30148 0.74264 0.0
C531 C 0.32435 0.31739 0.78138 0.0
C532 C 0.30718 0.34293 0.77416 0.0
C533 C 0.28103 0.342 0.80314 0.0
C534 C 0.32391 0.36921 0.78362 0.0
C535 C 0.30041 0.33993 0.72452 0.0
C536 C 0.31011 0.31536 0.70736 0.0
C537 C 0.30876 0.30938 0.66129 0.0
C538 C 0.29849 0.32952 0.63181 0.0
C539 C 0.29044 0.35551 0.64852 0.0
C540 C 0.29029 0.36022 0.69554 0.0
H541 H 0.28846 0.61012 0.2084 0.0
H542 H 0.27988 0.67923 0.11719 0.0
H543 H 0.29313 0.71076 0.17916 0.0
H544 H 0.26959 0.64742 0.31797 0.0
H545 H 0.29537 0.62814 0.34812 0.0
H546 H 0.27722 0.61258 0.30162 0.0
H547 H 0.32357 0.60137 0.26322 0.0
H548 H 0.34176 0.61701 0.30907 0.0
H549 H 0.34756 0.62877 0.25209 0.0
H550 H 0.31775 0.73286 0.24485 0.0
H551 H 0.35113 0.74282 0.30601 0.0
H552 H 0.34498 0.65884 0.35242 0.0
C553 C 0.28826 0.63203 0.20193 0.0
C554 C 0.28309 0.64229 0.15808 0.0
C555 C 0.28337 0.67099 0.1507 0.0
C556 C 0.29093 0.68901 0.18577 0.0
C557 C 0.29769 0.67797 0.228 0.0
C558 C 0.29597 0.65005 0.23627 0.0
C559 C 0.30846 0.64248 0.28145 0.0
C560 C 0.28633 0.63206 0.31423 0.0
C561 C 0.33171 0.6212 0.27607 0.0
C562 C 0.31935 0.67015 0.296 0.0
C563 C 0.3122 0.69061 0.26562 0.0
C564 C 0.32271 0.71721 0.26952 0.0
C565 C 0.34157 0.72276 0.30435 0.0
C566 C 0.34988 0.70169 0.3342 0.0
C567 C 0.3381 0.6754 0.33071 0.0
H568 H 0.1549 0.98072 0.01567 0.0
H569 H 0.21391 0.94843 0.11189 0.0
H570 H 0.19354 0.90227 0.10415 0.0
H571 H 0.0969 0.93796 0.04749 0.0
H572 H 0.0855 0.9329 0.99016 0.0
H573 H 0.1034 0.96393 0.00538 0.0
H574 H 0.13945 0.95468 0.94276 0.0
H575 H 0.1216 0.92369 0.92729 0.0
H576 H 0.15748 0.92234 0.94205 0.0
H577 H 0.16742 0.86 0.08604 0.0
H578 H 0.13944 0.82278 0.05394 0.0
H579 H 0.09868 0.88158 0.96593 0.0
C580 C 0.16325 0.96392 0.03537 0.0
C581 C 0.18578 0.96799 0.06459 0.0
C582 C 0.19666 0.94557 0.08925 0.0
C583 C 0.18516 0.91937 0.08528 0.0
C584 C 0.16306 0.91592 0.05602 0.0
C585 C 0.15238 0.93743 0.03105 0.0
C586 C 0.12976 0.92763 -0.00018 0.0
C587 C 0.10226 0.94143 0.01143 0.0
C588 C 0.13755 0.93236 0.95004 0.0
C589 C 0.12938 0.8973 0.01136 0.0
C590 C 0.14856 0.89112 0.04421 0.0
C591 C 0.15229 0.86453 0.06029 0.0
C592 C 0.13622 0.84353 0.04185 0.0
C593 C 0.11683 0.84919 0.00732 0.0
C594 C 0.11328 0.87655 0.99226 0.0
H595 H 0.85639 0.86246 0.04596 0.0
H596 H 0.88933 0.94407 0.06851 0.0
H597 H 0.93561 0.92739 0.04645 0.0
H598 H 0.91597 0.82557 0.08984 0.0
H599 H 0.91249 0.79814 0.0494 0.0
H600 H 0.88254 0.81655 0.06834 0.0
H601 H 0.87008 0.82811 0.98531 0.0
H602 H 0.89998 0.80986 0.96604 0.0
H603 H 0.89495 0.84525 0.9501 0.0
H604 H 0.97721 0.90215 0.01647 0.0
H605 H 0.01168 0.87016 0.98571 0.0
H606 H 0.95111 0.80468 0.98623 0.0
C607 C 0.87335 0.87686 0.04622 0.0
C608 C 0.86939 0.90462 0.05823 0.0
C609 C 0.89207 0.92273 0.05921 0.0
C610 C 0.91832 0.91344 0.04675 0.0
C611 C 0.92141 0.88592 0.03445 0.0
C612 C 0.89958 0.86784 0.03477 0.0
C613 C 0.90814 0.83932 0.02034 0.0
C614 C 0.90458 0.81868 0.0593 0.0
C615 C 0.89235 0.83011 0.97793 0.0
C616 C 0.93811 0.8443 0.01017 0.0
C617 C 0.94542 0.87126 0.01868 0.0
C618 C 0.97178 0.88095 0.01011 0.0
C619 C 0.99116 0.86261 0.9924 0.0
C620 C 0.9841 0.83485 0.98348 0.0
C621 C 0.95723 0.82567 0.99287 0.0
H622 H 0.8791 0.12041 0.95321 0.0
H623 H 0.90162 0.15792 0.08069 0.0
H624 H 0.87852 0.1201 0.12188 0.0
H625 H 0.81172 0.10099 0.98823 0.0
H626 H 0.81128 0.06941 0.95646 0.0
H627 H 0.83161 0.09797 0.93714 0.0
H628 H 0.875 0.06713 0.93662 0.0
H629 H 0.85467 0.03847 0.95568 0.0
H630 H 0.8846 0.04884 0.98722 0.0
H631 H 0.85388 0.07765 0.14876 0.0
H632 H 0.82595 0.03565 0.1597 0.0
H633 H 0.81528 0.02877 0.01475 0.0
C634 C 0.87953 0.12032 0.9898 0.0
C635 C 0.8925 0.14164 0.01401 0.0
C636 C 0.89197 0.1415 0.06177 0.0
C637 C 0.87895 0.12016 0.08533 0.0
C638 C 0.86608 0.09952 0.06049 0.0
C639 C 0.86597 0.0996 0.01378 0.0
C640 C 0.84903 0.07607 0.9952 0.0
C641 C 0.82445 0.08676 0.96764 0.0
C642 C 0.8669 0.05647 0.96703 0.0
C643 C 0.83974 0.06268 0.03875 0.0
C644 C 0.85015 0.07627 0.07602 0.0
C645 C 0.84537 0.06701 0.11988 0.0
C646 C 0.82955 0.04321 0.12579 0.0
C647 C 0.81824 0.02941 0.0881 0.0
C648 C 0.82328 0.03936 0.04411 0.0
H649 H 0.01644 0.14462 0.00905 0.0
H650 H 0.04678 0.20198 0.90858 0.0
H651 H 0.09166 0.17854 0.90879 0.0
H652 H 0.07854 0.14359 0.07341 0.0
H653 H 0.07601 0.10782 0.08859 0.0
H654 H 0.04537 0.12734 0.07736 0.0
H655 H 0.03105 0.09171 0.01675 0.0
H656 H 0.06189 0.07226 0.02745 0.0
H657 H 0.05422 0.08394 0.97103 0.0
H658 H 0.13283 0.1498 0.91971 0.0
H659 H 0.17088 0.122 0.94926 0.0
H660 H 0.11564 0.08477 0.04706 0.0
C661 C 0.03257 0.15202 0.98702 0.0
C662 C 0.02832 0.17498 0.95872 0.0
C663 C 0.04984 0.1845 0.93073 0.0
C664 C 0.07525 0.17117 0.93024 0.0
C665 C 0.07889 0.14857 0.95839 0.0
C666 C 0.05841 0.13932 0.98693 0.0
C667 C 0.06875 0.11621 0.01681 0.0
C668 C 0.06708 0.12423 0.06701 0.0
C669 C 0.05304 0.08944 0.00743 0.0
C670 C 0.09828 0.11424 0.00088 0.0
C671 C 0.10339 0.13267 0.96643 0.0
C672 C 0.12916 0.13525 0.9467 0.0
C673 C 0.15065 0.11926 0.96373 0.0
C674 C 0.14638 0.10123 0.00073 0.0
C675 C 0.11961 0.09824 0.01868 0.0
H676 H 0.84216 0.98305 0.52108 0.0
H677 H 0.76901 0.95022 0.58509 0.0
H678 H 0.7855 0.9031 0.57087 0.0
H679 H 0.84515 0.93189 0.43268 0.0
H680 H 0.88213 0.93047 0.43216 0.0
H681 H 0.86492 0.96171 0.4483 0.0
H682 H 0.89148 0.96185 0.52419 0.0
H683 H 0.9087 0.93055 0.50841 0.0
H684 H 0.88973 0.9322 0.56059 0.0
H685 H 0.81052 0.85993 0.5528 0.0
H686 H 0.84045 0.82279 0.52514 0.0
H687 H 0.89625 0.88333 0.46869 0.0
C688 C 0.82968 0.96591 0.53215 0.0
C689 C 0.8044 0.9702 0.55439 0.0
C690 C 0.7884 0.94733 0.56785 0.0
C691 C 0.79764 0.92053 0.56013 0.0
C692 C 0.82271 0.91699 0.53837 0.0
C693 C 0.83836 0.93898 0.52397 0.0
C694 C 0.86405 0.9294 0.49987 0.0
C695 C 0.86405 0.93893 0.45031 0.0
C696 C 0.89003 0.93907 0.52477 0.0
C697 C 0.86052 0.89857 0.50345 0.0
C698 C 0.83666 0.89192 0.52619 0.0
C699 C 0.82918 0.86483 0.53469 0.0
C700 C 0.8464 0.8439 0.51904 0.0
C701 C 0.87065 0.85018 0.49469 0.0
C702 C 0.87777 0.87792 0.48695 0.0
H703 H 0.84433 0.14329 0.49808 0.0
H704 H 0.86481 0.05927 0.46341 0.0
H705 H 0.90979 0.0747 0.43414 0.0
H706 H 0.88167 0.17804 0.40405 0.0
H707 H 0.8929 0.20557 0.4403 0.0
H708 H 0.86069 0.18858 0.4511 0.0
H709 H 0.87674 0.17789 0.53274 0.0
H710 H 0.90914 0.19437 0.52202 0.0
H711 H 0.90831 0.15929 0.54145 0.0
H712 H 0.95389 0.09833 0.41609 0.0
H713 H 0.99417 0.12853 0.40884 0.0
H714 H 0.94596 0.19717 0.45894 0.0
C715 C 0.85787 0.12837 0.48259 0.0
C716 C 0.85097 0.1002 0.48187 0.0
C717 C 0.86964 0.08099 0.46343 0.0
C718 C 0.8952 0.08957 0.44687 0.0
C719 C 0.90184 0.11737 0.44956 0.0
C720 C 0.8837 0.13653 0.46679 0.0
C721 C 0.89695 0.16463 0.4702 0.0
C722 C 0.88217 0.18543 0.43957 0.0
C723 C 0.89783 0.17461 0.51952 0.0
C724 C 0.92546 0.15818 0.45276 0.0
C725 C 0.92773 0.13087 0.44067 0.0
C726 C 0.9523 0.11982 0.42499 0.0
C727 C 0.97511 0.13718 0.42116 0.0
C728 C 0.97334 0.16532 0.43326 0.0
C729 C 0.94808 0.17582 0.44934 0.0
H730 H 0.10259 0.13353 0.52783 0.0
H731 H 0.11525 0.12594 0.38326 0.0
H732 H 0.14514 0.08576 0.39604 0.0
H733 H 0.16938 0.11509 0.56313 0.0
H734 H 0.15857 0.09516 0.61128 0.0
H735 H 0.1375 0.12302 0.59116 0.0
H736 H 0.09613 0.08999 0.58249 0.0
H737 H 0.11695 0.06209 0.60321 0.0
H738 H 0.09991 0.05916 0.54936 0.0
H739 H 0.17691 0.04952 0.42466 0.0
H740 H 0.20306 0.01432 0.46653 0.0
H741 H 0.16688 0.04241 0.59222 0.0
C742 C 0.11139 0.12314 0.49891 0.0
C743 C 0.10669 0.13281 0.45457 0.0
C744 C 0.11844 0.11871 0.41748 0.0
C745 C 0.13558 0.09601 0.42441 0.0
C746 C 0.14027 0.08733 0.46856 0.0
C747 C 0.12803 0.09999 0.50514 0.0
C748 C 0.13604 0.08605 0.54903 0.0
C749 C 0.15128 0.10603 0.58049 0.0
C750 C 0.11075 0.07358 0.57239 0.0
C751 C 0.15509 0.06391 0.53141 0.0
C752 C 0.15751 0.06532 0.48493 0.0
C753 C 0.17493 0.04796 0.46098 0.0
C754 C 0.18987 0.02823 0.4851 0.0
C755 C 0.18694 0.02575 0.53253 0.0
C756 C 0.16934 0.04385 0.55594 0.0
H757 H 0.13884 0.86583 0.51831 0.0
H758 H 0.10819 0.94766 0.54743 0.0
H759 H 0.0615 0.93293 0.52462 0.0
H760 H 0.09638 0.85186 0.42134 0.0
H761 H 0.09173 0.81627 0.43631 0.0
H762 H 0.12265 0.83395 0.45262 0.0
H763 H 0.11388 0.82087 0.53636 0.0
H764 H 0.08291 0.80323 0.52033 0.0
H765 H 0.08166 0.82999 0.56231 0.0
H766 H 0.01795 0.90843 0.49902 0.0
H767 H 0.98133 0.87613 0.47584 0.0
H768 H 0.04159 0.81061 0.46686 0.0
C769 C 0.12245 0.88085 0.5194 0.0
C770 C 0.12719 0.90797 0.53426 0.0
C771 C 0.10501 0.92678 0.53601 0.0
C772 C 0.07847 0.91862 0.52306 0.0
C773 C 0.07456 0.89158 0.50887 0.0
C774 C 0.09599 0.87301 0.5072 0.0
C775 C 0.08645 0.84486 0.49273 0.0
C776 C 0.10011 0.83625 0.4481 0.0
C777 C 0.09152 0.82349 0.53017 0.0
C778 C 0.05622 0.85039 0.48645 0.0
C779 C 0.04968 0.87745 0.49555 0.0
C780 C 0.02286 0.8872 0.49183 0.0
C781 C 0.00224 0.86873 0.47859 0.0
C782 C 0.0086 0.84083 0.4697 0.0
C783 C 0.03599 0.83173 0.47369 0.0
H784 H 0.65122 0.48787 0.48405 0.0
H785 H 0.70737 0.45846 0.58719 0.0
H786 H 0.68987 0.4114 0.57723 0.0
H787 H 0.59419 0.44138 0.50926 0.0
H788 H 0.58562 0.43585 0.45073 0.0
H789 H 0.60088 0.46786 0.4681 0.0
H790 H 0.63992 0.46104 0.40974 0.0
H791 H 0.62483 0.429 0.39225 0.0
H792 H 0.66001 0.42995 0.41114 0.0
H793 H 0.66766 0.36803 0.55601 0.0
H794 H 0.64329 0.3292 0.52162 0.0
H795 H 0.60256 0.38522 0.42869 0.0
C796 C 0.65945 0.47149 0.50482 0.0
C797 C 0.68047 0.47662 0.53656 0.0
C798 C 0.69127 0.45477 0.56264 0.0
C799 C 0.68141 0.42805 0.55738 0.0
C800 C 0.66096 0.42348 0.52549 0.0
C801 C 0.65018 0.44441 0.49933 0.0
C802 C 0.62959 0.43326 0.46551 0.0
C803 C 0.60087 0.44531 0.47392 0.0
C804 C 0.63917 0.43863 0.41678 0.0
C805 C 0.63058 0.40289 0.47695 0.0
C806 C 0.64865 0.39788 0.51195 0.0
C807 C 0.65339 0.3716 0.5286 0.0
C808 C 0.63938 0.34967 0.50878 0.0
C809 C 0.62097 0.35407 0.47236 0.0
C810 C 0.6165 0.38114 0.45641 0.0
H811 H 0.35783 0.3602 0.49166 0.0
H812 H 0.39053 0.43871 0.53537 0.0
H813 H 0.43682 0.42454 0.50991 0.0
H814 H 0.41502 0.32034 0.52907 0.0
H815 H 0.41325 0.29644 0.48269 0.0
H816 H 0.3826 0.31345 0.50196 0.0
H817 H 0.37384 0.33185 0.42097 0.0
H818 H 0.40451 0.31492 0.40149 0.0
H819 H 0.40026 0.35132 0.39281 0.0
H820 H 0.47935 0.40172 0.47925 0.0
H821 H 0.51568 0.3709 0.45081 0.0
H822 H 0.45521 0.30649 0.43095 0.0
C823 C 0.37467 0.37455 0.49541 0.0
C824 C 0.37061 0.40067 0.51503 0.0
C825 C 0.39325 0.41862 0.52033 0.0
C826 C 0.41954 0.41079 0.50585 0.0
C827 C 0.42283 0.38484 0.48673 0.0
C828 C 0.40105 0.36689 0.48191 0.0
C829 C 0.41026 0.33966 0.46251 0.0
C830 C 0.40497 0.31609 0.49607 0.0
C831 C 0.39639 0.33412 0.41672 0.0
C832 C 0.44064 0.34508 0.45698 0.0
C833 C 0.44744 0.37134 0.47071 0.0
C834 C 0.47428 0.3811 0.46847 0.0
C835 C 0.49474 0.36346 0.45213 0.0
C836 C 0.48829 0.33626 0.43872 0.0
C837 C 0.46082 0.3271 0.44112 0.0
H838 H 0.31917 0.52824 0.47822 0.0
H839 H 0.33671 0.52801 0.62187 0.0
H840 H 0.36574 0.56926 0.61265 0.0
H841 H 0.38756 0.54721 0.44424 0.0
H842 H 0.37637 0.56828 0.39762 0.0
H843 H 0.35577 0.53958 0.41564 0.0
H844 H 0.31397 0.57175 0.42631 0.0
H845 H 0.33434 0.60053 0.40802 0.0
H846 H 0.31717 0.60162 0.46191 0.0
H847 H 0.3908 0.61168 0.58852 0.0
H848 H 0.4128 0.6511 0.54967 0.0
H849 H 0.38299 0.62079 0.42104 0.0
C850 C 0.32894 0.53713 0.50766 0.0
C851 C 0.32562 0.52531 0.5508 0.0
C852 C 0.33908 0.53696 0.58858 0.0
C853 C 0.35554 0.56033 0.58369 0.0
C854 C 0.35872 0.57138 0.54065 0.0
C855 C 0.34602 0.56007 0.50319 0.0
C856 C 0.35377 0.57532 0.46048 0.0
C857 C 0.3693 0.55647 0.42757 0.0
C858 C 0.3283 0.58806 0.43788 0.0
C859 C 0.37248 0.59714 0.47997 0.0
C860 C 0.37484 0.59469 0.52632 0.0
C861 C 0.38955 0.61359 0.55216 0.0
C862 C 0.40199 0.63579 0.52998 0.0
C863 C 0.4001 0.63834 0.48254 0.0
C864 C 0.38544 0.61865 0.45727 0.0
H865 H 0.51405 0.64469 0.43832 0.0
H866 H 0.54777 0.71387 0.36449 0.0
H867 H 0.59432 0.69442 0.37263 0.0
H868 H 0.56689 0.64212 0.51938 0.0
H869 H 0.56725 0.60523 0.52455 0.0
H870 H 0.53623 0.62258 0.50792 0.0
H871 H 0.53375 0.59271 0.43562 0.0
H872 H 0.56489 0.57532 0.45199 0.0
H873 H 0.56265 0.59186 0.39762 0.0
H874 H 0.63717 0.66929 0.3922 0.0
H875 H 0.67415 0.64238 0.42759 0.0
H876 H 0.6133 0.59024 0.49217 0.0
C877 C 0.53122 0.65539 0.42316 0.0
C878 C 0.52738 0.68063 0.40043 0.0
C879 C 0.55034 0.69449 0.38202 0.0
C880 C 0.57681 0.68352 0.3862 0.0
C881 C 0.58002 0.65877 0.40924 0.0
C882 C 0.55793 0.64496 0.42779 0.0
C883 C 0.56742 0.62016 0.45467 0.0
C884 C 0.55895 0.62269 0.50458 0.0
C885 C 0.55653 0.59343 0.43371 0.0
C886 C 0.59828 0.62255 0.44901 0.0
C887 C 0.60502 0.64467 0.42197 0.0
C888 C 0.63218 0.65178 0.4132 0.0
C889 C 0.65307 0.63631 0.43351 0.0
C890 C 0.64676 0.61412 0.46279 0.0
C891 C 0.61891 0.60688 0.46972 0.0
H892 H 0.35459 0.35584 0.97524 0.0
H893 H 0.43745 0.38536 0.95208 0.0
H894 H 0.42309 0.43217 0.9735 0.0
H895 H 0.32127 0.41437 0.92791 0.0
H896 H 0.29322 0.41451 0.96759 0.0
H897 H 0.31023 0.38274 0.95388 0.0
H898 H 0.32045 0.37427 0.03872 0.0
H899 H 0.30326 0.40591 0.05272 0.0
H900 H 0.33815 0.40027 0.07085 0.0
H901 H 0.39995 0.47558 0.99515 0.0
H902 H 0.36921 0.51364 0.01588 0.0
H903 H 0.30052 0.45681 0.02227 0.0
C904 C 0.36975 0.3721 0.97557 0.0
C905 C 0.39717 0.36705 0.96248 0.0
C906 C 0.41636 0.38889 0.96213 0.0
C907 C 0.40841 0.41549 0.97425 0.0
C908 C 0.38114 0.41995 0.98614 0.0
C909 C 0.36204 0.39896 0.98686 0.0
C910 C 0.33375 0.40974 -0.00124 0.0
C911 C 0.31342 0.40506 0.9597 0.0
C912 C 0.32329 0.39678 0.04289 0.0
C913 C 0.34002 0.44001 0.0048 0.0
C914 C 0.36751 0.44536 -0.00252 0.0
C915 C 0.37837 0.47168 0.00108 0.0
C916 C 0.36071 0.49317 0.01289 0.0
C917 C 0.33241 0.48827 0.02076 0.0
C918 C 0.32199 0.46128 0.0163 0.0
H919 H 0.38406 0.60112 0.01652 0.0
H920 H 0.32384 0.65218 0.94784 0.0
H921 H 0.36107 0.6776 0.91047 0.0
H922 H 0.43332 0.65415 0.03636 0.0
H923 H 0.46271 0.63253 0.02627 0.0
H924 H 0.43129 0.61776 0.04715 0.0
H925 H 0.43056 0.58385 0.97965 0.0
H926 H 0.46198 0.59857 0.95858 0.0
H927 H 0.43205 0.59708 0.92281 0.0
H928 H 0.40455 0.69938 0.88375 0.0
H929 H 0.45186 0.71446 0.86657 0.0
H930 H 0.48397 0.6483 0.94959 0.0
C931 C 0.37868 0.61756 0.99348 0.0
C932 C 0.35093 0.62459 0.98526 0.0
C933 C 0.34486 0.64625 0.95472 0.0
C934 C 0.36588 0.6609 0.93329 0.0
C935 C 0.39293 0.65357 0.94234 0.0
C936 C 0.39944 0.63231 0.97142 0.0
C937 C 0.43026 0.62877 0.97535 0.0
C938 C 0.43995 0.6336 0.02418 0.0
C939 C 0.43923 0.60038 0.95805 0.0
C940 C 0.43999 0.65149 0.94421 0.0
C941 C 0.41811 0.66564 0.92573 0.0
C942 C 0.42188 0.68829 0.8976 0.0
C943 C 0.44878 0.69675 0.88813 0.0
C944 C 0.47152 0.68238 0.90635 0.0
C945 C 0.46697 0.65936 0.93451 0.0
H946 H 0.61538 0.61035 0.92339 0.0
H947 H 0.57434 0.63905 0.04427 0.0
H948 H 0.59504 0.60092 0.08798 0.0
H949 H 0.61334 0.53569 0.94996 0.0
H950 H 0.64725 0.52975 0.92788 0.0
H951 H 0.626 0.55633 0.90386 0.0
H952 H 0.66382 0.59242 0.91856 0.0
H953 H 0.68555 0.56618 0.94214 0.0
H954 H 0.67751 0.59638 0.97479 0.0
H955 H 0.62243 0.56138 0.11918 0.0
H956 H 0.65558 0.52409 0.13599 0.0
H957 H 0.68238 0.52491 0.99639 0.0
C958 C 0.60999 0.60789 0.95866 0.0
C959 C 0.59282 0.62704 0.98046 0.0
C960 C 0.5871 0.62413 0.02706 0.0
C961 C 0.59879 0.60264 0.05206 0.0
C962 C 0.61645 0.58459 0.02997 0.0
C963 C 0.62205 0.58698 0.98431 0.0
C964 C 0.6438 0.56665 0.96967 0.0
C965 C 0.63188 0.54588 0.93583 0.0
C966 C 0.66917 0.5813 0.95017 0.0
C967 C 0.65018 0.5531 0.01445 0.0
C968 C 0.63372 0.56321 0.0486 0.0
C969 C 0.63548 0.55334 0.09274 0.0
C970 C 0.65439 0.53233 0.10204 0.0
C971 C 0.67171 0.52209 0.06761 0.0
C972 C 0.66968 0.53279 0.02345 0.0
H973 H 0.54165 0.33686 0.89633 0.0
H974 H 0.49827 0.32021 0.0211 0.0
H975 H 0.53131 0.34913 0.06307 0.0
H976 H 0.608 0.33136 0.94402 0.0
H977 H 0.62308 0.35793 0.90963 0.0
H978 H 0.59419 0.33872 0.88879 0.0
H979 H 0.5675 0.38414 0.87579 0.0
H980 H 0.59629 0.40349 0.897 0.0
H981 H 0.56286 0.40767 0.92215 0.0
H982 H 0.56952 0.37824 0.09163 0.0
H983 H 0.61388 0.40086 0.10694 0.0
H984 H 0.63418 0.39635 0.96433 0.0
C985 C 0.5391 0.33967 0.93238 0.0
C986 C 0.51762 0.32663 0.95582 0.0
C987 C 0.51485 0.33014 0.00298 0.0
C988 C 0.53329 0.34666 0.0269 0.0
C989 C 0.55444 0.35925 0.00303 0.0
C990 C 0.5577 0.35568 0.95695 0.0
C991 C 0.58374 0.36929 0.94035 0.0
C992 C 0.60341 0.34806 0.91949 0.0
C993 C 0.57719 0.39253 0.90684 0.0
C994 C 0.59481 0.38055 0.9844 0.0
C995 C 0.57726 0.37511 0.01992 0.0
C996 C 0.58341 0.38279 0.0641 0.0
C997 C 0.60858 0.39573 0.07243 0.0
C998 C 0.62744 0.40031 0.03683 0.0
C999 C 0.62014 0.39312 0.99218 0.0
H1000 H 0.23567 0.95701 0.74856 0.0
H1001 H 0.27478 0.02237 0.67266 0.0
H1002 H 0.28445 0.04707 0.74407 0.0
H1003 H 0.20178 0.99723 0.82472 0.0
H1004 H 0.2065 0.97502 0.87285 0.0
H1005 H 0.20624 0.96078 0.81687 0.0
H1006 H 0.25409 0.93903 0.83026 0.0
H1007 H 0.25439 0.95282 0.88672 0.0
H1008 H 0.28222 0.96037 0.84857 0.0
H1009 H 0.28307 0.06759 0.82284 0.0
H1010 H 0.27557 0.07974 0.90316 0.0
H1011 H 0.23891 -0.00029 0.92618 0.0
C1012 C 0.2469 0.97619 0.74708 0.0
C1013 C 0.25451 0.98786 0.70533 0.0
C1014 C 0.26907 0.01301 0.7045 0.0
C1015 C 0.27452 0.0272 0.74481 0.0
C1016 C 0.26574 0.01559 0.78541 0.0
C1017 C 0.25279 0.99033 0.78682 0.0
C1018 C 0.24412 0.98283 0.83422 0.0
C1019 C 0.21281 0.97875 0.83731 0.0
C1020 C 0.25964 0.95725 0.85093 0.0
C1021 C 0.2532 0.0083 0.85912 0.0
C1022 C 0.26569 0.02699 0.8306 0.0
C1023 C 0.27384 0.05288 0.84566 0.0
C1024 C 0.2693 0.05969 0.89115 0.0
C1025 C 0.25686 0.04057 0.92085 0.0
C1026 C 0.2489 0.01457 0.90446 0.0
H1027 H 0.96836 0.78858 0.27621 0.0
H1028 H 0.01892 0.73035 0.34988 0.0
H1029 H 0.04606 0.72174 0.28055 0.0
H1030 H 0.9658 0.75077 0.17272 0.0
H1031 H 0.96664 0.78123 0.13808 0.0
H1032 H 0.95188 0.78261 0.19373 0.0
H1033 H 0.98496 0.82238 0.21453 0.0
H1034 H 2e-05 0.82089 0.15906 0.0
H1035 H 0.02147 0.81759 0.20841 0.0
H1036 H 0.06856 0.72093 0.20216 0.0
H1037 H 0.08089 0.72459 0.12086 0.0
H1038 H 0.0142 0.78244 0.10121 0.0
C1039 C 0.98514 0.774 0.2779 0.0
C1040 C 0.99164 0.76024 0.31844 0.0
C1041 C 0.01354 0.74106 0.31904 0.0
C1042 C 0.02916 0.73618 0.27995 0.0
C1043 C 0.0224 0.75047 0.24065 0.0
C1044 C 0.00066 0.76874 0.23937 0.0
C1045 C 0.99689 0.781 0.19297 0.0
C1046 C 0.96864 0.77343 0.17322 0.0
C1047 C 0.0011 0.81231 0.19382 0.0
C1048 C 0.01989 0.76677 0.16816 0.0
C1049 C 0.03467 0.74945 0.19604 0.0
C1050 C 0.05704 0.73436 0.18001 0.0
C1051 C 0.06401 0.73666 0.13401 0.0
C1052 C 0.04836 0.75361 0.10493 0.0
C1053 C 0.02636 0.76907 0.1226 0.0
H1054 H 0.73887 0.94745 0.89608 0.0
H1055 H 0.81325 0.98201 0.95283 0.0
H1056 H 0.81998 0.00975 0.88376 0.0
H1057 H 0.76444 0.94369 0.77845 0.0
H1058 H 0.73149 0.95237 0.75459 0.0
H1059 H 0.73335 0.93436 0.8077 0.0
H1060 H 0.70368 0.97239 0.84456 0.0
H1061 H 0.7023 0.99086 0.79184 0.0
H1062 H 0.71499 0.00761 0.84195 0.0
H1063 H 0.81678 0.03598 0.81276 0.0
H1064 H 0.80861 0.05453 0.73689 0.0
H1065 H 0.7371 0.00186 0.72241 0.0
C1066 C 0.75695 0.96026 0.89307 0.0
C1067 C 0.77598 0.96232 0.92888 0.0
C1068 C 0.79897 0.97981 0.92496 0.0
C1069 C 0.80275 0.9958 0.88619 0.0
C1070 C 0.78335 0.99385 0.85173 0.0
C1071 C 0.76124 0.97613 0.85417 0.0
C1072 C 0.74364 0.97807 0.8119 0.0
C1073 C 0.74322 0.95048 0.78666 0.0
C1074 C 0.71442 0.98781 0.82327 0.0
C1075 C 0.75926 -0.00021 0.78559 0.0
C1076 C 0.78185 0.00876 0.8097 0.0
C1077 C 0.79938 0.02889 0.79323 0.0
C1078 C 0.79446 0.03935 0.75006 0.0
C1079 C 0.77234 0.02948 0.72338 0.0
C1080 C 0.75406 0.00993 0.74198 0.0
H1081 H 0.99512 0.24876 0.08836 0.0
H1082 H 0.90792 0.25937 0.11337 0.0
H1083 H 0.91797 0.26861 0.19403 0.0
H1084 H 0.00897 0.21159 0.18364 0.0
H1085 H 0.0426 0.22607 0.19261 0.0
H1086 H 0.02848 0.22479 0.13664 0.0
H1087 H 0.03537 0.27745 0.12882 0.0
H1088 H 0.04924 0.27888 0.18524 0.0
H1089 H 0.02039 0.30017 0.17005 0.0
H1090 H 0.93774 0.27218 0.2734 0.0
H1091 H 0.96435 0.26426 0.34374 0.0
H1092 H 0.03763 0.25019 0.26448 0.0
C1093 C 0.97803 0.25353 0.11039 0.0
C1094 C 0.95072 0.25347 0.09444 0.0
C1095 C 0.92904 0.25933 0.12483 0.0
C1096 C 0.93458 0.26486 0.17056 0.0
C1097 C 0.96186 0.26458 0.18507 0.0
C1098 C 0.98316 0.25892 0.1557 0.0
C1099 C 0.01034 0.25664 0.17986 0.0
C1100 C 0.02333 0.22808 0.17279 0.0
C1101 C 0.02999 0.27967 0.16511 0.0
C1102 C 0.00097 0.2607 0.2279 0.0
C1103 C 0.97309 0.26607 0.23037 0.0
C1104 C 0.95963 0.26848 0.27179 0.0
C1105 C 0.97486 0.26415 0.3115 0.0
C1106 C 0.00294 0.25698 0.309 0.0
C1107 C 0.01625 0.25615 0.26693 0.0
H1108 H 0.75361 0.95322 0.26622 0.0
H1109 H 0.71629 0.01688 0.18382 0.0
H1110 H 0.70487 0.043 0.25253 0.0
H1111 H 0.70429 0.96023 0.36472 0.0
H1112 H 0.73142 0.95358 0.4047 0.0
H1113 H 0.73223 0.93773 0.3497 0.0
H1114 H 0.7807 0.95805 0.33631 0.0
H1115 H 0.77989 0.9743 0.39075 0.0
H1116 H 0.78573 0.99464 0.34077 0.0
H1117 H 0.70686 0.06653 0.32757 0.0
H1118 H 0.71586 0.08258 0.40562 0.0
H1119 H 0.74847 0.00243 0.44009 0.0
C1120 C 0.74219 0.97219 0.26274 0.0
C1121 C 0.73586 0.983 0.21968 0.0
C1122 C 0.72113 0.00803 0.21645 0.0
C1123 C 0.71463 0.0231 0.25532 0.0
C1124 C 0.72238 0.01252 0.29715 0.0
C1125 C 0.73514 0.98726 0.30123 0.0
C1126 C 0.743 0.98138 0.34978 0.0
C1127 C 0.72675 0.95677 0.36832 0.0
C1128 C 0.77417 0.97684 0.35465 0.0
C1129 C 0.73404 0.0079 0.3719 0.0
C1130 C 0.72213 0.02561 0.34103 0.0
C1131 C 0.7153 0.05256 0.35241 0.0
C1132 C 0.72066 0.06157 0.39655 0.0
C1133 C 0.73235 0.04353 0.42868 0.0
C1134 C 0.73876 0.01632 0.41631 0.0
H1135 H 0.0122 0.20093 0.59234 0.0
H1136 H 0.0818 0.2558 0.60651 0.0
H1137 H 0.0704 0.26248 0.68729 0.0
H1138 H 0.96622 0.23615 0.66164 0.0
H1139 H 0.95122 0.20598 0.68683 0.0
H1140 H 0.9656 0.20418 0.63094 0.0
H1141 H 0.99762 0.16443 0.65588 0.0
H1142 H 0.98283 0.16572 0.71159 0.0
H1143 H 0.01945 0.16885 0.70453 0.0
H1144 H 0.04814 0.267 0.76379 0.0
H1145 H 0.0211 0.26324 0.83433 0.0
H1146 H 0.96815 0.20299 0.77069 0.0
C1147 C 0.02528 0.21399 0.61272 0.0
C1148 C 0.04781 0.22791 0.59357 0.0
C1149 C 0.06458 0.24479 0.62096 0.0
C1150 C 0.05815 0.24884 0.66663 0.0
C1151 C 0.03527 0.2354 0.68424 0.0
C1152 C 0.01951 0.21778 0.65841 0.0
C1153 C 0.99613 0.20565 0.6854 0.0
C1154 C 0.96815 0.21348 0.66495 0.0
C1155 C 0.99921 0.17431 0.68961 0.0
C1156 C 0.00077 0.21973 0.73018 0.0
C1157 C 0.02326 0.23703 0.72877 0.0
C1158 C 0.03073 0.25323 0.76555 0.0
C1159 C 0.01515 0.25118 0.80521 0.0
C1160 C 0.99271 0.23278 0.80769 0.0
C1161 C 0.98539 0.21703 0.76964 0.0
H1162 H 0.20015 0.95796 0.40464 0.0
H1163 H 0.28412 0.9293 0.41454 0.0
H1164 H 0.29385 0.94767 0.33823 0.0
H1165 H 0.1914 0.94754 0.2803 0.0
H1166 H 0.17154 0.97861 0.27485 0.0
H1167 H 0.17037 0.95915 0.3266 0.0
H1168 H 0.18443 0.00281 0.37093 0.0
H1169 H 0.1865 0.02226 0.31934 0.0
H1170 H 0.21581 0.02032 0.3564 0.0
H1171 H 0.2957 0.9737 0.26524 0.0
H1172 H 0.28845 0.00197 0.19694 0.0
H1173 H 0.20356 0.01506 0.23674 0.0
C1174 C 0.22016 0.95454 0.38968 0.0
C1175 C 0.24125 0.94171 0.41435 0.0
C1176 C 0.26766 0.93863 0.39521 0.0
C1177 C 0.27337 0.94912 0.35219 0.0
C1178 C 0.25245 0.96278 0.32926 0.0
C1179 C 0.22627 0.96522 0.34703 0.0
C1180 C 0.20818 0.98281 0.31723 0.0
C1181 C 0.18395 0.96602 0.29863 0.0
C1182 C 0.19816 0.00857 0.34248 0.0
C1183 C 0.22836 0.99014 0.28034 0.0
C1184 C 0.25375 0.97837 0.28778 0.0
C1185 C 0.27581 0.9828 0.25873 0.0
C1186 C 0.27156 0.99909 0.22024 0.0
C1187 C 0.24544 0.01072 0.21134 0.0
C1188 C 0.22378 0.00644 0.24235 0.0
H1189 H 0.02119 0.79438 0.77914 0.0
H1190 H 0.97672 0.7281 0.84451 0.0
H1191 H 0.94895 0.72172 0.7753 0.0
H1192 H 0.96425 0.82277 0.71713 0.0
H1193 H 0.98468 0.83053 0.66799 0.0
H1194 H 0.00029 0.83039 0.72317 0.0
H1195 H 0.03639 0.79489 0.69599 0.0
H1196 H 0.0211 0.79522 0.64065 0.0
H1197 H 0.02498 0.76322 0.67067 0.0
H1198 H 0.92583 0.72296 0.69782 0.0
H1199 H 0.91328 0.72852 0.617 0.0
H1200 H 0.97399 0.79317 0.60407 0.0
C1201 C 0.00558 0.77854 0.77908 0.0
C1202 C 0.00108 0.76182 0.81733 0.0
C1203 C 0.98062 0.74112 0.81554 0.0
C1204 C 0.9646 0.73747 0.77651 0.0
C1205 C 0.9694 0.75459 0.73957 0.0
C1206 C 0.98963 0.7745 0.74048 0.0
C1207 C 0.99169 0.78945 0.6959 0.0
C1208 C 0.98481 0.8201 0.7014 0.0
C1209 C 0.02023 0.78543 0.67455 0.0
C1210 C 0.96967 0.77467 0.66948 0.0
C1211 C 0.95667 0.75489 0.69524 0.0
C1212 C 0.93584 0.73843 0.67738 0.0
C1213 C 0.9287 0.74183 0.63165 0.0
C1214 C 0.94269 0.76124 0.6045 0.0
C1215 C 0.96299 0.77813 0.62408 0.0
H1216 H 0.74338 0.50152 0.41592 0.0
H1217 H 0.77642 0.58159 0.38207 0.0
H1218 H 0.78731 0.56506 0.30504 0.0
H1219 H 0.79008 0.45927 0.34497 0.0
H1220 H 0.76282 0.43625 0.3288 0.0
H1221 H 0.76207 0.45276 0.38328 0.0
H1222 H 0.71383 0.47262 0.36562 0.0
H1223 H 0.71436 0.45594 0.31154 0.0
H1224 H 0.70885 0.4925 0.31485 0.0
H1225 H 0.79124 0.54102 0.23062 0.0
H1226 H 0.78129 0.51436 0.16171 0.0
H1227 H 0.7432 0.45087 0.24332 0.0
C1228 C 0.75346 0.51533 0.39249 0.0
C1229 C 0.75936 0.54267 0.4047 0.0
C1230 C 0.77178 0.56053 0.37304 0.0
C1231 C 0.77831 0.55123 0.32953 0.0
C1232 C 0.77205 0.52413 0.31832 0.0
C1233 C 0.75956 0.50655 0.34874 0.0
C1234 C 0.75151 0.47973 0.32664 0.0
C1235 C 0.76759 0.45558 0.34715 0.0
C1236 C 0.7203 0.47495 0.32983 0.0
C1237 C 0.7605 0.48535 0.27861 0.0
C1238 C 0.77312 0.51068 0.2748 0.0
C1239 C 0.78167 0.52103 0.23323 0.0
C1240 C 0.77606 0.50565 0.19427 0.0
C1241 C 0.76147 0.48056 0.19724 0.0
C1242 C 0.75455 0.4699 0.24012 0.0
H1243 H 0.51395 0.28097 0.57028 0.0
H1244 H 0.58834 0.23344 0.59047 0.0
H1245 H 0.57491 0.22539 0.67034 0.0
H1246 H 0.51293 0.31349 0.6783 0.0
H1247 H 0.47602 0.3123 0.68214 0.0
H1248 H 0.49231 0.31411 0.6277 0.0
H1249 H 0.46632 0.27009 0.60318 0.0
H1250 H 0.45033 0.26783 0.65787 0.0
H1251 H 0.46976 0.23919 0.63632 0.0
H1252 H 0.55167 0.2222 0.74869 0.0
H1253 H 0.5238 0.22805 0.81818 0.0
H1254 H 0.46515 0.27697 0.74254 0.0
C1255 C 0.52757 0.26891 0.59138 0.0
C1256 C 0.55217 0.25778 0.57418 0.0
C1257 C 0.56949 0.24235 0.60313 0.0
C1258 C 0.56189 0.23748 0.64835 0.0
C1259 C 0.53701 0.24827 0.66379 0.0
C1260 C 0.52035 0.2639 0.63606 0.0
C1261 C 0.4949 0.27368 0.66015 0.0
C1262 C 0.49401 0.30526 0.66221 0.0
C1263 C 0.4688 0.26199 0.63806 0.0
C1264 C 0.49973 0.26126 0.70612 0.0
C1265 C 0.52395 0.24647 0.70782 0.0
C1266 C 0.53266 0.2337 0.74758 0.0
C1267 C 0.51662 0.23694 0.78678 0.0
C1268 C 0.49233 0.25298 0.78574 0.0
C1269 C 0.48362 0.26461 0.74451 0.0
H1270 H 0.2818 0.54333 0.22603 0.0
H1271 H 0.24634 0.47718 0.14718 0.0
H1272 H 0.24456 0.44795 0.21544 0.0
H1273 H 0.32326 0.50308 0.29936 0.0
H1274 H 0.31637 0.52322 0.34916 0.0
H1275 H 0.31505 0.53907 0.29423 0.0
H1276 H 0.26536 0.55548 0.30937 0.0
H1277 H 0.26669 0.54004 0.36463 0.0
H1278 H 0.23962 0.53084 0.32593 0.0
H1279 H 0.25011 0.42485 0.2905 0.0
H1280 H 0.25494 0.41189 0.37106 0.0
H1281 H 0.28273 0.49436 0.40222 0.0
C1282 C 0.27344 0.52277 0.22342 0.0
C1283 C 0.26422 0.51235 0.18166 0.0
C1284 C 0.25324 0.48549 0.17917 0.0
C1285 C 0.25239 0.46871 0.21756 0.0
C1286 C 0.26209 0.47937 0.25817 0.0
C1287 C 0.27176 0.50599 0.26166 0.0
C1288 C 0.27973 0.51282 0.30978 0.0
C1289 C 0.31043 0.51995 0.31331 0.0
C1290 C 0.26177 0.53617 0.32853 0.0
C1291 C 0.2734 0.48571 0.33257 0.0
C1292 C 0.2637 0.46655 0.30207 0.0
C1293 C 0.25737 0.43973 0.31488 0.0
C1294 C 0.26037 0.43249 0.36045 0.0
C1295 C 0.26905 0.4522 0.39242 0.0
C1296 C 0.27585 0.47902 0.37824 0.0
H1297 H 0.45243 0.71272 0.58216 0.0
H1298 H 0.48804 0.78891 0.53401 0.0
H1299 H 0.51339 0.79401 0.60587 0.0
H1300 H 0.44688 0.73154 0.70213 0.0
H1301 H 0.45658 0.69767 0.72091 0.0
H1302 H 0.43878 0.70197 0.66801 0.0
H1303 H 0.47798 0.67591 0.6271 0.0
H1304 H 0.49613 0.67193 0.67968 0.0
H1305 H 0.51278 0.68813 0.63228 0.0
H1306 H 0.53609 0.78981 0.68127 0.0
H1307 H 0.55502 0.7762 0.75566 0.0
H1308 H 0.50698 0.70115 0.75115 0.0
C1309 C 0.465 0.73079 0.58744 0.0
C1310 C 0.46818 0.75062 0.55332 0.0
C1311 C 0.48539 0.77364 0.5603 0.0
C1312 C 0.49979 0.7767 0.60082 0.0
C1313 C 0.4969 0.75637 0.63349 0.0
C1314 C 0.47996 0.73386 0.62729 0.0
C1315 C 0.48213 0.71393 0.6662 0.0
C1316 C 0.45445 0.71113 0.69077 0.0
C1317 C 0.4929 0.68582 0.65034 0.0
C1318 C 0.50304 0.72867 0.69499 0.0
C1319 C 0.5111 0.75325 0.67585 0.0
C1320 C 0.52999 0.7706 0.69669 0.0
C1321 C 0.54065 0.76272 0.73869 0.0
C1322 C 0.53264 0.73756 0.75864 0.0
C1323 C 0.51382 0.72029 0.73624 0.0
H1324 H 0.27491 0.51577 0.90055 0.0
H1325 H 0.22893 0.59027 0.87316 0.0
H1326 H 0.22075 0.57417 0.79451 0.0
H1327 H 0.3074 0.51012 0.79251 0.0
H1328 H 0.30554 0.47315 0.7927 0.0
H1329 H 0.30775 0.49156 0.84523 0.0
H1330 H 0.26339 0.46724 0.87252 0.0
H1331 H 0.26064 0.44928 0.81957 0.0
H1332 H 0.23245 0.47004 0.83933 0.0
H1333 H 0.21716 0.54821 0.71881 0.0
H1334 H 0.22326 0.5184 0.65188 0.0
H1335 H 0.27047 0.46108 0.73316 0.0
C1336 C 0.26321 0.52887 0.87802 0.0
C1337 C 0.25246 0.55421 0.89279 0.0
C1338 C 0.23754 0.57087 0.86221 0.0
C1339 C 0.23257 0.56173 0.81778 0.0
C1340 C 0.24275 0.53604 0.8049 0.0
C1341 C 0.25808 0.52011 0.83418 0.0
C1342 C 0.26731 0.49358 0.81275 0.0
C1343 C 0.29886 0.49203 0.81065 0.0
C1344 C 0.25521 0.46857 0.83753 0.0
C1345 C 0.25488 0.49689 0.76644 0.0
C1346 C 0.2406 0.52134 0.76237 0.0
C1347 C 0.22824 0.52901 0.72177 0.0
C1348 C 0.23159 0.51181 0.68403 0.0
C1349 C 0.24734 0.48736 0.68725 0.0
C1350 C 0.25824 0.47954 0.72949 0.0
H1351 H 0.55753 0.75027 0.09293 0.0
H1352 H 0.48947 0.71935 0.0128 0.0
H1353 H 0.45935 0.72126 0.07899 0.0
H1354 H 0.54106 0.71284 0.19335 0.0
H1355 H 0.5507 0.74008 0.23138 0.0
H1356 H 0.56689 0.73742 0.17694 0.0
H1357 H 0.55241 0.78755 0.15914 0.0
H1358 H 0.53571 0.79014 0.2133 0.0
H1359 H 0.51668 0.79703 0.1623 0.0
H1360 H 0.43727 0.72356 0.15227 0.0
H1361 H 0.42495 0.72324 0.23312 0.0
H1362 H 0.50567 0.75458 0.26709 0.0
C1363 C 0.53633 0.74386 0.08967 0.0
C1364 C 0.52567 0.73498 0.04795 0.0
C1365 C 0.49786 0.72665 0.04453 0.0
C1366 C 0.48054 0.72773 0.08178 0.0
C1367 C 0.49131 0.73733 0.12213 0.0
C1368 C 0.51851 0.74506 0.12669 0.0
C1369 C 0.5248 0.75336 0.17484 0.0
C1370 C 0.54717 0.73481 0.19533 0.0
C1371 C 0.53287 0.78384 0.17753 0.0
C1372 C 0.49707 0.74832 0.19648 0.0
C1373 C 0.47804 0.73937 0.16516 0.0
C1374 C 0.45171 0.73104 0.17718 0.0
C1375 C 0.44488 0.73096 0.2229 0.0
C1376 C 0.46425 0.73942 0.25549 0.0
C1377 C 0.49034 0.74894 0.24224 0.0
H1378 H 0.74998 0.44351 0.86913 0.0
H1379 H 0.68627 0.49078 0.93532 0.0
H1380 H 0.68022 0.51874 0.86634 0.0
H1381 H 0.78046 0.49889 0.81062 0.0
H1382 H 0.78764 0.48032 0.75932 0.0
H1383 H 0.78595 0.46228 0.8124 0.0
H1384 H 0.7487 0.4297 0.78034 0.0
H1385 H 0.75072 0.44724 0.72683 0.0
H1386 H 0.71816 0.44406 0.75524 0.0
H1387 H 0.68292 0.54319 0.79409 0.0
H1388 H 0.69028 0.56031 0.71695 0.0
H1389 H 0.75218 0.49746 0.69498 0.0
C1390 C 0.73423 0.45921 0.86831 0.0
C1391 C 0.71819 0.46492 0.90685 0.0
C1392 C 0.69836 0.48608 0.90561 0.0
C1393 C 0.69492 0.50208 0.86684 0.0
C1394 C 0.71151 0.49658 0.82971 0.0
C1395 C 0.73047 0.47544 0.82961 0.0
C1396 C 0.74593 0.47451 0.7851 0.0
C1397 C 0.77683 0.47929 0.79232 0.0
C1398 C 0.74055 0.44726 0.76041 0.0
C1399 C 0.73277 0.49853 0.76055 0.0
C1400 C 0.71311 0.51096 0.78725 0.0
C1401 C 0.69807 0.53353 0.77261 0.0
C1402 C 0.70248 0.54313 0.72878 0.0
C1403 C 0.72173 0.53016 0.69992 0.0
C1404 C 0.73754 0.50793 0.71642 0.0
H1405 H 0.53814 0.27917 0.2418 0.0
H1406 H 0.47782 0.23548 0.32202 0.0
H1407 H 0.44793 0.23113 0.25462 0.0
H1408 H 0.49232 0.31725 0.17442 0.0
H1409 H 0.51208 0.3142 0.12322 0.0
H1410 H 0.52908 0.31317 0.17722 0.0
H1411 H 0.55078 0.26605 0.1576 0.0
H1412 H 0.5344 0.26729 0.10309 0.0
H1413 H 0.52895 0.2382 0.13972 0.0
H1414 H 0.42297 0.2355 0.179 0.0
H1415 H 0.40873 0.2413 0.09884 0.0
H1416 H 0.48717 0.27914 0.06906 0.0
C1417 C 0.5188 0.26836 0.24498 0.0
C1418 C 0.51019 0.25765 0.28687 0.0
C1419 C 0.48484 0.24356 0.28993 0.0
C1420 C 0.46765 0.24123 0.25201 0.0
C1421 C 0.47644 0.25271 0.21135 0.0
C1422 C 0.50173 0.26541 0.20745 0.0
C1423 C 0.5068 0.27548 0.15993 0.0
C1424 C 0.51027 0.30689 0.15866 0.0
C1425 C 0.5317 0.26087 0.13884 0.0
C1426 C 0.4803 0.26676 0.13774 0.0
C1427 C 0.46277 0.25404 0.1679 0.0
C1428 C 0.43666 0.24515 0.15498 0.0
C1429 C 0.42864 0.24871 0.10969 0.0
C1430 C 0.44695 0.26057 0.07823 0.0
C1431 C 0.47288 0.2699 0.09263 0.0
H1432 H 0.36405 0.1953 0.91523 0.0
H1433 H 0.44281 0.16584 0.96305 0.0
H1434 H 0.42027 0.12444 0.99435 0.0
H1435 H 0.32992 0.18258 0.00833 0.0
H1436 H 0.29782 0.17206 0.98343 0.0
H1437 H 0.32032 0.19451 0.95282 0.0
H1438 H 0.32185 0.16064 0.88537 0.0
H1439 H 0.29851 0.13832 0.91512 0.0
H1440 H 0.33086 0.1252 0.89501 0.0
H1441 H 0.38726 0.09079 0.03332 0.0
H1442 H 0.34775 0.06812 0.07171 0.0
H1443 H 0.29197 0.12302 0.00192 0.0
C1444 C 0.37674 0.1795 0.9304 0.0
C1445 C 0.4051 0.18365 0.93657 0.0
C1446 C 0.42106 0.16281 0.95728 0.0
C1447 C 0.40838 0.1393 0.97543 0.0
C1448 C 0.37989 0.13691 0.97191 0.0
C1449 C 0.3644 0.15627 0.94892 0.0
C1450 C 0.33402 0.1515 0.95499 0.0
C1451 C 0.31972 0.17664 0.97617 0.0
C1452 C 0.32052 0.14342 0.90994 0.0
C1453 C 0.33474 0.12756 0.98725 0.0
C1454 C 0.36119 0.11873 0.99583 0.0
C1455 C 0.36647 0.0974 0.02635 0.0
C1456 C 0.34406 0.08482 0.04829 0.0
C1457 C 0.31705 0.0944 0.04056 0.0
C1458 C 0.31252 0.11576 0.00932 0.0
H1459 H 0.18904 0.60107 0.96146 0.0
H1460 H 0.15838 0.57649 0.09242 0.0
H1461 H 0.11318 0.5976 0.07405 0.0
H1462 H 0.16489 0.66433 0.9643 0.0
H1463 H 0.15681 0.66759 0.90509 0.0
H1464 H 0.18269 0.6438 0.92293 0.0
H1465 H 0.15677 0.6042 0.88298 0.0
H1466 H 0.13061 0.62803 0.86493 0.0
H1467 H 0.12126 0.59775 0.89645 0.0
H1468 H 0.07535 0.62933 0.04711 0.0
H1469 H 0.05154 0.67089 0.01941 0.0
H1470 H 0.10847 0.67613 0.9076 0.0
C1471 C 0.17232 0.59915 0.98542 0.0
C1472 C 0.17673 0.5869 0.02791 0.0
C1473 C 0.155 0.58534 0.05931 0.0
C1474 C 0.12934 0.59723 0.04899 0.0
C1475 C 0.12595 0.61028 0.00714 0.0
C1476 C 0.14698 0.61108 0.97576 0.0
C1477 C 0.14047 0.63022 0.93694 0.0
C1478 C 0.1625 0.65281 0.93212 0.0
C1479 C 0.13707 0.61408 0.89271 0.0
C1480 C 0.11333 0.64175 0.95271 0.0
C1481 C 0.10466 0.62927 0.99229 0.0
C1482 C 0.08161 0.63871 0.01561 0.0
C1483 C 0.06805 0.66226 -0.00056 0.0
C1484 C 0.07806 0.67644 0.96106 0.0
C1485 C 0.10013 0.66526 0.93642 0.0
H1486 H 0.70011 0.86457 0.06757 0.0
H1487 H 0.66757 0.93946 0.00954 0.0
H1488 H 0.62956 0.91279 0.97459 0.0
H1489 H 0.69268 0.82563 0.9748 0.0
H1490 H 0.68384 0.79419 0.00348 0.0
H1491 H 0.70422 0.8196 0.03185 0.0
H1492 H 0.66913 0.82198 0.09759 0.0
H1493 H 0.64897 0.79583 0.07017 0.0
H1494 H 0.63338 0.8281 0.08533 0.0
H1495 H 0.59844 0.87532 0.93764 0.0
H1496 H 0.57728 0.83255 0.90728 0.0
H1497 H 0.63438 0.78434 0.98733 0.0
C1498 C 0.68436 0.87553 0.04896 0.0
C1499 C 0.68648 0.90398 0.04153 0.0
C1500 C 0.66588 0.91766 0.01634 0.0
C1501 C 0.64441 0.90263 0.99607 0.0
C1502 C 0.64392 0.87412 0.00184 0.0
C1503 C 0.66324 0.86092 0.02846 0.0
C1504 C 0.66049 0.83016 0.02621 0.0
C1505 C 0.68686 0.81663 0.00799 0.0
C1506 C 0.6525 0.81833 0.07257 0.0
C1507 C 0.63724 0.82784 0.99292 0.0
C1508 C 0.6274 0.85318 0.97955 0.0
C1509 C 0.60598 0.85542 0.94822 0.0
C1510 C 0.59422 0.83109 0.93087 0.0
C1511 C 0.60446 0.80506 0.94418 0.0
C1512 C 0.62628 0.80378 0.97551 0.0
H1513 H 0.79131 0.38046 0.95636 0.0
H1514 H 0.83478 0.42958 0.05532 0.0
H1515 H 0.87857 0.40738 0.03234 0.0
H1516 H 0.82373 0.32051 0.97611 0.0
H1517 H 0.82405 0.30908 0.91819 0.0
H1518 H 0.79808 0.33256 0.93684 0.0
H1519 H 0.81224 0.36673 0.87368 0.0
H1520 H 0.83859 0.3433 0.85513 0.0
H1521 H 0.84737 0.37812 0.8699 0.0
H1522 H 0.91571 0.37401 0.00674 0.0
H1523 H 0.94106 0.33196 0.98554 0.0
H1524 H 0.87253 0.30626 0.90239 0.0
C1525 C 0.81009 0.3869 0.97287 0.0
C1526 C 0.80971 0.40645 0.00798 0.0
C1527 C 0.8347 0.41457 0.02835 0.0
C1528 C 0.85961 0.4022 0.01527 0.0
C1529 C 0.85908 0.38238 0.98109 0.0
C1530 C 0.83485 0.37507 0.95997 0.0
C1531 C 0.83875 0.35134 0.92784 0.0
C1532 C 0.82007 0.32695 0.94056 0.0
C1533 C 0.83396 0.36043 0.87873 0.0
C1534 C 0.86864 0.34504 0.93626 0.0
C1535 C 0.88035 0.36356 0.96606 0.0
C1536 C 0.90694 0.35983 0.98259 0.0
C1537 C 0.92128 0.33594 0.97015 0.0
C1538 C 0.90871 0.31597 0.94217 0.0
C1539 C 0.8827 0.32138 0.92336 0.0
H1540 H 0.69123 0.14274 0.59073 0.0
H1541 H 0.65615 0.06326 0.56034 0.0
H1542 H 0.61448 0.08594 0.53033 0.0
H1543 H 0.62297 0.18155 0.61155 0.0
H1544 H 0.63746 0.21139 0.5845 0.0
H1545 H 0.65914 0.18874 0.61696 0.0
H1546 H 0.69086 0.1839 0.54703 0.0
H1547 H 0.66868 0.20535 0.51399 0.0
H1548 H 0.67672 0.17117 0.49475 0.0
H1549 H 0.5817 0.1179 0.48733 0.0
H1550 H 0.56101 0.15544 0.44112 0.0
H1551 H 0.62021 0.21254 0.49663 0.0
C1552 C 0.67406 0.13013 0.5802 0.0
C1553 C 0.67671 0.10134 0.57825 0.0
C1554 C 0.65425 0.08536 0.56309 0.0
C1555 C 0.63057 0.09813 0.54559 0.0
C1556 C 0.62962 0.1268 0.5443 0.0
C1557 C 0.65061 0.14256 0.56239 0.0
C1558 C 0.64721 0.17259 0.55082 0.0
C1559 C 0.64133 0.18956 0.5935 0.0
C1560 C 0.67234 0.18387 0.52512 0.0
C1561 C 0.62223 0.17111 0.52078 0.0
C1562 C 0.6117 0.14481 0.51824 0.0
C1563 C 0.58956 0.13863 0.48978 0.0
C1564 C 0.57807 0.1599 0.46342 0.0
C1565 C 0.58944 0.18659 0.46482 0.0
C1566 C 0.61141 0.19215 0.49444 0.0
H1567 H 0.11977 0.30614 0.41477 0.0
H1568 H 0.05916 0.32199 0.51848 0.0
H1569 H 0.08464 0.3639 0.54116 0.0
H1570 H 0.17495 0.3195 0.47732 0.0
H1571 H 0.19535 0.33533 0.4337 0.0
H1572 H 0.16913 0.31112 0.41877 0.0
H1573 H 0.14612 0.34709 0.36636 0.0
H1574 H 0.17262 0.37144 0.3806 0.0
H1575 H 0.13703 0.38034 0.38853 0.0
H1576 H 0.12208 0.3993 0.56103 0.0
H1577 H 0.16617 0.42398 0.57407 0.0
H1578 H 0.20114 0.38314 0.4576 0.0
C1579 C 0.11128 0.31902 0.44112 0.0
C1580 C 0.08749 0.31101 0.4647 0.0
C1581 C 0.07715 0.32809 0.49946 0.0
C1582 C 0.09157 0.35185 0.51265 0.0
C1583 C 0.11592 0.35839 0.49014 0.0
C1584 C 0.12532 0.34261 0.45445 0.0
C1585 C 0.15342 0.35161 0.43896 0.0
C1586 C 0.17442 0.32799 0.44245 0.0
C1587 C 0.15221 0.36332 0.39076 0.0
C1588 C 0.15919 0.37388 0.47304 0.0
C1589 C 0.13726 0.37813 0.50181 0.0
C1590 C 0.13913 0.39646 0.5381 0.0
C1591 C 0.16417 0.41036 0.54536 0.0
C1592 C 0.18696 0.40523 0.51701 0.0
C1593 C 0.18403 0.38732 0.47995 0.0
H1594 H 0.36558 0.80819 0.39581 0.0
H1595 H 0.44041 0.83147 0.46447 0.0
H1596 H 0.41602 0.87003 0.50128 0.0
H1597 H 0.33477 0.88113 0.38675 0.0
H1598 H 0.30105 0.8671 0.39635 0.0
H1599 H 0.32633 0.84739 0.36591 0.0
H1600 H 0.31928 0.80734 0.42244 0.0
H1601 H 0.29492 0.82708 0.45411 0.0
H1602 H 0.32482 0.81324 0.4819 0.0
H1603 H 0.38035 0.89935 0.54337 0.0
H1604 H 0.33837 0.9188 0.57926 0.0
H1605 H 0.28834 0.87369 0.48327 0.0
C1606 C 0.37712 0.82246 0.41648 0.0
C1607 C 0.40479 0.81729 0.4269 0.0
C1608 C 0.41929 0.83566 0.45523 0.0
C1609 C 0.40552 0.85744 0.47661 0.0
C1610 C 0.37749 0.86073 0.46841 0.0
C1611 C 0.3637 0.84415 0.4378 0.0
C1612 C 0.33316 0.84912 0.43897 0.0
C1613 C 0.32325 0.86196 0.39435 0.0
C1614 C 0.31715 0.82263 0.45004 0.0
C1615 C 0.33165 0.8695 0.47713 0.0
C1616 C 0.35725 0.87665 0.49325 0.0
C1617 C 0.36022 0.89421 0.53038 0.0
C1618 C 0.33636 0.90492 0.55089 0.0
C1619 C 0.31006 0.89733 0.53482 0.0
C1620 C 0.30803 0.87955 0.49729 0.0
H1621 H 0.89485 0.67151 0.41556 0.0
H1622 H 0.94088 0.68243 0.53921 0.0
H1623 H 0.91759 0.64222 0.5726 0.0
H1624 H 0.83555 0.66102 0.45953 0.0
H1625 H 0.82275 0.63488 0.42192 0.0
H1626 H 0.84882 0.65802 0.40287 0.0
H1627 H 0.88063 0.61714 0.38298 0.0
H1628 H 0.85429 0.59363 0.40139 0.0
H1629 H 0.8883 0.59156 0.42521 0.0
H1630 H 0.87975 0.61077 0.59939 0.0
H1631 H 0.83432 0.58891 0.61318 0.0
H1632 H 0.81519 0.59669 0.471 0.0
C1633 C 0.90111 0.66432 0.44863 0.0
C1634 C 0.91976 0.67968 0.47463 0.0
C1635 C 0.92706 0.67044 0.51838 0.0
C1636 C 0.91382 0.64767 0.5377 0.0
C1637 C 0.894 0.63395 0.51226 0.0
C1638 C 0.8884 0.64142 0.46795 0.0
C1639 C 0.86372 0.62624 0.44978 0.0
C1640 C 0.84142 0.64624 0.4326 0.0
C1641 C 0.87226 0.60593 0.41265 0.0
C1642 C 0.8547 0.61124 0.49191 0.0
C1643 C 0.87265 0.61523 0.52749 0.0
C1644 C 0.86608 0.60663 0.57139 0.0
C1645 C 0.8403 0.5943 0.57908 0.0
C1646 C 0.82159 0.59118 0.54304 0.0
C1647 C 0.82943 0.59871 0.49895 0.0
loop_
_geom_bond_atom_site_label_1
_geom_bond_atom_site_label_2
_geom_bond_distance
_geom_bond_site_symmetry_2
_ccdc_geom_bond_type
Sc0 O3 2.025 . S
Sc0 O10 2.105 . S
Sc0 O13 2.105 . S
Sc0 O16 2.105 . S
Sc0 O19 2.105 . S
Sc1 O3 2.025 . S
Sc1 O11 2.105 . S
Sc1 O15 2.105 1_554 S
Sc1 O17 2.105 . S
Sc1 O21 2.105 . S
Sc2 O3 2.025 . S
Sc2 O12 2.105 . S
Sc2 O14 2.104 . S
Sc2 O18 2.105 1_554 S
Sc2 O20 2.105 . S
O3 Sc0 2.025 . S
O3 Sc1 2.025 . S
O3 Sc2 2.025 . S
C4 O10 1.268 . S
C4 O20 1.268 . S
C5 O11 1.268 . S
C5 O19 1.268 . S
C6 O12 1.268 . S
C6 O21 1.268 . S
C7 O13 1.268 . S
C7 O17 1.268 . S
C8 O14 1.268 1_565 S
C8 O16 1.268 1_565 S
C9 O15 1.268 . S
C9 O18 1.268 . S
O10 Sc0 2.105 . S
O10 C4 1.268 . S
O11 Sc1 2.105 . S
O11 C5 1.268 . S
O12 Sc2 2.105 . S
O12 C6 1.268 . S
O13 Sc0 2.105 . S
O13 C7 1.268 . S
O14 Sc2 2.104 . S
O14 C8 1.268 1_545 S
O15 Sc1 2.105 1_556 S
O15 C9 1.268 . S
O16 Sc0 2.105 . S
O16 C8 1.268 1_545 S
O17 Sc1 2.105 . S
O17 C7 1.268 . S
O18 Sc2 2.105 1_556 S
O18 C9 1.268 . S
O19 Sc0 2.105 . S
O19 C5 1.268 . S
O20 Sc2 2.105 . S
O20 C4 1.268 . S
O21 Sc1 2.105 . S
O21 C6 1.268 . S
Sc22 O25 2.025 . S
Sc22 O32 2.105 . S
Sc22 O35 2.105 . S
Sc22 O38 2.105 . S
Sc22 O41 2.105 . S
Sc23 O25 2.025 . S
Sc23 O33 2.105 . S
Sc23 O37 2.105 . S
Sc23 O39 2.105 . S
Sc23 O43 2.105 1_556 S
Sc24 O25 2.025 . S
Sc24 O34 2.105 1_556 S
Sc24 O36 2.105 . S
Sc24 O40 2.105 . S
Sc24 O42 2.104 . S
O25 Sc22 2.025 . S
O25 Sc23 2.025 . S
O25 Sc24 2.025 . S
C26 O32 1.268 1_655 S
C26 O42 1.268 1_655 S
C27 O33 1.268 . S
C27 O41 1.268 . S
C28 O34 1.268 . S
C28 O43 1.268 . S
C29 O35 1.268 . S
C29 O39 1.268 . S
C30 O36 1.268 . S
C30 O38 1.268 . S
C31 O37 1.268 . S
C31 O40 1.268 . S
O32 Sc22 2.105 . S
O32 C26 1.268 1_455 S
O33 Sc23 2.105 . S
O33 C27 1.268 . S
O34 Sc24 2.105 1_554 S
O34 C28 1.268 . S
O35 Sc22 2.105 . S
O35 C29 1.268 . S
O36 Sc24 2.105 . S
O36 C30 1.268 . S
O37 Sc23 2.105 . S
O37 C31 1.268 . S
O38 Sc22 2.105 . S
O38 C30 1.268 . S
O39 Sc23 2.105 . S
O39 C29 1.268 . S
O40 Sc24 2.105 . S
O40 C31 1.268 . S
O41 Sc22 2.105 . S
O41 C27 1.268 . S
O42 Sc24 2.104 . S
O42 C26 1.268 1_455 S
O43 Sc23 2.105 1_554 S
O43 C28 1.268 . S
Sc44 O47 2.025 . S
Sc44 O54 2.104 . S
Sc44 O57 2.105 . S
Sc44 O60 2.105 . S
Sc44 O63 2.105 1_554 S
Sc45 O47 2.025 . S
Sc45 O55 2.105 1_554 S
Sc45 O59 2.105 . S
Sc45 O61 2.105 . S
Sc45 O65 2.105 . S
Sc46 O47 2.025 . S
Sc46 O56 2.105 . S
Sc46 O58 2.105 . S
Sc46 O62 2.105 . S
Sc46 O64 2.105 . S
O47 Sc44 2.025 . S
O47 Sc45 2.025 . S
O47 Sc46 2.025 . S
C48 O54 1.268 1_545 S
C48 O64 1.268 1_545 S
C49 O55 1.268 . S
C49 O63 1.268 . S
C50 O56 1.268 . S
C50 O65 1.268 . S
C51 O57 1.268 . S
C51 O61 1.268 . S
C52 O58 1.268 . S
C52 O60 1.268 . S
C53 O59 1.268 . S
C53 O62 1.268 . S
O54 Sc44 2.104 . S
O54 C48 1.268 1_565 S
O55 Sc45 2.105 1_556 S
O55 C49 1.268 . S
O56 Sc46 2.105 . S
O56 C50 1.268 . S
O57 Sc44 2.105 . S
O57 C51 1.268 . S
O58 Sc46 2.105 . S
O58 C52 1.268 . S
O59 Sc45 2.105 . S
O59 C53 1.268 . S
O60 Sc44 2.105 . S
O60 C52 1.268 . S
O61 Sc45 2.105 . S
O61 C51 1.268 . S
O62 Sc46 2.105 . S
O62 C53 1.268 . S
O63 Sc44 2.105 1_556 S
O63 C49 1.268 . S
O64 Sc46 2.105 . S
O64 C48 1.268 1_565 S
O65 Sc45 2.105 . S
O65 C50 1.268 . S
Sc66 O69 2.025 . S
Sc66 O76 2.105 . S
Sc66 O79 2.105 1_556 S
Sc66 O82 2.104 . S
Sc66 O85 2.105 . S
Sc67 O69 2.025 . S
Sc67 O77 2.105 . S
Sc67 O81 2.105 . S
Sc67 O83 2.105 1_556 S
Sc67 O87 2.105 . S
Sc68 O69 2.025 . S
Sc68 O78 2.105 . S
Sc68 O80 2.105 . S
Sc68 O84 2.105 . S
Sc68 O86 2.105 . S
O69 Sc66 2.025 . S
O69 Sc67 2.025 . S
O69 Sc68 2.025 . S
C70 O76 1.268 . S
C70 O86 1.268 . S
C71 O77 1.268 . S
C71 O85 1.268 . S
C72 O78 1.268 . S
C72 O87 1.268 . S
C73 O79 1.268 . S
C73 O83 1.268 . S
C74 O80 1.268 1_455 S
C74 O82 1.268 1_455 S
C75 O81 1.268 . S
C75 O84 1.268 . S
O76 Sc66 2.105 . S
O76 C70 1.268 . S
O77 Sc67 2.105 . S
O77 C71 1.268 . S
O78 Sc68 2.105 . S
O78 C72 1.268 . S
O79 Sc66 2.105 1_554 S
O79 C73 1.268 . S
O80 Sc68 2.105 . S
O80 C74 1.268 1_655 S
O81 Sc67 2.105 . S
O81 C75 1.268 . S
O82 Sc66 2.104 . S
O82 C74 1.268 1_655 S
O83 Sc67 2.105 1_554 S
O83 C73 1.268 . S
O84 Sc68 2.105 . S
O84 C75 1.268 . S
O85 Sc66 2.105 . S
O85 C71 1.268 . S
O86 Sc68 2.105 . S
O86 C70 1.268 . S
O87 Sc67 2.105 . S
O87 C72 1.268 . S
Sc88 O91 2.025 . S
Sc88 O98 2.105 . S
Sc88 O101 2.105 . S
Sc88 O104 2.104 . S
Sc88 O107 2.105 . S
Sc89 O91 2.025 . S
Sc89 O99 2.105 . S
Sc89 O103 2.105 . S
Sc89 O105 2.105 . S
Sc89 O109 2.105 . S
Sc90 O91 2.025 . S
Sc90 O100 2.105 . S
Sc90 O102 2.105 . S
Sc90 O106 2.105 . S
Sc90 O108 2.105 . S
O91 Sc88 2.025 . S
O91 Sc89 2.025 . S
O91 Sc90 2.025 . S
C92 O98 1.268 . S
C92 O108 1.268 . S
C93 O99 1.268 . S
C93 O107 1.268 . S
C94 O100 1.268 . S
C94 O109 1.268 . S
C95 O101 1.268 . S
C95 O105 1.268 . S
C96 O102 1.268 1_565 S
C96 O104 1.268 1_565 S
C97 O103 1.268 . S
C97 O106 1.268 . S
O98 Sc88 2.105 . S
O98 C92 1.268 . S
O99 Sc89 2.105 . S
O99 C93 1.268 . S
O100 Sc90 2.105 . S
O100 C94 1.268 . S
O101 Sc88 2.105 . S
O101 C95 1.268 . S
O102 Sc90 2.105 . S
O102 C96 1.268 1_545 S
O103 Sc89 2.105 . S
O103 C97 1.268 . S
O104 Sc88 2.104 . S
O104 C96 1.268 1_545 S
O105 Sc89 2.105 . S
O105 C95 1.268 . S
O106 Sc90 2.105 . S
O106 C97 1.268 . S
O107 Sc88 2.105 . S
O107 C93 1.268 . S
O108 Sc90 2.105 . S
O108 C92 1.268 . S
O109 Sc89 2.105 . S
O109 C94 1.268 . S
Sc110 O113 2.025 . S
Sc110 O120 2.105 . S
Sc110 O123 2.105 . S
Sc110 O126 2.105 . S
Sc110 O129 2.105 . S
Sc111 O113 2.025 . S
Sc111 O121 2.105 . S
Sc111 O125 2.105 . S
Sc111 O127 2.105 . S
Sc111 O131 2.105 . S
Sc112 O113 2.025 . S
Sc112 O122 2.105 . S
Sc112 O124 2.104 . S
Sc112 O128 2.105 . S
Sc112 O130 2.105 . S
O113 Sc110 2.025 . S
O113 Sc111 2.025 . S
O113 Sc112 2.025 . S
C114 O120 1.268 . S
C114 O130 1.268 . S
C115 O121 1.268 . S
C115 O129 1.268 . S
C116 O122 1.268 . S
C116 O131 1.268 . S
C117 O123 1.268 . S
C117 O127 1.268 . S
C118 O124 1.268 1_655 S
C118 O126 1.268 1_655 S
C119 O125 1.268 . S
C119 O128 1.268 . S
O120 Sc110 2.105 . S
O120 C114 1.268 . S
O121 Sc111 2.105 . S
O121 C115 1.268 . S
O122 Sc112 2.105 . S
O122 C116 1.268 . S
O123 Sc110 2.105 . S
O123 C117 1.268 . S
O124 Sc112 2.104 . S
O124 C118 1.268 1_455 S
O125 Sc111 2.105 . S
O125 C119 1.268 . S
O126 Sc110 2.105 . S
O126 C118 1.268 1_455 S
O127 Sc111 2.105 . S
O127 C117 1.268 . S
O128 Sc112 2.105 . S
O128 C119 1.268 . S
O129 Sc110 2.105 . S
O129 C115 1.268 . S
O130 Sc112 2.105 . S
O130 C114 1.268 . S
O131 Sc111 2.105 . S
O131 C116 1.268 . S
Sc132 O135 2.025 . S
Sc132 O142 2.105 . S
Sc132 O145 2.105 . S
Sc132 O148 2.105 . S
Sc132 O151 2.105 . S
Sc133 O135 2.025 . S
Sc133 O143 2.105 . S
Sc133 O147 2.105 . S
Sc133 O149 2.105 . S
Sc133 O153 2.105 . S
Sc134 O135 2.025 . S
Sc134 O144 2.105 . S
Sc134 O146 2.105 . S
Sc134 O150 2.105 . S
Sc134 O152 2.104 . S
O135 Sc132 2.025 . S
O135 Sc133 2.025 . S
O135 Sc134 2.025 . S
C136 O142 1.268 1_545 S
C136 O152 1.268 1_545 S
C137 O143 1.268 . S
C137 O151 1.268 . S
C138 O144 1.268 . S
C138 O153 1.268 . S
C139 O145 1.268 . S
C139 O149 1.268 . S
C140 O146 1.268 . S
C140 O148 1.268 . S
C141 O147 1.268 . S
C141 O150 1.268 . S
O142 Sc132 2.105 . S
O142 C136 1.268 1_565 S
O143 Sc133 2.105 . S
O143 C137 1.268 . S
O144 Sc134 2.105 . S
O144 C138 1.268 . S
O145 Sc132 2.105 . S
O145 C139 1.268 . S
O146 Sc134 2.105 . S
O146 C140 1.268 . S
O147 Sc133 2.105 . S
O147 C141 1.268 . S
O148 Sc132 2.105 . S
O148 C140 1.268 . S
O149 Sc133 2.105 . S
O149 C139 1.268 . S
O150 Sc134 2.105 . S
O150 C141 1.268 . S
O151 Sc132 2.105 . S
O151 C137 1.268 . S
O152 Sc134 2.104 . S
O152 C136 1.268 1_565 S
O153 Sc133 2.105 . S
O153 C138 1.268 . S
Sc154 O157 2.025 . S
Sc154 O164 2.104 . S
Sc154 O167 2.105 . S
Sc154 O170 2.105 . S
Sc154 O173 2.105 . S
Sc155 O157 2.025 . S
Sc155 O165 2.105 . S
Sc155 O169 2.105 . S
Sc155 O171 2.105 . S
Sc155 O175 2.105 . S
Sc156 O157 2.025 . S
Sc156 O166 2.105 . S
Sc156 O168 2.105 . S
Sc156 O172 2.105 . S
Sc156 O174 2.105 . S
O157 Sc154 2.025 . S
O157 Sc155 2.025 . S
O157 Sc156 2.025 . S
C158 O164 1.268 1_455 S
C158 O174 1.268 1_455 S
C159 O165 1.268 . S
C159 O173 1.268 . S
C160 O166 1.268 . S
C160 O175 1.268 . S
C161 O167 1.268 . S
C161 O171 1.268 . S
C162 O168 1.268 . S
C162 O170 1.268 . S
C163 O169 1.268 . S
C163 O172 1.268 . S
O164 Sc154 2.104 . S
O164 C158 1.268 1_655 S
O165 Sc155 2.105 . S
O165 C159 1.268 . S
O166 Sc156 2.105 . S
O166 C160 1.268 . S
O167 Sc154 2.105 . S
O167 C161 1.268 . S
O168 Sc156 2.105 . S
O168 C162 1.268 . S
O169 Sc155 2.105 . S
O169 C163 1.268 . S
O170 Sc154 2.105 . S
O170 C162 1.268 . S
O171 Sc155 2.105 . S
O171 C161 1.268 . S
O172 Sc156 2.105 . S
O172 C163 1.268 . S
O173 Sc154 2.105 . S
O173 C159 1.268 . S
O174 Sc156 2.105 . S
O174 C158 1.268 1_655 S
O175 Sc155 2.105 . S
O175 C160 1.268 . S
Sc176 O179 2.025 . S
Sc176 O186 2.105 . S
Sc176 O189 2.105 . S
Sc176 O192 2.105 . S
Sc176 O195 2.105 . S
Sc177 O179 2.025 . S
Sc177 O187 2.105 . S
Sc177 O191 2.105 . S
Sc177 O193 2.105 . S
Sc177 O197 2.105 . S
Sc178 O179 2.025 . S
Sc178 O188 2.105 . S
Sc178 O190 2.105 . S
Sc178 O194 2.105 . S
Sc178 O196 2.105 . S
O179 Sc176 2.025 . S
O179 Sc177 2.025 . S
O179 Sc178 2.025 . S
C180 O186 1.268 . S
C180 O196 1.268 . S
C181 O187 1.268 . S
C181 O195 1.268 . S
C182 O188 1.268 . S
C182 O197 1.268 . S
C183 O189 1.268 . S
C183 O193 1.268 . S
C184 O190 1.268 . S
C184 O192 1.268 . S
C185 O191 1.268 . S
C185 O194 1.268 . S
O186 Sc176 2.105 . S
O186 C180 1.268 . S
O187 Sc177 2.105 . S
O187 C181 1.268 . S
O188 Sc178 2.105 . S
O188 C182 1.268 . S
O189 Sc176 2.105 . S
O189 C183 1.268 . S
O190 Sc178 2.105 . S
O190 C184 1.268 . S
O191 Sc177 2.105 . S
O191 C185 1.268 . S
O192 Sc176 2.105 . S
O192 C184 1.268 . S
O193 Sc177 2.105 . S
O193 C183 1.268 . S
O194 Sc178 2.105 . S
O194 C185 1.268 . S
O195 Sc176 2.105 . S
O195 C181 1.268 . S
O196 Sc178 2.105 . S
O196 C180 1.268 . S
O197 Sc177 2.105 . S
O197 C182 1.268 . S
Sc198 O201 2.025 . S
Sc198 O208 2.105 . S
Sc198 O211 2.105 . S
Sc198 O214 2.105 . S
Sc198 O217 2.105 . S
Sc199 O201 2.025 . S
Sc199 O209 2.105 . S
Sc199 O213 2.105 . S
Sc199 O215 2.105 . S
Sc199 O219 2.105 . S
Sc200 O201 2.025 . S
Sc200 O210 2.105 . S
Sc200 O212 2.105 . S
Sc200 O216 2.105 . S
Sc200 O218 2.105 . S
O201 Sc198 2.025 . S
O201 Sc199 2.025 . S
O201 Sc200 2.025 . S
C202 O208 1.268 . S
C202 O218 1.268 . S
C203 O209 1.268 . S
C203 O217 1.268 . S
C204 O210 1.268 . S
C204 O219 1.268 . S
C205 O211 1.268 . S
C205 O215 1.268 . S
C206 O212 1.268 . S
C206 O214 1.268 . S
C207 O213 1.268 . S
C207 O216 1.268 . S
O208 Sc198 2.105 . S
O208 C202 1.268 . S
O209 Sc199 2.105 . S
O209 C203 1.268 . S
O210 Sc200 2.105 . S
O210 C204 1.268 . S
O211 Sc198 2.105 . S
O211 C205 1.268 . S
O212 Sc200 2.105 . S
O212 C206 1.268 . S
O213 Sc199 2.105 . S
O213 C207 1.268 . S
O214 Sc198 2.105 . S
O214 C206 1.268 . S
O215 Sc199 2.105 . S
O215 C205 1.268 . S
O216 Sc200 2.105 . S
O216 C207 1.268 . S
O217 Sc198 2.105 . S
O217 C203 1.268 . S
O218 Sc200 2.105 . S
O218 C202 1.268 . S
O219 Sc199 2.105 . S
O219 C204 1.268 . S
Sc220 O223 2.025 . S
Sc220 O230 2.105 . S
Sc220 O233 2.105 . S
Sc220 O236 2.105 . S
Sc220 O239 2.105 . S
Sc221 O223 2.025 . S
Sc221 O231 2.105 . S
Sc221 O235 2.105 . S
Sc221 O237 2.105 . S
Sc221 O241 2.105 . S
Sc222 O223 2.025 . S
Sc222 O232 2.105 . S
Sc222 O234 2.105 . S
Sc222 O238 2.105 . S
Sc222 O240 2.105 . S
O223 Sc220 2.025 . S
O223 Sc221 2.025 . S
O223 Sc222 2.025 . S
C224 O230 1.268 . S
C224 O240 1.268 . S
C225 O231 1.268 . S
C225 O239 1.268 . S
C226 O232 1.268 . S
C226 O241 1.268 . S
C227 O233 1.268 . S
C227 O237 1.268 . S
C228 O234 1.268 . S
C228 O236 1.268 . S
C229 O235 1.268 . S
C229 O238 1.268 . S
O230 Sc220 2.105 . S
O230 C224 1.268 . S
O231 Sc221 2.105 . S
O231 C225 1.268 . S
O232 Sc222 2.105 . S
O232 C226 1.268 . S
O233 Sc220 2.105 . S
O233 C227 1.268 . S
O234 Sc222 2.105 . S
O234 C228 1.268 . S
O235 Sc221 2.105 . S
O235 C229 1.268 . S
O236 Sc220 2.105 . S
O236 C228 1.268 . S
O237 Sc221 2.105 . S
O237 C227 1.268 . S
O238 Sc222 2.105 . S
O238 C229 1.268 . S
O239 Sc220 2.105 . S
O239 C225 1.268 . S
O240 Sc222 2.105 . S
O240 C224 1.268 . S
O241 Sc221 2.105 . S
O241 C226 1.268 . S
Sc242 O245 2.025 . S
Sc242 O252 2.105 . S
Sc242 O255 2.105 . S
Sc242 O258 2.105 . S
Sc242 O261 2.105 . S
Sc243 O245 2.025 . S
Sc243 O253 2.105 . S
Sc243 O257 2.105 . S
Sc243 O259 2.105 . S
Sc243 O263 2.105 . S
Sc244 O245 2.025 . S
Sc244 O254 2.105 . S
Sc244 O256 2.105 . S
Sc244 O260 2.105 . S
Sc244 O262 2.105 . S
O245 Sc242 2.025 . S
O245 Sc243 2.025 . S
O245 Sc244 2.025 . S
C246 O252 1.268 . S
C246 O262 1.268 . S
C247 O253 1.268 . S
C247 O261 1.268 . S
C248 O254 1.268 . S
C248 O263 1.268 . S
C249 O255 1.268 . S
C249 O259 1.268 . S
C250 O256 1.268 . S
C250 O258 1.268 . S
C251 O257 1.268 . S
C251 O260 1.268 . S
O252 Sc242 2.105 . S
O252 C246 1.268 . S
O253 Sc243 2.105 . S
O253 C247 1.268 . S
O254 Sc244 2.105 . S
O254 C248 1.268 . S
O255 Sc242 2.105 . S
O255 C249 1.268 . S
O256 Sc244 2.105 . S
O256 C250 1.268 . S
O257 Sc243 2.105 . S
O257 C251 1.268 . S
O258 Sc242 2.105 . S
O258 C250 1.268 . S
O259 Sc243 2.105 . S
O259 C249 1.268 . S
O260 Sc244 2.105 . S
O260 C251 1.268 . S
O261 Sc242 2.105 . S
O261 C247 1.268 . S
O262 Sc244 2.105 . S
O262 C246 1.268 . S
O263 Sc243 2.105 . S
O263 C248 1.268 . S
Sc264 O267 2.025 . S
Sc264 O274 2.105 . S
Sc264 O277 2.105 1_554 S
Sc264 O280 2.105 . S
Sc264 O283 2.105 . S
Sc265 O267 2.025 . S
Sc265 O275 2.105 . S
Sc265 O279 2.105 . S
Sc265 O281 2.105 1_554 S
Sc265 O285 2.105 . S
Sc266 O267 2.025 . S
Sc266 O276 2.105 . S
Sc266 O278 2.105 . S
Sc266 O282 2.105 . S
Sc266 O284 2.105 . S
O267 Sc264 2.025 . S
O267 Sc265 2.025 . S
O267 Sc266 2.025 . S
C268 O274 1.268 . S
C268 O284 1.268 . S
C269 O275 1.268 . S
C269 O283 1.268 . S
C270 O276 1.268 . S
C270 O285 1.268 . S
C271 O277 1.268 . S
C271 O281 1.268 . S
C272 O278 1.268 . S
C272 O280 1.268 . S
C273 O279 1.268 . S
C273 O282 1.268 . S
O274 Sc264 2.105 . S
O274 C268 1.268 . S
O275 Sc265 2.105 . S
O275 C269 1.268 . S
O276 Sc266 2.105 . S
O276 C270 1.268 . S
O277 Sc264 2.105 1_556 S
O277 C271 1.268 . S
O278 Sc266 2.105 . S
O278 C272 1.268 . S
O279 Sc265 2.105 . S
O279 C273 1.268 . S
O280 Sc264 2.105 . S
O280 C272 1.268 . S
O281 Sc265 2.105 1_556 S
O281 C271 1.268 . S
O282 Sc266 2.105 . S
O282 C273 1.268 . S
O283 Sc264 2.105 . S
O283 C269 1.268 . S
O284 Sc266 2.105 . S
O284 C268 1.268 . S
O285 Sc265 2.105 . S
O285 C270 1.268 . S
Sc286 O289 2.025 . S
Sc286 O296 2.105 . S
Sc286 O299 2.105 . S
Sc286 O302 2.105 . S
Sc286 O305 2.105 . S
Sc287 O289 2.025 . S
Sc287 O297 2.105 . S
Sc287 O301 2.105 1_556 S
Sc287 O303 2.105 . S
Sc287 O307 2.105 . S
Sc288 O289 2.025 . S
Sc288 O298 2.105 . S
Sc288 O300 2.105 . S
Sc288 O304 2.105 1_556 S
Sc288 O306 2.105 . S
O289 Sc286 2.025 . S
O289 Sc287 2.025 . S
O289 Sc288 2.025 . S
C290 O296 1.268 . S
C290 O306 1.268 . S
C291 O297 1.268 . S
C291 O305 1.268 . S
C292 O298 1.268 . S
C292 O307 1.268 . S
C293 O299 1.268 . S
C293 O303 1.268 . S
C294 O300 1.268 . S
C294 O302 1.268 . S
C295 O301 1.268 . S
C295 O304 1.268 . S
O296 Sc286 2.105 . S
O296 C290 1.268 . S
O297 Sc287 2.105 . S
O297 C291 1.268 . S
O298 Sc288 2.105 . S
O298 C292 1.268 . S
O299 Sc286 2.105 . S
O299 C293 1.268 . S
O300 Sc288 2.105 . S
O300 C294 1.268 . S
O301 Sc287 2.105 1_554 S
O301 C295 1.268 . S
O302 Sc286 2.105 . S
O302 C294 1.268 . S
O303 Sc287 2.105 . S
O303 C293 1.268 . S
O304 Sc288 2.105 1_554 S
O304 C295 1.268 . S
O305 Sc286 2.105 . S
O305 C291 1.268 . S
O306 Sc288 2.105 . S
O306 C290 1.268 . S
O307 Sc287 2.105 . S
O307 C292 1.268 . S
Sc308 O311 2.025 . S
Sc308 O318 2.105 . S
Sc308 O321 2.105 . S
Sc308 O324 2.105 . S
Sc308 O327 2.105 . S
Sc309 O311 2.025 . S
Sc309 O319 2.105 . S
Sc309 O323 2.105 . S
Sc309 O325 2.105 . S
Sc309 O329 2.105 1_554 S
Sc310 O311 2.025 . S
Sc310 O320 2.105 1_554 S
Sc310 O322 2.105 . S
Sc310 O326 2.105 . S
Sc310 O328 2.105 . S
O311 Sc308 2.025 . S
O311 Sc309 2.025 . S
O311 Sc310 2.025 . S
C312 O318 1.268 . S
C312 O328 1.268 . S
C313 O319 1.268 . S
C313 O327 1.268 . S
C314 O320 1.268 . S
C314 O329 1.268 . S
C315 O321 1.268 . S
C315 O325 1.268 . S
C316 O322 1.268 . S
C316 O324 1.268 . S
C317 O323 1.268 . S
C317 O326 1.268 . S
O318 Sc308 2.105 . S
O318 C312 1.268 . S
O319 Sc309 2.105 . S
O319 C313 1.268 . S
O320 Sc310 2.105 1_556 S
O320 C314 1.268 . S
O321 Sc308 2.105 . S
O321 C315 1.268 . S
O322 Sc310 2.105 . S
O322 C316 1.268 . S
O323 Sc309 2.105 . S
O323 C317 1.268 . S
O324 Sc308 2.105 . S
O324 C316 1.268 . S
O325 Sc309 2.105 . S
O325 C315 1.268 . S
O326 Sc310 2.105 . S
O326 C317 1.268 . S
O327 Sc308 2.105 . S
O327 C313 1.268 . S
O328 Sc310 2.105 . S
O328 C312 1.268 . S
O329 Sc309 2.105 1_556 S
O329 C314 1.268 . S
Sc330 O333 2.025 . S
Sc330 O340 2.105 . S
Sc330 O343 2.105 . S
Sc330 O346 2.105 . S
Sc330 O349 2.105 1_556 S
Sc331 O333 2.025 . S
Sc331 O341 2.105 1_556 S
Sc331 O345 2.105 . S
Sc331 O347 2.105 . S
Sc331 O351 2.105 . S
Sc332 O333 2.025 . S
Sc332 O342 2.105 . S
Sc332 O344 2.105 . S
Sc332 O348 2.105 . S
Sc332 O350 2.105 . S
O333 Sc330 2.025 . S
O333 Sc331 2.025 . S
O333 Sc332 2.025 . S
C334 O340 1.268 . S
C334 O350 1.268 . S
C335 O341 1.268 . S
C335 O349 1.268 . S
C336 O342 1.268 . S
C336 O351 1.268 . S
C337 O343 1.268 . S
C337 O347 1.268 . S
C338 O344 1.268 . S
C338 O346 1.268 . S
C339 O345 1.268 . S
C339 O348 1.268 . S
O340 Sc330 2.105 . S
O340 C334 1.268 . S
O341 Sc331 2.105 1_554 S
O341 C335 1.268 . S
O342 Sc332 2.105 . S
O342 C336 1.268 . S
O343 Sc330 2.105 . S
O343 C337 1.268 . S
O344 Sc332 2.105 . S
O344 C338 1.268 . S
O345 Sc331 2.105 . S
O345 C339 1.268 . S
O346 Sc330 2.105 . S
O346 C338 1.268 . S
O347 Sc331 2.105 . S
O347 C337 1.268 . S
O348 Sc332 2.105 . S
O348 C339 1.268 . S
O349 Sc330 2.105 1_554 S
O349 C335 1.268 . S
O350 Sc332 2.105 . S
O350 C334 1.268 . S
O351 Sc331 2.105 . S
O351 C336 1.268 . S
H352 C364 0.930 . S
H353 C366 0.930 . S
H354 C367 0.930 . S
H355 C371 0.959 . S
H356 C371 0.959 . S
H357 C371 0.961 . S
H358 C372 0.960 . S
H359 C372 0.961 . S
H360 C372 0.959 . S
H361 C375 0.929 . S
H362 C376 0.931 . S
H363 C378 0.930 . S
C364 H352 0.930 . S
C364 C365 1.399 . S
C364 C369 1.399 . S
C365 C364 1.399 . S
C365 C366 1.376 . S
C366 H353 0.930 . S
C366 C365 1.376 . S
C366 C367 1.388 . S
C367 H354 0.930 . S
C367 C366 1.388 . S
C367 C368 1.390 . S
C368 C367 1.390 . S
C368 C369 1.394 . S
C368 C374 1.465 . S
C369 C364 1.399 . S
C369 C368 1.394 . S
C369 C370 1.516 . S
C370 C369 1.516 . S
C370 C371 1.502 . S
C370 C372 1.561 . S
C370 C373 1.526 . S
C371 H355 0.959 . S
C371 H356 0.959 . S
C371 H357 0.961 . S
C371 C370 1.502 . S
C372 H358 0.960 . S
C372 H359 0.961 . S
C372 H360 0.959 . S
C372 C370 1.561 . S
C373 C370 1.526 . S
C373 C374 1.396 . S
C373 C378 1.390 . S
C374 C368 1.465 . S
C374 C373 1.396 . S
C374 C375 1.399 . S
C375 H361 0.929 . S
C375 C374 1.399 . S
C375 C376 1.385 . S
C376 H362 0.931 . S
C376 C375 1.385 . S
C376 C377 1.389 . S
C377 C376 1.389 . S
C377 C378 1.387 . S
C378 H363 0.930 . S
C378 C373 1.390 . S
C378 C377 1.387 . S
H379 C391 0.930 . S
H380 C393 0.930 . S
H381 C394 0.930 . S
H382 C398 0.959 . S
H383 C398 0.959 . S
H384 C398 0.961 . S
H385 C399 0.960 . S
H386 C399 0.961 . S
H387 C399 0.959 . S
H388 C402 0.929 . S
H389 C403 0.931 . S
H390 C405 0.930 . S
C391 H379 0.930 . S
C391 C392 1.399 . S
C391 C396 1.399 . S
C392 C391 1.399 . S
C392 C393 1.376 . S
C393 H380 0.930 . S
C393 C392 1.376 . S
C393 C394 1.388 . S
C394 H381 0.930 . S
C394 C393 1.388 . S
C394 C395 1.390 . S
C395 C394 1.390 . S
C395 C396 1.394 . S
C395 C401 1.465 . S
C396 C391 1.399 . S
C396 C395 1.394 . S
C396 C397 1.516 . S
C397 C396 1.516 . S
C397 C398 1.502 . S
C397 C399 1.561 . S
C397 C400 1.526 . S
C398 H382 0.959 . S
C398 H383 0.959 . S
C398 H384 0.961 . S
C398 C397 1.502 . S
C399 H385 0.960 . S
C399 H386 0.961 . S
C399 H387 0.959 . S
C399 C397 1.561 . S
C400 C397 1.526 . S
C400 C401 1.396 . S
C400 C405 1.390 . S
C401 C395 1.465 . S
C401 C400 1.396 . S
C401 C402 1.399 . S
C402 H388 0.929 . S
C402 C401 1.399 . S
C402 C403 1.385 . S
C403 H389 0.931 . S
C403 C402 1.385 . S
C403 C404 1.389 . S
C404 C403 1.389 . S
C404 C405 1.387 . S
C405 H390 0.930 . S
C405 C400 1.390 . S
C405 C404 1.387 . S
H406 C418 0.930 . S
H407 C420 0.930 . S
H408 C421 0.930 . S
H409 C425 0.959 . S
H410 C425 0.959 . S
H411 C425 0.961 . S
H412 C426 0.960 . S
H413 C426 0.961 . S
H414 C426 0.959 . S
H415 C429 0.929 . S
H416 C430 0.931 . S
H417 C432 0.930 . S
C418 H406 0.930 . S
C418 C419 1.399 . S
C418 C423 1.399 . S
C419 C418 1.399 . S
C419 C420 1.376 . S
C420 H407 0.930 . S
C420 C419 1.376 . S
C420 C421 1.388 . S
C421 H408 0.930 . S
C421 C420 1.388 . S
C421 C422 1.390 . S
C422 C421 1.390 . S
C422 C423 1.394 . S
C422 C428 1.465 . S
C423 C418 1.399 . S
C423 C422 1.394 . S
C423 C424 1.516 . S
C424 C423 1.516 . S
C424 C425 1.502 . S
C424 C426 1.561 . S
C424 C427 1.526 . S
C425 H409 0.959 . S
C425 H410 0.959 . S
C425 H411 0.961 . S
C425 C424 1.502 . S
C426 H412 0.960 . S
C426 H413 0.961 . S
C426 H414 0.959 . S
C426 C424 1.561 . S
C427 C424 1.526 . S
C427 C428 1.396 . S
C427 C432 1.390 . S
C428 C422 1.465 . S
C428 C427 1.396 . S
C428 C429 1.399 . S
C429 H415 0.929 . S
C429 C428 1.399 . S
C429 C430 1.385 . S
C430 H416 0.931 . S
C430 C429 1.385 . S
C430 C431 1.389 . S
C431 C430 1.389 . S
C431 C432 1.387 . S
C432 H417 0.930 . S
C432 C427 1.390 . S
C432 C431 1.387 . S
H433 C445 0.930 . S
H434 C447 0.930 . S
H435 C448 0.930 . S
H436 C452 0.959 . S
H437 C452 0.959 . S
H438 C452 0.961 . S
H439 C453 0.960 . S
H440 C453 0.961 . S
H441 C453 0.959 . S
H442 C456 0.929 . S
H443 C457 0.931 . S
H444 C459 0.930 . S
C445 H433 0.930 . S
C445 C446 1.399 . S
C445 C450 1.399 . S
C446 C445 1.399 . S
C446 C447 1.376 . S
C447 H434 0.930 . S
C447 C446 1.376 . S
C447 C448 1.388 . S
C448 H435 0.930 . S
C448 C447 1.388 . S
C448 C449 1.390 . S
C449 C448 1.390 . S
C449 C450 1.394 . S
C449 C455 1.465 . S
C450 C445 1.399 . S
C450 C449 1.394 . S
C450 C451 1.516 . S
C451 C450 1.516 . S
C451 C452 1.502 . S
C451 C453 1.561 . S
C451 C454 1.526 . S
C452 H436 0.959 . S
C452 H437 0.959 . S
C452 H438 0.961 . S
C452 C451 1.502 . S
C453 H439 0.960 . S
C453 H440 0.961 . S
C453 H441 0.959 . S
C453 C451 1.561 . S
C454 C451 1.526 . S
C454 C455 1.396 . S
C454 C459 1.390 . S
C455 C449 1.465 . S
C455 C454 1.396 . S
C455 C456 1.399 . S
C456 H442 0.929 . S
C456 C455 1.399 . S
C456 C457 1.385 . S
C457 H443 0.931 . S
C457 C456 1.385 . S
C457 C458 1.389 . S
C458 C457 1.389 . S
C458 C459 1.387 . S
C459 H444 0.930 . S
C459 C454 1.390 . S
C459 C458 1.387 . S
H460 C472 0.930 . S
H461 C474 0.930 . S
H462 C475 0.930 . S
H463 C479 0.959 . S
H464 C479 0.959 . S
H465 C479 0.961 . S
H466 C480 0.960 . S
H467 C480 0.961 . S
H468 C480 0.959 . S
H469 C483 0.929 . S
H470 C484 0.931 . S
H471 C486 0.930 . S
C472 H460 0.930 . S
C472 C473 1.399 . S
C472 C477 1.399 . S
C473 C472 1.399 . S
C473 C474 1.376 . S
C474 H461 0.930 . S
C474 C473 1.376 . S
C474 C475 1.388 . S
C475 H462 0.930 . S
C475 C474 1.388 . S
C475 C476 1.390 . S
C476 C475 1.390 . S
C476 C477 1.394 . S
C476 C482 1.465 . S
C477 C472 1.399 . S
C477 C476 1.394 . S
C477 C478 1.516 . S
C478 C477 1.516 . S
C478 C479 1.502 . S
C478 C480 1.561 . S
C478 C481 1.526 . S
C479 H463 0.959 . S
C479 H464 0.959 . S
C479 H465 0.961 . S
C479 C478 1.502 . S
C480 H466 0.960 . S
C480 H467 0.961 . S
C480 H468 0.959 . S
C480 C478 1.561 . S
C481 C478 1.526 . S
C481 C482 1.396 . S
C481 C486 1.390 . S
C482 C476 1.465 . S
C482 C481 1.396 . S
C482 C483 1.399 . S
C483 H469 0.929 . S
C483 C482 1.399 . S
C483 C484 1.385 . S
C484 H470 0.931 . S
C484 C483 1.385 . S
C484 C485 1.389 . S
C485 C484 1.389 . S
C485 C486 1.387 . S
C486 H471 0.930 . S
C486 C481 1.390 . S
C486 C485 1.387 . S
H487 C499 0.930 . S
H488 C501 0.930 . S
H489 C502 0.930 . S
H490 C506 0.959 . S
H491 C506 0.959 . S
H492 C506 0.961 . S
H493 C507 0.960 . S
H494 C507 0.961 . S
H495 C507 0.959 . S
H496 C510 0.929 . S
H497 C511 0.931 . S
H498 C513 0.930 . S
C499 H487 0.930 . S
C499 C500 1.399 . S
C499 C504 1.399 . S
C500 C499 1.399 . S
C500 C501 1.376 . S
C501 H488 0.930 . S
C501 C500 1.376 . S
C501 C502 1.388 . S
C502 H489 0.930 . S
C502 C501 1.388 . S
C502 C503 1.390 . S
C503 C502 1.390 . S
C503 C504 1.394 . S
C503 C509 1.465 . S
C504 C499 1.399 . S
C504 C503 1.394 . S
C504 C505 1.516 . S
C505 C504 1.516 . S
C505 C506 1.502 . S
C505 C507 1.561 . S
C505 C508 1.526 . S
C506 H490 0.959 . S
C506 H491 0.959 . S
C506 H492 0.961 . S
C506 C505 1.502 . S
C507 H493 0.960 . S
C507 H494 0.961 . S
C507 H495 0.959 . S
C507 C505 1.561 . S
C508 C505 1.526 . S
C508 C509 1.396 . S
C508 C513 1.390 . S
C509 C503 1.465 . S
C509 C508 1.396 . S
C509 C510 1.399 . S
C510 H496 0.929 . S
C510 C509 1.399 . S
C510 C511 1.385 . S
C511 H497 0.931 . S
C511 C510 1.385 . S
C511 C512 1.389 . S
C512 C511 1.389 . S
C512 C513 1.387 . S
C513 H498 0.930 . S
C513 C508 1.390 . S
C513 C512 1.387 . S
H514 C526 0.930 . S
H515 C528 0.930 . S
H516 C529 0.930 . S
H517 C533 0.959 . S
H518 C533 0.959 . S
H519 C533 0.961 . S
H520 C534 0.960 . S
H521 C534 0.961 . S
H522 C534 0.959 . S
H523 C537 0.929 . S
H524 C538 0.931 . S
H525 C540 0.930 . S
C526 H514 0.930 . S
C526 C527 1.399 . S
C526 C531 1.399 . S
C527 C526 1.399 . S
C527 C528 1.376 . S
C528 H515 0.930 . S
C528 C527 1.376 . S
C528 C529 1.388 . S
C529 H516 0.930 . S
C529 C528 1.388 . S
C529 C530 1.390 . S
C530 C529 1.390 . S
C530 C531 1.394 . S
C530 C536 1.465 . S
C531 C526 1.399 . S
C531 C530 1.394 . S
C531 C532 1.516 . S
C532 C531 1.516 . S
C532 C533 1.502 . S
C532 C534 1.561 . S
C532 C535 1.526 . S
C533 H517 0.959 . S
C533 H518 0.959 . S
C533 H519 0.961 . S
C533 C532 1.502 . S
C534 H520 0.960 . S
C534 H521 0.961 . S
C534 H522 0.959 . S
C534 C532 1.561 . S
C535 C532 1.526 . S
C535 C536 1.396 . S
C535 C540 1.390 . S
C536 C530 1.465 . S
C536 C535 1.396 . S
C536 C537 1.399 . S
C537 H523 0.929 . S
C537 C536 1.399 . S
C537 C538 1.385 . S
C538 H524 0.931 . S
C538 C537 1.385 . S
C538 C539 1.389 . S
C539 C538 1.389 . S
C539 C540 1.387 . S
C540 H525 0.930 . S
C540 C535 1.390 . S
C540 C539 1.387 . S
H541 C553 0.930 . S
H542 C555 0.930 . S
H543 C556 0.930 . S
H544 C560 0.959 . S
H545 C560 0.959 . S
H546 C560 0.961 . S
H547 C561 0.960 . S
H548 C561 0.961 . S
H549 C561 0.959 . S
H550 C564 0.929 . S
H551 C565 0.931 . S
H552 C567 0.930 . S
C553 H541 0.930 . S
C553 C554 1.399 . S
C553 C558 1.399 . S
C554 C553 1.399 . S
C554 C555 1.376 . S
C555 H542 0.930 . S
C555 C554 1.376 . S
C555 C556 1.388 . S
C556 H543 0.930 . S
C556 C555 1.388 . S
C556 C557 1.390 . S
C557 C556 1.390 . S
C557 C558 1.394 . S
C557 C563 1.465 . S
C558 C553 1.399 . S
C558 C557 1.394 . S
C558 C559 1.516 . S
C559 C558 1.516 . S
C559 C560 1.502 . S
C559 C561 1.561 . S
C559 C562 1.526 . S
C560 H544 0.959 . S
C560 H545 0.959 . S
C560 H546 0.961 . S
C560 C559 1.502 . S
C561 H547 0.960 . S
C561 H548 0.961 . S
C561 H549 0.959 . S
C561 C559 1.561 . S
C562 C559 1.526 . S
C562 C563 1.396 . S
C562 C567 1.390 . S
C563 C557 1.465 . S
C563 C562 1.396 . S
C563 C564 1.399 . S
C564 H550 0.929 . S
C564 C563 1.399 . S
C564 C565 1.385 . S
C565 H551 0.931 . S
C565 C564 1.385 . S
C565 C566 1.389 . S
C566 C565 1.389 . S
C566 C567 1.387 . S
C567 H552 0.930 . S
C567 C562 1.390 . S
C567 C566 1.387 . S
H568 C580 0.924 1_556 S
H569 C582 0.930 . S
H570 C583 0.930 . S
H571 C587 0.959 . S
H572 C587 0.959 . S
H573 C587 0.961 . S
H574 C588 0.960 . S
H575 C588 0.961 . S
H576 C588 0.959 . S
H577 C591 0.929 . S
H578 C592 0.931 . S
H579 C594 0.930 . S
C580 H568 0.924 1_554 S
C580 C581 1.405 . S
C580 C585 1.399 1_554 S
C581 C580 1.405 . S
C581 C582 1.376 . S
C582 H569 0.930 . S
C582 C581 1.376 . S
C582 C583 1.388 . S
C583 H570 0.930 . S
C583 C582 1.388 . S
C583 C584 1.390 . S
C584 C583 1.390 . S
C584 C585 1.391 1_554 S
C584 C590 1.465 . S
C585 C580 1.399 1_556 S
C585 C584 1.391 1_556 S
C585 C586 1.518 . S
C586 C585 1.518 . S
C586 C587 1.502 . S
C586 C588 1.561 . S
C586 C589 1.526 . S
C587 H571 0.959 . S
C587 H572 0.959 . S
C587 H573 0.961 . S
C587 C586 1.502 . S
C588 H574 0.960 . S
C588 H575 0.961 . S
C588 H576 0.959 . S
C588 C586 1.561 . S
C589 C586 1.526 . S
C589 C590 1.396 1_556 S
C589 C594 1.390 . S
C590 C584 1.465 . S
C590 C589 1.396 1_554 S
C590 C591 1.399 . S
C591 H577 0.929 . S
C591 C590 1.399 . S
C591 C592 1.385 . S
C592 H578 0.931 . S
C592 C591 1.385 . S
C592 C593 1.389 1_554 S
C593 C592 1.389 1_556 S
C593 C594 1.387 . S
C594 H579 0.930 . S
C594 C589 1.390 . S
C594 C593 1.387 . S
H595 C607 0.930 . S
H596 C609 0.930 . S
H597 C610 0.930 . S
H598 C614 0.959 . S
H599 C614 0.959 . S
H600 C614 0.961 . S
H601 C615 0.960 . S
H602 C615 0.961 . S
H603 C615 0.959 . S
H604 C618 0.929 . S
H605 C619 0.931 . S
H606 C621 0.930 . S
C607 H595 0.930 . S
C607 C608 1.399 1_556 S
C607 C612 1.399 . S
C608 C607 1.399 1_554 S
C608 C609 1.376 . S
C609 H596 0.930 . S
C609 C608 1.376 . S
C609 C610 1.388 . S
C610 H597 0.930 . S
C610 C609 1.388 . S
C610 C611 1.390 . S
C611 C610 1.390 . S
C611 C612 1.394 1_554 S
C611 C617 1.465 . S
C612 C607 1.399 . S
C612 C611 1.394 1_556 S
C612 C613 1.516 . S
C613 C612 1.516 . S
C613 C614 1.502 . S
C613 C615 1.561 . S
C613 C616 1.526 . S
C614 H598 0.959 . S
C614 H599 0.959 . S
C614 H600 0.961 . S
C614 C613 1.502 . S
C615 H601 0.960 . S
C615 H602 0.961 . S
C615 H603 0.959 . S
C615 C613 1.561 . S
C616 C613 1.526 . S
C616 C617 1.396 1_556 S
C616 C621 1.390 . S
C617 C611 1.465 . S
C617 C616 1.396 1_554 S
C617 C618 1.399 . S
C618 H604 0.929 . S
C618 C617 1.399 . S
C618 C619 1.385 . S
C619 H605 0.931 . S
C619 C618 1.385 . S
C619 C620 1.389 1_554 S
C620 C619 1.389 1_556 S
C620 C621 1.387 . S
C621 H606 0.930 . S
C621 C616 1.390 . S
C621 C620 1.387 . S
H622 C634 0.930 . S
H623 C636 0.930 . S
H624 C637 0.930 . S
H625 C641 0.959 . S
H626 C641 0.959 . S
H627 C641 0.961 . S
H628 C642 0.960 . S
H629 C642 0.961 . S
H630 C642 0.959 . S
H631 C645 0.929 . S
H632 C646 0.931 . S
H633 C648 0.930 1_556 S
C634 H622 0.930 . S
C634 C635 1.399 . S
C634 C639 1.399 . S
C635 C634 1.399 . S
C635 C636 1.376 1_556 S
C636 H623 0.930 . S
C636 C635 1.376 1_554 S
C636 C637 1.388 . S
C637 H624 0.930 . S
C637 C636 1.388 . S
C637 C638 1.390 . S
C638 C637 1.390 . S
C638 C639 1.394 1_554 S
C638 C644 1.465 . S
C639 C634 1.399 . S
C639 C638 1.394 1_556 S
C639 C640 1.516 . S
C640 C639 1.516 . S
C640 C641 1.502 . S
C640 C642 1.561 . S
C640 C643 1.526 1_556 S
C641 H625 0.959 . S
C641 H626 0.959 . S
C641 H627 0.961 . S
C641 C640 1.502 . S
C642 H628 0.960 . S
C642 H629 0.961 . S
C642 H630 0.959 . S
C642 C640 1.561 . S
C643 C640 1.526 1_554 S
C643 C644 1.396 . S
C643 C648 1.390 . S
C644 C638 1.465 . S
C644 C643 1.396 . S
C644 C645 1.399 . S
C645 H631 0.929 . S
C645 C644 1.399 . S
C645 C646 1.385 . S
C646 H632 0.931 . S
C646 C645 1.385 . S
C646 C647 1.389 . S
C647 C646 1.389 . S
C647 C648 1.387 . S
C648 H633 0.930 1_554 S
C648 C643 1.390 . S
C648 C647 1.387 . S
H649 C661 0.930 . S
H650 C663 0.930 . S
H651 C664 0.930 . S
H652 C668 0.959 . S
H653 C668 0.959 . S
H654 C668 0.961 . S
H655 C669 0.960 . S
H656 C669 0.961 . S
H657 C669 0.959 . S
H658 C672 0.929 . S
H659 C673 0.931 . S
H660 C675 0.930 . S
C661 H649 0.930 . S
C661 C662 1.399 . S
C661 C666 1.399 . S
C662 C661 1.399 . S
C662 C663 1.376 1_556 S
C663 H650 0.930 . S
C663 C662 1.376 1_554 S
C663 C664 1.388 . S
C664 H651 0.930 . S
C664 C663 1.388 . S
C664 C665 1.390 1_554 S
C665 C664 1.390 1_556 S
C665 C666 1.394 . S
C665 C671 1.465 1_556 S
C666 C661 1.399 . S
C666 C665 1.394 . S
C666 C667 1.516 . S
C667 C666 1.516 . S
C667 C668 1.502 . S
C667 C669 1.561 . S
C667 C670 1.526 . S
C668 H652 0.959 . S
C668 H653 0.959 . S
C668 H654 0.961 . S
C668 C667 1.502 . S
C669 H655 0.960 . S
C669 H656 0.961 . S
C669 H657 0.959 . S
C669 C667 1.561 . S
C670 C667 1.526 . S
C670 C671 1.396 1_556 S
C670 C675 1.390 . S
C671 C665 1.465 1_554 S
C671 C670 1.396 1_554 S
C671 C672 1.399 . S
C672 H658 0.929 . S
C672 C671 1.399 . S
C672 C673 1.385 . S
C673 H659 0.931 . S
C673 C672 1.385 . S
C673 C674 1.389 . S
C674 C673 1.389 . S
C674 C675 1.387 1_554 S
C675 H660 0.930 . S
C675 C670 1.390 . S
C675 C674 1.387 1_556 S
H676 C688 0.930 . S
H677 C690 0.930 . S
H678 C691 0.930 . S
H679 C695 0.959 . S
H680 C695 0.959 . S
H681 C695 0.961 . S
H682 C696 0.960 . S
H683 C696 0.961 . S
H684 C696 0.959 . S
H685 C699 0.929 . S
H686 C700 0.931 . S
H687 C702 0.930 . S
C688 H676 0.930 . S
C688 C689 1.399 . S
C688 C693 1.399 . S
C689 C688 1.399 . S
C689 C690 1.376 . S
C690 H677 0.930 . S
C690 C689 1.376 . S
C690 C691 1.388 . S
C691 H678 0.930 . S
C691 C690 1.388 . S
C691 C692 1.390 . S
C692 C691 1.390 . S
C692 C693 1.394 . S
C692 C698 1.465 . S
C693 C688 1.399 . S
C693 C692 1.394 . S
C693 C694 1.516 . S
C694 C693 1.516 . S
C694 C695 1.502 . S
C694 C696 1.561 . S
C694 C697 1.526 . S
C695 H679 0.959 . S
C695 H680 0.959 . S
C695 H681 0.961 . S
C695 C694 1.502 . S
C696 H682 0.960 . S
C696 H683 0.961 . S
C696 H684 0.959 . S
C696 C694 1.561 . S
C697 C694 1.526 . S
C697 C698 1.396 . S
C697 C702 1.390 . S
C698 C692 1.465 . S
C698 C697 1.396 . S
C698 C699 1.399 . S
C699 H685 0.929 . S
C699 C698 1.399 . S
C699 C700 1.385 . S
C700 H686 0.931 . S
C700 C699 1.385 . S
C700 C701 1.389 . S
C701 C700 1.389 . S
C701 C702 1.387 . S
C702 H687 0.930 . S
C702 C697 1.390 . S
C702 C701 1.387 . S
H703 C715 0.930 . S
H704 C717 0.930 . S
H705 C718 0.930 . S
H706 C722 0.959 . S
H707 C722 0.959 . S
H708 C722 0.961 . S
H709 C723 0.960 . S
H710 C723 0.961 . S
H711 C723 0.959 . S
H712 C726 0.929 . S
H713 C727 0.931 . S
H714 C729 0.930 . S
C715 H703 0.930 . S
C715 C716 1.399 . S
C715 C720 1.399 . S
C716 C715 1.399 . S
C716 C717 1.376 . S
C717 H704 0.930 . S
C717 C716 1.376 . S
C717 C718 1.388 . S
C718 H705 0.930 . S
C718 C717 1.388 . S
C718 C719 1.390 . S
C719 C718 1.390 . S
C719 C720 1.394 . S
C719 C725 1.465 . S
C720 C715 1.399 . S
C720 C719 1.394 . S
C720 C721 1.516 . S
C721 C720 1.516 . S
C721 C722 1.502 . S
C721 C723 1.561 . S
C721 C724 1.526 . S
C722 H706 0.959 . S
C722 H707 0.959 . S
C722 H708 0.961 . S
C722 C721 1.502 . S
C723 H709 0.960 . S
C723 H710 0.961 . S
C723 H711 0.959 . S
C723 C721 1.561 . S
C724 C721 1.526 . S
C724 C725 1.396 . S
C724 C729 1.390 . S
C725 C719 1.465 . S
C725 C724 1.396 . S
C725 C726 1.399 . S
C726 H712 0.929 . S
C726 C725 1.399 . S
C726 C727 1.385 . S
C727 H713 0.931 . S
C727 C726 1.385 . S
C727 C728 1.389 . S
C728 C727 1.389 . S
C728 C729 1.387 . S
C729 H714 0.930 . S
C729 C724 1.390 . S
C729 C728 1.387 . S
H730 C742 0.930 . S
H731 C744 0.930 . S
H732 C745 0.930 . S
H733 C749 0.959 . S
H734 C749 0.959 . S
H735 C749 0.961 . S
H736 C750 0.960 . S
H737 C750 0.961 . S
H738 C750 0.959 . S
H739 C753 0.929 . S
H740 C754 0.931 . S
H741 C756 0.930 . S
C742 H730 0.930 . S
C742 C743 1.399 . S
C742 C747 1.399 . S
C743 C742 1.399 . S
C743 C744 1.376 . S
C744 H731 0.930 . S
C744 C743 1.376 . S
C744 C745 1.388 . S
C745 H732 0.930 . S
C745 C744 1.388 . S
C745 C746 1.390 . S
C746 C745 1.390 . S
C746 C747 1.394 . S
C746 C752 1.465 . S
C747 C742 1.399 . S
C747 C746 1.394 . S
C747 C748 1.516 . S
C748 C747 1.516 . S
C748 C749 1.502 . S
C748 C750 1.561 . S
C748 C751 1.526 . S
C749 H733 0.959 . S
C749 H734 0.959 . S
C749 H735 0.961 . S
C749 C748 1.502 . S
C750 H736 0.960 . S
C750 H737 0.961 . S
C750 H738 0.959 . S
C750 C748 1.561 . S
C751 C748 1.526 . S
C751 C752 1.396 . S
C751 C756 1.390 . S
C752 C746 1.465 . S
C752 C751 1.396 . S
C752 C753 1.399 . S
C753 H739 0.929 . S
C753 C752 1.399 . S
C753 C754 1.385 . S
C754 H740 0.931 . S
C754 C753 1.385 . S
C754 C755 1.389 . S
C755 C754 1.389 . S
C755 C756 1.387 . S
C756 H741 0.930 . S
C756 C751 1.390 . S
C756 C755 1.387 . S
H757 C769 0.930 . S
H758 C771 0.930 . S
H759 C772 0.930 . S
H760 C776 0.959 . S
H761 C776 0.959 . S
H762 C776 0.961 . S
H763 C777 0.960 . S
H764 C777 0.961 . S
H765 C777 0.959 . S
H766 C780 0.929 . S
H767 C781 0.931 . S
H768 C783 0.930 . S
C769 H757 0.930 . S
C769 C770 1.399 . S
C769 C774 1.399 . S
C770 C769 1.399 . S
C770 C771 1.376 . S
C771 H758 0.930 . S
C771 C770 1.376 . S
C771 C772 1.388 . S
C772 H759 0.930 . S
C772 C771 1.388 . S
C772 C773 1.390 . S
C773 C772 1.390 . S
C773 C774 1.394 . S
C773 C779 1.465 . S
C774 C769 1.399 . S
C774 C773 1.394 . S
C774 C775 1.516 . S
C775 C774 1.516 . S
C775 C776 1.502 . S
C775 C777 1.561 . S
C775 C778 1.526 . S
C776 H760 0.959 . S
C776 H761 0.959 . S
C776 H762 0.961 . S
C776 C775 1.502 . S
C777 H763 0.960 . S
C777 H764 0.961 . S
C777 H765 0.959 . S
C777 C775 1.561 . S
C778 C775 1.526 . S
C778 C779 1.396 . S
C778 C783 1.390 . S
C779 C773 1.465 . S
C779 C778 1.396 . S
C779 C780 1.399 . S
C780 H766 0.929 . S
C780 C779 1.399 . S
C780 C781 1.385 . S
C781 H767 0.931 . S
C781 C780 1.385 . S
C781 C782 1.389 . S
C782 C781 1.389 . S
C782 C783 1.387 . S
C783 H768 0.930 . S
C783 C778 1.390 . S
C783 C782 1.387 . S
H784 C796 0.930 . S
H785 C798 0.930 . S
H786 C799 0.930 . S
H787 C803 0.959 . S
H788 C803 0.959 . S
H789 C803 0.961 . S
H790 C804 0.960 . S
H791 C804 0.961 . S
H792 C804 0.959 . S
H793 C807 0.929 . S
H794 C808 0.931 . S
H795 C810 0.930 . S
C796 H784 0.930 . S
C796 C797 1.399 . S
C796 C801 1.399 . S
C797 C796 1.399 . S
C797 C798 1.376 . S
C798 H785 0.930 . S
C798 C797 1.376 . S
C798 C799 1.388 . S
C799 H786 0.930 . S
C799 C798 1.388 . S
C799 C800 1.390 . S
C800 C799 1.390 . S
C800 C801 1.394 . S
C800 C806 1.465 . S
C801 C796 1.399 . S
C801 C800 1.394 . S
C801 C802 1.516 . S
C802 C801 1.516 . S
C802 C803 1.502 . S
C802 C804 1.561 . S
C802 C805 1.526 . S
C803 H787 0.959 . S
C803 H788 0.959 . S
C803 H789 0.961 . S
C803 C802 1.502 . S
C804 H790 0.960 . S
C804 H791 0.961 . S
C804 H792 0.959 . S
C804 C802 1.561 . S
C805 C802 1.526 . S
C805 C806 1.396 . S
C805 C810 1.390 . S
C806 C800 1.465 . S
C806 C805 1.396 . S
C806 C807 1.399 . S
C807 H793 0.929 . S
C807 C806 1.399 . S
C807 C808 1.385 . S
C808 H794 0.931 . S
C808 C807 1.385 . S
C808 C809 1.389 . S
C809 C808 1.389 . S
C809 C810 1.387 . S
C810 H795 0.930 . S
C810 C805 1.390 . S
C810 C809 1.387 . S
H811 C823 0.930 . S
H812 C825 0.930 . S
H813 C826 0.930 . S
H814 C830 0.959 . S
H815 C830 0.959 . S
H816 C830 0.961 . S
H817 C831 0.960 . S
H818 C831 0.961 . S
H819 C831 0.959 . S
H820 C834 0.929 . S
H821 C835 0.931 . S
H822 C837 0.930 . S
C823 H811 0.930 . S
C823 C824 1.399 . S
C823 C828 1.399 . S
C824 C823 1.399 . S
C824 C825 1.376 . S
C825 H812 0.930 . S
C825 C824 1.376 . S
C825 C826 1.388 . S
C826 H813 0.930 . S
C826 C825 1.388 . S
C826 C827 1.390 . S
C827 C826 1.390 . S
C827 C828 1.394 . S
C827 C833 1.465 . S
C828 C823 1.399 . S
C828 C827 1.394 . S
C828 C829 1.516 . S
C829 C828 1.516 . S
C829 C830 1.502 . S
C829 C831 1.561 . S
C829 C832 1.526 . S
C830 H814 0.959 . S
C830 H815 0.959 . S
C830 H816 0.961 . S
C830 C829 1.502 . S
C831 H817 0.960 . S
C831 H818 0.961 . S
C831 H819 0.959 . S
C831 C829 1.561 . S
C832 C829 1.526 . S
C832 C833 1.396 . S
C832 C837 1.390 . S
C833 C827 1.465 . S
C833 C832 1.396 . S
C833 C834 1.399 . S
C834 H820 0.929 . S
C834 C833 1.399 . S
C834 C835 1.385 . S
C835 H821 0.931 . S
C835 C834 1.385 . S
C835 C836 1.389 . S
C836 C835 1.389 . S
C836 C837 1.387 . S
C837 H822 0.930 . S
C837 C832 1.390 . S
C837 C836 1.387 . S
H838 C850 0.930 . S
H839 C852 0.930 . S
H840 C853 0.930 . S
H841 C857 0.959 . S
H842 C857 0.959 . S
H843 C857 0.961 . S
H844 C858 0.960 . S
H845 C858 0.961 . S
H846 C858 0.959 . S
H847 C861 0.929 . S
H848 C862 0.931 . S
H849 C864 0.930 . S
C850 H838 0.930 . S
C850 C851 1.399 . S
C850 C855 1.399 . S
C851 C850 1.399 . S
C851 C852 1.376 . S
C852 H839 0.930 . S
C852 C851 1.376 . S
C852 C853 1.388 . S
C853 H840 0.930 . S
C853 C852 1.388 . S
C853 C854 1.390 . S
C854 C853 1.390 . S
C854 C855 1.394 . S
C854 C860 1.465 . S
C855 C850 1.399 . S
C855 C854 1.394 . S
C855 C856 1.516 . S
C856 C855 1.516 . S
C856 C857 1.502 . S
C856 C858 1.561 . S
C856 C859 1.526 . S
C857 H841 0.959 . S
C857 H842 0.959 . S
C857 H843 0.961 . S
C857 C856 1.502 . S
C858 H844 0.960 . S
C858 H845 0.961 . S
C858 H846 0.959 . S
C858 C856 1.561 . S
C859 C856 1.526 . S
C859 C860 1.396 . S
C859 C864 1.390 . S
C860 C854 1.465 . S
C860 C859 1.396 . S
C860 C861 1.399 . S
C861 H847 0.929 . S
C861 C860 1.399 . S
C861 C862 1.385 . S
C862 H848 0.931 . S
C862 C861 1.385 . S
C862 C863 1.389 . S
C863 C862 1.389 . S
C863 C864 1.387 . S
C864 H849 0.930 . S
C864 C859 1.390 . S
C864 C863 1.387 . S
H865 C877 0.930 . S
H866 C879 0.930 . S
H867 C880 0.930 . S
H868 C884 0.959 . S
H869 C884 0.959 . S
H870 C884 0.961 . S
H871 C885 0.960 . S
H872 C885 0.961 . S
H873 C885 0.959 . S
H874 C888 0.929 . S
H875 C889 0.931 . S
H876 C891 0.930 . S
C877 H865 0.930 . S
C877 C878 1.399 . S
C877 C882 1.399 . S
C878 C877 1.399 . S
C878 C879 1.376 . S
C879 H866 0.930 . S
C879 C878 1.376 . S
C879 C880 1.388 . S
C880 H867 0.930 . S
C880 C879 1.388 . S
C880 C881 1.390 . S
C881 C880 1.390 . S
C881 C882 1.394 . S
C881 C887 1.465 . S
C882 C877 1.399 . S
C882 C881 1.394 . S
C882 C883 1.516 . S
C883 C882 1.516 . S
C883 C884 1.502 . S
C883 C885 1.561 . S
C883 C886 1.526 . S
C884 H868 0.959 . S
C884 H869 0.959 . S
C884 H870 0.961 . S
C884 C883 1.502 . S
C885 H871 0.960 . S
C885 H872 0.961 . S
C885 H873 0.959 . S
C885 C883 1.561 . S
C886 C883 1.526 . S
C886 C887 1.396 . S
C886 C891 1.390 . S
C887 C881 1.465 . S
C887 C886 1.396 . S
C887 C888 1.399 . S
C888 H874 0.929 . S
C888 C887 1.399 . S
C888 C889 1.385 . S
C889 H875 0.931 . S
C889 C888 1.385 . S
C889 C890 1.389 . S
C890 C889 1.389 . S
C890 C891 1.387 . S
C891 H876 0.930 . S
C891 C886 1.390 . S
C891 C890 1.387 . S
H892 C904 0.930 . S
H893 C906 0.930 . S
H894 C907 0.930 . S
H895 C911 0.959 . S
H896 C911 0.959 . S
H897 C911 0.961 . S
H898 C912 0.960 . S
H899 C912 0.961 . S
H900 C912 0.959 1_554 S
H901 C915 0.929 . S
H902 C916 0.931 . S
H903 C918 0.930 1_556 S
C904 H892 0.930 . S
C904 C905 1.399 . S
C904 C909 1.399 . S
C905 C904 1.399 . S
C905 C906 1.376 1_556 S
C906 H893 0.930 . S
C906 C905 1.376 1_554 S
C906 C907 1.388 . S
C907 H894 0.930 . S
C907 C906 1.388 . S
C907 C908 1.390 . S
C908 C907 1.390 . S
C908 C909 1.394 1_554 S
C908 C914 1.465 . S
C909 C904 1.399 . S
C909 C908 1.394 1_556 S
C909 C910 1.516 . S
C910 C909 1.516 . S
C910 C911 1.502 . S
C910 C912 1.561 . S
C910 C913 1.526 1_556 S
C911 H895 0.959 . S
C911 H896 0.959 . S
C911 H897 0.961 . S
C911 C910 1.502 . S
C912 H898 0.960 . S
C912 H899 0.961 . S
C912 H900 0.959 1_556 S
C912 C910 1.561 . S
C913 C910 1.526 1_554 S
C913 C914 1.396 . S
C913 C918 1.390 . S
C914 C908 1.465 . S
C914 C913 1.396 . S
C914 C915 1.399 . S
C915 H901 0.929 . S
C915 C914 1.399 . S
C915 C916 1.385 . S
C916 H902 0.931 . S
C916 C915 1.385 . S
C916 C917 1.389 . S
C917 C916 1.389 . S
C917 C918 1.387 . S
C918 H903 0.930 1_554 S
C918 C913 1.390 . S
C918 C917 1.387 . S
H919 C931 0.930 . S
H920 C933 0.930 . S
H921 C934 0.930 . S
H922 C938 0.959 . S
H923 C938 0.959 . S
H924 C938 0.961 . S
H925 C939 0.960 . S
H926 C939 0.961 . S
H927 C939 0.959 . S
H928 C942 0.929 . S
H929 C943 0.929 1_554 S
H930 C945 0.930 . S
C931 H919 0.930 . S
C931 C932 1.399 1_556 S
C931 C936 1.399 . S
C932 C931 1.399 1_554 S
C932 C933 1.376 . S
C933 H920 0.930 . S
C933 C932 1.376 . S
C933 C934 1.388 . S
C934 H921 0.930 . S
C934 C933 1.388 . S
C934 C935 1.390 . S
C935 C934 1.390 . S
C935 C936 1.394 1_554 S
C935 C941 1.465 1_554 S
C936 C931 1.399 . S
C936 C935 1.394 1_556 S
C936 C937 1.516 . S
C937 C936 1.516 . S
C937 C938 1.502 . S
C937 C939 1.561 . S
C937 C940 1.526 . S
C938 H922 0.959 . S
C938 H923 0.959 . S
C938 H924 0.961 . S
C938 C937 1.502 . S
C939 H925 0.960 . S
C939 H926 0.961 . S
C939 H927 0.959 . S
C939 C937 1.561 . S
C940 C937 1.526 . S
C940 C941 1.396 . S
C940 C945 1.390 . S
C941 C935 1.465 1_556 S
C941 C940 1.396 . S
C941 C942 1.399 1_556 S
C942 H928 0.929 . S
C942 C941 1.399 1_554 S
C942 C943 1.384 1_554 S
C943 H929 0.929 1_556 S
C943 C942 1.384 1_556 S
C943 C944 1.392 . S
C944 C943 1.392 . S
C944 C945 1.387 . S
C945 H930 0.930 . S
C945 C940 1.390 . S
C945 C944 1.387 . S
H946 C958 0.930 . S
H947 C960 0.930 . S
H948 C961 0.930 . S
H949 C965 0.959 . S
H950 C965 0.959 . S
H951 C965 0.961 . S
H952 C966 0.960 . S
H953 C966 0.961 . S
H954 C966 0.959 . S
H955 C969 0.929 . S
H956 C970 0.931 . S
H957 C972 0.946 . S
C958 H946 0.930 . S
C958 C959 1.399 . S
C958 C963 1.399 . S
C959 C958 1.399 . S
C959 C960 1.376 1_556 S
C960 H947 0.930 . S
C960 C959 1.376 1_554 S
C960 C961 1.388 . S
C961 H948 0.930 . S
C961 C960 1.388 . S
C961 C962 1.390 . S
C962 C961 1.390 . S
C962 C963 1.394 1_554 S
C962 C968 1.465 . S
C963 C958 1.399 . S
C963 C962 1.394 1_556 S
C963 C964 1.516 . S
C964 C963 1.516 . S
C964 C965 1.502 . S
C964 C966 1.561 . S
C964 C967 1.530 . S
C965 H949 0.959 . S
C965 H950 0.959 . S
C965 H951 0.961 . S
C965 C964 1.502 . S
C966 H952 0.960 . S
C966 H953 0.961 . S
C966 H954 0.959 . S
C966 C964 1.561 . S
C967 C964 1.530 . S
C967 C968 1.391 1_556 S
C967 C972 1.389 . S
C968 C962 1.465 . S
C968 C967 1.391 1_554 S
C968 C969 1.399 . S
C969 H955 0.929 . S
C969 C968 1.399 . S
C969 C970 1.385 . S
C970 H956 0.931 . S
C970 C969 1.385 . S
C970 C971 1.389 . S
C971 C970 1.389 . S
C971 C972 1.371 1_554 S
C972 H957 0.946 . S
C972 C967 1.389 . S
C972 C971 1.371 1_556 S
H973 C985 0.930 . S
H974 C987 0.930 . S
H975 C988 0.930 . S
H976 C992 0.959 . S
H977 C992 0.959 . S
H978 C992 0.961 . S
H979 C993 0.960 . S
H980 C993 0.961 . S
H981 C993 0.959 . S
H982 C996 0.929 . S
H983 C997 0.931 . S
H984 C999 0.930 . S
C985 H973 0.930 . S
C985 C986 1.399 . S
C985 C990 1.399 . S
C986 C985 1.399 . S
C986 C987 1.376 1_556 S
C987 H974 0.930 . S
C987 C986 1.376 1_554 S
C987 C988 1.388 . S
C988 H975 0.930 . S
C988 C987 1.388 . S
C988 C989 1.390 . S
C989 C988 1.390 . S
C989 C990 1.394 1_554 S
C989 C995 1.465 . S
C990 C985 1.399 . S
C990 C989 1.394 1_556 S
C990 C991 1.516 . S
C991 C990 1.516 . S
C991 C992 1.502 . S
C991 C993 1.561 . S
C991 C994 1.526 . S
C992 H976 0.959 . S
C992 H977 0.959 . S
C992 H978 0.961 . S
C992 C991 1.502 . S
C993 H979 0.960 . S
C993 H980 0.961 . S
C993 H981 0.959 . S
C993 C991 1.561 . S
C994 C991 1.526 . S
C994 C995 1.396 1_556 S
C994 C999 1.390 . S
C995 C989 1.465 . S
C995 C994 1.396 1_554 S
C995 C996 1.399 . S
C996 H982 0.929 . S
C996 C995 1.399 . S
C996 C997 1.385 . S
C997 H983 0.931 . S
C997 C996 1.385 . S
C997 C998 1.389 . S
C998 C997 1.389 . S
C998 C999 1.387 1_554 S
C999 H984 0.930 . S
C999 C994 1.390 . S
C999 C998 1.387 1_556 S
H1000 C1012 0.930 . S
H1001 C1014 0.930 . S
H1002 C1015 0.930 . S
H1003 C1019 0.959 . S
H1004 C1019 0.959 . S
H1005 C1019 0.961 . S
H1006 C1020 0.960 . S
H1007 C1020 0.961 . S
H1008 C1020 0.959 . S
H1009 C1023 0.929 . S
H1010 C1024 0.931 . S
H1011 C1026 0.930 . S
C1012 H1000 0.930 . S
C1012 C1013 1.399 . S
C1012 C1017 1.399 . S
C1013 C1012 1.399 . S
C1013 C1014 1.376 1_565 S
C1014 H1001 0.930 . S
C1014 C1013 1.376 1_545 S
C1014 C1015 1.388 . S
C1015 H1002 0.930 . S
C1015 C1014 1.388 . S
C1015 C1016 1.390 . S
C1016 C1015 1.390 . S
C1016 C1017 1.394 1_545 S
C1016 C1022 1.465 . S
C1017 C1012 1.399 . S
C1017 C1016 1.394 1_565 S
C1017 C1018 1.516 . S
C1018 C1017 1.516 . S
C1018 C1019 1.502 . S
C1018 C1020 1.561 . S
C1018 C1021 1.526 1_565 S
C1019 H1003 0.959 . S
C1019 H1004 0.959 . S
C1019 H1005 0.961 . S
C1019 C1018 1.502 . S
C1020 H1006 0.960 . S
C1020 H1007 0.961 . S
C1020 H1008 0.959 . S
C1020 C1018 1.561 . S
C1021 C1018 1.526 1_545 S
C1021 C1022 1.396 . S
C1021 C1026 1.390 . S
C1022 C1016 1.465 . S
C1022 C1021 1.396 . S
C1022 C1023 1.399 . S
C1023 H1009 0.929 . S
C1023 C1022 1.399 . S
C1023 C1024 1.385 . S
C1024 H1010 0.931 . S
C1024 C1023 1.385 . S
C1024 C1025 1.389 . S
C1025 C1024 1.389 . S
C1025 C1026 1.387 . S
C1026 H1011 0.930 . S
C1026 C1021 1.390 . S
C1026 C1025 1.387 . S
H1027 C1039 0.930 . S
H1028 C1041 0.930 . S
H1029 C1042 0.930 . S
H1030 C1046 0.959 . S
H1031 C1046 0.959 . S
H1032 C1046 0.961 . S
H1033 C1047 0.960 . S
H1034 C1047 0.961 . S
H1035 C1047 0.959 . S
H1036 C1050 0.929 . S
H1037 C1051 0.931 . S
H1038 C1053 0.930 . S
C1039 H1027 0.930 . S
C1039 C1040 1.399 . S
C1039 C1044 1.399 1_655 S
C1040 C1039 1.399 . S
C1040 C1041 1.376 . S
C1041 H1028 0.930 . S
C1041 C1040 1.376 . S
C1041 C1042 1.388 1_655 S
C1042 H1029 0.930 . S
C1042 C1041 1.388 1_455 S
C1042 C1043 1.390 . S
C1043 C1042 1.390 . S
C1043 C1044 1.394 . S
C1043 C1049 1.465 . S
C1044 C1039 1.399 1_455 S
C1044 C1043 1.394 . S
C1044 C1045 1.516 . S
C1045 C1044 1.516 . S
C1045 C1046 1.502 1_455 S
C1045 C1047 1.561 . S
C1045 C1048 1.526 . S
C1046 H1030 0.959 . S
C1046 H1031 0.959 . S
C1046 H1032 0.961 . S
C1046 C1045 1.502 1_655 S
C1047 H1033 0.960 . S
C1047 H1034 0.961 . S
C1047 H1035 0.959 . S
C1047 C1045 1.561 . S
C1048 C1045 1.526 . S
C1048 C1049 1.396 . S
C1048 C1053 1.390 . S
C1049 C1043 1.465 . S
C1049 C1048 1.396 . S
C1049 C1050 1.399 . S
C1050 H1036 0.929 . S
C1050 C1049 1.399 . S
C1050 C1051 1.385 . S
C1051 H1037 0.931 . S
C1051 C1050 1.385 . S
C1051 C1052 1.389 . S
C1052 C1051 1.389 . S
C1052 C1053 1.387 . S
C1053 H1038 0.930 . S
C1053 C1048 1.390 . S
C1053 C1052 1.387 . S
H1054 C1066 0.930 . S
H1055 C1068 0.930 . S
H1056 C1069 0.930 . S
H1057 C1073 0.959 . S
H1058 C1073 0.959 . S
H1059 C1073 0.961 . S
H1060 C1074 0.960 . S
H1061 C1074 0.961 . S
H1062 C1074 0.959 . S
H1063 C1077 0.929 . S
H1064 C1078 0.931 . S
H1065 C1080 0.930 . S
C1066 H1054 0.930 . S
C1066 C1067 1.399 . S
C1066 C1071 1.399 . S
C1067 C1066 1.399 . S
C1067 C1068 1.376 . S
C1068 H1055 0.930 . S
C1068 C1067 1.376 . S
C1068 C1069 1.388 1_565 S
C1069 H1056 0.930 . S
C1069 C1068 1.388 1_545 S
C1069 C1070 1.390 1_545 S
C1070 C1069 1.390 1_565 S
C1070 C1071 1.394 . S
C1070 C1076 1.465 1_565 S
C1071 C1066 1.399 . S
C1071 C1070 1.394 . S
C1071 C1072 1.516 . S
C1072 C1071 1.516 . S
C1072 C1073 1.502 . S
C1072 C1074 1.561 . S
C1072 C1075 1.526 . S
C1073 H1057 0.959 . S
C1073 H1058 0.959 . S
C1073 H1059 0.961 . S
C1073 C1072 1.502 . S
C1074 H1060 0.960 . S
C1074 H1061 0.961 . S
C1074 H1062 0.959 . S
C1074 C1072 1.561 . S
C1075 C1072 1.526 . S
C1075 C1076 1.396 1_565 S
C1075 C1080 1.390 . S
C1076 C1070 1.465 1_545 S
C1076 C1075 1.396 1_545 S
C1076 C1077 1.399 . S
C1077 H1063 0.929 . S
C1077 C1076 1.399 . S
C1077 C1078 1.385 . S
C1078 H1064 0.931 . S
C1078 C1077 1.385 . S
C1078 C1079 1.389 . S
C1079 C1078 1.389 . S
C1079 C1080 1.387 1_545 S
C1080 H1065 0.930 . S
C1080 C1075 1.390 . S
C1080 C1079 1.387 1_565 S
H1081 C1093 0.930 . S
H1082 C1095 0.930 . S
H1083 C1096 0.930 . S
H1084 C1100 0.959 . S
H1085 C1100 0.959 . S
H1086 C1100 0.961 . S
H1087 C1101 0.960 . S
H1088 C1101 0.961 . S
H1089 C1101 0.959 . S
H1090 C1104 0.929 . S
H1091 C1105 0.931 . S
H1092 C1107 0.930 . S
C1093 H1081 0.930 . S
C1093 C1094 1.399 . S
C1093 C1098 1.399 . S
C1094 C1093 1.399 . S
C1094 C1095 1.376 . S
C1095 H1082 0.930 . S
C1095 C1094 1.376 . S
C1095 C1096 1.388 . S
C1096 H1083 0.930 . S
C1096 C1095 1.388 . S
C1096 C1097 1.390 . S
C1097 C1096 1.390 . S
C1097 C1098 1.394 . S
C1097 C1103 1.465 . S
C1098 C1093 1.399 . S
C1098 C1097 1.394 . S
C1098 C1099 1.516 . S
C1099 C1098 1.516 . S
C1099 C1100 1.502 1_655 S
C1099 C1101 1.561 . S
C1099 C1102 1.526 1_655 S
C1100 H1084 0.959 . S
C1100 H1085 0.959 . S
C1100 H1086 0.961 . S
C1100 C1099 1.502 1_455 S
C1101 H1087 0.960 . S
C1101 H1088 0.961 . S
C1101 H1089 0.959 . S
C1101 C1099 1.561 . S
C1102 C1099 1.526 1_455 S
C1102 C1103 1.396 1_455 S
C1102 C1107 1.390 . S
C1103 C1097 1.465 . S
C1103 C1102 1.396 1_655 S
C1103 C1104 1.399 . S
C1104 H1090 0.929 . S
C1104 C1103 1.399 . S
C1104 C1105 1.379 1_655 S
C1105 H1091 0.931 . S
C1105 C1104 1.379 1_455 S
C1105 C1106 1.396 . S
C1106 C1105 1.396 . S
C1106 C1107 1.387 . S
C1107 H1092 0.930 . S
C1107 C1102 1.390 . S
C1107 C1106 1.387 . S
H1108 C1120 0.930 . S
H1109 C1122 0.930 . S
H1110 C1123 0.930 . S
H1111 C1127 0.959 . S
H1112 C1127 0.959 . S
H1113 C1127 0.961 1_565 S
H1114 C1128 0.960 . S
H1115 C1128 0.961 . S
H1116 C1128 0.959 . S
H1117 C1131 0.929 . S
H1118 C1132 0.931 . S
H1119 C1134 0.930 . S
C1120 H1108 0.930 . S
C1120 C1121 1.399 . S
C1120 C1125 1.399 . S
C1121 C1120 1.399 . S
C1121 C1122 1.376 . S
C1122 H1109 0.930 . S
C1122 C1121 1.376 . S
C1122 C1123 1.388 1_565 S
C1123 H1110 0.930 . S
C1123 C1122 1.388 1_545 S
C1123 C1124 1.390 . S
C1124 C1123 1.390 . S
C1124 C1125 1.394 1_545 S
C1124 C1130 1.465 . S
C1125 C1120 1.399 . S
C1125 C1124 1.394 1_565 S
C1125 C1126 1.520 . S
C1126 C1125 1.520 . S
C1126 C1127 1.489 1_565 S
C1126 C1128 1.597 . S
C1126 C1129 1.501 1_565 S
C1127 H1111 0.959 . S
C1127 H1112 0.959 . S
C1127 H1113 0.961 1_545 S
C1127 C1126 1.489 1_545 S
C1128 H1114 0.960 . S
C1128 H1115 0.961 . S
C1128 H1116 0.959 . S
C1128 C1126 1.597 . S
C1129 C1126 1.501 1_545 S
C1129 C1130 1.396 . S
C1129 C1134 1.390 . S
C1130 C1124 1.465 . S
C1130 C1129 1.396 . S
C1130 C1131 1.399 . S
C1131 H1117 0.929 . S
C1131 C1130 1.399 . S
C1131 C1132 1.385 . S
C1132 H1118 0.931 . S
C1132 C1131 1.385 . S
C1132 C1133 1.389 . S
C1133 C1132 1.389 . S
C1133 C1134 1.387 . S
C1134 H1119 0.930 . S
C1134 C1129 1.390 . S
C1134 C1133 1.387 . S
H1135 C1147 0.930 . S
H1136 C1149 0.930 . S
H1137 C1150 0.930 . S
H1138 C1154 0.959 . S
H1139 C1154 0.959 . S
H1140 C1154 0.961 . S
H1141 C1155 0.960 . S
H1142 C1155 0.961 . S
H1143 C1155 0.959 . S
H1144 C1158 0.929 . S
H1145 C1159 0.931 . S
H1146 C1161 0.930 . S
C1147 H1135 0.930 . S
C1147 C1148 1.399 . S
C1147 C1152 1.399 . S
C1148 C1147 1.399 . S
C1148 C1149 1.376 . S
C1149 H1136 0.930 . S
C1149 C1148 1.376 . S
C1149 C1150 1.388 . S
C1150 H1137 0.930 . S
C1150 C1149 1.388 . S
C1150 C1151 1.390 . S
C1151 C1150 1.390 . S
C1151 C1152 1.394 . S
C1151 C1157 1.465 . S
C1152 C1147 1.399 . S
C1152 C1151 1.394 . S
C1152 C1153 1.516 . S
C1153 C1152 1.516 . S
C1153 C1154 1.502 1_455 S
C1153 C1155 1.561 . S
C1153 C1156 1.526 . S
C1154 H1138 0.959 . S
C1154 H1139 0.959 . S
C1154 H1140 0.961 . S
C1154 C1153 1.502 1_655 S
C1155 H1141 0.960 . S
C1155 H1142 0.961 . S
C1155 H1143 0.959 . S
C1155 C1153 1.561 . S
C1156 C1153 1.526 . S
C1156 C1157 1.396 . S
C1156 C1161 1.390 1_455 S
C1157 C1151 1.465 . S
C1157 C1156 1.396 . S
C1157 C1158 1.399 . S
C1158 H1144 0.929 . S
C1158 C1157 1.399 . S
C1158 C1159 1.385 1_455 S
C1159 H1145 0.931 . S
C1159 C1158 1.385 1_655 S
C1159 C1160 1.389 . S
C1160 C1159 1.389 . S
C1160 C1161 1.387 . S
C1161 H1146 0.930 . S
C1161 C1156 1.390 1_655 S
C1161 C1160 1.387 . S
H1162 C1174 0.930 . S
H1163 C1176 0.930 . S
H1164 C1177 0.903 1_545 S
H1165 C1181 0.959 . S
H1166 C1181 0.959 . S
H1167 C1181 0.961 . S
H1168 C1182 0.960 . S
H1169 C1182 0.961 . S
H1170 C1182 0.959 . S
H1171 C1185 0.929 . S
H1172 C1186 0.931 . S
H1173 C1188 0.930 . S
C1174 H1162 0.930 . S
C1174 C1175 1.399 . S
C1174 C1179 1.399 . S
C1175 C1174 1.399 . S
C1175 C1176 1.376 . S
C1176 H1163 0.930 . S
C1176 C1175 1.376 . S
C1176 C1177 1.406 . S
C1177 H1164 0.903 1_565 S
C1177 C1176 1.406 . S
C1177 C1178 1.400 . S
C1178 C1177 1.400 . S
C1178 C1179 1.394 . S
C1178 C1184 1.465 1_565 S
C1179 C1174 1.399 . S
C1179 C1178 1.394 . S
C1179 C1180 1.516 . S
C1180 C1179 1.516 . S
C1180 C1181 1.502 . S
C1180 C1182 1.561 . S
C1180 C1183 1.526 . S
C1181 H1165 0.959 . S
C1181 H1166 0.959 . S
C1181 H1167 0.961 . S
C1181 C1180 1.502 . S
C1182 H1168 0.960 . S
C1182 H1169 0.961 . S
C1182 H1170 0.959 . S
C1182 C1180 1.561 . S
C1183 C1180 1.526 . S
C1183 C1184 1.396 1_565 S
C1183 C1188 1.390 . S
C1184 C1178 1.465 1_545 S
C1184 C1183 1.396 1_545 S
C1184 C1185 1.399 . S
C1185 H1171 0.929 . S
C1185 C1184 1.399 . S
C1185 C1186 1.385 . S
C1186 H1172 0.931 . S
C1186 C1185 1.385 . S
C1186 C1187 1.389 . S
C1187 C1186 1.389 . S
C1187 C1188 1.387 1_545 S
C1188 H1173 0.930 . S
C1188 C1183 1.390 . S
C1188 C1187 1.387 1_565 S
H1189 C1201 0.930 . S
H1190 C1203 0.930 . S
H1191 C1204 0.930 . S
H1192 C1208 0.959 . S
H1193 C1208 0.959 . S
H1194 C1208 0.961 . S
H1195 C1209 0.960 1_455 S
H1196 C1209 0.961 . S
H1197 C1209 0.959 1_455 S
H1198 C1212 0.929 . S
H1199 C1213 0.931 . S
H1200 C1215 0.930 . S
C1201 H1189 0.930 . S
C1201 C1202 1.399 . S
C1201 C1206 1.399 1_455 S
C1202 C1201 1.399 . S
C1202 C1203 1.376 . S
C1203 H1190 0.930 . S
C1203 C1202 1.376 . S
C1203 C1204 1.388 . S
C1204 H1191 0.930 . S
C1204 C1203 1.388 . S
C1204 C1205 1.383 1_455 S
C1205 C1204 1.383 1_655 S
C1205 C1206 1.396 . S
C1205 C1211 1.471 . S
C1206 C1201 1.399 1_655 S
C1206 C1205 1.396 . S
C1206 C1207 1.516 . S
C1207 C1206 1.516 . S
C1207 C1208 1.502 . S
C1207 C1209 1.561 . S
C1207 C1210 1.526 . S
C1208 H1192 0.959 . S
C1208 H1193 0.959 . S
C1208 H1194 0.961 . S
C1208 C1207 1.502 . S
C1209 H1195 0.960 1_655 S
C1209 H1196 0.961 . S
C1209 H1197 0.959 1_655 S
C1209 C1207 1.561 . S
C1210 C1207 1.526 . S
C1210 C1211 1.396 . S
C1210 C1215 1.390 . S
C1211 C1205 1.471 . S
C1211 C1210 1.396 . S
C1211 C1212 1.399 . S
C1212 H1198 0.929 . S
C1212 C1211 1.399 . S
C1212 C1213 1.385 . S
C1213 H1199 0.931 . S
C1213 C1212 1.385 . S
C1213 C1214 1.389 . S
C1214 C1213 1.389 . S
C1214 C1215 1.387 . S
C1215 H1200 0.930 . S
C1215 C1210 1.390 . S
C1215 C1214 1.387 . S
H1216 C1228 0.930 . S
H1217 C1230 0.930 . S
H1218 C1231 0.930 . S
H1219 C1235 0.959 . S
H1220 C1235 0.959 . S
H1221 C1235 0.961 . S
H1222 C1236 0.960 . S
H1223 C1236 0.961 . S
H1224 C1236 0.959 . S
H1225 C1239 0.929 . S
H1226 C1240 0.931 . S
H1227 C1242 0.930 . S
C1228 H1216 0.930 . S
C1228 C1229 1.399 . S
C1228 C1233 1.399 . S
C1229 C1228 1.399 . S
C1229 C1230 1.376 . S
C1230 H1217 0.930 . S
C1230 C1229 1.376 . S
C1230 C1231 1.388 . S
C1231 H1218 0.930 . S
C1231 C1230 1.388 . S
C1231 C1232 1.390 . S
C1232 C1231 1.390 . S
C1232 C1233 1.394 . S
C1232 C1238 1.465 . S
C1233 C1228 1.399 . S
C1233 C1232 1.394 . S
C1233 C1234 1.516 . S
C1234 C1233 1.516 . S
C1234 C1235 1.502 . S
C1234 C1236 1.561 . S
C1234 C1237 1.526 . S
C1235 H1219 0.959 . S
C1235 H1220 0.959 . S
C1235 H1221 0.961 . S
C1235 C1234 1.502 . S
C1236 H1222 0.960 . S
C1236 H1223 0.961 . S
C1236 H1224 0.959 . S
C1236 C1234 1.561 . S
C1237 C1234 1.526 . S
C1237 C1238 1.396 . S
C1237 C1242 1.390 . S
C1238 C1232 1.465 . S
C1238 C1237 1.396 . S
C1238 C1239 1.399 . S
C1239 H1225 0.929 . S
C1239 C1238 1.399 . S
C1239 C1240 1.385 . S
C1240 H1226 0.931 . S
C1240 C1239 1.385 . S
C1240 C1241 1.389 . S
C1241 C1240 1.389 . S
C1241 C1242 1.387 . S
C1242 H1227 0.930 . S
C1242 C1237 1.390 . S
C1242 C1241 1.387 . S
H1243 C1255 0.930 . S
H1244 C1257 0.930 . S
H1245 C1258 0.930 . S
H1246 C1262 0.959 . S
H1247 C1262 0.959 . S
H1248 C1262 0.961 . S
H1249 C1263 0.960 . S
H1250 C1263 0.961 . S
H1251 C1263 0.959 . S
H1252 C1266 0.929 . S
H1253 C1267 0.931 . S
H1254 C1269 0.930 . S
C1255 H1243 0.930 . S
C1255 C1256 1.399 . S
C1255 C1260 1.399 . S
C1256 C1255 1.399 . S
C1256 C1257 1.376 . S
C1257 H1244 0.930 . S
C1257 C1256 1.376 . S
C1257 C1258 1.388 . S
C1258 H1245 0.930 . S
C1258 C1257 1.388 . S
C1258 C1259 1.390 . S
C1259 C1258 1.390 . S
C1259 C1260 1.394 . S
C1259 C1265 1.465 . S
C1260 C1255 1.399 . S
C1260 C1259 1.394 . S
C1260 C1261 1.516 . S
C1261 C1260 1.516 . S
C1261 C1262 1.502 . S
C1261 C1263 1.561 . S
C1261 C1264 1.526 . S
C1262 H1246 0.959 . S
C1262 H1247 0.959 . S
C1262 H1248 0.961 . S
C1262 C1261 1.502 . S
C1263 H1249 0.960 . S
C1263 H1250 0.961 . S
C1263 H1251 0.959 . S
C1263 C1261 1.561 . S
C1264 C1261 1.526 . S
C1264 C1265 1.396 . S
C1264 C1269 1.390 . S
C1265 C1259 1.465 . S
C1265 C1264 1.396 . S
C1265 C1266 1.399 . S
C1266 H1252 0.929 . S
C1266 C1265 1.399 . S
C1266 C1267 1.385 . S
C1267 H1253 0.931 . S
C1267 C1266 1.385 . S
C1267 C1268 1.389 . S
C1268 C1267 1.389 . S
C1268 C1269 1.387 . S
C1269 H1254 0.930 . S
C1269 C1264 1.390 . S
C1269 C1268 1.387 . S
H1270 C1282 0.930 . S
H1271 C1284 0.930 . S
H1272 C1285 0.930 . S
H1273 C1289 0.959 . S
H1274 C1289 0.959 . S
H1275 C1289 0.961 . S
H1276 C1290 0.960 . S
H1277 C1290 0.961 . S
H1278 C1290 0.959 . S
H1279 C1293 0.929 . S
H1280 C1294 0.931 . S
H1281 C1296 0.930 . S
C1282 H1270 0.930 . S
C1282 C1283 1.399 . S
C1282 C1287 1.399 . S
C1283 C1282 1.399 . S
C1283 C1284 1.376 . S
C1284 H1271 0.930 . S
C1284 C1283 1.376 . S
C1284 C1285 1.388 . S
C1285 H1272 0.930 . S
C1285 C1284 1.388 . S
C1285 C1286 1.390 . S
C1286 C1285 1.390 . S
C1286 C1287 1.394 . S
C1286 C1292 1.465 . S
C1287 C1282 1.399 . S
C1287 C1286 1.394 . S
C1287 C1288 1.516 . S
C1288 C1287 1.516 . S
C1288 C1289 1.502 . S
C1288 C1290 1.561 . S
C1288 C1291 1.526 . S
C1289 H1273 0.959 . S
C1289 H1274 0.959 . S
C1289 H1275 0.961 . S
C1289 C1288 1.502 . S
C1290 H1276 0.960 . S
C1290 H1277 0.961 . S
C1290 H1278 0.959 . S
C1290 C1288 1.561 . S
C1291 C1288 1.526 . S
C1291 C1292 1.396 . S
C1291 C1296 1.390 . S
C1292 C1286 1.465 . S
C1292 C1291 1.396 . S
C1292 C1293 1.399 . S
C1293 H1279 0.929 . S
C1293 C1292 1.399 . S
C1293 C1294 1.385 . S
C1294 H1280 0.931 . S
C1294 C1293 1.385 . S
C1294 C1295 1.389 . S
C1295 C1294 1.389 . S
C1295 C1296 1.387 . S
C1296 H1281 0.930 . S
C1296 C1291 1.390 . S
C1296 C1295 1.387 . S
H1297 C1309 0.930 . S
H1298 C1311 0.930 . S
H1299 C1312 0.930 . S
H1300 C1316 0.959 . S
H1301 C1316 0.959 . S
H1302 C1316 0.961 . S
H1303 C1317 0.960 . S
H1304 C1317 0.961 . S
H1305 C1317 0.959 . S
H1306 C1320 0.929 . S
H1307 C1321 0.931 . S
H1308 C1323 0.930 . S
C1309 H1297 0.930 . S
C1309 C1310 1.399 . S
C1309 C1314 1.399 . S
C1310 C1309 1.399 . S
C1310 C1311 1.376 . S
C1311 H1298 0.930 . S
C1311 C1310 1.376 . S
C1311 C1312 1.388 . S
C1312 H1299 0.930 . S
C1312 C1311 1.388 . S
C1312 C1313 1.390 . S
C1313 C1312 1.390 . S
C1313 C1314 1.394 . S
C1313 C1319 1.465 . S
C1314 C1309 1.399 . S
C1314 C1313 1.394 . S
C1314 C1315 1.516 . S
C1315 C1314 1.516 . S
C1315 C1316 1.502 . S
C1315 C1317 1.561 . S
C1315 C1318 1.526 . S
C1316 H1300 0.959 . S
C1316 H1301 0.959 . S
C1316 H1302 0.961 . S
C1316 C1315 1.502 . S
C1317 H1303 0.960 . S
C1317 H1304 0.961 . S
C1317 H1305 0.959 . S
C1317 C1315 1.561 . S
C1318 C1315 1.526 . S
C1318 C1319 1.396 . S
C1318 C1323 1.390 . S
C1319 C1313 1.465 . S
C1319 C1318 1.396 . S
C1319 C1320 1.399 . S
C1320 H1306 0.929 . S
C1320 C1319 1.399 . S
C1320 C1321 1.385 . S
C1321 H1307 0.931 . S
C1321 C1320 1.385 . S
C1321 C1322 1.389 . S
C1322 C1321 1.389 . S
C1322 C1323 1.387 . S
C1323 H1308 0.930 . S
C1323 C1318 1.390 . S
C1323 C1322 1.387 . S
H1324 C1336 0.930 . S
H1325 C1338 0.930 . S
H1326 C1339 0.930 . S
H1327 C1343 0.959 . S
H1328 C1343 0.959 . S
H1329 C1343 0.961 . S
H1330 C1344 0.960 . S
H1331 C1344 0.961 . S
H1332 C1344 0.959 . S
H1333 C1347 0.929 . S
H1334 C1348 0.931 . S
H1335 C1350 0.930 . S
C1336 H1324 0.930 . S
C1336 C1337 1.399 . S
C1336 C1341 1.399 . S
C1337 C1336 1.399 . S
C1337 C1338 1.376 . S
C1338 H1325 0.930 . S
C1338 C1337 1.376 . S
C1338 C1339 1.388 . S
C1339 H1326 0.930 . S
C1339 C1338 1.388 . S
C1339 C1340 1.390 . S
C1340 C1339 1.390 . S
C1340 C1341 1.394 . S
C1340 C1346 1.465 . S
C1341 C1336 1.399 . S
C1341 C1340 1.394 . S
C1341 C1342 1.516 . S
C1342 C1341 1.516 . S
C1342 C1343 1.502 . S
C1342 C1344 1.561 . S
C1342 C1345 1.526 . S
C1343 H1327 0.959 . S
C1343 H1328 0.959 . S
C1343 H1329 0.961 . S
C1343 C1342 1.502 . S
C1344 H1330 0.960 . S
C1344 H1331 0.961 . S
C1344 H1332 0.959 . S
C1344 C1342 1.561 . S
C1345 C1342 1.526 . S
C1345 C1346 1.396 . S
C1345 C1350 1.390 . S
C1346 C1340 1.465 . S
C1346 C1345 1.396 . S
C1346 C1347 1.399 . S
C1347 H1333 0.929 . S
C1347 C1346 1.399 . S
C1347 C1348 1.385 . S
C1348 H1334 0.931 . S
C1348 C1347 1.385 . S
C1348 C1349 1.389 . S
C1349 C1348 1.389 . S
C1349 C1350 1.387 . S
C1350 H1335 0.930 . S
C1350 C1345 1.390 . S
C1350 C1349 1.387 . S
H1351 C1363 0.930 . S
H1352 C1365 0.930 . S
H1353 C1366 0.930 . S
H1354 C1370 0.959 . S
H1355 C1370 0.959 . S
H1356 C1370 0.961 . S
H1357 C1371 0.960 . S
H1358 C1371 0.961 . S
H1359 C1371 0.959 . S
H1360 C1374 0.929 . S
H1361 C1375 0.931 . S
H1362 C1377 0.930 . S
C1363 H1351 0.930 . S
C1363 C1364 1.399 . S
C1363 C1368 1.399 . S
C1364 C1363 1.399 . S
C1364 C1365 1.376 . S
C1365 H1352 0.930 . S
C1365 C1364 1.376 . S
C1365 C1366 1.388 . S
C1366 H1353 0.930 . S
C1366 C1365 1.388 . S
C1366 C1367 1.390 . S
C1367 C1366 1.390 . S
C1367 C1368 1.394 . S
C1367 C1373 1.465 . S
C1368 C1363 1.399 . S
C1368 C1367 1.394 . S
C1368 C1369 1.516 . S
C1369 C1368 1.516 . S
C1369 C1370 1.502 . S
C1369 C1371 1.561 . S
C1369 C1372 1.526 . S
C1370 H1354 0.959 . S
C1370 H1355 0.959 . S
C1370 H1356 0.961 . S
C1370 C1369 1.502 . S
C1371 H1357 0.960 . S
C1371 H1358 0.961 . S
C1371 H1359 0.959 . S
C1371 C1369 1.561 . S
C1372 C1369 1.526 . S
C1372 C1373 1.396 . S
C1372 C1377 1.390 . S
C1373 C1367 1.465 . S
C1373 C1372 1.396 . S
C1373 C1374 1.399 . S
C1374 H1360 0.929 . S
C1374 C1373 1.399 . S
C1374 C1375 1.385 . S
C1375 H1361 0.931 . S
C1375 C1374 1.385 . S
C1375 C1376 1.389 . S
C1376 C1375 1.389 . S
C1376 C1377 1.387 . S
C1377 H1362 0.930 . S
C1377 C1372 1.390 . S
C1377 C1376 1.387 . S
H1378 C1390 0.930 . S
H1379 C1392 0.930 . S
H1380 C1393 0.930 . S
H1381 C1397 0.959 . S
H1382 C1397 0.959 . S
H1383 C1397 0.961 . S
H1384 C1398 0.960 . S
H1385 C1398 0.961 . S
H1386 C1398 0.959 . S
H1387 C1401 0.929 . S
H1388 C1402 0.931 . S
H1389 C1404 0.930 . S
C1390 H1378 0.930 . S
C1390 C1391 1.399 . S
C1390 C1395 1.399 . S
C1391 C1390 1.399 . S
C1391 C1392 1.376 . S
C1392 H1379 0.930 . S
C1392 C1391 1.376 . S
C1392 C1393 1.388 . S
C1393 H1380 0.930 . S
C1393 C1392 1.388 . S
C1393 C1394 1.390 . S
C1394 C1393 1.390 . S
C1394 C1395 1.394 . S
C1394 C1400 1.465 . S
C1395 C1390 1.399 . S
C1395 C1394 1.394 . S
C1395 C1396 1.516 . S
C1396 C1395 1.516 . S
C1396 C1397 1.502 . S
C1396 C1398 1.561 . S
C1396 C1399 1.526 . S
C1397 H1381 0.959 . S
C1397 H1382 0.959 . S
C1397 H1383 0.961 . S
C1397 C1396 1.502 . S
C1398 H1384 0.960 . S
C1398 H1385 0.961 . S
C1398 H1386 0.959 . S
C1398 C1396 1.561 . S
C1399 C1396 1.526 . S
C1399 C1400 1.396 . S
C1399 C1404 1.390 . S
C1400 C1394 1.465 . S
C1400 C1399 1.396 . S
C1400 C1401 1.399 . S
C1401 H1387 0.929 . S
C1401 C1400 1.399 . S
C1401 C1402 1.385 . S
C1402 H1388 0.931 . S
C1402 C1401 1.385 . S
C1402 C1403 1.389 . S
C1403 C1402 1.389 . S
C1403 C1404 1.387 . S
C1404 H1389 0.930 . S
C1404 C1399 1.390 . S
C1404 C1403 1.387 . S
H1405 C1417 0.930 . S
H1406 C1419 0.930 . S
H1407 C1420 0.930 . S
H1408 C1424 0.959 . S
H1409 C1424 0.959 . S
H1410 C1424 0.961 . S
H1411 C1425 0.960 . S
H1412 C1425 0.961 . S
H1413 C1425 0.959 . S
H1414 C1428 0.929 . S
H1415 C1429 0.931 . S
H1416 C1431 0.930 . S
C1417 H1405 0.930 . S
C1417 C1418 1.399 . S
C1417 C1422 1.399 . S
C1418 C1417 1.399 . S
C1418 C1419 1.376 . S
C1419 H1406 0.930 . S
C1419 C1418 1.376 . S
C1419 C1420 1.388 . S
C1420 H1407 0.930 . S
C1420 C1419 1.388 . S
C1420 C1421 1.390 . S
C1421 C1420 1.390 . S
C1421 C1422 1.394 . S
C1421 C1427 1.465 . S
C1422 C1417 1.399 . S
C1422 C1421 1.394 . S
C1422 C1423 1.516 . S
C1423 C1422 1.516 . S
C1423 C1424 1.502 . S
C1423 C1425 1.561 . S
C1423 C1426 1.526 . S
C1424 H1408 0.959 . S
C1424 H1409 0.959 . S
C1424 H1410 0.961 . S
C1424 C1423 1.502 . S
C1425 H1411 0.960 . S
C1425 H1412 0.961 . S
C1425 H1413 0.959 . S
C1425 C1423 1.561 . S
C1426 C1423 1.526 . S
C1426 C1427 1.396 . S
C1426 C1431 1.390 . S
C1427 C1421 1.465 . S
C1427 C1426 1.396 . S
C1427 C1428 1.399 . S
C1428 H1414 0.929 . S
C1428 C1427 1.399 . S
C1428 C1429 1.385 . S
C1429 H1415 0.931 . S
C1429 C1428 1.385 . S
C1429 C1430 1.389 . S
C1430 C1429 1.389 . S
C1430 C1431 1.387 . S
C1431 H1416 0.930 . S
C1431 C1426 1.390 . S
C1431 C1430 1.387 . S
H1432 C1444 0.930 . S
H1433 C1446 0.930 1_554 S
H1434 C1447 0.930 . S
H1435 C1451 0.959 . S
H1436 C1451 0.959 . S
H1437 C1451 0.961 . S
H1438 C1452 0.960 . S
H1439 C1452 0.961 . S
H1440 C1452 0.959 . S
H1441 C1455 0.929 . S
H1442 C1456 0.931 . S
H1443 C1458 0.930 1_556 S
C1444 H1432 0.930 . S
C1444 C1445 1.399 . S
C1444 C1449 1.399 . S
C1445 C1444 1.399 . S
C1445 C1446 1.376 . S
C1446 H1433 0.930 1_556 S
C1446 C1445 1.376 . S
C1446 C1447 1.388 1_556 S
C1447 H1434 0.930 . S
C1447 C1446 1.388 1_554 S
C1447 C1448 1.390 . S
C1448 C1447 1.390 . S
C1448 C1449 1.394 1_554 S
C1448 C1454 1.465 . S
C1449 C1444 1.399 . S
C1449 C1448 1.394 1_556 S
C1449 C1450 1.516 . S
C1450 C1449 1.516 . S
C1450 C1451 1.502 . S
C1450 C1452 1.561 . S
C1450 C1453 1.526 . S
C1451 H1435 0.959 . S
C1451 H1436 0.959 . S
C1451 H1437 0.961 . S
C1451 C1450 1.502 . S
C1452 H1438 0.960 . S
C1452 H1439 0.961 . S
C1452 H1440 0.959 . S
C1452 C1450 1.561 . S
C1453 C1450 1.526 . S
C1453 C1454 1.396 1_556 S
C1453 C1458 1.390 1_556 S
C1454 C1448 1.465 . S
C1454 C1453 1.396 1_554 S
C1454 C1455 1.399 . S
C1455 H1441 0.929 . S
C1455 C1454 1.399 . S
C1455 C1456 1.385 . S
C1456 H1442 0.931 . S
C1456 C1455 1.385 . S
C1456 C1457 1.389 . S
C1457 C1456 1.389 . S
C1457 C1458 1.387 . S
C1458 H1443 0.930 1_554 S
C1458 C1453 1.390 1_554 S
C1458 C1457 1.387 . S
H1459 C1471 0.930 1_556 S
H1460 C1473 0.930 . S
H1461 C1474 0.930 . S
H1462 C1478 0.959 . S
H1463 C1478 0.959 . S
H1464 C1478 0.961 . S
H1465 C1479 0.960 . S
H1466 C1479 0.961 . S
H1467 C1479 0.959 . S
H1468 C1482 0.929 . S
H1469 C1483 0.930 . S
H1470 C1485 0.930 . S
C1471 H1459 0.930 1_554 S
C1471 C1472 1.399 . S
C1471 C1476 1.399 1_554 S
C1472 C1471 1.399 . S
C1472 C1473 1.376 . S
C1473 H1460 0.930 . S
C1473 C1472 1.376 . S
C1473 C1474 1.388 . S
C1474 H1461 0.930 . S
C1474 C1473 1.388 . S
C1474 C1475 1.390 . S
C1475 C1474 1.390 . S
C1475 C1476 1.394 1_554 S
C1475 C1481 1.465 . S
C1476 C1471 1.399 1_556 S
C1476 C1475 1.394 1_556 S
C1476 C1477 1.516 . S
C1477 C1476 1.516 . S
C1477 C1478 1.502 . S
C1477 C1479 1.561 . S
C1477 C1480 1.526 . S
C1478 H1462 0.959 . S
C1478 H1463 0.959 . S
C1478 H1464 0.961 . S
C1478 C1477 1.502 . S
C1479 H1465 0.960 . S
C1479 H1466 0.961 . S
C1479 H1467 0.959 . S
C1479 C1477 1.561 . S
C1480 C1477 1.526 . S
C1480 C1481 1.396 1_556 S
C1480 C1485 1.390 . S
C1481 C1475 1.465 . S
C1481 C1480 1.396 1_554 S
C1481 C1482 1.399 . S
C1482 H1468 0.929 . S
C1482 C1481 1.399 . S
C1482 C1483 1.384 . S
C1483 H1469 0.930 . S
C1483 C1482 1.384 . S
C1483 C1484 1.392 1_554 S
C1484 C1483 1.392 1_556 S
C1484 C1485 1.387 . S
C1485 H1470 0.930 . S
C1485 C1480 1.390 . S
C1485 C1484 1.387 . S
H1486 C1498 0.930 . S
H1487 C1500 0.930 1_556 S
H1488 C1501 0.930 . S
H1489 C1505 0.959 . S
H1490 C1505 0.959 . S
H1491 C1505 0.961 . S
H1492 C1506 0.960 . S
H1493 C1506 0.961 . S
H1494 C1506 0.959 . S
H1495 C1509 0.929 . S
H1496 C1510 0.931 . S
H1497 C1512 0.930 1_554 S
C1498 H1486 0.930 . S
C1498 C1499 1.399 . S
C1498 C1503 1.399 . S
C1499 C1498 1.399 . S
C1499 C1500 1.376 . S
C1500 H1487 0.930 1_554 S
C1500 C1499 1.376 . S
C1500 C1501 1.388 1_554 S
C1501 H1488 0.930 . S
C1501 C1500 1.388 1_556 S
C1501 C1502 1.390 . S
C1502 C1501 1.390 . S
C1502 C1503 1.394 1_556 S
C1502 C1508 1.465 . S
C1503 C1498 1.399 . S
C1503 C1502 1.394 1_554 S
C1503 C1504 1.516 . S
C1504 C1503 1.516 . S
C1504 C1505 1.502 . S
C1504 C1506 1.561 . S
C1504 C1507 1.526 . S
C1505 H1489 0.959 . S
C1505 H1490 0.959 . S
C1505 H1491 0.961 . S
C1505 C1504 1.502 . S
C1506 H1492 0.960 . S
C1506 H1493 0.961 . S
C1506 H1494 0.959 . S
C1506 C1504 1.561 . S
C1507 C1504 1.526 . S
C1507 C1508 1.396 1_554 S
C1507 C1512 1.390 1_554 S
C1508 C1502 1.465 . S
C1508 C1507 1.396 1_556 S
C1508 C1509 1.399 . S
C1509 H1495 0.929 . S
C1509 C1508 1.399 . S
C1509 C1510 1.385 . S
C1510 H1496 0.931 . S
C1510 C1509 1.385 . S
C1510 C1511 1.389 . S
C1511 C1510 1.389 . S
C1511 C1512 1.387 . S
C1512 H1497 0.930 1_556 S
C1512 C1507 1.390 1_556 S
C1512 C1511 1.387 . S
H1513 C1525 0.930 1_556 S
H1514 C1527 0.930 . S
H1515 C1528 0.930 . S
H1516 C1532 0.959 . S
H1517 C1532 0.959 . S
H1518 C1532 0.961 . S
H1519 C1533 0.960 . S
H1520 C1533 0.961 . S
H1521 C1533 0.959 . S
H1522 C1536 0.929 . S
H1523 C1537 0.932 1_554 S
H1524 C1539 0.930 . S
C1525 H1513 0.930 1_554 S
C1525 C1526 1.399 . S
C1525 C1530 1.399 1_554 S
C1526 C1525 1.399 . S
C1526 C1527 1.376 . S
C1527 H1514 0.930 . S
C1527 C1526 1.376 . S
C1527 C1528 1.388 . S
C1528 H1515 0.930 . S
C1528 C1527 1.388 . S
C1528 C1529 1.390 . S
C1529 C1528 1.390 . S
C1529 C1530 1.394 1_554 S
C1529 C1535 1.465 . S
C1530 C1525 1.399 1_556 S
C1530 C1529 1.394 1_556 S
C1530 C1531 1.516 . S
C1531 C1530 1.516 . S
C1531 C1532 1.502 . S
C1531 C1533 1.561 . S
C1531 C1534 1.526 . S
C1532 H1516 0.959 . S
C1532 H1517 0.959 . S
C1532 H1518 0.961 . S
C1532 C1531 1.502 . S
C1533 H1519 0.960 . S
C1533 H1520 0.961 . S
C1533 H1521 0.959 . S
C1533 C1531 1.561 . S
C1534 C1531 1.526 . S
C1534 C1535 1.396 1_556 S
C1534 C1539 1.390 . S
C1535 C1529 1.465 . S
C1535 C1534 1.396 1_554 S
C1535 C1536 1.399 . S
C1536 H1522 0.929 . S
C1536 C1535 1.399 . S
C1536 C1537 1.386 1_554 S
C1537 H1523 0.932 1_556 S
C1537 C1536 1.386 1_556 S
C1537 C1538 1.387 . S
C1538 C1537 1.387 . S
C1538 C1539 1.387 . S
C1539 H1524 0.930 . S
C1539 C1534 1.390 . S
C1539 C1538 1.387 . S
H1540 C1552 0.930 . S
H1541 C1554 0.930 . S
H1542 C1555 0.930 . S
H1543 C1559 0.959 . S
H1544 C1559 0.959 . S
H1545 C1559 0.961 . S
H1546 C1560 0.960 . S
H1547 C1560 0.961 . S
H1548 C1560 0.959 . S
H1549 C1563 0.929 . S
H1550 C1564 0.931 . S
H1551 C1566 0.930 . S
C1552 H1540 0.930 . S
C1552 C1553 1.399 . S
C1552 C1557 1.399 . S
C1553 C1552 1.399 . S
C1553 C1554 1.376 . S
C1554 H1541 0.930 . S
C1554 C1553 1.376 . S
C1554 C1555 1.388 . S
C1555 H1542 0.930 . S
C1555 C1554 1.388 . S
C1555 C1556 1.390 . S
C1556 C1555 1.390 . S
C1556 C1557 1.394 . S
C1556 C1562 1.465 . S
C1557 C1552 1.399 . S
C1557 C1556 1.394 . S
C1557 C1558 1.516 . S
C1558 C1557 1.516 . S
C1558 C1559 1.502 . S
C1558 C1560 1.561 . S
C1558 C1561 1.526 . S
C1559 H1543 0.959 . S
C1559 H1544 0.959 . S
C1559 H1545 0.961 . S
C1559 C1558 1.502 . S
C1560 H1546 0.960 . S
C1560 H1547 0.961 . S
C1560 H1548 0.959 . S
C1560 C1558 1.561 . S
C1561 C1558 1.526 . S
C1561 C1562 1.396 . S
C1561 C1566 1.390 . S
C1562 C1556 1.465 . S
C1562 C1561 1.396 . S
C1562 C1563 1.399 . S
C1563 H1549 0.929 . S
C1563 C1562 1.399 . S
C1563 C1564 1.385 . S
C1564 H1550 0.931 . S
C1564 C1563 1.385 . S
C1564 C1565 1.389 . S
C1565 C1564 1.389 . S
C1565 C1566 1.387 . S
C1566 H1551 0.930 . S
C1566 C1561 1.390 . S
C1566 C1565 1.387 . S
H1567 C1579 0.930 . S
H1568 C1581 0.930 . S
H1569 C1582 0.930 . S
H1570 C1586 0.959 . S
H1571 C1586 0.959 . S
H1572 C1586 0.961 . S
H1573 C1587 0.960 . S
H1574 C1587 0.961 . S
H1575 C1587 0.959 . S
H1576 C1590 0.929 . S
H1577 C1591 0.931 . S
H1578 C1593 0.930 . S
C1579 H1567 0.930 . S
C1579 C1580 1.399 . S
C1579 C1584 1.399 . S
C1580 C1579 1.399 . S
C1580 C1581 1.376 . S
C1581 H1568 0.930 . S
C1581 C1580 1.376 . S
C1581 C1582 1.388 . S
C1582 H1569 0.930 . S
C1582 C1581 1.388 . S
C1582 C1583 1.390 . S
C1583 C1582 1.390 . S
C1583 C1584 1.394 . S
C1583 C1589 1.465 . S
C1584 C1579 1.399 . S
C1584 C1583 1.394 . S
C1584 C1585 1.516 . S
C1585 C1584 1.516 . S
C1585 C1586 1.502 . S
C1585 C1587 1.561 . S
C1585 C1588 1.526 . S
C1586 H1570 0.959 . S
C1586 H1571 0.959 . S
C1586 H1572 0.961 . S
C1586 C1585 1.502 . S
C1587 H1573 0.960 . S
C1587 H1574 0.961 . S
C1587 H1575 0.959 . S
C1587 C1585 1.561 . S
C1588 C1585 1.526 . S
C1588 C1589 1.396 . S
C1588 C1593 1.390 . S
C1589 C1583 1.465 . S
C1589 C1588 1.396 . S
C1589 C1590 1.399 . S
C1590 H1576 0.929 . S
C1590 C1589 1.399 . S
C1590 C1591 1.385 . S
C1591 H1577 0.931 . S
C1591 C1590 1.385 . S
C1591 C1592 1.389 . S
C1592 C1591 1.389 . S
C1592 C1593 1.387 . S
C1593 H1578 0.930 . S
C1593 C1588 1.390 . S
C1593 C1592 1.387 . S
H1594 C1606 0.930 . S
H1595 C1608 0.930 . S
H1596 C1609 0.930 . S
H1597 C1613 0.959 . S
H1598 C1613 0.959 . S
H1599 C1613 0.961 . S
H1600 C1614 0.960 . S
H1601 C1614 0.961 . S
H1602 C1614 0.959 . S
H1603 C1617 0.929 . S
H1604 C1618 0.931 . S
H1605 C1620 0.930 . S
C1606 H1594 0.930 . S
C1606 C1607 1.399 . S
C1606 C1611 1.399 . S
C1607 C1606 1.399 . S
C1607 C1608 1.376 . S
C1608 H1595 0.930 . S
C1608 C1607 1.376 . S
C1608 C1609 1.388 . S
C1609 H1596 0.930 . S
C1609 C1608 1.388 . S
C1609 C1610 1.390 . S
C1610 C1609 1.390 . S
C1610 C1611 1.394 . S
C1610 C1616 1.465 . S
C1611 C1606 1.399 . S
C1611 C1610 1.394 . S
C1611 C1612 1.516 . S
C1612 C1611 1.516 . S
C1612 C1613 1.502 . S
C1612 C1614 1.561 . S
C1612 C1615 1.526 . S
C1613 H1597 0.959 . S
C1613 H1598 0.959 . S
C1613 H1599 0.961 . S
C1613 C1612 1.502 . S
C1614 H1600 0.960 . S
C1614 H1601 0.961 . S
C1614 H1602 0.959 . S
C1614 C1612 1.561 . S
C1615 C1612 1.526 . S
C1615 C1616 1.396 . S
C1615 C1620 1.390 . S
C1616 C1610 1.465 . S
C1616 C1615 1.396 . S
C1616 C1617 1.399 . S
C1617 H1603 0.929 . S
C1617 C1616 1.399 . S
C1617 C1618 1.385 . S
C1618 H1604 0.931 . S
C1618 C1617 1.385 . S
C1618 C1619 1.389 . S
C1619 C1618 1.389 . S
C1619 C1620 1.387 . S
C1620 H1605 0.930 . S
C1620 C1615 1.390 . S
C1620 C1619 1.387 . S
H1621 C1633 0.930 . S
H1622 C1635 0.930 . S
H1623 C1636 0.930 . S
H1624 C1640 0.959 . S
H1625 C1640 0.959 . S
H1626 C1640 0.961 . S
H1627 C1641 0.960 . S
H1628 C1641 0.961 . S
H1629 C1641 0.959 . S
H1630 C1644 0.929 . S
H1631 C1645 0.931 . S
H1632 C1647 0.930 . S
C1633 H1621 0.930 . S
C1633 C1634 1.399 . S
C1633 C1638 1.399 . S
C1634 C1633 1.399 . S
C1634 C1635 1.376 . S
C1635 H1622 0.930 . S
C1635 C1634 1.376 . S
C1635 C1636 1.388 . S
C1636 H1623 0.930 . S
C1636 C1635 1.388 . S
C1636 C1637 1.390 . S
C1637 C1636 1.390 . S
C1637 C1638 1.394 . S
C1637 C1643 1.465 . S
C1638 C1633 1.399 . S
C1638 C1637 1.394 . S
C1638 C1639 1.516 . S
C1639 C1638 1.516 . S
C1639 C1640 1.502 . S
C1639 C1641 1.561 . S
C1639 C1642 1.526 . S
C1640 H1624 0.959 . S
C1640 H1625 0.959 . S
C1640 H1626 0.961 . S
C1640 C1639 1.502 . S
C1641 H1627 0.960 . S
C1641 H1628 0.961 . S
C1641 H1629 0.959 . S
C1641 C1639 1.561 . S
C1642 C1639 1.526 . S
C1642 C1643 1.396 . S
C1642 C1647 1.390 . S
C1643 C1637 1.465 . S
C1643 C1642 1.396 . S
C1643 C1644 1.399 . S
C1644 H1630 0.929 . S
C1644 C1643 1.399 . S
C1644 C1645 1.385 . S
C1645 H1631 0.931 . S
C1645 C1644 1.385 . S
C1645 C1646 1.389 . S
C1646 C1645 1.389 . S
C1646 C1647 1.387 . S
C1647 H1632 0.930 . S
C1647 C1642 1.390 . S
C1647 C1646 1.387 . S
C365 C5 1.204 . S
C377 C115 1.218 . S
C392 C29 1.297 . S
C404 C139 1.286 . S
C419 C163 1.276 . S
C431 C53 1.290 . S
C446 C94 1.277 . S
C458 C72 1.227 . S
C473 C291 1.263 . S
C485 C181 1.282 . S
C500 C205 1.245 . S
C512 C315 1.204 . S
C527 C339 1.249 . S
C539 C229 1.228 . S
C554 C270 1.209 . S
C566 C248 1.256 . S
C581 C8 1.329 . S
C593 C27 1.268 . S
C608 C50 1.257 . S
C620 C26 1.352 . S
C635 C75 1.315 . S
C647 C48 1.314 . S
C662 C74 1.355 . S
C674 C7 1.198 . S
C689 C96 1.356 . S
C701 C160 1.199 . S
C716 C97 1.316 . S
C728 C118 1.313 . S
C743 C117 1.254 . S
C755 C136 1.353 . S
C770 C137 1.314 . S
C782 C158 1.314 . S
C797 C184 1.331 . S
C809 C203 1.264 . S
C824 C226 1.308 . S
C836 C202 1.329 . S
C851 C224 1.320 . S
C863 C251 1.290 . S
C878 C250 1.319 . S
C890 C183 1.262 . S
C905 C336 1.301 . S
C917 C272 1.312 . S
C932 C273 1.201 . S
C944 C294 1.357 . S
C959 C293 1.267 . S
C971 C312 1.318 . S
C986 C334 1.351 . S
C998 C313 1.225 . S
C1013 C140 1.435 . S
C1025 C9 1.477 . S
C1040 C162 1.429 . S
C1052 C28 1.466 . S
C1067 C49 1.447 . S
C1079 C92 1.441 . S
C1094 C73 1.493 . S
C1106 C114 1.368 . S
C1121 C52 1.373 . S
C1133 C95 1.488 . S
C1148 C119 1.474 . S
C1160 C70 1.440 . S
C1175 C138 1.464 . S
C1187 C4 1.417 . S
C1202 C30 1.458 . S
C1214 C159 1.451 . S
C1229 C185 1.493 . S
C1241 C316 1.386 . S
C1256 C204 1.493 . S
C1268 C338 1.368 . S
C1283 C268 1.384 . S
C1295 C225 1.468 . S
C1310 C249 1.447 . S
C1322 C290 1.458 . S
C1337 C271 1.462 . S
C1349 C228 1.422 . S
C1364 C295 1.463 . S
C1376 C246 1.393 . S
C1391 C314 1.466 . S
C1403 C180 1.414 . S
C1418 C206 1.372 . S
C1430 C335 1.491 . S
C1445 C337 1.501 . S
C1457 C6 1.587 . S
C1472 C269 1.589 . S
C1484 C31 1.488 . S
C1499 C51 1.517 . S
C1511 C292 1.587 . S
C1526 C317 1.589 . S
C1538 C71 1.489 . S
C1553 C93 1.481 . S
C1565 C207 1.585 . S
C1580 C116 1.481 . S
C1592 C227 1.565 . S
C1607 C247 1.482 . S
C1619 C141 1.578 . S
C1634 C161 1.490 . S
C1646 C182 1.582 . S
