# Generated by pormake.
# Topology bsn, (6)-cn, num edge types: 1
# Building blocks:
#     Node 0, Type 0, BuildingBlock: MIDCAF_clean_sbu_0, # of connection points: 6
#     Node 1, Type 0, BuildingBlock: MIDCAF_clean_sbu_0, # of connection points: 6
#     Node 2, Type 0, BuildingBlock: MIDCAF_clean_sbu_0, # of connection points: 6
#     Node 3, Type 0, BuildingBlock: MIDCAF_clean_sbu_0, # of connection points: 6
#     Edge 4, Type (0, 0), BuildingBlock: ZUJKAS_clean_linker_0, # of connection points: 2
#     Edge 5, Type (0, 0), BuildingBlock: ZUJKAS_clean_linker_0, # of connection points: 2
#     Edge 6, Type (0, 0), BuildingBlock: ZUJKAS_clean_linker_0, # of connection points: 2
#     Edge 7, Type (0, 0), BuildingBlock: ZUJKAS_clean_linker_0, # of connection points: 2
#     Edge 8, Type (0, 0), BuildingBlock: ZUJKAS_clean_linker_0, # of connection points: 2
#     Edge 9, Type (0, 0), BuildingBlock: ZUJKAS_clean_linker_0, # of connection points: 2
#     Edge 10, Type (0, 0), BuildingBlock: ZUJKAS_clean_linker_0, # of connection points: 2
#     Edge 11, Type (0, 0), BuildingBlock: ZUJKAS_clean_linker_0, # of connection points: 2
#     Edge 12, Type (0, 0), BuildingBlock: ZUJKAS_clean_linker_0, # of connection points: 2
#     Edge 13, Type (0, 0), BuildingBlock: ZUJKAS_clean_linker_0, # of connection points: 2
#     Edge 14, Type (0, 0), BuildingBlock: ZUJKAS_clean_linker_0, # of connection points: 2
#     Edge 15, Type (0, 0), BuildingBlock: ZUJKAS_clean_linker_0, # of connection points: 2
# Relax obj value: 0.105
# Max RMSD: 0.165
# Mean RMSD: 0.163
data_MOF--net-bsn--node1-MIDCAF_clean_sbu_0--edge1-ZUJKAS_clean_linker_0
_symmetry_space_group_name_H-M    P1
_symmetry_Int_Tables_number       1
_symmetry_cell_setting            triclinic
loop_
_symmetry_equiv_pos_as_xyz
'x, y, z'
_cell_length_a     38.741886
_cell_length_b     38.620418
_cell_length_c     19.380989
_cell_angle_alpha  90.190694
_cell_angle_beta   94.978814
_cell_angle_gamma 89.9346
loop_
_atom_site_label
_atom_site_type_symbol
_atom_site_fract_x
_atom_site_fract_y
_atom_site_fract_z
_atom_type_partial_charge
Zn0 Zn 0.00692 0.21653 0.3135 0.0
Zn1 Zn 0.09082 0.29784 0.43987 0.0
Zn2 Zn 0.04932 0.2561 0.37333 0.0
C3 C 0.03209 0.3362 0.41263 0.0
C4 C 0.12403 0.2797 0.32556 0.0
O5 O 0.04785 0.20684 0.43388 0.0
O6 O 0.01904 0.17222 0.3586 0.0
C7 C 0.96667 0.2695 0.34946 0.0
O8 O 0.02244 0.30742 0.38277 0.0
O9 O 0.06154 0.33874 0.44525 0.0
O10 O 0.12732 0.30039 0.37609 0.0
O11 O 0.09643 0.26104 0.31497 0.0
O12 O 0.9635 0.23758 0.33712 0.0
O13 O 0.99725 0.28303 0.35807 0.0
O14 O 0.06958 0.24462 0.27289 0.0
O15 O 0.02131 0.22425 0.21888 0.0
C16 C 0.05218 0.23437 0.21698 0.0
O17 O 0.06519 0.232 0.47525 0.0
O18 O 0.10218 0.27032 0.5238 0.0
C19 C 0.0367 0.17635 0.41577 0.0
C20 C 0.08668 0.24173 0.52614 0.0
Zn21 Zn 1.0033 0.80532 0.56163 0.0
Zn22 Zn 0.08089 0.71272 0.67335 0.0
Zn23 Zn 0.04181 0.75888 0.61462 0.0
C24 C 0.12224 0.77062 0.67502 0.0
C25 C 0.05846 0.68322 0.54984 0.0
O26 O 0.99525 0.76577 0.67437 0.0
O27 O 0.96757 0.81069 0.62607 0.0
C28 C 0.06546 0.83758 0.58031 0.0
O29 O 0.09466 0.78253 0.64083 0.0
O30 O 0.12282 0.73997 0.69725 0.0
O31 O 0.08123 0.67806 0.59925 0.0
O32 O 0.04138 0.712 0.54622 0.0
O33 O 0.0351 0.84349 0.55466 0.0
O34 O 0.07346 0.80772 0.60707 0.0
O35 O 0.02424 0.73988 0.50804 0.0
O36 O 0.989 0.78248 0.47359 0.0
C37 C 1.00292 0.75386 0.46127 0.0
O38 O 0.01908 0.74395 0.71191 0.0
O39 O 0.05294 0.70093 0.75058 0.0
C40 C 0.96941 0.78703 0.67079 0.0
C41 C 0.02704 0.72011 0.757 0.0
Zn42 Zn 0.50475 0.71948 0.80931 0.0
Zn43 Zn 0.59633 0.80135 0.92593 0.0
Zn44 Zn 0.55074 0.76245 0.8666 0.0
C45 C 0.59294 0.74699 0.01524 0.0
C46 C 0.5375 0.8416 0.91575 0.0
O47 O 0.56902 0.74724 0.76576 0.0
O48 O 0.52818 0.71117 0.72351 0.0
C49 C 0.53034 0.68583 0.92578 0.0
O50 O 0.56813 0.73939 0.9689 0.0
O51 O 0.61192 0.77286 0.00683 0.0
O52 O 0.56799 0.84152 0.94422 0.0
O53 O 0.52571 0.81464 0.88175 0.0
O54 O 0.50695 0.68168 0.87709 0.0
O55 O 0.548 0.71424 0.93037 0.0
O56 O 0.50064 0.79157 0.85 0.0
O57 O 0.46479 0.75096 0.80568 0.0
C58 C 0.47007 0.78167 0.82614 0.0
O59 O 0.59579 0.766 0.80252 0.0
O60 O 0.62878 0.80658 0.85453 0.0
C61 C 0.55639 0.72674 0.71739 0.0
C62 C 0.62324 0.785 0.80598 0.0
Zn63 Zn 0.58036 0.21415 0.1592 0.0
Zn64 Zn 0.47545 0.31307 0.03102 0.0
Zn65 Zn 0.5413 0.26227 0.10778 0.0
C66 C 0.49528 0.25196 0.95427 0.0
C67 C 0.5526 0.33441 0.07874 0.0
O68 O 0.52037 0.24893 0.20604 0.0
O69 O 0.55673 0.20799 0.24514 0.0
C70 C 0.55254 0.1861 0.03838 0.0
O71 O 0.5198 0.2453 0.00229 0.0
O72 O 0.47435 0.27693 0.95898 0.0
O73 O 0.52218 0.32596 0.05994 0.0
O74 O 0.57266 0.31025 0.10255 0.0
O75 O 0.57371 0.17786 0.08866 0.0
O76 O 0.53869 0.21652 0.03615 0.0
O77 O 0.59565 0.28488 0.12883 0.0
O78 O 0.62495 0.23819 0.16486 0.0
C79 C 0.6246 0.2699 0.14957 0.0
O80 O 0.49473 0.26989 0.16855 0.0
O81 O 0.45225 0.30173 0.11354 0.0
C82 C 0.53061 0.22674 0.25286 0.0
C83 C 0.46425 0.28408 0.16511 0.0
H84 H 0.0427 0.38194 0.31391 0.0
H85 H 0.03335 0.44412 0.32291 0.0
H86 H 0.97089 0.42726 0.49359 0.0
H87 H 0.98243 0.36478 0.48728 0.0
H88 H 0.98668 0.49248 0.32133 0.0
H89 H 0.04772 0.48068 0.59082 0.0
H90 H 0.04367 0.44426 0.53255 0.0
H91 H 0.00702 0.45874 0.57617 0.0
C92 C 0.02568 0.39141 0.35134 0.0
C93 C 0.01304 0.36871 0.39957 0.0
C94 C 0.02058 0.42705 0.35692 0.0
C95 C 1.00242 0.44063 0.41053 0.0
C96 C 0.98604 0.41753 0.45333 0.0
H97 H 0.99298 0.6642 0.50051 0.0
H98 H 0.97516 0.60634 0.45794 0.0
C99 C 0.99192 0.38178 0.4488 0.0
C100 C 1.00467 0.47845 0.4259 0.0
H101 H 0.03523 0.53658 0.54998 0.0
C102 C 0.99685 0.50212 0.37164 0.0
C103 C 0.01873 0.49114 0.49125 0.0
C104 C 0.03009 0.46743 0.55084 0.0
C105 C 1.00328 0.53778 0.38055 0.0
C106 C 0.0173 0.55014 0.44555 0.0
C107 C 0.02424 0.52683 0.50027 0.0
C108 C 0.02747 0.58678 0.45736 0.0
C109 C 0.9967 0.56192 0.31988 0.0
C110 C 0.06271 0.59513 0.46879 0.0
C111 C 0.07289 0.628 0.49267 0.0
C112 C 0.048 0.65314 0.50565 0.0
C113 C 0.01271 0.64553 0.48968 0.0
C114 C 1.0025 0.61247 0.46578 0.0
H115 H 0.98779 0.54794 0.2714 0.0
H116 H 0.97672 0.58124 0.33127 0.0
H117 H 0.02077 0.57635 0.31152 0.0
H118 H 0.08233 0.5756 0.46272 0.0
H119 H 0.10023 0.63309 0.5051 0.0
H120 H 0.65139 0.72222 0.78192 0.0
H121 H 0.71213 0.71326 0.75922 0.0
H122 H 0.72192 0.82218 0.71704 0.0
H123 H 0.66176 0.83137 0.74187 0.0
H124 H 0.75978 0.73241 0.65243 0.0
H125 H 0.78346 0.80333 0.90157 0.0
H126 H 0.74158 0.78583 0.87174 0.0
H127 H 0.75608 0.82585 0.83697 0.0
C128 C 0.66606 0.74389 0.76448 0.0
C129 C 0.65218 0.77753 0.76405 0.0
C130 C 0.7008 0.7388 0.75217 0.0
C131 C 0.72161 0.76725 0.73845 0.0
C132 C 0.70636 0.80004 0.72893 0.0
H133 H 0.92389 0.8352 0.70868 0.0
H134 H 0.86476 0.82456 0.73645 0.0
C135 C 0.67195 0.80522 0.74232 0.0
C136 C 0.7598 0.76405 0.74383 0.0
H137 H 0.83234 0.79396 0.83766 0.0
C138 C 0.77579 0.74542 0.69326 0.0
C139 C 0.78042 0.78069 0.79797 0.0
C140 C 0.76458 0.79979 0.85558 0.0
C141 C 0.81207 0.745 0.69266 0.0
C142 C 0.83268 0.76307 0.74511 0.0
C143 C 0.81656 0.78011 0.79766 0.0
C144 C 0.8703 0.7688 0.74101 0.0
C145 C 0.82781 0.72695 0.6337 0.0
C146 C 0.89378 0.74113 0.7387 0.0
C147 C 0.92781 0.74722 0.72257 0.0
C148 C 0.93871 0.78106 0.70916 0.0
C149 C 0.91613 0.80884 0.71843 0.0
C150 C 0.88227 0.80276 0.73412 0.0
H151 H 0.808 0.7199 0.59107 0.0
H152 H 0.8476 0.74361 0.61225 0.0
H153 H 0.84072 0.70279 0.65307 0.0
H154 H 0.88531 0.71477 0.74579 0.0
H155 H 0.94457 0.72529 0.71528 0.0
H156 H 0.61693 0.3677 0.09759 0.0
H157 H 0.6269 0.43103 0.09295 0.0
H158 H 0.51709 0.44761 0.05002 0.0
H159 H 0.50696 0.3863 0.0549 0.0
H160 H 0.60098 0.47892 0.97308 0.0
H161 H 0.54603 0.51067 0.22026 0.0
H162 H 0.56284 0.46821 0.20203 0.0
H163 H 0.52025 0.48084 0.16656 0.0
C164 C 0.59509 0.38501 0.08779 0.0
C165 C 0.56124 0.37179 0.07708 0.0
C166 C 0.60075 0.42103 0.08493 0.0
C167 C 0.57257 0.44391 0.07234 0.0
C168 C 0.53911 0.43054 0.06103 0.0
H169 H 0.48774 0.63596 0.96806 0.0
H170 H 0.50471 0.57904 0.01415 0.0
C171 C 0.53351 0.39518 0.06352 0.0
C172 C 0.57677 0.48195 0.0686 0.0
H173 H 0.54486 0.55616 0.1354 0.0
C174 C 0.58989 0.49609 0.00968 0.0
C175 C 0.56147 0.50407 0.11571 0.0
C176 C 0.54708 0.49022 0.18003 0.0
C177 C 0.58611 0.53156 -0.00562 0.0
C178 C 0.56939 0.5534 0.04008 0.0
C179 C 0.55791 0.53947 0.10076 0.0
C180 C 0.55975 0.58961 0.02156 0.0
C181 C 0.59768 0.54489 0.927 0.0
C182 C 0.585 0.615 0.01348 0.0
C183 C 0.57528 0.6478 0.98774 0.0
C184 C 0.5402 0.65554 0.96961 0.0
C185 C 0.51495 0.63075 0.98188 0.0
C186 C 0.52463 0.59818 0.00796 0.0
H187 H 0.60519 0.52361 0.89259 0.0
H188 H 0.57673 0.56029 0.89888 0.0
H189 H 0.6204 0.56212 0.93796 0.0
H190 H 0.61223 0.60902 0.02456 0.0
H191 H 0.59532 0.6662 0.97778 0.0
H192 H 0.95137 0.3325 0.28799 0.0
H193 H 0.89255 0.35527 0.25805 0.0
H194 H 0.85042 0.27255 0.37411 0.0
H195 H 0.9084 0.25071 0.40497 0.0
H196 H 0.84543 0.32163 0.17966 0.0
H197 H 0.78755 0.34726 0.42366 0.0
H198 H 0.83376 0.34239 0.42074 0.0
H199 H 0.80643 0.30495 0.42787 0.0
C200 C 0.92958 0.32034 0.30969 0.0
C201 C 0.93437 0.28995 0.34896 0.0
C202 C 0.89595 0.33311 0.29207 0.0
C203 C 0.86682 0.31591 0.31435 0.0
C204 C 0.87217 0.28703 0.35771 0.0
H205 H 0.68495 0.24441 0.11358 0.0
H206 H 0.7429 0.2655 0.14764 0.0
C207 C 0.90547 0.27437 0.37508 0.0
C208 C 0.83093 0.32411 0.2845 0.0
H209 H 0.74722 0.32598 0.3274 0.0
C210 C 0.82407 0.32367 0.2121 0.0
C211 C 0.80277 0.32729 0.32617 0.0
C212 C 0.80815 0.33088 0.40388 0.0
C213 C 0.78996 0.32329 0.18074 0.0
C214 C 0.76183 0.32252 0.22279 0.0
C215 C 0.76863 0.32606 0.29486 0.0
C216 C 0.72609 0.31295 0.19425 0.0
C217 C 0.78456 0.32245 0.10272 0.0
C218 C 0.69681 0.3324 0.20919 0.0
C219 C 0.66314 0.32009 0.18979 0.0
C220 C 0.65842 0.28799 0.156 0.0
C221 C 0.68775 0.26944 0.13888 0.0
C222 C 0.72104 0.28163 0.15801 0.0
H223 H 0.80544 0.33686 0.07941 0.0
H224 H 0.78562 0.29522 0.08454 0.0
H225 H 0.75916 0.33373 0.08356 0.0
H226 H 0.70001 0.35645 0.23794 0.0
H227 H 0.64102 0.33449 0.20508 0.0
H228 H 0.42913 0.32903 0.23964 0.0
H229 H 0.37187 0.31808 0.27843 0.0
H230 H 0.38251 0.20947 0.23216 0.0
H231 H 0.44024 0.22049 0.19389 0.0
H232 H 0.32658 0.24256 0.15649 0.0
H233 H 0.32575 0.27158 0.43633 0.0
H234 H 0.34706 0.30437 0.39023 0.0
H235 H 0.36506 0.26141 0.39658 0.0
C236 C 0.42005 0.30255 0.24166 0.0
C237 C 0.43909 0.27551 0.21473 0.0
C238 C 0.38724 0.29631 0.26344 0.0
C239 C 0.37291 0.26295 0.25816 0.0
C240 C 0.39321 0.23535 0.23702 0.0
H241 H 0.15365 0.21788 0.29861 0.0
H242 H 0.21407 0.20924 0.27314 0.0
C243 C 0.42632 0.24156 0.21605 0.0
C244 C 0.33524 0.25846 0.26334 0.0
H245 H 0.27085 0.27552 0.36804 0.0
C246 C 0.3144 0.24896 0.20322 0.0
C247 C 0.31942 0.26722 0.32404 0.0
C248 C 0.34051 0.27641 0.39065 0.0
C249 C 0.27807 0.24952 0.20146 0.0
C250 C 0.26239 0.25966 0.26129 0.0
C251 C 0.28314 0.26791 0.3221 0.0
C252 C 0.22448 0.26379 0.26132 0.0
C253 C 0.25654 0.24088 0.13511 0.0
C254 C 0.21019 0.29715 0.26014 0.0
C255 C 0.17568 0.30205 0.27339 0.0
C256 C 0.15494 0.27365 0.28809 0.0
C257 C 0.16866 0.24006 0.28477 0.0
C258 C 0.20326 0.23514 0.27126 0.0
H259 H 0.27275 0.23418 0.09241 0.0
H260 H 0.23928 0.21868 0.14384 0.0
H261 H 0.23977 0.26327 0.11895 0.0
H262 H 0.22631 0.31954 0.25295 0.0
H263 H 0.16591 0.32823 0.27718 0.0
H264 H 0.44835 0.82255 0.71818 0.0
H265 H 0.38811 0.84041 0.689 0.0
H266 H 0.36189 0.80536 0.88898 0.0
H267 H 0.42209 0.78811 0.91815 0.0
H268 H 0.33847 0.79194 0.67811 0.0
H269 H 0.302 0.89034 0.86631 0.0
H270 H 0.34664 0.88048 0.85396 0.0
H271 H 0.32257 0.85352 0.90835 0.0
C272 C 0.43009 0.82068 0.7573 0.0
C273 C 0.43994 0.8049 0.82108 0.0
C274 C 0.39558 0.83043 0.74031 0.0
C275 C 0.37037 0.82453 0.78691 0.0
C276 C 0.38085 0.81109 0.85274 0.0
H277 H 0.16139 0.77335 0.79614 0.0
H278 H 0.2207 0.79418 0.81649 0.0
C279 C 0.41535 0.80138 0.86966 0.0
C280 C 0.33283 0.82693 0.76315 0.0
H281 H 0.25505 0.85676 0.80958 0.0
C282 C 0.3203 0.80682 0.70579 0.0
C283 C 0.30903 0.84601 0.79967 0.0
C284 C 0.32081 0.86905 0.86009 0.0
C285 C 0.28463 0.80374 0.68633 0.0
C286 C 0.26075 0.82191 0.72435 0.0
C287 C 0.27334 0.8431 0.78001 0.0
C288 C 0.22284 0.81521 0.71364 0.0
C289 C 0.27277 0.77926 0.62815 0.0
C290 C 0.20354 0.82164 0.64995 0.0
C291 C 0.16917 0.80987 0.6383 0.0
C292 C 0.15397 0.79144 0.69018 0.0
C293 C 0.17256 0.78742 0.75521 0.0
C294 C 0.2065 0.7993 0.7669 0.0
H295 H 0.29424 0.76278 0.61216 0.0
H296 H 0.25181 0.76213 0.6437 0.0
H297 H 0.26234 0.79444 0.58248 0.0
H298 H 0.2155 0.83439 0.60844 0.0
H299 H 0.15546 0.81307 0.58759 0.0
H300 H 0.53873 0.88484 0.02472 0.0
H301 H 0.52461 0.94595 0.02231 0.0
H302 H 0.47975 0.93571 0.81155 0.0
H303 H 0.49534 0.8738 0.81315 0.0
H304 H 0.52524 0.98666 0.82118 0.0
H305 H 0.44298 1.00553 0.03581 0.0
H306 H 0.48105 0.98217 0.06685 0.0
H307 H 0.45088 0.96304 0.00136 0.0
C308 C 0.52468 0.89524 0.97857 0.0
C309 C 0.51804 0.87448 0.91919 0.0
C310 C 0.51641 0.93034 0.97736 0.0
C311 C 0.5006 0.94567 0.91713 0.0
C312 C 0.49171 0.92448 0.85889 0.0
H313 H 0.48622 0.16979 0.98959 0.0
H314 H 0.46691 0.11352 0.94097 0.0
C315 C 0.5002 0.88902 0.86002 0.0
C316 C 0.49798 0.9842 0.91346 0.0
H317 H 0.47997 0.05464 0.01123 0.0
C318 C 0.51443 1.00155 0.8617 0.0
C319 C 0.48362 1.00401 0.96565 0.0
C320 C 0.46334 0.98761 0.02 0.0
C321 C 0.5192 0.03767 0.86379 0.0
C322 C 0.50783 0.05694 0.91981 0.0
C323 C 0.48906 0.03997 0.96853 0.0
C324 C 0.51871 0.09346 0.934 0.0
C325 C 0.53725 0.05467 0.80692 0.0
C326 C 0.55415 0.10142 0.944 0.0
C327 C 0.5651 0.13346 0.97131 0.0
C328 C 0.5409 0.15827 0.98934 0.0
C329 C 0.50541 0.15143 0.97468 0.0
C330 C 0.49439 0.11914 0.94763 0.0
H331 H 0.53238 0.04022 0.75737 0.0
H332 H 0.52864 0.0819 0.79868 0.0
H333 H 0.56562 0.05452 0.8211 0.0
H334 H 0.5735 0.08195 0.93562 0.0
H335 H 0.59261 0.1379 0.98303 0.0
H336 H 0.08936 0.86888 0.47072 0.0
H337 H 0.09997 0.9308 0.46575 0.0
H338 H 0.10197 0.93701 0.68839 0.0
H339 H 0.09033 0.8747 0.69284 0.0
H340 H 0.05264 0.97615 0.63023 0.0
H341 H 0.16992 1.00512 0.49914 0.0
H342 H 0.14351 0.97438 0.44953 0.0
H343 H 0.16241 0.9629 0.53475 0.0
C344 C 0.09436 0.88306 0.51891 0.0
C345 C 0.08947 0.86701 0.5822 0.0
C346 C 0.10027 0.91866 0.51607 0.0
C347 C 0.10186 0.93881 0.57671 0.0
C348 C 0.10097 0.92203 0.6409 0.0
H349 H 0.09606 0.16382 0.50015 0.0
H350 H 0.11392 0.10858 0.55457 0.0
C351 C 0.09492 0.8863 0.64363 0.0
C352 C 0.09742 0.97705 0.57137 0.0
H353 H 0.1236 0.04811 0.48536 0.0
C354 C 0.06879 0.99204 0.60009 0.0
C355 C 0.11829 0.99803 0.53201 0.0
C356 C 0.15043 0.98426 0.50277 0.0
C357 C 0.05943 0.0267 0.58748 0.0
C358 C 0.07881 0.04688 0.54391 0.0
C359 C 0.10857 0.0326 0.51842 0.0
C360 C 0.06679 0.08151 0.5188 0.0
C361 C 0.02831 0.04107 0.6197 0.0
C362 C 0.0343 0.08477 0.48139 0.0
C363 C 0.0239 0.11631 0.45157 0.0
C364 C 0.04586 0.1453 0.45786 0.0
C365 C 0.07811 0.14234 0.49654 0.0
C366 C 0.08853 0.11064 0.52672 0.0
H367 H 0.02412 0.02748 0.66872 0.0
H368 H 0.03115 0.06921 0.63062 0.0
H369 H 1.00483 0.03707 0.58354 0.0
H370 H 0.01745 0.06253 0.47286 0.0
H371 H 0.99905 0.11767 0.42138 0.0
H372 H 0.0196 0.25052 0.09284 0.0
H373 H 0.04075 0.24253 0.97887 0.0
H374 H 0.13928 0.20755 0.07443 0.0
H375 H 0.11774 0.21515 0.18946 0.0
H376 H 0.10508 0.2718 0.92661 0.0
H377 H 0.09778 0.12769 0.93569 0.0
H378 H 0.07519 0.15451 0.99373 0.0
H379 H 0.12144 0.15099 0.0054 0.0
C380 C 0.04594 0.24157 0.08964 0.0
C381 C 0.06727 0.23379 0.14984 0.0
C382 C 0.05797 0.23701 0.02462 0.0
C383 C 0.09141 0.2242 0.01843 0.0
C384 C 0.11331 0.21734 0.07837 0.0
H385 H 0.14847 0.22945 0.59694 0.0
H386 H 0.15751 0.21352 0.71909 0.0
C387 C 0.10126 0.22219 0.14389 0.0
C388 C 0.10206 0.21741 0.9483 0.0
H389 H 0.10352 0.15316 0.82672 0.0
C390 C 0.10567 0.24587 0.90501 0.0
C391 C 0.10251 0.18349 0.92061 0.0
C392 C 0.09896 0.15223 0.96586 0.0
C393 C 0.10773 0.24147 0.83378 0.0
C394 C 0.10632 0.20765 0.8053 0.0
C395 C 0.10453 0.17897 0.84899 0.0
C396 C 0.10346 0.20289 0.72942 0.0
C397 C 0.10935 0.27318 0.78869 0.0
C398 C 0.07046 0.19939 0.69379 0.0
C399 C 0.06524 0.20828 0.62368 0.0
C400 C 0.093 0.22103 0.58945 0.0
C401 C 0.12663 0.22012 0.62291 0.0
C402 C 0.13189 0.21082 0.69243 0.0
H403 H 0.1065 0.2976 0.8181 0.0
H404 H 0.13465 0.27385 0.7659 0.0
H405 H 0.08864 0.2722 0.74535 0.0
H406 H 0.04821 0.19332 0.72176 0.0
H407 H 0.03913 0.20867 0.59865 0.0
H408 H 0.99451 0.77001 0.82899 0.0
H409 H 0.97643 0.76437 0.94679 0.0
H410 H 0.99996 0.6553 0.94427 0.0
H411 H 0.01802 0.66069 0.82709 0.0
H412 H 0.93027 0.70808 0.02504 0.0
H413 H 0.07361 0.71043 0.08618 0.0
H414 H 0.05348 0.72701 0.00549 0.0
H415 H 0.0557 0.6812 0.02001 0.0
C416 C 0.99454 0.74463 0.85256 0.0
C417 C 0.00803 0.71587 0.81932 0.0
C418 C 0.98421 0.74142 0.91978 0.0
C419 C 0.98713 0.70944 0.95415 0.0
C420 C 0.99752 0.68015 0.91852 0.0
H421 H 0.03373 0.69809 0.40093 0.0
H422 H 0.02308 0.67757 0.28165 0.0
C423 C 0.008 0.68336 0.85177 0.0
C424 C 0.98595 0.70797 0.03017 0.0
H425 H 0.03943 0.70942 0.17921 0.0
C426 C 0.95403 0.7081 0.05907 0.0
C427 C 0.01701 0.70726 0.07412 0.0
C428 C 0.052 0.7066 0.04534 0.0
C429 C 0.95242 0.70828 0.13138 0.0
C430 C 0.98363 0.70971 0.17557 0.0
C431 C 0.01545 0.70826 0.14601 0.0
C432 C 0.98445 0.71661 0.25144 0.0
C433 C 0.91726 0.70667 0.15916 0.0
C434 C 0.9657 0.74459 0.27545 0.0
C435 C 0.97045 0.75499 0.34448 0.0
C436 C 0.99513 0.73863 0.39119 0.0
C437 C 0.01365 0.71035 0.36759 0.0
C438 C 0.0079 0.69902 0.29877 0.0
H439 H 0.899 0.69097 0.12452 0.0
H440 H 0.91863 0.69539 0.21195 0.0
H441 H 0.90631 0.7332 0.16086 0.0
H442 H 0.94863 0.75975 0.24019 0.0
H443 H 0.95581 0.77714 0.36019 0.0
H444 H 0.65128 0.74416 0.10358 0.0
H445 H 0.65484 0.72828 0.22556 0.0
H446 H 0.54916 0.69222 0.20073 0.0
H447 H 0.54501 0.70925 0.07888 0.0
H448 H 0.56044 0.74703 0.29203 0.0
H449 H 0.65865 0.64454 0.35497 0.0
H450 H 0.67264 0.67897 0.30189 0.0
H451 H 0.63817 0.65089 0.26849 0.0
C452 C 0.6291 0.73185 0.12354 0.0
C453 C 0.59769 0.72834 0.08186 0.0
C454 C 0.63133 0.72244 0.19324 0.0
C455 C 0.60229 0.70907 0.2223 0.0
C456 C 0.57192 0.70244 0.17916 0.0
H457 H 0.55336 0.6697 0.63529 0.0
H458 H 0.57207 0.66439 0.51861 0.0
C459 C 0.56961 0.71202 0.10939 0.0
C460 C 0.60125 0.709 0.29854 0.0
H461 H 0.63952 0.6766 0.45042 0.0
C462 C 0.5776 0.73144 0.32656 0.0
C463 C 0.62406 0.68905 0.34346 0.0
C464 C 0.64966 0.66427 0.31583 0.0
C465 C 0.57591 0.73443 0.39814 0.0
C466 C 0.59874 0.7147 0.44325 0.0
C467 C 0.62244 0.69209 0.41556 0.0
C468 C 0.59544 0.71517 0.51873 0.0
C469 C 0.5492 0.75827 0.42511 0.0
C470 C 0.60356 0.74508 0.55834 0.0
C471 C 0.59275 0.74828 0.62521 0.0
C472 C 0.57364 0.72161 0.65302 0.0
C473 C 0.56778 0.6908 0.61492 0.0
C474 C 0.57871 0.68757 0.54849 0.0
H475 H 0.53029 0.76787 0.38311 0.0
H476 H 0.53478 0.7448 0.4642 0.0
H477 H 0.56242 0.78097 0.45075 0.0
H478 H 0.61637 0.76672 0.53597 0.0
H479 H 0.59726 0.77244 0.65297 0.0
H480 H 0.49379 0.2759 0.31853 0.0
H481 H 0.47371 0.27183 0.43471 0.0
H482 H 0.51143 0.1668 0.45145 0.0
H483 H 0.5295 0.16999 0.33432 0.0
H484 H 0.45237 0.17686 0.52204 0.0
H485 H 0.55288 0.27755 0.58667 0.0
H486 H 0.51836 0.29013 0.524 0.0
H487 H 0.54797 0.25652 0.50328 0.0
C488 C 0.4964 0.2515 0.34579 0.0
C489 C 0.51327 0.2233 0.31742 0.0
C490 C 0.48532 0.24933 0.41249 0.0
C491 C 0.4918 0.21924 0.45218 0.0
C492 C 0.50626 0.19028 0.42187 0.0
H493 H 0.54655 0.21932 0.88991 0.0
H494 H 0.54301 0.20181 0.76799 0.0
C495 C 0.51689 0.19228 0.35513 0.0
C496 C 0.48868 0.21921 0.5278 0.0
H497 H 0.52422 0.25535 0.67823 0.0
C498 C 0.46788 0.19412 0.55635 0.0
C499 C 0.50953 0.24131 0.57239 0.0
C500 C 0.53369 0.26772 0.54533 0.0
C501 C 0.46743 0.1906 0.6285 0.0
C502 C 0.48823 0.21282 0.6727 0.0
C503 C 0.50869 0.23801 0.64406 0.0
C504 C 0.4881 0.21234 0.74896 0.0
C505 C 0.44539 0.16278 0.65693 0.0
C506 C 0.45805 0.22207 0.77933 0.0
C507 C 0.45998 0.2317 0.84888 0.0
C508 C 0.49205 0.23214 0.88894 0.0
C509 C 0.5215 0.2191 0.8604 0.0
C510 C 0.5195 0.20924 0.7907 0.0
H511 H 0.43817 0.14244 0.61765 0.0
H512 H 0.4591 0.15046 0.70325 0.0
H513 H 0.42116 0.17457 0.67277 0.0
H514 H 0.43369 0.22515 0.74806 0.0
H515 H 0.43677 0.24135 0.86987 0.0
loop_
_geom_bond_atom_site_label_1
_geom_bond_atom_site_label_2
_geom_bond_distance
_geom_bond_site_symmetry_2
_ccdc_geom_bond_type
Zn0 O6 1.920 1_655 S
Zn0 O12 1.898 . S
Zn0 O15 1.905 1_655 S
Zn1 O9 1.905 . S
Zn1 O10 1.898 . S
Zn1 O18 1.920 . S
Zn2 O5 2.080 . S
Zn2 O8 2.114 . S
Zn2 O11 2.120 . S
Zn2 O13 2.090 1_455 S
Zn2 O14 2.114 . S
Zn2 O17 2.080 . S
C3 O8 1.166 . S
C3 O9 1.182 . S
C4 O10 1.167 . S
C4 O11 1.299 . S
O5 Zn2 2.080 . S
O5 C19 1.305 . S
O6 Zn0 1.920 1_455 S
O6 C19 1.234 . S
C7 O12 1.167 . S
C7 O13 1.321 . S
O8 Zn2 2.114 . S
O8 C3 1.166 . S
O9 Zn1 1.905 . S
O9 C3 1.182 . S
O10 Zn1 1.898 . S
O10 C4 1.167 . S
O11 Zn2 2.120 . S
O11 C4 1.299 . S
O12 Zn0 1.898 . S
O12 C7 1.167 . S
O13 Zn2 2.090 1_655 S
O13 C7 1.321 . S
O14 Zn2 2.114 . S
O14 C16 1.166 . S
O15 Zn0 1.905 1_455 S
O15 C16 1.182 . S
C16 O14 1.166 . S
C16 O15 1.182 . S
O17 Zn2 2.080 . S
O17 C20 1.305 . S
O18 Zn1 1.920 . S
O18 C20 1.234 . S
C19 O5 1.305 . S
C19 O6 1.234 . S
C20 O17 1.305 . S
C20 O18 1.234 . S
Zn21 O27 1.920 . S
Zn21 O33 1.898 1_655 S
Zn21 O36 1.905 . S
Zn22 O30 1.905 . S
Zn22 O31 1.898 . S
Zn22 O39 1.920 . S
Zn23 O26 2.080 1_455 S
Zn23 O29 2.114 . S
Zn23 O32 2.120 . S
Zn23 O34 2.120 . S
Zn23 O35 2.114 . S
Zn23 O38 2.080 . S
C24 O29 1.166 . S
C24 O30 1.182 . S
C25 O31 1.167 . S
C25 O32 1.299 . S
O26 Zn23 2.080 1_655 S
O26 C40 1.305 . S
O27 Zn21 1.920 . S
O27 C40 1.234 . S
C28 O33 1.167 . S
C28 O34 1.299 . S
O29 Zn23 2.114 . S
O29 C24 1.166 . S
O30 Zn22 1.905 . S
O30 C24 1.182 . S
O31 Zn22 1.898 . S
O31 C25 1.167 . S
O32 Zn23 2.120 . S
O32 C25 1.299 . S
O33 Zn21 1.898 1_455 S
O33 C28 1.167 . S
O34 Zn23 2.120 . S
O34 C28 1.299 . S
O35 Zn23 2.114 . S
O35 C37 1.166 . S
O36 Zn21 1.905 . S
O36 C37 1.182 1_655 S
C37 O35 1.166 . S
C37 O36 1.182 1_455 S
O38 Zn23 2.080 . S
O38 C41 1.305 . S
O39 Zn22 1.920 . S
O39 C41 1.234 . S
C40 O26 1.305 . S
C40 O27 1.234 . S
C41 O38 1.305 . S
C41 O39 1.234 . S
Zn42 O48 1.920 . S
Zn42 O54 1.898 . S
Zn42 O57 1.905 . S
Zn43 O51 1.905 1_556 S
Zn43 O52 1.898 . S
Zn43 O60 1.920 . S
Zn44 O47 2.080 . S
Zn44 O50 2.114 . S
Zn44 O53 2.120 . S
Zn44 O55 2.120 . S
Zn44 O56 2.114 . S
Zn44 O59 2.080 . S
C45 O50 1.166 1_554 S
C45 O51 1.182 . S
C46 O52 1.167 . S
C46 O53 1.299 . S
O47 Zn44 2.080 . S
O47 C61 1.305 . S
O48 Zn42 1.920 . S
O48 C61 1.234 . S
C49 O54 1.167 . S
C49 O55 1.299 . S
O50 Zn44 2.114 . S
O50 C45 1.166 1_556 S
O51 Zn43 1.905 1_554 S
O51 C45 1.182 . S
O52 Zn43 1.898 . S
O52 C46 1.167 . S
O53 Zn44 2.120 . S
O53 C46 1.299 . S
O54 Zn42 1.898 . S
O54 C49 1.167 . S
O55 Zn44 2.120 . S
O55 C49 1.299 . S
O56 Zn44 2.114 . S
O56 C58 1.166 . S
O57 Zn42 1.905 . S
O57 C58 1.182 . S
C58 O56 1.166 . S
C58 O57 1.182 . S
O59 Zn44 2.080 . S
O59 C62 1.305 . S
O60 Zn43 1.920 . S
O60 C62 1.234 . S
C61 O47 1.305 . S
C61 O48 1.234 . S
C62 O59 1.305 . S
C62 O60 1.234 . S
Zn63 O69 1.920 . S
Zn63 O75 1.898 . S
Zn63 O78 1.905 . S
Zn64 O72 1.905 1_554 S
Zn64 O73 1.898 . S
Zn64 O81 1.920 . S
Zn65 O68 2.080 . S
Zn65 O71 2.114 . S
Zn65 O74 2.120 . S
Zn65 O76 2.120 . S
Zn65 O77 2.114 . S
Zn65 O80 2.080 . S
C66 O71 1.166 1_556 S
C66 O72 1.182 . S
C67 O73 1.167 . S
C67 O74 1.299 . S
O68 Zn65 2.080 . S
O68 C82 1.305 . S
O69 Zn63 1.920 . S
O69 C82 1.234 . S
C70 O75 1.167 . S
C70 O76 1.299 . S
O71 Zn65 2.114 . S
O71 C66 1.166 1_554 S
O72 Zn64 1.905 1_556 S
O72 C66 1.182 . S
O73 Zn64 1.898 . S
O73 C67 1.167 . S
O74 Zn65 2.120 . S
O74 C67 1.299 . S
O75 Zn63 1.898 . S
O75 C70 1.167 . S
O76 Zn65 2.120 . S
O76 C70 1.299 . S
O77 Zn65 2.114 . S
O77 C79 1.166 . S
O78 Zn63 1.905 . S
O78 C79 1.182 . S
C79 O77 1.166 . S
C79 O78 1.182 . S
O80 Zn65 2.080 . S
O80 C83 1.305 . S
O81 Zn64 1.920 . S
O81 C83 1.234 . S
C82 O68 1.305 . S
C82 O69 1.234 . S
C83 O80 1.305 . S
C83 O81 1.234 . S
H84 C92 0.929 . S
H85 C94 0.930 . S
H86 C96 0.930 1_655 S
H87 C99 0.929 1_655 S
H88 C102 0.930 . S
H89 C104 0.960 . S
H90 C104 0.960 . S
H91 C104 0.960 . S
C92 H84 0.929 . S
C92 C93 1.377 . S
C92 C94 1.384 . S
C93 C92 1.377 . S
C93 C99 1.390 . S
C94 H85 0.930 . S
C94 C92 1.384 . S
C94 C95 1.372 . S
C95 C94 1.372 . S
C95 C96 1.400 . S
C95 C100 1.490 . S
C96 H86 0.930 1_455 S
C96 C95 1.400 . S
C96 C99 1.386 . S
H97 C113 0.930 1_655 S
H98 C114 0.931 1_655 S
C99 H87 0.929 1_455 S
C99 C93 1.390 . S
C99 C96 1.386 . S
C100 C95 1.490 . S
C100 C102 1.395 . S
C100 C103 1.403 . S
H101 C107 0.930 . S
C102 H88 0.930 . S
C102 C100 1.395 . S
C102 C105 1.403 . S
C103 C100 1.403 . S
C103 C104 1.524 . S
C103 C107 1.400 . S
C104 H89 0.960 . S
C104 H90 0.960 . S
C104 H91 0.960 . S
C104 C103 1.524 . S
C105 C102 1.403 . S
C105 C106 1.392 . S
C105 C109 1.495 . S
C106 C105 1.392 . S
C106 C107 1.385 . S
C106 C108 1.478 . S
C107 H101 0.930 . S
C107 C103 1.400 . S
C107 C106 1.385 . S
C108 C106 1.478 . S
C108 C110 1.381 . S
C108 C114 1.383 . S
C109 C105 1.495 . S
C109 H115 0.959 . S
C109 H116 0.961 . S
C109 H117 0.960 . S
C110 C108 1.381 . S
C110 C111 1.394 . S
C110 H118 0.930 . S
C111 C110 1.394 . S
C111 C112 1.383 . S
C111 H119 0.929 . S
C112 C111 1.383 . S
C112 C113 1.377 . S
C113 H97 0.930 1_455 S
C113 C112 1.377 . S
C113 C114 1.379 . S
C114 H98 0.931 1_455 S
C114 C108 1.383 . S
C114 C113 1.379 . S
H115 C109 0.959 . S
H116 C109 0.961 . S
H117 C109 0.960 . S
H118 C110 0.930 . S
H119 C111 0.929 . S
H120 C128 0.929 . S
H121 C130 0.930 . S
H122 C132 0.930 . S
H123 C135 0.929 . S
H124 C138 0.930 . S
H125 C140 0.960 . S
H126 C140 0.960 . S
H127 C140 0.960 . S
C128 H120 0.929 . S
C128 C129 1.377 . S
C128 C130 1.384 . S
C129 C128 1.377 . S
C129 C135 1.390 . S
C130 H121 0.930 . S
C130 C128 1.384 . S
C130 C131 1.372 . S
C131 C130 1.372 . S
C131 C132 1.400 . S
C131 C136 1.490 . S
C132 H122 0.930 . S
C132 C131 1.400 . S
C132 C135 1.386 . S
H133 C149 0.930 . S
H134 C150 0.931 . S
C135 H123 0.929 . S
C135 C129 1.390 . S
C135 C132 1.386 . S
C136 C131 1.490 . S
C136 C138 1.395 . S
C136 C139 1.403 . S
H137 C143 0.930 . S
C138 H124 0.930 . S
C138 C136 1.395 . S
C138 C141 1.403 . S
C139 C136 1.403 . S
C139 C140 1.524 . S
C139 C143 1.400 . S
C140 H125 0.960 . S
C140 H126 0.960 . S
C140 H127 0.960 . S
C140 C139 1.524 . S
C141 C138 1.403 . S
C141 C142 1.392 . S
C141 C145 1.495 . S
C142 C141 1.392 . S
C142 C143 1.385 . S
C142 C144 1.478 . S
C143 H137 0.930 . S
C143 C139 1.400 . S
C143 C142 1.385 . S
C144 C142 1.478 . S
C144 C146 1.381 . S
C144 C150 1.383 . S
C145 C141 1.495 . S
C145 H151 0.959 . S
C145 H152 0.961 . S
C145 H153 0.960 . S
C146 C144 1.381 . S
C146 C147 1.394 . S
C146 H154 0.930 . S
C147 C146 1.394 . S
C147 C148 1.383 . S
C147 H155 0.929 . S
C148 C147 1.383 . S
C148 C149 1.377 . S
C149 H133 0.930 . S
C149 C148 1.377 . S
C149 C150 1.379 . S
C150 H134 0.931 . S
C150 C144 1.383 . S
C150 C149 1.379 . S
H151 C145 0.959 . S
H152 C145 0.961 . S
H153 C145 0.960 . S
H154 C146 0.930 . S
H155 C147 0.929 . S
H156 C164 0.929 . S
H157 C166 0.930 . S
H158 C168 0.930 . S
H159 C171 0.929 . S
H160 C174 0.930 . S
H161 C176 0.960 . S
H162 C176 0.960 . S
H163 C176 0.960 . S
C164 H156 0.929 . S
C164 C165 1.377 . S
C164 C166 1.384 . S
C165 C164 1.377 . S
C165 C171 1.390 . S
C166 H157 0.930 . S
C166 C164 1.384 . S
C166 C167 1.372 . S
C167 C166 1.372 . S
C167 C168 1.400 . S
C167 C172 1.490 . S
C168 H158 0.930 . S
C168 C167 1.400 . S
C168 C171 1.386 . S
H169 C185 0.930 . S
H170 C186 0.931 . S
C171 H159 0.929 . S
C171 C165 1.390 . S
C171 C168 1.386 . S
C172 C167 1.490 . S
C172 C174 1.395 1_554 S
C172 C175 1.403 . S
H173 C179 0.930 . S
C174 H160 0.930 . S
C174 C172 1.395 1_556 S
C174 C177 1.403 . S
C175 C172 1.403 . S
C175 C176 1.524 . S
C175 C179 1.400 . S
C176 H161 0.960 . S
C176 H162 0.960 . S
C176 H163 0.960 . S
C176 C175 1.524 . S
C177 C174 1.403 . S
C177 C178 1.392 . S
C177 C181 1.495 . S
C178 C177 1.392 . S
C178 C179 1.385 1_556 S
C178 C180 1.478 . S
C179 H173 0.930 . S
C179 C175 1.400 . S
C179 C178 1.385 1_554 S
C180 C178 1.478 . S
C180 C182 1.381 . S
C180 C186 1.383 . S
C181 C177 1.495 . S
C181 H187 0.959 . S
C181 H188 0.961 . S
C181 H189 0.960 . S
C182 C180 1.381 . S
C182 C183 1.394 . S
C182 H190 0.930 . S
C183 C182 1.394 . S
C183 C184 1.383 . S
C183 H191 0.929 . S
C184 C183 1.383 . S
C184 C185 1.377 . S
C185 H169 0.930 . S
C185 C184 1.377 . S
C185 C186 1.379 . S
C186 H170 0.931 . S
C186 C180 1.383 . S
C186 C185 1.379 . S
H187 C181 0.959 . S
H188 C181 0.961 . S
H189 C181 0.960 . S
H190 C182 0.930 . S
H191 C183 0.929 . S
H192 C200 0.929 . S
H193 C202 0.930 . S
H194 C204 0.930 . S
H195 C207 0.929 . S
H196 C210 0.930 . S
H197 C212 0.960 . S
H198 C212 0.960 . S
H199 C212 0.960 . S
C200 H192 0.929 . S
C200 C201 1.377 . S
C200 C202 1.384 . S
C201 C200 1.377 . S
C201 C207 1.390 . S
C202 H193 0.930 . S
C202 C200 1.384 . S
C202 C203 1.372 . S
C203 C202 1.372 . S
C203 C204 1.400 . S
C203 C208 1.490 . S
C204 H194 0.930 . S
C204 C203 1.400 . S
C204 C207 1.386 . S
H205 C221 0.930 . S
H206 C222 0.931 . S
C207 H195 0.929 . S
C207 C201 1.390 . S
C207 C204 1.386 . S
C208 C203 1.490 . S
C208 C210 1.395 . S
C208 C211 1.403 . S
H209 C215 0.930 . S
C210 H196 0.930 . S
C210 C208 1.395 . S
C210 C213 1.403 . S
C211 C208 1.403 . S
C211 C212 1.524 . S
C211 C215 1.400 . S
C212 H197 0.960 . S
C212 H198 0.960 . S
C212 H199 0.960 . S
C212 C211 1.524 . S
C213 C210 1.403 . S
C213 C214 1.392 . S
C213 C217 1.495 . S
C214 C213 1.392 . S
C214 C215 1.385 . S
C214 C216 1.478 . S
C215 H209 0.930 . S
C215 C211 1.400 . S
C215 C214 1.385 . S
C216 C214 1.478 . S
C216 C218 1.381 . S
C216 C222 1.383 . S
C217 C213 1.495 . S
C217 H223 0.959 . S
C217 H224 0.961 . S
C217 H225 0.960 . S
C218 C216 1.381 . S
C218 C219 1.394 . S
C218 H226 0.930 . S
C219 C218 1.394 . S
C219 C220 1.383 . S
C219 H227 0.929 . S
C220 C219 1.383 . S
C220 C221 1.377 . S
C221 H205 0.930 . S
C221 C220 1.377 . S
C221 C222 1.379 . S
C222 H206 0.931 . S
C222 C216 1.383 . S
C222 C221 1.379 . S
H223 C217 0.959 . S
H224 C217 0.961 . S
H225 C217 0.960 . S
H226 C218 0.930 . S
H227 C219 0.929 . S
H228 C236 0.929 . S
H229 C238 0.930 . S
H230 C240 0.930 . S
H231 C243 0.929 . S
H232 C246 0.930 . S
H233 C248 0.960 . S
H234 C248 0.960 . S
H235 C248 0.960 . S
C236 H228 0.929 . S
C236 C237 1.377 . S
C236 C238 1.384 . S
C237 C236 1.377 . S
C237 C243 1.390 . S
C238 H229 0.930 . S
C238 C236 1.384 . S
C238 C239 1.372 . S
C239 C238 1.372 . S
C239 C240 1.400 . S
C239 C244 1.490 . S
C240 H230 0.930 . S
C240 C239 1.400 . S
C240 C243 1.386 . S
H241 C257 0.930 . S
H242 C258 0.931 . S
C243 H231 0.929 . S
C243 C237 1.390 . S
C243 C240 1.386 . S
C244 C239 1.490 . S
C244 C246 1.395 . S
C244 C247 1.403 . S
H245 C251 0.930 . S
C246 H232 0.930 . S
C246 C244 1.395 . S
C246 C249 1.403 . S
C247 C244 1.403 . S
C247 C248 1.524 . S
C247 C251 1.400 . S
C248 H233 0.960 . S
C248 H234 0.960 . S
C248 H235 0.960 . S
C248 C247 1.524 . S
C249 C246 1.403 . S
C249 C250 1.392 . S
C249 C253 1.495 . S
C250 C249 1.392 . S
C250 C251 1.385 . S
C250 C252 1.478 . S
C251 H245 0.930 . S
C251 C247 1.400 . S
C251 C250 1.385 . S
C252 C250 1.478 . S
C252 C254 1.381 . S
C252 C258 1.383 . S
C253 C249 1.495 . S
C253 H259 0.959 . S
C253 H260 0.961 . S
C253 H261 0.960 . S
C254 C252 1.381 . S
C254 C255 1.394 . S
C254 H262 0.930 . S
C255 C254 1.394 . S
C255 C256 1.383 . S
C255 H263 0.929 . S
C256 C255 1.383 . S
C256 C257 1.377 . S
C257 H241 0.930 . S
C257 C256 1.377 . S
C257 C258 1.379 . S
C258 H242 0.931 . S
C258 C252 1.383 . S
C258 C257 1.379 . S
H259 C253 0.959 . S
H260 C253 0.961 . S
H261 C253 0.960 . S
H262 C254 0.930 . S
H263 C255 0.929 . S
H264 C272 0.929 . S
H265 C274 0.930 . S
H266 C276 0.930 . S
H267 C279 0.929 . S
H268 C282 0.930 . S
H269 C284 0.960 . S
H270 C284 0.960 . S
H271 C284 0.960 . S
C272 H264 0.929 . S
C272 C273 1.377 . S
C272 C274 1.384 . S
C273 C272 1.377 . S
C273 C279 1.390 . S
C274 H265 0.930 . S
C274 C272 1.384 . S
C274 C275 1.372 . S
C275 C274 1.372 . S
C275 C276 1.400 . S
C275 C280 1.490 . S
C276 H266 0.930 . S
C276 C275 1.400 . S
C276 C279 1.386 . S
H277 C293 0.930 . S
H278 C294 0.931 . S
C279 H267 0.929 . S
C279 C273 1.390 . S
C279 C276 1.386 . S
C280 C275 1.490 . S
C280 C282 1.395 . S
C280 C283 1.403 . S
H281 C287 0.930 . S
C282 H268 0.930 . S
C282 C280 1.395 . S
C282 C285 1.403 . S
C283 C280 1.403 . S
C283 C284 1.524 . S
C283 C287 1.400 . S
C284 H269 0.960 . S
C284 H270 0.960 . S
C284 H271 0.960 . S
C284 C283 1.524 . S
C285 C282 1.403 . S
C285 C286 1.392 . S
C285 C289 1.495 . S
C286 C285 1.392 . S
C286 C287 1.385 . S
C286 C288 1.478 . S
C287 H281 0.930 . S
C287 C283 1.400 . S
C287 C286 1.385 . S
C288 C286 1.478 . S
C288 C290 1.381 . S
C288 C294 1.383 . S
C289 C285 1.495 . S
C289 H295 0.959 . S
C289 H296 0.961 . S
C289 H297 0.960 . S
C290 C288 1.381 . S
C290 C291 1.394 . S
C290 H298 0.930 . S
C291 C290 1.394 . S
C291 C292 1.383 . S
C291 H299 0.929 . S
C292 C291 1.383 . S
C292 C293 1.377 . S
C293 H277 0.930 . S
C293 C292 1.377 . S
C293 C294 1.379 . S
C294 H278 0.931 . S
C294 C288 1.383 . S
C294 C293 1.379 . S
H295 C289 0.959 . S
H296 C289 0.961 . S
H297 C289 0.960 . S
H298 C290 0.930 . S
H299 C291 0.929 . S
H300 C308 0.929 . S
H301 C310 0.930 . S
H302 C312 0.930 . S
H303 C315 0.929 . S
H304 C318 0.930 . S
H305 C320 0.960 . S
H306 C320 0.960 . S
H307 C320 0.960 . S
C308 H300 0.929 . S
C308 C309 1.377 . S
C308 C310 1.384 . S
C309 C308 1.377 . S
C309 C315 1.390 . S
C310 H301 0.930 . S
C310 C308 1.384 . S
C310 C311 1.372 . S
C311 C310 1.372 . S
C311 C312 1.400 . S
C311 C316 1.490 . S
C312 H302 0.930 . S
C312 C311 1.400 . S
C312 C315 1.386 . S
H313 C329 0.930 . S
H314 C330 0.931 . S
C315 H303 0.929 . S
C315 C309 1.390 . S
C315 C312 1.386 . S
C316 C311 1.490 . S
C316 C318 1.395 . S
C316 C319 1.403 1_556 S
H317 C323 0.930 . S
C318 H304 0.930 . S
C318 C316 1.395 . S
C318 C321 1.403 1_565 S
C319 C316 1.403 1_554 S
C319 C320 1.524 . S
C319 C323 1.400 1_565 S
C320 H305 0.960 . S
C320 H306 0.960 . S
C320 H307 0.960 . S
C320 C319 1.524 . S
C321 C318 1.403 1_545 S
C321 C322 1.392 1_556 S
C321 C325 1.495 . S
C322 C321 1.392 1_554 S
C322 C323 1.385 . S
C322 C324 1.478 . S
C323 H317 0.930 . S
C323 C319 1.400 1_545 S
C323 C322 1.385 . S
C324 C322 1.478 . S
C324 C326 1.381 . S
C324 C330 1.383 . S
C325 C321 1.495 . S
C325 H331 0.959 . S
C325 H332 0.961 . S
C325 H333 0.960 . S
C326 C324 1.381 . S
C326 C327 1.394 . S
C326 H334 0.930 . S
C327 C326 1.394 . S
C327 C328 1.383 . S
C327 H335 0.929 . S
C328 C327 1.383 . S
C328 C329 1.377 . S
C329 H313 0.930 . S
C329 C328 1.377 . S
C329 C330 1.379 . S
C330 H314 0.931 . S
C330 C324 1.383 . S
C330 C329 1.379 . S
H331 C325 0.959 . S
H332 C325 0.961 . S
H333 C325 0.960 . S
H334 C326 0.930 . S
H335 C327 0.929 . S
H336 C344 0.929 . S
H337 C346 0.930 . S
H338 C348 0.930 . S
H339 C351 0.929 . S
H340 C354 0.930 1_655 S
H341 C356 0.960 . S
H342 C356 0.960 . S
H343 C356 0.960 . S
C344 H336 0.929 . S
C344 C345 1.377 . S
C344 C346 1.384 . S
C345 C344 1.377 . S
C345 C351 1.390 . S
C346 H337 0.930 . S
C346 C344 1.384 . S
C346 C347 1.372 . S
C347 C346 1.372 . S
C347 C348 1.400 . S
C347 C352 1.490 . S
C348 H338 0.930 . S
C348 C347 1.400 . S
C348 C351 1.386 . S
H349 C365 0.930 . S
H350 C366 0.931 . S
C351 H339 0.929 . S
C351 C345 1.390 . S
C351 C348 1.386 . S
C352 C347 1.490 . S
C352 C354 1.395 . S
C352 C355 1.403 . S
H353 C359 0.930 . S
C354 H340 0.930 1_455 S
C354 C352 1.395 . S
C354 C357 1.403 1_565 S
C355 C352 1.403 . S
C355 C356 1.524 . S
C355 C359 1.400 1_565 S
C356 H341 0.960 . S
C356 H342 0.960 . S
C356 H343 0.960 . S
C356 C355 1.524 . S
C357 C354 1.403 1_545 S
C357 C358 1.392 . S
C357 C361 1.495 1_455 S
C358 C357 1.392 . S
C358 C359 1.385 . S
C358 C360 1.478 . S
C359 H353 0.930 . S
C359 C355 1.400 1_545 S
C359 C358 1.385 . S
C360 C358 1.478 . S
C360 C362 1.381 . S
C360 C366 1.383 . S
C361 C357 1.495 1_655 S
C361 H367 0.959 . S
C361 H368 0.961 . S
C361 H369 0.960 . S
C362 C360 1.381 . S
C362 C363 1.394 . S
C362 H370 0.930 1_455 S
C363 C362 1.394 . S
C363 C364 1.383 . S
C363 H371 0.929 . S
C364 C363 1.383 . S
C364 C365 1.377 . S
C365 H349 0.930 . S
C365 C364 1.377 . S
C365 C366 1.379 . S
C366 H350 0.931 . S
C366 C360 1.383 . S
C366 C365 1.379 . S
H367 C361 0.959 . S
H368 C361 0.961 . S
H369 C361 0.960 . S
H370 C362 0.930 1_655 S
H371 C363 0.929 . S
H372 C380 0.929 . S
H373 C382 0.930 . S
H374 C384 0.930 . S
H375 C387 0.929 . S
H376 C390 0.930 . S
H377 C392 0.960 . S
H378 C392 0.960 . S
H379 C392 0.960 . S
C380 H372 0.929 . S
C380 C381 1.377 . S
C380 C382 1.384 . S
C381 C380 1.377 . S
C381 C387 1.390 . S
C382 H373 0.930 . S
C382 C380 1.384 . S
C382 C383 1.372 . S
C383 C382 1.372 . S
C383 C384 1.400 . S
C383 C388 1.490 1_554 S
C384 H374 0.930 . S
C384 C383 1.400 . S
C384 C387 1.386 . S
H385 C401 0.930 . S
H386 C402 0.931 . S
C387 H375 0.929 . S
C387 C381 1.390 . S
C387 C384 1.386 . S
C388 C383 1.490 1_556 S
C388 C390 1.395 . S
C388 C391 1.403 . S
H389 C395 0.930 . S
C390 H376 0.930 . S
C390 C388 1.395 . S
C390 C393 1.403 . S
C391 C388 1.403 . S
C391 C392 1.524 . S
C391 C395 1.400 . S
C392 H377 0.960 . S
C392 H378 0.960 . S
C392 H379 0.960 . S
C392 C391 1.524 . S
C393 C390 1.403 . S
C393 C394 1.392 . S
C393 C397 1.495 . S
C394 C393 1.392 . S
C394 C395 1.385 . S
C394 C396 1.478 . S
C395 H389 0.930 . S
C395 C391 1.400 . S
C395 C394 1.385 . S
C396 C394 1.478 . S
C396 C398 1.381 . S
C396 C402 1.383 . S
C397 C393 1.495 . S
C397 H403 0.959 . S
C397 H404 0.961 . S
C397 H405 0.960 . S
C398 C396 1.381 . S
C398 C399 1.394 . S
C398 H406 0.930 . S
C399 C398 1.394 . S
C399 C400 1.383 . S
C399 H407 0.929 . S
C400 C399 1.383 . S
C400 C401 1.377 . S
C401 H385 0.930 . S
C401 C400 1.377 . S
C401 C402 1.379 . S
C402 H386 0.931 . S
C402 C396 1.383 . S
C402 C401 1.379 . S
H403 C397 0.959 . S
H404 C397 0.961 . S
H405 C397 0.960 . S
H406 C398 0.930 . S
H407 C399 0.929 . S
H408 C416 0.929 . S
H409 C418 0.930 . S
H410 C420 0.930 . S
H411 C423 0.929 . S
H412 C426 0.930 . S
H413 C428 0.960 . S
H414 C428 0.960 . S
H415 C428 0.960 . S
C416 H408 0.929 . S
C416 C417 1.377 . S
C416 C418 1.384 . S
C417 C416 1.377 . S
C417 C423 1.390 . S
C418 H409 0.930 . S
C418 C416 1.384 . S
C418 C419 1.372 . S
C419 C418 1.372 . S
C419 C420 1.400 . S
C419 C424 1.490 1_556 S
C420 H410 0.930 . S
C420 C419 1.400 . S
C420 C423 1.386 . S
H421 C437 0.930 . S
H422 C438 0.931 . S
C423 H411 0.929 . S
C423 C417 1.390 . S
C423 C420 1.386 . S
C424 C419 1.490 1_554 S
C424 C426 1.395 1_455 S
C424 C427 1.403 . S
H425 C431 0.930 . S
C426 H412 0.930 . S
C426 C424 1.395 1_655 S
C426 C429 1.403 . S
C427 C424 1.403 . S
C427 C428 1.524 . S
C427 C431 1.400 . S
C428 H413 0.960 . S
C428 H414 0.960 . S
C428 H415 0.960 . S
C428 C427 1.524 . S
C429 C426 1.403 . S
C429 C430 1.392 1_655 S
C429 C433 1.495 . S
C430 C429 1.392 1_455 S
C430 C431 1.385 . S
C430 C432 1.478 . S
C431 H425 0.930 . S
C431 C427 1.400 . S
C431 C430 1.385 . S
C432 C430 1.478 . S
C432 C434 1.381 . S
C432 C438 1.383 . S
C433 C429 1.495 . S
C433 H439 0.959 . S
C433 H440 0.961 . S
C433 H441 0.960 . S
C434 C432 1.381 . S
C434 C435 1.394 . S
C434 H442 0.930 . S
C435 C434 1.394 . S
C435 C436 1.383 . S
C435 H443 0.929 . S
C436 C435 1.383 . S
C436 C437 1.377 . S
C437 H421 0.930 . S
C437 C436 1.377 . S
C437 C438 1.379 . S
C438 H422 0.931 . S
C438 C432 1.383 . S
C438 C437 1.379 . S
H439 C433 0.959 . S
H440 C433 0.961 . S
H441 C433 0.960 . S
H442 C434 0.930 . S
H443 C435 0.929 . S
H444 C452 0.929 . S
H445 C454 0.930 . S
H446 C456 0.930 . S
H447 C459 0.929 . S
H448 C462 0.930 . S
H449 C464 0.960 . S
H450 C464 0.960 . S
H451 C464 0.960 . S
C452 H444 0.929 . S
C452 C453 1.377 . S
C452 C454 1.384 . S
C453 C452 1.377 . S
C453 C459 1.390 . S
C454 H445 0.930 . S
C454 C452 1.384 . S
C454 C455 1.372 . S
C455 C454 1.372 . S
C455 C456 1.400 . S
C455 C460 1.490 . S
C456 H446 0.930 . S
C456 C455 1.400 . S
C456 C459 1.386 . S
H457 C473 0.930 . S
H458 C474 0.931 . S
C459 H447 0.929 . S
C459 C453 1.390 . S
C459 C456 1.386 . S
C460 C455 1.490 . S
C460 C462 1.395 . S
C460 C463 1.403 . S
H461 C467 0.930 . S
C462 H448 0.930 . S
C462 C460 1.395 . S
C462 C465 1.403 . S
C463 C460 1.403 . S
C463 C464 1.524 . S
C463 C467 1.400 . S
C464 H449 0.960 . S
C464 H450 0.960 . S
C464 H451 0.960 . S
C464 C463 1.524 . S
C465 C462 1.403 . S
C465 C466 1.392 . S
C465 C469 1.495 . S
C466 C465 1.392 . S
C466 C467 1.385 . S
C466 C468 1.478 . S
C467 H461 0.930 . S
C467 C463 1.400 . S
C467 C466 1.385 . S
C468 C466 1.478 . S
C468 C470 1.381 . S
C468 C474 1.383 . S
C469 C465 1.495 . S
C469 H475 0.959 . S
C469 H476 0.961 . S
C469 H477 0.960 . S
C470 C468 1.381 . S
C470 C471 1.394 . S
C470 H478 0.930 . S
C471 C470 1.394 . S
C471 C472 1.383 . S
C471 H479 0.929 . S
C472 C471 1.383 . S
C472 C473 1.377 . S
C473 H457 0.930 . S
C473 C472 1.377 . S
C473 C474 1.379 . S
C474 H458 0.931 . S
C474 C468 1.383 . S
C474 C473 1.379 . S
H475 C469 0.959 . S
H476 C469 0.961 . S
H477 C469 0.960 . S
H478 C470 0.930 . S
H479 C471 0.929 . S
H480 C488 0.929 . S
H481 C490 0.930 . S
H482 C492 0.930 . S
H483 C495 0.929 . S
H484 C498 0.930 . S
H485 C500 0.960 . S
H486 C500 0.960 . S
H487 C500 0.960 . S
C488 H480 0.929 . S
C488 C489 1.377 . S
C488 C490 1.384 . S
C489 C488 1.377 . S
C489 C495 1.390 . S
C490 H481 0.930 . S
C490 C488 1.384 . S
C490 C491 1.372 . S
C491 C490 1.372 . S
C491 C492 1.400 . S
C491 C496 1.490 . S
C492 H482 0.930 . S
C492 C491 1.400 . S
C492 C495 1.386 . S
H493 C509 0.930 . S
H494 C510 0.931 . S
C495 H483 0.929 . S
C495 C489 1.390 . S
C495 C492 1.386 . S
C496 C491 1.490 . S
C496 C498 1.395 . S
C496 C499 1.403 . S
H497 C503 0.930 . S
C498 H484 0.930 . S
C498 C496 1.395 . S
C498 C501 1.403 . S
C499 C496 1.403 . S
C499 C500 1.524 . S
C499 C503 1.400 . S
C500 H485 0.960 . S
C500 H486 0.960 . S
C500 H487 0.960 . S
C500 C499 1.524 . S
C501 C498 1.403 . S
C501 C502 1.392 . S
C501 C505 1.495 . S
C502 C501 1.392 . S
C502 C503 1.385 . S
C502 C504 1.478 . S
C503 H497 0.930 . S
C503 C499 1.400 . S
C503 C502 1.385 . S
C504 C502 1.478 . S
C504 C506 1.381 . S
C504 C510 1.383 . S
C505 C501 1.495 . S
C505 H511 0.959 . S
C505 H512 0.961 . S
C505 H513 0.960 . S
C506 C504 1.381 . S
C506 C507 1.394 . S
C506 H514 0.930 . S
C507 C506 1.394 . S
C507 C508 1.383 . S
C507 H515 0.929 . S
C508 C507 1.383 . S
C508 C509 1.377 . S
C509 H493 0.930 . S
C509 C508 1.377 . S
C509 C510 1.379 . S
C510 H494 0.931 . S
C510 C504 1.383 . S
C510 C509 1.379 . S
H511 C505 0.959 . S
H512 C505 0.961 . S
H513 C505 0.960 . S
H514 C506 0.930 . S
H515 C507 0.929 . S
C93 C3 1.397 . S
C112 C25 1.542 . S
C129 C62 1.173 . S
C148 C40 1.180 . S
C165 C67 1.384 . S
C184 C49 1.479 . S
C201 C7 1.758 . S
C220 C79 1.783 . S
C237 C83 1.181 . S
C256 C4 1.212 . S
C273 C58 1.768 . S
C292 C24 1.755 . S
C309 C46 1.386 . S
C328 C70 1.528 . S
C345 C28 1.367 . S
C364 C19 1.495 . S
C381 C16 1.038 . S
C400 C20 0.993 . S
C417 C41 1.039 . S
C436 C37 1.000 . S
C453 C45 1.033 . S
C472 C61 1.018 . S
C489 C82 1.051 . S
C508 C66 1.060 . S
