# Generated by pormake.
# Topology uof, (4)-cn, num edge types: 1
# Building blocks:
#     Node 0, Type 0, BuildingBlock: AZAVOO_clean_sbu_0, # of connection points: 4
#     Node 1, Type 0, BuildingBlock: AZAVOO_clean_sbu_0, # of connection points: 4
#     Node 2, Type 0, BuildingBlock: AZAVOO_clean_sbu_0, # of connection points: 4
#     Node 3, Type 0, BuildingBlock: AZAVOO_clean_sbu_0, # of connection points: 4
#     Node 4, Type 0, BuildingBlock: AZAVOO_clean_sbu_0, # of connection points: 4
#     Node 5, Type 0, BuildingBlock: AZAVOO_clean_sbu_0, # of connection points: 4
#     Node 6, Type 0, BuildingBlock: AZAVOO_clean_sbu_0, # of connection points: 4
#     Node 7, Type 0, BuildingBlock: AZAVOO_clean_sbu_0, # of connection points: 4
#     Node 8, Type 0, BuildingBlock: AZAVOO_clean_sbu_0, # of connection points: 4
#     Node 9, Type 0, BuildingBlock: AZAVOO_clean_sbu_0, # of connection points: 4
#     Node 10, Type 0, BuildingBlock: AZAVOO_clean_sbu_0, # of connection points: 4
#     Node 11, Type 0, BuildingBlock: AZAVOO_clean_sbu_0, # of connection points: 4
#     Edge 12, Type (0, 0), BuildingBlock: MIFKUJ_clean_linker_0, # of connection points: 2
#     Edge 13, Type (0, 0), BuildingBlock: MIFKUJ_clean_linker_0, # of connection points: 2
#     Edge 14, Type (0, 0), BuildingBlock: MIFKUJ_clean_linker_0, # of connection points: 2
#     Edge 15, Type (0, 0), BuildingBlock: MIFKUJ_clean_linker_0, # of connection points: 2
#     Edge 16, Type (0, 0), BuildingBlock: MIFKUJ_clean_linker_0, # of connection points: 2
#     Edge 17, Type (0, 0), BuildingBlock: MIFKUJ_clean_linker_0, # of connection points: 2
#     Edge 18, Type (0, 0), BuildingBlock: MIFKUJ_clean_linker_0, # of connection points: 2
#     Edge 19, Type (0, 0), BuildingBlock: MIFKUJ_clean_linker_0, # of connection points: 2
#     Edge 20, Type (0, 0), BuildingBlock: MIFKUJ_clean_linker_0, # of connection points: 2
#     Edge 21, Type (0, 0), BuildingBlock: MIFKUJ_clean_linker_0, # of connection points: 2
#     Edge 22, Type (0, 0), BuildingBlock: MIFKUJ_clean_linker_0, # of connection points: 2
#     Edge 23, Type (0, 0), BuildingBlock: MIFKUJ_clean_linker_0, # of connection points: 2
#     Edge 24, Type (0, 0), BuildingBlock: MIFKUJ_clean_linker_0, # of connection points: 2
#     Edge 25, Type (0, 0), BuildingBlock: MIFKUJ_clean_linker_0, # of connection points: 2
#     Edge 26, Type (0, 0), BuildingBlock: MIFKUJ_clean_linker_0, # of connection points: 2
#     Edge 27, Type (0, 0), BuildingBlock: MIFKUJ_clean_linker_0, # of connection points: 2
#     Edge 28, Type (0, 0), BuildingBlock: MIFKUJ_clean_linker_0, # of connection points: 2
#     Edge 29, Type (0, 0), BuildingBlock: MIFKUJ_clean_linker_0, # of connection points: 2
#     Edge 30, Type (0, 0), BuildingBlock: MIFKUJ_clean_linker_0, # of connection points: 2
#     Edge 31, Type (0, 0), BuildingBlock: MIFKUJ_clean_linker_0, # of connection points: 2
#     Edge 32, Type (0, 0), BuildingBlock: MIFKUJ_clean_linker_0, # of connection points: 2
#     Edge 33, Type (0, 0), BuildingBlock: MIFKUJ_clean_linker_0, # of connection points: 2
#     Edge 34, Type (0, 0), BuildingBlock: MIFKUJ_clean_linker_0, # of connection points: 2
#     Edge 35, Type (0, 0), BuildingBlock: MIFKUJ_clean_linker_0, # of connection points: 2
# Relax obj value: 0.251
# Max RMSD: 0.197
# Mean RMSD: 0.197
data_MOF--net-uof--node1-AZAVOO_clean_sbu_0--edge1-MIFKUJ_clean_linker_0
_symmetry_space_group_name_H-M    P1
_symmetry_Int_Tables_number       1
_symmetry_cell_setting            triclinic
loop_
_symmetry_equiv_pos_as_xyz
'x, y, z'
_cell_length_a     41.050823
_cell_length_b     41.067451
_cell_length_c     80.299008
_cell_angle_alpha  89.99826
_cell_angle_beta   89.987219
_cell_angle_gamma 119.99707
loop_
_atom_site_label
_atom_site_type_symbol
_atom_site_fract_x
_atom_site_fract_y
_atom_site_fract_z
_atom_type_partial_charge
Mg0 Mg 0.2587 0.34123 0.21031 0.0
O1 O 0.27735 0.29808 0.20488 0.0
O2 O 0.33676 0.3226 0.21387 0.0
Mg3 Mg 0.35554 0.38047 0.22522 0.0
C4 C 0.30725 0.2962 0.20702 0.0
C5 C 0.17441 0.30977 0.20796 0.0
O6 O 0.18688 0.34256 0.21523 0.0
O7 O 0.25162 0.3235 0.2377 0.0
O8 O 0.31177 0.35193 0.24582 0.0
O9 O 0.28132 0.36884 0.1856 0.0
O10 O 0.31464 0.38352 0.20881 0.0
C11 C 0.27664 0.33234 0.24895 0.0
C12 C 0.31365 0.38706 0.1929 0.0
O13 O 0.19765 0.29881 0.20466 0.0
Mg14 Mg 0.90419 0.2555 0.54293 0.0
O15 O 0.95951 0.26742 0.53049 0.0
O16 O 0.00311 0.32698 0.53611 0.0
Mg17 Mg 0.97638 0.35256 0.55249 0.0
C18 C 0.99294 0.29529 0.52922 0.0
C19 C 0.84499 0.17617 0.53265 0.0
O20 O 0.82641 0.19454 0.53226 0.0
O21 O 0.92782 0.25032 0.56799 0.0
O22 O 0.97049 0.31056 0.5727 0.0
O23 O 0.88911 0.27774 0.52042 0.0
O24 O 0.92173 0.31227 0.54195 0.0
C25 C 0.95348 0.27596 0.577 0.0
C26 C 0.90881 0.3105 0.52719 0.0
O27 O 0.87909 0.19341 0.53734 0.0
Mg28 Mg 0.65117 0.90911 0.89194 0.0
O29 O 0.68953 0.96445 0.87841 0.0
O30 O 0.6652 0.00228 0.8806 0.0
Mg31 Mg 0.61796 0.97558 0.8997 0.0
C32 C 0.68953 0.99467 0.87479 0.0
C33 C 0.70253 0.89154 0.87082 0.0
O34 O 0.68761 0.9039 0.85981 0.0
O35 O 0.67996 0.93645 0.9166 0.0
O36 O 0.6604 0.97832 0.91901 0.0
O37 O 0.61383 0.89178 0.86946 0.0
O38 O 0.60693 0.9203 0.89144 0.0
C39 C 0.67994 0.96393 0.92407 0.0
C40 C 0.59756 0.90827 0.87646 0.0
O41 O 0.6936 0.89032 0.88607 0.0
Mg42 Mg 0.72799 0.65006 0.20741 0.0
O43 O 0.70992 0.69225 0.1992 0.0
O44 O 0.64832 0.66684 0.20414 0.0
Mg45 Mg 0.62846 0.61105 0.21749 0.0
C46 C 0.67947 0.69353 0.19863 0.0
C47 C 0.8099 0.67839 0.20164 0.0
O48 O 0.79424 0.64179 0.20347 0.0
O49 O 0.7293 0.66825 0.23442 0.0
O50 O 0.66774 0.64453 0.23907 0.0
O51 O 0.70942 0.62175 0.18268 0.0
O52 O 0.67331 0.60605 0.20513 0.0
C53 C 0.70202 0.66319 0.24381 0.0
C54 C 0.67668 0.60178 0.18947 0.0
O55 O 0.78942 0.69331 0.20319 0.0
Mg56 Mg 0.09991 0.74538 0.55062 0.0
O57 O 0.04231 0.72909 0.53943 0.0
O58 O 0.00162 0.66951 0.54643 0.0
Mg59 Mg 0.03121 0.6507 0.56479 0.0
C60 C 0.00972 0.69981 0.5387 0.0
C61 C 0.15676 0.82267 0.53769 0.0
O62 O 0.17658 0.80585 0.53971 0.0
O63 O 0.08024 0.75648 0.57555 0.0
O64 O 0.03748 0.69744 0.58237 0.0
O65 O 0.10968 0.71756 0.52882 0.0
O66 O 0.08454 0.68913 0.55269 0.0
C67 C 0.05475 0.73277 0.58527 0.0
C68 C 0.09271 0.68686 0.53743 0.0
O69 O 0.12227 0.80526 0.54181 0.0
Mg70 Mg 0.34748 0.08886 0.88728 0.0
O71 O 0.31159 0.03081 0.87519 0.0
O72 O 0.33453 0.99381 0.88281 0.0
Mg73 Mg 0.38273 0.02696 0.90088 0.0
C74 C 0.31096 -0.00061 0.87475 0.0
C75 C 0.32156 0.14041 0.87354 0.0
O76 O 0.3584 0.16104 0.87431 0.0
O77 O 0.31638 0.06511 0.91199 0.0
O78 O 0.33897 0.02705 0.91847 0.0
O79 O 0.38782 0.10507 0.86593 0.0
O80 O 0.39235 0.07934 0.88937 0.0
C81 C 0.31763 0.04071 0.92145 0.0
C82 C 0.40426 0.09072 0.87451 0.0
O83 O 0.30594 0.10664 0.87866 0.0
Mg84 Mg 0.64123 0.72975 0.45014 0.0
O85 O 0.68669 0.71657 0.45869 0.0
O86 O 0.66675 0.65597 0.45357 0.0
Mg87 Mg 0.61116 0.63209 0.43965 0.0
C88 C 0.69121 0.688 0.45931 0.0
C89 C 0.665 0.81125 0.45683 0.0
O90 O 0.62842 0.79498 0.45474 0.0
O91 O 0.66137 0.73376 0.42329 0.0
O92 O 0.64384 0.6734 0.41852 0.0
O93 O 0.61292 0.70882 0.47466 0.0
O94 O 0.60057 0.67343 0.4521 0.0
C95 C 0.6598 0.7078 0.41399 0.0
C96 C 0.5957 0.67592 0.46779 0.0
O97 O 0.68088 0.79173 0.45495 0.0
Mg98 Mg 0.90811 0.65982 0.78128 0.0
O99 O 0.96891 0.69701 0.79008 0.0
O100 O 0.00473 0.67618 0.77858 0.0
Mg101 Mg 0.96697 0.62669 0.76181 0.0
C102 C 0.00071 0.699 0.78798 0.0
C103 C 0.89707 0.71016 0.80699 0.0
O104 O 0.91191 0.69527 0.81671 0.0
O105 O 0.92428 0.69029 0.75627 0.0
O106 O 0.95913 0.66771 0.74521 0.0
O107 O 0.89873 0.62093 0.80245 0.0
O108 O 0.91873 0.61597 0.77751 0.0
C109 C 0.94416 0.68844 0.7445 0.0
C110 C 0.91228 0.60527 0.79284 0.0
O111 O 0.89254 0.70167 0.79162 0.0
Mg112 Mg 0.26037 0.88965 0.12209 0.0
O113 O 0.28172 0.94884 0.13249 0.0
O114 O 0.34312 0.98446 0.12705 0.0
Mg115 Mg 0.35989 0.94867 0.11149 0.0
C116 C 0.3127 0.97996 0.13349 0.0
C117 C 0.17853 0.8409 0.13186 0.0
O118 O 0.19153 0.81745 0.13149 0.0
O119 O 0.25856 0.91146 0.09611 0.0
O120 O 0.32009 0.94706 0.091 0.0
O121 O 0.27894 0.87531 0.14568 0.0
O122 O 0.31457 0.8979 0.12321 0.0
C123 C 0.28576 0.93382 0.08672 0.0
C124 C 0.31163 0.8889 0.13873 0.0
O125 O 0.20037 0.87495 0.12778 0.0
Mg126 Mg 0.36366 0.26053 0.447 0.0
O127 O 0.31602 0.27124 0.45471 0.0
O128 O 0.33308 0.33038 0.44766 0.0
Mg129 Mg 0.39163 0.35755 0.43584 0.0
C130 C 0.3095 0.29855 0.45393 0.0
C131 C 0.34173 0.17951 0.45509 0.0
O132 O 0.37866 0.19682 0.4552 0.0
O133 O 0.34411 0.25589 0.41987 0.0
O134 O 0.36519 0.31648 0.41428 0.0
O135 O 0.39131 0.28144 0.47188 0.0
O136 O 0.40144 0.31758 0.44986 0.0
C137 C 0.34898 0.28207 0.40982 0.0
C138 C 0.40604 0.3148 0.46556 0.0
O139 O 0.32566 0.19808 0.45131 0.0
Mg140 Mg 0.08438 0.33853 0.77759 0.0
O141 O 0.02406 0.29503 0.78491 0.0
O142 O 0.98522 0.31173 0.77306 0.0
Mg143 Mg 0.0208 0.36619 0.75846 0.0
C144 C 0.99102 0.28952 0.78211 0.0
C145 C 0.14062 0.31585 0.78998 0.0
O146 O 0.16204 0.35195 0.78692 0.0
O147 O 0.07347 0.31241 0.75157 0.0
O148 O 0.03788 0.33407 0.74049 0.0
O149 O 0.08885 0.37296 0.79996 0.0
O150 O 0.06734 0.3783 0.77548 0.0
C151 C 0.05548 0.31588 0.73939 0.0
C152 C 0.07265 0.38703 0.79105 0.0
O153 O 0.10565 0.30031 0.78692 0.0
Mg154 Mg 0.72531 0.11121 0.12632 0.0
O155 O 0.7064 0.05139 0.13523 0.0
O156 O 0.64524 0.01449 0.12966 0.0
Mg157 Mg 0.62636 0.05016 0.11526 0.0
C158 C 0.67615 0.01953 0.13576 0.0
C159 C 0.80463 0.1587 0.13953 0.0
O160 O 0.78811 0.17819 0.14313 0.0
O161 O 0.7284 0.09286 0.09972 0.0
O162 O 0.66715 0.0559 0.09439 0.0
O163 O 0.70488 0.1215 0.15048 0.0
O164 O 0.67025 0.1006 0.12768 0.0
C165 C 0.70164 0.07085 0.09005 0.0
C166 C 0.67241 0.10799 0.14334 0.0
O167 O 0.78604 0.12788 0.1317 0.0
H168 H 0.84701 0.12463 0.13511 0.0
H169 H 0.91062 0.14599 0.1456 0.0
H170 H 0.91304 0.24298 0.16766 0.0
H171 H 0.85009 0.22231 0.15704 0.0
H172 H 0.97747 0.26239 0.15212 0.0
H173 H 0.89583 0.16555 0.19092 0.0
H174 H 0.84676 0.10153 0.19889 0.0
H175 H 0.9135 0.05672 0.17916 0.0
H176 H 0.96278 0.12047 0.17088 0.0
H177 H 0.11954 0.32806 0.21179 0.0
H178 H 0.05716 0.29739 0.19919 0.0
H179 H 0.07773 0.21313 0.17766 0.0
H180 H 0.14048 0.24365 0.19033 0.0
H181 H 0.00435 0.18362 0.19027 0.0
H182 H 0.08827 0.28152 0.15358 0.0
H183 H 0.13739 0.34576 0.14597 0.0
H184 H 0.06609 0.38865 0.16181 0.0
H185 H 0.01674 0.3247 0.16975 0.0
C186 C 0.86119 0.15059 0.14214 0.0
C187 C 0.84347 0.17174 0.14527 0.0
C188 C 0.89744 0.16265 0.14819 0.0
C189 C 0.9164 0.19588 0.15755 0.0
C190 C 0.89894 0.21726 0.16045 0.0
C191 C 0.86287 0.20533 0.1544 0.0
C192 C 0.95444 0.20877 0.16444 0.0
C193 C 0.98323 0.24524 0.16056 0.0
C194 C 0.96228 0.18597 0.17505 0.0
C195 C 0.93277 0.1477 0.18011 0.0
C196 C 0.8999 0.142 0.18816 0.0
C197 C 0.87208 0.10578 0.19276 0.0
C198 C 0.87695 0.07506 0.18948 0.0
C199 C 0.90972 0.08053 0.18166 0.0
C200 C 0.93762 0.1167 0.17702 0.0
C201 C 0.11076 0.30278 0.20454 0.0
C202 C 0.13514 0.28852 0.20192 0.0
C203 C 0.07511 0.28535 0.1973 0.0
C204 C 0.06315 0.2534 0.18727 0.0
C205 C 0.08658 0.2379 0.1853 0.0
C206 C 0.1224 0.25541 0.19252 0.0
C207 C 0.02689 0.23753 0.17828 0.0
C208 C 0.99858 0.20055 0.18171 0.0
C209 C 0.01939 0.25984 0.16725 0.0
C210 C 0.04892 0.29834 0.16238 0.0
C211 C 0.08317 0.30468 0.15556 0.0
C212 C 0.11104 0.34104 0.15117 0.0
C213 C 0.10489 0.37128 0.15344 0.0
C214 C 0.07082 0.3652 0.16007 0.0
C215 C 0.04287 0.3289 0.1645 0.0
H216 H 0.12651 0.3994 0.15003 0.0
H217 H 0.85537 0.04704 0.19305 0.0
H218 H 0.7728 0.13198 0.52195 0.0
H219 H 0.74481 0.06932 0.50974 0.0
H220 H 0.84897 0.06927 0.51677 0.0
H221 H 0.87747 0.13236 0.52887 0.0
H222 H 0.82097 0.04659 0.48566 0.0
H223 H 0.77453 0.01574 0.54138 0.0
H224 H 0.74382 0.01964 0.56708 0.0
H225 H 0.64116 0.98465 0.54019 0.0
H226 H 0.67142 0.98104 0.51426 0.0
H227 H 0.73915 0.85076 0.46607 0.0
H228 H 0.77217 0.91291 0.47907 0.0
H229 H 0.67223 0.92197 0.47485 0.0
H230 H 0.6389 0.85978 0.46207 0.0
H231 H 0.70092 0.93902 0.50567 0.0
H232 H 0.74825 0.97278 0.44975 0.0
H233 H 0.779 0.96919 0.42398 0.0
H234 H 0.87995 0.99867 0.4513 0.0
H235 H 0.84961 0.00195 0.47728 0.0
C236 C 0.78972 0.11858 0.52104 0.0
C237 C 0.82736 0.13715 0.52639 0.0
C238 C 0.77362 0.08269 0.5141 0.0
C239 C 0.79474 0.06455 0.51247 0.0
C240 C 0.83221 0.08281 0.51794 0.0
C241 C 0.84837 0.11876 0.52491 0.0
C242 C 0.7779 0.02704 0.50452 0.0
C243 C 0.79506 0.02284 0.49019 0.0
C244 C 0.7437 0.99637 0.51025 0.0
C245 C 0.72536 0.99842 0.52584 0.0
C246 C 0.7455 0.00916 0.54091 0.0
C247 C 0.72815 0.01127 0.55553 0.0
C248 C 0.69058 0.00248 0.55527 0.0
C249 C 0.67026 0.99148 0.54038 0.0
C250 C 0.68749 0.98936 0.52572 0.0
C251 C 0.72434 0.86617 0.46773 0.0
C252 C 0.68635 0.85029 0.46309 0.0
C253 C 0.74328 0.90172 0.47513 0.0
C254 C 0.72465 0.92207 0.47789 0.0
C255 C 0.68706 0.90665 0.47289 0.0
C256 C 0.6681 0.87115 0.46553 0.0
C257 C 0.74367 0.95871 0.48666 0.0
C258 C 0.72694 0.9627 0.50118 0.0
C259 C 0.77823 0.98915 0.4811 0.0
C260 C 0.79652 0.9872 0.46549 0.0
C261 C 0.77689 0.97818 0.45029 0.0
C262 C 0.79427 0.97627 0.43564 0.0
C263 C 0.83137 0.98359 0.43601 0.0
C264 C 0.8512 0.99294 0.45103 0.0
C265 C 0.83394 0.99486 0.46572 0.0
H266 H 0.84478 0.9821 0.42466 0.0
H267 H 0.6772 0.00413 0.5666 0.0
H268 H 0.72424 0.8886 0.83907 0.0
H269 H 0.7617 0.8613 0.82946 0.0
H270 H 0.77482 0.83483 0.88011 0.0
H271 H 0.73728 0.86236 0.88994 0.0
H272 H 0.84127 0.86334 0.86117 0.0
H273 H 0.71154 0.76724 0.85711 0.0
H274 H 0.64512 0.74031 0.84888 0.0
H275 H 0.67735 0.7587 0.79735 0.0
H276 H 0.74406 0.78625 0.80529 0.0
H277 H 0.89455 0.72702 0.83977 0.0
H278 H 0.86619 0.76202 0.85146 0.0
H279 H 0.83983 0.78264 0.80194 0.0
H280 H 0.86746 0.74715 0.79017 0.0
H281 H 0.78015 0.75658 0.82158 0.0
H282 H 0.90989 0.85285 0.8254 0.0
H283 H 0.97644 0.88006 0.83347 0.0
H284 H 0.94485 0.86171 0.88507 0.0
H285 H 0.87802 0.83389 0.87729 0.0
C286 C 0.73525 0.87723 0.84822 0.0
C287 C 0.72747 0.87732 0.86527 0.0
C288 C 0.75663 0.8616 0.84268 0.0
C289 C 0.77057 0.84565 0.85406 0.0
C290 C 0.76417 0.84695 0.87115 0.0
C291 C 0.74264 0.86255 0.87672 0.0
C292 C 0.79039 0.82623 0.84792 0.0
C293 C 0.82784 0.83966 0.85269 0.0
C294 C 0.77295 0.79582 0.83663 0.0
C295 C 0.73283 0.77914 0.83181 0.0
C296 C 0.7045 0.76583 0.84403 0.0
C297 C 0.66679 0.7504 0.83941 0.0
C298 C 0.65703 0.74788 0.8226 0.0
C299 C 0.68496 0.76071 0.81037 0.0
C300 C 0.72271 0.7762 0.81492 0.0
C301 C 0.88307 0.73934 0.83135 0.0
C302 C 0.88306 0.73412 0.81404 0.0
C303 C 0.86702 0.75948 0.83806 0.0
C304 C 0.85105 0.77509 0.82757 0.0
C305 C 0.85191 0.77075 0.81027 0.0
C306 C 0.86778 0.7505 0.80356 0.0
C307 C 0.83138 0.79398 0.83459 0.0
C308 C 0.79374 0.78028 0.83004 0.0
C309 C 0.84874 0.82413 0.84604 0.0
C310 C 0.88891 0.84093 0.85075 0.0
C311 C 0.9171 0.85433 0.83846 0.0
C312 C 0.95488 0.86992 0.84298 0.0
C313 C 0.96486 0.87251 0.85977 0.0
C314 C 0.93708 0.85963 0.87207 0.0
C315 C 0.89925 0.84398 0.86761 0.0
H316 H 0.99412 0.88459 0.86324 0.0
H317 H 0.62782 0.73592 0.81906 0.0
H318 H 0.85058 0.75397 0.19469 0.0
H319 H 0.91532 0.78929 0.18427 0.0
H320 H 0.92331 0.68852 0.18619 0.0
H321 H 0.85932 0.65339 0.19684 0.0
H322 H 0.9862 0.74717 0.19746 0.0
H323 H 0.90424 0.72012 0.14963 0.0
H324 H 0.85423 0.72226 0.1335 0.0
H325 H 0.91716 0.84296 0.134 0.0
H326 H 0.96737 0.8415 0.15033 0.0
H327 H 0.12605 0.77028 0.1416 0.0
H328 H 0.0652 0.75035 0.15452 0.0
H329 H 0.08363 0.86301 0.15016 0.0
H330 H 0.14477 0.8833 0.13701 0.0
H331 H 0.01081 0.80873 0.14208 0.0
H332 H 0.09668 0.83488 0.18696 0.0
H333 H 0.14678 0.83173 0.20253 0.0
H334 H 0.07649 0.71211 0.20742 0.0
H335 H 0.02614 0.71446 0.19166 0.0
C336 C 0.8663 0.73947 0.19304 0.0
C337 C 0.84975 0.70083 0.19651 0.0
C338 C 0.9032 0.75964 0.18701 0.0
C339 C 0.92397 0.74141 0.18426 0.0
C340 C 0.90783 0.70316 0.18821 0.0
C341 C 0.87114 0.68307 0.19426 0.0
C342 C 0.96215 0.76146 0.17685 0.0
C343 C 0.99153 0.7605 0.18532 0.0
C344 C 0.96938 0.77983 0.16123 0.0
C345 C 0.93931 0.7807 0.15136 0.0
C346 C 0.90727 0.74711 0.14641 0.0
C347 C 0.87892 0.7482 0.13721 0.0
C348 C 0.88246 0.78273 0.13277 0.0
C349 C 0.91442 0.81624 0.13748 0.0
C350 C 0.94284 0.8153 0.14669 0.0
C351 C 0.11716 0.79085 0.14327 0.0
C352 C 0.1404 0.82846 0.1384 0.0
C353 C 0.08241 0.77942 0.15072 0.0
C354 C 0.07027 0.80537 0.15357 0.0
C355 C 0.09266 0.84263 0.14816 0.0
C356 C 0.12755 0.85415 0.14067 0.0
C357 C 0.03443 0.79334 0.16248 0.0
C358 C 0.0056 0.79593 0.15433 0.0
C359 C 0.02762 0.77635 0.17839 0.0
C360 C 0.05771 0.77484 0.18803 0.0
C361 C 0.09198 0.80787 0.19126 0.0
C362 C 0.12042 0.80623 0.20013 0.0
C363 C 0.11484 0.77173 0.20594 0.0
C364 C 0.08077 0.73881 0.20291 0.0
C365 C 0.05225 0.74029 0.19403 0.0
H366 H 0.1369 0.77052 0.21281 0.0
H367 H 0.86048 0.78351 0.12565 0.0
H368 H 0.26552 0.13798 0.45976 0.0
H369 H 0.22999 0.07547 0.47229 0.0
H370 H 0.33203 0.07031 0.47677 0.0
H371 H 0.3677 0.13252 0.46412 0.0
H372 H 0.27308 0.00362 0.46646 0.0
H373 H 0.29831 0.09522 0.50969 0.0
H374 H 0.2969 0.14919 0.52238 0.0
H375 H 0.1762 0.08889 0.52041 0.0
H376 H 0.17693 0.03472 0.50749 0.0
H377 H 0.22983 0.86731 0.52827 0.0
H378 H 0.25702 0.92651 0.51299 0.0
H379 H 0.14931 0.92106 0.51283 0.0
H380 H 0.12188 0.8619 0.52839 0.0
H381 H 0.20565 0.99127 0.51949 0.0
H382 H 0.17994 0.89772 0.47821 0.0
H383 H 0.18114 0.84365 0.46554 0.0
H384 H 0.30179 0.90706 0.46355 0.0
H385 H 0.30134 0.96137 0.47644 0.0
C386 C 0.28034 0.12336 0.46323 0.0
C387 C 0.31949 0.14032 0.46107 0.0
C388 C 0.26001 0.08773 0.47045 0.0
C389 C 0.2785 0.06855 0.47566 0.0
C390 C 0.31727 0.08472 0.47287 0.0
C391 C 0.33761 0.12032 0.46568 0.0
C392 C 0.25791 0.03229 0.48463 0.0
C393 C 0.25857 0.00094 0.47812 0.0
C394 C 0.23816 0.02866 0.49961 0.0
C395 C 0.23769 0.06111 0.50746 0.0
C396 C 0.27148 0.09359 0.51185 0.0
C397 C 0.27081 0.12419 0.5191 0.0
C398 C 0.23649 0.12252 0.52215 0.0
C399 C 0.20277 0.09018 0.51801 0.0
C400 C 0.20329 0.05951 0.51073 0.0
C401 C 0.21191 0.87875 0.52508 0.0
C402 C 0.17363 0.85979 0.52946 0.0
C403 C 0.22747 0.9125 0.51626 0.0
C404 C 0.20501 0.92778 0.5115 0.0
C405 C 0.16706 0.90959 0.5163 0.0
C406 C 0.15145 0.87581 0.52519 0.0
C407 C 0.2213 0.96269 0.50145 0.0
C408 C 0.21982 0.99378 0.50775 0.0
C409 C 0.24022 0.96607 0.48625 0.0
C410 C 0.24061 0.93352 0.47842 0.0
C411 C 0.20675 0.90005 0.47519 0.0
C412 C 0.20729 0.86937 0.46795 0.0
C413 C 0.24152 0.87189 0.46378 0.0
C414 C 0.27529 0.90514 0.4668 0.0
C415 C 0.27491 0.9359 0.47406 0.0
H416 H 0.24188 0.8481 0.45817 0.0
H417 H 0.23602 0.14624 0.52777 0.0
H418 H 0.34772 0.21123 0.86159 0.0
H419 H 0.312 0.23689 0.8484 0.0
H420 H 0.2094 0.13123 0.85542 0.0
H421 H 0.24522 0.10495 0.8685 0.0
H422 H 0.21404 0.15879 0.82422 0.0
H423 H 0.22744 0.20566 0.87965 0.0
H424 H 0.26099 0.23673 0.9055 0.0
H425 H 0.3287 0.33943 0.87866 0.0
H426 H 0.29592 0.30883 0.85258 0.0
H427 H 0.10344 0.24244 0.80041 0.0
H428 H 0.12994 0.2089 0.81521 0.0
H429 H 0.24033 0.30733 0.81233 0.0
H430 H 0.2141 0.34115 0.79776 0.0
H431 H 0.22533 0.27896 0.84323 0.0
H432 H 0.21519 0.23051 0.78754 0.0
H433 H 0.18203 0.19938 0.76162 0.0
H434 H 0.10796 0.0996 0.78909 0.0
H435 H 0.1404 0.13034 0.81522 0.0
C436 C 0.31753 0.19341 0.86043 0.0
C437 C 0.29929 0.15606 0.86615 0.0
C438 C 0.29712 0.20821 0.85293 0.0
C439 C 0.25798 0.18613 0.85112 0.0
C440 C 0.23959 0.14877 0.85676 0.0
C441 C 0.26006 0.13386 0.86428 0.0
C442 C 0.23673 0.20214 0.84295 0.0
C443 C 0.21589 0.18469 0.82855 0.0
C444 C 0.23969 0.23626 0.84845 0.0
C445 C 0.25938 0.25484 0.86413 0.0
C446 C 0.24967 0.23479 0.87923 0.0
C447 C 0.26852 0.25234 0.89393 0.0
C448 C 0.297 0.29001 0.89372 0.0
C449 C 0.30664 0.31024 0.8788 0.0
C450 C 0.2879 0.29283 0.86406 0.0
C451 C 0.13341 0.25684 0.80281 0.0
C452 C 0.15667 0.2945 0.79793 0.0
C453 C 0.14851 0.2376 0.81124 0.0
C454 C 0.18713 0.25559 0.81482 0.0
C455 C 0.21043 0.29297 0.80974 0.0
C456 C 0.19538 0.31221 0.80136 0.0
C457 C 0.20337 0.23609 0.82429 0.0
C458 C 0.22317 0.25287 0.83899 0.0
C459 C 0.19941 0.20138 0.81906 0.0
C460 C 0.17994 0.18287 0.80336 0.0
C461 C 0.19163 0.20204 0.78807 0.0
C462 C 0.17301 0.18445 0.77334 0.0
C463 C 0.14283 0.14758 0.77371 0.0
C464 C 0.13129 0.12819 0.78882 0.0
C465 C 0.1498 0.14567 0.8036 0.0
H466 H 0.12845 0.134 0.76229 0.0
H467 H 0.31156 0.30354 0.90511 0.0
H468 H 0.61936 0.5341 0.1983 0.0
H469 H 0.55893 0.49769 0.18428 0.0
H470 H 0.59613 0.58021 0.14495 0.0
H471 H 0.65775 0.61638 0.15881 0.0
H472 H 0.52693 0.56389 0.16312 0.0
H473 H 0.57405 0.50087 0.1311 0.0
H474 H 0.61085 0.46985 0.12493 0.0
H475 H 0.54443 0.38221 0.15984 0.0
H476 H 0.5076 0.41294 0.16644 0.0
H477 H 0.32723 0.43138 0.1653 0.0
H478 H 0.38773 0.46793 0.15058 0.0
H479 H 0.43812 0.42305 0.18385 0.0
H480 H 0.37863 0.38674 0.19809 0.0
H481 H 0.46259 0.42681 0.15206 0.0
H482 H 0.44208 0.50776 0.1919 0.0
H483 H 0.40785 0.53973 0.20115 0.0
H484 H 0.42601 0.59326 0.15341 0.0
H485 H 0.46007 0.56127 0.14386 0.0
C486 C 0.615 0.54393 0.18644 0.0
C487 C 0.64299 0.57779 0.17956 0.0
C488 C 0.58061 0.52309 0.17841 0.0
C489 C 0.57327 0.53614 0.16352 0.0
C490 C 0.60155 0.56954 0.15632 0.0
C491 C 0.63658 0.59002 0.1642 0.0
C492 C 0.53427 0.51681 0.15719 0.0
C493 C 0.51282 0.53423 0.15997 0.0
C494 C 0.51605 0.47819 0.15315 0.0
C495 C 0.53793 0.45924 0.14922 0.0
C496 C 0.56737 0.47507 0.13752 0.0
C497 C 0.58825 0.45751 0.13394 0.0
C498 C 0.57995 0.42405 0.14197 0.0
C499 C 0.55075 0.40807 0.15359 0.0
C500 C 0.52979 0.42551 0.15723 0.0
C501 C 0.3513 0.42922 0.16928 0.0
C502 C 0.34865 0.40719 0.18317 0.0
C503 C 0.38567 0.44996 0.16087 0.0
C504 C 0.41745 0.44831 0.16618 0.0
C505 C 0.41402 0.42476 0.17951 0.0
C506 C 0.38008 0.40452 0.1879 0.0
C507 C 0.45554 0.47333 0.15937 0.0
C508 C 0.4767 0.45693 0.15412 0.0
C509 C 0.47358 0.51279 0.16139 0.0
C510 C 0.45308 0.53181 0.16711 0.0
C511 C 0.43852 0.52617 0.18336 0.0
C512 C 0.4192 0.5443 0.18866 0.0
C513 C 0.41463 0.5684 0.17785 0.0
C514 C 0.42946 0.57449 0.16174 0.0
C515 C 0.44875 0.55637 0.15638 0.0
H516 H 0.3997 0.58244 0.18198 0.0
H517 H 0.59616 0.41052 0.13919 0.0
H518 H 0.06747 0.66777 0.50537 0.0
H519 H 0.02753 0.60363 0.49462 0.0
H520 H 0.04003 0.55846 0.54115 0.0
H521 H 0.07879 0.62196 0.552 0.0
H522 H 0.03427 0.54041 0.49019 0.0
H523 H 0.96103 0.49048 0.55406 0.0
H524 H 0.94372 0.51586 0.57816 0.0
H525 H 0.9384 0.59746 0.54671 0.0
H526 H 0.95588 0.57276 0.52232 0.0
H527 H 0.97935 0.36159 0.51806 0.0
H528 H 0.00145 0.42563 0.50881 0.0
H529 H 0.88675 0.4025 0.50627 0.0
H530 H 0.8646 0.33777 0.51579 0.0
H531 H 0.92691 0.45805 0.52686 0.0
H532 H 0.94286 0.43445 0.47125 0.0
H533 H 0.96005 0.40797 0.44754 0.0
H534 H 0.07628 0.47079 0.46181 0.0
H535 H 0.05981 0.49724 0.48576 0.0
C536 C 0.06231 0.64406 0.51311 0.0
C537 C 0.07591 0.64962 0.52953 0.0
C538 C 0.03936 0.60754 0.50701 0.0
C539 C 0.03001 0.57642 0.51728 0.0
C540 C 0.04606 0.58214 0.53319 0.0
C541 C 0.06844 0.61838 0.53933 0.0
C542 C 0.0024 0.53775 0.51194 0.0
C543 C 0.01047 0.52235 0.49803 0.0
C544 C 0.97054 0.51465 0.52186 0.0
C545 C 0.95975 0.52971 0.53636 0.0
C546 C 0.956 0.51374 0.55224 0.0
C547 C 0.94636 0.52814 0.56596 0.0
C548 C 0.94015 0.55838 0.56394 0.0
C549 C 0.94355 0.57427 0.54821 0.0
C550 C 0.95341 0.56014 0.53444 0.0
C551 C 0.95885 0.36986 0.51509 0.0
C552 C 0.92046 0.34519 0.51779 0.0
C553 C 0.97142 0.40637 0.50956 0.0
C554 C 0.94576 0.41891 0.50674 0.0
C555 C 0.907 0.3933 0.50826 0.0
C556 C 0.89438 0.35647 0.51368 0.0
C557 C 0.96024 0.45993 0.50576 0.0
C558 C 0.94978 0.47606 0.51857 0.0
C559 C 0.98972 0.48351 0.4948 0.0
C560 C 2e-05 0.46787 0.48034 0.0
C561 C 0.97207 0.44249 0.4694 0.0
C562 C 0.9817 0.42749 0.4559 0.0
C563 C 0.01923 0.4377 0.45317 0.0
C564 C 0.04722 0.46297 0.46392 0.0
C565 C 0.03776 0.47806 0.47745 0.0
H566 H 0.02662 0.42604 0.44271 0.0
H567 H 0.93263 0.56947 0.57457 0.0
H568 H 0.41204 0.07722 0.84166 0.0
H569 H 0.45153 0.05261 0.83071 0.0
H570 H 0.49744 0.06025 0.87984 0.0
H571 H 0.45832 0.0844 0.89071 0.0
H572 H 0.55091 0.07912 0.85574 0.0
H573 H 0.42143 0.9787 0.86833 0.0
H574 H 0.3529 0.94721 0.86414 0.0
H575 H 0.36754 0.93642 0.81187 0.0
H576 H 0.43641 0.96798 0.81581 0.0
H577 H 0.53048 0.90041 0.88468 0.0
H578 H 0.50213 0.93547 0.8731 0.0
H579 H 0.59027 0.98472 0.83624 0.0
H580 H 0.6182 0.94854 0.84763 0.0
H581 H 0.47581 0.94332 0.84214 0.0
H582 H 0.61561 0.08044 0.83712 0.0
H583 H 0.67989 0.11435 0.84878 0.0
H584 H 0.64002 0.05114 0.89414 0.0
H585 H 0.5757 0.01665 0.88267 0.0
C586 C 0.43135 0.07452 0.84996 0.0
C587 C 0.43205 0.08239 0.86704 0.0
C588 C 0.45376 0.06042 0.84372 0.0
C589 C 0.47732 0.05454 0.85448 0.0
C590 C 0.47969 0.06481 0.87128 0.0
C591 C 0.45713 0.07837 0.87752 0.0
C592 C 0.49615 0.03349 0.84923 0.0
C593 C 0.53485 0.04973 0.85214 0.0
C594 C 0.47507 0.99511 0.84475 0.0
C595 C 0.43389 0.97598 0.84232 0.0
C596 C 0.40998 0.96975 0.85594 0.0
C597 C 0.3711 0.95192 0.85361 0.0
C598 C 0.35579 0.94006 0.83773 0.0
C599 C 0.37941 0.94579 0.82415 0.0
C600 C 0.41838 0.96359 0.82643 0.0
C601 C 0.54285 0.91751 0.87368 0.0
C602 C 0.57595 0.92135 0.86682 0.0
C603 C 0.52678 0.93762 0.8671 0.0
C604 C 0.54413 0.9627 0.85382 0.0
C605 C 0.57637 0.96533 0.84642 0.0
C606 C 0.59204 0.94445 0.85281 0.0
C607 C 0.53036 0.98866 0.84933 0.0
C608 C 0.49258 0.97327 0.84456 0.0
C609 C 0.55208 0.02768 0.8526 0.0
C610 C 0.59112 0.04555 0.85892 0.0
C611 C 0.62074 0.07349 0.84949 0.0
C612 C 0.6571 0.09295 0.8561 0.0
C613 C 0.66402 0.08488 0.87219 0.0
C614 C 0.63465 0.05721 0.88165 0.0
C615 C 0.59831 0.0375 0.87506 0.0
H616 H 0.69213 0.09992 0.87731 0.0
H617 H 0.32566 0.9263 0.83597 0.0
H618 H 0.61378 0.66038 0.49844 0.0
H619 H 0.58302 0.59882 0.51261 0.0
H620 H 0.50008 0.55336 0.47345 0.0
H621 H 0.53129 0.61385 0.45909 0.0
H622 H 0.47209 0.53097 0.50851 0.0
H623 H 0.57516 0.54957 0.46926 0.0
H624 H 0.64219 0.57854 0.46176 0.0
H625 H 0.66495 0.54223 0.50826 0.0
H626 H 0.59826 0.51411 0.51625 0.0
H627 H 0.39467 0.37409 0.46381 0.0
H628 H 0.42697 0.43277 0.47874 0.0
H629 H 0.48679 0.39053 0.50754 0.0
H630 H 0.45461 0.331 0.49181 0.0
H631 H 0.53424 0.45707 0.49522 0.0
H632 H 0.42806 0.41616 0.52812 0.0
H633 H 0.36104 0.38377 0.53592 0.0
H634 H 0.3436 0.45848 0.50464 0.0
H635 H 0.41031 0.49097 0.49642 0.0
C636 C 0.58847 0.63733 0.49313 0.0
C637 C 0.5747 0.64154 0.47773 0.0
C638 C 0.57105 0.60236 0.5012 0.0
C639 C 0.53922 0.57178 0.49409 0.0
C640 C 0.5244 0.57678 0.4792 0.0
C641 C 0.54229 0.61119 0.47097 0.0
C642 C 0.52319 0.53319 0.50063 0.0
C643 C 0.48565 0.51463 0.50597 0.0
C644 C 0.54174 0.51239 0.49821 0.0
C645 C 0.58194 0.53049 0.49351 0.0
C646 C 0.59461 0.54846 0.47803 0.0
C647 C 0.63257 0.56473 0.47369 0.0
C648 C 0.65799 0.56272 0.48463 0.0
C649 C 0.64543 0.54433 0.49991 0.0
C650 C 0.60758 0.52829 0.50436 0.0
C651 C 0.41476 0.37713 0.47319 0.0
C652 C 0.423 0.34846 0.47625 0.0
C653 C 0.43263 0.41053 0.48211 0.0
C654 C 0.45896 0.41602 0.49452 0.0
C655 C 0.4663 0.38679 0.49813 0.0
C656 C 0.44804 0.35294 0.48915 0.0
C657 C 0.48188 0.45431 0.5016 0.0
C658 C 0.52084 0.47302 0.49884 0.0
C659 C 0.46474 0.47522 0.50672 0.0
C660 C 0.42444 0.4562 0.51172 0.0
C661 C 0.40996 0.42566 0.52286 0.0
C662 C 0.37197 0.40725 0.52735 0.0
C663 C 0.34809 0.4191 0.5208 0.0
C664 C 0.36217 0.44942 0.50976 0.0
C665 C 0.40013 0.46795 0.50522 0.0
H666 H 0.31868 0.40477 0.52428 0.0
H667 H 0.68732 0.57505 0.48123 0.0
H668 H 0.91885 0.59037 0.82566 0.0
H669 H 0.94819 0.55501 0.83643 0.0
H670 H 0.966 0.53046 0.78617 0.0
H671 H 0.93576 0.56412 0.77536 0.0
H672 H 0.92974 0.47294 0.82608 0.0
H673 H 0.06452 0.56688 0.7873 0.0
H674 H 0.10284 0.63352 0.77924 0.0
H675 H 0.06423 0.66635 0.8223 0.0
H676 H 0.0264 0.59999 0.83089 0.0
H677 H 0.0065 0.38383 0.78379 0.0
H678 H 0.98185 0.42176 0.79525 0.0
H679 H 0.07738 0.47636 0.8282 0.0
H680 H 0.10276 0.43822 0.81636 0.0
H681 H 0.06438 0.52658 0.81122 0.0
H682 H 0.99332 0.42225 0.84561 0.0
H683 H 0.95501 0.35533 0.85319 0.0
H684 H 0.86704 0.34367 0.82051 0.0
H685 H 0.905 0.41035 0.81252 0.0
C686 C 0.9285 0.5769 0.81693 0.0
C687 C 0.92564 0.5806 0.79964 0.0
C688 C 0.9453 0.55689 0.82311 0.0
C689 C 0.95975 0.54088 0.81204 0.0
C690 C 0.95548 0.54323 0.79486 0.0
C691 C 0.93835 0.56264 0.78871 0.0
C692 C 0.98024 0.52211 0.81791 0.0
C693 C 0.95936 0.48472 0.82324 0.0
C694 C 0.01912 0.53819 0.81464 0.0
C695 C 0.04247 0.57832 0.80971 0.0
C696 C 0.06443 0.58829 0.79515 0.0
C697 C 0.08606 0.62604 0.79048 0.0
C698 C 0.086 0.65413 0.80027 0.0
C699 C 0.06426 0.64454 0.81475 0.0
C700 C 0.0427 0.60685 0.81951 0.0
C701 C 0.02257 0.40408 0.79331 0.0
C702 C 0.05705 0.40879 0.79884 0.0
C703 C 0.00802 0.42527 0.80014 0.0
C704 C 0.02754 0.45159 0.81273 0.0
C705 C 0.06175 0.45597 0.81858 0.0
C706 C 0.07619 0.4343 0.81181 0.0
C707 C 0.01327 0.47652 0.81831 0.0
C708 C 0.03525 0.51508 0.81492 0.0
C709 C 0.97551 0.46158 0.82356 0.0
C710 C 0.95209 0.42146 0.82848 0.0
C711 C 0.96586 0.40541 0.83998 0.0
C712 C 0.9442 0.36749 0.84436 0.0
C713 C 0.90861 0.34527 0.83734 0.0
C714 C 0.89458 0.36095 0.82597 0.0
C715 C 0.91614 0.39886 0.82154 0.0
H716 H 0.8919 0.3159 0.84073 0.0
H717 H 0.10289 0.68332 0.79666 0.0
H718 H 0.37808 0.89753 0.12816 0.0
H719 H 0.43838 0.93068 0.14247 0.0
H720 H 0.38368 0.94339 0.18586 0.0
H721 H 0.32281 0.90973 0.17151 0.0
H722 H 0.43882 0.00996 0.17444 0.0
H723 H 0.43096 0.89668 0.19042 0.0
H724 H 0.41762 0.83129 0.18813 0.0
H725 H 0.50238 0.86424 0.15035 0.0
H726 H 0.51581 0.92968 0.15216 0.0
H727 H 0.65829 0.07982 0.17502 0.0
H728 H 0.59609 0.04367 0.18811 0.0
H729 H 0.54609 0.0684 0.14627 0.0
H730 H 0.60767 0.10375 0.13314 0.0
H731 H 0.54234 0.98083 0.1729 0.0
H732 H 0.46676 0.06702 0.15746 0.0
H733 H 0.47972 0.13214 0.16017 0.0
H734 H 0.56146 0.15339 0.19821 0.0
H735 H 0.54851 0.08814 0.19601 0.0
C736 C 0.37873 0.90635 0.14093 0.0
C737 C 0.34591 0.90123 0.14872 0.0
C738 C 0.41317 0.92509 0.14916 0.0
C739 C 0.4155 0.93929 0.16529 0.0
C740 C 0.38241 0.93235 0.17347 0.0
C741 C 0.34771 0.91305 0.16529 0.0
C742 C 0.45303 0.96631 0.17208 0.0
C743 C 0.46148 0.0036 0.17443 0.0
C744 C 0.48229 0.95764 0.17269 0.0
C745 C 0.47441 0.91823 0.17146 0.0
C746 C 0.44662 0.88998 0.18155 0.0
C747 C 0.43905 0.85288 0.18034 0.0
C748 C 0.45915 0.84362 0.16911 0.0
C749 C 0.48687 0.87146 0.15906 0.0
C750 C 0.49454 0.9086 0.16021 0.0
C751 C 0.63414 0.07858 0.16895 0.0
C752 C 0.63757 0.09434 0.15306 0.0
C753 C 0.59868 0.0579 0.17641 0.0
C754 C 0.56651 0.05356 0.16823 0.0
C755 C 0.57055 0.07187 0.15296 0.0
C756 C 0.60571 0.09187 0.1454 0.0
C757 C 0.52829 0.0248 0.17366 0.0
C758 C 0.51968 0.98714 0.17358 0.0
C759 C 0.4989 0.03315 0.17512 0.0
C760 C 0.50673 0.07254 0.17652 0.0
C761 C 0.48732 0.08542 0.1665 0.0
C762 C 0.49474 0.12244 0.16792 0.0
C763 C 0.52151 0.14693 0.17931 0.0
C764 C 0.54083 0.13442 0.18935 0.0
C765 C 0.5335 0.09742 0.188 0.0
H766 H 0.52719 0.17557 0.18039 0.0
H767 H 0.45325 0.81488 0.16819 0.0
H768 H 0.37253 0.05107 0.13795 0.0
H769 H 0.37241 0.10428 0.15148 0.0
H770 H 0.25417 0.03477 0.16231 0.0
H771 H 0.25378 0.98155 0.1486 0.0
H772 H 0.27063 0.10209 0.14904 0.0
H773 H 0.3217 0.0576 0.19202 0.0
H774 H 0.36714 0.04029 0.20294 0.0
H775 H 0.45752 0.15283 0.19456 0.0
H776 H 0.4128 0.17055 0.18316 0.0
H777 H 0.24788 0.22547 0.20203 0.0
H778 H 0.24968 0.1709 0.19103 0.0
H779 H 0.37047 0.2375 0.18646 0.0
H780 H 0.36895 0.29161 0.19818 0.0
H781 H 0.3537 0.17169 0.19655 0.0
H782 H 0.30906 0.21717 0.15242 0.0
H783 H 0.26838 0.2377 0.13893 0.0
H784 H 0.17201 0.12843 0.14686 0.0
H785 H 0.21207 0.10739 0.1606 0.0
C786 C 0.34649 0.047 0.14325 0.0
C787 C 0.31314 0.01199 0.14216 0.0
C788 C 0.34654 0.07744 0.15104 0.0
C789 C 0.31335 0.07334 0.15801 0.0
C790 C 0.28008 0.03848 0.157 0.0
C791 C 0.27997 0.00807 0.1492 0.0
C792 C 0.3129 0.10562 0.16599 0.0
C793 C 0.28838 0.117 0.15959 0.0
C794 C 0.33714 0.12585 0.17934 0.0
C795 C 0.36389 0.11531 0.18657 0.0
C796 C 0.3513 0.07858 0.19237 0.0
C797 C 0.37696 0.06868 0.19863 0.0
C798 C 0.41524 0.09538 0.19935 0.0
C799 C 0.42791 0.1321 0.19391 0.0
C800 C 0.40242 0.14209 0.18754 0.0
C801 C 0.27481 0.22839 0.19873 0.0
C802 C 0.30824 0.26283 0.20086 0.0
C803 C 0.27581 0.19725 0.19239 0.0
C804 C 0.31015 0.20026 0.18758 0.0
C805 C 0.34363 0.23445 0.19005 0.0
C806 C 0.34272 0.26539 0.19672 0.0
C807 C 0.31113 0.16806 0.17968 0.0
C808 C 0.33581 0.15674 0.18604 0.0
C809 C 0.28767 0.14834 0.16602 0.0
C810 C 0.26351 0.16082 0.15768 0.0
C811 C 0.27915 0.1976 0.15138 0.0
C812 C 0.25621 0.20931 0.14368 0.0
C813 C 0.21762 0.18441 0.14208 0.0
C814 C 0.2019 0.1477 0.14813 0.0
C815 C 0.22472 0.13585 0.15587 0.0
H816 H 0.1999 0.19354 0.13612 0.0
H817 H 0.43509 0.08766 0.20416 0.0
H818 H 0.99247 0.23001 0.52176 0.0
H819 H 0.04171 0.22363 0.50735 0.0
H820 H 0.10605 0.34387 0.50075 0.0
H821 H 0.05742 0.35059 0.51526 0.0
H822 H 0.10038 0.30038 0.47166 0.0
H823 H 0.12989 0.30882 0.5308 0.0
H824 H 0.11568 0.28822 0.56007 0.0
H825 H 0.09772 0.17928 0.54658 0.0
H826 H 0.11131 0.19908 0.51718 0.0
H827 H 0.28719 0.35094 0.456 0.0
H828 H 0.22829 0.34268 0.46702 0.0
H829 H 0.19082 0.2262 0.47761 0.0
H830 H 0.25019 0.23432 0.46683 0.0
H831 H 0.17657 0.25818 0.50324 0.0
H832 H 0.15057 0.248 0.44531 0.0
H833 H 0.1614 0.26442 0.41552 0.0
H834 H 0.16956 0.3709 0.4257 0.0
H835 H 0.15859 0.35501 0.45558 0.0
C836 C 0.01699 0.25503 0.51712 0.0
C837 C 0.02123 0.29082 0.51971 0.0
C838 C 0.04505 0.25133 0.50896 0.0
C839 C 0.07745 0.28331 0.5031 0.0
C840 C 0.08119 0.3189 0.50521 0.0
C841 C 0.05349 0.32267 0.51356 0.0
C842 C 0.10823 0.28016 0.4952 0.0
C843 C 0.11721 0.29135 0.47855 0.0
C844 C 0.12918 0.26709 0.50408 0.0
C845 C 0.12115 0.25528 0.52177 0.0
C846 C 0.12255 0.28036 0.53405 0.0
C847 C 0.11469 0.26886 0.55067 0.0
C848 C 0.10568 0.23243 0.55517 0.0
C849 C 0.10462 0.20747 0.54307 0.0
C850 C 0.11242 0.21882 0.52643 0.0
C851 C 0.26645 0.32347 0.4606 0.0
C852 C 0.27345 0.29327 0.46048 0.0
C853 C 0.23264 0.31875 0.46681 0.0
C854 C 0.2049 0.28367 0.47289 0.0
C855 C 0.21179 0.25347 0.4729 0.0
C856 C 0.24573 0.25818 0.46672 0.0
C857 C 0.16939 0.27924 0.47974 0.0
C858 C 0.15947 0.26666 0.49621 0.0
C859 C 0.14719 0.2905 0.47062 0.0
C860 C 0.15404 0.30042 0.45269 0.0
C861 C 0.15493 0.27503 0.44121 0.0
C862 C 0.16103 0.28421 0.4243 0.0
C863 C 0.1664 0.31878 0.41872 0.0
C864 C 0.16545 0.34415 0.43004 0.0
C865 C 0.15913 0.33501 0.44696 0.0
H866 H 0.17114 0.32584 0.40563 0.0
H867 H 0.09963 0.22357 0.56804 0.0
H868 H 0.99139 0.23525 0.8018 0.0
H869 H 0.93788 0.18282 0.81556 0.0
H870 H 0.86337 0.21702 0.79406 0.0
H871 H 0.91676 0.2699 0.78039 0.0
H872 H 0.84996 0.20226 0.82674 0.0
H873 H 0.86494 0.14053 0.77928 0.0
H874 H 0.8994 0.12256 0.75964 0.0
H875 H 0.92563 0.06933 0.79931 0.0
H876 H 0.89177 0.08747 0.81925 0.0
H877 H 0.68235 0.03949 0.85202 0.0
H878 H 0.73172 0.08771 0.83449 0.0
H879 H 0.81123 0.05777 0.85401 0.0
H880 H 0.7618 0.00961 0.87158 0.0
H881 H 0.82009 0.06982 0.8211 0.0
H882 H 0.80833 0.1347 0.8687 0.0
H883 H 0.77442 0.15314 0.88847 0.0
H884 H 0.74241 0.20062 0.84841 0.0
H885 H 0.77576 0.18203 0.82837 0.0
C886 C 0.96363 0.23159 0.7999 0.0
C887 C 0.95842 0.25683 0.78996 0.0
C888 C 0.93304 0.20146 0.80773 0.0
C889 C 0.89662 0.19583 0.80569 0.0
C890 C 0.89126 0.22086 0.79576 0.0
C891 C 0.92183 0.251 0.78792 0.0
C892 C 0.86433 0.16455 0.8144 0.0
C893 C 0.84302 0.17322 0.82529 0.0
C894 C 0.85586 0.1268 0.81277 0.0
C895 C 0.87608 0.11566 0.80079 0.0
C896 C 0.8783 0.12525 0.78385 0.0
C897 C 0.89769 0.11498 0.77265 0.0
C898 C 0.91477 0.09489 0.77823 0.0
C899 C 0.91242 0.08493 0.79501 0.0
C900 C 0.89309 0.09516 0.80626 0.0
C901 C 0.71053 0.04371 0.85271 0.0
C902 C 0.71868 0.02181 0.86348 0.0
C903 C 0.73859 0.07095 0.84262 0.0
C904 C 0.77534 0.07684 0.84321 0.0
C905 C 0.78311 0.05383 0.85344 0.0
C906 C 0.75495 0.02642 0.86348 0.0
C907 C 0.80591 0.10759 0.83349 0.0
C908 C 0.82691 0.09884 0.82244 0.0
C909 C 0.81414 0.14531 0.83497 0.0
C910 C 0.79426 0.15669 0.84702 0.0
C911 C 0.79386 0.14887 0.8641 0.0
C912 C 0.77482 0.15942 0.87535 0.0
C913 C 0.75627 0.17804 0.8697 0.0
C914 C 0.75682 0.18623 0.85278 0.0
C915 C 0.7758 0.17571 0.84146 0.0
H916 H 0.74145 0.18608 0.87842 0.0
H917 H 0.92977 0.08697 0.76954 0.0
H918 H 0.73808 0.016 0.14573 0.0
H919 H 0.73994 0.96168 0.15697 0.0
H920 H 0.61899 0.89555 0.15404 0.0
H921 H 0.61671 0.94972 0.14283 0.0
H922 H 0.64751 0.88586 0.18382 0.0
H923 H 0.67051 0.88553 0.12487 0.0
H924 H 0.70346 0.91331 0.09847 0.0
H925 H 0.807 0.93061 0.11961 0.0
H926 H 0.77475 0.90341 0.14623 0.0
H927 H 0.61966 0.70306 0.19149 0.0
H928 H 0.62108 0.75967 0.1813 0.0
H929 H 0.74239 0.81777 0.18045 0.0
H930 H 0.74127 0.76089 0.19032 0.0
H931 H 0.71622 0.83356 0.15329 0.0
H932 H 0.69486 0.83315 0.21174 0.0
H933 H 0.66376 0.80685 0.23864 0.0
H934 H 0.56 0.79312 0.21943 0.0
H935 H 0.59036 0.81887 0.19233 0.0
C936 C 0.71181 0.98999 0.14754 0.0
C937 C 0.67724 0.98716 0.14327 0.0
C938 C 0.71298 0.95895 0.15391 0.0
C939 C 0.67964 0.92456 0.15615 0.0
C940 C 0.64503 0.92187 0.15234 0.0
C941 C 0.64383 0.95282 0.14588 0.0
C942 C 0.68085 0.89115 0.16221 0.0
C943 C 0.66215 0.87411 0.17707 0.0
C944 C 0.70093 0.87664 0.15362 0.0
C945 C 0.7203 0.89279 0.13759 0.0
C946 C 0.70036 0.89554 0.12393 0.0
C947 C 0.7189 0.91113 0.10892 0.0
C948 C 0.75732 0.92381 0.10738 0.0
C949 C 0.77726 0.92083 0.12083 0.0
C950 C 0.75886 0.9053 0.13588 0.0
C951 C 0.64669 0.72782 0.18913 0.0
C952 C 0.68037 0.72748 0.19183 0.0
C953 C 0.64744 0.76024 0.18336 0.0
C954 C 0.68185 0.79315 0.18041 0.0
C955 C 0.71552 0.79271 0.18273 0.0
C956 C 0.71481 0.76018 0.18838 0.0
C957 C 0.68258 0.82795 0.17487 0.0
C958 C 0.70168 0.84532 0.16011 0.0
C959 C 0.66315 0.84299 0.18365 0.0
C960 C 0.64481 0.82763 0.19995 0.0
C961 C 0.66534 0.82426 0.21321 0.0
C962 C 0.64785 0.80949 0.2285 0.0
C963 C 0.60991 0.79823 0.23073 0.0
C964 C 0.58939 0.80182 0.21768 0.0
C965 C 0.60673 0.81653 0.20236 0.0
H966 H 0.59642 0.78681 0.24257 0.0
H967 H 0.77162 0.93587 0.09574 0.0
H968 H 0.71002 0.63346 0.46355 0.0
H969 H 0.7661 0.63938 0.47686 0.0
H970 H 0.80774 0.75746 0.48517 0.0
H971 H 0.75126 0.75176 0.47207 0.0
H972 H 0.86245 0.74104 0.47265 0.0
H973 H 0.77102 0.70176 0.51615 0.0
H974 H 0.70957 0.66215 0.5296 0.0
H975 H 0.72571 0.56675 0.52677 0.0
H976 H 0.78676 0.60551 0.51283 0.0
H977 H 0.00517 0.76188 0.53018 0.0
H978 H 0.95314 0.76332 0.51599 0.0
H979 H 0.89538 0.64255 0.51096 0.0
H980 H 0.94699 0.64093 0.52525 0.0
H981 H 0.84939 0.6646 0.52271 0.0
H982 H 0.93827 0.70202 0.47761 0.0
H983 H -0.00051 0.74084 0.46379 0.0
H984 H 0.98845 0.8388 0.46969 0.0
H985 H 0.92735 0.80063 0.48375 0.0
C986 C 0.7309 0.66067 0.46828 0.0
C987 C 0.72584 0.692 0.46694 0.0
C988 C 0.763 0.664 0.47584 0.0
C989 C 0.7908 0.69878 0.4821 0.0
C990 C 0.78647 0.73038 0.48042 0.0
C991 C 0.75413 0.727 0.47299 0.0
C992 C 0.82404 0.70173 0.49066 0.0
C993 C 0.85977 0.72479 0.48374 0.0
C994 C 0.82023 0.67997 0.50494 0.0
C995 C 0.78336 0.65651 0.51327 0.0
C996 C 0.76128 0.67223 0.5182 0.0
C997 C 0.72651 0.64993 0.52593 0.0
C998 C 0.7137 0.61194 0.52901 0.0
C999 C 0.73564 0.59618 0.52435 0.0
C1000 C 0.77029 0.61828 0.5165 0.0
C1001 C 0.98153 0.73569 0.5259 0.0
C1002 C 0.97989 0.70121 0.52901 0.0
C1003 C 0.95186 0.73656 0.51777 0.0
C1004 C 0.92041 0.70303 0.51239 0.0
C1005 C 0.91924 0.66872 0.51512 0.0
C1006 C 0.94869 0.66782 0.52334 0.0
C1007 C 0.88789 0.70329 0.50453 0.0
C1008 C 0.85221 0.68094 0.51164 0.0
C1009 C 0.89178 0.72558 0.4904 0.0
C1010 C 0.92843 0.74854 0.48189 0.0
C1011 C 0.94904 0.73189 0.47608 0.0
C1012 C 0.98369 0.75377 0.46818 0.0
C1013 C 0.9979 0.79228 0.46591 0.0
C1014 C 0.97743 0.80898 0.47149 0.0
C1015 C 0.94278 0.78723 0.47941 0.0
H1016 H 0.02474 0.80917 0.4598 0.0
H1017 H 0.68678 0.59472 0.53501 0.0
H1018 H 0.29077 0.92514 0.87606 0.0
H1019 H 0.24136 0.87312 0.86032 0.0
H1020 H 0.21296 0.94971 0.83638 0.0
H1021 H 0.26322 0.00223 0.85171 0.0
H1022 H 0.16764 0.84546 0.86071 0.0
H1023 H 0.18158 0.91898 0.79735 0.0
H1024 H 0.23103 0.96915 0.78015 0.0
H1025 H 0.3142 0.94896 0.80263 0.0
H1026 H 0.26513 0.89824 0.81974 0.0
H1027 H 0.00248 0.74614 0.81249 0.0
H1028 H 0.05775 0.79569 0.82666 0.0
H1029 H 0.12957 0.76924 0.79736 0.0
H1030 H 0.07451 0.71988 0.78296 0.0
H1031 H 0.15652 0.84515 0.79916 0.0
H1032 H 0.11283 0.74071 0.83629 0.0
H1033 H 0.06606 0.68795 0.85328 0.0
H1034 H 0.04801 0.76465 0.88284 0.0
H1035 H 0.09435 0.81786 0.86589 0.0
C1036 C 0.27447 0.93111 0.86725 0.0
C1037 C 0.28128 0.96797 0.865 0.0
C1038 C 0.246 0.90124 0.85837 0.0
C1039 C 0.2237 0.90757 0.84708 0.0
C1040 C 0.23024 0.94428 0.84485 0.0
C1041 C 0.25884 0.97423 0.85369 0.0
C1042 C 0.19291 0.87559 0.838 0.0
C1043 C 0.16526 0.84538 0.84725 0.0
C1044 C 0.19018 0.87517 0.82043 0.0
C1045 C 0.21975 0.90512 0.80995 0.0
C1046 C 0.21039 0.92514 0.79856 0.0
C1047 C 0.23835 0.95367 0.78883 0.0
C1048 C 0.27575 0.96232 0.79034 0.0
C1049 C 0.28525 0.94233 0.80152 0.0
C1050 C 0.25739 0.91373 0.81125 0.0
C1051 C 0.03001 0.75084 0.80903 0.0
C1052 C 0.03407 0.72891 0.79665 0.0
C1053 C 0.06153 0.77909 0.81718 0.0
C1054 C 0.09765 0.7859 0.81311 0.0
C1055 C 0.10189 0.76438 0.80066 0.0
C1056 C 0.07037 0.73604 0.79253 0.0
C1057 C 0.13099 0.81552 0.82191 0.0
C1058 C 0.15903 0.84525 0.81261 0.0
C1059 C 0.13451 0.81514 0.83941 0.0
C1060 C 0.10685 0.78325 0.84973 0.0
C1061 C 0.0987 0.74631 0.84634 0.0
C1062 C 0.0723 0.71632 0.85597 0.0
C1063 C 0.05401 0.72294 0.8691 0.0
C1064 C 0.06218 0.75957 0.87265 0.0
C1065 C 0.08855 0.78966 0.86305 0.0
H1066 H 0.03357 0.69969 0.87654 0.0
H1067 H 0.29736 0.98445 0.78282 0.0
H1068 H 0.37021 0.32961 0.38353 0.0
H1069 H 0.33793 0.31991 0.35709 0.0
H1070 H 0.25919 0.20528 0.37071 0.0
H1071 H 0.29158 0.21485 0.39765 0.0
H1072 H 0.28889 0.22211 0.33462 0.0
H1073 H 0.22443 0.25325 0.37497 0.0
H1074 H 0.22027 0.28722 0.3994 0.0
H1075 H 0.27713 0.39135 0.37249 0.0
H1076 H 0.28289 0.35824 0.34805 0.0
H1077 H 0.22047 0.26313 0.25923 0.0
H1078 H 0.21147 0.2373 0.28764 0.0
H1079 H 0.29985 0.34458 0.30535 0.0
H1080 H 0.30926 0.37 0.27722 0.0
H1081 H 0.23895 0.30922 0.32757 0.0
H1082 H 0.32138 0.28076 0.29311 0.0
H1083 H 0.33243 0.25043 0.26894 0.0
H1084 H 0.2428 0.14289 0.28496 0.0
H1085 H 0.23096 0.17276 0.30912 0.0
C1086 C 0.34635 0.3021 0.3809 0.0
C1087 C 0.33311 0.27314 0.3928 0.0
C1088 C 0.32795 0.29662 0.36576 0.0
C1089 C 0.29585 0.26214 0.36213 0.0
C1090 C 0.28386 0.23216 0.3734 0.0
C1091 C 0.30241 0.23765 0.38872 0.0
C1092 C 0.27423 0.25953 0.34698 0.0
C1093 C 0.27661 0.24 0.33316 0.0
C1094 C 0.25845 0.28309 0.34515 0.0
C1095 C 0.25412 0.30316 0.35965 0.0
C1096 C 0.23624 0.28342 0.37427 0.0
C1097 C 0.2336 0.30254 0.38814 0.0
C1098 C 0.24828 0.3414 0.38749 0.0
C1099 C 0.26569 0.36122 0.37296 0.0
C1100 C 0.26867 0.34228 0.35909 0.0
C1101 C 0.23718 0.28131 0.26932 0.0
C1102 C 0.26569 0.31844 0.2661 0.0
C1103 C 0.23213 0.26654 0.28547 0.0
C1104 C 0.25512 0.28903 0.29855 0.0
C1105 C 0.28172 0.3268 0.29546 0.0
C1106 C 0.28719 0.34126 0.27938 0.0
C1107 C 0.25523 0.2732 0.31509 0.0
C1108 C 0.24914 0.28962 0.32918 0.0
C1109 C 0.26762 0.24688 0.31716 0.0
C1110 C 0.27497 0.229 0.30275 0.0
C1111 C 0.30388 0.25069 0.29139 0.0
C1112 C 0.3103 0.23359 0.27771 0.0
C1113 C 0.28824 0.19477 0.27538 0.0
C1114 C 0.25979 0.17297 0.28675 0.0
C1115 C 0.2532 0.18996 0.30044 0.0
H1116 H 0.29326 0.18158 0.26478 0.0
H1117 H 0.24622 0.35615 0.39825 0.0
H1118 H 0.01579 0.32025 0.59539 0.0
H1119 H 0.0334 0.30669 0.62221 0.0
H1120 H 0.93512 0.19597 0.62182 0.0
H1121 H 0.91682 0.20954 0.59467 0.0
H1122 H 0.94256 0.23263 0.65099 0.0
H1123 H 0.02042 0.20324 0.61905 0.0
H1124 H 0.0644 0.21029 0.59659 0.0
H1125 H 0.14911 0.31427 0.61799 0.0
H1126 H 0.10547 0.30819 0.64044 0.0
H1127 H 0.01621 0.24144 0.7319 0.0
H1128 H 0.00038 0.21441 0.7037 0.0
H1129 H 0.07368 0.32414 0.6828 0.0
H1130 H 0.08882 0.35106 0.71083 0.0
H1131 H 0.07311 0.26407 0.66447 0.0
H1132 H 0.98665 0.3005 0.68963 0.0
H1133 H 0.94238 0.29584 0.71154 0.0
H1134 H 0.87359 0.17748 0.70215 0.0
H1135 H 0.91785 0.18143 0.68032 0.0
C1136 C 0.9979 0.29283 0.60087 0.0
C1137 C 0.96472 0.26605 0.59289 0.0
C1138 C 0.00829 0.28498 0.61617 0.0
C1139 C 0.98593 0.25009 0.62391 0.0
C1140 C 0.95295 0.22295 0.61597 0.0
C1141 C 0.94256 0.23075 0.60048 0.0
C1142 C 0.99597 0.24415 0.64094 0.0
C1143 C 0.97067 0.23813 0.65391 0.0
C1144 C 0.03276 0.25161 0.64477 0.0
C1145 C 0.05955 0.25524 0.63145 0.0
C1146 C 0.04837 0.22771 0.61894 0.0
C1147 C 0.07326 0.23154 0.6062 0.0
C1148 C 0.10953 0.26272 0.60585 0.0
C1149 C 0.12102 0.29009 0.61828 0.0
C1150 C 0.09623 0.28642 0.63105 0.0
C1151 C 0.02993 0.25933 0.72125 0.0
C1152 C 0.05389 0.29814 0.72336 0.0
C1153 C 0.02082 0.24397 0.70521 0.0
C1154 C 0.0358 0.26734 0.6912 0.0
C1155 C 0.06208 0.3056 0.69344 0.0
C1156 C 0.07069 0.32097 0.70941 0.0
C1157 C 0.02017 0.25406 0.67434 0.0
C1158 C 0.04448 0.25676 0.66147 0.0
C1159 C 0.98246 0.24343 0.67056 0.0
C1160 C 0.95575 0.24115 0.68354 0.0
C1161 C 0.96223 0.27345 0.69234 0.0
C1162 C 0.93714 0.27094 0.70472 0.0
C1163 C 0.90526 0.23635 0.70828 0.0
C1164 C 0.89835 0.20423 0.69941 0.0
C1165 C 0.92343 0.20657 0.68704 0.0
H1166 H 0.88585 0.23447 0.71787 0.0
H1167 H 0.12874 0.26568 0.59596 0.0
H1168 H 0.77045 0.09975 0.07434 0.0
H1169 H 0.78227 0.08663 0.04577 0.0
H1170 H 0.66391 0.00827 0.03953 0.0
H1171 H 0.65175 0.02107 0.06767 0.0
H1172 H 0.76441 0.01752 0.0278 0.0
H1173 H 0.63805 0.02885 0.00337 0.0
H1174 H 0.60367 0.06205 0.01033 0.0
H1175 H 0.70304 0.15118 0.03304 0.0
H1176 H 0.73815 0.1188 0.026 0.0
H1177 H 0.68563 0.92486 0.95043 0.0
H1178 H 0.70691 0.94963 0.97856 0.0
H1179 H 0.74342 0.0619 0.96075 0.0
H1180 H 0.72071 0.03698 0.93293 0.0
H1181 H 0.69693 0.04685 0.98439 0.0
H1182 H 0.8058 0.0355 0.97772 0.0
H1183 H 0.84239 0.0047 0.97065 0.0
H1184 H 0.78505 0.92228 0.00885 0.0
H1185 H 0.7477 0.95224 0.016 0.0
C1186 C 0.74701 0.07953 0.06691 0.0
C1187 C 0.71008 0.06192 0.07324 0.0
C1188 C 0.75387 0.07192 0.05065 0.0
C1189 C 0.72389 0.04675 0.04055 0.0
C1190 C 0.68737 0.02805 0.04709 0.0
C1191 C 0.6805 0.03558 0.06321 0.0
C1192 C 0.72953 0.04175 0.02272 0.0
C1193 C 0.75004 0.02416 0.01821 0.0
C1194 C 0.71134 0.05116 0.01027 0.0
C1195 C 0.69064 0.07125 0.01425 0.0
C1196 C 0.65262 0.05564 0.00976 0.0
C1197 C 0.63299 0.0743 0.01374 0.0
C1198 C 0.65114 0.10866 0.02215 0.0
C1199 C 0.68899 0.12451 0.02656 0.0
C1200 C 0.70875 0.106 0.0226 0.0
C1201 C 0.69932 0.95493 0.95247 0.0
C1202 C 0.70122 0.97903 0.93964 0.0
C1203 C 0.7116 0.96913 0.96853 0.0
C1204 C 0.72663 0.00769 0.97183 0.0
C1205 C 0.73164 0.03205 0.95857 0.0
C1206 C 0.71873 0.01783 0.94268 0.0
C1207 C 0.73125 0.0217 0.98923 0.0
C1208 C 0.71219 0.04078 0.99377 0.0
C1209 C 0.7513 0.01412 0.00154 0.0
C1210 C 0.77375 0.99601 0.99733 0.0
C1211 C 0.80078 0.01064 0.98454 0.0
C1212 C 0.8217 0.99335 0.98053 0.0
C1213 C 0.816 0.96152 0.98928 0.0
C1214 C 0.78942 0.94694 0.00208 0.0
C1215 C 0.76841 0.96411 0.00614 0.0
H1216 H 0.83223 0.94818 0.98615 0.0
H1217 H 0.63588 0.12303 0.02524 0.0
H1218 H 0.66128 0.68727 0.26108 0.0
H1219 H 0.66935 0.70785 0.29007 0.0
H1220 H 0.7668 0.69456 0.29417 0.0
H1221 H 0.7594 0.67465 0.26485 0.0
H1222 H 0.70582 0.65374 0.31821 0.0
H1223 H 0.78389 0.77809 0.29688 0.0
H1224 H 0.79978 0.8316 0.27817 0.0
H1225 H 0.70532 0.8387 0.29658 0.0
H1226 H 0.68852 0.78486 0.31524 0.0
H1227 H 0.71454 0.69539 0.40273 0.0
H1228 H 0.73675 0.7009 0.37403 0.0
H1229 H 0.66363 0.74306 0.35903 0.0
H1230 H 0.64338 0.73987 0.38805 0.0
H1231 H 0.72289 0.77409 0.3404 0.0
H1232 H 0.63713 0.64679 0.35691 0.0
H1233 H 0.61357 0.58983 0.37426 0.0
H1234 H 0.71294 0.584 0.36336 0.0
H1235 H 0.73731 0.64124 0.34611 0.0
C1236 C 0.68477 0.68923 0.26807 0.0
C1237 C 0.70959 0.67913 0.26078 0.0
C1238 C 0.68947 0.70123 0.28458 0.0
C1239 C 0.71874 0.70286 0.29418 0.0
C1240 C 0.74419 0.69368 0.28687 0.0
C1241 C 0.73996 0.68239 0.27017 0.0
C1242 C 0.71994 0.71036 0.31225 0.0
C1243 C 0.71056 0.68036 0.32316 0.0
C1244 C 0.72461 0.74462 0.31849 0.0
C1245 C 0.73482 0.77725 0.30739 0.0
C1246 C 0.76633 0.79087 0.29685 0.0
C1247 C 0.77554 0.8213 0.28627 0.0
C1248 C 0.75354 0.8385 0.28617 0.0
C1249 C 0.72234 0.82535 0.29668 0.0
C1250 C 0.713 0.79491 0.30728 0.0
C1251 C 0.70404 0.70674 0.39332 0.0
C1252 C 0.67724 0.71707 0.39743 0.0
C1253 C 0.71648 0.70963 0.37693 0.0
C1254 C 0.70102 0.72129 0.36424 0.0
C1255 C 0.67585 0.73379 0.36856 0.0
C1256 C 0.66424 0.73194 0.3851 0.0
C1257 C 0.70841 0.71728 0.34644 0.0
C1258 C 0.71904 0.74774 0.33555 0.0
C1259 C 0.70386 0.68301 0.34008 0.0
C1260 C 0.68923 0.64853 0.35039 0.0
C1261 C 0.65406 0.63349 0.35831 0.0
C1262 C 0.64055 0.60115 0.36811 0.0
C1263 C 0.6618 0.58338 0.36995 0.0
C1264 C 0.69656 0.59785 0.36195 0.0
C1265 C 0.71022 0.63023 0.35216 0.0
H1266 H 0.6513 0.55834 0.37754 0.0
H1267 H 0.76069 0.86204 0.27796 0.0
H1268 H 0.09698 0.79826 0.60292 0.0
H1269 H 0.08105 0.81449 0.63005 0.0
H1270 H 0.97322 0.71246 0.62882 0.0
H1271 H 0.98872 0.69627 0.60201 0.0
H1272 H 0.968 0.77118 0.64238 0.0
H1273 H 0.04751 0.71331 0.64721 0.0
H1274 H 0.10608 0.7118 0.64229 0.0
H1275 H 0.16992 0.81921 0.66616 0.0
H1276 H 0.11168 0.82149 0.67104 0.0
H1277 H 0.90519 0.66774 0.71569 0.0
H1278 H 0.92634 0.69952 0.68881 0.0
H1279 H 0.02255 0.79162 0.71268 0.0
H1280 H 0.00133 0.75934 0.73961 0.0
H1281 H 0.04384 0.7632 0.68859 0.0
H1282 H 0.95826 0.80764 0.69186 0.0
H1283 H 0.89836 0.80596 0.69732 0.0
H1284 H 0.84462 0.72334 0.65887 0.0
H1285 H 0.90402 0.72404 0.65333 0.0
C1286 C 0.06965 0.77973 0.60834 0.0
C1287 C 0.04435 0.74569 0.60049 0.0
C1288 C 0.06059 0.78902 0.62379 0.0
C1289 C 0.02604 0.76453 0.63147 0.0
C1290 C -3e-05 0.73182 0.62311 0.0
C1291 C 0.00907 0.72241 0.60784 0.0
C1292 C 0.0181 0.76976 0.64896 0.0
C1293 C 0.98465 0.76981 0.65255 0.0
C1294 C 0.04052 0.76922 0.6622 0.0
C1295 C 0.07542 0.76782 0.65927 0.0
C1296 C 0.07409 0.73672 0.65129 0.0
C1297 C 0.1072 0.7357 0.64853 0.0
C1298 C 0.14172 0.76546 0.65385 0.0
C1299 C 0.14318 0.79624 0.662 0.0
C1300 C 0.11015 0.79742 0.66476 0.0
C1301 C 0.93001 0.69543 0.71522 0.0
C1302 C 0.95148 0.7115 0.72957 0.0
C1303 C 0.94208 0.71368 0.6999 0.0
C1304 C 0.9759 0.7482 0.69873 0.0
C1305 C 0.99625 0.7652 0.71331 0.0
C1306 C 0.98409 0.74692 0.72865 0.0
C1307 C 0.99263 0.76275 0.68209 0.0
C1308 C 0.02778 0.76628 0.67861 0.0
C1309 C 0.97163 0.76643 0.669 0.0
C1310 C 0.9357 0.76587 0.6722 0.0
C1311 C 0.93363 0.78893 0.68463 0.0
C1312 C 0.89975 0.78817 0.68773 0.0
C1313 C 0.8677 0.76455 0.67845 0.0
C1314 C 0.86948 0.74166 0.66603 0.0
C1315 C 0.90329 0.74229 0.66288 0.0
H1316 H 0.84149 0.764 0.68087 0.0
H1317 H 0.16732 0.76461 0.65171 0.0
H1318 H 0.2178 0.90598 0.07043 0.0
H1319 H 0.20744 0.92139 0.04206 0.0
H1320 H 0.32563 0.00226 0.0377 0.0
H1321 H 0.33636 0.98723 0.06571 0.0
H1322 H 0.22684 0.9929 0.02426 0.0
H1323 H 0.35398 0.98122 0.00217 0.0
H1324 H 0.38821 0.9484 0.01006 0.0
H1325 H 0.28733 0.85842 0.03142 0.0
H1326 H 0.2524 0.89044 0.02343 0.0
H1327 H 0.31218 0.08251 0.94665 0.0
H1328 H 0.28841 0.05945 0.9748 0.0
H1329 H 0.24764 0.9455 0.95825 0.0
H1330 H 0.27256 0.96862 0.93046 0.0
H1331 H 0.2955 0.9619 0.98209 0.0
H1332 H 0.1875 0.97434 0.97389 0.0
H1333 H 0.15196 0.00574 0.96599 0.0
H1334 H 0.20882 0.08899 0.00392 0.0
H1335 H 0.24514 0.05841 0.0119 0.0
C1336 C 0.24148 0.92737 0.06349 0.0
C1337 C 0.27802 0.94487 0.07025 0.0
C1338 C 0.23544 0.9363 0.04735 0.0
C1339 C 0.26584 0.96274 0.03781 0.0
C1340 C 0.30186 0.9816 0.04486 0.0
C1341 C 0.30793 0.97273 0.06087 0.0
C1342 C 0.26146 0.96806 0.0199 0.0
C1343 C 0.24149 0.98593 0.01494 0.0
C1344 C 0.28011 0.95832 0.00781 0.0
C1345 C 0.30067 0.93837 0.0123 0.0
C1346 C 0.33907 0.95432 0.00846 0.0
C1347 C 0.3586 0.93588 0.01297 0.0
C1348 C 0.33998 0.90139 0.02127 0.0
C1349 C 0.30175 0.88519 0.02503 0.0
C1350 C 0.28208 0.90349 0.02053 0.0
C1351 C 0.29688 0.0525 0.94895 0.0
C1352 C 0.29437 0.02727 0.93655 0.0
C1353 C 0.28324 0.03929 0.965 0.0
C1354 C 0.26645 0.0007 0.96867 0.0
C1355 C 0.26071 0.97536 0.95576 0.0
C1356 C 0.27487 0.98856 0.93989 0.0
C1357 C 0.26128 0.98746 0.9862 0.0
C1358 C 0.27999 0.96833 0.99119 0.0
C1359 C 0.24106 0.99571 0.99815 0.0
C1360 C 0.21926 0.0142 0.99342 0.0
C1361 C 0.19267 -0.00048 0.98047 0.0
C1362 C 0.17233 0.01714 0.97599 0.0
C1363 C 0.17818 0.04938 0.98443 0.0
C1364 C 0.20433 0.06402 0.99739 0.0
C1365 C 0.22477 0.04652 0.00191 0.0
H1366 H 0.1624 0.06298 0.98094 0.0
H1367 H 0.35517 0.88719 0.02478 0.0
loop_
_geom_bond_atom_site_label_1
_geom_bond_atom_site_label_2
_geom_bond_distance
_geom_bond_site_symmetry_2
_ccdc_geom_bond_type
Mg0 O1 2.028 . S
Mg0 O7 1.986 . S
Mg0 O9 2.114 . S
Mg0 O10 2.251 . S
Mg0 O13 2.010 . S
O1 Mg0 2.028 . S
O1 C4 1.250 . S
O2 Mg3 2.028 . S
O2 C4 1.248 . S
Mg3 O2 2.028 . S
Mg3 O8 2.032 . S
Mg3 O10 2.079 . S
C4 O1 1.250 . S
C4 O2 1.248 . S
C5 O6 1.264 . S
C5 O13 1.249 . S
O6 C5 1.264 . S
O7 Mg0 1.986 . S
O7 C11 1.246 . S
O8 Mg3 2.032 . S
O8 C11 1.259 . S
O9 Mg0 2.114 . S
O9 C12 1.252 . S
O10 Mg0 2.251 . S
O10 Mg3 2.079 . S
O10 C12 1.273 . S
C11 O7 1.246 . S
C11 O8 1.259 . S
C12 O9 1.252 . S
C12 O10 1.273 . S
O13 Mg0 2.010 . S
O13 C5 1.249 . S
Mg14 O15 2.028 . S
Mg14 O21 1.986 . S
Mg14 O23 2.114 . S
Mg14 O24 2.251 . S
Mg14 O27 2.010 . S
O15 Mg14 2.028 . S
O15 C18 1.250 1_655 S
O16 Mg17 2.028 . S
O16 C18 1.248 . S
Mg17 O16 2.028 . S
Mg17 O22 2.032 1_455 S
Mg17 O24 2.079 1_455 S
C18 O15 1.250 1_455 S
C18 O16 1.248 . S
C19 O20 1.264 . S
C19 O27 1.249 . S
O20 C19 1.264 . S
O21 Mg14 1.986 . S
O21 C25 1.246 . S
O22 Mg17 2.032 1_655 S
O22 C25 1.259 . S
O23 Mg14 2.114 . S
O23 C26 1.252 . S
O24 Mg14 2.251 . S
O24 Mg17 2.079 1_655 S
O24 C26 1.273 . S
C25 O21 1.246 . S
C25 O22 1.259 . S
C26 O23 1.252 . S
C26 O24 1.273 . S
O27 Mg14 2.010 . S
O27 C19 1.249 . S
Mg28 O29 2.028 . S
Mg28 O35 1.986 . S
Mg28 O37 2.114 . S
Mg28 O38 2.251 . S
Mg28 O41 2.010 . S
O29 Mg28 2.028 . S
O29 C32 1.250 1_565 S
O30 Mg31 2.028 . S
O30 C32 1.248 . S
Mg31 O30 2.028 . S
Mg31 O36 2.032 1_545 S
Mg31 O38 2.079 1_545 S
C32 O29 1.250 1_545 S
C32 O30 1.248 . S
C33 O34 1.264 . S
C33 O41 1.249 . S
O34 C33 1.264 . S
O35 Mg28 1.986 . S
O35 C39 1.246 . S
O36 Mg31 2.032 1_565 S
O36 C39 1.259 . S
O37 Mg28 2.114 . S
O37 C40 1.252 . S
O38 Mg28 2.251 . S
O38 Mg31 2.079 1_565 S
O38 C40 1.273 . S
C39 O35 1.246 . S
C39 O36 1.259 . S
C40 O37 1.252 . S
C40 O38 1.273 . S
O41 Mg28 2.010 . S
O41 C33 1.249 . S
Mg42 O43 2.028 . S
Mg42 O49 1.986 . S
Mg42 O51 2.114 . S
Mg42 O52 2.251 . S
Mg42 O55 2.010 . S
O43 Mg42 2.028 . S
O43 C46 1.250 . S
O44 Mg45 2.028 . S
O44 C46 1.248 . S
Mg45 O44 2.028 . S
Mg45 O50 2.032 . S
Mg45 O52 2.079 . S
C46 O43 1.250 . S
C46 O44 1.248 . S
C47 O48 1.264 . S
C47 O55 1.249 . S
O48 C47 1.264 . S
O49 Mg42 1.986 . S
O49 C53 1.246 . S
O50 Mg45 2.032 . S
O50 C53 1.259 . S
O51 Mg42 2.114 . S
O51 C54 1.252 . S
O52 Mg42 2.251 . S
O52 Mg45 2.079 . S
O52 C54 1.273 . S
C53 O49 1.246 . S
C53 O50 1.259 . S
C54 O51 1.252 . S
C54 O52 1.273 . S
O55 Mg42 2.010 . S
O55 C47 1.249 . S
Mg56 O57 2.028 . S
Mg56 O63 1.986 . S
Mg56 O65 2.114 . S
Mg56 O66 2.251 . S
Mg56 O69 2.010 . S
O57 Mg56 2.028 . S
O57 C60 1.250 1_455 S
O58 Mg59 2.028 . S
O58 C60 1.248 . S
Mg59 O58 2.028 . S
Mg59 O64 2.032 1_655 S
Mg59 O66 2.079 1_655 S
C60 O57 1.250 1_655 S
C60 O58 1.248 . S
C61 O62 1.264 . S
C61 O69 1.249 . S
O62 C61 1.264 . S
O63 Mg56 1.986 . S
O63 C67 1.246 . S
O64 Mg59 2.032 1_455 S
O64 C67 1.259 . S
O65 Mg56 2.114 . S
O65 C68 1.252 . S
O66 Mg56 2.251 . S
O66 Mg59 2.079 1_455 S
O66 C68 1.273 . S
C67 O63 1.246 . S
C67 O64 1.259 . S
C68 O65 1.252 . S
C68 O66 1.273 . S
O69 Mg56 2.010 . S
O69 C61 1.249 . S
Mg70 O71 2.028 . S
Mg70 O77 1.986 . S
Mg70 O79 2.114 . S
Mg70 O80 2.251 . S
Mg70 O83 2.010 . S
O71 Mg70 2.028 . S
O71 C74 1.250 1_545 S
O72 Mg73 2.028 . S
O72 C74 1.248 . S
Mg73 O72 2.028 . S
Mg73 O78 2.032 1_565 S
Mg73 O80 2.079 1_565 S
C74 O71 1.250 1_565 S
C74 O72 1.248 . S
C75 O76 1.264 . S
C75 O83 1.249 . S
O76 C75 1.264 . S
O77 Mg70 1.986 . S
O77 C81 1.246 . S
O78 Mg73 2.032 1_545 S
O78 C81 1.259 . S
O79 Mg70 2.114 . S
O79 C82 1.252 . S
O80 Mg70 2.251 . S
O80 Mg73 2.079 1_545 S
O80 C82 1.273 . S
C81 O77 1.246 . S
C81 O78 1.259 . S
C82 O79 1.252 . S
C82 O80 1.273 . S
O83 Mg70 2.010 . S
O83 C75 1.249 . S
Mg84 O85 2.028 . S
Mg84 O91 1.986 . S
Mg84 O93 2.114 . S
Mg84 O94 2.251 . S
Mg84 O97 2.010 . S
O85 Mg84 2.028 . S
O85 C88 1.250 . S
O86 Mg87 2.028 . S
O86 C88 1.248 . S
Mg87 O86 2.028 . S
Mg87 O92 2.032 . S
Mg87 O94 2.079 . S
C88 O85 1.250 . S
C88 O86 1.248 . S
C89 O90 1.264 . S
C89 O97 1.249 . S
O90 C89 1.264 . S
O91 Mg84 1.986 . S
O91 C95 1.246 . S
O92 Mg87 2.032 . S
O92 C95 1.259 . S
O93 Mg84 2.114 . S
O93 C96 1.252 . S
O94 Mg84 2.251 . S
O94 Mg87 2.079 . S
O94 C96 1.273 . S
C95 O91 1.246 . S
C95 O92 1.259 . S
C96 O93 1.252 . S
C96 O94 1.273 . S
O97 Mg84 2.010 . S
O97 C89 1.249 . S
Mg98 O99 2.028 . S
Mg98 O105 1.986 . S
Mg98 O107 2.114 . S
Mg98 O108 2.251 . S
Mg98 O111 2.010 . S
O99 Mg98 2.028 . S
O99 C102 1.250 1_655 S
O100 Mg101 2.028 . S
O100 C102 1.248 . S
Mg101 O100 2.028 . S
Mg101 O106 2.032 1_455 S
Mg101 O108 2.079 1_455 S
C102 O99 1.250 1_455 S
C102 O100 1.248 . S
C103 O104 1.264 . S
C103 O111 1.249 . S
O104 C103 1.264 . S
O105 Mg98 1.986 . S
O105 C109 1.246 . S
O106 Mg101 2.032 1_655 S
O106 C109 1.259 . S
O107 Mg98 2.114 . S
O107 C110 1.252 . S
O108 Mg98 2.251 . S
O108 Mg101 2.079 1_655 S
O108 C110 1.273 . S
C109 O105 1.246 . S
C109 O106 1.259 . S
C110 O107 1.252 . S
C110 O108 1.273 . S
O111 Mg98 2.010 . S
O111 C103 1.249 . S
Mg112 O113 2.028 . S
Mg112 O119 1.986 . S
Mg112 O121 2.114 . S
Mg112 O122 2.251 . S
Mg112 O125 2.010 . S
O113 Mg112 2.028 . S
O113 C116 1.250 1_565 S
O114 Mg115 2.028 . S
O114 C116 1.248 . S
Mg115 O114 2.028 . S
Mg115 O120 2.032 1_545 S
Mg115 O122 2.079 1_545 S
C116 O113 1.250 1_545 S
C116 O114 1.248 . S
C117 O118 1.264 . S
C117 O125 1.249 . S
O118 C117 1.264 . S
O119 Mg112 1.986 . S
O119 C123 1.246 . S
O120 Mg115 2.032 1_565 S
O120 C123 1.259 . S
O121 Mg112 2.114 . S
O121 C124 1.252 . S
O122 Mg112 2.251 . S
O122 Mg115 2.079 1_565 S
O122 C124 1.273 . S
C123 O119 1.246 . S
C123 O120 1.259 . S
C124 O121 1.252 . S
C124 O122 1.273 . S
O125 Mg112 2.010 . S
O125 C117 1.249 . S
Mg126 O127 2.028 . S
Mg126 O133 1.986 . S
Mg126 O135 2.114 . S
Mg126 O136 2.251 . S
Mg126 O139 2.010 . S
O127 Mg126 2.028 . S
O127 C130 1.250 . S
O128 Mg129 2.028 . S
O128 C130 1.248 . S
Mg129 O128 2.028 . S
Mg129 O134 2.032 . S
Mg129 O136 2.079 . S
C130 O127 1.250 . S
C130 O128 1.248 . S
C131 O132 1.264 . S
C131 O139 1.249 . S
O132 C131 1.264 . S
O133 Mg126 1.986 . S
O133 C137 1.246 . S
O134 Mg129 2.032 . S
O134 C137 1.259 . S
O135 Mg126 2.114 . S
O135 C138 1.252 . S
O136 Mg126 2.251 . S
O136 Mg129 2.079 . S
O136 C138 1.273 . S
C137 O133 1.246 . S
C137 O134 1.259 . S
C138 O135 1.252 . S
C138 O136 1.273 . S
O139 Mg126 2.010 . S
O139 C131 1.249 . S
Mg140 O141 2.028 . S
Mg140 O147 1.986 . S
Mg140 O149 2.114 . S
Mg140 O150 2.251 . S
Mg140 O153 2.010 . S
O141 Mg140 2.028 . S
O141 C144 1.250 1_455 S
O142 Mg143 2.028 . S
O142 C144 1.248 . S
Mg143 O142 2.028 . S
Mg143 O148 2.032 1_655 S
Mg143 O150 2.079 1_655 S
C144 O141 1.250 1_655 S
C144 O142 1.248 . S
C145 O146 1.264 . S
C145 O153 1.249 . S
O146 C145 1.264 . S
O147 Mg140 1.986 . S
O147 C151 1.246 . S
O148 Mg143 2.032 1_455 S
O148 C151 1.259 . S
O149 Mg140 2.114 . S
O149 C152 1.252 . S
O150 Mg140 2.251 . S
O150 Mg143 2.079 1_455 S
O150 C152 1.273 . S
C151 O147 1.246 . S
C151 O148 1.259 . S
C152 O149 1.252 . S
C152 O150 1.273 . S
O153 Mg140 2.010 . S
O153 C145 1.249 . S
Mg154 O155 2.028 . S
Mg154 O161 1.986 . S
Mg154 O163 2.114 . S
Mg154 O164 2.251 . S
Mg154 O167 2.010 . S
O155 Mg154 2.028 . S
O155 C158 1.250 1_545 S
O156 Mg157 2.028 . S
O156 C158 1.248 . S
Mg157 O156 2.028 . S
Mg157 O162 2.032 1_565 S
Mg157 O164 2.079 1_565 S
C158 O155 1.250 1_565 S
C158 O156 1.248 . S
C159 O160 1.264 . S
C159 O167 1.249 . S
O160 C159 1.264 . S
O161 Mg154 1.986 . S
O161 C165 1.246 . S
O162 Mg157 2.032 1_545 S
O162 C165 1.259 . S
O163 Mg154 2.114 . S
O163 C166 1.252 . S
O164 Mg154 2.251 . S
O164 Mg157 2.079 1_545 S
O164 C166 1.273 . S
C165 O161 1.246 . S
C165 O162 1.259 . S
C166 O163 1.252 . S
C166 O164 1.273 . S
O167 Mg154 2.010 . S
O167 C159 1.249 . S
H168 C186 0.951 . S
H169 C188 0.951 . S
H170 C190 0.950 . S
H171 C191 0.950 . S
H172 C193 0.950 . S
H173 C196 0.950 . S
H174 C197 0.950 . S
H175 C199 0.950 . S
H176 C200 0.950 . S
H177 C201 0.951 . S
H178 C203 0.951 . S
H179 C205 0.950 . S
H180 C206 0.950 . S
H181 C208 0.950 . S
H182 C211 0.950 . S
H183 C212 0.950 . S
H184 C214 0.950 . S
H185 C215 0.950 . S
C186 H168 0.951 . S
C186 C187 1.366 . S
C186 C188 1.388 . S
C187 C186 1.366 . S
C187 C191 1.385 . S
C188 H169 0.951 . S
C188 C186 1.388 . S
C188 C189 1.366 . S
C189 C188 1.366 . S
C189 C190 1.414 . S
C189 C192 1.499 . S
C190 H170 0.950 . S
C190 C189 1.414 . S
C190 C191 1.374 . S
C191 H171 0.950 . S
C191 C187 1.385 . S
C191 C190 1.374 . S
C192 C189 1.499 . S
C192 C193 1.373 . S
C192 C194 1.389 . S
C193 H172 0.950 . S
C193 C192 1.373 . S
C193 C209 1.377 1_655 S
C194 C192 1.389 . S
C194 C195 1.524 . S
C194 C208 1.377 1_655 S
C195 C194 1.524 . S
C195 C196 1.397 . S
C195 C200 1.363 . S
C196 H173 0.950 . S
C196 C195 1.397 . S
C196 C197 1.334 . S
C197 H174 0.950 . S
C197 C196 1.334 . S
C197 C198 1.287 . S
C198 C197 1.287 . S
C198 C199 1.524 . S
C198 H217 0.913 . S
C199 H175 0.950 . S
C199 C198 1.524 . S
C199 C200 1.415 . S
C200 H176 0.950 . S
C200 C195 1.363 . S
C200 C199 1.415 . S
C201 H177 0.951 . S
C201 C202 1.366 . S
C201 C203 1.388 . S
C202 C201 1.366 . S
C202 C206 1.385 . S
C203 H178 0.951 . S
C203 C201 1.388 . S
C203 C204 1.366 . S
C204 C203 1.366 . S
C204 C205 1.414 . S
C204 C207 1.499 . S
C205 H179 0.950 . S
C205 C204 1.414 . S
C205 C206 1.374 . S
C206 H180 0.950 . S
C206 C202 1.385 . S
C206 C205 1.374 . S
C207 C204 1.499 . S
C207 C208 1.373 . S
C207 C209 1.389 . S
C208 H181 0.950 . S
C208 C194 1.377 1_455 S
C208 C207 1.373 . S
C209 C193 1.377 1_455 S
C209 C207 1.389 . S
C209 C210 1.524 . S
C210 C209 1.524 . S
C210 C211 1.397 . S
C210 C215 1.363 . S
C211 H182 0.950 . S
C211 C210 1.397 . S
C211 C212 1.334 . S
C212 H183 0.950 . S
C212 C211 1.334 . S
C212 C213 1.287 . S
C213 C212 1.287 . S
C213 C214 1.524 . S
C213 H216 0.999 . S
C214 H184 0.950 . S
C214 C213 1.524 . S
C214 C215 1.415 . S
C215 H185 0.950 . S
C215 C210 1.363 . S
C215 C214 1.415 . S
H216 C213 0.999 . S
H217 C198 0.913 . S
H218 C236 0.951 . S
H219 C238 0.951 . S
H220 C240 0.950 . S
H221 C241 0.950 . S
H222 C243 0.950 . S
H223 C246 0.950 . S
H224 C247 0.950 . S
H225 C249 0.950 . S
H226 C250 0.950 1_565 S
H227 C251 0.951 . S
H228 C253 0.951 . S
H229 C255 0.950 . S
H230 C256 0.950 . S
H231 C258 0.950 . S
H232 C261 0.950 . S
H233 C262 0.950 . S
H234 C264 0.950 . S
H235 C265 0.950 1_545 S
C236 H218 0.951 . S
C236 C237 1.366 . S
C236 C238 1.388 . S
C237 C236 1.366 . S
C237 C241 1.385 . S
C238 H219 0.951 . S
C238 C236 1.388 . S
C238 C239 1.366 . S
C239 C238 1.366 . S
C239 C240 1.414 . S
C239 C242 1.499 . S
C240 H220 0.950 . S
C240 C239 1.414 . S
C240 C241 1.374 . S
C241 H221 0.950 . S
C241 C237 1.385 . S
C241 C240 1.374 . S
C242 C239 1.499 . S
C242 C243 1.373 . S
C242 C244 1.389 . S
C243 H222 0.950 . S
C243 C242 1.373 . S
C243 C259 1.377 1_545 S
C244 C242 1.389 . S
C244 C245 1.524 . S
C244 C258 1.377 1_545 S
C245 C244 1.524 . S
C245 C246 1.397 . S
C245 C250 1.363 . S
C246 H223 0.950 . S
C246 C245 1.397 . S
C246 C247 1.334 . S
C247 H224 0.950 . S
C247 C246 1.334 . S
C247 C248 1.287 . S
C248 C247 1.287 . S
C248 C249 1.524 . S
C248 H267 0.913 . S
C249 H225 0.950 . S
C249 C248 1.524 . S
C249 C250 1.415 . S
C250 H226 0.950 1_545 S
C250 C245 1.363 . S
C250 C249 1.415 . S
C251 H227 0.951 . S
C251 C252 1.366 . S
C251 C253 1.388 . S
C252 C251 1.366 . S
C252 C256 1.385 . S
C253 H228 0.951 . S
C253 C251 1.388 . S
C253 C254 1.366 . S
C254 C253 1.366 . S
C254 C255 1.414 . S
C254 C257 1.499 . S
C255 H229 0.950 . S
C255 C254 1.414 . S
C255 C256 1.374 . S
C256 H230 0.950 . S
C256 C252 1.385 . S
C256 C255 1.374 . S
C257 C254 1.499 . S
C257 C258 1.373 . S
C257 C259 1.389 . S
C258 H231 0.950 . S
C258 C244 1.377 1_565 S
C258 C257 1.373 . S
C259 C243 1.377 1_565 S
C259 C257 1.389 . S
C259 C260 1.524 . S
C260 C259 1.524 . S
C260 C261 1.397 . S
C260 C265 1.363 . S
C261 H232 0.950 . S
C261 C260 1.397 . S
C261 C262 1.334 . S
C262 H233 0.950 . S
C262 C261 1.334 . S
C262 C263 1.287 . S
C263 C262 1.287 . S
C263 C264 1.524 . S
C263 H266 0.999 . S
C264 H234 0.950 . S
C264 C263 1.524 . S
C264 C265 1.415 . S
C265 H235 0.950 1_565 S
C265 C260 1.363 . S
C265 C264 1.415 . S
H266 C263 0.999 . S
H267 C248 0.913 . S
H268 C286 0.951 . S
H269 C288 0.951 . S
H270 C290 0.950 . S
H271 C291 0.950 . S
H272 C293 0.950 . S
H273 C296 0.950 . S
H274 C297 0.950 . S
H275 C299 0.950 . S
H276 C300 0.950 . S
H277 C301 0.951 . S
H278 C303 0.951 . S
H279 C305 0.950 . S
H280 C306 0.950 . S
H281 C308 0.950 . S
H282 C311 0.950 . S
H283 C312 0.950 . S
H284 C314 0.950 . S
H285 C315 0.950 . S
C286 H268 0.951 . S
C286 C287 1.366 . S
C286 C288 1.388 . S
C287 C286 1.366 . S
C287 C291 1.385 . S
C288 H269 0.951 . S
C288 C286 1.388 . S
C288 C289 1.366 . S
C289 C288 1.366 . S
C289 C290 1.414 . S
C289 C292 1.499 . S
C290 H270 0.950 . S
C290 C289 1.414 . S
C290 C291 1.374 . S
C291 H271 0.950 . S
C291 C287 1.385 . S
C291 C290 1.374 . S
C292 C289 1.499 . S
C292 C293 1.373 . S
C292 C294 1.389 . S
C293 H272 0.950 . S
C293 C292 1.373 . S
C293 C309 1.377 . S
C294 C292 1.389 . S
C294 C295 1.524 . S
C294 C308 1.377 . S
C295 C294 1.524 . S
C295 C296 1.397 . S
C295 C300 1.363 . S
C296 H273 0.950 . S
C296 C295 1.397 . S
C296 C297 1.334 . S
C297 H274 0.950 . S
C297 C296 1.334 . S
C297 C298 1.287 . S
C298 C297 1.287 . S
C298 C299 1.524 . S
C298 H317 0.913 . S
C299 H275 0.950 . S
C299 C298 1.524 . S
C299 C300 1.415 . S
C300 H276 0.950 . S
C300 C295 1.363 . S
C300 C299 1.415 . S
C301 H277 0.951 . S
C301 C302 1.366 . S
C301 C303 1.388 . S
C302 C301 1.366 . S
C302 C306 1.385 . S
C303 H278 0.951 . S
C303 C301 1.388 . S
C303 C304 1.366 . S
C304 C303 1.366 . S
C304 C305 1.414 . S
C304 C307 1.499 . S
C305 H279 0.950 . S
C305 C304 1.414 . S
C305 C306 1.374 . S
C306 H280 0.950 . S
C306 C302 1.385 . S
C306 C305 1.374 . S
C307 C304 1.499 . S
C307 C308 1.373 . S
C307 C309 1.389 . S
C308 H281 0.950 . S
C308 C294 1.377 . S
C308 C307 1.373 . S
C309 C293 1.377 . S
C309 C307 1.389 . S
C309 C310 1.524 . S
C310 C309 1.524 . S
C310 C311 1.397 . S
C310 C315 1.363 . S
C311 H282 0.950 . S
C311 C310 1.397 . S
C311 C312 1.334 . S
C312 H283 0.950 . S
C312 C311 1.334 . S
C312 C313 1.287 . S
C313 C312 1.287 . S
C313 C314 1.524 . S
C313 H316 0.999 . S
C314 H284 0.950 . S
C314 C313 1.524 . S
C314 C315 1.415 . S
C315 H285 0.950 . S
C315 C310 1.363 . S
C315 C314 1.415 . S
H316 C313 0.999 . S
H317 C298 0.913 . S
H318 C336 0.951 . S
H319 C338 0.951 . S
H320 C340 0.950 . S
H321 C341 0.950 . S
H322 C343 0.950 . S
H323 C346 0.950 . S
H324 C347 0.950 . S
H325 C349 0.950 . S
H326 C350 0.950 . S
H327 C351 0.951 . S
H328 C353 0.951 . S
H329 C355 0.950 . S
H330 C356 0.950 . S
H331 C358 0.950 . S
H332 C361 0.950 . S
H333 C362 0.950 . S
H334 C364 0.950 . S
H335 C365 0.950 . S
C336 H318 0.951 . S
C336 C337 1.366 . S
C336 C338 1.388 . S
C337 C336 1.366 . S
C337 C341 1.385 . S
C338 H319 0.951 . S
C338 C336 1.388 . S
C338 C339 1.366 . S
C339 C338 1.366 . S
C339 C340 1.414 . S
C339 C342 1.499 . S
C340 H320 0.950 . S
C340 C339 1.414 . S
C340 C341 1.374 . S
C341 H321 0.950 . S
C341 C337 1.385 . S
C341 C340 1.374 . S
C342 C339 1.499 . S
C342 C343 1.373 . S
C342 C344 1.389 . S
C343 H322 0.950 . S
C343 C342 1.373 . S
C343 C359 1.377 1_655 S
C344 C342 1.389 . S
C344 C345 1.524 . S
C344 C358 1.377 1_655 S
C345 C344 1.524 . S
C345 C346 1.397 . S
C345 C350 1.363 . S
C346 H323 0.950 . S
C346 C345 1.397 . S
C346 C347 1.334 . S
C347 H324 0.950 . S
C347 C346 1.334 . S
C347 C348 1.287 . S
C348 C347 1.287 . S
C348 C349 1.524 . S
C348 H367 0.913 . S
C349 H325 0.950 . S
C349 C348 1.524 . S
C349 C350 1.415 . S
C350 H326 0.950 . S
C350 C345 1.363 . S
C350 C349 1.415 . S
C351 H327 0.951 . S
C351 C352 1.366 . S
C351 C353 1.388 . S
C352 C351 1.366 . S
C352 C356 1.385 . S
C353 H328 0.951 . S
C353 C351 1.388 . S
C353 C354 1.366 . S
C354 C353 1.366 . S
C354 C355 1.414 . S
C354 C357 1.499 . S
C355 H329 0.950 . S
C355 C354 1.414 . S
C355 C356 1.374 . S
C356 H330 0.950 . S
C356 C352 1.385 . S
C356 C355 1.374 . S
C357 C354 1.499 . S
C357 C358 1.373 . S
C357 C359 1.389 . S
C358 H331 0.950 . S
C358 C344 1.377 1_455 S
C358 C357 1.373 . S
C359 C343 1.377 1_455 S
C359 C357 1.389 . S
C359 C360 1.524 . S
C360 C359 1.524 . S
C360 C361 1.397 . S
C360 C365 1.363 . S
C361 H332 0.950 . S
C361 C360 1.397 . S
C361 C362 1.334 . S
C362 H333 0.950 . S
C362 C361 1.334 . S
C362 C363 1.287 . S
C363 C362 1.287 . S
C363 C364 1.524 . S
C363 H366 0.999 . S
C364 H334 0.950 . S
C364 C363 1.524 . S
C364 C365 1.415 . S
C365 H335 0.950 . S
C365 C360 1.363 . S
C365 C364 1.415 . S
H366 C363 0.999 . S
H367 C348 0.913 . S
H368 C386 0.951 . S
H369 C388 0.951 . S
H370 C390 0.950 . S
H371 C391 0.950 . S
H372 C393 0.950 . S
H373 C396 0.950 . S
H374 C397 0.950 . S
H375 C399 0.950 . S
H376 C400 0.950 . S
H377 C401 0.951 . S
H378 C403 0.951 . S
H379 C405 0.950 . S
H380 C406 0.950 . S
H381 C408 0.950 . S
H382 C411 0.950 . S
H383 C412 0.950 . S
H384 C414 0.950 . S
H385 C415 0.950 . S
C386 H368 0.951 . S
C386 C387 1.366 . S
C386 C388 1.388 . S
C387 C386 1.366 . S
C387 C391 1.385 . S
C388 H369 0.951 . S
C388 C386 1.388 . S
C388 C389 1.366 . S
C389 C388 1.366 . S
C389 C390 1.414 . S
C389 C392 1.499 . S
C390 H370 0.950 . S
C390 C389 1.414 . S
C390 C391 1.374 . S
C391 H371 0.950 . S
C391 C387 1.385 . S
C391 C390 1.374 . S
C392 C389 1.499 . S
C392 C393 1.373 . S
C392 C394 1.389 . S
C393 H372 0.950 . S
C393 C392 1.373 . S
C393 C409 1.377 1_545 S
C394 C392 1.389 . S
C394 C395 1.524 . S
C394 C408 1.377 1_545 S
C395 C394 1.524 . S
C395 C396 1.397 . S
C395 C400 1.363 . S
C396 H373 0.950 . S
C396 C395 1.397 . S
C396 C397 1.334 . S
C397 H374 0.950 . S
C397 C396 1.334 . S
C397 C398 1.287 . S
C398 C397 1.287 . S
C398 C399 1.524 . S
C398 H417 0.913 . S
C399 H375 0.950 . S
C399 C398 1.524 . S
C399 C400 1.415 . S
C400 H376 0.950 . S
C400 C395 1.363 . S
C400 C399 1.415 . S
C401 H377 0.951 . S
C401 C402 1.366 . S
C401 C403 1.388 . S
C402 C401 1.366 . S
C402 C406 1.385 . S
C403 H378 0.951 . S
C403 C401 1.388 . S
C403 C404 1.366 . S
C404 C403 1.366 . S
C404 C405 1.414 . S
C404 C407 1.499 . S
C405 H379 0.950 . S
C405 C404 1.414 . S
C405 C406 1.374 . S
C406 H380 0.950 . S
C406 C402 1.385 . S
C406 C405 1.374 . S
C407 C404 1.499 . S
C407 C408 1.373 . S
C407 C409 1.389 . S
C408 H381 0.950 . S
C408 C394 1.377 1_565 S
C408 C407 1.373 . S
C409 C393 1.377 1_565 S
C409 C407 1.389 . S
C409 C410 1.524 . S
C410 C409 1.524 . S
C410 C411 1.397 . S
C410 C415 1.363 . S
C411 H382 0.950 . S
C411 C410 1.397 . S
C411 C412 1.334 . S
C412 H383 0.950 . S
C412 C411 1.334 . S
C412 C413 1.287 . S
C413 C412 1.287 . S
C413 C414 1.524 . S
C413 H416 0.999 . S
C414 H384 0.950 . S
C414 C413 1.524 . S
C414 C415 1.415 . S
C415 H385 0.950 . S
C415 C410 1.363 . S
C415 C414 1.415 . S
H416 C413 0.999 . S
H417 C398 0.913 . S
H418 C436 0.951 . S
H419 C438 0.951 . S
H420 C440 0.950 . S
H421 C441 0.950 . S
H422 C443 0.950 . S
H423 C446 0.950 . S
H424 C447 0.950 . S
H425 C449 0.950 . S
H426 C450 0.950 . S
H427 C451 0.951 . S
H428 C453 0.951 . S
H429 C455 0.950 . S
H430 C456 0.950 . S
H431 C458 0.950 . S
H432 C461 0.950 . S
H433 C462 0.950 . S
H434 C464 0.950 . S
H435 C465 0.950 . S
C436 H418 0.951 . S
C436 C437 1.366 . S
C436 C438 1.388 . S
C437 C436 1.366 . S
C437 C441 1.385 . S
C438 H419 0.951 . S
C438 C436 1.388 . S
C438 C439 1.366 . S
C439 C438 1.366 . S
C439 C440 1.414 . S
C439 C442 1.499 . S
C440 H420 0.950 . S
C440 C439 1.414 . S
C440 C441 1.374 . S
C441 H421 0.950 . S
C441 C437 1.385 . S
C441 C440 1.374 . S
C442 C439 1.499 . S
C442 C443 1.373 . S
C442 C444 1.389 . S
C443 H422 0.950 . S
C443 C442 1.373 . S
C443 C459 1.377 . S
C444 C442 1.389 . S
C444 C445 1.524 . S
C444 C458 1.377 . S
C445 C444 1.524 . S
C445 C446 1.397 . S
C445 C450 1.363 . S
C446 H423 0.950 . S
C446 C445 1.397 . S
C446 C447 1.334 . S
C447 H424 0.950 . S
C447 C446 1.334 . S
C447 C448 1.287 . S
C448 C447 1.287 . S
C448 C449 1.524 . S
C448 H467 0.913 . S
C449 H425 0.950 . S
C449 C448 1.524 . S
C449 C450 1.415 . S
C450 H426 0.950 . S
C450 C445 1.363 . S
C450 C449 1.415 . S
C451 H427 0.951 . S
C451 C452 1.366 . S
C451 C453 1.388 . S
C452 C451 1.366 . S
C452 C456 1.385 . S
C453 H428 0.951 . S
C453 C451 1.388 . S
C453 C454 1.366 . S
C454 C453 1.366 . S
C454 C455 1.414 . S
C454 C457 1.499 . S
C455 H429 0.950 . S
C455 C454 1.414 . S
C455 C456 1.374 . S
C456 H430 0.950 . S
C456 C452 1.385 . S
C456 C455 1.374 . S
C457 C454 1.499 . S
C457 C458 1.373 . S
C457 C459 1.389 . S
C458 H431 0.950 . S
C458 C444 1.377 . S
C458 C457 1.373 . S
C459 C443 1.377 . S
C459 C457 1.389 . S
C459 C460 1.524 . S
C460 C459 1.524 . S
C460 C461 1.397 . S
C460 C465 1.363 . S
C461 H432 0.950 . S
C461 C460 1.397 . S
C461 C462 1.334 . S
C462 H433 0.950 . S
C462 C461 1.334 . S
C462 C463 1.287 . S
C463 C462 1.287 . S
C463 C464 1.524 . S
C463 H466 0.999 . S
C464 H434 0.950 . S
C464 C463 1.524 . S
C464 C465 1.415 . S
C465 H435 0.950 . S
C465 C460 1.363 . S
C465 C464 1.415 . S
H466 C463 0.999 . S
H467 C448 0.913 . S
H468 C486 0.951 . S
H469 C488 0.951 . S
H470 C490 0.950 . S
H471 C491 0.950 . S
H472 C493 0.950 . S
H473 C496 0.950 . S
H474 C497 0.950 . S
H475 C499 0.950 . S
H476 C500 0.950 . S
H477 C501 0.951 . S
H478 C503 0.951 . S
H479 C505 0.950 . S
H480 C506 0.950 . S
H481 C508 0.950 . S
H482 C511 0.950 . S
H483 C512 0.950 . S
H484 C514 0.950 . S
H485 C515 0.950 . S
C486 H468 0.951 . S
C486 C487 1.366 . S
C486 C488 1.388 . S
C487 C486 1.366 . S
C487 C491 1.385 . S
C488 H469 0.951 . S
C488 C486 1.388 . S
C488 C489 1.366 . S
C489 C488 1.366 . S
C489 C490 1.414 . S
C489 C492 1.499 . S
C490 H470 0.950 . S
C490 C489 1.414 . S
C490 C491 1.374 . S
C491 H471 0.950 . S
C491 C487 1.385 . S
C491 C490 1.374 . S
C492 C489 1.499 . S
C492 C493 1.373 . S
C492 C494 1.389 . S
C493 H472 0.950 . S
C493 C492 1.373 . S
C493 C509 1.377 . S
C494 C492 1.389 . S
C494 C495 1.524 . S
C494 C508 1.377 . S
C495 C494 1.524 . S
C495 C496 1.397 . S
C495 C500 1.363 . S
C496 H473 0.950 . S
C496 C495 1.397 . S
C496 C497 1.334 . S
C497 H474 0.950 . S
C497 C496 1.334 . S
C497 C498 1.287 . S
C498 C497 1.287 . S
C498 C499 1.524 . S
C498 H517 0.913 . S
C499 H475 0.950 . S
C499 C498 1.524 . S
C499 C500 1.415 . S
C500 H476 0.950 . S
C500 C495 1.363 . S
C500 C499 1.415 . S
C501 H477 0.951 . S
C501 C502 1.366 . S
C501 C503 1.388 . S
C502 C501 1.366 . S
C502 C506 1.385 . S
C503 H478 0.951 . S
C503 C501 1.388 . S
C503 C504 1.366 . S
C504 C503 1.366 . S
C504 C505 1.414 . S
C504 C507 1.499 . S
C505 H479 0.950 . S
C505 C504 1.414 . S
C505 C506 1.374 . S
C506 H480 0.950 . S
C506 C502 1.385 . S
C506 C505 1.374 . S
C507 C504 1.499 . S
C507 C508 1.373 . S
C507 C509 1.389 . S
C508 H481 0.950 . S
C508 C494 1.377 . S
C508 C507 1.373 . S
C509 C493 1.377 . S
C509 C507 1.389 . S
C509 C510 1.524 . S
C510 C509 1.524 . S
C510 C511 1.397 . S
C510 C515 1.363 . S
C511 H482 0.950 . S
C511 C510 1.397 . S
C511 C512 1.334 . S
C512 H483 0.950 . S
C512 C511 1.334 . S
C512 C513 1.287 . S
C513 C512 1.287 . S
C513 C514 1.524 . S
C513 H516 0.999 . S
C514 H484 0.950 . S
C514 C513 1.524 . S
C514 C515 1.415 . S
C515 H485 0.950 . S
C515 C510 1.363 . S
C515 C514 1.415 . S
H516 C513 0.999 . S
H517 C498 0.913 . S
H518 C536 0.951 . S
H519 C538 0.951 1_655 S
H520 C540 0.950 . S
H521 C541 0.950 . S
H522 C543 0.950 . S
H523 C546 0.950 . S
H524 C547 0.950 . S
H525 C549 0.950 . S
H526 C550 0.950 . S
H527 C551 0.951 . S
H528 C553 0.951 1_455 S
H529 C555 0.950 . S
H530 C556 0.950 . S
H531 C558 0.950 . S
H532 C561 0.950 . S
H533 C562 0.950 . S
H534 C564 0.950 . S
H535 C565 0.950 . S
C536 H518 0.951 . S
C536 C537 1.366 . S
C536 C538 1.388 . S
C537 C536 1.366 . S
C537 C541 1.385 . S
C538 H519 0.951 1_455 S
C538 C536 1.388 . S
C538 C539 1.366 . S
C539 C538 1.366 . S
C539 C540 1.414 . S
C539 C542 1.499 . S
C540 H520 0.950 . S
C540 C539 1.414 . S
C540 C541 1.374 . S
C541 H521 0.950 . S
C541 C537 1.385 . S
C541 C540 1.374 . S
C542 C539 1.499 . S
C542 C543 1.373 . S
C542 C544 1.389 1_455 S
C543 H522 0.950 . S
C543 C542 1.373 . S
C543 C559 1.377 . S
C544 C542 1.389 1_655 S
C544 C545 1.524 . S
C544 C558 1.377 . S
C545 C544 1.524 . S
C545 C546 1.397 1_655 S
C545 C550 1.363 . S
C546 H523 0.950 . S
C546 C545 1.397 1_455 S
C546 C547 1.334 . S
C547 H524 0.950 . S
C547 C546 1.334 . S
C547 C548 1.287 1_455 S
C548 C547 1.287 1_655 S
C548 C549 1.524 . S
C548 H567 0.913 . S
C549 H525 0.950 . S
C549 C548 1.524 . S
C549 C550 1.415 . S
C550 H526 0.950 . S
C550 C545 1.363 . S
C550 C549 1.415 . S
C551 H527 0.951 . S
C551 C552 1.366 . S
C551 C553 1.388 . S
C552 C551 1.366 . S
C552 C556 1.385 . S
C553 H528 0.951 1_655 S
C553 C551 1.388 . S
C553 C554 1.366 . S
C554 C553 1.366 . S
C554 C555 1.414 . S
C554 C557 1.499 . S
C555 H529 0.950 . S
C555 C554 1.414 . S
C555 C556 1.374 . S
C556 H530 0.950 . S
C556 C552 1.385 . S
C556 C555 1.374 . S
C557 C554 1.499 . S
C557 C558 1.373 . S
C557 C559 1.389 1_655 S
C558 H531 0.950 . S
C558 C544 1.377 . S
C558 C557 1.373 . S
C559 C543 1.377 . S
C559 C557 1.389 1_455 S
C559 C560 1.524 . S
C560 C559 1.524 . S
C560 C561 1.397 1_455 S
C560 C565 1.363 . S
C561 H532 0.950 . S
C561 C560 1.397 1_655 S
C561 C562 1.334 . S
C562 H533 0.950 . S
C562 C561 1.334 . S
C562 C563 1.287 1_655 S
C563 C562 1.287 1_455 S
C563 C564 1.524 . S
C563 H566 0.999 . S
C564 H534 0.950 . S
C564 C563 1.524 . S
C564 C565 1.415 . S
C565 H535 0.950 . S
C565 C560 1.363 . S
C565 C564 1.415 . S
H566 C563 0.999 . S
H567 C548 0.913 . S
H568 C586 0.951 . S
H569 C588 0.951 . S
H570 C590 0.950 . S
H571 C591 0.950 . S
H572 C593 0.950 . S
H573 C596 0.950 . S
H574 C597 0.950 . S
H575 C599 0.950 . S
H576 C600 0.950 . S
H577 C601 0.951 . S
H578 C603 0.951 . S
H579 C605 0.950 . S
H580 C606 0.950 . S
H581 C608 0.950 . S
H582 C611 0.950 . S
H583 C612 0.950 . S
H584 C614 0.950 . S
H585 C615 0.950 . S
C586 H568 0.951 . S
C586 C587 1.366 . S
C586 C588 1.388 . S
C587 C586 1.366 . S
C587 C591 1.385 . S
C588 H569 0.951 . S
C588 C586 1.388 . S
C588 C589 1.366 . S
C589 C588 1.366 . S
C589 C590 1.414 . S
C589 C592 1.499 . S
C590 H570 0.950 . S
C590 C589 1.414 . S
C590 C591 1.374 . S
C591 H571 0.950 . S
C591 C587 1.385 . S
C591 C590 1.374 . S
C592 C589 1.499 . S
C592 C593 1.373 . S
C592 C594 1.389 1_545 S
C593 H572 0.950 . S
C593 C592 1.373 . S
C593 C609 1.377 . S
C594 C592 1.389 1_565 S
C594 C595 1.524 . S
C594 C608 1.377 . S
C595 C594 1.524 . S
C595 C596 1.397 . S
C595 C600 1.363 . S
C596 H573 0.950 . S
C596 C595 1.397 . S
C596 C597 1.334 . S
C597 H574 0.950 . S
C597 C596 1.334 . S
C597 C598 1.287 . S
C598 C597 1.287 . S
C598 C599 1.524 . S
C598 H617 0.913 . S
C599 H575 0.950 . S
C599 C598 1.524 . S
C599 C600 1.415 . S
C600 H576 0.950 . S
C600 C595 1.363 . S
C600 C599 1.415 . S
C601 H577 0.951 . S
C601 C602 1.366 . S
C601 C603 1.388 . S
C602 C601 1.366 . S
C602 C606 1.385 . S
C603 H578 0.951 . S
C603 C601 1.388 . S
C603 C604 1.366 . S
C604 C603 1.366 . S
C604 C605 1.414 . S
C604 C607 1.499 . S
C605 H579 0.950 . S
C605 C604 1.414 . S
C605 C606 1.374 . S
C606 H580 0.950 . S
C606 C602 1.385 . S
C606 C605 1.374 . S
C607 C604 1.499 . S
C607 C608 1.373 . S
C607 C609 1.389 1_565 S
C608 H581 0.950 . S
C608 C594 1.377 . S
C608 C607 1.373 . S
C609 C593 1.377 . S
C609 C607 1.389 1_545 S
C609 C610 1.524 . S
C610 C609 1.524 . S
C610 C611 1.397 . S
C610 C615 1.363 . S
C611 H582 0.950 . S
C611 C610 1.397 . S
C611 C612 1.334 . S
C612 H583 0.950 . S
C612 C611 1.334 . S
C612 C613 1.287 . S
C613 C612 1.287 . S
C613 C614 1.524 . S
C613 H616 0.999 . S
C614 H584 0.950 . S
C614 C613 1.524 . S
C614 C615 1.415 . S
C615 H585 0.950 . S
C615 C610 1.363 . S
C615 C614 1.415 . S
H616 C613 0.999 . S
H617 C598 0.913 . S
H618 C636 0.951 . S
H619 C638 0.951 . S
H620 C640 0.950 . S
H621 C641 0.950 . S
H622 C643 0.950 . S
H623 C646 0.950 . S
H624 C647 0.950 . S
H625 C649 0.950 . S
H626 C650 0.950 . S
H627 C651 0.951 . S
H628 C653 0.951 . S
H629 C655 0.950 . S
H630 C656 0.950 . S
H631 C658 0.950 . S
H632 C661 0.950 . S
H633 C662 0.950 . S
H634 C664 0.950 . S
H635 C665 0.950 . S
C636 H618 0.951 . S
C636 C637 1.366 . S
C636 C638 1.388 . S
C637 C636 1.366 . S
C637 C641 1.385 . S
C638 H619 0.951 . S
C638 C636 1.388 . S
C638 C639 1.366 . S
C639 C638 1.366 . S
C639 C640 1.414 . S
C639 C642 1.499 . S
C640 H620 0.950 . S
C640 C639 1.414 . S
C640 C641 1.374 . S
C641 H621 0.950 . S
C641 C637 1.385 . S
C641 C640 1.374 . S
C642 C639 1.499 . S
C642 C643 1.373 . S
C642 C644 1.389 . S
C643 H622 0.950 . S
C643 C642 1.373 . S
C643 C659 1.377 . S
C644 C642 1.389 . S
C644 C645 1.524 . S
C644 C658 1.377 . S
C645 C644 1.524 . S
C645 C646 1.397 . S
C645 C650 1.363 . S
C646 H623 0.950 . S
C646 C645 1.397 . S
C646 C647 1.334 . S
C647 H624 0.950 . S
C647 C646 1.334 . S
C647 C648 1.287 . S
C648 C647 1.287 . S
C648 C649 1.524 . S
C648 H667 0.913 . S
C649 H625 0.950 . S
C649 C648 1.524 . S
C649 C650 1.415 . S
C650 H626 0.950 . S
C650 C645 1.363 . S
C650 C649 1.415 . S
C651 H627 0.951 . S
C651 C652 1.366 . S
C651 C653 1.388 . S
C652 C651 1.366 . S
C652 C656 1.385 . S
C653 H628 0.951 . S
C653 C651 1.388 . S
C653 C654 1.366 . S
C654 C653 1.366 . S
C654 C655 1.414 . S
C654 C657 1.499 . S
C655 H629 0.950 . S
C655 C654 1.414 . S
C655 C656 1.374 . S
C656 H630 0.950 . S
C656 C652 1.385 . S
C656 C655 1.374 . S
C657 C654 1.499 . S
C657 C658 1.373 . S
C657 C659 1.389 . S
C658 H631 0.950 . S
C658 C644 1.377 . S
C658 C657 1.373 . S
C659 C643 1.377 . S
C659 C657 1.389 . S
C659 C660 1.524 . S
C660 C659 1.524 . S
C660 C661 1.397 . S
C660 C665 1.363 . S
C661 H632 0.950 . S
C661 C660 1.397 . S
C661 C662 1.334 . S
C662 H633 0.950 . S
C662 C661 1.334 . S
C662 C663 1.287 . S
C663 C662 1.287 . S
C663 C664 1.524 . S
C663 H666 0.999 . S
C664 H634 0.950 . S
C664 C663 1.524 . S
C664 C665 1.415 . S
C665 H635 0.950 . S
C665 C660 1.363 . S
C665 C664 1.415 . S
H666 C663 0.999 . S
H667 C648 0.913 . S
H668 C686 0.951 . S
H669 C688 0.951 1_455 S
H670 C690 0.950 . S
H671 C691 0.950 . S
H672 C693 0.950 . S
H673 C696 0.950 1_655 S
H674 C697 0.950 . S
H675 C699 0.950 . S
H676 C700 0.950 . S
H677 C701 0.951 . S
H678 C703 0.951 1_655 S
H679 C705 0.950 . S
H680 C706 0.950 . S
H681 C708 0.950 . S
H682 C711 0.950 1_455 S
H683 C712 0.950 . S
H684 C714 0.950 . S
H685 C715 0.950 . S
C686 H668 0.951 . S
C686 C687 1.366 . S
C686 C688 1.388 . S
C687 C686 1.366 . S
C687 C691 1.385 . S
C688 H669 0.951 1_655 S
C688 C686 1.388 . S
C688 C689 1.366 . S
C689 C688 1.366 . S
C689 C690 1.414 . S
C689 C692 1.499 . S
C690 H670 0.950 . S
C690 C689 1.414 . S
C690 C691 1.374 . S
C691 H671 0.950 . S
C691 C687 1.385 . S
C691 C690 1.374 . S
C692 C689 1.499 . S
C692 C693 1.373 . S
C692 C694 1.389 1_655 S
C693 H672 0.950 . S
C693 C692 1.373 . S
C693 C709 1.377 . S
C694 C692 1.389 1_455 S
C694 C695 1.524 . S
C694 C708 1.377 . S
C695 C694 1.524 . S
C695 C696 1.397 . S
C695 C700 1.363 . S
C696 H673 0.950 1_455 S
C696 C695 1.397 . S
C696 C697 1.334 . S
C697 H674 0.950 . S
C697 C696 1.334 . S
C697 C698 1.287 . S
C698 C697 1.287 . S
C698 C699 1.524 . S
C698 H717 0.913 . S
C699 H675 0.950 . S
C699 C698 1.524 . S
C699 C700 1.415 . S
C700 H676 0.950 . S
C700 C695 1.363 . S
C700 C699 1.415 . S
C701 H677 0.951 . S
C701 C702 1.366 . S
C701 C703 1.388 . S
C702 C701 1.366 . S
C702 C706 1.385 . S
C703 H678 0.951 1_455 S
C703 C701 1.388 . S
C703 C704 1.366 . S
C704 C703 1.366 . S
C704 C705 1.414 . S
C704 C707 1.499 . S
C705 H679 0.950 . S
C705 C704 1.414 . S
C705 C706 1.374 . S
C706 H680 0.950 . S
C706 C702 1.385 . S
C706 C705 1.374 . S
C707 C704 1.499 . S
C707 C708 1.373 . S
C707 C709 1.389 1_455 S
C708 H681 0.950 . S
C708 C694 1.377 . S
C708 C707 1.373 . S
C709 C693 1.377 . S
C709 C707 1.389 1_655 S
C709 C710 1.524 . S
C710 C709 1.524 . S
C710 C711 1.397 . S
C710 C715 1.363 . S
C711 H682 0.950 1_655 S
C711 C710 1.397 . S
C711 C712 1.334 . S
C712 H683 0.950 . S
C712 C711 1.334 . S
C712 C713 1.287 . S
C713 C712 1.287 . S
C713 C714 1.524 . S
C713 H716 0.999 . S
C714 H684 0.950 . S
C714 C713 1.524 . S
C714 C715 1.415 . S
C715 H685 0.950 . S
C715 C710 1.363 . S
C715 C714 1.415 . S
H716 C713 0.999 . S
H717 C698 0.913 . S
H718 C736 0.951 . S
H719 C738 0.951 . S
H720 C740 0.950 . S
H721 C741 0.950 . S
H722 C743 0.950 . S
H723 C746 0.950 . S
H724 C747 0.950 . S
H725 C749 0.950 . S
H726 C750 0.950 . S
H727 C751 0.951 . S
H728 C753 0.951 . S
H729 C755 0.950 . S
H730 C756 0.950 . S
H731 C758 0.950 . S
H732 C761 0.950 . S
H733 C762 0.950 . S
H734 C764 0.950 . S
H735 C765 0.950 . S
C736 H718 0.951 . S
C736 C737 1.366 . S
C736 C738 1.388 . S
C737 C736 1.366 . S
C737 C741 1.385 . S
C738 H719 0.951 . S
C738 C736 1.388 . S
C738 C739 1.366 . S
C739 C738 1.366 . S
C739 C740 1.414 . S
C739 C742 1.499 . S
C740 H720 0.950 . S
C740 C739 1.414 . S
C740 C741 1.374 . S
C741 H721 0.950 . S
C741 C737 1.385 . S
C741 C740 1.374 . S
C742 C739 1.499 . S
C742 C743 1.373 1_565 S
C742 C744 1.389 . S
C743 H722 0.950 . S
C743 C742 1.373 1_545 S
C743 C759 1.377 . S
C744 C742 1.389 . S
C744 C745 1.524 . S
C744 C758 1.377 . S
C745 C744 1.524 . S
C745 C746 1.397 . S
C745 C750 1.363 . S
C746 H723 0.950 . S
C746 C745 1.397 . S
C746 C747 1.334 . S
C747 H724 0.950 . S
C747 C746 1.334 . S
C747 C748 1.287 . S
C748 C747 1.287 . S
C748 C749 1.524 . S
C748 H767 0.913 . S
C749 H725 0.950 . S
C749 C748 1.524 . S
C749 C750 1.415 . S
C750 H726 0.950 . S
C750 C745 1.363 . S
C750 C749 1.415 . S
C751 H727 0.951 . S
C751 C752 1.366 . S
C751 C753 1.388 . S
C752 C751 1.366 . S
C752 C756 1.385 . S
C753 H728 0.951 . S
C753 C751 1.388 . S
C753 C754 1.366 . S
C754 C753 1.366 . S
C754 C755 1.414 . S
C754 C757 1.499 . S
C755 H729 0.950 . S
C755 C754 1.414 . S
C755 C756 1.374 . S
C756 H730 0.950 . S
C756 C752 1.385 . S
C756 C755 1.374 . S
C757 C754 1.499 . S
C757 C758 1.373 1_545 S
C757 C759 1.389 . S
C758 H731 0.950 . S
C758 C744 1.377 . S
C758 C757 1.373 1_565 S
C759 C743 1.377 . S
C759 C757 1.389 . S
C759 C760 1.524 . S
C760 C759 1.524 . S
C760 C761 1.397 . S
C760 C765 1.363 . S
C761 H732 0.950 . S
C761 C760 1.397 . S
C761 C762 1.334 . S
C762 H733 0.950 . S
C762 C761 1.334 . S
C762 C763 1.287 . S
C763 C762 1.287 . S
C763 C764 1.524 . S
C763 H766 0.999 . S
C764 H734 0.950 . S
C764 C763 1.524 . S
C764 C765 1.415 . S
C765 H735 0.950 . S
C765 C760 1.363 . S
C765 C764 1.415 . S
H766 C763 0.999 . S
H767 C748 0.913 . S
H768 C786 0.951 . S
H769 C788 0.951 . S
H770 C790 0.950 . S
H771 C791 0.950 1_565 S
H772 C793 0.950 . S
H773 C796 0.950 . S
H774 C797 0.950 . S
H775 C799 0.950 . S
H776 C800 0.950 . S
H777 C801 0.951 . S
H778 C803 0.951 . S
H779 C805 0.950 . S
H780 C806 0.950 . S
H781 C808 0.950 . S
H782 C811 0.950 . S
H783 C812 0.950 . S
H784 C814 0.950 . S
H785 C815 0.950 . S
C786 H768 0.951 . S
C786 C787 1.366 . S
C786 C788 1.388 . S
C787 C786 1.366 . S
C787 C791 1.385 . S
C788 H769 0.951 . S
C788 C786 1.388 . S
C788 C789 1.366 . S
C789 C788 1.366 . S
C789 C790 1.414 . S
C789 C792 1.499 . S
C790 H770 0.950 . S
C790 C789 1.414 . S
C790 C791 1.374 . S
C791 H771 0.950 1_545 S
C791 C787 1.385 . S
C791 C790 1.374 . S
C792 C789 1.499 . S
C792 C793 1.373 . S
C792 C794 1.389 . S
C793 H772 0.950 . S
C793 C792 1.373 . S
C793 C809 1.377 . S
C794 C792 1.389 . S
C794 C795 1.524 . S
C794 C808 1.377 . S
C795 C794 1.524 . S
C795 C796 1.397 . S
C795 C800 1.363 . S
C796 H773 0.950 . S
C796 C795 1.397 . S
C796 C797 1.334 . S
C797 H774 0.950 . S
C797 C796 1.334 . S
C797 C798 1.287 . S
C798 C797 1.287 . S
C798 C799 1.524 . S
C798 H817 0.913 . S
C799 H775 0.950 . S
C799 C798 1.524 . S
C799 C800 1.415 . S
C800 H776 0.950 . S
C800 C795 1.363 . S
C800 C799 1.415 . S
C801 H777 0.951 . S
C801 C802 1.366 . S
C801 C803 1.388 . S
C802 C801 1.366 . S
C802 C806 1.385 . S
C803 H778 0.951 . S
C803 C801 1.388 . S
C803 C804 1.366 . S
C804 C803 1.366 . S
C804 C805 1.414 . S
C804 C807 1.499 . S
C805 H779 0.950 . S
C805 C804 1.414 . S
C805 C806 1.374 . S
C806 H780 0.950 . S
C806 C802 1.385 . S
C806 C805 1.374 . S
C807 C804 1.499 . S
C807 C808 1.373 . S
C807 C809 1.389 . S
C808 H781 0.950 . S
C808 C794 1.377 . S
C808 C807 1.373 . S
C809 C793 1.377 . S
C809 C807 1.389 . S
C809 C810 1.524 . S
C810 C809 1.524 . S
C810 C811 1.397 . S
C810 C815 1.363 . S
C811 H782 0.950 . S
C811 C810 1.397 . S
C811 C812 1.334 . S
C812 H783 0.950 . S
C812 C811 1.334 . S
C812 C813 1.287 . S
C813 C812 1.287 . S
C813 C814 1.524 . S
C813 H816 0.999 . S
C814 H784 0.950 . S
C814 C813 1.524 . S
C814 C815 1.415 . S
C815 H785 0.950 . S
C815 C810 1.363 . S
C815 C814 1.415 . S
H816 C813 0.999 . S
H817 C798 0.913 . S
H818 C836 0.951 . S
H819 C838 0.951 . S
H820 C840 0.950 . S
H821 C841 0.950 . S
H822 C843 0.950 . S
H823 C846 0.950 . S
H824 C847 0.950 . S
H825 C849 0.950 . S
H826 C850 0.950 . S
H827 C851 0.951 . S
H828 C853 0.951 . S
H829 C855 0.950 . S
H830 C856 0.950 . S
H831 C858 0.950 . S
H832 C861 0.950 . S
H833 C862 0.950 . S
H834 C864 0.950 . S
H835 C865 0.950 . S
C836 H818 0.951 . S
C836 C837 1.366 . S
C836 C838 1.388 . S
C837 C836 1.366 . S
C837 C841 1.385 . S
C838 H819 0.951 . S
C838 C836 1.388 . S
C838 C839 1.366 . S
C839 C838 1.366 . S
C839 C840 1.414 . S
C839 C842 1.499 . S
C840 H820 0.950 . S
C840 C839 1.414 . S
C840 C841 1.374 . S
C841 H821 0.950 . S
C841 C837 1.385 . S
C841 C840 1.374 . S
C842 C839 1.499 . S
C842 C843 1.373 . S
C842 C844 1.389 . S
C843 H822 0.950 . S
C843 C842 1.373 . S
C843 C859 1.377 . S
C844 C842 1.389 . S
C844 C845 1.524 . S
C844 C858 1.377 . S
C845 C844 1.524 . S
C845 C846 1.397 . S
C845 C850 1.363 . S
C846 H823 0.950 . S
C846 C845 1.397 . S
C846 C847 1.334 . S
C847 H824 0.950 . S
C847 C846 1.334 . S
C847 C848 1.287 . S
C848 C847 1.287 . S
C848 C849 1.524 . S
C848 H867 0.913 . S
C849 H825 0.950 . S
C849 C848 1.524 . S
C849 C850 1.415 . S
C850 H826 0.950 . S
C850 C845 1.363 . S
C850 C849 1.415 . S
C851 H827 0.951 . S
C851 C852 1.366 . S
C851 C853 1.388 . S
C852 C851 1.366 . S
C852 C856 1.385 . S
C853 H828 0.951 . S
C853 C851 1.388 . S
C853 C854 1.366 . S
C854 C853 1.366 . S
C854 C855 1.414 . S
C854 C857 1.499 . S
C855 H829 0.950 . S
C855 C854 1.414 . S
C855 C856 1.374 . S
C856 H830 0.950 . S
C856 C852 1.385 . S
C856 C855 1.374 . S
C857 C854 1.499 . S
C857 C858 1.373 . S
C857 C859 1.389 . S
C858 H831 0.950 . S
C858 C844 1.377 . S
C858 C857 1.373 . S
C859 C843 1.377 . S
C859 C857 1.389 . S
C859 C860 1.524 . S
C860 C859 1.524 . S
C860 C861 1.397 . S
C860 C865 1.363 . S
C861 H832 0.950 . S
C861 C860 1.397 . S
C861 C862 1.334 . S
C862 H833 0.950 . S
C862 C861 1.334 . S
C862 C863 1.287 . S
C863 C862 1.287 . S
C863 C864 1.524 . S
C863 H866 0.999 . S
C864 H834 0.950 . S
C864 C863 1.524 . S
C864 C865 1.415 . S
C865 H835 0.950 . S
C865 C860 1.363 . S
C865 C864 1.415 . S
H866 C863 0.999 . S
H867 C848 0.913 . S
H868 C886 0.951 1_455 S
H869 C888 0.951 . S
H870 C890 0.950 . S
H871 C891 0.950 . S
H872 C893 0.950 . S
H873 C896 0.950 . S
H874 C897 0.950 . S
H875 C899 0.950 . S
H876 C900 0.950 . S
H877 C901 0.951 . S
H878 C903 0.951 . S
H879 C905 0.950 . S
H880 C906 0.950 1_565 S
H881 C908 0.950 . S
H882 C911 0.950 . S
H883 C912 0.950 . S
H884 C914 0.950 . S
H885 C915 0.950 . S
C886 H868 0.951 1_655 S
C886 C887 1.366 . S
C886 C888 1.388 . S
C887 C886 1.366 . S
C887 C891 1.385 . S
C888 H869 0.951 . S
C888 C886 1.388 . S
C888 C889 1.366 . S
C889 C888 1.366 . S
C889 C890 1.414 . S
C889 C892 1.499 . S
C890 H870 0.950 . S
C890 C889 1.414 . S
C890 C891 1.374 . S
C891 H871 0.950 . S
C891 C887 1.385 . S
C891 C890 1.374 . S
C892 C889 1.499 . S
C892 C893 1.373 . S
C892 C894 1.389 . S
C893 H872 0.950 . S
C893 C892 1.373 . S
C893 C909 1.377 . S
C894 C892 1.389 . S
C894 C895 1.524 . S
C894 C908 1.377 . S
C895 C894 1.524 . S
C895 C896 1.397 . S
C895 C900 1.363 . S
C896 H873 0.950 . S
C896 C895 1.397 . S
C896 C897 1.334 . S
C897 H874 0.950 . S
C897 C896 1.334 . S
C897 C898 1.287 . S
C898 C897 1.287 . S
C898 C899 1.524 . S
C898 H917 0.913 . S
C899 H875 0.950 . S
C899 C898 1.524 . S
C899 C900 1.415 . S
C900 H876 0.950 . S
C900 C895 1.363 . S
C900 C899 1.415 . S
C901 H877 0.951 . S
C901 C902 1.366 . S
C901 C903 1.388 . S
C902 C901 1.366 . S
C902 C906 1.385 . S
C903 H878 0.951 . S
C903 C901 1.388 . S
C903 C904 1.366 . S
C904 C903 1.366 . S
C904 C905 1.414 . S
C904 C907 1.499 . S
C905 H879 0.950 . S
C905 C904 1.414 . S
C905 C906 1.374 . S
C906 H880 0.950 1_545 S
C906 C902 1.385 . S
C906 C905 1.374 . S
C907 C904 1.499 . S
C907 C908 1.373 . S
C907 C909 1.389 . S
C908 H881 0.950 . S
C908 C894 1.377 . S
C908 C907 1.373 . S
C909 C893 1.377 . S
C909 C907 1.389 . S
C909 C910 1.524 . S
C910 C909 1.524 . S
C910 C911 1.397 . S
C910 C915 1.363 . S
C911 H882 0.950 . S
C911 C910 1.397 . S
C911 C912 1.334 . S
C912 H883 0.950 . S
C912 C911 1.334 . S
C912 C913 1.287 . S
C913 C912 1.287 . S
C913 C914 1.524 . S
C913 H916 0.999 . S
C914 H884 0.950 . S
C914 C913 1.524 . S
C914 C915 1.415 . S
C915 H885 0.950 . S
C915 C910 1.363 . S
C915 C914 1.415 . S
H916 C913 0.999 . S
H917 C898 0.913 . S
H918 C936 0.951 1_545 S
H919 C938 0.951 . S
H920 C940 0.950 . S
H921 C941 0.950 . S
H922 C943 0.950 . S
H923 C946 0.950 . S
H924 C947 0.950 . S
H925 C949 0.950 . S
H926 C950 0.950 . S
H927 C951 0.951 . S
H928 C953 0.951 . S
H929 C955 0.950 . S
H930 C956 0.950 . S
H931 C958 0.950 . S
H932 C961 0.950 . S
H933 C962 0.950 . S
H934 C964 0.950 . S
H935 C965 0.950 . S
C936 H918 0.951 1_565 S
C936 C937 1.366 . S
C936 C938 1.388 . S
C937 C936 1.366 . S
C937 C941 1.385 . S
C938 H919 0.951 . S
C938 C936 1.388 . S
C938 C939 1.366 . S
C939 C938 1.366 . S
C939 C940 1.414 . S
C939 C942 1.499 . S
C940 H920 0.950 . S
C940 C939 1.414 . S
C940 C941 1.374 . S
C941 H921 0.950 . S
C941 C937 1.385 . S
C941 C940 1.374 . S
C942 C939 1.499 . S
C942 C943 1.373 . S
C942 C944 1.389 . S
C943 H922 0.950 . S
C943 C942 1.373 . S
C943 C959 1.377 . S
C944 C942 1.389 . S
C944 C945 1.524 . S
C944 C958 1.377 . S
C945 C944 1.524 . S
C945 C946 1.397 . S
C945 C950 1.363 . S
C946 H923 0.950 . S
C946 C945 1.397 . S
C946 C947 1.334 . S
C947 H924 0.950 . S
C947 C946 1.334 . S
C947 C948 1.287 . S
C948 C947 1.287 . S
C948 C949 1.524 . S
C948 H967 0.913 . S
C949 H925 0.950 . S
C949 C948 1.524 . S
C949 C950 1.415 . S
C950 H926 0.950 . S
C950 C945 1.363 . S
C950 C949 1.415 . S
C951 H927 0.951 . S
C951 C952 1.366 . S
C951 C953 1.388 . S
C952 C951 1.366 . S
C952 C956 1.385 . S
C953 H928 0.951 . S
C953 C951 1.388 . S
C953 C954 1.366 . S
C954 C953 1.366 . S
C954 C955 1.414 . S
C954 C957 1.499 . S
C955 H929 0.950 . S
C955 C954 1.414 . S
C955 C956 1.374 . S
C956 H930 0.950 . S
C956 C952 1.385 . S
C956 C955 1.374 . S
C957 C954 1.499 . S
C957 C958 1.373 . S
C957 C959 1.389 . S
C958 H931 0.950 . S
C958 C944 1.377 . S
C958 C957 1.373 . S
C959 C943 1.377 . S
C959 C957 1.389 . S
C959 C960 1.524 . S
C960 C959 1.524 . S
C960 C961 1.397 . S
C960 C965 1.363 . S
C961 H932 0.950 . S
C961 C960 1.397 . S
C961 C962 1.334 . S
C962 H933 0.950 . S
C962 C961 1.334 . S
C962 C963 1.287 . S
C963 C962 1.287 . S
C963 C964 1.524 . S
C963 H966 0.999 . S
C964 H934 0.950 . S
C964 C963 1.524 . S
C964 C965 1.415 . S
C965 H935 0.950 . S
C965 C960 1.363 . S
C965 C964 1.415 . S
H966 C963 0.999 . S
H967 C948 0.913 . S
H968 C986 0.951 . S
H969 C988 0.951 . S
H970 C990 0.950 . S
H971 C991 0.950 . S
H972 C993 0.950 . S
H973 C996 0.950 . S
H974 C997 0.950 . S
H975 C999 0.950 . S
H976 C1000 0.950 . S
H977 C1001 0.951 1_455 S
H978 C1003 0.951 . S
H979 C1005 0.950 . S
H980 C1006 0.950 . S
H981 C1008 0.950 . S
H982 C1011 0.950 . S
H983 C1012 0.950 1_455 S
H984 C1014 0.950 . S
H985 C1015 0.950 . S
C986 H968 0.951 . S
C986 C987 1.366 . S
C986 C988 1.388 . S
C987 C986 1.366 . S
C987 C991 1.385 . S
C988 H969 0.951 . S
C988 C986 1.388 . S
C988 C989 1.366 . S
C989 C988 1.366 . S
C989 C990 1.414 . S
C989 C992 1.499 . S
C990 H970 0.950 . S
C990 C989 1.414 . S
C990 C991 1.374 . S
C991 H971 0.950 . S
C991 C987 1.385 . S
C991 C990 1.374 . S
C992 C989 1.499 . S
C992 C993 1.373 . S
C992 C994 1.389 . S
C993 H972 0.950 . S
C993 C992 1.373 . S
C993 C1009 1.377 . S
C994 C992 1.389 . S
C994 C995 1.524 . S
C994 C1008 1.377 . S
C995 C994 1.524 . S
C995 C996 1.397 . S
C995 C1000 1.363 . S
C996 H973 0.950 . S
C996 C995 1.397 . S
C996 C997 1.334 . S
C997 H974 0.950 . S
C997 C996 1.334 . S
C997 C998 1.287 . S
C998 C997 1.287 . S
C998 C999 1.524 . S
C998 H1017 0.913 . S
C999 H975 0.950 . S
C999 C998 1.524 . S
C999 C1000 1.415 . S
C1000 H976 0.950 . S
C1000 C995 1.363 . S
C1000 C999 1.415 . S
C1001 H977 0.951 1_655 S
C1001 C1002 1.366 . S
C1001 C1003 1.388 . S
C1002 C1001 1.366 . S
C1002 C1006 1.385 . S
C1003 H978 0.951 . S
C1003 C1001 1.388 . S
C1003 C1004 1.366 . S
C1004 C1003 1.366 . S
C1004 C1005 1.414 . S
C1004 C1007 1.499 . S
C1005 H979 0.950 . S
C1005 C1004 1.414 . S
C1005 C1006 1.374 . S
C1006 H980 0.950 . S
C1006 C1002 1.385 . S
C1006 C1005 1.374 . S
C1007 C1004 1.499 . S
C1007 C1008 1.373 . S
C1007 C1009 1.389 . S
C1008 H981 0.950 . S
C1008 C994 1.377 . S
C1008 C1007 1.373 . S
C1009 C993 1.377 . S
C1009 C1007 1.389 . S
C1009 C1010 1.524 . S
C1010 C1009 1.524 . S
C1010 C1011 1.397 . S
C1010 C1015 1.363 . S
C1011 H982 0.950 . S
C1011 C1010 1.397 . S
C1011 C1012 1.334 . S
C1012 H983 0.950 1_655 S
C1012 C1011 1.334 . S
C1012 C1013 1.287 1_655 S
C1013 C1012 1.287 1_455 S
C1013 C1014 1.524 1_455 S
C1013 H1016 0.999 . S
C1014 H984 0.950 . S
C1014 C1013 1.524 1_655 S
C1014 C1015 1.415 . S
C1015 H985 0.950 . S
C1015 C1010 1.363 . S
C1015 C1014 1.415 . S
H1016 C1013 0.999 . S
H1017 C998 0.913 . S
H1018 C1036 0.951 . S
H1019 C1038 0.951 . S
H1020 C1040 0.950 . S
H1021 C1041 0.950 . S
H1022 C1043 0.950 . S
H1023 C1046 0.950 . S
H1024 C1047 0.950 1_545 S
H1025 C1049 0.950 . S
H1026 C1050 0.950 . S
H1027 C1051 0.951 1_655 S
H1028 C1053 0.951 . S
H1029 C1055 0.950 . S
H1030 C1056 0.950 . S
H1031 C1058 0.950 . S
H1032 C1061 0.950 . S
H1033 C1062 0.950 . S
H1034 C1064 0.950 . S
H1035 C1065 0.950 . S
C1036 H1018 0.951 . S
C1036 C1037 1.366 . S
C1036 C1038 1.388 . S
C1037 C1036 1.366 . S
C1037 C1041 1.385 . S
C1038 H1019 0.951 . S
C1038 C1036 1.388 . S
C1038 C1039 1.366 . S
C1039 C1038 1.366 . S
C1039 C1040 1.414 . S
C1039 C1042 1.499 . S
C1040 H1020 0.950 . S
C1040 C1039 1.414 . S
C1040 C1041 1.374 . S
C1041 H1021 0.950 . S
C1041 C1037 1.385 . S
C1041 C1040 1.374 . S
C1042 C1039 1.499 . S
C1042 C1043 1.373 . S
C1042 C1044 1.389 . S
C1043 H1022 0.950 . S
C1043 C1042 1.373 . S
C1043 C1059 1.377 . S
C1044 C1042 1.389 . S
C1044 C1045 1.524 . S
C1044 C1058 1.377 . S
C1045 C1044 1.524 . S
C1045 C1046 1.397 . S
C1045 C1050 1.363 . S
C1046 H1023 0.950 . S
C1046 C1045 1.397 . S
C1046 C1047 1.334 . S
C1047 H1024 0.950 1_565 S
C1047 C1046 1.334 . S
C1047 C1048 1.287 . S
C1048 C1047 1.287 . S
C1048 C1049 1.524 . S
C1048 H1067 0.913 1_565 S
C1049 H1025 0.950 . S
C1049 C1048 1.524 . S
C1049 C1050 1.415 . S
C1050 H1026 0.950 . S
C1050 C1045 1.363 . S
C1050 C1049 1.415 . S
C1051 H1027 0.951 1_455 S
C1051 C1052 1.366 . S
C1051 C1053 1.388 . S
C1052 C1051 1.366 . S
C1052 C1056 1.385 . S
C1053 H1028 0.951 . S
C1053 C1051 1.388 . S
C1053 C1054 1.366 . S
C1054 C1053 1.366 . S
C1054 C1055 1.414 . S
C1054 C1057 1.499 . S
C1055 H1029 0.950 . S
C1055 C1054 1.414 . S
C1055 C1056 1.374 . S
C1056 H1030 0.950 . S
C1056 C1052 1.385 . S
C1056 C1055 1.374 . S
C1057 C1054 1.499 . S
C1057 C1058 1.373 . S
C1057 C1059 1.389 . S
C1058 H1031 0.950 . S
C1058 C1044 1.377 . S
C1058 C1057 1.373 . S
C1059 C1043 1.377 . S
C1059 C1057 1.389 . S
C1059 C1060 1.524 . S
C1060 C1059 1.524 . S
C1060 C1061 1.397 . S
C1060 C1065 1.363 . S
C1061 H1032 0.950 . S
C1061 C1060 1.397 . S
C1061 C1062 1.334 . S
C1062 H1033 0.950 . S
C1062 C1061 1.334 . S
C1062 C1063 1.287 . S
C1063 C1062 1.287 . S
C1063 C1064 1.524 . S
C1063 H1066 0.999 . S
C1064 H1034 0.950 . S
C1064 C1063 1.524 . S
C1064 C1065 1.415 . S
C1065 H1035 0.950 . S
C1065 C1060 1.363 . S
C1065 C1064 1.415 . S
H1066 C1063 0.999 . S
H1067 C1048 0.913 1_545 S
H1068 C1086 0.951 . S
H1069 C1088 0.951 . S
H1070 C1090 0.950 . S
H1071 C1091 0.950 . S
H1072 C1093 0.950 . S
H1073 C1096 0.950 . S
H1074 C1097 0.950 . S
H1075 C1099 0.950 . S
H1076 C1100 0.950 . S
H1077 C1101 0.951 . S
H1078 C1103 0.951 . S
H1079 C1105 0.950 . S
H1080 C1106 0.950 . S
H1081 C1108 0.950 . S
H1082 C1111 0.950 . S
H1083 C1112 0.950 . S
H1084 C1114 0.950 . S
H1085 C1115 0.950 . S
C1086 H1068 0.951 . S
C1086 C1087 1.366 . S
C1086 C1088 1.388 . S
C1087 C1086 1.366 . S
C1087 C1091 1.385 . S
C1088 H1069 0.951 . S
C1088 C1086 1.388 . S
C1088 C1089 1.366 . S
C1089 C1088 1.366 . S
C1089 C1090 1.414 . S
C1089 C1092 1.499 . S
C1090 H1070 0.950 . S
C1090 C1089 1.414 . S
C1090 C1091 1.374 . S
C1091 H1071 0.950 . S
C1091 C1087 1.385 . S
C1091 C1090 1.374 . S
C1092 C1089 1.499 . S
C1092 C1093 1.373 . S
C1092 C1094 1.389 . S
C1093 H1072 0.950 . S
C1093 C1092 1.373 . S
C1093 C1109 1.377 . S
C1094 C1092 1.389 . S
C1094 C1095 1.524 . S
C1094 C1108 1.377 . S
C1095 C1094 1.524 . S
C1095 C1096 1.397 . S
C1095 C1100 1.363 . S
C1096 H1073 0.950 . S
C1096 C1095 1.397 . S
C1096 C1097 1.334 . S
C1097 H1074 0.950 . S
C1097 C1096 1.334 . S
C1097 C1098 1.287 . S
C1098 C1097 1.287 . S
C1098 C1099 1.524 . S
C1098 H1117 0.913 . S
C1099 H1075 0.950 . S
C1099 C1098 1.524 . S
C1099 C1100 1.415 . S
C1100 H1076 0.950 . S
C1100 C1095 1.363 . S
C1100 C1099 1.415 . S
C1101 H1077 0.951 . S
C1101 C1102 1.366 . S
C1101 C1103 1.388 . S
C1102 C1101 1.366 . S
C1102 C1106 1.385 . S
C1103 H1078 0.951 . S
C1103 C1101 1.388 . S
C1103 C1104 1.366 . S
C1104 C1103 1.366 . S
C1104 C1105 1.414 . S
C1104 C1107 1.499 . S
C1105 H1079 0.950 . S
C1105 C1104 1.414 . S
C1105 C1106 1.374 . S
C1106 H1080 0.950 . S
C1106 C1102 1.385 . S
C1106 C1105 1.374 . S
C1107 C1104 1.499 . S
C1107 C1108 1.373 . S
C1107 C1109 1.389 . S
C1108 H1081 0.950 . S
C1108 C1094 1.377 . S
C1108 C1107 1.373 . S
C1109 C1093 1.377 . S
C1109 C1107 1.389 . S
C1109 C1110 1.524 . S
C1110 C1109 1.524 . S
C1110 C1111 1.397 . S
C1110 C1115 1.363 . S
C1111 H1082 0.950 . S
C1111 C1110 1.397 . S
C1111 C1112 1.334 . S
C1112 H1083 0.950 . S
C1112 C1111 1.334 . S
C1112 C1113 1.287 . S
C1113 C1112 1.287 . S
C1113 C1114 1.524 . S
C1113 H1116 0.999 . S
C1114 H1084 0.950 . S
C1114 C1113 1.524 . S
C1114 C1115 1.415 . S
C1115 H1085 0.950 . S
C1115 C1110 1.363 . S
C1115 C1114 1.415 . S
H1116 C1113 0.999 . S
H1117 C1098 0.913 . S
H1118 C1136 0.951 1_455 S
H1119 C1138 0.951 . S
H1120 C1140 0.950 . S
H1121 C1141 0.950 . S
H1122 C1143 0.950 . S
H1123 C1146 0.950 1_655 S
H1124 C1147 0.950 . S
H1125 C1149 0.950 . S
H1126 C1150 0.950 . S
H1127 C1151 0.951 1_655 S
H1128 C1153 0.951 . S
H1129 C1155 0.950 . S
H1130 C1156 0.950 . S
H1131 C1158 0.950 . S
H1132 C1161 0.950 1_455 S
H1133 C1162 0.950 . S
H1134 C1164 0.950 . S
H1135 C1165 0.950 . S
C1136 H1118 0.951 1_655 S
C1136 C1137 1.366 . S
C1136 C1138 1.388 1_655 S
C1137 C1136 1.366 . S
C1137 C1141 1.385 . S
C1138 H1119 0.951 . S
C1138 C1136 1.388 1_455 S
C1138 C1139 1.366 1_455 S
C1139 C1138 1.366 1_655 S
C1139 C1140 1.414 . S
C1139 C1142 1.499 . S
C1140 H1120 0.950 . S
C1140 C1139 1.414 . S
C1140 C1141 1.374 . S
C1141 H1121 0.950 . S
C1141 C1137 1.385 . S
C1141 C1140 1.374 . S
C1142 C1139 1.499 . S
C1142 C1143 1.373 . S
C1142 C1144 1.389 1_655 S
C1143 H1122 0.950 . S
C1143 C1142 1.373 . S
C1143 C1159 1.377 . S
C1144 C1142 1.389 1_455 S
C1144 C1145 1.524 . S
C1144 C1158 1.377 . S
C1145 C1144 1.524 . S
C1145 C1146 1.397 . S
C1145 C1150 1.363 . S
C1146 H1123 0.950 1_455 S
C1146 C1145 1.397 . S
C1146 C1147 1.334 . S
C1147 H1124 0.950 . S
C1147 C1146 1.334 . S
C1147 C1148 1.287 . S
C1148 C1147 1.287 . S
C1148 C1149 1.524 . S
C1148 H1167 0.913 . S
C1149 H1125 0.950 . S
C1149 C1148 1.524 . S
C1149 C1150 1.415 . S
C1150 H1126 0.950 . S
C1150 C1145 1.363 . S
C1150 C1149 1.415 . S
C1151 H1127 0.951 1_455 S
C1151 C1152 1.366 . S
C1151 C1153 1.388 1_455 S
C1152 C1151 1.366 . S
C1152 C1156 1.385 . S
C1153 H1128 0.951 . S
C1153 C1151 1.388 1_655 S
C1153 C1154 1.366 1_655 S
C1154 C1153 1.366 1_455 S
C1154 C1155 1.414 . S
C1154 C1157 1.499 . S
C1155 H1129 0.950 . S
C1155 C1154 1.414 . S
C1155 C1156 1.374 . S
C1156 H1130 0.950 . S
C1156 C1152 1.385 . S
C1156 C1155 1.374 . S
C1157 C1154 1.499 . S
C1157 C1158 1.373 . S
C1157 C1159 1.389 1_455 S
C1158 H1131 0.950 . S
C1158 C1144 1.377 . S
C1158 C1157 1.373 . S
C1159 C1143 1.377 . S
C1159 C1157 1.389 1_655 S
C1159 C1160 1.524 . S
C1160 C1159 1.524 . S
C1160 C1161 1.397 . S
C1160 C1165 1.363 . S
C1161 H1132 0.950 1_655 S
C1161 C1160 1.397 . S
C1161 C1162 1.334 . S
C1162 H1133 0.950 . S
C1162 C1161 1.334 . S
C1162 C1163 1.287 . S
C1163 C1162 1.287 . S
C1163 C1164 1.524 . S
C1163 H1166 0.999 . S
C1164 H1134 0.950 . S
C1164 C1163 1.524 . S
C1164 C1165 1.415 . S
C1165 H1135 0.950 . S
C1165 C1160 1.363 . S
C1165 C1164 1.415 . S
H1166 C1163 0.999 . S
H1167 C1148 0.913 . S
H1168 C1186 0.951 . S
H1169 C1188 0.951 . S
H1170 C1190 0.950 . S
H1171 C1191 0.950 1_565 S
H1172 C1193 0.950 . S
H1173 C1196 0.950 . S
H1174 C1197 0.950 . S
H1175 C1199 0.950 . S
H1176 C1200 0.923 1_556 S
H1177 C1201 0.951 . S
H1178 C1203 0.951 . S
H1179 C1205 0.950 . S
H1180 C1206 0.950 1_545 S
H1181 C1208 0.950 . S
H1182 C1211 0.950 . S
H1183 C1212 0.950 . S
H1184 C1214 0.950 . S
H1185 C1215 0.923 1_554 S
C1186 H1168 0.951 . S
C1186 C1187 1.366 . S
C1186 C1188 1.388 . S
C1187 C1186 1.366 . S
C1187 C1191 1.385 . S
C1188 H1169 0.951 . S
C1188 C1186 1.388 . S
C1188 C1189 1.366 . S
C1189 C1188 1.366 . S
C1189 C1190 1.414 1_545 S
C1189 C1192 1.499 . S
C1190 H1170 0.950 . S
C1190 C1189 1.414 1_565 S
C1190 C1191 1.374 1_565 S
C1191 H1171 0.950 1_545 S
C1191 C1187 1.385 . S
C1191 C1190 1.374 1_545 S
C1192 C1189 1.499 . S
C1192 C1193 1.373 . S
C1192 C1194 1.389 . S
C1193 H1172 0.950 . S
C1193 C1192 1.373 . S
C1193 C1209 1.377 1_544 S
C1194 C1192 1.389 . S
C1194 C1195 1.524 . S
C1194 C1208 1.377 1_544 S
C1195 C1194 1.524 . S
C1195 C1196 1.397 1_545 S
C1195 C1200 1.363 . S
C1196 H1173 0.950 . S
C1196 C1195 1.397 1_565 S
C1196 C1197 1.334 . S
C1197 H1174 0.950 . S
C1197 C1196 1.334 . S
C1197 C1198 1.287 1_565 S
C1198 C1197 1.287 1_545 S
C1198 C1199 1.524 . S
C1198 H1217 0.913 . S
C1199 H1175 0.950 . S
C1199 C1198 1.524 . S
C1199 C1200 1.415 . S
C1200 H1176 0.923 1_554 S
C1200 C1195 1.363 . S
C1200 C1199 1.415 . S
C1201 H1177 0.951 . S
C1201 C1202 1.366 . S
C1201 C1203 1.388 . S
C1202 C1201 1.366 . S
C1202 C1206 1.385 . S
C1203 H1178 0.951 . S
C1203 C1201 1.388 . S
C1203 C1204 1.366 . S
C1204 C1203 1.366 . S
C1204 C1205 1.414 1_565 S
C1204 C1207 1.499 . S
C1205 H1179 0.950 . S
C1205 C1204 1.414 1_545 S
C1205 C1206 1.374 1_545 S
C1206 H1180 0.950 1_565 S
C1206 C1202 1.385 . S
C1206 C1205 1.374 1_565 S
C1207 C1204 1.499 . S
C1207 C1208 1.373 . S
C1207 C1209 1.389 . S
C1208 H1181 0.950 . S
C1208 C1194 1.377 1_566 S
C1208 C1207 1.373 . S
C1209 C1193 1.377 1_566 S
C1209 C1207 1.389 . S
C1209 C1210 1.524 . S
C1210 C1209 1.524 . S
C1210 C1211 1.397 1_565 S
C1210 C1215 1.363 . S
C1211 H1182 0.950 . S
C1211 C1210 1.397 1_545 S
C1211 C1212 1.334 . S
C1212 H1183 0.950 . S
C1212 C1211 1.334 . S
C1212 C1213 1.287 1_545 S
C1213 C1212 1.287 1_565 S
C1213 C1214 1.524 . S
C1213 H1216 0.999 . S
C1214 H1184 0.950 . S
C1214 C1213 1.524 . S
C1214 C1215 1.415 . S
C1215 H1185 0.923 1_556 S
C1215 C1210 1.363 . S
C1215 C1214 1.415 . S
H1216 C1213 0.999 . S
H1217 C1198 0.913 . S
H1218 C1236 0.951 . S
H1219 C1238 0.951 . S
H1220 C1240 0.950 . S
H1221 C1241 0.950 . S
H1222 C1243 0.950 . S
H1223 C1246 0.950 . S
H1224 C1247 0.950 . S
H1225 C1249 0.950 . S
H1226 C1250 0.950 . S
H1227 C1251 0.951 . S
H1228 C1253 0.951 . S
H1229 C1255 0.950 . S
H1230 C1256 0.950 . S
H1231 C1258 0.950 . S
H1232 C1261 0.950 . S
H1233 C1262 0.950 . S
H1234 C1264 0.950 . S
H1235 C1265 0.950 . S
C1236 H1218 0.951 . S
C1236 C1237 1.366 . S
C1236 C1238 1.388 . S
C1237 C1236 1.366 . S
C1237 C1241 1.385 . S
C1238 H1219 0.951 . S
C1238 C1236 1.388 . S
C1238 C1239 1.366 . S
C1239 C1238 1.366 . S
C1239 C1240 1.414 . S
C1239 C1242 1.499 . S
C1240 H1220 0.950 . S
C1240 C1239 1.414 . S
C1240 C1241 1.374 . S
C1241 H1221 0.950 . S
C1241 C1237 1.385 . S
C1241 C1240 1.374 . S
C1242 C1239 1.499 . S
C1242 C1243 1.373 . S
C1242 C1244 1.389 . S
C1243 H1222 0.950 . S
C1243 C1242 1.373 . S
C1243 C1259 1.377 . S
C1244 C1242 1.389 . S
C1244 C1245 1.524 . S
C1244 C1258 1.377 . S
C1245 C1244 1.524 . S
C1245 C1246 1.397 . S
C1245 C1250 1.363 . S
C1246 H1223 0.950 . S
C1246 C1245 1.397 . S
C1246 C1247 1.334 . S
C1247 H1224 0.950 . S
C1247 C1246 1.334 . S
C1247 C1248 1.287 . S
C1248 C1247 1.287 . S
C1248 C1249 1.524 . S
C1248 H1267 0.913 . S
C1249 H1225 0.950 . S
C1249 C1248 1.524 . S
C1249 C1250 1.415 . S
C1250 H1226 0.950 . S
C1250 C1245 1.363 . S
C1250 C1249 1.415 . S
C1251 H1227 0.951 . S
C1251 C1252 1.366 . S
C1251 C1253 1.388 . S
C1252 C1251 1.366 . S
C1252 C1256 1.385 . S
C1253 H1228 0.951 . S
C1253 C1251 1.388 . S
C1253 C1254 1.366 . S
C1254 C1253 1.366 . S
C1254 C1255 1.414 . S
C1254 C1257 1.499 . S
C1255 H1229 0.950 . S
C1255 C1254 1.414 . S
C1255 C1256 1.374 . S
C1256 H1230 0.950 . S
C1256 C1252 1.385 . S
C1256 C1255 1.374 . S
C1257 C1254 1.499 . S
C1257 C1258 1.373 . S
C1257 C1259 1.389 . S
C1258 H1231 0.950 . S
C1258 C1244 1.377 . S
C1258 C1257 1.373 . S
C1259 C1243 1.377 . S
C1259 C1257 1.389 . S
C1259 C1260 1.524 . S
C1260 C1259 1.524 . S
C1260 C1261 1.397 . S
C1260 C1265 1.363 . S
C1261 H1232 0.950 . S
C1261 C1260 1.397 . S
C1261 C1262 1.334 . S
C1262 H1233 0.950 . S
C1262 C1261 1.334 . S
C1262 C1263 1.287 . S
C1263 C1262 1.287 . S
C1263 C1264 1.524 . S
C1263 H1266 0.999 . S
C1264 H1234 0.950 . S
C1264 C1263 1.524 . S
C1264 C1265 1.415 . S
C1265 H1235 0.950 . S
C1265 C1260 1.363 . S
C1265 C1264 1.415 . S
H1266 C1263 0.999 . S
H1267 C1248 0.913 . S
H1268 C1286 0.951 . S
H1269 C1288 0.951 . S
H1270 C1290 0.950 . S
H1271 C1291 0.932 1_655 S
H1272 C1293 0.950 . S
H1273 C1296 0.950 . S
H1274 C1297 0.950 . S
H1275 C1299 0.950 . S
H1276 C1300 0.950 . S
H1277 C1301 0.951 . S
H1278 C1303 0.951 . S
H1279 C1305 0.950 . S
H1280 C1306 0.933 1_455 S
H1281 C1308 0.950 . S
H1282 C1311 0.950 . S
H1283 C1312 0.950 . S
H1284 C1314 0.950 . S
H1285 C1315 0.950 . S
C1286 H1268 0.951 . S
C1286 C1287 1.366 . S
C1286 C1288 1.388 . S
C1287 C1286 1.366 . S
C1287 C1291 1.410 . S
C1288 H1269 0.951 . S
C1288 C1286 1.388 . S
C1288 C1289 1.366 . S
C1289 C1288 1.366 . S
C1289 C1290 1.414 1_455 S
C1289 C1292 1.499 . S
C1290 H1270 0.950 . S
C1290 C1289 1.414 1_655 S
C1290 C1291 1.367 1_655 S
C1291 H1271 0.932 1_455 S
C1291 C1287 1.410 . S
C1291 C1290 1.367 1_455 S
C1292 C1289 1.499 . S
C1292 C1293 1.373 1_455 S
C1292 C1294 1.389 . S
C1293 H1272 0.950 . S
C1293 C1292 1.373 1_655 S
C1293 C1309 1.377 . S
C1294 C1292 1.389 . S
C1294 C1295 1.524 . S
C1294 C1308 1.377 . S
C1295 C1294 1.524 . S
C1295 C1296 1.397 . S
C1295 C1300 1.363 . S
C1296 H1273 0.950 . S
C1296 C1295 1.397 . S
C1296 C1297 1.334 . S
C1297 H1274 0.950 . S
C1297 C1296 1.334 . S
C1297 C1298 1.287 . S
C1298 C1297 1.287 . S
C1298 C1299 1.524 . S
C1298 H1317 0.913 . S
C1299 H1275 0.950 . S
C1299 C1298 1.524 . S
C1299 C1300 1.415 . S
C1300 H1276 0.950 . S
C1300 C1295 1.363 . S
C1300 C1299 1.415 . S
C1301 H1277 0.951 . S
C1301 C1302 1.366 . S
C1301 C1303 1.388 . S
C1302 C1301 1.366 . S
C1302 C1306 1.409 . S
C1303 H1278 0.951 . S
C1303 C1301 1.388 . S
C1303 C1304 1.366 . S
C1304 C1303 1.366 . S
C1304 C1305 1.414 1_655 S
C1304 C1307 1.499 . S
C1305 H1279 0.950 . S
C1305 C1304 1.414 1_455 S
C1305 C1306 1.367 1_455 S
C1306 H1280 0.933 1_655 S
C1306 C1302 1.409 . S
C1306 C1305 1.367 1_655 S
C1307 C1304 1.499 . S
C1307 C1308 1.373 1_655 S
C1307 C1309 1.389 . S
C1308 H1281 0.950 . S
C1308 C1294 1.377 . S
C1308 C1307 1.373 1_455 S
C1309 C1293 1.377 . S
C1309 C1307 1.389 . S
C1309 C1310 1.524 . S
C1310 C1309 1.524 . S
C1310 C1311 1.397 . S
C1310 C1315 1.363 . S
C1311 H1282 0.950 . S
C1311 C1310 1.397 . S
C1311 C1312 1.334 . S
C1312 H1283 0.950 . S
C1312 C1311 1.334 . S
C1312 C1313 1.287 . S
C1313 C1312 1.287 . S
C1313 C1314 1.524 . S
C1313 H1316 0.999 . S
C1314 H1284 0.950 . S
C1314 C1313 1.524 . S
C1314 C1315 1.415 . S
C1315 H1285 0.950 . S
C1315 C1310 1.363 . S
C1315 C1314 1.415 . S
H1316 C1313 0.999 . S
H1317 C1298 0.913 . S
H1318 C1336 0.951 . S
H1319 C1338 0.951 . S
H1320 C1340 0.950 1_545 S
H1321 C1341 0.950 . S
H1322 C1343 0.950 . S
H1323 C1346 0.950 . S
H1324 C1347 0.950 . S
H1325 C1349 0.950 . S
H1326 C1350 0.950 . S
H1327 C1351 0.951 . S
H1328 C1353 0.951 . S
H1329 C1355 0.950 1_565 S
H1330 C1356 0.949 . S
H1331 C1358 0.950 . S
H1332 C1361 0.950 . S
H1333 C1362 0.950 . S
H1334 C1364 0.950 . S
H1335 C1365 0.950 . S
C1336 H1318 0.951 . S
C1336 C1337 1.366 . S
C1336 C1338 1.388 . S
C1337 C1336 1.366 . S
C1337 C1341 1.385 . S
C1338 H1319 0.951 . S
C1338 C1336 1.388 . S
C1338 C1339 1.366 . S
C1339 C1338 1.366 . S
C1339 C1340 1.414 . S
C1339 C1342 1.499 . S
C1340 H1320 0.950 1_565 S
C1340 C1339 1.414 . S
C1340 C1341 1.374 . S
C1341 H1321 0.950 . S
C1341 C1337 1.385 . S
C1341 C1340 1.374 . S
C1342 C1339 1.499 . S
C1342 C1343 1.373 . S
C1342 C1344 1.389 1_565 S
C1343 H1322 0.950 . S
C1343 C1342 1.373 . S
C1343 C1359 1.377 1_554 S
C1344 C1342 1.389 1_545 S
C1344 C1345 1.524 . S
C1344 C1358 1.377 1_554 S
C1345 C1344 1.524 . S
C1345 C1346 1.397 . S
C1345 C1350 1.363 1_545 S
C1346 H1323 0.950 . S
C1346 C1345 1.397 . S
C1346 C1347 1.334 . S
C1347 H1324 0.950 . S
C1347 C1346 1.334 . S
C1347 C1348 1.287 . S
C1348 C1347 1.287 . S
C1348 C1349 1.524 1_545 S
C1348 H1367 0.913 . S
C1349 H1325 0.950 . S
C1349 C1348 1.524 1_565 S
C1349 C1350 1.415 . S
C1350 H1326 0.950 . S
C1350 C1345 1.363 1_565 S
C1350 C1349 1.415 . S
C1351 H1327 0.951 . S
C1351 C1352 1.366 . S
C1351 C1353 1.388 . S
C1352 C1351 1.366 . S
C1352 C1356 1.385 . S
C1353 H1328 0.951 . S
C1353 C1351 1.388 . S
C1353 C1354 1.366 . S
C1354 C1353 1.366 . S
C1354 C1355 1.414 . S
C1354 C1357 1.499 . S
C1355 H1329 0.950 1_545 S
C1355 C1354 1.414 . S
C1355 C1356 1.374 . S
C1356 H1330 0.949 . S
C1356 C1352 1.385 . S
C1356 C1355 1.374 . S
C1357 C1354 1.499 . S
C1357 C1358 1.373 . S
C1357 C1359 1.389 1_545 S
C1358 H1331 0.950 . S
C1358 C1344 1.377 1_556 S
C1358 C1357 1.373 . S
C1359 C1343 1.377 1_556 S
C1359 C1357 1.389 1_565 S
C1359 C1360 1.524 . S
C1360 C1359 1.524 . S
C1360 C1361 1.397 . S
C1360 C1365 1.363 1_565 S
C1361 H1332 0.950 . S
C1361 C1360 1.397 . S
C1361 C1362 1.334 . S
C1362 H1333 0.950 . S
C1362 C1361 1.334 . S
C1362 C1363 1.287 . S
C1363 C1362 1.287 . S
C1363 C1364 1.524 1_565 S
C1363 H1366 0.999 . S
C1364 H1334 0.950 . S
C1364 C1363 1.524 1_545 S
C1364 C1365 1.415 . S
C1365 H1335 0.950 . S
C1365 C1360 1.363 1_545 S
C1365 C1364 1.415 . S
H1366 C1363 0.999 . S
H1367 C1348 0.913 . S
C187 C159 1.216 . S
C202 C5 1.217 . S
C237 C19 1.218 . S
C252 C89 1.217 . S
C287 C33 1.218 . S
C302 C103 1.216 . S
C337 C47 1.216 . S
C352 C117 1.217 . S
C387 C131 1.216 . S
C402 C61 1.217 . S
C437 C75 1.218 . S
C452 C145 1.217 . S
C487 C54 0.932 . S
C502 C12 0.933 . S
C537 C68 0.933 . S
C552 C26 0.932 . S
C587 C82 0.933 . S
C602 C40 0.933 . S
C637 C96 0.934 . S
C652 C138 0.933 . S
C687 C110 0.933 . S
C702 C152 0.933 . S
C737 C124 0.932 . S
C752 C166 0.932 . S
C787 C116 0.508 . S
C802 C4 0.507 . S
C837 C18 0.510 . S
C852 C130 0.509 . S
C887 C144 0.509 . S
C902 C32 0.509 . S
C937 C158 0.508 . S
C952 C46 0.510 . S
C987 C88 0.508 . S
C1002 C60 0.507 . S
C1037 C74 0.507 . S
C1052 C102 0.508 . S
C1087 C137 1.538 . S
C1102 C11 1.538 . S
C1137 C25 1.538 . S
C1152 C151 1.538 . S
C1187 C165 1.538 . S
C1202 C39 1.538 . S
C1237 C53 1.538 . S
C1252 C95 1.538 . S
C1287 C67 1.538 . S
C1302 C109 1.538 . S
C1337 C123 1.538 . S
C1352 C81 1.538 . S
