# Generated by pormake.
# Topology vmp, (7)-cn, num edge types: 1
# Building blocks:
#     Node 0, Type 0, BuildingBlock: HICVOG_clean_sbu_0, # of connection points: 7
#     Node 1, Type 0, BuildingBlock: HICVOG_clean_sbu_0, # of connection points: 7
#     Node 2, Type 0, BuildingBlock: HICVOG_clean_sbu_0, # of connection points: 7
#     Node 3, Type 0, BuildingBlock: HICVOG_clean_sbu_0, # of connection points: 7
#     Node 4, Type 0, BuildingBlock: HICVOG_clean_sbu_0, # of connection points: 7
#     Node 5, Type 0, BuildingBlock: HICVOG_clean_sbu_0, # of connection points: 7
#     Node 6, Type 0, BuildingBlock: HICVOG_clean_sbu_0, # of connection points: 7
#     Node 7, Type 0, BuildingBlock: HICVOG_clean_sbu_0, # of connection points: 7
#     Edge 8, Type (0, 0), None
#     Edge 9, Type (0, 0), None
#     Edge 10, Type (0, 0), None
#     Edge 11, Type (0, 0), None
#     Edge 12, Type (0, 0), None
#     Edge 13, Type (0, 0), None
#     Edge 14, Type (0, 0), None
#     Edge 15, Type (0, 0), None
#     Edge 16, Type (0, 0), None
#     Edge 17, Type (0, 0), None
#     Edge 18, Type (0, 0), None
#     Edge 19, Type (0, 0), None
#     Edge 20, Type (0, 0), None
#     Edge 21, Type (0, 0), None
#     Edge 22, Type (0, 0), None
#     Edge 23, Type (0, 0), None
#     Edge 24, Type (0, 0), None
#     Edge 25, Type (0, 0), None
#     Edge 26, Type (0, 0), None
#     Edge 27, Type (0, 0), None
#     Edge 28, Type (0, 0), None
#     Edge 29, Type (0, 0), None
#     Edge 30, Type (0, 0), None
#     Edge 31, Type (0, 0), None
#     Edge 32, Type (0, 0), None
#     Edge 33, Type (0, 0), None
#     Edge 34, Type (0, 0), None
#     Edge 35, Type (0, 0), None
# Relax obj value: 0.198
# Max RMSD: 0.239
# Mean RMSD: 0.239
data_MOF--net-vmp--node1-HICVOG_clean_sbu_0--edge1-none
_symmetry_space_group_name_H-M    P1
_symmetry_Int_Tables_number       1
_symmetry_cell_setting            triclinic
loop_
_symmetry_equiv_pos_as_xyz
'x, y, z'
_cell_length_a     7.2496031
_cell_length_b     49.660817
_cell_length_c     12.833011
_cell_angle_alpha  89.989471
_cell_angle_beta   108.37686
_cell_angle_gamma 89.816004
loop_
_atom_site_label
_atom_site_type_symbol
_atom_site_fract_x
_atom_site_fract_y
_atom_site_fract_z
_atom_type_partial_charge
Zn0 Zn 0.40428 0.14525 0.21083 0.0
C1 C 0.5671 0.10474 0.00232 0.0
N2 N 0.3788 0.10933 0.93314 0.0
C3 C 0.26739 0.11486 0.00139 0.0
N4 N 0.38919 0.11551 0.10557 0.0
N5 N 0.55964 0.10578 0.10729 0.0
C6 C 0.97775 0.11064 0.27948 0.0
O7 O 0.83812 0.12828 0.26822 0.0
O8 O 0.1624 0.14371 0.23616 0.0
Zn9 Zn 0.67238 0.08435 0.2422 0.0
N10 N 0.45366 0.18017 0.16109 0.0
C11 C 0.67241 0.20976 0.11443 0.0
C12 C 0.60509 0.18375 0.12169 0.0
C13 C 0.36559 0.20144 0.19267 0.0
N14 N 0.58538 0.23103 0.14667 0.0
C15 C 0.43307 0.22767 0.18606 0.0
O16 O 0.66642 0.10111 0.38376 0.0
C17 C 0.64114 0.12303 0.42737 0.0
O18 O 0.57406 0.14367 0.37014 0.0
H19 H 0.67906 0.16651 0.10166 0.0
H20 H 0.25196 0.19764 0.22878 0.0
C21 C 0.56859 0.02675 0.1841 0.0
C22 C 0.50904 0.00129 0.2106 0.0
C23 C 0.44113 0.02018 0.36363 0.0
C24 C 0.49991 0.04518 0.33798 0.0
N25 N 0.56566 0.04822 0.24994 0.0
N26 N 0.44805 -0.00117 0.29994 0.0
H27 H 0.62198 0.02922 0.11483 0.0
C28 C 1.15623 0.12024 0.27378 0.0
O29 O 0.29409 0.1027 0.28038 0.0
O30 O 0.94278 0.08556 0.26838 0.0
H31 H 0.49552 0.0618 0.39076 0.0
H32 H 0.79676 0.21297 0.08659 0.0
H33 H 0.39173 0.01769 0.43429 0.0
Zn34 Zn 0.91198 0.14528 0.76177 0.0
C35 C 0.75079 0.10478 0.97046 0.0
N36 N 0.93894 0.10931 0.03964 0.0
C37 C 1.05012 0.11483 0.97135 0.0
N38 N 0.92829 0.11554 0.86718 0.0
N39 N 0.75816 0.10586 0.86548 0.0
C40 C 0.3403 0.11081 0.693 0.0
O41 O 0.47908 0.12843 0.70376 0.0
O42 O 1.15439 0.14387 0.73664 0.0
Zn43 Zn 0.64679 0.08443 0.7308 0.0
N44 N 0.85961 0.18012 0.81116 0.0
C45 C 0.63727 0.20961 0.85606 0.0
C46 C 0.70633 0.18363 0.84919 0.0
C47 C 0.94797 0.20143 0.78071 0.0
N48 N 0.7246 0.23094 0.82492 0.0
C49 C 0.87883 0.22765 0.787 0.0
O50 O 0.65328 0.10101 0.58891 0.0
C51 C 0.67724 0.12298 0.54528 0.0
O52 O 0.74245 0.14363 0.60243 0.0
H53 H 0.6324 0.16636 0.86845 0.0
H54 H 1.06328 0.1977 0.74572 0.0
C55 C 0.74683 0.02678 0.78943 0.0
C56 C 0.8071 0.0012 0.76406 0.0
C57 C 0.88491 0.01997 0.61392 0.0
C58 C 0.82521 0.04509 0.63843 0.0
N59 N 0.75443 0.04823 0.72454 0.0
N60 N 0.87347 -0.00138 0.67669 0.0
H61 H 0.68907 0.02935 0.857 0.0
C62 C 0.16164 0.12042 0.69907 0.0
O63 O 1.02494 0.10285 0.69294 0.0
O64 O 0.37636 0.08573 0.7043 0.0
H65 H 0.83256 0.06172 0.58628 0.0
H66 H 0.51159 0.21277 0.88287 0.0
H67 H 0.93838 0.01739 0.54477 0.0
Zn68 Zn 0.90708 0.83489 0.74078 0.0
C69 C 0.74557 0.86352 0.97188 0.0
N70 N 0.93355 0.85868 0.04064 0.0
C71 C 1.046 0.8552 0.97169 0.0
N72 N 0.92489 0.8567 0.86724 0.0
N73 N 0.75184 0.86477 0.86743 0.0
C74 C 0.34413 0.87203 0.69343 0.0
O75 O 0.46962 0.85412 0.68336 0.0
O76 O 1.14682 0.83774 0.71422 0.0
Zn77 Zn 0.6709 0.8954 0.76467 0.0
N78 N 0.83836 0.79825 0.76204 0.0
C79 C 0.64484 0.76772 0.82522 0.0
C80 C 0.70535 0.79389 0.81476 0.0
C81 C 0.91364 0.7775 0.71908 0.0
N82 N 0.71966 0.74699 0.78233 0.0
C83 C 0.85301 0.75102 0.72916 0.0
O84 O 0.68948 0.89232 0.60414 0.0
C85 C 0.68714 0.87094 0.54789 0.0
O86 O 0.73481 0.8481 0.59384 0.0
H87 H 0.64495 0.81064 0.84714 0.0
H88 H 1.01786 0.78176 0.67671 0.0
C89 C 0.75207 0.952 0.77767 0.0
C90 C 0.80506 0.97705 0.82946 0.0
C91 C 0.89432 0.95552 0.00252 0.0
C92 C 0.84343 0.93067 0.95081 0.0
N93 N 0.76993 0.92933 0.83924 0.0
N94 N 0.87395 0.97819 0.94084 0.0
H95 H 0.69526 0.95053 0.68908 0.0
C96 C 0.16459 0.86266 0.69834 0.0
O97 O 1.04395 0.8803 0.71662 0.0
O98 O 0.39807 0.89533 0.73006 0.0
H99 H 0.8586 0.91287 0.00039 0.0
H100 H 0.53874 0.7639 0.86674 0.0
H101 H 0.94979 0.95677 0.09113 0.0
Zn102 Zn 0.6367 0.89535 0.20965 0.0
C103 C 0.26298 0.85522 0.00301 0.0
N104 N 0.37531 0.85863 0.934 0.0
C105 C 0.563 0.86353 0.00266 0.0
N106 N 0.55642 0.86481 0.10703 0.0
N107 N 0.38381 0.85679 0.10749 0.0
C108 C 1.14449 0.86256 0.27645 0.0
O109 O 0.26448 0.88023 0.25843 0.0
O110 O 0.90944 0.89523 0.24407 0.0
Zn111 Zn 0.40368 0.83492 0.23415 0.0
N112 N 0.53556 0.92926 0.13508 0.0
C113 C 0.39898 0.95534 0.97222 0.0
C114 C 0.45195 0.93047 0.02402 0.0
C115 C 0.56136 0.95206 0.19626 0.0
N116 N 0.42674 0.97813 0.03352 0.0
C117 C 0.50569 0.9771 0.14455 0.0
O118 O 0.57519 0.8481 0.38103 0.0
C119 C 0.62199 0.87094 0.42676 0.0
O120 O 0.61867 0.8923 0.37027 0.0
H121 H 0.42992 0.91254 0.97487 0.0
H122 H 0.62562 0.95065 0.28455 0.0
C123 C 0.39928 0.77755 0.25486 0.0
C124 C 0.4619 0.7511 0.24514 0.0
C125 C 0.67308 0.76799 0.1517 0.0
C126 C 0.61057 0.79413 0.16179 0.0
N127 N 0.47512 0.79837 0.21304 0.0
N128 N 0.59771 0.74717 0.19347 0.0
H129 H 0.2931 0.78172 0.29608 0.0
C130 C 0.96428 0.87193 0.28097 0.0
O131 O 0.83947 0.85402 0.29099 0.0
O132 O 0.16373 0.83765 0.26073 0.0
H133 H 0.67134 0.81093 0.13033 0.0
H134 H 0.33536 0.9565 0.88391 0.0
H135 H 0.78118 0.76426 0.11139 0.0
Zn136 Zn 0.90584 0.64523 0.71095 0.0
C137 C 1.06858 0.60473 0.50242 0.0
N138 N 0.8803 0.60935 0.43325 0.0
C139 C 0.76889 0.61485 0.50152 0.0
N140 N 0.89067 0.61548 0.6057 0.0
N141 N 1.06109 0.60575 0.60739 0.0
C142 C 0.4793 0.61059 0.77956 0.0
O143 O 0.33967 0.62824 0.76825 0.0
O144 O 0.66404 0.64367 0.73635 0.0
Zn145 Zn 0.17388 0.58431 0.7423 0.0
N146 N 0.95513 0.68015 0.66118 0.0
C147 C 0.17393 0.70975 0.61461 0.0
C148 C 1.10664 0.68373 0.62185 0.0
C149 C 0.86694 0.70141 0.6927 0.0
N150 N 1.0868 0.73102 0.6468 0.0
C151 C 0.9344 0.72765 0.68611 0.0
O152 O 0.16806 0.6011 0.88386 0.0
C153 C 1.14283 0.62302 0.92746 0.0
O154 O 1.0757 0.64366 0.87023 0.0
H155 H 0.18071 0.6665 0.60187 0.0
H156 H 0.75325 0.69761 0.72876 0.0
C157 C 1.06901 0.52672 0.68405 0.0
C158 C 1.0093 0.50127 0.71062 0.0
C159 C 0.94313 0.52016 0.86416 0.0
C160 C 1.00205 0.54515 0.83846 0.0
N161 N 1.06703 0.54818 0.75012 0.0
N162 N 0.94912 0.49882 0.80024 0.0
H163 H 1.12175 0.52918 0.61454 0.0
C164 C 0.65784 0.62019 0.77395 0.0
O165 O 0.79572 0.60265 0.78058 0.0
O166 O 0.4443 0.58551 0.76845 0.0
H167 H 0.99831 0.56176 0.8914 0.0
H168 H 0.29834 0.71297 0.58683 0.0
H169 H 0.89433 0.51768 0.93504 0.0
Zn170 Zn 0.41355 0.6453 0.26188 0.0
C171 C 0.25227 0.60478 0.47056 0.0
N172 N 0.44043 0.60929 0.53976 0.0
C173 C 0.55161 0.61483 0.47148 0.0
N174 N 0.42977 0.61557 0.36732 0.0
N175 N 0.25961 0.60589 0.36559 0.0
C176 C 0.84185 0.61085 0.19308 0.0
O177 O 0.98064 0.62846 0.20379 0.0
O178 O 0.65603 0.64391 0.23682 0.0
Zn179 Zn 1.1483 0.58446 0.2309 0.0
N180 N 0.36108 0.68014 0.31124 0.0
C181 C 1.1388 0.70962 0.35624 0.0
C182 C 0.20789 0.68364 0.34935 0.0
C183 C 0.44931 0.70145 0.28072 0.0
N184 N 0.22599 0.73095 0.32504 0.0
C185 C 0.38013 0.72766 0.28703 0.0
O186 O 1.15494 0.60101 0.08901 0.0
C187 C 0.17893 0.62298 0.04538 0.0
O188 O 0.24409 0.64364 0.10252 0.0
H189 H 1.13407 0.66636 0.36867 0.0
H190 H 0.56455 0.69772 0.24567 0.0
C191 C 0.24735 0.5268 0.2894 0.0
C192 C 0.30749 0.50122 0.2641 0.0
C193 C 0.38693 0.51998 0.11447 0.0
C194 C 0.32734 0.54512 0.13891 0.0
N195 N 0.25584 0.54827 0.22473 0.0
N196 N 0.37463 0.49863 0.17702 0.0
H197 H 0.18897 0.52939 0.35672 0.0
C198 C 0.66325 0.62045 0.19924 0.0
O199 O 0.52658 0.60289 0.19315 0.0
O200 O 0.87789 0.58577 0.20437 0.0
H201 H 0.33527 0.56175 0.08691 0.0
H202 H 1.01318 0.71277 0.38312 0.0
H203 H 0.44098 0.5174 0.04554 0.0
Zn204 Zn 0.17034 0.3954 0.26451 0.0
C205 C 0.54641 0.3552 0.47143 0.0
N206 N 0.43391 0.35862 0.5404 0.0
C207 C 0.24598 0.36351 0.47169 0.0
N208 N 0.25254 0.36482 0.36733 0.0
N209 N 0.42552 0.35679 0.36694 0.0
C210 C 0.66434 0.36249 0.1978 0.0
O211 O 0.5435 0.38017 0.21559 0.0
O212 O 0.89765 0.39516 0.22987 0.0
Zn213 Zn 0.40656 0.33488 0.24053 0.0
N214 N 0.26853 0.42936 0.33904 0.0
C215 C 0.39106 0.45558 0.50241 0.0
C216 C 0.34048 0.43072 0.45066 0.0
C217 C 0.25188 0.45202 0.27749 0.0
N218 N 0.37184 0.47823 0.44073 0.0
C219 C 0.3045 0.47708 0.32933 0.0
O220 O 0.23422 0.3481 0.09361 0.0
C221 C 0.1863 0.37094 0.04767 0.0
O222 O 0.18878 0.39232 0.10394 0.0
H223 H 0.35465 0.41295 0.50025 0.0
H224 H 0.19628 0.45053 0.18887 0.0
C225 C 0.4125 0.27752 0.21902 0.0
C226 C 0.35184 0.25105 0.22916 0.0
C227 C 1.14403 0.26778 0.3254 0.0
C228 C 0.2046 0.29394 0.31489 0.0
N229 N 0.33745 0.29828 0.26204 0.0
N230 N 0.21864 0.24703 0.28245 0.0
H231 H 0.5166 0.28177 0.17656 0.0
C232 C 0.84417 0.37184 0.19332 0.0
O233 O 0.97007 0.35393 0.18381 0.0
O234 O 0.64627 0.33759 0.21382 0.0
H235 H 1.14438 0.31069 0.34732 0.0
H236 H 0.44531 0.45684 0.59104 0.0
H237 H 1.03804 0.26397 0.36701 0.0
Zn238 Zn 0.90316 0.33493 0.73391 0.0
C239 C 1.06341 0.36355 0.50247 0.0
N240 N 0.87567 0.3587 0.43376 0.0
C241 C 0.76339 0.35523 0.50275 0.0
N242 N 0.88444 0.3567 0.60719 0.0
N243 N 1.05712 0.36476 0.60693 0.0
C244 C 0.46432 0.37211 0.78086 0.0
O245 O 0.3399 0.35421 0.79142 0.0
O246 O 0.66318 0.33781 0.76033 0.0
Zn247 Zn 1.13615 0.39536 0.7095 0.0
N248 N 0.97422 0.29835 0.71304 0.0
C249 C 0.17231 0.26794 0.65191 0.0
C250 C 1.10985 0.29408 0.66193 0.0
C251 C 0.89817 0.27753 0.7548 0.0
N252 N 1.09673 0.24714 0.69362 0.0
C253 C 0.96075 0.25108 0.74516 0.0
O254 O 1.11797 0.3923 0.87008 0.0
C255 C 1.12116 0.37093 0.92654 0.0
O256 O 1.07462 0.3481 0.8808 0.0
H257 H 0.17081 0.31088 0.63052 0.0
H258 H 0.79185 0.28172 0.79592 0.0
C259 C 1.06109 0.45204 0.69606 0.0
C260 C 1.00501 0.47708 0.64443 0.0
C261 C 0.89573 0.45529 0.47221 0.0
C262 C 0.94909 0.43042 0.52397 0.0
N263 N 1.03417 0.42923 0.63492 0.0
N264 N 0.92456 0.47809 0.53348 0.0
H265 H 1.12651 0.45064 0.78428 0.0
C266 C 0.64423 0.36273 0.77591 0.0
O267 O 0.76402 0.38036 0.75742 0.0
O268 O 0.40903 0.3954 0.7439 0.0
H269 H 0.9262 0.41247 0.47488 0.0
H270 H 0.28054 0.26419 0.61171 0.0
H271 H 0.83093 0.45643 0.38397 0.0
loop_
_geom_bond_atom_site_label_1
_geom_bond_atom_site_label_2
_geom_bond_distance
_geom_bond_site_symmetry_2
_ccdc_geom_bond_type
Zn0 N4 2.020 . S
Zn0 O8 2.019 . S
Zn0 N10 2.119 . S
Zn0 O18 1.975 . S
C1 N2 1.334 1_554 S
C1 N5 1.336 . S
N2 C1 1.334 1_556 S
N2 C3 1.325 1_556 S
C3 N2 1.325 1_554 S
C3 N4 1.344 . S
N4 Zn0 2.020 . S
N4 C3 1.344 . S
N4 N5 1.354 . S
N5 C1 1.336 . S
N5 N4 1.354 . S
N5 Zn9 2.020 . S
C6 O7 1.244 . S
C6 O30 1.257 . S
O7 C6 1.244 . S
O8 Zn0 2.019 . S
O8 C28 1.257 1_455 S
Zn9 N5 2.020 . S
Zn9 O16 1.975 . S
Zn9 N25 2.119 . S
Zn9 O30 2.019 . S
N10 Zn0 2.119 . S
N10 C12 1.334 . S
N10 C13 1.328 . S
C11 C12 1.391 . S
C11 N14 1.329 . S
C11 H32 0.930 . S
C12 N10 1.334 . S
C12 C11 1.391 . S
C12 H19 0.930 . S
C13 N10 1.328 . S
C13 C15 1.392 . S
C13 H20 0.930 . S
N14 C11 1.329 . S
N14 C15 1.331 . S
C15 C13 1.392 . S
C15 N14 1.331 . S
O16 Zn9 1.975 . S
O16 C17 1.252 . S
C17 O16 1.252 . S
C17 O18 1.252 . S
O18 Zn0 1.975 . S
O18 C17 1.252 . S
H19 C12 0.930 . S
H20 C13 0.930 . S
C21 C22 1.392 . S
C21 N25 1.328 . S
C21 H27 0.930 . S
C22 C21 1.392 . S
C22 N26 1.331 . S
C23 C24 1.391 . S
C23 N26 1.329 . S
C23 H33 0.930 . S
C24 C23 1.391 . S
C24 N25 1.334 . S
C24 H31 0.930 . S
N25 Zn9 2.119 . S
N25 C21 1.328 . S
N25 C24 1.334 . S
N26 C22 1.331 . S
N26 C23 1.329 . S
H27 C21 0.930 . S
C28 O8 1.257 1_655 S
C28 O29 1.244 1_655 S
O29 C28 1.244 1_455 S
O30 C6 1.257 . S
O30 Zn9 2.019 . S
H31 C24 0.930 . S
H32 C11 0.930 . S
H33 C23 0.930 . S
Zn34 N38 2.020 . S
Zn34 O42 2.019 . S
Zn34 N44 2.119 . S
Zn34 O52 1.975 . S
C35 N36 1.334 1_556 S
C35 N39 1.336 . S
N36 C35 1.334 1_554 S
N36 C37 1.325 1_554 S
C37 N36 1.325 1_556 S
C37 N38 1.344 . S
N38 Zn34 2.020 . S
N38 C37 1.344 . S
N38 N39 1.354 . S
N39 C35 1.336 . S
N39 N38 1.354 . S
N39 Zn43 2.020 . S
C40 O41 1.244 . S
C40 O64 1.257 . S
O41 C40 1.244 . S
O42 Zn34 2.019 . S
O42 C62 1.257 1_655 S
Zn43 N39 2.020 . S
Zn43 O50 1.975 . S
Zn43 N59 2.119 . S
Zn43 O64 2.019 . S
N44 Zn34 2.119 . S
N44 C46 1.334 . S
N44 C47 1.328 . S
C45 C46 1.391 . S
C45 N48 1.329 . S
C45 H66 0.930 . S
C46 N44 1.334 . S
C46 C45 1.391 . S
C46 H53 0.930 . S
C47 N44 1.328 . S
C47 C49 1.392 . S
C47 H54 0.930 . S
N48 C45 1.329 . S
N48 C49 1.331 . S
C49 C47 1.392 . S
C49 N48 1.331 . S
O50 Zn43 1.975 . S
O50 C51 1.252 . S
C51 O50 1.252 . S
C51 O52 1.252 . S
O52 Zn34 1.975 . S
O52 C51 1.252 . S
H53 C46 0.930 . S
H54 C47 0.930 . S
C55 C56 1.392 . S
C55 N59 1.328 . S
C55 H61 0.930 . S
C56 C55 1.392 . S
C56 N60 1.331 . S
C57 C58 1.391 . S
C57 N60 1.329 . S
C57 H67 0.930 . S
C58 C57 1.391 . S
C58 N59 1.334 . S
C58 H65 0.930 . S
N59 Zn43 2.119 . S
N59 C55 1.328 . S
N59 C58 1.334 . S
N60 C56 1.331 . S
N60 C57 1.329 . S
H61 C55 0.930 . S
C62 O42 1.257 1_455 S
C62 O63 1.244 1_455 S
O63 C62 1.244 1_655 S
O64 C40 1.257 . S
O64 Zn43 2.019 . S
H65 C58 0.930 . S
H66 C45 0.930 . S
H67 C57 0.930 . S
Zn68 N72 2.020 . S
Zn68 O76 2.019 . S
Zn68 N78 2.119 . S
Zn68 O86 1.975 . S
C69 N70 1.334 1_556 S
C69 N73 1.336 . S
N70 C69 1.334 1_554 S
N70 C71 1.325 1_554 S
C71 N70 1.325 1_556 S
C71 N72 1.344 . S
N72 Zn68 2.020 . S
N72 C71 1.344 . S
N72 N73 1.354 . S
N73 C69 1.336 . S
N73 N72 1.354 . S
N73 Zn77 2.020 . S
C74 O75 1.244 . S
C74 O98 1.257 . S
O75 C74 1.244 . S
O76 Zn68 2.019 . S
O76 C96 1.257 1_655 S
Zn77 N73 2.020 . S
Zn77 O84 1.975 . S
Zn77 N93 2.119 . S
Zn77 O98 2.019 . S
N78 Zn68 2.119 . S
N78 C80 1.334 . S
N78 C81 1.328 . S
C79 C80 1.391 . S
C79 N82 1.329 . S
C79 H100 0.930 . S
C80 N78 1.334 . S
C80 C79 1.391 . S
C80 H87 0.930 . S
C81 N78 1.328 . S
C81 C83 1.392 . S
C81 H88 0.930 . S
N82 C79 1.329 . S
N82 C83 1.331 . S
C83 C81 1.392 . S
C83 N82 1.331 . S
O84 Zn77 1.975 . S
O84 C85 1.252 . S
C85 O84 1.252 . S
C85 O86 1.252 . S
O86 Zn68 1.975 . S
O86 C85 1.252 . S
H87 C80 0.930 . S
H88 C81 0.930 . S
C89 C90 1.392 . S
C89 N93 1.328 . S
C89 H95 0.930 . S
C90 C89 1.392 . S
C90 N94 1.331 . S
C91 C92 1.391 . S
C91 N94 1.329 . S
C91 H101 0.930 . S
C92 C91 1.391 . S
C92 N93 1.334 . S
C92 H99 0.930 . S
N93 Zn77 2.119 . S
N93 C89 1.328 . S
N93 C92 1.334 . S
N94 C90 1.331 . S
N94 C91 1.329 . S
H95 C89 0.930 . S
C96 O76 1.257 1_455 S
C96 O97 1.244 1_455 S
O97 C96 1.244 1_655 S
O98 C74 1.257 . S
O98 Zn77 2.019 . S
H99 C92 0.930 . S
H100 C79 0.930 . S
H101 C91 0.930 . S
Zn102 N106 2.020 . S
Zn102 O110 2.019 . S
Zn102 N112 2.119 . S
Zn102 O120 1.975 . S
C103 N104 1.325 1_554 S
C103 N107 1.344 . S
N104 C103 1.325 1_556 S
N104 C105 1.334 1_556 S
C105 N104 1.334 1_554 S
C105 N106 1.336 . S
N106 Zn102 2.020 . S
N106 C105 1.336 . S
N106 N107 1.354 . S
N107 C103 1.344 . S
N107 N106 1.354 . S
N107 Zn111 2.020 . S
C108 O109 1.244 1_655 S
C108 O132 1.257 1_655 S
O109 C108 1.244 1_455 S
O110 Zn102 2.019 . S
O110 C130 1.257 . S
Zn111 N107 2.020 . S
Zn111 O118 1.975 . S
Zn111 N127 2.119 . S
Zn111 O132 2.019 . S
N112 Zn102 2.119 . S
N112 C114 1.334 . S
N112 C115 1.328 . S
C113 C114 1.391 . S
C113 N116 1.329 . S
C113 H134 0.930 . S
C114 N112 1.334 . S
C114 C113 1.391 . S
C114 H121 0.930 . S
C115 N112 1.328 . S
C115 C117 1.392 . S
C115 H122 0.930 . S
N116 C113 1.329 . S
N116 C117 1.331 . S
C117 C115 1.392 . S
C117 N116 1.331 . S
O118 Zn111 1.975 . S
O118 C119 1.252 . S
C119 O118 1.252 . S
C119 O120 1.252 . S
O120 Zn102 1.975 . S
O120 C119 1.252 . S
H121 C114 0.930 . S
H122 C115 0.930 . S
C123 C124 1.392 . S
C123 N127 1.328 . S
C123 H129 0.930 . S
C124 C123 1.392 . S
C124 N128 1.331 . S
C125 C126 1.391 . S
C125 N128 1.329 . S
C125 H135 0.930 . S
C126 C125 1.391 . S
C126 N127 1.334 . S
C126 H133 0.930 . S
N127 Zn111 2.119 . S
N127 C123 1.328 . S
N127 C126 1.334 . S
N128 C124 1.331 . S
N128 C125 1.329 . S
H129 C123 0.930 . S
C130 O110 1.257 . S
C130 O131 1.244 . S
O131 C130 1.244 . S
O132 C108 1.257 1_455 S
O132 Zn111 2.019 . S
H133 C126 0.930 . S
H134 C113 0.930 . S
H135 C125 0.930 . S
Zn136 N140 2.020 . S
Zn136 O144 2.019 . S
Zn136 N146 2.119 . S
Zn136 O154 1.975 . S
C137 N138 1.334 . S
C137 N141 1.336 . S
N138 C137 1.334 . S
N138 C139 1.334 . S
C139 N138 1.334 . S
C139 N140 1.336 . S
N140 Zn136 2.020 . S
N140 C139 1.336 . S
N140 N141 1.354 . S
N141 C137 1.336 . S
N141 N140 1.354 . S
N141 Zn145 2.020 1_655 S
C142 O143 1.244 . S
C142 O166 1.257 . S
O143 C142 1.244 . S
O144 Zn136 2.019 . S
O144 C164 1.257 . S
Zn145 N141 2.020 1_455 S
Zn145 O152 1.975 . S
Zn145 N161 2.119 . S
Zn145 O166 2.019 . S
N146 Zn136 2.119 . S
N146 C148 1.334 . S
N146 C149 1.328 . S
C147 C148 1.391 . S
C147 N150 1.329 . S
C147 H168 0.930 1_655 S
C148 N146 1.334 . S
C148 C147 1.391 . S
C148 H155 0.930 1_655 S
C149 N146 1.328 . S
C149 C151 1.392 . S
C149 H156 0.930 . S
N150 C147 1.329 . S
N150 C151 1.331 . S
C151 C149 1.392 . S
C151 N150 1.331 . S
O152 Zn145 1.975 . S
O152 C153 1.252 . S
C153 O152 1.252 . S
C153 O154 1.252 1_455 S
O154 Zn136 1.975 . S
O154 C153 1.252 1_655 S
H155 C148 0.930 1_455 S
H156 C149 0.930 . S
C157 C158 1.392 . S
C157 N161 1.328 . S
C157 H163 0.930 . S
C158 C157 1.392 . S
C158 N162 1.331 1_455 S
C159 C160 1.391 . S
C159 N162 1.329 . S
C159 H169 0.930 . S
C160 C159 1.391 . S
C160 N161 1.334 1_655 S
C160 H167 0.930 . S
N161 Zn145 2.119 . S
N161 C157 1.328 . S
N161 C160 1.334 1_455 S
N162 C158 1.331 1_655 S
N162 C159 1.329 . S
H163 C157 0.930 . S
C164 O144 1.257 . S
C164 O165 1.244 . S
O165 C164 1.244 . S
O166 C142 1.257 . S
O166 Zn145 2.019 . S
H167 C160 0.930 . S
H168 C147 0.930 1_455 S
H169 C159 0.930 . S
Zn170 N174 2.020 . S
Zn170 O178 2.019 . S
Zn170 N180 2.119 . S
Zn170 O188 1.975 . S
C171 N172 1.334 . S
C171 N175 1.336 . S
N172 C171 1.334 . S
N172 C173 1.334 . S
C173 N172 1.334 . S
C173 N174 1.336 . S
N174 Zn170 2.020 . S
N174 C173 1.336 . S
N174 N175 1.354 . S
N175 C171 1.336 . S
N175 N174 1.354 . S
N175 Zn179 2.020 1_455 S
C176 O177 1.244 . S
C176 O200 1.257 . S
O177 C176 1.244 . S
O178 Zn170 2.019 . S
O178 C198 1.257 . S
Zn179 N175 2.020 1_655 S
Zn179 O186 1.975 . S
Zn179 N195 2.119 . S
Zn179 O200 2.019 . S
N180 Zn170 2.119 . S
N180 C182 1.334 . S
N180 C183 1.328 . S
C181 C182 1.391 . S
C181 N184 1.329 . S
C181 H202 0.930 1_455 S
C182 N180 1.334 . S
C182 C181 1.391 . S
C182 H189 0.930 1_455 S
C183 N180 1.328 . S
C183 C185 1.392 . S
C183 H190 0.930 . S
N184 C181 1.329 . S
N184 C185 1.331 . S
C185 C183 1.392 . S
C185 N184 1.331 . S
O186 Zn179 1.975 . S
O186 C187 1.252 . S
C187 O186 1.252 . S
C187 O188 1.252 1_655 S
O188 Zn170 1.975 . S
O188 C187 1.252 1_455 S
H189 C182 0.930 1_655 S
H190 C183 0.930 . S
C191 C192 1.392 . S
C191 N195 1.328 . S
C191 H197 0.930 . S
C192 C191 1.392 . S
C192 N196 1.331 1_655 S
C193 C194 1.391 . S
C193 N196 1.329 . S
C193 H203 0.930 . S
C194 C193 1.391 . S
C194 N195 1.334 1_455 S
C194 H201 0.930 . S
N195 Zn179 2.119 . S
N195 C191 1.328 . S
N195 C194 1.334 1_655 S
N196 C192 1.331 1_455 S
N196 C193 1.329 . S
H197 C191 0.930 . S
C198 O178 1.257 . S
C198 O199 1.244 . S
O199 C198 1.244 . S
O200 C176 1.257 . S
O200 Zn179 2.019 . S
H201 C194 0.930 . S
H202 C181 0.930 1_655 S
H203 C193 0.930 . S
Zn204 N208 2.020 1_655 S
Zn204 O212 2.019 . S
Zn204 N214 2.119 . S
Zn204 O222 1.975 . S
C205 N206 1.334 . S
C205 N209 1.336 . S
N206 C205 1.334 . S
N206 C207 1.334 . S
C207 N206 1.334 . S
C207 N208 1.336 . S
N208 Zn204 2.020 1_455 S
N208 C207 1.336 . S
N208 N209 1.354 . S
N209 C205 1.336 . S
N209 N208 1.354 . S
N209 Zn213 2.020 . S
C210 O211 1.244 . S
C210 O234 1.257 . S
O211 C210 1.244 . S
O212 Zn204 2.019 . S
O212 C232 1.257 . S
Zn213 N209 2.020 . S
Zn213 O220 1.975 . S
Zn213 N229 2.119 . S
Zn213 O234 2.019 . S
N214 Zn204 2.119 . S
N214 C216 1.334 1_655 S
N214 C217 1.328 . S
C215 C216 1.391 . S
C215 N218 1.329 . S
C215 H236 0.930 . S
C216 N214 1.334 1_455 S
C216 C215 1.391 . S
C216 H223 0.930 . S
C217 N214 1.328 . S
C217 C219 1.392 . S
C217 H224 0.930 . S
N218 C215 1.329 . S
N218 C219 1.331 1_455 S
C219 C217 1.392 . S
C219 N218 1.331 1_655 S
O220 Zn213 1.975 . S
O220 C221 1.252 1_455 S
C221 O220 1.252 1_655 S
C221 O222 1.252 . S
O222 Zn204 1.975 . S
O222 C221 1.252 . S
H223 C216 0.930 . S
H224 C217 0.930 . S
C225 C226 1.392 . S
C225 N229 1.328 . S
C225 H231 0.930 . S
C226 C225 1.392 . S
C226 N230 1.331 . S
C227 C228 1.391 . S
C227 N230 1.329 . S
C227 H237 0.930 1_455 S
C228 C227 1.391 . S
C228 N229 1.334 . S
C228 H235 0.930 1_455 S
N229 Zn213 2.119 . S
N229 C225 1.328 . S
N229 C228 1.334 . S
N230 C226 1.331 . S
N230 C227 1.329 . S
H231 C225 0.930 . S
C232 O212 1.257 . S
C232 O233 1.244 . S
O233 C232 1.244 . S
O234 C210 1.257 . S
O234 Zn213 2.019 . S
H235 C228 0.930 1_655 S
H236 C215 0.930 . S
H237 C227 0.930 1_655 S
Zn238 N242 2.020 . S
Zn238 O246 2.019 . S
Zn238 N248 2.119 . S
Zn238 O256 1.975 . S
C239 N240 1.334 . S
C239 N243 1.336 . S
N240 C239 1.334 . S
N240 C241 1.334 . S
C241 N240 1.334 . S
C241 N242 1.336 . S
N242 Zn238 2.020 . S
N242 C241 1.336 . S
N242 N243 1.354 . S
N243 C239 1.336 . S
N243 N242 1.354 . S
N243 Zn247 2.020 1_655 S
C244 O245 1.244 . S
C244 O268 1.257 . S
O245 C244 1.244 . S
O246 Zn238 2.019 . S
O246 C266 1.257 . S
Zn247 N243 2.020 1_455 S
Zn247 O254 1.975 . S
Zn247 N263 2.119 . S
Zn247 O268 2.019 . S
N248 Zn238 2.119 . S
N248 C250 1.334 . S
N248 C251 1.328 . S
C249 C250 1.391 . S
C249 N252 1.329 . S
C249 H270 0.930 1_655 S
C250 N248 1.334 . S
C250 C249 1.391 . S
C250 H257 0.930 1_655 S
C251 N248 1.328 . S
C251 C253 1.392 . S
C251 H258 0.930 . S
N252 C249 1.329 . S
N252 C253 1.331 . S
C253 C251 1.392 . S
C253 N252 1.331 . S
O254 Zn247 1.975 . S
O254 C255 1.252 . S
C255 O254 1.252 . S
C255 O256 1.252 1_455 S
O256 Zn238 1.975 . S
O256 C255 1.252 1_655 S
H257 C250 0.930 1_455 S
H258 C251 0.930 . S
C259 C260 1.392 . S
C259 N263 1.328 . S
C259 H265 0.930 . S
C260 C259 1.392 . S
C260 N264 1.331 1_455 S
C261 C262 1.391 . S
C261 N264 1.329 . S
C261 H271 0.930 . S
C262 C261 1.391 . S
C262 N263 1.334 1_655 S
C262 H269 0.930 . S
N263 Zn247 2.119 . S
N263 C259 1.328 . S
N263 C262 1.334 1_455 S
N264 C260 1.331 1_655 S
N264 C261 1.329 . S
H265 C259 0.930 . S
C266 O246 1.257 . S
C266 O267 1.244 . S
O267 C266 1.244 . S
O268 C244 1.257 . S
O268 Zn247 2.019 . S
H269 C262 0.930 . S
H270 C249 0.930 1_455 S
H271 C261 0.930 . S
C51 C17 2.018 . S
C119 C85 2.018 . S
C153 C187 2.018 1_456 S
C255 C221 2.018 1_456 S
C117 C22 1.933 1_565 S
C90 C56 1.933 1_565 S
C158 C260 1.933 . S
C192 C219 1.933 . S
C37 C3 3.493 1_656 S
C103 C71 3.493 1_454 S
C139 C173 3.484 . S
C205 C241 3.484 . S
C35 C1 2.426 1_556 S
C69 C105 2.426 1_556 S
C171 C137 2.426 1_455 S
C207 C239 2.426 1_455 S
C15 C226 1.795 . S
C49 C253 1.795 . S
C83 C151 1.795 . S
C124 C185 1.795 . S
C6 C28 1.372 . S
C40 C62 1.371 . S
C74 C96 1.372 . S
C130 C108 1.371 . S
C142 C164 1.372 . S
C198 C176 1.371 . S
C210 C232 1.372 . S
C266 C244 1.371 . S
