# Generated by pormake.
# Topology vme, (6)-cn, num edge types: 1
# Building blocks:
#     Node 0, Type 0, BuildingBlock: VOLQOD_clean_sbu_1, # of connection points: 6
#     Node 1, Type 0, BuildingBlock: VOLQOD_clean_sbu_1, # of connection points: 6
#     Node 2, Type 0, BuildingBlock: VOLQOD_clean_sbu_1, # of connection points: 6
#     Node 3, Type 0, BuildingBlock: VOLQOD_clean_sbu_1, # of connection points: 6
#     Edge 4, Type (0, 0), BuildingBlock: CIFDUS_clean_linker_0, # of connection points: 2
#     Edge 5, Type (0, 0), BuildingBlock: CIFDUS_clean_linker_0, # of connection points: 2
#     Edge 6, Type (0, 0), BuildingBlock: CIFDUS_clean_linker_0, # of connection points: 2
#     Edge 7, Type (0, 0), BuildingBlock: CIFDUS_clean_linker_0, # of connection points: 2
#     Edge 8, Type (0, 0), BuildingBlock: CIFDUS_clean_linker_0, # of connection points: 2
#     Edge 9, Type (0, 0), BuildingBlock: CIFDUS_clean_linker_0, # of connection points: 2
#     Edge 10, Type (0, 0), BuildingBlock: CIFDUS_clean_linker_0, # of connection points: 2
#     Edge 11, Type (0, 0), BuildingBlock: CIFDUS_clean_linker_0, # of connection points: 2
#     Edge 12, Type (0, 0), BuildingBlock: CIFDUS_clean_linker_0, # of connection points: 2
#     Edge 13, Type (0, 0), BuildingBlock: CIFDUS_clean_linker_0, # of connection points: 2
#     Edge 14, Type (0, 0), BuildingBlock: CIFDUS_clean_linker_0, # of connection points: 2
#     Edge 15, Type (0, 0), BuildingBlock: CIFDUS_clean_linker_0, # of connection points: 2
# Relax obj value: 0.301
# Max RMSD: 0.246
# Mean RMSD: 0.246
data_MOF--net-vme--node1-VOLQOD_clean_sbu_1--edge1-CIFDUS_clean_linker_0
_symmetry_space_group_name_H-M    P1
_symmetry_Int_Tables_number       1
_symmetry_cell_setting            triclinic
loop_
_symmetry_equiv_pos_as_xyz
'x, y, z'
_cell_length_a     24.19877
_cell_length_b     24.555434
_cell_length_c     25.744375
_cell_angle_alpha  89.498938
_cell_angle_beta   115.36826
_cell_angle_gamma 90.188108
loop_
_atom_site_label
_atom_site_type_symbol
_atom_site_fract_x
_atom_site_fract_y
_atom_site_fract_z
_atom_type_partial_charge
O0 O 0.07952 0.39933 0.40775 0.0
Zn1 Zn 0.09735 0.36675 0.34609 0.0
O2 O 0.18467 0.36131 0.37278 0.0
Zn3 Zn 0.20838 0.28645 0.36816 0.0
Zn4 Zn 0.22538 0.38836 0.44961 0.0
Zn5 Zn 0.20732 0.41063 0.32741 0.0
O6 O 0.24175 0.28366 0.30601 0.0
O7 O 0.21809 0.36731 0.26808 0.0
O8 O 0.05541 0.29415 0.32558 0.0
O9 O 0.13293 0.23802 0.34163 0.0
O10 O 0.26174 0.2564 0.45005 0.0
O11 O 0.25315 0.3254 0.50165 0.0
O12 O 0.30171 0.42937 0.4627 0.0
O13 O 0.0598 0.4207 0.28133 0.0
O14 O 0.28944 0.44492 0.37363 0.0
O15 O 0.14206 0.46808 0.29142 0.0
C16 C 0.1106 0.42722 0.45226 0.0
C17 C 0.23634 0.31892 0.2669 0.0
C18 C 0.26924 0.27686 0.49829 0.0
C19 C 0.07616 0.24631 0.32706 0.0
C20 C 0.32143 0.44817 0.42765 0.0
C21 C 0.08413 0.46337 0.27173 0.0
O22 O 0.16847 0.43146 0.4716 0.0
O23 O 0.9313 0.89968 0.13975 0.0
Zn24 Zn 0.89654 0.8695 0.19142 0.0
O25 O 0.8087 0.86762 0.15131 0.0
Zn26 Zn 0.77934 0.79308 0.14311 0.0
Zn27 Zn 0.78287 0.90369 0.07802 0.0
Zn28 Zn 0.77685 0.91036 0.19423 0.0
O29 O 0.73443 0.78277 0.19477 0.0
O30 O 0.75535 0.86008 0.24471 0.0
O31 O 0.93296 0.79533 0.21532 0.0
O32 O 0.85193 0.74169 0.17425 0.0
O33 O 0.73333 0.77306 0.05711 0.0
O34 O 0.75041 0.84824 0.0173 0.0
O35 O 0.71192 0.95361 0.06048 0.0
O36 O 0.92537 0.92227 0.25657 0.0
O37 O 0.69783 0.94542 0.13978 0.0
O38 O 0.83997 0.96791 0.23897 0.0
C39 C 0.90958 0.92967 0.09498 0.0
C40 C 0.73446 0.81152 0.23622 0.0
C41 C 0.73025 0.79987 0.01304 0.0
C42 C 0.90949 0.74806 0.20251 0.0
C43 C 0.6799 0.96174 0.08801 0.0
C44 C 0.89822 0.96394 0.26367 0.0
O45 O 0.85255 0.93968 0.06887 0.0
O46 O 0.91255 0.59528 0.60518 0.0
Zn47 Zn 0.89366 0.62075 0.66957 0.0
O48 O 0.80585 0.61868 0.64459 0.0
Zn49 Zn 0.77274 0.68967 0.64666 0.0
Zn50 Zn 0.76759 0.59069 0.56849 0.0
Zn51 Zn 0.78684 0.56757 0.69081 0.0
O52 O 0.73648 0.68837 0.70637 0.0
O53 O 0.77379 0.60919 0.75074 0.0
O54 O 0.92817 0.69763 0.69276 0.0
O55 O 0.8426 0.74207 0.67731 0.0
O56 O 0.72212 0.71964 0.56388 0.0
O57 O 0.73814 0.65235 0.51473 0.0
O58 O 0.69345 0.54659 0.55552 0.0
O59 O 0.93547 0.5623 0.73021 0.0
O60 O 0.70629 0.53027 0.64467 0.0
O61 O 0.8558 0.51285 0.72452 0.0
C62 C 0.88393 0.56262 0.56412 0.0
C63 C 0.74792 0.65494 0.74842 0.0
C64 C 0.7189 0.69998 0.51667 0.0
C65 C 0.9001 0.74166 0.69262 0.0
C66 C 0.67454 0.52648 0.59063 0.0
C67 C 0.91325 0.51837 0.7404 0.0
O68 O 0.82782 0.55103 0.54898 0.0
O69 O 0.0689 0.08687 0.88264 0.0
Zn70 Zn 0.1034 0.11041 0.82831 0.0
O71 O 0.19107 0.11354 0.86865 0.0
Zn72 Zn 0.21927 0.18817 0.8756 0.0
Zn73 Zn 0.21662 0.07734 0.94175 0.0
Zn74 Zn 0.22558 0.07101 0.82819 0.0
O75 O 0.26534 0.19803 0.82483 0.0
O76 O 0.24476 0.12008 0.7761 0.0
O77 O 0.06579 0.18427 0.7975 0.0
O78 O 0.14577 0.23853 0.84179 0.0
O79 O 0.2639 0.20896 0.96143 0.0
O80 O 0.24896 0.13303 1.0016 0.0
O81 O 0.288 0.02721 0.96099 0.0
O82 O 0.07789 0.04895 0.77131 0.0
O83 O 0.30583 0.03976 0.88425 0.0
O84 O 0.1666 0.01042 0.78637 0.0
C85 C 0.09001 0.05615 0.9269 0.0
C86 C 0.26527 0.1687 0.78375 0.0
C87 C 0.268 0.18173 1.00563 0.0
C88 C 0.08868 0.23189 0.81081 0.0
C89 C 0.32241 0.0221 0.93537 0.0
C90 C 0.10829 0.00914 0.76507 0.0
O91 O 0.14635 0.04298 0.95117 0.0
H92 H 0.86467 0.07089 0.24858 0.0
H93 H 0.01871 0.96479 0.33911 0.0
H94 H 0.0874 0.043 0.36706 0.0
H95 H 0.10514 0.14046 0.35872 0.0
H96 H 0.95158 0.24694 0.26798 0.0
H97 H 0.88157 0.1697 0.24685 0.0
C98 C 0.91301 0.06499 0.27567 0.0
C99 C 0.93642 0.01195 0.29157 0.0
C100 C 0.95266 0.11013 0.29044 0.0
C101 C -0.00059 0.00512 0.32616 0.0
C102 C 0.03887 0.04981 0.3418 0.0
C103 C 0.05637 0.14678 0.33418 0.0
C104 C 0.0338 0.19931 0.3142 0.0
C105 C 0.01627 0.10228 0.32271 0.0
C106 C 0.97029 0.20688 0.2835 0.0
C107 C 0.93016 0.16273 0.27153 0.0
H108 H 0.11737 0.56966 0.28486 0.0
H109 H 0.96139 0.46417 0.20273 0.0
H110 H 0.89338 0.54317 0.17354 0.0
H111 H 0.87774 0.64163 0.17654 0.0
H112 H 0.03393 0.74643 0.26227 0.0
H113 H 0.1021 0.66813 0.28533 0.0
C114 C 0.06864 0.56399 0.25957 0.0
C115 C 0.04453 0.51114 0.24576 0.0
C116 C 0.02965 0.60939 0.24452 0.0
C117 C 0.98112 0.50447 0.21379 0.0
C118 C 0.94216 0.54959 0.19741 0.0
C119 C 0.92666 0.64742 0.20038 0.0
C120 C 0.95045 0.69994 0.21795 0.0
C121 C 0.96581 0.60214 0.21362 0.0
C122 C 0.01412 0.70653 0.24847 0.0
C123 C 0.0533 0.66177 0.2615 0.0
H124 H 0.99168 0.98414 0.74434 0.0
H125 H 0.15256 0.91584 0.73761 0.0
H126 H 0.10322 0.82633 0.7156 0.0
H127 H 0.01536 0.76646 0.70261 0.0
H128 H 0.85743 0.83704 0.71371 0.0
H129 H 0.90527 0.92613 0.73058 0.0
C130 C 0.01587 0.95004 0.73716 0.0
C131 C 0.07574 0.95704 0.74235 0.0
C132 C 0.9881 0.89858 0.72636 0.0
C133 C 0.1063 0.91186 0.73356 0.0
C134 C 0.07828 0.8605 0.72144 0.0
C135 C 0.99168 0.80127 0.70915 0.0
C136 C 0.93282 0.79468 0.707 0.0
C137 C 0.01951 0.85312 0.71877 0.0
C138 C 0.90267 0.84054 0.71506 0.0
C139 C 0.92988 0.89177 0.72454 0.0
H140 H 0.88088 0.41149 0.72811 0.0
H141 H 0.0377 0.51737 0.80227 0.0
H142 H 0.10571 0.43826 0.83009 0.0
H143 H 0.12083 0.33921 0.83047 0.0
H144 H 0.96376 0.23382 0.75271 0.0
H145 H 0.89594 0.31262 0.72865 0.0
C146 C 0.92989 0.41731 0.75119 0.0
C147 C 0.95404 0.47041 0.76357 0.0
C148 C 0.96883 0.37171 0.76562 0.0
C149 C 0.0178 0.47704 0.79247 0.0
C150 C 0.05676 0.43179 0.80813 0.0
C151 C 0.07179 0.33334 0.80807 0.0
C152 C 0.0477 0.28036 0.79334 0.0
C153 C 0.03283 0.37896 0.79425 0.0
C154 C 0.98387 0.27391 0.76439 0.0
C155 C 0.9449 0.31902 0.75082 0.0
H156 H 0.00645 0.56354 0.59657 0.0
H157 H 0.8365 0.5012 0.46698 0.0
H158 H 0.89224 0.45388 0.42137 0.0
H159 H 0.98843 0.42938 0.41904 0.0
H160 H 0.15897 0.49059 0.54866 0.0
H161 H 0.10327 0.53931 0.59376 0.0
C162 C 0.9815 0.53989 0.55814 0.0
C163 C 0.91741 0.53592 0.53519 0.0
C164 C 0.01379 0.51244 0.5324 0.0
C165 C 0.88585 0.50482 0.4856 0.0
C166 C 0.91764 0.47773 0.4595 0.0
C167 C 0.01366 0.45328 0.45722 0.0
C168 C 0.0778 0.45624 0.48051 0.0
C169 C 0.98154 0.48105 0.48276 0.0
C170 C 0.10957 0.48755 0.52991 0.0
C171 C 0.07779 0.51546 0.55566 0.0
H172 H 0.87968 0.9872 0.99603 0.0
H173 H 0.03401 0.92134 0.14274 0.0
H174 H 0.10328 0.95447 0.10339 0.0
H175 H 0.12001 0.00092 0.02707 0.0
H176 H 0.9658 0.06676 0.88029 0.0
H177 H 0.89656 0.03459 0.92016 0.0
C178 C 0.92847 0.98028 0.01956 0.0
C179 C 0.95152 0.95178 0.07214 0.0
C180 C 0.9681 -0.00083 0.99667 0.0
C181 C 0.01493 0.94308 0.10204 0.0
C182 C 0.05466 0.96194 0.0796 0.0
C183 C 0.07126 0.00815 1.00369 0.0
C184 C 0.04817 0.03608 0.9508 0.0
C185 C 0.03169 0.98974 0.02683 0.0
C186 C 0.98486 0.04537 0.92119 0.0
C187 C 0.94516 0.02702 0.94391 0.0
H188 H 0.24439 0.28481 0.02779 0.0
H189 H 0.32958 0.1343 0.11013 0.0
H190 H 0.331 0.1645 0.20076 0.0
H191 H 0.29444 0.2282 0.25272 0.0
H192 H 0.20723 0.378 0.16875 0.0
H193 H 0.22008 0.35356 0.08349 0.0
C194 C 0.26531 0.25959 0.06614 0.0
C195 C 0.28662 0.20746 0.06227 0.0
C196 C 0.26404 0.2764 0.11772 0.0
C197 C 0.31278 0.17473 0.11212 0.0
C198 C 0.31301 0.19168 0.16384 0.0
C199 C 0.27871 0.25563 0.21596 0.0
C200 C 0.24904 0.30437 0.21717 0.0
C201 C 0.28627 0.24144 0.16649 0.0
C202 C 0.2298 0.33985 0.16924 0.0
C203 C 0.23718 0.32605 0.12018 0.0
H204 H 0.73362 0.8584 0.33199 0.0
H205 H 0.68874 0.70914 0.23484 0.0
H206 H 0.66782 0.66481 0.30961 0.0
H207 H 0.6759 0.66462 0.40746 0.0
H208 H 0.72716 0.81123 0.50818 0.0
H209 H 0.72966 0.86097 0.42621 0.0
C210 C 0.71848 0.81636 0.32668 0.0
C211 C 0.71386 0.78695 0.27802 0.0
C212 C 0.70745 0.7907 0.37047 0.0
C213 C 0.69348 0.73269 0.27189 0.0
C214 C 0.68143 0.70726 0.3147 0.0
C215 C 0.68625 0.70784 0.41115 0.0
C216 C 0.70204 0.73403 0.46416 0.0
C217 C 0.69018 0.73534 0.36488 0.0
C218 C 0.71459 0.79011 0.46794 0.0
C219 C 0.71688 0.81834 0.42126 0.0
H220 H 0.74637 0.69461 0.98953 0.0
H221 H 0.67221 0.84879 0.90886 0.0
H222 H 0.66551 0.81595 0.81721 0.0
H223 H 0.69479 0.74832 0.76364 0.0
H224 H 0.77147 0.59472 0.84532 0.0
H225 H 0.76281 0.62227 0.93197 0.0
C226 C 0.72682 0.72025 0.95142 0.0
C227 C 0.71015 0.77408 0.95607 0.0
C228 C 0.72488 0.70169 0.89902 0.0
C229 C 0.68563 0.80718 0.90641 0.0
C230 C 0.68222 0.7886 0.85402 0.0
C231 C 0.70884 0.72056 0.80005 0.0
C232 C 0.73479 0.66995 0.79793 0.0
C233 C 0.70414 0.73674 0.85038 0.0
C234 C 0.75205 0.63433 0.8456 0.0
C235 C 0.74709 0.64997 0.89545 0.0
H236 H 0.26256 0.12062 0.68748 0.0
H237 H 0.31224 0.27036 0.78368 0.0
H238 H 0.33056 0.31346 0.70676 0.0
H239 H 0.31804 0.31262 0.60754 0.0
H240 H 0.26022 0.16582 0.50762 0.0
H241 H 0.26186 0.11688 0.59166 0.0
C242 C 0.27823 0.16249 0.69214 0.0
C243 C 0.2849 0.19248 0.74108 0.0
C244 C 0.28737 0.18745 0.6471 0.0
C245 C 0.30593 0.24646 0.74638 0.0
C246 C 0.31646 0.27116 0.70237 0.0
C247 C 0.30705 0.26954 0.60438 0.0
C248 C 0.2881 0.24308 0.5511 0.0
C249 C 0.30524 0.24261 0.65183 0.0
C250 C 0.27501 0.18714 0.54803 0.0
C251 C 0.27514 0.15938 0.5959 0.0
H252 H 0.41038 0.43927 0.53679 0.0
H253 H 0.37583 0.50171 0.36826 0.0
H254 H 0.48297 0.52833 0.40326 0.0
H255 H 0.58609 0.53359 0.48126 0.0
H256 H 0.62082 0.47157 0.64997 0.0
H257 H 0.51382 0.44414 0.61481 0.0
C258 C 0.42604 0.4592 0.50776 0.0
C259 C 0.38494 0.46875 0.45001 0.0
C260 C 0.48785 0.47372 0.52793 0.0
C261 C 0.40635 0.49404 0.41294 0.0
C262 C 0.46769 0.50904 0.43284 0.0
C263 C 0.57057 0.51351 0.51031 0.0
C264 C 0.61161 0.50445 0.56817 0.0
C265 C 0.50887 0.49872 0.49011 0.0
C266 C 0.59034 0.47889 0.60521 0.0
C267 C 0.52908 0.46346 0.58522 0.0
H268 H 0.4189 0.03805 0.90976 0.0
H269 H 0.36906 0.96586 0.03723 0.0
H270 H 0.47635 0.94497 0.09807 0.0
H271 H 0.58414 0.94766 0.11518 0.0
H272 H 0.63368 0.01965 0.98744 0.0
H273 H 0.52655 0.04141 0.92716 0.0
C274 C 0.43132 0.01703 0.95047 0.0
C275 C 0.38594 0.00311 0.96867 0.0
C276 C 0.49311 0.00618 0.98572 0.0
C277 C 0.40306 0.97673 0.02203 0.0
C278 C 0.46442 0.96513 0.05704 0.0
C279 C 0.57166 0.96896 0.07462 0.0
C280 C 0.61688 0.98236 0.05602 0.0
C281 C 0.50987 0.98018 0.03956 0.0
C282 C 0.59977 0.00912 1.00286 0.0
C283 C 0.5385 0.0212 0.96817 0.0
loop_
_geom_bond_atom_site_label_1
_geom_bond_atom_site_label_2
_geom_bond_distance
_geom_bond_site_symmetry_2
_ccdc_geom_bond_type
O0 Zn1 1.953 . S
O0 C16 1.225 . S
Zn1 O0 1.953 . S
Zn1 O2 1.949 . S
Zn1 O8 1.919 . S
Zn1 O13 1.924 . S
O2 Zn1 1.949 . S
O2 Zn3 1.923 . S
O2 Zn4 1.950 . S
O2 Zn5 1.945 . S
Zn3 O2 1.923 . S
Zn3 O6 1.933 . S
Zn3 O9 1.941 . S
Zn3 O10 1.965 . S
Zn4 O2 1.950 . S
Zn4 O11 1.938 . S
Zn4 O12 1.906 . S
Zn4 O22 1.953 . S
Zn5 O2 1.945 . S
Zn5 O7 1.932 . S
Zn5 O14 1.977 . S
Zn5 O15 1.910 . S
O6 Zn3 1.933 . S
O6 C17 1.226 . S
O7 Zn5 1.932 . S
O7 C17 1.307 . S
O8 Zn1 1.919 . S
O8 C19 1.253 . S
O9 Zn3 1.941 . S
O9 C19 1.283 . S
O10 Zn3 1.965 . S
O10 C18 1.303 . S
O11 Zn4 1.938 . S
O11 C18 1.247 . S
O12 Zn4 1.906 . S
O12 C20 1.304 . S
O13 Zn1 1.924 . S
O13 C21 1.311 . S
O14 Zn5 1.977 . S
O14 C20 1.272 . S
O15 Zn5 1.910 . S
O15 C21 1.231 . S
C16 O0 1.225 . S
C16 O22 1.298 . S
C17 O6 1.226 . S
C17 O7 1.307 . S
C18 O10 1.303 . S
C18 O11 1.247 . S
C19 O8 1.253 . S
C19 O9 1.283 . S
C20 O12 1.304 . S
C20 O14 1.272 . S
C21 O13 1.311 . S
C21 O15 1.231 . S
O22 Zn4 1.953 . S
O22 C16 1.298 . S
O23 Zn24 1.953 . S
O23 C39 1.225 . S
Zn24 O23 1.953 . S
Zn24 O25 1.949 . S
Zn24 O31 1.919 . S
Zn24 O36 1.924 . S
O25 Zn24 1.949 . S
O25 Zn26 1.923 . S
O25 Zn27 1.950 . S
O25 Zn28 1.945 . S
Zn26 O25 1.923 . S
Zn26 O29 1.933 . S
Zn26 O32 1.941 . S
Zn26 O33 1.965 . S
Zn27 O25 1.950 . S
Zn27 O34 1.938 1_554 S
Zn27 O35 1.906 . S
Zn27 O45 1.953 . S
Zn28 O25 1.945 . S
Zn28 O30 1.932 . S
Zn28 O37 1.977 . S
Zn28 O38 1.910 . S
O29 Zn26 1.933 . S
O29 C40 1.226 . S
O30 Zn28 1.932 . S
O30 C40 1.307 . S
O31 Zn24 1.919 . S
O31 C42 1.253 . S
O32 Zn26 1.941 . S
O32 C42 1.283 . S
O33 Zn26 1.965 . S
O33 C41 1.303 1_554 S
O34 Zn27 1.938 1_556 S
O34 C41 1.247 . S
O35 Zn27 1.906 . S
O35 C43 1.304 . S
O36 Zn24 1.924 . S
O36 C44 1.311 . S
O37 Zn28 1.977 . S
O37 C43 1.272 . S
O38 Zn28 1.910 . S
O38 C44 1.231 . S
C39 O23 1.225 . S
C39 O45 1.298 . S
C40 O29 1.226 . S
C40 O30 1.307 . S
C41 O33 1.303 1_556 S
C41 O34 1.247 . S
C42 O31 1.253 . S
C42 O32 1.283 . S
C43 O35 1.304 . S
C43 O37 1.272 . S
C44 O36 1.311 . S
C44 O38 1.231 . S
O45 Zn27 1.953 . S
O45 C39 1.298 . S
O46 Zn47 1.953 . S
O46 C62 1.225 . S
Zn47 O46 1.953 . S
Zn47 O48 1.949 . S
Zn47 O54 1.919 . S
Zn47 O59 1.924 . S
O48 Zn47 1.949 . S
O48 Zn49 1.923 . S
O48 Zn50 1.950 . S
O48 Zn51 1.945 . S
Zn49 O48 1.923 . S
Zn49 O52 1.933 . S
Zn49 O55 1.941 . S
Zn49 O56 1.965 . S
Zn50 O48 1.950 . S
Zn50 O57 1.938 . S
Zn50 O58 1.906 . S
Zn50 O68 1.953 . S
Zn51 O48 1.945 . S
Zn51 O53 1.932 . S
Zn51 O60 1.977 . S
Zn51 O61 1.910 . S
O52 Zn49 1.933 . S
O52 C63 1.226 . S
O53 Zn51 1.932 . S
O53 C63 1.307 . S
O54 Zn47 1.919 . S
O54 C65 1.253 . S
O55 Zn49 1.941 . S
O55 C65 1.283 . S
O56 Zn49 1.965 . S
O56 C64 1.303 . S
O57 Zn50 1.938 . S
O57 C64 1.247 . S
O58 Zn50 1.906 . S
O58 C66 1.304 . S
O59 Zn47 1.924 . S
O59 C67 1.311 . S
O60 Zn51 1.977 . S
O60 C66 1.272 . S
O61 Zn51 1.910 . S
O61 C67 1.231 . S
C62 O46 1.225 . S
C62 O68 1.298 . S
C63 O52 1.226 . S
C63 O53 1.307 . S
C64 O56 1.303 . S
C64 O57 1.247 . S
C65 O54 1.253 . S
C65 O55 1.283 . S
C66 O58 1.304 . S
C66 O60 1.272 . S
C67 O59 1.311 . S
C67 O61 1.231 . S
O68 Zn50 1.953 . S
O68 C62 1.298 . S
O69 Zn70 1.953 . S
O69 C85 1.225 . S
Zn70 O69 1.953 . S
Zn70 O71 1.949 . S
Zn70 O77 1.919 . S
Zn70 O82 1.924 . S
O71 Zn70 1.949 . S
O71 Zn72 1.923 . S
O71 Zn73 1.950 . S
O71 Zn74 1.945 . S
Zn72 O71 1.923 . S
Zn72 O75 1.933 . S
Zn72 O78 1.941 . S
Zn72 O79 1.965 . S
Zn73 O71 1.950 . S
Zn73 O80 1.938 1_556 S
Zn73 O81 1.906 . S
Zn73 O91 1.953 . S
Zn74 O71 1.945 . S
Zn74 O76 1.932 . S
Zn74 O83 1.977 . S
Zn74 O84 1.910 . S
O75 Zn72 1.933 . S
O75 C86 1.226 . S
O76 Zn74 1.932 . S
O76 C86 1.307 . S
O77 Zn70 1.919 . S
O77 C88 1.253 . S
O78 Zn72 1.941 . S
O78 C88 1.283 . S
O79 Zn72 1.965 . S
O79 C87 1.303 1_556 S
O80 Zn73 1.938 1_554 S
O80 C87 1.247 . S
O81 Zn73 1.906 . S
O81 C89 1.304 . S
O82 Zn70 1.924 . S
O82 C90 1.311 . S
O83 Zn74 1.977 . S
O83 C89 1.272 . S
O84 Zn74 1.910 . S
O84 C90 1.231 . S
C85 O69 1.225 . S
C85 O91 1.298 . S
C86 O75 1.226 . S
C86 O76 1.307 . S
C87 O79 1.303 1_554 S
C87 O80 1.247 . S
C88 O77 1.253 . S
C88 O78 1.283 . S
C89 O81 1.304 . S
C89 O83 1.272 . S
C90 O82 1.311 . S
C90 O84 1.231 . S
O91 Zn73 1.953 . S
O91 C85 1.298 . S
H92 C98 0.930 . S
H93 C101 0.930 1_455 S
H94 C102 0.930 . S
H95 C103 0.930 . S
H96 C106 0.930 . S
H97 C107 0.930 . S
C98 H92 0.930 . S
C98 C99 1.355 . S
C98 C100 1.415 . S
C99 C98 1.355 . S
C99 C101 1.419 . S
C100 C98 1.415 . S
C100 C105 1.425 1_655 S
C100 C107 1.409 . S
C101 H93 0.930 1_655 S
C101 C99 1.419 . S
C101 C102 1.362 1_655 S
C102 H94 0.930 . S
C102 C101 1.362 1_455 S
C102 C105 1.409 . S
C103 H95 0.930 . S
C103 C104 1.355 . S
C103 C105 1.415 . S
C104 C103 1.355 . S
C104 C106 1.419 1_455 S
C105 C100 1.425 1_455 S
C105 C102 1.409 . S
C105 C103 1.415 . S
C106 H96 0.930 . S
C106 C104 1.419 1_655 S
C106 C107 1.362 . S
C107 H97 0.930 . S
C107 C100 1.409 . S
C107 C106 1.362 . S
H108 C114 0.930 . S
H109 C117 0.930 . S
H110 C118 0.930 . S
H111 C119 0.930 . S
H112 C122 0.930 . S
H113 C123 0.930 . S
C114 H108 0.930 . S
C114 C115 1.355 . S
C114 C116 1.415 . S
C115 C114 1.355 . S
C115 C117 1.419 . S
C116 C114 1.415 . S
C116 C121 1.425 . S
C116 C123 1.409 . S
C117 H109 0.930 . S
C117 C115 1.419 . S
C117 C118 1.362 . S
C118 H110 0.930 . S
C118 C117 1.362 . S
C118 C121 1.409 . S
C119 H111 0.930 . S
C119 C120 1.355 . S
C119 C121 1.415 1_655 S
C120 C119 1.355 . S
C120 C122 1.419 . S
C121 C116 1.425 . S
C121 C118 1.409 . S
C121 C119 1.415 1_455 S
C122 H112 0.930 . S
C122 C120 1.419 . S
C122 C123 1.362 1_655 S
C123 H113 0.930 . S
C123 C116 1.409 . S
C123 C122 1.362 1_455 S
H124 C130 0.930 1_655 S
H125 C133 0.930 . S
H126 C134 0.930 . S
H127 C135 0.930 . S
H128 C138 0.930 . S
H129 C139 0.930 . S
C130 H124 0.930 1_455 S
C130 C131 1.355 . S
C130 C132 1.415 . S
C131 C130 1.355 . S
C131 C133 1.419 . S
C132 C130 1.415 . S
C132 C137 1.425 . S
C132 C139 1.409 1_455 S
C133 H125 0.930 . S
C133 C131 1.419 . S
C133 C134 1.362 . S
C134 H126 0.930 . S
C134 C133 1.362 . S
C134 C137 1.409 . S
C135 H127 0.930 . S
C135 C136 1.355 1_455 S
C135 C137 1.415 . S
C136 C135 1.355 1_655 S
C136 C138 1.419 . S
C137 C132 1.425 . S
C137 C134 1.409 . S
C137 C135 1.415 . S
C138 H128 0.930 . S
C138 C136 1.419 . S
C138 C139 1.362 . S
C139 H129 0.930 . S
C139 C132 1.409 1_655 S
C139 C138 1.362 . S
H140 C146 0.930 . S
H141 C149 0.925 1_455 S
H142 C150 0.930 . S
H143 C151 0.930 . S
H144 C154 0.930 . S
H145 C155 0.930 . S
C146 H140 0.930 . S
C146 C147 1.355 . S
C146 C148 1.415 . S
C147 C146 1.355 . S
C147 C149 1.419 . S
C148 C146 1.415 . S
C148 C153 1.425 1_655 S
C148 C155 1.409 . S
C149 H141 0.925 1_655 S
C149 C147 1.419 . S
C149 C150 1.362 1_655 S
C150 H142 0.930 . S
C150 C149 1.362 1_455 S
C150 C153 1.409 . S
C151 H143 0.930 . S
C151 C152 1.355 . S
C151 C153 1.415 . S
C152 C151 1.355 . S
C152 C154 1.419 1_455 S
C153 C148 1.425 1_455 S
C153 C150 1.409 . S
C153 C151 1.415 . S
C154 H144 0.930 . S
C154 C152 1.419 1_655 S
C154 C155 1.362 . S
C155 H145 0.930 . S
C155 C148 1.409 . S
C155 C154 1.362 . S
H156 C162 0.930 . S
H157 C165 0.930 . S
H158 C166 0.930 . S
H159 C167 0.930 . S
H160 C170 0.930 . S
H161 C171 0.930 . S
C162 H156 0.930 . S
C162 C163 1.355 . S
C162 C164 1.415 1_655 S
C163 C162 1.355 . S
C163 C165 1.419 . S
C164 C162 1.415 1_455 S
C164 C169 1.425 1_455 S
C164 C171 1.409 . S
C165 H157 0.930 . S
C165 C163 1.419 . S
C165 C166 1.362 . S
C166 H158 0.930 . S
C166 C165 1.362 . S
C166 C169 1.409 . S
C167 H159 0.930 . S
C167 C168 1.355 . S
C167 C169 1.415 1_455 S
C168 C167 1.355 . S
C168 C170 1.419 . S
C169 C164 1.425 1_655 S
C169 C166 1.409 . S
C169 C167 1.415 1_655 S
C170 H160 0.930 . S
C170 C168 1.419 . S
C170 C171 1.362 . S
C171 H161 0.930 . S
C171 C164 1.409 . S
C171 C170 1.362 . S
H172 C178 0.929 . S
H173 C181 0.930 . S
H174 C182 0.930 . S
H175 C183 0.929 . S
H176 C186 0.930 . S
H177 C187 0.930 . S
C178 H172 0.929 . S
C178 C179 1.354 1_546 S
C178 C180 1.415 . S
C179 C178 1.354 1_564 S
C179 C181 1.419 . S
C180 C178 1.415 . S
C180 C185 1.425 1_646 S
C180 C187 1.409 . S
C181 H173 0.930 . S
C181 C179 1.419 . S
C181 C182 1.362 1_655 S
C182 H174 0.930 . S
C182 C181 1.362 1_455 S
C182 C185 1.409 . S
C183 H175 0.929 . S
C183 C184 1.354 1_564 S
C183 C185 1.415 . S
C184 C183 1.354 1_546 S
C184 C186 1.419 . S
C185 C180 1.425 1_464 S
C185 C182 1.409 . S
C185 C183 1.415 . S
C186 H176 0.930 . S
C186 C184 1.419 . S
C186 C187 1.362 1_455 S
C187 H177 0.930 . S
C187 C180 1.409 . S
C187 C186 1.362 1_655 S
H188 C194 0.930 . S
H189 C197 0.930 . S
H190 C198 0.930 . S
H191 C199 0.930 . S
H192 C202 0.930 . S
H193 C203 0.930 . S
C194 H188 0.930 . S
C194 C195 1.355 . S
C194 C196 1.415 . S
C195 C194 1.355 . S
C195 C197 1.419 . S
C196 C194 1.415 . S
C196 C201 1.425 . S
C196 C203 1.409 . S
C197 H189 0.930 . S
C197 C195 1.419 . S
C197 C198 1.362 . S
C198 H190 0.930 . S
C198 C197 1.362 . S
C198 C201 1.409 . S
C199 H191 0.930 . S
C199 C200 1.355 . S
C199 C201 1.415 . S
C200 C199 1.355 . S
C200 C202 1.419 . S
C201 C196 1.425 . S
C201 C198 1.409 . S
C201 C199 1.415 . S
C202 H192 0.930 . S
C202 C200 1.419 . S
C202 C203 1.362 . S
C203 H193 0.930 . S
C203 C196 1.409 . S
C203 C202 1.362 . S
H204 C210 0.930 . S
H205 C213 0.930 . S
H206 C214 0.930 . S
H207 C215 0.930 . S
H208 C218 0.930 . S
H209 C219 0.930 . S
C210 H204 0.930 . S
C210 C211 1.355 . S
C210 C212 1.415 . S
C211 C210 1.355 . S
C211 C213 1.419 . S
C212 C210 1.415 . S
C212 C217 1.425 . S
C212 C219 1.409 . S
C213 H205 0.930 . S
C213 C211 1.419 . S
C213 C214 1.362 . S
C214 H206 0.930 . S
C214 C213 1.362 . S
C214 C217 1.409 . S
C215 H207 0.930 . S
C215 C216 1.355 . S
C215 C217 1.415 . S
C216 C215 1.355 . S
C216 C218 1.419 . S
C217 C212 1.425 . S
C217 C214 1.409 . S
C217 C215 1.415 . S
C218 H208 0.930 . S
C218 C216 1.419 . S
C218 C219 1.362 . S
C219 H209 0.930 . S
C219 C212 1.409 . S
C219 C218 1.362 . S
H220 C226 0.930 . S
H221 C229 0.930 . S
H222 C230 0.930 . S
H223 C231 0.930 . S
H224 C234 0.930 . S
H225 C235 0.930 . S
C226 H220 0.930 . S
C226 C227 1.355 . S
C226 C228 1.415 . S
C227 C226 1.355 . S
C227 C229 1.419 . S
C228 C226 1.415 . S
C228 C233 1.425 . S
C228 C235 1.409 . S
C229 H221 0.930 . S
C229 C227 1.419 . S
C229 C230 1.362 . S
C230 H222 0.930 . S
C230 C229 1.362 . S
C230 C233 1.409 . S
C231 H223 0.930 . S
C231 C232 1.355 . S
C231 C233 1.415 . S
C232 C231 1.355 . S
C232 C234 1.419 . S
C233 C228 1.425 . S
C233 C230 1.409 . S
C233 C231 1.415 . S
C234 H224 0.930 . S
C234 C232 1.419 . S
C234 C235 1.362 . S
C235 H225 0.930 . S
C235 C228 1.409 . S
C235 C234 1.362 . S
H236 C242 0.930 . S
H237 C245 0.930 . S
H238 C246 0.930 . S
H239 C247 0.930 . S
H240 C250 0.930 . S
H241 C251 0.930 . S
C242 H236 0.930 . S
C242 C243 1.355 . S
C242 C244 1.415 . S
C243 C242 1.355 . S
C243 C245 1.419 . S
C244 C242 1.415 . S
C244 C249 1.425 . S
C244 C251 1.409 . S
C245 H237 0.930 . S
C245 C243 1.419 . S
C245 C246 1.362 . S
C246 H238 0.930 . S
C246 C245 1.362 . S
C246 C249 1.409 . S
C247 H239 0.930 . S
C247 C248 1.355 . S
C247 C249 1.415 . S
C248 C247 1.355 . S
C248 C250 1.419 . S
C249 C244 1.425 . S
C249 C246 1.409 . S
C249 C247 1.415 . S
C250 H240 0.930 . S
C250 C248 1.419 . S
C250 C251 1.362 . S
C251 H241 0.930 . S
C251 C244 1.409 . S
C251 C250 1.362 . S
H252 C258 0.930 . S
H253 C261 0.930 . S
H254 C262 0.930 . S
H255 C263 0.930 . S
H256 C266 0.930 . S
H257 C267 0.930 . S
C258 H252 0.930 . S
C258 C259 1.355 . S
C258 C260 1.415 . S
C259 C258 1.355 . S
C259 C261 1.419 . S
C260 C258 1.415 . S
C260 C265 1.425 . S
C260 C267 1.409 . S
C261 H253 0.930 . S
C261 C259 1.419 . S
C261 C262 1.362 . S
C262 H254 0.930 . S
C262 C261 1.362 . S
C262 C265 1.409 . S
C263 H255 0.930 . S
C263 C264 1.355 . S
C263 C265 1.415 . S
C264 C263 1.355 . S
C264 C266 1.419 . S
C265 C260 1.425 . S
C265 C262 1.409 . S
C265 C263 1.415 . S
C266 H256 0.930 . S
C266 C264 1.419 . S
C266 C267 1.362 . S
C267 H257 0.930 . S
C267 C260 1.409 . S
C267 C266 1.362 . S
H268 C274 0.930 . S
H269 C277 0.930 . S
H270 C278 0.930 . S
H271 C279 0.930 . S
H272 C282 0.930 . S
H273 C283 0.930 . S
C274 H268 0.930 . S
C274 C275 1.355 . S
C274 C276 1.415 . S
C275 C274 1.355 . S
C275 C277 1.419 1_545 S
C276 C274 1.415 . S
C276 C281 1.425 1_546 S
C276 C283 1.409 1_556 S
C277 H269 0.930 . S
C277 C275 1.419 1_565 S
C277 C278 1.362 . S
C278 H270 0.930 . S
C278 C277 1.362 . S
C278 C281 1.409 1_556 S
C279 H271 0.930 . S
C279 C280 1.355 . S
C279 C281 1.415 . S
C280 C279 1.355 . S
C280 C282 1.419 1_565 S
C281 C276 1.425 1_564 S
C281 C278 1.409 1_554 S
C281 C279 1.415 . S
C282 H272 0.930 . S
C282 C280 1.419 1_545 S
C282 C283 1.362 . S
C283 H273 0.930 . S
C283 C276 1.409 1_554 S
C283 C282 1.362 . S
C99 C44 1.669 1_545 S
C104 C19 1.627 . S
C115 C21 1.668 . S
C120 C42 1.589 . S
C131 C90 1.676 1_565 S
C136 C65 1.607 . S
C147 C67 1.670 . S
C152 C88 1.631 . S
C163 C62 1.001 . S
C168 C16 1.001 . S
C179 C39 0.954 . S
C184 C85 0.954 . S
C195 C87 1.599 . S
C200 C17 1.603 . S
C211 C40 1.620 . S
C216 C64 1.640 . S
C227 C41 1.602 . S
C232 C63 1.607 . S
C243 C86 1.586 . S
C248 C18 1.621 . S
C259 C20 1.349 . S
C264 C66 1.349 . S
C275 C89 1.350 . S
C280 C43 1.350 . S
