# Generated by pormake.
# Topology qtz-e, (6)-cn, num edge types: 1
# Building blocks:
#     Node 0, Type 0, BuildingBlock: BETDAH_clean_sbu_0, # of connection points: 6
#     Node 1, Type 0, BuildingBlock: BETDAH_clean_sbu_0, # of connection points: 6
#     Node 2, Type 0, BuildingBlock: BETDAH_clean_sbu_0, # of connection points: 6
#     Node 3, Type 0, BuildingBlock: BETDAH_clean_sbu_0, # of connection points: 6
#     Node 4, Type 0, BuildingBlock: BETDAH_clean_sbu_0, # of connection points: 6
#     Node 5, Type 0, BuildingBlock: BETDAH_clean_sbu_0, # of connection points: 6
#     Edge 6, Type (0, 0), BuildingBlock: CIFDUS_clean_linker_0, # of connection points: 2
#     Edge 7, Type (0, 0), BuildingBlock: CIFDUS_clean_linker_0, # of connection points: 2
#     Edge 8, Type (0, 0), BuildingBlock: CIFDUS_clean_linker_0, # of connection points: 2
#     Edge 9, Type (0, 0), BuildingBlock: CIFDUS_clean_linker_0, # of connection points: 2
#     Edge 10, Type (0, 0), BuildingBlock: CIFDUS_clean_linker_0, # of connection points: 2
#     Edge 11, Type (0, 0), BuildingBlock: CIFDUS_clean_linker_0, # of connection points: 2
#     Edge 12, Type (0, 0), BuildingBlock: CIFDUS_clean_linker_0, # of connection points: 2
#     Edge 13, Type (0, 0), BuildingBlock: CIFDUS_clean_linker_0, # of connection points: 2
#     Edge 14, Type (0, 0), BuildingBlock: CIFDUS_clean_linker_0, # of connection points: 2
#     Edge 15, Type (0, 0), BuildingBlock: CIFDUS_clean_linker_0, # of connection points: 2
#     Edge 16, Type (0, 0), BuildingBlock: CIFDUS_clean_linker_0, # of connection points: 2
#     Edge 17, Type (0, 0), BuildingBlock: CIFDUS_clean_linker_0, # of connection points: 2
#     Edge 18, Type (0, 0), BuildingBlock: CIFDUS_clean_linker_0, # of connection points: 2
#     Edge 19, Type (0, 0), BuildingBlock: CIFDUS_clean_linker_0, # of connection points: 2
#     Edge 20, Type (0, 0), BuildingBlock: CIFDUS_clean_linker_0, # of connection points: 2
#     Edge 21, Type (0, 0), BuildingBlock: CIFDUS_clean_linker_0, # of connection points: 2
#     Edge 22, Type (0, 0), BuildingBlock: CIFDUS_clean_linker_0, # of connection points: 2
#     Edge 23, Type (0, 0), BuildingBlock: CIFDUS_clean_linker_0, # of connection points: 2
# Relax obj value: 0.092
# Max RMSD: 0.180
# Mean RMSD: 0.180
data_MOF--net-qtz-e--node1-BETDAH_clean_sbu_0--edge1-CIFDUS_clean_linker_0
_symmetry_space_group_name_H-M    P1
_symmetry_Int_Tables_number       1
_symmetry_cell_setting            triclinic
loop_
_symmetry_equiv_pos_as_xyz
'x, y, z'
_cell_length_a     22.963602
_cell_length_b     22.704063
_cell_length_c     47.251081
_cell_angle_alpha  89.810853
_cell_angle_beta   90.472246
_cell_angle_gamma 119.01964
loop_
_atom_site_label
_atom_site_type_symbol
_atom_site_fract_x
_atom_site_fract_y
_atom_site_fract_z
_atom_type_partial_charge
Ho0 Ho 0.21445 0.47052 0.07439 0.0
Ho1 Ho 0.15349 0.33317 0.0452 0.0
C2 C 0.10929 0.34097 0.10806 0.0
C3 C 0.25544 0.58737 0.09666 0.0
C4 C 0.26339 0.60578 0.12669 0.0
C5 C 0.23844 0.55462 0.14715 0.0
C6 C 0.24271 0.57058 0.1758 0.0
C7 C 0.27294 0.63812 0.18452 0.0
C8 C 0.29969 0.68947 0.16403 0.0
C9 C 0.29461 0.67333 0.13521 0.0
C10 C 0.27537 0.3971 0.08754 0.0
C11 C 0.25966 0.46576 1.01071 0.0
C12 C 0.1304 0.22891 1.01491 0.0
C13 C 0.16085 0.21926 0.98909 0.0
C14 C 0.22725 0.26423 0.98236 0.0
C15 C 0.25353 0.25987 0.95633 0.0
C16 C 0.21445 0.20954 0.93643 0.0
C17 C 0.14832 0.16316 0.94375 0.0
C18 C 0.12178 0.16833 0.9697 0.0
C19 C 0.08342 0.40049 0.04215 0.0
O20 O 0.12825 0.40477 0.10226 0.0
O21 O 0.12217 0.30334 0.09049 0.0
O22 O 0.29606 0.56672 0.08732 0.0
O23 O 0.1936 0.54858 0.08852 0.0
O24 O 0.25736 0.42751 0.10569 0.0
O25 O 0.25269 0.40135 0.0637 0.0
O26 O 0.22685 0.3993 1.01256 0.0
O27 O 0.2589 0.50489 0.03124 0.0
O28 O 0.09961 0.26393 1.01122 0.0
O29 O 0.16647 0.24582 0.03817 0.0
O30 O 0.05516 0.33569 0.0456 0.0
O31 O 0.14462 0.42382 0.04004 0.0
H32 H 0.21499 0.5022 0.1409 0.0
H33 H 0.22235 0.5301 0.19116 0.0
H34 H 0.32288 0.74194 0.17026 0.0
H35 H 0.31432 0.71334 0.11964 0.0
H36 H 0.25848 0.30402 0.99694 0.0
H37 H 0.30417 0.29749 0.95164 0.0
H38 H 0.11678 0.12276 0.9295 0.0
H39 H 0.07028 0.13308 0.97443 0.0
Ho40 Ho 0.6866 0.20191 0.40456 0.0
Ho41 Ho 0.7989 0.17733 0.38037 0.0
C42 C 0.75801 0.13362 0.44426 0.0
C43 C 0.57982 0.18276 0.42956 0.0
C44 C 0.5665 0.1833 0.45977 0.0
C45 C 0.5018 0.14452 0.47004 0.0
C46 C 0.49012 0.14107 0.49912 0.0
C47 C 0.5431 0.17656 0.51823 0.0
C48 C 0.60785 0.21544 0.50781 0.0
C49 C 0.61953 0.21844 0.4788 0.0
C50 C 0.80849 0.30599 0.41038 0.0
C51 C 0.73216 0.25016 0.34216 0.0
C52 C 0.90169 0.19098 0.35258 0.0
C53 C 0.92804 0.21564 0.32382 0.0
C54 C 0.92592 0.27137 0.31195 0.0
C55 C 0.94873 0.29279 0.28444 0.0
C56 C 0.97555 0.25988 0.26813 0.0
C57 C 0.97807 0.20431 0.28025 0.0
C58 C 0.95434 0.18235 0.3077 0.0
C59 C 0.6719 0.07866 0.37329 0.0
O60 O 0.70844 0.14704 0.43978 0.0
O61 O 0.80431 0.14605 0.425 0.0
O62 O 0.6229 0.24093 0.41882 0.0
O63 O 0.59012 0.13336 0.42173 0.0
O64 O 0.75531 0.31202 0.40813 0.0
O65 O 0.79392 0.24491 0.41257 0.0
O66 O 0.78553 0.24436 0.3484 0.0
O67 O 0.68053 0.22756 0.35931 0.0
O68 O 0.84552 0.13442 0.35375 0.0
O69 O 0.90372 0.23571 0.37055 0.0
O70 O 0.72056 0.06604 0.37812 0.0
O71 O 0.6941 0.1406 0.37147 0.0
H72 H 0.46057 0.11632 0.45562 0.0
H73 H 0.43965 0.111 0.50668 0.0
H74 H 0.64957 0.24242 0.52213 0.0
H75 H 0.67015 0.24742 0.47125 0.0
H76 H 0.90601 0.29823 0.32381 0.0
H77 H 0.94446 0.33484 0.27589 0.0
H78 H -0.00068 0.17821 0.26875 0.0
H79 H 0.95673 0.13935 0.3164 0.0
Ho80 Ho 0.50643 0.72218 0.74256 0.0
Ho81 Ho 0.63382 0.82041 0.71199 0.0
C82 C 0.63837 0.7978 0.7803 0.0
C83 C 0.40204 0.62294 0.76427 0.0
C84 C 0.38807 0.59883 0.79351 0.0
C85 C 0.33623 0.53424 0.79948 0.0
C86 C 0.32446 0.51098 0.82739 0.0
C87 C 0.36473 0.55197 0.84968 0.0
C88 C 0.41701 0.61657 0.84343 0.0
C89 C 0.42844 0.63978 0.8156 0.0
C90 C 0.53359 0.85175 0.74379 0.0
C91 C 0.50084 0.74823 0.67614 0.0
C92 C 0.73244 0.91841 0.68633 0.0
C93 C 0.73447 0.95156 0.65903 0.0
C94 C 0.6762 0.94809 0.64767 0.0
C95 C 0.67648 0.97504 0.62099 0.0
C96 C 0.73529 0.00692 0.60497 0.0
C97 C 0.79385 0.01074 0.61654 0.0
C98 C 0.79333 0.98311 0.64325 0.0
C99 C 0.60205 0.68869 0.71225 0.0
O100 O 0.57793 0.74544 0.7783 0.0
O101 O 0.66932 0.83662 0.75813 0.0
O102 O 0.40752 0.68227 0.75979 0.0
O103 O 0.44919 0.616 0.75211 0.0
O104 O 0.50926 0.81016 0.76479 0.0
O105 O 0.54147 0.82201 0.7229 0.0
O106 O 0.55633 0.80524 0.67994 0.0
O107 O 0.47581 0.7023 0.69629 0.0
O108 O 0.71923 0.85568 0.68442 0.0
O109 O 0.69934 0.92755 0.70676 0.0
O110 O 0.62481 0.72677 0.6901 0.0
O111 O 0.5986 0.72275 0.73221 0.0
H112 H 0.30489 0.50194 0.78261 0.0
H113 H 0.28324 0.46129 0.83155 0.0
H114 H 0.44946 0.64901 0.86001 0.0
H115 H 0.46888 0.68974 0.81127 0.0
H116 H 0.63004 0.92383 0.65928 0.0
H117 H 0.63003 0.96972 0.61275 0.0
H118 H 0.84027 0.03549 0.60507 0.0
H119 H 0.8388 0.98601 0.6515 0.0
Ho120 Ho 0.74914 0.5086 0.07482 0.0
Ho121 Ho 0.79166 0.64383 0.04589 0.0
C122 C 0.8384 0.64064 0.11101 0.0
C123 C 0.72633 0.39255 0.09346 0.0
C124 C 0.72628 0.37 0.12243 0.0
C125 C 0.73002 0.41151 0.14506 0.0
C126 C 0.73378 0.3926 0.17278 0.0
C127 C 0.7341 0.33195 0.17828 0.0
C128 C 0.72978 0.29015 0.15551 0.0
C129 C 0.7259 0.30915 0.1277 0.0
C130 C 0.66707 0.56015 0.08423 0.0
C131 C 0.7035 0.51307 1.01014 0.0
C132 C 0.80795 0.75439 1.02314 0.0
C133 C 0.78273 0.76545 0.99578 0.0
C134 C 0.72063 0.71668 0.98518 0.0
C135 C 0.69848 0.72419 0.95849 0.0
C136 C 0.7375 0.78104 0.94165 0.0
C137 C 0.7999 0.82991 0.95227 0.0
C138 C 0.8223 0.82209 0.97907 0.0
C139 C 0.86589 0.58361 0.03518 0.0
O140 O 0.81834 0.57579 0.10819 0.0
O141 O 0.82861 0.67648 0.09109 0.0
O142 O 0.67911 0.40718 0.08751 0.0
O143 O 0.78457 0.43828 0.08445 0.0
O144 O 0.68632 0.53213 0.10343 0.0
O145 O 0.69568 0.56225 0.06126 0.0
O146 O 0.71623 0.57534 1.01479 0.0
O147 O 0.71875 0.47965 0.02909 0.0
O148 O 0.85182 0.7336 1.0212 0.0
O149 O 0.76318 0.72163 0.04255 0.0
O150 O 0.85277 0.61681 1.01621 0.0
O151 O 0.84223 0.58718 0.05843 0.0
H152 H 0.73105 0.45909 0.14125 0.0
H153 H 0.7381 0.42626 0.18985 0.0
H154 H 0.72939 0.24286 0.15922 0.0
H155 H 0.72336 0.27686 0.11036 0.0
H156 H 0.68928 0.6721 0.99739 0.0
H157 H 0.65087 0.68466 0.95091 0.0
H158 H 0.83112 0.8745 0.94003 0.0
H159 H 0.87073 0.86002 0.98667 0.0
Ho160 Ho 0.2633 0.757 0.4058 0.0
Ho161 Ho 0.15018 0.77995 0.38107 0.0
C162 C 0.19703 0.82976 0.44411 0.0
C163 C 0.37011 0.76863 0.42923 0.0
C164 C 0.38505 0.75367 0.45798 0.0
C165 C 0.42911 0.80652 0.47555 0.0
C166 C 0.43956 0.79388 0.50355 0.0
C167 C 0.40644 0.72801 0.51447 0.0
C168 C 0.36399 0.67483 0.49664 0.0
C169 C 0.35318 0.68751 0.4687 0.0
C170 C 0.14114 0.65438 0.41404 0.0
C171 C 0.21165 0.7038 0.34377 0.0
C172 C 0.04624 0.77086 0.35503 0.0
C173 C 0.02157 0.76277 0.32545 0.0
C174 C 0.02988 0.72034 0.30622 0.0
C175 C 0.00414 0.71187 0.27862 0.0
C176 C 0.96971 0.74583 0.26954 0.0
C177 C 0.96273 0.78926 0.28877 0.0
C178 C -0.01173 0.79749 0.31637 0.0
C179 C 0.27745 0.87726 0.37202 0.0
O180 O 0.24969 0.822 0.43883 0.0
O181 O 0.14604 0.8083 0.42617 0.0
O182 O 0.32981 0.71683 0.41376 0.0
O183 O 0.35738 0.81886 0.42722 0.0
O184 O 0.19384 0.64776 0.41229 0.0
O185 O 0.15647 0.7157 0.41474 0.0
O186 O 0.15784 0.70807 0.35017 0.0
O187 O 0.26573 0.73204 0.35996 0.0
O188 O 0.09856 0.82826 0.36136 0.0
O189 O 0.04857 0.71946 0.36645 0.0
O190 O 0.22932 0.89062 0.37608 0.0
O191 O 0.25455 0.81525 0.37151 0.0
H192 H 0.45451 0.85784 0.46777 0.0
H193 H 0.47342 0.83573 0.51671 0.0
H194 H 0.33762 0.62367 0.50454 0.0
H195 H 0.31876 0.64553 0.45574 0.0
H196 H 0.05554 0.69304 0.3126 0.0
H197 H 0.00989 0.67739 0.26463 0.0
H198 H 0.93759 0.81714 0.28249 0.0
H199 H -0.01838 0.83081 0.33075 0.0
Ho200 Ho 0.45642 0.26035 0.74095 0.0
Ho201 Ho 0.32972 0.15989 0.71005 0.0
C202 C 0.32194 0.19712 0.77614 0.0
C203 C 0.56341 0.35767 0.76241 0.0
C204 C 0.57964 0.38002 0.79182 0.0
C205 C 0.62735 0.44652 0.79799 0.0
C206 C 0.6392 0.46896 0.82602 0.0
C207 C 0.60326 0.42508 0.8482 0.0
C208 C 0.55535 0.35845 0.84183 0.0
C209 C 0.5435 0.33618 0.81386 0.0
C210 C 0.4196 0.12965 0.75027 0.0
C211 C 0.46533 0.21892 0.67721 0.0
C212 C 0.23149 0.06329 0.68307 0.0
C213 C 0.23014 0.03793 0.65408 0.0
C214 C 0.28262 0.07569 0.63542 0.0
C215 C 0.28402 0.05103 0.60849 0.0
C216 C 0.23243 -0.0117 0.59934 0.0
C217 C 0.17893 0.95119 0.61777 0.0
C218 C 0.17806 0.97562 0.64499 0.0
C219 C 0.37133 0.29242 0.70083 0.0
O220 O 0.38295 0.24832 0.77391 0.0
O221 O 0.29195 0.15338 0.75513 0.0
O222 O 0.55704 0.29848 0.75674 0.0
O223 O 0.51554 0.36577 0.75141 0.0
O224 O 0.44308 0.17605 0.76952 0.0
O225 O 0.41724 0.1552 0.72686 0.0
O226 O 0.40886 0.16385 0.68214 0.0
O227 O 0.48967 0.26955 0.69538 0.0
O228 O 0.24004 0.12449 0.68462 0.0
O229 O 0.26856 0.05303 0.70148 0.0
O230 O 0.34805 0.24736 0.68102 0.0
O231 O 0.3702 0.26445 0.7239 0.0
H232 H 0.65488 0.48116 0.78113 0.0
H233 H 0.67677 0.52045 0.83037 0.0
H234 H 0.52624 0.32388 0.85843 0.0
H235 H 0.50546 0.28495 0.80938 0.0
H236 H 0.32285 0.12437 0.64167 0.0
H237 H 0.32546 0.08136 0.59473 0.0
H238 H 0.13863 0.90253 0.61141 0.0
H239 H 0.13708 0.94561 0.659 0.0
H240 H 0.31967 0.74437 0.31038 0.0
H241 H 0.10875 0.60593 0.31401 0.0
H242 H 0.11 0.57075 0.26527 0.0
H243 H 0.16965 0.58466 0.22081 0.0
H244 H 0.37886 0.72857 0.21594 0.0
H245 H 0.37982 0.75696 0.26598 0.0
C246 C 0.2743 0.70567 0.30061 0.0
C247 C 0.21431 0.67731 0.31571 0.0
C248 C 0.27499 0.68749 0.27231 0.0
C249 C 0.15551 0.62826 0.30272 0.0
C250 C 0.15616 0.60835 0.27487 0.0
C251 C 0.21556 0.62173 0.23083 0.0
C252 C 0.27413 0.65449 0.21486 0.0
C253 C 0.21537 0.63845 0.25934 0.0
C254 C 0.33311 0.70316 0.22786 0.0
C255 C 0.3337 0.71912 0.25644 0.0
H256 H 0.44496 0.11519 0.64369 0.0
H257 H 0.55822 0.33187 0.64966 0.0
H258 H 0.59689 0.33744 0.60099 0.0
H259 H 0.58835 0.28079 0.55537 0.0
H260 H 0.4704 0.0644 0.54979 0.0
H261 H 0.44356 0.05866 0.6 0.0
C262 C 0.47867 0.16375 0.63449 0.0
C263 C 0.49819 0.22315 0.65006 0.0
C264 C 0.49899 0.16654 0.60653 0.0
C265 C 0.54262 0.28548 0.63805 0.0
C266 C 0.56422 0.28866 0.61019 0.0
C267 C 0.55738 0.2324 0.56529 0.0
C268 C 0.53068 0.17314 0.54896 0.0
C269 C 0.54118 0.22957 0.59401 0.0
C270 C 0.49045 0.11069 0.5619 0.0
C271 C 0.47526 0.10737 0.59053 0.0
H272 H 0.2782 0.40158 0.96641 0.0
H273 H 0.31392 0.59756 0.99375 0.0
H274 H 0.35358 0.64261 0.94648 0.0
H275 H 0.36802 0.62332 0.89645 0.0
H276 H 0.33141 0.42654 0.86959 0.0
H277 H 0.3009 0.38435 0.91772 0.0
C278 C 0.29523 0.45428 0.96223 0.0
C279 C 0.29238 0.49584 0.98357 0.0
C280 C 0.31683 0.4794 0.935 0.0
C281 C 0.31538 0.56431 0.97773 0.0
C282 C 0.33774 0.59003 0.95065 0.0
C283 C 0.35453 0.57152 0.90122 0.0
C284 C 0.35125 0.52794 0.87937 0.0
C285 C 0.33721 0.5476 0.92898 0.0
C286 C 0.333 0.46076 0.88588 0.0
C287 C 0.31601 0.43671 0.91344 0.0
H288 H 0.79693 0.24495 0.29594 0.0
H289 H 0.65288 0.30201 0.32384 0.0
H290 H 0.64059 0.33248 0.27518 0.0
H291 H 0.66969 0.34043 0.22474 0.0
H292 H 0.8142 0.28292 0.19764 0.0
H293 H 0.82737 0.25456 0.24626 0.0
C294 C 0.764 0.26553 0.29156 0.0
C295 C 0.72685 0.27254 0.31346 0.0
C296 C 0.75677 0.28195 0.26372 0.0
C297 C 0.68232 0.29667 0.30726 0.0
C298 C 0.67525 0.31393 0.27951 0.0
C299 C 0.70441 0.32217 0.22957 0.0
C300 C 0.7408 0.31357 0.20769 0.0
C301 C 0.71202 0.3064 0.25757 0.0
C302 C 0.78495 0.28901 0.21409 0.0
C303 C 0.79292 0.27336 0.24188 0.0
H304 H 0.47167 0.65428 0.63539 0.0
H305 H 0.45487 0.82945 0.65729 0.0
H306 H 0.41887 0.83574 0.6091 0.0
H307 H 0.40386 0.79877 0.55984 0.0
H308 H 0.42759 0.6282 0.5365 0.0
H309 H 0.4486 0.61209 0.58605 0.0
C310 C 0.458 0.69231 0.62964 0.0
C311 C 0.46469 0.74076 0.64962 0.0
C312 C 0.4399 0.69714 0.60158 0.0
C313 C 0.44897 0.79124 0.64208 0.0
C314 C 0.42907 0.79519 0.61455 0.0
C315 C 0.41368 0.7581 0.56562 0.0
C316 C 0.41515 0.71536 0.54457 0.0
C317 C 0.42648 0.74977 0.59395 0.0
C318 C 0.42628 0.66182 0.55239 0.0
C319 C 0.43845 0.65269 0.58068 0.0
H320 H 0.67188 0.57022 0.9665 0.0
H321 H 0.67383 0.38774 0.99102 0.0
H322 H 0.63955 0.34304 0.94317 0.0
H323 H 0.61698 0.35943 0.89367 0.0
H324 H 0.61806 0.54332 0.86927 0.0
H325 H 0.64424 0.5844 0.91793 0.0
C326 C 0.66428 0.52039 0.96156 0.0
C327 C 0.67574 0.48253 0.98231 0.0
C328 C 0.64596 0.49569 0.93397 0.0
C329 C 0.66541 0.41797 0.97545 0.0
C330 C 0.64608 0.3925 0.94807 0.0
C331 C 0.62209 0.4081 0.89911 0.0
C332 C 0.61609 0.44853 0.87792 0.0
C333 C 0.6374 0.43145 0.92706 0.0
C334 C 0.62353 0.5118 0.88516 0.0
C335 C 0.63808 0.5351 0.91297 0.0
H336 H 0.37234 0.47054 0.05079 0.0
H337 H 0.33549 0.36616 0.13059 0.0
H338 H 0.45596 0.41451 0.13846 0.0
H339 H 0.57085 0.48781 0.12265 0.0
H340 H 0.60579 0.59513 0.04351 0.0
H341 H 0.48588 0.54656 0.036 0.0
C342 C 0.39052 0.45693 0.0696 0.0
C343 C 0.34536 0.41319 0.08975 0.0
C344 C 0.45912 0.4874 0.07453 0.0
C345 C 0.36961 0.3982 0.1145 0.0
C346 C 0.43825 0.4267 0.11917 0.0
C347 C 0.5523 0.50165 0.10403 0.0
C348 C 0.59704 0.54495 0.0836 0.0
C349 C 0.48338 0.47211 0.09948 0.0
C350 C 0.57223 0.5622 0.05956 0.0
C351 C 0.5038 0.53372 0.05507 0.0
H352 H 0.10945 0.52464 0.41793 0.0
H353 H 0.02316 0.6563 0.41558 0.0
H354 H 0.91127 0.55838 0.41442 0.0
H355 H 0.83955 0.43609 0.4118 0.0
H356 H 0.92592 0.30475 0.41737 0.0
H357 H 0.03752 0.40263 0.41959 0.0
C358 C 0.0661 0.53189 0.41733 0.0
C359 C 0.07394 0.59711 0.41616 0.0
C360 C 0.00263 0.47579 0.41709 0.0
C361 C 0.01783 0.60624 0.41587 0.0
C362 C 0.95414 0.55044 0.4153 0.0
C363 C 0.88284 0.42893 0.41361 0.0
C364 C 0.87521 0.36372 0.4137 0.0
C365 C 0.94618 0.48511 0.41546 0.0
C366 C 0.93117 0.35473 0.41654 0.0
C367 C -0.00531 0.41052 0.41798 0.0
H368 H 0.46076 0.07603 0.70907 0.0
H369 H 0.40686 0.05621 0.79719 0.0
H370 H 0.4411 0.9703 0.80338 0.0
H371 H 0.48912 0.90368 0.78403 0.0
H372 H 0.54653 0.92571 0.69627 0.0
H373 H 0.50999 0.00977 0.68975 0.0
C374 C 0.45547 0.05195 0.72947 0.0
C375 C 0.43064 0.07139 0.75262 0.0
C376 C 0.47736 0.00449 0.73305 0.0
C377 C 0.42528 0.04118 0.7791 0.0
C378 C 0.44537 -0.00732 0.78267 0.0
C379 C 0.49414 0.92732 0.76354 0.0
C380 C 0.52037 0.90868 0.74066 0.0
C381 C 0.47233 0.97471 0.7599 0.0
C382 C 0.52672 0.9396 0.71422 0.0
C383 C 0.50531 -0.01285 0.71043 0.0
H384 H 0.55051 0.59947 0.66771 0.0
H385 H 0.57424 0.61208 0.7586 0.0
H386 H 0.49751 0.49215 0.76288 0.0
H387 H 0.41858 0.38576 0.74144 0.0
H388 H 0.40845 0.3638 0.65079 0.0
H389 H 0.48138 0.48606 0.64554 0.0
C390 C 0.53979 0.57543 0.68831 0.0
C391 C 0.56675 0.61456 0.71288 0.0
C392 C 0.49641 0.50552 0.69065 0.0
C393 C 0.55324 0.58298 0.73945 0.0
C394 C 0.50896 0.51457 0.74197 0.0
C395 C 0.43356 0.4074 0.7205 0.0
C396 C 0.40955 0.36594 0.69661 0.0
C397 C 0.47928 0.47582 0.7178 0.0
C398 C 0.42674 0.39495 0.66956 0.0
C399 C 0.46897 0.46459 0.66659 0.0
H400 H 0.95081 0.35963 0.037 0.0
H401 H 0.14527 0.53573 0.03743 0.0
H402 H 0.09555 0.60861 0.03322 0.0
H403 H -0.00385 0.62293 0.03214 0.0
H404 H 0.80241 0.44707 0.02783 0.0
H405 H 0.85185 0.37399 0.03011 0.0
C406 C -0.018 0.4139 0.03616 0.0
C407 C 0.05123 0.44237 0.03853 0.0
C408 C 0.9532 0.45574 0.03272 0.0
C409 C 0.09151 0.51269 0.03663 0.0
C410 C 0.06327 0.55453 0.03391 0.0
C411 C 0.96513 0.56862 0.03105 0.0
C412 C 0.89588 0.54047 0.03015 0.0
C413 C -0.00588 0.5267 0.03229 0.0
C414 C 0.85583 0.4702 0.02882 0.0
C415 C 0.88413 0.42809 0.03022 0.0
H416 H 0.37557 0.84527 0.37214 0.0
H417 H 0.3396 0.01487 0.36826 0.0
H418 H 0.4601 0.09168 0.36599 0.0
H419 H 0.57368 0.10917 0.36602 0.0
H420 H 0.60993 0.94077 0.37648 0.0
H421 H 0.48938 0.86326 0.37509 0.0
C422 C 0.39393 0.89907 0.37105 0.0
C423 C 0.34909 0.92473 0.37057 0.0
C424 C 0.46258 0.94234 0.37086 0.0
C425 C 0.37345 -0.00567 0.36879 0.0
C426 C 0.44204 0.03794 0.36747 0.0
C427 C 0.55541 0.05554 0.36821 0.0
C428 C 0.60034 0.03047 0.37165 0.0
C429 C 0.4868 0.0123 0.36866 0.0
C430 C 0.57605 0.96095 0.374 0.0
C431 C 0.50741 0.91695 0.37325 0.0
H432 H 0.38162 0.2302 0.82727 0.0
H433 H 0.18823 0.14538 0.78734 0.0
H434 H 0.13741 0.14123 0.83344 0.0
H435 H 0.14972 0.1674 0.88473 0.0
H436 H 0.34372 0.24336 0.92413 0.0
H437 H 0.39245 0.24679 0.87841 0.0
C438 C 0.32823 0.21068 0.82859 0.0
C439 C 0.28881 0.18887 0.80385 0.0
C440 C 0.29959 0.20767 0.85506 0.0
C441 C 0.21964 0.16249 0.80606 0.0
C442 C 0.19072 0.16042 0.8324 0.0
C443 C 0.20245 0.18359 0.88357 0.0
C444 C 0.24275 0.20635 0.90825 0.0
C445 C 0.23038 0.18351 0.85706 0.0
C446 C 0.31125 0.22766 0.90575 0.0
C447 C 0.33935 0.22899 0.87952 0.0
H448 H 0.9725 0.18597 0.22131 0.0
H449 H 0.03959 0.39037 0.24894 0.0
H450 H 0.08178 0.43174 0.20189 0.0
H451 H 0.10256 0.4113 0.15324 0.0
H452 H 0.04452 0.20901 0.12585 0.0
H453 H -0.00343 0.16583 0.17247 0.0
C454 C -0.0031 0.23965 0.21723 0.0
C455 C 0.00194 0.28457 0.23898 0.0
C456 C 0.02282 0.2637 0.19006 0.0
C457 C 0.03315 0.35397 0.23278 0.0
C458 C 0.05798 0.37798 0.20581 0.0
C459 C 0.07928 0.35765 0.1573 0.0
C460 C 0.07715 0.31354 0.13587 0.0
C461 C 0.0532 0.3334 0.18431 0.0
C462 C 0.04693 0.24423 0.14182 0.0
C463 C 0.01954 0.2195 0.16854 0.0
H464 H 0.80347 0.00834 0.55707 0.0
H465 H 0.66627 0.0716 0.58844 0.0
H466 H 0.66008 0.11388 0.54177 0.0
H467 H 0.69288 0.13305 0.49211 0.0
H468 H 0.83406 0.07569 0.46049 0.0
H469 H 0.84016 0.03213 0.50729 0.0
C470 C 0.77286 0.03212 0.55386 0.0
C471 C 0.73485 0.03583 0.57645 0.0
C472 C 0.77019 0.05752 0.52686 0.0
C473 C 0.69497 0.06637 0.57153 0.0
C474 C 0.69169 0.09113 0.5448 0.0
C475 C 0.72495 0.11088 0.49531 0.0
C476 C 0.76265 0.10734 0.47262 0.0
C477 C 0.72874 0.08664 0.52229 0.0
C478 C 0.80445 0.07911 0.47747 0.0
C479 C 0.80791 0.05411 0.50426 0.0
H480 H 0.57777 0.77033 0.83075 0.0
H481 H 0.77218 0.85235 0.79335 0.0
H482 H 0.82134 0.8575 0.84036 0.0
H483 H 0.80661 0.82993 0.8918 0.0
H484 H 0.61035 0.75011 0.92781 0.0
H485 H 0.56435 0.75179 0.88154 0.0
C486 C 0.63101 0.7896 0.83281 0.0
C487 C 0.67114 0.81012 0.80853 0.0
C488 C 0.65845 0.79195 0.85967 0.0
C489 C 0.74021 0.83632 0.81171 0.0
C490 C 0.76817 0.8388 0.83857 0.0
C491 C 0.75398 0.81386 0.88961 0.0
C492 C 0.71195 0.78862 0.91339 0.0
C493 C 0.7275 0.81556 0.8627 0.0
C494 C 0.64378 0.76796 0.90994 0.0
C495 C 0.61734 0.76936 0.88346 0.0
H496 H 0.02078 0.7301 0.21966 0.0
H497 H 0.84962 0.73522 0.25393 0.0
H498 H 0.79737 0.71163 0.20718 0.0
H499 H 0.79606 0.68059 0.1569 0.0
H500 H 0.96374 0.66832 0.12357 0.0
H501 H 0.02136 0.70338 0.16933 0.0
C502 C 0.97195 0.72586 0.21698 0.0
C503 C 0.9394 0.73438 0.24052 0.0
C504 C 0.94149 0.71109 0.19003 0.0
C505 C 0.87652 0.72983 0.23631 0.0
C506 C 0.84625 0.71587 0.20953 0.0
C507 C 0.84589 0.68736 0.15961 0.0
C508 C 0.87646 0.67342 0.13691 0.0
C509 C 0.87783 0.70559 0.18627 0.0
C510 C 0.94006 0.68014 0.14072 0.0
C511 C 0.97269 0.69961 0.16692 0.0
H512 H 0.1338 0.9303 0.55921 0.0
H513 H 0.33907 0.986 0.57561 0.0
H514 H 0.34709 0.9442 0.5291 0.0
H515 H 0.29542 0.88994 0.48394 0.0
H516 H 0.09029 0.83509 0.46695 0.0
H517 H 0.08264 0.87805 0.5133 0.0
C518 C 0.18011 0.93286 0.55264 0.0
C519 C 0.23583 0.96146 0.57094 0.0
C520 C 0.18443 0.9088 0.52567 0.0
C521 C 0.29572 0.96512 0.56188 0.0
C522 C 0.30023 0.94085 0.5353 0.0
C523 C 0.24899 0.88744 0.49028 0.0
C524 C 0.19347 0.85897 0.47184 0.0
C525 C 0.2449 0.91248 0.517 0.0
C526 C 0.13395 0.85671 0.48055 0.0
C527 C 0.12941 0.88114 0.50716 0.0
loop_
_geom_bond_atom_site_label_1
_geom_bond_atom_site_label_2
_geom_bond_distance
_geom_bond_site_symmetry_2
_ccdc_geom_bond_type
Ho0 C3 2.811 . S
Ho0 O20 2.322 . S
Ho0 O22 2.378 . S
Ho0 O23 2.524 . S
Ho0 O24 2.381 . S
Ho0 O25 2.669 . S
Ho0 O27 2.346 . S
Ho0 O31 2.305 . S
Ho1 C12 2.811 1_554 S
Ho1 O21 2.346 . S
Ho1 O25 2.305 . S
Ho1 O26 2.322 1_554 S
Ho1 O28 2.378 1_554 S
Ho1 O29 2.524 1_554 S
Ho1 O30 2.381 . S
Ho1 O31 2.669 . S
C2 O20 1.259 . S
C2 O21 1.268 . S
C3 Ho0 2.811 . S
C3 C4 1.488 . S
C3 O22 1.215 . S
C3 O23 1.289 . S
C4 C3 1.488 . S
C4 C5 1.348 . S
C4 C9 1.413 . S
C5 C4 1.348 . S
C5 C6 1.442 . S
C5 H32 0.930 . S
C6 C5 1.442 . S
C6 C7 1.381 . S
C6 H33 0.931 . S
C7 C6 1.381 . S
C7 C8 1.321 . S
C8 C7 1.321 . S
C8 C9 1.403 . S
C8 H34 0.934 . S
C9 C4 1.413 . S
C9 C8 1.403 . S
C9 H35 0.930 . S
C10 O24 1.275 . S
C10 O25 1.256 . S
C11 O26 1.259 . S
C11 O27 1.268 1_556 S
C12 Ho1 2.811 1_556 S
C12 C13 1.488 . S
C12 O28 1.215 . S
C12 O29 1.289 . S
C13 C12 1.488 . S
C13 C14 1.348 . S
C13 C18 1.413 . S
C14 C13 1.348 . S
C14 C15 1.442 . S
C14 H36 0.930 . S
C15 C14 1.442 . S
C15 C16 1.381 . S
C15 H37 0.931 . S
C16 C15 1.381 . S
C16 C17 1.321 . S
C17 C16 1.321 . S
C17 C18 1.403 . S
C17 H38 0.934 . S
C18 C13 1.413 . S
C18 C17 1.403 . S
C18 H39 0.930 . S
C19 O30 1.275 . S
C19 O31 1.256 . S
O20 Ho0 2.322 . S
O20 C2 1.259 . S
O21 Ho1 2.346 . S
O21 C2 1.268 . S
O22 Ho0 2.378 . S
O22 C3 1.215 . S
O23 Ho0 2.524 . S
O23 C3 1.289 . S
O24 Ho0 2.381 . S
O24 C10 1.275 . S
O25 Ho0 2.669 . S
O25 Ho1 2.305 . S
O25 C10 1.256 . S
O26 Ho1 2.322 1_556 S
O26 C11 1.259 . S
O27 Ho0 2.346 . S
O27 C11 1.268 1_554 S
O28 Ho1 2.378 1_556 S
O28 C12 1.215 . S
O29 Ho1 2.524 1_556 S
O29 C12 1.289 . S
O30 Ho1 2.381 . S
O30 C19 1.275 . S
O31 Ho0 2.305 . S
O31 Ho1 2.669 . S
O31 C19 1.256 . S
H32 C5 0.930 . S
H33 C6 0.931 . S
H34 C8 0.934 . S
H35 C9 0.930 . S
H36 C14 0.930 . S
H37 C15 0.931 . S
H38 C17 0.934 . S
H39 C18 0.930 . S
Ho40 C43 2.811 . S
Ho40 O60 2.322 . S
Ho40 O62 2.378 . S
Ho40 O63 2.524 . S
Ho40 O64 2.381 . S
Ho40 O65 2.669 . S
Ho40 O67 2.346 . S
Ho40 O71 2.305 . S
Ho41 C52 2.811 . S
Ho41 O61 2.346 . S
Ho41 O65 2.305 . S
Ho41 O66 2.322 . S
Ho41 O68 2.378 . S
Ho41 O69 2.524 . S
Ho41 O70 2.381 . S
Ho41 O71 2.669 . S
C42 O60 1.259 . S
C42 O61 1.268 . S
C43 Ho40 2.811 . S
C43 C44 1.488 . S
C43 O62 1.215 . S
C43 O63 1.289 . S
C44 C43 1.488 . S
C44 C45 1.348 . S
C44 C49 1.413 . S
C45 C44 1.348 . S
C45 C46 1.442 . S
C45 H72 0.930 . S
C46 C45 1.442 . S
C46 C47 1.381 . S
C46 H73 0.931 . S
C47 C46 1.381 . S
C47 C48 1.321 . S
C48 C47 1.321 . S
C48 C49 1.403 . S
C48 H74 0.934 . S
C49 C44 1.413 . S
C49 C48 1.403 . S
C49 H75 0.930 . S
C50 O64 1.275 . S
C50 O65 1.256 . S
C51 O66 1.259 . S
C51 O67 1.268 . S
C52 Ho41 2.811 . S
C52 C53 1.488 . S
C52 O68 1.215 . S
C52 O69 1.289 . S
C53 C52 1.488 . S
C53 C54 1.348 . S
C53 C58 1.413 . S
C54 C53 1.348 . S
C54 C55 1.442 1_655 S
C54 H76 0.930 . S
C55 C54 1.442 1_455 S
C55 C56 1.381 1_455 S
C55 H77 0.931 . S
C56 C55 1.381 1_655 S
C56 C57 1.321 . S
C57 C56 1.321 . S
C57 C58 1.403 . S
C57 H78 0.934 . S
C58 C53 1.413 . S
C58 C57 1.403 . S
C58 H79 0.930 . S
C59 O70 1.275 . S
C59 O71 1.256 . S
O60 Ho40 2.322 . S
O60 C42 1.259 . S
O61 Ho41 2.346 . S
O61 C42 1.268 . S
O62 Ho40 2.378 . S
O62 C43 1.215 . S
O63 Ho40 2.524 . S
O63 C43 1.289 . S
O64 Ho40 2.381 . S
O64 C50 1.275 . S
O65 Ho40 2.669 . S
O65 Ho41 2.305 . S
O65 C50 1.256 . S
O66 Ho41 2.322 . S
O66 C51 1.259 . S
O67 Ho40 2.346 . S
O67 C51 1.268 . S
O68 Ho41 2.378 . S
O68 C52 1.215 . S
O69 Ho41 2.524 . S
O69 C52 1.289 . S
O70 Ho41 2.381 . S
O70 C59 1.275 . S
O71 Ho40 2.305 . S
O71 Ho41 2.669 . S
O71 C59 1.256 . S
H72 C45 0.930 . S
H73 C46 0.931 . S
H74 C48 0.934 . S
H75 C49 0.930 . S
H76 C54 0.930 . S
H77 C55 0.931 . S
H78 C57 0.934 . S
H79 C58 0.930 . S
Ho80 C83 2.811 . S
Ho80 O100 2.322 . S
Ho80 O102 2.378 . S
Ho80 O103 2.524 . S
Ho80 O104 2.381 . S
Ho80 O105 2.669 . S
Ho80 O107 2.346 . S
Ho80 O111 2.305 . S
Ho81 C92 2.811 . S
Ho81 O101 2.346 . S
Ho81 O105 2.305 . S
Ho81 O106 2.322 . S
Ho81 O108 2.378 . S
Ho81 O109 2.524 . S
Ho81 O110 2.381 . S
Ho81 O111 2.669 . S
C82 O100 1.259 . S
C82 O101 1.268 . S
C83 Ho80 2.811 . S
C83 C84 1.488 . S
C83 O102 1.215 . S
C83 O103 1.289 . S
C84 C83 1.488 . S
C84 C85 1.348 . S
C84 C89 1.413 . S
C85 C84 1.348 . S
C85 C86 1.442 . S
C85 H112 0.930 . S
C86 C85 1.442 . S
C86 C87 1.381 . S
C86 H113 0.931 . S
C87 C86 1.381 . S
C87 C88 1.321 . S
C88 C87 1.321 . S
C88 C89 1.403 . S
C88 H114 0.934 . S
C89 C84 1.413 . S
C89 C88 1.403 . S
C89 H115 0.930 . S
C90 O104 1.275 . S
C90 O105 1.256 . S
C91 O106 1.259 . S
C91 O107 1.268 . S
C92 Ho81 2.811 . S
C92 C93 1.488 . S
C92 O108 1.215 . S
C92 O109 1.289 . S
C93 C92 1.488 . S
C93 C94 1.348 . S
C93 C98 1.413 . S
C94 C93 1.348 . S
C94 C95 1.442 1_565 S
C94 H116 0.930 . S
C95 C94 1.442 1_545 S
C95 C96 1.381 1_545 S
C95 H117 0.931 . S
C96 C95 1.381 1_565 S
C96 C97 1.321 . S
C97 C96 1.321 . S
C97 C98 1.403 . S
C97 H118 0.934 . S
C98 C93 1.413 . S
C98 C97 1.403 . S
C98 H119 0.930 . S
C99 O110 1.275 . S
C99 O111 1.256 . S
O100 Ho80 2.322 . S
O100 C82 1.259 . S
O101 Ho81 2.346 . S
O101 C82 1.268 . S
O102 Ho80 2.378 . S
O102 C83 1.215 . S
O103 Ho80 2.524 . S
O103 C83 1.289 . S
O104 Ho80 2.381 . S
O104 C90 1.275 . S
O105 Ho80 2.669 . S
O105 Ho81 2.305 . S
O105 C90 1.256 . S
O106 Ho81 2.322 . S
O106 C91 1.259 . S
O107 Ho80 2.346 . S
O107 C91 1.268 . S
O108 Ho81 2.378 . S
O108 C92 1.215 . S
O109 Ho81 2.524 . S
O109 C92 1.289 . S
O110 Ho81 2.381 . S
O110 C99 1.275 . S
O111 Ho80 2.305 . S
O111 Ho81 2.669 . S
O111 C99 1.256 . S
H112 C85 0.930 . S
H113 C86 0.931 . S
H114 C88 0.934 . S
H115 C89 0.930 . S
H116 C94 0.930 . S
H117 C95 0.931 . S
H118 C97 0.934 . S
H119 C98 0.930 . S
Ho120 C123 2.811 . S
Ho120 O140 2.322 . S
Ho120 O142 2.378 . S
Ho120 O143 2.524 . S
Ho120 O144 2.381 . S
Ho120 O145 2.669 . S
Ho120 O147 2.346 . S
Ho120 O151 2.305 . S
Ho121 C132 2.811 1_554 S
Ho121 O141 2.346 . S
Ho121 O145 2.305 . S
Ho121 O146 2.322 1_554 S
Ho121 O148 2.378 1_554 S
Ho121 O149 2.524 1_554 S
Ho121 O150 2.381 . S
Ho121 O151 2.669 . S
C122 O140 1.259 . S
C122 O141 1.268 . S
C123 Ho120 2.811 . S
C123 C124 1.488 . S
C123 O142 1.215 . S
C123 O143 1.289 . S
C124 C123 1.488 . S
C124 C125 1.348 . S
C124 C129 1.413 . S
C125 C124 1.348 . S
C125 C126 1.442 . S
C125 H152 0.930 . S
C126 C125 1.442 . S
C126 C127 1.381 . S
C126 H153 0.931 . S
C127 C126 1.381 . S
C127 C128 1.321 . S
C128 C127 1.321 . S
C128 C129 1.403 . S
C128 H154 0.934 . S
C129 C124 1.413 . S
C129 C128 1.403 . S
C129 H155 0.930 . S
C130 O144 1.275 . S
C130 O145 1.256 . S
C131 O146 1.259 . S
C131 O147 1.268 1_556 S
C132 Ho121 2.811 1_556 S
C132 C133 1.488 . S
C132 O148 1.215 . S
C132 O149 1.289 . S
C133 C132 1.488 . S
C133 C134 1.348 . S
C133 C138 1.413 . S
C134 C133 1.348 . S
C134 C135 1.442 . S
C134 H156 0.930 . S
C135 C134 1.442 . S
C135 C136 1.381 . S
C135 H157 0.931 . S
C136 C135 1.381 . S
C136 C137 1.321 . S
C137 C136 1.321 . S
C137 C138 1.403 . S
C137 H158 0.934 . S
C138 C133 1.413 . S
C138 C137 1.403 . S
C138 H159 0.930 . S
C139 O150 1.275 . S
C139 O151 1.256 . S
O140 Ho120 2.322 . S
O140 C122 1.259 . S
O141 Ho121 2.346 . S
O141 C122 1.268 . S
O142 Ho120 2.378 . S
O142 C123 1.215 . S
O143 Ho120 2.524 . S
O143 C123 1.289 . S
O144 Ho120 2.381 . S
O144 C130 1.275 . S
O145 Ho120 2.669 . S
O145 Ho121 2.305 . S
O145 C130 1.256 . S
O146 Ho121 2.322 1_556 S
O146 C131 1.259 . S
O147 Ho120 2.346 . S
O147 C131 1.268 1_554 S
O148 Ho121 2.378 1_556 S
O148 C132 1.215 . S
O149 Ho121 2.524 1_556 S
O149 C132 1.289 . S
O150 Ho121 2.381 . S
O150 C139 1.275 . S
O151 Ho120 2.305 . S
O151 Ho121 2.669 . S
O151 C139 1.256 . S
H152 C125 0.930 . S
H153 C126 0.931 . S
H154 C128 0.934 . S
H155 C129 0.930 . S
H156 C134 0.930 . S
H157 C135 0.931 . S
H158 C137 0.934 . S
H159 C138 0.930 . S
Ho160 C163 2.811 . S
Ho160 O180 2.322 . S
Ho160 O182 2.378 . S
Ho160 O183 2.524 . S
Ho160 O184 2.381 . S
Ho160 O185 2.669 . S
Ho160 O187 2.346 . S
Ho160 O191 2.305 . S
Ho161 C172 2.811 . S
Ho161 O181 2.346 . S
Ho161 O185 2.305 . S
Ho161 O186 2.322 . S
Ho161 O188 2.378 . S
Ho161 O189 2.524 . S
Ho161 O190 2.381 . S
Ho161 O191 2.669 . S
C162 O180 1.259 . S
C162 O181 1.268 . S
C163 Ho160 2.811 . S
C163 C164 1.488 . S
C163 O182 1.215 . S
C163 O183 1.289 . S
C164 C163 1.488 . S
C164 C165 1.348 . S
C164 C169 1.413 . S
C165 C164 1.348 . S
C165 C166 1.442 . S
C165 H192 0.930 . S
C166 C165 1.442 . S
C166 C167 1.381 . S
C166 H193 0.931 . S
C167 C166 1.381 . S
C167 C168 1.321 . S
C168 C167 1.321 . S
C168 C169 1.403 . S
C168 H194 0.934 . S
C169 C164 1.413 . S
C169 C168 1.403 . S
C169 H195 0.930 . S
C170 O184 1.275 . S
C170 O185 1.256 . S
C171 O186 1.259 . S
C171 O187 1.268 . S
C172 Ho161 2.811 . S
C172 C173 1.488 . S
C172 O188 1.215 . S
C172 O189 1.289 . S
C173 C172 1.488 . S
C173 C174 1.348 . S
C173 C178 1.413 . S
C174 C173 1.348 . S
C174 C175 1.442 1_455 S
C174 H196 0.930 . S
C175 C174 1.442 1_655 S
C175 C176 1.381 1_655 S
C175 H197 0.931 . S
C176 C175 1.381 1_455 S
C176 C177 1.321 . S
C177 C176 1.321 . S
C177 C178 1.403 . S
C177 H198 0.934 . S
C178 C173 1.413 . S
C178 C177 1.403 . S
C178 H199 0.930 . S
C179 O190 1.275 . S
C179 O191 1.256 . S
O180 Ho160 2.322 . S
O180 C162 1.259 . S
O181 Ho161 2.346 . S
O181 C162 1.268 . S
O182 Ho160 2.378 . S
O182 C163 1.215 . S
O183 Ho160 2.524 . S
O183 C163 1.289 . S
O184 Ho160 2.381 . S
O184 C170 1.275 . S
O185 Ho160 2.669 . S
O185 Ho161 2.305 . S
O185 C170 1.256 . S
O186 Ho161 2.322 . S
O186 C171 1.259 . S
O187 Ho160 2.346 . S
O187 C171 1.268 . S
O188 Ho161 2.378 . S
O188 C172 1.215 . S
O189 Ho161 2.524 . S
O189 C172 1.289 . S
O190 Ho161 2.381 . S
O190 C179 1.275 . S
O191 Ho160 2.305 . S
O191 Ho161 2.669 . S
O191 C179 1.256 . S
H192 C165 0.930 . S
H193 C166 0.931 . S
H194 C168 0.934 . S
H195 C169 0.930 . S
H196 C174 0.930 . S
H197 C175 0.931 . S
H198 C177 0.934 . S
H199 C178 0.930 . S
Ho200 C203 2.811 . S
Ho200 O220 2.322 . S
Ho200 O222 2.378 . S
Ho200 O223 2.524 . S
Ho200 O224 2.381 . S
Ho200 O225 2.669 . S
Ho200 O227 2.346 . S
Ho200 O231 2.305 . S
Ho201 C212 2.811 . S
Ho201 O221 2.346 . S
Ho201 O225 2.305 . S
Ho201 O226 2.322 . S
Ho201 O228 2.378 . S
Ho201 O229 2.524 . S
Ho201 O230 2.381 . S
Ho201 O231 2.669 . S
C202 O220 1.259 . S
C202 O221 1.268 . S
C203 Ho200 2.811 . S
C203 C204 1.488 . S
C203 O222 1.215 . S
C203 O223 1.289 . S
C204 C203 1.488 . S
C204 C205 1.348 . S
C204 C209 1.413 . S
C205 C204 1.348 . S
C205 C206 1.442 . S
C205 H232 0.930 . S
C206 C205 1.442 . S
C206 C207 1.381 . S
C206 H233 0.931 . S
C207 C206 1.381 . S
C207 C208 1.321 . S
C208 C207 1.321 . S
C208 C209 1.403 . S
C208 H234 0.934 . S
C209 C204 1.413 . S
C209 C208 1.403 . S
C209 H235 0.930 . S
C210 O224 1.275 . S
C210 O225 1.256 . S
C211 O226 1.259 . S
C211 O227 1.268 . S
C212 Ho201 2.811 . S
C212 C213 1.488 . S
C212 O228 1.215 . S
C212 O229 1.289 . S
C213 C212 1.488 . S
C213 C214 1.348 . S
C213 C218 1.413 . S
C214 C213 1.348 . S
C214 C215 1.442 1_545 S
C214 H236 0.930 . S
C215 C214 1.442 1_565 S
C215 C216 1.381 1_565 S
C215 H237 0.931 . S
C216 C215 1.381 1_545 S
C216 C217 1.321 . S
C217 C216 1.321 . S
C217 C218 1.403 . S
C217 H238 0.934 . S
C218 C213 1.413 . S
C218 C217 1.403 . S
C218 H239 0.930 . S
C219 O230 1.275 . S
C219 O231 1.256 . S
O220 Ho200 2.322 . S
O220 C202 1.259 . S
O221 Ho201 2.346 . S
O221 C202 1.268 . S
O222 Ho200 2.378 . S
O222 C203 1.215 . S
O223 Ho200 2.524 . S
O223 C203 1.289 . S
O224 Ho200 2.381 . S
O224 C210 1.275 . S
O225 Ho200 2.669 . S
O225 Ho201 2.305 . S
O225 C210 1.256 . S
O226 Ho201 2.322 . S
O226 C211 1.259 . S
O227 Ho200 2.346 . S
O227 C211 1.268 . S
O228 Ho201 2.378 . S
O228 C212 1.215 . S
O229 Ho201 2.524 . S
O229 C212 1.289 . S
O230 Ho201 2.381 . S
O230 C219 1.275 . S
O231 Ho200 2.305 . S
O231 Ho201 2.669 . S
O231 C219 1.256 . S
H232 C205 0.930 . S
H233 C206 0.931 . S
H234 C208 0.934 . S
H235 C209 0.930 . S
H236 C214 0.930 . S
H237 C215 0.931 . S
H238 C217 0.934 . S
H239 C218 0.930 . S
H240 C246 0.930 . S
H241 C249 0.930 . S
H242 C250 0.930 . S
H243 C251 0.930 . S
H244 C254 0.930 . S
H245 C255 0.930 . S
C246 H240 0.930 . S
C246 C247 1.355 . S
C246 C248 1.415 . S
C247 C246 1.355 . S
C247 C249 1.419 . S
C248 C246 1.415 . S
C248 C253 1.425 . S
C248 C255 1.409 . S
C249 H241 0.930 . S
C249 C247 1.419 . S
C249 C250 1.362 . S
C250 H242 0.930 . S
C250 C249 1.362 . S
C250 C253 1.409 . S
C251 H243 0.930 . S
C251 C252 1.355 . S
C251 C253 1.415 . S
C252 C251 1.355 . S
C252 C254 1.419 . S
C253 C248 1.425 . S
C253 C250 1.409 . S
C253 C251 1.415 . S
C254 H244 0.930 . S
C254 C252 1.419 . S
C254 C255 1.362 . S
C255 H245 0.930 . S
C255 C248 1.409 . S
C255 C254 1.362 . S
H256 C262 0.930 . S
H257 C265 0.930 . S
H258 C266 0.930 . S
H259 C267 0.930 . S
H260 C270 0.930 . S
H261 C271 0.930 . S
C262 H256 0.930 . S
C262 C263 1.355 . S
C262 C264 1.415 . S
C263 C262 1.355 . S
C263 C265 1.419 . S
C264 C262 1.415 . S
C264 C269 1.425 . S
C264 C271 1.409 . S
C265 H257 0.930 . S
C265 C263 1.419 . S
C265 C266 1.362 . S
C266 H258 0.930 . S
C266 C265 1.362 . S
C266 C269 1.409 . S
C267 H259 0.930 . S
C267 C268 1.355 . S
C267 C269 1.415 . S
C268 C267 1.355 . S
C268 C270 1.419 . S
C269 C264 1.425 . S
C269 C266 1.409 . S
C269 C267 1.415 . S
C270 H260 0.930 . S
C270 C268 1.419 . S
C270 C271 1.362 . S
C271 H261 0.930 . S
C271 C264 1.409 . S
C271 C270 1.362 . S
H272 C278 0.930 . S
H273 C281 0.930 . S
H274 C282 0.930 . S
H275 C283 0.930 . S
H276 C286 0.930 . S
H277 C287 0.930 . S
C278 H272 0.930 . S
C278 C279 1.355 . S
C278 C280 1.415 . S
C279 C278 1.355 . S
C279 C281 1.419 . S
C280 C278 1.415 . S
C280 C285 1.425 . S
C280 C287 1.409 . S
C281 H273 0.930 . S
C281 C279 1.419 . S
C281 C282 1.362 . S
C282 H274 0.930 . S
C282 C281 1.362 . S
C282 C285 1.409 . S
C283 H275 0.930 . S
C283 C284 1.355 . S
C283 C285 1.415 . S
C284 C283 1.355 . S
C284 C286 1.419 . S
C285 C280 1.425 . S
C285 C282 1.409 . S
C285 C283 1.415 . S
C286 H276 0.930 . S
C286 C284 1.419 . S
C286 C287 1.362 . S
C287 H277 0.930 . S
C287 C280 1.409 . S
C287 C286 1.362 . S
H288 C294 0.930 . S
H289 C297 0.930 . S
H290 C298 0.930 . S
H291 C299 0.930 . S
H292 C302 0.930 . S
H293 C303 0.930 . S
C294 H288 0.930 . S
C294 C295 1.355 . S
C294 C296 1.415 . S
C295 C294 1.355 . S
C295 C297 1.419 . S
C296 C294 1.415 . S
C296 C301 1.425 . S
C296 C303 1.409 . S
C297 H289 0.930 . S
C297 C295 1.419 . S
C297 C298 1.362 . S
C298 H290 0.930 . S
C298 C297 1.362 . S
C298 C301 1.409 . S
C299 H291 0.930 . S
C299 C300 1.355 . S
C299 C301 1.415 . S
C300 C299 1.355 . S
C300 C302 1.419 . S
C301 C296 1.425 . S
C301 C298 1.409 . S
C301 C299 1.415 . S
C302 H292 0.930 . S
C302 C300 1.419 . S
C302 C303 1.362 . S
C303 H293 0.930 . S
C303 C296 1.409 . S
C303 C302 1.362 . S
H304 C310 0.930 . S
H305 C313 0.930 . S
H306 C314 0.930 . S
H307 C315 0.930 . S
H308 C318 0.930 . S
H309 C319 0.930 . S
C310 H304 0.930 . S
C310 C311 1.355 . S
C310 C312 1.415 . S
C311 C310 1.355 . S
C311 C313 1.419 . S
C312 C310 1.415 . S
C312 C317 1.425 . S
C312 C319 1.409 . S
C313 H305 0.930 . S
C313 C311 1.419 . S
C313 C314 1.362 . S
C314 H306 0.930 . S
C314 C313 1.362 . S
C314 C317 1.409 . S
C315 H307 0.930 . S
C315 C316 1.355 . S
C315 C317 1.415 . S
C316 C315 1.355 . S
C316 C318 1.419 . S
C317 C312 1.425 . S
C317 C314 1.409 . S
C317 C315 1.415 . S
C318 H308 0.930 . S
C318 C316 1.419 . S
C318 C319 1.362 . S
C319 H309 0.930 . S
C319 C312 1.409 . S
C319 C318 1.362 . S
H320 C326 0.930 . S
H321 C329 0.930 . S
H322 C330 0.930 . S
H323 C331 0.930 . S
H324 C334 0.930 . S
H325 C335 0.930 . S
C326 H320 0.930 . S
C326 C327 1.355 . S
C326 C328 1.415 . S
C327 C326 1.355 . S
C327 C329 1.419 . S
C328 C326 1.415 . S
C328 C333 1.425 . S
C328 C335 1.409 . S
C329 H321 0.930 . S
C329 C327 1.419 . S
C329 C330 1.362 . S
C330 H322 0.930 . S
C330 C329 1.362 . S
C330 C333 1.409 . S
C331 H323 0.930 . S
C331 C332 1.355 . S
C331 C333 1.415 . S
C332 C331 1.355 . S
C332 C334 1.419 . S
C333 C328 1.425 . S
C333 C330 1.409 . S
C333 C331 1.415 . S
C334 H324 0.930 . S
C334 C332 1.419 . S
C334 C335 1.362 . S
C335 H325 0.930 . S
C335 C328 1.409 . S
C335 C334 1.362 . S
H336 C342 0.930 . S
H337 C345 0.930 . S
H338 C346 0.930 . S
H339 C347 0.930 . S
H340 C350 0.930 . S
H341 C351 0.930 . S
C342 H336 0.930 . S
C342 C343 1.355 . S
C342 C344 1.415 . S
C343 C342 1.355 . S
C343 C345 1.419 . S
C344 C342 1.415 . S
C344 C349 1.425 . S
C344 C351 1.409 . S
C345 H337 0.930 . S
C345 C343 1.419 . S
C345 C346 1.362 . S
C346 H338 0.930 . S
C346 C345 1.362 . S
C346 C349 1.409 . S
C347 H339 0.930 . S
C347 C348 1.355 . S
C347 C349 1.415 . S
C348 C347 1.355 . S
C348 C350 1.419 . S
C349 C344 1.425 . S
C349 C346 1.409 . S
C349 C347 1.415 . S
C350 H340 0.930 . S
C350 C348 1.419 . S
C350 C351 1.362 . S
C351 H341 0.930 . S
C351 C344 1.409 . S
C351 C350 1.362 . S
H352 C358 0.930 . S
H353 C361 0.930 . S
H354 C362 0.930 . S
H355 C363 0.930 . S
H356 C366 0.930 . S
H357 C367 0.930 . S
C358 H352 0.930 . S
C358 C359 1.355 . S
C358 C360 1.415 . S
C359 C358 1.355 . S
C359 C361 1.419 . S
C360 C358 1.415 . S
C360 C365 1.425 1_455 S
C360 C367 1.409 . S
C361 H353 0.930 . S
C361 C359 1.419 . S
C361 C362 1.362 1_455 S
C362 H354 0.930 . S
C362 C361 1.362 1_655 S
C362 C365 1.409 . S
C363 H355 0.930 . S
C363 C364 1.355 . S
C363 C365 1.415 . S
C364 C363 1.355 . S
C364 C366 1.419 . S
C365 C360 1.425 1_655 S
C365 C362 1.409 . S
C365 C363 1.415 . S
C366 H356 0.930 . S
C366 C364 1.419 . S
C366 C367 1.362 1_655 S
C367 H357 0.930 . S
C367 C360 1.409 . S
C367 C366 1.362 1_455 S
H368 C374 0.930 . S
H369 C377 0.930 . S
H370 C378 0.930 . S
H371 C379 0.930 . S
H372 C382 0.930 . S
H373 C383 0.930 . S
C374 H368 0.930 . S
C374 C375 1.355 1_565 S
C374 C376 1.415 . S
C375 C374 1.355 1_545 S
C375 C377 1.419 . S
C376 C374 1.415 . S
C376 C381 1.425 1_565 S
C376 C383 1.409 . S
C377 H369 0.930 . S
C377 C375 1.419 . S
C377 C378 1.362 . S
C378 H370 0.930 . S
C378 C377 1.362 . S
C378 C381 1.409 . S
C379 H371 0.930 . S
C379 C380 1.355 1_545 S
C379 C381 1.415 . S
C380 C379 1.355 1_565 S
C380 C382 1.419 . S
C381 C376 1.425 1_545 S
C381 C378 1.409 . S
C381 C379 1.415 . S
C382 H372 0.930 . S
C382 C380 1.419 . S
C382 C383 1.362 . S
C383 H373 0.930 . S
C383 C376 1.409 . S
C383 C382 1.362 . S
H384 C390 0.930 . S
H385 C393 0.930 . S
H386 C394 0.930 . S
H387 C395 0.930 . S
H388 C398 0.930 . S
H389 C399 0.930 . S
C390 H384 0.930 . S
C390 C391 1.355 . S
C390 C392 1.415 . S
C391 C390 1.355 . S
C391 C393 1.419 . S
C392 C390 1.415 . S
C392 C397 1.425 . S
C392 C399 1.409 . S
C393 H385 0.930 . S
C393 C391 1.419 . S
C393 C394 1.362 . S
C394 H386 0.930 . S
C394 C393 1.362 . S
C394 C397 1.409 . S
C395 H387 0.930 . S
C395 C396 1.355 . S
C395 C397 1.415 . S
C396 C395 1.355 . S
C396 C398 1.419 . S
C397 C392 1.425 . S
C397 C394 1.409 . S
C397 C395 1.415 . S
C398 H388 0.930 . S
C398 C396 1.419 . S
C398 C399 1.362 . S
C399 H389 0.930 . S
C399 C392 1.409 . S
C399 C398 1.362 . S
H400 C406 0.930 . S
H401 C409 0.930 . S
H402 C410 0.930 . S
H403 C411 0.930 . S
H404 C414 0.930 . S
H405 C415 0.930 . S
C406 H400 0.930 . S
C406 C407 1.355 1_655 S
C406 C408 1.415 . S
C407 C406 1.355 1_455 S
C407 C409 1.419 . S
C408 C406 1.415 . S
C408 C413 1.425 1_655 S
C408 C415 1.409 . S
C409 H401 0.930 . S
C409 C407 1.419 . S
C409 C410 1.362 . S
C410 H402 0.930 . S
C410 C409 1.362 . S
C410 C413 1.409 . S
C411 H403 0.930 . S
C411 C412 1.355 1_455 S
C411 C413 1.415 . S
C412 C411 1.355 1_655 S
C412 C414 1.419 . S
C413 C408 1.425 1_455 S
C413 C410 1.409 . S
C413 C411 1.415 . S
C414 H404 0.930 . S
C414 C412 1.419 . S
C414 C415 1.362 . S
C415 H405 0.930 . S
C415 C408 1.409 . S
C415 C414 1.362 . S
H416 C422 0.930 . S
H417 C425 0.930 . S
H418 C426 0.930 . S
H419 C427 0.930 . S
H420 C430 0.930 . S
H421 C431 0.930 . S
C422 H416 0.930 . S
C422 C423 1.355 . S
C422 C424 1.415 . S
C423 C422 1.355 . S
C423 C425 1.419 1_565 S
C424 C422 1.415 . S
C424 C429 1.425 1_565 S
C424 C431 1.409 . S
C425 H417 0.930 . S
C425 C423 1.419 1_545 S
C425 C426 1.362 . S
C426 H418 0.930 . S
C426 C425 1.362 . S
C426 C429 1.409 . S
C427 H419 0.930 . S
C427 C428 1.355 . S
C427 C429 1.415 . S
C428 C427 1.355 . S
C428 C430 1.419 1_545 S
C429 C424 1.425 1_545 S
C429 C426 1.409 . S
C429 C427 1.415 . S
C430 H420 0.930 . S
C430 C428 1.419 1_565 S
C430 C431 1.362 . S
C431 H421 0.930 . S
C431 C424 1.409 . S
C431 C430 1.362 . S
H432 C438 0.930 . S
H433 C441 0.930 . S
H434 C442 0.930 . S
H435 C443 0.930 . S
H436 C446 0.930 . S
H437 C447 0.930 . S
C438 H432 0.930 . S
C438 C439 1.355 . S
C438 C440 1.415 . S
C439 C438 1.355 . S
C439 C441 1.419 . S
C440 C438 1.415 . S
C440 C445 1.425 . S
C440 C447 1.409 . S
C441 H433 0.930 . S
C441 C439 1.419 . S
C441 C442 1.362 . S
C442 H434 0.930 . S
C442 C441 1.362 . S
C442 C445 1.409 . S
C443 H435 0.930 . S
C443 C444 1.355 . S
C443 C445 1.415 . S
C444 C443 1.355 . S
C444 C446 1.419 . S
C445 C440 1.425 . S
C445 C442 1.409 . S
C445 C443 1.415 . S
C446 H436 0.930 . S
C446 C444 1.419 . S
C446 C447 1.362 . S
C447 H437 0.930 . S
C447 C440 1.409 . S
C447 C446 1.362 . S
H448 C454 0.930 1_655 S
H449 C457 0.930 . S
H450 C458 0.930 . S
H451 C459 0.930 . S
H452 C462 0.930 . S
H453 C463 0.930 . S
C454 H448 0.930 1_455 S
C454 C455 1.355 . S
C454 C456 1.415 . S
C455 C454 1.355 . S
C455 C457 1.419 . S
C456 C454 1.415 . S
C456 C461 1.425 . S
C456 C463 1.409 . S
C457 H449 0.930 . S
C457 C455 1.419 . S
C457 C458 1.362 . S
C458 H450 0.930 . S
C458 C457 1.362 . S
C458 C461 1.409 . S
C459 H451 0.930 . S
C459 C460 1.355 . S
C459 C461 1.415 . S
C460 C459 1.355 . S
C460 C462 1.419 . S
C461 C456 1.425 . S
C461 C458 1.409 . S
C461 C459 1.415 . S
C462 H452 0.930 . S
C462 C460 1.419 . S
C462 C463 1.362 . S
C463 H453 0.930 . S
C463 C456 1.409 . S
C463 C462 1.362 . S
H464 C470 0.930 . S
H465 C473 0.930 . S
H466 C474 0.930 . S
H467 C475 0.930 . S
H468 C478 0.930 . S
H469 C479 0.930 1_565 S
C470 H464 0.930 . S
C470 C471 1.355 1_565 S
C470 C472 1.415 1_565 S
C471 C470 1.355 1_545 S
C471 C473 1.419 . S
C472 C470 1.415 1_545 S
C472 C477 1.425 . S
C472 C479 1.409 . S
C473 H465 0.930 . S
C473 C471 1.419 . S
C473 C474 1.362 . S
C474 H466 0.930 . S
C474 C473 1.362 . S
C474 C477 1.409 . S
C475 H467 0.930 . S
C475 C476 1.355 . S
C475 C477 1.415 . S
C476 C475 1.355 . S
C476 C478 1.419 . S
C477 C472 1.425 . S
C477 C474 1.409 . S
C477 C475 1.415 . S
C478 H468 0.930 . S
C478 C476 1.419 . S
C478 C479 1.362 . S
C479 H469 0.930 1_545 S
C479 C472 1.409 . S
C479 C478 1.362 . S
H480 C486 0.930 . S
H481 C489 0.930 . S
H482 C490 0.930 . S
H483 C491 0.930 . S
H484 C494 0.930 . S
H485 C495 0.930 . S
C486 H480 0.930 . S
C486 C487 1.355 . S
C486 C488 1.415 . S
C487 C486 1.355 . S
C487 C489 1.419 . S
C488 C486 1.415 . S
C488 C493 1.425 . S
C488 C495 1.409 . S
C489 H481 0.930 . S
C489 C487 1.419 . S
C489 C490 1.362 . S
C490 H482 0.930 . S
C490 C489 1.362 . S
C490 C493 1.409 . S
C491 H483 0.930 . S
C491 C492 1.355 . S
C491 C493 1.415 . S
C492 C491 1.355 . S
C492 C494 1.419 . S
C493 C488 1.425 . S
C493 C490 1.409 . S
C493 C491 1.415 . S
C494 H484 0.930 . S
C494 C492 1.419 . S
C494 C495 1.362 . S
C495 H485 0.930 . S
C495 C488 1.409 . S
C495 C494 1.362 . S
H496 C502 0.930 . S
H497 C505 0.930 1_455 S
H498 C506 0.930 . S
H499 C507 0.930 . S
H500 C510 0.930 . S
H501 C511 0.930 . S
C502 H496 0.930 . S
C502 C503 1.355 . S
C502 C504 1.415 . S
C503 C502 1.355 . S
C503 C505 1.419 . S
C504 C502 1.415 . S
C504 C509 1.425 . S
C504 C511 1.409 . S
C505 H497 0.930 1_655 S
C505 C503 1.419 . S
C505 C506 1.362 . S
C506 H498 0.930 . S
C506 C505 1.362 . S
C506 C509 1.409 . S
C507 H499 0.930 . S
C507 C508 1.355 . S
C507 C509 1.415 . S
C508 C507 1.355 . S
C508 C510 1.419 . S
C509 C504 1.425 . S
C509 C506 1.409 . S
C509 C507 1.415 . S
C510 H500 0.930 . S
C510 C508 1.419 . S
C510 C511 1.362 . S
C511 H501 0.930 . S
C511 C504 1.409 . S
C511 C510 1.362 . S
H512 C518 0.930 . S
H513 C521 0.930 . S
H514 C522 0.930 . S
H515 C523 0.930 . S
H516 C526 0.930 . S
H517 C527 0.930 1_545 S
C518 H512 0.930 . S
C518 C519 1.355 1_545 S
C518 C520 1.415 1_545 S
C519 C518 1.355 1_565 S
C519 C521 1.419 . S
C520 C518 1.415 1_565 S
C520 C525 1.425 . S
C520 C527 1.409 . S
C521 H513 0.930 . S
C521 C519 1.419 . S
C521 C522 1.362 . S
C522 H514 0.930 . S
C522 C521 1.362 . S
C522 C525 1.409 . S
C523 H515 0.930 . S
C523 C524 1.355 . S
C523 C525 1.415 . S
C524 C523 1.355 . S
C524 C526 1.419 . S
C525 C520 1.425 . S
C525 C522 1.409 . S
C525 C523 1.415 . S
C526 H516 0.930 . S
C526 C524 1.419 . S
C526 C527 1.362 . S
C527 H517 0.930 1_565 S
C527 C520 1.409 . S
C527 C526 1.362 . S
C247 C171 1.201 . S
C252 C7 1.200 . S
C263 C211 1.179 . S
C268 C47 1.201 . S
C279 C11 1.179 . S
C284 C87 1.200 . S
C295 C51 1.218 . S
C300 C127 1.212 . S
C311 C91 1.213 . S
C316 C167 1.205 . S
C327 C131 1.185 . S
C332 C207 1.206 . S
C343 C10 1.000 . S
C348 C130 1.007 . S
C359 C170 1.085 . S
C364 C50 1.067 . S
C375 C210 0.998 . S
C380 C90 1.003 . S
C391 C99 1.232 . S
C396 C219 1.218 . S
C407 C19 1.217 . S
C412 C139 1.229 . S
C423 C179 1.256 . S
C428 C59 1.253 . S
C439 C202 1.360 . S
C444 C16 1.312 . S
C455 C56 1.305 1_455 S
C460 C2 1.357 . S
C471 C96 1.348 1_545 S
C476 C42 1.368 . S
C487 C82 1.353 . S
C492 C136 1.296 . S
C503 C176 1.349 1_655 S
C508 C122 1.358 . S
C519 C216 1.342 1_565 S
C524 C162 1.368 . S
