# Generated by pormake.
# Topology qdl, (4)-cn, num edge types: 1
# Building blocks:
#     Node 0, Type 0, BuildingBlock: MUDLON_clean_sbu_0, # of connection points: 4
#     Node 1, Type 0, BuildingBlock: MUDLON_clean_sbu_0, # of connection points: 4
#     Node 2, Type 0, BuildingBlock: MUDLON_clean_sbu_0, # of connection points: 4
#     Node 3, Type 0, BuildingBlock: MUDLON_clean_sbu_0, # of connection points: 4
#     Node 4, Type 0, BuildingBlock: MUDLON_clean_sbu_0, # of connection points: 4
#     Node 5, Type 0, BuildingBlock: MUDLON_clean_sbu_0, # of connection points: 4
#     Edge 6, Type (0, 0), BuildingBlock: UVAHIK_clean_linker_0, # of connection points: 2
#     Edge 7, Type (0, 0), BuildingBlock: UVAHIK_clean_linker_0, # of connection points: 2
#     Edge 8, Type (0, 0), BuildingBlock: UVAHIK_clean_linker_0, # of connection points: 2
#     Edge 9, Type (0, 0), BuildingBlock: UVAHIK_clean_linker_0, # of connection points: 2
#     Edge 10, Type (0, 0), BuildingBlock: UVAHIK_clean_linker_0, # of connection points: 2
#     Edge 11, Type (0, 0), BuildingBlock: UVAHIK_clean_linker_0, # of connection points: 2
#     Edge 12, Type (0, 0), BuildingBlock: UVAHIK_clean_linker_0, # of connection points: 2
#     Edge 13, Type (0, 0), BuildingBlock: UVAHIK_clean_linker_0, # of connection points: 2
#     Edge 14, Type (0, 0), BuildingBlock: UVAHIK_clean_linker_0, # of connection points: 2
#     Edge 15, Type (0, 0), BuildingBlock: UVAHIK_clean_linker_0, # of connection points: 2
#     Edge 16, Type (0, 0), BuildingBlock: UVAHIK_clean_linker_0, # of connection points: 2
#     Edge 17, Type (0, 0), BuildingBlock: UVAHIK_clean_linker_0, # of connection points: 2
# Relax obj value: 0.001
# Max RMSD: 0.013
# Mean RMSD: 0.012
data_MOF--net-qdl--node1-MUDLON_clean_sbu_0--edge1-UVAHIK_clean_linker_0
_symmetry_space_group_name_H-M    P1
_symmetry_Int_Tables_number       1
_symmetry_cell_setting            triclinic
loop_
_symmetry_equiv_pos_as_xyz
'x, y, z'
_cell_length_a     19.4438799
_cell_length_b     19.427484
_cell_length_c     116.21513
_cell_angle_alpha  90.121557
_cell_angle_beta   90.517596
_cell_angle_gamma 120.55631
loop_
_atom_site_label
_atom_site_type_symbol
_atom_site_fract_x
_atom_site_fract_y
_atom_site_fract_z
_atom_type_partial_charge
Mg0 Mg 0.11608 0.12657 0.10228 0.0
C1 C 0.19809 0.0383 0.11111 0.0
O2 O 0.16776 0.04383 0.12089 0.0
C3 C 0.16367 0.29676 0.0969 0.0
O4 O 0.11068 0.2581 0.08872 0.0
C5 C 0.03078 0.12355 0.1242 0.0
O6 O 0.05882 0.19828 0.12122 0.0
O7 O 0.03956 0.07739 0.11735 0.0
O8 O 0.1913 0.07318 0.10229 0.0
O9 O 0.0589 0.0951 0.08519 0.0
C10 C 0.10994 0.12173 0.07713 0.0
O11 O 0.18617 0.16111 0.07997 0.0
O12 O 0.18076 0.25747 0.10396 0.0
Mg13 Mg 0.05672 0.19916 0.43286 0.0
C14 C 0.96677 0.27907 0.42432 0.0
O15 O 0.96751 0.24285 0.4148 0.0
C16 C 0.21644 0.22066 0.43728 0.0
O17 O 0.16722 0.15109 0.44189 0.0
C18 C 0.96718 0.13569 0.45533 0.0
O19 O 0.92804 0.16889 0.45114 0.0
O20 O 1.01993 0.13374 0.44914 0.0
O21 O 1.00616 0.27753 0.43303 0.0
O22 O 1.01209 0.12818 0.41697 0.0
C23 C 0.04975 0.10032 0.41159 0.0
O24 O 0.11361 0.1053 0.41637 0.0
O25 O 0.18727 0.25982 0.43267 0.0
Mg26 Mg 0.06094 0.98053 0.76939 0.0
C27 C 0.99616 0.79239 0.76838 0.0
O28 O 0.0625 0.80724 0.76327 0.0
C29 C 0.24142 0.05955 0.76391 0.0
O30 O 0.21551 0.03279 0.75345 0.0
C31 C 0.96052 0.98255 0.78918 0.0
O32 O 0.91018 0.91178 0.78482 0.0
O33 O 1.02471 0.02782 0.7838 0.0
O34 O 0.98713 0.85011 0.77152 0.0
O35 O 0.03869 1.01005 0.75196 0.0
C36 C 0.04184 0.96637 0.74403 0.0
O37 O 0.05354 0.90798 0.74702 0.0
O38 O 0.19109 0.04067 0.77198 0.0
Mg39 Mg 0.91853 0.89593 0.59829 0.0
C40 C 1.01114 0.8207 0.58837 0.0
O41 O 0.99735 0.84696 0.57872 0.0
C42 C 0.74402 0.80704 0.58952 0.0
O43 O 0.77806 0.81111 0.57963 0.0
C44 C 0.9153 0.99517 0.5778 0.0
O45 O 0.85385 0.99014 0.5832 0.0
O46 O 0.95534 0.96764 0.5826 0.0
O47 O 0.97933 0.82643 0.59759 0.0
O48 O 0.95695 0.96215 0.61471 0.0
C49 C 0.9746 0.92814 0.62261 0.0
O50 O 0.97131 0.86047 0.62018 0.0
O51 O 0.78732 0.83126 0.5986 0.0
Mg52 Mg 0.0338 0.97342 0.93312 0.0
C53 C 0.20928 0.05248 0.94152 0.0
O54 O 0.17651 0.0209 0.95143 0.0
C55 C 0.94686 0.80155 0.94141 0.0
O56 O 0.96962 0.83873 0.9514 0.0
C57 C 0.94344 0.96424 0.91103 0.0
O58 O 0.89752 0.89053 0.91457 0.0
O59 O 1.00073 1.0135 0.91751 0.0
O60 O 0.16455 0.03677 0.93267 0.0
O61 O 0.99904 1.00284 0.94948 0.0
C62 C 0.04201 0.06948 0.95463 0.0
O63 O 0.10419 0.12672 0.94934 0.0
O64 O 0.97057 0.8426 0.93225 0.0
Mg65 Mg 0.12502 0.0629 0.26662 0.0
C66 C 0.21367 0.23836 0.27503 0.0
O67 O 0.20774 0.20528 0.2851 0.0
C68 C 0.2113 0.97685 0.27446 0.0
O69 O 0.19862 0.99901 0.28453 0.0
C70 C 0.03431 0.07268 0.24588 0.0
O71 O 0.0566 0.14235 0.25067 0.0
O72 O 0.0488 0.02402 0.25117 0.0
O73 O 0.19083 0.19418 0.26606 0.0
O74 O 0.06468 0.02576 0.28318 0.0
C75 C 0.03132 0.05839 0.28844 0.0
O76 O 1.02319 0.11398 0.28322 0.0
O77 O 0.19326 1.00133 0.2654 0.0
C78 C 0.2407 0.96015 0.0989 0.0
C79 C 0.22546 0.97991 0.10986 0.0
C80 C 0.25264 0.8955 0.09746 0.0
C81 C 0.2945 0.752 0.11238 0.0
H82 H 0.15677 0.60581 0.08854 0.0
C83 C 0.21398 0.41993 0.10923 0.0
C84 C 0.19609 0.3836 0.09829 0.0
C85 C 0.23164 0.49913 0.11053 0.0
C86 C 0.19711 0.64634 0.09508 0.0
H87 H 0.21666 0.95065 0.128 0.0
H88 H 0.23791 0.83806 0.12545 0.0
H89 H 0.16563 0.73399 0.09091 0.0
H90 H 0.18878 0.40302 0.08009 0.0
H91 H 0.22323 0.54145 0.08225 0.0
H92 H 0.32579 0.6638 0.11656 0.0
C93 C 0.24037 0.87248 0.11798 0.0
C94 C 0.20194 0.72004 0.09646 0.0
C95 C 0.22788 0.93688 0.11943 0.0
C96 C 0.2013 0.42925 0.08864 0.0
C97 C 0.22035 0.50849 0.08991 0.0
C98 C 0.29035 0.67826 0.11092 0.0
C99 C 0.25022 0.84947 0.10693 0.0
C100 C 0.25024 0.77361 0.10515 0.0
C101 C 0.23285 0.54375 0.1009 0.0
C102 C 0.24119 0.62419 0.10227 0.0
H103 H 0.23972 0.99218 0.09135 0.0
H104 H 0.26132 0.87996 0.08885 0.0
H105 H 0.33247 0.79222 0.11914 0.0
H106 H 0.2099 0.38586 0.11682 0.0
H107 H 0.24043 0.52384 0.11914 0.0
C108 C 0.3576 0.31992 0.43135 0.0
C109 C 0.30312 0.24883 0.43693 0.0
C110 C 0.43853 0.34278 0.43062 0.0
C111 C 0.59197 0.34554 0.42384 0.0
H112 H 0.69118 0.29148 0.44853 0.0
C113 C 0.8549 0.29418 0.41645 0.0
C114 C 0.90854 0.30662 0.4255 0.0
C115 C 0.791 0.3068 0.41808 0.0
C116 C 0.66547 0.3086 0.4416 0.0
H117 H 0.2915 0.14678 0.44625 0.0
H118 H 0.43064 0.18545 0.44482 0.0
H119 H 0.56159 0.27819 0.45144 0.0
H120 H 0.9403 0.34785 0.44316 0.0
H121 H 0.83015 0.37218 0.44593 0.0
H122 H 0.69636 0.37656 0.41403 0.0
C123 C 0.41195 0.22469 0.44118 0.0
C124 C 0.59025 0.29973 0.44322 0.0
C125 C 0.3316 0.20206 0.44191 0.0
C126 C 0.89978 0.33709 0.43602 0.0
C127 C 0.83609 0.35036 0.43764 0.0
C128 C 0.66765 0.35503 0.42225 0.0
C129 C 0.4666 0.29509 0.43548 0.0
C130 C 0.55134 0.31568 0.43425 0.0
C131 C 0.77931 0.33292 0.4288 0.0
C132 C 0.70449 0.3345 0.431 0.0
H133 H 0.33762 0.35734 0.42742 0.0
H134 H 0.47902 0.39773 0.42625 0.0
H135 H 0.56394 0.3583 0.41673 0.0
H136 H 0.85974 0.27078 0.40822 0.0
H137 H 0.7484 0.29178 0.41109 0.0
C138 C 0.86469 0.69156 0.77687 0.0
C139 C 0.928 0.7091 0.76939 0.0
C140 C 0.79689 0.61491 0.77711 0.0
C141 C 0.67819 0.4404 0.7587 0.0
H142 H 0.57743 0.33317 0.78705 0.0
C143 C 0.38427 0.13528 0.75754 0.0
C144 C 0.32667 0.12174 0.76584 0.0
C145 C 0.4624 0.20032 0.7586 0.0
C146 C 0.60401 0.36249 0.77903 0.0
H147 H 0.97006 0.65903 0.75646 0.0
H148 H 0.85083 0.52539 0.75674 0.0
H149 H 0.70432 0.45949 0.78779 0.0
H150 H 0.30693 0.16514 0.78196 0.0
H151 H 0.44166 0.27958 0.78363 0.0
H152 H 0.57694 0.34627 0.7499 0.0
C153 C 0.85409 0.57112 0.76245 0.0
C154 C 0.67714 0.43483 0.77948 0.0
C155 C 0.92258 0.64753 0.76235 0.0
C156 C 0.34988 0.17332 0.77544 0.0
C157 C 0.42766 0.2391 0.77641 0.0
C158 C 0.60456 0.36877 0.75825 0.0
C159 C 0.7901 0.55417 0.76976 0.0
C160 C 0.71484 0.47487 0.76932 0.0
C161 C 0.48487 0.25456 0.7679 0.0
C162 C 0.56588 0.32881 0.76841 0.0
H163 H 0.86692 0.73751 0.78242 0.0
H164 H 0.74846 0.60397 0.78277 0.0
H165 H 0.70513 0.47033 0.75073 0.0
H166 H 0.36859 0.0964 0.75008 0.0
H167 H 0.50484 0.20852 0.75201 0.0
C168 C 0.10788 0.79366 0.59927 0.0
C169 C 0.0735 0.79744 0.58875 0.0
C170 C 0.17413 0.78308 0.59946 0.0
C171 C 0.34053 0.81134 0.58071 0.0
H172 H 0.38018 0.69797 0.60485 0.0
C173 C 0.61512 0.77221 0.57949 0.0
C174 C 0.6594 0.78768 0.58978 0.0
C175 C 0.53931 0.7641 0.57947 0.0
C176 C 0.37021 0.73026 0.59808 0.0
H177 H 0.0793 0.78843 0.57023 0.0
H178 H 0.19266 0.7677 0.57057 0.0
H179 H 0.25513 0.69932 0.60457 0.0
H180 H 0.6566 0.80338 0.60823 0.0
H181 H 0.52431 0.7891 0.60819 0.0
H182 H 0.45543 0.84257 0.57425 0.0
C183 C 0.17026 0.77532 0.57868 0.0
C184 C 0.29846 0.73117 0.59792 0.0
C185 C 0.10457 0.78649 0.57849 0.0
C186 C 0.6243 0.79141 0.60013 0.0
C187 C 0.54821 0.78298 0.60012 0.0
C188 C 0.41185 0.81008 0.58084 0.0
C189 C 0.2074 0.77551 0.58915 0.0
C190 C 0.28261 0.77191 0.58924 0.0
C191 C 0.50544 0.77097 0.58975 0.0
C192 C 0.42788 0.76972 0.58953 0.0
H193 H 0.08584 0.8023 0.60735 0.0
H194 H 0.20118 0.78419 0.6077 0.0
H195 H 0.3318 0.84504 0.57404 0.0
H196 H 0.63993 0.76868 0.57136 0.0
H197 H 0.50759 0.75347 0.57135 0.0
C198 C 0.32829 0.1573 0.93076 0.0
C199 C 0.29492 0.1163 0.94106 0.0
C200 C 0.40557 0.22428 0.93065 0.0
C201 C 0.55101 0.38306 0.95014 0.0
H202 H 0.69654 0.43516 0.92469 0.0
C203 C 0.86007 0.67021 0.9511 0.0
C204 C 0.88469 0.71526 0.94094 0.0
C205 C 0.79457 0.59213 0.95101 0.0
C206 C 0.65638 0.42183 0.93183 0.0
H207 H 0.31868 0.11172 0.95923 0.0
H208 H 0.45348 0.22765 0.95901 0.0
H209 H 0.57071 0.30736 0.92473 0.0
H210 H 0.86134 0.71194 0.92261 0.0
H211 H 0.74651 0.57617 0.92246 0.0
H212 H 0.63527 0.49771 0.95715 0.0
C213 C 0.41936 0.2089 0.95104 0.0
C214 C 0.5842 0.34844 0.93186 0.0
C215 C 0.34215 0.14191 0.95114 0.0
C216 C 0.84424 0.67895 0.93059 0.0
C217 C 0.77837 0.60083 0.9305 0.0
C218 C 0.6229 0.4563 0.95011 0.0
C219 C 0.45148 0.25208 0.94085 0.0
C220 C 0.53035 0.32825 0.94099 0.0
C221 C 0.75151 0.55698 0.94077 0.0
C222 C 0.67654 0.47701 0.94094 0.0
H223 H 0.29371 0.13942 0.92282 0.0
H224 H 0.42797 0.25624 0.92266 0.0
H225 H 0.51046 0.37048 0.95721 0.0
H226 H 0.89015 0.69595 0.95922 0.0
H227 H 0.7769 0.55972 0.95903 0.0
C228 C 0.22644 0.35567 0.26394 0.0
C229 C 0.23431 0.32333 0.27436 0.0
C230 C 0.23602 0.43226 0.26365 0.0
C231 C 0.223 0.57758 0.28284 0.0
H232 H 0.31706 0.72307 0.25728 0.0
C233 C 0.25407 0.88837 0.28392 0.0
C234 C 0.23354 0.91402 0.27383 0.0
C235 C 0.26429 0.82208 0.28373 0.0
C236 C 0.29004 0.6829 0.26445 0.0
H237 H 0.26229 0.34827 0.29255 0.0
H238 H 0.28019 0.48174 0.292 0.0
H239 H 0.31697 0.59715 0.25742 0.0
H240 H 0.21105 0.89159 0.25551 0.0
H241 H 0.22808 0.7754 0.25519 0.0
H242 H 0.19483 0.66208 0.28981 0.0
C243 C 0.26494 0.44737 0.28408 0.0
C244 C 0.29001 0.61061 0.26453 0.0
C245 C 0.25529 0.37088 0.28438 0.0
C246 C 0.22706 0.87372 0.26344 0.0
C247 C 0.23702 0.80704 0.26326 0.0
C248 C 0.22297 0.64957 0.28275 0.0
C249 C 0.25372 0.47851 0.27377 0.0
C250 C 0.25638 0.55688 0.27373 0.0
C251 C 0.25389 0.77913 0.27346 0.0
C252 C 0.25641 0.70337 0.27357 0.0
H253 H 0.21005 0.32075 0.25606 0.0
H254 H 0.22634 0.45383 0.25557 0.0
H255 H 0.19492 0.53715 0.28995 0.0
H256 H 0.26021 0.91823 0.29207 0.0
H257 H 0.27912 0.80368 0.29171 0.0
C258 C 0.99434 0.11398 0.22774 0.0
C259 C 1.00521 0.0573 0.23372 0.0
C260 C 0.97833 0.10594 0.2159 0.0
C261 C 1.00969 1.01465 0.19012 0.0
H262 H 0.88042 0.08892 0.17519 0.0
C263 C 0.99158 0.02604 0.14053 0.0
C264 C 1.00203 0.09812 0.13612 0.0
C265 C 0.97643 1.00821 0.15224 0.0
C266 C 0.91695 0.06815 0.17922 0.0
H267 H 1.00359 0.94531 0.23198 0.0
H268 H 0.97471 0.93077 0.21132 0.0
H269 H 0.88108 0.08006 0.19613 0.0
H270 H 1.00053 0.20591 0.14052 0.0
H271 H 0.97439 0.17505 0.16085 0.0
H272 H 0.04736 1.00457 0.17325 0.0
C273 C 0.97991 0.98227 0.21578 0.0
C274 C 0.91737 0.0631 0.19124 0.0
C275 C 0.99584 0.99027 0.22765 0.0
C276 C 0.99292 0.14989 0.1436 0.0
C277 C 0.97748 0.13195 0.15528 0.0
C278 C 1.0092 1.01961 0.17811 0.0
C279 C 0.97271 0.04095 0.20969 0.0
C280 C 0.96499 0.0378 0.19687 0.0
C281 C 0.9709 0.0618 0.15982 0.0
C282 C 0.96406 0.04793 0.1725 0.0
H283 H 1.00108 0.16638 0.23212 0.0
H284 H 0.974 0.15277 0.21152 0.0
H285 H 0.04825 0.99597 0.19413 0.0
H286 H 0.99817 0.98474 0.13502 0.0
H287 H 0.97058 0.95311 0.15541 0.0
C288 C 0.87962 0.04178 0.55977 0.0
C289 C 0.92952 0.02001 0.56555 0.0
C290 C 0.88686 0.05624 0.54792 0.0
C291 C 0.96115 1.00923 0.52154 0.0
H292 H 0.93177 0.17511 0.50813 0.0
C293 C 1.00988 0.09095 0.47296 0.0
C294 C 0.95788 0.11188 0.46763 0.0
C295 C 1.00663 0.07778 0.48486 0.0
C296 C 0.93915 0.12781 0.51171 0.0
H297 H 0.02838 0.99901 0.56338 0.0
H298 H 0.04169 0.02534 0.54276 0.0
H299 H 0.92929 0.16056 0.52895 0.0
H300 H 0.85937 0.13189 0.47059 0.0
H301 H 0.85292 0.10775 0.4912 0.0
H302 H 0.97081 0.97642 0.50427 0.0
C303 C 0.99573 0.02993 0.54737 0.0
C304 C 0.93787 0.11957 0.52368 0.0
C305 C 0.98856 1.01555 0.55922 0.0
C306 C 0.90072 0.1164 0.4744 0.0
C307 C 0.89745 0.10321 0.48626 0.0
C308 C 0.96244 1.01748 0.50956 0.0
C309 C 0.94418 0.0493 0.54152 0.0
C310 C 0.94844 0.05992 0.52876 0.0
C311 C 0.95131 0.08523 0.4917 0.0
C312 C 0.95094 0.07658 0.50447 0.0
H313 H 0.83325 0.04545 0.56433 0.0
H314 H 0.84559 0.07026 0.54371 0.0
H315 H 0.9683 0.96182 0.52513 0.0
H316 H 0.05513 0.08723 0.46802 0.0
H317 H 0.0496 0.06447 0.48874 0.0
C318 C 0.88283 0.9473 0.80749 0.0
C319 C 0.94989 1.00203 0.80118 0.0
C320 C 0.8782 0.95837 0.81929 0.0
C321 C 1.01025 0.0562 0.84445 0.0
H322 H 0.80981 0.98205 0.86017 0.0
C323 C 0.99602 0.05721 0.89412 0.0
C324 C 0.93624 0.98543 0.89896 0.0
C325 C 0.99473 0.07167 0.88233 0.0
C326 C 0.86628 1.00287 0.85591 0.0
H327 H 0.06287 0.11414 0.80229 0.0
H328 H 0.05415 0.13424 0.82285 0.0
H329 H 0.81282 0.98669 0.83918 0.0
H330 H 0.82601 0.87451 0.89527 0.0
H331 H 0.82377 0.89969 0.8748 0.0
H332 H 0.06367 0.07088 0.86116 0.0
C333 C 1.00553 0.08171 0.8187 0.0
C334 C 0.86803 1.00546 0.84387 0.0
C335 C 1.01021 0.07055 0.80687 0.0
C336 C 0.87311 0.93039 0.89184 0.0
C337 C 0.8716 0.94503 0.88009 0.0
C338 C 1.00853 0.05388 0.85649 0.0
C339 C 0.94042 0.02466 0.82513 0.0
C340 C 0.93978 0.03063 0.83796 0.0
C341 C 0.93336 1.01499 0.87512 0.0
C342 C 0.93627 0.02569 0.86238 0.0
H343 H 0.83517 0.89382 0.80341 0.0
H344 H 0.82747 0.91269 0.82393 0.0
H345 H 0.06669 0.07477 0.84024 0.0
H346 H 0.04576 0.10104 0.89934 0.0
H347 H 0.04292 0.12668 0.87882 0.0
C348 C 1.00983 0.05658 0.0608 0.0
C349 C 0.08628 0.11514 0.06482 0.0
C350 C 0.99072 0.05024 0.049 0.0
C351 C 0.04966 0.16564 0.02206 0.0
H352 H 0.97203 0.96244 1.00646 0.0
C353 C 0.08602 0.14563 0.97329 0.0
C354 C 0.02968 0.07787 0.96705 0.0
C355 C 0.08027 0.14983 0.98524 0.0
C356 C 0.99205 1.01943 1.01066 0.0
H357 H 0.20111 0.2142 0.05965 0.0
H358 H 0.16738 0.20401 0.0393 0.0
H359 H 0.98295 0.96947 0.02744 0.0
H360 H 0.92069 0.96262 0.96847 0.0
H361 H 0.90947 0.97081 0.98927 0.0
H362 H 0.0593 0.21609 1.0054 0.0
C363 C 0.12252 0.16272 0.04518 0.0
C364 C 0.99841 0.02334 0.02271 0.0
C365 C 0.142 0.16811 0.05686 0.0
C366 C 0.96532 1.01566 0.97301 0.0
C367 C 0.95928 0.02007 0.98497 0.0
C368 C 0.04252 0.16166 1.01006 0.0
C369 C 0.04711 0.10351 0.04108 0.0
C370 C 0.02942 0.09688 0.02851 0.0
C371 C 1.01736 0.08664 0.99129 0.0
C372 C 1.01557 0.08892 1.00415 0.0
H373 H 0.96572 1.01487 0.06673 0.0
H374 H 0.93205 1.00405 0.04608 0.0
H375 H 0.07247 0.223 0.02631 0.0
H376 H 0.13645 0.1945 0.96903 0.0
H377 H 0.12697 0.20156 0.98976 0.0
C378 C 0.97811 0.0795 0.30699 0.0
C379 C 1.01364 0.0431 0.30091 0.0
C380 C 0.97054 0.07264 0.31898 0.0
C381 C 0.068 0.04411 0.34417 0.0
H382 H 0.88095 1.01032 0.3607 0.0
C383 C 0.06489 0.03656 0.39372 0.0
C384 C 0.0294 0.07451 0.39937 0.0
C385 C 0.05386 0.02131 0.38186 0.0
C386 C 0.934 0.02068 0.35625 0.0
H387 H 0.0665 0.96824 0.30271 0.0
H388 H 0.0537 0.95687 0.32356 0.0
H389 H 0.87808 1.00584 0.33968 0.0
H390 H 0.95185 0.12374 0.397 0.0
H391 H 0.93456 0.09951 0.37635 0.0
H392 H 0.12539 0.06212 0.36056 0.0
C393 C 0.03213 0.9911 0.31906 0.0
C394 C 0.93213 1.0178 0.34418 0.0
C395 C 0.03897 0.99727 0.30708 0.0
C396 C 0.97985 0.09407 0.39295 0.0
C397 C 0.96965 0.07979 0.38106 0.0
C398 C 0.07024 0.0479 0.35619 0.0
C399 C 0.99906 0.0299 0.32518 0.0
C400 C 0.9991 0.0297 0.338 0.0
C401 C 1.0077 0.04465 0.37529 0.0
C402 C 1.00328 0.03654 0.36244 0.0
H403 H 0.95813 0.11521 0.30253 0.0
H404 H 0.94535 0.10357 0.32345 0.0
H405 H 0.12111 0.05489 0.33967 0.0
H406 H 0.10267 0.02005 0.39841 0.0
H407 H 0.0825 0.99223 0.37782 0.0
C408 C 0.97014 1.01137 0.63905 0.0
C409 C 0.99446 0.95985 0.63457 0.0
C410 C 0.98214 0.03292 0.65077 0.0
C411 C 0.0998 0.03768 0.67653 0.0
H412 H 0.91718 1.00456 0.69425 0.0
C413 C 0.06355 0.94586 0.72352 0.0
C414 C 0.03933 0.98302 0.73161 0.0
C415 C 0.06329 0.96053 0.71179 0.0
C416 C 0.9691 1.01561 0.68941 0.0
H417 H 0.05336 0.89327 0.63877 0.0
H418 H 0.07471 0.93101 0.65894 0.0
H419 H 0.90947 1.001 0.67315 0.0
H420 H 0.99463 0.06447 0.73363 0.0
H421 H 0.99254 0.08899 0.71285 0.0
H422 H 0.15816 0.04857 0.6927 0.0
C423 C 0.04652 0.95509 0.65351 0.0
C424 C 0.96477 1.01365 0.67732 0.0
C425 C 0.03374 0.93294 0.64192 0.0
C426 C 1.01378 0.03505 0.72761 0.0
C427 C 1.0124 0.04892 0.71575 0.0
C428 C 0.10399 0.03935 0.68854 0.0
C429 C 1.01993 1.00447 0.65815 0.0
C430 C 0.02925 0.02172 0.67077 0.0
C431 C 0.03812 1.01225 0.70774 0.0
C432 C 0.0379 0.02546 0.69512 0.0
H433 H 0.93951 0.03273 0.6336 0.0
H434 H 0.96139 0.07127 0.65408 0.0
H435 H 0.15098 0.04589 0.67175 0.0
H436 H 0.08352 0.9055 0.72623 0.0
H437 H 0.08201 0.93032 0.70585 0.0
loop_
_geom_bond_atom_site_label_1
_geom_bond_atom_site_label_2
_geom_bond_distance
_geom_bond_site_symmetry_2
_ccdc_geom_bond_type
Mg0 O7 2.141 . S
Mg0 O8 2.048 1_545 S
Mg0 O9 2.048 . S
Mg0 O12 2.141 . S
C1 O2 1.313 . S
C1 O8 1.195 1_455 S
O2 C1 1.313 . S
C3 O4 1.245 . S
C3 O12 1.289 1_455 S
O4 C3 1.245 . S
C5 O6 1.245 . S
C5 O7 1.289 1_455 S
O6 C5 1.245 . S
O7 Mg0 2.141 . S
O7 C5 1.289 1_655 S
O8 Mg0 2.048 1_565 S
O8 C1 1.195 1_655 S
O9 Mg0 2.048 . S
O9 C10 1.195 1_655 S
C10 O9 1.195 1_455 S
C10 O11 1.313 . S
O11 C10 1.313 . S
O12 Mg0 2.141 . S
O12 C3 1.289 1_655 S
Mg13 O20 2.141 . S
Mg13 O21 2.048 1_455 S
Mg13 O22 2.048 . S
Mg13 O25 2.141 . S
C14 O15 1.313 1_545 S
C14 O21 1.195 . S
O15 C14 1.313 1_565 S
C16 O17 1.245 1_545 S
C16 O25 1.289 . S
O17 C16 1.245 1_565 S
C18 O19 1.244 1_445 S
C18 O20 1.289 . S
O19 C18 1.244 1_665 S
O20 Mg13 2.141 . S
O20 C18 1.289 . S
O21 Mg13 2.048 1_655 S
O21 C14 1.195 . S
O22 Mg13 2.048 . S
O22 C23 1.195 . S
C23 O22 1.195 . S
C23 O24 1.313 1_445 S
O24 C23 1.313 1_665 S
O25 Mg13 2.141 . S
O25 C16 1.289 . S
Mg26 O33 2.141 . S
Mg26 O34 2.048 1_445 S
Mg26 O35 2.048 . S
Mg26 O38 2.141 . S
C27 O28 1.313 . S
C27 O34 1.195 . S
O28 C27 1.313 . S
C29 O30 1.245 . S
C29 O38 1.289 . S
O30 C29 1.245 . S
C31 O32 1.245 1_545 S
C31 O33 1.289 . S
O32 C31 1.245 1_565 S
O33 Mg26 2.141 . S
O33 C31 1.289 . S
O34 Mg26 2.048 1_665 S
O34 C27 1.195 . S
O35 Mg26 2.048 . S
O35 C36 1.195 . S
C36 O35 1.195 . S
C36 O37 1.313 1_545 S
O37 C36 1.313 1_565 S
O38 Mg26 2.141 . S
O38 C29 1.289 . S
Mg39 O46 2.141 . S
Mg39 O47 2.048 . S
Mg39 O48 2.048 . S
Mg39 O51 2.141 1_455 S
C40 O41 1.313 1_545 S
C40 O47 1.195 . S
O41 C40 1.313 1_565 S
C42 O43 1.245 1_545 S
C42 O51 1.289 . S
O43 C42 1.245 1_565 S
C44 O45 1.245 1_445 S
C44 O46 1.289 . S
O45 C44 1.245 1_665 S
O46 Mg39 2.141 . S
O46 C44 1.289 . S
O47 Mg39 2.048 . S
O47 C40 1.195 . S
O48 Mg39 2.048 . S
O48 C49 1.195 . S
C49 O48 1.195 . S
C49 O50 1.313 1_445 S
O50 C49 1.313 1_665 S
O51 Mg39 2.141 1_655 S
O51 C42 1.289 . S
Mg52 O59 2.141 . S
Mg52 O60 2.048 1_655 S
Mg52 O61 2.048 . S
Mg52 O64 2.141 1_545 S
C53 O54 1.313 . S
C53 O60 1.195 . S
O54 C53 1.313 . S
C55 O56 1.245 . S
C55 O64 1.289 . S
O56 C55 1.245 . S
C57 O58 1.245 1_545 S
C57 O59 1.289 1_455 S
O58 C57 1.245 1_565 S
O59 Mg52 2.141 . S
O59 C57 1.289 1_655 S
O60 Mg52 2.048 1_455 S
O60 C53 1.195 . S
O61 Mg52 2.048 . S
O61 C62 1.195 1_655 S
C62 O61 1.195 1_455 S
C62 O63 1.313 . S
O63 C62 1.313 . S
O64 Mg52 2.141 1_565 S
O64 C55 1.289 . S
Mg65 O72 2.141 . S
Mg65 O73 2.048 1_565 S
Mg65 O74 2.048 . S
Mg65 O77 2.141 . S
C66 O67 1.313 . S
C66 O73 1.195 1_455 S
O67 C66 1.313 . S
C68 O69 1.245 . S
C68 O77 1.289 1_455 S
O69 C68 1.245 . S
C70 O71 1.245 . S
C70 O72 1.289 1_445 S
O71 C70 1.245 . S
O72 Mg65 2.141 . S
O72 C70 1.289 1_665 S
O73 Mg65 2.048 1_545 S
O73 C66 1.195 1_655 S
O74 Mg65 2.048 . S
O74 C75 1.195 1_665 S
C75 O74 1.195 1_445 S
C75 O76 1.313 . S
O76 C75 1.313 . S
O77 Mg65 2.141 . S
O77 C68 1.289 1_655 S
C78 C79 1.349 . S
C78 C80 1.327 . S
C78 H103 0.950 . S
C79 C78 1.349 . S
C79 C95 1.349 1_455 S
C80 C78 1.327 . S
C80 C99 1.429 . S
C80 H104 0.950 . S
C81 C98 1.574 . S
C81 C100 1.368 1_655 S
C81 H105 0.949 . S
H82 C86 0.949 . S
C83 C84 1.349 1_655 S
C83 C85 1.327 . S
C83 H106 0.950 . S
C84 C83 1.349 1_455 S
C84 C96 1.349 . S
C85 C83 1.327 . S
C85 C101 1.429 1_655 S
C85 H107 0.950 . S
C86 H82 0.949 . S
C86 C94 1.574 . S
C86 C102 1.368 . S
H87 C95 0.950 . S
H88 C93 0.950 . S
H89 C94 0.949 . S
H90 C96 0.950 . S
H91 C97 0.950 . S
H92 C98 0.949 . S
C93 H88 0.950 . S
C93 C95 1.327 . S
C93 C99 1.429 1_655 S
C94 C86 1.574 . S
C94 H89 0.949 . S
C94 C100 1.368 . S
C95 C79 1.349 1_655 S
C95 H87 0.950 . S
C95 C93 1.327 . S
C96 C84 1.349 . S
C96 H90 0.950 . S
C96 C97 1.327 . S
C97 H91 0.950 . S
C97 C96 1.327 . S
C97 C101 1.429 . S
C98 C81 1.574 . S
C98 H92 0.949 . S
C98 C102 1.368 1_655 S
C99 C80 1.429 . S
C99 C93 1.429 1_455 S
C99 C100 1.523 . S
C100 C81 1.368 1_455 S
C100 C94 1.368 . S
C100 C99 1.523 . S
C101 C85 1.429 1_455 S
C101 C97 1.429 . S
C101 C102 1.523 . S
C102 C86 1.368 . S
C102 C98 1.368 1_455 S
C102 C101 1.523 . S
H103 C78 0.950 . S
H104 C80 0.950 . S
H105 C81 0.949 . S
H106 C83 0.950 . S
H107 C85 0.950 . S
C108 C109 1.349 . S
C108 C110 1.327 . S
C108 H133 0.950 . S
C109 C108 1.349 . S
C109 C125 1.349 1_545 S
C110 C108 1.327 . S
C110 C129 1.429 . S
C110 H134 0.950 . S
C111 C128 1.574 . S
C111 C130 1.368 1_565 S
C111 H135 0.949 . S
H112 C116 0.949 . S
C113 C114 1.349 1_565 S
C113 C115 1.327 . S
C113 H136 0.950 . S
C114 C113 1.349 1_545 S
C114 C126 1.349 . S
C115 C113 1.327 . S
C115 C131 1.429 1_565 S
C115 H137 0.950 . S
C116 H112 0.949 . S
C116 C124 1.574 . S
C116 C132 1.368 . S
H117 C125 0.950 . S
H118 C123 0.950 . S
H119 C124 0.949 . S
H120 C126 0.950 . S
H121 C127 0.950 . S
H122 C128 0.949 . S
C123 H118 0.950 . S
C123 C125 1.327 . S
C123 C129 1.429 1_565 S
C124 C116 1.574 . S
C124 H119 0.949 . S
C124 C130 1.368 . S
C125 C109 1.349 1_565 S
C125 H117 0.950 . S
C125 C123 1.327 . S
C126 C114 1.349 . S
C126 H120 0.950 . S
C126 C127 1.327 . S
C127 H121 0.950 . S
C127 C126 1.327 . S
C127 C131 1.429 . S
C128 C111 1.574 . S
C128 H122 0.949 . S
C128 C132 1.368 1_565 S
C129 C110 1.429 . S
C129 C123 1.429 1_545 S
C129 C130 1.523 . S
C130 C111 1.368 1_545 S
C130 C124 1.368 . S
C130 C129 1.523 . S
C131 C115 1.429 1_545 S
C131 C127 1.429 . S
C131 C132 1.523 . S
C132 C116 1.368 . S
C132 C128 1.368 1_545 S
C132 C131 1.523 . S
H133 C108 0.950 . S
H134 C110 0.950 . S
H135 C111 0.949 . S
H136 C113 0.950 . S
H137 C115 0.950 . S
C138 C139 1.349 . S
C138 C140 1.327 . S
C138 H163 0.950 . S
C139 C138 1.349 . S
C139 C155 1.349 . S
C140 C138 1.327 . S
C140 C159 1.429 . S
C140 H164 0.950 . S
C141 C158 1.574 . S
C141 C160 1.368 . S
C141 H165 0.949 . S
H142 C146 0.949 . S
C143 C144 1.349 . S
C143 C145 1.327 . S
C143 H166 0.950 . S
C144 C143 1.349 . S
C144 C156 1.349 . S
C145 C143 1.327 . S
C145 C161 1.429 . S
C145 H167 0.950 . S
C146 H142 0.949 . S
C146 C154 1.574 . S
C146 C162 1.368 . S
H147 C155 0.950 . S
H148 C153 0.950 . S
H149 C154 0.949 . S
H150 C156 0.950 . S
H151 C157 0.950 . S
H152 C158 0.949 . S
C153 H148 0.950 . S
C153 C155 1.327 . S
C153 C159 1.429 . S
C154 C146 1.574 . S
C154 H149 0.949 . S
C154 C160 1.368 . S
C155 C139 1.349 . S
C155 H147 0.950 . S
C155 C153 1.327 . S
C156 C144 1.349 . S
C156 H150 0.950 . S
C156 C157 1.327 . S
C157 H151 0.950 . S
C157 C156 1.327 . S
C157 C161 1.429 . S
C158 C141 1.574 . S
C158 H152 0.949 . S
C158 C162 1.368 . S
C159 C140 1.429 . S
C159 C153 1.429 . S
C159 C160 1.523 . S
C160 C141 1.368 . S
C160 C154 1.368 . S
C160 C159 1.523 . S
C161 C145 1.429 . S
C161 C157 1.429 . S
C161 C162 1.523 . S
C162 C146 1.368 . S
C162 C158 1.368 . S
C162 C161 1.523 . S
H163 C138 0.950 . S
H164 C140 0.950 . S
H165 C141 0.949 . S
H166 C143 0.950 . S
H167 C145 0.950 . S
C168 C169 1.349 . S
C168 C170 1.327 . S
C168 H193 0.950 . S
C169 C168 1.349 . S
C169 C185 1.349 1_545 S
C170 C168 1.327 . S
C170 C189 1.429 . S
C170 H194 0.950 . S
C171 C188 1.574 . S
C171 C190 1.368 1_565 S
C171 H195 0.949 . S
H172 C176 0.949 . S
C173 C174 1.349 1_565 S
C173 C175 1.327 . S
C173 H196 0.950 . S
C174 C173 1.349 1_545 S
C174 C186 1.349 . S
C175 C173 1.327 . S
C175 C191 1.429 1_565 S
C175 H197 0.950 . S
C176 H172 0.949 . S
C176 C184 1.574 . S
C176 C192 1.368 . S
H177 C185 0.950 . S
H178 C183 0.950 . S
H179 C184 0.949 . S
H180 C186 0.950 . S
H181 C187 0.950 . S
H182 C188 0.949 . S
C183 H178 0.950 . S
C183 C185 1.327 . S
C183 C189 1.429 1_565 S
C184 C176 1.574 . S
C184 H179 0.949 . S
C184 C190 1.368 . S
C185 C169 1.349 1_565 S
C185 H177 0.950 . S
C185 C183 1.327 . S
C186 C174 1.349 . S
C186 H180 0.950 . S
C186 C187 1.327 . S
C187 H181 0.950 . S
C187 C186 1.327 . S
C187 C191 1.429 . S
C188 C171 1.574 . S
C188 H182 0.949 . S
C188 C192 1.368 1_565 S
C189 C170 1.429 . S
C189 C183 1.429 1_545 S
C189 C190 1.523 . S
C190 C171 1.368 1_545 S
C190 C184 1.368 . S
C190 C189 1.523 . S
C191 C175 1.429 1_545 S
C191 C187 1.429 . S
C191 C192 1.523 . S
C192 C176 1.368 . S
C192 C188 1.368 1_545 S
C192 C191 1.523 . S
H193 C168 0.950 . S
H194 C170 0.950 . S
H195 C171 0.949 . S
H196 C173 0.950 . S
H197 C175 0.950 . S
C198 C199 1.349 . S
C198 C200 1.327 . S
C198 H223 0.950 . S
C199 C198 1.349 . S
C199 C215 1.349 . S
C200 C198 1.327 . S
C200 C219 1.429 . S
C200 H224 0.950 . S
C201 C218 1.574 . S
C201 C220 1.368 . S
C201 H225 0.949 . S
H202 C206 0.949 . S
C203 C204 1.349 . S
C203 C205 1.327 . S
C203 H226 0.950 . S
C204 C203 1.349 . S
C204 C216 1.349 . S
C205 C203 1.327 . S
C205 C221 1.429 . S
C205 H227 0.950 . S
C206 H202 0.949 . S
C206 C214 1.574 . S
C206 C222 1.368 . S
H207 C215 0.950 . S
H208 C213 0.950 . S
H209 C214 0.949 . S
H210 C216 0.950 . S
H211 C217 0.950 . S
H212 C218 0.949 . S
C213 H208 0.950 . S
C213 C215 1.327 . S
C213 C219 1.429 . S
C214 C206 1.574 . S
C214 H209 0.949 . S
C214 C220 1.368 . S
C215 C199 1.349 . S
C215 H207 0.950 . S
C215 C213 1.327 . S
C216 C204 1.349 . S
C216 H210 0.950 . S
C216 C217 1.327 . S
C217 H211 0.950 . S
C217 C216 1.327 . S
C217 C221 1.429 . S
C218 C201 1.574 . S
C218 H212 0.949 . S
C218 C222 1.368 . S
C219 C200 1.429 . S
C219 C213 1.429 . S
C219 C220 1.523 . S
C220 C201 1.368 . S
C220 C214 1.368 . S
C220 C219 1.523 . S
C221 C205 1.429 . S
C221 C217 1.429 . S
C221 C222 1.523 . S
C222 C206 1.368 . S
C222 C218 1.368 . S
C222 C221 1.523 . S
H223 C198 0.950 . S
H224 C200 0.950 . S
H225 C201 0.949 . S
H226 C203 0.950 . S
H227 C205 0.950 . S
C228 C229 1.349 1_655 S
C228 C230 1.327 . S
C228 H253 0.950 . S
C229 C228 1.349 1_455 S
C229 C245 1.349 . S
C230 C228 1.327 . S
C230 C249 1.429 1_655 S
C230 H254 0.950 . S
C231 C248 1.574 . S
C231 C250 1.368 . S
C231 H255 0.949 . S
H232 C236 0.949 . S
C233 C234 1.349 . S
C233 C235 1.327 . S
C233 H256 0.950 . S
C234 C233 1.349 . S
C234 C246 1.349 1_455 S
C235 C233 1.327 . S
C235 C251 1.429 . S
C235 H257 0.950 . S
C236 H232 0.949 . S
C236 C244 1.574 . S
C236 C252 1.368 1_655 S
H237 C245 0.950 . S
H238 C243 0.950 . S
H239 C244 0.949 . S
H240 C246 0.950 . S
H241 C247 0.950 . S
H242 C248 0.949 . S
C243 H238 0.950 . S
C243 C245 1.327 . S
C243 C249 1.429 . S
C244 C236 1.574 . S
C244 H239 0.949 . S
C244 C250 1.368 1_655 S
C245 C229 1.349 . S
C245 H237 0.950 . S
C245 C243 1.327 . S
C246 C234 1.349 1_655 S
C246 H240 0.950 . S
C246 C247 1.327 . S
C247 H241 0.950 . S
C247 C246 1.327 . S
C247 C251 1.429 1_655 S
C248 C231 1.574 . S
C248 H242 0.949 . S
C248 C252 1.368 . S
C249 C230 1.429 1_455 S
C249 C243 1.429 . S
C249 C250 1.523 . S
C250 C231 1.368 . S
C250 C244 1.368 1_455 S
C250 C249 1.523 . S
C251 C235 1.429 . S
C251 C247 1.429 1_455 S
C251 C252 1.523 . S
C252 C236 1.368 1_455 S
C252 C248 1.368 . S
C252 C251 1.523 . S
H253 C228 0.950 . S
H254 C230 0.950 . S
H255 C231 0.949 . S
H256 C233 0.950 . S
H257 C235 0.950 . S
C258 C259 1.349 . S
C258 C260 1.327 . S
C258 H283 0.950 . S
C259 C258 1.349 . S
C259 C275 1.349 1_445 S
C260 C258 1.327 . S
C260 C279 1.429 . S
C260 H284 0.950 . S
C261 C278 1.574 . S
C261 C280 1.368 1_665 S
C261 H285 0.949 . S
H262 C266 0.949 . S
C263 C264 1.349 1_665 S
C263 C265 1.327 . S
C263 H286 0.950 . S
C264 C263 1.349 1_445 S
C264 C276 1.349 . S
C265 C263 1.327 . S
C265 C281 1.429 1_665 S
C265 H287 0.950 . S
C266 H262 0.949 . S
C266 C274 1.574 . S
C266 C282 1.368 . S
H267 C275 0.950 . S
H268 C273 0.950 . S
H269 C274 0.949 . S
H270 C276 0.950 . S
H271 C277 0.950 . S
H272 C278 0.949 . S
C273 H268 0.950 . S
C273 C275 1.327 . S
C273 C279 1.429 1_665 S
C274 C266 1.574 . S
C274 H269 0.949 . S
C274 C280 1.368 . S
C275 C259 1.349 1_665 S
C275 H267 0.950 . S
C275 C273 1.327 . S
C276 C264 1.349 . S
C276 H270 0.950 . S
C276 C277 1.327 . S
C277 H271 0.950 . S
C277 C276 1.327 . S
C277 C281 1.429 . S
C278 C261 1.574 . S
C278 H272 0.949 . S
C278 C282 1.368 1_665 S
C279 C260 1.429 . S
C279 C273 1.429 1_445 S
C279 C280 1.523 . S
C280 C261 1.368 1_445 S
C280 C274 1.368 . S
C280 C279 1.523 . S
C281 C265 1.429 1_445 S
C281 C277 1.429 . S
C281 C282 1.523 . S
C282 C266 1.368 . S
C282 C278 1.368 1_445 S
C282 C281 1.523 . S
H283 C258 0.950 . S
H284 C260 0.950 . S
H285 C261 0.949 . S
H286 C263 0.950 . S
H287 C265 0.950 . S
C288 C289 1.349 1_665 S
C288 C290 1.327 . S
C288 H313 0.950 . S
C289 C288 1.349 1_445 S
C289 C305 1.349 . S
C290 C288 1.327 . S
C290 C309 1.429 1_665 S
C290 H314 0.950 . S
C291 C308 1.574 . S
C291 C310 1.368 . S
C291 H315 0.949 . S
H292 C296 0.949 . S
C293 C294 1.349 . S
C293 C295 1.327 . S
C293 H316 0.950 . S
C294 C293 1.349 . S
C294 C306 1.349 1_445 S
C295 C293 1.327 . S
C295 C311 1.429 . S
C295 H317 0.950 . S
C296 H292 0.949 . S
C296 C304 1.574 . S
C296 C312 1.368 1_665 S
H297 C305 0.950 . S
H298 C303 0.950 . S
H299 C304 0.949 . S
H300 C306 0.950 . S
H301 C307 0.950 . S
H302 C308 0.949 . S
C303 H298 0.950 . S
C303 C305 1.327 . S
C303 C309 1.429 . S
C304 C296 1.574 . S
C304 H299 0.949 . S
C304 C310 1.368 1_665 S
C305 C289 1.349 . S
C305 H297 0.950 . S
C305 C303 1.327 . S
C306 C294 1.349 1_665 S
C306 H300 0.950 . S
C306 C307 1.327 . S
C307 H301 0.950 . S
C307 C306 1.327 . S
C307 C311 1.429 1_665 S
C308 C291 1.574 . S
C308 H302 0.949 . S
C308 C312 1.368 . S
C309 C290 1.429 1_445 S
C309 C303 1.429 . S
C309 C310 1.523 . S
C310 C291 1.368 . S
C310 C304 1.368 1_445 S
C310 C309 1.523 . S
C311 C295 1.429 . S
C311 C307 1.429 1_445 S
C311 C312 1.523 . S
C312 C296 1.368 1_445 S
C312 C308 1.368 . S
C312 C311 1.523 . S
H313 C288 0.950 . S
H314 C290 0.950 . S
H315 C291 0.949 . S
H316 C293 0.950 . S
H317 C295 0.950 . S
C318 C319 1.349 1_565 S
C318 C320 1.327 . S
C318 H343 0.950 . S
C319 C318 1.349 1_545 S
C319 C335 1.349 . S
C320 C318 1.327 . S
C320 C339 1.429 1_565 S
C320 H344 0.950 . S
C321 C338 1.574 . S
C321 C340 1.368 . S
C321 H345 0.949 . S
H322 C326 0.949 . S
C323 C324 1.349 . S
C323 C325 1.327 . S
C323 H346 0.950 1_455 S
C324 C323 1.349 . S
C324 C336 1.349 1_545 S
C325 C323 1.327 . S
C325 C341 1.429 . S
C325 H347 0.950 . S
C326 H322 0.949 . S
C326 C334 1.574 . S
C326 C342 1.368 1_565 S
H327 C335 0.950 . S
H328 C333 0.950 . S
H329 C334 0.949 . S
H330 C336 0.950 . S
H331 C337 0.950 . S
H332 C338 0.949 . S
C333 H328 0.950 . S
C333 C335 1.327 . S
C333 C339 1.429 . S
C334 C326 1.574 . S
C334 H329 0.949 . S
C334 C340 1.368 1_565 S
C335 C319 1.349 . S
C335 H327 0.950 . S
C335 C333 1.327 . S
C336 C324 1.349 1_565 S
C336 H330 0.950 . S
C336 C337 1.327 . S
C337 H331 0.950 . S
C337 C336 1.327 . S
C337 C341 1.429 1_565 S
C338 C321 1.574 . S
C338 H332 0.949 . S
C338 C342 1.368 . S
C339 C320 1.429 1_545 S
C339 C333 1.429 . S
C339 C340 1.523 . S
C340 C321 1.368 . S
C340 C334 1.368 1_545 S
C340 C339 1.523 . S
C341 C325 1.429 . S
C341 C337 1.429 1_545 S
C341 C342 1.523 . S
C342 C326 1.368 1_545 S
C342 C338 1.368 . S
C342 C341 1.523 . S
H343 C318 0.950 . S
H344 C320 0.950 . S
H345 C321 0.949 . S
H346 C323 0.950 1_655 S
H347 C325 0.950 . S
C348 C349 1.349 1_665 S
C348 C350 1.327 . S
C348 H373 0.950 . S
C349 C348 1.349 1_445 S
C349 C365 1.349 . S
C350 C348 1.327 . S
C350 C369 1.429 1_665 S
C350 H374 0.950 . S
C351 C368 1.574 1_554 S
C351 C370 1.368 . S
C351 H375 0.949 . S
H352 C356 0.949 . S
C353 C354 1.349 . S
C353 C355 1.327 . S
C353 H376 0.950 . S
C354 C353 1.349 . S
C354 C366 1.349 1_445 S
C355 C353 1.327 . S
C355 C371 1.429 . S
C355 H377 0.950 . S
C356 H352 0.949 . S
C356 C364 1.574 1_556 S
C356 C372 1.368 1_665 S
H357 C365 0.950 . S
H358 C363 0.950 . S
H359 C364 0.949 . S
H360 C366 0.950 . S
H361 C367 0.950 . S
H362 C368 0.949 . S
C363 H358 0.950 . S
C363 C365 1.327 . S
C363 C369 1.429 . S
C364 C356 1.574 1_554 S
C364 H359 0.949 . S
C364 C370 1.368 1_665 S
C365 C349 1.349 . S
C365 H357 0.950 . S
C365 C363 1.327 . S
C366 C354 1.349 1_665 S
C366 H360 0.950 . S
C366 C367 1.327 . S
C367 H361 0.950 . S
C367 C366 1.327 . S
C367 C371 1.429 1_665 S
C368 C351 1.574 1_556 S
C368 H362 0.949 . S
C368 C372 1.368 . S
C369 C350 1.429 1_445 S
C369 C363 1.429 . S
C369 C370 1.523 . S
C370 C351 1.368 . S
C370 C364 1.368 1_445 S
C370 C369 1.523 . S
C371 C355 1.429 . S
C371 C367 1.429 1_445 S
C371 C372 1.523 . S
C372 C356 1.368 1_445 S
C372 C368 1.368 . S
C372 C371 1.523 . S
H373 C348 0.950 . S
H374 C350 0.950 . S
H375 C351 0.949 . S
H376 C353 0.950 . S
H377 C355 0.950 . S
C378 C379 1.349 . S
C378 C380 1.327 . S
C378 H403 0.950 . S
C379 C378 1.349 . S
C379 C395 1.349 1_545 S
C380 C378 1.327 . S
C380 C399 1.429 . S
C380 H404 0.950 . S
C381 C398 1.574 . S
C381 C400 1.368 1_565 S
C381 H405 0.949 . S
H382 C386 0.949 . S
C383 C384 1.349 1_565 S
C383 C385 1.327 . S
C383 H406 0.950 . S
C384 C383 1.349 1_545 S
C384 C396 1.349 . S
C385 C383 1.327 . S
C385 C401 1.429 1_565 S
C385 H407 0.950 . S
C386 H382 0.949 . S
C386 C394 1.574 . S
C386 C402 1.368 . S
H387 C395 0.950 . S
H388 C393 0.950 . S
H389 C394 0.949 . S
H390 C396 0.950 . S
H391 C397 0.950 . S
H392 C398 0.949 . S
C393 H388 0.950 . S
C393 C395 1.327 . S
C393 C399 1.429 1_565 S
C394 C386 1.574 . S
C394 H389 0.949 . S
C394 C400 1.368 . S
C395 C379 1.349 1_565 S
C395 H387 0.950 . S
C395 C393 1.327 . S
C396 C384 1.349 . S
C396 H390 0.950 . S
C396 C397 1.327 . S
C397 H391 0.950 . S
C397 C396 1.327 . S
C397 C401 1.429 . S
C398 C381 1.574 . S
C398 H392 0.949 . S
C398 C402 1.368 1_565 S
C399 C380 1.429 . S
C399 C393 1.429 1_545 S
C399 C400 1.523 . S
C400 C381 1.368 1_545 S
C400 C394 1.368 . S
C400 C399 1.523 . S
C401 C385 1.429 1_545 S
C401 C397 1.429 . S
C401 C402 1.523 . S
C402 C386 1.368 . S
C402 C398 1.368 1_545 S
C402 C401 1.523 . S
H403 C378 0.950 . S
H404 C380 0.950 . S
H405 C381 0.949 . S
H406 C383 0.950 . S
H407 C385 0.950 . S
C408 C409 1.349 . S
C408 C410 1.327 . S
C408 H433 0.950 . S
C409 C408 1.349 . S
C409 C425 1.349 1_545 S
C410 C408 1.327 . S
C410 C429 1.429 . S
C410 H434 0.950 . S
C411 C428 1.574 . S
C411 C430 1.368 1_565 S
C411 H435 0.949 . S
H412 C416 0.949 . S
C413 C414 1.349 1_565 S
C413 C415 1.327 . S
C413 H436 0.950 . S
C414 C413 1.349 1_545 S
C414 C426 1.349 . S
C415 C413 1.327 . S
C415 C431 1.429 1_565 S
C415 H437 0.950 . S
C416 H412 0.949 . S
C416 C424 1.574 . S
C416 C432 1.368 . S
H417 C425 0.950 . S
H418 C423 0.950 . S
H419 C424 0.949 . S
H420 C426 0.950 . S
H421 C427 0.950 . S
H422 C428 0.949 . S
C423 H418 0.950 . S
C423 C425 1.327 . S
C423 C429 1.429 1_565 S
C424 C416 1.574 . S
C424 H419 0.949 . S
C424 C430 1.368 . S
C425 C409 1.349 1_565 S
C425 H417 0.950 . S
C425 C423 1.327 . S
C426 C414 1.349 . S
C426 H420 0.950 . S
C426 C427 1.327 . S
C427 H421 0.950 . S
C427 C426 1.327 . S
C427 C431 1.429 . S
C428 C411 1.574 . S
C428 H422 0.949 . S
C428 C432 1.368 1_565 S
C429 C410 1.429 . S
C429 C423 1.429 1_545 S
C429 C430 1.523 . S
C430 C411 1.368 1_545 S
C430 C424 1.368 . S
C430 C429 1.523 . S
C431 C415 1.429 1_545 S
C431 C427 1.429 . S
C431 C432 1.523 . S
C432 C416 1.368 . S
C432 C428 1.368 1_545 S
C432 C431 1.523 . S
H433 C408 0.950 . S
H434 C410 0.950 . S
H435 C411 0.949 . S
H436 C413 0.950 . S
H437 C415 0.950 . S
C79 C1 1.493 . S
C84 C3 1.489 . S
C109 C16 1.489 . S
C114 C14 1.493 . S
C139 C27 1.493 . S
C144 C29 1.488 . S
C169 C40 1.493 . S
C174 C42 1.489 . S
C199 C53 1.493 . S
C204 C55 1.488 . S
C229 C66 1.493 . S
C234 C68 1.489 . S
C259 C70 1.489 . S
C264 C5 1.489 . S
C289 C44 1.491 . S
C294 C18 1.489 . S
C319 C31 1.491 . S
C324 C57 1.488 . S
C349 C10 1.494 . S
C354 C62 1.492 . S
C379 C75 1.493 . S
C384 C23 1.493 . S
C409 C49 1.494 . S
C414 C36 1.494 . S
