# Generated by pormake.
# Topology yfb, (5)-cn, num edge types: 1
# Building blocks:
#     Node 0, Type 0, BuildingBlock: XOMCOT_clean_sbu_0, # of connection points: 5
#     Node 1, Type 0, BuildingBlock: XOMCOT_clean_sbu_0, # of connection points: 5
#     Node 2, Type 0, BuildingBlock: XOMCOT_clean_sbu_0, # of connection points: 5
#     Node 3, Type 0, BuildingBlock: XOMCOT_clean_sbu_0, # of connection points: 5
#     Node 4, Type 0, BuildingBlock: XOMCOT_clean_sbu_0, # of connection points: 5
#     Node 5, Type 0, BuildingBlock: XOMCOT_clean_sbu_0, # of connection points: 5
#     Node 6, Type 0, BuildingBlock: XOMCOT_clean_sbu_0, # of connection points: 5
#     Node 7, Type 0, BuildingBlock: XOMCOT_clean_sbu_0, # of connection points: 5
#     Node 8, Type 0, BuildingBlock: XOMCOT_clean_sbu_0, # of connection points: 5
#     Node 9, Type 0, BuildingBlock: XOMCOT_clean_sbu_0, # of connection points: 5
#     Node 10, Type 0, BuildingBlock: XOMCOT_clean_sbu_0, # of connection points: 5
#     Node 11, Type 0, BuildingBlock: XOMCOT_clean_sbu_0, # of connection points: 5
#     Node 12, Type 0, BuildingBlock: XOMCOT_clean_sbu_0, # of connection points: 5
#     Node 13, Type 0, BuildingBlock: XOMCOT_clean_sbu_0, # of connection points: 5
#     Node 14, Type 0, BuildingBlock: XOMCOT_clean_sbu_0, # of connection points: 5
#     Node 15, Type 0, BuildingBlock: XOMCOT_clean_sbu_0, # of connection points: 5
#     Edge 16, Type (0, 0), BuildingBlock: KIFKEQ_clean_linker_1, # of connection points: 2
#     Edge 17, Type (0, 0), BuildingBlock: KIFKEQ_clean_linker_1, # of connection points: 2
#     Edge 18, Type (0, 0), BuildingBlock: KIFKEQ_clean_linker_1, # of connection points: 2
#     Edge 19, Type (0, 0), BuildingBlock: KIFKEQ_clean_linker_1, # of connection points: 2
#     Edge 20, Type (0, 0), BuildingBlock: KIFKEQ_clean_linker_1, # of connection points: 2
#     Edge 21, Type (0, 0), BuildingBlock: KIFKEQ_clean_linker_1, # of connection points: 2
#     Edge 22, Type (0, 0), BuildingBlock: KIFKEQ_clean_linker_1, # of connection points: 2
#     Edge 23, Type (0, 0), BuildingBlock: KIFKEQ_clean_linker_1, # of connection points: 2
#     Edge 24, Type (0, 0), BuildingBlock: KIFKEQ_clean_linker_1, # of connection points: 2
#     Edge 25, Type (0, 0), BuildingBlock: KIFKEQ_clean_linker_1, # of connection points: 2
#     Edge 26, Type (0, 0), BuildingBlock: KIFKEQ_clean_linker_1, # of connection points: 2
#     Edge 27, Type (0, 0), BuildingBlock: KIFKEQ_clean_linker_1, # of connection points: 2
#     Edge 28, Type (0, 0), BuildingBlock: KIFKEQ_clean_linker_1, # of connection points: 2
#     Edge 29, Type (0, 0), BuildingBlock: KIFKEQ_clean_linker_1, # of connection points: 2
#     Edge 30, Type (0, 0), BuildingBlock: KIFKEQ_clean_linker_1, # of connection points: 2
#     Edge 31, Type (0, 0), BuildingBlock: KIFKEQ_clean_linker_1, # of connection points: 2
#     Edge 32, Type (0, 0), BuildingBlock: KIFKEQ_clean_linker_1, # of connection points: 2
#     Edge 33, Type (0, 0), BuildingBlock: KIFKEQ_clean_linker_1, # of connection points: 2
#     Edge 34, Type (0, 0), BuildingBlock: KIFKEQ_clean_linker_1, # of connection points: 2
#     Edge 35, Type (0, 0), BuildingBlock: KIFKEQ_clean_linker_1, # of connection points: 2
#     Edge 36, Type (0, 0), BuildingBlock: KIFKEQ_clean_linker_1, # of connection points: 2
#     Edge 37, Type (0, 0), BuildingBlock: KIFKEQ_clean_linker_1, # of connection points: 2
#     Edge 38, Type (0, 0), BuildingBlock: KIFKEQ_clean_linker_1, # of connection points: 2
#     Edge 39, Type (0, 0), BuildingBlock: KIFKEQ_clean_linker_1, # of connection points: 2
#     Edge 40, Type (0, 0), BuildingBlock: KIFKEQ_clean_linker_1, # of connection points: 2
#     Edge 41, Type (0, 0), BuildingBlock: KIFKEQ_clean_linker_1, # of connection points: 2
#     Edge 42, Type (0, 0), BuildingBlock: KIFKEQ_clean_linker_1, # of connection points: 2
#     Edge 43, Type (0, 0), BuildingBlock: KIFKEQ_clean_linker_1, # of connection points: 2
#     Edge 44, Type (0, 0), BuildingBlock: KIFKEQ_clean_linker_1, # of connection points: 2
#     Edge 45, Type (0, 0), BuildingBlock: KIFKEQ_clean_linker_1, # of connection points: 2
#     Edge 46, Type (0, 0), BuildingBlock: KIFKEQ_clean_linker_1, # of connection points: 2
#     Edge 47, Type (0, 0), BuildingBlock: KIFKEQ_clean_linker_1, # of connection points: 2
#     Edge 48, Type (0, 0), BuildingBlock: KIFKEQ_clean_linker_1, # of connection points: 2
#     Edge 49, Type (0, 0), BuildingBlock: KIFKEQ_clean_linker_1, # of connection points: 2
#     Edge 50, Type (0, 0), BuildingBlock: KIFKEQ_clean_linker_1, # of connection points: 2
#     Edge 51, Type (0, 0), BuildingBlock: KIFKEQ_clean_linker_1, # of connection points: 2
#     Edge 52, Type (0, 0), BuildingBlock: KIFKEQ_clean_linker_1, # of connection points: 2
#     Edge 53, Type (0, 0), BuildingBlock: KIFKEQ_clean_linker_1, # of connection points: 2
#     Edge 54, Type (0, 0), BuildingBlock: KIFKEQ_clean_linker_1, # of connection points: 2
#     Edge 55, Type (0, 0), BuildingBlock: KIFKEQ_clean_linker_1, # of connection points: 2
# Relax obj value: 0.751
# Max RMSD: 0.295
# Mean RMSD: 0.295
data_MOF--net-yfb--node1-XOMCOT_clean_sbu_0--edge1-KIFKEQ_clean_linker_1
_symmetry_space_group_name_H-M    P1
_symmetry_Int_Tables_number       1
_symmetry_cell_setting            triclinic
loop_
_symmetry_equiv_pos_as_xyz
'x, y, z'
_cell_length_a     43.305697
_cell_length_b     43.322141
_cell_length_c     43.107031
_cell_angle_alpha  89.985939
_cell_angle_beta   90.012474
_cell_angle_gamma 90.018986
loop_
_atom_site_label
_atom_site_type_symbol
_atom_site_fract_x
_atom_site_fract_y
_atom_site_fract_z
_atom_type_partial_charge
Co0 Co 0.66177 0.06587 0.11166 0.0
C1 C 0.61671 0.02406 0.08296 0.0
C2 C 0.61008 0.02668 0.13194 0.0
C3 C 0.58388 0.01415 0.11863 0.0
N4 N 0.6309 0.03301 0.10954 0.0
N5 N 0.58785 0.01313 0.08761 0.0
H6 H 0.62562 0.02895 0.06023 0.0
H7 H 0.61202 0.03428 0.15576 0.0
C8 C 0.67747 0.03078 0.17051 0.0
O9 O 0.67177 0.0044 0.1566 0.0
N10 N 0.69138 0.09941 0.11299 0.0
C11 C 0.7144 0.10466 0.09254 0.0
C12 C 0.72941 0.13138 0.10065 0.0
C13 C 0.69211 0.12361 0.13275 0.0
N14 N 0.71541 0.14318 0.12583 0.0
C15 C 0.6935 0.03181 0.06457 0.0
C16 C 0.74833 0.02639 0.09666 0.0
C17 C 0.74872 0.02371 0.06426 0.0
C18 C 0.72041 0.02415 0.04854 0.0
C19 C 0.72112 0.03491 0.11167 0.0
N20 N 0.69425 0.03897 0.09543 0.0
H21 H 0.67329 0.03627 0.05091 0.0
H22 H 0.72331 0.0424 0.13533 0.0
H23 H 0.71939 0.09072 0.0724 0.0
H24 H 0.67548 0.12732 0.15111 0.0
O25 O 0.64627 0.08204 0.07304 0.0
O26 O 0.62861 0.09474 0.1196 0.0
O27 O 0.67291 0.0562 0.15617 0.0
C28 C 0.62661 0.09758 0.0896 0.0
H29 H 0.5624 0.00952 0.13059 0.0
H30 H 0.74805 0.14232 0.08801 0.0
H31 H 0.76956 0.0257 0.10992 0.0
H32 H 0.71938 0.02255 0.0235 0.0
Co33 Co 0.43488 0.66345 0.10866 0.0
C34 C 0.47419 0.61404 0.08425 0.0
C35 C 0.47296 0.61232 0.13364 0.0
C36 C 0.4844 0.58454 0.12255 0.0
N37 N 0.46656 0.63112 0.1095 0.0
N38 N 0.48457 0.58552 0.09126 0.0
H39 H 0.46854 0.62067 0.06095 0.0
H40 H 0.46631 0.6168 0.15739 0.0
C41 C 0.46884 0.68339 0.16616 0.0
O42 O 0.49515 0.67821 0.15189 0.0
N43 N 0.40236 0.69407 0.10665 0.0
C44 C 0.39697 0.71283 0.0823 0.0
C45 C 0.37094 0.72986 0.08816 0.0
C46 C 0.37894 0.69927 0.1267 0.0
N47 N 0.35953 0.72134 0.11598 0.0
C48 C 0.47783 0.68956 0.06465 0.0
C49 C 0.47299 0.74884 0.08754 0.0
C50 C 0.48357 0.74449 0.0571 0.0
C51 C 0.48863 0.71421 0.04694 0.0
C52 C 0.46339 0.72342 0.10496 0.0
N53 N 0.4637 0.69434 0.09253 0.0
H54 H 0.47788 0.66739 0.0539 0.0
H55 H 0.45152 0.72792 0.12651 0.0
H56 H 0.41065 0.7135 0.06132 0.0
H57 H 0.37581 0.68673 0.14819 0.0
O58 O 0.41976 0.64681 0.07009 0.0
O59 O 0.40449 0.63194 0.11694 0.0
O60 O 0.44338 0.67663 0.15281 0.0
C61 C 0.40272 0.62863 0.08697 0.0
H62 H 0.4891 0.56424 0.13639 0.0
H63 H 0.36028 0.74615 0.07241 0.0
H64 H 0.46848 0.77171 0.09658 0.0
H65 H 0.49761 0.70963 0.02395 0.0
Co66 Co 0.83701 0.43249 0.10956 0.0
C67 C 0.88664 0.46992 0.0821 0.0
C68 C 0.88937 0.47103 0.13149 0.0
C69 C 0.9167 0.48243 0.11932 0.0
N70 N 0.87016 0.46333 0.10806 0.0
N71 N 0.91507 0.48118 0.0881 0.0
H72 H 0.87937 0.46359 0.05906 0.0
H73 H 0.88544 0.46558 0.15564 0.0
C74 C 0.82088 0.46635 0.16818 0.0
O75 O 0.82489 0.49264 0.15351 0.0
N76 N 0.80557 0.40066 0.11003 0.0
C77 C 0.78421 0.39578 0.08777 0.0
C78 C 0.76714 0.37018 0.09549 0.0
C79 C 0.80204 0.37723 0.1304 0.0
N80 N 0.77839 0.35859 0.12216 0.0
C81 C 0.80994 0.4774 0.0686 0.0
C82 C 0.75118 0.47094 0.09252 0.0
C83 C 0.75476 0.48167 0.062 0.0
C84 C 0.78474 0.48793 0.05153 0.0
C85 C 0.77716 0.46173 0.10936 0.0
N86 N 0.80585 0.46227 0.09605 0.0
H87 H 0.83208 0.47841 0.05768 0.0
H88 H 0.77341 0.44966 0.13097 0.0
H89 H 0.78168 0.40951 0.06697 0.0
H90 H 0.81688 0.37343 0.15024 0.0
O91 O 0.84952 0.41745 0.06961 0.0
O92 O 0.86858 0.40123 0.11464 0.0
O93 O 0.82743 0.44092 0.15467 0.0
C94 C 0.86866 0.39965 0.08444 0.0
H95 H 0.93718 0.48824 0.13248 0.0
H96 H 0.74893 0.35985 0.08175 0.0
H97 H 0.7286 0.46583 0.10197 0.0
H98 H 0.78873 0.49747 0.02865 0.0
Co99 Co 0.06845 0.83941 0.10761 0.0
C100 C 0.02955 0.88922 0.08305 0.0
C101 C 0.02741 0.88876 0.13249 0.0
C102 C 0.01478 0.91621 0.1218 0.0
N103 N 0.03651 0.87149 0.10804 0.0
N104 N 0.01673 0.91649 0.09063 0.0
H105 H 0.03695 0.88421 0.0597 0.0
H106 H 0.03265 0.88358 0.15645 0.0
C107 C 0.03377 0.81838 0.16434 0.0
O108 O 0.00762 0.82296 0.14958 0.0
N109 N 0.10112 0.80893 0.10594 0.0
C110 C 0.10681 0.79024 0.08162 0.0
C111 C 0.13283 0.77326 0.08772 0.0
C112 C 0.12438 0.80377 0.12621 0.0
N113 N 0.14395 0.78177 0.11565 0.0
C114 C 0.02635 0.81393 0.06272 0.0
C115 C 0.03032 0.75435 0.08511 0.0
C116 C 0.0201 0.7591 0.0546 0.0
C117 C 0.01567 0.78954 0.04455 0.0
C118 C 0.04005 0.77946 0.10285 0.0
N119 N 0.04001 0.80867 0.09075 0.0
H120 H 0.02658 0.83639 0.0524 0.0
H121 H 0.05168 0.77464 0.12446 0.0
H122 H 0.09335 0.78957 0.06049 0.0
H123 H 0.12729 0.81629 0.14774 0.0
O124 O 0.08405 0.8562 0.06937 0.0
O125 O 0.09863 0.87109 0.11642 0.0
O126 O 0.05933 0.82588 0.15156 0.0
C127 C 0.10083 0.8744 0.08646 0.0
H128 H 0.00782 0.93566 0.13593 0.0
H129 H 0.14368 0.75703 0.07205 0.0
H130 H 0.03443 0.73134 0.09401 0.0
H131 H 0.00711 0.79441 0.02145 0.0
Co132 Co 0.6608 0.43274 0.4157 0.0
C133 C 0.61238 0.4742 0.43928 0.0
C134 C 0.61168 0.4732 0.3898 0.0
C135 C 0.58496 0.48736 0.40026 0.0
N136 N 0.62928 0.46519 0.41437 0.0
N137 N 0.58545 0.48779 0.43155 0.0
H138 H 0.61743 0.46728 0.46278 0.0
H139 H 0.61624 0.46651 0.36609 0.0
C140 C 0.68156 0.4658 0.35814 0.0
O141 O 0.67693 0.49212 0.37254 0.0
N142 N 0.69066 0.39954 0.4183 0.0
C143 C 0.70875 0.39388 0.4431 0.0
C144 C 0.72601 0.36796 0.43741 0.0
C145 C 0.69647 0.37638 0.39811 0.0
N146 N 0.71831 0.35691 0.40921 0.0
C147 C 0.68782 0.47714 0.45797 0.0
C148 C 0.74707 0.46895 0.43598 0.0
C149 C 0.74308 0.48191 0.46564 0.0
C150 C 0.71273 0.48859 0.47501 0.0
C151 C 0.72149 0.45919 0.41901 0.0
N152 N 0.6924 0.4611 0.43114 0.0
H153 H 0.66538 0.47888 0.46818 0.0
H154 H 0.7257 0.44613 0.39809 0.0
H155 H 0.70902 0.40749 0.46413 0.0
H156 H 0.68472 0.3736 0.37612 0.0
O157 O 0.64401 0.41881 0.45462 0.0
O158 O 0.62853 0.40287 0.4082 0.0
O159 O 0.67422 0.44039 0.37136 0.0
C160 C 0.62549 0.40166 0.43825 0.0
H161 H 0.56581 0.49476 0.38596 0.0
H162 H 0.74205 0.35725 0.45339 0.0
H163 H 0.76958 0.46306 0.42697 0.0
H164 H 0.70793 0.50011 0.49673 0.0
Co165 Co 0.06717 0.66286 0.41328 0.0
C166 C 0.02511 0.61552 0.43786 0.0
C167 C 0.03402 0.60842 0.38972 0.0
C168 C 0.02167 0.58163 0.40198 0.0
N169 N 0.03629 0.6299 0.41226 0.0
N170 N 0.01666 0.58593 0.43257 0.0
H171 H 0.02656 0.62508 0.46077 0.0
H172 H 0.04424 0.61057 0.36693 0.0
C173 C 0.03546 0.67631 0.35221 0.0
O174 O 0.00891 0.668 0.36437 0.0
N175 N 0.09869 0.69455 0.41523 0.0
C176 C 0.10184 0.71573 0.4379 0.0
C177 C 0.12799 0.73274 0.43245 0.0
C178 C 0.12347 0.69853 0.39657 0.0
N179 N 0.1417 0.72195 0.40654 0.0
C180 C 0.02858 0.69212 0.45823 0.0
C181 C 0.02111 0.74658 0.42617 0.0
C182 C 0.01798 0.74708 0.45863 0.0
C183 C 0.01925 0.71855 0.4741 0.0
C184 C 0.03194 0.71999 0.41145 0.0
N185 N 0.03706 0.69337 0.42775 0.0
H186 H 0.0335 0.67216 0.47208 0.0
H187 H 0.03987 0.72268 0.38799 0.0
H188 H 0.08688 0.718 0.4578 0.0
H189 H 0.1284 0.68415 0.37665 0.0
O190 O 0.08075 0.64781 0.45291 0.0
O191 O 0.09895 0.63167 0.40766 0.0
O192 O 0.06023 0.67411 0.36823 0.0
C193 C 0.09899 0.62942 0.4378 0.0
H194 H 0.01986 0.55976 0.39 0.0
H195 H 0.13714 0.7506 0.44742 0.0
H196 H 0.01871 0.76729 0.4124 0.0
H197 H 0.01701 0.71675 0.49899 0.0
Co198 Co 0.84234 0.06749 0.41417 0.0
C199 C 0.89092 0.02602 0.43752 0.0
C200 C 0.89095 0.0264 0.38803 0.0
C201 C 0.9176 0.01192 0.39834 0.0
N202 N 0.87381 0.03497 0.41273 0.0
N203 N 0.91749 0.01186 0.42964 0.0
H204 H 0.88651 0.03346 0.46094 0.0
H205 H 0.88609 0.03279 0.36428 0.0
C206 C 0.82023 0.03292 0.35792 0.0
O207 O 0.8256 0.0069 0.37262 0.0
N208 N 0.81245 0.10064 0.41689 0.0
C209 C 0.79459 0.10643 0.44182 0.0
C210 C 0.77738 0.13239 0.43621 0.0
C211 C 0.80656 0.1238 0.3967 0.0
N212 N 0.78489 0.14336 0.40794 0.0
C213 C 0.81661 0.02655 0.4601 0.0
C214 C 0.75692 0.031 0.43808 0.0
C215 C 0.76174 0.02134 0.46875 0.0
C216 C 0.79218 0.01668 0.47867 0.0
C217 C 0.78208 0.0399 0.41992 0.0
N218 N 0.81142 0.03958 0.43174 0.0
H219 H 0.83905 0.02687 0.47043 0.0
H220 H 0.77721 0.05125 0.39818 0.0
H221 H 0.79455 0.09299 0.46297 0.0
H222 H 0.81819 0.12656 0.37465 0.0
O223 O 0.86053 0.08229 0.45198 0.0
O224 O 0.87426 0.09735 0.40465 0.0
O225 O 0.82747 0.05864 0.37055 0.0
C226 C 0.87845 0.09899 0.43453 0.0
H227 H 0.93643 0.00401 0.3839 0.0
H228 H 0.76155 0.14322 0.45231 0.0
H229 H 0.73391 0.03532 0.42928 0.0
H230 H 0.79709 0.00858 0.50193 0.0
Co231 Co 0.43426 0.84038 0.41462 0.0
C232 C 0.47652 0.88822 0.43807 0.0
C233 C 0.46765 0.89369 0.38961 0.0
C234 C 0.47969 0.92094 0.40098 0.0
N235 N 0.46543 0.87296 0.41289 0.0
N236 N 0.4849 0.91754 0.43161 0.0
H237 H 0.47396 0.88017 0.46156 0.0
H238 H 0.45745 0.89075 0.3669 0.0
C239 C 0.46633 0.82523 0.35415 0.0
O240 O 0.49282 0.83368 0.36634 0.0
N241 N 0.40245 0.80906 0.41726 0.0
C242 C 0.39878 0.78879 0.44068 0.0
C243 C 0.37265 0.77168 0.43536 0.0
C244 C 0.37804 0.80445 0.39826 0.0
N245 N 0.35952 0.78151 0.40877 0.0
C246 C 0.47236 0.81208 0.46065 0.0
C247 C 0.48005 0.75691 0.42994 0.0
C248 C 0.48296 0.75707 0.46244 0.0
C249 C 0.48151 0.78598 0.47723 0.0
C250 C 0.46916 0.78308 0.41457 0.0
N251 N 0.46399 0.81007 0.43019 0.0
H252 H 0.46769 0.83257 0.47383 0.0
H253 H 0.46139 0.77985 0.39113 0.0
H254 H 0.4134 0.78719 0.46091 0.0
H255 H 0.37362 0.81802 0.37764 0.0
O256 O 0.42059 0.85677 0.45367 0.0
O257 O 0.40285 0.87169 0.40778 0.0
O258 O 0.44144 0.82781 0.36994 0.0
C259 C 0.40277 0.87496 0.43782 0.0
H260 H 0.48162 0.94243 0.38832 0.0
H261 H 0.36316 0.75442 0.45082 0.0
H262 H 0.48282 0.73607 0.41649 0.0
H263 H 0.48377 0.78846 0.50204 0.0
Co264 Co 0.34012 0.93389 0.91587 0.0
C265 C 0.38928 0.97461 0.93928 0.0
C266 C 0.38919 0.97435 0.88979 0.0
C267 C 0.41621 0.98814 0.90006 0.0
N268 N 0.37192 0.96609 0.91451 0.0
N269 N 0.41621 0.98808 0.93135 0.0
H270 H 0.38463 0.9673 0.96272 0.0
H271 H 0.3842 0.96806 0.86605 0.0
C272 C 0.31871 0.96758 0.85875 0.0
O273 O 0.32371 0.99389 0.87305 0.0
N274 N 0.30993 0.90096 0.91841 0.0
C275 C 0.29159 0.89546 0.94305 0.0
C276 C 0.27449 0.86941 0.93741 0.0
C277 C 0.30441 0.87759 0.89838 0.0
N278 N 0.28254 0.85811 0.90942 0.0
C279 C 0.3144 0.9764 0.96023 0.0
C280 C 0.25479 0.97156 0.93805 0.0
C281 C 0.25954 0.98227 0.96839 0.0
C282 C 0.28996 0.98713 0.97828 0.0
C283 C 0.27995 0.96182 0.9204 0.0
N284 N 0.30921 0.96231 0.9324 0.0
H285 H 0.33685 0.97643 0.97057 0.0
H286 H 0.27516 0.94981 0.89899 0.0
H287 H 0.29117 0.90913 0.96404 0.0
H288 H 0.31649 0.8746 0.87661 0.0
O289 O 0.35733 0.9193 0.9543 0.0
O290 O 0.37204 0.90384 0.90748 0.0
O291 O 0.32612 0.94215 0.87185 0.0
C292 C 0.37556 0.90232 0.93747 0.0
H293 H 0.43521 0.99556 0.88557 0.0
H294 H 0.25841 0.85872 0.95337 0.0
H295 H 0.23179 0.96709 0.92929 0.0
H296 H 0.29482 0.99605 1.00124 0.0
Co297 Co 0.56699 0.33568 0.91784 0.0
C298 C 0.52874 0.38503 0.94456 0.0
C299 C 0.52401 0.38484 0.89527 0.0
C300 C 0.51067 0.41156 0.90689 0.0
N301 N 0.53505 0.36777 0.91906 0.0
N302 N 0.51418 0.41163 0.93793 0.0
H303 H 0.53718 0.37995 0.96757 0.0
H304 H 0.52801 0.38 0.87101 0.0
C305 C 0.53203 0.31619 0.86058 0.0
O306 O 0.50592 0.31958 0.87572 0.0
N307 N 0.59972 0.3052 0.91777 0.0
C308 C 0.6054 0.28449 0.94045 0.0
C309 C 0.63162 0.26824 0.93308 0.0
C310 C 0.62327 0.3021 0.89745 0.0
N311 N 0.64276 0.27934 0.90616 0.0
C312 C 0.5243 0.30928 0.96145 0.0
C313 C 0.52905 0.25 0.93846 0.0
C314 C 0.51846 0.25435 0.96893 0.0
C315 C 0.51341 0.28464 0.97911 0.0
C316 C 0.53871 0.27543 0.92108 0.0
N317 N 0.53855 0.30442 0.93366 0.0
H318 H 0.52412 0.33164 0.972 0.0
H319 H 0.55044 0.27105 0.89942 0.0
H320 H 0.59188 0.28196 0.96139 0.0
H321 H 0.62659 0.31673 0.87737 0.0
O322 O 0.58291 0.3507 0.95667 0.0
O323 O 0.59713 0.36777 0.91026 0.0
O324 O 0.55754 0.32388 0.87339 0.0
C325 C 0.59951 0.36973 0.94033 0.0
H326 H 0.50183 0.43068 0.89337 0.0
H327 H 0.64268 0.2508 0.94723 0.0
H328 H 0.53347 0.22715 0.92936 0.0
H329 H 0.5043 0.28923 1.00204 0.0
Co330 Co 0.1626 0.56706 0.91688 0.0
C331 C 0.11407 0.52616 0.9413 0.0
C332 C 0.1142 0.52491 0.89182 0.0
C333 C 0.08772 0.51042 0.90252 0.0
N334 N 0.13115 0.5345 0.91628 0.0
N335 N 0.08769 0.51141 0.93381 0.0
H336 H 0.11853 0.53424 0.96452 0.0
H337 H 0.11908 0.53052 0.86788 0.0
C338 C 0.18433 0.53258 0.8603 0.0
O339 O 0.17973 0.50641 0.87501 0.0
N340 N 0.19252 0.60028 0.9188 0.0
C341 C 0.21093 0.60616 0.94331 0.0
C342 C 0.22784 0.63224 0.93734 0.0
C343 C 0.19777 0.62352 0.89853 0.0
N344 N 0.21959 0.64323 0.90928 0.0
C345 C 0.18884 0.52557 0.96201 0.0
C346 C 0.24828 0.53016 0.93932 0.0
C347 C 0.24378 0.51982 0.96982 0.0
C348 C 0.21343 0.51508 0.98001 0.0
C349 C 0.22297 0.53964 0.92172 0.0
N350 N 0.1938 0.53922 0.93391 0.0
H351 H 0.16647 0.52568 0.97252 0.0
H352 H 0.22761 0.55137 0.90013 0.0
H353 H 0.21153 0.5927 0.96445 0.0
H354 H 0.18555 0.62626 0.87679 0.0
O355 O 0.14521 0.58232 0.95498 0.0
O356 O 0.13046 0.59663 0.90779 0.0
O357 O 0.17663 0.5581 0.87302 0.0
C358 C 0.12691 0.59882 0.93772 0.0
H359 H 0.0691 0.50171 0.88826 0.0
H360 H 0.24394 0.64318 0.95312 0.0
H361 H 0.27119 0.53456 0.93031 0.0
H362 H 0.20876 0.50645 1.00312 0.0
Co363 Co 0.93624 0.16328 0.91258 0.0
C364 C 0.9782 0.11705 0.93936 0.0
C365 C 0.97201 0.10995 0.89077 0.0
C366 C 0.98451 0.08352 0.90356 0.0
N367 N 0.96795 0.1312 0.91324 0.0
N368 N 0.98786 0.08777 0.93441 0.0
H369 H 0.97524 0.12654 0.96215 0.0
H370 H 0.96295 0.11191 0.86748 0.0
C371 C 0.96963 0.17737 0.85241 0.0
O372 O 0.99618 0.17019 0.86528 0.0
N373 N 0.9038 0.19412 0.91251 0.0
C374 C 0.90069 0.21825 0.93208 0.0
C375 C 0.87401 0.23386 0.92493 0.0
C376 C 0.8784 0.19488 0.89429 0.0
N377 N 0.86009 0.21914 0.90129 0.0
C378 C 0.97253 0.19371 0.95866 0.0
C379 C 0.98143 0.24771 0.92613 0.0
C380 C 0.9837 0.24855 0.95865 0.0
C381 C 0.9816 0.22026 0.97446 0.0
C382 C 0.97085 0.22101 0.91142 0.0
N383 N 0.96512 0.1946 0.92789 0.0
H384 H 0.96715 0.17388 0.97255 0.0
H385 H 0.96355 0.22348 0.88774 0.0
H386 H 0.91605 0.2237 0.95102 0.0
H387 H 0.87303 0.1777 0.87689 0.0
O388 O 0.92137 0.14833 0.9518 0.0
O389 O 0.90559 0.13116 0.90599 0.0
O390 O 0.94457 0.17416 0.86774 0.0
C391 C 0.90434 0.12925 0.93612 0.0
H392 H 0.98764 0.06187 0.89147 0.0
H393 H 0.86462 0.25351 0.93725 0.0
H394 H 0.98432 0.26827 0.91222 0.0
H395 H 0.98307 0.2188 0.99943 0.0
Co396 Co 0.33978 0.56908 0.61307 0.0
C397 C 0.38695 0.52953 0.58425 0.0
C398 C 0.39327 0.53193 0.6333 0.0
C399 C 0.41967 0.51975 0.62007 0.0
N400 N 0.37245 0.53799 0.61082 0.0
N401 N 0.41586 0.51877 0.58902 0.0
H402 H 0.37807 0.5344 0.56149 0.0
H403 H 0.39104 0.53917 0.6572 0.0
C404 C 0.32666 0.53452 0.6726 0.0
O405 O 0.33228 0.50825 0.65847 0.0
N406 N 0.30832 0.60079 0.61419 0.0
C407 C 0.287 0.60559 0.59193 0.0
C408 C 0.26984 0.63102 0.59959 0.0
C409 C 0.30434 0.62393 0.63482 0.0
N410 N 0.28069 0.64266 0.62649 0.0
C411 C 0.309 0.53101 0.56855 0.0
C412 C 0.25408 0.52796 0.60076 0.0
C413 C 0.25363 0.52409 0.56848 0.0
C414 C 0.28196 0.52309 0.55284 0.0
C415 C 0.28139 0.53681 0.61537 0.0
N416 N 0.30824 0.54001 0.59891 0.0
H417 H 0.32934 0.53436 0.55478 0.0
H418 H 0.27934 0.5455 0.63866 0.0
H419 H 0.28469 0.59212 0.57097 0.0
H420 H 0.31883 0.62737 0.65499 0.0
O421 O 0.35251 0.58484 0.57342 0.0
O422 O 0.37159 0.60013 0.61867 0.0
O423 O 0.33071 0.56003 0.65822 0.0
C424 C 0.37169 0.60232 0.58852 0.0
H425 H 0.44106 0.51507 0.63216 0.0
H426 H 0.25182 0.64119 0.58549 0.0
H427 H 0.23283 0.52822 0.61401 0.0
H428 H 0.283 0.5203 0.5279 0.0
Co429 Co 0.93183 0.3425 0.61047 0.0
C430 C 0.97359 0.38997 0.58569 0.0
C431 C 0.96909 0.39407 0.63487 0.0
C432 C 0.98255 0.42068 0.62348 0.0
N433 N 0.96353 0.37455 0.61114 0.0
N434 N 0.98497 0.41823 0.59236 0.0
H435 H 0.96871 0.38277 0.5623 0.0
H436 H 0.96091 0.39075 0.65833 0.0
C437 C 0.96699 0.32466 0.66875 0.0
O438 O 0.99318 0.3329 0.65578 0.0
N439 N 0.89956 0.31154 0.60878 0.0
C440 C 0.89462 0.29177 0.58516 0.0
C441 C 0.86897 0.27436 0.5916 0.0
C442 C 0.87628 0.30638 0.62904 0.0
N443 N 0.85736 0.28353 0.6191 0.0
C444 C 0.96666 0.31499 0.5611 0.0
C445 C 0.97619 0.25935 0.59065 0.0
C446 C 0.97795 0.26036 0.55822 0.0
C447 C 0.97535 0.2892 0.5437 0.0
C448 C 0.96602 0.28516 0.6069 0.0
N449 N 0.96015 0.31246 0.59204 0.0
H450 H 0.9609 0.3356 0.54852 0.0
H451 H 0.95904 0.28129 0.63047 0.0
H452 H 0.90809 0.29063 0.56412 0.0
H453 H 0.87295 0.31942 0.65019 0.0
O454 O 0.91557 0.36073 0.57305 0.0
O455 O 0.9014 0.37344 0.62092 0.0
O456 O 0.94155 0.32835 0.65414 0.0
C457 C 0.89888 0.37788 0.59119 0.0
H458 H 0.98785 0.44111 0.63689 0.0
H459 H 0.8587 0.25731 0.5764 0.0
H460 H 0.97883 0.23779 0.6031 0.0
H461 H 0.97627 0.29134 0.5187 0.0
Co462 Co 0.16346 0.93111 0.61147 0.0
C463 C 0.11608 0.97024 0.58236 0.0
C464 C 0.10978 0.96816 0.63143 0.0
C465 C 0.08334 0.98017 0.6181 0.0
N466 N 0.13062 0.96202 0.609 0.0
N467 N 0.08715 0.98095 0.58705 0.0
H468 H 0.12495 0.96526 0.55962 0.0
H469 H 0.11203 0.9611 0.65537 0.0
C470 C 0.17621 0.96558 0.67113 0.0
O471 O 0.17067 0.99187 0.65699 0.0
N472 N 0.19509 0.89959 0.61283 0.0
C473 C 0.21666 0.89495 0.59081 0.0
C474 C 0.23386 0.86956 0.59861 0.0
C475 C 0.19897 0.87644 0.63348 0.0
N476 N 0.22278 0.85782 0.62538 0.0
C477 C 0.19402 0.9698 0.56738 0.0
C478 C 0.24871 0.9739 0.59989 0.0
C479 C 0.24918 0.9785 0.56769 0.0
C480 C 0.22086 0.97877 0.55193 0.0
C481 C 0.22162 0.9639 0.6142 0.0
N482 N 0.19489 0.96042 0.59761 0.0
H483 H 0.17381 0.96617 0.55349 0.0
H484 H 0.22377 0.95489 0.63736 0.0
H485 H 0.21915 0.90852 0.56992 0.0
H486 H 0.1843 0.87293 0.6535 0.0
O487 O 0.15118 0.91538 0.57167 0.0
O488 O 0.13174 0.89991 0.61672 0.0
O489 O 0.17216 0.9401 0.65671 0.0
C490 C 0.13188 0.89785 0.58656 0.0
H491 H 0.06193 0.98488 0.63014 0.0
H492 H 0.25206 0.85951 0.5847 0.0
H493 H 0.26983 0.97425 0.61333 0.0
H494 H 0.21974 0.98198 0.52706 0.0
Co495 Co 0.5683 0.16021 0.61091 0.0
C496 C 0.52838 0.11135 0.5855 0.0
C497 C 0.52677 0.11053 0.63494 0.0
C498 C 0.51254 0.08414 0.62361 0.0
N499 N 0.53636 0.12805 0.61089 0.0
N500 N 0.51372 0.08473 0.59233 0.0
H501 H 0.53653 0.1164 0.56244 0.0
H502 H 0.53208 0.11505 0.65902 0.0
C503 C 0.53359 0.18006 0.66811 0.0
O504 O 0.50747 0.17548 0.65329 0.0
N505 N 0.60091 0.19082 0.60951 0.0
C506 C 0.60652 0.20953 0.58517 0.0
C507 C 0.63223 0.22692 0.59138 0.0
C508 C 0.62394 0.19641 0.62995 0.0
N509 N 0.64326 0.2187 0.61944 0.0
C510 C 0.52616 0.18648 0.56644 0.0
C511 C 0.53072 0.24572 0.58958 0.0
C512 C 0.52065 0.24147 0.55894 0.0
C513 C 0.5158 0.21121 0.54857 0.0
C514 C 0.53998 0.22025 0.6071 0.0
N515 N 0.53979 0.19121 0.59459 0.0
H516 H 0.52625 0.16421 0.55575 0.0
H517 H 0.55151 0.22467 0.62886 0.0
H518 H 0.59316 0.21 0.56397 0.0
H519 H 0.62683 0.18408 0.65159 0.0
O520 O 0.58378 0.14402 0.57238 0.0
O521 O 0.59861 0.1285 0.61915 0.0
O522 O 0.55923 0.17312 0.65513 0.0
C523 C 0.60077 0.12571 0.58913 0.0
H524 H 0.50378 0.06523 0.63745 0.0
H525 H 0.64291 0.24331 0.57575 0.0
H526 H 0.53508 0.26856 0.59879 0.0
H527 H 0.5072 0.2067 0.52541 0.0
H528 H 0.70989 0.07927 0.19455 0.0
H529 H 0.68825 0.98351 0.21187 0.0
H530 H 0.74498 0.07945 0.23823 0.0
H531 H 0.72231 0.98404 0.25705 0.0
H532 H 0.8084 0.98487 0.31812 0.0
H533 H 0.77351 0.98431 0.27364 0.0
H534 H 0.75061 0.07992 0.29107 0.0
H535 H 0.78663 0.08075 0.33415 0.0
C536 C 0.71206 0.05834 0.20814 0.0
C537 C 0.69603 0.03137 0.19964 0.0
C538 C 0.73227 0.05846 0.23346 0.0
C539 C 0.73677 0.03177 0.25157 0.0
C540 C 0.72009 0.00494 0.24349 0.0
C541 C 0.70019 0.00469 0.21774 0.0
C542 C 0.79616 0.00584 0.31213 0.0
C543 C 0.80062 0.03291 0.32955 0.0
C544 C 0.77579 0.00547 0.28679 0.0
C545 C 0.75888 0.03204 0.27847 0.0
C546 C 0.7635 0.0591 0.29604 0.0
C547 C 0.78423 0.05959 0.32097 0.0
H548 H 0.41956 0.78876 0.33228 0.0
H549 H 0.51251 0.81797 0.31102 0.0
H550 H 0.4205 0.75358 0.28855 0.0
H551 H 0.51302 0.78371 0.26608 0.0
H552 H 0.51689 0.69767 0.20534 0.0
H553 H 0.5161 0.73206 0.25019 0.0
H554 H 0.41877 0.74859 0.23523 0.0
H555 H 0.41937 0.71324 0.19163 0.0
C556 C 0.44004 0.78817 0.31787 0.0
C557 C 0.46595 0.80638 0.32522 0.0
C558 C 0.44057 0.76792 0.29257 0.0
C559 C 0.46686 0.7655 0.27347 0.0
C560 C 0.49254 0.7843 0.28045 0.0
C561 C 0.49215 0.8043 0.30608 0.0
C562 C 0.49526 0.70837 0.21192 0.0
C563 C 0.46818 0.70241 0.19495 0.0
C564 C 0.49484 0.72845 0.23749 0.0
C565 C 0.46738 0.74347 0.24656 0.0
C566 C 0.44029 0.73721 0.22959 0.0
C567 C 0.44064 0.71686 0.20436 0.0
H568 H 0.71461 0.41748 0.33447 0.0
H569 H 0.69211 0.51293 0.31698 0.0
H570 H 0.74974 0.41762 0.29059 0.0
H571 H 0.726 0.51278 0.27181 0.0
H572 H 0.81001 0.51376 0.20906 0.0
H573 H 0.77672 0.51332 0.25471 0.0
H574 H 0.75536 0.41727 0.23768 0.0
H575 H 0.78985 0.41745 0.19338 0.0
C576 C 0.71664 0.43837 0.3208 0.0
C577 C 0.70037 0.46517 0.32923 0.0
C578 C 0.73685 0.43847 0.29542 0.0
C579 C 0.74106 0.46524 0.27728 0.0
C580 C 0.72412 0.49186 0.2854 0.0
C581 C 0.7043 0.49189 0.31116 0.0
C582 C 0.79853 0.49246 0.2154 0.0
C583 C 0.80289 0.46562 0.19764 0.0
C584 C 0.77904 0.49225 0.24144 0.0
C585 C 0.76288 0.4653 0.25013 0.0
C586 C 0.76764 0.43839 0.2324 0.0
C587 C 0.7875 0.43849 0.20676 0.0
H588 H 0.98946 0.68336 0.30878 0.0
H589 H 0.08238 0.71249 0.33028 0.0
H590 H 0.98914 0.71753 0.26374 0.0
H591 H 0.08163 0.74759 0.28651 0.0
H592 H 0.08315 0.78847 0.18994 0.0
H593 H 0.08357 0.75285 0.23333 0.0
H594 H 0.98611 0.76908 0.24775 0.0
H595 H 0.98552 0.80371 0.20307 0.0
C596 C 0.00986 0.69697 0.30386 0.0
C597 C 0.03599 0.69492 0.32312 0.0
C598 C 0.00958 0.71693 0.27818 0.0
C599 C 0.0353 0.73571 0.27127 0.0
C600 C 0.06153 0.73327 0.29046 0.0
C601 C 0.06195 0.71305 0.31579 0.0
C602 C 0.06182 0.78473 0.20252 0.0
C603 C 0.0343 0.79917 0.19301 0.0
C604 C 0.06206 0.76422 0.22762 0.0
C605 C 0.03487 0.75781 0.24439 0.0
C606 C 0.00744 0.7728 0.23521 0.0
C607 C 0.00712 0.79302 0.20974 0.0
H608 H 0.28596 0.91886 0.83555 0.0
H609 H 0.30611 0.0149 0.81825 0.0
H610 H 0.24986 0.91853 0.79254 0.0
H611 H 0.27113 0.0143 0.77385 0.0
H612 H 0.18594 0.01317 0.71228 0.0
H613 H 0.21991 0.01356 0.7575 0.0
H614 H 0.24381 0.91827 0.73974 0.0
H615 H 0.20879 0.91755 0.69599 0.0
C616 C 0.2832 0.9398 0.8221 0.0
C617 C 0.29916 0.96688 0.83032 0.0
C618 C 0.26241 0.93963 0.79722 0.0
C619 C 0.25728 0.96639 0.77933 0.0
C620 C 0.27379 0.99334 0.78726 0.0
C621 C 0.29422 0.99364 0.81256 0.0
C622 C 0.1981 0.99219 0.71841 0.0
C623 C 0.19434 0.9653 0.70054 0.0
C624 C 0.21797 0.99247 0.74417 0.0
C625 C 0.23504 0.96599 0.75252 0.0
C626 C 0.23083 0.93902 0.73474 0.0
C627 C 0.21064 0.93861 0.70939 0.0
H628 H 0.58094 0.28553 0.83506 0.0
H629 H 0.48439 0.30504 0.82 0.0
H630 H 0.58123 0.25167 0.79027 0.0
H631 H 0.48491 0.27246 0.77384 0.0
H632 H 0.486 0.18967 0.70907 0.0
H633 H 0.48577 0.22247 0.75506 0.0
H634 H 0.58099 0.24701 0.73745 0.0
H635 H 0.58152 0.21293 0.69281 0.0
C636 C 0.55987 0.28315 0.82172 0.0
C637 C 0.53266 0.2982 0.83112 0.0
C638 C 0.56002 0.26366 0.79579 0.0
C639 C 0.53309 0.259 0.778 0.0
C640 C 0.50602 0.27472 0.78709 0.0
C641 C 0.50575 0.2938 0.81343 0.0
C642 C 0.50697 0.20181 0.71533 0.0
C643 C 0.53383 0.19837 0.69737 0.0
C644 C 0.50679 0.22101 0.74158 0.0
C645 C 0.53333 0.23782 0.7503 0.0
C646 C 0.56021 0.23417 0.73221 0.0
C647 C 0.56052 0.21456 0.70637 0.0
H648 H 0.31724 0.48699 0.71393 0.0
H649 H 0.29362 0.58235 0.69715 0.0
H650 H 0.28331 0.48655 0.75917 0.0
H651 H 0.25862 0.58155 0.74089 0.0
H652 H 0.21668 0.58132 0.83665 0.0
H653 H 0.25271 0.58158 0.79363 0.0
H654 H 0.23221 0.48549 0.77579 0.0
H655 H 0.19731 0.48497 0.82026 0.0
C656 C 0.30491 0.5079 0.71995 0.0
C657 C 0.30846 0.53474 0.70196 0.0
C658 C 0.28507 0.50758 0.74573 0.0
C659 C 0.26781 0.53397 0.75395 0.0
C660 C 0.27176 0.56088 0.73601 0.0
C661 C 0.29194 0.56133 0.71066 0.0
C662 C 0.21959 0.56028 0.82339 0.0
C663 C 0.20386 0.53315 0.83186 0.0
C664 C 0.24033 0.56042 0.79849 0.0
C665 C 0.24565 0.53357 0.78081 0.0
C666 C 0.22939 0.50653 0.78901 0.0
C667 C 0.20901 0.50628 0.81435 0.0
H668 H 0.01698 0.18938 0.81144 0.0
H669 H 0.92092 0.20983 0.8288 0.0
H670 H 0.0165 0.22486 0.76736 0.0
H671 H 0.92078 0.24612 0.78613 0.0
H672 H 0.01474 0.3135 0.70945 0.0
H673 H 0.0155 0.27732 0.75296 0.0
H674 H 0.92095 0.25212 0.73302 0.0
H675 H 0.91982 0.28909 0.69093 0.0
C676 C 0.99573 0.2013 0.80579 0.0
C677 C 0.96897 0.19646 0.82363 0.0
C678 C 0.99552 0.222 0.78069 0.0
C679 C 0.96863 0.23869 0.77298 0.0
C680 C 0.94183 0.23345 0.79071 0.0
C681 C 0.94193 0.21253 0.81543 0.0
C682 C 0.99402 0.30049 0.71468 0.0
C683 C 0.96716 0.30452 0.69679 0.0
C684 C 0.99453 0.27941 0.73945 0.0
C685 C 0.9683 0.2615 0.74674 0.0
C686 C 0.94146 0.26575 0.72879 0.0
C687 C 0.94083 0.28705 0.70441 0.0
H688 H 0.41201 0.00252 0.99243 0.0
H689 H 0.47813 0.98801 0.9189 0.0
H690 H 0.45395 0.00751 0.02967 0.0
H691 H 0.52025 0.99365 0.95626 0.0
H692 H 0.58577 0.03771 0.02911 0.0
H693 H 0.54511 0.03212 0.99087 0.0
H694 H 0.49378 0.97448 0.05418 0.0
H695 H 0.53499 0.97953 0.09263 0.0
C696 C 0.43549 1.00035 0.98413 0.0
C697 C 0.44148 0.99449 0.95254 0.0
C698 C 0.45959 0.00316 1.00558 0.0
C699 C 0.49052 1.00058 0.99612 0.0
C700 C 0.49669 0.99585 0.96437 0.0
C701 C 0.47249 0.99276 0.94286 0.0
C702 C 0.56629 0.02322 0.03492 0.0
C703 C 0.56407 0.00878 0.0642 0.0
C704 C 0.54277 0.02017 1.01282 0.0
C705 C 0.5161 0.00288 0.01934 0.0
C706 C 0.51384 0.98831 0.04848 0.0
C707 C 0.53751 0.99116 0.07056 0.0
H708 H 0.46454 0.44933 0.94246 0.0
H709 H 0.55432 0.43146 0.98157 0.0
H710 H 0.45623 0.49022 0.98072 0.0
H711 H 0.54701 0.47294 0.01886 0.0
H712 H 0.51602 0.53169 0.10039 0.0
H713 H 0.52208 0.48905 0.06391 0.0
H714 H 0.4693 0.53957 0.99563 0.0
H715 H 0.46126 0.58044 0.03231 0.0
C716 C 0.48261 0.45448 0.95904 0.0
C717 C 0.50988 0.43705 0.9592 0.0
C718 C 0.47801 0.47799 0.98099 0.0
C719 C 0.50089 0.4851 1.00329 0.0
C720 C 0.52845 0.46788 1.00282 0.0
C721 C 0.53278 0.44413 0.98125 0.0
C722 C 0.50547 0.53356 0.07771 0.0
C723 C 0.48857 0.56009 0.06958 0.0
C724 C 0.50924 0.50917 0.05652 0.0
C725 C 0.49636 0.51065 0.02644 0.0
C726 C 0.47932 0.53709 0.0185 0.0
C727 C 0.47525 0.56117 0.03969 0.0
H728 H 0.09259 0.49964 0.99552 0.0
H729 H 0.02594 0.50689 0.92131 0.0
H730 H 0.05093 0.49293 0.03278 0.0
H731 H 0.9842 0.49943 0.95871 0.0
H732 H 0.92138 0.45309 0.03168 0.0
H733 H 0.96253 0.45987 0.99423 0.0
H734 H 0.00818 0.52346 0.05616 0.0
H735 H 0.96628 0.51724 0.0938 0.0
C736 C 0.06907 0.4999 0.98705 0.0
C737 C 0.06282 0.50421 0.95524 0.0
C738 C 0.04513 0.49606 1.00854 0.0
C739 C 0.01415 0.49597 0.99888 0.0
C740 C 0.00782 0.49924 0.96697 0.0
C741 C 0.03182 0.50339 0.94544 0.0
C742 C 0.93969 0.46908 0.03733 0.0
C743 C 0.93998 0.48507 0.06586 0.0
C744 C 0.96351 0.47282 0.01571 0.0
C745 C 0.98863 0.49233 0.02199 0.0
C746 C 0.98927 0.50804 0.05063 0.0
C747 C 0.96524 0.5045 0.07224 0.0
H748 H 0.01452 0.03133 0.92614 0.0
H749 H 0.97397 0.08966 0.99662 0.0
H750 H 0.02084 0.99057 0.96434 0.0
H751 H 0.98179 0.04966 0.0348 0.0
H752 H 0.97071 0.959 0.08976 0.0
H753 H 0.96384 0.00097 0.05215 0.0
H754 H 0.04969 0.97537 1.00796 0.0
H755 H 0.05582 0.93341 0.04481 0.0
C756 C 0.00706 0.0357 0.94968 0.0
C757 C 0.9936 0.06416 0.95777 0.0
C758 C 0.01101 0.0123 0.97182 0.0
C759 C 0.00184 0.01661 1.00291 0.0
C760 C 0.98875 0.04515 1.01111 0.0
C761 C 0.98466 0.06848 0.98898 0.0
C762 C 0.98804 0.96258 0.07202 0.0
C763 C 0.01346 0.94258 0.06994 0.0
C764 C 0.98425 0.98665 0.05047 0.0
C765 C 0.00603 0.99152 0.02656 0.0
C766 C 0.03193 0.97198 0.0253 0.0
C767 C 0.03552 0.94787 0.04656 0.0
H768 H 0.46883 0.48541 0.59477 0.0
H769 H 0.4176 0.54154 0.52976 0.0
H770 H 0.50959 0.47889 0.55612 0.0
H771 H 0.45784 0.53451 0.49137 0.0
H772 H 0.52337 0.48796 0.42006 0.0
H773 H 0.4819 0.49509 0.45782 0.0
H774 H 0.54944 0.51016 0.52989 0.0
H775 H 0.59077 0.50355 0.49221 0.0
C776 C 0.46613 0.49634 0.57236 0.0
C777 C 0.43955 0.51381 0.56566 0.0
C778 C 0.48956 0.49263 0.55015 0.0
C779 C 0.48704 0.50616 0.52054 0.0
C780 C 0.46039 0.52335 0.51371 0.0
C781 C 0.4371 0.52725 0.53591 0.0
C782 C 0.52943 0.49328 0.44381 0.0
C783 C 0.56059 0.4949 0.45298 0.0
C784 C 0.5056 0.49724 0.46555 0.0
C785 C 0.51228 0.5028 0.49706 0.0
C786 C 0.54339 0.50521 0.50602 0.0
C787 C 0.56714 0.50148 0.48432 0.0
H788 H 0.00348 0.41165 0.53245 0.0
H789 H 0.98006 0.48045 0.60099 0.0
H790 H 0.01006 0.45214 0.49369 0.0
H791 H 0.9868 0.52084 0.56234 0.0
H792 H 0.03307 0.58678 0.49388 0.0
H793 H 0.0259 0.54654 0.532 0.0
H794 H 0.98085 0.48974 0.46329 0.0
H795 H 0.98808 0.53041 0.42461 0.0
C796 C 0.99967 0.43537 0.53932 0.0
C797 C 0.99121 0.44257 0.57004 0.0
C798 C 0.00335 0.45864 0.51699 0.0
C799 C 0.99883 0.48986 0.52472 0.0
C800 C 0.99085 0.49712 0.55554 0.0
C801 C 0.98708 0.47385 0.57785 0.0
C802 C 0.02118 0.56609 0.48666 0.0
C803 C 0.01101 0.56224 0.45581 0.0
C804 C 0.01711 0.54279 0.50878 0.0
C805 C 0.00274 0.51478 0.50091 0.0
C806 C 0.9924 0.51084 0.47016 0.0
C807 C 0.99646 0.53424 0.44794 0.0
H808 H 0.97951 0.0104 0.41776 0.0
H809 H 0.91228 0.99672 0.49043 0.0
H810 H 0.02108 0.00309 0.45547 0.0
H811 H 0.95366 0.99 0.528 0.0
H812 H 0.03462 0.01499 0.59225 0.0
H813 H 0.99389 0.02135 0.55351 0.0
H814 H 0.04478 0.96385 0.48978 0.0
H815 H 0.085 0.95699 0.52833 0.0
C816 C 0.97351 0.00547 0.44161 0.0
C817 C 0.94237 0.00448 0.45096 0.0
C818 C 0.99739 0.00141 0.46332 0.0
C819 C 0.99077 0.9964 0.49494 0.0
C820 C 0.95967 0.99454 0.50405 0.0
C821 C 0.93589 0.99834 0.4824 0.0
C822 C 0.03712 0.00362 0.57004 0.0
C823 C 0.06346 0.9857 0.56364 0.0
C824 C 0.01373 0.00724 0.54778 0.0
C825 C 0.01603 0.99314 0.51842 0.0
C826 C 0.04243 0.97546 0.5119 0.0
C827 C 0.06569 0.97166 0.53418 0.0
H828 H 0.51687 0.91393 0.48544 0.0
H829 H 0.46164 0.97557 0.43 0.0
H830 H 0.52232 0.95392 0.5251 0.0
H831 H 0.46565 0.01505 0.46986 0.0
H832 H 0.50344 0.09116 0.53053 0.0
H833 H 0.49763 0.05091 0.49225 0.0
H834 H 0.49887 0.98218 0.56495 0.0
H835 H 0.50716 0.02276 0.60332 0.0
C836 C 0.5059 0.9361 0.48179 0.0
C837 C 0.48933 0.94175 0.45432 0.0
C838 C 0.50869 0.95899 0.50468 0.0
C839 C 0.49453 0.98808 0.50097 0.0
C840 C 0.47764 0.99344 0.4735 0.0
C841 C 0.47529 0.97073 0.45046 0.0
C842 C 0.50284 0.0675 0.53853 0.0
C843 C 0.50638 0.06046 0.57024 0.0
C844 C 0.49896 0.04421 0.5164 0.0
C845 C 0.49781 0.01293 0.52514 0.0
C846 C 0.50023 0.00585 0.55703 0.0
C847 C 0.50453 0.02926 0.57924 0.0
H848 H 0.53787 0.25753 0.02911 0.0
H849 H 0.50491 0.19253 0.96044 0.0
H850 H 0.55504 0.21558 0.06127 0.0
H851 H 0.52294 0.15002 0.99304 0.0
H852 H 0.61368 0.1015 0.02806 0.0
H853 H 0.57678 0.13536 1.00272 0.0
H854 H 0.54708 0.16939 0.09211 0.0
H855 H 0.58468 0.13573 0.11756 0.0
C856 C 0.53298 0.23429 0.0213 0.0
C857 C 0.5203 0.2286 0.99175 0.0
C858 C 0.54305 0.21005 0.03993 0.0
C859 C 0.54088 0.17947 0.02949 0.0
C860 C 0.52548 0.17346 1.00139 0.0
C861 C 0.51517 0.19781 0.98273 0.0
C862 C 0.59914 0.11604 0.04235 0.0
C863 C 0.60251 0.11651 0.07474 0.0
C864 C 0.57761 0.13511 0.02783 0.0
C865 C 0.55899 0.1551 0.0454 0.0
C866 C 0.5613 0.15442 0.07795 0.0
C867 C 0.58286 0.13524 0.0925 0.0
H868 H 0.241 0.54058 0.0295 0.0
H869 H 0.30528 0.50504 0.9615 0.0
H870 H 0.28338 0.5582 0.06096 0.0
H871 H 0.34821 0.52344 0.99335 0.0
H872 H 0.39836 0.61431 0.02568 0.0
H873 H 0.36374 0.57731 1.00144 0.0
H874 H 0.32957 0.5505 0.09171 0.0
H875 H 0.36388 0.58818 0.116 0.0
C876 C 0.26417 0.53523 0.02176 0.0
C877 C 0.26958 0.5217 0.99256 0.0
C878 C 0.28864 0.54555 0.03994 0.0
C879 C 0.31916 0.54275 0.02939 0.0
C880 C 0.32484 0.52648 1.00174 0.0
C881 C 0.30026 0.51594 0.98353 0.0
C882 C 0.38361 0.60038 0.04038 0.0
C883 C 0.3833 0.60459 0.07267 0.0
C884 C 0.36409 0.5788 0.02652 0.0
C885 C 0.34386 0.56097 0.04466 0.0
C886 C 0.3447 0.56412 0.07712 0.0
C887 C 0.36425 0.58574 0.091 0.0
H888 H 0.96023 0.30434 0.9375 0.0
H889 H 0.99902 0.26227 0.02006 0.0
H890 H 0.93979 0.34533 0.96834 0.0
H891 H 0.97442 0.30156 0.05136 0.0
H892 H 0.92627 0.3804 0.10211 0.0
H893 H 0.96311 0.35063 0.07104 0.0
H894 H 0.89528 0.34432 0.9975 0.0
H895 H 0.85986 0.37526 0.02768 0.0
C896 C 0.96505 0.30362 0.96207 0.0
C897 C 0.98021 0.27838 0.97608 0.0
C898 C 0.95247 0.32718 0.98002 0.0
C899 C 0.95364 0.32579 1.01254 0.0
C900 C 0.97223 0.30305 0.02639 0.0
C901 C 0.98592 0.27999 1.00828 0.0
C902 C 0.91948 0.3725 0.07926 0.0
C903 C 0.89032 0.37998 0.0672 0.0
C904 C 0.94054 0.35553 0.06142 0.0
C905 C 0.93253 0.3454 0.03143 0.0
C906 C 0.90294 0.35258 0.01992 0.0
C907 C 0.88232 0.36996 0.03741 0.0
H908 H 0.26276 0.96193 0.0282 0.0
H909 H 0.19807 0.99729 0.96049 0.0
H910 H 0.22056 0.94466 0.06014 0.0
H911 H 0.15533 0.97935 0.99283 0.0
H912 H 0.10533 0.8887 0.02527 0.0
H913 H 0.13995 0.92557 1.001 0.0
H914 H 0.17442 0.95225 0.0912 0.0
H915 H 0.13994 0.91469 0.11558 0.0
C916 C 0.23954 0.96732 0.02063 0.0
C917 C 0.23394 0.98067 0.99137 0.0
C918 C 0.21518 0.95722 0.03909 0.0
C919 C 0.18459 0.96008 0.02876 0.0
C920 C 0.17875 0.97625 1.00107 0.0
C921 C 0.20322 0.98654 0.98257 0.0
C922 C 0.12012 0.90257 0.03998 0.0
C923 C 0.1204 0.89839 0.07227 0.0
C924 C 0.13965 0.92409 0.02608 0.0
C925 C 0.15995 0.94188 0.04417 0.0
C926 C 0.1592 0.9387 0.07664 0.0
C927 C 0.13955 0.91715 0.09058 0.0
H928 H 0.58474 0.36202 0.41061 0.0
H929 H 0.61271 0.3977 0.49989 0.0
H930 H 0.54851 0.32707 0.43626 0.0
H931 H 0.57715 0.36252 0.52545 0.0
H932 H 0.50632 0.30305 0.56754 0.0
H933 H 0.52383 0.34602 0.53523 0.0
H934 H 0.558 0.28128 0.46725 0.0
H935 H 0.5413 0.23888 0.49917 0.0
C936 C 0.58296 0.36257 0.43567 0.0
C937 C 0.60192 0.38216 0.45329 0.0
C938 C 0.5622 0.34262 0.45034 0.0
C939 C 0.56001 0.34195 0.4829 0.0
C940 C 0.5779 0.36272 0.50034 0.0
C941 C 0.59862 0.38261 0.48569 0.0
C942 C 0.51696 0.29804 0.54538 0.0
C943 C 0.52268 0.26738 0.53631 0.0
C944 C 0.52698 0.32265 0.52689 0.0
C945 C 0.54271 0.31703 0.4989 0.0
C946 C 0.54571 0.2865 0.48849 0.0
C947 C 0.53591 0.26201 0.50695 0.0
H948 H 0.08692 0.60614 0.49455 0.0
H949 H 0.15196 0.60015 0.41892 0.0
H950 H 0.11865 0.57153 0.52529 0.0
H951 H 0.1849 0.56645 0.45047 0.0
H952 H 0.23497 0.49849 0.51265 0.0
H953 H 0.19351 0.51753 0.479 0.0
H954 H 0.16662 0.5823 0.55022 0.0
H955 H 0.20746 0.56409 0.58308 0.0
C956 C 0.10803 0.59726 0.48446 0.0
C957 C 0.11735 0.60623 0.45462 0.0
C958 C 0.12622 0.57744 0.50208 0.0
C959 C 0.15458 0.56667 0.49057 0.0
C960 C 0.16308 0.57419 0.45995 0.0
C961 C 0.14444 0.5937 0.44199 0.0
C962 C 0.21976 0.51636 0.52128 0.0
C963 C 0.22464 0.52956 0.55074 0.0
C964 C 0.19611 0.52731 0.50197 0.0
C965 C 0.1768 0.55145 0.51189 0.0
C966 C 0.18059 0.56325 0.54198 0.0
C967 C 0.20412 0.55253 0.56107 0.0
H968 H 0.91046 0.08657 0.48675 0.0
H969 H 0.90136 0.15399 0.41361 0.0
H970 H 0.94535 0.12085 0.51459 0.0
H971 H 0.9353 0.18919 0.4422 0.0
H972 H 0.00103 0.24648 0.49983 0.0
H973 H 0.98521 0.20333 0.46664 0.0
H974 H 0.93053 0.16658 0.54188 0.0
H975 H 0.94527 0.20902 0.57419 0.0
C976 C 0.91618 0.10872 0.47657 0.0
C977 C 0.90278 0.11808 0.4485 0.0
C978 C 0.93618 0.12831 0.49244 0.0
C979 C 0.94257 0.158 0.48094 0.0
C980 C 0.93097 0.16643 0.45162 0.0
C981 C 0.91135 0.14644 0.43537 0.0
C982 C 0.98607 0.22885 0.50938 0.0
C983 C 0.97464 0.2314 0.53987 0.0
C984 C 0.97704 0.20417 0.49037 0.0
C985 C 0.95667 0.18149 0.50163 0.0
C986 C 0.94681 0.18316 0.53258 0.0
C987 C 0.95553 0.20771 0.55133 0.0
H988 H 0.34829 0.90166 0.41974 0.0
H989 H 0.41801 0.9034 0.4913 0.0
H990 H 0.3161 0.93654 0.45074 0.0
H991 H 0.38663 0.93886 0.52165 0.0
H992 H 0.26597 0.00488 0.51154 0.0
H993 H 0.30757 0.98735 0.47737 0.0
H994 H 0.33975 0.92592 0.54934 0.0
H995 H 0.29848 0.94217 0.5826 0.0
C996 C 0.35696 0.91009 0.44174 0.0
C997 C 0.38507 0.89925 0.45364 0.0
C998 C 0.33874 0.93025 0.45935 0.0
C999 C 0.34867 0.94006 0.48887 0.0
C1000 C 0.37807 0.93118 0.49933 0.0
C1001 C 0.39595 0.91079 0.48203 0.0
C1002 C 0.28227 0.98803 0.52023 0.0
C1003 C 0.27851 0.97493 0.54993 0.0
C1004 C 0.30607 0.97802 0.50064 0.0
C1005 C 0.32683 0.95515 0.51059 0.0
C1006 C 0.3245 0.94394 0.54105 0.0
C1007 C 0.30069 0.95356 0.56037 0.0
H1008 H 0.46347 0.7413 0.99719 0.0
H1009 H 0.4976 0.80619 0.06535 0.0
H1010 H 0.44623 0.78332 0.96511 0.0
H1011 H 0.47965 0.84878 0.03282 0.0
H1012 H 0.38944 0.89846 0.9988 0.0
H1013 H 0.42616 0.86414 0.0237 0.0
H1014 H 0.45388 0.82919 0.93403 0.0
H1015 H 0.4164 0.86329 0.90902 0.0
C1016 C 0.4686 0.76453 1.00487 0.0
C1017 C 0.48165 0.7702 0.03426 0.0
C1018 C 0.4585 0.78881 0.9863 0.0
C1019 C 0.46104 0.8194 0.99663 0.0
C1020 C 0.4768 0.82534 0.02455 0.0
C1021 C 0.48709 0.80096 0.04317 0.0
C1022 C 0.40353 0.88365 0.98434 0.0
C1023 C 0.39963 0.88309 0.952 0.0
C1024 C 0.42495 0.86428 0.99861 0.0
C1025 C 0.44298 0.84391 0.98086 0.0
C1026 C 0.44013 0.84445 0.94834 0.0
C1027 C 0.41864 0.86388 0.93403 0.0
H1028 H 0.69233 0.49206 0.0708 0.0
H1029 H 0.75852 0.46226 1.00185 0.0
H1030 H 0.65054 0.47224 0.03828 0.0
H1031 H 0.71726 0.44326 0.9698 0.0
H1032 H 0.63774 0.41209 0.913 0.0
H1033 H 0.67097 0.44974 0.93895 0.0
H1034 H 0.63746 0.41825 0.02794 0.0
H1035 H 0.60403 0.3813 1.00211 0.0
C1036 C 0.69799 0.48209 0.04849 0.0
C1037 C 0.72896 0.47849 0.03933 0.0
C1038 C 0.67406 0.47072 0.02988 0.0
C1039 C 0.68064 0.45573 1.00169 0.0
C1040 C 0.71128 0.4549 0.9912 0.0
C1041 C 0.73511 0.46605 1.00976 0.0
C1042 C 0.63733 0.41346 0.93808 0.0
C1043 C 0.61874 0.3934 0.95556 0.0
C1044 C 0.65626 0.43505 0.95293 0.0
C1045 C 0.65688 0.43699 0.98552 0.0
C1046 C 0.63724 0.41775 1.00282 0.0
C1047 C 0.6184 0.3962 0.98801 0.0
H1048 H 0.04117 0.76185 0.99501 0.0
H1049 H 0.00427 0.69785 0.06256 0.0
H1050 H 0.05813 0.71933 0.96335 0.0
H1051 H 0.02194 0.6548 0.03053 0.0
H1052 H 0.11209 0.6034 0.99879 0.0
H1053 H 0.07558 0.6386 0.02276 0.0
H1054 H 0.04993 0.67324 0.93233 0.0
H1055 H 0.08714 0.63819 0.90826 0.0
C1056 C 0.03539 0.73874 1.0026 0.0
C1057 C 0.02168 0.73341 0.03174 0.0
C1058 C 0.04532 0.71419 0.98431 0.0
C1059 C 0.04192 0.68368 0.99469 0.0
C1060 C 0.02544 0.67815 0.02225 0.0
C1061 C 0.01532 0.7028 0.04058 0.0
C1062 C 0.09848 0.61832 0.98397 0.0
C1063 C 0.10288 0.61849 0.9517 0.0
C1064 C 0.07719 0.63821 0.99769 0.0
C1065 C 0.05982 0.65874 0.97945 0.0
C1066 C 0.06316 0.65784 0.947 0.0
C1067 C 0.08449 0.63785 0.93324 0.0
H1068 H 0.76651 0.999 1.00781 0.0
H1069 H 0.79638 0.0615 0.08011 0.0
H1070 H 0.80852 0.01759 0.97465 0.0
H1071 H 0.83775 0.07932 0.04768 0.0
H1072 H 0.91703 0.10388 0.99178 0.0
H1073 H 0.88513 0.0687 0.02184 0.0
H1074 H 0.81804 0.06678 0.94757 0.0
H1075 H 0.85108 0.10102 0.91677 0.0
C1076 C 0.78235 0.01608 0.01694 0.0
C1077 C 0.77793 0.02862 0.04674 0.0
C1078 C 0.80632 0.02677 0.99791 0.0
C1079 C 0.82643 0.05 1.00846 0.0
C1080 C 0.82315 0.06098 0.03893 0.0
C1081 C 0.79929 0.05051 0.05775 0.0
C1082 C 0.89566 0.09557 0.98171 0.0
C1083 C 0.88609 0.10559 0.9523 0.0
C1084 C 0.8774 0.07541 0.99891 0.0
C1085 C 0.84876 0.06539 0.98738 0.0
C1086 C 0.84006 0.07392 0.95706 0.0
C1087 C 0.85877 0.09372 0.93953 0.0
H1088 H 0.49611 0.74595 0.52518 0.0
H1089 H 0.46308 0.69911 0.44258 0.0
H1090 H 0.47249 0.70634 0.5567 0.0
H1091 H 0.44369 0.65821 0.47396 0.0
H1092 H 0.36342 0.62545 0.53113 0.0
H1093 H 0.39793 0.65795 0.5016 0.0
H1094 H 0.46372 0.65659 0.57719 0.0
H1095 H 0.42777 0.62497 0.60759 0.0
C1096 C 0.48438 0.72733 0.51339 0.0
C1097 C 0.47994 0.72768 0.4809 0.0
C1098 C 0.47132 0.70405 0.53173 0.0
C1099 C 0.45466 0.67985 0.51794 0.0
C1100 C 0.45482 0.67745 0.48548 0.0
C1101 C 0.46678 0.70112 0.46725 0.0
C1102 C 0.38525 0.63208 0.54147 0.0
C1103 C 0.39293 0.6228 0.57161 0.0
C1104 C 0.40535 0.65042 0.52436 0.0
C1105 C 0.43411 0.65945 0.53662 0.0
C1106 C 0.44179 0.65019 0.56699 0.0
C1107 C 0.42124 0.63214 0.58443 0.0
H1108 H 0.80634 0.48446 0.4546 0.0
H1109 H 0.7403 0.47987 0.52996 0.0
H1110 H 0.84577 0.46513 0.48869 0.0
H1111 H 0.78077 0.46546 0.56486 0.0
H1112 H 0.83791 0.38513 0.60203 0.0
H1113 H 0.80284 0.41995 0.5756 0.0
H1114 H 0.88038 0.46108 0.5271 0.0
H1115 H 0.91467 0.42375 0.55169 0.0
C1116 C 0.80011 0.48002 0.47848 0.0
C1117 C 0.76922 0.482 0.48851 0.0
C1118 C 0.82321 0.46948 0.49849 0.0
C1119 C 0.81637 0.46207 0.52956 0.0
C1120 C 0.7867 0.46904 0.54074 0.0
C1121 C 0.76333 0.47824 0.52049 0.0
C1122 C 0.84725 0.40189 0.58587 0.0
C1123 C 0.87862 0.4017 0.57841 0.0
C1124 C 0.82726 0.42226 0.57086 0.0
C1125 C 0.83845 0.44363 0.54878 0.0
C1126 C 0.8705 0.44455 0.54309 0.0
C1127 C 0.89028 0.42337 0.55732 0.0
H1128 H 0.04182 0.80316 0.4385 0.0
H1129 H 0.00218 0.76011 0.52016 0.0
H1130 H 0.06214 0.84363 0.47006 0.0
H1131 H 0.02663 0.79895 0.55218 0.0
H1132 H 0.07417 0.87824 0.60381 0.0
H1133 H 0.03775 0.84817 0.57238 0.0
H1134 H 0.10647 0.84177 0.49975 0.0
H1135 H 0.14148 0.87287 0.53024 0.0
C1136 C 0.03679 0.80207 0.46301 0.0
C1137 C 0.02145 0.77667 0.47652 0.0
C1138 C 0.0493 0.82536 0.48138 0.0
C1139 C 0.04784 0.82356 0.51387 0.0
C1140 C 0.02907 0.8007 0.52726 0.0
C1141 C 0.01547 0.7779 0.50871 0.0
C1142 C 0.08124 0.87023 0.5811 0.0
C1143 C 0.11052 0.8778 0.56934 0.0
C1144 C 0.06043 0.8531 0.56306 0.0
C1145 C 0.0688 0.84296 0.53317 0.0
C1146 C 0.09854 0.85008 0.52205 0.0
C1147 C 0.11892 0.86756 0.53973 0.0
H1148 H 0.6049 0.11208 0.52775 0.0
H1149 H 0.64178 0.08665 0.61732 0.0
H1150 H 0.64067 0.07689 0.50264 0.0
H1151 H 0.67744 0.05079 0.59208 0.0
H1152 H 0.76506 0.04342 0.52794 0.0
H1153 H 0.72286 0.06027 0.56017 0.0
H1154 H 0.65757 0.02352 0.49405 0.0
H1155 H 0.70028 0.00595 0.46146 0.0
C1156 C 0.62042 0.09866 0.54212 0.0
C1157 C 0.62094 0.10251 0.57446 0.0
C1158 C 0.64065 0.07813 0.52773 0.0
C1159 C 0.6619 0.061 0.54536 0.0
C1160 C 0.66147 0.06385 0.57787 0.0
C1161 C 0.64113 0.08439 0.5923 0.0
C1162 C 0.74186 0.03754 0.52069 0.0
C1163 C 0.7362 0.02355 0.49175 0.0
C1164 C 0.7175 0.04741 0.53931 0.0
C1165 C 0.68685 0.0437 0.52945 0.0
C1166 C 0.68103 0.02722 0.50194 0.0
C1167 C 0.70548 0.01716 0.4833 0.0
H1168 H 0.81508 0.30925 0.1295 0.0
H1169 H 0.72218 0.3419 0.14215 0.0
H1170 H 0.79814 0.2565 0.13909 0.0
H1171 H 0.70498 0.28956 0.15427 0.0
H1172 H 0.67877 0.19241 0.11917 0.0
H1173 H 0.69373 0.24602 0.12685 0.0
H1174 H 0.78011 0.21575 0.1674 0.0
H1175 H 0.7654 0.16218 0.1572 0.0
C1176 C 0.79121 0.30507 0.13568 0.0
C1177 C 0.76986 0.32932 0.13509 0.0
C1178 C 0.78133 0.27483 0.14131 0.0
C1179 C 0.7499 0.2683 0.14709 0.0
C1180 C 0.72913 0.29328 0.149 0.0
C1181 C 0.73893 0.32335 0.14252 0.0
C1182 C 0.70051 0.19747 0.13052 0.0
C1183 C 0.72093 0.17352 0.13778 0.0
C1184 C 0.70923 0.22822 0.13506 0.0
C1185 C 0.73848 0.23565 0.14748 0.0
C1186 C 0.75782 0.21123 0.15699 0.0
C1187 C 0.74931 0.18052 0.15168 0.0
H1188 H 0.16829 0.72474 0.11254 0.0
H1189 H 0.18578 0.81655 0.1469 0.0
H1190 H 0.22152 0.71035 0.12325 0.0
H1191 H 0.23926 0.80205 0.15842 0.0
H1192 H 0.33508 0.77832 0.11229 0.0
H1193 H 0.28185 0.79277 0.12288 0.0
H1194 H 0.26417 0.70132 0.1588 0.0
H1195 H 0.31763 0.68675 0.14737 0.0
C1196 C 0.18344 0.74161 0.12313 0.0
C1197 C 0.17306 0.77188 0.12842 0.0
C1198 C 0.21391 0.7333 0.12959 0.0
C1199 C 0.23485 0.75513 0.14141 0.0
C1200 C 0.22382 0.7848 0.14895 0.0
C1201 C 0.19315 0.79306 0.14262 0.0
C1202 C 0.31995 0.76151 0.12299 0.0
C1203 C 0.33034 0.73129 0.12853 0.0
C1204 C 0.28948 0.76986 0.12939 0.0
C1205 C 0.26855 0.74812 0.14141 0.0
C1206 C 0.2796 0.71851 0.14917 0.0
C1207 C 0.31026 0.71021 0.14289 0.0
H1208 H 0.68511 0.31453 0.37705 0.0
H1209 H 0.7759 0.33401 0.4131 0.0
H1210 H 0.70121 0.26155 0.36523 0.0
H1211 H 0.79191 0.28133 0.40199 0.0
H1212 H 0.81842 0.18616 0.37673 0.0
H1213 H 0.80246 0.23935 0.36563 0.0
H1214 H 0.71134 0.21895 0.40095 0.0
H1215 H 0.72726 0.16608 0.4114 0.0
C1216 C 0.70872 0.30772 0.38163 0.0
C1217 C 0.72915 0.32818 0.39637 0.0
C1218 C 0.71791 0.27735 0.37512 0.0
C1219 C 0.74777 0.26704 0.38297 0.0
C1220 C 0.76884 0.28841 0.39539 0.0
C1221 C 0.7596 0.31855 0.40207 0.0
C1222 C 0.79475 0.1929 0.38111 0.0
C1223 C 0.77416 0.1722 0.39526 0.0
C1224 C 0.78565 0.22338 0.37503 0.0
C1225 C 0.7557 0.23356 0.38272 0.0
C1226 C 0.73448 0.21198 0.39449 0.0
C1227 C 0.74365 0.18172 0.40076 0.0
H1228 H 0.33455 0.72465 0.41348 0.0
H1229 H 0.31692 0.81614 0.37817 0.0
H1230 H 0.2812 0.71034 0.40368 0.0
H1231 H 0.26346 0.80154 0.36715 0.0
H1232 H 0.16639 0.77903 0.40927 0.0
H1233 H 0.22003 0.79298 0.40063 0.0
H1234 H 0.23901 0.70023 0.36906 0.0
H1235 H 0.1852 0.68606 0.37892 0.0
C1236 C 0.31935 0.74154 0.40303 0.0
C1237 C 0.32982 0.77171 0.39718 0.0
C1238 C 0.28877 0.73323 0.39702 0.0
C1239 C 0.26779 0.75486 0.38492 0.0
C1240 C 0.27885 0.78443 0.37695 0.0
C1241 C 0.30957 0.79275 0.38297 0.0
C1242 C 0.18193 0.76172 0.40012 0.0
C1243 C 0.17168 0.7313 0.39536 0.0
C1244 C 0.21269 0.76981 0.39478 0.0
C1245 C 0.23408 0.74766 0.38447 0.0
C1246 C 0.22329 0.71775 0.3775 0.0
C1247 C 0.19238 0.70967 0.38284 0.0
H1248 H 0.22533 0.83421 0.91355 0.0
H1249 H 0.31638 0.81601 0.87754 0.0
H1250 H 0.21018 0.7812 0.90282 0.0
H1251 H 0.30112 0.76274 0.86602 0.0
H1252 H 0.27691 0.66691 0.91211 0.0
H1253 H 0.29186 0.72002 0.90153 0.0
H1254 H 0.20009 0.73888 0.86701 0.0
H1255 H 0.18508 0.68547 0.87834 0.0
C1256 C 0.24188 0.81896 0.90262 0.0
C1257 C 0.27216 0.82907 0.89684 0.0
C1258 C 0.23312 0.78861 0.89615 0.0
C1259 C 0.25451 0.76752 0.88383 0.0
C1260 C 0.28419 0.7783 0.87587 0.0
C1261 C 0.29289 0.80885 0.8822 0.0
C1262 C 0.26015 0.68227 0.90166 0.0
C1263 C 0.22973 0.67224 0.89648 0.0
C1264 C 0.26877 0.71268 0.89529 0.0
C1265 C 0.2471 0.7339 0.8837 0.0
C1266 C 0.21725 0.72321 0.87629 0.0
C1267 C 0.20868 0.69259 0.88251 0.0
H1268 H 0.81102 0.1817 0.90597 0.0
H1269 H 0.84012 0.27121 0.87426 0.0
H1270 H 0.75719 0.19644 0.89923 0.0
H1271 H 0.78642 0.28577 0.86485 0.0
H1272 H 0.6917 0.31698 0.90214 0.0
H1273 H 0.74494 0.30135 0.89315 0.0
H1274 H 0.71369 0.20863 0.87232 0.0
H1275 H 0.66078 0.22443 0.88394 0.0
C1276 C 0.80569 0.20416 0.8963 0.0
C1277 C 0.82939 0.22537 0.89058 0.0
C1278 C 0.7748 0.21274 0.89227 0.0
C1279 C 0.76699 0.24263 0.88178 0.0
C1280 C 0.79118 0.26294 0.87384 0.0
C1281 C 0.822 0.25456 0.87874 0.0
C1282 C 0.69641 0.29352 0.89486 0.0
C1283 C 0.67246 0.27186 0.8936 0.0
C1284 C 0.72694 0.28439 0.88958 0.0
C1285 C 0.73411 0.25343 0.88231 0.0
C1286 C 0.70949 0.23241 0.87874 0.0
C1287 C 0.67909 0.24143 0.88488 0.0
H1288 H 0.31654 0.68421 0.65709 0.0
H1289 H 0.22346 0.66701 0.62595 0.0
H1290 H 0.30253 0.73748 0.66946 0.0
H1291 H 0.20972 0.72018 0.6368 0.0
H1292 H 0.18698 0.81649 0.65639 0.0
H1293 H 0.20102 0.76339 0.66938 0.0
H1294 H 0.29375 0.7803 0.63632 0.0
H1295 H 0.28 0.83335 0.62489 0.0
C1296 C 0.29292 0.69159 0.65358 0.0
C1297 C 0.27127 0.67164 0.63992 0.0
C1298 C 0.28492 0.72221 0.66035 0.0
C1299 C 0.25512 0.73345 0.65358 0.0
C1300 C 0.23284 0.71255 0.64251 0.0
C1301 C 0.24081 0.68206 0.63587 0.0
C1302 C 0.21058 0.80908 0.6529 0.0
C1303 C 0.23221 0.82889 0.63897 0.0
C1304 C 0.2186 0.77855 0.66004 0.0
C1305 C 0.24839 0.76724 0.65335 0.0
C1306 C 0.27064 0.788 0.64197 0.0
C1307 C 0.26266 0.81841 0.63498 0.0
H1308 H 0.81475 0.31788 0.64978 0.0
H1309 H 0.8342 0.2259 0.617 0.0
H1310 H 0.76165 0.30236 0.66167 0.0
H1311 H 0.78132 0.21052 0.62791 0.0
H1312 H 0.68564 0.18506 0.65121 0.0
H1313 H 0.73876 0.20082 0.66284 0.0
H1314 H 0.71913 0.2919 0.62699 0.0
H1315 H 0.66628 0.27627 0.6163 0.0
C1316 C 0.8079 0.29416 0.64589 0.0
C1317 C 0.82843 0.27321 0.63202 0.0
C1318 C 0.77743 0.2853 0.65242 0.0
C1319 C 0.76701 0.25528 0.64536 0.0
C1320 C 0.78842 0.23374 0.63388 0.0
C1321 C 0.81871 0.24263 0.62728 0.0
C1322 C 0.69252 0.20869 0.64682 0.0
C1323 C 0.67203 0.22932 0.63243 0.0
C1324 C 0.72299 0.21768 0.65319 0.0
C1325 C 0.73343 0.24753 0.64545 0.0
C1326 C 0.71202 0.26882 0.63348 0.0
C1327 C 0.68175 0.2598 0.62703 0.0
loop_
_geom_bond_atom_site_label_1
_geom_bond_atom_site_label_2
_geom_bond_distance
_geom_bond_site_symmetry_2
_ccdc_geom_bond_type
Co0 N4 2.148 . S
Co0 N10 2.128 . S
Co0 N20 2.194 . S
Co0 O25 2.351 . S
Co0 O26 2.155 . S
Co0 O27 2.096 . S
C1 N4 1.301 . S
C1 N5 1.328 . S
C1 H6 0.930 . S
C2 C3 1.333 . S
C2 N4 1.317 . S
C2 H7 0.930 . S
C3 C2 1.333 . S
C3 N5 1.350 . S
C3 H29 0.931 1_545 S
N4 Co0 2.148 . S
N4 C1 1.301 . S
N4 C2 1.317 . S
N5 C1 1.328 . S
N5 C3 1.350 . S
H6 C1 0.930 . S
H7 C2 0.930 . S
C8 O9 1.224 . S
C8 O27 1.247 . S
O9 C8 1.224 . S
N10 Co0 2.128 . S
N10 C11 1.355 . S
N10 C13 1.311 . S
C11 N10 1.355 . S
C11 C12 1.363 . S
C11 H23 0.929 . S
C12 C11 1.363 . S
C12 N14 1.375 . S
C12 H30 0.931 . S
C13 N10 1.311 . S
C13 N14 1.347 . S
C13 H24 0.929 . S
N14 C12 1.375 . S
N14 C13 1.347 . S
C15 C18 1.365 . S
C15 N20 1.328 . S
C15 H21 0.929 . S
C16 C17 1.362 . S
C16 C19 1.378 . S
C16 H31 0.929 . S
C17 C16 1.362 . S
C17 C18 1.366 . S
C18 C15 1.365 . S
C18 C17 1.366 . S
C18 H32 0.930 . S
C19 C16 1.378 . S
C19 N20 1.315 . S
C19 H22 0.930 . S
N20 Co0 2.194 . S
N20 C15 1.328 . S
N20 C19 1.315 . S
H21 C15 0.929 . S
H22 C19 0.930 . S
H23 C11 0.929 . S
H24 C13 0.929 . S
O25 Co0 2.351 . S
O25 C28 1.244 . S
O26 Co0 2.155 . S
O26 C28 1.240 . S
O27 Co0 2.096 . S
O27 C8 1.247 . S
C28 O25 1.244 . S
C28 O26 1.240 . S
H29 C3 0.931 1_565 S
H30 C12 0.931 . S
H31 C16 0.929 . S
H32 C18 0.930 . S
Co33 N37 2.148 . S
Co33 N43 2.128 . S
Co33 N53 2.194 . S
Co33 O58 2.351 . S
Co33 O59 2.155 . S
Co33 O60 2.096 . S
C34 N37 1.301 . S
C34 N38 1.328 . S
C34 H39 0.930 . S
C35 C36 1.333 . S
C35 N37 1.317 . S
C35 H40 0.930 . S
C36 C35 1.333 . S
C36 N38 1.350 . S
C36 H62 0.931 . S
N37 Co33 2.148 . S
N37 C34 1.301 . S
N37 C35 1.317 . S
N38 C34 1.328 . S
N38 C36 1.350 . S
H39 C34 0.930 . S
H40 C35 0.930 . S
C41 O42 1.224 . S
C41 O60 1.247 . S
O42 C41 1.224 . S
N43 Co33 2.128 . S
N43 C44 1.355 . S
N43 C46 1.311 . S
C44 N43 1.355 . S
C44 C45 1.363 . S
C44 H56 0.929 . S
C45 C44 1.363 . S
C45 N47 1.375 . S
C45 H63 0.931 . S
C46 N43 1.311 . S
C46 N47 1.347 . S
C46 H57 0.929 . S
N47 C45 1.375 . S
N47 C46 1.347 . S
C48 C51 1.365 . S
C48 N53 1.328 . S
C48 H54 0.929 . S
C49 C50 1.362 . S
C49 C52 1.378 . S
C49 H64 0.929 . S
C50 C49 1.362 . S
C50 C51 1.366 . S
C51 C48 1.365 . S
C51 C50 1.366 . S
C51 H65 0.930 . S
C52 C49 1.378 . S
C52 N53 1.315 . S
C52 H55 0.930 . S
N53 Co33 2.194 . S
N53 C48 1.328 . S
N53 C52 1.315 . S
H54 C48 0.929 . S
H55 C52 0.930 . S
H56 C44 0.929 . S
H57 C46 0.929 . S
O58 Co33 2.351 . S
O58 C61 1.244 . S
O59 Co33 2.155 . S
O59 C61 1.240 . S
O60 Co33 2.096 . S
O60 C41 1.247 . S
C61 O58 1.244 . S
C61 O59 1.240 . S
H62 C36 0.931 . S
H63 C45 0.931 . S
H64 C49 0.929 . S
H65 C51 0.930 . S
Co66 N70 2.148 . S
Co66 N76 2.128 . S
Co66 N86 2.194 . S
Co66 O91 2.351 . S
Co66 O92 2.155 . S
Co66 O93 2.096 . S
C67 N70 1.301 . S
C67 N71 1.328 . S
C67 H72 0.930 . S
C68 C69 1.333 . S
C68 N70 1.317 . S
C68 H73 0.930 . S
C69 C68 1.333 . S
C69 N71 1.350 . S
C69 H95 0.931 . S
N70 Co66 2.148 . S
N70 C67 1.301 . S
N70 C68 1.317 . S
N71 C67 1.328 . S
N71 C69 1.350 . S
H72 C67 0.930 . S
H73 C68 0.930 . S
C74 O75 1.224 . S
C74 O93 1.247 . S
O75 C74 1.224 . S
N76 Co66 2.128 . S
N76 C77 1.355 . S
N76 C79 1.311 . S
C77 N76 1.355 . S
C77 C78 1.363 . S
C77 H89 0.929 . S
C78 C77 1.363 . S
C78 N80 1.375 . S
C78 H96 0.931 . S
C79 N76 1.311 . S
C79 N80 1.347 . S
C79 H90 0.929 . S
N80 C78 1.375 . S
N80 C79 1.347 . S
C81 C84 1.365 . S
C81 N86 1.328 . S
C81 H87 0.929 . S
C82 C83 1.362 . S
C82 C85 1.378 . S
C82 H97 0.929 . S
C83 C82 1.362 . S
C83 C84 1.366 . S
C84 C81 1.365 . S
C84 C83 1.366 . S
C84 H98 0.930 . S
C85 C82 1.378 . S
C85 N86 1.315 . S
C85 H88 0.930 . S
N86 Co66 2.194 . S
N86 C81 1.328 . S
N86 C85 1.315 . S
H87 C81 0.929 . S
H88 C85 0.930 . S
H89 C77 0.929 . S
H90 C79 0.929 . S
O91 Co66 2.351 . S
O91 C94 1.244 . S
O92 Co66 2.155 . S
O92 C94 1.240 . S
O93 Co66 2.096 . S
O93 C74 1.247 . S
C94 O91 1.244 . S
C94 O92 1.240 . S
H95 C69 0.931 . S
H96 C78 0.931 . S
H97 C82 0.929 . S
H98 C84 0.930 . S
Co99 N103 2.148 . S
Co99 N109 2.128 . S
Co99 N119 2.194 . S
Co99 O124 2.351 . S
Co99 O125 2.155 . S
Co99 O126 2.096 . S
C100 N103 1.301 . S
C100 N104 1.328 . S
C100 H105 0.930 . S
C101 C102 1.333 . S
C101 N103 1.317 . S
C101 H106 0.930 . S
C102 C101 1.333 . S
C102 N104 1.350 . S
C102 H128 0.931 1_455 S
N103 Co99 2.148 . S
N103 C100 1.301 . S
N103 C101 1.317 . S
N104 C100 1.328 . S
N104 C102 1.350 . S
H105 C100 0.930 . S
H106 C101 0.930 . S
C107 O108 1.224 . S
C107 O126 1.247 . S
O108 C107 1.224 . S
N109 Co99 2.128 . S
N109 C110 1.355 . S
N109 C112 1.311 . S
C110 N109 1.355 . S
C110 C111 1.363 . S
C110 H122 0.929 . S
C111 C110 1.363 . S
C111 N113 1.375 . S
C111 H129 0.931 . S
C112 N109 1.311 . S
C112 N113 1.347 . S
C112 H123 0.929 . S
N113 C111 1.375 . S
N113 C112 1.347 . S
C114 C117 1.365 . S
C114 N119 1.328 . S
C114 H120 0.929 . S
C115 C116 1.362 . S
C115 C118 1.378 . S
C115 H130 0.929 . S
C116 C115 1.362 . S
C116 C117 1.366 . S
C117 C114 1.365 . S
C117 C116 1.366 . S
C117 H131 0.930 . S
C118 C115 1.378 . S
C118 N119 1.315 . S
C118 H121 0.930 . S
N119 Co99 2.194 . S
N119 C114 1.328 . S
N119 C118 1.315 . S
H120 C114 0.929 . S
H121 C118 0.930 . S
H122 C110 0.929 . S
H123 C112 0.929 . S
O124 Co99 2.351 . S
O124 C127 1.244 . S
O125 Co99 2.155 . S
O125 C127 1.240 . S
O126 Co99 2.096 . S
O126 C107 1.247 . S
C127 O124 1.244 . S
C127 O125 1.240 . S
H128 C102 0.931 1_655 S
H129 C111 0.931 . S
H130 C115 0.929 . S
H131 C117 0.930 . S
Co132 N136 2.148 . S
Co132 N142 2.128 . S
Co132 N152 2.194 . S
Co132 O157 2.351 . S
Co132 O158 2.155 . S
Co132 O159 2.096 . S
C133 N136 1.301 . S
C133 N137 1.328 . S
C133 H138 0.930 . S
C134 C135 1.333 . S
C134 N136 1.317 . S
C134 H139 0.930 . S
C135 C134 1.333 . S
C135 N137 1.350 . S
C135 H161 0.931 . S
N136 Co132 2.148 . S
N136 C133 1.301 . S
N136 C134 1.317 . S
N137 C133 1.328 . S
N137 C135 1.350 . S
H138 C133 0.930 . S
H139 C134 0.930 . S
C140 O141 1.224 . S
C140 O159 1.247 . S
O141 C140 1.224 . S
N142 Co132 2.128 . S
N142 C143 1.355 . S
N142 C145 1.311 . S
C143 N142 1.355 . S
C143 C144 1.363 . S
C143 H155 0.929 . S
C144 C143 1.363 . S
C144 N146 1.375 . S
C144 H162 0.931 . S
C145 N142 1.311 . S
C145 N146 1.347 . S
C145 H156 0.929 . S
N146 C144 1.375 . S
N146 C145 1.347 . S
C147 C150 1.365 . S
C147 N152 1.328 . S
C147 H153 0.929 . S
C148 C149 1.362 . S
C148 C151 1.378 . S
C148 H163 0.929 . S
C149 C148 1.362 . S
C149 C150 1.366 . S
C150 C147 1.365 . S
C150 C149 1.366 . S
C150 H164 0.930 . S
C151 C148 1.378 . S
C151 N152 1.315 . S
C151 H154 0.930 . S
N152 Co132 2.194 . S
N152 C147 1.328 . S
N152 C151 1.315 . S
H153 C147 0.929 . S
H154 C151 0.930 . S
H155 C143 0.929 . S
H156 C145 0.929 . S
O157 Co132 2.351 . S
O157 C160 1.244 . S
O158 Co132 2.155 . S
O158 C160 1.240 . S
O159 Co132 2.096 . S
O159 C140 1.247 . S
C160 O157 1.244 . S
C160 O158 1.240 . S
H161 C135 0.931 . S
H162 C144 0.931 . S
H163 C148 0.929 . S
H164 C150 0.930 . S
Co165 N169 2.148 . S
Co165 N175 2.128 . S
Co165 N185 2.194 . S
Co165 O190 2.351 . S
Co165 O191 2.155 . S
Co165 O192 2.096 . S
C166 N169 1.301 . S
C166 N170 1.328 . S
C166 H171 0.930 . S
C167 C168 1.333 . S
C167 N169 1.317 . S
C167 H172 0.930 . S
C168 C167 1.333 . S
C168 N170 1.350 . S
C168 H194 0.931 1_455 S
N169 Co165 2.148 . S
N169 C166 1.301 . S
N169 C167 1.317 . S
N170 C166 1.328 . S
N170 C168 1.350 . S
H171 C166 0.930 . S
H172 C167 0.930 . S
C173 O174 1.224 . S
C173 O192 1.247 . S
O174 C173 1.224 . S
N175 Co165 2.128 . S
N175 C176 1.355 . S
N175 C178 1.311 . S
C176 N175 1.355 . S
C176 C177 1.363 . S
C176 H188 0.929 . S
C177 C176 1.363 . S
C177 N179 1.375 . S
C177 H195 0.931 . S
C178 N175 1.311 . S
C178 N179 1.347 . S
C178 H189 0.929 . S
N179 C177 1.375 . S
N179 C178 1.347 . S
C180 C183 1.365 . S
C180 N185 1.328 . S
C180 H186 0.929 . S
C181 C182 1.362 . S
C181 C184 1.378 . S
C181 H196 0.929 . S
C182 C181 1.362 . S
C182 C183 1.366 . S
C183 C180 1.365 . S
C183 C182 1.366 . S
C183 H197 0.930 . S
C184 C181 1.378 . S
C184 N185 1.315 . S
C184 H187 0.930 . S
N185 Co165 2.194 . S
N185 C180 1.328 . S
N185 C184 1.315 . S
H186 C180 0.929 . S
H187 C184 0.930 . S
H188 C176 0.929 . S
H189 C178 0.929 . S
O190 Co165 2.351 . S
O190 C193 1.244 . S
O191 Co165 2.155 . S
O191 C193 1.240 . S
O192 Co165 2.096 . S
O192 C173 1.247 . S
C193 O190 1.244 . S
C193 O191 1.240 . S
H194 C168 0.931 1_655 S
H195 C177 0.931 . S
H196 C181 0.929 . S
H197 C183 0.930 . S
Co198 N202 2.148 . S
Co198 N208 2.128 . S
Co198 N218 2.194 . S
Co198 O223 2.351 . S
Co198 O224 2.155 . S
Co198 O225 2.096 . S
C199 N202 1.301 . S
C199 N203 1.328 . S
C199 H204 0.930 . S
C200 C201 1.333 . S
C200 N202 1.317 . S
C200 H205 0.930 . S
C201 C200 1.333 . S
C201 N203 1.350 . S
C201 H227 0.931 1_545 S
N202 Co198 2.148 . S
N202 C199 1.301 . S
N202 C200 1.317 . S
N203 C199 1.328 . S
N203 C201 1.350 . S
H204 C199 0.930 . S
H205 C200 0.930 . S
C206 O207 1.224 . S
C206 O225 1.247 . S
O207 C206 1.224 . S
N208 Co198 2.128 . S
N208 C209 1.355 . S
N208 C211 1.311 . S
C209 N208 1.355 . S
C209 C210 1.363 . S
C209 H221 0.929 . S
C210 C209 1.363 . S
C210 N212 1.375 . S
C210 H228 0.931 . S
C211 N208 1.311 . S
C211 N212 1.347 . S
C211 H222 0.929 . S
N212 C210 1.375 . S
N212 C211 1.347 . S
C213 C216 1.365 . S
C213 N218 1.328 . S
C213 H219 0.929 . S
C214 C215 1.362 . S
C214 C217 1.378 . S
C214 H229 0.929 . S
C215 C214 1.362 . S
C215 C216 1.366 . S
C216 C213 1.365 . S
C216 C215 1.366 . S
C216 H230 0.930 . S
C217 C214 1.378 . S
C217 N218 1.315 . S
C217 H220 0.930 . S
N218 Co198 2.194 . S
N218 C213 1.328 . S
N218 C217 1.315 . S
H219 C213 0.929 . S
H220 C217 0.930 . S
H221 C209 0.929 . S
H222 C211 0.929 . S
O223 Co198 2.351 . S
O223 C226 1.244 . S
O224 Co198 2.155 . S
O224 C226 1.240 . S
O225 Co198 2.096 . S
O225 C206 1.247 . S
C226 O223 1.244 . S
C226 O224 1.240 . S
H227 C201 0.931 1_565 S
H228 C210 0.931 . S
H229 C214 0.929 . S
H230 C216 0.930 . S
Co231 N235 2.148 . S
Co231 N241 2.128 . S
Co231 N251 2.194 . S
Co231 O256 2.351 . S
Co231 O257 2.155 . S
Co231 O258 2.096 . S
C232 N235 1.301 . S
C232 N236 1.328 . S
C232 H237 0.930 . S
C233 C234 1.333 . S
C233 N235 1.317 . S
C233 H238 0.930 . S
C234 C233 1.333 . S
C234 N236 1.350 . S
C234 H260 0.931 . S
N235 Co231 2.148 . S
N235 C232 1.301 . S
N235 C233 1.317 . S
N236 C232 1.328 . S
N236 C234 1.350 . S
H237 C232 0.930 . S
H238 C233 0.930 . S
C239 O240 1.224 . S
C239 O258 1.247 . S
O240 C239 1.224 . S
N241 Co231 2.128 . S
N241 C242 1.355 . S
N241 C244 1.311 . S
C242 N241 1.355 . S
C242 C243 1.363 . S
C242 H254 0.929 . S
C243 C242 1.363 . S
C243 N245 1.375 . S
C243 H261 0.931 . S
C244 N241 1.311 . S
C244 N245 1.347 . S
C244 H255 0.929 . S
N245 C243 1.375 . S
N245 C244 1.347 . S
C246 C249 1.365 . S
C246 N251 1.328 . S
C246 H252 0.929 . S
C247 C248 1.362 . S
C247 C250 1.378 . S
C247 H262 0.929 . S
C248 C247 1.362 . S
C248 C249 1.366 . S
C249 C246 1.365 . S
C249 C248 1.366 . S
C249 H263 0.930 . S
C250 C247 1.378 . S
C250 N251 1.315 . S
C250 H253 0.930 . S
N251 Co231 2.194 . S
N251 C246 1.328 . S
N251 C250 1.315 . S
H252 C246 0.929 . S
H253 C250 0.930 . S
H254 C242 0.929 . S
H255 C244 0.929 . S
O256 Co231 2.351 . S
O256 C259 1.244 . S
O257 Co231 2.155 . S
O257 C259 1.240 . S
O258 Co231 2.096 . S
O258 C239 1.247 . S
C259 O256 1.244 . S
C259 O257 1.240 . S
H260 C234 0.931 . S
H261 C243 0.931 . S
H262 C247 0.929 . S
H263 C249 0.930 . S
Co264 N268 2.148 . S
Co264 N274 2.128 . S
Co264 N284 2.194 . S
Co264 O289 2.351 . S
Co264 O290 2.155 . S
Co264 O291 2.096 . S
C265 N268 1.301 . S
C265 N269 1.328 . S
C265 H270 0.930 . S
C266 C267 1.333 . S
C266 N268 1.317 . S
C266 H271 0.930 . S
C267 C266 1.333 . S
C267 N269 1.350 . S
C267 H293 0.931 1_565 S
N268 Co264 2.148 . S
N268 C265 1.301 . S
N268 C266 1.317 . S
N269 C265 1.328 . S
N269 C267 1.350 . S
H270 C265 0.930 . S
H271 C266 0.930 . S
C272 O273 1.224 . S
C272 O291 1.247 . S
O273 C272 1.224 . S
N274 Co264 2.128 . S
N274 C275 1.355 . S
N274 C277 1.311 . S
C275 N274 1.355 . S
C275 C276 1.363 . S
C275 H287 0.929 . S
C276 C275 1.363 . S
C276 N278 1.375 . S
C276 H294 0.931 . S
C277 N274 1.311 . S
C277 N278 1.347 . S
C277 H288 0.929 . S
N278 C276 1.375 . S
N278 C277 1.347 . S
C279 C282 1.365 . S
C279 N284 1.328 . S
C279 H285 0.929 . S
C280 C281 1.362 . S
C280 C283 1.378 . S
C280 H295 0.929 . S
C281 C280 1.362 . S
C281 C282 1.366 . S
C282 C279 1.365 . S
C282 C281 1.366 . S
C282 H296 0.930 . S
C283 C280 1.378 . S
C283 N284 1.315 . S
C283 H286 0.930 . S
N284 Co264 2.194 . S
N284 C279 1.328 . S
N284 C283 1.315 . S
H285 C279 0.929 . S
H286 C283 0.930 . S
H287 C275 0.929 . S
H288 C277 0.929 . S
O289 Co264 2.351 . S
O289 C292 1.244 . S
O290 Co264 2.155 . S
O290 C292 1.240 . S
O291 Co264 2.096 . S
O291 C272 1.247 . S
C292 O289 1.244 . S
C292 O290 1.240 . S
H293 C267 0.931 1_545 S
H294 C276 0.931 . S
H295 C280 0.929 . S
H296 C282 0.930 . S
Co297 N301 2.148 . S
Co297 N307 2.128 . S
Co297 N317 2.194 . S
Co297 O322 2.351 . S
Co297 O323 2.155 . S
Co297 O324 2.096 . S
C298 N301 1.301 . S
C298 N302 1.328 . S
C298 H303 0.930 . S
C299 C300 1.333 . S
C299 N301 1.317 . S
C299 H304 0.930 . S
C300 C299 1.333 . S
C300 N302 1.350 . S
C300 H326 0.931 . S
N301 Co297 2.148 . S
N301 C298 1.301 . S
N301 C299 1.317 . S
N302 C298 1.328 . S
N302 C300 1.350 . S
H303 C298 0.930 . S
H304 C299 0.930 . S
C305 O306 1.224 . S
C305 O324 1.247 . S
O306 C305 1.224 . S
N307 Co297 2.128 . S
N307 C308 1.355 . S
N307 C310 1.311 . S
C308 N307 1.355 . S
C308 C309 1.363 . S
C308 H320 0.929 . S
C309 C308 1.363 . S
C309 N311 1.375 . S
C309 H327 0.931 . S
C310 N307 1.311 . S
C310 N311 1.347 . S
C310 H321 0.929 . S
N311 C309 1.375 . S
N311 C310 1.347 . S
C312 C315 1.365 . S
C312 N317 1.328 . S
C312 H318 0.929 . S
C313 C314 1.362 . S
C313 C316 1.378 . S
C313 H328 0.929 . S
C314 C313 1.362 . S
C314 C315 1.366 . S
C315 C312 1.365 . S
C315 C314 1.366 . S
C315 H329 0.930 . S
C316 C313 1.378 . S
C316 N317 1.315 . S
C316 H319 0.930 . S
N317 Co297 2.194 . S
N317 C312 1.328 . S
N317 C316 1.315 . S
H318 C312 0.929 . S
H319 C316 0.930 . S
H320 C308 0.929 . S
H321 C310 0.929 . S
O322 Co297 2.351 . S
O322 C325 1.244 . S
O323 Co297 2.155 . S
O323 C325 1.240 . S
O324 Co297 2.096 . S
O324 C305 1.247 . S
C325 O322 1.244 . S
C325 O323 1.240 . S
H326 C300 0.931 . S
H327 C309 0.931 . S
H328 C313 0.929 . S
H329 C315 0.930 . S
Co330 N334 2.148 . S
Co330 N340 2.128 . S
Co330 N350 2.194 . S
Co330 O355 2.351 . S
Co330 O356 2.155 . S
Co330 O357 2.096 . S
C331 N334 1.301 . S
C331 N335 1.328 . S
C331 H336 0.930 . S
C332 C333 1.333 . S
C332 N334 1.317 . S
C332 H337 0.930 . S
C333 C332 1.333 . S
C333 N335 1.350 . S
C333 H359 0.931 . S
N334 Co330 2.148 . S
N334 C331 1.301 . S
N334 C332 1.317 . S
N335 C331 1.328 . S
N335 C333 1.350 . S
H336 C331 0.930 . S
H337 C332 0.930 . S
C338 O339 1.224 . S
C338 O357 1.247 . S
O339 C338 1.224 . S
N340 Co330 2.128 . S
N340 C341 1.355 . S
N340 C343 1.311 . S
C341 N340 1.355 . S
C341 C342 1.363 . S
C341 H353 0.929 . S
C342 C341 1.363 . S
C342 N344 1.375 . S
C342 H360 0.931 . S
C343 N340 1.311 . S
C343 N344 1.347 . S
C343 H354 0.929 . S
N344 C342 1.375 . S
N344 C343 1.347 . S
C345 C348 1.365 . S
C345 N350 1.328 . S
C345 H351 0.929 . S
C346 C347 1.362 . S
C346 C349 1.378 . S
C346 H361 0.929 . S
C347 C346 1.362 . S
C347 C348 1.366 . S
C348 C345 1.365 . S
C348 C347 1.366 . S
C348 H362 0.930 . S
C349 C346 1.378 . S
C349 N350 1.315 . S
C349 H352 0.930 . S
N350 Co330 2.194 . S
N350 C345 1.328 . S
N350 C349 1.315 . S
H351 C345 0.929 . S
H352 C349 0.930 . S
H353 C341 0.929 . S
H354 C343 0.929 . S
O355 Co330 2.351 . S
O355 C358 1.244 . S
O356 Co330 2.155 . S
O356 C358 1.240 . S
O357 Co330 2.096 . S
O357 C338 1.247 . S
C358 O355 1.244 . S
C358 O356 1.240 . S
H359 C333 0.931 . S
H360 C342 0.931 . S
H361 C346 0.929 . S
H362 C348 0.930 . S
Co363 N367 2.148 . S
Co363 N373 2.128 . S
Co363 N383 2.194 . S
Co363 O388 2.351 . S
Co363 O389 2.155 . S
Co363 O390 2.096 . S
C364 N367 1.301 . S
C364 N368 1.328 . S
C364 H369 0.930 . S
C365 C366 1.333 . S
C365 N367 1.317 . S
C365 H370 0.930 . S
C366 C365 1.333 . S
C366 N368 1.350 . S
C366 H392 0.931 1_655 S
N367 Co363 2.148 . S
N367 C364 1.301 . S
N367 C365 1.317 . S
N368 C364 1.328 . S
N368 C366 1.350 . S
H369 C364 0.930 . S
H370 C365 0.930 . S
C371 O372 1.224 . S
C371 O390 1.247 . S
O372 C371 1.224 . S
N373 Co363 2.128 . S
N373 C374 1.355 . S
N373 C376 1.311 . S
C374 N373 1.355 . S
C374 C375 1.363 . S
C374 H386 0.929 . S
C375 C374 1.363 . S
C375 N377 1.375 . S
C375 H393 0.931 . S
C376 N373 1.311 . S
C376 N377 1.347 . S
C376 H387 0.929 . S
N377 C375 1.375 . S
N377 C376 1.347 . S
C378 C381 1.365 . S
C378 N383 1.328 . S
C378 H384 0.929 . S
C379 C380 1.362 . S
C379 C382 1.378 . S
C379 H394 0.929 . S
C380 C379 1.362 . S
C380 C381 1.366 . S
C381 C378 1.365 . S
C381 C380 1.366 . S
C381 H395 0.930 . S
C382 C379 1.378 . S
C382 N383 1.315 . S
C382 H385 0.930 . S
N383 Co363 2.194 . S
N383 C378 1.328 . S
N383 C382 1.315 . S
H384 C378 0.929 . S
H385 C382 0.930 . S
H386 C374 0.929 . S
H387 C376 0.929 . S
O388 Co363 2.351 . S
O388 C391 1.244 . S
O389 Co363 2.155 . S
O389 C391 1.240 . S
O390 Co363 2.096 . S
O390 C371 1.247 . S
C391 O388 1.244 . S
C391 O389 1.240 . S
H392 C366 0.931 1_455 S
H393 C375 0.931 . S
H394 C379 0.929 . S
H395 C381 0.930 . S
Co396 N400 2.148 . S
Co396 N406 2.128 . S
Co396 N416 2.194 . S
Co396 O421 2.351 . S
Co396 O422 2.155 . S
Co396 O423 2.096 . S
C397 N400 1.301 . S
C397 N401 1.328 . S
C397 H402 0.930 . S
C398 C399 1.333 . S
C398 N400 1.317 . S
C398 H403 0.930 . S
C399 C398 1.333 . S
C399 N401 1.350 . S
C399 H425 0.931 . S
N400 Co396 2.148 . S
N400 C397 1.301 . S
N400 C398 1.317 . S
N401 C397 1.328 . S
N401 C399 1.350 . S
H402 C397 0.930 . S
H403 C398 0.930 . S
C404 O405 1.224 . S
C404 O423 1.247 . S
O405 C404 1.224 . S
N406 Co396 2.128 . S
N406 C407 1.355 . S
N406 C409 1.311 . S
C407 N406 1.355 . S
C407 C408 1.363 . S
C407 H419 0.929 . S
C408 C407 1.363 . S
C408 N410 1.375 . S
C408 H426 0.931 . S
C409 N406 1.311 . S
C409 N410 1.347 . S
C409 H420 0.929 . S
N410 C408 1.375 . S
N410 C409 1.347 . S
C411 C414 1.365 . S
C411 N416 1.328 . S
C411 H417 0.929 . S
C412 C413 1.362 . S
C412 C415 1.378 . S
C412 H427 0.929 . S
C413 C412 1.362 . S
C413 C414 1.366 . S
C414 C411 1.365 . S
C414 C413 1.366 . S
C414 H428 0.930 . S
C415 C412 1.378 . S
C415 N416 1.315 . S
C415 H418 0.930 . S
N416 Co396 2.194 . S
N416 C411 1.328 . S
N416 C415 1.315 . S
H417 C411 0.929 . S
H418 C415 0.930 . S
H419 C407 0.929 . S
H420 C409 0.929 . S
O421 Co396 2.351 . S
O421 C424 1.244 . S
O422 Co396 2.155 . S
O422 C424 1.240 . S
O423 Co396 2.096 . S
O423 C404 1.247 . S
C424 O421 1.244 . S
C424 O422 1.240 . S
H425 C399 0.931 . S
H426 C408 0.931 . S
H427 C412 0.929 . S
H428 C414 0.930 . S
Co429 N433 2.148 . S
Co429 N439 2.128 . S
Co429 N449 2.194 . S
Co429 O454 2.351 . S
Co429 O455 2.155 . S
Co429 O456 2.096 . S
C430 N433 1.301 . S
C430 N434 1.328 . S
C430 H435 0.930 . S
C431 C432 1.333 . S
C431 N433 1.317 . S
C431 H436 0.930 . S
C432 C431 1.333 . S
C432 N434 1.350 . S
C432 H458 0.931 1_655 S
N433 Co429 2.148 . S
N433 C430 1.301 . S
N433 C431 1.317 . S
N434 C430 1.328 . S
N434 C432 1.350 . S
H435 C430 0.930 . S
H436 C431 0.930 . S
C437 O438 1.224 . S
C437 O456 1.247 . S
O438 C437 1.224 . S
N439 Co429 2.128 . S
N439 C440 1.355 . S
N439 C442 1.311 . S
C440 N439 1.355 . S
C440 C441 1.363 . S
C440 H452 0.929 . S
C441 C440 1.363 . S
C441 N443 1.375 . S
C441 H459 0.931 . S
C442 N439 1.311 . S
C442 N443 1.347 . S
C442 H453 0.929 . S
N443 C441 1.375 . S
N443 C442 1.347 . S
C444 C447 1.365 . S
C444 N449 1.328 . S
C444 H450 0.929 . S
C445 C446 1.362 . S
C445 C448 1.378 . S
C445 H460 0.929 . S
C446 C445 1.362 . S
C446 C447 1.366 . S
C447 C444 1.365 . S
C447 C446 1.366 . S
C447 H461 0.930 . S
C448 C445 1.378 . S
C448 N449 1.315 . S
C448 H451 0.930 . S
N449 Co429 2.194 . S
N449 C444 1.328 . S
N449 C448 1.315 . S
H450 C444 0.929 . S
H451 C448 0.930 . S
H452 C440 0.929 . S
H453 C442 0.929 . S
O454 Co429 2.351 . S
O454 C457 1.244 . S
O455 Co429 2.155 . S
O455 C457 1.240 . S
O456 Co429 2.096 . S
O456 C437 1.247 . S
C457 O454 1.244 . S
C457 O455 1.240 . S
H458 C432 0.931 1_455 S
H459 C441 0.931 . S
H460 C445 0.929 . S
H461 C447 0.930 . S
Co462 N466 2.148 . S
Co462 N472 2.128 . S
Co462 N482 2.194 . S
Co462 O487 2.351 . S
Co462 O488 2.155 . S
Co462 O489 2.096 . S
C463 N466 1.301 . S
C463 N467 1.328 . S
C463 H468 0.930 . S
C464 C465 1.333 . S
C464 N466 1.317 . S
C464 H469 0.930 . S
C465 C464 1.333 . S
C465 N467 1.350 . S
C465 H491 0.931 1_565 S
N466 Co462 2.148 . S
N466 C463 1.301 . S
N466 C464 1.317 . S
N467 C463 1.328 . S
N467 C465 1.350 . S
H468 C463 0.930 . S
H469 C464 0.930 . S
C470 O471 1.224 . S
C470 O489 1.247 . S
O471 C470 1.224 . S
N472 Co462 2.128 . S
N472 C473 1.355 . S
N472 C475 1.311 . S
C473 N472 1.355 . S
C473 C474 1.363 . S
C473 H485 0.929 . S
C474 C473 1.363 . S
C474 N476 1.375 . S
C474 H492 0.931 . S
C475 N472 1.311 . S
C475 N476 1.347 . S
C475 H486 0.929 . S
N476 C474 1.375 . S
N476 C475 1.347 . S
C477 C480 1.365 . S
C477 N482 1.328 . S
C477 H483 0.929 . S
C478 C479 1.362 . S
C478 C481 1.378 . S
C478 H493 0.929 . S
C479 C478 1.362 . S
C479 C480 1.366 . S
C480 C477 1.365 . S
C480 C479 1.366 . S
C480 H494 0.930 . S
C481 C478 1.378 . S
C481 N482 1.315 . S
C481 H484 0.930 . S
N482 Co462 2.194 . S
N482 C477 1.328 . S
N482 C481 1.315 . S
H483 C477 0.929 . S
H484 C481 0.930 . S
H485 C473 0.929 . S
H486 C475 0.929 . S
O487 Co462 2.351 . S
O487 C490 1.244 . S
O488 Co462 2.155 . S
O488 C490 1.240 . S
O489 Co462 2.096 . S
O489 C470 1.247 . S
C490 O487 1.244 . S
C490 O488 1.240 . S
H491 C465 0.931 1_545 S
H492 C474 0.931 . S
H493 C478 0.929 . S
H494 C480 0.930 . S
Co495 N499 2.148 . S
Co495 N505 2.128 . S
Co495 N515 2.194 . S
Co495 O520 2.351 . S
Co495 O521 2.155 . S
Co495 O522 2.096 . S
C496 N499 1.301 . S
C496 N500 1.328 . S
C496 H501 0.930 . S
C497 C498 1.333 . S
C497 N499 1.317 . S
C497 H502 0.930 . S
C498 C497 1.333 . S
C498 N500 1.350 . S
C498 H524 0.931 . S
N499 Co495 2.148 . S
N499 C496 1.301 . S
N499 C497 1.317 . S
N500 C496 1.328 . S
N500 C498 1.350 . S
H501 C496 0.930 . S
H502 C497 0.930 . S
C503 O504 1.224 . S
C503 O522 1.247 . S
O504 C503 1.224 . S
N505 Co495 2.128 . S
N505 C506 1.355 . S
N505 C508 1.311 . S
C506 N505 1.355 . S
C506 C507 1.363 . S
C506 H518 0.929 . S
C507 C506 1.363 . S
C507 N509 1.375 . S
C507 H525 0.931 . S
C508 N505 1.311 . S
C508 N509 1.347 . S
C508 H519 0.929 . S
N509 C507 1.375 . S
N509 C508 1.347 . S
C510 C513 1.365 . S
C510 N515 1.328 . S
C510 H516 0.929 . S
C511 C512 1.362 . S
C511 C514 1.378 . S
C511 H526 0.929 . S
C512 C511 1.362 . S
C512 C513 1.366 . S
C513 C510 1.365 . S
C513 C512 1.366 . S
C513 H527 0.930 . S
C514 C511 1.378 . S
C514 N515 1.315 . S
C514 H517 0.930 . S
N515 Co495 2.194 . S
N515 C510 1.328 . S
N515 C514 1.315 . S
H516 C510 0.929 . S
H517 C514 0.930 . S
H518 C506 0.929 . S
H519 C508 0.929 . S
O520 Co495 2.351 . S
O520 C523 1.244 . S
O521 Co495 2.155 . S
O521 C523 1.240 . S
O522 Co495 2.096 . S
O522 C503 1.247 . S
C523 O520 1.244 . S
C523 O521 1.240 . S
H524 C498 0.931 . S
H525 C507 0.931 . S
H526 C511 0.929 . S
H527 C513 0.930 . S
H528 C536 0.950 . S
H529 C541 0.950 . S
H530 C538 0.950 . S
H531 C540 0.950 . S
H532 C542 0.950 . S
H533 C544 0.950 . S
H534 C546 0.950 . S
H535 C547 0.950 . S
C536 H528 0.950 . S
C536 C537 1.386 . S
C536 C538 1.391 . S
C537 C536 1.386 . S
C537 C541 1.393 . S
C538 H530 0.950 . S
C538 C536 1.391 . S
C538 C539 1.400 . S
C539 C538 1.400 . S
C539 C540 1.398 . S
C539 C545 1.491 . S
C540 H531 0.950 . S
C540 C539 1.398 . S
C540 C541 1.391 . S
C541 H529 0.950 . S
C541 C537 1.393 . S
C541 C540 1.391 . S
C542 H532 0.950 . S
C542 C543 1.386 . S
C542 C544 1.391 . S
C543 C542 1.386 . S
C543 C547 1.393 . S
C544 H533 0.950 . S
C544 C542 1.391 . S
C544 C545 1.400 . S
C545 C539 1.491 . S
C545 C544 1.400 . S
C545 C546 1.398 . S
C546 H534 0.950 . S
C546 C545 1.398 . S
C546 C547 1.391 . S
C547 H535 0.950 . S
C547 C543 1.393 . S
C547 C546 1.391 . S
H548 C556 0.950 . S
H549 C561 0.950 . S
H550 C558 0.950 . S
H551 C560 0.950 . S
H552 C562 0.950 . S
H553 C564 0.950 . S
H554 C566 0.950 . S
H555 C567 0.950 . S
C556 H548 0.950 . S
C556 C557 1.386 . S
C556 C558 1.391 . S
C557 C556 1.386 . S
C557 C561 1.393 . S
C558 H550 0.950 . S
C558 C556 1.391 . S
C558 C559 1.400 . S
C559 C558 1.400 . S
C559 C560 1.398 . S
C559 C565 1.491 . S
C560 H551 0.950 . S
C560 C559 1.398 . S
C560 C561 1.391 . S
C561 H549 0.950 . S
C561 C557 1.393 . S
C561 C560 1.391 . S
C562 H552 0.950 . S
C562 C563 1.386 . S
C562 C564 1.391 . S
C563 C562 1.386 . S
C563 C567 1.393 . S
C564 H553 0.950 . S
C564 C562 1.391 . S
C564 C565 1.400 . S
C565 C559 1.491 . S
C565 C564 1.400 . S
C565 C566 1.398 . S
C566 H554 0.950 . S
C566 C565 1.398 . S
C566 C567 1.391 . S
C567 H555 0.950 . S
C567 C563 1.393 . S
C567 C566 1.391 . S
H568 C576 0.950 . S
H569 C581 0.950 . S
H570 C578 0.950 . S
H571 C580 0.950 . S
H572 C582 0.950 . S
H573 C584 0.950 . S
H574 C586 0.950 . S
H575 C587 0.950 . S
C576 H568 0.950 . S
C576 C577 1.386 . S
C576 C578 1.391 . S
C577 C576 1.386 . S
C577 C581 1.393 . S
C578 H570 0.950 . S
C578 C576 1.391 . S
C578 C579 1.400 . S
C579 C578 1.400 . S
C579 C580 1.398 . S
C579 C585 1.491 . S
C580 H571 0.950 . S
C580 C579 1.398 . S
C580 C581 1.391 . S
C581 H569 0.950 . S
C581 C577 1.393 . S
C581 C580 1.391 . S
C582 H572 0.950 . S
C582 C583 1.386 . S
C582 C584 1.391 . S
C583 C582 1.386 . S
C583 C587 1.393 . S
C584 H573 0.950 . S
C584 C582 1.391 . S
C584 C585 1.400 . S
C585 C579 1.491 . S
C585 C584 1.400 . S
C585 C586 1.398 . S
C586 H574 0.950 . S
C586 C585 1.398 . S
C586 C587 1.391 . S
C587 H575 0.950 . S
C587 C583 1.393 . S
C587 C586 1.391 . S
H588 C596 0.950 . S
H589 C601 0.950 . S
H590 C598 0.950 . S
H591 C600 0.950 . S
H592 C602 0.950 . S
H593 C604 0.950 . S
H594 C606 0.950 . S
H595 C607 0.950 . S
C596 H588 0.950 . S
C596 C597 1.386 . S
C596 C598 1.391 . S
C597 C596 1.386 . S
C597 C601 1.393 . S
C598 H590 0.950 . S
C598 C596 1.391 . S
C598 C599 1.400 . S
C599 C598 1.400 . S
C599 C600 1.398 . S
C599 C605 1.491 . S
C600 H591 0.950 . S
C600 C599 1.398 . S
C600 C601 1.391 . S
C601 H589 0.950 . S
C601 C597 1.393 . S
C601 C600 1.391 . S
C602 H592 0.950 . S
C602 C603 1.386 . S
C602 C604 1.391 . S
C603 C602 1.386 . S
C603 C607 1.393 . S
C604 H593 0.950 . S
C604 C602 1.391 . S
C604 C605 1.400 . S
C605 C599 1.491 . S
C605 C604 1.400 . S
C605 C606 1.398 . S
C606 H594 0.950 . S
C606 C605 1.398 . S
C606 C607 1.391 . S
C607 H595 0.950 . S
C607 C603 1.393 . S
C607 C606 1.391 . S
H608 C616 0.950 . S
H609 C621 0.950 . S
H610 C618 0.950 . S
H611 C620 0.950 . S
H612 C622 0.950 . S
H613 C624 0.950 . S
H614 C626 0.950 . S
H615 C627 0.950 . S
C616 H608 0.950 . S
C616 C617 1.386 . S
C616 C618 1.391 . S
C617 C616 1.386 . S
C617 C621 1.393 . S
C618 H610 0.950 . S
C618 C616 1.391 . S
C618 C619 1.400 . S
C619 C618 1.400 . S
C619 C620 1.398 . S
C619 C625 1.491 . S
C620 H611 0.950 . S
C620 C619 1.398 . S
C620 C621 1.391 . S
C621 H609 0.950 . S
C621 C617 1.393 . S
C621 C620 1.391 . S
C622 H612 0.950 . S
C622 C623 1.386 . S
C622 C624 1.391 . S
C623 C622 1.386 . S
C623 C627 1.393 . S
C624 H613 0.950 . S
C624 C622 1.391 . S
C624 C625 1.400 . S
C625 C619 1.491 . S
C625 C624 1.400 . S
C625 C626 1.398 . S
C626 H614 0.950 . S
C626 C625 1.398 . S
C626 C627 1.391 . S
C627 H615 0.950 . S
C627 C623 1.393 . S
C627 C626 1.391 . S
H628 C636 0.950 . S
H629 C641 0.950 . S
H630 C638 0.950 . S
H631 C640 0.950 . S
H632 C642 0.950 . S
H633 C644 0.950 . S
H634 C646 0.950 . S
H635 C647 0.950 . S
C636 H628 0.950 . S
C636 C637 1.386 . S
C636 C638 1.391 . S
C637 C636 1.386 . S
C637 C641 1.393 . S
C638 H630 0.950 . S
C638 C636 1.391 . S
C638 C639 1.400 . S
C639 C638 1.400 . S
C639 C640 1.398 . S
C639 C645 1.491 . S
C640 H631 0.950 . S
C640 C639 1.398 . S
C640 C641 1.391 . S
C641 H629 0.950 . S
C641 C637 1.393 . S
C641 C640 1.391 . S
C642 H632 0.950 . S
C642 C643 1.386 . S
C642 C644 1.391 . S
C643 C642 1.386 . S
C643 C647 1.393 . S
C644 H633 0.950 . S
C644 C642 1.391 . S
C644 C645 1.400 . S
C645 C639 1.491 . S
C645 C644 1.400 . S
C645 C646 1.398 . S
C646 H634 0.950 . S
C646 C645 1.398 . S
C646 C647 1.391 . S
C647 H635 0.950 . S
C647 C643 1.393 . S
C647 C646 1.391 . S
H648 C656 0.950 . S
H649 C661 0.950 . S
H650 C658 0.950 . S
H651 C660 0.950 . S
H652 C662 0.950 . S
H653 C664 0.950 . S
H654 C666 0.950 . S
H655 C667 0.950 . S
C656 H648 0.950 . S
C656 C657 1.386 . S
C656 C658 1.391 . S
C657 C656 1.386 . S
C657 C661 1.393 . S
C658 H650 0.950 . S
C658 C656 1.391 . S
C658 C659 1.400 . S
C659 C658 1.400 . S
C659 C660 1.398 . S
C659 C665 1.491 . S
C660 H651 0.950 . S
C660 C659 1.398 . S
C660 C661 1.391 . S
C661 H649 0.950 . S
C661 C657 1.393 . S
C661 C660 1.391 . S
C662 H652 0.950 . S
C662 C663 1.386 . S
C662 C664 1.391 . S
C663 C662 1.386 . S
C663 C667 1.393 . S
C664 H653 0.950 . S
C664 C662 1.391 . S
C664 C665 1.400 . S
C665 C659 1.491 . S
C665 C664 1.400 . S
C665 C666 1.398 . S
C666 H654 0.950 . S
C666 C665 1.398 . S
C666 C667 1.391 . S
C667 H655 0.950 . S
C667 C663 1.393 . S
C667 C666 1.391 . S
H668 C676 0.950 . S
H669 C681 0.950 . S
H670 C678 0.950 . S
H671 C680 0.950 . S
H672 C682 0.950 . S
H673 C684 0.950 . S
H674 C686 0.950 . S
H675 C687 0.950 . S
C676 H668 0.950 . S
C676 C677 1.386 . S
C676 C678 1.391 . S
C677 C676 1.386 . S
C677 C681 1.393 . S
C678 H670 0.950 . S
C678 C676 1.391 . S
C678 C679 1.400 . S
C679 C678 1.400 . S
C679 C680 1.398 . S
C679 C685 1.491 . S
C680 H671 0.950 . S
C680 C679 1.398 . S
C680 C681 1.391 . S
C681 H669 0.950 . S
C681 C677 1.393 . S
C681 C680 1.391 . S
C682 H672 0.950 . S
C682 C683 1.386 . S
C682 C684 1.391 . S
C683 C682 1.386 . S
C683 C687 1.393 . S
C684 H673 0.950 . S
C684 C682 1.391 . S
C684 C685 1.400 . S
C685 C679 1.491 . S
C685 C684 1.400 . S
C685 C686 1.398 . S
C686 H674 0.950 . S
C686 C685 1.398 . S
C686 C687 1.391 . S
C687 H675 0.950 . S
C687 C683 1.393 . S
C687 C686 1.391 . S
H688 C696 0.950 . S
H689 C701 0.950 . S
H690 C698 0.950 1_554 S
H691 C700 0.950 . S
H692 C702 0.950 . S
H693 C704 0.950 1_556 S
H694 C706 0.950 . S
H695 C707 0.950 . S
C696 H688 0.950 . S
C696 C697 1.386 . S
C696 C698 1.391 . S
C697 C696 1.386 . S
C697 C701 1.393 1_565 S
C698 H690 0.950 1_556 S
C698 C696 1.391 . S
C698 C699 1.400 . S
C699 C698 1.400 . S
C699 C700 1.398 1_565 S
C699 C705 1.491 1_566 S
C700 H691 0.950 . S
C700 C699 1.398 1_545 S
C700 C701 1.391 . S
C701 H689 0.950 . S
C701 C697 1.393 1_545 S
C701 C700 1.391 . S
C702 H692 0.950 . S
C702 C703 1.386 . S
C702 C704 1.391 . S
C703 C702 1.386 . S
C703 C707 1.393 1_545 S
C704 H693 0.950 1_554 S
C704 C702 1.391 . S
C704 C705 1.400 . S
C705 C699 1.491 1_544 S
C705 C704 1.400 . S
C705 C706 1.398 1_545 S
C706 H694 0.950 . S
C706 C705 1.398 1_565 S
C706 C707 1.391 . S
C707 H695 0.950 . S
C707 C703 1.393 1_565 S
C707 C706 1.391 . S
H708 C716 0.950 . S
H709 C721 0.950 . S
H710 C718 0.950 . S
H711 C720 0.950 . S
H712 C722 0.950 . S
H713 C724 0.950 . S
H714 C726 0.950 . S
H715 C727 0.950 . S
C716 H708 0.950 . S
C716 C717 1.386 . S
C716 C718 1.391 . S
C717 C716 1.386 . S
C717 C721 1.393 . S
C718 H710 0.950 . S
C718 C716 1.391 . S
C718 C719 1.400 . S
C719 C718 1.400 . S
C719 C720 1.398 . S
C719 C725 1.491 1_556 S
C720 H711 0.950 . S
C720 C719 1.398 . S
C720 C721 1.391 . S
C721 H709 0.950 . S
C721 C717 1.393 . S
C721 C720 1.391 . S
C722 H712 0.950 . S
C722 C723 1.386 . S
C722 C724 1.391 . S
C723 C722 1.386 . S
C723 C727 1.393 . S
C724 H713 0.950 . S
C724 C722 1.391 . S
C724 C725 1.400 . S
C725 C719 1.491 1_554 S
C725 C724 1.400 . S
C725 C726 1.398 . S
C726 H714 0.950 . S
C726 C725 1.398 . S
C726 C727 1.391 . S
C727 H715 0.950 . S
C727 C723 1.393 . S
C727 C726 1.391 . S
H728 C736 0.950 . S
H729 C741 0.950 . S
H730 C738 0.950 1_554 S
H731 C740 0.956 . S
H732 C742 0.950 . S
H733 C744 0.950 1_556 S
H734 C746 0.956 . S
H735 C747 0.950 . S
C736 H728 0.950 . S
C736 C737 1.386 . S
C736 C738 1.391 . S
C737 C736 1.386 . S
C737 C741 1.393 . S
C738 H730 0.950 1_556 S
C738 C736 1.391 . S
C738 C739 1.400 . S
C739 C738 1.400 . S
C739 C740 1.398 . S
C739 C745 1.491 1_456 S
C740 H731 0.956 . S
C740 C739 1.398 . S
C740 C741 1.391 . S
C741 H729 0.950 . S
C741 C737 1.393 . S
C741 C740 1.391 . S
C742 H732 0.950 . S
C742 C743 1.386 . S
C742 C744 1.391 . S
C743 C742 1.386 . S
C743 C747 1.393 . S
C744 H733 0.950 1_554 S
C744 C742 1.391 . S
C744 C745 1.400 . S
C745 C739 1.491 1_654 S
C745 C744 1.400 . S
C745 C746 1.398 . S
C746 H734 0.956 . S
C746 C745 1.398 . S
C746 C747 1.391 . S
C747 H735 0.950 . S
C747 C743 1.393 . S
C747 C746 1.391 . S
H748 C756 0.950 . S
H749 C761 0.950 . S
H750 C758 0.950 . S
H751 C760 0.950 1_554 S
H752 C762 0.950 . S
H753 C764 0.950 . S
H754 C766 0.950 1_556 S
H755 C767 0.950 . S
C756 H748 0.950 . S
C756 C757 1.386 1_455 S
C756 C758 1.391 . S
C757 C756 1.386 1_655 S
C757 C761 1.393 . S
C758 H750 0.950 . S
C758 C756 1.391 . S
C758 C759 1.400 1_455 S
C759 C758 1.400 1_655 S
C759 C760 1.398 . S
C759 C765 1.491 1_646 S
C760 H751 0.950 1_556 S
C760 C759 1.398 . S
C760 C761 1.391 . S
C761 H749 0.950 . S
C761 C757 1.393 . S
C761 C760 1.391 . S
C762 H752 0.950 . S
C762 C763 1.386 1_655 S
C762 C764 1.391 . S
C763 C762 1.386 1_455 S
C763 C767 1.393 . S
C764 H753 0.950 . S
C764 C762 1.391 . S
C764 C765 1.400 1_655 S
C765 C759 1.491 1_464 S
C765 C764 1.400 1_455 S
C765 C766 1.398 . S
C766 H754 0.950 1_554 S
C766 C765 1.398 . S
C766 C767 1.391 . S
C767 H755 0.950 . S
C767 C763 1.393 . S
C767 C766 1.391 . S
H768 C776 0.950 . S
H769 C781 0.950 . S
H770 C778 0.950 . S
H771 C780 0.950 . S
H772 C782 0.950 . S
H773 C784 0.950 . S
H774 C786 0.950 . S
H775 C787 0.950 . S
C776 H768 0.950 . S
C776 C777 1.386 . S
C776 C778 1.391 . S
C777 C776 1.386 . S
C777 C781 1.393 . S
C778 H770 0.950 . S
C778 C776 1.391 . S
C778 C779 1.400 . S
C779 C778 1.400 . S
C779 C780 1.398 . S
C779 C785 1.491 . S
C780 H771 0.950 . S
C780 C779 1.398 . S
C780 C781 1.391 . S
C781 H769 0.950 . S
C781 C777 1.393 . S
C781 C780 1.391 . S
C782 H772 0.950 . S
C782 C783 1.386 . S
C782 C784 1.391 . S
C783 C782 1.386 . S
C783 C787 1.393 . S
C784 H773 0.950 . S
C784 C782 1.391 . S
C784 C785 1.400 . S
C785 C779 1.491 . S
C785 C784 1.400 . S
C785 C786 1.398 . S
C786 H774 0.950 . S
C786 C785 1.398 . S
C786 C787 1.391 . S
C787 H775 0.950 . S
C787 C783 1.393 . S
C787 C786 1.391 . S
H788 C796 0.950 . S
H789 C801 0.950 . S
H790 C798 0.950 . S
H791 C800 0.950 . S
H792 C802 0.950 . S
H793 C804 0.950 . S
H794 C806 0.950 . S
H795 C807 0.950 . S
C796 H788 0.950 . S
C796 C797 1.386 . S
C796 C798 1.391 . S
C797 C796 1.386 . S
C797 C801 1.393 1_655 S
C798 H790 0.950 . S
C798 C796 1.391 . S
C798 C799 1.400 . S
C799 C798 1.400 . S
C799 C800 1.398 1_655 S
C799 C805 1.491 1_655 S
C800 H791 0.950 . S
C800 C799 1.398 1_455 S
C800 C801 1.391 . S
C801 H789 0.950 . S
C801 C797 1.393 1_455 S
C801 C800 1.391 . S
C802 H792 0.950 . S
C802 C803 1.386 . S
C802 C804 1.391 . S
C803 C802 1.386 . S
C803 C807 1.393 1_455 S
C804 H793 0.950 . S
C804 C802 1.391 . S
C804 C805 1.400 . S
C805 C799 1.491 1_455 S
C805 C804 1.400 . S
C805 C806 1.398 1_455 S
C806 H794 0.950 . S
C806 C805 1.398 1_655 S
C806 C807 1.391 . S
C807 H795 0.950 . S
C807 C803 1.393 1_655 S
C807 C806 1.391 . S
H808 C816 0.950 . S
H809 C821 0.950 . S
H810 C818 0.950 . S
H811 C820 0.950 . S
H812 C822 0.950 . S
H813 C824 0.950 . S
H814 C826 0.950 . S
H815 C827 0.950 . S
C816 H808 0.950 . S
C816 C817 1.386 1_565 S
C816 C818 1.391 . S
C817 C816 1.386 1_545 S
C817 C821 1.393 . S
C818 H810 0.950 . S
C818 C816 1.391 . S
C818 C819 1.400 1_565 S
C819 C818 1.400 1_545 S
C819 C820 1.398 . S
C819 C825 1.491 1_645 S
C820 H811 0.950 . S
C820 C819 1.398 . S
C820 C821 1.391 . S
C821 H809 0.950 . S
C821 C817 1.393 . S
C821 C820 1.391 . S
C822 H812 0.950 . S
C822 C823 1.386 1_545 S
C822 C824 1.391 . S
C823 C822 1.386 1_565 S
C823 C827 1.393 . S
C824 H813 0.950 . S
C824 C822 1.391 . S
C824 C825 1.400 1_545 S
C825 C819 1.491 1_465 S
C825 C824 1.400 1_565 S
C825 C826 1.398 . S
C826 H814 0.950 . S
C826 C825 1.398 . S
C826 C827 1.391 . S
C827 H815 0.950 . S
C827 C823 1.393 . S
C827 C826 1.391 . S
H828 C836 0.950 . S
H829 C841 0.950 . S
H830 C838 0.950 . S
H831 C840 0.950 1_545 S
H832 C842 0.950 . S
H833 C844 0.950 . S
H834 C846 0.950 1_565 S
H835 C847 0.950 . S
C836 H828 0.950 . S
C836 C837 1.386 . S
C836 C838 1.391 . S
C837 C836 1.386 . S
C837 C841 1.393 . S
C838 H830 0.950 . S
C838 C836 1.391 . S
C838 C839 1.400 . S
C839 C838 1.400 . S
C839 C840 1.398 . S
C839 C845 1.491 1_565 S
C840 H831 0.950 1_565 S
C840 C839 1.398 . S
C840 C841 1.391 . S
C841 H829 0.950 . S
C841 C837 1.393 . S
C841 C840 1.391 . S
C842 H832 0.950 . S
C842 C843 1.386 . S
C842 C844 1.391 . S
C843 C842 1.386 . S
C843 C847 1.393 . S
C844 H833 0.950 . S
C844 C842 1.391 . S
C844 C845 1.400 . S
C845 C839 1.491 1_545 S
C845 C844 1.400 . S
C845 C846 1.398 . S
C846 H834 0.950 1_545 S
C846 C845 1.398 . S
C846 C847 1.391 . S
C847 H835 0.950 . S
C847 C843 1.393 . S
C847 C846 1.391 . S
H848 C856 0.950 . S
H849 C861 0.950 . S
H850 C858 0.950 . S
H851 C860 0.950 . S
H852 C862 0.950 . S
H853 C864 0.950 . S
H854 C866 0.950 . S
H855 C867 0.950 . S
C856 H848 0.950 . S
C856 C857 1.386 . S
C856 C858 1.391 1_556 S
C857 C856 1.386 . S
C857 C861 1.393 . S
C858 H850 0.950 . S
C858 C856 1.391 1_554 S
C858 C859 1.400 . S
C859 C858 1.400 . S
C859 C860 1.398 1_554 S
C859 C865 1.491 . S
C860 H851 0.950 . S
C860 C859 1.398 1_556 S
C860 C861 1.391 . S
C861 H849 0.950 . S
C861 C857 1.393 . S
C861 C860 1.391 . S
C862 H852 0.950 . S
C862 C863 1.386 . S
C862 C864 1.391 . S
C863 C862 1.386 . S
C863 C867 1.393 . S
C864 H853 0.950 . S
C864 C862 1.391 . S
C864 C865 1.400 . S
C865 C859 1.491 . S
C865 C864 1.400 . S
C865 C866 1.398 . S
C866 H854 0.950 . S
C866 C865 1.398 . S
C866 C867 1.391 . S
C867 H855 0.950 . S
C867 C863 1.393 . S
C867 C866 1.391 . S
H868 C876 0.950 . S
H869 C881 0.950 . S
H870 C878 0.950 . S
H871 C880 0.950 . S
H872 C882 0.950 . S
H873 C884 0.950 . S
H874 C886 0.950 . S
H875 C887 0.950 . S
C876 H868 0.950 . S
C876 C877 1.386 . S
C876 C878 1.391 1_556 S
C877 C876 1.386 . S
C877 C881 1.393 . S
C878 H870 0.950 . S
C878 C876 1.391 1_554 S
C878 C879 1.400 . S
C879 C878 1.400 . S
C879 C880 1.398 1_554 S
C879 C885 1.491 . S
C880 H871 0.950 . S
C880 C879 1.398 1_556 S
C880 C881 1.391 . S
C881 H869 0.950 . S
C881 C877 1.393 . S
C881 C880 1.391 . S
C882 H872 0.950 . S
C882 C883 1.386 . S
C882 C884 1.391 . S
C883 C882 1.386 . S
C883 C887 1.393 . S
C884 H873 0.950 . S
C884 C882 1.391 . S
C884 C885 1.400 . S
C885 C879 1.491 . S
C885 C884 1.400 . S
C885 C886 1.398 . S
C886 H874 0.950 . S
C886 C885 1.398 . S
C886 C887 1.391 . S
C887 H875 0.950 . S
C887 C883 1.393 . S
C887 C886 1.391 . S
H888 C896 0.950 . S
H889 C901 0.950 . S
H890 C898 0.950 1_554 S
H891 C900 0.965 . S
H892 C902 0.950 . S
H893 C904 0.950 . S
H894 C906 0.950 . S
H895 C907 0.950 . S
C896 H888 0.950 . S
C896 C897 1.386 . S
C896 C898 1.391 . S
C897 C896 1.386 . S
C897 C901 1.393 . S
C898 H890 0.950 1_556 S
C898 C896 1.391 . S
C898 C899 1.400 1_556 S
C899 C898 1.400 1_554 S
C899 C900 1.408 . S
C899 C905 1.491 . S
C900 H891 0.965 . S
C900 C899 1.408 . S
C900 C901 1.368 1_554 S
C901 H889 0.950 . S
C901 C897 1.393 . S
C901 C900 1.368 1_556 S
C902 H892 0.950 . S
C902 C903 1.386 . S
C902 C904 1.391 . S
C903 C902 1.386 . S
C903 C907 1.393 . S
C904 H893 0.950 . S
C904 C902 1.391 . S
C904 C905 1.400 . S
C905 C899 1.491 . S
C905 C904 1.400 . S
C905 C906 1.398 . S
C906 H894 0.950 . S
C906 C905 1.398 . S
C906 C907 1.391 . S
C907 H895 0.950 . S
C907 C903 1.393 . S
C907 C906 1.391 . S
H908 C916 0.950 . S
H909 C921 0.950 . S
H910 C918 0.950 . S
H911 C920 0.950 . S
H912 C922 0.950 . S
H913 C924 0.950 . S
H914 C926 0.950 . S
H915 C927 0.950 . S
C916 H908 0.950 . S
C916 C917 1.386 . S
C916 C918 1.391 1_556 S
C917 C916 1.386 . S
C917 C921 1.393 . S
C918 H910 0.950 . S
C918 C916 1.391 1_554 S
C918 C919 1.400 . S
C919 C918 1.400 . S
C919 C920 1.398 1_554 S
C919 C925 1.491 . S
C920 H911 0.950 . S
C920 C919 1.398 1_556 S
C920 C921 1.391 . S
C921 H909 0.950 . S
C921 C917 1.393 . S
C921 C920 1.391 . S
C922 H912 0.950 . S
C922 C923 1.386 . S
C922 C924 1.391 . S
C923 C922 1.386 . S
C923 C927 1.393 . S
C924 H913 0.950 . S
C924 C922 1.391 . S
C924 C925 1.400 . S
C925 C919 1.491 . S
C925 C924 1.400 . S
C925 C926 1.398 . S
C926 H914 0.950 . S
C926 C925 1.398 . S
C926 C927 1.391 . S
C927 H915 0.950 . S
C927 C923 1.393 . S
C927 C926 1.391 . S
H928 C936 0.950 . S
H929 C941 0.950 . S
H930 C938 0.950 . S
H931 C940 0.950 . S
H932 C942 0.950 . S
H933 C944 0.950 . S
H934 C946 0.950 . S
H935 C947 0.950 . S
C936 H928 0.950 . S
C936 C937 1.386 . S
C936 C938 1.391 . S
C937 C936 1.386 . S
C937 C941 1.393 . S
C938 H930 0.950 . S
C938 C936 1.391 . S
C938 C939 1.400 . S
C939 C938 1.400 . S
C939 C940 1.398 . S
C939 C945 1.491 . S
C940 H931 0.950 . S
C940 C939 1.398 . S
C940 C941 1.391 . S
C941 H929 0.950 . S
C941 C937 1.393 . S
C941 C940 1.391 . S
C942 H932 0.950 . S
C942 C943 1.386 . S
C942 C944 1.391 . S
C943 C942 1.386 . S
C943 C947 1.393 . S
C944 H933 0.950 . S
C944 C942 1.391 . S
C944 C945 1.400 . S
C945 C939 1.491 . S
C945 C944 1.400 . S
C945 C946 1.398 . S
C946 H934 0.950 . S
C946 C945 1.398 . S
C946 C947 1.391 . S
C947 H935 0.950 . S
C947 C943 1.393 . S
C947 C946 1.391 . S
H948 C956 0.950 . S
H949 C961 0.950 . S
H950 C958 0.950 . S
H951 C960 0.950 . S
H952 C962 0.950 . S
H953 C964 0.950 . S
H954 C966 0.950 . S
H955 C967 0.950 . S
C956 H948 0.950 . S
C956 C957 1.386 . S
C956 C958 1.391 . S
C957 C956 1.386 . S
C957 C961 1.393 . S
C958 H950 0.950 . S
C958 C956 1.391 . S
C958 C959 1.400 . S
C959 C958 1.400 . S
C959 C960 1.398 . S
C959 C965 1.491 . S
C960 H951 0.950 . S
C960 C959 1.398 . S
C960 C961 1.391 . S
C961 H949 0.950 . S
C961 C957 1.393 . S
C961 C960 1.391 . S
C962 H952 0.950 . S
C962 C963 1.386 . S
C962 C964 1.391 . S
C963 C962 1.386 . S
C963 C967 1.393 . S
C964 H953 0.950 . S
C964 C962 1.391 . S
C964 C965 1.400 . S
C965 C959 1.491 . S
C965 C964 1.400 . S
C965 C966 1.398 . S
C966 H954 0.950 . S
C966 C965 1.398 . S
C966 C967 1.391 . S
C967 H955 0.950 . S
C967 C963 1.393 . S
C967 C966 1.391 . S
H968 C976 0.950 . S
H969 C981 0.950 . S
H970 C978 0.950 . S
H971 C980 0.950 . S
H972 C982 0.950 . S
H973 C984 0.950 . S
H974 C986 0.950 . S
H975 C987 0.950 . S
C976 H968 0.950 . S
C976 C977 1.386 . S
C976 C978 1.391 . S
C977 C976 1.386 . S
C977 C981 1.393 . S
C978 H970 0.950 . S
C978 C976 1.391 . S
C978 C979 1.400 . S
C979 C978 1.400 . S
C979 C980 1.398 . S
C979 C985 1.491 . S
C980 H971 0.950 . S
C980 C979 1.398 . S
C980 C981 1.391 . S
C981 H969 0.950 . S
C981 C977 1.393 . S
C981 C980 1.391 . S
C982 H972 0.950 . S
C982 C983 1.386 . S
C982 C984 1.391 . S
C983 C982 1.386 . S
C983 C987 1.393 . S
C984 H973 0.950 . S
C984 C982 1.391 . S
C984 C985 1.400 . S
C985 C979 1.491 . S
C985 C984 1.400 . S
C985 C986 1.398 . S
C986 H974 0.950 . S
C986 C985 1.398 . S
C986 C987 1.391 . S
C987 H975 0.950 . S
C987 C983 1.393 . S
C987 C986 1.391 . S
H988 C996 0.950 . S
H989 C1001 0.950 . S
H990 C998 0.950 . S
H991 C1000 0.950 . S
H992 C1002 0.950 . S
H993 C1004 0.950 . S
H994 C1006 0.950 . S
H995 C1007 0.950 . S
C996 H988 0.950 . S
C996 C997 1.386 . S
C996 C998 1.391 . S
C997 C996 1.386 . S
C997 C1001 1.393 . S
C998 H990 0.950 . S
C998 C996 1.391 . S
C998 C999 1.400 . S
C999 C998 1.400 . S
C999 C1000 1.398 . S
C999 C1005 1.491 . S
C1000 H991 0.950 . S
C1000 C999 1.398 . S
C1000 C1001 1.391 . S
C1001 H989 0.950 . S
C1001 C997 1.393 . S
C1001 C1000 1.391 . S
C1002 H992 0.950 . S
C1002 C1003 1.386 . S
C1002 C1004 1.391 . S
C1003 C1002 1.386 . S
C1003 C1007 1.393 . S
C1004 H993 0.950 . S
C1004 C1002 1.391 . S
C1004 C1005 1.400 . S
C1005 C999 1.491 . S
C1005 C1004 1.400 . S
C1005 C1006 1.398 . S
C1006 H994 0.950 . S
C1006 C1005 1.398 . S
C1006 C1007 1.391 . S
C1007 H995 0.950 . S
C1007 C1003 1.393 . S
C1007 C1006 1.391 . S
H1008 C1016 0.950 . S
H1009 C1021 0.950 . S
H1010 C1018 0.950 . S
H1011 C1020 0.950 . S
H1012 C1022 0.950 . S
H1013 C1024 0.950 . S
H1014 C1026 0.950 . S
H1015 C1027 0.950 . S
C1016 H1008 0.950 . S
C1016 C1017 1.386 . S
C1016 C1018 1.391 1_554 S
C1017 C1016 1.386 . S
C1017 C1021 1.393 . S
C1018 H1010 0.950 . S
C1018 C1016 1.391 1_556 S
C1018 C1019 1.400 . S
C1019 C1018 1.400 . S
C1019 C1020 1.398 1_556 S
C1019 C1025 1.491 . S
C1020 H1011 0.950 . S
C1020 C1019 1.398 1_554 S
C1020 C1021 1.391 . S
C1021 H1009 0.950 . S
C1021 C1017 1.393 . S
C1021 C1020 1.391 . S
C1022 H1012 0.950 . S
C1022 C1023 1.386 . S
C1022 C1024 1.391 . S
C1023 C1022 1.386 . S
C1023 C1027 1.393 . S
C1024 H1013 0.950 . S
C1024 C1022 1.391 . S
C1024 C1025 1.400 . S
C1025 C1019 1.491 . S
C1025 C1024 1.400 . S
C1025 C1026 1.398 . S
C1026 H1014 0.950 . S
C1026 C1025 1.398 . S
C1026 C1027 1.391 . S
C1027 H1015 0.950 . S
C1027 C1023 1.393 . S
C1027 C1026 1.391 . S
H1028 C1036 0.950 . S
H1029 C1041 0.950 . S
H1030 C1038 0.950 . S
H1031 C1040 0.950 . S
H1032 C1042 0.950 . S
H1033 C1044 0.950 . S
H1034 C1046 0.950 . S
H1035 C1047 0.950 . S
C1036 H1028 0.950 . S
C1036 C1037 1.386 . S
C1036 C1038 1.391 . S
C1037 C1036 1.386 . S
C1037 C1041 1.393 . S
C1038 H1030 0.950 . S
C1038 C1036 1.391 . S
C1038 C1039 1.400 1_554 S
C1039 C1038 1.400 1_556 S
C1039 C1040 1.398 . S
C1039 C1045 1.491 . S
C1040 H1031 0.950 . S
C1040 C1039 1.398 . S
C1040 C1041 1.391 1_556 S
C1041 H1029 0.950 . S
C1041 C1037 1.393 . S
C1041 C1040 1.391 1_554 S
C1042 H1032 0.950 . S
C1042 C1043 1.386 . S
C1042 C1044 1.391 . S
C1043 C1042 1.386 . S
C1043 C1047 1.393 . S
C1044 H1033 0.950 . S
C1044 C1042 1.391 . S
C1044 C1045 1.400 . S
C1045 C1039 1.491 . S
C1045 C1044 1.400 . S
C1045 C1046 1.398 . S
C1046 H1034 0.950 . S
C1046 C1045 1.398 . S
C1046 C1047 1.391 . S
C1047 H1035 0.950 . S
C1047 C1043 1.393 . S
C1047 C1046 1.391 . S
H1048 C1056 0.950 . S
H1049 C1061 0.950 . S
H1050 C1058 0.950 . S
H1051 C1060 0.950 . S
H1052 C1062 0.950 . S
H1053 C1064 0.950 . S
H1054 C1066 0.950 . S
H1055 C1067 0.950 . S
C1056 H1048 0.950 . S
C1056 C1057 1.386 . S
C1056 C1058 1.391 1_554 S
C1057 C1056 1.386 . S
C1057 C1061 1.393 . S
C1058 H1050 0.950 . S
C1058 C1056 1.391 1_556 S
C1058 C1059 1.400 . S
C1059 C1058 1.400 . S
C1059 C1060 1.398 1_556 S
C1059 C1065 1.491 . S
C1060 H1051 0.950 . S
C1060 C1059 1.398 1_554 S
C1060 C1061 1.391 . S
C1061 H1049 0.950 . S
C1061 C1057 1.393 . S
C1061 C1060 1.391 . S
C1062 H1052 0.950 . S
C1062 C1063 1.386 . S
C1062 C1064 1.391 . S
C1063 C1062 1.386 . S
C1063 C1067 1.393 . S
C1064 H1053 0.950 . S
C1064 C1062 1.391 . S
C1064 C1065 1.400 . S
C1065 C1059 1.491 . S
C1065 C1064 1.400 . S
C1065 C1066 1.398 . S
C1066 H1054 0.950 . S
C1066 C1065 1.398 . S
C1066 C1067 1.391 . S
C1067 H1055 0.950 . S
C1067 C1063 1.393 . S
C1067 C1066 1.391 . S
H1068 C1076 0.950 1_556 S
H1069 C1081 0.950 . S
H1070 C1078 0.950 . S
H1071 C1080 0.950 . S
H1072 C1082 0.950 . S
H1073 C1084 0.950 . S
H1074 C1086 0.950 . S
H1075 C1087 0.950 . S
C1076 H1068 0.950 1_554 S
C1076 C1077 1.386 . S
C1076 C1078 1.391 1_554 S
C1077 C1076 1.386 . S
C1077 C1081 1.393 . S
C1078 H1070 0.950 . S
C1078 C1076 1.391 1_556 S
C1078 C1079 1.400 . S
C1079 C1078 1.400 . S
C1079 C1080 1.398 1_556 S
C1079 C1085 1.491 . S
C1080 H1071 0.950 . S
C1080 C1079 1.398 1_554 S
C1080 C1081 1.391 . S
C1081 H1069 0.950 . S
C1081 C1077 1.393 . S
C1081 C1080 1.391 . S
C1082 H1072 0.950 . S
C1082 C1083 1.386 . S
C1082 C1084 1.391 . S
C1083 C1082 1.386 . S
C1083 C1087 1.393 . S
C1084 H1073 0.950 . S
C1084 C1082 1.391 . S
C1084 C1085 1.400 . S
C1085 C1079 1.491 . S
C1085 C1084 1.400 . S
C1085 C1086 1.398 . S
C1086 H1074 0.950 . S
C1086 C1085 1.398 . S
C1086 C1087 1.391 . S
C1087 H1075 0.950 . S
C1087 C1083 1.393 . S
C1087 C1086 1.391 . S
H1088 C1096 0.950 . S
H1089 C1101 0.950 . S
H1090 C1098 0.950 . S
H1091 C1100 0.950 . S
H1092 C1102 0.950 . S
H1093 C1104 0.950 . S
H1094 C1106 0.950 . S
H1095 C1107 0.950 . S
C1096 H1088 0.950 . S
C1096 C1097 1.386 . S
C1096 C1098 1.391 . S
C1097 C1096 1.386 . S
C1097 C1101 1.393 . S
C1098 H1090 0.950 . S
C1098 C1096 1.391 . S
C1098 C1099 1.400 . S
C1099 C1098 1.400 . S
C1099 C1100 1.398 . S
C1099 C1105 1.491 . S
C1100 H1091 0.950 . S
C1100 C1099 1.398 . S
C1100 C1101 1.391 . S
C1101 H1089 0.950 . S
C1101 C1097 1.393 . S
C1101 C1100 1.391 . S
C1102 H1092 0.950 . S
C1102 C1103 1.386 . S
C1102 C1104 1.391 . S
C1103 C1102 1.386 . S
C1103 C1107 1.393 . S
C1104 H1093 0.950 . S
C1104 C1102 1.391 . S
C1104 C1105 1.400 . S
C1105 C1099 1.491 . S
C1105 C1104 1.400 . S
C1105 C1106 1.398 . S
C1106 H1094 0.950 . S
C1106 C1105 1.398 . S
C1106 C1107 1.391 . S
C1107 H1095 0.950 . S
C1107 C1103 1.393 . S
C1107 C1106 1.391 . S
H1108 C1116 0.950 . S
H1109 C1121 0.950 . S
H1110 C1118 0.950 . S
H1111 C1120 0.950 . S
H1112 C1122 0.950 . S
H1113 C1124 0.950 . S
H1114 C1126 0.950 . S
H1115 C1127 0.950 . S
C1116 H1108 0.950 . S
C1116 C1117 1.386 . S
C1116 C1118 1.391 . S
C1117 C1116 1.386 . S
C1117 C1121 1.393 . S
C1118 H1110 0.950 . S
C1118 C1116 1.391 . S
C1118 C1119 1.400 . S
C1119 C1118 1.400 . S
C1119 C1120 1.398 . S
C1119 C1125 1.491 . S
C1120 H1111 0.950 . S
C1120 C1119 1.398 . S
C1120 C1121 1.391 . S
C1121 H1109 0.950 . S
C1121 C1117 1.393 . S
C1121 C1120 1.391 . S
C1122 H1112 0.950 . S
C1122 C1123 1.386 . S
C1122 C1124 1.391 . S
C1123 C1122 1.386 . S
C1123 C1127 1.393 . S
C1124 H1113 0.950 . S
C1124 C1122 1.391 . S
C1124 C1125 1.400 . S
C1125 C1119 1.491 . S
C1125 C1124 1.400 . S
C1125 C1126 1.398 . S
C1126 H1114 0.950 . S
C1126 C1125 1.398 . S
C1126 C1127 1.391 . S
C1127 H1115 0.950 . S
C1127 C1123 1.393 . S
C1127 C1126 1.391 . S
H1128 C1136 0.950 . S
H1129 C1141 0.950 . S
H1130 C1138 0.950 . S
H1131 C1140 0.950 . S
H1132 C1142 0.950 . S
H1133 C1144 0.950 . S
H1134 C1146 0.950 . S
H1135 C1147 0.950 . S
C1136 H1128 0.950 . S
C1136 C1137 1.386 . S
C1136 C1138 1.391 . S
C1137 C1136 1.386 . S
C1137 C1141 1.393 . S
C1138 H1130 0.950 . S
C1138 C1136 1.391 . S
C1138 C1139 1.400 . S
C1139 C1138 1.400 . S
C1139 C1140 1.398 . S
C1139 C1145 1.491 . S
C1140 H1131 0.950 . S
C1140 C1139 1.398 . S
C1140 C1141 1.391 . S
C1141 H1129 0.950 . S
C1141 C1137 1.393 . S
C1141 C1140 1.391 . S
C1142 H1132 0.950 . S
C1142 C1143 1.386 . S
C1142 C1144 1.391 . S
C1143 C1142 1.386 . S
C1143 C1147 1.393 . S
C1144 H1133 0.950 . S
C1144 C1142 1.391 . S
C1144 C1145 1.400 . S
C1145 C1139 1.491 . S
C1145 C1144 1.400 . S
C1145 C1146 1.398 . S
C1146 H1134 0.950 . S
C1146 C1145 1.398 . S
C1146 C1147 1.391 . S
C1147 H1135 0.950 . S
C1147 C1143 1.393 . S
C1147 C1146 1.391 . S
H1148 C1156 0.950 . S
H1149 C1161 0.950 . S
H1150 C1158 0.950 . S
H1151 C1160 0.950 . S
H1152 C1162 0.950 . S
H1153 C1164 0.950 . S
H1154 C1166 0.950 . S
H1155 C1167 0.950 . S
C1156 H1148 0.950 . S
C1156 C1157 1.386 . S
C1156 C1158 1.391 . S
C1157 C1156 1.386 . S
C1157 C1161 1.393 . S
C1158 H1150 0.950 . S
C1158 C1156 1.391 . S
C1158 C1159 1.400 . S
C1159 C1158 1.400 . S
C1159 C1160 1.398 . S
C1159 C1165 1.491 . S
C1160 H1151 0.950 . S
C1160 C1159 1.398 . S
C1160 C1161 1.391 . S
C1161 H1149 0.950 . S
C1161 C1157 1.393 . S
C1161 C1160 1.391 . S
C1162 H1152 0.950 . S
C1162 C1163 1.386 . S
C1162 C1164 1.391 . S
C1163 C1162 1.386 . S
C1163 C1167 1.393 . S
C1164 H1153 0.950 . S
C1164 C1162 1.391 . S
C1164 C1165 1.400 . S
C1165 C1159 1.491 . S
C1165 C1164 1.400 . S
C1165 C1166 1.398 . S
C1166 H1154 0.950 . S
C1166 C1165 1.398 . S
C1166 C1167 1.391 . S
C1167 H1155 0.950 . S
C1167 C1163 1.393 . S
C1167 C1166 1.391 . S
H1168 C1176 0.950 . S
H1169 C1181 0.950 . S
H1170 C1178 0.950 . S
H1171 C1180 0.950 . S
H1172 C1182 0.950 . S
H1173 C1184 0.950 . S
H1174 C1186 0.950 . S
H1175 C1187 0.950 . S
C1176 H1168 0.950 . S
C1176 C1177 1.386 . S
C1176 C1178 1.391 . S
C1177 C1176 1.386 . S
C1177 C1181 1.393 . S
C1178 H1170 0.950 . S
C1178 C1176 1.391 . S
C1178 C1179 1.400 . S
C1179 C1178 1.400 . S
C1179 C1180 1.398 . S
C1179 C1185 1.491 . S
C1180 H1171 0.950 . S
C1180 C1179 1.398 . S
C1180 C1181 1.391 . S
C1181 H1169 0.950 . S
C1181 C1177 1.393 . S
C1181 C1180 1.391 . S
C1182 H1172 0.950 . S
C1182 C1183 1.386 . S
C1182 C1184 1.391 . S
C1183 C1182 1.386 . S
C1183 C1187 1.393 . S
C1184 H1173 0.950 . S
C1184 C1182 1.391 . S
C1184 C1185 1.400 . S
C1185 C1179 1.491 . S
C1185 C1184 1.400 . S
C1185 C1186 1.398 . S
C1186 H1174 0.950 . S
C1186 C1185 1.398 . S
C1186 C1187 1.391 . S
C1187 H1175 0.950 . S
C1187 C1183 1.393 . S
C1187 C1186 1.391 . S
H1188 C1196 0.950 . S
H1189 C1201 0.950 . S
H1190 C1198 0.950 . S
H1191 C1200 0.950 . S
H1192 C1202 0.950 . S
H1193 C1204 0.950 . S
H1194 C1206 0.950 . S
H1195 C1207 0.950 . S
C1196 H1188 0.950 . S
C1196 C1197 1.386 . S
C1196 C1198 1.391 . S
C1197 C1196 1.386 . S
C1197 C1201 1.393 . S
C1198 H1190 0.950 . S
C1198 C1196 1.391 . S
C1198 C1199 1.400 . S
C1199 C1198 1.400 . S
C1199 C1200 1.398 . S
C1199 C1205 1.491 . S
C1200 H1191 0.950 . S
C1200 C1199 1.398 . S
C1200 C1201 1.391 . S
C1201 H1189 0.950 . S
C1201 C1197 1.393 . S
C1201 C1200 1.391 . S
C1202 H1192 0.950 . S
C1202 C1203 1.386 . S
C1202 C1204 1.391 . S
C1203 C1202 1.386 . S
C1203 C1207 1.393 . S
C1204 H1193 0.950 . S
C1204 C1202 1.391 . S
C1204 C1205 1.400 . S
C1205 C1199 1.491 . S
C1205 C1204 1.400 . S
C1205 C1206 1.398 . S
C1206 H1194 0.950 . S
C1206 C1205 1.398 . S
C1206 C1207 1.391 . S
C1207 H1195 0.950 . S
C1207 C1203 1.393 . S
C1207 C1206 1.391 . S
H1208 C1216 0.950 . S
H1209 C1221 0.950 . S
H1210 C1218 0.950 . S
H1211 C1220 0.950 . S
H1212 C1222 0.950 . S
H1213 C1224 0.950 . S
H1214 C1226 0.950 . S
H1215 C1227 0.950 . S
C1216 H1208 0.950 . S
C1216 C1217 1.386 . S
C1216 C1218 1.391 . S
C1217 C1216 1.386 . S
C1217 C1221 1.393 . S
C1218 H1210 0.950 . S
C1218 C1216 1.391 . S
C1218 C1219 1.400 . S
C1219 C1218 1.400 . S
C1219 C1220 1.398 . S
C1219 C1225 1.491 . S
C1220 H1211 0.950 . S
C1220 C1219 1.398 . S
C1220 C1221 1.391 . S
C1221 H1209 0.950 . S
C1221 C1217 1.393 . S
C1221 C1220 1.391 . S
C1222 H1212 0.950 . S
C1222 C1223 1.386 . S
C1222 C1224 1.391 . S
C1223 C1222 1.386 . S
C1223 C1227 1.393 . S
C1224 H1213 0.950 . S
C1224 C1222 1.391 . S
C1224 C1225 1.400 . S
C1225 C1219 1.491 . S
C1225 C1224 1.400 . S
C1225 C1226 1.398 . S
C1226 H1214 0.950 . S
C1226 C1225 1.398 . S
C1226 C1227 1.391 . S
C1227 H1215 0.950 . S
C1227 C1223 1.393 . S
C1227 C1226 1.391 . S
H1228 C1236 0.950 . S
H1229 C1241 0.950 . S
H1230 C1238 0.950 . S
H1231 C1240 0.950 . S
H1232 C1242 0.950 . S
H1233 C1244 0.950 . S
H1234 C1246 0.950 . S
H1235 C1247 0.950 . S
C1236 H1228 0.950 . S
C1236 C1237 1.386 . S
C1236 C1238 1.391 . S
C1237 C1236 1.386 . S
C1237 C1241 1.393 . S
C1238 H1230 0.950 . S
C1238 C1236 1.391 . S
C1238 C1239 1.400 . S
C1239 C1238 1.400 . S
C1239 C1240 1.398 . S
C1239 C1245 1.491 . S
C1240 H1231 0.950 . S
C1240 C1239 1.398 . S
C1240 C1241 1.391 . S
C1241 H1229 0.950 . S
C1241 C1237 1.393 . S
C1241 C1240 1.391 . S
C1242 H1232 0.950 . S
C1242 C1243 1.386 . S
C1242 C1244 1.391 . S
C1243 C1242 1.386 . S
C1243 C1247 1.393 . S
C1244 H1233 0.950 . S
C1244 C1242 1.391 . S
C1244 C1245 1.400 . S
C1245 C1239 1.491 . S
C1245 C1244 1.400 . S
C1245 C1246 1.398 . S
C1246 H1234 0.950 . S
C1246 C1245 1.398 . S
C1246 C1247 1.391 . S
C1247 H1235 0.950 . S
C1247 C1243 1.393 . S
C1247 C1246 1.391 . S
H1248 C1256 0.950 . S
H1249 C1261 0.950 . S
H1250 C1258 0.950 . S
H1251 C1260 0.950 . S
H1252 C1262 0.950 . S
H1253 C1264 0.950 . S
H1254 C1266 0.950 . S
H1255 C1267 0.950 . S
C1256 H1248 0.950 . S
C1256 C1257 1.386 . S
C1256 C1258 1.391 . S
C1257 C1256 1.386 . S
C1257 C1261 1.393 . S
C1258 H1250 0.950 . S
C1258 C1256 1.391 . S
C1258 C1259 1.400 . S
C1259 C1258 1.400 . S
C1259 C1260 1.398 . S
C1259 C1265 1.491 . S
C1260 H1251 0.950 . S
C1260 C1259 1.398 . S
C1260 C1261 1.391 . S
C1261 H1249 0.950 . S
C1261 C1257 1.393 . S
C1261 C1260 1.391 . S
C1262 H1252 0.950 . S
C1262 C1263 1.386 . S
C1262 C1264 1.391 . S
C1263 C1262 1.386 . S
C1263 C1267 1.393 . S
C1264 H1253 0.950 . S
C1264 C1262 1.391 . S
C1264 C1265 1.400 . S
C1265 C1259 1.491 . S
C1265 C1264 1.400 . S
C1265 C1266 1.398 . S
C1266 H1254 0.950 . S
C1266 C1265 1.398 . S
C1266 C1267 1.391 . S
C1267 H1255 0.950 . S
C1267 C1263 1.393 . S
C1267 C1266 1.391 . S
H1268 C1276 0.950 . S
H1269 C1281 0.950 . S
H1270 C1278 0.950 . S
H1271 C1280 0.950 . S
H1272 C1282 0.950 . S
H1273 C1284 0.950 . S
H1274 C1286 0.950 . S
H1275 C1287 0.950 . S
C1276 H1268 0.950 . S
C1276 C1277 1.386 . S
C1276 C1278 1.391 . S
C1277 C1276 1.386 . S
C1277 C1281 1.393 . S
C1278 H1270 0.950 . S
C1278 C1276 1.391 . S
C1278 C1279 1.400 . S
C1279 C1278 1.400 . S
C1279 C1280 1.398 . S
C1279 C1285 1.491 . S
C1280 H1271 0.950 . S
C1280 C1279 1.398 . S
C1280 C1281 1.391 . S
C1281 H1269 0.950 . S
C1281 C1277 1.393 . S
C1281 C1280 1.391 . S
C1282 H1272 0.950 . S
C1282 C1283 1.386 . S
C1282 C1284 1.391 . S
C1283 C1282 1.386 . S
C1283 C1287 1.393 . S
C1284 H1273 0.950 . S
C1284 C1282 1.391 . S
C1284 C1285 1.400 . S
C1285 C1279 1.491 . S
C1285 C1284 1.400 . S
C1285 C1286 1.398 . S
C1286 H1274 0.950 . S
C1286 C1285 1.398 . S
C1286 C1287 1.391 . S
C1287 H1275 0.950 . S
C1287 C1283 1.393 . S
C1287 C1286 1.391 . S
H1288 C1296 0.950 . S
H1289 C1301 0.950 . S
H1290 C1298 0.950 . S
H1291 C1300 0.950 . S
H1292 C1302 0.950 . S
H1293 C1304 0.950 . S
H1294 C1306 0.950 . S
H1295 C1307 0.950 . S
C1296 H1288 0.950 . S
C1296 C1297 1.386 . S
C1296 C1298 1.391 . S
C1297 C1296 1.386 . S
C1297 C1301 1.393 . S
C1298 H1290 0.950 . S
C1298 C1296 1.391 . S
C1298 C1299 1.400 . S
C1299 C1298 1.400 . S
C1299 C1300 1.398 . S
C1299 C1305 1.491 . S
C1300 H1291 0.950 . S
C1300 C1299 1.398 . S
C1300 C1301 1.391 . S
C1301 H1289 0.950 . S
C1301 C1297 1.393 . S
C1301 C1300 1.391 . S
C1302 H1292 0.950 . S
C1302 C1303 1.386 . S
C1302 C1304 1.391 . S
C1303 C1302 1.386 . S
C1303 C1307 1.393 . S
C1304 H1293 0.950 . S
C1304 C1302 1.391 . S
C1304 C1305 1.400 . S
C1305 C1299 1.491 . S
C1305 C1304 1.400 . S
C1305 C1306 1.398 . S
C1306 H1294 0.950 . S
C1306 C1305 1.398 . S
C1306 C1307 1.391 . S
C1307 H1295 0.950 . S
C1307 C1303 1.393 . S
C1307 C1306 1.391 . S
H1308 C1316 0.950 . S
H1309 C1321 0.950 . S
H1310 C1318 0.950 . S
H1311 C1320 0.950 . S
H1312 C1322 0.950 . S
H1313 C1324 0.950 . S
H1314 C1326 0.950 . S
H1315 C1327 0.950 . S
C1316 H1308 0.950 . S
C1316 C1317 1.386 . S
C1316 C1318 1.391 . S
C1317 C1316 1.386 . S
C1317 C1321 1.393 . S
C1318 H1310 0.950 . S
C1318 C1316 1.391 . S
C1318 C1319 1.400 . S
C1319 C1318 1.400 . S
C1319 C1320 1.398 . S
C1319 C1325 1.491 . S
C1320 H1311 0.950 . S
C1320 C1319 1.398 . S
C1320 C1321 1.391 . S
C1321 H1309 0.950 . S
C1321 C1317 1.393 . S
C1321 C1320 1.391 . S
C1322 H1312 0.950 . S
C1322 C1323 1.386 . S
C1322 C1324 1.391 . S
C1323 C1322 1.386 . S
C1323 C1327 1.393 . S
C1324 H1313 0.950 . S
C1324 C1322 1.391 . S
C1324 C1325 1.400 . S
C1325 C1319 1.491 . S
C1325 C1324 1.400 . S
C1325 C1326 1.398 . S
C1326 H1314 0.950 . S
C1326 C1325 1.398 . S
C1326 C1327 1.391 . S
C1327 H1315 0.950 . S
C1327 C1323 1.393 . S
C1327 C1326 1.391 . S
C537 C8 1.631 . S
C543 C206 1.624 . S
C557 C239 1.627 . S
C563 C41 1.619 . S
C577 C140 1.629 . S
C583 C74 1.633 . S
C597 C173 1.600 . S
C603 C107 1.598 . S
C617 C272 1.602 . S
C623 C470 1.610 . S
C637 C305 1.599 . S
C643 C503 1.598 . S
C657 C404 1.633 . S
C663 C338 1.633 . S
C677 C371 1.608 . S
C683 C437 1.617 . S
C697 N269 2.105 . S
C703 N5 2.105 . S
C717 N302 2.114 . S
C723 N38 2.114 . S
C737 N335 2.105 . S
C743 N71 2.105 . S
C757 N368 2.119 . S
C763 N104 2.119 . S
C777 N401 2.120 . S
C783 N137 2.120 . S
C797 N434 2.106 . S
C803 N170 2.106 . S
C817 N203 2.104 . S
C823 N467 2.104 . S
C837 N236 2.120 . S
C843 N500 2.120 . S
C857 C314 0.704 . S
C863 C28 0.650 . S
C877 C347 0.701 . S
C883 C61 0.652 . S
C897 C380 0.685 . S
C903 C94 0.663 . S
C917 C281 0.703 . S
C923 C127 0.650 . S
C937 C160 0.662 . S
C943 C512 0.687 . S
C957 C193 0.691 . S
C963 C413 0.653 . S
C977 C226 0.699 . S
C983 C446 0.653 . S
C997 C259 0.671 . S
C1003 C479 0.675 . S
C1017 C50 0.665 . S
C1023 C292 0.692 . S
C1037 C83 0.690 . S
C1043 C325 0.660 . S
C1057 C116 0.665 . S
C1063 C358 0.692 . S
C1077 C17 0.650 . S
C1083 C391 0.699 . S
C1097 C248 0.670 . S
C1103 C424 0.675 . S
C1117 C149 0.699 . S
C1123 C457 0.653 . S
C1137 C182 0.689 . S
C1143 C490 0.675 . S
C1157 C523 0.656 . S
C1163 C215 0.695 . S
C1177 N80 0.647 . S
C1183 N14 0.626 . S
C1197 N113 0.574 . S
C1203 N47 0.656 . S
C1217 N146 0.662 . S
C1223 N212 0.585 . S
C1237 N245 0.574 . S
C1243 N179 0.634 . S
C1257 N278 0.643 . S
C1263 N344 0.572 . S
C1277 N377 0.626 . S
C1283 N311 0.647 . S
C1297 N410 0.592 . S
C1303 N476 0.662 . S
C1317 N443 0.573 . S
C1323 N509 0.654 . S
