# Generated by pormake.
# Topology wjl, (5)-cn, num edge types: 1
# Building blocks:
#     Node 0, Type 0, BuildingBlock: BEQFEK_clean_sbu_0, # of connection points: 5
#     Node 1, Type 0, BuildingBlock: BEQFEK_clean_sbu_0, # of connection points: 5
#     Node 2, Type 0, BuildingBlock: BEQFEK_clean_sbu_0, # of connection points: 5
#     Node 3, Type 0, BuildingBlock: BEQFEK_clean_sbu_0, # of connection points: 5
#     Node 4, Type 0, BuildingBlock: BEQFEK_clean_sbu_0, # of connection points: 5
#     Node 5, Type 0, BuildingBlock: BEQFEK_clean_sbu_0, # of connection points: 5
#     Node 6, Type 0, BuildingBlock: BEQFEK_clean_sbu_0, # of connection points: 5
#     Node 7, Type 0, BuildingBlock: BEQFEK_clean_sbu_0, # of connection points: 5
#     Node 8, Type 0, BuildingBlock: BEQFEK_clean_sbu_0, # of connection points: 5
#     Node 9, Type 0, BuildingBlock: BEQFEK_clean_sbu_0, # of connection points: 5
#     Node 10, Type 0, BuildingBlock: BEQFEK_clean_sbu_0, # of connection points: 5
#     Node 11, Type 0, BuildingBlock: BEQFEK_clean_sbu_0, # of connection points: 5
#     Edge 12, Type (0, 0), BuildingBlock: UVAHIK_clean_linker_0, # of connection points: 2
#     Edge 13, Type (0, 0), BuildingBlock: UVAHIK_clean_linker_0, # of connection points: 2
#     Edge 14, Type (0, 0), BuildingBlock: UVAHIK_clean_linker_0, # of connection points: 2
#     Edge 15, Type (0, 0), BuildingBlock: UVAHIK_clean_linker_0, # of connection points: 2
#     Edge 16, Type (0, 0), BuildingBlock: UVAHIK_clean_linker_0, # of connection points: 2
#     Edge 17, Type (0, 0), BuildingBlock: UVAHIK_clean_linker_0, # of connection points: 2
#     Edge 18, Type (0, 0), BuildingBlock: UVAHIK_clean_linker_0, # of connection points: 2
#     Edge 19, Type (0, 0), BuildingBlock: UVAHIK_clean_linker_0, # of connection points: 2
#     Edge 20, Type (0, 0), BuildingBlock: UVAHIK_clean_linker_0, # of connection points: 2
#     Edge 21, Type (0, 0), BuildingBlock: UVAHIK_clean_linker_0, # of connection points: 2
#     Edge 22, Type (0, 0), BuildingBlock: UVAHIK_clean_linker_0, # of connection points: 2
#     Edge 23, Type (0, 0), BuildingBlock: UVAHIK_clean_linker_0, # of connection points: 2
#     Edge 24, Type (0, 0), BuildingBlock: UVAHIK_clean_linker_0, # of connection points: 2
#     Edge 25, Type (0, 0), BuildingBlock: UVAHIK_clean_linker_0, # of connection points: 2
#     Edge 26, Type (0, 0), BuildingBlock: UVAHIK_clean_linker_0, # of connection points: 2
#     Edge 27, Type (0, 0), BuildingBlock: UVAHIK_clean_linker_0, # of connection points: 2
#     Edge 28, Type (0, 0), BuildingBlock: UVAHIK_clean_linker_0, # of connection points: 2
#     Edge 29, Type (0, 0), BuildingBlock: UVAHIK_clean_linker_0, # of connection points: 2
#     Edge 30, Type (0, 0), BuildingBlock: UVAHIK_clean_linker_0, # of connection points: 2
#     Edge 31, Type (0, 0), BuildingBlock: UVAHIK_clean_linker_0, # of connection points: 2
#     Edge 32, Type (0, 0), BuildingBlock: UVAHIK_clean_linker_0, # of connection points: 2
#     Edge 33, Type (0, 0), BuildingBlock: UVAHIK_clean_linker_0, # of connection points: 2
#     Edge 34, Type (0, 0), BuildingBlock: UVAHIK_clean_linker_0, # of connection points: 2
#     Edge 35, Type (0, 0), BuildingBlock: UVAHIK_clean_linker_0, # of connection points: 2
#     Edge 36, Type (0, 0), BuildingBlock: UVAHIK_clean_linker_0, # of connection points: 2
#     Edge 37, Type (0, 0), BuildingBlock: UVAHIK_clean_linker_0, # of connection points: 2
#     Edge 38, Type (0, 0), BuildingBlock: UVAHIK_clean_linker_0, # of connection points: 2
#     Edge 39, Type (0, 0), BuildingBlock: UVAHIK_clean_linker_0, # of connection points: 2
#     Edge 40, Type (0, 0), BuildingBlock: UVAHIK_clean_linker_0, # of connection points: 2
#     Edge 41, Type (0, 0), BuildingBlock: UVAHIK_clean_linker_0, # of connection points: 2
# Relax obj value: 0.490
# Max RMSD: 0.234
# Mean RMSD: 0.234
data_MOF--net-wjl--node1-BEQFEK_clean_sbu_0--edge1-UVAHIK_clean_linker_0
_symmetry_space_group_name_H-M    P1
_symmetry_Int_Tables_number       1
_symmetry_cell_setting            triclinic
loop_
_symmetry_equiv_pos_as_xyz
'x, y, z'
_cell_length_a     34.491341
_cell_length_b     34.500697
_cell_length_c     102.87969
_cell_angle_alpha  89.925481
_cell_angle_beta   90.014388
_cell_angle_gamma 120.0253
loop_
_atom_site_label
_atom_site_type_symbol
_atom_site_fract_x
_atom_site_fract_y
_atom_site_fract_z
_atom_type_partial_charge
Co0 Co 0.41783 0.13971 0.36297 0.0
Co1 Co 0.33496 0.09677 0.34442 0.0
C2 C 0.40626 0.18972 0.34029 0.0
O3 O 0.42651 0.18651 0.35022 0.0
O4 O 0.36936 0.15685 0.33646 0.0
C5 C 0.51132 0.1863 0.36601 0.0
O6 O 0.50925 0.18751 0.35328 0.0
C7 C 0.26226 0.07236 0.32562 0.0
C8 C 0.22281 0.99901 0.32816 0.0
C9 C 0.2246 0.03406 0.32104 0.0
N10 N 0.28225 0.06004 0.33463 0.0
N11 N 0.25787 0.01632 0.33633 0.0
C12 C 0.27623 0.12017 0.32279 0.0
H13 H 0.30251 0.13324 0.31516 0.0
H14 H 0.2474 0.1235 0.3195 0.0
H15 H 0.29037 0.14071 0.33167 0.0
C16 C 0.42694 0.06379 0.35362 0.0
N17 N 0.40452 0.08636 0.35425 0.0
N18 N 0.37199 0.07005 0.34562 0.0
C19 C 0.37425 0.03792 0.33873 0.0
C20 C 0.40878 0.03257 0.34371 0.0
C21 C 0.468 0.07532 0.36141 0.0
H22 H 0.46559 0.08751 0.37117 0.0
H23 H 0.49776 0.10198 0.3563 0.0
H24 H 0.47286 0.04612 0.36257 0.0
O25 O 0.36998 0.12967 0.37521 0.0
O26 O 0.31246 0.10232 0.36161 0.0
H27 H 0.31511 0.98373 0.33054 0.0
H28 H 0.36291 0.00393 0.32023 0.0
C29 C 0.34552 0.01446 0.3272 0.0
H30 H 0.33543 0.03647 0.32217 0.0
H31 H 0.26512 0.99833 0.34312 0.0
O32 O 0.47517 0.16538 0.37248 0.0
C33 C 0.3287 0.11497 0.37293 0.0
Co34 Co 0.27595 0.41725 0.53215 0.0
Co35 Co 0.23207 0.34365 0.51075 0.0
C36 C 0.21551 0.41959 0.51114 0.0
O37 O 0.23813 0.43342 0.52158 0.0
O38 O 0.2111 0.38524 0.50521 0.0
C39 C 0.32571 0.50795 0.53926 0.0
O40 O 0.31786 0.51291 0.52705 0.0
C41 C 0.20686 0.29268 0.48597 0.0
C42 C 0.19094 0.22605 0.49331 0.0
C43 C 0.19335 0.24916 0.48206 0.0
N44 N 0.21268 0.29504 0.49894 0.0
N45 N 0.20267 0.25499 0.50324 0.0
C46 C 0.21203 0.33072 0.47769 0.0
H47 H 0.20157 0.35159 0.48313 0.0
H48 H 0.24772 0.35216 0.47497 0.0
H49 H 0.19167 0.31825 0.4687 0.0
C50 C 0.35865 0.42515 0.52105 0.0
N51 N 0.31375 0.40576 0.52154 0.0
N52 N 0.2958 0.37472 0.51251 0.0
C53 C 0.32901 0.37349 0.50592 0.0
C54 C 0.36995 0.40542 0.51111 0.0
C55 C 0.38974 0.46482 0.52911 0.0
H56 H 0.37957 0.45819 0.53947 0.0
H57 H 0.3874 0.49422 0.52587 0.0
H58 H 0.42514 0.47354 0.52823 0.0
O59 O 0.23769 0.36469 0.54293 0.0
O60 O 0.20232 0.31474 0.52737 0.0
H61 H 0.29609 0.30767 0.49771 0.0
H62 H 0.35309 0.34255 0.49228 0.0
C63 C 0.32174 0.34219 0.49494 0.0
H64 H 0.30929 0.35215 0.48636 0.0
H65 H 0.20446 0.24756 0.51298 0.0
O66 O 0.31137 0.46873 0.54372 0.0
C67 C 0.20828 0.32562 0.53931 0.0
Co68 Co 0.89095 0.26515 0.70679 0.0
Co69 Co 0.92761 0.23448 0.68366 0.0
C70 C 0.83331 0.20709 0.68417 0.0
O71 O 0.84018 0.2259 0.69522 0.0
O72 O 0.86529 0.20885 0.67755 0.0
C73 C 0.84683 0.31127 0.71216 0.0
O74 O 0.85178 0.31592 0.69949 0.0
C75 C 0.95212 0.20186 0.66026 0.0
C76 C 0.02539 0.2342 0.66286 0.0
C77 C 0.99094 0.20715 0.65445 0.0
N78 N 0.96359 0.22567 0.67135 0.0
N79 N 0.00729 0.24417 0.67295 0.0
C80 C 0.90465 0.17175 0.65611 0.0
H81 H 0.89263 0.19163 0.65074 0.0
H82 H 0.90163 0.14426 0.64983 0.0
H83 H 0.88304 0.15681 0.66476 0.0
C84 C 0.96236 0.35456 0.69795 0.0
N85 N 0.93953 0.30955 0.69718 0.0
N86 N 0.95245 0.297 0.68675 0.0
C87 C 0.98197 0.33387 0.68013 0.0
C88 C 0.98957 0.37141 0.68711 0.0
C89 C 0.95662 0.38114 0.70848 0.0
H90 H 0.93269 0.39173 0.70519 0.0
H91 H 0.98889 0.41183 0.71063 0.0
H92 H 0.94377 0.36087 0.71747 0.0
O93 O 0.90965 0.22854 0.71651 0.0
O94 O 0.92905 0.20196 0.69958 0.0
H95 H 0.00968 0.36382 0.66146 0.0
H96 H 0.97746 0.30328 0.66156 0.0
C97 C 0.00132 0.33331 0.66715 0.0
H98 H 0.03275 0.3325 0.66863 0.0
H99 H 0.02478 0.26408 0.68088 0.0
O100 O 0.86408 0.29142 0.71822 0.0
C101 C 0.92302 0.20322 0.71176 0.0
Co102 Co 0.57193 0.87701 0.85888 0.0
Co103 Co 0.65582 0.91461 0.84072 0.0
C104 C 0.57646 0.82535 0.83583 0.0
O105 O 0.55738 0.82966 0.84586 0.0
O106 O 0.61504 0.85629 0.83225 0.0
C107 C 0.47854 0.83561 0.86445 0.0
O108 O 0.47433 0.82337 0.85221 0.0
C109 C 0.72578 0.93414 0.82115 0.0
C110 C 0.77387 0.00508 0.82546 0.0
C111 C 0.76644 0.97035 0.81716 0.0
N112 N 0.70967 0.9476 0.831 0.0
N113 N 0.73913 0.98968 0.83372 0.0
C114 C 0.705 0.88638 0.81689 0.0
H115 H 0.67929 0.87955 0.80936 0.0
H116 H 0.73055 0.87909 0.8129 0.0
H117 H 0.68844 0.86371 0.82524 0.0
C118 C 0.57294 0.95885 0.85016 0.0
N119 N 0.5917 0.9328 0.85069 0.0
N120 N 0.62546 0.94801 0.84248 0.0
C121 C 0.62822 0.98359 0.8361 0.0
C122 C 0.59535 0.99191 0.84089 0.0
C123 C 0.53071 0.94838 0.85715 0.0
H124 H 0.53311 0.94061 0.86748 0.0
H125 H 0.50225 0.91854 0.85264 0.0
H126 H 0.5236 0.97629 0.85668 0.0
O127 O 0.61707 0.87854 0.87074 0.0
O128 O 0.676 0.90376 0.85774 0.0
H129 H 0.64804 0.0252 0.81879 0.0
H130 H 0.66565 0.98388 0.81936 0.0
C131 C 0.66014 0.00769 0.8252 0.0
H132 H 0.69259 0.03344 0.82933 0.0
H133 H 0.73549 0.00784 0.84124 0.0
O134 O 0.51743 0.85938 0.86924 0.0
C135 C 0.65765 0.8895 0.86877 0.0
Co136 Co 0.72845 0.6266 0.03551 0.0
Co137 Co 0.77054 0.69794 0.01344 0.0
C138 C 0.78309 0.62009 0.01326 0.0
O139 O 0.7626 0.60818 0.02408 0.0
O140 O 0.78785 0.65443 0.00725 0.0
C141 C 0.67367 0.53632 0.04103 0.0
O142 O 0.67435 0.53563 0.02826 0.0
C143 C 0.78955 0.74345 0.98814 0.0
C144 C 0.81857 0.81401 -0.00578 0.0
C145 C 0.80713 0.78682 0.98332 0.0
N146 N 0.79056 0.74535 0.00119 0.0
N147 N 0.80842 0.78764 0.00475 0.0
C148 C 0.76913 0.70039 0.98073 0.0
H149 H 0.74844 0.67165 0.98724 0.0
H150 H 0.74814 0.70104 0.97265 0.0
H151 H 0.79618 0.69567 0.97659 0.0
C152 C 0.64561 0.62338 0.02628 0.0
N153 N 0.69023 0.64029 0.02581 0.0
N154 N 0.70717 0.66936 0.0162 0.0
C155 C 0.67332 0.67089 0.01006 0.0
C156 C 0.63333 0.64175 0.01623 0.0
C157 C 0.61492 0.5879 0.03562 0.0
H158 H 0.63171 0.59238 0.04513 0.0
H159 H 0.60585 0.55456 0.03164 0.0
H160 H 0.58356 0.58876 0.03712 0.0
O161 O 0.77026 0.67864 0.04585 0.0
O162 O 0.80391 0.72681 0.02969 0.0
H163 H 0.70825 0.73295 -0.00037 0.0
H164 H 0.64842 0.70239 -0.00302 0.0
C165 C 0.67859 0.69918 -0.00156 0.0
H166 H 0.68329 0.68335 0.98968 0.0
H167 H 0.81296 0.79839 0.01439 0.0
O168 O 0.69404 0.57385 0.04683 0.0
C169 C 0.80007 0.71687 0.04172 0.0
Co170 Co 0.12232 0.76223 0.20506 0.0
Co171 Co 0.09053 0.80146 0.18281 0.0
C172 C 0.18449 0.827 0.18422 0.0
O173 O 0.17547 0.80465 0.19473 0.0
O174 O 0.15392 0.82807 0.17759 0.0
C175 C 0.16444 0.71377 0.20867 0.0
O176 O 0.16335 0.71671 0.19595 0.0
C177 C 0.06971 0.83852 0.15955 0.0
C178 C 0.9972 0.81148 0.16251 0.0
C179 C 0.03197 0.83645 0.15394 0.0
N180 N 0.05724 0.81494 0.17071 0.0
N181 N 0.01406 0.79961 0.17251 0.0
C182 C 0.11728 0.86504 0.15506 0.0
H183 H 0.12654 0.84254 0.14994 0.0
H184 H 0.12224 0.89263 0.14847 0.0
H185 H 0.13981 0.87974 0.16354 0.0
C186 C 0.0513 0.67701 0.19394 0.0
N187 N 0.07524 0.72202 0.19423 0.0
N188 N 0.06421 0.73819 0.1842 0.0
C189 C 0.03461 0.70376 0.1768 0.0
C190 C 0.02516 0.66399 0.18284 0.0
C191 C 0.0549 0.64691 0.20376 0.0
H192 H 0.06547 0.66393 0.2133 0.0
H193 H 0.07993 0.63793 0.20038 0.0
H194 H 0.02247 0.61543 0.20491 0.0
O195 O 0.10235 0.79581 0.21573 0.0
O196 O 0.08594 0.82806 0.19958 0.0
H197 H 0.98681 0.7125 0.16596 0.0
H198 H 0.00557 0.67884 0.15787 0.0
C199 C 0.01643 0.70875 0.16409 0.0
H200 H 0.04205 0.73894 0.15889 0.0
H201 H 0.99596 0.78027 0.18047 0.0
O202 O 0.1456 0.73025 0.21556 0.0
C203 C 0.08969 0.82259 0.21167 0.0
Co204 Co 0.88156 0.63143 0.44389 0.0
Co205 Co 0.91612 0.71019 0.46369 0.0
C206 C 0.82208 0.63795 0.46443 0.0
O207 O 0.82931 0.62139 0.45432 0.0
O208 O 0.85348 0.67227 0.47001 0.0
C209 C 0.83425 0.53899 0.43868 0.0
O210 O 0.8226 0.53801 0.45089 0.0
C211 C 0.94847 0.76322 0.48769 0.0
C212 C 0.99525 0.83012 0.47962 0.0
C213 C 0.97906 0.807 0.49119 0.0
N214 N 0.94708 0.76077 0.47465 0.0
N215 N 0.97451 0.80101 0.46989 0.0
C216 C 0.92407 0.72345 0.49641 0.0
H217 H 0.8946 0.72363 0.50066 0.0
H218 H 0.91216 0.69194 0.49085 0.0
H219 H 0.94607 0.72488 0.5045 0.0
C220 C 0.95482 0.62208 0.4554 0.0
N221 N 0.93058 0.64272 0.45458 0.0
N222 N 0.94654 0.67657 0.46276 0.0
C223 C 0.98208 0.67875 0.46898 0.0
C224 C 0.9884 0.64425 0.46455 0.0
C225 C 0.9433 0.57982 0.44827 0.0
H226 H 0.94126 0.58489 0.4377 0.0
H227 H 0.91004 0.55295 0.45158 0.0
H228 H 0.96755 0.56828 0.45001 0.0
O229 O 0.89838 0.68197 0.432 0.0
O230 O 0.91581 0.73594 0.44644 0.0
H231 H 0.0162 0.74715 0.47532 0.0
H232 H 0.04371 0.71624 0.47976 0.0
C233 C 0.01075 0.71418 0.47857 0.0
H234 H 0.99364 0.70606 0.48813 0.0
H235 H 0.98025 0.80826 0.46 0.0
O236 O 0.8613 0.57642 0.43349 0.0
C237 C 0.9101 0.7223 0.43474 0.0
Co238 Co 0.28848 0.87715 0.6182 0.0
Co239 Co 0.24227 0.91439 0.6363 0.0
C240 C 0.22541 0.82324 0.6403 0.0
O241 O 0.25012 0.8286 0.6305 0.0
O242 O 0.21917 0.85462 0.64427 0.0
C243 C 0.34117 0.83644 0.61604 0.0
O244 O 0.33568 0.83399 0.62871 0.0
C245 C 0.19013 0.93609 0.65457 0.0
C246 C 0.2197 0.0086 0.651 0.0
C247 C 0.18787 0.97356 0.65845 0.0
N248 N 0.22259 0.94898 0.64557 0.0
N249 N 0.23937 0.99213 0.64327 0.0
C250 C 0.15906 0.88816 0.6581 0.0
H251 H 0.1742 0.87826 0.66603 0.0
H252 H 0.12606 0.88291 0.66131 0.0
H253 H 0.15379 0.86637 0.6496 0.0
C254 C 0.36999 0.95621 0.62808 0.0
N255 N 0.32517 0.93079 0.62724 0.0
N256 N 0.3064 0.94497 0.63569 0.0
C257 C 0.33904 0.97864 0.64267 0.0
C258 C 0.38038 0.98722 0.63794 0.0
C259 C 0.40212 0.94786 0.62047 0.0
H260 H 0.38859 0.93538 0.61063 0.0
H261 H 0.40709 0.92239 0.6256 0.0
H262 H 0.43523 0.97855 0.61949 0.0
O263 O 0.25118 0.88557 0.6054 0.0
O264 O 0.21551 0.90751 0.61878 0.0
H265 H 0.32871 0.0301 0.65042 0.0
H266 H 0.35867 0.01356 0.66109 0.0
C267 C 0.33087 0.0009 0.65398 0.0
H268 H 0.29904 0.97727 0.6589 0.0
H269 H 0.26423 0.01026 0.63642 0.0
O270 O 0.3245 0.85539 0.60929 0.0
C271 C 0.222 0.89707 0.60747 0.0
Co272 Co 0.37677 0.27399 0.76692 0.0
Co273 Co 0.30688 0.24471 0.78939 0.0
C274 C 0.37496 0.21821 0.7902 0.0
O275 O 0.38801 0.23611 0.77907 0.0
O276 O 0.34381 0.22013 0.79624 0.0
C277 C 0.46738 0.31937 0.76167 0.0
O278 O 0.46711 0.32492 0.7743 0.0
C279 C 0.25701 0.22599 0.81407 0.0
C280 C 0.1979 0.22993 0.80762 0.0
C281 C 0.2173 0.22259 0.81842 0.0
N282 N 0.26099 0.23546 0.8013 0.0
N283 N 0.22539 0.23737 0.79749 0.0
C284 C 0.28928 0.2176 0.82159 0.0
H285 H 0.29476 0.19268 0.81637 0.0
H286 H 0.32197 0.24912 0.82224 0.0
H287 H 0.27675 0.20448 0.83147 0.0
C288 C 0.39394 0.36392 0.77496 0.0
N289 N 0.37189 0.31898 0.77598 0.0
N290 N 0.34321 0.30679 0.78567 0.0
C291 C 0.34673 0.34373 0.79127 0.0
C292 C 0.379 0.38106 0.78464 0.0
C293 C 0.4277 0.39015 0.76467 0.0
H294 H 0.4206 0.36997 0.75569 0.0
H295 H 0.46161 0.39943 0.76823 0.0
H296 H 0.42746 0.42153 0.76244 0.0
O297 O 0.32171 0.2363 0.75702 0.0
O298 O 0.27421 0.21112 0.77364 0.0
H299 H 0.28641 0.33085 0.80077 0.0
H300 H 0.33633 0.37719 0.80758 0.0
C301 C 0.322 0.34331 0.80327 0.0
H302 H 0.32321 0.32019 0.81054 0.0
H303 H 0.22009 0.24413 0.78798 0.0
O304 O 0.43027 0.29951 0.75563 0.0
C305 C 0.28252 0.21147 0.76158 0.0
Co306 Co 0.12625 0.4312 0.94828 0.0
Co307 Co 0.09149 0.34438 0.96493 0.0
C308 C 0.18125 0.42284 0.9698 0.0
O309 O 0.17488 0.44338 0.96052 0.0
O310 O 0.15141 0.38325 0.97299 0.0
C311 C 0.16447 0.52508 0.9455 0.0
O312 O 0.17123 0.52436 0.95805 0.0
C313 C 0.05761 0.28188 0.98695 0.0
C314 C 0.01457 0.21781 0.97685 0.0
C315 C 0.02839 0.23659 0.98906 0.0
N316 N 0.06075 0.28937 0.97408 0.0
N317 N 0.03554 0.25086 0.96809 0.0
C318 C 0.07877 0.31822 -0.00311 0.0
H319 H 0.10895 0.31877 0.00087 0.0
H320 H 0.08909 0.35131 -0.00756 0.0
H321 H 0.05523 0.3119 0.00504 0.0
C322 C 0.04314 0.42563 0.95785 0.0
N323 N 0.07154 0.40968 0.95715 0.0
N324 N 0.05642 0.37337 0.96435 0.0
C325 C 0.01753 0.36514 0.96992 0.0
C326 C 0.00787 0.39794 0.96597 0.0
C327 C 0.05219 0.46885 0.95176 0.0
H328 H 0.06094 0.4693 0.94137 0.0
H329 H 0.08112 0.49685 0.95674 0.0
H330 H 0.02355 0.47469 0.95254 0.0
O331 O 0.12138 0.38778 0.93508 0.0
O332 O 0.09951 0.32726 0.94724 0.0
H333 H 0.98609 0.29517 0.97436 0.0
H334 H 0.95577 0.3219 0.98012 0.0
C335 C 0.98958 0.32622 0.97863 0.0
H336 H 0.00633 0.33182 0.9882 0.0
H337 H 0.03147 0.2474 0.95803 0.0
O338 O 0.14411 0.48833 0.93933 0.0
C339 C 0.11065 0.34691 0.93628 0.0
Co340 Co 0.72233 0.15263 0.1161 0.0
Co341 Co 0.77264 0.11899 0.13415 0.0
C342 C 0.78971 0.21134 0.13648 0.0
O343 O 0.76286 0.20388 0.1271 0.0
O344 O 0.79695 0.18089 0.14073 0.0
C345 C 0.6724 0.19625 0.11305 0.0
O346 O 0.68275 0.20483 0.12541 0.0
C347 C 0.80861 0.09211 0.15643 0.0
C348 C 0.81849 0.03999 0.14709 0.0
C349 C 0.82329 0.06185 0.15876 0.0
N350 N 0.79537 0.08787 0.14396 0.0
N351 N 0.80169 0.05689 0.13844 0.0
C352 C 0.80963 0.12635 0.16558 0.0
H353 H 0.82303 0.15893 0.16055 0.0
H354 H 0.77504 0.11577 0.1688 0.0
H355 H 0.83091 0.13099 0.17418 0.0
C356 C 0.64352 0.07565 0.12792 0.0
N357 N 0.68806 0.10135 0.12639 0.0
N358 N 0.70862 0.08724 0.13421 0.0
C359 C 0.67753 0.05207 0.14111 0.0
C360 C 0.63522 0.04347 0.13731 0.0
C361 C 0.61025 0.08509 0.12141 0.0
H362 H 0.61807 0.09118 0.11089 0.0
H363 H 0.61286 0.11575 0.12571 0.0
H364 H 0.5753 0.05765 0.12262 0.0
O365 O 0.75747 0.1412 0.10318 0.0
O366 O 0.79587 0.1219 0.11638 0.0
H367 H 0.71054 0.01626 0.14681 0.0
H368 H 0.65754 0.99761 0.15484 0.0
C369 C 0.68822 0.02731 0.15112 0.0
H370 H 0.70636 0.05013 0.1593 0.0
H371 H 0.79433 0.04716 0.12874 0.0
O372 O 0.6844 0.17198 0.10694 0.0
C373 C 0.78697 0.12994 0.10504 0.0
Co374 Co 0.61977 0.74501 0.27076 0.0
Co375 Co 0.69413 0.77508 0.29191 0.0
C376 C 0.63252 0.8096 0.29281 0.0
O377 O 0.61564 0.78921 0.2822 0.0
O378 O 0.66326 0.80612 0.29858 0.0
C379 C 0.52849 0.70611 0.2673 0.0
O380 O 0.53194 0.7098 0.28001 0.0
C381 C 0.7605 0.81287 0.31297 0.0
C382 C 0.79264 0.77145 0.3115 0.0
C383 C 0.79305 0.80574 0.31864 0.0
N384 N 0.74122 0.78334 0.30324 0.0
N385 N 0.76121 0.75932 0.30225 0.0
C386 C 0.75072 0.84971 0.31574 0.0
H387 H 0.72152 0.83708 0.32238 0.0
H388 H 0.77997 0.87889 0.32025 0.0
H389 H 0.74225 0.86082 0.30659 0.0
C390 C 0.59678 0.65577 0.28066 0.0
N391 N 0.62284 0.70059 0.28061 0.0
N392 N 0.65177 0.71292 0.29022 0.0
C393 C 0.64339 0.67628 0.29714 0.0
C394 C 0.60849 0.63875 0.29123 0.0
C395 C 0.56283 0.62976 0.2704 0.0
H396 H 0.57287 0.64796 0.261 0.0
H397 H 0.52992 0.6254 0.27331 0.0
H398 H 0.55915 0.59612 0.26916 0.0
O399 O 0.67231 0.77637 0.25959 0.0
O400 O 0.72419 0.8023 0.27505 0.0
H401 H 0.69317 0.67233 0.30852 0.0
H402 H 0.63997 0.65062 0.31648 0.0
C403 C 0.66432 0.67763 0.31001 0.0
H404 H 0.67618 0.71045 0.31479 0.0
H405 H 0.75318 0.73451 0.29529 0.0
O406 O 0.5637 0.7183 0.26059 0.0
C407 C 0.71297 0.79968 0.26314 0.0
C408 C 0.4326 0.97559 0.34614 0.0
C409 C 0.42805 0.00632 0.3383 0.0
C410 C 0.45573 0.95472 0.34158 0.0
C411 C 0.53746 0.96694 0.31591 0.0
H412 H 0.50463 0.84645 0.32656 0.0
C413 C 0.59483 0.85481 0.29056 0.0
C414 C 0.61462 0.83654 0.29859 0.0
C415 C 0.57511 0.87786 0.29594 0.0
C416 C 0.51432 0.88029 0.32363 0.0
H417 H 0.44319 0.03905 0.31953 0.0
H418 H 0.48073 0.00039 0.31115 0.0
H419 H 0.46103 0.87972 0.33436 0.0
H420 H 0.62975 0.82835 0.31852 0.0
H421 H 0.59364 0.86766 0.328 0.0
H422 H 0.58938 0.96619 0.30465 0.0
C423 C 0.46797 0.99332 0.32099 0.0
C424 C 0.4895 0.89949 0.32812 0.0
C425 C 0.44564 0.01483 0.32567 0.0
C426 C 0.61487 0.84228 0.31212 0.0
C427 C 0.59413 0.86448 0.31753 0.0
C428 C 0.56163 0.94735 0.31123 0.0
C429 C 0.47417 0.96366 0.32897 0.0
C430 C 0.50063 0.94306 0.32428 0.0
C431 C 0.57397 0.88223 0.30946 0.0
C432 C 0.55019 0.9039 0.31504 0.0
H433 H 0.41931 0.96868 0.35594 0.0
H434 H 0.46022 0.93263 0.3481 0.0
H435 H 0.54791 0.00094 0.31299 0.0
H436 H 0.59431 0.85102 0.2801 0.0
H437 H 0.55956 0.89115 0.28956 0.0
C438 C 0.4259 0.43316 0.49305 0.0
C439 C 0.41539 0.42013 0.50609 0.0
C440 C 0.47019 0.45291 0.48872 0.0
C441 C 0.5825 0.52477 0.49994 0.0
H442 H 0.62067 0.48618 0.46962 0.0
C443 C 0.76793 0.61491 0.48306 0.0
C444 C 0.77608 0.61575 0.46967 0.0
C445 C 0.72421 0.58982 0.4879 0.0
C446 C 0.61056 0.49801 0.47798 0.0
H447 H 0.4419 0.41437 0.52461 0.0
H448 H 0.51986 0.45061 0.51716 0.0
H449 H 0.54332 0.44268 0.47699 0.0
H450 H 0.74501 0.59323 0.45079 0.0
H451 H 0.66907 0.55191 0.45905 0.0
H452 H 0.64875 0.58123 0.50066 0.0
C453 C 0.49385 0.44563 0.51033 0.0
C454 C 0.5663 0.47273 0.48224 0.0
C455 C 0.44945 0.42503 0.51457 0.0
C456 C 0.73974 0.59268 0.46118 0.0
C457 C 0.69615 0.56854 0.46596 0.0
C458 C 0.62657 0.55062 0.49553 0.0
C459 C 0.50464 0.46046 0.49743 0.0
C460 C 0.55191 0.48597 0.49323 0.0
C461 C 0.68775 0.56585 0.47941 0.0
C462 C 0.64118 0.53776 0.48442 0.0
H463 H 0.40019 0.42986 0.48635 0.0
H464 H 0.47782 0.46417 0.47873 0.0
H465 H 0.57191 0.53583 0.50839 0.0
H466 H 0.79546 0.63218 0.48981 0.0
H467 H 0.71927 0.5883 0.49832 0.0
C468 C 0.16956 0.76856 0.65626 0.0
C469 C 0.20331 0.77928 0.64696 0.0
C470 C 0.14747 0.72602 0.66198 0.0
C471 C 0.15762 0.62581 0.66796 0.0
H472 H 0.02786 0.56288 0.66921 0.0
C473 C 0.00156 0.43392 0.67248 0.0
C474 C 0.01552 0.41866 0.68314 0.0
C475 C 0.02482 0.47914 0.66905 0.0
C476 C 0.0641 0.58003 0.6689 0.0
H477 H 0.24108 0.75408 0.63662 0.0
H478 H 0.20262 0.6803 0.64654 0.0
H479 H 0.06864 0.64047 0.66173 0.0
H480 H 0.06404 0.43774 0.69864 0.0
H481 H 0.10508 0.5172 0.69265 0.0
H482 H 0.15307 0.56505 0.67479 0.0
C483 C 0.19335 0.70472 0.64948 0.0
C484 C 0.08744 0.62458 0.66476 0.0
C485 C 0.21516 0.74697 0.64372 0.0
C486 C 0.05301 0.44903 0.69033 0.0
C487 C 0.07644 0.49428 0.68688 0.0
C488 C 0.13429 0.58135 0.67215 0.0
C489 C 0.15902 0.69361 0.65858 0.0
C490 C 0.13443 0.64772 0.66407 0.0
C491 C 0.06246 0.50984 0.67623 0.0
C492 C 0.08727 0.55779 0.67249 0.0
H493 H 0.15967 0.79271 0.65897 0.0
H494 H 0.12133 0.71846 0.66904 0.0
H495 H 0.19386 0.64295 0.66764 0.0
H496 H 0.97237 0.4109 0.66691 0.0
H497 H 0.01357 0.49001 0.6607 0.0
C498 C 0.39926 0.19167 0.80965 0.0
C499 C 0.39752 0.19571 0.79611 0.0
C500 C 0.42361 0.17313 0.81507 0.0
C501 C 0.51169 0.14466 0.80634 0.0
H502 H 0.47094 0.07247 0.83764 0.0
C503 C 0.56707 0.01939 0.82281 0.0
C504 C 0.58116 0.02286 0.83576 0.0
C505 C 0.54894 0.04517 0.81833 0.0
C506 C 0.48286 0.09297 0.82896 0.0
H507 H 0.41814 0.18181 0.77761 0.0
H508 H 0.4584 0.14765 0.78694 0.0
H509 H 0.42878 0.10651 0.82917 0.0
H510 H 0.58804 0.05598 0.85417 0.0
H511 H 0.55478 0.10024 0.84643 0.0
H512 H 0.56447 0.12895 0.80586 0.0
C513 C 0.44287 0.16043 0.79348 0.0
C514 C 0.45887 0.11265 0.82412 0.0
C515 C 0.41934 0.17966 0.7881 0.0
C516 C 0.57745 0.05295 0.84413 0.0
C517 C 0.55841 0.07804 0.83973 0.0
C518 C 0.53509 0.12427 0.81105 0.0
C519 C 0.44605 0.15758 0.80704 0.0
C520 C 0.47269 0.13839 0.81265 0.0
C521 C 0.54366 0.07403 0.82683 0.0
C522 C 0.5207 0.09803 0.82234 0.0
H523 H 0.38296 0.20405 0.81605 0.0
H524 H 0.42562 0.17196 0.82555 0.0
H525 H 0.5242 0.16523 0.7977 0.0
H526 H 0.56858 0.99558 0.81628 0.0
H527 H 0.53733 0.04121 0.80838 0.0
C528 C 0.57404 0.60327 -0.00046 0.0
C529 C 0.58742 0.62554 0.0115 0.0
C530 C 0.52915 0.58231 -0.00423 0.0
C531 C 0.42213 0.57863 0.00176 0.0
H532 H 0.37059 0.45891 0.98744 0.0
C533 C 0.23898 0.42197 0.98459 0.0
C534 C 0.22493 0.44569 0.9766 0.0
C535 C 0.28193 0.44365 0.99007 0.0
C536 C 0.38436 0.49209 -0.00843 0.0
H537 H 0.56563 0.64556 0.02864 0.0
H538 H 0.48685 0.609 0.02207 0.0
H539 H 0.44901 0.49875 -0.00586 0.0
H540 H 0.24436 0.51113 0.96851 0.0
H541 H 0.31865 0.54856 0.97803 0.0
H542 H 0.35749 0.57201 -0.00085 0.0
C543 C 0.51089 0.60757 0.01561 0.0
C544 C 0.4294 0.51515 -0.00477 0.0
C545 C 0.55579 0.62833 0.01939 0.0
C546 C 0.25409 0.49173 0.97457 0.0
C547 C 0.29665 0.51336 0.98011 0.0
C548 C 0.37716 0.55568 -0.00198 0.0
C549 C 0.49695 0.58353 0.00388 0.0
C550 C 0.44887 0.55882 0.00025 0.0
C551 C 0.31131 0.48951 0.98778 0.0
C552 C 0.35791 0.51234 -0.00723 0.0
H553 H 0.59803 0.60068 -0.00666 0.0
H554 H 0.51953 0.56469 0.98658 0.0
H555 H 0.43622 0.61228 0.00557 0.0
H556 H 0.21729 0.38649 0.98635 0.0
H557 H 0.29226 0.42453 -0.00396 0.0
C558 C 0.01213 0.60434 0.16698 0.0
C559 C 0.99803 0.61804 0.17794 0.0
C560 C 0.98877 0.55967 0.16301 0.0
C561 C 0.87984 0.45613 0.16564 0.0
H562 H 0.94744 0.39877 0.15554 0.0
C563 C 0.84725 0.26892 0.15148 0.0
C564 C 0.81266 0.25652 0.14235 0.0
C565 C 0.86943 0.31228 0.15662 0.0
C566 C 0.92813 0.41421 0.15846 0.0
H567 H 0.94874 0.597 0.19329 0.0
H568 H 0.90751 0.5186 0.18637 0.0
H569 H 0.98702 0.47664 0.16275 0.0
H570 H 0.77386 0.27981 0.13164 0.0
H571 H 0.81245 0.35493 0.14057 0.0
H572 H 0.82097 0.39373 0.16137 0.0
C573 C 0.93636 0.54224 0.18078 0.0
C574 C 0.95076 0.45891 0.16243 0.0
C575 C 0.95988 0.58689 0.18476 0.0
C576 C 0.80035 0.28814 0.13864 0.0
C577 C 0.82226 0.33119 0.14382 0.0
C578 C 0.85723 0.41153 0.16161 0.0
C579 C 0.95087 0.52807 0.16995 0.0
C580 C 0.92685 0.48041 0.16597 0.0
C581 C 0.85715 0.34383 0.15281 0.0
C582 C 0.88114 0.39023 0.15788 0.0
H583 H 0.04181 0.628 0.16168 0.0
H584 H 0.00038 0.54984 0.15453 0.0
H585 H 0.86052 0.47187 0.16825 0.0
H586 H 0.85753 0.24536 0.15454 0.0
H587 H 0.89604 0.32107 0.16361 0.0
C588 C 0.18537 0.4713 0.51422 0.0
C589 C 0.19439 0.44451 0.50591 0.0
C590 C 0.16636 0.49583 0.5094 0.0
C591 C 0.10565 0.50536 0.48073 0.0
H592 H 0.13649 0.61899 0.49676 0.0
C593 C 0.04634 0.62254 0.46031 0.0
C594 C 0.02087 0.63129 0.46922 0.0
C595 C 0.07196 0.6039 0.46452 0.0
C596 C 0.12768 0.58732 0.49222 0.0
H597 H 0.19102 0.42271 0.486 0.0
H598 H 0.15951 0.46698 0.47743 0.0
H599 H 0.17257 0.57763 0.50425 0.0
H600 H 0.0046 0.63074 0.48957 0.0
H601 H 0.05092 0.5996 0.49704 0.0
H602 H 0.0616 0.51605 0.46848 0.0
C603 C 0.16578 0.46806 0.48777 0.0
C604 C 0.148 0.56334 0.49655 0.0
C605 C 0.18405 0.44278 0.49265 0.0
C606 C 0.02401 0.62427 0.48253 0.0
C607 C 0.05033 0.60639 0.48678 0.0
C608 C 0.08603 0.52979 0.47624 0.0
C609 C 0.15668 0.49497 0.49609 0.0
C610 C 0.13679 0.52168 0.491 0.0
C611 C 0.07343 0.59485 0.47776 0.0
C612 C 0.09651 0.57069 0.48204 0.0
H613 H 0.19257 0.47299 0.52452 0.0
H614 H 0.15882 0.51508 0.5162 0.0
H615 H 0.09544 0.47316 0.47635 0.0
H616 H 0.04516 0.62867 0.45003 0.0
H617 H 0.09 0.59582 0.45742 0.0
C618 C 0.45973 0.04822 0.6356 0.0
C619 C 0.4253 0.01639 0.64346 0.0
C620 C 0.5039 0.07067 0.64006 0.0
C621 C 0.57565 0.05914 0.66503 0.0
H622 H 0.66297 0.17879 0.65359 0.0
C623 C 0.7508 0.16681 0.68775 0.0
C624 C 0.78712 0.18343 0.67907 0.0
C625 C 0.70696 0.14596 0.68311 0.0
C626 C 0.63887 0.14522 0.65675 0.0
H627 H 0.40923 0.98412 0.6623 0.0
H628 H 0.48566 0.02548 0.67052 0.0
H629 H 0.58491 0.14624 0.64685 0.0
H630 H 0.80611 0.19127 0.65873 0.0
H631 H 0.72884 0.15574 0.65059 0.0
H632 H 0.62966 0.05926 0.67538 0.0
C633 C 0.47921 0.03209 0.6607 0.0
C634 C 0.59417 0.12643 0.65288 0.0
C635 C 0.43521 0.00901 0.65612 0.0
C636 C 0.77871 0.1786 0.66563 0.0
C637 C 0.73471 0.15858 0.66098 0.0
C638 C 0.62009 0.0783 0.66909 0.0
C639 C 0.51441 0.06226 0.6526 0.0
C640 C 0.5619 0.08307 0.65696 0.0
C641 C 0.69857 0.14212 0.66971 0.0
C642 C 0.65203 0.1214 0.66496 0.0
H643 H 0.45269 0.05438 0.62579 0.0
H644 H 0.52989 0.09318 0.63345 0.0
H645 H 0.55227 0.02528 0.6681 0.0
H646 H 0.75626 0.16991 0.69816 0.0
H647 H 0.67956 0.13363 0.69001 0.0
C648 C 0.56733 0.77879 0.81605 0.0
C649 C 0.55376 0.78255 0.82864 0.0
C650 C 0.54615 0.73763 0.80956 0.0
C651 C 0.44495 0.62304 0.8113 0.0
H652 H 0.51789 0.59072 0.79043 0.0
C653 C 0.36992 0.44759 0.78832 0.0
C654 C 0.39745 0.42853 0.78802 0.0
C655 C 0.38782 0.49271 0.79157 0.0
C656 C 0.49705 0.59896 0.79633 0.0
H657 H 0.50754 0.74606 0.8443 0.0
H658 H 0.47227 0.67452 0.83333 0.0
H659 H 0.55105 0.66537 0.79957 0.0
H660 H 0.46467 0.44055 0.79093 0.0
H661 H 0.49573 0.51853 0.79723 0.0
H662 H 0.39187 0.55577 0.80889 0.0
C663 C 0.49799 0.70334 0.82819 0.0
C664 C 0.51593 0.64222 0.80139 0.0
C665 C 0.51857 0.74446 0.83456 0.0
C666 C 0.443 0.45491 0.79101 0.0
C667 C 0.46077 0.4997 0.7945 0.0
C668 C 0.42631 0.57957 0.80645 0.0
C669 C 0.51143 0.69924 0.8156 0.0
C670 C 0.49035 0.65463 0.80915 0.0
C671 C 0.43346 0.51931 0.79483 0.0
C672 C 0.45229 0.56667 0.79907 0.0
H673 H 0.59419 0.80763 0.81121 0.0
H674 H 0.55701 0.736 0.79981 0.0
H675 H 0.42379 0.63156 0.81695 0.0
H676 H 0.33469 0.42767 0.78593 0.0
H677 H 0.36585 0.50667 0.79147 0.0
C678 C 0.9455 0.41295 0.96153 0.0
C679 C 0.97176 0.4057 0.97054 0.0
C680 C 0.91781 0.42927 0.96564 0.0
C681 C 0.86087 0.44525 -0.00673 0.0
H682 H 0.89391 0.55954 0.97726 0.0
C683 C 0.80968 0.5653 0.01588 0.0
C684 C 0.80134 0.59302 0.00773 0.0
C685 C 0.82643 0.53913 0.0108 0.0
C686 C 0.8834 0.52727 0.98167 0.0
H687 H 0.98696 0.40574 0.99095 0.0
H688 H 0.93718 0.43297 -0.00175 0.0
H689 H 0.92663 0.51585 0.96931 0.0
H690 H 0.80332 0.61457 0.98783 0.0
H691 H 0.83092 0.5675 0.97883 0.0
H692 H 0.81704 0.45595 0.00549 0.0
C693 C 0.93862 0.42674 0.988 0.0
C694 C 0.90235 0.50235 0.97713 0.0
C695 C 0.96694 0.41111 0.98384 0.0
C696 C 0.80983 0.59382 -0.00564 0.0
C697 C 0.82584 0.56693 0.98923 0.0
C698 C 0.84121 0.46976 -0.00233 0.0
C699 C 0.91517 0.43754 0.97887 0.0
C700 C 0.89174 0.46147 0.98301 0.0
C701 C 0.83449 0.53929 -0.0026 0.0
C702 C 0.85282 0.51153 -0.00792 0.0
H703 H 0.94822 0.40821 0.95123 0.0
H704 H 0.89958 0.43685 0.95845 0.0
H705 H 0.85202 0.41365 -0.0021 0.0
H706 H 0.80384 0.56425 0.02625 0.0
H707 H 0.83369 0.51932 0.01748 0.0
C708 C 0.58376 0.01389 0.1564 0.0
C709 C 0.59132 0.01195 0.14309 0.0
C710 C 0.54039 0.98974 0.16145 0.0
C711 C 0.4225 0.90272 0.15303 0.0
H712 H 0.39364 0.96582 0.17898 0.0
C713 C 0.24136 0.85893 0.1663 0.0
C714 C 0.2313 0.85045 0.1796 0.0
C715 C 0.28563 0.87763 0.16198 0.0
C716 C 0.40135 0.94785 0.17176 0.0
H717 H 0.56077 0.98095 0.1248 0.0
H718 H 0.48487 0.94048 0.13336 0.0
H719 H 0.47066 0.99745 0.17156 0.0
H720 H 0.25968 0.85628 0.19882 0.0
H721 H 0.33698 0.89025 0.19127 0.0
H722 H 0.35236 0.85412 0.15293 0.0
C723 C 0.51202 0.95983 0.14005 0.0
C724 C 0.44556 0.96563 0.16759 0.0
C725 C 0.55547 0.98334 0.13508 0.0
C726 C 0.2664 0.86232 0.1885 0.0
C727 C 0.31061 0.88182 0.18421 0.0
C728 C 0.37812 0.88542 0.15703 0.0
C729 C 0.50367 0.96372 0.15324 0.0
C730 C 0.45682 0.94333 0.15816 0.0
C731 C 0.32053 0.88905 0.17091 0.0
C732 C 0.36724 0.90785 0.16643 0.0
H733 H 0.61104 0.03568 0.16277 0.0
H734 H 0.53555 0.99257 0.17173 0.0
H735 H 0.42982 0.8841 0.14594 0.0
H736 H 0.21494 0.84993 0.15923 0.0
H737 H 0.29265 0.88321 0.15167 0.0
C738 C 0.39939 0.24423 0.32569 0.0
C739 C 0.42604 0.23299 0.33337 0.0
C740 C 0.41793 0.28665 0.31998 0.0
C741 C 0.52347 0.38315 0.30938 0.0
H742 H 0.46645 0.453 0.31694 0.0
C743 C 0.61275 0.57306 0.2998 0.0
C744 C 0.58682 0.5916 0.2956 0.0
C745 C 0.59221 0.52838 0.30378 0.0
C746 C 0.48245 0.4338 0.31452 0.0
H747 H 0.49324 0.25658 0.34068 0.0
H748 H 0.5256 0.33012 0.3305 0.0
H749 H 0.43141 0.37539 0.32417 0.0
H750 H 0.51911 0.5784 0.29257 0.0
H751 H 0.4833 0.5 0.29882 0.0
H752 H 0.57419 0.44103 0.29957 0.0
C753 C 0.49041 0.30633 0.32898 0.0
C754 C 0.46235 0.38937 0.31869 0.0
C755 C 0.4718 0.26434 0.33486 0.0
C756 C 0.54 0.56475 0.29551 0.0
C757 C 0.51945 0.51995 0.29931 0.0
C758 C 0.54327 0.42738 0.30503 0.0
C759 C 0.46355 0.3181 0.32165 0.0
C760 C 0.48297 0.36386 0.31629 0.0
C761 C 0.54526 0.50114 0.30351 0.0
C762 C 0.52332 0.45349 0.30769 0.0
H763 H 0.36402 0.22079 0.3244 0.0
H764 H 0.39663 0.29498 0.31431 0.0
H765 H 0.53981 0.36397 0.30733 0.0
H766 H 0.64894 0.59295 0.29988 0.0
H767 H 0.61319 0.51536 0.30717 0.0
C768 C 0.78017 0.45723 0.43632 0.0
C769 C 0.81402 0.49744 0.43093 0.0
C770 C 0.75748 0.41897 0.42866 0.0
C771 C 0.72642 0.38866 0.39468 0.0
H772 H 0.67467 0.26775 0.40816 0.0
C773 C 0.5938 0.23992 0.36562 0.0
C774 C 0.55462 0.21269 0.37275 0.0
C775 C 0.63346 0.26958 0.372 0.0
C776 C 0.68905 0.30132 0.40425 0.0
H777 H 0.85266 0.52834 0.41349 0.0
H778 H 0.81331 0.46124 0.40012 0.0
H779 H 0.73162 0.33037 0.42079 0.0
H780 H 0.52706 0.19294 0.39217 0.0
H781 H 0.59609 0.24499 0.40328 0.0
H782 H 0.68287 0.35999 0.37839 0.0
C783 C 0.80375 0.45959 0.41022 0.0
C784 C 0.72157 0.33715 0.41148 0.0
C785 C 0.82636 0.49797 0.41789 0.0
C786 C 0.55661 0.21368 0.38639 0.0
C787 C 0.59629 0.24328 0.39277 0.0
C788 C 0.69409 0.35288 0.38745 0.0
C789 C 0.76828 0.41998 0.41544 0.0
C790 C 0.73961 0.38135 0.40694 0.0
C791 C 0.63475 0.27248 0.38562 0.0
C792 C 0.67413 0.30898 0.39233 0.0
H793 H 0.76994 0.45566 0.44635 0.0
H794 H 0.72998 0.38924 0.43296 0.0
H795 H 0.73908 0.42226 0.39097 0.0
H796 H 0.59347 0.23965 0.35509 0.0
H797 H 0.66277 0.29127 0.36625 0.0
C798 C 0.3589 0.54255 0.56076 0.0
C799 C 0.34877 0.5473 0.54783 0.0
C800 C 0.3761 0.57901 0.56924 0.0
C801 C 0.42094 0.70239 0.57085 0.0
H802 H 0.35254 0.67193 0.60286 0.0
C803 C 0.36809 0.81602 0.59607 0.0
C804 C 0.36275 0.81387 0.60963 0.0
C805 C 0.38244 0.78959 0.5898 0.0
C806 C 0.37288 0.68115 0.59415 0.0
H807 H 0.35126 0.59451 0.53344 0.0
H808 H 0.37999 0.65757 0.54825 0.0
H809 H 0.34869 0.61275 0.58929 0.0
H810 H 0.37164 0.78505 0.62736 0.0
H811 H 0.3966 0.73875 0.61638 0.0
H812 H 0.44282 0.77088 0.57542 0.0
C813 C 0.37545 0.62604 0.55184 0.0
C814 C 0.37071 0.64712 0.58635 0.0
C815 C 0.35851 0.5897 0.54336 0.0
C816 C 0.37496 0.78708 0.61688 0.0
C817 C 0.3892 0.76053 0.6106 0.0
C818 C 0.42295 0.73648 0.57865 0.0
C819 C 0.38327 0.62083 0.56497 0.0
C820 C 0.39335 0.65725 0.57437 0.0
C821 C 0.39167 0.76045 0.59697 0.0
C822 C 0.39762 0.72603 0.59013 0.0
H823 H 0.35232 0.51039 0.56444 0.0
H824 H 0.38245 0.5741 0.57925 0.0
H825 H 0.43948 0.7113 0.5618 0.0
H826 H 0.35931 0.83663 0.59022 0.0
H827 H 0.38358 0.78997 0.57928 0.0
C828 C 0.79576 0.30283 0.73053 0.0
C829 C 0.81678 0.32372 0.71882 0.0
C830 C 0.76165 0.3089 0.73564 0.0
C831 C 0.70978 0.37909 0.73521 0.0
H832 H 0.5987 0.26732 0.74054 0.0
C833 C 0.55087 0.35893 0.76113 0.0
C834 C 0.50967 0.3303 0.75511 0.0
C835 C 0.59065 0.36393 0.75604 0.0
C836 C 0.62945 0.29876 0.73903 0.0
H837 H 0.82102 0.36975 0.70376 0.0
H838 H 0.76198 0.38104 0.71287 0.0
H839 H 0.66622 0.26592 0.7342 0.0
H840 H 0.47791 0.28619 0.7387 0.0
H841 H 0.54751 0.29437 0.72993 0.0
H842 H 0.67281 0.41184 0.74022 0.0
C843 C 0.77158 0.35968 0.718 0.0
C844 C 0.66811 0.29796 0.73556 0.0
C845 C 0.80518 0.35306 0.71277 0.0
C846 C 0.50918 0.30852 0.74354 0.0
C847 C 0.54888 0.31296 0.73856 0.0
C848 C 0.67116 0.3799 0.73891 0.0
C849 C 0.7486 0.33655 0.72924 0.0
C850 C 0.70856 0.33807 0.73358 0.0
C851 C 0.58976 0.33986 0.74495 0.0
C852 C 0.63063 0.33969 0.74075 0.0
H853 H 0.80398 0.27999 0.73538 0.0
H854 H 0.74456 0.29099 0.74439 0.0
H855 H 0.74063 0.41043 0.73371 0.0
H856 H 0.55222 0.37629 0.77004 0.0
H857 H 0.62177 0.38476 0.76115 0.0
C858 C 0.3971 0.78414 0.8687 0.0
C859 C 0.43878 0.819 0.8729 0.0
C860 C 0.36104 0.76414 0.87732 0.0
C861 C 0.34288 0.74276 0.91212 0.0
H862 H 0.21781 0.68284 0.90206 0.0
C863 C 0.21075 0.60863 0.94497 0.0
C864 C 0.18415 0.56804 0.93842 0.0
C865 C 0.23489 0.64849 0.938 0.0
C866 C 0.25259 0.69963 0.90504 0.0
H867 H 0.4744 0.863 0.88903 0.0
H868 H 0.41124 0.82854 0.90401 0.0
H869 H 0.2745 0.73843 0.88753 0.0
H870 H 0.15909 0.53788 0.91953 0.0
H871 H 0.20173 0.60707 0.90739 0.0
H872 H 0.32155 0.7027 0.92929 0.0
C873 C 0.40671 0.81588 0.89417 0.0
C874 C 0.28502 0.73137 0.89672 0.0
C875 C 0.44285 0.83564 0.88559 0.0
C876 C 0.17961 0.56856 0.92486 0.0
C877 C 0.20376 0.60836 0.9179 0.0
C878 C 0.31055 0.7112 0.92042 0.0
C879 C 0.36588 0.77886 0.89027 0.0
C880 C 0.33067 0.75209 0.89998 0.0
C881 C 0.23286 0.64846 0.92435 0.0
C882 C 0.26523 0.68814 0.91677 0.0
H883 H 0.39288 0.77072 0.85896 0.0
H884 H 0.33025 0.73542 0.87402 0.0
H885 H 0.37774 0.75753 0.91488 0.0
H886 H 0.21452 0.60942 0.95544 0.0
H887 H 0.25655 0.67902 0.94325 0.0
C888 C 0.65007 0.25468 0.11185 0.0
C889 C 0.65182 0.21877 0.10604 0.0
C890 C 0.63696 0.28047 0.10464 0.0
C891 C 0.63691 0.31292 0.0707 0.0
H892 H 0.58499 0.37995 0.08555 0.0
C893 C 0.63388 0.45281 0.0418 0.0
C894 C 0.65339 0.49391 0.04842 0.0
C895 C 0.62044 0.413 0.04856 0.0
C896 C 0.59933 0.36129 0.08127 0.0
H897 H 0.63763 0.17931 0.08847 0.0
H898 H 0.61357 0.22363 0.07595 0.0
H899 H 0.5837 0.31879 0.09794 0.0
H900 H 0.67116 0.52519 0.06743 0.0
H901 H 0.64798 0.45561 0.07924 0.0
H902 H 0.65357 0.35599 0.05421 0.0
C903 C 0.62364 0.23274 0.08597 0.0
C904 C 0.59872 0.32637 0.08836 0.0
C905 C 0.63723 0.20722 0.09315 0.0
C906 C 0.65648 0.49407 0.06204 0.0
C907 C 0.64291 0.45418 0.06882 0.0
C908 C 0.63718 0.34749 0.0636 0.0
C909 C 0.62487 0.27063 0.0915 0.0
C910 C 0.61864 0.3026 0.08329 0.0
C911 C 0.62608 0.41345 0.06209 0.0
C912 C 0.61946 0.37278 0.06894 0.0
H913 H 0.66105 0.26441 0.12178 0.0
H914 H 0.63884 0.30963 0.1092 0.0
H915 H 0.65331 0.29603 0.06656 0.0
H916 H 0.63056 0.45147 0.03132 0.0
H917 H 0.60699 0.38199 0.04316 0.0
C918 C 0.44887 0.68782 0.26828 0.0
C919 C 0.48489 0.69132 0.26098 0.0
C920 C 0.40895 0.67842 0.26221 0.0
C921 C 0.36807 0.6895 0.2302 0.0
H922 H 0.25245 0.62807 0.24738 0.0
C923 C 0.21351 0.68017 0.20671 0.0
C924 C 0.19113 0.69582 0.21466 0.0
C925 C 0.24384 0.66909 0.21205 0.0
C926 C 0.28454 0.64521 0.24248 0.0
H927 H 0.50645 0.68496 0.2417 0.0
H928 H 0.43622 0.66733 0.2311 0.0
H929 H 0.31643 0.62658 0.25707 0.0
H930 H 0.18069 0.70924 0.23456 0.0
H931 H 0.23396 0.68989 0.24392 0.0
H932 H 0.3364 0.70858 0.21572 0.0
C933 C 0.43926 0.6731 0.24149 0.0
C934 C 0.3212 0.6445 0.24802 0.0
C935 C 0.47943 0.68299 0.24756 0.0
C936 C 0.19759 0.69747 0.22818 0.0
C937 C 0.22789 0.68618 0.23354 0.0
C938 C 0.33141 0.68981 0.22462 0.0
C939 C 0.40394 0.67181 0.24869 0.0
C940 C 0.36364 0.66748 0.24208 0.0
C941 C 0.25229 0.67321 0.22547 0.0
C942 C 0.2895 0.6684 0.23082 0.0
H943 H 0.45202 0.69408 0.27865 0.0
H944 H 0.38283 0.67835 0.26806 0.0
H945 H 0.40032 0.70831 0.22547 0.0
H946 H 0.20893 0.67803 0.19626 0.0
H947 H 0.26174 0.65856 0.20564 0.0
C948 C 0.08914 0.89249 0.21765 0.0
C949 C 0.08203 0.85001 0.22117 0.0
C950 C 0.08904 0.9214 0.22713 0.0
C951 C 0.13501 0.9777 0.25132 0.0
H952 H 0.05464 0.94747 0.28071 0.0
C953 C 0.20846 0.05862 0.29959 0.0
C954 C 0.19429 0.02839 0.31006 0.0
C955 C 0.18266 0.04842 0.2883 0.0
C956 C 0.07758 0.95652 0.2726 0.0
H957 H 0.06507 0.80282 0.23703 0.0
H958 H 0.06415 0.85305 0.25354 0.0
H959 H 0.02835 0.90354 0.26076 0.0
H960 H 0.14046 0.96487 0.31712 0.0
H961 H 0.09766 0.94539 0.29725 0.0
H962 H 0.18584 0.02682 0.26331 0.0
C963 C 0.07007 0.86407 0.2435 0.0
C964 C 0.06224 0.93164 0.26114 0.0
C965 C 0.07113 0.83555 0.23409 0.0
C966 C 0.15259 0.98888 0.30922 0.0
C967 C 0.12753 0.978 0.2978 0.0
C968 C 0.1507 0.00177 0.26284 0.0
C969 C 0.08072 0.9078 0.24018 0.0
C970 C 0.09152 0.94086 0.25064 0.0
C971 C 0.14315 0.00678 0.28696 0.0
C972 C 0.12289 0.98999 0.27389 0.0
H973 H 0.09755 0.90444 0.20774 0.0
H974 H 0.09761 0.9551 0.22439 0.0
H975 H 0.15835 0.98522 0.24337 0.0
H976 H 0.24078 0.08877 0.29958 0.0
H977 H 0.19532 0.07211 0.28034 0.0
C978 C 0.31356 0.12066 0.3964 0.0
C979 C 0.29962 0.11541 0.38338 0.0
C980 C 0.28806 0.12536 0.40613 0.0
C981 C 0.21692 0.11601 0.42539 0.0
H982 H 0.19557 0.21493 0.41955 0.0
C983 C 0.1582 0.18466 0.46678 0.0
C984 C 0.18788 0.23051 0.46883 0.0
C985 C 0.15841 0.16466 0.45501 0.0
C986 C 0.20074 0.18683 0.42124 0.0
H987 H 0.24725 0.10943 0.37039 0.0
H988 H 0.20317 0.11856 0.38744 0.0
H989 H 0.22162 0.18727 0.40162 0.0
H990 H 0.24066 0.29139 0.46006 0.0
H991 H 0.24013 0.25685 0.43948 0.0
H992 H 0.1982 0.11691 0.44514 0.0
C993 C 0.2337 0.11876 0.39006 0.0
C994 C 0.21535 0.17086 0.41099 0.0
C995 C 0.25888 0.11341 0.38034 0.0
C996 C 0.2162 0.25643 0.45867 0.0
C997 C 0.21612 0.23652 0.44687 0.0
C998 C 0.20185 0.13164 0.43559 0.0
C999 C 0.24844 0.12541 0.403 0.0
C1000 C 0.22507 0.13637 0.41311 0.0
C1001 C 0.18827 0.19021 0.44509 0.0
C1002 C 0.19513 0.1682 0.43372 0.0
H1003 H 0.34468 0.12214 0.39904 0.0
H1004 H 0.30039 0.13092 0.41603 0.0
H1005 H 0.22392 0.08918 0.42722 0.0
H1006 H 0.13607 0.16387 0.47446 0.0
H1007 H 0.1365 0.12892 0.45385 0.0
C1008 C 0.96961 0.18715 0.63096 0.0
C1009 C 0.99774 0.19259 0.64152 0.0
C1010 C 0.98103 0.18106 0.6184 0.0
C1011 C 0.07001 0.17237 0.5994 0.0
H1012 H 0.04962 0.24597 0.57495 0.0
C1013 C 0.13469 0.26065 0.54595 0.0
C1014 C 0.17896 0.29294 0.54912 0.0
C1015 C 0.10529 0.23313 0.55561 0.0
C1016 C 0.05483 0.22452 0.58157 0.0
H1017 H 0.0589 0.1939 0.64721 0.0
H1018 H 0.08041 0.18665 0.62542 0.0
H1019 H 0.00847 0.22416 0.59524 0.0
H1020 H 0.22813 0.31982 0.56459 0.0
H1021 H 0.17694 0.2707 0.58141 0.0
H1022 H 0.1202 0.17742 0.58605 0.0
C1023 C 0.0485 0.18502 0.62672 0.0
C1024 C 0.03102 0.21165 0.59322 0.0
C1025 C 0.03646 0.18986 0.63929 0.0
C1026 C 0.1941 0.29541 0.56192 0.0
C1027 C 0.16503 0.26712 0.57149 0.0
C1028 C 0.0947 0.18634 0.58787 0.0
C1029 C 0.02173 0.18209 0.61602 0.0
C1030 C 0.0395 0.18684 0.60255 0.0
C1031 C 0.12017 0.23665 0.56846 0.0
C1032 C 0.08816 0.21364 0.57909 0.0
H1033 H 0.94027 0.19044 0.63213 0.0
H1034 H 0.95896 0.17791 0.61049 0.0
H1035 H 0.07654 0.15213 0.60611 0.0
H1036 H 0.12219 0.25817 0.53614 0.0
H1037 H 0.07065 0.21006 0.55314 0.0
C1038 C 0.77789 0.94856 0.79467 0.0
C1039 C 0.79524 0.97515 0.80585 0.0
C1040 C 0.80349 0.95889 0.78333 0.0
C1041 C 0.91475 0.04531 0.76896 0.0
H1042 H 0.83835 0.03465 0.73995 0.0
C1043 C 0.91764 0.12938 0.71591 0.0
C1044 C 0.92778 0.17187 0.72044 0.0
C1045 C 0.9137 0.09658 0.72466 0.0
C1046 C 0.86032 0.03705 0.74782 0.0
H1047 H 0.8542 0.03206 0.81401 0.0
H1048 H 0.89701 0.05237 0.79415 0.0
H1049 H 0.80562 0.98914 0.75902 0.0
H1050 H 0.94611 0.21493 0.73733 0.0
H1051 H 0.94031 0.15794 0.75257 0.0
H1052 H 0.96851 0.0977 0.75802 0.0
C1053 C 0.86457 0.02219 0.79413 0.0
C1054 C 0.84159 0.01068 0.75884 0.0
C1055 C 0.83957 0.01092 0.80557 0.0
C1056 C 0.93789 0.18231 0.73363 0.0
C1057 C 0.93504 0.14989 0.74231 0.0
C1058 C 0.93325 0.07266 0.75804 0.0
C1059 C 0.84623 0.9974 0.78267 0.0
C1060 C 0.86812 0.01604 0.76986 0.0
C1061 C 0.9211 0.10629 0.73798 0.0
C1062 C 0.90572 0.06994 0.74764 0.0
H1063 H 0.74363 0.92156 0.79423 0.0
H1064 H 0.78849 0.93808 0.77487 0.0
H1065 H 0.93667 0.0493 0.777 0.0
H1066 H 0.90965 0.12049 0.70578 0.0
H1067 H 0.90255 0.06302 0.72116 0.0
C1068 C 0.8037 0.84007 0.96764 0.0
C1069 C 0.80799 0.80215 0.96981 0.0
C1070 C 0.79995 0.8528 0.95506 0.0
C1071 C 0.80648 0.88116 0.92678 0.0
H1072 H 0.70955 0.78312 0.90801 0.0
C1073 C 0.72967 0.90168 0.87851 0.0
C1074 C 0.68288 0.8826 0.87925 0.0
C1075 C 0.75284 0.8931 0.88821 0.0
C1076 C 0.73702 0.81072 0.91308 0.0
H1077 H 0.81728 0.75126 0.96028 0.0
H1078 H 0.80852 0.77229 0.93828 0.0
H1079 H 0.74 0.76745 0.92744 0.0
H1080 H 0.6238 0.83961 0.89071 0.0
H1081 H 0.66416 0.82443 0.90748 0.0
H1082 H 0.80199 0.92452 0.91266 0.0
C1083 C 0.80731 0.79157 0.94642 0.0
C1084 C 0.75471 0.80176 0.92411 0.0
C1085 C 0.8116 0.77911 0.95904 0.0
C1086 C 0.65983 0.85497 0.88987 0.0
C1087 C 0.68284 0.8459 0.89941 0.0
C1088 C 0.78908 0.89009 0.91564 0.0
C1089 C 0.80039 0.82791 0.94434 0.0
C1090 C 0.78852 0.837 0.93132 0.0
C1091 C 0.72946 0.86468 0.89865 0.0
C1092 C 0.75313 0.85502 0.90899 0.0
H1093 H 0.80124 0.85891 0.9757 0.0
H1094 H 0.79426 0.88074 0.95377 0.0
H1095 H 0.83276 0.90888 0.93214 0.0
H1096 H 0.74834 0.92313 0.87044 0.0
H1097 H 0.78885 0.90804 0.88747 0.0
C1098 C 0.05192 0.85322 0.13025 0.0
C1099 C 0.0259 0.85144 0.14098 0.0
C1100 C 0.04028 0.85926 0.11771 0.0
C1101 C 0.95393 0.87378 0.09909 0.0
H1102 H 0.96341 0.7916 0.07539 0.0
C1103 C 0.87636 0.77993 0.04712 0.0
C1104 C 0.8322 0.74969 0.05101 0.0
C1105 C 0.90818 0.80753 0.05626 0.0
C1106 C 0.96129 0.81541 0.08179 0.0
H1107 H 0.96855 0.85681 0.147 0.0
H1108 H 0.94639 0.86397 0.12528 0.0
H1109 H 0.0075 0.81387 0.09514 0.0
H1110 H 0.78584 0.72657 0.06722 0.0
H1111 H 0.8413 0.77591 0.08314 0.0
H1112 H 0.90362 0.87071 0.08614 0.0
C1113 C 0.97694 0.86273 0.1264 0.0
C1114 C 0.98682 0.82856 0.09313 0.0
C1115 C 0.98932 0.85796 0.13894 0.0
C1116 C 0.81973 0.74938 0.06401 0.0
C1117 C 0.85124 0.7778 0.07306 0.0
C1118 C 0.92747 0.85955 0.08789 0.0
C1119 C 0.00129 0.8618 0.11554 0.0
C1120 C 0.98221 0.85654 0.10222 0.0
C1121 C 0.89587 0.8062 0.06931 0.0
C1122 C 0.93006 0.8292 0.07941 0.0
H1123 H 0.07947 0.84695 0.1313 0.0
H1124 H 0.06057 0.85943 0.10966 0.0
H1125 H 0.95042 0.89645 0.1056 0.0
H1126 H 0.88681 0.78069 0.03714 0.0
H1127 H 0.94261 0.82895 0.05325 0.0
C1128 C 0.97109 0.8123 0.51531 0.0
C1129 C 0.99801 0.82466 0.50413 0.0
C1130 C 0.99049 0.82763 0.52754 0.0
C1131 C 0.04359 0.83675 0.552 0.0
H1132 H 0.15442 0.94975 0.55586 0.0
C1133 C 0.15106 0.89055 0.599 0.0
C1134 C 0.19404 0.89696 0.59662 0.0
C1135 C 0.12345 0.88761 0.58866 0.0
C1136 C 0.12326 0.91831 0.55493 0.0
H1137 H 0.06587 0.86368 0.49685 0.0
H1138 H 0.09978 0.88912 0.51803 0.0
H1139 H 0.11037 0.93492 0.53603 0.0
H1140 H 0.24252 0.90704 0.58167 0.0
H1141 H 0.1946 0.90311 0.56361 0.0
H1142 H 0.05698 0.8204 0.57097 0.0
C1143 C 0.06368 0.86862 0.51749 0.0
C1144 C 0.09817 0.90961 0.54357 0.0
C1145 C 0.04428 0.85373 0.50532 0.0
C1146 C 0.20948 0.90188 0.58377 0.0
C1147 C 0.18227 0.89995 0.57347 0.0
C1148 C 0.06833 0.84585 0.56347 0.0
C1149 C 0.03717 0.8554 0.52878 0.0
C1150 C 0.05898 0.86799 0.54175 0.0
C1151 C 0.13887 0.89218 0.57583 0.0
C1152 C 0.1091 0.88602 0.5648 0.0
H1153 H 0.93515 0.79088 0.51462 0.0
H1154 H 0.969 0.81743 0.53602 0.0
H1155 H 0.01387 0.80422 0.55092 0.0
H1156 H 0.13827 0.88648 0.60883 0.0
H1157 H 0.09001 0.8815 0.59066 0.0
C1158 C 0.24823 0.18983 0.73951 0.0
C1159 C 0.24632 0.18059 0.75285 0.0
C1160 C 0.21647 0.15832 0.73107 0.0
C1161 C 0.13397 0.08579 0.71623 0.0
H1162 H 0.16251 0.99061 0.71561 0.0
C1163 C 0.15739 0.01712 0.66926 0.0
C1164 C 0.16233 0.97911 0.66917 0.0
C1165 C 0.14381 0.02951 0.6805 0.0
C1166 C 0.15226 0.01554 0.71571 0.0
H1167 H 0.20859 0.13227 0.76796 0.0
H1168 H 0.15431 0.07618 0.75301 0.0
H1169 H 0.18223 0.0386 0.73436 0.0
H1170 H 0.15282 0.92217 0.68071 0.0
H1171 H 0.12485 0.9411 0.69971 0.0
H1172 H 0.10451 0.06335 0.6975 0.0
C1173 C 0.1797 0.10825 0.74921 0.0
C1174 C 0.16395 0.04334 0.72654 0.0
C1175 C 0.21084 0.14022 0.7577 0.0
C1176 C 0.14873 0.95117 0.68017 0.0
C1177 C 0.13362 0.96277 0.69129 0.0
C1178 C 0.12098 0.0571 0.70552 0.0
C1179 C 0.18289 0.11676 0.73581 0.0
C1180 C 0.1574 0.08024 0.72652 0.0
C1181 C 0.13392 0.00368 0.69192 0.0
C1182 C 0.13295 0.02362 0.7047 0.0
H1183 H 0.27499 0.22085 0.73555 0.0
H1184 H 0.21994 0.16525 0.72073 0.0
H1185 H 0.1282 0.1139 0.71612 0.0
H1186 H 0.16712 0.03921 0.66091 0.0
H1187 H 0.14488 0.06138 0.68042 0.0
C1188 C 0.22908 0.24093 0.84208 0.0
C1189 C 0.20006 0.21749 0.83179 0.0
C1190 C 0.212 0.24108 0.85434 0.0
C1191 C 0.11428 0.23722 0.86848 0.0
H1192 H 0.17278 0.24091 0.90103 0.0
C1193 C 0.1086 0.27983 0.92624 0.0
C1194 C 0.11176 0.32189 0.9248 0.0
C1195 C 0.11175 0.25717 0.91542 0.0
C1196 C 0.15558 0.23922 0.89206 0.0
H1197 H 0.13064 0.17523 0.82622 0.0
H1198 H 0.10061 0.17578 0.84772 0.0
H1199 H 0.1929 0.21575 0.88127 0.0
H1200 H 0.11927 0.37243 0.91084 0.0
H1201 H 0.12463 0.33281 0.89199 0.0
H1202 H 0.07824 0.26232 0.87915 0.0
C1203 C 0.13656 0.19367 0.84631 0.0
C1204 C 0.1673 0.22514 0.88076 0.0
C1205 C 0.1537 0.19333 0.83405 0.0
C1206 C 0.11689 0.3402 0.91229 0.0
C1207 C 0.11957 0.31734 0.90148 0.0
C1208 C 0.1028 0.25156 0.87975 0.0
C1209 C 0.16553 0.21838 0.85649 0.0
C1210 C 0.14768 0.22527 0.8688 0.0
C1211 C 0.11752 0.27588 0.90296 0.0
C1212 C 0.12432 0.25397 0.89155 0.0
H1213 H 0.26481 0.26131 0.8405 0.0
H1214 H 0.23508 0.26126 0.86193 0.0
H1215 H 0.09884 0.238 0.85939 0.0
H1216 H 0.10456 0.26477 0.93575 0.0
H1217 H 0.10993 0.22516 0.91679 0.0
C1218 C 0.03496 0.22234 0.01262 0.0
C1219 C 0.00863 0.21384 0.00145 0.0
C1220 C 0.0149 0.20327 0.02453 0.0
C1221 C 0.96173 0.18939 0.04911 0.0
H1222 H 0.84834 0.0782 0.05144 0.0
C1223 C 0.85539 0.13261 0.09593 0.0
C1224 C 0.813 0.12816 0.09392 0.0
C1225 C 0.88179 0.13485 0.08536 0.0
C1226 C 0.8802 0.10909 0.05093 0.0
H1227 H 0.94126 0.17752 -0.00629 0.0
H1228 H 0.90604 0.14574 0.01441 0.0
H1229 H 0.89259 0.09608 0.03153 0.0
H1230 H 0.76406 0.12024 0.07937 0.0
H1231 H 0.81 0.12323 0.06089 0.0
H1232 H 0.94895 0.20224 0.06854 0.0
C1233 C 0.94219 0.16601 0.01409 0.0
C1234 C 0.90543 0.11954 0.03953 0.0
C1235 C 0.96231 0.18452 0.00221 0.0
C1236 C 0.79669 0.12395 0.08119 0.0
C1237 C 0.82276 0.1253 0.07064 0.0
C1238 C 0.93689 0.17849 0.06059 0.0
C1239 C 0.96809 0.17578 0.02547 0.0
C1240 C 0.94566 0.16065 0.0383 0.0
C1241 C 0.86583 0.13166 0.07264 0.0
C1242 C 0.89526 0.13902 0.06141 0.0
H1243 H 0.07094 0.24396 0.01219 0.0
H1244 H 0.03598 0.21074 0.03302 0.0
H1245 H 0.99218 0.22156 0.04852 0.0
H1246 H 0.86885 0.13599 0.10564 0.0
H1247 H 0.91496 0.1398 0.08709 0.0
C1248 C 0.86884 0.03641 0.17106 0.0
C1249 C 0.83683 0.05024 0.17111 0.0
C1250 C 0.87668 0.01844 0.18227 0.0
C1251 C 0.85067 0.99876 0.21758 0.0
H1252 H 0.83127 0.88018 0.21013 0.0
C1253 C 0.73741 0.81903 0.24008 0.0
C1254 C 0.74713 0.82725 0.25337 0.0
C1255 C 0.76639 0.84903 0.23082 0.0
C1256 C 0.8375 0.91348 0.21239 0.0
H1257 H 0.78804 0.05623 0.18292 0.0
H1258 H 0.80206 0.02568 0.20244 0.0
H1259 H 0.85065 0.93405 0.19252 0.0
H1260 H 0.79643 0.87168 0.26738 0.0
H1261 H 0.84687 0.92463 0.25111 0.0
H1262 H 0.83387 0.97687 0.23726 0.0
C1263 C 0.82209 0.02978 0.19389 0.0
C1264 C 0.84896 0.9445 0.20233 0.0
C1265 C 0.81412 0.0475 0.18269 0.0
C1266 C 0.78793 0.86455 0.25719 0.0
C1267 C 0.81677 0.8949 0.2479 0.0
C1268 C 0.8393 0.96775 0.22764 0.0
C1269 C 0.85248 0.01385 0.1937 0.0
C1270 C 0.85326 0.98659 0.20472 0.0
C1271 C 0.80556 0.88808 0.23466 0.0
C1272 C 0.83022 0.92404 0.225 0.0
H1273 H 0.88668 0.03803 0.16223 0.0
H1274 H 0.90035 0.00653 0.18185 0.0
H1275 H 0.85447 0.03123 0.21971 0.0
H1276 H 0.70644 0.79039 0.23683 0.0
H1277 H 0.75653 0.84308 0.22069 0.0
C1278 C 0.85956 0.82354 0.33227 0.0
C1279 C 0.82024 0.82554 0.3305 0.0
C1280 C 0.88115 0.8337 0.34428 0.0
C1281 C 0.85075 0.83119 0.37872 0.0
H1282 H 0.97142 0.85244 0.38336 0.0
C1283 C 0.92524 0.74606 0.41152 0.0
C1284 C 0.91518 0.75338 0.42418 0.0
C1285 C 0.9257 0.77278 0.40127 0.0
C1286 C 0.93793 0.84729 0.38223 0.0
H1287 H 0.77398 0.84186 0.34001 0.0
H1288 H 0.81364 0.86331 0.36047 0.0
H1289 H 0.95025 0.87155 0.36269 0.0
H1290 H 0.89958 0.79543 0.43619 0.0
H1291 H 0.89842 0.84097 0.41806 0.0
H1292 H 0.83853 0.80643 0.39823 0.0
C1293 C 0.82713 0.85244 0.3527 0.0
C1294 C 0.92555 0.85774 0.37038 0.0
C1295 C 0.80482 0.8411 0.34077 0.0
C1296 C 0.90743 0.78909 0.42651 0.0
C1297 C 0.90687 0.81517 0.41619 0.0
C1298 C 0.86348 0.82185 0.39064 0.0
C1299 C 0.86431 0.84678 0.35482 0.0
C1300 C 0.88105 0.84745 0.36822 0.0
C1301 C 0.91524 0.80666 0.40347 0.0
C1302 C 0.90645 0.82778 0.39227 0.0
H1303 H 0.87242 0.81174 0.32455 0.0
H1304 H 0.90922 0.82821 0.34544 0.0
H1305 H 0.81606 0.82218 0.37753 0.0
H1306 H 0.93168 0.71899 0.40948 0.0
H1307 H 0.93166 0.76526 0.3915 0.0
loop_
_geom_bond_atom_site_label_1
_geom_bond_atom_site_label_2
_geom_bond_distance
_geom_bond_site_symmetry_2
_ccdc_geom_bond_type
Co0 O3 1.970 . S
Co0 N17 1.989 . S
Co0 O25 1.967 . S
Co0 O32 1.920 . S
Co1 O4 1.966 . S
Co1 N10 2.022 . S
Co1 N18 1.993 . S
Co1 O26 1.941 . S
C2 O3 1.258 . S
C2 O4 1.263 . S
O3 Co0 1.970 . S
O3 C2 1.258 . S
O4 Co1 1.966 . S
O4 C2 1.263 . S
C5 O6 1.235 . S
C5 O32 1.289 . S
O6 C5 1.235 . S
C7 C9 1.400 . S
C7 N10 1.351 . S
C7 C12 1.501 . S
C8 C9 1.387 . S
C8 N11 1.341 . S
C9 C7 1.400 . S
C9 C8 1.387 . S
N10 Co1 2.022 . S
N10 C7 1.351 . S
N10 N11 1.365 . S
N11 C8 1.341 . S
N11 N10 1.365 . S
N11 H31 0.862 . S
C12 C7 1.501 . S
C12 H13 0.961 . S
C12 H14 0.961 . S
C12 H15 0.960 . S
H13 C12 0.961 . S
H14 C12 0.961 . S
H15 C12 0.960 . S
C16 N17 1.342 . S
C16 C20 1.401 . S
C16 C21 1.499 . S
N17 Co0 1.989 . S
N17 C16 1.342 . S
N17 N18 1.388 . S
N18 Co1 1.993 . S
N18 N17 1.388 . S
N18 C19 1.346 . S
C19 N18 1.346 . S
C19 C20 1.396 . S
C19 C29 1.510 . S
C20 C16 1.401 . S
C20 C19 1.396 . S
C21 C16 1.499 . S
C21 H22 0.959 . S
C21 H23 0.960 . S
C21 H24 0.961 . S
H22 C21 0.959 . S
H23 C21 0.960 . S
H24 C21 0.961 . S
O25 Co0 1.967 . S
O25 C33 1.258 . S
O26 Co1 1.941 . S
O26 C33 1.266 . S
H27 C29 0.959 . S
H28 C29 0.961 . S
C29 C19 1.510 . S
C29 H27 0.959 . S
C29 H28 0.961 . S
C29 H30 0.960 . S
H30 C29 0.960 . S
H31 N11 0.862 . S
O32 Co0 1.920 . S
O32 C5 1.289 . S
C33 O25 1.258 . S
C33 O26 1.266 . S
Co34 O37 1.970 . S
Co34 N51 1.989 . S
Co34 O59 1.967 . S
Co34 O66 1.920 . S
Co35 O38 1.966 . S
Co35 N44 2.022 . S
Co35 N52 1.993 . S
Co35 O60 1.941 . S
C36 O37 1.258 . S
C36 O38 1.263 . S
O37 Co34 1.970 . S
O37 C36 1.258 . S
O38 Co35 1.966 . S
O38 C36 1.263 . S
C39 O40 1.235 . S
C39 O66 1.289 . S
O40 C39 1.235 . S
C41 C43 1.400 . S
C41 N44 1.351 . S
C41 C46 1.501 . S
C42 C43 1.387 . S
C42 N45 1.341 . S
C43 C41 1.400 . S
C43 C42 1.387 . S
N44 Co35 2.022 . S
N44 C41 1.351 . S
N44 N45 1.365 . S
N45 C42 1.341 . S
N45 N44 1.365 . S
N45 H65 0.862 . S
C46 C41 1.501 . S
C46 H47 0.961 . S
C46 H48 0.961 . S
C46 H49 0.960 . S
H47 C46 0.961 . S
H48 C46 0.961 . S
H49 C46 0.960 . S
C50 N51 1.342 . S
C50 C54 1.401 . S
C50 C55 1.499 . S
N51 Co34 1.989 . S
N51 C50 1.342 . S
N51 N52 1.388 . S
N52 Co35 1.993 . S
N52 N51 1.388 . S
N52 C53 1.346 . S
C53 N52 1.346 . S
C53 C54 1.396 . S
C53 C63 1.510 . S
C54 C50 1.401 . S
C54 C53 1.396 . S
C55 C50 1.499 . S
C55 H56 0.959 . S
C55 H57 0.960 . S
C55 H58 0.961 . S
H56 C55 0.959 . S
H57 C55 0.960 . S
H58 C55 0.961 . S
O59 Co34 1.967 . S
O59 C67 1.258 . S
O60 Co35 1.941 . S
O60 C67 1.266 . S
H61 C63 0.959 . S
H62 C63 0.961 . S
C63 C53 1.510 . S
C63 H61 0.959 . S
C63 H62 0.961 . S
C63 H64 0.960 . S
H64 C63 0.960 . S
H65 N45 0.862 . S
O66 Co34 1.920 . S
O66 C39 1.289 . S
C67 O59 1.258 . S
C67 O60 1.266 . S
Co68 O71 1.970 . S
Co68 N85 1.989 . S
Co68 O93 1.967 . S
Co68 O100 1.920 . S
Co69 O72 1.966 . S
Co69 N78 2.022 . S
Co69 N86 1.993 . S
Co69 O94 1.941 . S
C70 O71 1.258 . S
C70 O72 1.263 . S
O71 Co68 1.970 . S
O71 C70 1.258 . S
O72 Co69 1.966 . S
O72 C70 1.263 . S
C73 O74 1.235 . S
C73 O100 1.289 . S
O74 C73 1.235 . S
C75 C77 1.400 . S
C75 N78 1.351 . S
C75 C80 1.501 . S
C76 C77 1.387 . S
C76 N79 1.341 . S
C77 C75 1.400 . S
C77 C76 1.387 . S
N78 Co69 2.022 . S
N78 C75 1.351 . S
N78 N79 1.365 . S
N79 C76 1.341 . S
N79 N78 1.365 . S
N79 H99 0.862 . S
C80 C75 1.501 . S
C80 H81 0.961 . S
C80 H82 0.961 . S
C80 H83 0.960 . S
H81 C80 0.961 . S
H82 C80 0.961 . S
H83 C80 0.960 . S
C84 N85 1.342 . S
C84 C88 1.401 . S
C84 C89 1.499 . S
N85 Co68 1.989 . S
N85 C84 1.342 . S
N85 N86 1.388 . S
N86 Co69 1.993 . S
N86 N85 1.388 . S
N86 C87 1.346 . S
C87 N86 1.346 . S
C87 C88 1.396 . S
C87 C97 1.510 . S
C88 C84 1.401 . S
C88 C87 1.396 . S
C89 C84 1.499 . S
C89 H90 0.959 . S
C89 H91 0.960 . S
C89 H92 0.961 . S
H90 C89 0.959 . S
H91 C89 0.960 . S
H92 C89 0.961 . S
O93 Co68 1.967 . S
O93 C101 1.258 . S
O94 Co69 1.941 . S
O94 C101 1.266 . S
H95 C97 0.959 . S
H96 C97 0.961 . S
C97 C87 1.510 . S
C97 H95 0.959 . S
C97 H96 0.961 . S
C97 H98 0.960 . S
H98 C97 0.960 . S
H99 N79 0.862 . S
O100 Co68 1.920 . S
O100 C73 1.289 . S
C101 O93 1.258 . S
C101 O94 1.266 . S
Co102 O105 1.970 . S
Co102 N119 1.989 . S
Co102 O127 1.967 . S
Co102 O134 1.920 . S
Co103 O106 1.966 . S
Co103 N112 2.022 . S
Co103 N120 1.993 . S
Co103 O128 1.941 . S
C104 O105 1.258 . S
C104 O106 1.263 . S
O105 Co102 1.970 . S
O105 C104 1.258 . S
O106 Co103 1.966 . S
O106 C104 1.263 . S
C107 O108 1.235 . S
C107 O134 1.289 . S
O108 C107 1.235 . S
C109 C111 1.400 . S
C109 N112 1.351 . S
C109 C114 1.501 . S
C110 C111 1.387 . S
C110 N113 1.341 . S
C111 C109 1.400 . S
C111 C110 1.387 . S
N112 Co103 2.022 . S
N112 C109 1.351 . S
N112 N113 1.365 . S
N113 C110 1.341 . S
N113 N112 1.365 . S
N113 H133 0.862 . S
C114 C109 1.501 . S
C114 H115 0.961 . S
C114 H116 0.961 . S
C114 H117 0.960 . S
H115 C114 0.961 . S
H116 C114 0.961 . S
H117 C114 0.960 . S
C118 N119 1.342 . S
C118 C122 1.401 . S
C118 C123 1.499 . S
N119 Co102 1.989 . S
N119 C118 1.342 . S
N119 N120 1.388 . S
N120 Co103 1.993 . S
N120 N119 1.388 . S
N120 C121 1.346 . S
C121 N120 1.346 . S
C121 C122 1.396 . S
C121 C131 1.510 . S
C122 C118 1.401 . S
C122 C121 1.396 . S
C123 C118 1.499 . S
C123 H124 0.959 . S
C123 H125 0.960 . S
C123 H126 0.961 . S
H124 C123 0.959 . S
H125 C123 0.960 . S
H126 C123 0.961 . S
O127 Co102 1.967 . S
O127 C135 1.258 . S
O128 Co103 1.941 . S
O128 C135 1.266 . S
H129 C131 0.959 . S
H130 C131 0.961 . S
C131 C121 1.510 . S
C131 H129 0.959 . S
C131 H130 0.961 . S
C131 H132 0.960 . S
H132 C131 0.960 . S
H133 N113 0.862 . S
O134 Co102 1.920 . S
O134 C107 1.289 . S
C135 O127 1.258 . S
C135 O128 1.266 . S
Co136 O139 1.970 . S
Co136 N153 1.989 . S
Co136 O161 1.967 . S
Co136 O168 1.920 . S
Co137 O140 1.966 . S
Co137 N146 2.022 1_554 S
Co137 N154 1.993 . S
Co137 O162 1.941 . S
C138 O139 1.258 . S
C138 O140 1.263 . S
O139 Co136 1.970 . S
O139 C138 1.258 . S
O140 Co137 1.966 . S
O140 C138 1.263 . S
C141 O142 1.235 . S
C141 O168 1.289 . S
O142 C141 1.235 . S
C143 C145 1.400 . S
C143 N146 1.351 . S
C143 C148 1.501 . S
C144 C145 1.387 . S
C144 N147 1.341 . S
C145 C143 1.400 . S
C145 C144 1.387 . S
N146 Co137 2.022 1_556 S
N146 C143 1.351 . S
N146 N147 1.365 . S
N147 C144 1.341 . S
N147 N146 1.365 . S
N147 H167 0.862 1_556 S
C148 C143 1.501 . S
C148 H149 0.961 . S
C148 H150 0.961 . S
C148 H151 0.960 . S
H149 C148 0.961 . S
H150 C148 0.961 . S
H151 C148 0.960 . S
C152 N153 1.342 . S
C152 C156 1.401 . S
C152 C157 1.499 . S
N153 Co136 1.989 . S
N153 C152 1.342 . S
N153 N154 1.388 . S
N154 Co137 1.993 . S
N154 N153 1.388 . S
N154 C155 1.346 . S
C155 N154 1.346 . S
C155 C156 1.396 . S
C155 C165 1.510 1_554 S
C156 C152 1.401 . S
C156 C155 1.396 . S
C157 C152 1.499 . S
C157 H158 0.959 . S
C157 H159 0.960 . S
C157 H160 0.961 . S
H158 C157 0.959 . S
H159 C157 0.960 . S
H160 C157 0.961 . S
O161 Co136 1.967 . S
O161 C169 1.258 . S
O162 Co137 1.941 . S
O162 C169 1.266 . S
H163 C165 0.986 . S
H164 C165 0.961 . S
C165 C155 1.510 1_556 S
C165 H163 0.986 . S
C165 H164 0.961 . S
C165 H166 0.960 . S
H166 C165 0.960 . S
H167 N147 0.862 1_554 S
O168 Co136 1.920 . S
O168 C141 1.289 . S
C169 O161 1.258 . S
C169 O162 1.266 . S
Co170 O173 1.970 . S
Co170 N187 1.989 . S
Co170 O195 1.967 . S
Co170 O202 1.920 . S
Co171 O174 1.966 . S
Co171 N180 2.022 . S
Co171 N188 1.993 . S
Co171 O196 1.941 . S
C172 O173 1.258 . S
C172 O174 1.263 . S
O173 Co170 1.970 . S
O173 C172 1.258 . S
O174 Co171 1.966 . S
O174 C172 1.263 . S
C175 O176 1.235 . S
C175 O202 1.289 . S
O176 C175 1.235 . S
C177 C179 1.400 . S
C177 N180 1.351 . S
C177 C182 1.501 . S
C178 C179 1.387 . S
C178 N181 1.341 . S
C179 C177 1.400 . S
C179 C178 1.387 . S
N180 Co171 2.022 . S
N180 C177 1.351 . S
N180 N181 1.365 . S
N181 C178 1.341 . S
N181 N180 1.365 . S
N181 H201 0.862 . S
C182 C177 1.501 . S
C182 H183 0.961 . S
C182 H184 0.961 . S
C182 H185 0.960 . S
H183 C182 0.961 . S
H184 C182 0.961 . S
H185 C182 0.960 . S
C186 N187 1.342 . S
C186 C190 1.401 . S
C186 C191 1.499 . S
N187 Co170 1.989 . S
N187 C186 1.342 . S
N187 N188 1.388 . S
N188 Co171 1.993 . S
N188 N187 1.388 . S
N188 C189 1.346 . S
C189 N188 1.346 . S
C189 C190 1.396 . S
C189 C199 1.510 . S
C190 C186 1.401 . S
C190 C189 1.396 . S
C191 C186 1.499 . S
C191 H192 0.959 . S
C191 H193 0.960 . S
C191 H194 0.961 . S
H192 C191 0.959 . S
H193 C191 0.960 . S
H194 C191 0.961 . S
O195 Co170 1.967 . S
O195 C203 1.258 . S
O196 Co171 1.941 . S
O196 C203 1.266 . S
H197 C199 0.959 . S
H198 C199 0.961 . S
C199 C189 1.510 . S
C199 H197 0.959 . S
C199 H198 0.961 . S
C199 H200 0.960 . S
H200 C199 0.960 . S
H201 N181 0.862 . S
O202 Co170 1.920 . S
O202 C175 1.289 . S
C203 O195 1.258 . S
C203 O196 1.266 . S
Co204 O207 1.970 . S
Co204 N221 1.989 . S
Co204 O229 1.967 . S
Co204 O236 1.920 . S
Co205 O208 1.966 . S
Co205 N214 2.022 . S
Co205 N222 1.993 . S
Co205 O230 1.941 . S
C206 O207 1.258 . S
C206 O208 1.263 . S
O207 Co204 1.970 . S
O207 C206 1.258 . S
O208 Co205 1.966 . S
O208 C206 1.263 . S
C209 O210 1.235 . S
C209 O236 1.289 . S
O210 C209 1.235 . S
C211 C213 1.400 . S
C211 N214 1.351 . S
C211 C216 1.501 . S
C212 C213 1.387 . S
C212 N215 1.341 . S
C213 C211 1.400 . S
C213 C212 1.387 . S
N214 Co205 2.022 . S
N214 C211 1.351 . S
N214 N215 1.365 . S
N215 C212 1.341 . S
N215 N214 1.365 . S
N215 H235 0.862 . S
C216 C211 1.501 . S
C216 H217 0.961 . S
C216 H218 0.961 . S
C216 H219 0.960 . S
H217 C216 0.961 . S
H218 C216 0.961 . S
H219 C216 0.960 . S
C220 N221 1.342 . S
C220 C224 1.401 . S
C220 C225 1.499 . S
N221 Co204 1.989 . S
N221 C220 1.342 . S
N221 N222 1.388 . S
N222 Co205 1.993 . S
N222 N221 1.388 . S
N222 C223 1.346 . S
C223 N222 1.346 . S
C223 C224 1.396 . S
C223 C233 1.510 . S
C224 C220 1.401 . S
C224 C223 1.396 . S
C225 C220 1.499 . S
C225 H226 0.959 . S
C225 H227 0.960 . S
C225 H228 0.961 . S
H226 C225 0.959 . S
H227 C225 0.960 . S
H228 C225 0.961 . S
O229 Co204 1.967 . S
O229 C237 1.258 . S
O230 Co205 1.941 . S
O230 C237 1.266 . S
H231 C233 0.959 . S
H232 C233 0.961 . S
C233 C223 1.510 . S
C233 H231 0.959 . S
C233 H232 0.961 . S
C233 H234 0.960 . S
H234 C233 0.960 . S
H235 N215 0.862 . S
O236 Co204 1.920 . S
O236 C209 1.289 . S
C237 O229 1.258 . S
C237 O230 1.266 . S
Co238 O241 1.970 . S
Co238 N255 1.989 . S
Co238 O263 1.967 . S
Co238 O270 1.920 . S
Co239 O242 1.966 . S
Co239 N248 2.022 . S
Co239 N256 1.993 . S
Co239 O264 1.941 . S
C240 O241 1.258 . S
C240 O242 1.263 . S
O241 Co238 1.970 . S
O241 C240 1.258 . S
O242 Co239 1.966 . S
O242 C240 1.263 . S
C243 O244 1.235 . S
C243 O270 1.289 . S
O244 C243 1.235 . S
C245 C247 1.400 . S
C245 N248 1.351 . S
C245 C250 1.501 . S
C246 C247 1.387 . S
C246 N249 1.341 . S
C247 C245 1.400 . S
C247 C246 1.387 . S
N248 Co239 2.022 . S
N248 C245 1.351 . S
N248 N249 1.365 . S
N249 C246 1.341 . S
N249 N248 1.365 . S
N249 H269 0.862 . S
C250 C245 1.501 . S
C250 H251 0.961 . S
C250 H252 0.961 . S
C250 H253 0.960 . S
H251 C250 0.961 . S
H252 C250 0.961 . S
H253 C250 0.960 . S
C254 N255 1.342 . S
C254 C258 1.401 . S
C254 C259 1.499 . S
N255 Co238 1.989 . S
N255 C254 1.342 . S
N255 N256 1.388 . S
N256 Co239 1.993 . S
N256 N255 1.388 . S
N256 C257 1.346 . S
C257 N256 1.346 . S
C257 C258 1.396 . S
C257 C267 1.510 . S
C258 C254 1.401 . S
C258 C257 1.396 . S
C259 C254 1.499 . S
C259 H260 0.959 . S
C259 H261 0.960 . S
C259 H262 0.961 . S
H260 C259 0.959 . S
H261 C259 0.960 . S
H262 C259 0.961 . S
O263 Co238 1.967 . S
O263 C271 1.258 . S
O264 Co239 1.941 . S
O264 C271 1.266 . S
H265 C267 0.959 . S
H266 C267 0.961 . S
C267 C257 1.510 . S
C267 H265 0.959 . S
C267 H266 0.961 . S
C267 H268 0.960 . S
H268 C267 0.960 . S
H269 N249 0.862 . S
O270 Co238 1.920 . S
O270 C243 1.289 . S
C271 O263 1.258 . S
C271 O264 1.266 . S
Co272 O275 1.970 . S
Co272 N289 1.989 . S
Co272 O297 1.967 . S
Co272 O304 1.920 . S
Co273 O276 1.966 . S
Co273 N282 2.022 . S
Co273 N290 1.993 . S
Co273 O298 1.941 . S
C274 O275 1.258 . S
C274 O276 1.263 . S
O275 Co272 1.970 . S
O275 C274 1.258 . S
O276 Co273 1.966 . S
O276 C274 1.263 . S
C277 O278 1.235 . S
C277 O304 1.289 . S
O278 C277 1.235 . S
C279 C281 1.400 . S
C279 N282 1.351 . S
C279 C284 1.501 . S
C280 C281 1.387 . S
C280 N283 1.341 . S
C281 C279 1.400 . S
C281 C280 1.387 . S
N282 Co273 2.022 . S
N282 C279 1.351 . S
N282 N283 1.365 . S
N283 C280 1.341 . S
N283 N282 1.365 . S
N283 H303 0.862 . S
C284 C279 1.501 . S
C284 H285 0.961 . S
C284 H286 0.961 . S
C284 H287 0.960 . S
H285 C284 0.961 . S
H286 C284 0.961 . S
H287 C284 0.960 . S
C288 N289 1.342 . S
C288 C292 1.401 . S
C288 C293 1.499 . S
N289 Co272 1.989 . S
N289 C288 1.342 . S
N289 N290 1.388 . S
N290 Co273 1.993 . S
N290 N289 1.388 . S
N290 C291 1.346 . S
C291 N290 1.346 . S
C291 C292 1.396 . S
C291 C301 1.510 . S
C292 C288 1.401 . S
C292 C291 1.396 . S
C293 C288 1.499 . S
C293 H294 0.959 . S
C293 H295 0.960 . S
C293 H296 0.961 . S
H294 C293 0.959 . S
H295 C293 0.960 . S
H296 C293 0.961 . S
O297 Co272 1.967 . S
O297 C305 1.258 . S
O298 Co273 1.941 . S
O298 C305 1.266 . S
H299 C301 0.959 . S
H300 C301 0.961 . S
C301 C291 1.510 . S
C301 H299 0.959 . S
C301 H300 0.961 . S
C301 H302 0.960 . S
H302 C301 0.960 . S
H303 N283 0.862 . S
O304 Co272 1.920 . S
O304 C277 1.289 . S
C305 O297 1.258 . S
C305 O298 1.266 . S
Co306 O309 1.970 . S
Co306 N323 1.989 . S
Co306 O331 1.967 . S
Co306 O338 1.920 . S
Co307 O310 1.966 . S
Co307 N316 2.022 1_556 S
Co307 N324 1.993 . S
Co307 O332 1.941 . S
C308 O309 1.258 . S
C308 O310 1.263 . S
O309 Co306 1.970 . S
O309 C308 1.258 . S
O310 Co307 1.966 . S
O310 C308 1.263 . S
C311 O312 1.235 . S
C311 O338 1.289 . S
O312 C311 1.235 . S
C313 C315 1.400 . S
C313 N316 1.351 . S
C313 C318 1.501 . S
C314 C315 1.387 . S
C314 N317 1.336 . S
C315 C313 1.400 . S
C315 C314 1.387 . S
N316 Co307 2.022 1_554 S
N316 C313 1.351 . S
N316 N317 1.365 . S
N317 C314 1.336 . S
N317 N316 1.365 . S
N317 H337 0.867 1_554 S
C318 C313 1.501 . S
C318 H319 0.961 . S
C318 H320 0.961 . S
C318 H321 0.960 . S
H319 C318 0.961 . S
H320 C318 0.961 . S
H321 C318 0.960 . S
C322 N323 1.342 . S
C322 C326 1.401 . S
C322 C327 1.499 . S
N323 Co306 1.989 . S
N323 C322 1.342 . S
N323 N324 1.388 . S
N324 Co307 1.993 . S
N324 N323 1.388 . S
N324 C325 1.346 . S
C325 N324 1.346 . S
C325 C326 1.396 . S
C325 C335 1.510 . S
C326 C322 1.401 . S
C326 C325 1.396 . S
C327 C322 1.499 . S
C327 H328 0.959 . S
C327 H329 0.960 . S
C327 H330 0.961 . S
H328 C327 0.959 . S
H329 C327 0.960 . S
H330 C327 0.961 . S
O331 Co306 1.967 . S
O331 C339 1.258 . S
O332 Co307 1.941 . S
O332 C339 1.266 . S
H333 C335 0.959 . S
H334 C335 0.961 1_554 S
C335 C325 1.510 . S
C335 H333 0.959 . S
C335 H334 0.961 1_556 S
C335 H336 0.960 1_556 S
H336 C335 0.960 1_554 S
H337 N317 0.867 1_556 S
O338 Co306 1.920 . S
O338 C311 1.289 . S
C339 O331 1.258 . S
C339 O332 1.266 . S
Co340 O343 1.970 . S
Co340 N357 1.989 . S
Co340 O365 1.967 . S
Co340 O372 1.920 . S
Co341 O344 1.966 . S
Co341 N350 2.022 . S
Co341 N358 1.993 . S
Co341 O366 1.941 . S
C342 O343 1.258 . S
C342 O344 1.263 . S
O343 Co340 1.970 . S
O343 C342 1.258 . S
O344 Co341 1.966 . S
O344 C342 1.263 . S
C345 O346 1.235 . S
C345 O372 1.289 . S
O346 C345 1.235 . S
C347 C349 1.400 . S
C347 N350 1.351 . S
C347 C352 1.501 . S
C348 C349 1.387 . S
C348 N351 1.341 . S
C349 C347 1.400 . S
C349 C348 1.387 . S
N350 Co341 2.022 . S
N350 C347 1.351 . S
N350 N351 1.365 . S
N351 C348 1.341 . S
N351 N350 1.365 . S
N351 H371 0.862 . S
C352 C347 1.501 . S
C352 H353 0.961 . S
C352 H354 0.961 . S
C352 H355 0.960 . S
H353 C352 0.961 . S
H354 C352 0.961 . S
H355 C352 0.960 . S
C356 N357 1.342 . S
C356 C360 1.401 . S
C356 C361 1.499 . S
N357 Co340 1.989 . S
N357 C356 1.342 . S
N357 N358 1.388 . S
N358 Co341 1.993 . S
N358 N357 1.388 . S
N358 C359 1.346 . S
C359 N358 1.346 . S
C359 C360 1.396 . S
C359 C369 1.510 . S
C360 C356 1.401 . S
C360 C359 1.396 . S
C361 C356 1.499 . S
C361 H362 0.959 . S
C361 H363 0.960 . S
C361 H364 0.961 . S
H362 C361 0.959 . S
H363 C361 0.960 . S
H364 C361 0.961 . S
O365 Co340 1.967 . S
O365 C373 1.258 . S
O366 Co341 1.941 . S
O366 C373 1.266 . S
H367 C369 0.959 . S
H368 C369 0.961 . S
C369 C359 1.510 . S
C369 H367 0.959 . S
C369 H368 0.961 . S
C369 H370 0.960 . S
H370 C369 0.960 . S
H371 N351 0.862 . S
O372 Co340 1.920 . S
O372 C345 1.289 . S
C373 O365 1.258 . S
C373 O366 1.266 . S
Co374 O377 1.970 . S
Co374 N391 1.989 . S
Co374 O399 1.967 . S
Co374 O406 1.920 . S
Co375 O378 1.966 . S
Co375 N384 2.022 . S
Co375 N392 1.993 . S
Co375 O400 1.941 . S
C376 O377 1.258 . S
C376 O378 1.263 . S
O377 Co374 1.970 . S
O377 C376 1.258 . S
O378 Co375 1.966 . S
O378 C376 1.263 . S
C379 O380 1.235 . S
C379 O406 1.289 . S
O380 C379 1.235 . S
C381 C383 1.400 . S
C381 N384 1.351 . S
C381 C386 1.501 . S
C382 C383 1.387 . S
C382 N385 1.341 . S
C383 C381 1.400 . S
C383 C382 1.387 . S
N384 Co375 2.022 . S
N384 C381 1.351 . S
N384 N385 1.365 . S
N385 C382 1.341 . S
N385 N384 1.365 . S
N385 H405 0.862 . S
C386 C381 1.501 . S
C386 H387 0.961 . S
C386 H388 0.961 . S
C386 H389 0.960 . S
H387 C386 0.961 . S
H388 C386 0.961 . S
H389 C386 0.960 . S
C390 N391 1.342 . S
C390 C394 1.401 . S
C390 C395 1.499 . S
N391 Co374 1.989 . S
N391 C390 1.342 . S
N391 N392 1.388 . S
N392 Co375 1.993 . S
N392 N391 1.388 . S
N392 C393 1.346 . S
C393 N392 1.346 . S
C393 C394 1.396 . S
C393 C403 1.510 . S
C394 C390 1.401 . S
C394 C393 1.396 . S
C395 C390 1.499 . S
C395 H396 0.959 . S
C395 H397 0.960 . S
C395 H398 0.961 . S
H396 C395 0.959 . S
H397 C395 0.960 . S
H398 C395 0.961 . S
O399 Co374 1.967 . S
O399 C407 1.258 . S
O400 Co375 1.941 . S
O400 C407 1.266 . S
H401 C403 0.959 . S
H402 C403 0.961 . S
C403 C393 1.510 . S
C403 H401 0.959 . S
C403 H402 0.961 . S
C403 H404 0.960 . S
H404 C403 0.960 . S
H405 N385 0.862 . S
O406 Co374 1.920 . S
O406 C379 1.289 . S
C407 O399 1.258 . S
C407 O400 1.266 . S
C408 C409 1.349 . S
C408 C410 1.327 . S
C408 H433 0.950 . S
C409 C408 1.349 . S
C409 C425 1.349 . S
C410 C408 1.327 . S
C410 C429 1.429 . S
C410 H434 0.950 1_545 S
C411 C428 1.574 . S
C411 C430 1.368 . S
C411 H435 0.949 . S
H412 C416 0.949 . S
C413 C414 1.349 . S
C413 C415 1.327 . S
C413 H436 0.950 . S
C414 C413 1.349 . S
C414 C426 1.349 . S
C415 C413 1.327 . S
C415 C431 1.429 . S
C415 H437 0.950 1_565 S
C416 H412 0.949 . S
C416 C424 1.574 . S
C416 C432 1.368 . S
H417 C425 0.950 . S
H418 C423 0.950 . S
H419 C424 0.949 . S
H420 C426 0.950 . S
H421 C427 0.950 . S
H422 C428 0.949 . S
C423 H418 0.950 . S
C423 C425 1.327 . S
C423 C429 1.429 . S
C424 C416 1.574 . S
C424 H419 0.949 . S
C424 C430 1.368 1_565 S
C425 C409 1.349 . S
C425 H417 0.950 . S
C425 C423 1.327 . S
C426 C414 1.349 . S
C426 H420 0.950 . S
C426 C427 1.327 . S
C427 H421 0.950 . S
C427 C426 1.327 . S
C427 C431 1.429 . S
C428 C411 1.574 . S
C428 H422 0.949 . S
C428 C432 1.368 1_545 S
C429 C410 1.429 . S
C429 C423 1.429 . S
C429 C430 1.523 . S
C430 C411 1.368 . S
C430 C424 1.368 1_545 S
C430 C429 1.523 . S
C431 C415 1.429 . S
C431 C427 1.429 . S
C431 C432 1.523 . S
C432 C416 1.368 . S
C432 C428 1.368 1_565 S
C432 C431 1.523 . S
H433 C408 0.950 . S
H434 C410 0.950 1_565 S
H435 C411 0.949 . S
H436 C413 0.950 . S
H437 C415 0.950 1_545 S
C438 C439 1.349 . S
C438 C440 1.327 . S
C438 H463 0.950 . S
C439 C438 1.349 . S
C439 C455 1.349 . S
C440 C438 1.327 . S
C440 C459 1.429 . S
C440 H464 0.950 . S
C441 C458 1.574 . S
C441 C460 1.368 . S
C441 H465 0.949 . S
H442 C446 0.949 . S
C443 C444 1.349 . S
C443 C445 1.327 . S
C443 H466 0.950 . S
C444 C443 1.349 . S
C444 C456 1.349 . S
C445 C443 1.327 . S
C445 C461 1.429 . S
C445 H467 0.950 . S
C446 H442 0.949 . S
C446 C454 1.574 . S
C446 C462 1.368 . S
H447 C455 0.950 . S
H448 C453 0.950 . S
H449 C454 0.949 . S
H450 C456 0.950 . S
H451 C457 0.950 . S
H452 C458 0.949 . S
C453 H448 0.950 . S
C453 C455 1.327 . S
C453 C459 1.429 . S
C454 C446 1.574 . S
C454 H449 0.949 . S
C454 C460 1.368 . S
C455 C439 1.349 . S
C455 H447 0.950 . S
C455 C453 1.327 . S
C456 C444 1.349 . S
C456 H450 0.950 . S
C456 C457 1.327 . S
C457 H451 0.950 . S
C457 C456 1.327 . S
C457 C461 1.429 . S
C458 C441 1.574 . S
C458 H452 0.949 . S
C458 C462 1.368 . S
C459 C440 1.429 . S
C459 C453 1.429 . S
C459 C460 1.523 . S
C460 C441 1.368 . S
C460 C454 1.368 . S
C460 C459 1.523 . S
C461 C445 1.429 . S
C461 C457 1.429 . S
C461 C462 1.523 . S
C462 C446 1.368 . S
C462 C458 1.368 . S
C462 C461 1.523 . S
H463 C438 0.950 . S
H464 C440 0.950 . S
H465 C441 0.949 . S
H466 C443 0.950 . S
H467 C445 0.950 . S
C468 C469 1.349 . S
C468 C470 1.327 . S
C468 H493 0.950 . S
C469 C468 1.349 . S
C469 C485 1.349 . S
C470 C468 1.327 . S
C470 C489 1.429 . S
C470 H494 0.950 . S
C471 C488 1.574 . S
C471 C490 1.368 . S
C471 H495 0.949 . S
H472 C476 0.955 . S
C473 C474 1.349 . S
C473 C475 1.327 . S
C473 H496 0.950 . S
C474 C473 1.349 . S
C474 C486 1.349 . S
C475 C473 1.327 . S
C475 C491 1.429 . S
C475 H497 0.950 . S
C476 H472 0.955 . S
C476 C484 1.575 1_655 S
C476 C492 1.352 1_655 S
H477 C485 0.950 . S
H478 C483 0.950 . S
H479 C484 0.949 . S
H480 C486 0.950 . S
H481 C487 0.950 . S
H482 C488 0.949 . S
C483 H478 0.950 . S
C483 C485 1.327 . S
C483 C489 1.429 . S
C484 C476 1.575 1_455 S
C484 H479 0.949 . S
C484 C490 1.368 . S
C485 C469 1.349 . S
C485 H477 0.950 . S
C485 C483 1.327 . S
C486 C474 1.349 . S
C486 H480 0.950 . S
C486 C487 1.327 . S
C487 H481 0.950 . S
C487 C486 1.327 . S
C487 C491 1.429 . S
C488 C471 1.574 . S
C488 H482 0.949 . S
C488 C492 1.377 . S
C489 C470 1.429 . S
C489 C483 1.429 . S
C489 C490 1.523 . S
C490 C471 1.368 . S
C490 C484 1.368 . S
C490 C489 1.523 . S
C491 C475 1.429 . S
C491 C487 1.429 . S
C491 C492 1.525 1_655 S
C492 C476 1.352 1_455 S
C492 C488 1.377 . S
C492 C491 1.525 1_455 S
H493 C468 0.950 . S
H494 C470 0.950 . S
H495 C471 0.949 . S
H496 C473 0.950 . S
H497 C475 0.950 . S
C498 C499 1.349 . S
C498 C500 1.327 . S
C498 H523 0.950 . S
C499 C498 1.349 . S
C499 C515 1.349 . S
C500 C498 1.327 . S
C500 C519 1.429 . S
C500 H524 0.950 . S
C501 C518 1.574 . S
C501 C520 1.368 . S
C501 H525 0.949 . S
H502 C506 0.939 1_565 S
C503 C504 1.349 . S
C503 C505 1.327 . S
C503 H526 0.950 . S
C504 C503 1.349 . S
C504 C516 1.349 . S
C505 C503 1.327 . S
C505 C521 1.429 . S
C505 H527 0.950 1_565 S
C506 H502 0.939 1_545 S
C506 C514 1.574 . S
C506 C522 1.368 . S
H507 C515 0.950 . S
H508 C513 0.950 . S
H509 C514 0.949 . S
H510 C516 0.950 . S
H511 C517 0.950 . S
H512 C518 0.949 . S
C513 H508 0.950 . S
C513 C515 1.327 . S
C513 C519 1.429 . S
C514 C506 1.574 . S
C514 H509 0.949 . S
C514 C520 1.368 . S
C515 C499 1.349 . S
C515 H507 0.950 . S
C515 C513 1.327 . S
C516 C504 1.349 . S
C516 H510 0.950 . S
C516 C517 1.327 . S
C517 H511 0.950 . S
C517 C516 1.327 . S
C517 C521 1.429 . S
C518 C501 1.574 . S
C518 H512 0.949 . S
C518 C522 1.368 . S
C519 C500 1.429 . S
C519 C513 1.429 . S
C519 C520 1.523 . S
C520 C501 1.368 . S
C520 C514 1.368 . S
C520 C519 1.523 . S
C521 C505 1.429 . S
C521 C517 1.429 . S
C521 C522 1.523 1_565 S
C522 C506 1.368 . S
C522 C518 1.368 . S
C522 C521 1.523 1_545 S
H523 C498 0.950 . S
H524 C500 0.950 . S
H525 C501 0.949 . S
H526 C503 0.950 . S
H527 C505 0.950 1_545 S
C528 C529 1.349 . S
C528 C530 1.327 . S
C528 H553 0.961 . S
C529 C528 1.349 . S
C529 C545 1.349 . S
C530 C528 1.327 . S
C530 C549 1.429 . S
C530 H554 0.950 1_554 S
C531 C548 1.574 . S
C531 C550 1.368 . S
C531 H555 0.949 . S
H532 C536 0.949 . S
C533 C534 1.349 1_554 S
C533 C535 1.327 . S
C533 H556 0.950 . S
C534 C533 1.349 1_556 S
C534 C546 1.349 . S
C535 C533 1.327 . S
C535 C551 1.429 1_554 S
C535 H557 0.950 . S
C536 H532 0.949 . S
C536 C544 1.574 . S
C536 C552 1.324 1_556 S
H537 C545 0.950 . S
H538 C543 0.950 . S
H539 C544 0.949 . S
H540 C546 0.950 . S
H541 C547 0.950 . S
H542 C548 0.949 . S
C543 H538 0.950 . S
C543 C545 1.327 . S
C543 C549 1.429 . S
C544 C536 1.574 . S
C544 H539 0.949 . S
C544 C550 1.368 1_556 S
C545 C529 1.349 . S
C545 H537 0.950 . S
C545 C543 1.327 . S
C546 C534 1.349 . S
C546 H540 0.950 . S
C546 C547 1.327 . S
C547 H541 0.950 . S
C547 C546 1.327 . S
C547 C551 1.429 . S
C548 C531 1.574 . S
C548 H542 0.949 . S
C548 C552 1.428 . S
C549 C530 1.429 . S
C549 C543 1.429 . S
C549 C550 1.523 . S
C550 C531 1.368 . S
C550 C544 1.368 1_554 S
C550 C549 1.523 . S
C551 C535 1.429 1_556 S
C551 C547 1.429 . S
C551 C552 1.509 1_556 S
C552 C536 1.324 1_554 S
C552 C548 1.428 . S
C552 C551 1.509 1_554 S
H553 C528 0.961 . S
H554 C530 0.950 1_556 S
H555 C531 0.949 . S
H556 C533 0.950 . S
H557 C535 0.950 . S
C558 C559 1.349 . S
C558 C560 1.327 . S
C558 H583 0.950 . S
C559 C558 1.349 . S
C559 C575 1.349 . S
C560 C558 1.327 . S
C560 C579 1.429 . S
C560 H584 0.950 . S
C561 C578 1.574 . S
C561 C580 1.368 1_655 S
C561 H585 0.949 . S
H562 C566 0.960 . S
C563 C564 1.349 . S
C563 C565 1.327 . S
C563 H586 0.950 . S
C564 C563 1.349 . S
C564 C576 1.349 . S
C565 C563 1.327 . S
C565 C581 1.429 . S
C565 H587 0.950 . S
C566 H562 0.960 . S
C566 C574 1.573 . S
C566 C582 1.357 1_455 S
H567 C575 0.950 . S
H568 C573 0.950 1_655 S
H569 C574 0.949 . S
H570 C576 0.950 . S
H571 C577 0.950 . S
H572 C578 0.949 . S
C573 H568 0.950 1_455 S
C573 C575 1.327 . S
C573 C579 1.429 . S
C574 C566 1.573 . S
C574 H569 0.949 . S
C574 C580 1.368 . S
C575 C559 1.349 . S
C575 H567 0.950 . S
C575 C573 1.327 . S
C576 C564 1.349 . S
C576 H570 0.950 . S
C576 C577 1.327 . S
C577 H571 0.950 . S
C577 C576 1.327 . S
C577 C581 1.429 . S
C578 C561 1.574 . S
C578 H572 0.949 . S
C578 C582 1.368 . S
C579 C560 1.429 . S
C579 C573 1.429 . S
C579 C580 1.523 . S
C580 C561 1.368 1_455 S
C580 C574 1.368 . S
C580 C579 1.523 . S
C581 C565 1.429 . S
C581 C577 1.429 . S
C581 C582 1.523 . S
C582 C566 1.357 1_655 S
C582 C578 1.368 . S
C582 C581 1.523 . S
H583 C558 0.950 . S
H584 C560 0.950 . S
H585 C561 0.949 . S
H586 C563 0.950 . S
H587 C565 0.950 . S
C588 C589 1.349 . S
C588 C590 1.327 . S
C588 H613 0.950 . S
C589 C588 1.349 . S
C589 C605 1.349 . S
C590 C588 1.327 . S
C590 C609 1.429 . S
C590 H614 0.950 . S
C591 C608 1.574 . S
C591 C610 1.368 . S
C591 H615 0.949 . S
H592 C596 0.949 . S
C593 C594 1.349 . S
C593 C595 1.327 . S
C593 H616 0.950 . S
C594 C593 1.349 . S
C594 C606 1.349 . S
C595 C593 1.327 . S
C595 C611 1.429 . S
C595 H617 0.950 1_655 S
C596 H592 0.949 . S
C596 C604 1.574 1_655 S
C596 C612 1.366 1_655 S
H597 C605 0.950 . S
H598 C603 0.950 . S
H599 C604 0.949 . S
H600 C606 0.950 . S
H601 C607 0.950 . S
H602 C608 0.949 . S
C603 H598 0.950 . S
C603 C605 1.327 . S
C603 C609 1.429 . S
C604 C596 1.574 1_455 S
C604 H599 0.949 . S
C604 C610 1.368 . S
C605 C589 1.349 . S
C605 H597 0.950 . S
C605 C603 1.327 . S
C606 C594 1.349 . S
C606 H600 0.950 . S
C606 C607 1.327 . S
C607 H601 0.950 . S
C607 C606 1.327 . S
C607 C611 1.429 . S
C608 C591 1.574 . S
C608 H602 0.949 . S
C608 C612 1.389 . S
C609 C590 1.429 . S
C609 C603 1.429 . S
C609 C610 1.523 . S
C610 C591 1.368 . S
C610 C604 1.368 . S
C610 C609 1.523 . S
C611 C595 1.429 . S
C611 C607 1.429 . S
C611 C612 1.499 1_655 S
C612 C596 1.366 1_455 S
C612 C608 1.389 . S
C612 C611 1.499 1_455 S
H613 C588 0.950 . S
H614 C590 0.950 . S
H615 C591 0.949 . S
H616 C593 0.950 . S
H617 C595 0.950 1_455 S
C618 C619 1.349 . S
C618 C620 1.327 1_565 S
C618 H643 0.950 1_565 S
C619 C618 1.349 . S
C619 C635 1.349 . S
C620 C618 1.327 1_545 S
C620 C639 1.429 1_545 S
C620 H644 0.950 . S
C621 C638 1.574 1_565 S
C621 C640 1.368 1_565 S
C621 H645 0.949 . S
H622 C626 0.949 . S
C623 C624 1.349 . S
C623 C625 1.327 . S
C623 H646 0.950 . S
C624 C623 1.349 . S
C624 C636 1.349 . S
C625 C623 1.327 . S
C625 C641 1.429 . S
C625 H647 0.950 . S
C626 H622 0.949 . S
C626 C634 1.574 . S
C626 C642 1.368 . S
H627 C635 0.950 . S
H628 C633 0.950 . S
H629 C634 0.949 . S
H630 C636 0.950 . S
H631 C637 0.950 . S
H632 C638 0.949 1_565 S
C633 H628 0.950 . S
C633 C635 1.327 . S
C633 C639 1.429 . S
C634 C626 1.574 . S
C634 H629 0.949 . S
C634 C640 1.368 . S
C635 C619 1.349 . S
C635 H627 0.950 . S
C635 C633 1.327 . S
C636 C624 1.349 . S
C636 H630 0.950 . S
C636 C637 1.327 . S
C637 H631 0.950 . S
C637 C636 1.327 . S
C637 C641 1.429 . S
C638 C621 1.574 1_545 S
C638 H632 0.949 1_545 S
C638 C642 1.368 . S
C639 C620 1.429 1_565 S
C639 C633 1.429 . S
C639 C640 1.523 1_565 S
C640 C621 1.368 1_545 S
C640 C634 1.368 . S
C640 C639 1.523 1_545 S
C641 C625 1.429 . S
C641 C637 1.429 . S
C641 C642 1.523 . S
C642 C626 1.368 . S
C642 C638 1.368 . S
C642 C641 1.523 . S
H643 C618 0.950 1_545 S
H644 C620 0.950 . S
H645 C621 0.949 . S
H646 C623 0.950 . S
H647 C625 0.950 . S
C648 C649 1.349 . S
C648 C650 1.327 . S
C648 H673 0.950 . S
C649 C648 1.349 . S
C649 C665 1.349 . S
C650 C648 1.327 . S
C650 C669 1.429 . S
C650 H674 0.950 . S
C651 C668 1.574 . S
C651 C670 1.368 . S
C651 H675 0.949 . S
H652 C656 0.949 . S
C653 C654 1.349 . S
C653 C655 1.327 . S
C653 H676 0.950 . S
C654 C653 1.349 . S
C654 C666 1.349 . S
C655 C653 1.327 . S
C655 C671 1.429 . S
C655 H677 0.950 . S
C656 H652 0.949 . S
C656 C664 1.574 . S
C656 C672 1.368 . S
H657 C665 0.950 . S
H658 C663 0.950 . S
H659 C664 0.949 . S
H660 C666 0.950 . S
H661 C667 0.950 . S
H662 C668 0.949 . S
C663 H658 0.950 . S
C663 C665 1.327 . S
C663 C669 1.429 . S
C664 C656 1.574 . S
C664 H659 0.949 . S
C664 C670 1.368 . S
C665 C649 1.349 . S
C665 H657 0.950 . S
C665 C663 1.327 . S
C666 C654 1.349 . S
C666 H660 0.950 . S
C666 C667 1.327 . S
C667 H661 0.950 . S
C667 C666 1.327 . S
C667 C671 1.429 . S
C668 C651 1.574 . S
C668 H662 0.949 . S
C668 C672 1.368 . S
C669 C650 1.429 . S
C669 C663 1.429 . S
C669 C670 1.523 . S
C670 C651 1.368 . S
C670 C664 1.368 . S
C670 C669 1.523 . S
C671 C655 1.429 . S
C671 C667 1.429 . S
C671 C672 1.523 . S
C672 C656 1.368 . S
C672 C668 1.368 . S
C672 C671 1.523 . S
H673 C648 0.950 . S
H674 C650 0.950 . S
H675 C651 0.949 . S
H676 C653 0.950 . S
H677 C655 0.950 . S
C678 C679 1.349 . S
C678 C680 1.327 . S
C678 H703 0.950 . S
C679 C678 1.349 . S
C679 C695 1.349 . S
C680 C678 1.327 . S
C680 C699 1.429 . S
C680 H704 0.950 . S
C681 C698 1.574 1_455 S
C681 C700 1.368 1_554 S
C681 H705 0.949 . S
H682 C686 0.949 . S
C683 C684 1.349 . S
C683 C685 1.327 . S
C683 H706 0.950 . S
C684 C683 1.349 . S
C684 C696 1.349 1_554 S
C685 C683 1.327 . S
C685 C701 1.429 1_554 S
C685 H707 0.950 . S
C686 H682 0.949 . S
C686 C694 1.574 . S
C686 C702 1.368 . S
H687 C695 0.948 . S
H688 C693 0.950 1_554 S
H689 C694 0.949 . S
H690 C696 0.950 . S
H691 C697 0.950 . S
H692 C698 0.949 . S
C693 H688 0.950 1_556 S
C693 C695 1.327 . S
C693 C699 1.429 . S
C694 C686 1.574 . S
C694 H689 0.949 . S
C694 C700 1.368 1_655 S
C695 C679 1.349 . S
C695 H687 0.948 . S
C695 C693 1.327 . S
C696 C684 1.349 1_556 S
C696 H690 0.950 . S
C696 C697 1.327 . S
C697 H691 0.950 . S
C697 C696 1.327 . S
C697 C701 1.429 . S
C698 C681 1.574 1_655 S
C698 H692 0.949 . S
C698 C702 1.368 1_554 S
C699 C680 1.429 . S
C699 C693 1.429 . S
C699 C700 1.523 . S
C700 C681 1.368 1_556 S
C700 C694 1.368 1_455 S
C700 C699 1.523 . S
C701 C685 1.429 1_556 S
C701 C697 1.429 . S
C701 C702 1.523 . S
C702 C686 1.368 . S
C702 C698 1.368 1_556 S
C702 C701 1.523 . S
H703 C678 0.950 . S
H704 C680 0.950 . S
H705 C681 0.949 . S
H706 C683 0.950 . S
H707 C685 0.950 . S
C708 C709 1.349 . S
C708 C710 1.327 . S
C708 H733 0.950 . S
C709 C708 1.349 . S
C709 C725 1.349 . S
C710 C708 1.327 . S
C710 C729 1.429 . S
C710 H734 0.950 . S
C711 C728 1.574 . S
C711 C730 1.368 1_565 S
C711 H735 0.949 . S
H712 C716 0.949 . S
C713 C714 1.349 . S
C713 C715 1.327 . S
C713 H736 0.950 . S
C714 C713 1.349 . S
C714 C726 1.349 . S
C715 C713 1.327 . S
C715 C731 1.429 . S
C715 H737 0.950 . S
C716 H712 0.949 . S
C716 C724 1.574 . S
C716 C732 1.368 1_545 S
H717 C725 0.950 . S
H718 C723 0.950 1_565 S
H719 C724 0.949 . S
H720 C726 0.950 . S
H721 C727 0.950 1_545 S
H722 C728 0.949 . S
C723 H718 0.950 1_545 S
C723 C725 1.327 . S
C723 C729 1.429 . S
C724 C716 1.574 . S
C724 H719 0.949 . S
C724 C730 1.368 . S
C725 C709 1.349 . S
C725 H717 0.950 . S
C725 C723 1.327 . S
C726 C714 1.349 . S
C726 H720 0.950 . S
C726 C727 1.327 . S
C727 H721 0.950 1_565 S
C727 C726 1.327 . S
C727 C731 1.429 . S
C728 C711 1.574 . S
C728 H722 0.949 . S
C728 C732 1.368 . S
C729 C710 1.429 . S
C729 C723 1.429 . S
C729 C730 1.523 . S
C730 C711 1.368 1_545 S
C730 C724 1.368 . S
C730 C729 1.523 . S
C731 C715 1.429 . S
C731 C727 1.429 . S
C731 C732 1.523 . S
C732 C716 1.368 1_565 S
C732 C728 1.368 . S
C732 C731 1.523 . S
H733 C708 0.950 . S
H734 C710 0.950 . S
H735 C711 0.949 . S
H736 C713 0.950 . S
H737 C715 0.950 . S
C738 C739 1.349 . S
C738 C740 1.327 . S
C738 H763 0.950 . S
C739 C738 1.349 . S
C739 C755 1.349 . S
C740 C738 1.327 . S
C740 C759 1.429 . S
C740 H764 0.950 . S
C741 C758 1.574 . S
C741 C760 1.368 . S
C741 H765 0.949 . S
H742 C746 0.949 . S
C743 C744 1.349 . S
C743 C745 1.327 . S
C743 H766 0.950 . S
C744 C743 1.349 . S
C744 C756 1.349 . S
C745 C743 1.327 . S
C745 C761 1.429 . S
C745 H767 0.950 . S
C746 H742 0.949 . S
C746 C754 1.574 . S
C746 C762 1.368 . S
H747 C755 0.950 . S
H748 C753 0.950 . S
H749 C754 0.949 . S
H750 C756 0.950 . S
H751 C757 0.950 . S
H752 C758 0.949 . S
C753 H748 0.950 . S
C753 C755 1.327 . S
C753 C759 1.429 . S
C754 C746 1.574 . S
C754 H749 0.949 . S
C754 C760 1.368 . S
C755 C739 1.349 . S
C755 H747 0.950 . S
C755 C753 1.327 . S
C756 C744 1.349 . S
C756 H750 0.950 . S
C756 C757 1.327 . S
C757 H751 0.950 . S
C757 C756 1.327 . S
C757 C761 1.429 . S
C758 C741 1.574 . S
C758 H752 0.949 . S
C758 C762 1.368 . S
C759 C740 1.429 . S
C759 C753 1.429 . S
C759 C760 1.523 . S
C760 C741 1.368 . S
C760 C754 1.368 . S
C760 C759 1.523 . S
C761 C745 1.429 . S
C761 C757 1.429 . S
C761 C762 1.523 . S
C762 C746 1.368 . S
C762 C758 1.368 . S
C762 C761 1.523 . S
H763 C738 0.950 . S
H764 C740 0.950 . S
H765 C741 0.949 . S
H766 C743 0.950 . S
H767 C745 0.950 . S
C768 C769 1.349 . S
C768 C770 1.327 . S
C768 H793 0.950 . S
C769 C768 1.349 . S
C769 C785 1.349 . S
C770 C768 1.327 . S
C770 C789 1.429 . S
C770 H794 0.950 . S
C771 C788 1.574 . S
C771 C790 1.368 . S
C771 H795 0.949 . S
H772 C776 0.949 . S
C773 C774 1.349 . S
C773 C775 1.327 . S
C773 H796 0.950 . S
C774 C773 1.349 . S
C774 C786 1.349 . S
C775 C773 1.327 . S
C775 C791 1.429 . S
C775 H797 0.950 . S
C776 H772 0.949 . S
C776 C784 1.574 . S
C776 C792 1.368 . S
H777 C785 0.950 . S
H778 C783 0.950 . S
H779 C784 0.949 . S
H780 C786 0.950 . S
H781 C787 0.950 . S
H782 C788 0.949 . S
C783 H778 0.950 . S
C783 C785 1.327 . S
C783 C789 1.429 . S
C784 C776 1.574 . S
C784 H779 0.949 . S
C784 C790 1.368 . S
C785 C769 1.349 . S
C785 H777 0.950 . S
C785 C783 1.327 . S
C786 C774 1.349 . S
C786 H780 0.950 . S
C786 C787 1.327 . S
C787 H781 0.950 . S
C787 C786 1.327 . S
C787 C791 1.429 . S
C788 C771 1.574 . S
C788 H782 0.949 . S
C788 C792 1.368 . S
C789 C770 1.429 . S
C789 C783 1.429 . S
C789 C790 1.523 . S
C790 C771 1.368 . S
C790 C784 1.368 . S
C790 C789 1.523 . S
C791 C775 1.429 . S
C791 C787 1.429 . S
C791 C792 1.523 . S
C792 C776 1.368 . S
C792 C788 1.368 . S
C792 C791 1.523 . S
H793 C768 0.950 . S
H794 C770 0.950 . S
H795 C771 0.949 . S
H796 C773 0.950 . S
H797 C775 0.950 . S
C798 C799 1.349 . S
C798 C800 1.327 . S
C798 H823 0.950 . S
C799 C798 1.349 . S
C799 C815 1.349 . S
C800 C798 1.327 . S
C800 C819 1.429 . S
C800 H824 0.950 . S
C801 C818 1.574 . S
C801 C820 1.368 . S
C801 H825 0.949 . S
H802 C806 0.949 . S
C803 C804 1.349 . S
C803 C805 1.327 . S
C803 H826 0.950 . S
C804 C803 1.349 . S
C804 C816 1.349 . S
C805 C803 1.327 . S
C805 C821 1.429 . S
C805 H827 0.950 . S
C806 H802 0.949 . S
C806 C814 1.574 . S
C806 C822 1.368 . S
H807 C815 0.950 . S
H808 C813 0.950 . S
H809 C814 0.949 . S
H810 C816 0.950 . S
H811 C817 0.950 . S
H812 C818 0.949 . S
C813 H808 0.950 . S
C813 C815 1.327 . S
C813 C819 1.429 . S
C814 C806 1.574 . S
C814 H809 0.949 . S
C814 C820 1.368 . S
C815 C799 1.349 . S
C815 H807 0.950 . S
C815 C813 1.327 . S
C816 C804 1.349 . S
C816 H810 0.950 . S
C816 C817 1.327 . S
C817 H811 0.950 . S
C817 C816 1.327 . S
C817 C821 1.429 . S
C818 C801 1.574 . S
C818 H812 0.949 . S
C818 C822 1.368 . S
C819 C800 1.429 . S
C819 C813 1.429 . S
C819 C820 1.523 . S
C820 C801 1.368 . S
C820 C814 1.368 . S
C820 C819 1.523 . S
C821 C805 1.429 . S
C821 C817 1.429 . S
C821 C822 1.523 . S
C822 C806 1.368 . S
C822 C818 1.368 . S
C822 C821 1.523 . S
H823 C798 0.950 . S
H824 C800 0.950 . S
H825 C801 0.949 . S
H826 C803 0.950 . S
H827 C805 0.950 . S
C828 C829 1.349 . S
C828 C830 1.327 . S
C828 H853 0.950 . S
C829 C828 1.349 . S
C829 C845 1.349 . S
C830 C828 1.327 . S
C830 C849 1.429 . S
C830 H854 0.950 . S
C831 C848 1.574 . S
C831 C850 1.368 . S
C831 H855 0.949 . S
H832 C836 0.949 . S
C833 C834 1.349 . S
C833 C835 1.327 . S
C833 H856 0.950 . S
C834 C833 1.349 . S
C834 C846 1.349 . S
C835 C833 1.327 . S
C835 C851 1.429 . S
C835 H857 0.950 . S
C836 H832 0.949 . S
C836 C844 1.574 . S
C836 C852 1.368 . S
H837 C845 0.950 . S
H838 C843 0.950 . S
H839 C844 0.949 . S
H840 C846 0.950 . S
H841 C847 0.950 . S
H842 C848 0.949 . S
C843 H838 0.950 . S
C843 C845 1.327 . S
C843 C849 1.429 . S
C844 C836 1.574 . S
C844 H839 0.949 . S
C844 C850 1.368 . S
C845 C829 1.349 . S
C845 H837 0.950 . S
C845 C843 1.327 . S
C846 C834 1.349 . S
C846 H840 0.950 . S
C846 C847 1.327 . S
C847 H841 0.950 . S
C847 C846 1.327 . S
C847 C851 1.429 . S
C848 C831 1.574 . S
C848 H842 0.949 . S
C848 C852 1.368 . S
C849 C830 1.429 . S
C849 C843 1.429 . S
C849 C850 1.523 . S
C850 C831 1.368 . S
C850 C844 1.368 . S
C850 C849 1.523 . S
C851 C835 1.429 . S
C851 C847 1.429 . S
C851 C852 1.523 . S
C852 C836 1.368 . S
C852 C848 1.368 . S
C852 C851 1.523 . S
H853 C828 0.950 . S
H854 C830 0.950 . S
H855 C831 0.949 . S
H856 C833 0.950 . S
H857 C835 0.950 . S
C858 C859 1.349 . S
C858 C860 1.327 . S
C858 H883 0.950 . S
C859 C858 1.349 . S
C859 C875 1.349 . S
C860 C858 1.327 . S
C860 C879 1.429 . S
C860 H884 0.950 . S
C861 C878 1.574 . S
C861 C880 1.368 . S
C861 H885 0.949 . S
H862 C866 0.949 . S
C863 C864 1.349 . S
C863 C865 1.327 . S
C863 H886 0.950 . S
C864 C863 1.349 . S
C864 C876 1.349 . S
C865 C863 1.327 . S
C865 C881 1.429 . S
C865 H887 0.950 . S
C866 H862 0.949 . S
C866 C874 1.574 . S
C866 C882 1.368 . S
H867 C875 0.950 . S
H868 C873 0.950 . S
H869 C874 0.949 . S
H870 C876 0.950 . S
H871 C877 0.950 . S
H872 C878 0.949 . S
C873 H868 0.950 . S
C873 C875 1.327 . S
C873 C879 1.429 . S
C874 C866 1.574 . S
C874 H869 0.949 . S
C874 C880 1.368 . S
C875 C859 1.349 . S
C875 H867 0.950 . S
C875 C873 1.327 . S
C876 C864 1.349 . S
C876 H870 0.950 . S
C876 C877 1.327 . S
C877 H871 0.950 . S
C877 C876 1.327 . S
C877 C881 1.429 . S
C878 C861 1.574 . S
C878 H872 0.949 . S
C878 C882 1.368 . S
C879 C860 1.429 . S
C879 C873 1.429 . S
C879 C880 1.523 . S
C880 C861 1.368 . S
C880 C874 1.368 . S
C880 C879 1.523 . S
C881 C865 1.429 . S
C881 C877 1.429 . S
C881 C882 1.523 . S
C882 C866 1.368 . S
C882 C878 1.368 . S
C882 C881 1.523 . S
H883 C858 0.950 . S
H884 C860 0.950 . S
H885 C861 0.949 . S
H886 C863 0.950 . S
H887 C865 0.950 . S
C888 C889 1.349 . S
C888 C890 1.327 . S
C888 H913 0.950 . S
C889 C888 1.349 . S
C889 C905 1.349 . S
C890 C888 1.327 . S
C890 C909 1.429 . S
C890 H914 0.950 . S
C891 C908 1.574 . S
C891 C910 1.368 . S
C891 H915 0.949 . S
H892 C896 0.949 . S
C893 C894 1.349 . S
C893 C895 1.327 . S
C893 H916 0.950 . S
C894 C893 1.349 . S
C894 C906 1.349 . S
C895 C893 1.327 . S
C895 C911 1.429 . S
C895 H917 0.950 . S
C896 H892 0.949 . S
C896 C904 1.574 . S
C896 C912 1.368 . S
H897 C905 0.950 . S
H898 C903 0.950 . S
H899 C904 0.949 . S
H900 C906 0.950 . S
H901 C907 0.950 . S
H902 C908 0.949 . S
C903 H898 0.950 . S
C903 C905 1.327 . S
C903 C909 1.429 . S
C904 C896 1.574 . S
C904 H899 0.949 . S
C904 C910 1.368 . S
C905 C889 1.349 . S
C905 H897 0.950 . S
C905 C903 1.327 . S
C906 C894 1.349 . S
C906 H900 0.950 . S
C906 C907 1.327 . S
C907 H901 0.950 . S
C907 C906 1.327 . S
C907 C911 1.429 . S
C908 C891 1.574 . S
C908 H902 0.949 . S
C908 C912 1.368 . S
C909 C890 1.429 . S
C909 C903 1.429 . S
C909 C910 1.523 . S
C910 C891 1.368 . S
C910 C904 1.368 . S
C910 C909 1.523 . S
C911 C895 1.429 . S
C911 C907 1.429 . S
C911 C912 1.523 . S
C912 C896 1.368 . S
C912 C908 1.368 . S
C912 C911 1.523 . S
H913 C888 0.950 . S
H914 C890 0.950 . S
H915 C891 0.949 . S
H916 C893 0.950 . S
H917 C895 0.950 . S
C918 C919 1.349 . S
C918 C920 1.327 . S
C918 H943 0.950 . S
C919 C918 1.349 . S
C919 C935 1.349 . S
C920 C918 1.327 . S
C920 C939 1.429 . S
C920 H944 0.950 . S
C921 C938 1.574 . S
C921 C940 1.368 . S
C921 H945 0.949 . S
H922 C926 0.949 . S
C923 C924 1.349 . S
C923 C925 1.327 . S
C923 H946 0.950 . S
C924 C923 1.349 . S
C924 C936 1.349 . S
C925 C923 1.327 . S
C925 C941 1.429 . S
C925 H947 0.950 . S
C926 H922 0.949 . S
C926 C934 1.574 . S
C926 C942 1.368 . S
H927 C935 0.950 . S
H928 C933 0.950 . S
H929 C934 0.949 . S
H930 C936 0.950 . S
H931 C937 0.950 . S
H932 C938 0.949 . S
C933 H928 0.950 . S
C933 C935 1.327 . S
C933 C939 1.429 . S
C934 C926 1.574 . S
C934 H929 0.949 . S
C934 C940 1.368 . S
C935 C919 1.349 . S
C935 H927 0.950 . S
C935 C933 1.327 . S
C936 C924 1.349 . S
C936 H930 0.950 . S
C936 C937 1.327 . S
C937 H931 0.950 . S
C937 C936 1.327 . S
C937 C941 1.429 . S
C938 C921 1.574 . S
C938 H932 0.949 . S
C938 C942 1.368 . S
C939 C920 1.429 . S
C939 C933 1.429 . S
C939 C940 1.523 . S
C940 C921 1.368 . S
C940 C934 1.368 . S
C940 C939 1.523 . S
C941 C925 1.429 . S
C941 C937 1.429 . S
C941 C942 1.523 . S
C942 C926 1.368 . S
C942 C938 1.368 . S
C942 C941 1.523 . S
H943 C918 0.950 . S
H944 C920 0.950 . S
H945 C921 0.949 . S
H946 C923 0.950 . S
H947 C925 0.950 . S
C948 C949 1.349 . S
C948 C950 1.327 . S
C948 H973 0.950 . S
C949 C948 1.349 . S
C949 C965 1.349 . S
C950 C948 1.327 . S
C950 C969 1.429 . S
C950 H974 0.950 . S
C951 C968 1.574 . S
C951 C970 1.368 . S
C951 H975 0.949 . S
H952 C956 0.949 . S
C953 C954 1.349 . S
C953 C955 1.327 . S
C953 H976 0.950 . S
C954 C953 1.349 . S
C954 C966 1.349 . S
C955 C953 1.327 . S
C955 C971 1.429 . S
C955 H977 0.950 1_545 S
C956 H952 0.949 . S
C956 C964 1.574 . S
C956 C972 1.368 . S
H957 C965 0.950 . S
H958 C963 0.950 . S
H959 C964 0.949 . S
H960 C966 0.950 . S
H961 C967 0.950 . S
H962 C968 0.949 . S
C963 H958 0.950 . S
C963 C965 1.327 . S
C963 C969 1.429 . S
C964 C956 1.574 . S
C964 H959 0.949 . S
C964 C970 1.368 1_545 S
C965 C949 1.349 . S
C965 H957 0.950 . S
C965 C963 1.327 . S
C966 C954 1.349 . S
C966 H960 0.950 . S
C966 C967 1.327 . S
C967 H961 0.950 . S
C967 C966 1.327 . S
C967 C971 1.429 . S
C968 C951 1.574 . S
C968 H962 0.949 . S
C968 C972 1.368 1_565 S
C969 C950 1.429 . S
C969 C963 1.429 . S
C969 C970 1.523 . S
C970 C951 1.368 . S
C970 C964 1.368 1_565 S
C970 C969 1.523 . S
C971 C955 1.429 . S
C971 C967 1.429 . S
C971 C972 1.523 . S
C972 C956 1.368 . S
C972 C968 1.368 1_545 S
C972 C971 1.523 . S
H973 C948 0.950 . S
H974 C950 0.950 . S
H975 C951 0.949 . S
H976 C953 0.950 . S
H977 C955 0.950 1_565 S
C978 C979 1.349 . S
C978 C980 1.327 . S
C978 H1003 0.950 . S
C979 C978 1.349 . S
C979 C995 1.349 . S
C980 C978 1.327 . S
C980 C999 1.429 . S
C980 H1004 0.950 . S
C981 C998 1.574 . S
C981 C1000 1.368 . S
C981 H1005 0.949 . S
H982 C986 0.949 . S
C983 C984 1.349 . S
C983 C985 1.327 . S
C983 H1006 0.950 . S
C984 C983 1.349 . S
C984 C996 1.349 . S
C985 C983 1.327 . S
C985 C1001 1.429 . S
C985 H1007 0.950 . S
C986 H982 0.949 . S
C986 C994 1.574 . S
C986 C1002 1.368 . S
H987 C995 0.950 . S
H988 C993 0.950 . S
H989 C994 0.949 . S
H990 C996 0.950 . S
H991 C997 0.950 . S
H992 C998 0.949 . S
C993 H988 0.950 . S
C993 C995 1.327 . S
C993 C999 1.429 . S
C994 C986 1.574 . S
C994 H989 0.949 . S
C994 C1000 1.368 . S
C995 C979 1.349 . S
C995 H987 0.950 . S
C995 C993 1.327 . S
C996 C984 1.349 . S
C996 H990 0.950 . S
C996 C997 1.327 . S
C997 H991 0.950 . S
C997 C996 1.327 . S
C997 C1001 1.429 . S
C998 C981 1.574 . S
C998 H992 0.949 . S
C998 C1002 1.368 . S
C999 C980 1.429 . S
C999 C993 1.429 . S
C999 C1000 1.523 . S
C1000 C981 1.368 . S
C1000 C994 1.368 . S
C1000 C999 1.523 . S
C1001 C985 1.429 . S
C1001 C997 1.429 . S
C1001 C1002 1.523 . S
C1002 C986 1.368 . S
C1002 C998 1.368 . S
C1002 C1001 1.523 . S
H1003 C978 0.950 . S
H1004 C980 0.950 . S
H1005 C981 0.949 . S
H1006 C983 0.950 . S
H1007 C985 0.950 . S
C1008 C1009 1.349 . S
C1008 C1010 1.327 . S
C1008 H1033 0.950 . S
C1009 C1008 1.349 . S
C1009 C1025 1.349 . S
C1010 C1008 1.327 . S
C1010 C1029 1.429 . S
C1010 H1034 0.950 1_655 S
C1011 C1028 1.574 1_655 S
C1011 C1030 1.368 1_655 S
C1011 H1035 0.949 . S
H1012 C1016 0.949 . S
C1013 C1014 1.349 . S
C1013 C1015 1.327 . S
C1013 H1036 0.950 . S
C1014 C1013 1.349 . S
C1014 C1026 1.349 . S
C1015 C1013 1.327 . S
C1015 C1031 1.429 . S
C1015 H1037 0.950 . S
C1016 H1012 0.949 . S
C1016 C1024 1.574 . S
C1016 C1032 1.368 . S
H1017 C1025 0.950 . S
H1018 C1023 0.950 . S
H1019 C1024 0.949 . S
H1020 C1026 0.950 . S
H1021 C1027 0.950 . S
H1022 C1028 0.949 1_655 S
C1023 H1018 0.950 . S
C1023 C1025 1.327 . S
C1023 C1029 1.429 . S
C1024 C1016 1.574 . S
C1024 H1019 0.949 . S
C1024 C1030 1.368 . S
C1025 C1009 1.349 . S
C1025 H1017 0.950 . S
C1025 C1023 1.327 . S
C1026 C1014 1.349 . S
C1026 H1020 0.950 . S
C1026 C1027 1.327 . S
C1027 H1021 0.950 . S
C1027 C1026 1.327 . S
C1027 C1031 1.429 . S
C1028 C1011 1.574 1_455 S
C1028 H1022 0.949 1_455 S
C1028 C1032 1.368 . S
C1029 C1010 1.429 . S
C1029 C1023 1.429 . S
C1029 C1030 1.523 1_655 S
C1030 C1011 1.368 1_455 S
C1030 C1024 1.368 . S
C1030 C1029 1.523 1_455 S
C1031 C1015 1.429 . S
C1031 C1027 1.429 . S
C1031 C1032 1.523 . S
C1032 C1016 1.368 . S
C1032 C1028 1.368 . S
C1032 C1031 1.523 . S
H1033 C1008 0.950 . S
H1034 C1010 0.950 1_455 S
H1035 C1011 0.949 . S
H1036 C1013 0.950 . S
H1037 C1015 0.950 . S
C1038 C1039 1.349 . S
C1038 C1040 1.327 1_565 S
C1038 H1063 0.950 1_565 S
C1039 C1038 1.349 . S
C1039 C1055 1.349 . S
C1040 C1038 1.327 1_545 S
C1040 C1059 1.429 1_545 S
C1040 H1064 0.950 . S
C1041 C1058 1.574 1_565 S
C1041 C1060 1.368 1_565 S
C1041 H1065 0.949 . S
H1042 C1046 0.949 . S
C1043 C1044 1.349 . S
C1043 C1045 1.327 . S
C1043 H1066 0.950 . S
C1044 C1043 1.349 . S
C1044 C1056 1.349 . S
C1045 C1043 1.327 . S
C1045 C1061 1.429 . S
C1045 H1067 0.950 . S
C1046 H1042 0.949 . S
C1046 C1054 1.574 . S
C1046 C1062 1.368 . S
H1047 C1055 0.950 . S
H1048 C1053 0.950 . S
H1049 C1054 0.949 . S
H1050 C1056 0.950 . S
H1051 C1057 0.950 . S
H1052 C1058 0.949 . S
C1053 H1048 0.950 . S
C1053 C1055 1.327 . S
C1053 C1059 1.429 . S
C1054 C1046 1.574 . S
C1054 H1049 0.949 . S
C1054 C1060 1.368 . S
C1055 C1039 1.349 . S
C1055 H1047 0.950 . S
C1055 C1053 1.327 . S
C1056 C1044 1.349 . S
C1056 H1050 0.950 . S
C1056 C1057 1.327 . S
C1057 H1051 0.950 . S
C1057 C1056 1.327 . S
C1057 C1061 1.429 . S
C1058 C1041 1.574 1_545 S
C1058 H1052 0.949 . S
C1058 C1062 1.368 . S
C1059 C1040 1.429 1_565 S
C1059 C1053 1.429 . S
C1059 C1060 1.523 1_565 S
C1060 C1041 1.368 1_545 S
C1060 C1054 1.368 . S
C1060 C1059 1.523 1_545 S
C1061 C1045 1.429 . S
C1061 C1057 1.429 . S
C1061 C1062 1.523 . S
C1062 C1046 1.368 . S
C1062 C1058 1.368 . S
C1062 C1061 1.523 . S
H1063 C1038 0.950 1_545 S
H1064 C1040 0.950 . S
H1065 C1041 0.949 . S
H1066 C1043 0.950 . S
H1067 C1045 0.950 . S
C1068 C1069 1.349 . S
C1068 C1070 1.327 . S
C1068 H1093 0.950 . S
C1069 C1068 1.349 . S
C1069 C1085 1.349 . S
C1070 C1068 1.327 . S
C1070 C1089 1.429 . S
C1070 H1094 0.950 . S
C1071 C1088 1.574 . S
C1071 C1090 1.368 . S
C1071 H1095 0.949 . S
H1072 C1076 0.949 . S
C1073 C1074 1.349 . S
C1073 C1075 1.327 . S
C1073 H1096 0.950 . S
C1074 C1073 1.349 . S
C1074 C1086 1.349 . S
C1075 C1073 1.327 . S
C1075 C1091 1.429 . S
C1075 H1097 0.950 . S
C1076 H1072 0.949 . S
C1076 C1084 1.574 . S
C1076 C1092 1.368 . S
H1077 C1085 0.950 . S
H1078 C1083 0.950 . S
H1079 C1084 0.949 . S
H1080 C1086 0.950 . S
H1081 C1087 0.950 . S
H1082 C1088 0.949 . S
C1083 H1078 0.950 . S
C1083 C1085 1.327 . S
C1083 C1089 1.429 . S
C1084 C1076 1.574 . S
C1084 H1079 0.949 . S
C1084 C1090 1.368 . S
C1085 C1069 1.349 . S
C1085 H1077 0.950 . S
C1085 C1083 1.327 . S
C1086 C1074 1.349 . S
C1086 H1080 0.950 . S
C1086 C1087 1.327 . S
C1087 H1081 0.950 . S
C1087 C1086 1.327 . S
C1087 C1091 1.429 . S
C1088 C1071 1.574 . S
C1088 H1082 0.949 . S
C1088 C1092 1.368 . S
C1089 C1070 1.429 . S
C1089 C1083 1.429 . S
C1089 C1090 1.523 . S
C1090 C1071 1.368 . S
C1090 C1084 1.368 . S
C1090 C1089 1.523 . S
C1091 C1075 1.429 . S
C1091 C1087 1.429 . S
C1091 C1092 1.523 . S
C1092 C1076 1.368 . S
C1092 C1088 1.368 . S
C1092 C1091 1.523 . S
H1093 C1068 0.950 . S
H1094 C1070 0.950 . S
H1095 C1071 0.949 . S
H1096 C1073 0.950 . S
H1097 C1075 0.950 . S
C1098 C1099 1.349 . S
C1098 C1100 1.327 . S
C1098 H1123 0.950 . S
C1099 C1098 1.349 . S
C1099 C1115 1.349 . S
C1100 C1098 1.327 . S
C1100 C1119 1.429 . S
C1100 H1124 0.950 1_455 S
C1101 C1118 1.574 . S
C1101 C1120 1.368 . S
C1101 H1125 0.949 . S
H1102 C1106 0.949 . S
C1103 C1104 1.349 . S
C1103 C1105 1.327 . S
C1103 H1126 0.950 . S
C1104 C1103 1.349 . S
C1104 C1116 1.349 . S
C1105 C1103 1.327 . S
C1105 C1121 1.429 . S
C1105 H1127 0.950 . S
C1106 H1102 0.949 . S
C1106 C1114 1.574 . S
C1106 C1122 1.368 . S
H1107 C1115 0.950 . S
H1108 C1113 0.950 . S
H1109 C1114 0.949 . S
H1110 C1116 0.950 . S
H1111 C1117 0.950 . S
H1112 C1118 0.949 . S
C1113 H1108 0.950 . S
C1113 C1115 1.327 . S
C1113 C1119 1.429 . S
C1114 C1106 1.574 . S
C1114 H1109 0.949 . S
C1114 C1120 1.368 1_655 S
C1115 C1099 1.349 . S
C1115 H1107 0.950 . S
C1115 C1113 1.327 . S
C1116 C1104 1.349 . S
C1116 H1110 0.950 . S
C1116 C1117 1.327 . S
C1117 H1111 0.950 . S
C1117 C1116 1.327 . S
C1117 C1121 1.429 . S
C1118 C1101 1.574 . S
C1118 H1112 0.949 . S
C1118 C1122 1.368 1_455 S
C1119 C1100 1.429 . S
C1119 C1113 1.429 . S
C1119 C1120 1.523 . S
C1120 C1101 1.368 . S
C1120 C1114 1.368 1_455 S
C1120 C1119 1.523 . S
C1121 C1105 1.429 . S
C1121 C1117 1.429 . S
C1121 C1122 1.523 . S
C1122 C1106 1.368 . S
C1122 C1118 1.368 1_655 S
C1122 C1121 1.523 . S
H1123 C1098 0.950 . S
H1124 C1100 0.950 1_655 S
H1125 C1101 0.949 . S
H1126 C1103 0.950 . S
H1127 C1105 0.950 . S
C1128 C1129 1.349 . S
C1128 C1130 1.327 . S
C1128 H1153 0.950 . S
C1129 C1128 1.349 . S
C1129 C1145 1.349 . S
C1130 C1128 1.327 . S
C1130 C1149 1.429 . S
C1130 H1154 0.950 . S
C1131 C1148 1.574 . S
C1131 C1150 1.368 . S
C1131 H1155 0.949 . S
H1132 C1136 0.949 . S
C1133 C1134 1.349 . S
C1133 C1135 1.327 . S
C1133 H1156 0.950 . S
C1134 C1133 1.349 . S
C1134 C1146 1.349 . S
C1135 C1133 1.327 . S
C1135 C1151 1.429 . S
C1135 H1157 0.950 . S
C1136 H1132 0.949 . S
C1136 C1144 1.574 . S
C1136 C1152 1.368 . S
H1137 C1145 0.950 . S
H1138 C1143 0.950 . S
H1139 C1144 0.949 1_655 S
H1140 C1146 0.950 . S
H1141 C1147 0.950 . S
H1142 C1148 0.949 . S
C1143 H1138 0.950 . S
C1143 C1145 1.327 . S
C1143 C1149 1.429 . S
C1144 C1136 1.574 . S
C1144 H1139 0.949 1_455 S
C1144 C1150 1.368 . S
C1145 C1129 1.349 . S
C1145 H1137 0.950 . S
C1145 C1143 1.327 . S
C1146 C1134 1.349 . S
C1146 H1140 0.950 . S
C1146 C1147 1.327 . S
C1147 H1141 0.950 . S
C1147 C1146 1.327 . S
C1147 C1151 1.429 . S
C1148 C1131 1.574 . S
C1148 H1142 0.949 . S
C1148 C1152 1.368 . S
C1149 C1130 1.429 . S
C1149 C1143 1.429 . S
C1149 C1150 1.523 1_655 S
C1150 C1131 1.368 . S
C1150 C1144 1.368 . S
C1150 C1149 1.523 1_455 S
C1151 C1135 1.429 . S
C1151 C1147 1.429 . S
C1151 C1152 1.523 . S
C1152 C1136 1.368 . S
C1152 C1148 1.368 . S
C1152 C1151 1.523 . S
H1153 C1128 0.950 . S
H1154 C1130 0.950 . S
H1155 C1131 0.949 . S
H1156 C1133 0.950 . S
H1157 C1135 0.950 . S
C1158 C1159 1.349 . S
C1158 C1160 1.327 . S
C1158 H1183 0.950 . S
C1159 C1158 1.349 . S
C1159 C1175 1.349 . S
C1160 C1158 1.327 . S
C1160 C1179 1.429 . S
C1160 H1184 0.950 . S
C1161 C1178 1.574 1_545 S
C1161 C1180 1.368 . S
C1161 H1185 0.949 . S
H1162 C1166 0.949 . S
C1163 C1164 1.349 . S
C1163 C1165 1.327 . S
C1163 H1186 0.950 . S
C1164 C1163 1.349 . S
C1164 C1176 1.349 . S
C1165 C1163 1.327 . S
C1165 C1181 1.429 . S
C1165 H1187 0.950 . S
C1166 H1162 0.949 . S
C1166 C1174 1.574 . S
C1166 C1182 1.368 . S
H1167 C1175 0.950 . S
H1168 C1173 0.950 . S
H1169 C1174 0.949 . S
H1170 C1176 0.950 . S
H1171 C1177 0.950 . S
H1172 C1178 0.949 . S
C1173 H1168 0.950 . S
C1173 C1175 1.327 . S
C1173 C1179 1.429 . S
C1174 C1166 1.574 . S
C1174 H1169 0.949 . S
C1174 C1180 1.368 . S
C1175 C1159 1.349 . S
C1175 H1167 0.950 . S
C1175 C1173 1.327 . S
C1176 C1164 1.349 . S
C1176 H1170 0.950 . S
C1176 C1177 1.327 1_565 S
C1177 H1171 0.950 . S
C1177 C1176 1.327 1_545 S
C1177 C1181 1.429 1_545 S
C1178 C1161 1.574 1_565 S
C1178 H1172 0.949 . S
C1178 C1182 1.368 1_565 S
C1179 C1160 1.429 . S
C1179 C1173 1.429 . S
C1179 C1180 1.523 . S
C1180 C1161 1.368 . S
C1180 C1174 1.368 . S
C1180 C1179 1.523 . S
C1181 C1165 1.429 . S
C1181 C1177 1.429 1_565 S
C1181 C1182 1.523 1_565 S
C1182 C1166 1.368 . S
C1182 C1178 1.368 1_545 S
C1182 C1181 1.523 1_545 S
H1183 C1158 0.950 . S
H1184 C1160 0.950 . S
H1185 C1161 0.949 . S
H1186 C1163 0.950 . S
H1187 C1165 0.950 . S
C1188 C1189 1.349 . S
C1188 C1190 1.327 . S
C1188 H1213 0.950 . S
C1189 C1188 1.349 . S
C1189 C1205 1.349 . S
C1190 C1188 1.327 . S
C1190 C1209 1.429 . S
C1190 H1214 0.950 . S
C1191 C1208 1.574 . S
C1191 C1210 1.368 . S
C1191 H1215 0.949 . S
H1192 C1196 0.949 . S
C1193 C1194 1.349 . S
C1193 C1195 1.327 . S
C1193 H1216 0.950 . S
C1194 C1193 1.349 . S
C1194 C1206 1.349 . S
C1195 C1193 1.327 . S
C1195 C1211 1.429 . S
C1195 H1217 0.950 . S
C1196 H1192 0.949 . S
C1196 C1204 1.574 . S
C1196 C1212 1.368 . S
H1197 C1205 0.950 . S
H1198 C1203 0.950 . S
H1199 C1204 0.949 . S
H1200 C1206 0.950 . S
H1201 C1207 0.950 . S
H1202 C1208 0.949 . S
C1203 H1198 0.950 . S
C1203 C1205 1.327 . S
C1203 C1209 1.429 . S
C1204 C1196 1.574 . S
C1204 H1199 0.949 . S
C1204 C1210 1.368 . S
C1205 C1189 1.349 . S
C1205 H1197 0.950 . S
C1205 C1203 1.327 . S
C1206 C1194 1.349 . S
C1206 H1200 0.950 . S
C1206 C1207 1.327 . S
C1207 H1201 0.950 . S
C1207 C1206 1.327 . S
C1207 C1211 1.429 . S
C1208 C1191 1.574 . S
C1208 H1202 0.949 . S
C1208 C1212 1.368 . S
C1209 C1190 1.429 . S
C1209 C1203 1.429 . S
C1209 C1210 1.523 . S
C1210 C1191 1.368 . S
C1210 C1204 1.368 . S
C1210 C1209 1.523 . S
C1211 C1195 1.429 . S
C1211 C1207 1.429 . S
C1211 C1212 1.523 . S
C1212 C1196 1.368 . S
C1212 C1208 1.368 . S
C1212 C1211 1.523 . S
H1213 C1188 0.950 . S
H1214 C1190 0.950 . S
H1215 C1191 0.949 . S
H1216 C1193 0.950 . S
H1217 C1195 0.950 . S
C1218 C1219 1.349 . S
C1218 C1220 1.327 . S
C1218 H1243 0.950 . S
C1219 C1218 1.349 . S
C1219 C1235 1.349 . S
C1220 C1218 1.327 . S
C1220 C1239 1.429 . S
C1220 H1244 0.950 . S
C1221 C1238 1.574 . S
C1221 C1240 1.368 1_655 S
C1221 H1245 0.949 . S
H1222 C1226 0.949 . S
C1223 C1224 1.349 . S
C1223 C1225 1.327 . S
C1223 H1246 0.950 . S
C1224 C1223 1.349 . S
C1224 C1236 1.349 . S
C1225 C1223 1.327 . S
C1225 C1241 1.429 . S
C1225 H1247 0.950 . S
C1226 H1222 0.949 . S
C1226 C1234 1.574 1_655 S
C1226 C1242 1.368 . S
H1227 C1235 0.950 . S
H1228 C1233 0.950 . S
H1229 C1234 0.949 . S
H1230 C1236 0.950 . S
H1231 C1237 0.950 . S
H1232 C1238 0.949 . S
C1233 H1228 0.950 . S
C1233 C1235 1.327 . S
C1233 C1239 1.429 . S
C1234 C1226 1.574 1_455 S
C1234 H1229 0.949 . S
C1234 C1240 1.368 . S
C1235 C1219 1.349 . S
C1235 H1227 0.950 . S
C1235 C1233 1.327 . S
C1236 C1224 1.349 . S
C1236 H1230 0.950 . S
C1236 C1237 1.327 . S
C1237 H1231 0.950 . S
C1237 C1236 1.327 . S
C1237 C1241 1.429 . S
C1238 C1221 1.574 . S
C1238 H1232 0.949 . S
C1238 C1242 1.368 . S
C1239 C1220 1.429 . S
C1239 C1233 1.429 . S
C1239 C1240 1.523 . S
C1240 C1221 1.368 1_455 S
C1240 C1234 1.368 . S
C1240 C1239 1.523 . S
C1241 C1225 1.429 . S
C1241 C1237 1.429 . S
C1241 C1242 1.523 . S
C1242 C1226 1.368 . S
C1242 C1238 1.368 . S
C1242 C1241 1.523 . S
H1243 C1218 0.950 . S
H1244 C1220 0.950 . S
H1245 C1221 0.949 . S
H1246 C1223 0.950 . S
H1247 C1225 0.950 . S
C1248 C1249 1.349 . S
C1248 C1250 1.327 . S
C1248 H1273 0.950 . S
C1249 C1248 1.349 . S
C1249 C1265 1.349 . S
C1250 C1248 1.327 . S
C1250 C1269 1.429 . S
C1250 H1274 0.950 . S
C1251 C1268 1.574 . S
C1251 C1270 1.368 . S
C1251 H1275 0.949 . S
H1252 C1256 0.949 . S
C1253 C1254 1.349 . S
C1253 C1255 1.327 . S
C1253 H1276 0.950 . S
C1254 C1253 1.349 . S
C1254 C1266 1.349 . S
C1255 C1253 1.327 . S
C1255 C1271 1.429 . S
C1255 H1277 0.950 . S
C1256 H1252 0.949 . S
C1256 C1264 1.574 . S
C1256 C1272 1.368 . S
H1257 C1265 0.950 . S
H1258 C1263 0.950 . S
H1259 C1264 0.949 . S
H1260 C1266 0.950 . S
H1261 C1267 0.950 . S
H1262 C1268 0.949 . S
C1263 H1258 0.950 . S
C1263 C1265 1.327 . S
C1263 C1269 1.429 . S
C1264 C1256 1.574 . S
C1264 H1259 0.949 . S
C1264 C1270 1.368 1_565 S
C1265 C1249 1.349 . S
C1265 H1257 0.950 . S
C1265 C1263 1.327 . S
C1266 C1254 1.349 . S
C1266 H1260 0.950 . S
C1266 C1267 1.327 . S
C1267 H1261 0.950 . S
C1267 C1266 1.327 . S
C1267 C1271 1.429 . S
C1268 C1251 1.574 . S
C1268 H1262 0.949 . S
C1268 C1272 1.368 1_545 S
C1269 C1250 1.429 . S
C1269 C1263 1.429 . S
C1269 C1270 1.523 . S
C1270 C1251 1.368 . S
C1270 C1264 1.368 1_545 S
C1270 C1269 1.523 . S
C1271 C1255 1.429 . S
C1271 C1267 1.429 . S
C1271 C1272 1.523 . S
C1272 C1256 1.368 . S
C1272 C1268 1.368 1_565 S
C1272 C1271 1.523 . S
H1273 C1248 0.950 . S
H1274 C1250 0.950 . S
H1275 C1251 0.949 . S
H1276 C1253 0.950 . S
H1277 C1255 0.950 . S
C1278 C1279 1.349 . S
C1278 C1280 1.327 . S
C1278 H1303 0.950 . S
C1279 C1278 1.349 . S
C1279 C1295 1.349 . S
C1280 C1278 1.327 . S
C1280 C1299 1.429 . S
C1280 H1304 0.950 . S
C1281 C1298 1.574 . S
C1281 C1300 1.368 . S
C1281 H1305 0.949 . S
H1282 C1286 0.949 . S
C1283 C1284 1.349 . S
C1283 C1285 1.327 . S
C1283 H1306 0.950 . S
C1284 C1283 1.349 . S
C1284 C1296 1.349 . S
C1285 C1283 1.327 . S
C1285 C1301 1.429 . S
C1285 H1307 0.950 . S
C1286 H1282 0.949 . S
C1286 C1294 1.574 . S
C1286 C1302 1.368 . S
H1287 C1295 0.950 . S
H1288 C1293 0.950 . S
H1289 C1294 0.949 . S
H1290 C1296 0.950 . S
H1291 C1297 0.950 . S
H1292 C1298 0.949 . S
C1293 H1288 0.950 . S
C1293 C1295 1.327 . S
C1293 C1299 1.429 . S
C1294 C1286 1.574 . S
C1294 H1289 0.949 . S
C1294 C1300 1.368 . S
C1295 C1279 1.349 . S
C1295 H1287 0.950 . S
C1295 C1293 1.327 . S
C1296 C1284 1.349 . S
C1296 H1290 0.950 . S
C1296 C1297 1.327 . S
C1297 H1291 0.950 . S
C1297 C1296 1.327 . S
C1297 C1301 1.429 . S
C1298 C1281 1.574 . S
C1298 H1292 0.949 . S
C1298 C1302 1.368 . S
C1299 C1280 1.429 . S
C1299 C1293 1.429 . S
C1299 C1300 1.523 . S
C1300 C1281 1.368 . S
C1300 C1294 1.368 . S
C1300 C1299 1.523 . S
C1301 C1285 1.429 . S
C1301 C1297 1.429 . S
C1301 C1302 1.523 . S
C1302 C1286 1.368 . S
C1302 C1298 1.368 . S
C1302 C1301 1.523 . S
H1303 C1278 0.950 . S
H1304 C1280 0.950 . S
H1305 C1281 0.949 . S
H1306 C1283 0.950 . S
H1307 C1285 0.950 . S
C409 C20 1.267 . S
C414 C376 1.252 . S
C439 C54 1.267 . S
C444 C206 1.252 . S
C469 C240 1.253 . S
C474 C88 1.267 . S
C499 C274 1.252 . S
C504 C122 1.267 . S
C529 C156 1.268 . S
C534 C308 1.253 . S
C559 C190 1.268 . S
C564 C342 1.253 . S
C589 C36 1.252 . S
C594 C224 1.267 . S
C619 C258 1.267 . S
C624 C70 1.252 . S
C649 C104 1.252 . S
C654 C292 1.267 . S
C679 C326 1.268 . S
C684 C138 1.253 . S
C709 C360 1.268 . S
C714 C172 1.253 . S
C739 C2 1.252 . S
C744 C394 1.267 . S
C769 C209 0.563 . S
C774 C5 0.563 . S
C799 C39 0.564 . S
C804 C243 0.564 . S
C829 C73 0.564 . S
C834 C277 0.564 . S
C859 C107 0.563 . S
C864 C311 0.563 . S
C889 C345 0.563 . S
C894 C141 0.563 . S
C919 C379 0.563 . S
C924 C175 0.563 . S
C949 C203 0.649 . S
C954 C9 0.650 . S
C979 C33 0.649 . S
C984 C43 0.650 . S
C1009 C77 0.650 . S
C1014 C67 0.649 . S
C1039 C111 0.650 . S
C1044 C101 0.649 . S
C1069 C145 0.649 . S
C1074 C135 0.648 . S
C1099 C179 0.650 . S
C1104 C169 0.649 . S
C1129 C213 0.649 . S
C1134 C271 0.648 . S
C1159 C305 0.649 . S
C1164 C247 0.650 . S
C1189 C281 0.650 . S
C1194 C339 0.649 . S
C1219 C315 0.650 . S
C1224 C373 0.649 . S
C1249 C349 0.650 . S
C1254 C407 0.649 . S
C1279 C383 0.650 . S
C1284 C237 0.649 . S
