# Generated by pormake.
# Topology rac, (4)-cn, num edge types: 1
# Building blocks:
#     Node 0, Type 0, BuildingBlock: TATPOV_clean_sbu_0, # of connection points: 4
#     Node 1, Type 0, BuildingBlock: TATPOV_clean_sbu_0, # of connection points: 4
#     Node 2, Type 0, BuildingBlock: TATPOV_clean_sbu_0, # of connection points: 4
#     Node 3, Type 0, BuildingBlock: TATPOV_clean_sbu_0, # of connection points: 4
#     Node 4, Type 0, BuildingBlock: TATPOV_clean_sbu_0, # of connection points: 4
#     Node 5, Type 0, BuildingBlock: TATPOV_clean_sbu_0, # of connection points: 4
#     Node 6, Type 0, BuildingBlock: TATPOV_clean_sbu_0, # of connection points: 4
#     Node 7, Type 0, BuildingBlock: TATPOV_clean_sbu_0, # of connection points: 4
#     Edge 8, Type (0, 0), BuildingBlock: FUNLAD_clean_linker_0, # of connection points: 2
#     Edge 9, Type (0, 0), BuildingBlock: FUNLAD_clean_linker_0, # of connection points: 2
#     Edge 10, Type (0, 0), BuildingBlock: FUNLAD_clean_linker_0, # of connection points: 2
#     Edge 11, Type (0, 0), BuildingBlock: FUNLAD_clean_linker_0, # of connection points: 2
#     Edge 12, Type (0, 0), BuildingBlock: FUNLAD_clean_linker_0, # of connection points: 2
#     Edge 13, Type (0, 0), BuildingBlock: FUNLAD_clean_linker_0, # of connection points: 2
#     Edge 14, Type (0, 0), BuildingBlock: FUNLAD_clean_linker_0, # of connection points: 2
#     Edge 15, Type (0, 0), BuildingBlock: FUNLAD_clean_linker_0, # of connection points: 2
#     Edge 16, Type (0, 0), BuildingBlock: FUNLAD_clean_linker_0, # of connection points: 2
#     Edge 17, Type (0, 0), BuildingBlock: FUNLAD_clean_linker_0, # of connection points: 2
#     Edge 18, Type (0, 0), BuildingBlock: FUNLAD_clean_linker_0, # of connection points: 2
#     Edge 19, Type (0, 0), BuildingBlock: FUNLAD_clean_linker_0, # of connection points: 2
#     Edge 20, Type (0, 0), BuildingBlock: FUNLAD_clean_linker_0, # of connection points: 2
#     Edge 21, Type (0, 0), BuildingBlock: FUNLAD_clean_linker_0, # of connection points: 2
#     Edge 22, Type (0, 0), BuildingBlock: FUNLAD_clean_linker_0, # of connection points: 2
#     Edge 23, Type (0, 0), BuildingBlock: FUNLAD_clean_linker_0, # of connection points: 2
# Relax obj value: 0.271
# Max RMSD: 0.123
# Mean RMSD: 0.123
data_MOF--net-rac--node1-TATPOV_clean_sbu_0--edge1-FUNLAD_clean_linker_0
_symmetry_space_group_name_H-M    P1
_symmetry_Int_Tables_number       1
_symmetry_cell_setting            triclinic
loop_
_symmetry_equiv_pos_as_xyz
'x, y, z'
_cell_length_a     42.062658
_cell_length_b     24.112583
_cell_length_c     51.121369
_cell_angle_alpha  90.006531
_cell_angle_beta   90.040547
_cell_angle_gamma 90.02676
loop_
_atom_site_label
_atom_site_type_symbol
_atom_site_fract_x
_atom_site_fract_y
_atom_site_fract_z
_atom_type_partial_charge
Zn0 Zn 0.38624 0.22689 0.02577 0.0
Zn1 Zn 0.39421 0.23318 0.07595 0.0
O2 O 0.4348 0.26413 0.05813 0.0
O3 O 0.43105 0.24503 0.01624 0.0
O4 O 0.40517 0.2258 0.1142 0.0
O5 O 0.36898 0.1498 0.02516 0.0
O6 O 0.37238 0.15825 0.06782 0.0
C7 C 0.44627 0.26639 0.03505 0.0
C8 C 0.34858 0.3124 0.0531 0.0
O9 O 0.36112 0.29347 0.07391 0.0
O10 O 0.35562 0.29159 0.03103 0.0
C11 C 0.40978 0.26706 0.12921 0.0
O12 O 0.40826 0.31744 0.11949 0.0
C13 C 0.36359 0.1308 0.04777 0.0
Zn14 Zn 0.10585 0.75594 0.03124 0.0
Zn15 Zn 0.09397 0.75215 0.08066 0.0
O16 O 0.05582 0.71577 0.06135 0.0
O17 O 0.06276 0.73218 0.01947 0.0
O18 O 0.08027 0.7614 0.11818 0.0
O19 O 0.12058 0.8344 0.02994 0.0
O20 O 0.11384 0.82876 0.0724 0.0
C21 C 0.04653 0.71083 0.03768 0.0
C22 C 0.14446 0.67722 0.06184 0.0
O23 O 0.12932 0.69557 0.08154 0.0
O24 O 0.13848 0.69579 0.03913 0.0
C25 C 0.07681 0.72108 0.13394 0.0
O26 O 0.08093 0.67021 0.12538 0.0
C27 C 0.12353 0.85555 0.05243 0.0
Zn28 Zn 0.37433 0.26042 0.47326 0.0
Zn29 Zn 0.38608 0.25759 0.4237 0.0
O30 O 0.42403 0.21902 0.44234 0.0
O31 O 0.41628 0.2307 0.48447 0.0
O32 O 0.3992 0.26672 0.38601 0.0
O33 O 0.36315 0.34055 0.47549 0.0
O34 O 0.36752 0.33477 0.4328 0.0
C35 C 0.43267 0.21089 0.46599 0.0
C36 C 0.33356 0.18617 0.44221 0.0
O37 O 0.34982 0.20279 0.42278 0.0
O38 O 0.33935 0.20463 0.46498 0.0
C39 C 0.40203 0.22584 0.37048 0.0
O40 O 0.39766 0.17536 0.37946 0.0
C41 C 0.35959 0.36207 0.45315 0.0
Zn42 Zn 0.09648 0.72962 0.47713 0.0
Zn43 Zn 0.08683 0.73687 0.42748 0.0
O44 O 0.0476 0.76868 0.44679 0.0
O45 O 0.05199 0.74649 0.48827 0.0
O46 O 0.07394 0.72964 0.38965 0.0
O47 O 0.11514 0.65354 0.4771 0.0
O48 O 0.10902 0.66195 0.43467 0.0
C49 C 0.03675 0.77017 0.47009 0.0
C50 C 0.13258 0.8166 0.44933 0.0
O51 O 0.12003 0.79717 0.42862 0.0
O52 O 0.12599 0.79566 0.47145 0.0
C53 C 0.06982 0.77076 0.37448 0.0
O54 O 0.073 0.82126 0.38378 0.0
C55 C 0.11935 0.63473 0.45429 0.0
Zn56 Zn 0.60784 0.76922 0.97165 0.0
Zn57 Zn 0.59587 0.75393 0.92226 0.0
O58 O 0.56046 0.71316 0.94288 0.0
O59 O 0.5677 0.73404 0.98431 0.0
O60 O 0.5822 0.75235 0.88444 0.0
O61 O 0.61418 0.85109 0.96947 0.0
O62 O 0.61001 0.83526 0.92737 0.0
C63 C 0.55237 0.70828 0.96683 0.0
C64 C 0.65295 0.69771 0.94352 0.0
O65 O 0.63524 0.70647 0.92378 0.0
O66 O 0.64635 0.71951 0.96545 0.0
C67 C 0.58245 0.70817 0.87087 0.0
O68 O 0.59065 0.66123 0.88205 0.0
C69 C 0.61668 0.86802 0.94616 0.0
Zn70 Zn 0.87525 0.23153 0.97341 0.0
Zn71 Zn 0.89082 0.23301 0.92458 0.0
O72 O 0.92834 0.26691 0.94571 0.0
O73 O 0.91773 0.25313 0.98728 0.0
O74 O 0.90696 0.22303 0.88775 0.0
O75 O 0.85939 0.15376 0.97436 0.0
O76 O 0.86795 0.15857 0.93207 0.0
C77 C 0.93589 0.27228 0.96978 0.0
C78 C 0.84087 0.31192 0.94044 0.0
O79 O 0.85728 0.2922 0.92176 0.0
O80 O 0.84436 0.2934 0.96351 0.0
C81 C 0.91325 0.26404 0.87302 0.0
O82 O 0.91054 0.31456 0.8824 0.0
C83 C 0.85683 0.13275 0.95181 0.0
Zn84 Zn 0.59849 0.72248 0.52834 0.0
Zn85 Zn 0.59195 0.73349 0.5787 0.0
O86 O 0.55205 0.76847 0.56166 0.0
O87 O 0.55513 0.75055 0.51961 0.0
O88 O 0.58291 0.73128 0.61741 0.0
O89 O 0.61005 0.64211 0.52891 0.0
O90 O 0.6096 0.65514 0.57139 0.0
C91 C 0.54082 0.77317 0.53856 0.0
C92 C 0.64173 0.80215 0.55353 0.0
O93 O 0.62776 0.78845 0.57462 0.0
O94 O 0.63375 0.77995 0.53199 0.0
C95 C 0.57757 0.7747 0.6308 0.0
O96 O 0.57695 0.82308 0.61897 0.0
C97 C 0.61576 0.62448 0.55172 0.0
Zn98 Zn 0.87854 0.25772 0.53082 0.0
Zn99 Zn 0.89016 0.25429 0.58009 0.0
O100 O 0.92844 0.22005 0.56025 0.0
O101 O 0.92232 0.23933 0.51859 0.0
O102 O 0.90437 0.26351 0.6175 0.0
O103 O 0.8604 0.33401 0.52983 0.0
O104 O 0.86807 0.32917 0.57222 0.0
C105 C 0.93826 0.2168 0.53667 0.0
C106 C 0.84271 0.17435 0.56107 0.0
O107 O 0.85636 0.19505 0.58101 0.0
O108 O 0.84866 0.19308 0.53839 0.0
C109 C 0.90942 0.22267 0.63266 0.0
O110 O 0.90663 0.17201 0.62346 0.0
C111 C 0.8571 0.35482 0.55236 0.0
C112 C 0.32412 0.07711 0.07414 0.0
C113 C 0.34105 0.08412 0.05065 0.0
C114 C 0.29686 0.04392 0.07485 0.0
C115 C 0.2862 0.01691 0.05208 0.0
C116 C 0.30493 0.01958 0.0294 0.0
C117 C 0.33197 0.0531 0.02861 0.0
C118 C 0.25523 0.98756 0.05065 0.0
C119 C 0.23016 -0.00098 0.06617 0.0
C120 C 0.19911 0.97108 0.06243 0.0
C121 C 0.18147 0.95402 0.08426 0.0
C122 C 0.15467 0.92028 0.08104 0.0
C123 C 0.14492 0.90379 0.05586 0.0
H124 H 0.19987 0.97406 0.02002 0.0
C125 C 0.16061 0.92621 0.034 0.0
C126 C 0.18751 0.95935 0.03725 0.0
H127 H 0.1535 0.91514 0.01431 0.0
H128 H 0.33062 0.10012 0.09154 0.0
H129 H 0.28382 0.04095 0.09302 0.0
H130 H 0.29762 -0.00177 0.01173 0.0
H131 H 0.34466 0.05719 0.01028 0.0
H132 H 0.25237 0.95742 0.035 0.0
H133 H 0.23234 0.02816 0.08225 0.0
H134 H 0.1896 0.96372 0.10385 0.0
H135 H 0.14298 0.90413 0.09831 0.0
C136 C 0.15977 0.56847 0.47161 0.0
C137 C 0.14241 0.58917 0.45022 0.0
C138 C 0.18738 0.53764 0.46759 0.0
C139 C 0.19806 0.52649 0.44209 0.0
C140 C 0.17905 0.54208 0.42078 0.0
C141 C 0.15154 0.57357 0.42477 0.0
C142 C 0.22928 0.49983 0.43743 0.0
C143 C 0.25485 0.51166 0.45235 0.0
C144 C 0.28566 0.48205 0.45027 0.0
C145 C 0.30459 0.47739 0.47278 0.0
C146 C 0.33093 0.44222 0.47305 0.0
C147 C 0.33907 0.41156 0.45066 0.0
H148 H 0.28249 0.46051 0.40907 0.0
C149 C 0.32227 0.42111 0.4273 0.0
C150 C 0.29569 0.45591 0.42711 0.0
H151 H 0.32807 0.39848 0.40963 0.0
H152 H 0.15323 0.579 0.49149 0.0
H153 H 0.20085 0.52397 0.48446 0.0
H154 H 0.18647 0.53274 0.40097 0.0
H155 H 0.13858 0.58846 0.40786 0.0
H156 H 0.23104 0.4707 0.42131 0.0
H157 H 0.25246 0.54156 0.46815 0.0
H158 H 0.29778 0.49807 0.49074 0.0
H159 H 0.34358 0.43619 0.4913 0.0
C160 C 0.64992 0.94671 0.96205 0.0
C161 C 0.63601 0.91817 0.94094 0.0
C162 C 0.67685 0.97942 0.95817 0.0
C163 C 0.69008 0.98481 0.93308 0.0
C164 C 0.67378 0.9627 0.91156 0.0
C165 C 0.64697 0.92929 0.91544 0.0
C166 C 0.72195 0.00976 0.92949 0.0
C167 C 0.74601 -0.00283 0.9459 0.0
C168 C 0.77792 0.02339 0.9451 0.0
C169 C 0.79592 0.02446 0.96823 0.0
C170 C 0.82369 0.05596 0.96976 0.0
C171 C 0.83424 0.08648 0.94804 0.0
H172 H 0.77765 0.04758 0.90413 0.0
C173 C 0.81814 0.08054 0.92407 0.0
C174 C 0.79012 0.04942 0.92262 0.0
H175 H 0.82577 0.10328 0.90692 0.0
H176 H 0.6418 0.93997 0.9819 0.0
H177 H 0.68831 -0.00195 0.975 0.0
H178 H 0.6832 0.96753 0.89197 0.0
H179 H 0.63661 0.90848 0.8987 0.0
H180 H 0.72555 0.03711 0.91291 0.0
H181 H 0.74147 0.96857 0.96193 0.0
H182 H 0.78744 0.00376 0.9857 0.0
H183 H 0.83571 0.05931 0.98845 0.0
C184 C 0.65416 0.56876 0.57817 0.0
C185 C 0.63672 0.5757 0.55491 0.0
C186 C 0.68095 0.53448 0.57869 0.0
C187 C 0.6906 0.50626 0.55596 0.0
C188 C 0.67109 0.50833 0.5337 0.0
C189 C 0.6445 0.54293 0.5331 0.0
C190 C 0.72154 0.47702 0.55403 0.0
C191 C 0.7473 0.49023 0.56849 0.0
C192 C 0.77855 0.46363 0.5639 0.0
C193 C 0.79788 0.44939 0.58522 0.0
C194 C 0.8254 0.4178 0.58138 0.0
C195 C 0.8342 0.40077 0.55606 0.0
H196 H 0.77519 0.46374 0.52155 0.0
C197 C 0.81654 0.42023 0.53458 0.0
C198 C 0.78892 0.45113 0.53846 0.0
H199 H 0.82281 0.4086 0.51478 0.0
H200 H 0.64863 0.59293 0.59544 0.0
H201 H 0.69458 0.53189 0.5966 0.0
H202 H 0.67759 0.486 0.51611 0.0
H203 H 0.63136 0.54685 0.51496 0.0
H204 H 0.72384 0.44602 0.5387 0.0
H205 H 0.74568 0.52042 0.58417 0.0
H206 H 0.7907 0.45978 0.60497 0.0
H207 H 0.83859 0.40389 0.59836 0.0
C208 C 0.4184 0.30361 0.17466 0.0
C209 C 0.415 0.25829 0.15759 0.0
C210 C 0.42166 0.29524 0.20162 0.0
C211 C 0.4214 0.24122 0.21213 0.0
C212 C 0.41907 0.196 0.19493 0.0
C213 C 0.41578 0.20436 0.16802 0.0
C214 C 0.42332 0.22996 0.24075 0.0
C215 C 0.41481 0.26695 0.25926 0.0
C216 C 0.41401 0.2545 0.28781 0.0
C217 C 0.41354 0.29901 0.30552 0.0
C218 C 0.41053 0.28968 0.33239 0.0
C219 C 0.40767 0.23546 0.34221 0.0
H220 H 0.41099 0.16453 0.28483 0.0
C221 C 0.40862 0.19076 0.32459 0.0
C222 C 0.41165 0.20009 0.29769 0.0
H223 H 0.40626 0.14849 0.33148 0.0
H224 H 0.41827 0.34569 0.16725 0.0
H225 H 0.42454 0.33127 0.21399 0.0
H226 H 0.41911 0.15393 0.20239 0.0
H227 H 0.41343 0.16844 0.15543 0.0
H228 H 0.43077 0.18867 0.2465 0.0
H229 H 0.40738 0.30825 0.25348 0.0
H230 H 0.41511 0.34134 0.29852 0.0
H231 H 0.40984 0.32512 0.34539 0.0
C232 C 0.06108 0.80646 0.32891 0.0
C233 C 0.06364 0.76149 0.34626 0.0
C234 C 0.05727 0.79745 0.30204 0.0
C235 C 0.05614 0.74311 0.29193 0.0
C236 C 0.05749 0.69833 0.30944 0.0
C237 C 0.06132 0.70733 0.33626 0.0
C238 C 0.05392 0.73105 0.2634 0.0
C239 C 0.06332 0.76681 0.24464 0.0
C240 C 0.06408 0.75323 0.21623 0.0
C241 C 0.06531 0.79702 0.19816 0.0
C242 C 0.0685 0.78655 0.17141 0.0
C243 C 0.07083 0.73187 0.16206 0.0
H244 H 0.06588 0.66331 0.22 0.0
C245 C 0.06906 0.68789 0.18003 0.0
C246 C 0.06582 0.69837 0.20682 0.0
H247 H 0.07097 0.64529 0.17351 0.0
H248 H 0.06239 0.84872 0.336 0.0
H249 H 0.05515 0.83325 0.28943 0.0
H250 H 0.05635 0.65607 0.30229 0.0
H251 H 0.06298 0.67168 0.34908 0.0
H252 H 0.04559 0.69008 0.25791 0.0
H253 H 0.0716 0.80781 0.25012 0.0
H254 H 0.06422 0.83967 0.20479 0.0
H255 H 0.06982 0.82148 0.15813 0.0
C256 C 0.56846 0.76111 0.83022 0.0
C257 C 0.57586 0.71045 0.8424 0.0
C258 C 0.56425 0.76398 0.80311 0.0
C259 C 0.56756 0.71618 0.78752 0.0
C260 C 0.57378 0.66526 0.79985 0.0
C261 C 0.57802 0.6624 0.82695 0.0
C262 C 0.56486 0.71749 0.75847 0.0
C263 C 0.57033 0.76329 0.74396 0.0
C264 C 0.57023 0.76419 0.71481 0.0
C265 C 0.56761 0.81553 0.70199 0.0
C266 C 0.56932 0.8189 0.67471 0.0
C267 C 0.57392 0.77093 0.65958 0.0
H268 H 0.57763 0.67577 0.70853 0.0
C269 C 0.57624 0.71943 0.67234 0.0
C270 C 0.57453 0.71604 0.69961 0.0
H271 H 0.58002 0.68166 0.6613 0.0
H272 H 0.56624 0.79883 0.84157 0.0
H273 H 0.55829 0.8037 0.79461 0.0
H274 H 0.57612 0.62766 0.7884 0.0
H275 H 0.5835 0.62263 0.8357 0.0
H276 H 0.55947 0.67851 0.74886 0.0
H277 H 0.57578 0.80217 0.75366 0.0
H278 H 0.5645 0.85336 0.71314 0.0
H279 H 0.5675 0.85927 0.66554 0.0
C280 C 0.91859 0.18749 0.67824 0.0
C281 C 0.91574 0.2323 0.66082 0.0
C282 C 0.92203 0.19668 0.70512 0.0
C283 C 0.92293 0.25109 0.71518 0.0
C284 C 0.92075 0.29574 0.69764 0.0
C285 C 0.91731 0.28655 0.6708 0.0
C286 C 0.92372 0.26331 0.74375 0.0
C287 C 0.93272 0.22663 0.76225 0.0
C288 C 0.93007 0.23775 0.79082 0.0
C289 C 0.92699 0.19256 0.80795 0.0
C290 C 0.9223 0.20101 0.83472 0.0
C291 C 0.92086 0.255 0.84504 0.0
H292 H 0.93353 0.32774 0.789 0.0
C293 C 0.92536 0.30024 0.8281 0.0
C294 C 0.93001 0.29178 0.80131 0.0
H295 H 0.92479 0.34236 0.83546 0.0
H296 H 0.91731 0.14516 0.67122 0.0
H297 H 0.92279 0.1609 0.71783 0.0
H298 H 0.92121 0.33807 0.70476 0.0
H299 H 0.91519 0.32208 0.65795 0.0
H300 H 0.91554 0.30413 0.74961 0.0
H301 H 0.94077 0.18566 0.75655 0.0
H302 H 0.92731 0.15048 0.8005 0.0
H303 H 0.91916 0.16516 0.84722 0.0
C304 C 0.47704 0.35169 0.04611 0.0
C305 C 0.4714 0.30731 0.02886 0.0
C306 C 0.4913 0.40046 0.0371 0.0
C307 C 0.50045 0.40541 0.01075 0.0
C308 C 0.49846 0.35871 0.99447 0.0
C309 C 0.48387 0.31016 0.00336 0.0
C310 C 0.5104 0.45922 0.99926 0.0
C311 C 0.4984 0.50821 0.00732 0.0
C312 C 0.50733 0.56197 0.99526 0.0
C313 C 0.5086 0.60953 0.01103 0.0
C314 C 0.52063 0.65928 1.00109 0.0
C315 C 0.53109 0.66261 0.97501 0.0
H316 H 0.51313 0.53123 0.95562 0.0
C317 C 0.52677 0.61649 0.95854 0.0
C318 C 0.51515 0.56653 0.9686 0.0
H319 H 0.53449 0.61765 0.93833 0.0
H320 H 0.468 0.35078 0.06594 0.0
H321 H 0.49386 0.43492 0.05051 0.0
H322 H 0.50607 0.36106 0.97425 0.0
H323 H 0.48017 0.27651 0.98965 0.0
H324 H 0.52656 0.45797 0.98271 0.0
H325 H 0.48221 0.5095 0.02385 0.0
H326 H 0.50202 0.60739 0.03149 0.0
H327 H 0.52349 0.69416 0.01425 0.0
C328 C 0.01717 0.6235 0.0478 0.0
C329 C 0.0228 0.66803 0.03065 0.0
C330 C 0.00391 0.57409 0.0385 0.0
C331 C -0.00423 0.5686 0.01193 0.0
C332 C -0.00199 0.61516 0.99558 0.0
C333 C 0.01163 0.66431 0.00478 0.0
C334 C 0.98609 0.51467 1.0004 0.0
C335 C -0.00286 0.46552 0.00913 0.0
C336 C 0.98744 0.41186 0.99736 0.0
C337 C 0.98356 0.36555 0.01365 0.0
C338 C 0.96969 0.31702 0.00397 0.0
C339 C 0.96001 0.31368 0.97767 0.0
H340 H 0.98483 0.44082 0.95721 0.0
C341 C 0.96737 0.35777 0.96072 0.0
C342 C 0.9808 0.40659 0.97051 0.0
H343 H 0.96034 0.35653 0.94034 0.0
H344 H 0.02534 0.62503 0.06789 0.0
H345 H 0.00114 0.53975 0.05194 0.0
H346 H 0.99119 0.61239 0.97518 0.0
H347 H 0.01543 0.69802 0.99112 0.0
H348 H 0.97058 0.51587 0.9834 0.0
H349 H 0.01258 0.46405 0.02615 0.0
H350 H 0.9892 0.36819 0.0343 0.0
H351 H 0.96451 0.28361 0.01748 0.0
C352 C 0.50987 0.83004 0.50666 0.0
C353 C 0.51715 0.81703 0.53283 0.0
C354 C 0.49674 0.88144 0.50022 0.0
C355 C 0.4904 0.92068 0.51986 0.0
C356 C 0.49411 0.90521 0.54615 0.0
C357 C 0.50753 0.85393 0.55262 0.0
C358 C 0.48107 0.97848 0.51351 0.0
C359 C 0.49167 0.00529 0.49203 0.0
C360 C 0.48241 0.06312 0.48561 0.0
C361 C 0.4796 0.07885 0.45927 0.0
C362 C 0.46638 0.13017 0.45258 0.0
C363 C 0.456 0.1668 0.47221 0.0
H364 H 0.47868 0.09248 0.52565 0.0
C365 C 0.46229 0.15351 0.49852 0.0
C366 C 0.47528 0.10214 0.50517 0.0
H367 H 0.45512 0.18115 0.51414 0.0
H368 H 0.51645 0.80228 0.49091 0.0
H369 H 0.49267 0.89102 0.47981 0.0
H370 H 0.48862 0.93426 0.56167 0.0
H371 H 0.51255 0.84516 0.57299 0.0
H372 H 0.46621 6e-05 0.52758 0.0
H373 H 0.50656 0.98362 0.47801 0.0
H374 H 0.48569 0.04998 0.44382 0.0
H375 H 0.46209 0.13914 0.43212 0.0
C376 C 0.96686 0.12868 0.54657 0.0
C377 C 0.96144 0.17327 0.52939 0.0
C378 C 0.97871 0.07836 0.53714 0.0
C379 C 0.98569 0.07197 0.51041 0.0
C380 C 0.98397 0.11846 0.49398 0.0
C381 C 0.97173 0.16859 0.50331 0.0
C382 C -0.0065 0.01715 0.49889 0.0
C383 C 0.98091 0.96925 0.50781 0.0
C384 C 0.98874 0.91443 0.49627 0.0
C385 C 0.99047 0.86791 0.51268 0.0
C386 C 0.00284 0.81786 0.50335 0.0
C387 C 0.01329 0.81334 0.4773 0.0
H388 H -0.00673 0.94251 0.45609 0.0
C389 C 0.00777 0.85792 0.46012 0.0
C390 C -0.00422 0.90813 0.46955 0.0
H391 H 0.01523 0.85582 0.43987 0.0
H392 H 0.95945 0.1309 0.56683 0.0
H393 H 0.98118 0.04398 0.5506 0.0
H394 H 0.98999 0.11495 0.47343 0.0
H395 H 0.96811 0.20228 0.48961 0.0
H396 H 0.00887 0.01674 0.48182 0.0
H397 H 0.96555 0.96965 0.52488 0.0
H398 H 0.98439 0.87134 0.53321 0.0
H399 H 0.00649 0.78419 0.51705 0.0
C400 C 0.18293 0.61005 0.04284 0.0
C401 C 0.16881 0.63377 0.06505 0.0
C402 C 0.20585 0.56889 0.04543 0.0
C403 C 0.21561 0.55097 0.07036 0.0
C404 C 0.20108 0.57378 0.09259 0.0
C405 C 0.17793 0.61503 0.08999 0.0
C406 C 0.23989 0.50698 0.07347 0.0
C407 C 0.26283 0.49875 0.05556 0.0
C408 C 0.28488 0.45109 0.05598 0.0
C409 C 0.29694 0.43216 0.03204 0.0
C410 C 0.31731 0.38676 0.03116 0.0
C411 C 0.32649 0.35977 0.0543 0.0
H412 H 0.28596 0.43893 0.09811 0.0
C413 C 0.31489 0.37924 0.07839 0.0
C414 C 0.29417 0.42451 0.07925 0.0
H415 H 0.32178 0.35954 0.09657 0.0
H416 H 0.17607 0.62281 0.02332 0.0
H417 H 0.21533 0.55056 0.02776 0.0
H418 H 0.20784 0.56 0.11199 0.0
H419 H 0.16727 0.63226 0.10748 0.0
H420 H 0.23825 0.4804 0.09055 0.0
H421 H 0.26455 0.52629 0.03881 0.0
H422 H 0.29024 0.45216 0.01387 0.0
H423 H 0.32604 0.37313 0.01229 0.0
C424 C 0.2927 0.12252 0.46059 0.0
C425 C 0.30846 0.14412 0.43865 0.0
C426 C 0.26969 0.08156 0.4577 0.0
C427 C 0.26147 0.06175 0.4327 0.0
C428 C 0.27738 0.08291 0.41075 0.0
C429 C 0.30062 0.12394 0.41366 0.0
C430 C 0.23773 0.01692 0.4293 0.0
C431 C 0.21415 0.00854 0.4466 0.0
C432 C 0.19322 0.95938 0.44624 0.0
C433 C 0.18134 0.94013 0.47016 0.0
C434 C 0.16208 0.89327 0.47111 0.0
C435 C 0.15382 0.86513 0.44802 0.0
H436 H 0.19311 0.94616 0.40418 0.0
C437 C 0.16527 0.88485 0.42393 0.0
C438 C 0.18493 0.93156 0.42303 0.0
H439 H 0.15905 0.86424 0.4058 0.0
H440 H 0.2985 0.1365 0.48016 0.0
H441 H 0.25911 0.06464 0.47525 0.0
H442 H 0.27181 0.06771 0.39133 0.0
H443 H 0.31254 0.13954 0.39638 0.0
H444 H 0.24053 0.98939 0.41265 0.0
H445 H 0.21123 0.03681 0.46296 0.0
H446 H 0.18732 0.96102 0.48829 0.0
H447 H 0.15341 0.8795 0.48997 0.0
C448 C 0.68689 0.63215 0.91784 0.0
C449 C 0.6806 0.66047 0.94129 0.0
C450 C 0.71168 0.59375 0.91648 0.0
C451 C 0.73053 0.58288 0.93866 0.0
C452 C 0.72511 0.61319 0.96164 0.0
C453 C 0.70038 0.65142 0.96301 0.0
C454 C 0.75503 0.53885 0.93937 0.0
C455 C 0.75632 0.49607 0.92251 0.0
C456 C 0.77774 0.44853 0.9271 0.0
C457 C 0.79179 0.42127 0.90583 0.0
C458 C 0.81227 0.37651 0.91004 0.0
C459 C 0.81846 0.35778 0.9356 0.0
H460 H 0.77185 0.44769 0.96933 0.0
C461 C 0.80349 0.38407 0.95677 0.0
C462 C 0.78333 0.42889 0.95257 0.0
H463 H 0.80751 0.37036 0.97668 0.0
H464 H 0.6723 0.6388 0.90065 0.0
H465 H 0.71564 0.57267 0.89811 0.0
H466 H 0.73944 0.60602 0.97895 0.0
H467 H 0.69639 0.67298 0.98131 0.0
H468 H 0.77144 0.53954 0.95582 0.0
H469 H 0.74106 0.49442 0.90543 0.0
H470 H 0.78736 0.43523 0.88602 0.0
H471 H 0.8233 0.35678 0.89331 0.0
C472 C 0.67631 0.87003 0.57737 0.0
C473 C 0.66635 0.84569 0.55376 0.0
C474 C 0.69854 0.91309 0.57725 0.0
C475 C 0.71116 0.93244 0.55346 0.0
C476 C 0.70122 0.908 0.52997 0.0
C477 C 0.67922 0.86487 0.53008 0.0
C478 C 0.73378 0.97924 0.55202 0.0
C479 C 0.75377 0.99344 0.57146 0.0
C480 C 0.77707 0.03912 0.56862 0.0
C481 C 0.78757 0.06759 0.59096 0.0
C482 C 0.80904 0.11161 0.58868 0.0
C483 C 0.82037 0.12769 0.56397 0.0
H484 H 0.78315 0.03159 0.52646 0.0
C485 C 0.8105 0.0982 0.54173 0.0
C486 C 0.78936 0.05412 0.54403 0.0
H487 H 0.81934 0.10875 0.52246 0.0
H488 H 0.66663 0.85639 0.59591 0.0
H489 H 0.70502 0.9319 0.59571 0.0
H490 H 0.7105 0.92236 0.51139 0.0
H491 H 0.67196 0.84722 0.51153 0.0
H492 H 0.73428 0.00199 0.5337 0.0
H493 H 0.75308 0.9716 0.59001 0.0
H494 H 0.77881 0.05628 0.61016 0.0
H495 H 0.81647 0.13332 0.6062 0.0
loop_
_geom_bond_atom_site_label_1
_geom_bond_atom_site_label_2
_geom_bond_distance
_geom_bond_site_symmetry_2
_ccdc_geom_bond_type
Zn0 O3 2.031 . S
Zn0 O5 2.049 . S
Zn0 O10 2.067 . S
Zn1 O2 1.962 . S
Zn1 O4 1.986 . S
Zn1 O6 1.996 . S
Zn1 O9 1.943 . S
O2 Zn1 1.962 . S
O2 C7 1.254 . S
O3 Zn0 2.031 . S
O3 C7 1.269 . S
O4 Zn1 1.986 . S
O4 C11 1.262 . S
O5 Zn0 2.049 . S
O5 C13 1.260 . S
O6 Zn1 1.996 . S
O6 C13 1.257 . S
C7 O2 1.254 . S
C7 O3 1.269 . S
C8 O9 1.249 . S
C8 O10 1.270 . S
O9 Zn1 1.943 . S
O9 C8 1.249 . S
O10 Zn0 2.067 . S
O10 C8 1.270 . S
C11 O4 1.262 . S
C11 O12 1.232 . S
O12 C11 1.232 . S
C13 O5 1.260 . S
C13 O6 1.257 . S
Zn14 O17 2.031 . S
Zn14 O19 2.049 . S
Zn14 O24 2.067 . S
Zn15 O16 1.962 . S
Zn15 O18 1.986 . S
Zn15 O20 1.996 . S
Zn15 O23 1.943 . S
O16 Zn15 1.962 . S
O16 C21 1.254 . S
O17 Zn14 2.031 . S
O17 C21 1.269 . S
O18 Zn15 1.986 . S
O18 C25 1.262 . S
O19 Zn14 2.049 . S
O19 C27 1.260 . S
O20 Zn15 1.996 . S
O20 C27 1.257 . S
C21 O16 1.254 . S
C21 O17 1.269 . S
C22 O23 1.249 . S
C22 O24 1.270 . S
O23 Zn15 1.943 . S
O23 C22 1.249 . S
O24 Zn14 2.067 . S
O24 C22 1.270 . S
C25 O18 1.262 . S
C25 O26 1.232 . S
O26 C25 1.232 . S
C27 O19 1.260 . S
C27 O20 1.257 . S
Zn28 O31 2.031 . S
Zn28 O33 2.049 . S
Zn28 O38 2.067 . S
Zn29 O30 1.962 . S
Zn29 O32 1.986 . S
Zn29 O34 1.996 . S
Zn29 O37 1.943 . S
O30 Zn29 1.962 . S
O30 C35 1.254 . S
O31 Zn28 2.031 . S
O31 C35 1.269 . S
O32 Zn29 1.986 . S
O32 C39 1.262 . S
O33 Zn28 2.049 . S
O33 C41 1.260 . S
O34 Zn29 1.996 . S
O34 C41 1.257 . S
C35 O30 1.254 . S
C35 O31 1.269 . S
C36 O37 1.249 . S
C36 O38 1.270 . S
O37 Zn29 1.943 . S
O37 C36 1.249 . S
O38 Zn28 2.067 . S
O38 C36 1.270 . S
C39 O32 1.262 . S
C39 O40 1.232 . S
O40 C39 1.232 . S
C41 O33 1.260 . S
C41 O34 1.257 . S
Zn42 O45 2.031 . S
Zn42 O47 2.049 . S
Zn42 O52 2.067 . S
Zn43 O44 1.962 . S
Zn43 O46 1.986 . S
Zn43 O48 1.996 . S
Zn43 O51 1.943 . S
O44 Zn43 1.962 . S
O44 C49 1.254 . S
O45 Zn42 2.031 . S
O45 C49 1.269 . S
O46 Zn43 1.986 . S
O46 C53 1.262 . S
O47 Zn42 2.049 . S
O47 C55 1.260 . S
O48 Zn43 1.996 . S
O48 C55 1.257 . S
C49 O44 1.254 . S
C49 O45 1.269 . S
C50 O51 1.249 . S
C50 O52 1.270 . S
O51 Zn43 1.943 . S
O51 C50 1.249 . S
O52 Zn42 2.067 . S
O52 C50 1.270 . S
C53 O46 1.262 . S
C53 O54 1.232 . S
O54 C53 1.232 . S
C55 O47 1.260 . S
C55 O48 1.257 . S
Zn56 O59 2.031 . S
Zn56 O61 2.049 . S
Zn56 O66 2.067 . S
Zn57 O58 1.962 . S
Zn57 O60 1.986 . S
Zn57 O62 1.996 . S
Zn57 O65 1.943 . S
O58 Zn57 1.962 . S
O58 C63 1.254 . S
O59 Zn56 2.031 . S
O59 C63 1.269 . S
O60 Zn57 1.986 . S
O60 C67 1.262 . S
O61 Zn56 2.049 . S
O61 C69 1.260 . S
O62 Zn57 1.996 . S
O62 C69 1.257 . S
C63 O58 1.254 . S
C63 O59 1.269 . S
C64 O65 1.249 . S
C64 O66 1.270 . S
O65 Zn57 1.943 . S
O65 C64 1.249 . S
O66 Zn56 2.067 . S
O66 C64 1.270 . S
C67 O60 1.262 . S
C67 O68 1.232 . S
O68 C67 1.232 . S
C69 O61 1.260 . S
C69 O62 1.257 . S
Zn70 O73 2.031 . S
Zn70 O75 2.049 . S
Zn70 O80 2.067 . S
Zn71 O72 1.962 . S
Zn71 O74 1.986 . S
Zn71 O76 1.996 . S
Zn71 O79 1.943 . S
O72 Zn71 1.962 . S
O72 C77 1.254 . S
O73 Zn70 2.031 . S
O73 C77 1.269 . S
O74 Zn71 1.986 . S
O74 C81 1.262 . S
O75 Zn70 2.049 . S
O75 C83 1.260 . S
O76 Zn71 1.996 . S
O76 C83 1.257 . S
C77 O72 1.254 . S
C77 O73 1.269 . S
C78 O79 1.249 . S
C78 O80 1.270 . S
O79 Zn71 1.943 . S
O79 C78 1.249 . S
O80 Zn70 2.067 . S
O80 C78 1.270 . S
C81 O74 1.262 . S
C81 O82 1.232 . S
O82 C81 1.232 . S
C83 O75 1.260 . S
C83 O76 1.257 . S
Zn84 O87 2.031 . S
Zn84 O89 2.049 . S
Zn84 O94 2.067 . S
Zn85 O86 1.962 . S
Zn85 O88 1.986 . S
Zn85 O90 1.996 . S
Zn85 O93 1.943 . S
O86 Zn85 1.962 . S
O86 C91 1.254 . S
O87 Zn84 2.031 . S
O87 C91 1.269 . S
O88 Zn85 1.986 . S
O88 C95 1.262 . S
O89 Zn84 2.049 . S
O89 C97 1.260 . S
O90 Zn85 1.996 . S
O90 C97 1.257 . S
C91 O86 1.254 . S
C91 O87 1.269 . S
C92 O93 1.249 . S
C92 O94 1.270 . S
O93 Zn85 1.943 . S
O93 C92 1.249 . S
O94 Zn84 2.067 . S
O94 C92 1.270 . S
C95 O88 1.262 . S
C95 O96 1.232 . S
O96 C95 1.232 . S
C97 O89 1.260 . S
C97 O90 1.257 . S
Zn98 O101 2.031 . S
Zn98 O103 2.049 . S
Zn98 O108 2.067 . S
Zn99 O100 1.962 . S
Zn99 O102 1.986 . S
Zn99 O104 1.996 . S
Zn99 O107 1.943 . S
O100 Zn99 1.962 . S
O100 C105 1.254 . S
O101 Zn98 2.031 . S
O101 C105 1.269 . S
O102 Zn99 1.986 . S
O102 C109 1.262 . S
O103 Zn98 2.049 . S
O103 C111 1.260 . S
O104 Zn99 1.996 . S
O104 C111 1.257 . S
C105 O100 1.254 . S
C105 O101 1.269 . S
C106 O107 1.249 . S
C106 O108 1.270 . S
O107 Zn99 1.943 . S
O107 C106 1.249 . S
O108 Zn98 2.067 . S
O108 C106 1.270 . S
C109 O102 1.262 . S
C109 O110 1.232 . S
O110 C109 1.232 . S
C111 O103 1.260 . S
C111 O104 1.257 . S
C112 C113 1.386 . S
C112 C114 1.383 . S
C112 H128 0.951 . S
C113 C112 1.386 . S
C113 C117 1.383 . S
C114 C112 1.383 . S
C114 C115 1.402 . S
C114 H129 0.951 . S
C115 C114 1.402 . S
C115 C116 1.375 . S
C115 C118 1.481 1_545 S
C116 C115 1.375 . S
C116 C117 1.367 . S
C116 H130 0.951 1_545 S
C117 C113 1.383 . S
C117 C116 1.367 . S
C117 H131 0.950 . S
C118 C115 1.481 1_565 S
C118 C119 1.297 . S
C118 H132 0.950 . S
C119 C118 1.297 . S
C119 C120 1.479 . S
C119 H133 0.950 1_565 S
C120 C119 1.479 . S
C120 C121 1.375 . S
C120 C126 1.404 . S
C121 C120 1.375 . S
C121 C122 1.369 . S
C121 H134 0.950 1_565 S
C122 C121 1.369 . S
C122 C123 1.392 . S
C122 H135 0.951 . S
C123 C122 1.392 . S
C123 C125 1.384 . S
H124 C126 0.949 . S
C125 C123 1.384 . S
C125 C126 1.385 . S
C125 H127 0.950 . S
C126 C120 1.404 . S
C126 H124 0.949 . S
C126 C125 1.385 . S
H127 C125 0.950 . S
H128 C112 0.951 . S
H129 C114 0.951 . S
H130 C116 0.951 1_565 S
H131 C117 0.950 . S
H132 C118 0.950 . S
H133 C119 0.950 1_545 S
H134 C121 0.950 1_545 S
H135 C122 0.951 . S
C136 C137 1.386 . S
C136 C138 1.383 . S
C136 H152 0.951 . S
C137 C136 1.386 . S
C137 C141 1.383 . S
C138 C136 1.383 . S
C138 C139 1.402 . S
C138 H153 0.951 . S
C139 C138 1.402 . S
C139 C140 1.375 . S
C139 C142 1.481 . S
C140 C139 1.375 . S
C140 C141 1.367 . S
C140 H154 0.951 . S
C141 C137 1.383 . S
C141 C140 1.367 . S
C141 H155 0.950 . S
C142 C139 1.481 . S
C142 C143 1.297 . S
C142 H156 0.950 . S
C143 C142 1.297 . S
C143 C144 1.479 . S
C143 H157 0.950 . S
C144 C143 1.479 . S
C144 C145 1.375 . S
C144 C150 1.404 . S
C145 C144 1.375 . S
C145 C146 1.369 . S
C145 H158 0.950 . S
C146 C145 1.369 . S
C146 C147 1.392 . S
C146 H159 0.951 . S
C147 C146 1.392 . S
C147 C149 1.384 . S
H148 C150 0.949 . S
C149 C147 1.384 . S
C149 C150 1.385 . S
C149 H151 0.950 . S
C150 C144 1.404 . S
C150 H148 0.949 . S
C150 C149 1.385 . S
H151 C149 0.950 . S
H152 C136 0.951 . S
H153 C138 0.951 . S
H154 C140 0.951 . S
H155 C141 0.950 . S
H156 C142 0.950 . S
H157 C143 0.950 . S
H158 C145 0.950 . S
H159 C146 0.951 . S
C160 C161 1.386 . S
C160 C162 1.383 . S
C160 H176 0.951 . S
C161 C160 1.386 . S
C161 C165 1.383 . S
C162 C160 1.383 . S
C162 C163 1.402 . S
C162 H177 0.951 . S
C163 C162 1.402 . S
C163 C164 1.375 . S
C163 C166 1.481 . S
C164 C163 1.375 . S
C164 C165 1.367 . S
C164 H178 0.951 . S
C165 C161 1.383 . S
C165 C164 1.367 . S
C165 H179 0.950 . S
C166 C163 1.481 . S
C166 C167 1.297 . S
C166 H180 0.950 1_565 S
C167 C166 1.297 . S
C167 C168 1.479 1_565 S
C167 H181 0.950 . S
C168 C167 1.479 1_545 S
C168 C169 1.375 . S
C168 C174 1.404 . S
C169 C168 1.375 . S
C169 C170 1.369 . S
C169 H182 0.950 1_545 S
C170 C169 1.369 . S
C170 C171 1.392 . S
C170 H183 0.951 . S
C171 C170 1.392 . S
C171 C173 1.384 . S
H172 C174 0.949 . S
C173 C171 1.384 . S
C173 C174 1.385 . S
C173 H175 0.950 . S
C174 C168 1.404 . S
C174 H172 0.949 . S
C174 C173 1.385 . S
H175 C173 0.950 . S
H176 C160 0.951 . S
H177 C162 0.951 . S
H178 C164 0.951 . S
H179 C165 0.950 . S
H180 C166 0.950 1_545 S
H181 C167 0.950 . S
H182 C169 0.950 1_565 S
H183 C170 0.951 . S
C184 C185 1.386 . S
C184 C186 1.383 . S
C184 H200 0.951 . S
C185 C184 1.386 . S
C185 C189 1.383 . S
C186 C184 1.383 . S
C186 C187 1.402 . S
C186 H201 0.951 . S
C187 C186 1.402 . S
C187 C188 1.375 . S
C187 C190 1.481 . S
C188 C187 1.375 . S
C188 C189 1.367 . S
C188 H202 0.951 . S
C189 C185 1.383 . S
C189 C188 1.367 . S
C189 H203 0.950 . S
C190 C187 1.481 . S
C190 C191 1.297 . S
C190 H204 0.950 . S
C191 C190 1.297 . S
C191 C192 1.479 . S
C191 H205 0.950 . S
C192 C191 1.479 . S
C192 C193 1.375 . S
C192 C198 1.404 . S
C193 C192 1.375 . S
C193 C194 1.369 . S
C193 H206 0.950 . S
C194 C193 1.369 . S
C194 C195 1.392 . S
C194 H207 0.951 . S
C195 C194 1.392 . S
C195 C197 1.384 . S
H196 C198 0.949 . S
C197 C195 1.384 . S
C197 C198 1.385 . S
C197 H199 0.950 . S
C198 C192 1.404 . S
C198 H196 0.949 . S
C198 C197 1.385 . S
H199 C197 0.950 . S
H200 C184 0.951 . S
H201 C186 0.951 . S
H202 C188 0.951 . S
H203 C189 0.950 . S
H204 C190 0.950 . S
H205 C191 0.950 . S
H206 C193 0.950 . S
H207 C194 0.951 . S
C208 C209 1.386 . S
C208 C210 1.383 . S
C208 H224 0.951 . S
C209 C208 1.386 . S
C209 C213 1.383 . S
C210 C208 1.383 . S
C210 C211 1.402 . S
C210 H225 0.951 . S
C211 C210 1.402 . S
C211 C212 1.375 . S
C211 C214 1.481 . S
C212 C211 1.375 . S
C212 C213 1.367 . S
C212 H226 0.951 . S
C213 C209 1.383 . S
C213 C212 1.367 . S
C213 H227 0.950 . S
C214 C211 1.481 . S
C214 C215 1.297 . S
C214 H228 0.950 . S
C215 C214 1.297 . S
C215 C216 1.479 . S
C215 H229 0.950 . S
C216 C215 1.479 . S
C216 C217 1.375 . S
C216 C222 1.404 . S
C217 C216 1.375 . S
C217 C218 1.369 . S
C217 H230 0.950 . S
C218 C217 1.369 . S
C218 C219 1.392 . S
C218 H231 0.951 . S
C219 C218 1.392 . S
C219 C221 1.384 . S
H220 C222 0.949 . S
C221 C219 1.384 . S
C221 C222 1.385 . S
C221 H223 0.950 . S
C222 C216 1.404 . S
C222 H220 0.949 . S
C222 C221 1.385 . S
H223 C221 0.950 . S
H224 C208 0.951 . S
H225 C210 0.951 . S
H226 C212 0.951 . S
H227 C213 0.950 . S
H228 C214 0.950 . S
H229 C215 0.950 . S
H230 C217 0.950 . S
H231 C218 0.951 . S
C232 C233 1.386 . S
C232 C234 1.383 . S
C232 H248 0.951 . S
C233 C232 1.386 . S
C233 C237 1.383 . S
C234 C232 1.383 . S
C234 C235 1.402 . S
C234 H249 0.951 . S
C235 C234 1.402 . S
C235 C236 1.375 . S
C235 C238 1.481 . S
C236 C235 1.375 . S
C236 C237 1.367 . S
C236 H250 0.951 . S
C237 C233 1.383 . S
C237 C236 1.367 . S
C237 H251 0.950 . S
C238 C235 1.481 . S
C238 C239 1.297 . S
C238 H252 0.950 . S
C239 C238 1.297 . S
C239 C240 1.479 . S
C239 H253 0.950 . S
C240 C239 1.479 . S
C240 C241 1.375 . S
C240 C246 1.404 . S
C241 C240 1.375 . S
C241 C242 1.369 . S
C241 H254 0.950 . S
C242 C241 1.369 . S
C242 C243 1.392 . S
C242 H255 0.951 . S
C243 C242 1.392 . S
C243 C245 1.384 . S
H244 C246 0.949 . S
C245 C243 1.384 . S
C245 C246 1.385 . S
C245 H247 0.950 . S
C246 C240 1.404 . S
C246 H244 0.949 . S
C246 C245 1.385 . S
H247 C245 0.950 . S
H248 C232 0.951 . S
H249 C234 0.951 . S
H250 C236 0.951 . S
H251 C237 0.950 . S
H252 C238 0.950 . S
H253 C239 0.950 . S
H254 C241 0.950 . S
H255 C242 0.951 . S
C256 C257 1.386 . S
C256 C258 1.383 . S
C256 H272 0.951 . S
C257 C256 1.386 . S
C257 C261 1.383 . S
C258 C256 1.383 . S
C258 C259 1.402 . S
C258 H273 0.951 . S
C259 C258 1.402 . S
C259 C260 1.375 . S
C259 C262 1.481 . S
C260 C259 1.375 . S
C260 C261 1.367 . S
C260 H274 0.951 . S
C261 C257 1.383 . S
C261 C260 1.367 . S
C261 H275 0.950 . S
C262 C259 1.481 . S
C262 C263 1.297 . S
C262 H276 0.950 . S
C263 C262 1.297 . S
C263 C264 1.479 . S
C263 H277 0.950 . S
C264 C263 1.479 . S
C264 C265 1.375 . S
C264 C270 1.404 . S
C265 C264 1.375 . S
C265 C266 1.369 . S
C265 H278 0.950 . S
C266 C265 1.369 . S
C266 C267 1.392 . S
C266 H279 0.951 . S
C267 C266 1.392 . S
C267 C269 1.384 . S
H268 C270 0.949 . S
C269 C267 1.384 . S
C269 C270 1.385 . S
C269 H271 0.950 . S
C270 C264 1.404 . S
C270 H268 0.949 . S
C270 C269 1.385 . S
H271 C269 0.950 . S
H272 C256 0.951 . S
H273 C258 0.951 . S
H274 C260 0.951 . S
H275 C261 0.950 . S
H276 C262 0.950 . S
H277 C263 0.950 . S
H278 C265 0.950 . S
H279 C266 0.951 . S
C280 C281 1.386 . S
C280 C282 1.383 . S
C280 H296 0.951 . S
C281 C280 1.386 . S
C281 C285 1.383 . S
C282 C280 1.383 . S
C282 C283 1.402 . S
C282 H297 0.951 . S
C283 C282 1.402 . S
C283 C284 1.375 . S
C283 C286 1.481 . S
C284 C283 1.375 . S
C284 C285 1.367 . S
C284 H298 0.951 . S
C285 C281 1.383 . S
C285 C284 1.367 . S
C285 H299 0.950 . S
C286 C283 1.481 . S
C286 C287 1.297 . S
C286 H300 0.950 . S
C287 C286 1.297 . S
C287 C288 1.479 . S
C287 H301 0.950 . S
C288 C287 1.479 . S
C288 C289 1.375 . S
C288 C294 1.404 . S
C289 C288 1.375 . S
C289 C290 1.369 . S
C289 H302 0.950 . S
C290 C289 1.369 . S
C290 C291 1.392 . S
C290 H303 0.951 . S
C291 C290 1.392 . S
C291 C293 1.384 . S
H292 C294 0.949 . S
C293 C291 1.384 . S
C293 C294 1.385 . S
C293 H295 0.950 . S
C294 C288 1.404 . S
C294 H292 0.949 . S
C294 C293 1.385 . S
H295 C293 0.950 . S
H296 C280 0.951 . S
H297 C282 0.951 . S
H298 C284 0.951 . S
H299 C285 0.950 . S
H300 C286 0.950 . S
H301 C287 0.950 . S
H302 C289 0.950 . S
H303 C290 0.951 . S
C304 C305 1.386 . S
C304 C306 1.383 . S
C304 H320 0.951 . S
C305 C304 1.386 . S
C305 C309 1.383 . S
C306 C304 1.383 . S
C306 C307 1.402 . S
C306 H321 0.951 . S
C307 C306 1.402 . S
C307 C308 1.375 1_554 S
C307 C310 1.481 1_554 S
C308 C307 1.375 1_556 S
C308 C309 1.367 1_556 S
C308 H322 0.951 . S
C309 C305 1.383 . S
C309 C308 1.367 1_554 S
C309 H323 0.950 1_554 S
C310 C307 1.481 1_556 S
C310 C311 1.298 . S
C310 H324 0.950 . S
C311 C310 1.298 . S
C311 C312 1.481 . S
C311 H325 0.947 1_556 S
C312 C311 1.481 . S
C312 C313 1.375 1_556 S
C312 C318 1.404 . S
C313 C312 1.375 1_554 S
C313 C314 1.369 1_554 S
C313 H326 0.950 . S
C314 C313 1.369 1_556 S
C314 C315 1.392 . S
C314 H327 0.951 1_556 S
C315 C314 1.392 . S
C315 C317 1.384 . S
H316 C318 0.949 . S
C317 C315 1.384 . S
C317 C318 1.385 . S
C317 H319 0.950 . S
C318 C312 1.404 . S
C318 H316 0.949 . S
C318 C317 1.385 . S
H319 C317 0.950 . S
H320 C304 0.951 . S
H321 C306 0.951 . S
H322 C308 0.951 . S
H323 C309 0.950 1_556 S
H324 C310 0.950 . S
H325 C311 0.947 1_554 S
H326 C313 0.950 . S
H327 C314 0.951 1_554 S
C328 C329 1.386 . S
C328 C330 1.383 . S
C328 H344 0.951 . S
C329 C328 1.386 . S
C329 C333 1.383 . S
C330 C328 1.383 . S
C330 C331 1.402 . S
C330 H345 0.951 . S
C331 C330 1.402 . S
C331 C332 1.382 . S
C331 C334 1.481 1_455 S
C332 C331 1.382 . S
C332 C333 1.380 . S
C332 H346 0.931 1_455 S
C333 C329 1.383 . S
C333 C332 1.380 . S
C333 H347 0.950 . S
C334 C331 1.481 1_655 S
C334 C335 1.297 . S
C334 H348 0.950 1_554 S
C335 C334 1.297 . S
C335 C336 1.479 1_554 S
C335 H349 0.950 1_655 S
C336 C335 1.479 1_556 S
C336 C337 1.375 . S
C336 C342 1.404 . S
C337 C336 1.375 . S
C337 C338 1.369 . S
C337 H350 0.950 1_656 S
C338 C337 1.369 . S
C338 C339 1.392 . S
C338 H351 0.951 . S
C339 C338 1.392 . S
C339 C341 1.384 . S
H340 C342 0.949 . S
C341 C339 1.384 . S
C341 C342 1.385 . S
C341 H343 0.950 . S
C342 C336 1.404 . S
C342 H340 0.949 . S
C342 C341 1.385 . S
H343 C341 0.950 . S
H344 C328 0.951 . S
H345 C330 0.951 . S
H346 C332 0.931 1_655 S
H347 C333 0.950 . S
H348 C334 0.950 1_556 S
H349 C335 0.950 1_455 S
H350 C337 0.950 1_454 S
H351 C338 0.951 . S
C352 C353 1.386 . S
C352 C354 1.383 . S
C352 H368 0.951 . S
C353 C352 1.386 . S
C353 C357 1.383 . S
C354 C352 1.383 . S
C354 C355 1.402 . S
C354 H369 0.951 . S
C355 C354 1.402 . S
C355 C356 1.375 . S
C355 C358 1.481 1_565 S
C356 C355 1.375 . S
C356 C357 1.367 . S
C356 H370 0.951 . S
C357 C353 1.383 . S
C357 C356 1.367 . S
C357 H371 0.950 . S
C358 C355 1.481 1_545 S
C358 C359 1.297 . S
C358 H372 0.950 . S
C359 C358 1.297 . S
C359 C360 1.479 . S
C359 H373 0.950 1_545 S
C360 C359 1.479 . S
C360 C361 1.375 . S
C360 C366 1.404 . S
C361 C360 1.375 . S
C361 C362 1.369 . S
C361 H374 0.950 . S
C362 C361 1.369 . S
C362 C363 1.392 . S
C362 H375 0.951 . S
C363 C362 1.392 . S
C363 C365 1.384 . S
H364 C366 0.949 . S
C365 C363 1.384 . S
C365 C366 1.385 . S
C365 H367 0.950 . S
C366 C360 1.404 . S
C366 H364 0.949 . S
C366 C365 1.385 . S
H367 C365 0.950 . S
H368 C352 0.951 . S
H369 C354 0.951 . S
H370 C356 0.951 . S
H371 C357 0.950 . S
H372 C358 0.950 . S
H373 C359 0.950 1_565 S
H374 C361 0.950 . S
H375 C362 0.951 . S
C376 C377 1.386 . S
C376 C378 1.383 . S
C376 H392 0.951 . S
C377 C376 1.386 . S
C377 C381 1.383 . S
C378 C376 1.383 . S
C378 C379 1.402 . S
C378 H393 0.951 . S
C379 C378 1.402 . S
C379 C380 1.375 . S
C379 C382 1.481 . S
C380 C379 1.375 . S
C380 C381 1.367 . S
C380 H394 0.951 . S
C381 C377 1.383 . S
C381 C380 1.367 . S
C381 H395 0.950 . S
C382 C379 1.481 . S
C382 C383 1.297 1_545 S
C382 H396 0.950 . S
C383 C382 1.297 1_565 S
C383 C384 1.479 1_655 S
C383 H397 0.950 . S
C384 C383 1.479 1_455 S
C384 C385 1.375 . S
C384 C390 1.404 . S
C385 C384 1.375 . S
C385 C386 1.369 . S
C385 H398 0.950 . S
C386 C385 1.369 . S
C386 C387 1.392 . S
C386 H399 0.951 . S
C387 C386 1.392 . S
C387 C389 1.384 . S
H388 C390 0.949 . S
C389 C387 1.384 . S
C389 C390 1.385 . S
C389 H391 0.950 . S
C390 C384 1.404 . S
C390 H388 0.949 . S
C390 C389 1.385 . S
H391 C389 0.950 . S
H392 C376 0.951 . S
H393 C378 0.951 . S
H394 C380 0.951 . S
H395 C381 0.950 . S
H396 C382 0.950 . S
H397 C383 0.950 . S
H398 C385 0.950 . S
H399 C386 0.951 . S
C400 C401 1.386 . S
C400 C402 1.383 . S
C400 H416 0.951 . S
C401 C400 1.386 . S
C401 C405 1.383 . S
C402 C400 1.383 . S
C402 C403 1.402 . S
C402 H417 0.951 . S
C403 C402 1.402 . S
C403 C404 1.375 . S
C403 C406 1.481 . S
C404 C403 1.375 . S
C404 C405 1.367 . S
C404 H418 0.951 . S
C405 C401 1.383 . S
C405 C404 1.367 . S
C405 H419 0.950 . S
C406 C403 1.481 . S
C406 C407 1.297 . S
C406 H420 0.950 . S
C407 C406 1.297 . S
C407 C408 1.479 . S
C407 H421 0.950 . S
C408 C407 1.479 . S
C408 C409 1.375 . S
C408 C414 1.404 . S
C409 C408 1.375 . S
C409 C410 1.369 . S
C409 H422 0.950 . S
C410 C409 1.369 . S
C410 C411 1.392 . S
C410 H423 0.951 . S
C411 C410 1.392 . S
C411 C413 1.384 . S
H412 C414 0.949 . S
C413 C411 1.384 . S
C413 C414 1.385 . S
C413 H415 0.950 . S
C414 C408 1.404 . S
C414 H412 0.949 . S
C414 C413 1.385 . S
H415 C413 0.950 . S
H416 C400 0.951 . S
H417 C402 0.951 . S
H418 C404 0.951 . S
H419 C405 0.950 . S
H420 C406 0.950 . S
H421 C407 0.950 . S
H422 C409 0.950 . S
H423 C410 0.951 . S
C424 C425 1.386 . S
C424 C426 1.383 . S
C424 H440 0.951 . S
C425 C424 1.386 . S
C425 C429 1.383 . S
C426 C424 1.383 . S
C426 C427 1.402 . S
C426 H441 0.951 . S
C427 C426 1.402 . S
C427 C428 1.375 . S
C427 C430 1.481 . S
C428 C427 1.375 . S
C428 C429 1.367 . S
C428 H442 0.951 . S
C429 C425 1.383 . S
C429 C428 1.367 . S
C429 H443 0.950 . S
C430 C427 1.481 . S
C430 C431 1.297 . S
C430 H444 0.950 . S
C431 C430 1.297 . S
C431 C432 1.479 1_545 S
C431 H445 0.950 . S
C432 C431 1.479 1_565 S
C432 C433 1.375 . S
C432 C438 1.404 . S
C433 C432 1.375 . S
C433 C434 1.369 . S
C433 H446 0.950 . S
C434 C433 1.369 . S
C434 C435 1.392 . S
C434 H447 0.951 . S
C435 C434 1.392 . S
C435 C437 1.384 . S
H436 C438 0.949 . S
C437 C435 1.384 . S
C437 C438 1.385 . S
C437 H439 0.950 . S
C438 C432 1.404 . S
C438 H436 0.949 . S
C438 C437 1.385 . S
H439 C437 0.950 . S
H440 C424 0.951 . S
H441 C426 0.951 . S
H442 C428 0.951 . S
H443 C429 0.950 . S
H444 C430 0.950 . S
H445 C431 0.950 . S
H446 C433 0.950 . S
H447 C434 0.951 . S
C448 C449 1.386 . S
C448 C450 1.383 . S
C448 H464 0.951 . S
C449 C448 1.386 . S
C449 C453 1.383 . S
C450 C448 1.383 . S
C450 C451 1.402 . S
C450 H465 0.951 . S
C451 C450 1.402 . S
C451 C452 1.375 . S
C451 C454 1.481 . S
C452 C451 1.375 . S
C452 C453 1.367 . S
C452 H466 0.951 . S
C453 C449 1.383 . S
C453 C452 1.367 . S
C453 H467 0.950 . S
C454 C451 1.481 . S
C454 C455 1.297 . S
C454 H468 0.950 . S
C455 C454 1.297 . S
C455 C456 1.479 . S
C455 H469 0.950 . S
C456 C455 1.479 . S
C456 C457 1.375 . S
C456 C462 1.404 . S
C457 C456 1.375 . S
C457 C458 1.369 . S
C457 H470 0.950 . S
C458 C457 1.369 . S
C458 C459 1.392 . S
C458 H471 0.951 . S
C459 C458 1.392 . S
C459 C461 1.384 . S
H460 C462 0.949 . S
C461 C459 1.384 . S
C461 C462 1.385 . S
C461 H463 0.950 . S
C462 C456 1.404 . S
C462 H460 0.949 . S
C462 C461 1.385 . S
H463 C461 0.950 . S
H464 C448 0.951 . S
H465 C450 0.951 . S
H466 C452 0.951 . S
H467 C453 0.950 . S
H468 C454 0.950 . S
H469 C455 0.950 . S
H470 C457 0.950 . S
H471 C458 0.951 . S
C472 C473 1.386 . S
C472 C474 1.383 . S
C472 H488 0.951 . S
C473 C472 1.386 . S
C473 C477 1.383 . S
C474 C472 1.383 . S
C474 C475 1.402 . S
C474 H489 0.951 . S
C475 C474 1.402 . S
C475 C476 1.375 . S
C475 C478 1.481 . S
C476 C475 1.375 . S
C476 C477 1.367 . S
C476 H490 0.951 . S
C477 C473 1.383 . S
C477 C476 1.367 . S
C477 H491 0.950 . S
C478 C475 1.481 . S
C478 C479 1.297 . S
C478 H492 0.950 1_565 S
C479 C478 1.297 . S
C479 C480 1.479 1_565 S
C479 H493 0.950 . S
C480 C479 1.479 1_545 S
C480 C481 1.375 . S
C480 C486 1.404 . S
C481 C480 1.375 . S
C481 C482 1.369 . S
C481 H494 0.950 . S
C482 C481 1.369 . S
C482 C483 1.392 . S
C482 H495 0.951 . S
C483 C482 1.392 . S
C483 C485 1.384 . S
H484 C486 0.949 . S
C485 C483 1.384 . S
C485 C486 1.385 . S
C485 H487 0.950 . S
C486 C480 1.404 . S
C486 H484 0.949 . S
C486 C485 1.385 . S
H487 C485 0.950 . S
H488 C472 0.951 . S
H489 C474 0.951 . S
H490 C476 0.951 . S
H491 C477 0.950 . S
H492 C478 0.950 1_545 S
H493 C479 0.950 . S
H494 C481 0.950 . S
H495 C482 0.951 . S
C113 C13 1.290 . S
C123 C27 1.233 . S
C137 C55 1.317 . S
C147 C41 1.212 . S
C161 C69 1.312 . S
C171 C83 1.339 . S
C185 C97 1.265 . S
C195 C111 1.218 . S
C209 C11 1.565 . S
C219 C39 1.531 . S
C233 C53 1.566 . S
C243 C25 1.530 . S
C257 C67 1.551 . S
C267 C95 1.530 . S
C281 C109 1.563 . S
C291 C81 1.543 . S
C305 C7 1.374 . S
C315 C63 1.299 . S
C329 C21 1.385 . S
C339 C77 1.344 . S
C353 C91 1.333 . S
C363 C35 1.350 . S
C377 C105 1.351 . S
C387 C49 1.400 . S
C401 C22 0.835 . S
C411 C8 0.860 . S
C425 C36 0.802 . S
C435 C50 0.865 . S
C449 C64 0.786 . S
C459 C78 0.842 . S
C473 C92 0.807 . S
C483 C106 0.839 . S
