# Generated by pormake.
# Topology smd, (6)-cn, num edge types: 1
# Building blocks:
#     Node 0, Type 0, BuildingBlock: CUKXOW_clean_sbu_0, # of connection points: 6
#     Node 1, Type 0, BuildingBlock: CUKXOW_clean_sbu_0, # of connection points: 6
#     Node 2, Type 0, BuildingBlock: CUKXOW_clean_sbu_0, # of connection points: 6
#     Node 3, Type 0, BuildingBlock: CUKXOW_clean_sbu_0, # of connection points: 6
#     Node 4, Type 0, BuildingBlock: CUKXOW_clean_sbu_0, # of connection points: 6
#     Node 5, Type 0, BuildingBlock: CUKXOW_clean_sbu_0, # of connection points: 6
#     Node 6, Type 0, BuildingBlock: CUKXOW_clean_sbu_0, # of connection points: 6
#     Node 7, Type 0, BuildingBlock: CUKXOW_clean_sbu_0, # of connection points: 6
#     Node 8, Type 0, BuildingBlock: CUKXOW_clean_sbu_0, # of connection points: 6
#     Node 9, Type 0, BuildingBlock: CUKXOW_clean_sbu_0, # of connection points: 6
#     Node 10, Type 0, BuildingBlock: CUKXOW_clean_sbu_0, # of connection points: 6
#     Node 11, Type 0, BuildingBlock: CUKXOW_clean_sbu_0, # of connection points: 6
#     Node 12, Type 0, BuildingBlock: CUKXOW_clean_sbu_0, # of connection points: 6
#     Node 13, Type 0, BuildingBlock: CUKXOW_clean_sbu_0, # of connection points: 6
#     Node 14, Type 0, BuildingBlock: CUKXOW_clean_sbu_0, # of connection points: 6
#     Node 15, Type 0, BuildingBlock: CUKXOW_clean_sbu_0, # of connection points: 6
#     Node 16, Type 0, BuildingBlock: CUKXOW_clean_sbu_0, # of connection points: 6
#     Node 17, Type 0, BuildingBlock: CUKXOW_clean_sbu_0, # of connection points: 6
#     Edge 18, Type (0, 0), BuildingBlock: XIVTED_clean_linker_0, # of connection points: 2
#     Edge 19, Type (0, 0), BuildingBlock: XIVTED_clean_linker_0, # of connection points: 2
#     Edge 20, Type (0, 0), BuildingBlock: XIVTED_clean_linker_0, # of connection points: 2
#     Edge 21, Type (0, 0), BuildingBlock: XIVTED_clean_linker_0, # of connection points: 2
#     Edge 22, Type (0, 0), BuildingBlock: XIVTED_clean_linker_0, # of connection points: 2
#     Edge 23, Type (0, 0), BuildingBlock: XIVTED_clean_linker_0, # of connection points: 2
#     Edge 24, Type (0, 0), BuildingBlock: XIVTED_clean_linker_0, # of connection points: 2
#     Edge 25, Type (0, 0), BuildingBlock: XIVTED_clean_linker_0, # of connection points: 2
#     Edge 26, Type (0, 0), BuildingBlock: XIVTED_clean_linker_0, # of connection points: 2
#     Edge 27, Type (0, 0), BuildingBlock: XIVTED_clean_linker_0, # of connection points: 2
#     Edge 28, Type (0, 0), BuildingBlock: XIVTED_clean_linker_0, # of connection points: 2
#     Edge 29, Type (0, 0), BuildingBlock: XIVTED_clean_linker_0, # of connection points: 2
#     Edge 30, Type (0, 0), BuildingBlock: XIVTED_clean_linker_0, # of connection points: 2
#     Edge 31, Type (0, 0), BuildingBlock: XIVTED_clean_linker_0, # of connection points: 2
#     Edge 32, Type (0, 0), BuildingBlock: XIVTED_clean_linker_0, # of connection points: 2
#     Edge 33, Type (0, 0), BuildingBlock: XIVTED_clean_linker_0, # of connection points: 2
#     Edge 34, Type (0, 0), BuildingBlock: XIVTED_clean_linker_0, # of connection points: 2
#     Edge 35, Type (0, 0), BuildingBlock: XIVTED_clean_linker_0, # of connection points: 2
#     Edge 36, Type (0, 0), BuildingBlock: XIVTED_clean_linker_0, # of connection points: 2
#     Edge 37, Type (0, 0), BuildingBlock: XIVTED_clean_linker_0, # of connection points: 2
#     Edge 38, Type (0, 0), BuildingBlock: XIVTED_clean_linker_0, # of connection points: 2
#     Edge 39, Type (0, 0), BuildingBlock: XIVTED_clean_linker_0, # of connection points: 2
#     Edge 40, Type (0, 0), BuildingBlock: XIVTED_clean_linker_0, # of connection points: 2
#     Edge 41, Type (0, 0), BuildingBlock: XIVTED_clean_linker_0, # of connection points: 2
#     Edge 42, Type (0, 0), BuildingBlock: XIVTED_clean_linker_0, # of connection points: 2
#     Edge 43, Type (0, 0), BuildingBlock: XIVTED_clean_linker_0, # of connection points: 2
#     Edge 44, Type (0, 0), BuildingBlock: XIVTED_clean_linker_0, # of connection points: 2
#     Edge 45, Type (0, 0), BuildingBlock: XIVTED_clean_linker_0, # of connection points: 2
#     Edge 46, Type (0, 0), BuildingBlock: XIVTED_clean_linker_0, # of connection points: 2
#     Edge 47, Type (0, 0), BuildingBlock: XIVTED_clean_linker_0, # of connection points: 2
#     Edge 48, Type (0, 0), BuildingBlock: XIVTED_clean_linker_0, # of connection points: 2
#     Edge 49, Type (0, 0), BuildingBlock: XIVTED_clean_linker_0, # of connection points: 2
#     Edge 50, Type (0, 0), BuildingBlock: XIVTED_clean_linker_0, # of connection points: 2
#     Edge 51, Type (0, 0), BuildingBlock: XIVTED_clean_linker_0, # of connection points: 2
#     Edge 52, Type (0, 0), BuildingBlock: XIVTED_clean_linker_0, # of connection points: 2
#     Edge 53, Type (0, 0), BuildingBlock: XIVTED_clean_linker_0, # of connection points: 2
#     Edge 54, Type (0, 0), BuildingBlock: XIVTED_clean_linker_0, # of connection points: 2
#     Edge 55, Type (0, 0), BuildingBlock: XIVTED_clean_linker_0, # of connection points: 2
#     Edge 56, Type (0, 0), BuildingBlock: XIVTED_clean_linker_0, # of connection points: 2
#     Edge 57, Type (0, 0), BuildingBlock: XIVTED_clean_linker_0, # of connection points: 2
#     Edge 58, Type (0, 0), BuildingBlock: XIVTED_clean_linker_0, # of connection points: 2
#     Edge 59, Type (0, 0), BuildingBlock: XIVTED_clean_linker_0, # of connection points: 2
#     Edge 60, Type (0, 0), BuildingBlock: XIVTED_clean_linker_0, # of connection points: 2
#     Edge 61, Type (0, 0), BuildingBlock: XIVTED_clean_linker_0, # of connection points: 2
#     Edge 62, Type (0, 0), BuildingBlock: XIVTED_clean_linker_0, # of connection points: 2
#     Edge 63, Type (0, 0), BuildingBlock: XIVTED_clean_linker_0, # of connection points: 2
#     Edge 64, Type (0, 0), BuildingBlock: XIVTED_clean_linker_0, # of connection points: 2
#     Edge 65, Type (0, 0), BuildingBlock: XIVTED_clean_linker_0, # of connection points: 2
#     Edge 66, Type (0, 0), BuildingBlock: XIVTED_clean_linker_0, # of connection points: 2
#     Edge 67, Type (0, 0), BuildingBlock: XIVTED_clean_linker_0, # of connection points: 2
#     Edge 68, Type (0, 0), BuildingBlock: XIVTED_clean_linker_0, # of connection points: 2
#     Edge 69, Type (0, 0), BuildingBlock: XIVTED_clean_linker_0, # of connection points: 2
#     Edge 70, Type (0, 0), BuildingBlock: XIVTED_clean_linker_0, # of connection points: 2
#     Edge 71, Type (0, 0), BuildingBlock: XIVTED_clean_linker_0, # of connection points: 2
# Relax obj value: 0.274
# Max RMSD: 0.299
# Mean RMSD: 0.277
data_MOF--net-smd--node1-CUKXOW_clean_sbu_0--edge1-XIVTED_clean_linker_0
_symmetry_space_group_name_H-M    P1
_symmetry_Int_Tables_number       1
_symmetry_cell_setting            triclinic
loop_
_symmetry_equiv_pos_as_xyz
'x, y, z'
_cell_length_a     74.769773
_cell_length_b     78.653073
_cell_length_c     14.453259
_cell_angle_alpha  92.737459
_cell_angle_beta   92.923619
_cell_angle_gamma 119.91659
loop_
_atom_site_label
_atom_site_type_symbol
_atom_site_fract_x
_atom_site_fract_y
_atom_site_fract_z
_atom_type_partial_charge
Tb0 Tb 1.00026 0.22388 0.62322 0.0
C1 C 0.0477 0.23516 0.61604 0.0
Tb2 Tb 0.0348 0.26759 0.60429 0.0
O3 O 0.98679 0.22305 0.48331 0.0
O4 O 0.01835 0.24085 0.51741 0.0
O5 O 0.02926 0.22263 0.64544 0.0
C6 C 0.05949 0.301 0.53079 0.0
O7 O 0.05207 0.25241 0.58593 0.0
C8 C 0.02875 0.26056 0.78172 0.0
C9 C 0.98892 0.25782 0.62819 0.0
O10 O 0.06431 0.2951 0.60551 0.0
O11 O 0.0408 0.28809 0.49734 0.0
O12 O 0.04225 0.27743 0.75458 0.0
O13 O 0.02 0.24929 0.70914 0.0
O14 O 0.0067 0.26956 0.59336 0.0
O15 O 0.98413 0.2402 0.65603 0.0
C16 C 0.97371 0.18672 0.65907 0.0
O17 O 0.97761 0.20248 0.70991 0.0
O18 O 0.9852 0.19195 0.58983 0.0
C19 C 0.00407 0.23625 0.4543 0.0
Tb20 Tb 0.80921 0.82201 0.56761 0.0
C21 C 0.84146 0.80824 0.60106 0.0
Tb22 Tb 0.79338 0.7786 0.59035 0.0
O23 O 0.8195 0.82999 0.71528 0.0
O24 O 0.79455 0.80236 0.67231 0.0
O25 O 0.83758 0.8205 0.55505 0.0
C26 C 0.78187 0.74232 0.64265 0.0
O27 O 0.82637 0.79237 0.63402 0.0
C28 C 0.79447 0.78797 0.41736 0.0
C29 C 0.76041 0.79118 0.54899 0.0
O30 O 0.79136 0.74972 0.56948 0.0
O31 O 0.77933 0.75556 0.68752 0.0
O32 O 0.78131 0.77102 0.44445 0.0
O33 O 0.80755 0.79822 0.48462 0.0
O34 O 0.76404 0.77781 0.58394 0.0
O35 O 0.77559 0.80897 0.53307 0.0
C36 C 0.81768 0.85777 0.51681 0.0
O37 O 0.80379 0.84092 0.47507 0.0
O38 O 0.82709 0.8544 0.58507 0.0
C39 C 0.80685 0.81282 0.74124 0.0
Tb40 Tb 0.2207 0.03679 0.56081 0.0
C41 C 0.18461 0.99141 0.53296 0.0
Tb42 Tb 0.23066 0.00311 0.51252 0.0
O43 O 0.23094 0.04847 0.42681 0.0
O44 O 0.21847 0.01863 0.44033 0.0
O45 O 0.19105 0.00926 0.57575 0.0
C46 C 0.24122 0.97976 0.41952 0.0
O47 O 0.19719 0.98699 0.4896 0.0
C48 C 0.23154 0.01002 0.69564 0.0
C49 C 0.26747 0.04727 0.5585 0.0
O50 O 0.22895 0.97463 0.48614 0.0
O51 O 0.24726 0.99793 0.40463 0.0
O52 O 0.23462 0.99652 0.65729 0.0
O53 O 0.22856 0.01843 0.62993 0.0
O54 O 0.26088 0.02956 0.51598 0.0
O55 O 0.25461 0.05272 0.5918 0.0
C56 C 0.20958 0.06276 0.62131 0.0
O57 O 0.22376 0.06007 0.66242 0.0
O58 O 0.20127 0.05035 0.54808 0.0
C59 C 0.22722 0.03189 0.38568 0.0
Tb60 Tb 0.99796 0.78382 0.65483 0.0
C61 C 0.04484 0.79982 0.6364 0.0
Tb62 Tb 0.02539 0.82795 0.63813 0.0
O63 O 0.00344 0.77717 0.51432 0.0
O64 O 0.00356 0.80332 0.54779 0.0
O65 O 0.02793 0.7859 0.66916 0.0
C66 C 0.05384 0.86505 0.60552 0.0
O67 O 0.0465 0.81661 0.61189 0.0
C68 C 0.0162 0.8175 0.80724 0.0
C69 C 0.97783 0.81123 0.64678 0.0
O70 O 0.0496 0.85813 0.68598 0.0
O71 O 0.04182 0.85102 0.54212 0.0
O72 O 0.01888 0.83385 0.77783 0.0
O73 O 0.02004 0.80839 0.74432 0.0
O74 O 0.99493 0.82538 0.61471 0.0
O75 O 0.97679 0.79505 0.67726 0.0
C76 C 0.97402 0.74708 0.7056 0.0
O77 O 0.97196 0.75338 0.62662 0.0
O78 O 0.98921 0.76165 0.75679 0.0
C79 C 0.00695 0.79381 0.48506 0.0
Tb80 Tb 0.22751 0.26907 0.6077 0.0
C81 C 0.26525 0.26203 0.65506 0.0
Tb82 Tb 0.21897 0.2262 0.63462 0.0
O83 O 0.22939 0.2787 0.75627 0.0
O84 O 0.22503 0.25148 0.71582 0.0
O85 O 0.25856 0.27329 0.61954 0.0
C86 C 0.20841 0.1894 0.67297 0.0
O87 O 0.2526 0.24355 0.67447 0.0
C88 C 0.22663 0.23838 0.46571 0.0
C89 C 0.18157 0.23544 0.61433 0.0
O90 O 0.22164 0.20542 0.72348 0.0
O91 O 0.20069 0.19418 0.60314 0.0
O92 O 0.23102 0.22581 0.49963 0.0
O93 O 0.21692 0.2423 0.52374 0.0
O94 O 0.18825 0.22387 0.64919 0.0
O95 O 0.19415 0.25258 0.58154 0.0
C96 C 0.23928 0.30182 0.522 0.0
O97 O 0.22757 0.2967 0.59091 0.0
O98 O 0.24398 0.28838 0.50101 0.0
C99 C 0.2269 0.26238 0.78648 0.0
Tb100 Tb 0.79333 0.04182 0.62421 0.0
C101 C 0.76121 0.99748 0.57536 0.0
Tb102 Tb 0.80944 0.01225 0.58128 0.0
O103 O 0.78059 0.03711 0.48003 0.0
O104 O 0.80629 0.03406 0.51107 0.0
O105 O 0.76509 0.01369 0.62563 0.0
C106 C 0.81871 0.98561 0.50951 0.0
O107 O 0.77599 0.99494 0.54132 0.0
C108 C 0.80364 0.01494 0.7609 0.0
C109 C 0.84158 0.05745 0.63292 0.0
O110 O 0.80244 0.9868 0.4844 0.0
O111 O 0.83026 1.00014 0.5714 0.0
O112 O 0.81052 0.00413 0.72537 0.0
O113 O 0.80028 0.02287 0.69424 0.0
O114 O 0.8381 0.04095 0.58506 0.0
O115 O 0.82645 0.05962 0.66577 0.0
C116 C 0.78253 0.06783 0.68721 0.0
O117 O 0.79405 0.07004 0.61934 0.0
O118 O 0.77756 0.05116 0.72117 0.0
C119 C 0.79305 0.03187 0.44667 0.0
Tb120 Tb 0.68757 0.55206 0.69526 0.0
C121 C 0.63999 0.51861 0.69927 0.0
Tb122 Tb 0.65484 0.56329 0.71842 0.0
O123 O 0.70113 0.56448 0.83738 0.0
O124 O 0.66957 0.55203 0.80402 0.0
O125 O 0.65826 0.52314 0.66812 0.0
C126 C 0.63155 0.57722 0.78401 0.0
O127 O 0.636 0.53223 0.7323 0.0
C128 C 0.6585 0.55426 0.54534 0.0
C129 C 0.70161 0.59714 0.71712 0.0
O130 O 0.63739 0.56658 0.82772 0.0
O131 O 0.63874 0.57997 0.7029 0.0
O132 O 0.64124 0.55141 0.57607 0.0
O133 O 0.67285 0.5633 0.60931 0.0
O134 O 0.68322 0.5918 0.74712 0.0
O135 O 0.70627 0.58393 0.68314 0.0
C136 C 0.71352 0.53926 0.65044 0.0
O137 O 0.70301 0.53516 0.72277 0.0
O138 O 0.70907 0.55031 0.60157 0.0
C139 C 0.6838 0.5612 0.86816 0.0
Tb140 Tb 0.46909 0.16429 0.68078 0.0
C141 C 0.50725 0.15654 0.7036 0.0
Tb142 Tb 0.4617 0.12206 0.7105 0.0
O143 O 0.45758 0.16521 0.81683 0.0
O144 O 0.4719 0.14889 0.79293 0.0
O145 O 0.50014 0.16756 0.66675 0.0
C146 C 0.45293 0.09124 0.80625 0.0
O147 O 0.495 0.13941 0.73693 0.0
C148 C 0.46169 0.12798 0.53078 0.0
C149 C 0.42315 0.12802 0.66518 0.0
O150 O 0.46478 0.09641 0.73785 0.0
O151 O 0.44594 0.10323 0.8193 0.0
O152 O 0.45941 0.11181 0.56227 0.0
O153 O 0.46373 0.13912 0.60078 0.0
O154 O 0.43034 0.11714 0.70098 0.0
O155 O 0.43544 0.1464 0.64365 0.0
C156 C 0.47934 0.20042 0.63476 0.0
O157 O 0.46554 0.18405 0.58857 0.0
O158 O 0.48758 0.19636 0.70532 0.0
C159 C 0.46229 0.15288 0.85129 0.0
Tb160 Tb 0.88821 0.35287 0.71916 0.0
C161 C 0.90272 0.39842 0.75063 0.0
Tb162 Tb 0.9347 0.3836 0.77763 0.0
O163 O 0.88643 0.33985 0.85171 0.0
O164 O 0.90667 0.36954 0.84347 0.0
O165 O 0.88904 0.3812 0.70456 0.0
C166 C 0.97008 0.40756 0.87937 0.0
O167 O 0.92007 0.40129 0.79562 0.0
C168 C 0.92741 0.37801 0.59364 0.0
C169 C 0.92149 0.33912 0.72603 0.0
O170 O 0.96249 0.4124 0.80937 0.0
O171 O 0.95781 0.38913 0.89183 0.0
O172 O 0.94547 0.3899 0.63686 0.0
O173 O 0.91521 0.37031 0.65524 0.0
O174 O 0.93467 0.35576 0.77665 0.0
O175 O 0.9035 0.33587 0.68562 0.0
C176 C 0.84833 0.32926 0.65777 0.0
O177 O 0.864 0.32992 0.61929 0.0
O178 O 0.85528 0.34238 0.72826 0.0
C179 C 0.90103 0.35586 0.89652 0.0
Tb180 Tb 0.6557 0.12832 0.76825 0.0
C181 C 0.70241 0.13786 0.7613 0.0
Tb182 Tb 0.68911 0.16998 0.74312 0.0
O183 O 0.6427 0.12377 0.62353 0.0
O184 O 0.67425 0.14296 0.65921 0.0
O185 O 0.68331 0.12549 0.78186 0.0
C186 C 0.7154 0.20556 0.68815 0.0
O187 O 0.70797 0.15574 0.73565 0.0
C188 C 0.68433 0.1606 0.91703 0.0
C189 C 0.64176 0.15913 0.74337 0.0
O190 O 0.7091 0.18883 0.64092 0.0
O191 O 0.70658 0.20223 0.76544 0.0
O192 O 0.70196 0.17292 0.88726 0.0
O193 O 0.6704 0.15537 0.85136 0.0
O194 O 0.66011 0.17084 0.71156 0.0
O195 O 0.63765 0.14271 0.78162 0.0
C196 C 0.63515 0.09578 0.85673 0.0
O197 O 0.63223 0.09688 0.76817 0.0
O198 O 0.64936 0.11284 0.89401 0.0
C199 C 0.66006 0.13692 0.59377 0.0
Tb200 Tb 0.9325 0.57237 0.82058 0.0
C201 C 0.91775 0.60379 0.79384 0.0
Tb202 Tb 0.88716 0.55767 0.7675 0.0
O203 O 0.93773 0.5651 0.67988 0.0
O204 O 0.91484 0.57225 0.70042 0.0
O205 O 0.93246 0.60028 0.82596 0.0
C206 C 0.8478 0.5428 0.69723 0.0
O207 O 0.89911 0.58935 0.75965 0.0
C208 C 0.89888 0.56526 0.94719 0.0
C209 C 0.90304 0.52701 0.78279 0.0
O210 O 0.85372 0.53914 0.77591 0.0
O211 O 0.86412 0.55449 0.65659 0.0
O212 O 0.88445 0.56771 0.90787 0.0
O213 O 0.90492 0.55763 0.88696 0.0
O214 O 0.88935 0.53075 0.7391 0.0
O215 O 0.91971 0.54112 0.83306 0.0
C216 C 0.96857 0.58932 0.92514 0.0
O217 O 0.96512 0.5802 0.8431 0.0
O218 O 0.9518 0.58888 0.94759 0.0
C219 C 0.9221 0.56578 0.64035 0.0
Tb220 Tb 0.45895 0.3868 0.77329 0.0
C221 C 0.421 0.34276 0.73172 0.0
Tb222 Tb 0.4672 0.35204 0.72274 0.0
O223 O 0.45464 0.3934 0.62855 0.0
O224 O 0.45938 0.37065 0.65576 0.0
O225 O 0.42812 0.36084 0.7716 0.0
C226 C 0.47747 0.32578 0.65989 0.0
O227 O 0.43332 0.33674 0.69742 0.0
C228 C 0.46255 0.35815 0.89964 0.0
C229 C 0.50427 0.39663 0.74063 0.0
O230 O 0.46287 0.32823 0.62174 0.0
O231 O 0.48649 0.33841 0.7319 0.0
O232 O 0.45804 0.34122 0.85955 0.0
O233 O 0.47104 0.37096 0.84267 0.0
O234 O 0.49687 0.37851 0.69971 0.0
O235 O 0.4926 0.40191 0.78658 0.0
C236 C 0.45182 0.4112 0.87894 0.0
O237 O 0.46286 0.41602 0.80788 0.0
O238 O 0.44466 0.39266 0.88948 0.0
C239 C 0.45685 0.37932 0.59 0.0
Tb240 Tb 0.34871 0.8964 0.25941 0.0
C241 C 0.39621 0.9126 0.25598 0.0
Tb242 Tb 0.3755 0.93911 0.23411 0.0
O243 O 0.3521 0.88825 0.11701 0.0
O244 O 0.35264 0.91453 0.1479 0.0
O245 O 0.37903 0.89893 0.28912 0.0
C246 C 0.40048 0.97302 0.16346 0.0
O247 O 0.39749 0.92868 0.22412 0.0
C248 C 0.36864 0.93114 0.40839 0.0
C249 C 0.32861 0.92376 0.24167 0.0
O250 O 0.39427 0.95562 0.12403 0.0
O251 O 0.3928 0.97135 0.24316 0.0
O252 O 0.37217 0.94754 0.37613 0.0
O253 O 0.37135 0.92104 0.3462 0.0
O254 O 0.34565 0.93686 0.20649 0.0
O255 O 0.32694 0.90748 0.27349 0.0
C256 C 0.32145 0.86137 0.31505 0.0
O257 O 0.33178 0.86419 0.2426 0.0
O258 O 0.32667 0.87832 0.35726 0.0
C259 C 0.35532 0.90455 0.0851 0.0
Tb260 Tb 0.16192 0.5101 0.17216 0.0
C261 C 0.19351 0.49411 0.17923 0.0
Tb262 Tb 0.14628 0.46542 0.1971 0.0
O263 O 0.15242 0.51313 0.31018 0.0
O264 O 0.16151 0.49259 0.28154 0.0
O265 O 0.18975 0.50799 0.15033 0.0
C266 C 0.1336 0.4317 0.27465 0.0
O267 O 0.17939 0.47792 0.21408 0.0
C268 C 0.1464 0.47227 1.01842 0.0
C269 C 0.11398 0.47948 0.16312 0.0
O270 O 0.14351 0.43644 0.20031 0.0
O271 O 0.13089 0.44595 0.30555 0.0
O272 O 0.14073 0.45504 0.04722 0.0
O273 O 0.15111 0.48378 0.09017 0.0
O274 O 0.11806 0.46669 0.20166 0.0
O275 O 0.12857 0.4964 0.13533 0.0
C276 C 0.17608 0.54681 0.1244 0.0
O277 O 0.16094 0.53099 0.08009 0.0
O278 O 0.1836 0.54187 0.19443 0.0
C279 C 0.15408 0.4988 0.34195 0.0
Tb280 Tb 0.56821 0.72043 0.25037 0.0
C281 C 0.53388 0.67673 0.18402 0.0
Tb282 Tb 0.58087 0.68873 0.20132 0.0
O283 O 0.56881 0.73034 0.108 0.0
O284 O 0.57677 0.70983 0.13603 0.0
O285 O 0.53835 0.6928 0.23813 0.0
C286 C 0.58871 0.6629 0.11454 0.0
O287 O 0.54838 0.67377 0.15038 0.0
C288 C 0.57982 0.69649 0.38038 0.0
C289 C 0.61564 0.73177 0.2648 0.0
O290 O 0.57572 0.65878 0.17783 0.0
O291 O 0.5974 0.68146 0.10189 0.0
O292 O 0.59089 0.68944 0.34754 0.0
O293 O 0.56822 0.69658 0.31402 0.0
O294 O 0.61063 0.71546 0.21253 0.0
O295 O 0.60156 0.7359 0.29472 0.0
C296 C 0.55845 0.74491 0.33821 0.0
O297 O 0.57506 0.74397 0.3579 0.0
O298 O 0.54729 0.73193 0.26983 0.0
C299 C 0.57444 0.71862 0.07039 0.0
Tb300 Tb 0.34875 0.4694 0.22862 0.0
C301 C 0.39498 0.48376 0.21198 0.0
Tb302 Tb 0.37613 0.51222 0.20784 0.0
O303 O 0.35289 0.46152 0.08791 0.0
O304 O 0.35351 0.48804 0.11813 0.0
O305 O 0.3784 0.47103 0.25142 0.0
C306 C 0.40347 0.54892 0.16953 0.0
O307 O 0.39689 0.5004 0.18379 0.0
C308 C 0.36853 0.50299 0.38007 0.0
C309 C 0.32885 0.49669 0.20743 0.0
O310 O 0.39735 0.53314 0.11444 0.0
O311 O 0.3942 0.54395 0.24491 0.0
O312 O 0.37116 0.51913 0.34891 0.0
O313 O 0.37177 0.49341 0.31728 0.0
O314 O 0.34628 0.51037 0.17641 0.0
O315 O 0.32726 0.48046 0.23918 0.0
C316 C 0.32235 0.43421 0.28578 0.0
O317 O 0.33025 0.4509 0.33557 0.0
O318 O 0.32932 0.43738 0.20447 0.0
C319 C 0.35637 0.47794 0.05631 0.0
Tb320 Tb 0.58136 0.94502 0.29901 0.0
C321 C 0.61328 0.93175 0.34346 0.0
Tb322 Tb 0.56451 0.90264 0.33031 0.0
O323 O 0.59308 0.95448 0.44535 0.0
O324 O 0.56673 0.92706 0.40945 0.0
O325 O 0.61006 0.94438 0.29827 0.0
C326 C 0.55499 0.86759 0.38986 0.0
O327 O 0.59779 0.91526 0.36992 0.0
C328 C 0.56741 0.9104 0.1534 0.0
C329 C 0.53277 0.91702 0.30433 0.0
O330 O 0.57019 0.88443 0.42494 0.0
O331 O 0.54513 0.87055 0.32215 0.0
O332 O 0.55383 0.8939 0.1822 0.0
O333 O 0.5799 0.92076 0.22187 0.0
O334 O 0.53644 0.90425 0.34597 0.0
O335 O 0.54796 0.93311 0.27358 0.0
C336 C 0.58952 0.97709 0.21236 0.0
O337 O 0.59439 0.97701 0.29983 0.0
O338 O 0.58012 0.95922 0.17436 0.0
C339 C 0.57981 0.93789 0.47584 0.0
Tb340 Tb 0.13932 0.71877 0.32063 0.0
C341 C 0.10873 0.67413 0.25751 0.0
Tb342 Tb 0.15748 0.6911 0.27403 0.0
O343 O 0.12771 0.71569 0.17527 0.0
O344 O 0.15356 0.71287 0.20789 0.0
O345 O 0.11118 0.69008 0.30579 0.0
C346 C 0.17046 0.66866 0.19057 0.0
O347 O 0.1245 0.67223 0.23162 0.0
C348 C 0.15078 0.69234 0.45378 0.0
C349 C 0.18799 0.73632 0.32808 0.0
O350 O 0.15365 0.66887 0.16514 0.0
O351 O 0.18009 0.68135 0.26187 0.0
O352 O 0.159 0.6827 0.41796 0.0
O353 O 0.14664 0.69973 0.38679 0.0
O354 O 0.18512 0.72011 0.28059 0.0
O355 O 0.17249 0.73805 0.35961 0.0
C356 C 0.1273 0.74194 0.40477 0.0
O357 O 0.13701 0.74558 0.32968 0.0
O358 O 0.12448 0.72537 0.43208 0.0
C359 C 0.14067 0.71098 0.14221 0.0
H360 H 0.1247 0.39681 0.18509 0.0
H361 H 0.09093 0.33442 0.62349 0.0
H362 H 0.12323 0.4231 0.45129 0.0
H363 H 0.05756 0.31061 0.35357 0.0
H364 H 0.11101 0.36671 0.56187 0.0
H365 H 0.10802 0.36437 0.24757 0.0
C366 C 0.12109 0.39574 0.25697 0.0
C367 C 0.12517 0.4125 0.3133 0.0
C368 C 0.09938 0.35433 0.5163 0.0
C369 C 0.10659 0.37581 0.38488 0.0
C370 C 0.08804 0.33598 0.55105 0.0
C371 C 0.07258 0.32 0.49332 0.0
C372 C 0.09556 0.35646 0.42278 0.0
C373 C 0.06929 0.32269 0.40017 0.0
C374 C 0.11153 0.37731 0.2922 0.0
C375 C 0.12016 0.41043 0.40576 0.0
N376 N 0.0808 0.34061 0.36742 0.0
N377 N 0.11119 0.39237 0.43906 0.0
H378 H 0.7268 0.75445 0.54715 0.0
H379 H 0.6349 0.76772 0.37074 0.0
H380 H 0.7441 0.8134 0.48009 0.0
H381 H 0.64694 0.72419 0.24091 0.0
H382 H 0.67071 0.785 0.44525 0.0
H383 H 0.69204 0.7428 0.4768 0.0
C384 C 0.72329 0.76509 0.5191 0.0
C385 C 0.73859 0.78498 0.51886 0.0
C386 C 0.66539 0.77181 0.39921 0.0
C387 C 0.6985 0.7715 0.43861 0.0
C388 C 0.64505 0.76194 0.35675 0.0
C389 C 0.63776 0.74435 0.29984 0.0
C390 C 0.67813 0.76367 0.38613 0.0
C391 C 0.65164 0.73757 0.28435 0.0
C392 C 0.70341 0.75833 0.47859 0.0
C393 C 0.73284 0.79793 0.48125 0.0
N394 N 0.67094 0.74702 0.3285 0.0
N395 N 0.71316 0.79095 0.44212 0.0
H396 H 0.23526 0.94402 0.46544 0.0
H397 H 0.32324 0.9508 0.15181 0.0
H398 H 0.26652 0.98909 0.27886 0.0
H399 H 0.29552 0.90713 0.34874 0.0
H400 H 0.29856 0.96162 0.18081 0.0
H401 H 0.25319 0.92717 0.40783 0.0
C402 C 0.24566 0.95019 0.41134 0.0
C403 C 0.24959 0.96803 0.37726 0.0
C404 C 0.29768 0.94954 0.21715 0.0
C405 C 0.27017 0.94897 0.31156 0.0
C406 C 0.31179 0.94331 0.20053 0.0
C407 C 0.31162 0.92816 0.24873 0.0
C408 C 0.28332 0.94071 0.2832 0.0
C409 C 0.29625 0.9189 0.31024 0.0
C410 C 0.25592 0.94061 0.37871 0.0
C411 C 0.26318 0.97543 0.30739 0.0
N412 N 0.28287 0.92549 0.32665 0.0
N413 N 0.27309 0.96595 0.2774 0.0
H414 H 0.29724 0.03904 0.51034 0.0
H415 H 0.39757 0.14436 0.6501 0.0
H416 H 0.29042 0.08654 0.63177 0.0
H417 H 0.39631 0.08885 0.63472 0.0
H418 H 0.35928 0.12611 0.62241 0.0
H419 H 0.33441 0.0599 0.53155 0.0
C420 C 0.30347 0.05392 0.54146 0.0
C421 C 0.2904 0.06087 0.56991 0.0
C422 C 0.36753 0.11807 0.62533 0.0
C423 C 0.33375 0.08519 0.59467 0.0
C424 C 0.38933 0.12844 0.64052 0.0
C425 C 0.40024 0.11815 0.64523 0.0
C426 C 0.35675 0.09736 0.61283 0.0
C427 C 0.38873 0.0975 0.63265 0.0
C428 C 0.32489 0.06587 0.55378 0.0
C429 C 0.29981 0.08047 0.60931 0.0
N430 N 0.36781 0.08792 0.61678 0.0
N431 N 0.32096 0.09198 0.62065 0.0
H432 H 0.91483 0.31498 0.56871 0.0
H433 H 0.96882 0.25801 0.78171 0.0
H434 H 0.94293 0.32921 0.85029 0.0
H435 H 0.97752 0.27634 0.50344 0.0
H436 H 0.94988 0.27586 0.80695 0.0
H437 H 0.92854 0.29257 0.54301 0.0
C438 C 0.92356 0.31314 0.62553 0.0
C439 C 0.9278 0.32402 0.7117 0.0
C440 C 0.95568 0.27567 0.73997 0.0
C441 C 0.94315 0.29817 0.68326 0.0
C442 C 0.96629 0.26537 0.72529 0.0
C443 C 0.97466 0.26565 0.64024 0.0
C444 C 0.95293 0.28585 0.66824 0.0
C445 C 0.97128 0.27574 0.56998 0.0
C446 C 0.93146 0.30045 0.61066 0.0
C447 C 0.9394 0.32119 0.78264 0.0
N448 N 0.96061 0.28534 0.58529 0.0
N449 N 0.94657 0.30848 0.76709 0.0
H450 H 0.75748 0.72419 0.78203 0.0
H451 H 0.73601 0.61593 0.61772 0.0
H452 H 0.78541 0.71285 0.55115 0.0
H453 H 0.70089 0.62758 0.81307 0.0
H454 H 0.75765 0.65156 0.60605 0.0
H455 H 0.74009 0.68916 0.80794 0.0
C456 C 0.76012 0.71434 0.73736 0.0
C457 C 0.77287 0.72145 0.66417 0.0
C458 C 0.7453 0.64629 0.65198 0.0
C459 C 0.7529 0.68116 0.6931 0.0
C460 C 0.73301 0.62594 0.6591 0.0
C461 C 0.7165 0.61865 0.71618 0.0
C462 C 0.74119 0.65949 0.70291 0.0
C463 C 0.71331 0.63241 0.76762 0.0
C464 C 0.75013 0.6943 0.75193 0.0
C465 C 0.77568 0.70798 0.60831 0.0
N466 N 0.72544 0.65204 0.75959 0.0
N467 N 0.76574 0.6885 0.62367 0.0
H468 H 0.98182 0.73156 0.8572 0.0
H469 H 0.89865 0.61903 0.68469 0.0
H470 H 0.94188 0.71499 0.60375 0.0
H471 H 0.94983 0.63647 0.89086 0.0
H472 H 0.91042 0.65396 0.66872 0.0
H473 H 0.96632 0.69672 0.88528 0.0
C474 C 0.96961 0.72059 0.80798 0.0
C475 C 0.96318 0.72619 0.72787 0.0
C476 C 0.91897 0.6501 0.71787 0.0
C477 C 0.94535 0.68617 0.75942 0.0
C478 C 0.91219 0.63016 0.72743 0.0
C479 C 0.9233 0.62474 0.78895 0.0
C480 C 0.93684 0.66477 0.77106 0.0
C481 C 0.94083 0.63988 0.84204 0.0
C482 C 0.96082 0.70068 0.82381 0.0
C483 C 0.94732 0.71131 0.66634 0.0
N484 N 0.94702 0.6591 0.83185 0.0
N485 N 0.93899 0.692 0.68322 0.0
H486 H 0.29027 0.29944 0.72628 0.0
H487 H 0.39796 0.30388 0.65613 0.0
H488 H 0.29208 0.24732 0.63616 0.0
H489 H 0.39148 0.35021 0.79387 0.0
H490 H 0.35998 0.2825 0.64545 0.0
H491 H 0.32777 0.31767 0.74989 0.0
C492 C 0.29863 0.29176 0.71196 0.0
C493 C 0.28798 0.27182 0.67886 0.0
C494 C 0.36698 0.29732 0.67838 0.0
C495 C 0.33148 0.2929 0.70474 0.0
C496 C 0.38866 0.30958 0.6843 0.0
C497 C 0.3981 0.32902 0.72545 0.0
C498 C 0.35466 0.30461 0.71344 0.0
C499 C 0.38514 0.33547 0.76098 0.0
C500 C 0.32015 0.30222 0.72554 0.0
C501 C 0.29969 0.26266 0.66224 0.0
N502 N 0.36427 0.32339 0.75373 0.0
N503 N 0.32089 0.27334 0.67431 0.0
H504 H 0.7388 0.1518 0.67511 0.0
H505 H 0.75538 0.06268 0.81713 0.0
H506 H 0.69967 0.10668 0.84786 0.0
H507 H 0.78945 0.10172 0.61162 0.0
H508 H 0.73812 0.08171 0.8448 0.0
H509 H 0.76069 0.13669 0.66606 0.0
C510 C 0.73494 0.13889 0.712 0.0
C511 C 0.71724 0.13043 0.76169 0.0
C512 C 0.74949 0.08625 0.7941 0.0
C513 C 0.74219 0.11308 0.75163 0.0
C514 C 0.7594 0.07541 0.77858 0.0
C515 C 0.7738 0.08058 0.71175 0.0
C516 C 0.75396 0.10242 0.74238 0.0
C517 C 0.7784 0.09721 0.6637 0.0
C518 C 0.74739 0.13022 0.70646 0.0
C519 C 0.71299 0.11364 0.80784 0.0
N520 N 0.76843 0.10748 0.67952 0.0
N521 N 0.72528 0.10554 0.80142 0.0
H522 H 0.64742 0.95192 0.248 0.0
H523 H 0.72766 0.98577 0.67612 0.0
H524 H 0.62812 0.92425 0.50318 0.0
H525 H 0.74514 0.97722 0.40561 0.0
H526 H 0.69104 0.96577 0.61702 0.0
H527 H 0.68364 0.96411 0.30458 0.0
C528 C 0.65082 0.94822 0.31537 0.0
C529 C 0.63483 0.93704 0.37098 0.0
C530 C 0.70292 0.96799 0.57125 0.0
C531 C 0.67604 0.95133 0.43679 0.0
C532 C 0.72375 0.97939 0.60478 0.0
C533 C 0.73935 0.98301 0.54568 0.0
C534 C 0.69776 0.9608 0.47725 0.0
C535 C 0.73353 0.97456 0.4536 0.0
C536 C 0.67143 0.9551 0.34738 0.0
C537 C 0.64003 0.93269 0.45792 0.0
N538 N 0.71316 0.96417 0.42154 0.0
N539 N 0.66025 0.94019 0.48909 0.0
H540 H 0.05231 0.77327 0.71861 0.0
H541 H 0.12853 0.77516 0.34621 0.0
H542 H 0.07469 0.81558 0.51282 0.0
H543 H 0.10733 0.7353 0.56246 0.0
H544 H 0.11195 0.79249 0.41404 0.0
H545 H 0.07559 0.7618 0.67203 0.0
C546 C 0.06235 0.78034 0.6643 0.0
C547 C 0.06144 0.79531 0.61905 0.0
C548 C 0.11111 0.78008 0.44714 0.0
C549 C 0.08801 0.78197 0.56398 0.0
C550 C 0.12057 0.7702 0.40848 0.0
C551 C 0.11912 0.75371 0.44849 0.0
C552 C 0.10014 0.77333 0.52615 0.0
C553 C 0.10868 0.74788 0.52908 0.0
C554 C 0.07565 0.77375 0.63755 0.0
C555 C 0.07493 0.80401 0.54964 0.0
N556 N 0.09948 0.75758 0.5648 0.0
N557 N 0.08747 0.79703 0.52326 0.0
H558 H 0.30852 0.39865 0.19089 0.0
H559 H 0.23987 0.3354 0.58745 0.0
H560 H 0.30402 0.42531 0.44983 0.0
H561 H 0.25951 0.31166 0.36533 0.0
H562 H 0.25857 0.36795 0.52681 0.0
H563 H 0.28598 0.36613 0.24322 0.0
C564 C 0.30269 0.39763 0.25871 0.0
C565 C 0.30819 0.41463 0.31643 0.0
C566 C 0.25863 0.35557 0.49108 0.0
C567 C 0.28231 0.37748 0.37669 0.0
C568 C 0.24788 0.33701 0.52524 0.0
C569 C 0.24826 0.32092 0.48133 0.0
C570 C 0.2696 0.35789 0.41205 0.0
C571 C 0.25893 0.32374 0.40136 0.0
C572 C 0.28985 0.37907 0.2886 0.0
C573 C 0.30019 0.41251 0.40352 0.0
N574 N 0.2692 0.34187 0.36938 0.0
N575 N 0.28763 0.39423 0.43118 0.0
H576 H 0.99865 0.44514 0.84782 0.0
H577 H 0.08087 0.45136 0.24269 0.0
H578 H 0.98664 0.39991 0.03312 0.0
H579 H 0.09676 0.49263 0.03258 0.0
H580 H 0.04454 0.43614 0.18571 0.0
H581 H 0.03286 0.46595 0.93159 0.0
C582 C 0.00318 0.43968 0.90669 0.0
C583 C 0.98999 0.42074 0.93321 0.0
C584 C 0.05591 0.44867 0.15264 0.0
C585 C 0.0289 0.44441 1.02925 0.0
C586 C 0.07668 0.45742 0.18531 0.0
C587 C 0.09191 0.4731 0.1413 0.0
C588 C 0.05027 0.45553 0.0749 0.0
C589 C 0.08553 0.48052 0.06824 0.0
C590 C 0.02267 0.45155 0.9544 0.0
C591 C 0.99648 0.41437 1.01004 0.0
N592 N 0.06517 0.47146 0.03631 0.0
N593 N 0.01554 0.42614 0.05507 0.0
H594 H 0.61446 0.57123 0.94982 0.0
H595 H 0.60839 0.66891 0.95721 0.0
H596 H 0.62534 0.60548 0.71305 0.0
H597 H 0.5775 0.6251 0.15001 0.0
H598 H 0.61555 0.64603 0.8693 0.0
H599 H 0.60108 0.59056 1.02649 0.0
C600 C 0.61376 0.58266 0.91361 0.0
C601 C 0.62108 0.58693 0.82547 0.0
C602 C 0.60708 0.64133 0.93042 0.0
C603 C 0.60619 0.60915 0.91277 0.0
C604 C 0.60312 0.65442 0.98092 0.0
C605 C 0.59251 0.64885 0.06113 0.0
C606 C 0.60066 0.62265 0.96121 0.0
C607 C 0.58581 0.6299 0.08855 0.0
C608 C 0.60613 0.59365 0.95726 0.0
C609 C 0.61987 0.60181 0.78124 0.0
N610 N 0.5902 0.61748 0.03908 0.0
N611 N 0.61281 0.61258 0.82592 0.0
H612 H 0.46003 0.06065 0.77132 0.0
H613 H 0.40958 0.00968 0.22957 0.0
H614 H 0.43513 0.08434 0.96912 0.0
H615 H 0.41719 0.97821 0.99649 0.0
H616 H 0.42523 0.03959 0.14724 0.0
H617 H 0.45025 0.03245 0.86481 0.0
C618 C 0.45262 0.05993 0.83464 0.0
C619 C 0.44816 0.07463 0.86239 0.0
C620 C 0.42363 0.02618 0.11438 0.0
C621 C 0.4372 0.0428 0.96942 0.0
C622 C 0.4148 0.00916 0.16148 0.0
C623 C 0.41201 0.99151 0.11926 0.0
C624 C 0.42979 0.02552 1.02466 0.0
C625 C 0.41902 0.99157 0.03105 0.0
C626 C 0.44704 0.04389 0.88775 0.0
C627 C 0.43863 0.07316 0.94495 0.0
N628 N 0.42752 0.00832 0.98627 0.0
N629 N 0.43345 0.05751 0.99555 0.0
H630 H 0.60911 0.0574 0.7874 0.0
H631 H 0.60949 0.01553 0.28285 0.0
H632 H 0.63971 0.09384 0.04222 0.0
H633 H 0.5807 0.97832 1.02846 0.0
H634 H 0.61852 0.04442 0.19679 0.0
H635 H 0.59611 0.0281 0.87533 0.0
C636 C 0.6129 0.05921 0.86188 0.0
C637 C 0.62554 0.07798 0.90771 0.0
C638 C 0.61015 0.02994 0.15972 0.0
C639 C 0.61094 0.04475 1.00837 0.0
C640 C 0.60501 0.01348 0.2089 0.0
C641 C 0.59442 0.9946 0.16249 0.0
C642 C 0.60468 0.02748 0.06339 0.0
C643 C 0.58892 0.99268 0.06669 0.0
C644 C 0.60556 0.04253 0.91199 0.0
C645 C 0.63007 0.07959 1.00418 0.0
N646 N 0.59418 0.00893 1.02015 0.0
N647 N 0.62286 0.06321 0.05118 0.0
H648 H 0.09724 0.64236 0.13245 0.0
H649 H 0.97725 0.61064 0.09163 0.0
H650 H 0.07171 0.67077 0.29934 0.0
H651 H 0.00511 0.5912 0.8893 0.0
H652 H 0.01078 0.62909 0.18286 0.0
H653 H 0.06261 0.61971 0.05857 0.0
C654 C 0.08435 0.6437 0.15467 0.0
C655 C 0.08749 0.65865 0.22195 0.0
C656 C 0.00957 0.62072 0.11877 0.0
C657 C 0.04774 0.63275 0.13676 0.0
C658 C 0.99044 0.61018 0.06672 0.0
C659 C 0.98851 0.59953 0.98258 0.0
C660 C 0.02688 0.62054 0.08663 0.0
C661 C 0.00602 0.59934 0.95362 0.0
C662 C 0.06457 0.6308 0.11191 0.0
C663 C 0.07011 0.65959 0.24748 0.0
N664 N 0.02452 0.60976 1.00547 0.0
N665 N 0.05101 0.6469 0.2045 0.0
H666 H 0.39977 0.45426 0.27923 0.0
H667 H 0.46194 0.44922 0.85437 0.0
H668 H 0.42309 0.49809 0.0806 0.0
H669 H 0.43241 0.40323 0.03851 0.0
H670 H 0.45291 0.47004 0.95011 0.0
H671 H 0.41748 0.43868 0.20845 0.0
C672 C 0.40897 0.46086 0.22186 0.0
C673 C 0.40973 0.47739 0.18518 0.0
C674 C 0.44856 0.45545 0.96995 0.0
C675 C 0.42976 0.45932 0.10231 0.0
C676 C 0.45368 0.44358 0.91533 0.0
C677 C 0.44767 0.42443 0.93815 0.0
C678 C 0.43744 0.4481 0.04803 0.0
C679 C 0.43712 0.41784 1.01796 0.0
C680 C 0.419 0.45187 0.18104 0.0
C681 C 0.42203 0.48535 0.11111 0.0
N682 N 0.43225 0.42961 0.06968 0.0
N683 N 0.4313 0.47606 0.07112 0.0
H684 H 0.07335 0.2431 0.47965 0.0
H685 H 0.15195 0.21549 0.73826 0.0
H686 H 0.06016 0.2158 0.73815 0.0
H687 H 0.16045 0.24291 0.48048 0.0
H688 H 0.11697 0.21165 0.7361 0.0
H689 H 0.10349 0.23922 0.47457 0.0
C690 C 0.07674 0.2361 0.53533 0.0
C691 C 0.06422 0.22989 0.60971 0.0
C692 C 0.12644 0.21826 0.67954 0.0
C693 C 0.09944 0.22564 0.60544 0.0
C694 C 0.14633 0.22032 0.68042 0.0
C695 C 0.15924 0.22966 0.6097 0.0
C696 C 0.11944 0.22545 0.60703 0.0
C697 C 0.15122 0.23582 0.53704 0.0
C698 C 0.09407 0.23389 0.5325 0.0
C699 C 0.06936 0.22075 0.67932 0.0
N700 N 0.13207 0.2337 0.53797 0.0
N701 N 0.08676 0.21913 0.67623 0.0
H702 H 0.79273 0.95166 0.39926 0.0
H703 H 0.84753 0.89376 0.5968 0.0
H704 H 0.84939 0.97919 0.57896 0.0
H705 H 0.79354 0.86645 0.40035 0.0
H706 H 0.84973 0.9256 0.58181 0.0
H707 H 0.79401 0.92103 0.38854 0.0
C708 C 0.80564 0.95137 0.43517 0.0
C709 C 0.82097 0.96804 0.49017 0.0
C710 C 0.83748 0.91272 0.54122 0.0
C711 C 0.82238 0.93287 0.47951 0.0
C712 C 0.83625 0.8945 0.54968 0.0
C713 C 0.82031 0.87739 0.49989 0.0
C714 C 0.82254 0.91392 0.48313 0.0
C715 C 0.80611 0.87927 0.43993 0.0
C716 C 0.80632 0.93383 0.4294 0.0
C717 C 0.83725 0.96673 0.53569 0.0
N718 N 0.80744 0.89713 0.43387 0.0
N719 N 0.83742 0.94946 0.53002 0.0
H720 H 0.07587 0.89611 0.73545 0.0
H721 H 0.16208 0.96068 0.40243 0.0
H722 H 0.0708 0.87968 0.44246 0.0
H723 H 0.15788 0.98434 0.67041 0.0
H724 H 0.12867 0.9312 0.41547 0.0
H725 H 0.10568 0.92837 0.71393 0.0
C726 C 0.08094 0.89936 0.66632 0.0
C727 C 0.07083 0.88514 0.59062 0.0
C728 C 0.13486 0.9429 0.47105 0.0
C729 C 0.10522 0.92209 0.56562 0.0
C730 C 0.15398 0.95979 0.4637 0.0
C731 C 0.16287 0.97507 0.53551 0.0
C732 C 0.12453 0.94093 0.55177 0.0
C733 C 0.15158 0.97303 0.61308 0.0
C734 C 0.09795 0.91782 0.6541 0.0
C735 C 0.07809 0.89019 0.50271 0.0
N736 N 0.13316 0.95616 0.61976 0.0
N737 N 0.09495 0.90813 0.49283 0.0
H738 H 0.2287 0.17818 0.79797 0.0
H739 H 0.18153 0.07051 0.53377 0.0
H740 H 0.18204 0.1554 0.5665 0.0
H741 H 0.23008 0.09331 0.75723 0.0
H742 H 0.17882 0.10012 0.5574 0.0
H743 H 0.22681 0.14607 0.79691 0.0
C744 C 0.21783 0.16633 0.74787 0.0
C745 C 0.20555 0.16948 0.68205 0.0
C746 C 0.18995 0.09862 0.60201 0.0
C747 C 0.20342 0.13274 0.67972 0.0
C748 C 0.19145 0.08166 0.5887 0.0
C749 C 0.20609 0.07946 0.64342 0.0
C750 C 0.20327 0.11365 0.67036 0.0
C751 C 0.21857 0.09441 0.71345 0.0
C752 C 0.21682 0.14802 0.74699 0.0
C753 C 0.19182 0.15364 0.61841 0.0
N754 N 0.21699 0.11093 0.72444 0.0
N755 N 0.19123 0.13606 0.61846 0.0
H756 H 0.87604 0.06472 0.54198 0.0
H757 H 0.94517 0.17453 0.78808 0.0
H758 H 0.85576 0.09008 0.75466 0.0
H759 H 0.96284 0.15304 0.54996 0.0
H760 H 0.91444 0.14192 0.79049 0.0
H761 H 0.90988 0.09518 0.55703 0.0
C762 C 0.87874 0.07655 0.59252 0.0
C763 C 0.8629 0.07483 0.6465 0.0
C764 C 0.92511 0.14425 0.73813 0.0
C765 C 0.9016 0.10975 0.66405 0.0
C766 C 0.94272 0.16286 0.73706 0.0
C767 C 0.95652 0.16651 0.66853 0.0
C768 C 0.92124 0.12912 0.67011 0.0
C769 C 0.95255 0.15085 0.60391 0.0
C770 C 0.89805 0.09398 0.60082 0.0
C771 C 0.86735 0.09073 0.71071 0.0
N772 N 0.93522 0.13289 0.60588 0.0
N773 N 0.88617 0.10746 0.71736 0.0
H774 H 0.943 0.78882 0.73374 0.0
H775 H 0.87682 0.83485 0.52176 0.0
H776 H 0.96907 0.83717 0.55941 0.0
H777 H 0.85484 0.78839 0.70726 0.0
H778 H 0.91106 0.8374 0.53709 0.0
H779 H 0.91108 0.78987 0.72726 0.0
C780 C 0.94207 0.79973 0.69406 0.0
C781 C 0.95882 0.81285 0.64658 0.0
C782 C 0.89872 0.82674 0.57466 0.0
C783 C 0.92185 0.8141 0.63848 0.0
C784 C 0.87918 0.8253 0.56608 0.0
C785 C 0.86279 0.81128 0.61266 0.0
C786 C 0.90185 0.81409 0.6303 0.0
C787 C 0.86682 0.79931 0.66914 0.0
C788 C 0.92374 0.80034 0.69048 0.0
C789 C 0.95658 0.82676 0.5971 0.0
N790 N 0.8858 0.80095 0.67594 0.0
N791 N 0.93838 0.82694 0.59378 0.0
H792 H 0.83395 0.55587 0.55288 0.0
H793 H 0.72272 0.51541 0.74702 0.0
H794 H 0.81295 0.51895 0.78025 0.0
H795 H 0.74326 0.55414 0.52625 0.0
H796 H 0.75371 0.51255 0.7428 0.0
H797 H 0.79919 0.55156 0.52507 0.0
C798 C 0.82191 0.54656 0.5958 0.0
C799 C 0.82633 0.53785 0.66937 0.0
C800 C 0.7514 0.52151 0.69439 0.0
C801 C 0.78667 0.53301 0.63871 0.0
C802 C 0.73365 0.52309 0.69663 0.0
C803 C 0.73052 0.53514 0.63736 0.0
C804 C 0.76631 0.53222 0.63297 0.0
C805 C 0.74514 0.54473 0.57328 0.0
C806 C 0.80211 0.54418 0.58019 0.0
C807 C 0.81023 0.52601 0.72309 0.0
N808 N 0.76255 0.54326 0.57352 0.0
N809 N 0.7912 0.52408 0.70723 0.0
H810 H 0.45573 0.2948 0.52765 0.0
H811 H 0.50825 0.23533 0.72627 0.0
H812 H 0.50666 0.3188 0.74028 0.0
H813 H 0.45766 0.21045 0.51182 0.0
H814 H 0.51059 0.2673 0.71764 0.0
H815 H 0.45875 0.26521 0.50616 0.0
C816 C 0.46775 0.29396 0.56873 0.0
C817 C 0.48088 0.30918 0.63627 0.0
C818 C 0.4991 0.25494 0.67161 0.0
C819 C 0.48432 0.27538 0.61284 0.0
C820 C 0.4978 0.23668 0.67641 0.0
C821 C 0.48266 0.22022 0.6201 0.0
C822 C 0.485 0.25676 0.61061 0.0
C823 C 0.46953 0.2228 0.55661 0.0
C824 C 0.46944 0.27706 0.55669 0.0
C825 C 0.49616 0.30736 0.68776 0.0
N826 N 0.47085 0.24068 0.55428 0.0
N827 N 0.49734 0.29071 0.67556 0.0
H828 H 0.74027 0.21347 0.54479 0.0
H829 H 0.81515 0.32582 0.74248 0.0
H830 H 0.72912 0.24148 0.78079 0.0
H831 H 0.83203 0.29604 0.53673 0.0
H832 H 0.7806 0.29677 0.7357 0.0
H833 H 0.77093 0.24505 0.52076 0.0
C834 C 0.74411 0.22634 0.59066 0.0
C835 C 0.73225 0.22487 0.66527 0.0
C836 C 0.79174 0.29663 0.69107 0.0
C837 C 0.76726 0.26097 0.63846 0.0
C838 C 0.81145 0.31327 0.69455 0.0
C839 C 0.8265 0.31327 0.64055 0.0
C840 C 0.78702 0.27978 0.63337 0.0
C841 C 0.82086 0.29661 0.57966 0.0
C842 C 0.76164 0.24433 0.57713 0.0
C843 C 0.73791 0.24196 0.72272 0.0
N844 N 0.80163 0.28043 0.57843 0.0
N845 N 0.75506 0.25925 0.70847 0.0
H846 H 0.92138 0.51334 0.90104 0.0
H847 H 0.87679 0.40605 0.63537 0.0
H848 H 0.87778 0.49418 0.65847 0.0
H849 H 0.9206 0.43006 0.87802 0.0
H850 H 0.87443 0.43638 0.64303 0.0
H851 H 0.91881 0.48143 0.89437 0.0
C852 C 0.91119 0.50239 0.84597 0.0
C853 C 0.89993 0.50668 0.77972 0.0
C854 C 0.88443 0.43485 0.69467 0.0
C855 C 0.89692 0.46943 0.77126 0.0
C856 C 0.88573 0.41752 0.69057 0.0
C857 C 0.89907 0.41548 0.75558 0.0
C858 C 0.89646 0.45011 0.76467 0.0
C859 C 0.9103 0.4309 0.82539 0.0
C860 C 0.90969 0.484 0.84227 0.0
C861 C 0.88678 0.49158 0.71101 0.0
N862 N 0.90877 0.44739 0.82769 0.0
N863 N 0.88575 0.47365 0.70803 0.0
H864 H 0.53104 0.4002 0.60671 0.0
H865 H 0.62029 0.50439 0.85146 0.0
H866 H 0.52786 0.42836 0.86382 0.0
H867 H 0.62203 0.48621 0.56771 0.0
H868 H 0.58925 0.47292 0.86411 0.0
H869 H 0.56645 0.42806 0.59696 0.0
C870 C 0.53785 0.41205 0.66163 0.0
C871 C 0.52637 0.41197 0.73599 0.0
C872 C 0.59639 0.47558 0.79903 0.0
C873 C 0.56677 0.44371 0.7255 0.0
C874 C 0.61425 0.49355 0.79198 0.0
C875 C 0.62373 0.49794 0.7084 0.0
C876 C 0.58752 0.46172 0.72144 0.0
C877 C 0.61524 0.48333 0.63362 0.0
C878 C 0.558 0.42798 0.65573 0.0
C879 C 0.53594 0.42779 0.80474 0.0
N880 N 0.5974 0.46589 0.64144 0.0
N881 N 0.55542 0.44289 0.7977 0.0
H882 H 0.61643 0.15424 0.87814 0.0
H883 H 0.53679 0.17437 0.57731 0.0
H884 H 0.62917 0.17557 0.60633 0.0
H885 H 0.52864 0.15313 0.85014 0.0
H886 H 0.5722 0.17919 0.58906 0.0
H887 H 0.58621 0.15815 0.8726 0.0
C888 C 0.61292 0.15994 0.81729 0.0
C889 C 0.62528 0.16446 0.7424 0.0
C890 C 0.56273 0.17378 0.64676 0.0
C891 C 0.59005 0.16866 0.73428 0.0
C892 C 0.54261 0.17117 0.64034 0.0
C893 C 0.52973 0.16323 0.71271 0.0
C894 C 0.56992 0.16852 0.72638 0.0
C895 C 0.53793 0.15911 0.7923 0.0
C896 C 0.59557 0.16217 0.81399 0.0
C897 C 0.62005 0.17197 0.66571 0.0
N898 N 0.5573 0.16169 0.79663 0.0
N899 N 0.60261 0.17357 0.66291 0.0
H900 H 0.49771 0.89 0.3831 0.0
H901 H 0.42996 0.93335 0.16171 0.0
H902 H 0.51954 0.93765 0.20422 0.0
H903 H 0.40564 0.88818 0.35368 0.0
H904 H 0.46202 0.93274 0.17015 0.0
H905 H 0.46326 0.88696 0.36809 0.0
C906 C 0.49527 0.89975 0.34053 0.0
C907 C 0.51161 0.9142 0.29539 0.0
C908 C 0.44975 0.92289 0.21061 0.0
C909 C 0.47238 0.91074 0.27774 0.0
C910 C 0.43135 0.92325 0.2059 0.0
C911 C 0.4151 0.91094 0.2579 0.0
C912 C 0.45221 0.9102 0.26819 0.0
C913 C 0.4178 0.89796 0.31265 0.0
C914 C 0.47563 0.89801 0.33211 0.0
C915 C 0.50756 0.9264 0.24109 0.0
N916 N 0.43611 0.89801 0.31696 0.0
N917 N 0.48845 0.9244 0.23402 0.0
H918 H 0.14981 0.63926 0.05112 0.0
H919 H 0.20547 0.58108 0.22077 0.0
H920 H 0.2024 0.66383 0.2552 0.0
H921 H 0.15628 0.55826 1.00013 0.0
H922 H 0.20799 0.61328 0.21822 0.0
H923 H 0.1551 0.61142 1.01517 0.0
C924 C 0.16269 0.63895 0.08715 0.0
C925 C 0.17556 0.65371 0.15686 0.0
C926 C 0.19686 0.60134 0.16925 0.0
C927 C 0.18156 0.62184 0.11725 0.0
C928 C 0.19547 0.58297 0.17055 0.0
C929 C 0.1805 0.56699 0.11125 0.0
C930 C 0.183 0.60365 0.1089 0.0
C931 C 0.16795 0.57021 0.04743 0.0
C932 C 0.16569 0.62304 0.0668 0.0
C933 C 0.19204 0.65265 0.20138 0.0
N934 N 0.16926 0.5881 0.04888 0.0
N935 N 0.1944 0.63684 0.18174 0.0
H936 H 0.50017 0.67006 0.27819 0.0
H937 H 0.42935 0.56107 1.0291 0.0
H938 H 0.51822 0.64589 0.05096 0.0
H939 H 0.41504 0.58243 0.27876 0.0
H940 H 0.45913 0.5941 1.01915 0.0
H941 H 0.46597 0.64017 0.26195 0.0
C942 C 0.49685 0.65864 0.22397 0.0
C943 C 0.51219 0.66037 0.1668 0.0
C944 C 0.44934 0.59161 0.07556 0.0
C945 C 0.4732 0.62612 0.14816 0.0
C946 C 0.43234 0.57279 0.08101 0.0
C947 C 0.41991 0.56905 0.15529 0.0
C948 C 0.45385 0.60672 0.14487 0.0
C949 C 0.42439 0.5847 0.22078 0.0
C950 C 0.47737 0.64153 0.215 0.0
C951 C 0.50699 0.64508 0.09763 0.0
N952 N 0.44108 0.60281 0.21447 0.0
N953 N 0.48804 0.62856 0.09082 0.0
H954 H 0.58344 0.77633 0.463 0.0
H955 H 0.52269 0.83177 0.32501 0.0
H956 H 0.52523 0.74928 0.29437 0.0
H957 H 0.58018 0.8593 0.49907 0.0
H958 H 0.52041 0.79989 0.33636 0.0
H959 H 0.57973 0.80509 0.50008 0.0
C960 C 0.5697 0.77632 0.43526 0.0
C961 C 0.55475 0.76059 0.3746 0.0
C962 C 0.5334 0.81283 0.3733 0.0
C963 C 0.55048 0.79339 0.41571 0.0
C964 C 0.53466 0.83102 0.36693 0.0
C965 C 0.55176 0.84814 0.41027 0.0
C966 C 0.54951 0.8118 0.42236 0.0
C967 C 0.5668 0.8464 0.46417 0.0
C968 C 0.5676 0.79273 0.45621 0.0
C969 C 0.53721 0.76122 0.34069 0.0
N970 N 0.56551 0.82856 0.46752 0.0
N971 N 0.53569 0.77747 0.36074 0.0
H972 H 0.29317 0.85422 0.44224 0.0
H973 H 0.22322 0.74045 0.25817 0.0
H974 H 0.31013 0.82518 0.23294 0.0
H975 H 0.20116 0.77188 0.42663 0.0
H976 H 0.25734 0.77002 0.26944 0.0
H977 H 0.26172 0.82278 0.45892 0.0
C978 C 0.29041 0.84115 0.40093 0.0
C979 C 0.30412 0.84224 0.33569 0.0
C980 C 0.24507 0.77041 0.30443 0.0
C981 C 0.26827 0.80639 0.35381 0.0
C982 C 0.22554 0.7535 0.29815 0.0
C983 C 0.20917 0.75369 0.34065 0.0
C984 C 0.24832 0.78767 0.35378 0.0
C985 C 0.21324 0.77107 0.39192 0.0
C986 C 0.27244 0.82325 0.41009 0.0
C987 C 0.29986 0.82494 0.28368 0.0
N988 N 0.23237 0.78739 0.3966 0.0
N989 N 0.28224 0.80775 0.29343 0.0
H990 H 0.324 0.52747 0.15084 0.0
H991 H 0.20172 0.46437 0.17431 0.0
H992 H 0.29038 0.46945 0.24839 0.0
H993 H 0.23193 0.52748 0.16629 0.0
H994 H 0.23491 0.46626 0.17595 0.0
H995 H 0.29138 0.52827 0.13663 0.0
C996 C 0.30986 0.51497 0.16934 0.0
C997 C 0.30995 0.49833 0.20046 0.0
C998 C 0.23445 0.47979 0.17417 0.0
C999 C 0.2729 0.49912 0.18352 0.0
C1000 C 0.21541 0.47874 0.17323 0.0
C1001 C 0.21403 0.49586 0.17217 0.0
C1002 C 0.25255 0.49812 0.17428 0.0
C1003 C 0.23236 0.51395 0.16801 0.0
C1004 C 0.29133 0.51547 0.16129 0.0
C1005 C 0.29122 0.48259 0.22379 0.0
N1006 N 0.25102 0.51466 0.16999 0.0
N1007 N 0.27357 0.48338 0.21442 0.0
H1008 H 0.97503 0.22094 0.305 0.0
H1009 H 0.05388 0.28207 0.93466 0.0
H1010 H 0.04031 0.26015 0.37731 0.0
H1011 H 0.99518 0.22984 0.85302 0.0
H1012 H 0.04787 0.27638 0.09786 0.0
H1013 H 0.98072 0.22616 0.14049 0.0
C1014 C 0.99054 0.23078 0.28636 0.0
C1015 C 0.00721 0.24024 0.35519 0.0
C1016 C 0.03631 0.26607 0.04447 0.0
C1017 C 0.01381 0.2463 0.16687 0.0
C1018 C 0.03972 0.26932 0.95117 0.0
C1019 C 0.02506 0.25631 0.88008 0.0
C1020 C 0.01791 0.24983 0.06753 0.0
C1021 C 0.00696 0.24008 0.9056 0.0
C1022 C 0.99378 0.23366 0.19238 0.0
C1023 C 0.02698 0.25273 0.32685 0.0
N1024 N 0.00382 0.23735 0.9973 0.0
N1025 N 0.02971 0.25545 0.23509 0.0
H1026 H 0.82359 0.82126 0.34357 0.0
H1027 H 0.77632 0.78026 0.81515 0.0
H1028 H 0.76908 0.76474 0.26713 0.0
H1029 H 0.83208 0.83578 0.89187 0.0
H1030 H 0.77302 0.77437 0.98039 0.0
H1031 H 0.82644 0.82729 0.17842 0.0
C1032 C 0.81222 0.81016 0.292 0.0
C1033 C 0.79615 0.79245 0.31886 0.0
C1034 C 0.786 0.78783 0.96104 0.0
C1035 C 0.79929 0.79914 0.12997 0.0
C1036 C 0.78792 0.79112 0.8667 0.0
C1037 C 0.80454 0.80846 0.83984 0.0
C1038 C 0.80079 0.80203 1.02889 0.0
C1039 C 0.81902 0.82219 0.90958 0.0
C1040 C 0.81385 0.81357 0.19775 0.0
C1041 C 0.78176 0.77858 0.24933 0.0
N1042 N 0.8168 0.8187 1.00067 0.0
N1043 N 0.7837 0.78218 0.15823 0.0
H1044 H 0.23925 0.05914 0.25811 0.0
H1045 H 0.229 0.98596 0.82899 0.0
H1046 H 0.21723 0.9975 0.28181 0.0
H1047 H 0.23158 0.04117 0.79281 0.0
H1048 H 0.2278 0.99098 0.99639 0.0
H1049 H 0.23979 0.05396 0.09012 0.0
C1050 C 0.23462 0.04451 0.22802 0.0
C1051 C 0.22825 0.02874 0.2843 0.0
C1052 C 0.22853 0.00198 0.95201 0.0
C1053 C 0.22892 0.02272 0.09144 0.0
C1054 C 0.22927 0.99916 0.85634 0.0
C1055 C 0.23031 0.01316 0.79672 0.0
C1056 C 0.22917 0.01911 0.98916 0.0
C1057 C 0.23063 0.02997 0.83611 0.0
C1058 C 0.23486 0.04156 0.13194 0.0
C1059 C 0.22238 0.0101 0.24127 0.0
N1060 N 0.23021 0.03255 0.92992 0.0
N1061 N 0.22294 0.00763 0.14757 0.0
H1062 H 0.01858 0.78798 0.89139 0.0
H1063 H 0.0068 0.82445 0.4022 0.0
H1064 H 0.00954 0.83739 0.94775 0.0
H1065 H 0.01227 0.77303 0.34389 0.0
H1066 H 0.00882 0.83005 0.23653 0.0
H1067 H 0.01672 0.7824 0.05707 0.0
C1068 C 0.01602 0.79753 0.93851 0.0
C1069 C 0.01412 0.81311 0.90583 0.0
C1070 C 0.00962 0.81756 0.25996 0.0
C1071 C 0.01229 0.80705 0.09561 0.0
C1072 C 0.00855 0.81442 0.35456 0.0
C1073 C 0.00932 0.79824 0.38661 0.0
C1074 C 0.01152 0.80443 0.19705 0.0
C1075 C 0.01155 0.78566 0.32196 0.0
C1076 C 0.01507 0.79443 0.03317 0.0
C1077 C 0.01109 0.8252 0.97008 0.0
N1078 N 0.01253 0.78899 0.23038 0.0
N1079 N 0.01031 0.82196 0.06175 0.0
H1080 H 0.24076 0.22443 0.32779 0.0
H1081 H 0.222 0.28257 0.9308 0.0
H1082 H 0.21335 0.26068 0.37561 0.0
H1083 H 0.22988 0.23271 0.86806 0.0
H1084 H 0.22183 0.27682 0.09562 0.0
H1085 H 0.24015 0.22945 0.16181 0.0
C1086 C 0.23474 0.23357 0.30348 0.0
C1087 C 0.22722 0.24226 0.36592 0.0
C1088 C 0.22348 0.26704 0.04597 0.0
C1089 C 0.22651 0.24809 0.17562 0.0
C1090 C 0.22361 0.27032 0.95176 0.0
C1091 C 0.22586 0.25803 0.8855 0.0
C1092 C 0.22598 0.25152 0.07497 0.0
C1093 C 0.22793 0.24243 0.91673 0.0
C1094 C 0.23431 0.23634 0.20858 0.0
C1095 C 0.2195 0.25386 0.33027 0.0
N1096 N 0.2281 0.23969 1.00933 0.0
N1097 N 0.21944 0.25651 0.23771 0.0
H1098 H 0.76979 0.03481 0.30441 0.0
H1099 H 0.82034 0.00449 0.90169 0.0
H1100 H 0.81912 0.02229 0.35909 0.0
H1101 H 0.78398 0.03219 0.84954 0.0
H1102 H 0.81802 0.00853 0.06837 0.0
H1103 H 0.77255 0.03135 0.13758 0.0
C1104 C 0.78119 0.03126 0.28123 0.0
C1105 C 0.7943 0.02888 0.34576 0.0
C1106 C 0.81061 0.01383 1.02075 0.0
C1107 C 0.79748 0.02484 0.15434 0.0
C1108 C 0.81188 0.0115 0.92545 0.0
C1109 C 0.8024 0.01812 0.86163 0.0
C1110 C 0.7995 0.02262 0.05302 0.0
C1111 C 0.79165 0.02706 0.89635 0.0
C1112 C 0.7828 0.02938 0.18589 0.0
C1113 C 0.80874 0.02428 0.31171 0.0
N1114 N 0.79038 0.02896 0.98978 0.0
N1115 N 0.80991 0.02235 0.21829 0.0
H1116 H 0.71287 0.5767 1.01692 0.0
H1117 H 0.62938 0.5397 0.39671 0.0
H1118 H 0.64684 0.54538 0.94665 0.0
H1119 H 0.69533 0.56858 0.46662 0.0
H1120 H 0.63542 0.54174 0.23161 0.0
H1121 H 0.70681 0.57453 0.18204 0.0
C1122 C 0.6971 0.5695 0.03635 0.0
C1123 C 0.68034 0.56129 0.96806 0.0
C1124 C 0.64859 0.54757 0.28295 0.0
C1125 C 0.67324 0.55858 0.15687 0.0
C1126 C 0.64513 0.54635 0.3772 0.0
C1127 C 0.66188 0.55398 0.44539 0.0
C1128 C 0.66896 0.55656 0.25654 0.0
C1129 C 0.68197 0.56246 0.41628 0.0
C1130 C 0.69363 0.5682 0.13059 0.0
C1131 C 0.66021 0.55207 0.99703 0.0
N1132 N 0.68495 0.56359 0.32414 0.0
N1133 N 0.65723 0.55093 0.08915 0.0
H1134 H 0.46617 0.10756 0.38536 0.0
H1135 H 0.44739 0.16603 0.98936 0.0
H1136 H 0.45825 0.15735 0.44887 0.0
H1137 H 0.47618 0.13101 0.94153 0.0
H1138 H 0.4476 0.16052 0.15494 0.0
H1139 H 0.46631 0.11342 0.22038 0.0
C1140 C 0.46451 0.11979 0.36457 0.0
C1141 C 0.46232 0.13207 0.43119 0.0
C1142 C 0.45382 0.15399 0.10821 0.0
C1143 C 0.46218 0.13872 0.2416 0.0
C1144 C 0.45362 0.15706 1.01353 0.0
C1145 C 0.46162 0.14884 0.95109 0.0
C1146 C 0.46184 0.1424 0.14105 0.0
C1147 C 0.4696 0.13742 0.98671 0.0
C1148 C 0.46463 0.12314 0.27029 0.0
C1149 C 0.46017 0.14765 0.40007 0.0
N1150 N 0.46941 0.13446 0.079 0.0
N1151 N 0.46002 0.15046 0.30755 0.0
H1152 H 0.8823 0.32871 1.02215 0.0
H1153 H 0.95207 0.40014 0.46548 0.0
H1154 H 0.92902 0.38933 1.00471 0.0
H1155 H 0.89296 0.34833 0.48894 0.0
H1156 H 0.94586 0.39474 0.29623 0.0
H1157 H 0.88803 0.33386 0.19225 0.0
C1158 C 0.89388 0.34307 0.05411 0.0
C1159 C 0.90528 0.35861 0.99914 0.0
C1160 C 0.93418 0.38457 0.33815 0.0
C1161 C 0.91193 0.36457 0.1938 0.0
C1162 C 0.93773 0.38761 0.43484 0.0
C1163 C 0.92297 0.37469 0.49128 0.0
C1164 C 0.91584 0.36826 0.29697 0.0
C1165 C 0.90467 0.35869 0.44786 0.0
C1166 C 0.89705 0.34601 0.15119 0.0
C1167 C 0.92001 0.37692 0.04431 0.0
N1168 N 0.90167 0.35584 0.35313 0.0
N1169 N 0.92297 0.37937 0.13889 0.0
H1170 H 0.71338 0.17103 0.06397 0.0
H1171 H 0.6308 0.12485 0.44597 0.0
H1172 H 0.64734 0.14195 0.99766 0.0
H1173 H 0.69687 0.15721 0.51382 0.0
H1174 H 0.63645 0.13034 0.28169 0.0
H1175 H 0.70763 0.16553 0.22804 0.0
C1176 C 0.69765 0.16342 0.08387 0.0
C1177 C 0.68083 0.15683 1.01658 0.0
C1178 C 0.64974 0.13631 0.3324 0.0
C1179 C 0.67407 0.15047 0.20527 0.0
C1180 C 0.64651 0.13318 0.42637 0.0
C1181 C 0.66338 0.14066 0.4941 0.0
C1182 C 0.67002 0.14697 0.30528 0.0
C1183 C 0.68339 0.15132 0.46434 0.0
C1184 C 0.69437 0.16028 0.17775 0.0
C1185 C 0.66078 0.1471 0.04678 0.0
N1186 N 0.68614 0.15412 0.37248 0.0
N1187 N 0.65797 0.14421 0.13856 0.0
H1188 H 0.92442 0.5549 0.04025 0.0
H1189 H 0.89615 0.57558 0.54684 0.0
H1190 H 0.88301 0.57715 0.08601 0.0
H1191 H 0.93897 0.55498 0.5019 0.0
H1192 H 0.89075 0.57581 0.37841 0.0
H1193 H 0.93002 0.55486 0.20877 0.0
C1194 C 0.91659 0.55989 0.08585 0.0
C1195 C 0.90324 0.56607 0.04908 0.0
C1196 C 0.9013 0.57119 0.40522 0.0
C1197 C 0.9094 0.56587 0.24229 0.0
C1198 C 0.9043 0.57096 0.50144 0.0
C1199 C 0.91798 0.56519 0.53843 0.0
C1200 C 0.91205 0.5656 0.34524 0.0
C1201 C 0.92828 0.55953 0.47632 0.0
C1202 C 0.91974 0.5598 0.1821 0.0
C1203 C 0.89344 0.57228 0.1114 0.0
N1204 N 0.92513 0.55989 0.38294 0.0
N1205 N 0.89666 0.57197 0.20477 0.0
H1206 H 0.47491 0.39342 1.00142 0.0
H1207 H 0.45511 0.34723 0.49506 0.0
H1208 H 0.44873 0.33132 1.0293 0.0
H1209 H 0.46115 0.40371 0.45461 0.0
H1210 H 0.45657 0.34219 0.32696 0.0
H1211 H 0.47348 0.39862 0.16939 0.0
C1212 C 0.46872 0.38087 0.04264 0.0
C1213 C 0.4617 0.36187 1.00089 0.0
C1214 C 0.4576 0.3557 0.35491 0.0
C1215 C 0.46058 0.36776 0.19377 0.0
C1216 C 0.45687 0.3586 0.45094 0.0
C1217 C 0.45805 0.37591 0.48896 0.0
C1218 C 0.4598 0.37035 0.29648 0.0
C1219 C 0.46015 0.39011 0.42824 0.0
C1220 C 0.46799 0.38384 0.13863 0.0
C1221 C 0.45422 0.34621 0.05831 0.0
N1222 N 0.46106 0.38708 0.33538 0.0
N1223 N 0.45395 0.3495 0.15152 0.0
H1224 H 0.36599 0.95378 0.55004 0.0
H1225 H 0.35876 0.88242 0.94379 0.0
H1226 H 0.36603 0.89949 0.49338 0.0
H1227 H 0.35703 0.93588 0.9999 0.0
H1228 H 0.36182 0.88862 0.77946 0.0
H1229 H 0.36295 0.94764 0.71459 0.0
C1230 C 0.36533 0.94053 0.57227 0.0
C1231 C 0.36631 0.92714 0.50783 0.0
C1232 C 0.3608 0.89904 0.82749 0.0
C1233 C 0.36283 0.92 0.69677 0.0
C1234 C 0.35906 0.8955 0.92149 0.0
C1235 C 0.35762 0.90864 0.98576 0.0
C1236 C 0.36114 0.91588 0.79695 0.0
C1237 C 0.35813 0.92537 0.95283 0.0
C1238 C 0.3636 0.93704 0.66636 0.0
C1239 C 0.36535 0.91021 0.54063 0.0
N1240 N 0.35983 0.9285 0.86084 0.0
N1241 N 0.36369 0.90715 0.63268 0.0
H1242 H 0.1492 0.50487 0.94204 0.0
H1243 H 0.16167 0.47217 0.42662 0.0
H1244 H 0.14656 0.44985 0.87001 0.0
H1245 H 0.14344 0.51545 0.48299 0.0
H1246 H 0.15967 0.46569 0.59131 0.0
H1247 H 0.15094 0.5113 0.77692 0.0
C1248 C 0.14918 0.49426 0.89166 0.0
C1249 C 0.14786 0.4769 0.91981 0.0
C1250 C 0.15602 0.47654 0.56754 0.0
C1251 C 0.14981 0.48404 0.73092 0.0
C1252 C 0.15705 0.48016 0.47341 0.0
C1253 C 0.15245 0.49418 0.44071 0.0
C1254 C 0.15073 0.48729 0.62995 0.0
C1255 C 0.147 0.50443 0.50506 0.0
C1256 C 0.15001 0.49784 0.79735 0.0
C1257 C 0.14755 0.46345 0.85129 0.0
N1258 N 0.1464 0.50087 0.5965 0.0
N1259 N 0.14863 0.46733 0.76032 0.0
H1260 H 0.58704 0.69523 0.98059 0.0
H1261 H 0.55774 0.7116 0.46418 0.0
H1262 H 0.56353 0.73413 0.92775 0.0
H1263 H 0.59926 0.68976 0.52642 0.0
H1264 H 0.55642 0.71726 0.63217 0.0
H1265 H 0.58826 0.69002 0.81338 0.0
C1266 C 0.58217 0.70268 0.93406 0.0
C1267 C 0.57532 0.71517 0.96881 0.0
C1268 C 0.56584 0.71127 0.60891 0.0
C1269 C 0.57637 0.7092 0.77591 0.0
C1270 C 0.5666 0.70805 0.51308 0.0
C1271 C 0.5787 0.70028 0.48117 0.0
C1272 C 0.57698 0.70636 0.67327 0.0
C1273 C 0.58976 0.69582 0.54776 0.0
C1274 C 0.58287 0.69975 0.83823 0.0
C1275 C 0.56902 0.7244 0.90426 0.0
N1276 N 0.58855 0.6988 0.64024 0.0
N1277 N 0.56961 0.72118 0.81114 0.0
H1278 H 0.36038 0.45576 0.91761 0.0
H1279 H 0.36428 0.52476 0.5194 0.0
H1280 H 0.3581 0.50905 0.96983 0.0
H1281 H 0.36802 0.47225 0.46636 0.0
H1282 H 0.36178 0.51906 0.68398 0.0
H1283 H 0.36326 0.4615 0.75282 0.0
C1284 C 0.36052 0.46871 0.8943 0.0
C1285 C 0.3589 0.48192 0.95736 0.0
C1286 C 0.36312 0.50874 0.63662 0.0
C1287 C 0.36218 0.48857 0.76844 0.0
C1288 C 0.36453 0.51197 0.54248 0.0
C1289 C 0.36638 0.49896 0.47913 0.0
C1290 C 0.36354 0.49233 0.66817 0.0
C1291 C 0.36659 0.48263 0.5129 0.0
C1292 C 0.36216 0.47197 0.80013 0.0
C1293 C 0.35926 0.49848 0.92348 0.0
N1294 N 0.36521 0.47978 0.60518 0.0
N1295 N 0.36081 0.50131 0.83129 0.0
H1296 H 0.54081 0.88814 1.00392 0.0
H1297 H 0.6062 0.96119 0.62501 0.0
H1298 H 0.59865 0.94203 0.07534 0.0
H1299 H 0.55038 0.90542 0.55446 0.0
H1300 H 0.6036 0.9548 0.78959 0.0
H1301 H 0.54388 0.89456 0.83988 0.0
C1302 C 0.55418 0.90137 0.98508 0.0
C1303 C 0.56946 0.91459 0.05378 0.0
C1304 C 0.59191 0.94394 0.73829 0.0
C1305 C 0.5731 0.92211 0.86489 0.0
C1306 C 0.59337 0.94758 0.64415 0.0
C1307 C 0.57843 0.93386 0.5757 0.0
C1308 C 0.57533 0.92642 0.76477 0.0
C1309 C 0.56221 0.91645 0.60476 0.0
C1310 C 0.55593 0.90503 0.89116 0.0
C1311 C 0.58643 0.93149 1.02494 0.0
N1312 N 0.56108 0.91326 0.69684 0.0
N1313 N 0.58778 0.93477 0.93288 0.0
H1314 H 0.17355 0.68899 0.5967 0.0
H1315 H 0.11544 0.71053 0.99842 0.0
H1316 H 0.12473 0.70204 0.5421 0.0
H1317 H 0.16874 0.70396 0.05511 0.0
H1318 H 0.11787 0.7063 0.83176 0.0
H1319 H 0.17133 0.69325 0.76387 0.0
C1320 C 0.16245 0.69294 0.61993 0.0
C1321 C 0.14961 0.69562 0.55505 0.0
C1322 C 0.12906 0.70576 0.88035 0.0
C1323 C 0.14678 0.7003 0.74726 0.0
C1324 C 0.12766 0.70814 0.97578 0.0
C1325 C 0.14195 0.70765 0.04107 0.0
C1326 C 0.14483 0.70275 0.8491 0.0
C1327 C 0.15741 0.70446 1.00735 0.0
C1328 C 0.1612 0.69538 0.71555 0.0
C1329 C 0.1354 0.70053 0.58931 0.0
N1330 N 0.15843 0.70213 0.91383 0.0
N1331 N 0.13433 0.70266 0.68286 0.0
loop_
_geom_bond_atom_site_label_1
_geom_bond_atom_site_label_2
_geom_bond_distance
_geom_bond_site_symmetry_2
_ccdc_geom_bond_type
Tb0 O3 2.453 1_655 S
Tb0 O4 2.596 1_655 S
Tb0 O5 2.374 1_655 S
Tb0 O13 2.343 1_655 S
Tb0 O15 2.353 . S
Tb0 O17 2.427 . S
Tb0 O18 2.513 . S
C1 O5 1.251 . S
C1 O7 1.263 . S
Tb2 O4 2.343 . S
Tb2 O7 2.353 . S
Tb2 O10 2.427 . S
Tb2 O11 2.513 . S
Tb2 O12 2.453 . S
Tb2 O13 2.596 . S
Tb2 O14 2.374 . S
O3 Tb0 2.453 1_455 S
O3 C19 1.245 . S
O4 Tb0 2.596 1_455 S
O4 Tb2 2.343 . S
O4 C19 1.259 . S
O5 Tb0 2.374 1_455 S
O5 C1 1.251 . S
C6 O10 1.275 . S
C6 O11 1.246 . S
O7 C1 1.263 . S
O7 Tb2 2.353 . S
C8 O12 1.245 . S
C8 O13 1.259 . S
C9 O14 1.250 1_655 S
C9 O15 1.263 . S
O10 Tb2 2.427 . S
O10 C6 1.275 . S
O11 Tb2 2.513 . S
O11 C6 1.246 . S
O12 Tb2 2.453 . S
O12 C8 1.245 . S
O13 Tb0 2.343 1_455 S
O13 Tb2 2.596 . S
O13 C8 1.259 . S
O14 Tb2 2.374 . S
O14 C9 1.250 1_455 S
O15 Tb0 2.353 . S
O15 C9 1.263 . S
C16 O17 1.275 . S
C16 O18 1.246 . S
O17 Tb0 2.427 . S
O17 C16 1.275 . S
O18 Tb0 2.513 . S
O18 C16 1.246 . S
C19 O3 1.245 . S
C19 O4 1.259 . S
Tb20 O23 2.453 . S
Tb20 O24 2.596 . S
Tb20 O25 2.374 . S
Tb20 O33 2.343 . S
Tb20 O35 2.353 . S
Tb20 O37 2.427 . S
Tb20 O38 2.513 . S
C21 O25 1.251 . S
C21 O27 1.263 . S
Tb22 O24 2.343 . S
Tb22 O27 2.353 . S
Tb22 O30 2.427 . S
Tb22 O31 2.513 . S
Tb22 O32 2.453 . S
Tb22 O33 2.596 . S
Tb22 O34 2.374 . S
O23 Tb20 2.453 . S
O23 C39 1.245 . S
O24 Tb20 2.596 . S
O24 Tb22 2.343 . S
O24 C39 1.259 . S
O25 Tb20 2.374 . S
O25 C21 1.251 . S
C26 O30 1.275 . S
C26 O31 1.246 . S
O27 C21 1.263 . S
O27 Tb22 2.353 . S
C28 O32 1.245 . S
C28 O33 1.259 . S
C29 O34 1.250 . S
C29 O35 1.263 . S
O30 Tb22 2.427 . S
O30 C26 1.275 . S
O31 Tb22 2.513 . S
O31 C26 1.246 . S
O32 Tb22 2.453 . S
O32 C28 1.245 . S
O33 Tb20 2.343 . S
O33 Tb22 2.596 . S
O33 C28 1.259 . S
O34 Tb22 2.374 . S
O34 C29 1.250 . S
O35 Tb20 2.353 . S
O35 C29 1.263 . S
C36 O37 1.275 . S
C36 O38 1.246 . S
O37 Tb20 2.427 . S
O37 C36 1.275 . S
O38 Tb20 2.513 . S
O38 C36 1.246 . S
C39 O23 1.245 . S
C39 O24 1.259 . S
Tb40 O43 2.453 . S
Tb40 O44 2.596 . S
Tb40 O45 2.374 . S
Tb40 O53 2.343 . S
Tb40 O55 2.353 . S
Tb40 O57 2.427 . S
Tb40 O58 2.513 . S
C41 O45 1.251 1_565 S
C41 O47 1.263 . S
Tb42 O44 2.343 . S
Tb42 O47 2.353 1_545 S
Tb42 O50 2.427 1_545 S
Tb42 O51 2.513 1_545 S
Tb42 O52 2.453 . S
Tb42 O53 2.596 . S
Tb42 O54 2.374 . S
O43 Tb40 2.453 . S
O43 C59 1.245 . S
O44 Tb40 2.596 . S
O44 Tb42 2.343 . S
O44 C59 1.259 . S
O45 Tb40 2.374 . S
O45 C41 1.251 1_545 S
C46 O50 1.275 . S
C46 O51 1.246 . S
O47 C41 1.263 . S
O47 Tb42 2.353 1_565 S
C48 O52 1.245 . S
C48 O53 1.259 . S
C49 O54 1.250 . S
C49 O55 1.263 . S
O50 Tb42 2.427 1_565 S
O50 C46 1.275 . S
O51 Tb42 2.513 1_565 S
O51 C46 1.246 . S
O52 Tb42 2.453 . S
O52 C48 1.245 . S
O53 Tb40 2.343 . S
O53 Tb42 2.596 . S
O53 C48 1.259 . S
O54 Tb42 2.374 . S
O54 C49 1.250 . S
O55 Tb40 2.353 . S
O55 C49 1.263 . S
C56 O57 1.275 . S
C56 O58 1.246 . S
O57 Tb40 2.427 . S
O57 C56 1.275 . S
O58 Tb40 2.513 . S
O58 C56 1.246 . S
C59 O43 1.245 . S
C59 O44 1.259 . S
Tb60 O63 2.453 . S
Tb60 O64 2.596 1_655 S
Tb60 O65 2.374 1_655 S
Tb60 O73 2.343 1_655 S
Tb60 O75 2.353 . S
Tb60 O77 2.427 . S
Tb60 O78 2.513 . S
C61 O65 1.251 . S
C61 O67 1.263 . S
Tb62 O64 2.343 . S
Tb62 O67 2.353 . S
Tb62 O70 2.427 . S
Tb62 O71 2.513 . S
Tb62 O72 2.453 . S
Tb62 O73 2.596 . S
Tb62 O74 2.441 . S
O63 Tb60 2.453 . S
O63 C79 1.245 1_655 S
O64 Tb60 2.596 1_455 S
O64 Tb62 2.343 . S
O64 C79 1.259 . S
O65 Tb60 2.374 1_455 S
O65 C61 1.251 . S
C66 O70 1.275 . S
C66 O71 1.246 . S
O67 C61 1.263 . S
O67 Tb62 2.353 . S
C68 O72 1.245 . S
C68 O73 1.259 . S
C69 O74 1.208 1_655 S
C69 O75 1.263 . S
O70 Tb62 2.427 . S
O70 C66 1.275 . S
O71 Tb62 2.513 . S
O71 C66 1.246 . S
O72 Tb62 2.453 . S
O72 C68 1.245 . S
O73 Tb60 2.343 1_455 S
O73 Tb62 2.596 . S
O73 C68 1.259 . S
O74 Tb62 2.441 . S
O74 C69 1.208 1_455 S
O75 Tb60 2.353 . S
O75 C69 1.263 . S
C76 O77 1.275 . S
C76 O78 1.246 . S
O77 Tb60 2.427 . S
O77 C76 1.275 . S
O78 Tb60 2.513 . S
O78 C76 1.246 . S
C79 O63 1.245 1_455 S
C79 O64 1.259 . S
Tb80 O83 2.453 . S
Tb80 O84 2.596 . S
Tb80 O85 2.374 . S
Tb80 O93 2.343 . S
Tb80 O95 2.353 . S
Tb80 O97 2.427 . S
Tb80 O98 2.513 . S
C81 O85 1.251 . S
C81 O87 1.263 . S
Tb82 O84 2.343 . S
Tb82 O87 2.353 . S
Tb82 O90 2.427 . S
Tb82 O91 2.513 . S
Tb82 O92 2.453 . S
Tb82 O93 2.596 . S
Tb82 O94 2.374 . S
O83 Tb80 2.453 . S
O83 C99 1.245 . S
O84 Tb80 2.596 . S
O84 Tb82 2.343 . S
O84 C99 1.259 . S
O85 Tb80 2.374 . S
O85 C81 1.251 . S
C86 O90 1.275 . S
C86 O91 1.246 . S
O87 C81 1.263 . S
O87 Tb82 2.353 . S
C88 O92 1.245 . S
C88 O93 1.259 . S
C89 O94 1.250 . S
C89 O95 1.263 . S
O90 Tb82 2.427 . S
O90 C86 1.275 . S
O91 Tb82 2.513 . S
O91 C86 1.246 . S
O92 Tb82 2.453 . S
O92 C88 1.245 . S
O93 Tb80 2.343 . S
O93 Tb82 2.596 . S
O93 C88 1.259 . S
O94 Tb82 2.374 . S
O94 C89 1.250 . S
O95 Tb80 2.353 . S
O95 C89 1.263 . S
C96 O97 1.275 . S
C96 O98 1.246 . S
O97 Tb80 2.427 . S
O97 C96 1.275 . S
O98 Tb80 2.513 . S
O98 C96 1.246 . S
C99 O83 1.245 . S
C99 O84 1.259 . S
Tb100 O103 2.453 . S
Tb100 O104 2.596 . S
Tb100 O105 2.374 . S
Tb100 O113 2.343 . S
Tb100 O115 2.353 . S
Tb100 O117 2.427 . S
Tb100 O118 2.513 . S
C101 O105 1.251 . S
C101 O107 1.263 1_545 S
Tb102 O104 2.343 . S
Tb102 O107 2.353 1_545 S
Tb102 O110 2.427 1_545 S
Tb102 O111 2.513 . S
Tb102 O112 2.453 . S
Tb102 O113 2.596 . S
Tb102 O114 2.374 . S
O103 Tb100 2.453 . S
O103 C119 1.245 . S
O104 Tb100 2.596 . S
O104 Tb102 2.343 . S
O104 C119 1.259 . S
O105 Tb100 2.374 . S
O105 C101 1.251 . S
C106 O110 1.275 . S
C106 O111 1.246 1_565 S
O107 C101 1.263 1_565 S
O107 Tb102 2.353 1_565 S
C108 O112 1.245 . S
C108 O113 1.259 . S
C109 O114 1.250 . S
C109 O115 1.263 . S
O110 Tb102 2.427 1_565 S
O110 C106 1.275 . S
O111 Tb102 2.513 . S
O111 C106 1.246 1_545 S
O112 Tb102 2.453 . S
O112 C108 1.245 . S
O113 Tb100 2.343 . S
O113 Tb102 2.596 . S
O113 C108 1.259 . S
O114 Tb102 2.374 . S
O114 C109 1.250 . S
O115 Tb100 2.353 . S
O115 C109 1.263 . S
C116 O117 1.275 . S
C116 O118 1.246 . S
O117 Tb100 2.427 . S
O117 C116 1.275 . S
O118 Tb100 2.513 . S
O118 C116 1.246 . S
C119 O103 1.245 . S
C119 O104 1.259 . S
Tb120 O123 2.453 . S
Tb120 O124 2.596 . S
Tb120 O125 2.374 . S
Tb120 O133 2.343 . S
Tb120 O135 2.353 . S
Tb120 O137 2.427 . S
Tb120 O138 2.513 . S
C121 O125 1.251 . S
C121 O127 1.263 . S
Tb122 O124 2.343 . S
Tb122 O127 2.353 . S
Tb122 O130 2.427 . S
Tb122 O131 2.513 . S
Tb122 O132 2.453 . S
Tb122 O133 2.596 . S
Tb122 O134 2.374 . S
O123 Tb120 2.453 . S
O123 C139 1.245 . S
O124 Tb120 2.596 . S
O124 Tb122 2.343 . S
O124 C139 1.259 . S
O125 Tb120 2.374 . S
O125 C121 1.251 . S
C126 O130 1.275 . S
C126 O131 1.246 . S
O127 C121 1.263 . S
O127 Tb122 2.353 . S
C128 O132 1.245 . S
C128 O133 1.259 . S
C129 O134 1.250 . S
C129 O135 1.263 . S
O130 Tb122 2.427 . S
O130 C126 1.275 . S
O131 Tb122 2.513 . S
O131 C126 1.246 . S
O132 Tb122 2.453 . S
O132 C128 1.245 . S
O133 Tb120 2.343 . S
O133 Tb122 2.596 . S
O133 C128 1.259 . S
O134 Tb122 2.374 . S
O134 C129 1.250 . S
O135 Tb120 2.353 . S
O135 C129 1.263 . S
C136 O137 1.275 . S
C136 O138 1.246 . S
O137 Tb120 2.427 . S
O137 C136 1.275 . S
O138 Tb120 2.513 . S
O138 C136 1.246 . S
C139 O123 1.245 . S
C139 O124 1.259 . S
Tb140 O143 2.453 . S
Tb140 O144 2.596 . S
Tb140 O145 2.374 . S
Tb140 O153 2.343 . S
Tb140 O155 2.353 . S
Tb140 O157 2.427 . S
Tb140 O158 2.513 . S
C141 O145 1.251 . S
C141 O147 1.263 . S
Tb142 O144 2.343 . S
Tb142 O147 2.353 . S
Tb142 O150 2.427 . S
Tb142 O151 2.513 . S
Tb142 O152 2.453 . S
Tb142 O153 2.596 . S
Tb142 O154 2.374 . S
O143 Tb140 2.453 . S
O143 C159 1.245 . S
O144 Tb140 2.596 . S
O144 Tb142 2.343 . S
O144 C159 1.259 . S
O145 Tb140 2.374 . S
O145 C141 1.251 . S
C146 O150 1.275 . S
C146 O151 1.246 . S
O147 C141 1.263 . S
O147 Tb142 2.353 . S
C148 O152 1.245 . S
C148 O153 1.259 . S
C149 O154 1.250 . S
C149 O155 1.263 . S
O150 Tb142 2.427 . S
O150 C146 1.275 . S
O151 Tb142 2.513 . S
O151 C146 1.246 . S
O152 Tb142 2.453 . S
O152 C148 1.245 . S
O153 Tb140 2.343 . S
O153 Tb142 2.596 . S
O153 C148 1.259 . S
O154 Tb142 2.374 . S
O154 C149 1.250 . S
O155 Tb140 2.353 . S
O155 C149 1.263 . S
C156 O157 1.275 . S
C156 O158 1.246 . S
O157 Tb140 2.427 . S
O157 C156 1.275 . S
O158 Tb140 2.513 . S
O158 C156 1.246 . S
C159 O143 1.245 . S
C159 O144 1.259 . S
Tb160 O163 2.453 . S
Tb160 O164 2.596 . S
Tb160 O165 2.374 . S
Tb160 O173 2.343 . S
Tb160 O175 2.353 . S
Tb160 O177 2.427 . S
Tb160 O178 2.513 . S
C161 O165 1.251 . S
C161 O167 1.263 . S
Tb162 O164 2.343 . S
Tb162 O167 2.353 . S
Tb162 O170 2.427 . S
Tb162 O171 2.513 . S
Tb162 O172 2.453 . S
Tb162 O173 2.596 . S
Tb162 O174 2.374 . S
O163 Tb160 2.453 . S
O163 C179 1.245 . S
O164 Tb160 2.596 . S
O164 Tb162 2.343 . S
O164 C179 1.259 . S
O165 Tb160 2.374 . S
O165 C161 1.251 . S
C166 O170 1.275 . S
C166 O171 1.246 . S
O167 C161 1.263 . S
O167 Tb162 2.353 . S
C168 O172 1.245 . S
C168 O173 1.259 . S
C169 O174 1.250 . S
C169 O175 1.263 . S
O170 Tb162 2.427 . S
O170 C166 1.275 . S
O171 Tb162 2.513 . S
O171 C166 1.246 . S
O172 Tb162 2.453 . S
O172 C168 1.245 . S
O173 Tb160 2.343 . S
O173 Tb162 2.596 . S
O173 C168 1.259 . S
O174 Tb162 2.374 . S
O174 C169 1.250 . S
O175 Tb160 2.353 . S
O175 C169 1.263 . S
C176 O177 1.275 . S
C176 O178 1.246 . S
O177 Tb160 2.427 . S
O177 C176 1.275 . S
O178 Tb160 2.513 . S
O178 C176 1.246 . S
C179 O163 1.245 . S
C179 O164 1.259 . S
Tb180 O183 2.453 . S
Tb180 O184 2.596 . S
Tb180 O185 2.374 . S
Tb180 O193 2.343 . S
Tb180 O195 2.353 . S
Tb180 O197 2.427 . S
Tb180 O198 2.513 . S
C181 O185 1.251 . S
C181 O187 1.263 . S
Tb182 O184 2.343 . S
Tb182 O187 2.353 . S
Tb182 O190 2.427 . S
Tb182 O191 2.513 . S
Tb182 O192 2.453 . S
Tb182 O193 2.596 . S
Tb182 O194 2.374 . S
O183 Tb180 2.453 . S
O183 C199 1.245 . S
O184 Tb180 2.596 . S
O184 Tb182 2.343 . S
O184 C199 1.259 . S
O185 Tb180 2.374 . S
O185 C181 1.251 . S
C186 O190 1.275 . S
C186 O191 1.246 . S
O187 C181 1.263 . S
O187 Tb182 2.353 . S
C188 O192 1.245 . S
C188 O193 1.259 . S
C189 O194 1.250 . S
C189 O195 1.263 . S
O190 Tb182 2.427 . S
O190 C186 1.275 . S
O191 Tb182 2.513 . S
O191 C186 1.246 . S
O192 Tb182 2.453 . S
O192 C188 1.245 . S
O193 Tb180 2.343 . S
O193 Tb182 2.596 . S
O193 C188 1.259 . S
O194 Tb182 2.374 . S
O194 C189 1.250 . S
O195 Tb180 2.353 . S
O195 C189 1.263 . S
C196 O197 1.275 . S
C196 O198 1.246 . S
O197 Tb180 2.427 . S
O197 C196 1.275 . S
O198 Tb180 2.513 . S
O198 C196 1.246 . S
C199 O183 1.245 . S
C199 O184 1.259 . S
Tb200 O203 2.453 . S
Tb200 O204 2.596 . S
Tb200 O205 2.374 . S
Tb200 O213 2.343 . S
Tb200 O215 2.353 . S
Tb200 O217 2.427 . S
Tb200 O218 2.513 . S
C201 O205 1.251 . S
C201 O207 1.263 . S
Tb202 O204 2.343 . S
Tb202 O207 2.353 . S
Tb202 O210 2.427 . S
Tb202 O211 2.513 . S
Tb202 O212 2.453 . S
Tb202 O213 2.596 . S
Tb202 O214 2.374 . S
O203 Tb200 2.453 . S
O203 C219 1.245 . S
O204 Tb200 2.596 . S
O204 Tb202 2.343 . S
O204 C219 1.259 . S
O205 Tb200 2.374 . S
O205 C201 1.251 . S
C206 O210 1.275 . S
C206 O211 1.246 . S
O207 C201 1.263 . S
O207 Tb202 2.353 . S
C208 O212 1.245 . S
C208 O213 1.259 . S
C209 O214 1.250 . S
C209 O215 1.263 . S
O210 Tb202 2.427 . S
O210 C206 1.275 . S
O211 Tb202 2.513 . S
O211 C206 1.246 . S
O212 Tb202 2.453 . S
O212 C208 1.245 . S
O213 Tb200 2.343 . S
O213 Tb202 2.596 . S
O213 C208 1.259 . S
O214 Tb202 2.374 . S
O214 C209 1.250 . S
O215 Tb200 2.353 . S
O215 C209 1.263 . S
C216 O217 1.275 . S
C216 O218 1.246 . S
O217 Tb200 2.427 . S
O217 C216 1.275 . S
O218 Tb200 2.513 . S
O218 C216 1.246 . S
C219 O203 1.245 . S
C219 O204 1.259 . S
Tb220 O223 2.453 . S
Tb220 O224 2.596 . S
Tb220 O225 2.374 . S
Tb220 O233 2.343 . S
Tb220 O235 2.353 . S
Tb220 O237 2.427 . S
Tb220 O238 2.513 . S
C221 O225 1.251 . S
C221 O227 1.263 . S
Tb222 O224 2.343 . S
Tb222 O227 2.353 . S
Tb222 O230 2.427 . S
Tb222 O231 2.513 . S
Tb222 O232 2.453 . S
Tb222 O233 2.596 . S
Tb222 O234 2.374 . S
O223 Tb220 2.453 . S
O223 C239 1.245 . S
O224 Tb220 2.596 . S
O224 Tb222 2.343 . S
O224 C239 1.259 . S
O225 Tb220 2.374 . S
O225 C221 1.251 . S
C226 O230 1.275 . S
C226 O231 1.246 . S
O227 C221 1.263 . S
O227 Tb222 2.353 . S
C228 O232 1.245 . S
C228 O233 1.259 . S
C229 O234 1.250 . S
C229 O235 1.263 . S
O230 Tb222 2.427 . S
O230 C226 1.275 . S
O231 Tb222 2.513 . S
O231 C226 1.246 . S
O232 Tb222 2.453 . S
O232 C228 1.245 . S
O233 Tb220 2.343 . S
O233 Tb222 2.596 . S
O233 C228 1.259 . S
O234 Tb222 2.374 . S
O234 C229 1.250 . S
O235 Tb220 2.353 . S
O235 C229 1.263 . S
C236 O237 1.275 . S
C236 O238 1.246 . S
O237 Tb220 2.427 . S
O237 C236 1.275 . S
O238 Tb220 2.513 . S
O238 C236 1.246 . S
C239 O223 1.245 . S
C239 O224 1.259 . S
Tb240 O243 2.453 1_554 S
Tb240 O244 2.596 . S
Tb240 O245 2.374 . S
Tb240 O253 2.343 . S
Tb240 O255 2.353 . S
Tb240 O257 2.427 . S
Tb240 O258 2.513 . S
C241 O245 1.251 . S
C241 O247 1.263 . S
Tb242 O244 2.343 . S
Tb242 O247 2.353 . S
Tb242 O250 2.427 . S
Tb242 O251 2.513 . S
Tb242 O252 2.453 . S
Tb242 O253 2.596 . S
Tb242 O254 2.374 . S
O243 Tb240 2.453 1_556 S
O243 C259 1.245 1_556 S
O244 Tb240 2.596 . S
O244 Tb242 2.343 . S
O244 C259 1.259 . S
O245 Tb240 2.374 . S
O245 C241 1.251 . S
C246 O250 1.275 . S
C246 O251 1.246 . S
O247 C241 1.263 . S
O247 Tb242 2.353 . S
C248 O252 1.245 . S
C248 O253 1.259 . S
C249 O254 1.250 . S
C249 O255 1.263 . S
O250 Tb242 2.427 . S
O250 C246 1.275 . S
O251 Tb242 2.513 . S
O251 C246 1.246 . S
O252 Tb242 2.453 . S
O252 C248 1.245 . S
O253 Tb240 2.343 . S
O253 Tb242 2.596 . S
O253 C248 1.259 . S
O254 Tb242 2.374 . S
O254 C249 1.250 . S
O255 Tb240 2.353 . S
O255 C249 1.263 . S
C256 O257 1.275 . S
C256 O258 1.246 . S
O257 Tb240 2.427 . S
O257 C256 1.275 . S
O258 Tb240 2.513 . S
O258 C256 1.246 . S
C259 O243 1.245 1_554 S
C259 O244 1.259 . S
Tb260 O263 2.453 . S
Tb260 O264 2.596 . S
Tb260 O265 2.374 . S
Tb260 O273 2.343 . S
Tb260 O275 2.353 . S
Tb260 O277 2.427 . S
Tb260 O278 2.513 . S
C261 O265 1.251 . S
C261 O267 1.263 . S
Tb262 O264 2.343 . S
Tb262 O267 2.353 . S
Tb262 O270 2.427 . S
Tb262 O271 2.513 . S
Tb262 O272 2.453 1_554 S
Tb262 O273 2.596 . S
Tb262 O274 2.374 . S
O263 Tb260 2.453 . S
O263 C279 1.245 . S
O264 Tb260 2.596 . S
O264 Tb262 2.343 . S
O264 C279 1.259 . S
O265 Tb260 2.374 . S
O265 C261 1.251 . S
C266 O270 1.275 . S
C266 O271 1.246 . S
O267 C261 1.263 . S
O267 Tb262 2.353 . S
C268 O272 1.245 . S
C268 O273 1.259 1_556 S
C269 O274 1.250 . S
C269 O275 1.263 . S
O270 Tb262 2.427 . S
O270 C266 1.275 . S
O271 Tb262 2.513 . S
O271 C266 1.246 . S
O272 Tb262 2.453 1_556 S
O272 C268 1.245 . S
O273 Tb260 2.343 . S
O273 Tb262 2.596 . S
O273 C268 1.259 1_554 S
O274 Tb262 2.374 . S
O274 C269 1.250 . S
O275 Tb260 2.353 . S
O275 C269 1.263 . S
C276 O277 1.275 . S
C276 O278 1.246 . S
O277 Tb260 2.427 . S
O277 C276 1.275 . S
O278 Tb260 2.513 . S
O278 C276 1.246 . S
C279 O263 1.245 . S
C279 O264 1.259 . S
Tb280 O283 2.453 . S
Tb280 O284 2.596 . S
Tb280 O285 2.374 . S
Tb280 O293 2.343 . S
Tb280 O295 2.353 . S
Tb280 O297 2.427 . S
Tb280 O298 2.513 . S
C281 O285 1.251 . S
C281 O287 1.263 . S
Tb282 O284 2.343 . S
Tb282 O287 2.353 . S
Tb282 O290 2.427 . S
Tb282 O291 2.513 . S
Tb282 O292 2.453 . S
Tb282 O293 2.596 . S
Tb282 O294 2.374 . S
O283 Tb280 2.453 . S
O283 C299 1.245 . S
O284 Tb280 2.596 . S
O284 Tb282 2.343 . S
O284 C299 1.259 . S
O285 Tb280 2.374 . S
O285 C281 1.251 . S
C286 O290 1.275 . S
C286 O291 1.246 . S
O287 C281 1.263 . S
O287 Tb282 2.353 . S
C288 O292 1.245 . S
C288 O293 1.259 . S
C289 O294 1.250 . S
C289 O295 1.263 . S
O290 Tb282 2.427 . S
O290 C286 1.275 . S
O291 Tb282 2.513 . S
O291 C286 1.246 . S
O292 Tb282 2.453 . S
O292 C288 1.245 . S
O293 Tb280 2.343 . S
O293 Tb282 2.596 . S
O293 C288 1.259 . S
O294 Tb282 2.374 . S
O294 C289 1.250 . S
O295 Tb280 2.353 . S
O295 C289 1.263 . S
C296 O297 1.275 . S
C296 O298 1.246 . S
O297 Tb280 2.427 . S
O297 C296 1.275 . S
O298 Tb280 2.513 . S
O298 C296 1.246 . S
C299 O283 1.245 . S
C299 O284 1.259 . S
Tb300 O303 2.453 1_554 S
Tb300 O304 2.596 . S
Tb300 O305 2.374 . S
Tb300 O313 2.343 . S
Tb300 O315 2.353 . S
Tb300 O317 2.427 . S
Tb300 O318 2.513 . S
C301 O305 1.251 . S
C301 O307 1.263 . S
Tb302 O304 2.343 . S
Tb302 O307 2.353 . S
Tb302 O310 2.427 . S
Tb302 O311 2.513 . S
Tb302 O312 2.453 . S
Tb302 O313 2.596 . S
Tb302 O314 2.374 . S
O303 Tb300 2.453 1_556 S
O303 C319 1.245 1_556 S
O304 Tb300 2.596 . S
O304 Tb302 2.343 . S
O304 C319 1.259 . S
O305 Tb300 2.374 . S
O305 C301 1.251 . S
C306 O310 1.275 . S
C306 O311 1.246 . S
O307 C301 1.263 . S
O307 Tb302 2.353 . S
C308 O312 1.245 . S
C308 O313 1.259 . S
C309 O314 1.250 . S
C309 O315 1.263 . S
O310 Tb302 2.427 . S
O310 C306 1.275 . S
O311 Tb302 2.513 . S
O311 C306 1.246 . S
O312 Tb302 2.453 . S
O312 C308 1.245 . S
O313 Tb300 2.343 . S
O313 Tb302 2.596 . S
O313 C308 1.259 . S
O314 Tb302 2.374 . S
O314 C309 1.250 . S
O315 Tb300 2.353 . S
O315 C309 1.263 . S
C316 O317 1.275 . S
C316 O318 1.246 . S
O317 Tb300 2.427 . S
O317 C316 1.275 . S
O318 Tb300 2.513 . S
O318 C316 1.246 . S
C319 O303 1.245 1_554 S
C319 O304 1.259 . S
Tb320 O323 2.453 . S
Tb320 O324 2.596 . S
Tb320 O325 2.374 . S
Tb320 O333 2.343 . S
Tb320 O335 2.353 . S
Tb320 O337 2.427 . S
Tb320 O338 2.513 . S
C321 O325 1.251 . S
C321 O327 1.263 . S
Tb322 O324 2.343 . S
Tb322 O327 2.353 . S
Tb322 O330 2.427 . S
Tb322 O331 2.513 . S
Tb322 O332 2.453 . S
Tb322 O333 2.596 . S
Tb322 O334 2.374 . S
O323 Tb320 2.453 . S
O323 C339 1.245 . S
O324 Tb320 2.596 . S
O324 Tb322 2.343 . S
O324 C339 1.259 . S
O325 Tb320 2.374 . S
O325 C321 1.251 . S
C326 O330 1.275 . S
C326 O331 1.246 . S
O327 C321 1.263 . S
O327 Tb322 2.353 . S
C328 O332 1.245 . S
C328 O333 1.259 . S
C329 O334 1.250 . S
C329 O335 1.263 . S
O330 Tb322 2.427 . S
O330 C326 1.275 . S
O331 Tb322 2.513 . S
O331 C326 1.246 . S
O332 Tb322 2.453 . S
O332 C328 1.245 . S
O333 Tb320 2.343 . S
O333 Tb322 2.596 . S
O333 C328 1.259 . S
O334 Tb322 2.374 . S
O334 C329 1.250 . S
O335 Tb320 2.353 . S
O335 C329 1.263 . S
C336 O337 1.275 . S
C336 O338 1.246 . S
O337 Tb320 2.427 . S
O337 C336 1.275 . S
O338 Tb320 2.513 . S
O338 C336 1.246 . S
C339 O323 1.245 . S
C339 O324 1.259 . S
Tb340 O343 2.453 . S
Tb340 O344 2.596 . S
Tb340 O345 2.374 . S
Tb340 O353 2.343 . S
Tb340 O355 2.353 . S
Tb340 O357 2.427 . S
Tb340 O358 2.513 . S
C341 O345 1.251 . S
C341 O347 1.263 . S
Tb342 O344 2.343 . S
Tb342 O347 2.353 . S
Tb342 O350 2.427 . S
Tb342 O351 2.513 . S
Tb342 O352 2.453 . S
Tb342 O353 2.596 . S
Tb342 O354 2.374 . S
O343 Tb340 2.453 . S
O343 C359 1.245 . S
O344 Tb340 2.596 . S
O344 Tb342 2.343 . S
O344 C359 1.259 . S
O345 Tb340 2.374 . S
O345 C341 1.251 . S
C346 O350 1.275 . S
C346 O351 1.246 . S
O347 C341 1.263 . S
O347 Tb342 2.353 . S
C348 O352 1.245 . S
C348 O353 1.259 . S
C349 O354 1.250 . S
C349 O355 1.263 . S
O350 Tb342 2.427 . S
O350 C346 1.275 . S
O351 Tb342 2.513 . S
O351 C346 1.246 . S
O352 Tb342 2.453 . S
O352 C348 1.245 . S
O353 Tb340 2.343 . S
O353 Tb342 2.596 . S
O353 C348 1.259 . S
O354 Tb342 2.374 . S
O354 C349 1.250 . S
O355 Tb340 2.353 . S
O355 C349 1.263 . S
C356 O357 1.275 . S
C356 O358 1.246 . S
O357 Tb340 2.427 . S
O357 C356 1.275 . S
O358 Tb340 2.513 . S
O358 C356 1.246 . S
C359 O343 1.245 . S
C359 O344 1.259 . S
H360 C366 0.930 . S
H361 C370 0.930 . S
H362 C375 0.929 . S
H363 C373 0.929 . S
H364 C368 0.929 . S
H365 C374 0.929 . S
C366 H360 0.930 . S
C366 C367 1.367 . S
C366 C374 1.378 . S
C367 C366 1.367 . S
C367 C375 1.433 . S
C368 H364 0.929 . S
C368 C370 1.378 . S
C368 C372 1.350 . S
C369 C372 1.463 . S
C369 C374 1.350 . S
C369 N377 1.427 . S
C370 H361 0.930 . S
C370 C368 1.378 . S
C370 C371 1.367 . S
C371 C370 1.367 . S
C371 C373 1.433 . S
C372 C368 1.350 . S
C372 C369 1.463 . S
C372 N376 1.427 . S
C373 H363 0.929 . S
C373 C371 1.433 . S
C373 N376 1.384 . S
C374 H365 0.929 . S
C374 C366 1.378 . S
C374 C369 1.350 . S
C375 H362 0.929 . S
C375 C367 1.433 . S
C375 N377 1.384 . S
N376 C372 1.427 . S
N376 C373 1.384 . S
N377 C369 1.427 . S
N377 C375 1.384 . S
H378 C384 0.930 . S
H379 C388 0.930 . S
H380 C393 0.929 . S
H381 C391 0.929 . S
H382 C386 0.929 . S
H383 C392 0.929 . S
C384 H378 0.930 . S
C384 C385 1.367 . S
C384 C392 1.378 . S
C385 C384 1.367 . S
C385 C393 1.433 . S
C386 H382 0.929 . S
C386 C388 1.378 . S
C386 C390 1.350 . S
C387 C390 1.463 . S
C387 C392 1.350 . S
C387 N395 1.427 . S
C388 H379 0.930 . S
C388 C386 1.378 . S
C388 C389 1.367 . S
C389 C388 1.367 . S
C389 C391 1.433 . S
C390 C386 1.350 . S
C390 C387 1.463 . S
C390 N394 1.427 . S
C391 H381 0.929 . S
C391 C389 1.433 . S
C391 N394 1.384 . S
C392 H383 0.929 . S
C392 C384 1.378 . S
C392 C387 1.350 . S
C393 H380 0.929 . S
C393 C385 1.433 . S
C393 N395 1.384 . S
N394 C390 1.427 . S
N394 C391 1.384 . S
N395 C387 1.427 . S
N395 C393 1.384 . S
H396 C402 0.930 . S
H397 C406 0.930 . S
H398 C411 0.929 . S
H399 C409 0.929 . S
H400 C404 0.929 . S
H401 C410 0.929 . S
C402 H396 0.930 . S
C402 C403 1.367 . S
C402 C410 1.378 . S
C403 C402 1.367 . S
C403 C411 1.433 . S
C404 H400 0.929 . S
C404 C406 1.378 . S
C404 C408 1.350 . S
C405 C408 1.463 . S
C405 C410 1.350 . S
C405 N413 1.427 . S
C406 H397 0.930 . S
C406 C404 1.378 . S
C406 C407 1.367 . S
C407 C406 1.367 . S
C407 C409 1.433 . S
C408 C404 1.350 . S
C408 C405 1.463 . S
C408 N412 1.427 . S
C409 H399 0.929 . S
C409 C407 1.433 . S
C409 N412 1.384 . S
C410 H401 0.929 . S
C410 C402 1.378 . S
C410 C405 1.350 . S
C411 H398 0.929 . S
C411 C403 1.433 . S
C411 N413 1.384 . S
N412 C408 1.427 . S
N412 C409 1.384 . S
N413 C405 1.427 . S
N413 C411 1.384 . S
H414 C420 0.930 . S
H415 C424 0.930 . S
H416 C429 0.929 . S
H417 C427 0.929 . S
H418 C422 0.929 . S
H419 C428 0.929 . S
C420 H414 0.930 . S
C420 C421 1.367 . S
C420 C428 1.378 . S
C421 C420 1.367 . S
C421 C429 1.433 . S
C422 H418 0.929 . S
C422 C424 1.378 . S
C422 C426 1.350 . S
C423 C426 1.463 . S
C423 C428 1.350 . S
C423 N431 1.427 . S
C424 H415 0.930 . S
C424 C422 1.378 . S
C424 C425 1.367 . S
C425 C424 1.367 . S
C425 C427 1.433 . S
C426 C422 1.350 . S
C426 C423 1.463 . S
C426 N430 1.427 . S
C427 H417 0.929 . S
C427 C425 1.433 . S
C427 N430 1.384 . S
C428 H419 0.929 . S
C428 C420 1.378 . S
C428 C423 1.350 . S
C429 H416 0.929 . S
C429 C421 1.433 . S
C429 N431 1.384 . S
N430 C426 1.427 . S
N430 C427 1.384 . S
N431 C423 1.427 . S
N431 C429 1.384 . S
H432 C438 0.930 . S
H433 C442 0.930 . S
H434 C447 0.929 . S
H435 C445 0.929 . S
H436 C440 0.929 . S
H437 C446 0.929 . S
C438 H432 0.930 . S
C438 C439 1.367 . S
C438 C446 1.378 . S
C439 C438 1.367 . S
C439 C447 1.433 . S
C440 H436 0.929 . S
C440 C442 1.378 . S
C440 C444 1.350 . S
C441 C444 1.463 . S
C441 C446 1.350 . S
C441 N449 1.427 . S
C442 H433 0.930 . S
C442 C440 1.378 . S
C442 C443 1.367 . S
C443 C442 1.367 . S
C443 C445 1.433 . S
C444 C440 1.350 . S
C444 C441 1.463 . S
C444 N448 1.427 . S
C445 H435 0.929 . S
C445 C443 1.433 . S
C445 N448 1.384 . S
C446 H437 0.929 . S
C446 C438 1.378 . S
C446 C441 1.350 . S
C447 H434 0.929 . S
C447 C439 1.433 . S
C447 N449 1.384 . S
N448 C444 1.427 . S
N448 C445 1.384 . S
N449 C441 1.427 . S
N449 C447 1.384 . S
H450 C456 0.930 . S
H451 C460 0.930 . S
H452 C465 0.929 . S
H453 C463 0.929 . S
H454 C458 0.929 . S
H455 C464 0.929 . S
C456 H450 0.930 . S
C456 C457 1.367 . S
C456 C464 1.378 . S
C457 C456 1.367 . S
C457 C465 1.433 . S
C458 H454 0.929 . S
C458 C460 1.378 . S
C458 C462 1.350 . S
C459 C462 1.463 . S
C459 C464 1.350 . S
C459 N467 1.427 . S
C460 H451 0.930 . S
C460 C458 1.378 . S
C460 C461 1.367 . S
C461 C460 1.367 . S
C461 C463 1.433 . S
C462 C458 1.350 . S
C462 C459 1.463 . S
C462 N466 1.427 . S
C463 H453 0.929 . S
C463 C461 1.433 . S
C463 N466 1.384 . S
C464 H455 0.929 . S
C464 C456 1.378 . S
C464 C459 1.350 . S
C465 H452 0.929 . S
C465 C457 1.433 . S
C465 N467 1.384 . S
N466 C462 1.427 . S
N466 C463 1.384 . S
N467 C459 1.427 . S
N467 C465 1.384 . S
H468 C474 0.930 . S
H469 C478 0.930 . S
H470 C483 0.929 . S
H471 C481 0.929 . S
H472 C476 0.929 . S
H473 C482 0.929 . S
C474 H468 0.930 . S
C474 C475 1.367 . S
C474 C482 1.378 . S
C475 C474 1.367 . S
C475 C483 1.433 . S
C476 H472 0.929 . S
C476 C478 1.378 . S
C476 C480 1.350 . S
C477 C480 1.463 . S
C477 C482 1.350 . S
C477 N485 1.427 . S
C478 H469 0.930 . S
C478 C476 1.378 . S
C478 C479 1.367 . S
C479 C478 1.367 . S
C479 C481 1.433 . S
C480 C476 1.350 . S
C480 C477 1.463 . S
C480 N484 1.427 . S
C481 H471 0.929 . S
C481 C479 1.433 . S
C481 N484 1.384 . S
C482 H473 0.929 . S
C482 C474 1.378 . S
C482 C477 1.350 . S
C483 H470 0.929 . S
C483 C475 1.433 . S
C483 N485 1.384 . S
N484 C480 1.427 . S
N484 C481 1.384 . S
N485 C477 1.427 . S
N485 C483 1.384 . S
H486 C492 0.930 . S
H487 C496 0.930 . S
H488 C501 0.929 . S
H489 C499 0.929 . S
H490 C494 0.929 . S
H491 C500 0.929 . S
C492 H486 0.930 . S
C492 C493 1.367 . S
C492 C500 1.378 . S
C493 C492 1.367 . S
C493 C501 1.433 . S
C494 H490 0.929 . S
C494 C496 1.378 . S
C494 C498 1.350 . S
C495 C498 1.463 . S
C495 C500 1.350 . S
C495 N503 1.427 . S
C496 H487 0.930 . S
C496 C494 1.378 . S
C496 C497 1.367 . S
C497 C496 1.367 . S
C497 C499 1.433 . S
C498 C494 1.350 . S
C498 C495 1.463 . S
C498 N502 1.427 . S
C499 H489 0.929 . S
C499 C497 1.433 . S
C499 N502 1.384 . S
C500 H491 0.929 . S
C500 C492 1.378 . S
C500 C495 1.350 . S
C501 H488 0.929 . S
C501 C493 1.433 . S
C501 N503 1.384 . S
N502 C498 1.427 . S
N502 C499 1.384 . S
N503 C495 1.427 . S
N503 C501 1.384 . S
H504 C510 0.930 . S
H505 C514 0.930 . S
H506 C519 0.929 . S
H507 C517 0.929 . S
H508 C512 0.929 . S
H509 C518 0.929 . S
C510 H504 0.930 . S
C510 C511 1.367 . S
C510 C518 1.378 . S
C511 C510 1.367 . S
C511 C519 1.433 . S
C512 H508 0.929 . S
C512 C514 1.378 . S
C512 C516 1.350 . S
C513 C516 1.463 . S
C513 C518 1.350 . S
C513 N521 1.427 . S
C514 H505 0.930 . S
C514 C512 1.378 . S
C514 C515 1.367 . S
C515 C514 1.367 . S
C515 C517 1.433 . S
C516 C512 1.350 . S
C516 C513 1.463 . S
C516 N520 1.427 . S
C517 H507 0.929 . S
C517 C515 1.433 . S
C517 N520 1.384 . S
C518 H509 0.929 . S
C518 C510 1.378 . S
C518 C513 1.350 . S
C519 H506 0.929 . S
C519 C511 1.433 . S
C519 N521 1.384 . S
N520 C516 1.427 . S
N520 C517 1.384 . S
N521 C513 1.427 . S
N521 C519 1.384 . S
H522 C528 0.930 . S
H523 C532 0.930 . S
H524 C537 0.929 . S
H525 C535 0.929 . S
H526 C530 0.929 . S
H527 C536 0.929 . S
C528 H522 0.930 . S
C528 C529 1.367 . S
C528 C536 1.378 . S
C529 C528 1.367 . S
C529 C537 1.433 . S
C530 H526 0.929 . S
C530 C532 1.378 . S
C530 C534 1.350 . S
C531 C534 1.463 . S
C531 C536 1.350 . S
C531 N539 1.427 . S
C532 H523 0.930 . S
C532 C530 1.378 . S
C532 C533 1.367 . S
C533 C532 1.367 . S
C533 C535 1.433 . S
C534 C530 1.350 . S
C534 C531 1.463 . S
C534 N538 1.427 . S
C535 H525 0.929 . S
C535 C533 1.433 . S
C535 N538 1.384 . S
C536 H527 0.929 . S
C536 C528 1.378 . S
C536 C531 1.350 . S
C537 H524 0.929 . S
C537 C529 1.433 . S
C537 N539 1.384 . S
N538 C534 1.427 . S
N538 C535 1.384 . S
N539 C531 1.427 . S
N539 C537 1.384 . S
H540 C546 0.930 . S
H541 C550 0.930 . S
H542 C555 0.929 . S
H543 C553 0.929 . S
H544 C548 0.929 . S
H545 C554 0.929 . S
C546 H540 0.930 . S
C546 C547 1.367 . S
C546 C554 1.378 . S
C547 C546 1.367 . S
C547 C555 1.433 . S
C548 H544 0.929 . S
C548 C550 1.378 . S
C548 C552 1.350 . S
C549 C552 1.463 . S
C549 C554 1.350 . S
C549 N557 1.427 . S
C550 H541 0.930 . S
C550 C548 1.378 . S
C550 C551 1.367 . S
C551 C550 1.367 . S
C551 C553 1.433 . S
C552 C548 1.350 . S
C552 C549 1.463 . S
C552 N556 1.427 . S
C553 H543 0.929 . S
C553 C551 1.433 . S
C553 N556 1.384 . S
C554 H545 0.929 . S
C554 C546 1.378 . S
C554 C549 1.350 . S
C555 H542 0.929 . S
C555 C547 1.433 . S
C555 N557 1.384 . S
N556 C552 1.427 . S
N556 C553 1.384 . S
N557 C549 1.427 . S
N557 C555 1.384 . S
H558 C564 0.930 . S
H559 C568 0.930 . S
H560 C573 0.929 . S
H561 C571 0.929 . S
H562 C566 0.929 . S
H563 C572 0.929 . S
C564 H558 0.930 . S
C564 C565 1.367 . S
C564 C572 1.378 . S
C565 C564 1.367 . S
C565 C573 1.433 . S
C566 H562 0.929 . S
C566 C568 1.378 . S
C566 C570 1.350 . S
C567 C570 1.463 . S
C567 C572 1.350 . S
C567 N575 1.427 . S
C568 H559 0.930 . S
C568 C566 1.378 . S
C568 C569 1.367 . S
C569 C568 1.367 . S
C569 C571 1.433 . S
C570 C566 1.350 . S
C570 C567 1.463 . S
C570 N574 1.427 . S
C571 H561 0.929 . S
C571 C569 1.433 . S
C571 N574 1.384 . S
C572 H563 0.929 . S
C572 C564 1.378 . S
C572 C567 1.350 . S
C573 H560 0.929 . S
C573 C565 1.433 . S
C573 N575 1.384 . S
N574 C570 1.427 . S
N574 C571 1.384 . S
N575 C567 1.427 . S
N575 C573 1.384 . S
H576 C582 0.930 1_554 S
H577 C586 0.930 . S
H578 C591 0.929 1_655 S
H579 C589 0.929 . S
H580 C584 0.929 . S
H581 C590 0.929 . S
C582 H576 0.930 1_556 S
C582 C583 1.367 . S
C582 C590 1.378 1_656 S
C583 C582 1.367 . S
C583 C591 1.433 1_655 S
C584 H580 0.929 . S
C584 C586 1.378 . S
C584 C588 1.350 1_556 S
C585 C588 1.463 1_556 S
C585 C590 1.350 1_556 S
C585 N593 1.427 . S
C586 H577 0.930 . S
C586 C584 1.378 . S
C586 C587 1.367 1_556 S
C587 C586 1.367 1_554 S
C587 C589 1.433 . S
C588 C584 1.350 1_554 S
C588 C585 1.463 1_554 S
C588 N592 1.427 . S
C589 H579 0.929 . S
C589 C587 1.433 . S
C589 N592 1.384 . S
C590 H581 0.929 . S
C590 C582 1.378 1_454 S
C590 C585 1.350 1_554 S
C591 H578 0.929 1_455 S
C591 C583 1.433 1_455 S
C591 N593 1.384 . S
N592 C588 1.427 . S
N592 C589 1.384 . S
N593 C585 1.427 . S
N593 C591 1.384 . S
H594 C600 0.930 . S
H595 C604 0.930 1_556 S
H596 C609 0.929 . S
H597 C607 0.929 . S
H598 C602 0.929 . S
H599 C608 0.929 1_554 S
C600 H594 0.930 . S
C600 C601 1.367 . S
C600 C608 1.378 . S
C601 C600 1.367 . S
C601 C609 1.433 . S
C602 H598 0.929 . S
C602 C604 1.378 1_556 S
C602 C606 1.350 . S
C603 C606 1.463 . S
C603 C608 1.350 . S
C603 N611 1.427 . S
C604 H595 0.930 1_554 S
C604 C602 1.378 1_554 S
C604 C605 1.367 . S
C605 C604 1.367 . S
C605 C607 1.433 . S
C606 C602 1.350 . S
C606 C603 1.463 . S
C606 N610 1.427 1_556 S
C607 H597 0.929 . S
C607 C605 1.433 . S
C607 N610 1.384 . S
C608 H599 0.929 1_556 S
C608 C600 1.378 . S
C608 C603 1.350 . S
C609 H596 0.929 . S
C609 C601 1.433 . S
C609 N611 1.384 . S
N610 C606 1.427 1_554 S
N610 C607 1.384 . S
N611 C603 1.427 . S
N611 C609 1.384 . S
H612 C618 0.930 . S
H613 C622 0.930 . S
H614 C627 0.929 . S
H615 C625 0.929 . S
H616 C620 0.929 . S
H617 C626 0.929 . S
C618 H612 0.930 . S
C618 C619 1.367 . S
C618 C626 1.378 . S
C619 C618 1.367 . S
C619 C627 1.433 . S
C620 H616 0.929 . S
C620 C622 1.378 1_545 S
C620 C624 1.350 1_554 S
C621 C624 1.463 . S
C621 C626 1.350 . S
C621 N629 1.427 . S
C622 H613 0.930 . S
C622 C620 1.378 1_565 S
C622 C623 1.367 . S
C623 C622 1.367 . S
C623 C625 1.433 1_554 S
C624 C620 1.350 1_556 S
C624 C621 1.463 . S
C624 N628 1.427 . S
C625 H615 0.929 . S
C625 C623 1.433 1_556 S
C625 N628 1.384 1_565 S
C626 H617 0.929 . S
C626 C618 1.378 . S
C626 C621 1.350 . S
C627 H614 0.929 . S
C627 C619 1.433 . S
C627 N629 1.384 . S
N628 C624 1.427 . S
N628 C625 1.384 1_545 S
N629 C621 1.427 . S
N629 C627 1.384 . S
H630 C636 0.930 . S
H631 C640 0.930 . S
H632 C645 0.929 . S
H633 C643 0.929 1_556 S
H634 C638 0.929 . S
H635 C644 0.929 . S
C636 H630 0.930 . S
C636 C637 1.367 . S
C636 C644 1.378 . S
C637 C636 1.367 . S
C637 C645 1.433 1_556 S
C638 H634 0.929 . S
C638 C640 1.378 . S
C638 C642 1.350 . S
C639 C642 1.463 1_556 S
C639 C644 1.350 . S
C639 N647 1.427 1_556 S
C640 H631 0.930 . S
C640 C638 1.378 . S
C640 C641 1.367 1_545 S
C641 C640 1.367 1_565 S
C641 C643 1.433 . S
C642 C638 1.350 . S
C642 C639 1.463 1_554 S
C642 N646 1.427 1_554 S
C643 H633 0.929 1_554 S
C643 C641 1.433 . S
C643 N646 1.384 1_564 S
C644 H635 0.929 . S
C644 C636 1.378 . S
C644 C639 1.350 . S
C645 H632 0.929 . S
C645 C637 1.433 1_554 S
C645 N647 1.384 . S
N646 C642 1.427 1_556 S
N646 C643 1.384 1_546 S
N647 C639 1.427 1_554 S
N647 C645 1.384 . S
H648 C654 0.930 . S
H649 C658 0.930 . S
H650 C663 0.929 . S
H651 C661 0.930 . S
H652 C656 0.929 . S
H653 C662 0.929 1_556 S
C654 H648 0.930 . S
C654 C655 1.367 . S
C654 C662 1.378 . S
C655 C654 1.367 . S
C655 C663 1.433 . S
C656 H652 0.929 . S
C656 C658 1.378 1_455 S
C656 C660 1.350 . S
C657 C660 1.463 . S
C657 C662 1.350 . S
C657 N665 1.427 . S
C658 H649 0.930 . S
C658 C656 1.378 1_655 S
C658 C659 1.367 1_554 S
C659 C658 1.367 1_556 S
C659 C661 1.433 1_655 S
C660 C656 1.350 . S
C660 C657 1.463 . S
C660 N664 1.427 1_554 S
C661 H651 0.930 . S
C661 C659 1.433 1_455 S
C661 N664 1.384 . S
C662 H653 0.929 1_554 S
C662 C654 1.378 . S
C662 C657 1.350 . S
C663 H650 0.929 . S
C663 C655 1.433 . S
C663 N665 1.384 . S
N664 C660 1.427 1_556 S
N664 C661 1.384 . S
N665 C657 1.427 . S
N665 C663 1.384 . S
H666 C672 0.930 . S
H667 C676 0.930 1_554 S
H668 C681 0.929 . S
H669 C679 0.929 . S
H670 C674 0.929 . S
H671 C680 0.929 1_556 S
C672 H666 0.930 . S
C672 C673 1.367 . S
C672 C680 1.378 . S
C673 C672 1.367 . S
C673 C681 1.433 . S
C674 H670 0.929 . S
C674 C676 1.378 1_554 S
C674 C678 1.350 . S
C675 C678 1.463 . S
C675 C680 1.350 . S
C675 N683 1.427 . S
C676 H667 0.930 1_556 S
C676 C674 1.378 1_556 S
C676 C677 1.367 . S
C677 C676 1.367 . S
C677 C679 1.433 . S
C678 C674 1.350 . S
C678 C675 1.463 . S
C678 N682 1.427 1_554 S
C679 H669 0.929 . S
C679 C677 1.433 . S
C679 N682 1.384 . S
C680 H671 0.929 1_554 S
C680 C672 1.378 . S
C680 C675 1.350 . S
C681 H668 0.929 . S
C681 C673 1.433 . S
C681 N683 1.384 . S
N682 C678 1.427 1_556 S
N682 C679 1.384 . S
N683 C675 1.427 . S
N683 C681 1.384 . S
H684 C690 0.930 . S
H685 C694 0.930 . S
H686 C699 0.929 . S
H687 C697 0.929 . S
H688 C692 0.929 . S
H689 C698 0.929 . S
C690 H684 0.930 . S
C690 C691 1.367 . S
C690 C698 1.378 . S
C691 C690 1.367 . S
C691 C699 1.433 . S
C692 H688 0.929 . S
C692 C694 1.378 . S
C692 C696 1.350 . S
C693 C696 1.463 . S
C693 C698 1.350 . S
C693 N701 1.427 . S
C694 H685 0.930 . S
C694 C692 1.378 . S
C694 C695 1.367 . S
C695 C694 1.367 . S
C695 C697 1.433 . S
C696 C692 1.350 . S
C696 C693 1.463 . S
C696 N700 1.427 . S
C697 H687 0.929 . S
C697 C695 1.433 . S
C697 N700 1.384 . S
C698 H689 0.929 . S
C698 C690 1.378 . S
C698 C693 1.350 . S
C699 H686 0.929 . S
C699 C691 1.433 . S
C699 N701 1.384 . S
N700 C696 1.427 . S
N700 C697 1.384 . S
N701 C693 1.427 . S
N701 C699 1.384 . S
H702 C708 0.930 . S
H703 C712 0.930 . S
H704 C717 0.929 . S
H705 C715 0.929 . S
H706 C710 0.929 . S
H707 C716 0.929 . S
C708 H702 0.930 . S
C708 C709 1.367 . S
C708 C716 1.378 . S
C709 C708 1.367 . S
C709 C717 1.433 . S
C710 H706 0.929 . S
C710 C712 1.378 . S
C710 C714 1.350 . S
C711 C714 1.463 . S
C711 C716 1.350 . S
C711 N719 1.427 . S
C712 H703 0.930 . S
C712 C710 1.378 . S
C712 C713 1.367 . S
C713 C712 1.367 . S
C713 C715 1.433 . S
C714 C710 1.350 . S
C714 C711 1.463 . S
C714 N718 1.427 . S
C715 H705 0.929 . S
C715 C713 1.433 . S
C715 N718 1.384 . S
C716 H707 0.929 . S
C716 C708 1.378 . S
C716 C711 1.350 . S
C717 H704 0.929 . S
C717 C709 1.433 . S
C717 N719 1.384 . S
N718 C714 1.427 . S
N718 C715 1.384 . S
N719 C711 1.427 . S
N719 C717 1.384 . S
H720 C726 0.930 . S
H721 C730 0.930 . S
H722 C735 0.929 . S
H723 C733 0.929 . S
H724 C728 0.929 . S
H725 C734 0.929 . S
C726 H720 0.930 . S
C726 C727 1.367 . S
C726 C734 1.378 . S
C727 C726 1.367 . S
C727 C735 1.433 . S
C728 H724 0.929 . S
C728 C730 1.378 . S
C728 C732 1.350 . S
C729 C732 1.463 . S
C729 C734 1.350 . S
C729 N737 1.427 . S
C730 H721 0.930 . S
C730 C728 1.378 . S
C730 C731 1.367 . S
C731 C730 1.367 . S
C731 C733 1.433 . S
C732 C728 1.350 . S
C732 C729 1.463 . S
C732 N736 1.427 . S
C733 H723 0.929 . S
C733 C731 1.433 . S
C733 N736 1.384 . S
C734 H725 0.929 . S
C734 C726 1.378 . S
C734 C729 1.350 . S
C735 H722 0.929 . S
C735 C727 1.433 . S
C735 N737 1.384 . S
N736 C732 1.427 . S
N736 C733 1.384 . S
N737 C729 1.427 . S
N737 C735 1.384 . S
H738 C744 0.930 . S
H739 C748 0.930 . S
H740 C753 0.929 . S
H741 C751 0.929 . S
H742 C746 0.929 . S
H743 C752 0.929 . S
C744 H738 0.930 . S
C744 C745 1.367 . S
C744 C752 1.378 . S
C745 C744 1.367 . S
C745 C753 1.433 . S
C746 H742 0.929 . S
C746 C748 1.378 . S
C746 C750 1.350 . S
C747 C750 1.463 . S
C747 C752 1.350 . S
C747 N755 1.427 . S
C748 H739 0.930 . S
C748 C746 1.378 . S
C748 C749 1.367 . S
C749 C748 1.367 . S
C749 C751 1.433 . S
C750 C746 1.350 . S
C750 C747 1.463 . S
C750 N754 1.427 . S
C751 H741 0.929 . S
C751 C749 1.433 . S
C751 N754 1.384 . S
C752 H743 0.929 . S
C752 C744 1.378 . S
C752 C747 1.350 . S
C753 H740 0.929 . S
C753 C745 1.433 . S
C753 N755 1.384 . S
N754 C750 1.427 . S
N754 C751 1.384 . S
N755 C747 1.427 . S
N755 C753 1.384 . S
H756 C762 0.930 . S
H757 C766 0.930 . S
H758 C771 0.929 . S
H759 C769 0.929 . S
H760 C764 0.929 . S
H761 C770 0.929 . S
C762 H756 0.930 . S
C762 C763 1.367 . S
C762 C770 1.378 . S
C763 C762 1.367 . S
C763 C771 1.433 . S
C764 H760 0.929 . S
C764 C766 1.378 . S
C764 C768 1.350 . S
C765 C768 1.463 . S
C765 C770 1.350 . S
C765 N773 1.427 . S
C766 H757 0.930 . S
C766 C764 1.378 . S
C766 C767 1.367 . S
C767 C766 1.367 . S
C767 C769 1.433 . S
C768 C764 1.350 . S
C768 C765 1.463 . S
C768 N772 1.427 . S
C769 H759 0.929 . S
C769 C767 1.433 . S
C769 N772 1.384 . S
C770 H761 0.929 . S
C770 C762 1.378 . S
C770 C765 1.350 . S
C771 H758 0.929 . S
C771 C763 1.433 . S
C771 N773 1.384 . S
N772 C768 1.427 . S
N772 C769 1.384 . S
N773 C765 1.427 . S
N773 C771 1.384 . S
H774 C780 0.930 . S
H775 C784 0.930 . S
H776 C789 0.929 . S
H777 C787 0.929 . S
H778 C782 0.929 . S
H779 C788 0.929 . S
C780 H774 0.930 . S
C780 C781 1.367 . S
C780 C788 1.378 . S
C781 C780 1.367 . S
C781 C789 1.433 . S
C782 H778 0.929 . S
C782 C784 1.378 . S
C782 C786 1.350 . S
C783 C786 1.463 . S
C783 C788 1.350 . S
C783 N791 1.427 . S
C784 H775 0.930 . S
C784 C782 1.378 . S
C784 C785 1.367 . S
C785 C784 1.367 . S
C785 C787 1.433 . S
C786 C782 1.350 . S
C786 C783 1.463 . S
C786 N790 1.427 . S
C787 H777 0.929 . S
C787 C785 1.433 . S
C787 N790 1.384 . S
C788 H779 0.929 . S
C788 C780 1.378 . S
C788 C783 1.350 . S
C789 H776 0.929 . S
C789 C781 1.433 . S
C789 N791 1.384 . S
N790 C786 1.427 . S
N790 C787 1.384 . S
N791 C783 1.427 . S
N791 C789 1.384 . S
H792 C798 0.930 . S
H793 C802 0.930 . S
H794 C807 0.929 . S
H795 C805 0.929 . S
H796 C800 0.929 . S
H797 C806 0.929 . S
C798 H792 0.930 . S
C798 C799 1.367 . S
C798 C806 1.378 . S
C799 C798 1.367 . S
C799 C807 1.433 . S
C800 H796 0.929 . S
C800 C802 1.378 . S
C800 C804 1.350 . S
C801 C804 1.463 . S
C801 C806 1.350 . S
C801 N809 1.427 . S
C802 H793 0.930 . S
C802 C800 1.378 . S
C802 C803 1.367 . S
C803 C802 1.367 . S
C803 C805 1.433 . S
C804 C800 1.350 . S
C804 C801 1.463 . S
C804 N808 1.427 . S
C805 H795 0.929 . S
C805 C803 1.433 . S
C805 N808 1.384 . S
C806 H797 0.929 . S
C806 C798 1.378 . S
C806 C801 1.350 . S
C807 H794 0.929 . S
C807 C799 1.433 . S
C807 N809 1.384 . S
N808 C804 1.427 . S
N808 C805 1.384 . S
N809 C801 1.427 . S
N809 C807 1.384 . S
H810 C816 0.930 . S
H811 C820 0.930 . S
H812 C825 0.929 . S
H813 C823 0.929 . S
H814 C818 0.929 . S
H815 C824 0.929 . S
C816 H810 0.930 . S
C816 C817 1.367 . S
C816 C824 1.378 . S
C817 C816 1.367 . S
C817 C825 1.433 . S
C818 H814 0.929 . S
C818 C820 1.378 . S
C818 C822 1.350 . S
C819 C822 1.463 . S
C819 C824 1.350 . S
C819 N827 1.427 . S
C820 H811 0.930 . S
C820 C818 1.378 . S
C820 C821 1.367 . S
C821 C820 1.367 . S
C821 C823 1.433 . S
C822 C818 1.350 . S
C822 C819 1.463 . S
C822 N826 1.427 . S
C823 H813 0.929 . S
C823 C821 1.433 . S
C823 N826 1.384 . S
C824 H815 0.929 . S
C824 C816 1.378 . S
C824 C819 1.350 . S
C825 H812 0.929 . S
C825 C817 1.433 . S
C825 N827 1.384 . S
N826 C822 1.427 . S
N826 C823 1.384 . S
N827 C819 1.427 . S
N827 C825 1.384 . S
H828 C834 0.930 . S
H829 C838 0.930 . S
H830 C843 0.929 . S
H831 C841 0.929 . S
H832 C836 0.929 . S
H833 C842 0.929 . S
C834 H828 0.930 . S
C834 C835 1.367 . S
C834 C842 1.378 . S
C835 C834 1.367 . S
C835 C843 1.433 . S
C836 H832 0.929 . S
C836 C838 1.378 . S
C836 C840 1.350 . S
C837 C840 1.463 . S
C837 C842 1.350 . S
C837 N845 1.427 . S
C838 H829 0.930 . S
C838 C836 1.378 . S
C838 C839 1.367 . S
C839 C838 1.367 . S
C839 C841 1.433 . S
C840 C836 1.350 . S
C840 C837 1.463 . S
C840 N844 1.427 . S
C841 H831 0.929 . S
C841 C839 1.433 . S
C841 N844 1.384 . S
C842 H833 0.929 . S
C842 C834 1.378 . S
C842 C837 1.350 . S
C843 H830 0.929 . S
C843 C835 1.433 . S
C843 N845 1.384 . S
N844 C840 1.427 . S
N844 C841 1.384 . S
N845 C837 1.427 . S
N845 C843 1.384 . S
H846 C852 0.930 . S
H847 C856 0.930 . S
H848 C861 0.929 . S
H849 C859 0.929 . S
H850 C854 0.929 . S
H851 C860 0.929 . S
C852 H846 0.930 . S
C852 C853 1.367 . S
C852 C860 1.378 . S
C853 C852 1.367 . S
C853 C861 1.433 . S
C854 H850 0.929 . S
C854 C856 1.378 . S
C854 C858 1.350 . S
C855 C858 1.463 . S
C855 C860 1.350 . S
C855 N863 1.427 . S
C856 H847 0.930 . S
C856 C854 1.378 . S
C856 C857 1.367 . S
C857 C856 1.367 . S
C857 C859 1.433 . S
C858 C854 1.350 . S
C858 C855 1.463 . S
C858 N862 1.427 . S
C859 H849 0.929 . S
C859 C857 1.433 . S
C859 N862 1.384 . S
C860 H851 0.929 . S
C860 C852 1.378 . S
C860 C855 1.350 . S
C861 H848 0.929 . S
C861 C853 1.433 . S
C861 N863 1.384 . S
N862 C858 1.427 . S
N862 C859 1.384 . S
N863 C855 1.427 . S
N863 C861 1.384 . S
H864 C870 0.930 . S
H865 C874 0.930 . S
H866 C879 0.929 . S
H867 C877 0.929 . S
H868 C872 0.929 . S
H869 C878 0.929 . S
C870 H864 0.930 . S
C870 C871 1.367 . S
C870 C878 1.378 . S
C871 C870 1.367 . S
C871 C879 1.433 . S
C872 H868 0.929 . S
C872 C874 1.378 . S
C872 C876 1.350 . S
C873 C876 1.463 . S
C873 C878 1.350 . S
C873 N881 1.427 . S
C874 H865 0.930 . S
C874 C872 1.378 . S
C874 C875 1.367 . S
C875 C874 1.367 . S
C875 C877 1.433 . S
C876 C872 1.350 . S
C876 C873 1.463 . S
C876 N880 1.427 . S
C877 H867 0.929 . S
C877 C875 1.433 . S
C877 N880 1.384 . S
C878 H869 0.929 . S
C878 C870 1.378 . S
C878 C873 1.350 . S
C879 H866 0.929 . S
C879 C871 1.433 . S
C879 N881 1.384 . S
N880 C876 1.427 . S
N880 C877 1.384 . S
N881 C873 1.427 . S
N881 C879 1.384 . S
H882 C888 0.930 . S
H883 C892 0.930 . S
H884 C897 0.929 . S
H885 C895 0.929 . S
H886 C890 0.929 . S
H887 C896 0.929 . S
C888 H882 0.930 . S
C888 C889 1.367 . S
C888 C896 1.378 . S
C889 C888 1.367 . S
C889 C897 1.433 . S
C890 H886 0.929 . S
C890 C892 1.378 . S
C890 C894 1.350 . S
C891 C894 1.463 . S
C891 C896 1.350 . S
C891 N899 1.427 . S
C892 H883 0.930 . S
C892 C890 1.378 . S
C892 C893 1.367 . S
C893 C892 1.367 . S
C893 C895 1.433 . S
C894 C890 1.350 . S
C894 C891 1.463 . S
C894 N898 1.427 . S
C895 H885 0.929 . S
C895 C893 1.433 . S
C895 N898 1.384 . S
C896 H887 0.929 . S
C896 C888 1.378 . S
C896 C891 1.350 . S
C897 H884 0.929 . S
C897 C889 1.433 . S
C897 N899 1.384 . S
N898 C894 1.427 . S
N898 C895 1.384 . S
N899 C891 1.427 . S
N899 C897 1.384 . S
H900 C906 0.930 . S
H901 C910 0.930 . S
H902 C915 0.929 . S
H903 C913 0.929 . S
H904 C908 0.929 . S
H905 C914 0.929 . S
C906 H900 0.930 . S
C906 C907 1.367 . S
C906 C914 1.378 . S
C907 C906 1.367 . S
C907 C915 1.433 . S
C908 H904 0.929 . S
C908 C910 1.378 . S
C908 C912 1.350 . S
C909 C912 1.463 . S
C909 C914 1.350 . S
C909 N917 1.427 . S
C910 H901 0.930 . S
C910 C908 1.378 . S
C910 C911 1.367 . S
C911 C910 1.367 . S
C911 C913 1.433 . S
C912 C908 1.350 . S
C912 C909 1.463 . S
C912 N916 1.427 . S
C913 H903 0.929 . S
C913 C911 1.433 . S
C913 N916 1.384 . S
C914 H905 0.929 . S
C914 C906 1.378 . S
C914 C909 1.350 . S
C915 H902 0.929 . S
C915 C907 1.433 . S
C915 N917 1.384 . S
N916 C912 1.427 . S
N916 C913 1.384 . S
N917 C909 1.427 . S
N917 C915 1.384 . S
H918 C924 0.930 1_556 S
H919 C928 0.930 . S
H920 C933 0.929 . S
H921 C931 0.929 . S
H922 C926 0.929 . S
H923 C932 0.929 . S
C924 H918 0.930 1_554 S
C924 C925 1.367 . S
C924 C932 1.378 1_554 S
C925 C924 1.367 . S
C925 C933 1.433 . S
C926 H922 0.929 . S
C926 C928 1.378 . S
C926 C930 1.350 . S
C927 C930 1.463 . S
C927 C932 1.350 1_554 S
C927 N935 1.427 . S
C928 H919 0.930 . S
C928 C926 1.378 . S
C928 C929 1.367 . S
C929 C928 1.367 . S
C929 C931 1.433 1_554 S
C930 C926 1.350 . S
C930 C927 1.463 . S
C930 N934 1.427 1_554 S
C931 H921 0.929 . S
C931 C929 1.433 1_556 S
C931 N934 1.384 . S
C932 H923 0.929 . S
C932 C924 1.378 1_556 S
C932 C927 1.350 1_556 S
C933 H920 0.929 . S
C933 C925 1.433 . S
C933 N935 1.384 . S
N934 C930 1.427 1_556 S
N934 C931 1.384 . S
N935 C927 1.427 . S
N935 C933 1.384 . S
H936 C942 0.930 . S
H937 C946 0.930 1_556 S
H938 C951 0.929 . S
H939 C949 0.929 . S
H940 C944 0.929 1_556 S
H941 C950 0.929 . S
C942 H936 0.930 . S
C942 C943 1.367 . S
C942 C950 1.378 . S
C943 C942 1.367 . S
C943 C951 1.433 . S
C944 H940 0.929 1_554 S
C944 C946 1.378 . S
C944 C948 1.350 . S
C945 C948 1.463 . S
C945 C950 1.350 . S
C945 N953 1.427 . S
C946 H937 0.930 1_554 S
C946 C944 1.378 . S
C946 C947 1.367 . S
C947 C946 1.367 . S
C947 C949 1.433 . S
C948 C944 1.350 . S
C948 C945 1.463 . S
C948 N952 1.427 . S
C949 H939 0.929 . S
C949 C947 1.433 . S
C949 N952 1.384 . S
C950 H941 0.929 . S
C950 C942 1.378 . S
C950 C945 1.350 . S
C951 H938 0.929 . S
C951 C943 1.433 . S
C951 N953 1.384 . S
N952 C948 1.427 . S
N952 C949 1.384 . S
N953 C945 1.427 . S
N953 C951 1.384 . S
H954 C960 0.930 . S
H955 C964 0.930 . S
H956 C969 0.929 . S
H957 C967 0.929 . S
H958 C962 0.929 . S
H959 C968 0.929 . S
C960 H954 0.930 . S
C960 C961 1.367 . S
C960 C968 1.378 . S
C961 C960 1.367 . S
C961 C969 1.433 . S
C962 H958 0.929 . S
C962 C964 1.378 . S
C962 C966 1.350 . S
C963 C966 1.463 . S
C963 C968 1.350 . S
C963 N971 1.427 . S
C964 H955 0.930 . S
C964 C962 1.378 . S
C964 C965 1.367 . S
C965 C964 1.367 . S
C965 C967 1.433 . S
C966 C962 1.350 . S
C966 C963 1.463 . S
C966 N970 1.427 . S
C967 H957 0.929 . S
C967 C965 1.433 . S
C967 N970 1.384 . S
C968 H959 0.929 . S
C968 C960 1.378 . S
C968 C963 1.350 . S
C969 H956 0.929 . S
C969 C961 1.433 . S
C969 N971 1.384 . S
N970 C966 1.427 . S
N970 C967 1.384 . S
N971 C963 1.427 . S
N971 C969 1.384 . S
H972 C978 0.930 . S
H973 C982 0.930 . S
H974 C987 0.929 . S
H975 C985 0.929 . S
H976 C980 0.929 . S
H977 C986 0.929 . S
C978 H972 0.930 . S
C978 C979 1.367 . S
C978 C986 1.378 . S
C979 C978 1.367 . S
C979 C987 1.433 . S
C980 H976 0.929 . S
C980 C982 1.378 . S
C980 C984 1.350 . S
C981 C984 1.463 . S
C981 C986 1.350 . S
C981 N989 1.427 . S
C982 H973 0.930 . S
C982 C980 1.378 . S
C982 C983 1.367 . S
C983 C982 1.367 . S
C983 C985 1.433 . S
C984 C980 1.350 . S
C984 C981 1.463 . S
C984 N988 1.427 . S
C985 H975 0.929 . S
C985 C983 1.433 . S
C985 N988 1.384 . S
C986 H977 0.929 . S
C986 C978 1.378 . S
C986 C981 1.350 . S
C987 H974 0.929 . S
C987 C979 1.433 . S
C987 N989 1.384 . S
N988 C984 1.427 . S
N988 C985 1.384 . S
N989 C981 1.427 . S
N989 C987 1.384 . S
H990 C996 0.930 . S
H991 C1000 0.930 . S
H992 C1005 0.929 . S
H993 C1003 0.929 . S
H994 C998 0.929 . S
H995 C1004 0.929 . S
C996 H990 0.930 . S
C996 C997 1.367 . S
C996 C1004 1.378 . S
C997 C996 1.367 . S
C997 C1005 1.433 . S
C998 H994 0.929 . S
C998 C1000 1.378 . S
C998 C1002 1.350 . S
C999 C1002 1.463 . S
C999 C1004 1.350 . S
C999 N1007 1.427 . S
C1000 H991 0.930 . S
C1000 C998 1.378 . S
C1000 C1001 1.367 . S
C1001 C1000 1.367 . S
C1001 C1003 1.433 . S
C1002 C998 1.350 . S
C1002 C999 1.463 . S
C1002 N1006 1.427 . S
C1003 H993 0.929 . S
C1003 C1001 1.433 . S
C1003 N1006 1.384 . S
C1004 H995 0.929 . S
C1004 C996 1.378 . S
C1004 C999 1.350 . S
C1005 H992 0.929 . S
C1005 C997 1.433 . S
C1005 N1007 1.384 . S
N1006 C1002 1.427 . S
N1006 C1003 1.384 . S
N1007 C999 1.427 . S
N1007 C1005 1.384 . S
H1008 C1014 0.930 1_655 S
H1009 C1018 0.930 . S
H1010 C1023 0.929 . S
H1011 C1021 0.929 . S
H1012 C1016 0.929 . S
H1013 C1022 0.929 1_655 S
C1014 H1008 0.930 1_455 S
C1014 C1015 1.367 . S
C1014 C1022 1.378 . S
C1015 C1014 1.367 . S
C1015 C1023 1.433 . S
C1016 H1012 0.929 . S
C1016 C1018 1.378 . S
C1016 C1020 1.350 . S
C1017 C1020 1.463 1_554 S
C1017 C1022 1.350 . S
C1017 N1025 1.427 . S
C1018 H1009 0.930 . S
C1018 C1016 1.378 . S
C1018 C1019 1.367 . S
C1019 C1018 1.367 . S
C1019 C1021 1.433 1_455 S
C1020 C1016 1.350 . S
C1020 C1017 1.463 1_556 S
C1020 N1024 1.433 . S
C1021 H1011 0.929 . S
C1021 C1019 1.433 1_655 S
C1021 N1024 1.383 1_655 S
C1022 H1013 0.929 1_455 S
C1022 C1014 1.378 . S
C1022 C1017 1.350 . S
C1023 H1010 0.929 . S
C1023 C1015 1.433 . S
C1023 N1025 1.384 . S
N1024 C1020 1.433 . S
N1024 C1021 1.383 1_455 S
N1025 C1017 1.427 . S
N1025 C1023 1.384 . S
H1026 C1032 0.930 . S
H1027 C1036 0.930 . S
H1028 C1041 0.929 . S
H1029 C1039 0.929 . S
H1030 C1034 0.929 . S
H1031 C1040 0.929 . S
C1032 H1026 0.930 . S
C1032 C1033 1.367 . S
C1032 C1040 1.378 . S
C1033 C1032 1.367 . S
C1033 C1041 1.433 . S
C1034 H1030 0.929 . S
C1034 C1036 1.378 . S
C1034 C1038 1.350 . S
C1035 C1038 1.463 1_554 S
C1035 C1040 1.350 . S
C1035 N1043 1.427 . S
C1036 H1027 0.930 . S
C1036 C1034 1.378 . S
C1036 C1037 1.367 . S
C1037 C1036 1.367 . S
C1037 C1039 1.433 . S
C1038 C1034 1.350 . S
C1038 C1035 1.463 1_556 S
C1038 N1042 1.427 . S
C1039 H1029 0.929 . S
C1039 C1037 1.433 . S
C1039 N1042 1.384 . S
C1040 H1031 0.929 . S
C1040 C1032 1.378 . S
C1040 C1035 1.350 . S
C1041 H1028 0.929 . S
C1041 C1033 1.433 . S
C1041 N1043 1.384 . S
N1042 C1038 1.427 . S
N1042 C1039 1.384 . S
N1043 C1035 1.427 . S
N1043 C1041 1.384 . S
H1044 C1050 0.930 . S
H1045 C1054 0.930 . S
H1046 C1059 0.933 . S
H1047 C1057 0.929 . S
H1048 C1052 0.929 1_565 S
H1049 C1058 0.929 . S
C1050 H1044 0.930 . S
C1050 C1051 1.367 . S
C1050 C1058 1.378 . S
C1051 C1050 1.367 . S
C1051 C1059 1.431 1_545 S
C1052 H1048 0.929 1_545 S
C1052 C1054 1.378 . S
C1052 C1056 1.350 . S
C1053 C1056 1.463 1_554 S
C1053 C1058 1.350 . S
C1053 N1061 1.427 . S
C1054 H1045 0.930 . S
C1054 C1052 1.378 . S
C1054 C1055 1.367 . S
C1055 C1054 1.367 . S
C1055 C1057 1.433 . S
C1056 C1052 1.350 . S
C1056 C1053 1.463 1_556 S
C1056 N1060 1.427 . S
C1057 H1047 0.929 . S
C1057 C1055 1.433 . S
C1057 N1060 1.384 . S
C1058 H1049 0.929 . S
C1058 C1050 1.378 . S
C1058 C1053 1.350 . S
C1059 H1046 0.933 . S
C1059 C1051 1.431 1_565 S
C1059 N1061 1.382 1_565 S
N1060 C1056 1.427 . S
N1060 C1057 1.384 . S
N1061 C1053 1.427 . S
N1061 C1059 1.382 1_545 S
H1062 C1068 0.930 . S
H1063 C1072 0.930 . S
H1064 C1077 0.929 . S
H1065 C1075 0.932 . S
H1066 C1070 0.929 . S
H1067 C1076 0.929 . S
C1068 H1062 0.930 . S
C1068 C1069 1.367 1_655 S
C1068 C1076 1.378 . S
C1069 C1068 1.367 1_455 S
C1069 C1077 1.433 . S
C1070 H1066 0.929 . S
C1070 C1072 1.378 . S
C1070 C1074 1.350 . S
C1071 C1074 1.463 . S
C1071 C1076 1.350 1_454 S
C1071 N1079 1.427 1_554 S
C1072 H1063 0.930 . S
C1072 C1070 1.378 . S
C1072 C1073 1.367 . S
C1073 C1072 1.367 . S
C1073 C1075 1.430 1_455 S
C1074 C1070 1.350 . S
C1074 C1071 1.463 . S
C1074 N1078 1.427 1_455 S
C1075 H1065 0.932 . S
C1075 C1073 1.430 1_655 S
C1075 N1078 1.384 . S
C1076 H1067 0.929 . S
C1076 C1068 1.378 . S
C1076 C1071 1.350 1_656 S
C1077 H1064 0.929 . S
C1077 C1069 1.433 . S
C1077 N1079 1.384 . S
N1078 C1074 1.427 1_655 S
N1078 C1075 1.384 . S
N1079 C1071 1.427 1_556 S
N1079 C1077 1.384 . S
H1080 C1086 0.930 . S
H1081 C1090 0.930 . S
H1082 C1095 0.929 . S
H1083 C1093 0.929 . S
H1084 C1088 0.925 1_554 S
H1085 C1094 0.929 . S
C1086 H1080 0.930 . S
C1086 C1087 1.367 . S
C1086 C1094 1.378 . S
C1087 C1086 1.367 . S
C1087 C1095 1.433 . S
C1088 H1084 0.925 1_556 S
C1088 C1090 1.384 . S
C1088 C1092 1.347 1_556 S
C1089 C1092 1.463 . S
C1089 C1094 1.350 . S
C1089 N1097 1.427 . S
C1090 H1081 0.930 . S
C1090 C1088 1.384 . S
C1090 C1091 1.367 . S
C1091 C1090 1.367 . S
C1091 C1093 1.433 . S
C1092 C1088 1.347 1_554 S
C1092 C1089 1.463 . S
C1092 N1096 1.427 1_554 S
C1093 H1083 0.929 . S
C1093 C1091 1.433 . S
C1093 N1096 1.384 . S
C1094 H1085 0.929 . S
C1094 C1086 1.378 . S
C1094 C1089 1.350 . S
C1095 H1082 0.929 . S
C1095 C1087 1.433 . S
C1095 N1097 1.384 . S
N1096 C1092 1.427 1_556 S
N1096 C1093 1.384 . S
N1097 C1089 1.427 . S
N1097 C1095 1.384 . S
H1098 C1104 0.930 . S
H1099 C1108 0.930 . S
H1100 C1113 0.929 1_565 S
H1101 C1111 0.929 . S
H1102 C1106 0.929 . S
H1103 C1112 0.929 . S
C1104 H1098 0.930 . S
C1104 C1105 1.367 . S
C1104 C1112 1.378 . S
C1105 C1104 1.367 . S
C1105 C1113 1.433 . S
C1106 H1102 0.929 . S
C1106 C1108 1.378 . S
C1106 C1110 1.350 . S
C1107 C1110 1.463 1_554 S
C1107 C1112 1.350 . S
C1107 N1115 1.427 . S
C1108 H1099 0.930 . S
C1108 C1106 1.378 . S
C1108 C1109 1.367 . S
C1109 C1108 1.367 . S
C1109 C1111 1.433 . S
C1110 C1106 1.350 . S
C1110 C1107 1.463 1_556 S
C1110 N1114 1.427 . S
C1111 H1101 0.929 . S
C1111 C1109 1.433 . S
C1111 N1114 1.384 . S
C1112 H1103 0.929 . S
C1112 C1104 1.378 . S
C1112 C1107 1.350 . S
C1113 H1100 0.929 1_545 S
C1113 C1105 1.433 . S
C1113 N1115 1.384 . S
N1114 C1110 1.427 . S
N1114 C1111 1.384 . S
N1115 C1107 1.427 . S
N1115 C1113 1.384 . S
H1116 C1122 0.930 . S
H1117 C1126 0.930 . S
H1118 C1131 0.929 . S
H1119 C1129 0.929 . S
H1120 C1124 0.929 . S
H1121 C1130 0.929 . S
C1122 H1116 0.930 . S
C1122 C1123 1.367 . S
C1122 C1130 1.378 . S
C1123 C1122 1.367 . S
C1123 C1131 1.433 . S
C1124 H1120 0.929 . S
C1124 C1126 1.378 . S
C1124 C1128 1.350 . S
C1125 C1128 1.463 . S
C1125 C1130 1.350 . S
C1125 N1133 1.427 . S
C1126 H1117 0.930 . S
C1126 C1124 1.378 . S
C1126 C1127 1.367 . S
C1127 C1126 1.367 . S
C1127 C1129 1.433 . S
C1128 C1124 1.350 . S
C1128 C1125 1.463 . S
C1128 N1132 1.427 . S
C1129 H1119 0.929 . S
C1129 C1127 1.433 . S
C1129 N1132 1.384 . S
C1130 H1121 0.929 . S
C1130 C1122 1.378 . S
C1130 C1125 1.350 . S
C1131 H1118 0.929 . S
C1131 C1123 1.433 . S
C1131 N1133 1.384 . S
N1132 C1128 1.427 . S
N1132 C1129 1.384 . S
N1133 C1125 1.427 . S
N1133 C1131 1.384 . S
H1134 C1140 0.930 . S
H1135 C1144 0.930 . S
H1136 C1149 0.929 . S
H1137 C1147 0.929 . S
H1138 C1142 0.929 . S
H1139 C1148 0.929 . S
C1140 H1134 0.930 . S
C1140 C1141 1.367 . S
C1140 C1148 1.378 . S
C1141 C1140 1.367 . S
C1141 C1149 1.433 . S
C1142 H1138 0.929 . S
C1142 C1144 1.378 . S
C1142 C1146 1.350 . S
C1143 C1146 1.463 . S
C1143 C1148 1.350 . S
C1143 N1151 1.427 . S
C1144 H1135 0.930 . S
C1144 C1142 1.378 . S
C1144 C1145 1.367 . S
C1145 C1144 1.367 . S
C1145 C1147 1.433 . S
C1146 C1142 1.350 . S
C1146 C1143 1.463 . S
C1146 N1150 1.427 . S
C1147 H1137 0.929 . S
C1147 C1145 1.433 . S
C1147 N1150 1.384 . S
C1148 H1139 0.929 . S
C1148 C1140 1.378 . S
C1148 C1143 1.350 . S
C1149 H1136 0.929 . S
C1149 C1141 1.433 . S
C1149 N1151 1.384 . S
N1150 C1146 1.427 . S
N1150 C1147 1.384 . S
N1151 C1143 1.427 . S
N1151 C1149 1.384 . S
H1152 C1158 0.930 . S
H1153 C1162 0.930 . S
H1154 C1167 0.929 . S
H1155 C1165 0.929 . S
H1156 C1160 0.929 . S
H1157 C1166 0.929 . S
C1158 H1152 0.930 . S
C1158 C1159 1.367 . S
C1158 C1166 1.378 . S
C1159 C1158 1.367 . S
C1159 C1167 1.433 . S
C1160 H1156 0.929 . S
C1160 C1162 1.378 . S
C1160 C1164 1.350 . S
C1161 C1164 1.463 . S
C1161 C1166 1.350 . S
C1161 N1169 1.427 . S
C1162 H1153 0.930 . S
C1162 C1160 1.378 . S
C1162 C1163 1.367 . S
C1163 C1162 1.367 . S
C1163 C1165 1.433 . S
C1164 C1160 1.350 . S
C1164 C1161 1.463 . S
C1164 N1168 1.427 . S
C1165 H1155 0.929 . S
C1165 C1163 1.433 . S
C1165 N1168 1.384 . S
C1166 H1157 0.929 . S
C1166 C1158 1.378 . S
C1166 C1161 1.350 . S
C1167 H1154 0.929 . S
C1167 C1159 1.433 . S
C1167 N1169 1.384 . S
N1168 C1164 1.427 . S
N1168 C1165 1.384 . S
N1169 C1161 1.427 . S
N1169 C1167 1.384 . S
H1170 C1176 0.930 . S
H1171 C1180 0.930 . S
H1172 C1185 0.929 . S
H1173 C1183 0.929 . S
H1174 C1178 0.929 . S
H1175 C1184 0.929 . S
C1176 H1170 0.930 . S
C1176 C1177 1.367 . S
C1176 C1184 1.378 . S
C1177 C1176 1.367 . S
C1177 C1185 1.433 . S
C1178 H1174 0.929 . S
C1178 C1180 1.378 . S
C1178 C1182 1.350 . S
C1179 C1182 1.463 . S
C1179 C1184 1.350 . S
C1179 N1187 1.427 . S
C1180 H1171 0.930 . S
C1180 C1178 1.378 . S
C1180 C1181 1.367 . S
C1181 C1180 1.367 . S
C1181 C1183 1.433 . S
C1182 C1178 1.350 . S
C1182 C1179 1.463 . S
C1182 N1186 1.427 . S
C1183 H1173 0.929 . S
C1183 C1181 1.433 . S
C1183 N1186 1.384 . S
C1184 H1175 0.929 . S
C1184 C1176 1.378 . S
C1184 C1179 1.350 . S
C1185 H1172 0.929 . S
C1185 C1177 1.433 . S
C1185 N1187 1.384 . S
N1186 C1182 1.427 . S
N1186 C1183 1.384 . S
N1187 C1179 1.427 . S
N1187 C1185 1.384 . S
H1188 C1194 0.930 . S
H1189 C1198 0.930 . S
H1190 C1203 0.929 . S
H1191 C1201 0.929 . S
H1192 C1196 0.929 . S
H1193 C1202 0.929 . S
C1194 H1188 0.930 . S
C1194 C1195 1.367 . S
C1194 C1202 1.378 . S
C1195 C1194 1.367 . S
C1195 C1203 1.433 . S
C1196 H1192 0.929 . S
C1196 C1198 1.378 . S
C1196 C1200 1.350 . S
C1197 C1200 1.463 . S
C1197 C1202 1.350 . S
C1197 N1205 1.427 . S
C1198 H1189 0.930 . S
C1198 C1196 1.378 . S
C1198 C1199 1.367 . S
C1199 C1198 1.367 . S
C1199 C1201 1.433 . S
C1200 C1196 1.350 . S
C1200 C1197 1.463 . S
C1200 N1204 1.427 . S
C1201 H1191 0.929 . S
C1201 C1199 1.433 . S
C1201 N1204 1.384 . S
C1202 H1193 0.929 . S
C1202 C1194 1.378 . S
C1202 C1197 1.350 . S
C1203 H1190 0.929 . S
C1203 C1195 1.433 . S
C1203 N1205 1.384 . S
N1204 C1200 1.427 . S
N1204 C1201 1.384 . S
N1205 C1197 1.427 . S
N1205 C1203 1.384 . S
H1206 C1212 0.930 . S
H1207 C1216 0.930 . S
H1208 C1221 0.929 . S
H1209 C1219 0.929 . S
H1210 C1214 0.929 . S
H1211 C1220 0.929 . S
C1212 H1206 0.930 . S
C1212 C1213 1.367 . S
C1212 C1220 1.378 . S
C1213 C1212 1.367 . S
C1213 C1221 1.433 . S
C1214 H1210 0.929 . S
C1214 C1216 1.378 . S
C1214 C1218 1.350 . S
C1215 C1218 1.463 . S
C1215 C1220 1.350 . S
C1215 N1223 1.427 . S
C1216 H1207 0.930 . S
C1216 C1214 1.378 . S
C1216 C1217 1.367 . S
C1217 C1216 1.367 . S
C1217 C1219 1.433 . S
C1218 C1214 1.350 . S
C1218 C1215 1.463 . S
C1218 N1222 1.427 . S
C1219 H1209 0.929 . S
C1219 C1217 1.433 . S
C1219 N1222 1.384 . S
C1220 H1211 0.929 . S
C1220 C1212 1.378 . S
C1220 C1215 1.350 . S
C1221 H1208 0.929 . S
C1221 C1213 1.433 . S
C1221 N1223 1.384 . S
N1222 C1218 1.427 . S
N1222 C1219 1.384 . S
N1223 C1215 1.427 . S
N1223 C1221 1.384 . S
H1224 C1230 0.930 . S
H1225 C1234 0.930 . S
H1226 C1239 0.929 . S
H1227 C1237 0.929 . S
H1228 C1232 0.929 . S
H1229 C1238 0.929 . S
C1230 H1224 0.930 . S
C1230 C1231 1.367 . S
C1230 C1238 1.378 . S
C1231 C1230 1.367 . S
C1231 C1239 1.433 . S
C1232 H1228 0.929 . S
C1232 C1234 1.378 . S
C1232 C1236 1.350 . S
C1233 C1236 1.463 . S
C1233 C1238 1.350 . S
C1233 N1241 1.427 . S
C1234 H1225 0.930 . S
C1234 C1232 1.378 . S
C1234 C1235 1.367 . S
C1235 C1234 1.367 . S
C1235 C1237 1.433 . S
C1236 C1232 1.350 . S
C1236 C1233 1.463 . S
C1236 N1240 1.427 . S
C1237 H1227 0.929 . S
C1237 C1235 1.433 . S
C1237 N1240 1.384 . S
C1238 H1229 0.929 . S
C1238 C1230 1.378 . S
C1238 C1233 1.350 . S
C1239 H1226 0.929 . S
C1239 C1231 1.433 . S
C1239 N1241 1.384 . S
N1240 C1236 1.427 . S
N1240 C1237 1.384 . S
N1241 C1233 1.427 . S
N1241 C1239 1.384 . S
H1242 C1248 0.930 . S
H1243 C1252 0.930 . S
H1244 C1257 0.929 . S
H1245 C1255 0.929 . S
H1246 C1250 0.929 . S
H1247 C1256 0.929 . S
C1248 H1242 0.930 . S
C1248 C1249 1.367 . S
C1248 C1256 1.378 . S
C1249 C1248 1.367 . S
C1249 C1257 1.433 . S
C1250 H1246 0.929 . S
C1250 C1252 1.378 . S
C1250 C1254 1.350 . S
C1251 C1254 1.463 . S
C1251 C1256 1.350 . S
C1251 N1259 1.427 . S
C1252 H1243 0.930 . S
C1252 C1250 1.378 . S
C1252 C1253 1.367 . S
C1253 C1252 1.367 . S
C1253 C1255 1.433 . S
C1254 C1250 1.350 . S
C1254 C1251 1.463 . S
C1254 N1258 1.427 . S
C1255 H1245 0.929 . S
C1255 C1253 1.433 . S
C1255 N1258 1.384 . S
C1256 H1247 0.929 . S
C1256 C1248 1.378 . S
C1256 C1251 1.350 . S
C1257 H1244 0.929 . S
C1257 C1249 1.433 . S
C1257 N1259 1.384 . S
N1258 C1254 1.427 . S
N1258 C1255 1.384 . S
N1259 C1251 1.427 . S
N1259 C1257 1.384 . S
H1260 C1266 0.930 . S
H1261 C1270 0.930 . S
H1262 C1275 0.929 . S
H1263 C1273 0.929 . S
H1264 C1268 0.929 . S
H1265 C1274 0.929 . S
C1266 H1260 0.930 . S
C1266 C1267 1.367 . S
C1266 C1274 1.378 . S
C1267 C1266 1.367 . S
C1267 C1275 1.433 . S
C1268 H1264 0.929 . S
C1268 C1270 1.378 . S
C1268 C1272 1.350 . S
C1269 C1272 1.463 . S
C1269 C1274 1.350 . S
C1269 N1277 1.427 . S
C1270 H1261 0.930 . S
C1270 C1268 1.378 . S
C1270 C1271 1.367 . S
C1271 C1270 1.367 . S
C1271 C1273 1.433 . S
C1272 C1268 1.350 . S
C1272 C1269 1.463 . S
C1272 N1276 1.427 . S
C1273 H1263 0.929 . S
C1273 C1271 1.433 . S
C1273 N1276 1.384 . S
C1274 H1265 0.929 . S
C1274 C1266 1.378 . S
C1274 C1269 1.350 . S
C1275 H1262 0.929 . S
C1275 C1267 1.433 . S
C1275 N1277 1.384 . S
N1276 C1272 1.427 . S
N1276 C1273 1.384 . S
N1277 C1269 1.427 . S
N1277 C1275 1.384 . S
H1278 C1284 0.930 . S
H1279 C1288 0.930 . S
H1280 C1293 0.929 . S
H1281 C1291 0.929 . S
H1282 C1286 0.929 . S
H1283 C1292 0.929 . S
C1284 H1278 0.930 . S
C1284 C1285 1.367 . S
C1284 C1292 1.378 . S
C1285 C1284 1.367 . S
C1285 C1293 1.433 . S
C1286 H1282 0.929 . S
C1286 C1288 1.378 . S
C1286 C1290 1.350 . S
C1287 C1290 1.463 . S
C1287 C1292 1.350 . S
C1287 N1295 1.427 . S
C1288 H1279 0.930 . S
C1288 C1286 1.378 . S
C1288 C1289 1.367 . S
C1289 C1288 1.367 . S
C1289 C1291 1.433 . S
C1290 C1286 1.350 . S
C1290 C1287 1.463 . S
C1290 N1294 1.427 . S
C1291 H1281 0.929 . S
C1291 C1289 1.433 . S
C1291 N1294 1.384 . S
C1292 H1283 0.929 . S
C1292 C1284 1.378 . S
C1292 C1287 1.350 . S
C1293 H1280 0.929 . S
C1293 C1285 1.433 . S
C1293 N1295 1.384 . S
N1294 C1290 1.427 . S
N1294 C1291 1.384 . S
N1295 C1287 1.427 . S
N1295 C1293 1.384 . S
H1296 C1302 0.930 . S
H1297 C1306 0.930 . S
H1298 C1311 0.929 . S
H1299 C1309 0.929 . S
H1300 C1304 0.929 . S
H1301 C1310 0.929 . S
C1302 H1296 0.930 . S
C1302 C1303 1.367 . S
C1302 C1310 1.378 . S
C1303 C1302 1.367 . S
C1303 C1311 1.433 . S
C1304 H1300 0.929 . S
C1304 C1306 1.378 . S
C1304 C1308 1.350 . S
C1305 C1308 1.463 . S
C1305 C1310 1.350 . S
C1305 N1313 1.427 . S
C1306 H1297 0.930 . S
C1306 C1304 1.378 . S
C1306 C1307 1.367 . S
C1307 C1306 1.367 . S
C1307 C1309 1.433 . S
C1308 C1304 1.350 . S
C1308 C1305 1.463 . S
C1308 N1312 1.427 . S
C1309 H1299 0.929 . S
C1309 C1307 1.433 . S
C1309 N1312 1.384 . S
C1310 H1301 0.929 . S
C1310 C1302 1.378 . S
C1310 C1305 1.350 . S
C1311 H1298 0.929 . S
C1311 C1303 1.433 . S
C1311 N1313 1.384 . S
N1312 C1308 1.427 . S
N1312 C1309 1.384 . S
N1313 C1305 1.427 . S
N1313 C1311 1.384 . S
H1314 C1320 0.930 . S
H1315 C1324 0.930 . S
H1316 C1329 0.929 . S
H1317 C1327 0.929 . S
H1318 C1322 0.929 . S
H1319 C1328 0.929 . S
C1320 H1314 0.930 . S
C1320 C1321 1.367 . S
C1320 C1328 1.378 . S
C1321 C1320 1.367 . S
C1321 C1329 1.433 . S
C1322 H1318 0.929 . S
C1322 C1324 1.378 . S
C1322 C1326 1.350 . S
C1323 C1326 1.463 . S
C1323 C1328 1.350 . S
C1323 N1331 1.427 . S
C1324 H1315 0.930 . S
C1324 C1322 1.378 . S
C1324 C1325 1.367 . S
C1325 C1324 1.367 . S
C1325 C1327 1.433 . S
C1326 C1322 1.350 . S
C1326 C1323 1.463 . S
C1326 N1330 1.427 . S
C1327 H1317 0.929 . S
C1327 C1325 1.433 . S
C1327 N1330 1.384 . S
C1328 H1319 0.929 . S
C1328 C1320 1.378 . S
C1328 C1323 1.350 . S
C1329 H1316 0.929 . S
C1329 C1321 1.433 . S
C1329 N1331 1.384 . S
N1330 C1326 1.427 . S
N1330 C1327 1.384 . S
N1331 C1323 1.427 . S
N1331 C1329 1.384 . S
C367 C266 1.471 . S
C371 C6 1.474 . S
C385 C29 1.543 . S
C389 C289 1.538 . S
C403 C46 1.489 . S
C407 C249 1.525 . S
C421 C49 1.571 . S
C425 C149 1.574 . S
C439 C169 1.880 . S
C443 C9 1.863 . S
C457 C26 1.715 . S
C461 C129 1.754 . S
C475 C76 1.740 . S
C479 C201 1.802 . S
C493 C81 1.578 . S
C497 C221 1.599 . S
C511 C181 1.507 . S
C515 C116 1.460 . S
C529 C321 1.538 . S
C533 C101 1.530 1_565 S
C547 C61 1.517 . S
C551 C356 1.485 . S
C565 C316 1.471 . S
C569 C96 1.474 . S
C583 C166 1.309 . S
C587 C269 1.332 . S
C601 C126 1.252 . S
C605 C286 1.257 . S
C619 C146 1.473 . S
C623 C246 1.463 . S
C637 C196 1.488 . S
C641 C336 1.499 . S
C655 C341 1.386 . S
C659 C216 1.346 . S
C673 C301 1.592 . S
C677 C236 1.576 . S
C691 C1 1.661 . S
C695 C89 1.666 . S
C709 C106 2.035 . S
C713 C36 2.025 . S
C727 C66 1.790 . S
C731 C41 1.876 . S
C745 C86 1.879 . S
C749 C56 1.926 . S
C763 C109 1.908 . S
C767 C16 1.791 . S
C781 C69 1.842 . S
C785 C21 1.872 . S
C799 C206 1.719 . S
C803 C136 1.680 . S
C817 C226 1.883 . S
C821 C156 1.880 . S
C835 C186 1.825 . S
C839 C176 1.752 . S
C853 C209 1.804 . S
C857 C161 1.801 . S
C871 C229 1.641 . S
C875 C121 1.698 . S
C889 C189 1.518 . S
C893 C141 1.517 . S
C907 C329 1.476 . S
C911 C241 1.452 . S
C925 C346 1.667 . S
C929 C276 1.604 . S
C943 C281 1.584 . S
C947 C306 1.475 . S
C961 C296 1.789 . S
C965 C326 1.779 . S
C979 C256 1.487 . S
C983 C349 1.538 . S
C997 C309 1.256 . S
C1001 C261 1.249 . S
C1015 C19 1.706 . S
C1019 C8 1.706 . S
C1033 C28 1.742 . S
C1037 C39 1.742 . S
C1051 C59 1.739 . S
C1055 C48 1.739 . S
C1069 C68 1.729 . S
C1073 C79 1.729 . S
C1087 C88 1.725 . S
C1091 C99 1.725 . S
C1105 C119 1.743 . S
C1109 C108 1.743 . S
C1123 C139 1.715 1_554 S
C1127 C128 1.715 . S
C1141 C148 1.718 . S
C1145 C159 1.718 1_554 S
C1159 C179 1.749 1_554 S
C1163 C168 1.749 . S
C1177 C188 1.701 1_554 S
C1181 C199 1.701 . S
C1195 C208 1.741 1_554 S
C1199 C219 1.741 . S
C1213 C228 1.754 1_554 S
C1217 C239 1.754 . S
C1231 C248 1.705 . S
C1235 C259 1.705 1_556 S
C1249 C268 1.725 . S
C1253 C279 1.725 . S
C1267 C299 1.736 1_556 S
C1271 C288 1.736 . S
C1285 C319 1.706 1_556 S
C1289 C308 1.706 . S
C1303 C328 1.710 1_556 S
C1307 C339 1.710 . S
C1321 C348 1.724 . S
C1325 C359 1.724 1_556 S
